# Generated by pormake.
# Topology cha, (4)-cn, num edge types: 1
# Building blocks:
#     Node 0, Type 0, BuildingBlock: TATPOV_clean_sbu_0, # of connection points: 4
#     Node 1, Type 0, BuildingBlock: TATPOV_clean_sbu_0, # of connection points: 4
#     Node 2, Type 0, BuildingBlock: TATPOV_clean_sbu_0, # of connection points: 4
#     Node 3, Type 0, BuildingBlock: TATPOV_clean_sbu_0, # of connection points: 4
#     Node 4, Type 0, BuildingBlock: TATPOV_clean_sbu_0, # of connection points: 4
#     Node 5, Type 0, BuildingBlock: TATPOV_clean_sbu_0, # of connection points: 4
#     Node 6, Type 0, BuildingBlock: TATPOV_clean_sbu_0, # of connection points: 4
#     Node 7, Type 0, BuildingBlock: TATPOV_clean_sbu_0, # of connection points: 4
#     Node 8, Type 0, BuildingBlock: TATPOV_clean_sbu_0, # of connection points: 4
#     Node 9, Type 0, BuildingBlock: TATPOV_clean_sbu_0, # of connection points: 4
#     Node 10, Type 0, BuildingBlock: TATPOV_clean_sbu_0, # of connection points: 4
#     Node 11, Type 0, BuildingBlock: TATPOV_clean_sbu_0, # of connection points: 4
#     Node 12, Type 0, BuildingBlock: TATPOV_clean_sbu_0, # of connection points: 4
#     Node 13, Type 0, BuildingBlock: TATPOV_clean_sbu_0, # of connection points: 4
#     Node 14, Type 0, BuildingBlock: TATPOV_clean_sbu_0, # of connection points: 4
#     Node 15, Type 0, BuildingBlock: TATPOV_clean_sbu_0, # of connection points: 4
#     Node 16, Type 0, BuildingBlock: TATPOV_clean_sbu_0, # of connection points: 4
#     Node 17, Type 0, BuildingBlock: TATPOV_clean_sbu_0, # of connection points: 4
#     Node 18, Type 0, BuildingBlock: TATPOV_clean_sbu_0, # of connection points: 4
#     Node 19, Type 0, BuildingBlock: TATPOV_clean_sbu_0, # of connection points: 4
#     Node 20, Type 0, BuildingBlock: TATPOV_clean_sbu_0, # of connection points: 4
#     Node 21, Type 0, BuildingBlock: TATPOV_clean_sbu_0, # of connection points: 4
#     Node 22, Type 0, BuildingBlock: TATPOV_clean_sbu_0, # of connection points: 4
#     Node 23, Type 0, BuildingBlock: TATPOV_clean_sbu_0, # of connection points: 4
#     Node 24, Type 0, BuildingBlock: TATPOV_clean_sbu_0, # of connection points: 4
#     Node 25, Type 0, BuildingBlock: TATPOV_clean_sbu_0, # of connection points: 4
#     Node 26, Type 0, BuildingBlock: TATPOV_clean_sbu_0, # of connection points: 4
#     Node 27, Type 0, BuildingBlock: TATPOV_clean_sbu_0, # of connection points: 4
#     Node 28, Type 0, BuildingBlock: TATPOV_clean_sbu_0, # of connection points: 4
#     Node 29, Type 0, BuildingBlock: TATPOV_clean_sbu_0, # of connection points: 4
#     Node 30, Type 0, BuildingBlock: TATPOV_clean_sbu_0, # of connection points: 4
#     Node 31, Type 0, BuildingBlock: TATPOV_clean_sbu_0, # of connection points: 4
#     Node 32, Type 0, BuildingBlock: TATPOV_clean_sbu_0, # of connection points: 4
#     Node 33, Type 0, BuildingBlock: TATPOV_clean_sbu_0, # of connection points: 4
#     Node 34, Type 0, BuildingBlock: TATPOV_clean_sbu_0, # of connection points: 4
#     Node 35, Type 0, BuildingBlock: TATPOV_clean_sbu_0, # of connection points: 4
#     Edge 36, Type (0, 0), BuildingBlock: CIFDUS_clean_linker_0, # of connection points: 2
#     Edge 37, Type (0, 0), BuildingBlock: CIFDUS_clean_linker_0, # of connection points: 2
#     Edge 38, Type (0, 0), BuildingBlock: CIFDUS_clean_linker_0, # of connection points: 2
#     Edge 39, Type (0, 0), BuildingBlock: CIFDUS_clean_linker_0, # of connection points: 2
#     Edge 40, Type (0, 0), BuildingBlock: CIFDUS_clean_linker_0, # of connection points: 2
#     Edge 41, Type (0, 0), BuildingBlock: CIFDUS_clean_linker_0, # of connection points: 2
#     Edge 42, Type (0, 0), BuildingBlock: CIFDUS_clean_linker_0, # of connection points: 2
#     Edge 43, Type (0, 0), BuildingBlock: CIFDUS_clean_linker_0, # of connection points: 2
#     Edge 44, Type (0, 0), BuildingBlock: CIFDUS_clean_linker_0, # of connection points: 2
#     Edge 45, Type (0, 0), BuildingBlock: CIFDUS_clean_linker_0, # of connection points: 2
#     Edge 46, Type (0, 0), BuildingBlock: CIFDUS_clean_linker_0, # of connection points: 2
#     Edge 47, Type (0, 0), BuildingBlock: CIFDUS_clean_linker_0, # of connection points: 2
#     Edge 48, Type (0, 0), BuildingBlock: CIFDUS_clean_linker_0, # of connection points: 2
#     Edge 49, Type (0, 0), BuildingBlock: CIFDUS_clean_linker_0, # of connection points: 2
#     Edge 50, Type (0, 0), BuildingBlock: CIFDUS_clean_linker_0, # of connection points: 2
#     Edge 51, Type (0, 0), BuildingBlock: CIFDUS_clean_linker_0, # of connection points: 2
#     Edge 52, Type (0, 0), BuildingBlock: CIFDUS_clean_linker_0, # of connection points: 2
#     Edge 53, Type (0, 0), BuildingBlock: CIFDUS_clean_linker_0, # of connection points: 2
#     Edge 54, Type (0, 0), BuildingBlock: CIFDUS_clean_linker_0, # of connection points: 2
#     Edge 55, Type (0, 0), BuildingBlock: CIFDUS_clean_linker_0, # of connection points: 2
#     Edge 56, Type (0, 0), BuildingBlock: CIFDUS_clean_linker_0, # of connection points: 2
#     Edge 57, Type (0, 0), BuildingBlock: CIFDUS_clean_linker_0, # of connection points: 2
#     Edge 58, Type (0, 0), BuildingBlock: CIFDUS_clean_linker_0, # of connection points: 2
#     Edge 59, Type (0, 0), BuildingBlock: CIFDUS_clean_linker_0, # of connection points: 2
#     Edge 60, Type (0, 0), BuildingBlock: CIFDUS_clean_linker_0, # of connection points: 2
#     Edge 61, Type (0, 0), BuildingBlock: CIFDUS_clean_linker_0, # of connection points: 2
#     Edge 62, Type (0, 0), BuildingBlock: CIFDUS_clean_linker_0, # of connection points: 2
#     Edge 63, Type (0, 0), BuildingBlock: CIFDUS_clean_linker_0, # of connection points: 2
#     Edge 64, Type (0, 0), BuildingBlock: CIFDUS_clean_linker_0, # of connection points: 2
#     Edge 65, Type (0, 0), BuildingBlock: CIFDUS_clean_linker_0, # of connection points: 2
#     Edge 66, Type (0, 0), BuildingBlock: CIFDUS_clean_linker_0, # of connection points: 2
#     Edge 67, Type (0, 0), BuildingBlock: CIFDUS_clean_linker_0, # of connection points: 2
#     Edge 68, Type (0, 0), BuildingBlock: CIFDUS_clean_linker_0, # of connection points: 2
#     Edge 69, Type (0, 0), BuildingBlock: CIFDUS_clean_linker_0, # of connection points: 2
#     Edge 70, Type (0, 0), BuildingBlock: CIFDUS_clean_linker_0, # of connection points: 2
#     Edge 71, Type (0, 0), BuildingBlock: CIFDUS_clean_linker_0, # of connection points: 2
#     Edge 72, Type (0, 0), BuildingBlock: CIFDUS_clean_linker_0, # of connection points: 2
#     Edge 73, Type (0, 0), BuildingBlock: CIFDUS_clean_linker_0, # of connection points: 2
#     Edge 74, Type (0, 0), BuildingBlock: CIFDUS_clean_linker_0, # of connection points: 2
#     Edge 75, Type (0, 0), BuildingBlock: CIFDUS_clean_linker_0, # of connection points: 2
#     Edge 76, Type (0, 0), BuildingBlock: CIFDUS_clean_linker_0, # of connection points: 2
#     Edge 77, Type (0, 0), BuildingBlock: CIFDUS_clean_linker_0, # of connection points: 2
#     Edge 78, Type (0, 0), BuildingBlock: CIFDUS_clean_linker_0, # of connection points: 2
#     Edge 79, Type (0, 0), BuildingBlock: CIFDUS_clean_linker_0, # of connection points: 2
#     Edge 80, Type (0, 0), BuildingBlock: CIFDUS_clean_linker_0, # of connection points: 2
#     Edge 81, Type (0, 0), BuildingBlock: CIFDUS_clean_linker_0, # of connection points: 2
#     Edge 82, Type (0, 0), BuildingBlock: CIFDUS_clean_linker_0, # of connection points: 2
#     Edge 83, Type (0, 0), BuildingBlock: CIFDUS_clean_linker_0, # of connection points: 2
#     Edge 84, Type (0, 0), BuildingBlock: CIFDUS_clean_linker_0, # of connection points: 2
#     Edge 85, Type (0, 0), BuildingBlock: CIFDUS_clean_linker_0, # of connection points: 2
#     Edge 86, Type (0, 0), BuildingBlock: CIFDUS_clean_linker_0, # of connection points: 2
#     Edge 87, Type (0, 0), BuildingBlock: CIFDUS_clean_linker_0, # of connection points: 2
#     Edge 88, Type (0, 0), BuildingBlock: CIFDUS_clean_linker_0, # of connection points: 2
#     Edge 89, Type (0, 0), BuildingBlock: CIFDUS_clean_linker_0, # of connection points: 2
#     Edge 90, Type (0, 0), BuildingBlock: CIFDUS_clean_linker_0, # of connection points: 2
#     Edge 91, Type (0, 0), BuildingBlock: CIFDUS_clean_linker_0, # of connection points: 2
#     Edge 92, Type (0, 0), BuildingBlock: CIFDUS_clean_linker_0, # of connection points: 2
#     Edge 93, Type (0, 0), BuildingBlock: CIFDUS_clean_linker_0, # of connection points: 2
#     Edge 94, Type (0, 0), BuildingBlock: CIFDUS_clean_linker_0, # of connection points: 2
#     Edge 95, Type (0, 0), BuildingBlock: CIFDUS_clean_linker_0, # of connection points: 2
#     Edge 96, Type (0, 0), BuildingBlock: CIFDUS_clean_linker_0, # of connection points: 2
#     Edge 97, Type (0, 0), BuildingBlock: CIFDUS_clean_linker_0, # of connection points: 2
#     Edge 98, Type (0, 0), BuildingBlock: CIFDUS_clean_linker_0, # of connection points: 2
#     Edge 99, Type (0, 0), BuildingBlock: CIFDUS_clean_linker_0, # of connection points: 2
#     Edge 100, Type (0, 0), BuildingBlock: CIFDUS_clean_linker_0, # of connection points: 2
#     Edge 101, Type (0, 0), BuildingBlock: CIFDUS_clean_linker_0, # of connection points: 2
#     Edge 102, Type (0, 0), BuildingBlock: CIFDUS_clean_linker_0, # of connection points: 2
#     Edge 103, Type (0, 0), BuildingBlock: CIFDUS_clean_linker_0, # of connection points: 2
#     Edge 104, Type (0, 0), BuildingBlock: CIFDUS_clean_linker_0, # of connection points: 2
#     Edge 105, Type (0, 0), BuildingBlock: CIFDUS_clean_linker_0, # of connection points: 2
#     Edge 106, Type (0, 0), BuildingBlock: CIFDUS_clean_linker_0, # of connection points: 2
#     Edge 107, Type (0, 0), BuildingBlock: CIFDUS_clean_linker_0, # of connection points: 2
# Relax obj value: 0.150
# Max RMSD: 0.131
# Mean RMSD: 0.131
data_MOF--net-cha--node1-TATPOV_clean_sbu_0--edge1-CIFDUS_clean_linker_0
_symmetry_space_group_name_H-M    P1
_symmetry_Int_Tables_number       1
_symmetry_cell_setting            triclinic
loop_
_symmetry_equiv_pos_as_xyz
'x, y, z'
_cell_length_a     56.42917
_cell_length_b     56.46967
_cell_length_c     65.501099
_cell_angle_alpha  90.071868
_cell_angle_beta   89.942989
_cell_angle_gamma 120.01695
loop_
_atom_site_label
_atom_site_type_symbol
_atom_site_fract_x
_atom_site_fract_y
_atom_site_fract_z
_atom_type_partial_charge
Zn0 Zn 0.96209 0.25192 0.07545 0.0
Zn1 Zn 0.00527 0.2511 0.08541 0.0
O2 O 0.00803 0.28478 0.10053 0.0
O3 O 0.97683 0.29045 0.08487 0.0
O4 O 0.04207 0.25407 0.09053 0.0
O5 O 0.96366 0.24398 0.04595 0.0
O6 O 0.00503 0.25242 0.05385 0.0
C7 C -0.00374 0.29879 0.09755 0.0
C8 C 0.95082 0.20683 0.10142 0.0
O9 O 0.97567 0.21397 0.09757 0.0
O10 O 0.94086 0.22116 0.09506 0.0
C11 C 0.04735 0.23889 0.10173 0.0
O12 O 0.0275 0.21887 0.11207 0.0
C13 C 0.98676 0.24772 0.04049 0.0
Zn14 Zn 0.76781 0.73445 0.07912 0.0
Zn15 Zn 0.7755 0.78163 0.09051 0.0
O16 O 0.74316 0.75338 0.10807 0.0
O17 O 0.73137 0.71423 0.09304 0.0
O18 O 0.77792 0.81761 0.0975 0.0
O19 O 0.77069 0.74338 0.04938 0.0
O20 O 0.76976 0.78015 0.05928 0.0
C21 C 0.72707 0.72761 0.1066 0.0
C22 C 0.81814 0.76638 0.10117 0.0
O23 O 0.81249 0.78546 0.09921 0.0
O24 O 0.80148 0.74244 0.09498 0.0
C25 C 0.79259 0.8342 0.11141 0.0
O26 O 0.80781 0.82814 0.12298 0.0
C27 C 0.76975 0.7647 0.04507 0.0
Zn28 Zn 0.30786 0.06482 0.07773 0.0
Zn29 Zn 0.25567 0.02979 0.08521 0.0
O30 O 0.27728 0.0175 0.10396 0.0
O31 O 0.32014 0.04349 0.0945 0.0
O32 O 0.21635 7e-05 0.08855 0.0
O33 O 0.30347 0.05861 0.04761 0.0
O34 O 0.2603 0.02878 0.05404 0.0
C35 C 0.30245 0.02425 0.10536 0.0
C36 C 0.27807 0.08901 0.09664 0.0
O37 O 0.25723 0.0652 0.0948 0.0
O38 O 0.30151 0.0935 0.09113 0.0
C39 C 0.20586 0.98671 0.10487 0.0
O40 O 0.22087 -0.007 0.12147 0.0
C41 C 0.27987 0.04121 0.04138 0.0
Zn42 Zn 0.27833 0.98402 0.88774 0.0
Zn43 Zn 0.25724 0.01568 0.88007 0.0
O44 O 0.28704 0.0253 0.85795 0.0
O45 O 0.30748 0.00244 0.86684 0.0
O46 O 0.24656 0.04442 0.87574 0.0
O47 O 0.28704 -0.00395 0.91669 0.0
O48 O 0.2686 0.0217 0.91049 0.0
C49 C 0.30566 0.01913 0.85502 0.0
C50 C 0.22073 0.95503 0.87482 0.0
O51 O 0.2228 0.97856 0.87479 0.0
O52 O 0.2412 0.95254 0.87944 0.0
C53 C 0.24239 0.05166 0.85836 0.0
O54 O 0.24339 0.03879 0.84194 0.0
C55 C 0.28007 0.01295 0.92269 0.0
Zn56 Zn 0.06233 0.30433 0.88937 0.0
Zn57 Zn 0.02279 0.25553 0.88193 0.0
O58 O 0.01465 0.28054 0.86364 0.0
O59 O 0.0427 0.32141 0.87594 0.0
O60 O -0.0102 0.21791 0.879 0.0
O61 O 0.06092 0.29944 0.91965 0.0
O62 O 0.02318 0.26079 0.91312 0.0
C63 C 0.02352 0.30623 0.8639 0.0
C64 C 0.07947 0.27118 0.86752 0.0
O65 O 0.05531 0.25195 0.87146 0.0
O66 O 0.08675 0.29559 0.87238 0.0
C67 C 0.97613 0.20724 0.86283 0.0
O68 O 0.9838 0.22106 0.84564 0.0
C69 C 0.03991 0.27811 0.92591 0.0
Zn70 Zn 0.73151 0.77146 0.89036 0.0
Zn71 Zn 0.78032 0.7837 0.87935 0.0
O72 O 0.75404 0.75064 0.86137 0.0
O73 O 0.71388 0.73544 0.87583 0.0
O74 O 0.81803 0.7899 0.87262 0.0
O75 O 0.73976 0.77395 0.92016 0.0
O76 O 0.77872 0.77736 0.91056 0.0
C77 C 0.72858 0.73296 0.86237 0.0
C78 C 0.76031 0.82295 0.86923 0.0
O79 O 0.78077 0.8193 0.87096 0.0
O80 O 0.73687 0.80471 0.87524 0.0
C81 C 0.8251 0.78501 0.85538 0.0
O82 O 0.80747 0.77641 0.84025 0.0
C83 C 0.76214 0.77522 0.92463 0.0
Zn84 Zn 0.04941 0.77086 0.89446 0.0
Zn85 Zn 0.01299 0.78453 0.88525 0.0
O86 O 0.00534 0.75291 0.86523 0.0
O87 O 0.03083 0.73691 0.87745 0.0
O88 O 0.98223 0.79259 0.88074 0.0
O89 O 0.04283 0.76993 0.92444 0.0
O90 O 0.00828 0.77568 0.91607 0.0
C91 C 0.01323 0.73531 0.86473 0.0
C92 C 0.07303 0.82492 0.87737 0.0
O93 O 0.04864 0.82066 0.8787 0.0
O94 O 0.07808 0.8061 0.88194 0.0
C95 C 0.96748 0.78747 0.86486 0.0
O96 O 0.97256 0.77679 0.84879 0.0
C97 C 0.0222 0.77173 0.92955 0.0
Zn98 Zn 0.25887 0.29355 0.88984 0.0
Zn99 Zn 0.25261 0.24572 0.88421 0.0
O100 O 0.28376 0.27022 0.8641 0.0
O101 O 0.29464 0.31126 0.875 0.0
O102 O 0.24963 0.20871 0.88259 0.0
O103 O 0.25789 0.2911 0.92029 0.0
O104 O 0.26068 0.25412 0.91489 0.0
C105 C 0.29935 0.29614 0.86342 0.0
C106 C 0.20754 0.25657 0.87123 0.0
O107 O 0.21453 0.23894 0.87561 0.0
O108 O 0.22399 0.28174 0.87435 0.0
C109 C 0.24344 0.19334 0.86698 0.0
O110 O 0.23853 0.20158 0.84956 0.0
C111 C 0.26058 0.27166 0.9271 0.0
Zn112 Zn 0.73888 0.98545 0.88621 0.0
Zn113 Zn 0.78729 0.02519 0.87688 0.0
O114 O 0.76098 0.03071 0.85795 0.0
O115 O 0.72041 0.00193 0.87044 0.0
O116 O 0.82447 0.05765 0.87097 0.0
O117 O 0.74538 -0.00759 0.91613 0.0
O118 O 0.78361 0.02968 0.90777 0.0
C119 C 0.7351 0.02083 0.85806 0.0
C120 C 0.77265 0.96651 0.86814 0.0
O121 O 0.79119 0.99153 0.86997 0.0
O122 O 0.74808 0.95909 0.87264 0.0
C123 C 0.83282 0.06821 0.85343 0.0
O124 O 0.81678 0.05731 0.83753 0.0
C125 C 0.76657 0.01436 0.92129 0.0
Zn126 Zn 0.77486 0.05794 0.07722 0.0
Zn127 Zn 0.77379 0.01335 0.08711 0.0
O128 O 0.74238 0.01269 0.10419 0.0
O129 O 0.73819 0.04551 0.08975 0.0
O130 O 0.77057 0.97664 0.09242 0.0
O131 O 0.77771 0.05287 0.04729 0.0
O132 O 0.76868 0.01155 0.05589 0.0
C133 C 0.72963 0.02593 0.10229 0.0
C134 C 0.82269 0.0678 0.09913 0.0
O135 O 0.813 0.04228 0.09617 0.0
O136 O 0.80902 0.07904 0.09397 0.0
C137 C 0.78465 0.9714 0.10484 0.0
O138 O 0.803 0.99107 0.11637 0.0
C139 C 0.77233 0.02909 0.04221 0.0
Zn140 Zn 0.98292 0.75087 0.08628 0.0
Zn141 Zn 0.02208 0.79938 0.09376 0.0
O142 O 0.02764 0.77464 0.11431 0.0
O143 O 0.00012 0.73341 0.10239 0.0
O144 O 0.05456 0.83694 0.09864 0.0
O145 O 0.98811 0.75506 0.05613 0.0
O146 O 0.02627 0.79317 0.06314 0.0
C147 C 0.01844 0.74891 0.11488 0.0
C148 C 0.96371 0.78494 0.1029 0.0
O149 O 0.98842 0.80363 0.0999 0.0
O150 O 0.95666 0.76014 0.09981 0.0
C151 C 0.0653 0.84561 0.11609 0.0
O152 O 0.05458 0.82983 0.13213 0.0
C153 C 0.01028 0.77542 0.05025 0.0
Zn154 Zn 0.29206 0.27194 0.08404 0.0
Zn155 Zn 0.24374 0.26032 0.09216 0.0
O156 O 0.26879 0.28943 0.1136 0.0
O157 O 0.30985 0.30615 0.10046 0.0
O158 O 0.20611 0.25519 0.09751 0.0
O159 O 0.28831 0.27327 0.05409 0.0
O160 O 0.24902 0.27065 0.0614 0.0
C161 C 0.2944 0.30674 0.11418 0.0
C162 C 0.26012 0.21776 0.0998 0.0
O163 O 0.24054 0.22264 0.09734 0.0
O164 O 0.28456 0.23653 0.09673 0.0
C165 C 0.18854 0.23819 0.10996 0.0
O166 O 0.19466 0.22243 0.12082 0.0
C167 C 0.26704 0.27342 0.04835 0.0
Zn168 Zn 0.64583 0.60617 0.41226 0.0
Zn169 Zn 0.68082 0.59099 0.42244 0.0
O170 O 0.6898 0.62378 0.44133 0.0
O171 O 0.66644 0.64137 0.4278 0.0
O172 O 0.71048 0.58169 0.4275 0.0
O173 O 0.6513 0.60426 0.38223 0.0
O174 O 0.68528 0.59806 0.39145 0.0
C175 C 0.68328 0.6424 0.44101 0.0
C176 C 0.62114 0.55379 0.43255 0.0
O177 O 0.64482 0.55644 0.43062 0.0
O178 O 0.61694 0.57285 0.42695 0.0
C179 C 0.72598 0.58794 0.44303 0.0
O180 O 0.7225 0.60092 0.45835 0.0
C181 C 0.67158 0.60161 0.37756 0.0
Zn182 Zn 0.43422 0.07079 0.41426 0.0
Zn183 Zn 0.44311 0.11857 0.42327 0.0
O184 O 0.4098 0.09192 0.44091 0.0
O185 O 0.39698 0.05194 0.42699 0.0
O186 O 0.44731 0.1556 0.42906 0.0
O187 O 0.4387 0.07794 0.38427 0.0
O188 O 0.43804 0.11555 0.39187 0.0
C189 C 0.39292 0.06628 0.43983 0.0
C190 C 0.48402 0.10208 0.43662 0.0
O191 O 0.47937 0.12159 0.43312 0.0
O192 O 0.4667 0.07791 0.43137 0.0
C193 C 0.44394 0.16312 0.44661 0.0
O194 O 0.43802 0.14642 0.46217 0.0
C195 C 0.43825 0.09909 0.37861 0.0
Zn196 Zn 0.96611 0.39089 0.40875 0.0
Zn197 Zn 0.92042 0.35158 0.42162 0.0
O198 O 0.95062 0.34831 0.4375 0.0
O199 O 0.98808 0.3753 0.42039 0.0
O200 O 0.88442 0.31796 0.42924 0.0
O201 O 0.95546 0.38555 0.37942 0.0
O202 O 0.91975 0.34756 0.39015 0.0
C203 C 0.97623 0.35809 0.43451 0.0
C204 C 0.93627 0.40942 0.43315 0.0
O205 O 0.91701 0.38467 0.4315 0.0
O206 O 0.95973 0.41667 0.42591 0.0
C207 C 0.88042 0.30198 0.44417 0.0
O208 O 0.90064 0.30753 0.45677 0.0
C209 C 0.93401 0.36316 0.37557 0.0
Zn210 Zn 0.9186 0.31477 0.22113 0.0
Zn211 Zn 0.91515 0.3561 0.20983 0.0
O212 O 0.94682 0.3579 0.19239 0.0
O213 O 0.95546 0.32892 0.20844 0.0
O214 O 0.91461 0.39059 0.20272 0.0
O215 O 0.91539 0.32069 0.25082 0.0
O216 O 0.92128 0.36051 0.24105 0.0
C217 C 0.96159 0.34682 0.19475 0.0
C218 C 0.86928 0.29931 0.19939 0.0
O219 O 0.87681 0.3245 0.20177 0.0
O220 O 0.88486 0.29037 0.20486 0.0
C221 C 0.90016 0.39295 0.18886 0.0
O222 O 0.88446 0.37177 0.17733 0.0
C223 C 0.91908 0.34409 0.25524 0.0
Zn224 Zn 0.715 0.62139 0.22142 0.0
Zn225 Zn 0.67495 0.5733 0.2136 0.0
O226 O 0.67005 0.59847 0.19307 0.0
O227 O 0.69847 0.6394 0.20513 0.0
O228 O 0.64193 0.53613 0.20887 0.0
O229 O 0.70923 0.61702 0.25157 0.0
O230 O 0.67061 0.57964 0.24412 0.0
C231 C 0.67993 0.62432 0.19262 0.0
C232 C 0.73304 0.58637 0.2047 0.0
O233 O 0.70811 0.56811 0.20751 0.0
O234 O 0.74073 0.61129 0.20799 0.0
C235 C 0.63193 0.52645 0.19141 0.0
O236 O 0.64383 0.54095 0.17501 0.0
C237 C 0.68662 0.59704 0.25719 0.0
Zn238 Zn 0.39954 0.0926 0.22269 0.0
Zn239 Zn 0.44765 0.10339 0.21248 0.0
O240 O 0.4204 0.07065 0.1945 0.0
O241 O 0.38051 0.05592 0.20921 0.0
O242 O 0.48486 0.10817 0.20583 0.0
O243 O 0.40746 0.09659 0.25255 0.0
O244 O 0.44592 0.09822 0.24388 0.0
C245 C 0.39483 0.05332 0.1955 0.0
C246 C 0.42939 0.14336 0.20096 0.0
O247 O 0.44958 0.1395 0.20366 0.0
O248 O 0.40558 0.12533 0.20645 0.0
C249 C 0.49146 0.10246 0.18871 0.0
O250 O 0.47359 0.09361 0.17373 0.0
C251 C 0.42949 0.09747 0.25758 0.0
Zn252 Zn 0.7284 0.10995 0.2223 0.0
Zn253 Zn 0.68761 0.11608 0.21411 0.0
O254 O 0.68018 0.0811 0.19821 0.0
O255 O 0.7094 0.07127 0.2125 0.0
O256 O 0.65345 0.11887 0.21086 0.0
O257 O 0.72947 0.11806 0.25202 0.0
O258 O 0.68993 0.11524 0.24555 0.0
C259 C 0.68975 0.06499 0.20033 0.0
C260 C 0.74292 0.1566 0.19703 0.0
O261 O 0.71884 0.15154 0.20152 0.0
O262 O 0.75106 0.14043 0.2027 0.0
C263 C 0.63739 0.11158 0.19561 0.0
O264 O 0.64288 0.10146 0.17939 0.0
C265 C 0.70811 0.11769 0.25828 0.0
Zn266 Zn 0.92772 0.6386 0.22792 0.0
Zn267 Zn 0.92184 0.59164 0.21681 0.0
O268 O 0.95424 0.62042 0.19967 0.0
O269 O 0.96422 0.65946 0.21411 0.0
O270 O 0.92203 0.55665 0.21114 0.0
O271 O 0.92496 0.6302 0.2578 0.0
O272 O 0.92638 0.59366 0.24805 0.0
C273 C 0.96958 0.64631 0.20102 0.0
C274 C 0.87791 0.60441 0.20518 0.0
O275 O 0.8845 0.58598 0.20713 0.0
O276 O 0.89365 0.62844 0.21166 0.0
C277 C 0.9085 0.53811 0.19802 0.0
O278 O 0.89169 0.54078 0.18563 0.0
C279 C 0.92605 0.60898 0.2622 0.0
Zn280 Zn 0.39542 0.29367 0.22537 0.0
Zn281 Zn 0.44355 0.33731 0.22047 0.0
O282 O 0.41853 0.34485 0.20182 0.0
O283 O 0.37763 0.31206 0.21096 0.0
O284 O 0.48034 0.37168 0.2189 0.0
O285 O 0.39849 0.29539 0.25592 0.0
O286 O 0.4352 0.33564 0.25112 0.0
C287 C 0.39253 0.3336 0.20087 0.0
C288 C 0.43408 0.2819 0.20627 0.0
O289 O 0.4509 0.30675 0.21076 0.0
O290 O 0.40874 0.27202 0.20954 0.0
C291 C 0.49211 0.38409 0.20254 0.0
O292 O 0.48007 0.3742 0.18491 0.0
C293 C 0.4177 0.3175 0.26305 0.0
Zn294 Zn 0.43601 0.39297 0.41501 0.0
Zn295 Zn 0.44538 0.35304 0.4214 0.0
O296 O 0.41373 0.34532 0.44136 0.0
O297 O 0.40101 0.37419 0.43076 0.0
O298 O 0.45065 0.32036 0.4238 0.0
O299 O 0.4359 0.38968 0.38467 0.0
O300 O 0.43735 0.35209 0.39064 0.0
C301 C 0.39734 0.35469 0.44229 0.0
C302 C 0.4888 0.41082 0.43273 0.0
O303 O 0.48266 0.38613 0.42947 0.0
O304 O 0.47141 0.41825 0.42923 0.0
C305 C 0.44697 0.30595 0.43965 0.0
O306 O 0.43959 0.31252 0.4568 0.0
C307 C 0.43551 0.36841 0.37817 0.0
Zn308 Zn 0.63761 0.07956 0.41016 0.0
Zn309 Zn 0.6806 0.12405 0.41794 0.0
O310 O 0.68529 0.09501 0.43445 0.0
O311 O 0.65336 0.05711 0.42029 0.0
O312 O 0.71565 0.16025 0.42189 0.0
O313 O 0.63807 0.08676 0.38035 0.0
O314 O 0.68 0.11986 0.38654 0.0
C315 C 0.67357 0.06908 0.43222 0.0
C316 C 0.62535 0.11418 0.43312 0.0
O317 O 0.65011 0.13134 0.42855 0.0
O318 O 0.61556 0.08916 0.42881 0.0
C319 C 0.73336 0.16665 0.43597 0.0
O320 O 0.72939 0.14871 0.45025 0.0
C321 C 0.661 0.10532 0.37391 0.0
Zn322 Zn 0.95591 0.5902 0.41708 0.0
Zn323 Zn 0.90855 0.58339 0.42728 0.0
O324 O 0.93628 0.61527 0.44558 0.0
O325 O 0.97602 0.62563 0.43217 0.0
O326 O 0.87208 0.57996 0.43416 0.0
O327 O 0.94833 0.59006 0.38729 0.0
O328 O 0.91154 0.59154 0.39638 0.0
C329 C 0.96222 0.63072 0.44483 0.0
C330 C 0.92184 0.53834 0.43586 0.0
O331 O 0.9037 0.54537 0.43409 0.0
O332 O 0.94645 0.55494 0.4311 0.0
C333 C 0.86612 0.58609 0.45137 0.0
O334 O 0.8842 0.59447 0.4662 0.0
C335 C 0.92774 0.59214 0.38255 0.0
Zn336 Zn 0.30669 0.92527 0.73817 0.0
Zn337 Zn 0.34823 0.91901 0.74634 0.0
O338 O 0.35434 0.95304 0.7626 0.0
O339 O 0.3237 0.96255 0.7507 0.0
O340 O 0.38199 0.91669 0.75284 0.0
O341 O 0.30997 0.92042 0.70827 0.0
O342 O 0.34908 0.9222 0.71496 0.0
C343 C 0.34402 0.96862 0.76211 0.0
C344 C 0.29144 0.87599 0.76021 0.0
O345 O 0.31614 0.88239 0.75664 0.0
O346 O 0.28301 0.89218 0.75527 0.0
C347 C 0.39223 0.92139 0.77069 0.0
O348 O 0.38018 0.92729 0.7854 0.0
C349 C 0.33148 0.92093 0.70216 0.0
Zn350 Zn 0.11138 0.41186 0.7484 0.0
Zn351 Zn 0.12046 0.46012 0.75888 0.0
O352 O 0.0889 0.4329 0.77762 0.0
O353 O 0.07644 0.39265 0.76426 0.0
O354 O 0.12438 0.4968 0.76585 0.0
O355 O 0.11098 0.41924 0.71864 0.0
O356 O 0.11233 0.45735 0.72794 0.0
C357 C 0.07276 0.40707 0.77726 0.0
C358 C 0.16419 0.44505 0.76688 0.0
O359 O 0.15806 0.46388 0.76554 0.0
O360 O 0.14691 0.42075 0.76185 0.0
C361 C 0.11905 0.50297 0.78328 0.0
O362 O 0.1116 0.48517 0.79825 0.0
C363 C 0.11044 0.44069 0.71403 0.0
Zn364 Zn 0.62791 0.72802 0.74948 0.0
Zn365 Zn 0.57986 0.68659 0.75363 0.0
O366 O 0.60412 0.67921 0.77355 0.0
O367 O 0.64561 0.70975 0.76382 0.0
O368 O 0.54263 0.65258 0.7554 0.0
O369 O 0.62613 0.72781 0.71909 0.0
O370 O 0.5885 0.68804 0.72281 0.0
C371 C 0.62999 0.68935 0.77471 0.0
C372 C 0.59086 0.7425 0.76739 0.0
O373 O 0.57332 0.71803 0.76244 0.0
O374 O 0.61615 0.75101 0.76512 0.0
C375 C 0.53198 0.63919 0.77169 0.0
O376 O 0.54545 0.6478 0.78897 0.0
C377 C 0.60666 0.70641 0.71135 0.0
Zn378 Zn 0.5865 0.64449 0.55529 0.0
Zn379 Zn 0.5817 0.68733 0.55138 0.0
O380 O 0.61328 0.69383 0.53176 0.0
O381 O 0.62255 0.66192 0.54087 0.0
O382 O 0.58114 0.72274 0.5498 0.0
O383 O 0.58495 0.64474 0.58575 0.0
O384 O 0.588 0.68491 0.58217 0.0
C385 C 0.62825 0.68288 0.53037 0.0
C386 C 0.53545 0.63251 0.53718 0.0
O387 O 0.54323 0.65717 0.54216 0.0
O388 O 0.55142 0.62305 0.53959 0.0
C389 C 0.58165 0.7348 0.53328 0.0
O390 O 0.58162 0.72346 0.51574 0.0
C391 C 0.58724 0.66625 0.59357 0.0
Zn392 Zn 0.39506 0.96886 0.54858 0.0
Zn393 Zn 0.35784 0.9191 0.54247 0.0
O394 O 0.34622 0.94207 0.52479 0.0
O395 O 0.37242 0.98359 0.53666 0.0
O396 O 0.32608 0.88039 0.54034 0.0
O397 O 0.39667 0.9649 0.57875 0.0
O398 O 0.35954 0.92513 0.57366 0.0
C399 C 0.35304 0.96728 0.52521 0.0
C400 C 0.41476 0.93857 0.52617 0.0
O401 O 0.39163 0.91823 0.53109 0.0
O402 O 0.42019 0.96265 0.53045 0.0
C403 C 0.31038 0.87025 0.52498 0.0
O404 O 0.31531 0.88509 0.50842 0.0
C405 C 0.37673 0.94328 0.58578 0.0
Zn406 Zn 0.068 0.4489 0.55978 0.0
Zn407 Zn 0.11287 0.45109 0.54814 0.0
O408 O 0.08264 0.419 0.53121 0.0
O409 O 0.04506 0.41264 0.54627 0.0
O410 O 0.14807 0.452 0.54084 0.0
O411 O 0.07736 0.45085 0.58939 0.0
O412 O 0.11141 0.4452 0.5793 0.0
C413 C 0.05667 0.40525 0.53326 0.0
C414 C 0.10326 0.49829 0.5385 0.0
O415 O 0.12008 0.48956 0.54007 0.0
O416 O 0.07874 0.48357 0.54436 0.0
C417 C 0.15411 0.44625 0.52353 0.0
O418 O 0.13647 0.43904 0.50846 0.0
C419 C 0.09715 0.44718 0.5936 0.0
Zn420 Zn 0.38422 0.44068 0.55773 0.0
Zn421 Zn 0.34563 0.451 0.54887 0.0
O422 O 0.33792 0.41825 0.53025 0.0
O423 O 0.36493 0.40459 0.54326 0.0
O424 O 0.31347 0.4569 0.54505 0.0
O425 O 0.38048 0.4429 0.58794 0.0
O426 O 0.34318 0.44393 0.5799 0.0
C427 C 0.34647 0.40118 0.53069 0.0
C428 C 0.40376 0.49173 0.53661 0.0
O429 O 0.37951 0.48717 0.53963 0.0
O430 O 0.41028 0.47417 0.54184 0.0
C431 C 0.29753 0.4502 0.52975 0.0
O432 O 0.30209 0.439 0.51375 0.0
C433 C 0.35881 0.44257 0.59331 0.0
Zn434 Zn 0.59716 0.97126 0.55401 0.0
Zn435 Zn 0.59723 0.92798 0.54299 0.0
O436 O 0.62835 0.95854 0.52548 0.0
O437 O 0.63371 -0.00476 0.54132 0.0
O438 O 0.59748 0.89309 0.53693 0.0
O439 O 0.59452 0.96262 0.58374 0.0
O440 O 0.60356 0.93066 0.57414 0.0
C441 C 0.64149 0.98447 0.52792 0.0
C442 C 0.54886 0.93517 0.53227 0.0
O443 O 0.55819 0.91895 0.53465 0.0
O444 O 0.56296 0.95991 0.53775 0.0
C445 C 0.59222 0.88063 0.51992 0.0
O446 O 0.58715 0.89133 0.50388 0.0
C447 C 0.6001 0.9442 0.58824 0.0
Zn448 Zn 0.0716 0.65645 0.55588 0.0
Zn449 Zn 0.11942 0.69203 0.54534 0.0
O450 O 0.09324 0.69853 0.52691 0.0
O451 O 0.05371 0.67518 0.54249 0.0
O452 O 0.15725 0.72308 0.53836 0.0
O453 O 0.07925 0.66062 0.58568 0.0
O454 O 0.11747 0.69735 0.57657 0.0
C455 C 0.06798 0.69141 0.52844 0.0
C456 C 0.09898 0.63289 0.53472 0.0
O457 O 0.11976 0.65662 0.53729 0.0
O458 O 0.07547 0.6282 0.54006 0.0
C459 C 0.16431 0.73374 0.52071 0.0
O460 O 0.14656 0.72379 0.50567 0.0
C461 C 0.101 0.68221 0.59046 0.0
Zn462 Zn 0.09714 0.72334 0.74577 0.0
Zn463 Zn 0.11025 0.68687 0.7559 0.0
O464 O 0.07723 0.67845 0.7745 0.0
O465 O 0.06151 0.70345 0.76089 0.0
O466 O 0.11861 0.65649 0.76055 0.0
O467 O 0.09959 0.71835 0.71568 0.0
O468 O 0.1037 0.68312 0.72483 0.0
C469 C 0.05935 0.68599 0.77397 0.0
C470 C 0.1489 0.74611 0.76658 0.0
O471 O 0.14538 0.72212 0.76445 0.0
O472 O 0.13049 0.75126 0.76094 0.0
C473 C 0.11334 0.64122 0.77611 0.0
O474 O 0.10161 0.64509 0.7921 0.0
C475 C 0.10131 0.69756 0.71096 0.0
Zn476 Zn 0.31547 0.39908 0.74823 0.0
Zn477 Zn 0.35253 0.44786 0.75904 0.0
O478 O 0.35937 0.42188 0.77727 0.0
O479 O 0.3338 0.38165 0.76309 0.0
O480 O 0.38396 0.48561 0.76531 0.0
O481 O 0.32161 0.40718 0.71841 0.0
O482 O 0.35743 0.44594 0.72794 0.0
C483 C 0.35128 0.39637 0.77636 0.0
C484 C 0.29319 0.42865 0.7688 0.0
O485 O 0.3175 0.44878 0.76711 0.0
O486 O 0.28765 0.40501 0.76304 0.0
C487 C 0.39552 0.49384 0.78257 0.0
O488 O 0.38626 0.47726 0.79832 0.0
C489 C 0.34292 0.42937 0.71391 0.0
Zn490 Zn 0.63334 0.93568 0.74445 0.0
Zn491 Zn 0.58417 0.92446 0.75336 0.0
O492 O 0.6085 0.95721 0.77225 0.0
O493 O 0.64926 0.97159 0.75903 0.0
O494 O 0.54563 0.91745 0.75634 0.0
O495 O 0.62795 0.93366 0.71421 0.0
O496 O 0.58911 0.93145 0.72238 0.0
C497 C 0.63408 0.97459 0.77175 0.0
C498 C 0.60241 0.88458 0.76573 0.0
O499 O 0.58247 0.88875 0.7628 0.0
O500 O 0.62638 0.90232 0.76032 0.0
C501 C 0.53511 0.92391 0.77093 0.0
O502 O 0.54987 0.93599 0.7872 0.0
C503 C 0.60628 0.93335 0.70891 0.0
H504 H 0.06602 0.20999 0.1232 0.0
H505 H 0.09217 0.27733 0.08107 0.0
H506 H 0.13802 0.28334 0.08032 0.0
H507 H 0.17046 0.26887 0.09076 0.0
H508 H 0.14479 0.20162 0.13285 0.0
H509 H 0.09912 0.19633 0.13449 0.0
C510 C 0.08176 0.22606 0.11392 0.0
C511 C 0.07551 0.24309 0.10216 0.0
C512 C 0.10822 0.22942 0.11349 0.0
C513 C 0.09627 0.26385 0.09026 0.0
C514 C 0.12256 0.26732 0.08979 0.0
C515 C 0.15494 0.25308 0.10035 0.0
C516 C 0.1611 0.2356 0.11159 0.0
C517 C 0.12871 0.25011 0.10121 0.0
C518 C 0.14067 0.21535 0.124 0.0
C519 C 0.1145 0.21228 0.12494 0.0
H520 H 0.81277 0.95331 0.1279 0.0
H521 H 0.74939 0.9271 0.08219 0.0
H522 H 0.74577 0.88233 0.08076 0.0
H523 H 0.76163 0.85113 0.09135 0.0
H524 H 0.82502 0.87676 0.13693 0.0
H525 H 0.82746 0.92113 0.13957 0.0
C526 C 0.79806 0.93776 0.11772 0.0
C527 C 0.7815 0.9437 0.10511 0.0
C528 C 0.79611 0.91194 0.11687 0.0
C529 C 0.76249 0.92322 0.09204 0.0
C530 C 0.76039 0.89755 0.09117 0.0
C531 C 0.77594 0.86635 0.10194 0.0
C532 C 0.79323 0.86063 0.11383 0.0
C533 C 0.77729 0.89179 0.10334 0.0
C534 C 0.8115 0.8806 0.12754 0.0
C535 C 0.81294 0.90601 0.12905 0.0
H536 H 0.09016 0.88422 0.08666 0.0
H537 H 0.09755 0.86746 0.14989 0.0
H538 H 0.14102 0.91038 0.15236 0.0
H539 H 0.17813 0.95151 0.13602 0.0
H540 H 0.17043 0.96783 0.0727 0.0
H541 H 0.12585 0.92636 0.07092 0.0
C542 C 0.10118 0.88999 0.10103 0.0
C543 C 0.09067 0.87251 0.11801 0.0
C544 C 0.12618 0.91463 0.10233 0.0
C545 C 0.10516 0.88046 0.13655 0.0
C546 C 0.13007 0.905 0.13797 0.0
C547 C 0.16662 0.94613 0.12187 0.0
C548 C 0.17778 0.96272 0.10449 0.0
C549 C 0.14096 0.92208 0.12088 0.0
C550 C 0.16247 0.95543 0.08631 0.0
C551 C 0.13694 0.93166 0.08524 0.0
H552 H 0.24556 0.08573 0.88883 0.0
H553 H 0.23247 0.07281 0.82389 0.0
H554 H 0.23071 0.11507 0.82083 0.0
H555 H 0.23488 0.15677 0.83648 0.0
H556 H 0.24908 0.16958 0.90139 0.0
H557 H 0.24844 0.12632 0.90449 0.0
C558 C 0.24212 0.09199 0.874 0.0
C559 C 0.23923 0.07611 0.85662 0.0
C560 C 0.24151 0.11644 0.87231 0.0
C561 C 0.23481 0.08464 0.83754 0.0
C562 C 0.23386 0.10885 0.83576 0.0
C563 C 0.23773 0.15005 0.85131 0.0
C564 C 0.24216 0.16654 0.86864 0.0
C565 C 0.23752 0.1251 0.85302 0.0
C566 C 0.24578 0.15744 0.88775 0.0
C567 C 0.24538 0.13265 0.88957 0.0
H568 H 0.94079 0.17868 0.83184 0.0
H569 H 0.9548 0.17453 0.89623 0.0
H570 H 0.91238 0.13093 0.89873 0.0
H571 H 0.87054 0.09477 0.88313 0.0
H572 H 0.85583 0.09843 0.81886 0.0
H573 H 0.89933 0.14129 0.81586 0.0
C574 C 0.93464 0.16818 0.84639 0.0
C575 C 0.95097 0.18002 0.86382 0.0
C576 C 0.91005 0.14302 0.84779 0.0
C577 C 0.94266 0.16602 0.88255 0.0
C578 C 0.91835 0.14104 0.88403 0.0
C579 C 0.87684 0.10484 0.86842 0.0
C580 C 0.85983 0.09342 0.85128 0.0
C581 C 0.90177 0.12949 0.86682 0.0
C582 C 0.86846 0.10676 0.83234 0.0
C583 C 0.89334 0.13131 0.8306 0.0
H584 H 0.86591 0.80227 0.8835 0.0
H585 H 0.84497 0.77152 0.82189 0.0
H586 H 0.88782 0.7709 0.81895 0.0
H587 H 0.93009 0.77664 0.83458 0.0
H588 H 0.9505 0.80711 0.89633 0.0
H589 H 0.90912 0.81036 0.89839 0.0
C590 C 0.87076 0.79559 0.86936 0.0
C591 C 0.85209 0.78677 0.853 0.0
C592 C 0.89534 0.79512 0.8678 0.0
C593 C 0.85887 0.77835 0.83477 0.0
C594 C 0.88338 0.77793 0.83308 0.0
C595 C 0.92561 0.78419 0.84844 0.0
C596 C 0.94337 0.79143 0.86531 0.0
C597 C 0.9016 0.78589 0.84961 0.0
C598 C 0.93722 0.80128 0.88311 0.0
C599 C 0.91349 0.80312 0.88434 0.0
H600 H 0.76523 0.60135 0.47224 0.0
H601 H 0.73926 0.56296 0.41311 0.0
H602 H 0.77953 0.55782 0.41101 0.0
H603 H 0.82337 0.56649 0.42492 0.0
H604 H 0.84986 0.60497 0.48392 0.0
H605 H 0.80808 0.6076 0.48712 0.0
C606 C 0.76826 0.59166 0.45897 0.0
C607 C 0.74929 0.58278 0.4428 0.0
C608 C 0.79163 0.58887 0.45777 0.0
C609 C 0.75353 0.57014 0.42576 0.0
C610 C 0.77661 0.5672 0.42451 0.0
C611 C 0.81998 0.57532 0.43855 0.0
C612 C 0.83986 0.58572 0.45407 0.0
C613 C 0.796 0.57688 0.44026 0.0
C614 C 0.83496 0.59687 0.47169 0.0
C615 C 0.81108 0.59844 0.47353 0.0
H616 H 0.43831 0.26897 0.46973 0.0
H617 H 0.4614 0.28698 0.40632 0.0
H618 H 0.4634 0.24505 0.40316 0.0
H619 H 0.45699 0.20244 0.41787 0.0
H620 H 0.43372 0.18389 0.48117 0.0
H621 H 0.43354 0.22686 0.48486 0.0
C622 C 0.44392 0.26381 0.45525 0.0
C623 C 0.44955 0.28111 0.43828 0.0
C624 C 0.44494 0.2395 0.45347 0.0
C625 C 0.45686 0.27407 0.41965 0.0
C626 C 0.458 0.25004 0.41779 0.0
C627 C 0.45198 0.2078 0.43252 0.0
C628 C 0.44524 0.18985 0.44918 0.0
C629 C 0.45181 0.23247 0.43453 0.0
C630 C 0.43894 0.19726 0.46806 0.0
C631 C 0.43879 0.22184 0.47019 0.0
H632 H 0.83534 0.28384 0.42003 0.0
H633 H 0.86538 0.26229 0.47335 0.0
H634 H 0.82234 0.21896 0.47593 0.0
H635 H 0.77669 0.1864 0.46232 0.0
H636 H 0.74718 0.20814 0.40877 0.0
H637 H 0.78943 0.25209 0.4071 0.0
C638 C 0.83248 0.26977 0.4323 0.0
C639 C 0.85368 0.27636 0.44643 0.0
C640 C 0.80775 0.2448 0.43363 0.0
C641 C 0.84948 0.25781 0.46223 0.0
C642 C 0.82485 0.23296 0.4637 0.0
C643 C 0.77943 0.20079 0.45033 0.0
C644 C 0.75873 0.19382 0.43566 0.0
C645 C 0.80392 0.22611 0.44938 0.0
C646 C 0.76271 0.21281 0.42025 0.0
C647 C 0.78691 0.23802 0.41926 0.0
H648 H 0.93033 0.43993 0.21017 0.0
H649 H 0.86914 0.40438 0.16285 0.0
H650 H 0.86687 0.44646 0.16095 0.0
H651 H 0.88108 0.49284 0.17374 0.0
H652 H 0.94209 0.52756 0.22132 0.0
H653 H 0.94555 0.48634 0.22202 0.0
C654 C 0.91656 0.44136 0.19935 0.0
C655 C 0.89984 0.41894 0.18675 0.0
C656 C 0.91523 0.46548 0.19842 0.0
C657 C 0.88222 0.42129 0.17278 0.0
C658 C 0.88087 0.44534 0.1717 0.0
C659 C 0.89522 0.49143 0.18419 0.0
C660 C 0.91117 0.51329 0.19752 0.0
C661 C 0.89709 0.46749 0.18461 0.0
C662 C 0.92944 0.51108 0.21093 0.0
C663 C 0.93147 0.48748 0.21136 0.0
H664 H 0.6028 0.49213 0.22234 0.0
H665 H 0.6037 0.50033 0.15678 0.0
H666 H 0.56082 0.45678 0.15434 0.0
H667 H 0.52247 0.41682 0.17095 0.0
H668 H 0.52195 0.40926 0.23659 0.0
H669 H 0.56527 0.45207 0.23878 0.0
C670 C 0.59371 0.4844 0.20748 0.0
C671 C 0.60647 0.49957 0.18978 0.0
C672 C 0.56904 0.45944 0.20619 0.0
C673 C 0.59435 0.48914 0.17067 0.0
C674 C 0.56979 0.46422 0.16926 0.0
C675 C 0.53186 0.42449 0.18573 0.0
C676 C 0.51886 0.40981 0.20356 0.0
C677 C 0.55686 0.44927 0.18693 0.0
C678 C 0.5314 0.42009 0.22259 0.0
C679 C 0.55622 0.44462 0.22388 0.0
H680 H 0.53307 0.12099 0.21623 0.0
H681 H 0.51056 0.08785 0.15535 0.0
H682 H 0.55398 0.08849 0.15181 0.0
H683 H 0.59775 0.09694 0.16648 0.0
H684 H 0.61981 0.13001 0.22746 0.0
H685 H 0.57726 0.13094 0.23037 0.0
C686 C 0.53766 0.114 0.20213 0.0
C687 C 0.51846 0.10427 0.18613 0.0
C688 C 0.56262 0.11433 0.20021 0.0
C689 C 0.5249 0.09542 0.16795 0.0
C690 C 0.54974 0.09573 0.16591 0.0
C691 C 0.59332 0.10447 0.18037 0.0
C692 C 0.61199 0.11327 0.19674 0.0
C693 C 0.56866 0.10491 0.18202 0.0
C694 C 0.60587 0.12303 0.21461 0.0
C695 C 0.58148 0.12357 0.21632 0.0
H696 H 0.41955 0.90565 0.74486 0.0
H697 H 0.42333 0.93762 0.80541 0.0
H698 H 0.46736 0.94028 0.81121 0.0
H699 H 0.50577 0.93529 0.79853 0.0
H700 H 0.50138 0.90299 0.73797 0.0
H701 H 0.45666 0.89863 0.73286 0.0
C702 C 0.42993 0.91312 0.75937 0.0
C703 C 0.4182 0.92158 0.77461 0.0
C704 C 0.45522 0.9146 0.76262 0.0
C705 C 0.43188 0.931 0.79337 0.0
C706 C 0.45711 0.93258 0.7967 0.0
C707 C 0.49497 0.92715 0.78427 0.0
C708 C 0.50709 0.91966 0.76865 0.0
C709 C 0.46913 0.9247 0.78135 0.0
C710 C 0.49267 0.90902 0.75028 0.0
C711 C 0.46705 0.90654 0.74729 0.0
H712 H 0.13533 0.54461 0.75611 0.0
H713 H 0.10246 0.51981 0.81686 0.0
H714 H 0.09895 0.56102 0.82045 0.0
H715 H 0.10291 0.60295 0.80559 0.0
H716 H 0.13571 0.62722 0.74473 0.0
H717 H 0.1416 0.58747 0.74205 0.0
C718 C 0.12755 0.54826 0.77021 0.0
C719 C 0.119 0.529 0.78612 0.0
C720 C 0.12544 0.5719 0.77214 0.0
C721 C 0.10915 0.53422 0.80432 0.0
C722 C 0.10706 0.55778 0.80638 0.0
C723 C 0.11152 0.59965 0.7918 0.0
C724 C 0.11864 0.61801 0.77535 0.0
C725 C 0.11479 0.57658 0.79028 0.0
C726 C 0.12989 0.61342 0.75762 0.0
C727 C 0.13327 0.59064 0.75604 0.0
H728 H 0.42039 0.5317 0.75264 0.0
H729 H 0.42653 0.51762 0.81668 0.0
H730 H 0.46878 0.56175 0.81917 0.0
H731 H 0.50491 0.60362 0.80283 0.0
H732 H 0.49864 0.61695 0.73863 0.0
H733 H 0.45551 0.57387 0.73662 0.0
C734 C 0.43085 0.53829 0.7672 0.0
C735 C 0.4203 0.52126 0.78443 0.0
C736 C 0.45521 0.56356 0.76849 0.0
C737 C 0.43417 0.53025 0.80315 0.0
C738 C 0.45838 0.55549 0.80459 0.0
C739 C 0.49406 0.59718 0.78842 0.0
C740 C 0.50514 0.61352 0.7709 0.0
C741 C 0.46924 0.5722 0.78731 0.0
C742 C 0.49072 0.6048 0.75236 0.0
C743 C 0.46601 0.58013 0.75117 0.0
H744 H 0.58082 0.76535 0.50124 0.0
H745 H 0.58684 0.76541 0.56698 0.0
H746 H 0.59119 0.81052 0.56847 0.0
H747 H 0.59341 0.84996 0.55133 0.0
H748 H 0.58649 0.85014 0.48572 0.0
H749 H 0.58247 0.80499 0.484 0.0
C750 C 0.58304 0.77521 0.51589 0.0
C751 C 0.58352 0.76194 0.53396 0.0
C752 C 0.58547 0.80124 0.51669 0.0
C753 C 0.58636 0.77505 0.55282 0.0
C754 C 0.58891 0.80091 0.5537 0.0
C755 C 0.59113 0.84023 0.53661 0.0
C756 C 0.59037 0.85353 0.51867 0.0
C757 C 0.58856 0.81421 0.53576 0.0
C758 C 0.58718 0.84042 0.49977 0.0
C759 C 0.58486 0.81458 0.49878 0.0
H760 H 0.20618 0.75776 0.54798 0.0
H761 H 0.18388 0.76499 0.48624 0.0
H762 H 0.22763 0.80711 0.48173 0.0
H763 H 0.2713 0.84317 0.4959 0.0
H764 H 0.29327 0.83573 0.55773 0.0
H765 H 0.25069 0.79242 0.56151 0.0
C766 C 0.21091 0.76844 0.53349 0.0
C767 C 0.19163 0.75827 0.51753 0.0
C768 C 0.23607 0.79271 0.53101 0.0
C769 C 0.19825 0.77234 0.49882 0.0
C770 C 0.22328 0.79649 0.49623 0.0
C771 C 0.26689 0.83199 0.51016 0.0
C772 C 0.28546 0.84287 0.52653 0.0
C773 C 0.24221 0.80706 0.5123 0.0
C774 C 0.27938 0.82798 0.54487 0.0
C775 C 0.25497 0.80317 0.54708 0.0
H776 H 0.25808 0.43687 0.50065 0.0
H777 H 0.28145 0.4702 0.56147 0.0
H778 H 0.2397 0.47255 0.56456 0.0
H779 H 0.19581 0.46363 0.55073 0.0
H780 H 0.17186 0.43039 0.48999 0.0
H781 H 0.21461 0.42967 0.48616 0.0
C782 C 0.25413 0.4448 0.51453 0.0
C783 C 0.27289 0.4532 0.53082 0.0
C784 C 0.22991 0.44604 0.51629 0.0
C785 C 0.26742 0.46351 0.54867 0.0
C786 C 0.24348 0.46484 0.5505 0.0
C787 C 0.19991 0.45627 0.53661 0.0
C788 C 0.18052 0.4469 0.52074 0.0
C789 C 0.22446 0.45589 0.53451 0.0
C790 C 0.18635 0.43765 0.5025 0.0
C791 C 0.2108 0.43721 0.5003 0.0
H792 H 0.02065 0.3103 0.13486 0.0
H793 H 0.98104 0.33717 0.09195 0.0
H794 H 0.97271 0.36177 0.11901 0.0
H795 H 0.96587 0.36477 0.1557 0.0
H796 H 0.00248 0.33482 0.19878 0.0
H797 H 0.02342 0.32312 0.17091 0.0
C798 C 0.01113 0.32238 0.13127 0.0
C799 C 0.00067 0.32116 0.1116 0.0
C800 C 0.00537 0.33555 0.14709 0.0
C801 C 0.98871 0.33724 0.10713 0.0
C802 C 0.98379 0.35122 0.12262 0.0
C803 C 0.9793 0.35669 0.15903 0.0
C804 C 0.98191 0.34986 0.17919 0.0
C805 C -0.00968 0.34888 0.14287 0.0
C806 C -0.00036 0.33968 0.1833 0.0
C807 C 0.01151 0.33282 0.16736 0.0
H808 H 0.68891 0.67353 0.10733 0.0
H809 H 0.72193 0.74718 0.1436 0.0
H810 H 0.70327 0.71987 0.17442 0.0
H811 H 0.68856 0.67596 0.19131 0.0
H812 H 0.65877 0.60255 0.15519 0.0
H813 H 0.66455 0.62877 0.12412 0.0
C814 C 0.69132 0.68365 0.12189 0.0
C815 C 0.70765 0.71232 0.12326 0.0
C816 C 0.68152 0.66781 0.13966 0.0
C817 C 0.70991 0.72514 0.14214 0.0
C818 C 0.69943 0.70951 0.15983 0.0
C819 C 0.68256 0.66556 0.17668 0.0
C820 C 0.67411 0.63756 0.17544 0.0
C821 C 0.68691 0.68092 0.15886 0.0
C822 C 0.6657 0.62418 0.15651 0.0
C823 C 0.66924 0.63922 0.13871 0.0
H824 H 0.35158 0.02687 0.10819 0.0
H825 H 0.2755 -0.00115 0.14053 0.0
H826 H 0.29747 -0.00213 0.17236 0.0
H827 H 0.34038 0.01707 0.19163 0.0
H828 H 0.41715 0.0494 0.15936 0.0
H829 H 0.39275 0.03566 0.12695 0.0
C830 C 0.33959 0.01972 0.1221 0.0
C831 C 0.31223 0.01387 0.12217 0.0
C832 C 0.35265 0.0204 0.14046 0.0
C833 C 0.29672 0.0039 0.14013 0.0
C834 C 0.30935 0.00357 0.15839 0.0
C835 C 0.35178 0.02031 0.17757 0.0
C836 C 0.38062 0.03529 0.17786 0.0
C837 C 0.3377 0.01365 0.15891 0.0
C838 C 0.39498 0.03852 0.15957 0.0
C839 C 0.38103 0.03089 0.14097 0.0
H840 H 0.35167 0.01709 0.84713 0.0
H841 H 0.29401 0.03621 0.81927 0.0
H842 H 0.30743 0.02885 0.78548 0.0
H843 H 0.32534 0.00445 0.76556 0.0
H844 H 0.37941 0.98095 0.79416 0.0
H845 H 0.3782 0.00318 0.82574 0.0
C846 C 0.34271 0.02055 0.83361 0.0
C847 C 0.32116 0.02613 0.83567 0.0
C848 C 0.34949 0.01489 0.81435 0.0
C849 C 0.31031 0.03141 0.8181 0.0
C850 C 0.31777 0.0269 0.79876 0.0
C851 C 0.33755 0.0049 0.7785 0.0
C852 C 0.35152 0.99009 0.77779 0.0
C853 C 0.33575 0.01662 0.79689 0.0
C854 C 0.36792 0.99161 0.79445 0.0
C855 C 0.3671 0.00419 0.81258 0.0
H856 H 0.03213 0.35403 0.77877 0.0
H857 H 0.07024 0.42858 0.81411 0.0
H858 H 0.05057 0.40244 0.8453 0.0
H859 H 0.03356 0.35845 0.86267 0.0
H860 H -0.00108 0.28394 0.82737 0.0
H861 H 0.00532 0.30992 0.79612 0.0
C862 C 0.03546 0.36464 0.79323 0.0
C863 C 0.05344 0.39308 0.79424 0.0
C864 C 0.02499 0.34939 0.81118 0.0
C865 C 0.05691 0.40665 0.81295 0.0
C866 C 0.04582 0.39167 0.83084 0.0
C867 C 0.02656 0.34779 0.84821 0.0
C868 C 0.01674 0.31946 0.84723 0.0
C869 C 0.03149 0.36298 0.83022 0.0
C870 C 0.007 0.3058 0.82852 0.0
C871 C 0.01093 0.3207 0.81058 0.0
H872 H 0.68169 0.69817 0.77637 0.0
H873 H 0.60645 0.66397 0.81073 0.0
H874 H 0.63143 0.66791 0.84214 0.0
H875 H 0.67532 0.69263 0.86015 0.0
H876 H 0.75072 0.73053 0.82575 0.0
H877 H 0.72507 0.71281 0.79412 0.0
C878 C 0.67065 0.69073 0.79065 0.0
C879 C 0.64246 0.68168 0.79138 0.0
C880 C 0.6853 0.69419 0.80873 0.0
C881 C 0.62823 0.67141 0.80982 0.0
C882 C 0.64257 0.67393 0.82783 0.0
C883 C 0.68623 0.69629 0.8458 0.0
C884 C 0.71481 0.71381 0.84522 0.0
C885 C 0.67128 0.6871 0.82759 0.0
C886 C 0.72869 0.71763 0.82661 0.0
C887 C 0.714 0.70768 0.80846 0.0
H888 H 0.02304 0.6931 0.86096 0.0
H889 H -0.01062 0.73603 0.8285 0.0
H890 H -0.00567 0.71721 0.79627 0.0
H891 H 0.01918 0.69899 0.77731 0.0
H892 H 0.05685 0.65991 0.80984 0.0
H893 H 0.03862 0.66602 0.84194 0.0
C894 C 0.01603 0.69772 0.8469 0.0
C895 C 0.00677 0.71672 0.84704 0.0
C896 C 0.02008 0.68782 0.82835 0.0
C897 C -0.00296 0.72186 0.8288 0.0
C898 C 8e-05 0.71127 0.81032 0.0
C899 C 0.02273 0.69104 0.79133 0.0
C900 C 0.04022 0.67994 0.79127 0.0
C901 C 0.01331 0.69582 0.80985 0.0
C902 C 0.04392 0.66903 0.80947 0.0
C903 C 0.0337 0.67275 0.8279 0.0
H904 H 0.33931 0.34344 0.778 0.0
H905 H 0.37558 0.41822 0.81309 0.0
H906 H 0.36867 0.39224 0.8444 0.0
H907 H 0.34125 0.3484 0.86188 0.0
H908 H 0.30132 0.27367 0.82687 0.0
H909 H 0.32137 0.29941 0.79554 0.0
C910 C 0.3465 0.35416 0.79243 0.0
C911 C 0.35698 0.38262 0.79331 0.0
C912 C 0.34133 0.33899 0.81046 0.0
C913 C 0.36694 0.39627 0.81201 0.0
C914 C 0.36278 0.38139 0.82997 0.0
C915 C 0.33765 0.33764 0.84746 0.0
C916 C 0.3191 0.30932 0.84657 0.0
C917 C 0.34823 0.3527 0.82945 0.0
C918 C 0.3152 0.29552 0.82793 0.0
C919 C 0.32645 0.31028 0.80997 0.0
H920 H 0.68237 0.00939 0.85717 0.0
H921 H 0.7568 0.04629 0.82166 0.0
H922 H 0.73066 0.04193 0.79083 0.0
H923 H 0.68647 0.01654 0.77341 0.0
H924 H 0.61203 0.97569 0.80877 0.0
H925 H 0.63827 -0.00642 0.84017 0.0
C926 C 0.69298 0.01722 0.84278 0.0
C927 C 0.72134 0.02722 0.84154 0.0
C928 C 0.6777 0.01359 0.82501 0.0
C929 C 0.73492 0.03804 0.82296 0.0
C930 C 0.71993 0.03536 0.80528 0.0
C931 C 0.67588 0.01229 0.78794 0.0
C932 C 0.64747 -0.00606 0.78883 0.0
C933 C 0.69122 0.02144 0.80597 0.0
C934 C 0.63393 0.98932 0.80767 0.0
C935 C 0.64899 -0.00069 0.82568 0.0
H936 H 0.71902 0.00178 0.13971 0.0
H937 H 0.69234 0.04273 0.09793 0.0
H938 H 0.66932 0.05202 0.12564 0.0
H939 H 0.66837 0.05958 0.16237 0.0
H940 H 0.69826 0.02176 0.20436 0.0
H941 H 0.70737 -0.00065 0.17607 0.0
C942 C 0.7073 0.01181 0.13654 0.0
C943 C 0.70819 0.0224 0.11698 0.0
C944 C 0.69499 0.01806 0.15272 0.0
C945 C 0.69256 0.03501 0.11301 0.0
C946 C 0.67945 0.04043 0.12888 0.0
C947 C 0.67575 0.0455 0.16541 0.0
C948 C 0.68354 0.04309 0.18531 0.0
C949 C 0.68224 0.03378 0.14898 0.0
C950 C 0.69271 0.02446 0.18906 0.0
C951 C 0.69817 0.01181 0.17286 0.0
H952 H 0.01126 0.69784 0.11671 0.0
H953 H 0.03844 0.77124 0.15239 0.0
H954 H 0.03185 0.74532 0.18374 0.0
H955 H 0.00711 0.70058 0.20055 0.0
H956 H 0.97673 0.62688 0.16462 0.0
H957 H -0.00344 0.65415 0.13394 0.0
C958 C 0.01657 0.70832 0.13133 0.0
C959 C 0.02443 0.73619 0.13232 0.0
C960 C 0.0117 0.6931 0.14928 0.0
C961 C 0.03196 0.7497 0.15124 0.0
C962 C 0.02794 0.73482 0.1692 0.0
C963 C 0.00554 0.69046 0.18611 0.0
C964 C -0.01041 0.66177 0.18473 0.0
C965 C 0.01604 0.70626 0.1684 0.0
C966 C 0.98843 0.64894 0.16606 0.0
C967 C -0.00042 0.66454 0.14844 0.0
H968 H 0.34697 0.34739 0.11907 0.0
H969 H 0.27121 0.30015 0.15199 0.0
H970 H 0.29639 0.31045 0.18406 0.0
H971 H 0.33976 0.32186 0.20069 0.0
H972 H 0.41548 0.36559 0.16714 0.0
H973 H 0.39058 0.36804 0.1375 0.0
C974 C 0.33588 0.34011 0.13334 0.0
C975 C 0.30736 0.32215 0.13308 0.0
C976 C 0.35059 0.34491 0.15157 0.0
C977 C 0.29319 0.31358 0.15171 0.0
C978 C 0.30764 0.3192 0.17006 0.0
C979 C 0.3509 0.33258 0.18706 0.0
C980 C 0.37927 0.34271 0.18583 0.0
C981 C 0.33635 0.33306 0.16989 0.0
C982 C 0.39357 0.35723 0.16835 0.0
C983 C 0.37931 0.35848 0.15135 0.0
H984 H 0.6696 0.67171 0.52819 0.0
H985 H 0.63265 0.71125 0.49542 0.0
H986 H 0.65455 0.70893 0.46392 0.0
H987 H 0.67304 0.68439 0.44484 0.0
H988 H 0.70644 0.64132 0.47746 0.0
H989 H 0.69806 0.65719 0.50983 0.0
C990 C 0.66705 0.68061 0.51427 0.0
C991 C 0.64878 0.69074 0.51393 0.0
C992 C 0.67879 0.67819 0.49609 0.0
C993 C 0.64625 0.70291 0.496 0.0
C994 C 0.6586 0.70137 0.47793 0.0
C995 C 0.67936 0.67922 0.459 0.0
C996 C 0.68926 0.66075 0.45879 0.0
C997 C 0.67324 0.68731 0.47759 0.0
C998 C 0.69817 0.65499 0.47718 0.0
C999 C 0.69313 0.66385 0.49575 0.0
H1000 H 0.3529 0.01292 0.44108 0.0
H1001 H 0.38872 0.08748 0.47639 0.0
H1002 H 0.3711 0.06105 0.5077 0.0
H1003 H 0.35829 0.01771 0.52483 0.0
H1004 H 0.3268 0.94352 0.48944 0.0
H1005 H 0.32913 0.96863 0.45854 0.0
C1006 C 0.35605 0.02344 0.45556 0.0
C1007 C 0.37311 0.05205 0.45651 0.0
C1008 C 0.34708 0.00807 0.47359 0.0
C1009 C 0.37622 0.06544 0.47526 0.0
C1010 C 0.36635 0.0503 0.49323 0.0
C1011 C 0.35103 0.00686 0.51047 0.0
C1012 C 0.34347 0.97905 0.50926 0.0
C1013 C 0.35373 0.02168 0.49262 0.0
C1014 C 0.33328 0.96504 0.49072 0.0
C1015 C 0.33486 0.97948 0.47298 0.0
H1016 H 0.96203 0.33915 0.47332 0.0
H1017 H 0.02969 0.3713 0.43099 0.0
H1018 H 0.06183 0.38366 0.45924 0.0
H1019 H 0.07083 0.39603 0.49554 0.0
H1020 H 0.00302 0.36645 0.5376 0.0
H1021 H 0.97103 0.34199 0.51005 0.0
C1022 C 0.9837 0.34789 0.47021 0.0
C1023 C -0.0065 0.35514 0.45015 0.0
C1024 C 0.0022 0.35604 0.48658 0.0
C1025 C 0.02164 0.36609 0.44637 0.0
C1026 C 0.0401 0.37337 0.46255 0.0
C1027 C 0.04916 0.38345 0.4988 0.0
C1028 C 0.03925 0.38377 0.51843 0.0
C1029 C 0.03071 0.37018 0.48272 0.0
C1030 C 0.01112 0.36709 0.52248 0.0
C1031 C -0.00724 0.35313 0.50671 0.0
H1032 H 0.35875 0.36049 0.52847 0.0
H1033 H 0.3204 0.39788 0.49466 0.0
H1034 H 0.32672 0.37898 0.46299 0.0
H1035 H 0.35448 0.36353 0.44473 0.0
H1036 H 0.39668 0.33014 0.47845 0.0
H1037 H 0.37691 0.33503 0.51023 0.0
C1038 C 0.35097 0.36378 0.51426 0.0
C1039 C 0.34013 0.38147 0.5138 0.0
C1040 C 0.35586 0.35396 0.49599 0.0
C1041 C 0.32935 0.38482 0.4954 0.0
C1042 C 0.33319 0.37421 0.47722 0.0
C1043 C 0.35863 0.35649 0.45897 0.0
C1044 C 0.37778 0.34744 0.45937 0.0
C1045 C 0.34823 0.36056 0.47725 0.0
C1046 C 0.38237 0.33762 0.47778 0.0
C1047 C 0.37127 0.34067 0.496 0.0
H1048 H 0.64784 0.97263 0.48874 0.0
H1049 H 0.68023 0.03798 0.533 0.0
H1050 H 0.70015 0.07172 0.50578 0.0
H1051 H 0.69714 0.08232 0.46984 0.0
H1052 H 0.66202 0.01679 0.42576 0.0
H1053 H 0.65516 0.9837 0.45225 0.0
C1054 C 0.66021 -0.00582 0.49246 0.0
C1055 C 0.66182 0.00284 0.51277 0.0
C1056 C 0.67066 0.01358 0.47666 0.0
C1057 C 0.67817 0.03083 0.51739 0.0
C1058 C 0.68944 0.05019 0.50181 0.0
C1059 C 0.68902 0.06097 0.46589 0.0
C1060 C 0.6793 0.05189 0.44605 0.0
C1061 C 0.68411 0.04184 0.48138 0.0
C1062 C 0.66906 0.02419 0.44109 0.0
C1063 C 0.66499 0.00519 0.45625 0.0
H1064 H 0.01519 0.6714 0.44404 0.0
H1065 H 0.94258 0.6366 0.48157 0.0
H1066 H 0.97029 0.66027 0.5114 0.0
H1067 H 0.01534 0.68043 0.52767 0.0
H1068 H 0.08796 0.71154 0.49037 0.0
H1069 H 0.06012 0.70072 0.4596 0.0
C1070 C 0.00533 0.6696 0.45864 0.0
C1071 C 0.97702 0.65153 0.46077 0.0
C1072 C 0.02149 0.68241 0.47584 0.0
C1073 C 0.9644 0.65 0.4796 0.0
C1074 C 0.98028 0.66341 0.49671 0.0
C1075 C 0.02519 0.68567 0.51282 0.0
C1076 C 0.05356 0.69577 0.51128 0.0
C1077 C 0.00894 0.67811 0.4952 0.0
C1078 C 0.06611 0.70324 0.492 0.0
C1079 C 0.05014 0.69678 0.47436 0.0
H1080 H 0.03625 0.27519 0.02205 0.0
H1081 H 0.95042 0.22127 0.0099 0.0
H1082 H 0.95958 0.22454 0.97324 0.0
H1083 H -0.00842 0.24475 0.94464 0.0
H1084 H 0.07691 0.30132 0.95674 0.0
H1085 H 0.06837 0.295 -0.00658 0.0
C1086 C 0.01964 0.26392 0.01136 0.0
C1087 C -0.00725 0.24801 0.01858 0.0
C1088 C 0.02493 0.26655 -0.00968 0.0
C1089 C 0.9713 0.23375 0.00462 0.0
C1090 C 0.97651 0.23561 0.98369 0.0
C1091 C 0.00832 0.25553 0.95531 0.0
C1092 C 0.03479 0.2735 0.94802 0.0
C1093 C 0.00318 0.25228 0.97636 0.0
C1094 C 0.05628 0.28751 0.962 0.0
C1095 C 0.05145 0.28387 0.98297 0.0
H1096 H 0.7457 0.79252 0.95727 0.0
H1097 H 0.79298 0.75472 0.94021 0.0
H1098 H 0.80006 0.74866 0.97627 0.0
H1099 H 0.79062 0.75197 0.01249 0.0
H1100 H 0.74559 0.79217 0.02953 0.0
H1101 H 0.73989 0.79964 -0.0065 0.0
C1102 C 0.75765 0.78306 0.96148 0.0
C1103 C 0.76852 0.77373 0.94622 0.0
C1104 C 0.76194 0.78005 0.98215 0.0
C1105 C 0.7844 0.762 0.95177 0.0
C1106 C 0.78835 0.75845 0.97234 0.0
C1107 C 0.77965 0.76246 0.00828 0.0
C1108 C 0.76821 0.7712 0.02353 0.0
C1109 C 0.77686 0.76704 -0.01237 0.0
C1110 C 0.75451 0.78522 0.01799 0.0
C1111 C 0.75118 0.78941 -0.00256 0.0
H1112 H 0.24342 0.01285 0.9493 0.0
H1113 H 0.32717 0.03168 0.94373 0.0
H1114 H 0.33482 0.04327 0.98003 0.0
H1115 H 0.31719 0.04629 0.01344 0.0
H1116 H 0.23225 0.02312 0.0201 0.0
H1117 H 0.22531 0.01466 0.9833 0.0
C1118 C 0.26337 0.01985 0.9561 0.0
C1119 C 0.28486 0.02184 0.94404 0.0
C1120 C 0.26724 0.02533 0.97712 0.0
C1121 C 0.31048 0.03023 0.95287 0.0
C1122 C 0.31481 0.03675 0.97356 0.0
C1123 C 0.29719 0.03949 0.00681 0.0
C1124 C 0.27529 0.03544 0.01935 0.0
C1125 C 0.29326 0.03408 -0.01415 0.0
C1126 C 0.24937 0.02625 0.01068 0.0
C1127 C 0.24544 0.02154 -0.01033 0.0
H1128 H 0.05747 0.79042 0.96113 0.0
H1129 H 0.97155 0.75133 0.94644 0.0
H1130 H 0.9603 0.74904 0.98278 0.0
H1131 H 0.97503 0.75753 0.0186 0.0
H1132 H 0.06114 0.79976 0.03312 0.0
H1133 H 0.07236 0.80172 -0.0032 0.0
C1134 C 0.03629 0.78131 0.96594 0.0
C1135 C 0.01528 0.77068 0.9513 0.0
C1136 C 0.03011 0.78077 -0.01329 0.0
C1137 C 0.98797 0.75951 0.95755 0.0
C1138 C 0.98157 0.75819 0.97826 0.0
C1139 C -0.00375 0.76718 0.01377 0.0
C1140 C 0.01727 0.77824 0.02841 0.0
C1141 C 0.00248 0.76866 -0.00705 0.0
C1142 C 0.04468 0.79113 0.02205 0.0
C1143 C 0.05106 0.79215 0.00135 0.0
H1144 H 0.28581 0.25554 0.01781 0.0
H1145 H 0.23813 0.29448 0.02981 0.0
H1146 H 0.23226 0.29778 -0.00699 0.0
H1147 H 0.24131 0.28992 0.95754 0.0
H1148 H 0.28636 0.24804 0.94607 0.0
H1149 H 0.29265 0.24546 0.98274 0.0
C1150 C 0.27422 0.26486 0.01236 0.0
C1151 C 0.26271 0.27511 0.02638 0.0
C1152 C 0.27047 0.26609 -0.00863 0.0
C1153 C 0.24723 0.28656 0.01922 0.0
C1154 C 0.24393 0.28847 -0.00176 0.0
C1155 C 0.25254 0.28029 0.96312 0.0
C1156 C 0.2636 0.2694 0.94921 0.0
C1157 C 0.25557 0.27839 0.98419 0.0
C1158 C 0.27769 0.25654 0.95654 0.0
C1159 C 0.28134 0.25513 0.97746 0.0
H1160 H 0.74689 0.97998 0.95341 0.0
H1161 H 0.79753 0.06524 0.93788 0.0
H1162 H 0.80397 0.07731 0.97416 0.0
H1163 H 0.79409 0.06359 0.01013 0.0
H1164 H 0.74524 0.97804 0.02553 0.0
H1165 H 0.73928 0.96604 -0.0107 0.0
C1166 C 0.75932 0.00122 0.95798 0.0
C1167 C 0.77148 0.02175 0.94306 0.0
C1168 C 0.76323 0.0079 0.97875 0.0
C1169 C 0.78794 0.04911 0.94913 0.0
C1170 C 0.79156 0.05601 0.96983 0.0
C1171 C 0.78215 0.04232 0.00554 0.0
C1172 C 0.76989 0.02173 0.02042 0.0
C1173 C 0.77912 0.03557 -0.01525 0.0
C1174 C 0.75485 -0.00577 0.01432 0.0
C1175 C 0.75138 0.98738 -0.00636 0.0
H1176 H 0.72087 0.61377 0.28945 0.0
H1177 H 0.63532 0.57403 0.27344 0.0
H1178 H 0.62311 0.57237 0.30951 0.0
H1179 H 0.63705 0.58344 0.34542 0.0
H1180 H 0.72234 0.62009 0.36155 0.0
H1181 H 0.73452 0.6218 0.32548 0.0
C1182 C 0.69955 0.60471 0.2939 0.0
C1183 C 0.679 0.59429 0.27891 0.0
C1184 C 0.69273 0.60339 0.31459 0.0
C1185 C 0.65144 0.58216 0.28479 0.0
C1186 C 0.64449 0.58132 0.30536 0.0
C1187 C 0.65829 0.59184 0.34098 0.0
C1188 C 0.67886 0.60197 0.35596 0.0
C1189 C 0.665 0.5921 0.32035 0.0
C1190 C 0.70624 0.61227 0.35019 0.0
C1191 C 0.71318 0.61328 0.32962 0.0
H1192 H 0.4581 0.08232 0.3477 0.0
H1193 H 0.41583 0.12666 0.36036 0.0
H1194 H 0.40996 0.13059 0.32373 0.0
H1195 H 0.41458 0.11905 0.28835 0.0
H1196 H 0.45901 0.07692 0.27554 0.0
H1197 H 0.46648 0.07455 0.31214 0.0
C1198 C 0.44774 0.09297 0.34241 0.0
C1199 C 0.43709 0.10389 0.35663 0.0
C1200 C 0.44476 0.09541 0.32141 0.0
C1201 C 0.42415 0.11807 0.34965 0.0
C1202 C 0.42069 0.12021 0.32875 0.0
C1203 C 0.42597 0.10942 0.2936 0.0
C1204 C 0.4359 0.0978 0.2794 0.0
C1205 C 0.43053 0.10856 0.31454 0.0
C1206 C 0.45111 0.0859 0.28627 0.0
C1207 C 0.45531 0.08449 0.30715 0.0
H1208 H 0.94806 0.39668 0.34287 0.0
H1209 H 0.9022 0.31167 0.36031 0.0
H1210 H 0.89261 0.29833 0.32439 0.0
H1211 H 0.89963 0.3108 0.28811 0.0
H1212 H 0.94412 0.3959 0.27074 0.0
H1213 H 0.95175 0.40932 0.30671 0.0
C1214 C 0.93587 0.37523 0.3388 0.0
C1215 C 0.92614 0.35513 0.35414 0.0
C1216 C 0.93028 0.36778 0.31821 0.0
C1217 C 0.90996 0.32748 0.34873 0.0
C1218 C 0.90456 0.31985 0.32822 0.0
C1219 C 0.9109 0.3323 0.29221 0.0
C1220 C 0.92162 0.35235 0.27684 0.0
C1221 C 0.91499 0.33982 0.31285 0.0
C1222 C 0.93574 0.38011 0.28232 0.0
C1223 C 0.94018 0.38778 0.30286 0.0
H1224 H 0.70965 0.12685 0.35416 0.0
H1225 H 0.62289 0.09161 0.34408 0.0
H1226 H 0.63007 0.0941 0.30721 0.0
H1227 H 0.6606 0.10365 0.27795 0.0
H1228 H 0.747 0.13609 0.28807 0.0
H1229 H 0.74037 0.13738 0.32479 0.0
C1230 C 0.69239 0.12003 0.34386 0.0
C1231 C 0.66582 0.10904 0.35176 0.0
C1232 C 0.69657 0.12081 0.32271 0.0
C1233 C 0.64356 0.10001 0.3383 0.0
C1234 C 0.64762 0.10141 0.31724 0.0
C1235 C 0.678 0.11121 0.28819 0.0
C1236 C 0.70419 0.11965 0.28034 0.0
C1237 C 0.67398 0.11135 0.30929 0.0
C1238 C 0.72655 0.12926 0.29378 0.0
C1239 C 0.72281 0.13006 0.31477 0.0
H1240 H 0.94421 0.57524 0.34974 0.0
H1241 H 0.90067 0.61687 0.36704 0.0
H1242 H 0.89616 0.62568 0.33106 0.0
H1243 H 0.90631 0.62306 0.29487 0.0
H1244 H 0.94774 0.57926 0.27767 0.0
H1245 H 0.95136 0.5697 0.31356 0.0
C1246 C 0.93367 0.58619 0.34561 0.0
C1247 C 0.92305 0.59569 0.36094 0.0
C1248 C 0.93089 0.59084 0.325 0.0
C1249 C 0.90902 0.6094 0.35545 0.0
C1250 C 0.90654 0.61452 0.33492 0.0
C1251 C 0.91612 0.61141 0.29902 0.0
C1252 C 0.92705 0.60214 0.28375 0.0
C1253 C 0.91769 0.60561 0.31961 0.0
C1254 C 0.93924 0.58664 0.28921 0.0
C1255 C 0.94136 0.58123 0.3097 0.0
H1256 H 0.41609 0.31946 0.35919 0.0
H1257 H 0.45162 0.40589 0.3477 0.0
H1258 H 0.45031 0.39783 0.311 0.0
H1259 H 0.43886 0.36625 0.28219 0.0
H1260 H 0.40025 0.27951 0.29336 0.0
H1261 H 0.403 0.28761 0.33021 0.0
C1262 C 0.42355 0.33648 0.34861 0.0
C1263 C 0.43399 0.36319 0.35607 0.0
C1264 C 0.42221 0.33165 0.32753 0.0
C1265 C 0.44335 0.3851 0.34227 0.0
C1266 C 0.4427 0.38054 0.32131 0.0
C1267 C 0.43118 0.34917 0.29273 0.0
C1268 C 0.41955 0.32239 0.28519 0.0
C1269 C 0.43218 0.35392 0.31378 0.0
C1270 C 0.40926 0.30033 0.2989 0.0
C1271 C 0.41086 0.30494 0.31993 0.0
H1272 H 0.37988 0.94472 0.68193 0.0
H1273 H 0.29264 0.89567 0.67308 0.0
H1274 H 0.29912 0.89639 0.63618 0.0
H1275 H 0.32935 0.91309 0.60637 0.0
H1276 H 0.41626 0.96549 0.61495 0.0
H1277 H 0.41024 0.96131 0.65198 0.0
C1278 C 0.36238 0.93399 0.67188 0.0
C1279 C 0.33587 0.92018 0.68009 0.0
C1280 C 0.36619 0.93523 0.65066 0.0
C1281 C 0.31325 0.90659 0.667 0.0
C1282 C 0.31693 0.90696 0.64594 0.0
C1283 C 0.34696 0.92336 0.61637 0.0
C1284 C 0.37316 0.93954 0.60803 0.0
C1285 C 0.34326 0.92154 0.63759 0.0
C1286 C 0.39584 0.95303 0.62109 0.0
C1287 C 0.39243 0.95063 0.64224 0.0
H1288 H 0.12539 0.42244 0.68109 0.0
H1289 H 0.08951 0.47132 0.69866 0.0
H1290 H 0.08255 0.47793 0.6627 0.0
H1291 H 0.0852 0.46833 0.62645 0.0
H1292 H 0.1232 0.42138 0.60889 0.0
H1293 H 0.13096 0.41556 0.64481 0.0
C1294 C 0.11606 0.43456 0.67703 0.0
C1295 C 0.10765 0.44612 0.69243 0.0
C1296 C 0.11251 0.43857 0.65641 0.0
C1297 C 0.09608 0.4622 0.68702 0.0
C1298 C 0.09204 0.46591 0.6665 0.0
C1299 C 0.09521 0.45685 0.63051 0.0
C1300 C 0.10335 0.44502 0.61513 0.0
C1301 C 0.09993 0.45394 0.65111 0.0
C1302 C 0.11673 0.43063 0.62051 0.0
C1303 C 0.12109 0.42724 0.64101 0.0
H1304 H 0.58218 0.65916 0.68963 0.0
H1305 H 0.62732 0.74694 0.68305 0.0
H1306 H 0.62456 0.74235 0.64594 0.0
H1307 H 0.6097 0.71339 0.61534 0.0
H1308 H 0.56727 0.6256 0.62186 0.0
H1309 H 0.56859 0.63016 0.65898 0.0
C1310 C 0.59131 0.67723 0.68003 0.0
C1311 C 0.60484 0.7033 0.68899 0.0
C1312 C 0.59019 0.67445 0.65872 0.0
C1313 C 0.61689 0.72661 0.67645 0.0
C1314 C 0.61527 0.72403 0.65525 0.0
C1315 C 0.6007 0.69529 0.62492 0.0
C1316 C 0.58836 0.66925 0.61594 0.0
C1317 C 0.60204 0.69806 0.64622 0.0
C1318 C 0.57702 0.64592 0.62847 0.0
C1319 C 0.57769 0.64848 0.64968 0.0
H1320 H 0.30874 0.41498 0.68174 0.0
H1321 H 0.39428 0.4587 0.69794 0.0
H1322 H 0.40685 0.467 0.66177 0.0
H1323 H 0.39332 0.46012 0.62558 0.0
H1324 H 0.30767 0.41904 0.60964 0.0
H1325 H 0.29522 0.41149 0.64579 0.0
C1326 C 0.33013 0.42636 0.67731 0.0
C1327 C 0.35061 0.43593 0.69233 0.0
C1328 C 0.33711 0.43148 0.65662 0.0
C1329 C 0.37822 0.45111 0.68654 0.0
C1330 C 0.38538 0.45578 0.66591 0.0
C1331 C 0.37194 0.4496 0.63007 0.0
C1332 C 0.3514 0.43986 0.61507 0.0
C1333 C 0.36499 0.44579 0.65083 0.0
C1334 C 0.3238 0.42669 0.62099 0.0
C1335 C 0.31668 0.42229 0.64161 0.0
H1336 H 0.62715 0.92019 0.67643 0.0
H1337 H 0.57362 0.95124 0.69273 0.0
H1338 H 0.56676 0.95702 0.65665 0.0
H1339 H 0.57715 0.95458 0.62067 0.0
H1340 H 0.6288 0.92144 0.60414 0.0
H1341 H 0.63515 0.91495 0.64024 0.0
C1342 C 0.61398 0.9282 0.67206 0.0
C1343 C 0.60113 0.93556 0.68716 0.0
C1344 C 0.60983 0.93108 0.65133 0.0
C1345 C 0.58375 0.94548 0.68134 0.0
C1346 C 0.57988 0.94884 0.66075 0.0
C1347 C 0.58978 0.94592 0.62498 0.0
C1348 C 0.60275 0.93877 0.60985 0.0
C1349 C 0.59301 0.94193 0.64565 0.0
C1350 C 0.61866 0.92712 0.61557 0.0
C1351 C 0.62235 0.92349 0.63617 0.0
H1352 H 0.12126 0.73223 0.67891 0.0
H1353 H 0.08083 0.64667 0.69478 0.0
H1354 H 0.07815 0.63443 0.65867 0.0
H1355 H 0.08544 0.64806 0.62266 0.0
H1356 H 0.1284 0.73361 0.6067 0.0
H1357 H 0.13238 0.74602 0.64291 0.0
C1358 C 0.11189 0.71092 0.6744 0.0
C1359 C 0.10087 0.69031 0.68933 0.0
C1360 C 0.111 0.70412 0.65371 0.0
C1361 C 0.08932 0.66282 0.68347 0.0
C1362 C 0.08777 0.65584 0.66287 0.0
C1363 C 0.09584 0.66942 0.62715 0.0
C1364 C 0.10635 0.68993 0.61215 0.0
C1365 C 0.09827 0.67631 0.64788 0.0
C1366 C 0.12018 0.71752 0.61806 0.0
C1367 C 0.1223 0.72458 0.63871 0.0
H1368 H 0.8404 0.10914 0.1259 0.0
H1369 H 0.86848 0.06734 0.08628 0.0
H1370 H 0.91508 0.10666 0.08747 0.0
H1371 H 0.94419 0.15668 0.09294 0.0
H1372 H 0.91412 0.19842 0.13084 0.0
H1373 H 0.87235 0.15537 0.13777 0.0
C1374 C 0.85701 0.10829 0.1182 0.0
C1375 C 0.85114 0.08575 0.1058 0.0
C1376 C 0.88336 0.13121 0.11846 0.0
C1377 C 0.87264 0.08458 0.09594 0.0
C1378 C 0.89921 0.10721 0.09643 0.0
C1379 C 0.92899 0.15602 0.10343 0.0
C1380 C 0.93192 0.18057 0.1112 0.0
C1381 C 0.90439 0.13125 0.10664 0.0
C1382 C 0.91207 0.17969 0.12462 0.0
C1383 C 0.88811 0.15513 0.12844 0.0
H1384 H 0.91778 0.75386 0.12419 0.0
H1385 H 0.96089 0.83027 0.09173 0.0
H1386 H 0.91945 0.83409 0.0916 0.0
H1387 H 0.86882 0.81083 0.09498 0.0
H1388 H 0.82633 0.73281 0.12552 0.0
H1389 H 0.8696 0.73465 0.13248 0.0
C1390 C 0.91827 0.77169 0.11752 0.0
C1391 C 0.94207 0.79149 0.10766 0.0
C1392 C 0.89431 0.77325 0.11697 0.0
C1393 C 0.94269 0.81472 0.09937 0.0
C1394 C 0.91893 0.81676 0.09912 0.0
C1395 C 0.86925 0.79473 0.1037 0.0
C1396 C 0.84453 0.77154 0.10951 0.0
C1397 C 0.89427 0.79546 0.10702 0.0
C1398 C 0.84517 0.75068 0.12071 0.0
C1399 C 0.86987 0.75167 0.12464 0.0
H1400 H 0.23373 0.09617 0.09346 0.0
H1401 H 0.31671 0.13432 0.11586 0.0
H1402 H 0.31642 0.17666 0.12217 0.0
H1403 H 0.29549 0.20464 0.1165 0.0
H1404 H 0.21369 0.16848 0.09219 0.0
H1405 H 0.21028 0.12343 0.09192 0.0
C1406 C 0.25146 0.11358 0.10017 0.0
C1407 C 0.27535 0.1123 0.10391 0.0
C1408 C 0.25145 0.13827 0.10323 0.0
C1409 C 0.29823 0.13497 0.11257 0.0
C1410 C 0.2981 0.1592 0.11618 0.0
C1411 C 0.2767 0.18682 0.11147 0.0
C1412 C 0.25507 0.18991 0.10402 0.0
C1413 C 0.27527 0.16138 0.11079 0.0
C1414 C 0.23068 0.1666 0.09792 0.0
C1415 C 0.22883 0.1409 0.09761 0.0
H1416 H 0.16878 0.94728 0.87732 0.0
H1417 H 0.2139 0.90661 0.86164 0.0
H1418 H 0.17142 0.86337 0.8581 0.0
H1419 H 0.12239 0.83616 0.86344 0.0
H1420 H 0.07622 0.87504 0.88069 0.0
H1421 H 0.11801 0.91997 0.87916 0.0
C1422 C 0.16921 0.92902 0.87281 0.0
C1423 C 0.19449 0.93008 0.87009 0.0
C1424 C 0.14455 0.90388 0.87118 0.0
C1425 C 0.19476 0.90627 0.86418 0.0
C1426 C 0.17047 0.88151 0.86211 0.0
C1427 C 0.12134 0.85449 0.8666 0.0
C1428 C 0.09637 0.85227 0.87248 0.0
C1429 C 0.14538 0.87993 0.86621 0.0
C1430 C 0.09525 0.87622 0.87617 0.0
C1431 C 0.11918 0.90188 0.87545 0.0
H1432 H 0.19217 0.28443 0.84665 0.0
H1433 H 0.15992 0.21081 0.88252 0.0
H1434 H 0.11407 0.2054 0.88085 0.0
H1435 H 0.08608 0.2275 0.87549 0.0
H1436 H 0.12036 0.30302 0.84165 0.0
H1437 H 0.16226 0.30156 0.83581 0.0
C1438 C 0.17491 0.26677 0.8536 0.0
C1439 C 0.17936 0.24836 0.86503 0.0
C1440 C 0.14903 0.26438 0.85314 0.0
C1441 C 0.15692 0.22531 0.8737 0.0
C1442 C 0.13077 0.22239 0.87292 0.0
C1443 C 0.10239 0.24305 0.86625 0.0
C1444 C 0.10045 0.26557 0.85928 0.0
C1445 C 0.12693 0.24264 0.86362 0.0
C1446 C 0.12166 0.28571 0.84738 0.0
C1447 C 0.14564 0.28495 0.8441 0.0
H1448 H 0.80376 0.87488 0.8736 0.0
H1449 H 0.72283 0.8287 0.84772 0.0
H1450 H 0.7218 0.87066 0.84158 0.0
H1451 H 0.74019 0.91894 0.84908 0.0
H1452 H 0.81996 0.96586 0.87645 0.0
H1453 H 0.82552 0.92546 0.87609 0.0
C1454 C 0.7863 0.87419 0.8661 0.0
C1455 C 0.76322 0.84877 0.86141 0.0
C1456 C 0.7855 0.89849 0.86313 0.0
C1457 C 0.74066 0.84804 0.85173 0.0
C1458 C 0.74002 0.87201 0.84824 0.0
C1459 C 0.75907 0.92047 0.85453 0.0
C1460 C 0.77942 0.9451 0.86309 0.0
C1461 C 0.76174 0.89714 0.85475 0.0
C1462 C 0.80396 0.94703 0.86982 0.0
C1463 C 0.80702 0.92386 0.86979 0.0
H1464 H 0.50398 0.4585 0.45177 0.0
H1465 H 0.53678 0.41108 0.42511 0.0
H1466 H 0.58288 0.45124 0.42584 0.0
H1467 H 0.61199 0.5017 0.42838 0.0
H1468 H 0.57731 0.54856 0.45312 0.0
H1469 H 0.53397 0.5068 0.45905 0.0
C1470 C 0.52131 0.45679 0.44652 0.0
C1471 C 0.51698 0.43209 0.43804 0.0
C1472 C 0.54741 0.48002 0.4464 0.0
C1473 C 0.53962 0.42997 0.43164 0.0
C1474 C 0.56594 0.45299 0.43188 0.0
C1475 C 0.59513 0.5026 0.43555 0.0
C1476 C 0.59762 0.52813 0.43999 0.0
C1477 C 0.56985 0.47844 0.43836 0.0
C1478 C 0.57568 0.52913 0.44928 0.0
C1479 C 0.55089 0.50528 0.45266 0.0
H1480 H 0.58193 0.08635 0.45766 0.0
H1481 H 0.62523 0.16126 0.42346 0.0
H1482 H 0.58526 0.16743 0.42519 0.0
H1483 H 0.53498 0.14568 0.42973 0.0
H1484 H 0.49182 0.0689 0.46185 0.0
H1485 H 0.53467 0.06949 0.46801 0.0
C1486 C 0.58289 0.10449 0.45118 0.0
C1487 C 0.60617 0.12305 0.44015 0.0
C1488 C 0.5596 0.10728 0.45158 0.0
C1489 C 0.60744 0.14666 0.43201 0.0
C1490 C 0.58445 0.15 0.43279 0.0
C1491 C 0.5352 0.12964 0.43868 0.0
C1492 C 0.51034 0.10704 0.44504 0.0
C1493 C 0.55992 0.1296 0.44152 0.0
C1494 C 0.51074 0.08629 0.45657 0.0
C1495 C 0.53521 0.08656 0.46004 0.0
H1496 H 0.89213 0.41655 0.42847 0.0
H1497 H 0.97117 0.45068 0.45738 0.0
H1498 H 0.97086 0.49283 0.46465 0.0
H1499 H 0.9527 0.5228 0.45664 0.0
H1500 H 0.87508 0.4907 0.42602 0.0
H1501 H 0.86983 0.44486 0.42594 0.0
C1502 C 0.90876 0.43291 0.43697 0.0
C1503 C 0.9318 0.43078 0.44218 0.0
C1504 C 0.90889 0.4576 0.44047 0.0
C1505 C 0.95338 0.45209 0.45305 0.0
C1506 C 0.95327 0.47622 0.45714 0.0
C1507 C 0.93428 0.50558 0.45045 0.0
C1508 C 0.91454 0.51007 0.44105 0.0
C1509 C 0.93185 0.47968 0.44996 0.0
C1510 C 0.89058 0.48767 0.43332 0.0
C1511 C 0.88772 0.46153 0.43309 0.0
H1512 H 0.74826 0.20681 0.20289 0.0
H1513 H 0.78365 0.16494 0.17115 0.0
H1514 H 0.82536 0.20828 0.16492 0.0
H1515 H 0.85494 0.25564 0.1755 0.0
H1516 H 0.82137 0.29777 0.20898 0.0
H1517 H 0.77565 0.25711 0.20718 0.0
C1518 C 0.76472 0.20739 0.19394 0.0
C1519 C 0.7632 0.18279 0.18779 0.0
C1520 C 0.78916 0.23238 0.1911 0.0
C1521 C 0.78461 0.18367 0.17625 0.0
C1522 C 0.80851 0.20841 0.17278 0.0
C1523 C 0.83741 0.25615 0.18181 0.0
C1524 C 0.8414 0.27928 0.19267 0.0
C1525 C 0.81157 0.23257 0.18122 0.0
C1526 C 0.81867 0.28004 0.20059 0.0
C1527 C 0.79261 0.25671 0.19974 0.0
H1528 H 0.82756 0.56015 0.21257 0.0
H1529 H 0.8691 0.63605 0.17923 0.0
H1530 H 0.82564 0.63393 0.17245 0.0
H1531 H 0.77791 0.61571 0.18192 0.0
H1532 H 0.73584 0.54146 0.21702 0.0
H1533 H 0.77707 0.53725 0.21687 0.0
C1534 C 0.82685 0.57563 0.20323 0.0
C1535 C 0.85138 0.59838 0.19657 0.0
C1536 C 0.80175 0.5748 0.20004 0.0
C1537 C 0.8504 0.6185 0.18463 0.0
C1538 C 0.8256 0.61737 0.18084 0.0
C1539 C 0.77757 0.59821 0.18906 0.0
C1540 C 0.75418 0.57919 0.19976 0.0
C1541 C 0.80143 0.59643 0.18939 0.0
C1542 C 0.75372 0.55639 0.20872 0.0
C1543 C 0.77737 0.55414 0.2088 0.0
H1544 H 0.40747 0.23786 0.18205 0.0
H1545 H 0.48169 0.28327 0.21682 0.0
H1546 H 0.49018 0.2448 0.21468 0.0
H1547 H 0.471 0.19502 0.20903 0.0
H1548 H 0.39513 0.14977 0.17599 0.0
H1549 H 0.39304 0.19141 0.17091 0.0
C1550 C 0.4259 0.23959 0.18866 0.0
C1551 C 0.44365 0.26302 0.19989 0.0
C1552 C 0.43015 0.21722 0.18786 0.0
C1553 C 0.46768 0.26531 0.20815 0.0
C1554 C 0.47238 0.24321 0.20709 0.0
C1555 C 0.45459 0.19458 0.20012 0.0
C1556 C 0.43303 0.16942 0.19314 0.0
C1557 C 0.45299 0.21854 0.19789 0.0
C1558 C 0.41176 0.16894 0.1817 0.0
C1559 C 0.41048 0.19269 0.17886 0.0
H1560 H 0.24629 0.86266 0.78219 0.0
H1561 H 0.29068 0.82766 0.75383 0.0
H1562 H 0.25049 0.78184 0.75693 0.0
H1563 H 0.2002 0.75361 0.76132 0.0
H1564 H 0.1561 0.79031 0.7877 0.0
H1565 H 0.19868 0.83342 0.7921 0.0
C1566 C 0.24737 0.84489 0.77718 0.0
C1567 C 0.27109 0.84846 0.76745 0.0
C1568 C 0.22405 0.81894 0.77841 0.0
C1569 C 0.27252 0.82536 0.76132 0.0
C1570 C 0.24946 0.79921 0.7629 0.0
C1571 C 0.20012 0.77083 0.7686 0.0
C1572 C 0.1751 0.76904 0.77384 0.0
C1573 C 0.22469 0.79596 0.77046 0.0
C1574 C 0.17514 0.79143 0.78325 0.0
C1575 C 0.19945 0.81609 0.78573 0.0
H1576 H 0.28624 0.47291 0.76372 0.0
H1577 H 0.24877 0.39194 0.78974 0.0
H1578 H 0.20617 0.39218 0.79487 0.0
H1579 H 0.17754 0.41172 0.7865 0.0
H1580 H 0.21312 0.49157 0.759 0.0
H1581 H 0.25856 0.49582 0.76029 0.0
C1582 C 0.26896 0.45572 0.77104 0.0
C1583 C 0.27043 0.43226 0.77606 0.0
C1584 C 0.2441 0.45566 0.77342 0.0
C1585 C 0.24793 0.41005 0.78549 0.0
C1586 C 0.22355 0.41014 0.78839 0.0
C1587 C 0.19536 0.43033 0.78122 0.0
C1588 C 0.19203 0.4511 0.77237 0.0
C1589 C 0.22106 0.43226 0.78155 0.0
C1590 C 0.21524 0.47528 0.76585 0.0
C1591 C 0.24116 0.47758 0.76642 0.0
H1592 H 0.61938 0.78804 0.78984 0.0
H1593 H 0.54413 0.74266 0.75618 0.0
H1594 H 0.53805 0.7827 0.75603 0.0
H1595 H 0.55945 0.83309 0.75934 0.0
H1596 H 0.63663 0.87818 0.79079 0.0
H1597 H 0.63651 0.83587 0.7982 0.0
C1598 C 0.60126 0.7867 0.78294 0.0
C1599 C 0.58253 0.76271 0.77269 0.0
C1600 C 0.59851 0.80997 0.78226 0.0
C1601 C 0.5589 0.761 0.76411 0.0
C1602 C 0.55559 0.78399 0.76383 0.0
C1603 C 0.57574 0.83344 0.76834 0.0
C1604 C 0.59823 0.85863 0.77425 0.0
C1605 C 0.57603 0.809 0.77192 0.0
C1606 C 0.61932 0.85898 0.78585 0.0
C1607 C 0.61929 0.83482 0.79006 0.0
H1608 H 0.51757 0.58823 0.51317 0.0
H1609 H 0.48914 0.63283 0.5494 0.0
H1610 H 0.44264 0.59331 0.54908 0.0
H1611 H 0.41292 0.54313 0.5446 0.0
H1612 H 0.44356 0.49871 0.51044 0.0
H1613 H 0.48607 0.54102 0.50354 0.0
C1614 C 0.501 0.58955 0.5205 0.0
C1615 C 0.50677 0.61311 0.5316 0.0
C1616 C 0.47474 0.56654 0.52087 0.0
C1617 C 0.48516 0.61482 0.54078 0.0
C1618 C 0.45864 0.5921 0.5408 0.0
C1619 C 0.4286 0.54297 0.5351 0.0
C1620 C 0.42541 0.51791 0.52826 0.0
C1621 C 0.45354 0.56737 0.53181 0.0
C1622 C 0.44582 0.5178 0.51605 0.0
C1623 C 0.47014 0.54195 0.51215 0.0
H1624 H 0.42493 0.89698 0.53384 0.0
H1625 H 0.45526 0.97278 0.50083 0.0
H1626 H 0.4993 0.97537 0.49609 0.0
H1627 H 0.53164 0.9616 0.50786 0.0
H1628 H 0.50287 0.88711 0.54212 0.0
H1629 H 0.45571 0.87809 0.53952 0.0
C1630 C 0.44087 0.91347 0.52497 0.0
C1631 C 0.43712 0.93494 0.51803 0.0
C1632 C 0.46658 0.91532 0.52288 0.0
C1633 C 0.45789 0.95625 0.50657 0.0
C1634 C 0.48312 0.95782 0.50394 0.0
C1635 C 0.51489 0.94296 0.51419 0.0
C1636 C 0.52058 0.92527 0.52544 0.0
C1637 C 0.48813 0.93835 0.51304 0.0
C1638 C 0.49886 0.90102 0.53341 0.0
C1639 C 0.47195 0.89603 0.53209 0.0
H1640 H 0.14078 0.62236 0.54096 0.0
H1641 H 0.06224 0.59106 0.51168 0.0
H1642 H 0.05929 0.54697 0.50655 0.0
H1643 H 0.07446 0.51514 0.51648 0.0
H1644 H 0.15176 0.54467 0.54705 0.0
H1645 H 0.16016 0.59166 0.54522 0.0
C1646 C 0.12351 0.60612 0.53288 0.0
C1647 C 0.10152 0.6097 0.52703 0.0
C1648 C 0.12154 0.58039 0.53051 0.0
C1649 C 0.0792 0.58857 0.5166 0.0
C1650 C 0.07744 0.56333 0.5137 0.0
C1651 C 0.0935 0.53201 0.52221 0.0
C1652 C 0.11226 0.52658 0.53216 0.0
C1653 C 0.09777 0.55863 0.52155 0.0
C1654 C 0.13702 0.54847 0.53933 0.0
C1655 C 0.14167 0.57527 0.53847 0.0
loop_
_geom_bond_atom_site_label_1
_geom_bond_atom_site_label_2
_geom_bond_distance
_geom_bond_site_symmetry_2
_ccdc_geom_bond_type
Zn0 O3 2.031 . S
Zn0 O5 2.049 . S
Zn0 O10 2.067 . S
Zn1 O2 1.962 . S
Zn1 O4 1.986 . S
Zn1 O6 1.996 . S
Zn1 O9 1.943 . S
O2 Zn1 1.962 . S
O2 C7 1.254 . S
O3 Zn0 2.031 . S
O3 C7 1.269 1_655 S
O4 Zn1 1.986 . S
O4 C11 1.262 . S
O5 Zn0 2.049 . S
O5 C13 1.260 1_655 S
O6 Zn1 1.996 . S
O6 C13 1.257 . S
C7 O2 1.254 . S
C7 O3 1.269 1_455 S
C8 O9 1.249 1_655 S
C8 O10 1.270 . S
O9 Zn1 1.943 . S
O9 C8 1.249 1_455 S
O10 Zn0 2.067 . S
O10 C8 1.270 . S
C11 O4 1.262 . S
C11 O12 1.232 . S
O12 C11 1.232 . S
C13 O5 1.260 1_455 S
C13 O6 1.257 . S
Zn14 O17 2.031 . S
Zn14 O19 2.049 . S
Zn14 O24 2.067 . S
Zn15 O16 1.962 . S
Zn15 O18 1.986 . S
Zn15 O20 1.996 . S
Zn15 O23 1.943 . S
O16 Zn15 1.962 . S
O16 C21 1.254 . S
O17 Zn14 2.031 . S
O17 C21 1.269 . S
O18 Zn15 1.986 . S
O18 C25 1.262 . S
O19 Zn14 2.049 . S
O19 C27 1.260 . S
O20 Zn15 1.996 . S
O20 C27 1.257 . S
C21 O16 1.254 . S
C21 O17 1.269 . S
C22 O23 1.249 . S
C22 O24 1.270 . S
O23 Zn15 1.943 . S
O23 C22 1.249 . S
O24 Zn14 2.067 . S
O24 C22 1.270 . S
C25 O18 1.262 . S
C25 O26 1.232 . S
O26 C25 1.232 . S
C27 O19 1.260 . S
C27 O20 1.257 . S
Zn28 O31 2.031 . S
Zn28 O33 2.049 . S
Zn28 O38 2.067 . S
Zn29 O30 1.962 . S
Zn29 O32 1.986 1_545 S
Zn29 O34 1.996 . S
Zn29 O37 1.943 . S
O30 Zn29 1.962 . S
O30 C35 1.254 . S
O31 Zn28 2.031 . S
O31 C35 1.269 . S
O32 Zn29 1.986 1_565 S
O32 C39 1.262 . S
O33 Zn28 2.049 . S
O33 C41 1.260 . S
O34 Zn29 1.996 . S
O34 C41 1.257 . S
C35 O30 1.254 . S
C35 O31 1.269 . S
C36 O37 1.249 . S
C36 O38 1.270 . S
O37 Zn29 1.943 . S
O37 C36 1.249 . S
O38 Zn28 2.067 . S
O38 C36 1.270 . S
C39 O32 1.262 . S
C39 O40 1.232 . S
O40 C39 1.232 . S
C41 O33 1.260 . S
C41 O34 1.257 . S
Zn42 O45 2.031 . S
Zn42 O47 2.049 . S
Zn42 O52 2.067 . S
Zn43 O44 1.962 . S
Zn43 O46 1.986 . S
Zn43 O48 1.996 . S
Zn43 O51 1.943 . S
O44 Zn43 1.962 . S
O44 C49 1.254 . S
O45 Zn42 2.031 . S
O45 C49 1.269 1_565 S
O46 Zn43 1.986 . S
O46 C53 1.262 . S
O47 Zn42 2.049 . S
O47 C55 1.260 1_565 S
O48 Zn43 1.996 . S
O48 C55 1.257 . S
C49 O44 1.254 . S
C49 O45 1.269 1_545 S
C50 O51 1.249 1_565 S
C50 O52 1.270 . S
O51 Zn43 1.943 . S
O51 C50 1.249 1_545 S
O52 Zn42 2.067 . S
O52 C50 1.270 . S
C53 O46 1.262 . S
C53 O54 1.232 . S
O54 C53 1.232 . S
C55 O47 1.260 1_545 S
C55 O48 1.257 . S
Zn56 O59 2.031 . S
Zn56 O61 2.049 . S
Zn56 O66 2.067 . S
Zn57 O58 1.962 . S
Zn57 O60 1.986 1_455 S
Zn57 O62 1.996 . S
Zn57 O65 1.943 . S
O58 Zn57 1.962 . S
O58 C63 1.254 . S
O59 Zn56 2.031 . S
O59 C63 1.269 . S
O60 Zn57 1.986 1_655 S
O60 C67 1.262 . S
O61 Zn56 2.049 . S
O61 C69 1.260 . S
O62 Zn57 1.996 . S
O62 C69 1.257 . S
C63 O58 1.254 . S
C63 O59 1.269 . S
C64 O65 1.249 . S
C64 O66 1.270 . S
O65 Zn57 1.943 . S
O65 C64 1.249 . S
O66 Zn56 2.067 . S
O66 C64 1.270 . S
C67 O60 1.262 . S
C67 O68 1.232 . S
O68 C67 1.232 . S
C69 O61 1.260 . S
C69 O62 1.257 . S
Zn70 O73 2.031 . S
Zn70 O75 2.049 . S
Zn70 O80 2.067 . S
Zn71 O72 1.962 . S
Zn71 O74 1.986 . S
Zn71 O76 1.996 . S
Zn71 O79 1.943 . S
O72 Zn71 1.962 . S
O72 C77 1.254 . S
O73 Zn70 2.031 . S
O73 C77 1.269 . S
O74 Zn71 1.986 . S
O74 C81 1.262 . S
O75 Zn70 2.049 . S
O75 C83 1.260 . S
O76 Zn71 1.996 . S
O76 C83 1.257 . S
C77 O72 1.254 . S
C77 O73 1.269 . S
C78 O79 1.249 . S
C78 O80 1.270 . S
O79 Zn71 1.943 . S
O79 C78 1.249 . S
O80 Zn70 2.067 . S
O80 C78 1.270 . S
C81 O74 1.262 . S
C81 O82 1.232 . S
O82 C81 1.232 . S
C83 O75 1.260 . S
C83 O76 1.257 . S
Zn84 O87 2.031 . S
Zn84 O89 2.049 . S
Zn84 O94 2.067 . S
Zn85 O86 1.962 . S
Zn85 O88 1.986 1_455 S
Zn85 O90 1.996 . S
Zn85 O93 1.943 . S
O86 Zn85 1.962 . S
O86 C91 1.254 . S
O87 Zn84 2.031 . S
O87 C91 1.269 . S
O88 Zn85 1.986 1_655 S
O88 C95 1.262 . S
O89 Zn84 2.049 . S
O89 C97 1.260 . S
O90 Zn85 1.996 . S
O90 C97 1.257 . S
C91 O86 1.254 . S
C91 O87 1.269 . S
C92 O93 1.249 . S
C92 O94 1.270 . S
O93 Zn85 1.943 . S
O93 C92 1.249 . S
O94 Zn84 2.067 . S
O94 C92 1.270 . S
C95 O88 1.262 . S
C95 O96 1.232 . S
O96 C95 1.232 . S
C97 O89 1.260 . S
C97 O90 1.257 . S
Zn98 O101 2.031 . S
Zn98 O103 2.049 . S
Zn98 O108 2.067 . S
Zn99 O100 1.962 . S
Zn99 O102 1.986 . S
Zn99 O104 1.996 . S
Zn99 O107 1.943 . S
O100 Zn99 1.962 . S
O100 C105 1.254 . S
O101 Zn98 2.031 . S
O101 C105 1.269 . S
O102 Zn99 1.986 . S
O102 C109 1.262 . S
O103 Zn98 2.049 . S
O103 C111 1.260 . S
O104 Zn99 1.996 . S
O104 C111 1.257 . S
C105 O100 1.254 . S
C105 O101 1.269 . S
C106 O107 1.249 . S
C106 O108 1.270 . S
O107 Zn99 1.943 . S
O107 C106 1.249 . S
O108 Zn98 2.067 . S
O108 C106 1.270 . S
C109 O102 1.262 . S
C109 O110 1.232 . S
O110 C109 1.232 . S
C111 O103 1.260 . S
C111 O104 1.257 . S
Zn112 O115 2.031 . S
Zn112 O117 2.049 . S
Zn112 O122 2.067 . S
Zn113 O114 1.962 . S
Zn113 O116 1.986 . S
Zn113 O118 1.996 . S
Zn113 O121 1.943 . S
O114 Zn113 1.962 . S
O114 C119 1.254 . S
O115 Zn112 2.031 . S
O115 C119 1.269 1_565 S
O116 Zn113 1.986 . S
O116 C123 1.262 . S
O117 Zn112 2.049 . S
O117 C125 1.260 1_565 S
O118 Zn113 1.996 . S
O118 C125 1.257 . S
C119 O114 1.254 . S
C119 O115 1.269 1_545 S
C120 O121 1.249 1_565 S
C120 O122 1.270 . S
O121 Zn113 1.943 . S
O121 C120 1.249 1_545 S
O122 Zn112 2.067 . S
O122 C120 1.270 . S
C123 O116 1.262 . S
C123 O124 1.232 . S
O124 C123 1.232 . S
C125 O117 1.260 1_545 S
C125 O118 1.257 . S
Zn126 O129 2.031 . S
Zn126 O131 2.049 . S
Zn126 O136 2.067 . S
Zn127 O128 1.962 . S
Zn127 O130 1.986 1_545 S
Zn127 O132 1.996 . S
Zn127 O135 1.943 . S
O128 Zn127 1.962 . S
O128 C133 1.254 . S
O129 Zn126 2.031 . S
O129 C133 1.269 . S
O130 Zn127 1.986 1_565 S
O130 C137 1.262 . S
O131 Zn126 2.049 . S
O131 C139 1.260 . S
O132 Zn127 1.996 . S
O132 C139 1.257 . S
C133 O128 1.254 . S
C133 O129 1.269 . S
C134 O135 1.249 . S
C134 O136 1.270 . S
O135 Zn127 1.943 . S
O135 C134 1.249 . S
O136 Zn126 2.067 . S
O136 C134 1.270 . S
C137 O130 1.262 . S
C137 O138 1.232 . S
O138 C137 1.232 . S
C139 O131 1.260 . S
C139 O132 1.257 . S
Zn140 O143 2.031 . S
Zn140 O145 2.049 . S
Zn140 O150 2.067 . S
Zn141 O142 1.962 . S
Zn141 O144 1.986 . S
Zn141 O146 1.996 . S
Zn141 O149 1.943 . S
O142 Zn141 1.962 . S
O142 C147 1.254 . S
O143 Zn140 2.031 . S
O143 C147 1.269 1_655 S
O144 Zn141 1.986 . S
O144 C151 1.262 . S
O145 Zn140 2.049 . S
O145 C153 1.260 1_655 S
O146 Zn141 1.996 . S
O146 C153 1.257 . S
C147 O142 1.254 . S
C147 O143 1.269 1_455 S
C148 O149 1.249 1_655 S
C148 O150 1.270 . S
O149 Zn141 1.943 . S
O149 C148 1.249 1_455 S
O150 Zn140 2.067 . S
O150 C148 1.270 . S
C151 O144 1.262 . S
C151 O152 1.232 . S
O152 C151 1.232 . S
C153 O145 1.260 1_455 S
C153 O146 1.257 . S
Zn154 O157 2.031 . S
Zn154 O159 2.049 . S
Zn154 O164 2.067 . S
Zn155 O156 1.962 . S
Zn155 O158 1.986 . S
Zn155 O160 1.996 . S
Zn155 O163 1.943 . S
O156 Zn155 1.962 . S
O156 C161 1.254 . S
O157 Zn154 2.031 . S
O157 C161 1.269 . S
O158 Zn155 1.986 . S
O158 C165 1.262 . S
O159 Zn154 2.049 . S
O159 C167 1.260 . S
O160 Zn155 1.996 . S
O160 C167 1.257 . S
C161 O156 1.254 . S
C161 O157 1.269 . S
C162 O163 1.249 . S
C162 O164 1.270 . S
O163 Zn155 1.943 . S
O163 C162 1.249 . S
O164 Zn154 2.067 . S
O164 C162 1.270 . S
C165 O158 1.262 . S
C165 O166 1.232 . S
O166 C165 1.232 . S
C167 O159 1.260 . S
C167 O160 1.257 . S
Zn168 O171 2.031 . S
Zn168 O173 2.049 . S
Zn168 O178 2.067 . S
Zn169 O170 1.962 . S
Zn169 O172 1.986 . S
Zn169 O174 1.996 . S
Zn169 O177 1.943 . S
O170 Zn169 1.962 . S
O170 C175 1.254 . S
O171 Zn168 2.031 . S
O171 C175 1.269 . S
O172 Zn169 1.986 . S
O172 C179 1.262 . S
O173 Zn168 2.049 . S
O173 C181 1.260 . S
O174 Zn169 1.996 . S
O174 C181 1.257 . S
C175 O170 1.254 . S
C175 O171 1.269 . S
C176 O177 1.249 . S
C176 O178 1.270 . S
O177 Zn169 1.943 . S
O177 C176 1.249 . S
O178 Zn168 2.067 . S
O178 C176 1.270 . S
C179 O172 1.262 . S
C179 O180 1.232 . S
O180 C179 1.232 . S
C181 O173 1.260 . S
C181 O174 1.257 . S
Zn182 O185 2.031 . S
Zn182 O187 2.049 . S
Zn182 O192 2.067 . S
Zn183 O184 1.962 . S
Zn183 O186 1.986 . S
Zn183 O188 1.996 . S
Zn183 O191 1.943 . S
O184 Zn183 1.962 . S
O184 C189 1.254 . S
O185 Zn182 2.031 . S
O185 C189 1.269 . S
O186 Zn183 1.986 . S
O186 C193 1.262 . S
O187 Zn182 2.049 . S
O187 C195 1.260 . S
O188 Zn183 1.996 . S
O188 C195 1.257 . S
C189 O184 1.254 . S
C189 O185 1.269 . S
C190 O191 1.249 . S
C190 O192 1.270 . S
O191 Zn183 1.943 . S
O191 C190 1.249 . S
O192 Zn182 2.067 . S
O192 C190 1.270 . S
C193 O186 1.262 . S
C193 O194 1.232 . S
O194 C193 1.232 . S
C195 O187 1.260 . S
C195 O188 1.257 . S
Zn196 O199 2.031 . S
Zn196 O201 2.049 . S
Zn196 O206 2.067 . S
Zn197 O198 1.962 . S
Zn197 O200 1.986 . S
Zn197 O202 1.996 . S
Zn197 O205 1.943 . S
O198 Zn197 1.962 . S
O198 C203 1.254 . S
O199 Zn196 2.031 . S
O199 C203 1.269 . S
O200 Zn197 1.986 . S
O200 C207 1.262 . S
O201 Zn196 2.049 . S
O201 C209 1.260 . S
O202 Zn197 1.996 . S
O202 C209 1.257 . S
C203 O198 1.254 . S
C203 O199 1.269 . S
C204 O205 1.249 . S
C204 O206 1.270 . S
O205 Zn197 1.943 . S
O205 C204 1.249 . S
O206 Zn196 2.067 . S
O206 C204 1.270 . S
C207 O200 1.262 . S
C207 O208 1.232 . S
O208 C207 1.232 . S
C209 O201 1.260 . S
C209 O202 1.257 . S
Zn210 O213 2.031 . S
Zn210 O215 2.049 . S
Zn210 O220 2.067 . S
Zn211 O212 1.962 . S
Zn211 O214 1.986 . S
Zn211 O216 1.996 . S
Zn211 O219 1.943 . S
O212 Zn211 1.962 . S
O212 C217 1.254 . S
O213 Zn210 2.031 . S
O213 C217 1.269 . S
O214 Zn211 1.986 . S
O214 C221 1.262 . S
O215 Zn210 2.049 . S
O215 C223 1.260 . S
O216 Zn211 1.996 . S
O216 C223 1.257 . S
C217 O212 1.254 . S
C217 O213 1.269 . S
C218 O219 1.249 . S
C218 O220 1.270 . S
O219 Zn211 1.943 . S
O219 C218 1.249 . S
O220 Zn210 2.067 . S
O220 C218 1.270 . S
C221 O214 1.262 . S
C221 O222 1.232 . S
O222 C221 1.232 . S
C223 O215 1.260 . S
C223 O216 1.257 . S
Zn224 O227 2.031 . S
Zn224 O229 2.049 . S
Zn224 O234 2.067 . S
Zn225 O226 1.962 . S
Zn225 O228 1.986 . S
Zn225 O230 1.996 . S
Zn225 O233 1.943 . S
O226 Zn225 1.962 . S
O226 C231 1.254 . S
O227 Zn224 2.031 . S
O227 C231 1.269 . S
O228 Zn225 1.986 . S
O228 C235 1.262 . S
O229 Zn224 2.049 . S
O229 C237 1.260 . S
O230 Zn225 1.996 . S
O230 C237 1.257 . S
C231 O226 1.254 . S
C231 O227 1.269 . S
C232 O233 1.249 . S
C232 O234 1.270 . S
O233 Zn225 1.943 . S
O233 C232 1.249 . S
O234 Zn224 2.067 . S
O234 C232 1.270 . S
C235 O228 1.262 . S
C235 O236 1.232 . S
O236 C235 1.232 . S
C237 O229 1.260 . S
C237 O230 1.257 . S
Zn238 O241 2.031 . S
Zn238 O243 2.049 . S
Zn238 O248 2.067 . S
Zn239 O240 1.962 . S
Zn239 O242 1.986 . S
Zn239 O244 1.996 . S
Zn239 O247 1.943 . S
O240 Zn239 1.962 . S
O240 C245 1.254 . S
O241 Zn238 2.031 . S
O241 C245 1.269 . S
O242 Zn239 1.986 . S
O242 C249 1.262 . S
O243 Zn238 2.049 . S
O243 C251 1.260 . S
O244 Zn239 1.996 . S
O244 C251 1.257 . S
C245 O240 1.254 . S
C245 O241 1.269 . S
C246 O247 1.249 . S
C246 O248 1.270 . S
O247 Zn239 1.943 . S
O247 C246 1.249 . S
O248 Zn238 2.067 . S
O248 C246 1.270 . S
C249 O242 1.262 . S
C249 O250 1.232 . S
O250 C249 1.232 . S
C251 O243 1.260 . S
C251 O244 1.257 . S
Zn252 O255 2.031 . S
Zn252 O257 2.049 . S
Zn252 O262 2.067 . S
Zn253 O254 1.962 . S
Zn253 O256 1.986 . S
Zn253 O258 1.996 . S
Zn253 O261 1.943 . S
O254 Zn253 1.962 . S
O254 C259 1.254 . S
O255 Zn252 2.031 . S
O255 C259 1.269 . S
O256 Zn253 1.986 . S
O256 C263 1.262 . S
O257 Zn252 2.049 . S
O257 C265 1.260 . S
O258 Zn253 1.996 . S
O258 C265 1.257 . S
C259 O254 1.254 . S
C259 O255 1.269 . S
C260 O261 1.249 . S
C260 O262 1.270 . S
O261 Zn253 1.943 . S
O261 C260 1.249 . S
O262 Zn252 2.067 . S
O262 C260 1.270 . S
C263 O256 1.262 . S
C263 O264 1.232 . S
O264 C263 1.232 . S
C265 O257 1.260 . S
C265 O258 1.257 . S
Zn266 O269 2.031 . S
Zn266 O271 2.049 . S
Zn266 O276 2.067 . S
Zn267 O268 1.962 . S
Zn267 O270 1.986 . S
Zn267 O272 1.996 . S
Zn267 O275 1.943 . S
O268 Zn267 1.962 . S
O268 C273 1.254 . S
O269 Zn266 2.031 . S
O269 C273 1.269 . S
O270 Zn267 1.986 . S
O270 C277 1.262 . S
O271 Zn266 2.049 . S
O271 C279 1.260 . S
O272 Zn267 1.996 . S
O272 C279 1.257 . S
C273 O268 1.254 . S
C273 O269 1.269 . S
C274 O275 1.249 . S
C274 O276 1.270 . S
O275 Zn267 1.943 . S
O275 C274 1.249 . S
O276 Zn266 2.067 . S
O276 C274 1.270 . S
C277 O270 1.262 . S
C277 O278 1.232 . S
O278 C277 1.232 . S
C279 O271 1.260 . S
C279 O272 1.257 . S
Zn280 O283 2.031 . S
Zn280 O285 2.049 . S
Zn280 O290 2.067 . S
Zn281 O282 1.962 . S
Zn281 O284 1.986 . S
Zn281 O286 1.996 . S
Zn281 O289 1.943 . S
O282 Zn281 1.962 . S
O282 C287 1.254 . S
O283 Zn280 2.031 . S
O283 C287 1.269 . S
O284 Zn281 1.986 . S
O284 C291 1.262 . S
O285 Zn280 2.049 . S
O285 C293 1.260 . S
O286 Zn281 1.996 . S
O286 C293 1.257 . S
C287 O282 1.254 . S
C287 O283 1.269 . S
C288 O289 1.249 . S
C288 O290 1.270 . S
O289 Zn281 1.943 . S
O289 C288 1.249 . S
O290 Zn280 2.067 . S
O290 C288 1.270 . S
C291 O284 1.262 . S
C291 O292 1.232 . S
O292 C291 1.232 . S
C293 O285 1.260 . S
C293 O286 1.257 . S
Zn294 O297 2.031 . S
Zn294 O299 2.049 . S
Zn294 O304 2.067 . S
Zn295 O296 1.962 . S
Zn295 O298 1.986 . S
Zn295 O300 1.996 . S
Zn295 O303 1.943 . S
O296 Zn295 1.962 . S
O296 C301 1.254 . S
O297 Zn294 2.031 . S
O297 C301 1.269 . S
O298 Zn295 1.986 . S
O298 C305 1.262 . S
O299 Zn294 2.049 . S
O299 C307 1.260 . S
O300 Zn295 1.996 . S
O300 C307 1.257 . S
C301 O296 1.254 . S
C301 O297 1.269 . S
C302 O303 1.249 . S
C302 O304 1.270 . S
O303 Zn295 1.943 . S
O303 C302 1.249 . S
O304 Zn294 2.067 . S
O304 C302 1.270 . S
C305 O298 1.262 . S
C305 O306 1.232 . S
O306 C305 1.232 . S
C307 O299 1.260 . S
C307 O300 1.257 . S
Zn308 O311 2.031 . S
Zn308 O313 2.049 . S
Zn308 O318 2.067 . S
Zn309 O310 1.962 . S
Zn309 O312 1.986 . S
Zn309 O314 1.996 . S
Zn309 O317 1.943 . S
O310 Zn309 1.962 . S
O310 C315 1.254 . S
O311 Zn308 2.031 . S
O311 C315 1.269 . S
O312 Zn309 1.986 . S
O312 C319 1.262 . S
O313 Zn308 2.049 . S
O313 C321 1.260 . S
O314 Zn309 1.996 . S
O314 C321 1.257 . S
C315 O310 1.254 . S
C315 O311 1.269 . S
C316 O317 1.249 . S
C316 O318 1.270 . S
O317 Zn309 1.943 . S
O317 C316 1.249 . S
O318 Zn308 2.067 . S
O318 C316 1.270 . S
C319 O312 1.262 . S
C319 O320 1.232 . S
O320 C319 1.232 . S
C321 O313 1.260 . S
C321 O314 1.257 . S
Zn322 O325 2.031 . S
Zn322 O327 2.049 . S
Zn322 O332 2.067 . S
Zn323 O324 1.962 . S
Zn323 O326 1.986 . S
Zn323 O328 1.996 . S
Zn323 O331 1.943 . S
O324 Zn323 1.962 . S
O324 C329 1.254 . S
O325 Zn322 2.031 . S
O325 C329 1.269 . S
O326 Zn323 1.986 . S
O326 C333 1.262 . S
O327 Zn322 2.049 . S
O327 C335 1.260 . S
O328 Zn323 1.996 . S
O328 C335 1.257 . S
C329 O324 1.254 . S
C329 O325 1.269 . S
C330 O331 1.249 . S
C330 O332 1.270 . S
O331 Zn323 1.943 . S
O331 C330 1.249 . S
O332 Zn322 2.067 . S
O332 C330 1.270 . S
C333 O326 1.262 . S
C333 O334 1.232 . S
O334 C333 1.232 . S
C335 O327 1.260 . S
C335 O328 1.257 . S
Zn336 O339 2.031 . S
Zn336 O341 2.049 . S
Zn336 O346 2.067 . S
Zn337 O338 1.962 . S
Zn337 O340 1.986 . S
Zn337 O342 1.996 . S
Zn337 O345 1.943 . S
O338 Zn337 1.962 . S
O338 C343 1.254 . S
O339 Zn336 2.031 . S
O339 C343 1.269 . S
O340 Zn337 1.986 . S
O340 C347 1.262 . S
O341 Zn336 2.049 . S
O341 C349 1.260 . S
O342 Zn337 1.996 . S
O342 C349 1.257 . S
C343 O338 1.254 . S
C343 O339 1.269 . S
C344 O345 1.249 . S
C344 O346 1.270 . S
O345 Zn337 1.943 . S
O345 C344 1.249 . S
O346 Zn336 2.067 . S
O346 C344 1.270 . S
C347 O340 1.262 . S
C347 O348 1.232 . S
O348 C347 1.232 . S
C349 O341 1.260 . S
C349 O342 1.257 . S
Zn350 O353 2.031 . S
Zn350 O355 2.049 . S
Zn350 O360 2.067 . S
Zn351 O352 1.962 . S
Zn351 O354 1.986 . S
Zn351 O356 1.996 . S
Zn351 O359 1.943 . S
O352 Zn351 1.962 . S
O352 C357 1.254 . S
O353 Zn350 2.031 . S
O353 C357 1.269 . S
O354 Zn351 1.986 . S
O354 C361 1.262 . S
O355 Zn350 2.049 . S
O355 C363 1.260 . S
O356 Zn351 1.996 . S
O356 C363 1.257 . S
C357 O352 1.254 . S
C357 O353 1.269 . S
C358 O359 1.249 . S
C358 O360 1.270 . S
O359 Zn351 1.943 . S
O359 C358 1.249 . S
O360 Zn350 2.067 . S
O360 C358 1.270 . S
C361 O354 1.262 . S
C361 O362 1.232 . S
O362 C361 1.232 . S
C363 O355 1.260 . S
C363 O356 1.257 . S
Zn364 O367 2.031 . S
Zn364 O369 2.049 . S
Zn364 O374 2.067 . S
Zn365 O366 1.962 . S
Zn365 O368 1.986 . S
Zn365 O370 1.996 . S
Zn365 O373 1.943 . S
O366 Zn365 1.962 . S
O366 C371 1.254 . S
O367 Zn364 2.031 . S
O367 C371 1.269 . S
O368 Zn365 1.986 . S
O368 C375 1.262 . S
O369 Zn364 2.049 . S
O369 C377 1.260 . S
O370 Zn365 1.996 . S
O370 C377 1.257 . S
C371 O366 1.254 . S
C371 O367 1.269 . S
C372 O373 1.249 . S
C372 O374 1.270 . S
O373 Zn365 1.943 . S
O373 C372 1.249 . S
O374 Zn364 2.067 . S
O374 C372 1.270 . S
C375 O368 1.262 . S
C375 O376 1.232 . S
O376 C375 1.232 . S
C377 O369 1.260 . S
C377 O370 1.257 . S
Zn378 O381 2.031 . S
Zn378 O383 2.049 . S
Zn378 O388 2.067 . S
Zn379 O380 1.962 . S
Zn379 O382 1.986 . S
Zn379 O384 1.996 . S
Zn379 O387 1.943 . S
O380 Zn379 1.962 . S
O380 C385 1.254 . S
O381 Zn378 2.031 . S
O381 C385 1.269 . S
O382 Zn379 1.986 . S
O382 C389 1.262 . S
O383 Zn378 2.049 . S
O383 C391 1.260 . S
O384 Zn379 1.996 . S
O384 C391 1.257 . S
C385 O380 1.254 . S
C385 O381 1.269 . S
C386 O387 1.249 . S
C386 O388 1.270 . S
O387 Zn379 1.943 . S
O387 C386 1.249 . S
O388 Zn378 2.067 . S
O388 C386 1.270 . S
C389 O382 1.262 . S
C389 O390 1.232 . S
O390 C389 1.232 . S
C391 O383 1.260 . S
C391 O384 1.257 . S
Zn392 O395 2.031 . S
Zn392 O397 2.049 . S
Zn392 O402 2.067 . S
Zn393 O394 1.962 . S
Zn393 O396 1.986 . S
Zn393 O398 1.996 . S
Zn393 O401 1.943 . S
O394 Zn393 1.962 . S
O394 C399 1.254 . S
O395 Zn392 2.031 . S
O395 C399 1.269 . S
O396 Zn393 1.986 . S
O396 C403 1.262 . S
O397 Zn392 2.049 . S
O397 C405 1.260 . S
O398 Zn393 1.996 . S
O398 C405 1.257 . S
C399 O394 1.254 . S
C399 O395 1.269 . S
C400 O401 1.249 . S
C400 O402 1.270 . S
O401 Zn393 1.943 . S
O401 C400 1.249 . S
O402 Zn392 2.067 . S
O402 C400 1.270 . S
C403 O396 1.262 . S
C403 O404 1.232 . S
O404 C403 1.232 . S
C405 O397 1.260 . S
C405 O398 1.257 . S
Zn406 O409 2.031 . S
Zn406 O411 2.049 . S
Zn406 O416 2.067 . S
Zn407 O408 1.962 . S
Zn407 O410 1.986 . S
Zn407 O412 1.996 . S
Zn407 O415 1.943 . S
O408 Zn407 1.962 . S
O408 C413 1.254 . S
O409 Zn406 2.031 . S
O409 C413 1.269 . S
O410 Zn407 1.986 . S
O410 C417 1.262 . S
O411 Zn406 2.049 . S
O411 C419 1.260 . S
O412 Zn407 1.996 . S
O412 C419 1.257 . S
C413 O408 1.254 . S
C413 O409 1.269 . S
C414 O415 1.249 . S
C414 O416 1.270 . S
O415 Zn407 1.943 . S
O415 C414 1.249 . S
O416 Zn406 2.067 . S
O416 C414 1.270 . S
C417 O410 1.262 . S
C417 O418 1.232 . S
O418 C417 1.232 . S
C419 O411 1.260 . S
C419 O412 1.257 . S
Zn420 O423 2.031 . S
Zn420 O425 2.049 . S
Zn420 O430 2.067 . S
Zn421 O422 1.962 . S
Zn421 O424 1.986 . S
Zn421 O426 1.996 . S
Zn421 O429 1.943 . S
O422 Zn421 1.962 . S
O422 C427 1.254 . S
O423 Zn420 2.031 . S
O423 C427 1.269 . S
O424 Zn421 1.986 . S
O424 C431 1.262 . S
O425 Zn420 2.049 . S
O425 C433 1.260 . S
O426 Zn421 1.996 . S
O426 C433 1.257 . S
C427 O422 1.254 . S
C427 O423 1.269 . S
C428 O429 1.249 . S
C428 O430 1.270 . S
O429 Zn421 1.943 . S
O429 C428 1.249 . S
O430 Zn420 2.067 . S
O430 C428 1.270 . S
C431 O424 1.262 . S
C431 O432 1.232 . S
O432 C431 1.232 . S
C433 O425 1.260 . S
C433 O426 1.257 . S
Zn434 O437 2.031 . S
Zn434 O439 2.049 . S
Zn434 O444 2.067 . S
Zn435 O436 1.962 . S
Zn435 O438 1.986 . S
Zn435 O440 1.996 . S
Zn435 O443 1.943 . S
O436 Zn435 1.962 . S
O436 C441 1.254 . S
O437 Zn434 2.031 . S
O437 C441 1.269 . S
O438 Zn435 1.986 . S
O438 C445 1.262 . S
O439 Zn434 2.049 . S
O439 C447 1.260 . S
O440 Zn435 1.996 . S
O440 C447 1.257 . S
C441 O436 1.254 . S
C441 O437 1.269 . S
C442 O443 1.249 . S
C442 O444 1.270 . S
O443 Zn435 1.943 . S
O443 C442 1.249 . S
O444 Zn434 2.067 . S
O444 C442 1.270 . S
C445 O438 1.262 . S
C445 O446 1.232 . S
O446 C445 1.232 . S
C447 O439 1.260 . S
C447 O440 1.257 . S
Zn448 O451 2.031 . S
Zn448 O453 2.049 . S
Zn448 O458 2.067 . S
Zn449 O450 1.962 . S
Zn449 O452 1.986 . S
Zn449 O454 1.996 . S
Zn449 O457 1.943 . S
O450 Zn449 1.962 . S
O450 C455 1.254 . S
O451 Zn448 2.031 . S
O451 C455 1.269 . S
O452 Zn449 1.986 . S
O452 C459 1.262 . S
O453 Zn448 2.049 . S
O453 C461 1.260 . S
O454 Zn449 1.996 . S
O454 C461 1.257 . S
C455 O450 1.254 . S
C455 O451 1.269 . S
C456 O457 1.249 . S
C456 O458 1.270 . S
O457 Zn449 1.943 . S
O457 C456 1.249 . S
O458 Zn448 2.067 . S
O458 C456 1.270 . S
C459 O452 1.262 . S
C459 O460 1.232 . S
O460 C459 1.232 . S
C461 O453 1.260 . S
C461 O454 1.257 . S
Zn462 O465 2.031 . S
Zn462 O467 2.049 . S
Zn462 O472 2.067 . S
Zn463 O464 1.962 . S
Zn463 O466 1.986 . S
Zn463 O468 1.996 . S
Zn463 O471 1.943 . S
O464 Zn463 1.962 . S
O464 C469 1.254 . S
O465 Zn462 2.031 . S
O465 C469 1.269 . S
O466 Zn463 1.986 . S
O466 C473 1.262 . S
O467 Zn462 2.049 . S
O467 C475 1.260 . S
O468 Zn463 1.996 . S
O468 C475 1.257 . S
C469 O464 1.254 . S
C469 O465 1.269 . S
C470 O471 1.249 . S
C470 O472 1.270 . S
O471 Zn463 1.943 . S
O471 C470 1.249 . S
O472 Zn462 2.067 . S
O472 C470 1.270 . S
C473 O466 1.262 . S
C473 O474 1.232 . S
O474 C473 1.232 . S
C475 O467 1.260 . S
C475 O468 1.257 . S
Zn476 O479 2.031 . S
Zn476 O481 2.049 . S
Zn476 O486 2.067 . S
Zn477 O478 1.962 . S
Zn477 O480 1.986 . S
Zn477 O482 1.996 . S
Zn477 O485 1.943 . S
O478 Zn477 1.962 . S
O478 C483 1.254 . S
O479 Zn476 2.031 . S
O479 C483 1.269 . S
O480 Zn477 1.986 . S
O480 C487 1.262 . S
O481 Zn476 2.049 . S
O481 C489 1.260 . S
O482 Zn477 1.996 . S
O482 C489 1.257 . S
C483 O478 1.254 . S
C483 O479 1.269 . S
C484 O485 1.249 . S
C484 O486 1.270 . S
O485 Zn477 1.943 . S
O485 C484 1.249 . S
O486 Zn476 2.067 . S
O486 C484 1.270 . S
C487 O480 1.262 . S
C487 O488 1.232 . S
O488 C487 1.232 . S
C489 O481 1.260 . S
C489 O482 1.257 . S
Zn490 O493 2.031 . S
Zn490 O495 2.049 . S
Zn490 O500 2.067 . S
Zn491 O492 1.962 . S
Zn491 O494 1.986 . S
Zn491 O496 1.996 . S
Zn491 O499 1.943 . S
O492 Zn491 1.962 . S
O492 C497 1.254 . S
O493 Zn490 2.031 . S
O493 C497 1.269 . S
O494 Zn491 1.986 . S
O494 C501 1.262 . S
O495 Zn490 2.049 . S
O495 C503 1.260 . S
O496 Zn491 1.996 . S
O496 C503 1.257 . S
C497 O492 1.254 . S
C497 O493 1.269 . S
C498 O499 1.249 . S
C498 O500 1.270 . S
O499 Zn491 1.943 . S
O499 C498 1.249 . S
O500 Zn490 2.067 . S
O500 C498 1.270 . S
C501 O494 1.262 . S
C501 O502 1.232 . S
O502 C501 1.232 . S
C503 O495 1.260 . S
C503 O496 1.257 . S
H504 C510 0.930 . S
H505 C513 0.930 . S
H506 C514 0.930 . S
H507 C515 0.930 . S
H508 C518 0.930 . S
H509 C519 0.930 . S
C510 H504 0.930 . S
C510 C511 1.355 . S
C510 C512 1.415 . S
C511 C510 1.355 . S
C511 C513 1.419 . S
C512 C510 1.415 . S
C512 C517 1.425 . S
C512 C519 1.409 . S
C513 H505 0.930 . S
C513 C511 1.419 . S
C513 C514 1.362 . S
C514 H506 0.930 . S
C514 C513 1.362 . S
C514 C517 1.409 . S
C515 H507 0.930 . S
C515 C516 1.355 . S
C515 C517 1.415 . S
C516 C515 1.355 . S
C516 C518 1.419 . S
C517 C512 1.425 . S
C517 C514 1.409 . S
C517 C515 1.415 . S
C518 H508 0.930 . S
C518 C516 1.419 . S
C518 C519 1.362 . S
C519 H509 0.930 . S
C519 C512 1.409 . S
C519 C518 1.362 . S
H520 C526 0.930 . S
H521 C529 0.930 . S
H522 C530 0.930 . S
H523 C531 0.930 . S
H524 C534 0.930 . S
H525 C535 0.930 . S
C526 H520 0.930 . S
C526 C527 1.355 . S
C526 C528 1.415 . S
C527 C526 1.355 . S
C527 C529 1.419 . S
C528 C526 1.415 . S
C528 C533 1.425 . S
C528 C535 1.409 . S
C529 H521 0.930 . S
C529 C527 1.419 . S
C529 C530 1.362 . S
C530 H522 0.930 . S
C530 C529 1.362 . S
C530 C533 1.409 . S
C531 H523 0.930 . S
C531 C532 1.355 . S
C531 C533 1.415 . S
C532 C531 1.355 . S
C532 C534 1.419 . S
C533 C528 1.425 . S
C533 C530 1.409 . S
C533 C531 1.415 . S
C534 H524 0.930 . S
C534 C532 1.419 . S
C534 C535 1.362 . S
C535 H525 0.930 . S
C535 C528 1.409 . S
C535 C534 1.362 . S
H536 C542 0.930 . S
H537 C545 0.930 . S
H538 C546 0.930 . S
H539 C547 0.930 . S
H540 C550 0.930 . S
H541 C551 0.930 . S
C542 H536 0.930 . S
C542 C543 1.355 . S
C542 C544 1.415 . S
C543 C542 1.355 . S
C543 C545 1.419 . S
C544 C542 1.415 . S
C544 C549 1.425 . S
C544 C551 1.409 . S
C545 H537 0.930 . S
C545 C543 1.419 . S
C545 C546 1.362 . S
C546 H538 0.930 . S
C546 C545 1.362 . S
C546 C549 1.409 . S
C547 H539 0.930 . S
C547 C548 1.355 . S
C547 C549 1.415 . S
C548 C547 1.355 . S
C548 C550 1.419 . S
C549 C544 1.425 . S
C549 C546 1.409 . S
C549 C547 1.415 . S
C550 H540 0.930 . S
C550 C548 1.419 . S
C550 C551 1.362 . S
C551 H541 0.930 . S
C551 C544 1.409 . S
C551 C550 1.362 . S
H552 C558 0.930 . S
H553 C561 0.930 . S
H554 C562 0.930 . S
H555 C563 0.930 . S
H556 C566 0.930 . S
H557 C567 0.930 . S
C558 H552 0.930 . S
C558 C559 1.355 . S
C558 C560 1.415 . S
C559 C558 1.355 . S
C559 C561 1.419 . S
C560 C558 1.415 . S
C560 C565 1.425 . S
C560 C567 1.409 . S
C561 H553 0.930 . S
C561 C559 1.419 . S
C561 C562 1.362 . S
C562 H554 0.930 . S
C562 C561 1.362 . S
C562 C565 1.409 . S
C563 H555 0.930 . S
C563 C564 1.355 . S
C563 C565 1.415 . S
C564 C563 1.355 . S
C564 C566 1.419 . S
C565 C560 1.425 . S
C565 C562 1.409 . S
C565 C563 1.415 . S
C566 H556 0.930 . S
C566 C564 1.419 . S
C566 C567 1.362 . S
C567 H557 0.930 . S
C567 C560 1.409 . S
C567 C566 1.362 . S
H568 C574 0.930 . S
H569 C577 0.930 . S
H570 C578 0.930 . S
H571 C579 0.930 . S
H572 C582 0.930 . S
H573 C583 0.930 . S
C574 H568 0.930 . S
C574 C575 1.355 . S
C574 C576 1.415 . S
C575 C574 1.355 . S
C575 C577 1.419 . S
C576 C574 1.415 . S
C576 C581 1.425 . S
C576 C583 1.409 . S
C577 H569 0.930 . S
C577 C575 1.419 . S
C577 C578 1.362 . S
C578 H570 0.930 . S
C578 C577 1.362 . S
C578 C581 1.409 . S
C579 H571 0.930 . S
C579 C580 1.355 . S
C579 C581 1.415 . S
C580 C579 1.355 . S
C580 C582 1.419 . S
C581 C576 1.425 . S
C581 C578 1.409 . S
C581 C579 1.415 . S
C582 H572 0.930 . S
C582 C580 1.419 . S
C582 C583 1.362 . S
C583 H573 0.930 . S
C583 C576 1.409 . S
C583 C582 1.362 . S
H584 C590 0.930 . S
H585 C593 0.930 . S
H586 C594 0.930 . S
H587 C595 0.930 . S
H588 C598 0.930 . S
H589 C599 0.930 . S
C590 H584 0.930 . S
C590 C591 1.355 . S
C590 C592 1.415 . S
C591 C590 1.355 . S
C591 C593 1.419 . S
C592 C590 1.415 . S
C592 C597 1.425 . S
C592 C599 1.409 . S
C593 H585 0.930 . S
C593 C591 1.419 . S
C593 C594 1.362 . S
C594 H586 0.930 . S
C594 C593 1.362 . S
C594 C597 1.409 . S
C595 H587 0.930 . S
C595 C596 1.355 . S
C595 C597 1.415 . S
C596 C595 1.355 . S
C596 C598 1.419 . S
C597 C592 1.425 . S
C597 C594 1.409 . S
C597 C595 1.415 . S
C598 H588 0.930 . S
C598 C596 1.419 . S
C598 C599 1.362 . S
C599 H589 0.930 . S
C599 C592 1.409 . S
C599 C598 1.362 . S
H600 C606 0.930 . S
H601 C609 0.930 . S
H602 C610 0.930 . S
H603 C611 0.930 . S
H604 C614 0.930 . S
H605 C615 0.930 . S
C606 H600 0.930 . S
C606 C607 1.355 . S
C606 C608 1.415 . S
C607 C606 1.355 . S
C607 C609 1.419 . S
C608 C606 1.415 . S
C608 C613 1.425 . S
C608 C615 1.409 . S
C609 H601 0.930 . S
C609 C607 1.419 . S
C609 C610 1.362 . S
C610 H602 0.930 . S
C610 C609 1.362 . S
C610 C613 1.409 . S
C611 H603 0.930 . S
C611 C612 1.355 . S
C611 C613 1.415 . S
C612 C611 1.355 . S
C612 C614 1.419 . S
C613 C608 1.425 . S
C613 C610 1.409 . S
C613 C611 1.415 . S
C614 H604 0.930 . S
C614 C612 1.419 . S
C614 C615 1.362 . S
C615 H605 0.930 . S
C615 C608 1.409 . S
C615 C614 1.362 . S
H616 C622 0.930 . S
H617 C625 0.930 . S
H618 C626 0.930 . S
H619 C627 0.930 . S
H620 C630 0.930 . S
H621 C631 0.930 . S
C622 H616 0.930 . S
C622 C623 1.355 . S
C622 C624 1.415 . S
C623 C622 1.355 . S
C623 C625 1.419 . S
C624 C622 1.415 . S
C624 C629 1.425 . S
C624 C631 1.409 . S
C625 H617 0.930 . S
C625 C623 1.419 . S
C625 C626 1.362 . S
C626 H618 0.930 . S
C626 C625 1.362 . S
C626 C629 1.409 . S
C627 H619 0.930 . S
C627 C628 1.355 . S
C627 C629 1.415 . S
C628 C627 1.355 . S
C628 C630 1.419 . S
C629 C624 1.425 . S
C629 C626 1.409 . S
C629 C627 1.415 . S
C630 H620 0.930 . S
C630 C628 1.419 . S
C630 C631 1.362 . S
C631 H621 0.930 . S
C631 C624 1.409 . S
C631 C630 1.362 . S
H632 C638 0.930 . S
H633 C641 0.930 . S
H634 C642 0.930 . S
H635 C643 0.930 . S
H636 C646 0.930 . S
H637 C647 0.930 . S
C638 H632 0.930 . S
C638 C639 1.355 . S
C638 C640 1.415 . S
C639 C638 1.355 . S
C639 C641 1.419 . S
C640 C638 1.415 . S
C640 C645 1.425 . S
C640 C647 1.409 . S
C641 H633 0.930 . S
C641 C639 1.419 . S
C641 C642 1.362 . S
C642 H634 0.930 . S
C642 C641 1.362 . S
C642 C645 1.409 . S
C643 H635 0.930 . S
C643 C644 1.355 . S
C643 C645 1.415 . S
C644 C643 1.355 . S
C644 C646 1.419 . S
C645 C640 1.425 . S
C645 C642 1.409 . S
C645 C643 1.415 . S
C646 H636 0.930 . S
C646 C644 1.419 . S
C646 C647 1.362 . S
C647 H637 0.930 . S
C647 C640 1.409 . S
C647 C646 1.362 . S
H648 C654 0.930 . S
H649 C657 0.930 . S
H650 C658 0.930 . S
H651 C659 0.930 . S
H652 C662 0.930 . S
H653 C663 0.930 . S
C654 H648 0.930 . S
C654 C655 1.355 . S
C654 C656 1.415 . S
C655 C654 1.355 . S
C655 C657 1.419 . S
C656 C654 1.415 . S
C656 C661 1.425 . S
C656 C663 1.409 . S
C657 H649 0.930 . S
C657 C655 1.419 . S
C657 C658 1.362 . S
C658 H650 0.930 . S
C658 C657 1.362 . S
C658 C661 1.409 . S
C659 H651 0.930 . S
C659 C660 1.355 . S
C659 C661 1.415 . S
C660 C659 1.355 . S
C660 C662 1.419 . S
C661 C656 1.425 . S
C661 C658 1.409 . S
C661 C659 1.415 . S
C662 H652 0.930 . S
C662 C660 1.419 . S
C662 C663 1.362 . S
C663 H653 0.930 . S
C663 C656 1.409 . S
C663 C662 1.362 . S
H664 C670 0.930 . S
H665 C673 0.930 . S
H666 C674 0.930 . S
H667 C675 0.930 . S
H668 C678 0.930 . S
H669 C679 0.930 . S
C670 H664 0.930 . S
C670 C671 1.355 . S
C670 C672 1.415 . S
C671 C670 1.355 . S
C671 C673 1.419 . S
C672 C670 1.415 . S
C672 C677 1.425 . S
C672 C679 1.409 . S
C673 H665 0.930 . S
C673 C671 1.419 . S
C673 C674 1.362 . S
C674 H666 0.930 . S
C674 C673 1.362 . S
C674 C677 1.409 . S
C675 H667 0.930 . S
C675 C676 1.355 . S
C675 C677 1.415 . S
C676 C675 1.355 . S
C676 C678 1.419 . S
C677 C672 1.425 . S
C677 C674 1.409 . S
C677 C675 1.415 . S
C678 H668 0.930 . S
C678 C676 1.419 . S
C678 C679 1.362 . S
C679 H669 0.930 . S
C679 C672 1.409 . S
C679 C678 1.362 . S
H680 C686 0.930 . S
H681 C689 0.930 . S
H682 C690 0.930 . S
H683 C691 0.930 . S
H684 C694 0.930 . S
H685 C695 0.930 . S
C686 H680 0.930 . S
C686 C687 1.355 . S
C686 C688 1.415 . S
C687 C686 1.355 . S
C687 C689 1.419 . S
C688 C686 1.415 . S
C688 C693 1.425 . S
C688 C695 1.409 . S
C689 H681 0.930 . S
C689 C687 1.419 . S
C689 C690 1.362 . S
C690 H682 0.930 . S
C690 C689 1.362 . S
C690 C693 1.409 . S
C691 H683 0.930 . S
C691 C692 1.355 . S
C691 C693 1.415 . S
C692 C691 1.355 . S
C692 C694 1.419 . S
C693 C688 1.425 . S
C693 C690 1.409 . S
C693 C691 1.415 . S
C694 H684 0.930 . S
C694 C692 1.419 . S
C694 C695 1.362 . S
C695 H685 0.930 . S
C695 C688 1.409 . S
C695 C694 1.362 . S
H696 C702 0.930 . S
H697 C705 0.930 . S
H698 C706 0.930 . S
H699 C707 0.930 . S
H700 C710 0.930 . S
H701 C711 0.930 . S
C702 H696 0.930 . S
C702 C703 1.355 . S
C702 C704 1.415 . S
C703 C702 1.355 . S
C703 C705 1.419 . S
C704 C702 1.415 . S
C704 C709 1.425 . S
C704 C711 1.409 . S
C705 H697 0.930 . S
C705 C703 1.419 . S
C705 C706 1.362 . S
C706 H698 0.930 . S
C706 C705 1.362 . S
C706 C709 1.409 . S
C707 H699 0.930 . S
C707 C708 1.355 . S
C707 C709 1.415 . S
C708 C707 1.355 . S
C708 C710 1.419 . S
C709 C704 1.425 . S
C709 C706 1.409 . S
C709 C707 1.415 . S
C710 H700 0.930 . S
C710 C708 1.419 . S
C710 C711 1.362 . S
C711 H701 0.930 . S
C711 C704 1.409 . S
C711 C710 1.362 . S
H712 C718 0.930 . S
H713 C721 0.930 . S
H714 C722 0.930 . S
H715 C723 0.930 . S
H716 C726 0.930 . S
H717 C727 0.930 . S
C718 H712 0.930 . S
C718 C719 1.355 . S
C718 C720 1.415 . S
C719 C718 1.355 . S
C719 C721 1.419 . S
C720 C718 1.415 . S
C720 C725 1.425 . S
C720 C727 1.409 . S
C721 H713 0.930 . S
C721 C719 1.419 . S
C721 C722 1.362 . S
C722 H714 0.930 . S
C722 C721 1.362 . S
C722 C725 1.409 . S
C723 H715 0.930 . S
C723 C724 1.355 . S
C723 C725 1.415 . S
C724 C723 1.355 . S
C724 C726 1.419 . S
C725 C720 1.425 . S
C725 C722 1.409 . S
C725 C723 1.415 . S
C726 H716 0.930 . S
C726 C724 1.419 . S
C726 C727 1.362 . S
C727 H717 0.930 . S
C727 C720 1.409 . S
C727 C726 1.362 . S
H728 C734 0.930 . S
H729 C737 0.930 . S
H730 C738 0.930 . S
H731 C739 0.930 . S
H732 C742 0.930 . S
H733 C743 0.930 . S
C734 H728 0.930 . S
C734 C735 1.355 . S
C734 C736 1.415 . S
C735 C734 1.355 . S
C735 C737 1.419 . S
C736 C734 1.415 . S
C736 C741 1.425 . S
C736 C743 1.409 . S
C737 H729 0.930 . S
C737 C735 1.419 . S
C737 C738 1.362 . S
C738 H730 0.930 . S
C738 C737 1.362 . S
C738 C741 1.409 . S
C739 H731 0.930 . S
C739 C740 1.355 . S
C739 C741 1.415 . S
C740 C739 1.355 . S
C740 C742 1.419 . S
C741 C736 1.425 . S
C741 C738 1.409 . S
C741 C739 1.415 . S
C742 H732 0.930 . S
C742 C740 1.419 . S
C742 C743 1.362 . S
C743 H733 0.930 . S
C743 C736 1.409 . S
C743 C742 1.362 . S
H744 C750 0.930 . S
H745 C753 0.930 . S
H746 C754 0.930 . S
H747 C755 0.930 . S
H748 C758 0.930 . S
H749 C759 0.930 . S
C750 H744 0.930 . S
C750 C751 1.355 . S
C750 C752 1.415 . S
C751 C750 1.355 . S
C751 C753 1.419 . S
C752 C750 1.415 . S
C752 C757 1.425 . S
C752 C759 1.409 . S
C753 H745 0.930 . S
C753 C751 1.419 . S
C753 C754 1.362 . S
C754 H746 0.930 . S
C754 C753 1.362 . S
C754 C757 1.409 . S
C755 H747 0.930 . S
C755 C756 1.355 . S
C755 C757 1.415 . S
C756 C755 1.355 . S
C756 C758 1.419 . S
C757 C752 1.425 . S
C757 C754 1.409 . S
C757 C755 1.415 . S
C758 H748 0.930 . S
C758 C756 1.419 . S
C758 C759 1.362 . S
C759 H749 0.930 . S
C759 C752 1.409 . S
C759 C758 1.362 . S
H760 C766 0.930 . S
H761 C769 0.930 . S
H762 C770 0.930 . S
H763 C771 0.930 . S
H764 C774 0.930 . S
H765 C775 0.930 . S
C766 H760 0.930 . S
C766 C767 1.355 . S
C766 C768 1.415 . S
C767 C766 1.355 . S
C767 C769 1.419 . S
C768 C766 1.415 . S
C768 C773 1.425 . S
C768 C775 1.409 . S
C769 H761 0.930 . S
C769 C767 1.419 . S
C769 C770 1.362 . S
C770 H762 0.930 . S
C770 C769 1.362 . S
C770 C773 1.409 . S
C771 H763 0.930 . S
C771 C772 1.355 . S
C771 C773 1.415 . S
C772 C771 1.355 . S
C772 C774 1.419 . S
C773 C768 1.425 . S
C773 C770 1.409 . S
C773 C771 1.415 . S
C774 H764 0.930 . S
C774 C772 1.419 . S
C774 C775 1.362 . S
C775 H765 0.930 . S
C775 C768 1.409 . S
C775 C774 1.362 . S
H776 C782 0.930 . S
H777 C785 0.930 . S
H778 C786 0.930 . S
H779 C787 0.930 . S
H780 C790 0.930 . S
H781 C791 0.930 . S
C782 H776 0.930 . S
C782 C783 1.355 . S
C782 C784 1.415 . S
C783 C782 1.355 . S
C783 C785 1.419 . S
C784 C782 1.415 . S
C784 C789 1.425 . S
C784 C791 1.409 . S
C785 H777 0.930 . S
C785 C783 1.419 . S
C785 C786 1.362 . S
C786 H778 0.930 . S
C786 C785 1.362 . S
C786 C789 1.409 . S
C787 H779 0.930 . S
C787 C788 1.355 . S
C787 C789 1.415 . S
C788 C787 1.355 . S
C788 C790 1.419 . S
C789 C784 1.425 . S
C789 C786 1.409 . S
C789 C787 1.415 . S
C790 H780 0.930 . S
C790 C788 1.419 . S
C790 C791 1.362 . S
C791 H781 0.930 . S
C791 C784 1.409 . S
C791 C790 1.362 . S
H792 C798 0.930 . S
H793 C801 0.930 . S
H794 C802 0.930 . S
H795 C803 0.930 . S
H796 C806 0.930 1_455 S
H797 C807 0.930 . S
C798 H792 0.930 . S
C798 C799 1.355 . S
C798 C800 1.430 . S
C799 C798 1.355 . S
C799 C801 1.419 1_455 S
C800 C798 1.430 . S
C800 C805 1.407 1_455 S
C800 C807 1.412 . S
C801 H793 0.930 . S
C801 C799 1.419 1_655 S
C801 C802 1.362 . S
C802 H794 0.930 . S
C802 C801 1.362 . S
C802 C805 1.409 . S
C803 H795 0.930 . S
C803 C804 1.355 . S
C803 C805 1.415 . S
C804 C803 1.355 . S
C804 C806 1.419 . S
C805 C800 1.407 1_655 S
C805 C802 1.409 . S
C805 C803 1.415 . S
C806 H796 0.930 1_655 S
C806 C804 1.419 . S
C806 C807 1.362 1_655 S
C807 H797 0.930 . S
C807 C800 1.412 . S
C807 C806 1.362 1_455 S
H808 C814 0.930 . S
H809 C817 0.930 . S
H810 C818 0.930 . S
H811 C819 0.930 . S
H812 C822 0.930 . S
H813 C823 0.930 . S
C814 H808 0.930 . S
C814 C815 1.355 . S
C814 C816 1.415 . S
C815 C814 1.355 . S
C815 C817 1.419 . S
C816 C814 1.415 . S
C816 C821 1.425 . S
C816 C823 1.409 . S
C817 H809 0.930 . S
C817 C815 1.419 . S
C817 C818 1.362 . S
C818 H810 0.930 . S
C818 C817 1.362 . S
C818 C821 1.409 . S
C819 H811 0.930 . S
C819 C820 1.355 . S
C819 C821 1.415 . S
C820 C819 1.355 . S
C820 C822 1.419 . S
C821 C816 1.425 . S
C821 C818 1.409 . S
C821 C819 1.415 . S
C822 H812 0.930 . S
C822 C820 1.419 . S
C822 C823 1.362 . S
C823 H813 0.930 . S
C823 C816 1.409 . S
C823 C822 1.362 . S
H824 C830 0.930 . S
H825 C833 0.930 . S
H826 C834 0.930 . S
H827 C835 0.930 . S
H828 C838 0.930 . S
H829 C839 0.930 . S
C830 H824 0.930 . S
C830 C831 1.355 . S
C830 C832 1.415 . S
C831 C830 1.355 . S
C831 C833 1.419 . S
C832 C830 1.415 . S
C832 C837 1.425 . S
C832 C839 1.409 . S
C833 H825 0.930 . S
C833 C831 1.419 . S
C833 C834 1.362 . S
C834 H826 0.930 . S
C834 C833 1.362 . S
C834 C837 1.409 . S
C835 H827 0.930 . S
C835 C836 1.355 . S
C835 C837 1.415 . S
C836 C835 1.355 . S
C836 C838 1.419 . S
C837 C832 1.425 . S
C837 C834 1.409 . S
C837 C835 1.415 . S
C838 H828 0.930 . S
C838 C836 1.419 . S
C838 C839 1.362 . S
C839 H829 0.930 . S
C839 C832 1.409 . S
C839 C838 1.362 . S
H840 C846 0.930 . S
H841 C849 0.930 . S
H842 C850 0.930 . S
H843 C851 0.930 . S
H844 C854 0.930 . S
H845 C855 0.930 . S
C846 H840 0.930 . S
C846 C847 1.355 . S
C846 C848 1.415 1_545 S
C847 C846 1.355 . S
C847 C849 1.419 1_545 S
C848 C846 1.415 1_565 S
C848 C853 1.425 . S
C848 C855 1.409 1_565 S
C849 H841 0.930 . S
C849 C847 1.419 1_565 S
C849 C850 1.362 . S
C850 H842 0.930 . S
C850 C849 1.362 . S
C850 C853 1.409 . S
C851 H843 0.930 . S
C851 C852 1.355 . S
C851 C853 1.415 . S
C852 C851 1.355 . S
C852 C854 1.419 . S
C853 C848 1.425 . S
C853 C850 1.409 . S
C853 C851 1.415 . S
C854 H844 0.930 . S
C854 C852 1.419 . S
C854 C855 1.362 1_565 S
C855 H845 0.930 . S
C855 C848 1.409 1_545 S
C855 C854 1.362 1_545 S
H856 C862 0.930 . S
H857 C865 0.930 . S
H858 C866 0.930 . S
H859 C867 0.930 . S
H860 C870 0.930 . S
H861 C871 0.930 . S
C862 H856 0.930 . S
C862 C863 1.355 . S
C862 C864 1.415 . S
C863 C862 1.355 . S
C863 C865 1.419 . S
C864 C862 1.415 . S
C864 C869 1.425 . S
C864 C871 1.409 . S
C865 H857 0.930 . S
C865 C863 1.419 . S
C865 C866 1.362 . S
C866 H858 0.930 . S
C866 C865 1.362 . S
C866 C869 1.409 . S
C867 H859 0.930 . S
C867 C868 1.355 . S
C867 C869 1.415 . S
C868 C867 1.355 . S
C868 C870 1.419 . S
C869 C864 1.425 . S
C869 C866 1.409 . S
C869 C867 1.415 . S
C870 H860 0.930 . S
C870 C868 1.419 . S
C870 C871 1.362 . S
C871 H861 0.930 . S
C871 C864 1.409 . S
C871 C870 1.362 . S
H872 C878 0.930 . S
H873 C881 0.930 . S
H874 C882 0.930 . S
H875 C883 0.930 . S
H876 C886 0.930 . S
H877 C887 0.930 . S
C878 H872 0.930 . S
C878 C879 1.355 . S
C878 C880 1.415 . S
C879 C878 1.355 . S
C879 C881 1.419 . S
C880 C878 1.415 . S
C880 C885 1.425 . S
C880 C887 1.409 . S
C881 H873 0.930 . S
C881 C879 1.419 . S
C881 C882 1.362 . S
C882 H874 0.930 . S
C882 C881 1.362 . S
C882 C885 1.409 . S
C883 H875 0.930 . S
C883 C884 1.355 . S
C883 C885 1.415 . S
C884 C883 1.355 . S
C884 C886 1.419 . S
C885 C880 1.425 . S
C885 C882 1.409 . S
C885 C883 1.415 . S
C886 H876 0.930 . S
C886 C884 1.419 . S
C886 C887 1.362 . S
C887 H877 0.930 . S
C887 C880 1.409 . S
C887 C886 1.362 . S
H888 C894 0.930 . S
H889 C897 0.930 . S
H890 C898 0.930 . S
H891 C899 0.930 . S
H892 C902 0.930 . S
H893 C903 0.930 . S
C894 H888 0.930 . S
C894 C895 1.355 . S
C894 C896 1.415 . S
C895 C894 1.355 . S
C895 C897 1.419 . S
C896 C894 1.415 . S
C896 C901 1.425 . S
C896 C903 1.409 . S
C897 H889 0.930 . S
C897 C895 1.419 . S
C897 C898 1.362 . S
C898 H890 0.930 . S
C898 C897 1.362 . S
C898 C901 1.409 . S
C899 H891 0.930 . S
C899 C900 1.355 . S
C899 C901 1.415 . S
C900 C899 1.355 . S
C900 C902 1.419 . S
C901 C896 1.425 . S
C901 C898 1.409 . S
C901 C899 1.415 . S
C902 H892 0.930 . S
C902 C900 1.419 . S
C902 C903 1.362 . S
C903 H893 0.930 . S
C903 C896 1.409 . S
C903 C902 1.362 . S
H904 C910 0.930 . S
H905 C913 0.930 . S
H906 C914 0.930 . S
H907 C915 0.930 . S
H908 C918 0.930 . S
H909 C919 0.930 . S
C910 H904 0.930 . S
C910 C911 1.355 . S
C910 C912 1.415 . S
C911 C910 1.355 . S
C911 C913 1.419 . S
C912 C910 1.415 . S
C912 C917 1.425 . S
C912 C919 1.409 . S
C913 H905 0.930 . S
C913 C911 1.419 . S
C913 C914 1.362 . S
C914 H906 0.930 . S
C914 C913 1.362 . S
C914 C917 1.409 . S
C915 H907 0.930 . S
C915 C916 1.355 . S
C915 C917 1.415 . S
C916 C915 1.355 . S
C916 C918 1.419 . S
C917 C912 1.425 . S
C917 C914 1.409 . S
C917 C915 1.415 . S
C918 H908 0.930 . S
C918 C916 1.419 . S
C918 C919 1.362 . S
C919 H909 0.930 . S
C919 C912 1.409 . S
C919 C918 1.362 . S
H920 C926 0.944 . S
H921 C929 0.930 1_545 S
H922 C930 0.930 . S
H923 C931 0.930 . S
H924 C934 0.930 . S
H925 C935 0.930 . S
C926 H920 0.944 . S
C926 C927 1.343 . S
C926 C928 1.413 1_545 S
C927 C926 1.343 . S
C927 C929 1.419 1_545 S
C928 C926 1.413 1_565 S
C928 C933 1.425 . S
C928 C935 1.409 . S
C929 H921 0.930 1_565 S
C929 C927 1.419 1_565 S
C929 C930 1.362 . S
C930 H922 0.930 . S
C930 C929 1.362 . S
C930 C933 1.409 . S
C931 H923 0.930 . S
C931 C932 1.355 . S
C931 C933 1.415 . S
C932 C931 1.355 . S
C932 C934 1.419 . S
C933 C928 1.425 . S
C933 C930 1.409 . S
C933 C931 1.415 . S
C934 H924 0.930 . S
C934 C932 1.419 . S
C934 C935 1.362 . S
C935 H925 0.930 . S
C935 C928 1.409 . S
C935 C934 1.362 . S
H936 C942 0.930 . S
H937 C945 0.930 . S
H938 C946 0.930 . S
H939 C947 0.930 . S
H940 C950 0.930 . S
H941 C951 0.930 . S
C942 H936 0.930 . S
C942 C943 1.355 . S
C942 C944 1.415 . S
C943 C942 1.355 . S
C943 C945 1.419 . S
C944 C942 1.415 . S
C944 C949 1.425 . S
C944 C951 1.409 . S
C945 H937 0.930 . S
C945 C943 1.419 . S
C945 C946 1.362 . S
C946 H938 0.930 . S
C946 C945 1.362 . S
C946 C949 1.409 . S
C947 H939 0.930 . S
C947 C948 1.355 . S
C947 C949 1.415 . S
C948 C947 1.355 . S
C948 C950 1.419 . S
C949 C944 1.425 . S
C949 C946 1.409 . S
C949 C947 1.415 . S
C950 H940 0.930 . S
C950 C948 1.419 . S
C950 C951 1.362 . S
C951 H941 0.930 . S
C951 C944 1.409 . S
C951 C950 1.362 . S
H952 C958 0.930 . S
H953 C961 0.930 . S
H954 C962 0.930 . S
H955 C963 0.930 . S
H956 C966 0.923 1_455 S
H957 C967 0.930 . S
C958 H952 0.930 . S
C958 C959 1.355 . S
C958 C960 1.415 1_455 S
C959 C958 1.355 . S
C959 C961 1.419 1_455 S
C960 C958 1.415 1_655 S
C960 C965 1.425 . S
C960 C967 1.409 1_655 S
C961 H953 0.930 . S
C961 C959 1.419 1_655 S
C961 C962 1.362 . S
C962 H954 0.930 . S
C962 C961 1.362 . S
C962 C965 1.409 . S
C963 H955 0.930 . S
C963 C964 1.355 . S
C963 C965 1.415 . S
C964 C963 1.355 . S
C964 C966 1.419 . S
C965 C960 1.425 . S
C965 C962 1.409 . S
C965 C963 1.415 . S
C966 H956 0.923 1_655 S
C966 C964 1.419 . S
C966 C967 1.362 1_655 S
C967 H957 0.930 . S
C967 C960 1.409 1_455 S
C967 C966 1.362 1_455 S
H968 C974 0.930 . S
H969 C977 0.930 . S
H970 C978 0.930 . S
H971 C979 0.930 . S
H972 C982 0.930 . S
H973 C983 0.930 . S
C974 H968 0.930 . S
C974 C975 1.355 . S
C974 C976 1.415 . S
C975 C974 1.355 . S
C975 C977 1.419 . S
C976 C974 1.415 . S
C976 C981 1.425 . S
C976 C983 1.409 . S
C977 H969 0.930 . S
C977 C975 1.419 . S
C977 C978 1.362 . S
C978 H970 0.930 . S
C978 C977 1.362 . S
C978 C981 1.409 . S
C979 H971 0.930 . S
C979 C980 1.355 . S
C979 C981 1.415 . S
C980 C979 1.355 . S
C980 C982 1.419 . S
C981 C976 1.425 . S
C981 C978 1.409 . S
C981 C979 1.415 . S
C982 H972 0.930 . S
C982 C980 1.419 . S
C982 C983 1.362 . S
C983 H973 0.930 . S
C983 C976 1.409 . S
C983 C982 1.362 . S
H984 C990 0.930 . S
H985 C993 0.930 . S
H986 C994 0.930 . S
H987 C995 0.930 . S
H988 C998 0.930 . S
H989 C999 0.930 . S
C990 H984 0.930 . S
C990 C991 1.355 . S
C990 C992 1.415 . S
C991 C990 1.355 . S
C991 C993 1.419 . S
C992 C990 1.415 . S
C992 C997 1.425 . S
C992 C999 1.409 . S
C993 H985 0.930 . S
C993 C991 1.419 . S
C993 C994 1.362 . S
C994 H986 0.930 . S
C994 C993 1.362 . S
C994 C997 1.409 . S
C995 H987 0.930 . S
C995 C996 1.355 . S
C995 C997 1.415 . S
C996 C995 1.355 . S
C996 C998 1.419 . S
C997 C992 1.425 . S
C997 C994 1.409 . S
C997 C995 1.415 . S
C998 H988 0.930 . S
C998 C996 1.419 . S
C998 C999 1.362 . S
C999 H989 0.930 . S
C999 C992 1.409 . S
C999 C998 1.362 . S
H1000 C1006 0.930 . S
H1001 C1009 0.930 . S
H1002 C1010 0.930 . S
H1003 C1011 0.930 . S
H1004 C1014 0.930 . S
H1005 C1015 0.930 . S
C1006 H1000 0.930 . S
C1006 C1007 1.355 . S
C1006 C1008 1.415 . S
C1007 C1006 1.355 . S
C1007 C1009 1.419 . S
C1008 C1006 1.415 . S
C1008 C1013 1.425 . S
C1008 C1015 1.409 1_545 S
C1009 H1001 0.930 . S
C1009 C1007 1.419 . S
C1009 C1010 1.362 . S
C1010 H1002 0.930 . S
C1010 C1009 1.362 . S
C1010 C1013 1.409 . S
C1011 H1003 0.930 . S
C1011 C1012 1.355 1_545 S
C1011 C1013 1.415 . S
C1012 C1011 1.355 1_565 S
C1012 C1014 1.419 . S
C1013 C1008 1.425 . S
C1013 C1010 1.409 . S
C1013 C1011 1.415 . S
C1014 H1004 0.930 . S
C1014 C1012 1.419 . S
C1014 C1015 1.362 . S
C1015 H1005 0.930 . S
C1015 C1008 1.409 1_565 S
C1015 C1014 1.362 . S
H1016 C1022 0.930 . S
H1017 C1025 0.903 1_655 S
H1018 C1026 0.930 . S
H1019 C1027 0.930 . S
H1020 C1030 0.930 . S
H1021 C1031 0.930 . S
C1022 H1016 0.930 . S
C1022 C1023 1.355 . S
C1022 C1024 1.415 1_655 S
C1023 C1022 1.355 . S
C1023 C1025 1.421 1_655 S
C1024 C1022 1.415 1_455 S
C1024 C1029 1.425 . S
C1024 C1031 1.409 . S
C1025 H1017 0.903 1_455 S
C1025 C1023 1.421 1_455 S
C1025 C1026 1.388 . S
C1026 H1018 0.930 . S
C1026 C1025 1.388 . S
C1026 C1029 1.409 . S
C1027 H1019 0.930 . S
C1027 C1028 1.355 . S
C1027 C1029 1.415 . S
C1028 C1027 1.355 . S
C1028 C1030 1.419 . S
C1029 C1024 1.425 . S
C1029 C1026 1.409 . S
C1029 C1027 1.415 . S
C1030 H1020 0.930 . S
C1030 C1028 1.419 . S
C1030 C1031 1.362 . S
C1031 H1021 0.930 . S
C1031 C1024 1.409 . S
C1031 C1030 1.362 . S
H1032 C1038 0.930 . S
H1033 C1041 0.930 . S
H1034 C1042 0.930 . S
H1035 C1043 0.930 . S
H1036 C1046 0.930 . S
H1037 C1047 0.930 . S
C1038 H1032 0.930 . S
C1038 C1039 1.355 . S
C1038 C1040 1.415 . S
C1039 C1038 1.355 . S
C1039 C1041 1.419 . S
C1040 C1038 1.415 . S
C1040 C1045 1.425 . S
C1040 C1047 1.409 . S
C1041 H1033 0.930 . S
C1041 C1039 1.419 . S
C1041 C1042 1.362 . S
C1042 H1034 0.930 . S
C1042 C1041 1.362 . S
C1042 C1045 1.409 . S
C1043 H1035 0.930 . S
C1043 C1044 1.355 . S
C1043 C1045 1.415 . S
C1044 C1043 1.355 . S
C1044 C1046 1.419 . S
C1045 C1040 1.425 . S
C1045 C1042 1.409 . S
C1045 C1043 1.415 . S
C1046 H1036 0.930 . S
C1046 C1044 1.419 . S
C1046 C1047 1.362 . S
C1047 H1037 0.930 . S
C1047 C1040 1.409 . S
C1047 C1046 1.362 . S
H1048 C1054 0.930 . S
H1049 C1057 0.930 . S
H1050 C1058 0.930 . S
H1051 C1059 0.930 . S
H1052 C1062 0.930 . S
H1053 C1063 0.930 . S
C1054 H1048 0.930 . S
C1054 C1055 1.355 . S
C1054 C1056 1.415 1_565 S
C1055 C1054 1.355 . S
C1055 C1057 1.419 1_565 S
C1056 C1054 1.415 1_545 S
C1056 C1061 1.425 . S
C1056 C1063 1.409 . S
C1057 H1049 0.930 . S
C1057 C1055 1.419 1_545 S
C1057 C1058 1.362 . S
C1058 H1050 0.930 . S
C1058 C1057 1.362 . S
C1058 C1061 1.409 . S
C1059 H1051 0.930 . S
C1059 C1060 1.355 . S
C1059 C1061 1.415 . S
C1060 C1059 1.355 . S
C1060 C1062 1.419 . S
C1061 C1056 1.425 . S
C1061 C1058 1.409 . S
C1061 C1059 1.415 . S
C1062 H1052 0.930 . S
C1062 C1060 1.419 . S
C1062 C1063 1.362 . S
C1063 H1053 0.930 . S
C1063 C1056 1.409 . S
C1063 C1062 1.362 . S
H1064 C1070 0.930 . S
H1065 C1073 0.930 . S
H1066 C1074 0.930 . S
H1067 C1075 0.930 . S
H1068 C1078 0.930 . S
H1069 C1079 0.930 . S
C1070 H1064 0.930 . S
C1070 C1071 1.355 1_455 S
C1070 C1072 1.415 . S
C1071 C1070 1.355 1_655 S
C1071 C1073 1.419 . S
C1072 C1070 1.415 . S
C1072 C1077 1.425 . S
C1072 C1079 1.409 . S
C1073 H1065 0.930 . S
C1073 C1071 1.419 . S
C1073 C1074 1.362 . S
C1074 H1066 0.930 . S
C1074 C1073 1.362 . S
C1074 C1077 1.409 1_655 S
C1075 H1067 0.930 . S
C1075 C1076 1.355 . S
C1075 C1077 1.415 . S
C1076 C1075 1.355 . S
C1076 C1078 1.419 . S
C1077 C1072 1.425 . S
C1077 C1074 1.409 1_455 S
C1077 C1075 1.415 . S
C1078 H1068 0.930 . S
C1078 C1076 1.419 . S
C1078 C1079 1.362 . S
C1079 H1069 0.930 . S
C1079 C1072 1.409 . S
C1079 C1078 1.362 . S
H1080 C1086 0.930 . S
H1081 C1089 0.945 . S
H1082 C1090 0.930 . S
H1083 C1091 0.930 1_655 S
H1084 C1094 0.930 . S
H1085 C1095 0.930 . S
C1086 H1080 0.930 . S
C1086 C1087 1.355 . S
C1086 C1088 1.415 . S
C1087 C1086 1.355 . S
C1087 C1089 1.402 1_455 S
C1088 C1086 1.415 . S
C1088 C1093 1.425 1_554 S
C1088 C1095 1.409 1_554 S
C1089 H1081 0.945 . S
C1089 C1087 1.402 1_655 S
C1089 C1090 1.366 . S
C1090 H1082 0.930 . S
C1090 C1089 1.366 . S
C1090 C1093 1.409 1_654 S
C1091 H1083 0.930 1_455 S
C1091 C1092 1.355 . S
C1091 C1093 1.415 . S
C1092 C1091 1.355 . S
C1092 C1094 1.419 . S
C1093 C1088 1.425 1_556 S
C1093 C1090 1.409 1_456 S
C1093 C1091 1.415 . S
C1094 H1084 0.930 . S
C1094 C1092 1.419 . S
C1094 C1095 1.362 . S
C1095 H1085 0.930 . S
C1095 C1088 1.409 1_556 S
C1095 C1094 1.362 . S
H1096 C1102 0.930 . S
H1097 C1105 0.930 . S
H1098 C1106 0.930 . S
H1099 C1107 0.930 . S
H1100 C1110 0.930 . S
H1101 C1111 0.930 . S
C1102 H1096 0.930 . S
C1102 C1103 1.355 . S
C1102 C1104 1.415 . S
C1103 C1102 1.355 . S
C1103 C1105 1.419 . S
C1104 C1102 1.415 . S
C1104 C1109 1.425 1_556 S
C1104 C1111 1.409 1_556 S
C1105 H1097 0.930 . S
C1105 C1103 1.419 . S
C1105 C1106 1.362 . S
C1106 H1098 0.930 . S
C1106 C1105 1.362 . S
C1106 C1109 1.409 1_556 S
C1107 H1099 0.930 . S
C1107 C1108 1.355 . S
C1107 C1109 1.415 . S
C1108 C1107 1.355 . S
C1108 C1110 1.419 . S
C1109 C1104 1.425 1_554 S
C1109 C1106 1.409 1_554 S
C1109 C1107 1.415 . S
C1110 H1100 0.930 . S
C1110 C1108 1.419 . S
C1110 C1111 1.362 . S
C1111 H1101 0.930 . S
C1111 C1104 1.409 1_554 S
C1111 C1110 1.362 . S
H1112 C1118 0.930 . S
H1113 C1121 0.930 . S
H1114 C1122 0.930 . S
H1115 C1123 0.930 . S
H1116 C1126 0.930 . S
H1117 C1127 0.930 . S
C1118 H1112 0.930 . S
C1118 C1119 1.355 . S
C1118 C1120 1.415 . S
C1119 C1118 1.355 . S
C1119 C1121 1.419 . S
C1120 C1118 1.415 . S
C1120 C1125 1.425 1_556 S
C1120 C1127 1.409 1_556 S
C1121 H1113 0.930 . S
C1121 C1119 1.419 . S
C1121 C1122 1.362 . S
C1122 H1114 0.930 . S
C1122 C1121 1.362 . S
C1122 C1125 1.409 1_556 S
C1123 H1115 0.930 . S
C1123 C1124 1.355 . S
C1123 C1125 1.415 . S
C1124 C1123 1.355 . S
C1124 C1126 1.419 . S
C1125 C1120 1.425 1_554 S
C1125 C1122 1.409 1_554 S
C1125 C1123 1.415 . S
C1126 H1116 0.930 . S
C1126 C1124 1.419 . S
C1126 C1127 1.362 . S
C1127 H1117 0.930 . S
C1127 C1120 1.409 1_554 S
C1127 C1126 1.362 . S
H1128 C1134 0.930 . S
H1129 C1137 0.930 . S
H1130 C1138 0.930 . S
H1131 C1139 0.930 1_655 S
H1132 C1142 0.930 . S
H1133 C1143 0.930 . S
C1134 H1128 0.930 . S
C1134 C1135 1.355 . S
C1134 C1136 1.415 . S
C1135 C1134 1.355 . S
C1135 C1137 1.419 1_455 S
C1136 C1134 1.415 . S
C1136 C1141 1.425 1_556 S
C1136 C1143 1.409 1_556 S
C1137 H1129 0.930 . S
C1137 C1135 1.419 1_655 S
C1137 C1138 1.362 . S
C1138 H1130 0.930 . S
C1138 C1137 1.362 . S
C1138 C1141 1.409 1_656 S
C1139 H1131 0.930 1_455 S
C1139 C1140 1.355 . S
C1139 C1141 1.415 . S
C1140 C1139 1.355 . S
C1140 C1142 1.419 . S
C1141 C1136 1.425 1_554 S
C1141 C1138 1.409 1_454 S
C1141 C1139 1.415 . S
C1142 H1132 0.930 . S
C1142 C1140 1.419 . S
C1142 C1143 1.362 . S
C1143 H1133 0.930 . S
C1143 C1136 1.409 1_554 S
C1143 C1142 1.362 . S
H1144 C1150 0.930 . S
H1145 C1153 0.930 . S
H1146 C1154 0.930 . S
H1147 C1155 0.930 . S
H1148 C1158 0.930 . S
H1149 C1159 0.930 . S
C1150 H1144 0.930 . S
C1150 C1151 1.355 . S
C1150 C1152 1.415 . S
C1151 C1150 1.355 . S
C1151 C1153 1.419 . S
C1152 C1150 1.415 . S
C1152 C1157 1.425 1_554 S
C1152 C1159 1.409 1_554 S
C1153 H1145 0.930 . S
C1153 C1151 1.419 . S
C1153 C1154 1.362 . S
C1154 H1146 0.930 . S
C1154 C1153 1.362 . S
C1154 C1157 1.409 1_554 S
C1155 H1147 0.930 . S
C1155 C1156 1.355 . S
C1155 C1157 1.415 . S
C1156 C1155 1.355 . S
C1156 C1158 1.419 . S
C1157 C1152 1.425 1_556 S
C1157 C1154 1.409 1_556 S
C1157 C1155 1.415 . S
C1158 H1148 0.930 . S
C1158 C1156 1.419 . S
C1158 C1159 1.362 . S
C1159 H1149 0.930 . S
C1159 C1152 1.409 1_556 S
C1159 C1158 1.362 . S
H1160 C1166 0.930 1_565 S
H1161 C1169 0.930 . S
H1162 C1170 0.930 . S
H1163 C1171 0.930 . S
H1164 C1174 0.930 . S
H1165 C1175 0.930 . S
C1166 H1160 0.930 1_545 S
C1166 C1167 1.355 . S
C1166 C1168 1.415 . S
C1167 C1166 1.355 . S
C1167 C1169 1.419 . S
C1168 C1166 1.415 . S
C1168 C1173 1.425 1_556 S
C1168 C1175 1.409 1_546 S
C1169 H1161 0.930 . S
C1169 C1167 1.419 . S
C1169 C1170 1.362 . S
C1170 H1162 0.930 . S
C1170 C1169 1.362 . S
C1170 C1173 1.409 1_556 S
C1171 H1163 0.930 . S
C1171 C1172 1.355 . S
C1171 C1173 1.415 . S
C1172 C1171 1.355 . S
C1172 C1174 1.419 1_545 S
C1173 C1168 1.425 1_554 S
C1173 C1170 1.409 1_554 S
C1173 C1171 1.415 . S
C1174 H1164 0.930 . S
C1174 C1172 1.419 1_565 S
C1174 C1175 1.362 . S
C1175 H1165 0.930 . S
C1175 C1168 1.409 1_564 S
C1175 C1174 1.362 . S
H1176 C1182 0.930 . S
H1177 C1185 0.930 . S
H1178 C1186 0.930 . S
H1179 C1187 0.930 . S
H1180 C1190 0.930 . S
H1181 C1191 0.930 . S
C1182 H1176 0.930 . S
C1182 C1183 1.355 . S
C1182 C1184 1.415 . S
C1183 C1182 1.355 . S
C1183 C1185 1.419 . S
C1184 C1182 1.415 . S
C1184 C1189 1.425 . S
C1184 C1191 1.409 . S
C1185 H1177 0.930 . S
C1185 C1183 1.419 . S
C1185 C1186 1.362 . S
C1186 H1178 0.930 . S
C1186 C1185 1.362 . S
C1186 C1189 1.409 . S
C1187 H1179 0.930 . S
C1187 C1188 1.355 . S
C1187 C1189 1.415 . S
C1188 C1187 1.355 . S
C1188 C1190 1.419 . S
C1189 C1184 1.425 . S
C1189 C1186 1.409 . S
C1189 C1187 1.415 . S
C1190 H1180 0.930 . S
C1190 C1188 1.419 . S
C1190 C1191 1.362 . S
C1191 H1181 0.930 . S
C1191 C1184 1.409 . S
C1191 C1190 1.362 . S
H1192 C1198 0.930 . S
H1193 C1201 0.930 . S
H1194 C1202 0.930 . S
H1195 C1203 0.930 . S
H1196 C1206 0.930 . S
H1197 C1207 0.930 . S
C1198 H1192 0.930 . S
C1198 C1199 1.355 . S
C1198 C1200 1.415 . S
C1199 C1198 1.355 . S
C1199 C1201 1.419 . S
C1200 C1198 1.415 . S
C1200 C1205 1.425 . S
C1200 C1207 1.409 . S
C1201 H1193 0.930 . S
C1201 C1199 1.419 . S
C1201 C1202 1.362 . S
C1202 H1194 0.930 . S
C1202 C1201 1.362 . S
C1202 C1205 1.409 . S
C1203 H1195 0.930 . S
C1203 C1204 1.355 . S
C1203 C1205 1.415 . S
C1204 C1203 1.355 . S
C1204 C1206 1.419 . S
C1205 C1200 1.425 . S
C1205 C1202 1.409 . S
C1205 C1203 1.415 . S
C1206 H1196 0.930 . S
C1206 C1204 1.419 . S
C1206 C1207 1.362 . S
C1207 H1197 0.930 . S
C1207 C1200 1.409 . S
C1207 C1206 1.362 . S
H1208 C1214 0.930 . S
H1209 C1217 0.930 . S
H1210 C1218 0.930 . S
H1211 C1219 0.930 . S
H1212 C1222 0.930 . S
H1213 C1223 0.930 . S
C1214 H1208 0.930 . S
C1214 C1215 1.355 . S
C1214 C1216 1.415 . S
C1215 C1214 1.355 . S
C1215 C1217 1.419 . S
C1216 C1214 1.415 . S
C1216 C1221 1.425 . S
C1216 C1223 1.409 . S
C1217 H1209 0.930 . S
C1217 C1215 1.419 . S
C1217 C1218 1.362 . S
C1218 H1210 0.930 . S
C1218 C1217 1.362 . S
C1218 C1221 1.409 . S
C1219 H1211 0.930 . S
C1219 C1220 1.355 . S
C1219 C1221 1.415 . S
C1220 C1219 1.355 . S
C1220 C1222 1.419 . S
C1221 C1216 1.425 . S
C1221 C1218 1.409 . S
C1221 C1219 1.415 . S
C1222 H1212 0.930 . S
C1222 C1220 1.419 . S
C1222 C1223 1.362 . S
C1223 H1213 0.930 . S
C1223 C1216 1.409 . S
C1223 C1222 1.362 . S
H1224 C1230 0.930 . S
H1225 C1233 0.930 . S
H1226 C1234 0.930 . S
H1227 C1235 0.930 . S
H1228 C1238 0.930 . S
H1229 C1239 0.930 . S
C1230 H1224 0.930 . S
C1230 C1231 1.355 . S
C1230 C1232 1.415 . S
C1231 C1230 1.355 . S
C1231 C1233 1.419 . S
C1232 C1230 1.415 . S
C1232 C1237 1.425 . S
C1232 C1239 1.409 . S
C1233 H1225 0.930 . S
C1233 C1231 1.419 . S
C1233 C1234 1.362 . S
C1234 H1226 0.930 . S
C1234 C1233 1.362 . S
C1234 C1237 1.409 . S
C1235 H1227 0.930 . S
C1235 C1236 1.355 . S
C1235 C1237 1.415 . S
C1236 C1235 1.355 . S
C1236 C1238 1.419 . S
C1237 C1232 1.425 . S
C1237 C1234 1.409 . S
C1237 C1235 1.415 . S
C1238 H1228 0.930 . S
C1238 C1236 1.419 . S
C1238 C1239 1.362 . S
C1239 H1229 0.930 . S
C1239 C1232 1.409 . S
C1239 C1238 1.362 . S
H1240 C1246 0.930 . S
H1241 C1249 0.930 . S
H1242 C1250 0.930 . S
H1243 C1251 0.930 . S
H1244 C1254 0.930 . S
H1245 C1255 0.930 . S
C1246 H1240 0.930 . S
C1246 C1247 1.355 . S
C1246 C1248 1.415 . S
C1247 C1246 1.355 . S
C1247 C1249 1.419 . S
C1248 C1246 1.415 . S
C1248 C1253 1.425 . S
C1248 C1255 1.409 . S
C1249 H1241 0.930 . S
C1249 C1247 1.419 . S
C1249 C1250 1.362 . S
C1250 H1242 0.930 . S
C1250 C1249 1.362 . S
C1250 C1253 1.409 . S
C1251 H1243 0.930 . S
C1251 C1252 1.355 . S
C1251 C1253 1.415 . S
C1252 C1251 1.355 . S
C1252 C1254 1.419 . S
C1253 C1248 1.425 . S
C1253 C1250 1.409 . S
C1253 C1251 1.415 . S
C1254 H1244 0.930 . S
C1254 C1252 1.419 . S
C1254 C1255 1.362 . S
C1255 H1245 0.930 . S
C1255 C1248 1.409 . S
C1255 C1254 1.362 . S
H1256 C1262 0.930 . S
H1257 C1265 0.930 . S
H1258 C1266 0.930 . S
H1259 C1267 0.930 . S
H1260 C1270 0.930 . S
H1261 C1271 0.930 . S
C1262 H1256 0.930 . S
C1262 C1263 1.355 . S
C1262 C1264 1.415 . S
C1263 C1262 1.355 . S
C1263 C1265 1.419 . S
C1264 C1262 1.415 . S
C1264 C1269 1.425 . S
C1264 C1271 1.409 . S
C1265 H1257 0.930 . S
C1265 C1263 1.419 . S
C1265 C1266 1.362 . S
C1266 H1258 0.930 . S
C1266 C1265 1.362 . S
C1266 C1269 1.409 . S
C1267 H1259 0.930 . S
C1267 C1268 1.355 . S
C1267 C1269 1.415 . S
C1268 C1267 1.355 . S
C1268 C1270 1.419 . S
C1269 C1264 1.425 . S
C1269 C1266 1.409 . S
C1269 C1267 1.415 . S
C1270 H1260 0.930 . S
C1270 C1268 1.419 . S
C1270 C1271 1.362 . S
C1271 H1261 0.930 . S
C1271 C1264 1.409 . S
C1271 C1270 1.362 . S
H1272 C1278 0.930 . S
H1273 C1281 0.930 . S
H1274 C1282 0.930 . S
H1275 C1283 0.930 . S
H1276 C1286 0.930 . S
H1277 C1287 0.930 . S
C1278 H1272 0.930 . S
C1278 C1279 1.355 . S
C1278 C1280 1.415 . S
C1279 C1278 1.355 . S
C1279 C1281 1.419 . S
C1280 C1278 1.415 . S
C1280 C1285 1.425 . S
C1280 C1287 1.409 . S
C1281 H1273 0.930 . S
C1281 C1279 1.419 . S
C1281 C1282 1.362 . S
C1282 H1274 0.930 . S
C1282 C1281 1.362 . S
C1282 C1285 1.409 . S
C1283 H1275 0.930 . S
C1283 C1284 1.355 . S
C1283 C1285 1.415 . S
C1284 C1283 1.355 . S
C1284 C1286 1.419 . S
C1285 C1280 1.425 . S
C1285 C1282 1.409 . S
C1285 C1283 1.415 . S
C1286 H1276 0.930 . S
C1286 C1284 1.419 . S
C1286 C1287 1.362 . S
C1287 H1277 0.930 . S
C1287 C1280 1.409 . S
C1287 C1286 1.362 . S
H1288 C1294 0.930 . S
H1289 C1297 0.930 . S
H1290 C1298 0.930 . S
H1291 C1299 0.930 . S
H1292 C1302 0.930 . S
H1293 C1303 0.930 . S
C1294 H1288 0.930 . S
C1294 C1295 1.355 . S
C1294 C1296 1.415 . S
C1295 C1294 1.355 . S
C1295 C1297 1.419 . S
C1296 C1294 1.415 . S
C1296 C1301 1.425 . S
C1296 C1303 1.409 . S
C1297 H1289 0.930 . S
C1297 C1295 1.419 . S
C1297 C1298 1.362 . S
C1298 H1290 0.930 . S
C1298 C1297 1.362 . S
C1298 C1301 1.409 . S
C1299 H1291 0.930 . S
C1299 C1300 1.355 . S
C1299 C1301 1.415 . S
C1300 C1299 1.355 . S
C1300 C1302 1.419 . S
C1301 C1296 1.425 . S
C1301 C1298 1.409 . S
C1301 C1299 1.415 . S
C1302 H1292 0.930 . S
C1302 C1300 1.419 . S
C1302 C1303 1.362 . S
C1303 H1293 0.930 . S
C1303 C1296 1.409 . S
C1303 C1302 1.362 . S
H1304 C1310 0.930 . S
H1305 C1313 0.930 . S
H1306 C1314 0.930 . S
H1307 C1315 0.930 . S
H1308 C1318 0.930 . S
H1309 C1319 0.930 . S
C1310 H1304 0.930 . S
C1310 C1311 1.355 . S
C1310 C1312 1.415 . S
C1311 C1310 1.355 . S
C1311 C1313 1.419 . S
C1312 C1310 1.415 . S
C1312 C1317 1.425 . S
C1312 C1319 1.409 . S
C1313 H1305 0.930 . S
C1313 C1311 1.419 . S
C1313 C1314 1.362 . S
C1314 H1306 0.930 . S
C1314 C1313 1.362 . S
C1314 C1317 1.409 . S
C1315 H1307 0.930 . S
C1315 C1316 1.355 . S
C1315 C1317 1.415 . S
C1316 C1315 1.355 . S
C1316 C1318 1.419 . S
C1317 C1312 1.425 . S
C1317 C1314 1.409 . S
C1317 C1315 1.415 . S
C1318 H1308 0.930 . S
C1318 C1316 1.419 . S
C1318 C1319 1.362 . S
C1319 H1309 0.930 . S
C1319 C1312 1.409 . S
C1319 C1318 1.362 . S
H1320 C1326 0.930 . S
H1321 C1329 0.930 . S
H1322 C1330 0.930 . S
H1323 C1331 0.930 . S
H1324 C1334 0.930 . S
H1325 C1335 0.930 . S
C1326 H1320 0.930 . S
C1326 C1327 1.355 . S
C1326 C1328 1.415 . S
C1327 C1326 1.355 . S
C1327 C1329 1.419 . S
C1328 C1326 1.415 . S
C1328 C1333 1.425 . S
C1328 C1335 1.409 . S
C1329 H1321 0.930 . S
C1329 C1327 1.419 . S
C1329 C1330 1.362 . S
C1330 H1322 0.930 . S
C1330 C1329 1.362 . S
C1330 C1333 1.409 . S
C1331 H1323 0.930 . S
C1331 C1332 1.355 . S
C1331 C1333 1.415 . S
C1332 C1331 1.355 . S
C1332 C1334 1.419 . S
C1333 C1328 1.425 . S
C1333 C1330 1.409 . S
C1333 C1331 1.415 . S
C1334 H1324 0.930 . S
C1334 C1332 1.419 . S
C1334 C1335 1.362 . S
C1335 H1325 0.930 . S
C1335 C1328 1.409 . S
C1335 C1334 1.362 . S
H1336 C1342 0.930 . S
H1337 C1345 0.930 . S
H1338 C1346 0.930 . S
H1339 C1347 0.930 . S
H1340 C1350 0.930 . S
H1341 C1351 0.930 . S
C1342 H1336 0.930 . S
C1342 C1343 1.355 . S
C1342 C1344 1.415 . S
C1343 C1342 1.355 . S
C1343 C1345 1.419 . S
C1344 C1342 1.415 . S
C1344 C1349 1.425 . S
C1344 C1351 1.409 . S
C1345 H1337 0.930 . S
C1345 C1343 1.419 . S
C1345 C1346 1.362 . S
C1346 H1338 0.930 . S
C1346 C1345 1.362 . S
C1346 C1349 1.409 . S
C1347 H1339 0.930 . S
C1347 C1348 1.355 . S
C1347 C1349 1.415 . S
C1348 C1347 1.355 . S
C1348 C1350 1.419 . S
C1349 C1344 1.425 . S
C1349 C1346 1.409 . S
C1349 C1347 1.415 . S
C1350 H1340 0.930 . S
C1350 C1348 1.419 . S
C1350 C1351 1.362 . S
C1351 H1341 0.930 . S
C1351 C1344 1.409 . S
C1351 C1350 1.362 . S
H1352 C1358 0.930 . S
H1353 C1361 0.930 . S
H1354 C1362 0.930 . S
H1355 C1363 0.930 . S
H1356 C1366 0.930 . S
H1357 C1367 0.930 . S
C1358 H1352 0.930 . S
C1358 C1359 1.355 . S
C1358 C1360 1.415 . S
C1359 C1358 1.355 . S
C1359 C1361 1.419 . S
C1360 C1358 1.415 . S
C1360 C1365 1.425 . S
C1360 C1367 1.409 . S
C1361 H1353 0.930 . S
C1361 C1359 1.419 . S
C1361 C1362 1.362 . S
C1362 H1354 0.930 . S
C1362 C1361 1.362 . S
C1362 C1365 1.409 . S
C1363 H1355 0.930 . S
C1363 C1364 1.355 . S
C1363 C1365 1.415 . S
C1364 C1363 1.355 . S
C1364 C1366 1.419 . S
C1365 C1360 1.425 . S
C1365 C1362 1.409 . S
C1365 C1363 1.415 . S
C1366 H1356 0.930 . S
C1366 C1364 1.419 . S
C1366 C1367 1.362 . S
C1367 H1357 0.930 . S
C1367 C1360 1.409 . S
C1367 C1366 1.362 . S
H1368 C1374 0.930 . S
H1369 C1377 0.930 . S
H1370 C1378 0.930 . S
H1371 C1379 0.930 . S
H1372 C1382 0.930 . S
H1373 C1383 0.930 . S
C1374 H1368 0.930 . S
C1374 C1375 1.355 . S
C1374 C1376 1.415 . S
C1375 C1374 1.355 . S
C1375 C1377 1.419 . S
C1376 C1374 1.415 . S
C1376 C1381 1.425 . S
C1376 C1383 1.409 . S
C1377 H1369 0.930 . S
C1377 C1375 1.419 . S
C1377 C1378 1.362 . S
C1378 H1370 0.930 . S
C1378 C1377 1.362 . S
C1378 C1381 1.409 . S
C1379 H1371 0.930 . S
C1379 C1380 1.355 . S
C1379 C1381 1.415 . S
C1380 C1379 1.355 . S
C1380 C1382 1.419 . S
C1381 C1376 1.425 . S
C1381 C1378 1.409 . S
C1381 C1379 1.415 . S
C1382 H1372 0.930 . S
C1382 C1380 1.419 . S
C1382 C1383 1.362 . S
C1383 H1373 0.930 . S
C1383 C1376 1.409 . S
C1383 C1382 1.362 . S
H1384 C1390 0.930 . S
H1385 C1393 0.930 . S
H1386 C1394 0.930 . S
H1387 C1395 0.930 . S
H1388 C1398 0.930 . S
H1389 C1399 0.930 . S
C1390 H1384 0.930 . S
C1390 C1391 1.355 . S
C1390 C1392 1.415 . S
C1391 C1390 1.355 . S
C1391 C1393 1.419 . S
C1392 C1390 1.415 . S
C1392 C1397 1.425 . S
C1392 C1399 1.409 . S
C1393 H1385 0.930 . S
C1393 C1391 1.419 . S
C1393 C1394 1.362 . S
C1394 H1386 0.930 . S
C1394 C1393 1.362 . S
C1394 C1397 1.409 . S
C1395 H1387 0.930 . S
C1395 C1396 1.355 . S
C1395 C1397 1.415 . S
C1396 C1395 1.355 . S
C1396 C1398 1.419 . S
C1397 C1392 1.425 . S
C1397 C1394 1.409 . S
C1397 C1395 1.415 . S
C1398 H1388 0.930 . S
C1398 C1396 1.419 . S
C1398 C1399 1.362 . S
C1399 H1389 0.930 . S
C1399 C1392 1.409 . S
C1399 C1398 1.362 . S
H1400 C1406 0.930 . S
H1401 C1409 0.930 . S
H1402 C1410 0.930 . S
H1403 C1411 0.930 . S
H1404 C1414 0.930 . S
H1405 C1415 0.930 . S
C1406 H1400 0.930 . S
C1406 C1407 1.355 . S
C1406 C1408 1.415 . S
C1407 C1406 1.355 . S
C1407 C1409 1.419 . S
C1408 C1406 1.415 . S
C1408 C1413 1.425 . S
C1408 C1415 1.409 . S
C1409 H1401 0.930 . S
C1409 C1407 1.419 . S
C1409 C1410 1.362 . S
C1410 H1402 0.930 . S
C1410 C1409 1.362 . S
C1410 C1413 1.409 . S
C1411 H1403 0.930 . S
C1411 C1412 1.355 . S
C1411 C1413 1.415 . S
C1412 C1411 1.355 . S
C1412 C1414 1.419 . S
C1413 C1408 1.425 . S
C1413 C1410 1.409 . S
C1413 C1411 1.415 . S
C1414 H1404 0.930 . S
C1414 C1412 1.419 . S
C1414 C1415 1.362 . S
C1415 H1405 0.930 . S
C1415 C1408 1.409 . S
C1415 C1414 1.362 . S
H1416 C1422 0.930 . S
H1417 C1425 0.930 . S
H1418 C1426 0.930 . S
H1419 C1427 0.930 . S
H1420 C1430 0.930 . S
H1421 C1431 0.930 . S
C1422 H1416 0.930 . S
C1422 C1423 1.355 . S
C1422 C1424 1.415 . S
C1423 C1422 1.355 . S
C1423 C1425 1.419 . S
C1424 C1422 1.415 . S
C1424 C1429 1.425 . S
C1424 C1431 1.409 . S
C1425 H1417 0.930 . S
C1425 C1423 1.419 . S
C1425 C1426 1.362 . S
C1426 H1418 0.930 . S
C1426 C1425 1.362 . S
C1426 C1429 1.409 . S
C1427 H1419 0.930 . S
C1427 C1428 1.355 . S
C1427 C1429 1.415 . S
C1428 C1427 1.355 . S
C1428 C1430 1.419 . S
C1429 C1424 1.425 . S
C1429 C1426 1.409 . S
C1429 C1427 1.415 . S
C1430 H1420 0.930 . S
C1430 C1428 1.419 . S
C1430 C1431 1.362 . S
C1431 H1421 0.930 . S
C1431 C1424 1.409 . S
C1431 C1430 1.362 . S
H1432 C1438 0.930 . S
H1433 C1441 0.930 . S
H1434 C1442 0.930 . S
H1435 C1443 0.930 . S
H1436 C1446 0.930 . S
H1437 C1447 0.930 . S
C1438 H1432 0.930 . S
C1438 C1439 1.355 . S
C1438 C1440 1.415 . S
C1439 C1438 1.355 . S
C1439 C1441 1.419 . S
C1440 C1438 1.415 . S
C1440 C1445 1.425 . S
C1440 C1447 1.409 . S
C1441 H1433 0.930 . S
C1441 C1439 1.419 . S
C1441 C1442 1.362 . S
C1442 H1434 0.930 . S
C1442 C1441 1.362 . S
C1442 C1445 1.409 . S
C1443 H1435 0.930 . S
C1443 C1444 1.355 . S
C1443 C1445 1.415 . S
C1444 C1443 1.355 . S
C1444 C1446 1.419 . S
C1445 C1440 1.425 . S
C1445 C1442 1.409 . S
C1445 C1443 1.415 . S
C1446 H1436 0.930 . S
C1446 C1444 1.419 . S
C1446 C1447 1.362 . S
C1447 H1437 0.930 . S
C1447 C1440 1.409 . S
C1447 C1446 1.362 . S
H1448 C1454 0.930 . S
H1449 C1457 0.930 . S
H1450 C1458 0.930 . S
H1451 C1459 0.930 . S
H1452 C1462 0.930 . S
H1453 C1463 0.930 . S
C1454 H1448 0.930 . S
C1454 C1455 1.355 . S
C1454 C1456 1.415 . S
C1455 C1454 1.355 . S
C1455 C1457 1.419 . S
C1456 C1454 1.415 . S
C1456 C1461 1.425 . S
C1456 C1463 1.409 . S
C1457 H1449 0.930 . S
C1457 C1455 1.419 . S
C1457 C1458 1.362 . S
C1458 H1450 0.930 . S
C1458 C1457 1.362 . S
C1458 C1461 1.409 . S
C1459 H1451 0.930 . S
C1459 C1460 1.355 . S
C1459 C1461 1.415 . S
C1460 C1459 1.355 . S
C1460 C1462 1.419 . S
C1461 C1456 1.425 . S
C1461 C1458 1.409 . S
C1461 C1459 1.415 . S
C1462 H1452 0.930 . S
C1462 C1460 1.419 . S
C1462 C1463 1.362 . S
C1463 H1453 0.930 . S
C1463 C1456 1.409 . S
C1463 C1462 1.362 . S
H1464 C1470 0.930 . S
H1465 C1473 0.930 . S
H1466 C1474 0.930 . S
H1467 C1475 0.930 . S
H1468 C1478 0.930 . S
H1469 C1479 0.930 . S
C1470 H1464 0.930 . S
C1470 C1471 1.355 . S
C1470 C1472 1.415 . S
C1471 C1470 1.355 . S
C1471 C1473 1.419 . S
C1472 C1470 1.415 . S
C1472 C1477 1.425 . S
C1472 C1479 1.409 . S
C1473 H1465 0.930 . S
C1473 C1471 1.419 . S
C1473 C1474 1.362 . S
C1474 H1466 0.930 . S
C1474 C1473 1.362 . S
C1474 C1477 1.409 . S
C1475 H1467 0.930 . S
C1475 C1476 1.355 . S
C1475 C1477 1.415 . S
C1476 C1475 1.355 . S
C1476 C1478 1.419 . S
C1477 C1472 1.425 . S
C1477 C1474 1.409 . S
C1477 C1475 1.415 . S
C1478 H1468 0.930 . S
C1478 C1476 1.419 . S
C1478 C1479 1.362 . S
C1479 H1469 0.930 . S
C1479 C1472 1.409 . S
C1479 C1478 1.362 . S
H1480 C1486 0.930 . S
H1481 C1489 0.930 . S
H1482 C1490 0.930 . S
H1483 C1491 0.930 . S
H1484 C1494 0.930 . S
H1485 C1495 0.930 . S
C1486 H1480 0.930 . S
C1486 C1487 1.355 . S
C1486 C1488 1.415 . S
C1487 C1486 1.355 . S
C1487 C1489 1.419 . S
C1488 C1486 1.415 . S
C1488 C1493 1.425 . S
C1488 C1495 1.409 . S
C1489 H1481 0.930 . S
C1489 C1487 1.419 . S
C1489 C1490 1.362 . S
C1490 H1482 0.930 . S
C1490 C1489 1.362 . S
C1490 C1493 1.409 . S
C1491 H1483 0.930 . S
C1491 C1492 1.355 . S
C1491 C1493 1.415 . S
C1492 C1491 1.355 . S
C1492 C1494 1.419 . S
C1493 C1488 1.425 . S
C1493 C1490 1.409 . S
C1493 C1491 1.415 . S
C1494 H1484 0.930 . S
C1494 C1492 1.419 . S
C1494 C1495 1.362 . S
C1495 H1485 0.930 . S
C1495 C1488 1.409 . S
C1495 C1494 1.362 . S
H1496 C1502 0.930 . S
H1497 C1505 0.930 . S
H1498 C1506 0.930 . S
H1499 C1507 0.930 . S
H1500 C1510 0.930 . S
H1501 C1511 0.930 . S
C1502 H1496 0.930 . S
C1502 C1503 1.355 . S
C1502 C1504 1.415 . S
C1503 C1502 1.355 . S
C1503 C1505 1.419 . S
C1504 C1502 1.415 . S
C1504 C1509 1.425 . S
C1504 C1511 1.409 . S
C1505 H1497 0.930 . S
C1505 C1503 1.419 . S
C1505 C1506 1.362 . S
C1506 H1498 0.930 . S
C1506 C1505 1.362 . S
C1506 C1509 1.409 . S
C1507 H1499 0.930 . S
C1507 C1508 1.355 . S
C1507 C1509 1.415 . S
C1508 C1507 1.355 . S
C1508 C1510 1.419 . S
C1509 C1504 1.425 . S
C1509 C1506 1.409 . S
C1509 C1507 1.415 . S
C1510 H1500 0.930 . S
C1510 C1508 1.419 . S
C1510 C1511 1.362 . S
C1511 H1501 0.930 . S
C1511 C1504 1.409 . S
C1511 C1510 1.362 . S
H1512 C1518 0.930 . S
H1513 C1521 0.930 . S
H1514 C1522 0.930 . S
H1515 C1523 0.930 . S
H1516 C1526 0.930 . S
H1517 C1527 0.930 . S
C1518 H1512 0.930 . S
C1518 C1519 1.355 . S
C1518 C1520 1.415 . S
C1519 C1518 1.355 . S
C1519 C1521 1.419 . S
C1520 C1518 1.415 . S
C1520 C1525 1.425 . S
C1520 C1527 1.409 . S
C1521 H1513 0.930 . S
C1521 C1519 1.419 . S
C1521 C1522 1.362 . S
C1522 H1514 0.930 . S
C1522 C1521 1.362 . S
C1522 C1525 1.409 . S
C1523 H1515 0.930 . S
C1523 C1524 1.355 . S
C1523 C1525 1.415 . S
C1524 C1523 1.355 . S
C1524 C1526 1.419 . S
C1525 C1520 1.425 . S
C1525 C1522 1.409 . S
C1525 C1523 1.415 . S
C1526 H1516 0.930 . S
C1526 C1524 1.419 . S
C1526 C1527 1.362 . S
C1527 H1517 0.930 . S
C1527 C1520 1.409 . S
C1527 C1526 1.362 . S
H1528 C1534 0.930 . S
H1529 C1537 0.930 . S
H1530 C1538 0.930 . S
H1531 C1539 0.930 . S
H1532 C1542 0.930 . S
H1533 C1543 0.930 . S
C1534 H1528 0.930 . S
C1534 C1535 1.355 . S
C1534 C1536 1.415 . S
C1535 C1534 1.355 . S
C1535 C1537 1.419 . S
C1536 C1534 1.415 . S
C1536 C1541 1.425 . S
C1536 C1543 1.409 . S
C1537 H1529 0.930 . S
C1537 C1535 1.419 . S
C1537 C1538 1.362 . S
C1538 H1530 0.930 . S
C1538 C1537 1.362 . S
C1538 C1541 1.409 . S
C1539 H1531 0.930 . S
C1539 C1540 1.355 . S
C1539 C1541 1.415 . S
C1540 C1539 1.355 . S
C1540 C1542 1.419 . S
C1541 C1536 1.425 . S
C1541 C1538 1.409 . S
C1541 C1539 1.415 . S
C1542 H1532 0.930 . S
C1542 C1540 1.419 . S
C1542 C1543 1.362 . S
C1543 H1533 0.930 . S
C1543 C1536 1.409 . S
C1543 C1542 1.362 . S
H1544 C1550 0.930 . S
H1545 C1553 0.930 . S
H1546 C1554 0.930 . S
H1547 C1555 0.930 . S
H1548 C1558 0.930 . S
H1549 C1559 0.930 . S
C1550 H1544 0.930 . S
C1550 C1551 1.355 . S
C1550 C1552 1.415 . S
C1551 C1550 1.355 . S
C1551 C1553 1.419 . S
C1552 C1550 1.415 . S
C1552 C1557 1.425 . S
C1552 C1559 1.409 . S
C1553 H1545 0.930 . S
C1553 C1551 1.419 . S
C1553 C1554 1.362 . S
C1554 H1546 0.930 . S
C1554 C1553 1.362 . S
C1554 C1557 1.409 . S
C1555 H1547 0.930 . S
C1555 C1556 1.355 . S
C1555 C1557 1.415 . S
C1556 C1555 1.355 . S
C1556 C1558 1.419 . S
C1557 C1552 1.425 . S
C1557 C1554 1.409 . S
C1557 C1555 1.415 . S
C1558 H1548 0.930 . S
C1558 C1556 1.419 . S
C1558 C1559 1.362 . S
C1559 H1549 0.930 . S
C1559 C1552 1.409 . S
C1559 C1558 1.362 . S
H1560 C1566 0.930 . S
H1561 C1569 0.930 . S
H1562 C1570 0.930 . S
H1563 C1571 0.930 . S
H1564 C1574 0.930 . S
H1565 C1575 0.930 . S
C1566 H1560 0.930 . S
C1566 C1567 1.355 . S
C1566 C1568 1.415 . S
C1567 C1566 1.355 . S
C1567 C1569 1.419 . S
C1568 C1566 1.415 . S
C1568 C1573 1.425 . S
C1568 C1575 1.409 . S
C1569 H1561 0.930 . S
C1569 C1567 1.419 . S
C1569 C1570 1.362 . S
C1570 H1562 0.930 . S
C1570 C1569 1.362 . S
C1570 C1573 1.409 . S
C1571 H1563 0.930 . S
C1571 C1572 1.355 . S
C1571 C1573 1.415 . S
C1572 C1571 1.355 . S
C1572 C1574 1.419 . S
C1573 C1568 1.425 . S
C1573 C1570 1.409 . S
C1573 C1571 1.415 . S
C1574 H1564 0.930 . S
C1574 C1572 1.419 . S
C1574 C1575 1.362 . S
C1575 H1565 0.930 . S
C1575 C1568 1.409 . S
C1575 C1574 1.362 . S
H1576 C1582 0.930 . S
H1577 C1585 0.930 . S
H1578 C1586 0.930 . S
H1579 C1587 0.930 . S
H1580 C1590 0.930 . S
H1581 C1591 0.930 . S
C1582 H1576 0.930 . S
C1582 C1583 1.355 . S
C1582 C1584 1.415 . S
C1583 C1582 1.355 . S
C1583 C1585 1.419 . S
C1584 C1582 1.415 . S
C1584 C1589 1.425 . S
C1584 C1591 1.409 . S
C1585 H1577 0.930 . S
C1585 C1583 1.419 . S
C1585 C1586 1.362 . S
C1586 H1578 0.930 . S
C1586 C1585 1.362 . S
C1586 C1589 1.409 . S
C1587 H1579 0.930 . S
C1587 C1588 1.355 . S
C1587 C1589 1.415 . S
C1588 C1587 1.355 . S
C1588 C1590 1.419 . S
C1589 C1584 1.425 . S
C1589 C1586 1.409 . S
C1589 C1587 1.415 . S
C1590 H1580 0.930 . S
C1590 C1588 1.419 . S
C1590 C1591 1.362 . S
C1591 H1581 0.930 . S
C1591 C1584 1.409 . S
C1591 C1590 1.362 . S
H1592 C1598 0.930 . S
H1593 C1601 0.930 . S
H1594 C1602 0.930 . S
H1595 C1603 0.930 . S
H1596 C1606 0.930 . S
H1597 C1607 0.930 . S
C1598 H1592 0.930 . S
C1598 C1599 1.355 . S
C1598 C1600 1.415 . S
C1599 C1598 1.355 . S
C1599 C1601 1.419 . S
C1600 C1598 1.415 . S
C1600 C1605 1.425 . S
C1600 C1607 1.409 . S
C1601 H1593 0.930 . S
C1601 C1599 1.419 . S
C1601 C1602 1.362 . S
C1602 H1594 0.930 . S
C1602 C1601 1.362 . S
C1602 C1605 1.409 . S
C1603 H1595 0.930 . S
C1603 C1604 1.355 . S
C1603 C1605 1.415 . S
C1604 C1603 1.355 . S
C1604 C1606 1.419 . S
C1605 C1600 1.425 . S
C1605 C1602 1.409 . S
C1605 C1603 1.415 . S
C1606 H1596 0.930 . S
C1606 C1604 1.419 . S
C1606 C1607 1.362 . S
C1607 H1597 0.930 . S
C1607 C1600 1.409 . S
C1607 C1606 1.362 . S
H1608 C1614 0.930 . S
H1609 C1617 0.930 . S
H1610 C1618 0.930 . S
H1611 C1619 0.930 . S
H1612 C1622 0.930 . S
H1613 C1623 0.930 . S
C1614 H1608 0.930 . S
C1614 C1615 1.355 . S
C1614 C1616 1.415 . S
C1615 C1614 1.355 . S
C1615 C1617 1.419 . S
C1616 C1614 1.415 . S
C1616 C1621 1.425 . S
C1616 C1623 1.409 . S
C1617 H1609 0.930 . S
C1617 C1615 1.419 . S
C1617 C1618 1.362 . S
C1618 H1610 0.930 . S
C1618 C1617 1.362 . S
C1618 C1621 1.409 . S
C1619 H1611 0.930 . S
C1619 C1620 1.355 . S
C1619 C1621 1.415 . S
C1620 C1619 1.355 . S
C1620 C1622 1.419 . S
C1621 C1616 1.425 . S
C1621 C1618 1.409 . S
C1621 C1619 1.415 . S
C1622 H1612 0.930 . S
C1622 C1620 1.419 . S
C1622 C1623 1.362 . S
C1623 H1613 0.930 . S
C1623 C1616 1.409 . S
C1623 C1622 1.362 . S
H1624 C1630 0.930 . S
H1625 C1633 0.930 . S
H1626 C1634 0.930 . S
H1627 C1635 0.930 . S
H1628 C1638 0.930 . S
H1629 C1639 0.930 . S
C1630 H1624 0.930 . S
C1630 C1631 1.355 . S
C1630 C1632 1.415 . S
C1631 C1630 1.355 . S
C1631 C1633 1.419 . S
C1632 C1630 1.415 . S
C1632 C1637 1.425 . S
C1632 C1639 1.409 . S
C1633 H1625 0.930 . S
C1633 C1631 1.419 . S
C1633 C1634 1.362 . S
C1634 H1626 0.930 . S
C1634 C1633 1.362 . S
C1634 C1637 1.409 . S
C1635 H1627 0.930 . S
C1635 C1636 1.355 . S
C1635 C1637 1.415 . S
C1636 C1635 1.355 . S
C1636 C1638 1.419 . S
C1637 C1632 1.425 . S
C1637 C1634 1.409 . S
C1637 C1635 1.415 . S
C1638 H1628 0.930 . S
C1638 C1636 1.419 . S
C1638 C1639 1.362 . S
C1639 H1629 0.930 . S
C1639 C1632 1.409 . S
C1639 C1638 1.362 . S
H1640 C1646 0.930 . S
H1641 C1649 0.930 . S
H1642 C1650 0.930 . S
H1643 C1651 0.930 . S
H1644 C1654 0.930 . S
H1645 C1655 0.930 . S
C1646 H1640 0.930 . S
C1646 C1647 1.355 . S
C1646 C1648 1.415 . S
C1647 C1646 1.355 . S
C1647 C1649 1.419 . S
C1648 C1646 1.415 . S
C1648 C1653 1.425 . S
C1648 C1655 1.409 . S
C1649 H1641 0.930 . S
C1649 C1647 1.419 . S
C1649 C1650 1.362 . S
C1650 H1642 0.930 . S
C1650 C1649 1.362 . S
C1650 C1653 1.409 . S
C1651 H1643 0.930 . S
C1651 C1652 1.355 . S
C1651 C1653 1.415 . S
C1652 C1651 1.355 . S
C1652 C1654 1.419 . S
C1653 C1648 1.425 . S
C1653 C1650 1.409 . S
C1653 C1651 1.415 . S
C1654 H1644 0.930 . S
C1654 C1652 1.419 . S
C1654 C1655 1.362 . S
C1655 H1645 0.930 . S
C1655 C1648 1.409 . S
C1655 C1654 1.362 . S
C511 C11 1.211 . S
C516 C165 1.216 . S
C527 C137 1.213 . S
C532 C25 1.214 . S
C543 C151 1.215 . S
C548 C39 1.212 . S
C559 C53 1.220 . S
C564 C109 1.207 . S
C575 C67 1.209 . S
C580 C123 1.218 . S
C591 C81 1.219 . S
C596 C95 1.207 . S
C607 C179 1.207 . S
C612 C333 1.220 . S
C623 C305 1.210 . S
C628 C193 1.216 . S
C639 C207 1.215 . S
C644 C319 1.211 . S
C655 C221 1.221 . S
C660 C277 1.206 . S
C671 C235 1.218 . S
C676 C291 1.209 . S
C687 C249 1.219 . S
C692 C263 1.208 . S
C703 C347 1.219 . S
C708 C501 1.208 . S
C719 C361 1.213 . S
C724 C473 1.214 . S
C735 C487 1.209 . S
C740 C375 1.217 . S
C751 C389 1.210 . S
C756 C445 1.217 . S
C767 C459 1.222 . S
C772 C403 1.205 . S
C783 C431 1.205 . S
C788 C417 1.222 . S
C799 C7 1.076 . S
C804 C217 1.118 . S
C815 C21 1.123 . S
C820 C231 1.117 . S
C831 C35 1.119 . S
C836 C245 1.122 . S
C847 C49 1.097 . S
C852 C343 1.132 . S
C863 C357 1.121 . S
C868 C63 1.077 . S
C879 C371 1.115 . S
C884 C77 1.125 . S
C895 C91 1.077 . S
C900 C469 1.121 . S
C911 C483 1.081 . S
C916 C105 1.127 . S
C927 C119 1.098 . S
C932 C497 1.131 . S
C943 C133 1.075 . S
C948 C259 1.107 . S
C959 C147 1.079 . S
C964 C273 1.125 . S
C975 C161 1.120 . S
C980 C287 1.121 . S
C991 C385 1.120 . S
C996 C175 1.121 . S
C1007 C189 1.124 . S
C1012 C399 1.116 . S
C1023 C203 1.080 . S
C1028 C413 1.126 . S
C1039 C427 1.081 . S
C1044 C301 1.127 . S
C1055 C441 1.112 . S
C1060 C315 1.074 . S
C1071 C329 1.127 . S
C1076 C455 1.111 . S
C1087 C13 1.325 . S
C1092 C69 1.320 . S
C1103 C83 1.349 . S
C1108 C27 1.325 . S
C1119 C55 1.362 . S
C1124 C41 1.391 . S
C1135 C97 1.397 . S
C1140 C153 1.406 . S
C1151 C167 1.330 . S
C1156 C111 1.357 . S
C1167 C125 1.388 . S
C1172 C139 1.405 . S
C1183 C237 1.372 . S
C1188 C181 1.341 . S
C1199 C195 1.373 . S
C1204 C251 1.398 . S
C1215 C209 1.350 . S
C1220 C223 1.381 . S
C1231 C321 1.320 . S
C1236 C265 1.338 . S
C1247 C335 1.397 . S
C1252 C279 1.406 . S
C1263 C307 1.324 . S
C1268 C293 1.320 . S
C1279 C349 1.328 . S
C1284 C405 1.319 . S
C1295 C363 1.369 . S
C1300 C419 1.339 . S
C1311 C377 1.331 . S
C1316 C391 1.319 . S
C1327 C489 1.323 . S
C1332 C433 1.345 . S
C1343 C503 1.348 . S
C1348 C447 1.378 . S
C1359 C475 1.404 . S
C1364 C461 1.402 . S
C1375 C134 1.570 . S
C1380 C8 1.559 . S
C1391 C148 1.544 . S
C1396 C22 1.584 . S
C1407 C36 1.530 . S
C1412 C162 1.598 . S
C1423 C50 1.538 . S
C1428 C92 1.590 . S
C1439 C106 1.531 . S
C1444 C64 1.597 . S
C1455 C78 1.537 . S
C1460 C120 1.591 . S
C1471 C302 1.590 . S
C1476 C176 1.538 . S
C1487 C316 1.550 . S
C1492 C190 1.578 . S
C1503 C204 1.531 . S
C1508 C330 1.596 . S
C1519 C260 1.600 . S
C1524 C218 1.528 . S
C1535 C274 1.600 . S
C1540 C232 1.528 . S
C1551 C288 1.577 . S
C1556 C246 1.552 . S
C1567 C344 1.560 . S
C1572 C470 1.569 . S
C1583 C484 1.599 . S
C1588 C358 1.528 . S
C1599 C372 1.599 . S
C1604 C498 1.528 . S
C1615 C386 1.591 . S
C1620 C428 1.537 . S
C1631 C400 1.585 . S
C1636 C442 1.543 . S
C1647 C456 1.551 . S
C1652 C414 1.578 . S
