# Generated by pormake.
# Topology sxb, (6)-cn, num edge types: 1
# Building blocks:
#     Node 0, Type 0, BuildingBlock: FUNLAD_clean_sbu_0, # of connection points: 6
#     Node 1, Type 0, BuildingBlock: FUNLAD_clean_sbu_0, # of connection points: 6
#     Node 2, Type 0, BuildingBlock: FUNLAD_clean_sbu_0, # of connection points: 6
#     Node 3, Type 0, BuildingBlock: FUNLAD_clean_sbu_0, # of connection points: 6
#     Edge 4, Type (0, 0), BuildingBlock: XIVTED_clean_linker_0, # of connection points: 2
#     Edge 5, Type (0, 0), BuildingBlock: XIVTED_clean_linker_0, # of connection points: 2
#     Edge 6, Type (0, 0), BuildingBlock: XIVTED_clean_linker_0, # of connection points: 2
#     Edge 7, Type (0, 0), BuildingBlock: XIVTED_clean_linker_0, # of connection points: 2
#     Edge 8, Type (0, 0), BuildingBlock: XIVTED_clean_linker_0, # of connection points: 2
#     Edge 9, Type (0, 0), BuildingBlock: XIVTED_clean_linker_0, # of connection points: 2
#     Edge 10, Type (0, 0), BuildingBlock: XIVTED_clean_linker_0, # of connection points: 2
#     Edge 11, Type (0, 0), BuildingBlock: XIVTED_clean_linker_0, # of connection points: 2
#     Edge 12, Type (0, 0), BuildingBlock: XIVTED_clean_linker_0, # of connection points: 2
#     Edge 13, Type (0, 0), BuildingBlock: XIVTED_clean_linker_0, # of connection points: 2
#     Edge 14, Type (0, 0), BuildingBlock: XIVTED_clean_linker_0, # of connection points: 2
#     Edge 15, Type (0, 0), BuildingBlock: XIVTED_clean_linker_0, # of connection points: 2
# Relax obj value: 0.108
# Max RMSD: 0.152
# Mean RMSD: 0.152
data_MOF--net-sxb--node1-FUNLAD_clean_sbu_0--edge1-XIVTED_clean_linker_0
_symmetry_space_group_name_H-M    P1
_symmetry_Int_Tables_number       1
_symmetry_cell_setting            triclinic
loop_
_symmetry_equiv_pos_as_xyz
'x, y, z'
_cell_length_a     15.155001
_cell_length_b     26.945405
_cell_length_c     43.885902
_cell_angle_alpha  90.015479
_cell_angle_beta   91.55597
_cell_angle_gamma 89.992255
loop_
_atom_site_label
_atom_site_type_symbol
_atom_site_fract_x
_atom_site_fract_y
_atom_site_fract_z
_atom_type_partial_charge
C0 C 0.11793 0.02352 0.01748 0.0
N1 N 0.93811 -0.00118 0.94519 0.0
C2 C -0.02292 0.03706 0.93046 0.0
C3 C -0.02249 0.03822 0.89866 0.0
C4 C 0.93692 -0.00021 0.88175 0.0
C5 C 0.89664 0.96094 0.89763 0.0
C6 C 0.89826 0.96112 0.92946 0.0
Zn7 Zn 0.94079 0.99782 0.99177 0.0
C8 C 0.00276 0.90019 0.01643 0.0
N9 N -0.05212 0.99594 0.08906 0.0
C10 C -0.01233 0.03367 0.10478 0.0
C11 C 0.90887 0.95772 0.10381 0.0
C12 C 0.90831 0.95665 0.13561 0.0
C13 C -0.05118 0.99512 0.15251 0.0
C14 C -0.01083 0.03392 0.13661 0.0
Zn15 Zn -0.05476 0.99692 0.04247 0.0
O16 O 0.07432 0.01919 0.99251 0.0
C17 C 0.88346 0.09459 0.01777 0.0
O18 O 0.07875 0.01835 0.0425 0.0
H19 H 0.87752 0.92812 0.09087 0.0
H20 H 0.00847 0.06664 0.94341 0.0
H21 H 0.01831 0.06369 0.09259 0.0
O22 O 0.89734 0.07283 0.99263 0.0
O23 O 0.90147 0.07201 0.04263 0.0
H24 H 0.86764 0.93108 0.94163 0.0
O25 O 0.81173 0.97544 0.04173 0.0
O26 O 0.80724 0.97647 0.99174 0.0
O27 O -0.01101 0.92192 0.0416 0.0
O28 O -0.0156 0.92274 0.9916 0.0
C29 C 0.76809 0.9712 0.01676 0.0
H30 H 0.01056 0.06855 0.88751 0.0
H31 H 0.86338 0.9309 0.88563 0.0
H32 H 0.87521 0.92634 0.14677 0.0
H33 H 0.0224 0.064 0.14859 0.0
C34 C 0.76865 0.02408 0.51634 0.0
N35 N -0.05358 -0.0017 0.58909 0.0
C36 C 0.90679 0.03619 0.60397 0.0
C37 C 0.90533 0.03668 0.63577 0.0
C38 C -0.05445 -0.00204 0.65252 0.0
C39 C -0.01342 0.95953 0.63649 0.0
C40 C -0.01402 0.96036 0.60467 0.0
Zn41 Zn -0.05493 -0.00193 0.54251 0.0
C42 C 0.88398 0.90074 0.51714 0.0
N43 N 0.94077 0.99757 0.44523 0.0
C44 C 0.90141 0.03557 0.42964 0.0
C45 C -0.01996 0.95955 0.43035 0.0
C46 C -0.01871 0.95897 0.39855 0.0
C47 C 0.94122 0.99774 0.38178 0.0
C48 C 0.9006 0.03631 0.39781 0.0
Zn49 Zn 0.94216 0.99783 0.49182 0.0
O50 O 0.81145 0.0193 0.54144 0.0
C51 C 0.00324 0.09516 0.5173 0.0
O52 O 0.80867 0.01938 0.49144 0.0
H53 H 0.01103 0.92973 0.44318 0.0
H54 H 0.87564 0.06597 0.59114 0.0
H55 H 0.87053 0.06541 0.44192 0.0
O56 O -0.01167 0.07312 0.54226 0.0
O57 O -0.01385 0.07289 0.49226 0.0
H58 H 0.01713 0.93061 0.59238 0.0
O59 O 0.07567 0.9763 0.49288 0.0
O60 O 0.07867 0.97681 0.54288 0.0
O61 O 0.8982 0.92278 0.49211 0.0
O62 O 0.90177 0.92302 0.54211 0.0
C63 C 0.11858 0.97181 0.51799 0.0
H64 H 0.87174 0.06673 0.64703 0.0
H65 H 0.01962 0.92929 0.64836 0.0
H66 H 0.01458 0.92882 0.38729 0.0
H67 H 0.86769 0.06659 0.38594 0.0
C68 C 0.62101 0.52547 0.01703 0.0
N69 N 0.44237 0.49885 0.9445 0.0
C70 C 0.51444 0.48184 0.92991 0.0
C71 C 0.51594 0.48161 0.89813 0.0
C72 C 0.442 0.4983 0.881 0.0
C73 C 0.36824 0.51536 0.89674 0.0
C74 C 0.37007 0.51561 0.92859 0.0
Zn75 Zn 0.44399 0.49886 0.99117 0.0
C76 C 0.5067 0.40157 0.01647 0.0
N77 N 0.45027 0.49813 0.08841 0.0
C78 C 0.48973 0.53614 0.10396 0.0
C79 C 0.41098 0.46017 0.1033 0.0
C80 C 0.40976 0.45965 0.13509 0.0
C81 C 0.44988 0.49843 0.15183 0.0
C82 C 0.49057 0.53695 0.13579 0.0
Zn83 Zn 0.44835 0.49834 0.04186 0.0
O84 O 0.57709 0.52173 0.99208 0.0
C85 C 0.38541 0.59558 0.01657 0.0
O86 O 0.58206 0.51964 0.04204 0.0
H87 H 0.37989 0.43035 0.09049 0.0
H88 H 0.57124 0.46852 0.94292 0.0
H89 H 0.52059 0.56595 0.09166 0.0
O90 O 0.39894 0.57357 0.99148 0.0
O91 O 0.40455 0.57344 0.04149 0.0
H92 H 0.31344 0.52904 0.94059 0.0
O93 O 0.3147 0.47699 0.04106 0.0
O94 O 0.31083 0.47616 0.99107 0.0
O95 O 0.49199 0.42332 0.04155 0.0
O96 O 0.489 0.42403 0.99156 0.0
C97 C 0.27134 0.4718 0.01609 0.0
H98 H 0.57504 0.46896 0.8872 0.0
H99 H 0.30909 0.52785 0.88467 0.0
H100 H 0.37642 0.42955 0.14637 0.0
H101 H 0.5235 0.56724 0.14765 0.0
C102 C 0.26805 0.52484 0.51541 0.0
N103 N 0.44557 0.49934 0.58819 0.0
C104 C 0.41703 0.54051 0.60292 0.0
C105 C 0.4165 0.54186 0.63471 0.0
C106 C 0.44443 0.50015 0.65166 0.0
C107 C 0.47332 0.4581 0.63575 0.0
C108 C 0.4739 0.45863 0.60394 0.0
Zn109 Zn 0.44432 0.49849 0.5416 0.0
C110 C 0.38207 0.40119 0.51637 0.0
N111 N 0.44015 0.49709 0.44439 0.0
C112 C 0.40026 0.53472 0.42861 0.0
C113 C 0.47982 0.459 0.42972 0.0
C114 C 0.4809 0.45793 0.39793 0.0
C115 C 0.44024 0.49627 0.38097 0.0
C116 C 0.39928 0.53497 0.39679 0.0
Zn117 Zn 0.44151 0.49791 0.49093 0.0
O118 O 0.31118 0.52095 0.54053 0.0
C119 C 0.50381 0.59519 0.51583 0.0
O120 O 0.30781 0.51919 0.49053 0.0
H121 H 0.51121 0.42948 0.44271 0.0
H122 H 0.39452 0.57246 0.58998 0.0
H123 H 0.36907 0.56463 0.44074 0.0
O124 O 0.49007 0.57321 0.5409 0.0
O125 O 0.485 0.57297 0.49092 0.0
H126 H 0.49644 0.42629 0.5918 0.0
O127 O 0.57521 0.47666 0.49217 0.0
O128 O 0.57751 0.47601 0.54218 0.0
O129 O 0.39809 0.42287 0.49139 0.0
O130 O 0.39854 0.42373 0.54134 0.0
C131 C 0.6178 0.47157 0.51731 0.0
H132 H 0.39511 0.57548 0.64582 0.0
H133 H 0.4941 0.42472 0.64764 0.0
H134 H 0.51446 0.42771 0.38682 0.0
H135 H 0.36594 0.56493 0.38474 0.0
H136 H 0.33638 0.65022 0.06608 0.0
H137 H 0.05258 0.84606 0.96679 0.0
H138 H 0.32057 0.64914 0.96771 0.0
H139 H 0.06571 0.84576 0.06518 0.0
H140 H 0.14889 0.77331 0.96667 0.0
H141 H 0.23972 0.72281 0.06614 0.0
C142 C 0.31357 0.66558 0.04446 0.0
C143 C 0.33692 0.64345 0.01684 0.0
C144 C 0.13029 0.78895 0.98829 0.0
C145 C 0.22473 0.72632 0.01678 0.0
C146 C 0.07472 0.83036 0.9884 0.0
C147 C 0.0508 0.85218 0.01605 0.0
C148 C 0.16259 0.76914 0.01604 0.0
C149 C 0.08213 0.83023 0.0433 0.0
C150 C 0.25778 0.70689 0.04453 0.0
C151 C 0.30469 0.66495 0.98957 0.0
N152 N 0.13665 0.79015 0.0426 0.0
N153 N 0.25003 0.70499 0.99024 0.0
H154 H 0.55948 0.34796 0.96704 0.0
H155 H 0.8317 0.14839 0.0673 0.0
H156 H 0.56631 0.34649 0.06545 0.0
H157 H 0.82398 0.14984 0.9689 0.0
H158 H 0.7369 0.22179 0.06711 0.0
H159 H 0.65458 0.27474 0.96731 0.0
C160 C 0.57999 0.33191 0.98873 0.0
C161 C 0.55458 0.35351 0.01628 0.0
C162 C 0.75635 0.20624 0.04556 0.0
C163 C 0.665 0.26989 0.01673 0.0
C164 C 0.81106 0.16447 0.04564 0.0
C165 C 0.83606 0.14279 0.01806 0.0
C166 C 0.72607 0.22659 0.0177 0.0
C167 C 0.80665 0.16523 0.99072 0.0
C168 C 0.63489 0.29023 0.98886 0.0
C169 C 0.58392 0.33113 0.04365 0.0
N170 N 0.753 0.20568 0.99125 0.0
N171 N 0.63779 0.29075 0.04317 0.0
H172 H 0.05854 0.15053 0.56669 0.0
H173 H 0.32703 0.34564 0.46703 0.0
H174 H 0.05988 0.14864 0.46833 0.0
H175 H 0.32444 0.34815 0.56536 0.0
H176 H 0.23141 0.27265 0.46711 0.0
H177 H 0.15395 0.22363 0.56663 0.0
C178 C 0.07792 0.16581 0.54504 0.0
C179 C 0.05093 0.14329 0.51746 0.0
C180 C 0.25213 0.28897 0.48869 0.0
C181 C 0.16166 0.22674 0.51727 0.0
C182 C 0.30732 0.33052 0.48867 0.0
C183 C 0.33404 0.35318 0.51624 0.0
C184 C 0.22308 0.26983 0.51645 0.0
C185 C 0.30579 0.33195 0.54355 0.0
C186 C 0.13297 0.20742 0.54504 0.0
C187 C 0.07874 0.16473 0.49016 0.0
N188 N 0.25162 0.29167 0.54295 0.0
N189 N 0.13282 0.20504 0.49077 0.0
H190 H 0.8344 0.84593 0.56646 0.0
H191 H 0.55413 0.64956 0.46638 0.0
H192 H 0.82145 0.84679 0.46807 0.0
H193 H 0.56655 0.64926 0.56477 0.0
H194 H 0.65016 0.72243 0.46653 0.0
H195 H 0.73874 0.77296 0.56623 0.0
C196 C 0.81242 0.83044 0.54478 0.0
C197 C 0.83622 0.85265 0.51723 0.0
C198 C 0.63149 0.70661 0.48809 0.0
C199 C 0.72516 0.76932 0.51683 0.0
C200 C 0.57608 0.66514 0.48804 0.0
C201 C 0.55201 0.64314 0.51561 0.0
C202 C 0.66343 0.72632 0.51592 0.0
C203 C 0.5831 0.66493 0.54295 0.0
C204 C 0.75721 0.7889 0.54467 0.0
C205 C 0.80511 0.83095 0.48987 0.0
N206 N 0.63742 0.7051 0.54239 0.0
N207 N 0.75094 0.7907 0.49038 0.0
H208 H 0.2237 0.028 0.96805 0.0
H209 H 0.66231 0.96668 0.06619 0.0
H210 H 0.23355 0.01882 0.06635 0.0
H211 H 0.65246 0.97588 0.96789 0.0
H212 H 0.50417 0.98328 0.0666 0.0
H213 H 0.38183 0.01136 0.96764 0.0
C214 C 0.25937 0.0234 0.98959 0.0
C215 C 0.21519 0.02452 0.01728 0.0
C216 C 0.53646 0.98127 0.04492 0.0
C217 C 0.3958 0.00433 0.01691 0.0
C218 C 0.62664 0.97128 0.04465 0.0
C219 C 0.67083 0.97018 0.01696 0.0
C220 C 0.4902 0.99032 0.01734 0.0
C221 C 0.62118 0.97649 0.98977 0.0
C222 C 0.34954 0.01339 0.98932 0.0
C223 C 0.26483 0.0182 0.04447 0.0
N224 N 0.53361 0.98674 0.99067 0.0
N225 N 0.35239 0.00793 0.04358 0.0
H226 H 0.23253 0.97183 0.56742 0.0
H227 H 0.65477 0.024 0.46687 0.0
H228 H 0.22611 0.97203 0.46895 0.0
H229 H 0.66103 0.02389 0.56534 0.0
H230 H 0.49659 0.00738 0.46718 0.0
H231 H 0.3907 0.98843 0.56709 0.0
C232 C 0.26463 0.97443 0.54572 0.0
C233 C 0.21587 0.97082 0.51817 0.0
C234 C 0.53245 0.0114 0.48872 0.0
C235 C 0.39648 0.99096 0.51765 0.0
C236 C 0.62264 0.02142 0.48857 0.0
C237 C 0.67135 0.02506 0.51613 0.0
C238 C 0.49075 0.0049 0.51663 0.0
C239 C 0.62619 0.02124 0.54354 0.0
C240 C 0.35482 0.98444 0.54555 0.0
C241 C 0.261 0.97466 0.49075 0.0
N242 N 0.53853 0.01093 0.54308 0.0
N243 N 0.34867 0.98496 0.49119 0.0
H244 H 0.72652 0.5293 0.96747 0.0
H245 H 0.16521 0.46697 0.06543 0.0
H246 H 0.73715 0.52086 0.06579 0.0
H247 H 0.15584 0.47738 0.96718 0.0
H248 H 0.00717 0.48392 0.06584 0.0
H249 H 0.88458 0.51237 0.96695 0.0
C250 C 0.76234 0.52484 0.98899 0.0
C251 C 0.71836 0.5263 0.01672 0.0
C252 C 0.03952 0.48209 0.04417 0.0
C253 C 0.89896 0.50571 0.01622 0.0
C254 C 0.12966 0.4719 0.04389 0.0
C255 C 0.17398 0.47096 0.01622 0.0
C256 C -0.00663 0.49152 0.0166 0.0
C257 C 0.12446 0.47774 0.98904 0.0
C258 C 0.85248 0.51465 0.98865 0.0
C259 C 0.76823 0.52003 0.04387 0.0
N260 N 0.03691 0.48817 0.98994 0.0
N261 N 0.85574 0.50957 0.04291 0.0
H262 H 0.15381 0.5242 0.46605 0.0
H263 H 0.73165 0.47253 0.56683 0.0
H264 H 0.16057 0.52486 0.56451 0.0
H265 H 0.72571 0.47118 0.46837 0.0
H266 H 0.88981 0.48939 0.56648 0.0
H267 H -0.00426 0.50733 0.4665 0.0
C268 C 0.12182 0.52174 0.48777 0.0
C269 C 0.17068 0.5257 0.51529 0.0
C270 C 0.85402 0.48499 0.54495 0.0
C271 C -0.00992 0.50523 0.51595 0.0
C272 C 0.76383 0.47482 0.54513 0.0
C273 C 0.71518 0.47069 0.51758 0.0
C274 C 0.8958 0.49115 0.51703 0.0
C275 C 0.76046 0.47421 0.49017 0.0
C276 C 0.03166 0.51157 0.48801 0.0
C277 C 0.12562 0.522 0.54273 0.0
N278 N 0.84809 0.48467 0.4906 0.0
N279 N 0.03798 0.51154 0.54236 0.0
H280 H -0.04049 0.07767 0.34352 0.0
H281 H -0.03468 0.91526 0.19127 0.0
H282 H 0.92561 0.91851 0.34245 0.0
H283 H 0.9317 0.07445 0.19137 0.0
H284 H -0.03762 0.91574 0.24685 0.0
H285 H -0.03932 0.07724 0.28792 0.0
C286 C -0.04834 0.04264 0.33167 0.0
C287 C 0.94225 -0.00195 0.34786 0.0
C288 C -0.04444 0.95055 0.23468 0.0
C289 C -0.05477 0.9973 0.28404 0.0
C290 C -0.04323 0.95032 0.20289 0.0
C291 C -0.05147 0.99489 0.18644 0.0
C292 C -0.05332 0.99569 0.25027 0.0
C293 C 0.93959 0.03924 0.20296 0.0
C294 C -0.04715 0.04243 0.29988 0.0
C295 C 0.93433 0.95374 0.33109 0.0
N296 N 0.93901 0.0385 0.23392 0.0
N297 N 0.93615 0.95449 0.30015 0.0
H298 H 0.92004 0.07973 0.84309 0.0
H299 H 0.9273 0.91786 0.69064 0.0
H300 H -0.04584 0.92058 0.84281 0.0
H301 H -0.03959 0.07707 0.69195 0.0
H302 H 0.92566 0.91808 0.74624 0.0
H303 H 0.92304 0.07944 0.78751 0.0
C304 C 0.9287 0.04473 0.83142 0.0
C305 C 0.9371 0.00011 0.84782 0.0
C306 C 0.93342 0.95295 0.73434 0.0
C307 C 0.93904 -0.00048 0.784 0.0
C308 C 0.93488 0.95286 0.70255 0.0
C309 C -0.05577 0.99752 0.68643 0.0
C310 C 0.9407 -0.00196 0.75023 0.0
C311 C -0.04823 0.04179 0.70326 0.0
C312 C 0.92995 0.0446 0.79964 0.0
C313 C -0.05383 0.95583 0.83125 0.0
N314 N -0.0503 0.04091 0.7342 0.0
N315 N -0.05319 0.95667 0.8003 0.0
H316 H 0.42445 0.41634 0.34225 0.0
H317 H 0.43115 0.57846 0.18999 0.0
H318 H 0.45753 0.57556 0.34215 0.0
H319 H 0.46566 0.41933 0.19118 0.0
H320 H 0.42952 0.57815 0.24559 0.0
H321 H 0.42795 0.41672 0.28669 0.0
C322 C 0.43301 0.45138 0.33063 0.0
C323 C 0.44094 0.49599 0.34706 0.0
C324 C 0.43759 0.54333 0.23366 0.0
C325 C 0.44345 0.49668 0.28326 0.0
C326 C 0.43905 0.54346 0.20188 0.0
C327 C 0.44875 0.49884 0.18573 0.0
C328 C 0.44524 0.49823 0.24951 0.0
C329 C 0.45672 0.45457 0.20252 0.0
C330 C 0.43455 0.45156 0.29885 0.0
C331 C 0.4499 0.54032 0.33055 0.0
N332 N 0.45464 0.4554 0.23345 0.0
N333 N 0.45081 0.53953 0.2996 0.0
H334 H 0.3249 0.54565 0.68875 0.0
H335 H 0.52009 0.43062 0.84317 0.0
H336 H 0.56039 0.45511 0.69243 0.0
H337 H 0.36371 0.5648 0.84091 0.0
H338 H 0.52189 0.43168 0.78763 0.0
H339 H 0.32467 0.54591 0.74435 0.0
C340 C 0.37701 0.52612 0.70111 0.0
C341 C 0.44297 0.50041 0.68562 0.0
C342 C 0.48733 0.46089 0.79937 0.0
C343 C 0.44136 0.49961 0.74944 0.0
C344 C 0.48661 0.46055 0.83114 0.0
C345 C 0.44203 0.49786 0.84702 0.0
C346 C 0.44211 0.49834 0.78318 0.0
C347 C 0.39787 0.5348 0.82985 0.0
C348 C 0.37638 0.52609 0.73291 0.0
C349 C 0.50728 0.47477 0.70315 0.0
N350 N 0.3988 0.534 0.79889 0.0
N351 N 0.50462 0.47487 0.73408 0.0
loop_
_geom_bond_atom_site_label_1
_geom_bond_atom_site_label_2
_geom_bond_distance
_geom_bond_site_symmetry_2
_ccdc_geom_bond_type
C0 O16 1.251 1_554 S
C0 O18 1.254 . S
N1 C2 1.335 1_655 S
N1 C6 1.304 1_545 S
N1 Zn7 2.020 1_545 S
C2 N1 1.335 1_455 S
C2 C3 1.379 . S
C2 H20 0.952 . S
C3 C2 1.379 . S
C3 C4 1.390 1_455 S
C3 H30 0.949 . S
C4 C3 1.390 1_655 S
C4 C5 1.357 1_545 S
C5 C4 1.357 1_565 S
C5 C6 1.370 . S
C5 H31 0.950 . S
C6 N1 1.304 1_565 S
C6 C5 1.370 . S
C6 H24 0.948 . S
Zn7 N1 2.020 1_565 S
Zn7 O16 2.039 1_665 S
Zn7 O22 2.034 1_565 S
Zn7 O26 2.025 . S
Zn7 O28 2.024 1_655 S
C8 O27 1.246 . S
C8 O28 1.249 1_554 S
N9 C10 1.307 1_565 S
N9 C11 1.333 1_455 S
N9 Zn15 2.020 1_565 S
C10 N9 1.307 1_545 S
C10 C14 1.370 . S
C10 H21 0.948 . S
C11 N9 1.333 1_655 S
C11 C12 1.379 . S
C11 H19 0.952 . S
C12 C11 1.379 . S
C12 C13 1.390 1_655 S
C12 H32 0.949 . S
C13 C12 1.390 1_455 S
C13 C14 1.357 1_565 S
C14 C10 1.370 . S
C14 C13 1.357 1_545 S
C14 H33 0.950 . S
Zn15 N9 2.020 1_545 S
Zn15 O18 2.025 . S
Zn15 O23 2.024 1_455 S
Zn15 O25 2.039 1_445 S
Zn15 O27 2.034 1_545 S
O16 C0 1.251 1_556 S
O16 Zn7 2.039 1_445 S
C17 O22 1.246 1_554 S
C17 O23 1.249 . S
O18 C0 1.254 . S
O18 Zn15 2.025 . S
H19 C11 0.952 . S
H20 C2 0.952 . S
H21 C10 0.948 . S
O22 Zn7 2.034 1_545 S
O22 C17 1.246 1_556 S
O23 Zn15 2.024 1_655 S
O23 C17 1.249 . S
H24 C6 0.948 . S
O25 Zn15 2.039 1_665 S
O25 C29 1.251 . S
O26 Zn7 2.025 . S
O26 C29 1.254 1_556 S
O27 C8 1.246 . S
O27 Zn15 2.034 1_565 S
O28 Zn7 2.024 1_455 S
O28 C8 1.249 1_556 S
C29 O25 1.251 . S
C29 O26 1.254 1_554 S
H30 C3 0.949 . S
H31 C5 0.950 . S
H32 C12 0.949 . S
H33 C14 0.950 . S
C34 O50 1.251 . S
C34 O52 1.254 . S
N35 C36 1.335 1_455 S
N35 C40 1.304 1_545 S
N35 Zn41 2.020 1_545 S
C36 N35 1.335 1_655 S
C36 C37 1.379 . S
C36 H54 0.952 . S
C37 C36 1.379 . S
C37 C38 1.390 1_655 S
C37 H64 0.949 . S
C38 C37 1.390 1_455 S
C38 C39 1.357 1_545 S
C39 C38 1.357 1_565 S
C39 C40 1.370 . S
C39 H65 0.950 . S
C40 N35 1.304 1_565 S
C40 C39 1.370 . S
C40 H58 0.948 . S
Zn41 N35 2.020 1_565 S
Zn41 O50 2.039 1_465 S
Zn41 O56 2.034 1_565 S
Zn41 O60 2.025 . S
Zn41 O62 2.024 1_455 S
C42 O61 1.246 . S
C42 O62 1.249 . S
N43 C44 1.307 1_565 S
N43 C45 1.333 1_655 S
N43 Zn49 2.020 1_565 S
C44 N43 1.307 1_545 S
C44 C48 1.370 . S
C44 H55 0.948 . S
C45 N43 1.333 1_455 S
C45 C46 1.379 . S
C45 H53 0.952 . S
C46 C45 1.379 . S
C46 C47 1.390 1_455 S
C46 H66 0.949 . S
C47 C46 1.390 1_655 S
C47 C48 1.357 1_565 S
C48 C44 1.370 . S
C48 C47 1.357 1_545 S
C48 H67 0.950 . S
Zn49 N43 2.020 1_545 S
Zn49 O52 2.025 . S
Zn49 O57 2.024 1_655 S
Zn49 O59 2.039 1_645 S
Zn49 O61 2.034 1_545 S
O50 C34 1.251 . S
O50 Zn41 2.039 1_645 S
C51 O56 1.246 . S
C51 O57 1.249 . S
O52 C34 1.254 . S
O52 Zn49 2.025 . S
H53 C45 0.952 . S
H54 C36 0.952 . S
H55 C44 0.948 . S
O56 Zn41 2.034 1_545 S
O56 C51 1.246 . S
O57 Zn49 2.024 1_455 S
O57 C51 1.249 . S
H58 C40 0.948 . S
O59 Zn49 2.039 1_465 S
O59 C63 1.251 . S
O60 Zn41 2.025 . S
O60 C63 1.254 . S
O61 C42 1.246 . S
O61 Zn49 2.034 1_565 S
O62 Zn41 2.024 1_655 S
O62 C42 1.249 . S
C63 O59 1.251 . S
C63 O60 1.254 . S
H64 C37 0.949 . S
H65 C39 0.950 . S
H66 C46 0.949 . S
H67 C48 0.950 . S
C68 O84 1.251 1_554 S
C68 O86 1.254 . S
N69 C70 1.333 . S
N69 C74 1.307 . S
N69 Zn75 2.020 . S
C70 N69 1.333 . S
C70 C71 1.379 . S
C70 H88 0.952 . S
C71 C70 1.379 . S
C71 C72 1.390 . S
C71 H98 0.949 . S
C72 C71 1.390 . S
C72 C73 1.357 . S
C73 C72 1.357 . S
C73 C74 1.370 . S
C73 H99 0.950 . S
C74 N69 1.307 . S
C74 C73 1.370 . S
C74 H92 0.948 . S
Zn75 N69 2.020 . S
Zn75 O84 2.039 . S
Zn75 O90 2.034 . S
Zn75 O94 2.025 . S
Zn75 O96 2.024 . S
C76 O95 1.246 . S
C76 O96 1.249 1_554 S
N77 C78 1.307 . S
N77 C79 1.333 . S
N77 Zn83 2.020 . S
C78 N77 1.307 . S
C78 C82 1.370 . S
C78 H89 0.948 . S
C79 N77 1.333 . S
C79 C80 1.379 . S
C79 H87 0.952 . S
C80 C79 1.379 . S
C80 C81 1.390 . S
C80 H100 0.949 . S
C81 C80 1.390 . S
C81 C82 1.357 . S
C82 C78 1.370 . S
C82 C81 1.357 . S
C82 H101 0.950 . S
Zn83 N77 2.020 . S
Zn83 O86 2.025 . S
Zn83 O91 2.024 . S
Zn83 O93 2.039 . S
Zn83 O95 2.034 . S
O84 C68 1.251 1_556 S
O84 Zn75 2.039 . S
C85 O90 1.246 1_554 S
C85 O91 1.249 . S
O86 C68 1.254 . S
O86 Zn83 2.025 . S
H87 C79 0.952 . S
H88 C70 0.952 . S
H89 C78 0.948 . S
O90 Zn75 2.034 . S
O90 C85 1.246 1_556 S
O91 Zn83 2.024 . S
O91 C85 1.249 . S
H92 C74 0.948 . S
O93 Zn83 2.039 . S
O93 C97 1.251 . S
O94 Zn75 2.025 . S
O94 C97 1.254 1_556 S
O95 C76 1.246 . S
O95 Zn83 2.034 . S
O96 Zn75 2.024 . S
O96 C76 1.249 1_556 S
C97 O93 1.251 . S
C97 O94 1.254 1_554 S
H98 C71 0.949 . S
H99 C73 0.950 . S
H100 C80 0.949 . S
H101 C82 0.950 . S
C102 O118 1.251 . S
C102 O120 1.254 . S
N103 C104 1.333 . S
N103 C108 1.307 . S
N103 Zn109 2.020 . S
C104 N103 1.333 . S
C104 C105 1.379 . S
C104 H122 0.952 . S
C105 C104 1.379 . S
C105 C106 1.390 . S
C105 H132 0.949 . S
C106 C105 1.390 . S
C106 C107 1.357 . S
C107 C106 1.357 . S
C107 C108 1.370 . S
C107 H133 0.950 . S
C108 N103 1.307 . S
C108 C107 1.370 . S
C108 H126 0.948 . S
Zn109 N103 2.020 . S
Zn109 O118 2.039 . S
Zn109 O124 2.034 . S
Zn109 O128 2.025 . S
Zn109 O130 2.024 . S
C110 O129 1.246 . S
C110 O130 1.249 . S
N111 C112 1.307 . S
N111 C113 1.333 . S
N111 Zn117 2.020 . S
C112 N111 1.307 . S
C112 C116 1.370 . S
C112 H123 0.948 . S
C113 N111 1.333 . S
C113 C114 1.379 . S
C113 H121 0.952 . S
C114 C113 1.379 . S
C114 C115 1.390 . S
C114 H134 0.949 . S
C115 C114 1.390 . S
C115 C116 1.357 . S
C116 C112 1.370 . S
C116 C115 1.357 . S
C116 H135 0.950 . S
Zn117 N111 2.020 . S
Zn117 O120 2.025 . S
Zn117 O125 2.024 . S
Zn117 O127 2.039 . S
Zn117 O129 2.034 . S
O118 C102 1.251 . S
O118 Zn109 2.039 . S
C119 O124 1.246 . S
C119 O125 1.249 . S
O120 C102 1.254 . S
O120 Zn117 2.025 . S
H121 C113 0.952 . S
H122 C104 0.952 . S
H123 C112 0.948 . S
O124 Zn109 2.034 . S
O124 C119 1.246 . S
O125 Zn117 2.024 . S
O125 C119 1.249 . S
H126 C108 0.948 . S
O127 Zn117 2.039 . S
O127 C131 1.251 . S
O128 Zn109 2.025 . S
O128 C131 1.254 . S
O129 C110 1.246 . S
O129 Zn117 2.034 . S
O130 Zn109 2.024 . S
O130 C110 1.249 . S
C131 O127 1.251 . S
C131 O128 1.254 . S
H132 C105 0.949 . S
H133 C107 0.950 . S
H134 C114 0.949 . S
H135 C116 0.950 . S
H136 C142 0.930 . S
H137 C146 0.930 . S
H138 C151 0.929 . S
H139 C149 0.929 . S
H140 C144 0.929 . S
H141 C150 0.929 . S
C142 H136 0.930 . S
C142 C143 1.367 . S
C142 C150 1.378 . S
C143 C142 1.367 . S
C143 C151 1.433 1_554 S
C144 H140 0.929 . S
C144 C146 1.378 . S
C144 C148 1.350 1_556 S
C145 C148 1.463 . S
C145 C150 1.350 . S
C145 N153 1.427 1_554 S
C146 H137 0.930 . S
C146 C144 1.378 . S
C146 C147 1.367 1_556 S
C147 C146 1.367 1_554 S
C147 C149 1.433 . S
C148 C144 1.350 1_554 S
C148 C145 1.463 . S
C148 N152 1.427 . S
C149 H139 0.929 . S
C149 C147 1.433 . S
C149 N152 1.384 . S
C150 H141 0.929 . S
C150 C142 1.378 . S
C150 C145 1.350 . S
C151 H138 0.929 . S
C151 C143 1.433 1_556 S
C151 N153 1.384 . S
N152 C148 1.427 . S
N152 C149 1.384 . S
N153 C145 1.427 1_556 S
N153 C151 1.384 . S
H154 C160 0.930 . S
H155 C164 0.930 . S
H156 C169 0.929 . S
H157 C167 0.929 . S
H158 C162 0.929 . S
H159 C168 0.929 . S
C160 H154 0.930 . S
C160 C161 1.367 1_556 S
C160 C168 1.378 . S
C161 C160 1.367 1_554 S
C161 C169 1.433 . S
C162 H158 0.929 . S
C162 C164 1.378 . S
C162 C166 1.350 . S
C163 C166 1.463 . S
C163 C168 1.350 1_554 S
C163 N171 1.427 . S
C164 H155 0.930 . S
C164 C162 1.378 . S
C164 C165 1.367 . S
C165 C164 1.367 . S
C165 C167 1.433 1_554 S
C166 C162 1.350 . S
C166 C163 1.463 . S
C166 N170 1.427 1_554 S
C167 H157 0.929 . S
C167 C165 1.433 1_556 S
C167 N170 1.384 . S
C168 H159 0.929 . S
C168 C160 1.378 . S
C168 C163 1.350 1_556 S
C169 H156 0.929 . S
C169 C161 1.433 . S
C169 N171 1.384 . S
N170 C166 1.427 1_556 S
N170 C167 1.384 . S
N171 C163 1.427 . S
N171 C169 1.384 . S
H172 C178 0.930 . S
H173 C182 0.930 . S
H174 C187 0.929 . S
H175 C185 0.929 . S
H176 C180 0.929 . S
H177 C186 0.929 . S
C178 H172 0.930 . S
C178 C179 1.367 . S
C178 C186 1.378 . S
C179 C178 1.367 . S
C179 C187 1.433 . S
C180 H176 0.929 . S
C180 C182 1.378 . S
C180 C184 1.350 . S
C181 C184 1.463 . S
C181 C186 1.350 . S
C181 N189 1.427 . S
C182 H173 0.930 . S
C182 C180 1.378 . S
C182 C183 1.367 . S
C183 C182 1.367 . S
C183 C185 1.433 . S
C184 C180 1.350 . S
C184 C181 1.463 . S
C184 N188 1.427 . S
C185 H175 0.929 . S
C185 C183 1.433 . S
C185 N188 1.384 . S
C186 H177 0.929 . S
C186 C178 1.378 . S
C186 C181 1.350 . S
C187 H174 0.929 . S
C187 C179 1.433 . S
C187 N189 1.384 . S
N188 C184 1.427 . S
N188 C185 1.384 . S
N189 C181 1.427 . S
N189 C187 1.384 . S
H190 C196 0.930 . S
H191 C200 0.930 . S
H192 C205 0.929 . S
H193 C203 0.929 . S
H194 C198 0.929 . S
H195 C204 0.929 . S
C196 H190 0.930 . S
C196 C197 1.367 . S
C196 C204 1.378 . S
C197 C196 1.367 . S
C197 C205 1.433 . S
C198 H194 0.929 . S
C198 C200 1.378 . S
C198 C202 1.350 . S
C199 C202 1.463 . S
C199 C204 1.350 . S
C199 N207 1.427 . S
C200 H191 0.930 . S
C200 C198 1.378 . S
C200 C201 1.367 . S
C201 C200 1.367 . S
C201 C203 1.433 . S
C202 C198 1.350 . S
C202 C199 1.463 . S
C202 N206 1.427 . S
C203 H193 0.929 . S
C203 C201 1.433 . S
C203 N206 1.384 . S
C204 H195 0.929 . S
C204 C196 1.378 . S
C204 C199 1.350 . S
C205 H192 0.929 . S
C205 C197 1.433 . S
C205 N207 1.384 . S
N206 C202 1.427 . S
N206 C203 1.384 . S
N207 C199 1.427 . S
N207 C205 1.384 . S
H208 C214 0.930 . S
H209 C218 0.930 . S
H210 C223 0.929 . S
H211 C221 0.929 . S
H212 C216 0.929 . S
H213 C222 0.929 . S
C214 H208 0.930 . S
C214 C215 1.367 1_566 S
C214 C222 1.378 . S
C215 C214 1.367 1_544 S
C215 C223 1.433 . S
C216 H212 0.929 . S
C216 C218 1.378 . S
C216 C220 1.350 1_545 S
C217 C220 1.463 1_545 S
C217 C222 1.350 1_544 S
C217 N225 1.427 . S
C218 H209 0.930 . S
C218 C216 1.378 . S
C218 C219 1.367 1_545 S
C219 C218 1.367 1_565 S
C219 C221 1.433 1_554 S
C220 C216 1.350 1_565 S
C220 C217 1.463 1_565 S
C220 N224 1.427 1_554 S
C221 H211 0.929 . S
C221 C219 1.433 1_556 S
C221 N224 1.384 . S
C222 H213 0.929 . S
C222 C214 1.378 . S
C222 C217 1.350 1_566 S
C223 H210 0.929 . S
C223 C215 1.433 . S
C223 N225 1.384 . S
N224 C220 1.427 1_556 S
N224 C221 1.384 . S
N225 C217 1.427 . S
N225 C223 1.384 . S
H226 C232 0.930 . S
H227 C236 0.930 . S
H228 C241 0.929 . S
H229 C239 0.929 . S
H230 C234 0.929 . S
H231 C240 0.929 . S
C232 H226 0.930 . S
C232 C233 1.367 . S
C232 C240 1.378 . S
C233 C232 1.367 . S
C233 C241 1.433 1_565 S
C234 H230 0.929 . S
C234 C236 1.378 . S
C234 C238 1.350 . S
C235 C238 1.463 1_565 S
C235 C240 1.350 . S
C235 N243 1.427 1_565 S
C236 H227 0.930 . S
C236 C234 1.378 . S
C236 C237 1.367 . S
C237 C236 1.367 . S
C237 C239 1.433 1_545 S
C238 C234 1.350 . S
C238 C235 1.463 1_545 S
C238 N242 1.427 1_545 S
C239 H229 0.929 . S
C239 C237 1.433 1_565 S
C239 N242 1.384 . S
C240 H231 0.929 . S
C240 C232 1.378 . S
C240 C235 1.350 . S
C241 H228 0.929 . S
C241 C233 1.433 1_545 S
C241 N243 1.384 . S
N242 C238 1.427 1_565 S
N242 C239 1.384 . S
N243 C235 1.427 1_545 S
N243 C241 1.384 . S
H244 C250 0.930 . S
H245 C254 0.930 . S
H246 C259 0.929 . S
H247 C257 0.929 . S
H248 C252 0.929 . S
H249 C258 0.929 . S
C250 H244 0.930 . S
C250 C251 1.367 1_556 S
C250 C258 1.378 . S
C251 C250 1.367 1_554 S
C251 C259 1.433 . S
C252 H248 0.929 . S
C252 C254 1.378 . S
C252 C256 1.350 . S
C253 C256 1.463 1_655 S
C253 C258 1.350 1_554 S
C253 N261 1.427 . S
C254 H245 0.930 . S
C254 C252 1.378 . S
C254 C255 1.367 . S
C255 C254 1.367 . S
C255 C257 1.433 1_554 S
C256 C252 1.350 . S
C256 C253 1.463 1_455 S
C256 N260 1.427 1_554 S
C257 H247 0.929 . S
C257 C255 1.433 1_556 S
C257 N260 1.384 . S
C258 H249 0.929 . S
C258 C250 1.378 . S
C258 C253 1.350 1_556 S
C259 H246 0.929 . S
C259 C251 1.433 . S
C259 N261 1.384 . S
N260 C256 1.427 1_556 S
N260 C257 1.384 . S
N261 C253 1.427 . S
N261 C259 1.384 . S
H262 C268 0.930 . S
H263 C272 0.930 . S
H264 C277 0.929 . S
H265 C275 0.929 . S
H266 C270 0.929 . S
H267 C276 0.929 . S
C268 H262 0.930 . S
C268 C269 1.367 . S
C268 C276 1.378 . S
C269 C268 1.367 . S
C269 C277 1.433 . S
C270 H266 0.929 . S
C270 C272 1.378 . S
C270 C274 1.350 . S
C271 C274 1.463 1_455 S
C271 C276 1.350 . S
C271 N279 1.427 . S
C272 H263 0.930 . S
C272 C270 1.378 . S
C272 C273 1.367 . S
C273 C272 1.367 . S
C273 C275 1.433 . S
C274 C270 1.350 . S
C274 C271 1.463 1_655 S
C274 N278 1.427 . S
C275 H265 0.929 . S
C275 C273 1.433 . S
C275 N278 1.384 . S
C276 H267 0.929 . S
C276 C268 1.378 . S
C276 C271 1.350 . S
C277 H264 0.929 . S
C277 C269 1.433 . S
C277 N279 1.384 . S
N278 C274 1.427 . S
N278 C275 1.384 . S
N279 C271 1.427 . S
N279 C277 1.384 . S
H280 C286 0.930 . S
H281 C290 0.930 . S
H282 C295 0.929 . S
H283 C293 0.929 . S
H284 C288 0.929 . S
H285 C294 0.929 . S
C286 H280 0.930 . S
C286 C287 1.367 1_545 S
C286 C294 1.378 . S
C287 C286 1.367 1_565 S
C287 C295 1.433 1_455 S
C288 H284 0.929 . S
C288 C290 1.378 . S
C288 C292 1.350 . S
C289 C292 1.463 1_455 S
C289 C294 1.350 1_565 S
C289 N297 1.427 1_455 S
C290 H281 0.930 . S
C290 C288 1.378 . S
C290 C291 1.367 . S
C291 C290 1.367 . S
C291 C293 1.433 1_665 S
C292 C288 1.350 . S
C292 C289 1.463 1_655 S
C292 N296 1.427 1_665 S
C293 H283 0.929 . S
C293 C291 1.433 1_445 S
C293 N296 1.384 . S
C294 H285 0.929 . S
C294 C286 1.378 . S
C294 C289 1.350 1_545 S
C295 H282 0.929 . S
C295 C287 1.433 1_655 S
C295 N297 1.384 . S
N296 C292 1.427 1_445 S
N296 C293 1.384 . S
N297 C289 1.427 1_655 S
N297 C295 1.384 . S
H298 C304 0.930 . S
H299 C308 0.930 . S
H300 C313 0.929 . S
H301 C311 0.929 . S
H302 C306 0.928 . S
H303 C312 0.928 . S
C304 H298 0.930 . S
C304 C305 1.367 1_655 S
C304 C312 1.378 . S
C305 C304 1.367 1_455 S
C305 C313 1.433 1_545 S
C306 H302 0.928 . S
C306 C308 1.378 . S
C306 C310 1.350 1_465 S
C307 C310 1.463 1_455 S
C307 C312 1.350 1_455 S
C307 N315 1.427 1_545 S
C308 H299 0.930 . S
C308 C306 1.378 . S
C308 C309 1.367 1_465 S
C309 C308 1.367 1_645 S
C309 C311 1.433 . S
C310 C306 1.350 1_645 S
C310 C307 1.463 1_655 S
C310 N314 1.427 . S
C311 H301 0.929 . S
C311 C309 1.433 . S
C311 N314 1.384 . S
C312 H303 0.928 . S
C312 C304 1.378 . S
C312 C307 1.350 1_655 S
C313 H300 0.929 . S
C313 C305 1.433 1_565 S
C313 N315 1.384 . S
N314 C310 1.427 . S
N314 C311 1.384 . S
N315 C307 1.427 1_565 S
N315 C313 1.384 . S
H316 C322 0.930 . S
H317 C326 0.930 . S
H318 C331 0.929 . S
H319 C329 0.929 . S
H320 C324 0.929 . S
H321 C330 0.929 . S
C322 H316 0.930 . S
C322 C323 1.367 . S
C322 C330 1.378 . S
C323 C322 1.367 . S
C323 C331 1.433 . S
C324 H320 0.929 . S
C324 C326 1.378 . S
C324 C328 1.350 . S
C325 C328 1.463 . S
C325 C330 1.350 . S
C325 N333 1.427 . S
C326 H317 0.930 . S
C326 C324 1.378 . S
C326 C327 1.367 . S
C327 C326 1.367 . S
C327 C329 1.433 . S
C328 C324 1.350 . S
C328 C325 1.463 . S
C328 N332 1.427 . S
C329 H319 0.929 . S
C329 C327 1.433 . S
C329 N332 1.384 . S
C330 H321 0.929 . S
C330 C322 1.378 . S
C330 C325 1.350 . S
C331 H318 0.929 . S
C331 C323 1.433 . S
C331 N333 1.384 . S
N332 C328 1.427 . S
N332 C329 1.384 . S
N333 C325 1.427 . S
N333 C331 1.384 . S
H334 C340 0.930 . S
H335 C344 0.930 . S
H336 C349 0.929 . S
H337 C347 0.929 . S
H338 C342 0.929 . S
H339 C348 0.929 . S
C340 H334 0.930 . S
C340 C341 1.367 . S
C340 C348 1.378 . S
C341 C340 1.367 . S
C341 C349 1.433 . S
C342 H338 0.929 . S
C342 C344 1.378 . S
C342 C346 1.350 . S
C343 C346 1.463 . S
C343 C348 1.350 . S
C343 N351 1.427 . S
C344 H335 0.930 . S
C344 C342 1.378 . S
C344 C345 1.367 . S
C345 C344 1.367 . S
C345 C347 1.433 . S
C346 C342 1.350 . S
C346 C343 1.463 . S
C346 N350 1.427 . S
C347 H337 0.929 . S
C347 C345 1.433 . S
C347 N350 1.384 . S
C348 H339 0.929 . S
C348 C340 1.378 . S
C348 C343 1.350 . S
C349 H336 0.929 . S
C349 C341 1.433 . S
C349 N351 1.384 . S
N350 C346 1.427 . S
N350 C347 1.384 . S
N351 C343 1.427 . S
N351 C349 1.384 . S
C143 C85 1.590 . S
C147 C8 1.592 . S
C161 C76 1.589 . S
C165 C17 1.588 . S
C179 C51 1.591 . S
C183 C110 1.589 . S
C197 C42 1.589 . S
C201 C119 1.591 . S
C215 C0 0.793 . S
C219 C29 0.793 . S
C233 C63 0.803 . S
C237 C34 0.803 . S
C251 C68 0.804 . S
C255 C97 0.804 . S
C269 C102 0.796 . S
C273 C131 0.796 . S
C287 C47 1.499 1_455 S
C291 C13 1.500 1_655 S
C305 C4 1.499 1_455 S
C309 C38 1.498 1_655 S
C323 C115 1.498 . S
C327 C81 1.498 . S
C341 C106 1.500 . S
C345 C72 1.500 . S
