# Generated by pormake.
# Topology snx, (6)-cn, num edge types: 1
# Building blocks:
#     Node 0, Type 0, BuildingBlock: IZENUY_clean_sbu_0, # of connection points: 6
#     Node 1, Type 0, BuildingBlock: IZENUY_clean_sbu_0, # of connection points: 6
#     Node 2, Type 0, BuildingBlock: IZENUY_clean_sbu_0, # of connection points: 6
#     Node 3, Type 0, BuildingBlock: IZENUY_clean_sbu_0, # of connection points: 6
#     Node 4, Type 0, BuildingBlock: IZENUY_clean_sbu_0, # of connection points: 6
#     Node 5, Type 0, BuildingBlock: IZENUY_clean_sbu_0, # of connection points: 6
#     Edge 6, Type (0, 0), BuildingBlock: EZIPEK_clean_linker_0, # of connection points: 2
#     Edge 7, Type (0, 0), BuildingBlock: EZIPEK_clean_linker_0, # of connection points: 2
#     Edge 8, Type (0, 0), BuildingBlock: EZIPEK_clean_linker_0, # of connection points: 2
#     Edge 9, Type (0, 0), BuildingBlock: EZIPEK_clean_linker_0, # of connection points: 2
#     Edge 10, Type (0, 0), BuildingBlock: EZIPEK_clean_linker_0, # of connection points: 2
#     Edge 11, Type (0, 0), BuildingBlock: EZIPEK_clean_linker_0, # of connection points: 2
#     Edge 12, Type (0, 0), BuildingBlock: EZIPEK_clean_linker_0, # of connection points: 2
#     Edge 13, Type (0, 0), BuildingBlock: EZIPEK_clean_linker_0, # of connection points: 2
#     Edge 14, Type (0, 0), BuildingBlock: EZIPEK_clean_linker_0, # of connection points: 2
#     Edge 15, Type (0, 0), BuildingBlock: EZIPEK_clean_linker_0, # of connection points: 2
#     Edge 16, Type (0, 0), BuildingBlock: EZIPEK_clean_linker_0, # of connection points: 2
#     Edge 17, Type (0, 0), BuildingBlock: EZIPEK_clean_linker_0, # of connection points: 2
#     Edge 18, Type (0, 0), BuildingBlock: EZIPEK_clean_linker_0, # of connection points: 2
#     Edge 19, Type (0, 0), BuildingBlock: EZIPEK_clean_linker_0, # of connection points: 2
#     Edge 20, Type (0, 0), BuildingBlock: EZIPEK_clean_linker_0, # of connection points: 2
#     Edge 21, Type (0, 0), BuildingBlock: EZIPEK_clean_linker_0, # of connection points: 2
#     Edge 22, Type (0, 0), BuildingBlock: EZIPEK_clean_linker_0, # of connection points: 2
#     Edge 23, Type (0, 0), BuildingBlock: EZIPEK_clean_linker_0, # of connection points: 2
# Relax obj value: 0.026
# Max RMSD: 0.069
# Mean RMSD: 0.067
data_MOF--net-snx--node1-IZENUY_clean_sbu_0--edge1-EZIPEK_clean_linker_0
_symmetry_space_group_name_H-M    P1
_symmetry_Int_Tables_number       1
_symmetry_cell_setting            triclinic
loop_
_symmetry_equiv_pos_as_xyz
'x, y, z'
_cell_length_a     26.661851
_cell_length_b     26.665996
_cell_length_c     15.967891
_cell_angle_alpha  90.015494
_cell_angle_beta   89.888486
_cell_angle_gamma 119.89424
loop_
_atom_site_label
_atom_site_type_symbol
_atom_site_fract_x
_atom_site_fract_y
_atom_site_fract_z
_atom_type_partial_charge
Fe0 Fe 0.17553 0.31188 0.2729 0.0
Fe1 Fe 0.22803 0.42689 0.36881 0.0
O2 O 0.21385 0.3887 0.27279 0.0
Fe3 Fe 0.23771 0.42671 0.17647 0.0
O4 O 0.17516 0.37294 0.11595 0.0
O5 O 0.11788 0.30979 0.21013 0.0
O6 O 0.13207 0.30403 0.36659 0.0
C7 C 0.11953 0.33856 0.40277 0.0
C8 C 0.25843 0.3387 0.14332 0.0
O9 O 0.15151 0.39241 0.39444 0.0
C10 C 0.3306 0.49551 0.28829 0.0
O11 O 0.23099 0.30961 0.33575 0.0
O12 O 0.23767 0.37352 0.42936 0.0
O13 O 0.28037 0.39255 0.15205 0.0
O14 O 0.21122 0.30427 0.17914 0.0
C15 C 0.20231 0.49438 0.25623 0.0
O16 O 0.30571 0.46469 0.35145 0.0
O17 O 0.30402 0.48773 0.21971 0.0
C18 C 0.24754 0.33373 0.40629 0.0
O19 O 0.22145 0.48712 0.32493 0.0
O20 O 0.1971 0.46383 0.1931 0.0
C21 C 0.12543 0.33368 0.13937 0.0
Fe22 Fe 0.82234 0.22498 0.67819 0.0
Fe23 Fe 0.8259 0.22844 0.8704 0.0
O24 O 0.84094 0.20506 0.7742 0.0
Fe25 Fe 0.87531 0.16273 0.77354 0.0
O26 O 0.93551 0.21627 0.71157 0.0
O27 O 0.88258 0.22876 0.618 0.0
O28 O 0.86882 0.30129 0.70057 0.0
C29 C 0.8602 0.32561 0.76195 0.0
C30 C 0.79178 0.11361 0.64237 0.0
O31 O 0.83662 0.29739 0.82821 0.0
C32 C 0.80191 0.11371 0.90682 0.0
O33 O 0.75831 0.22518 0.71982 0.0
O34 O 0.74855 0.19231 0.84845 0.0
O35 O 0.83701 0.12085 0.67946 0.0
O36 O 0.77499 0.15003 0.64938 0.0
C37 C 0.93305 0.24368 0.90528 0.0
O38 O 0.81231 0.16348 0.93006 0.0
O39 O 0.81789 0.10627 0.83571 0.0
C40 C 0.72742 0.20188 0.78384 0.0
O41 O 0.90183 0.26673 0.89929 0.0
O42 O 0.91963 0.19685 0.86744 0.0
C43 C 0.9306 0.23546 0.64182 0.0
Fe44 Fe 0.72833 0.86997 0.2767 0.0
Fe45 Fe 0.6128 0.81077 0.17999 0.0
O46 O 0.65159 0.83105 0.27589 0.0
Fe47 Fe 0.61268 0.81186 0.37155 0.0
O48 O 0.64338 0.8869 0.40173 0.0
O49 O 0.73378 0.91291 0.37092 0.0
O50 O 0.7317 0.92851 0.21454 0.0
C51 C 0.7076 0.92291 0.14467 0.0
C52 C 0.70737 0.79602 0.40806 0.0
O53 O 0.66641 0.87454 0.12096 0.0
C54 C 0.54669 0.7129 0.2856 0.0
O55 O 0.73576 0.83392 0.183 0.0
O56 O 0.64653 0.76888 0.14825 0.0
O57 O 0.66688 0.80421 0.43176 0.0
O58 O 0.73169 0.81452 0.33831 0.0
C59 C 0.54746 0.8452 0.27005 0.0
O60 O 0.55139 0.74298 0.22132 0.0
O61 O 0.57971 0.73545 0.34736 0.0
C62 C 0.70054 0.78888 0.14296 0.0
O63 O 0.57693 0.85191 0.20493 0.0
O64 O 0.55075 0.81599 0.32998 0.0
C65 C 0.69682 0.92182 0.4084 0.0
Fe66 Fe 0.87617 0.71778 0.77591 0.0
Fe67 Fe 0.81831 0.6028 0.87201 0.0
O68 O 0.83585 0.64116 0.77584 0.0
Fe69 Fe 0.81284 0.60316 0.67953 0.0
O70 O 0.87722 0.65573 0.61988 0.0
O71 O 0.93372 0.71765 0.71521 0.0
O72 O 0.91782 0.72364 0.87052 0.0
C73 C 0.92774 0.68762 0.90779 0.0
C74 C 0.79524 0.69315 0.64442 0.0
O75 O 0.89383 0.63405 0.90048 0.0
C76 C 0.71728 0.53748 0.78893 0.0
O77 O 0.82107 0.72245 0.83712 0.0
O78 O 0.81061 0.65767 0.93137 0.0
O79 O 0.77248 0.63912 0.65219 0.0
O80 O 0.84234 0.72683 0.68097 0.0
C81 C 0.84451 0.53392 0.76336 0.0
O82 O 0.74154 0.56927 0.85113 0.0
O83 O 0.74504 0.54335 0.72185 0.0
C84 C 0.80249 0.69831 0.90727 0.0
O85 O 0.82263 0.54053 0.83005 0.0
O86 O 0.8511 0.56432 0.69957 0.0
C87 C 0.92705 0.69389 0.64455 0.0
Fe88 Fe 0.17107 0.86539 0.27367 0.0
Fe89 Fe 0.22904 0.80879 0.17548 0.0
O90 O 0.20955 0.82676 0.27255 0.0
Fe91 Fe 0.22932 0.80654 0.3674 0.0
O92 O 0.15435 0.76622 0.40386 0.0
O93 O 0.12953 0.83062 0.3678 0.0
O94 O 0.11161 0.80927 0.2141 0.0
C95 C 0.11713 0.79117 0.14372 0.0
C96 C 0.24765 0.91885 0.40383 0.0
O97 O 0.16588 0.80033 0.11846 0.0
C98 C 0.32741 0.83744 0.27606 0.0
O99 O 0.2053 0.90728 0.17801 0.0
O100 O 0.27167 0.88459 0.14671 0.0
O101 O 0.24209 0.87075 0.42488 0.0
O102 O 0.22713 0.92431 0.33513 0.0
C103 C 0.19774 0.7091 0.26037 0.0
O104 O 0.29641 0.81327 0.21272 0.0
O105 O 0.30569 0.84651 0.34031 0.0
C106 C 0.25185 0.91868 0.14109 0.0
O107 O 0.18737 0.73195 0.19863 0.0
O108 O 0.22143 0.73835 0.32579 0.0
C109 C 0.1207 0.78685 0.40981 0.0
Fe110 Fe 0.43951 0.22663 0.67797 0.0
Fe111 Fe 0.43786 0.21962 0.87017 0.0
O112 O 0.40032 0.20181 0.77329 0.0
Fe113 Fe 0.32365 0.16038 0.7721 0.0
O114 O 0.32452 0.10448 0.70861 0.0
O115 O 0.38855 0.16293 0.61633 0.0
O116 O 0.47984 0.18926 0.69775 0.0
C117 C 0.50947 0.19652 0.76278 0.0
C118 C 0.34895 0.24341 0.64224 0.0
O119 O 0.5013 0.21817 0.82827 0.0
C120 C 0.34104 0.23268 0.90422 0.0
O121 O 0.49748 0.29462 0.72219 0.0
O122 O 0.46964 0.29642 0.85093 0.0
O123 O 0.3148 0.19591 0.67821 0.0
O124 O 0.40285 0.26627 0.65117 0.0
C125 C 0.35587 0.10868 0.90387 0.0
O126 O 0.38134 0.22452 0.92921 0.0
O127 O 0.31724 0.21386 0.83436 0.0
C128 C 0.50168 0.32173 0.78927 0.0
O129 O 0.40904 0.14438 0.89769 0.0
O130 O 0.3187 0.11715 0.86624 0.0
C131 C 0.34826 0.11308 0.63741 0.0
C132 C 0.22928 0.59067 0.19099 0.0
C133 C 0.19416 0.54536 0.24746 0.0
C134 C 0.15932 0.6064 0.31038 0.0
C135 C 0.19227 0.65087 0.2513 0.0
N136 N 0.25085 0.68043 0.12465 0.0
N137 N 0.11571 0.50471 0.34659 0.0
C138 C 0.22414 0.64119 0.18773 0.0
C139 C 0.15609 0.55167 0.30282 0.0
N140 N 0.27095 0.58782 0.1445 0.0
N141 N 0.13198 0.61668 0.37495 0.0
H142 H 0.1114 0.46378 0.34068 0.0
H143 H 0.08285 0.50481 0.38184 0.0
H144 H 0.13148 0.65522 0.38132 0.0
H145 H 0.11322 0.58863 0.42539 0.0
H146 H 0.30367 0.62312 0.11268 0.0
H147 H 0.27629 0.55184 0.14243 0.0
H148 H 0.26664 0.67107 0.07067 0.0
H149 H 0.25437 0.72096 0.12211 0.0
C150 C 0.66753 0.24925 0.78002 0.0
C151 C 0.6698 0.19752 0.78702 0.0
C152 C 0.56391 0.14167 0.77428 0.0
C153 C 0.56358 0.19381 0.75768 0.0
N154 N 0.61786 0.29405 0.71717 0.0
N155 N 0.62088 0.09339 0.7823 0.0
C156 C 0.61628 0.24665 0.75214 0.0
C157 C 0.61807 0.14315 0.78202 0.0
N158 N 0.71364 0.30086 0.80325 0.0
N159 N 0.51272 0.09123 0.78315 0.0
H160 H 0.65972 0.09331 0.78963 0.0
H161 H 0.5854 0.05271 0.77061 0.0
H162 H 0.473 0.0888 0.77239 0.0
H163 H 0.50965 0.05285 0.80424 0.0
H164 H 0.71237 0.3393 0.80528 0.0
H165 H 0.74982 0.30342 0.83171 0.0
H166 H 0.65611 0.33298 0.70734 0.0
H167 H 0.58221 0.29138 0.68673 0.0
C168 C 0.39706 0.59316 0.35177 0.0
C169 C 0.38899 0.54759 0.29717 0.0
C170 C 0.48642 0.60921 0.23872 0.0
C171 C 0.49482 0.65429 0.29451 0.0
N172 N 0.46226 0.68473 0.41629 0.0
N173 N 0.42948 0.50742 0.20164 0.0
C174 C 0.4517 0.64469 0.35517 0.0
C175 C 0.4348 0.55429 0.24433 0.0
N176 N 0.35147 0.58923 0.39663 0.0
N177 N 0.52773 0.61906 0.18 0.0
H178 H 0.3928 0.46649 0.20618 0.0
H179 H 0.46296 0.50751 0.16792 0.0
H180 H 0.56783 0.65692 0.17829 0.0
H181 H 0.52149 0.59098 0.13074 0.0
H182 H 0.35207 0.62441 0.42599 0.0
H183 H 0.31126 0.55202 0.4003 0.0
H184 H 0.43588 0.67613 0.46872 0.0
H185 H 0.4992 0.72519 0.41925 0.0
C186 C 0.82049 0.43852 0.69888 0.0
C187 C 0.85425 0.48383 0.75586 0.0
C188 C 0.89816 0.4282 0.80956 0.0
C189 C 0.86525 0.38344 0.75125 0.0
N190 N 0.80514 0.35273 0.62644 0.0
N191 N 0.93423 0.52792 0.85189 0.0
C192 C 0.83019 0.39099 0.69098 0.0
C193 C 0.89577 0.48044 0.80736 0.0
N194 N 0.77615 0.43859 0.65601 0.0
N195 N 0.93143 0.42051 0.86749 0.0
H196 H 0.93442 0.56708 0.84989 0.0
H197 H 0.96913 0.53039 0.88459 0.0
H198 H 0.93818 0.38519 0.86636 0.0
H199 H 0.95045 0.44779 0.91852 0.0
H200 H 0.74484 0.40298 0.62321 0.0
H201 H 0.76714 0.47222 0.65858 0.0
H202 H 0.78631 0.361 0.57509 0.0
H203 H 0.80686 0.31499 0.61885 0.0
C204 C 0.47857 0.87532 0.20061 0.0
C205 C 0.50025 0.86083 0.27293 0.0
C206 C 0.4109 0.8358 0.34846 0.0
C207 C 0.38845 0.84957 0.27717 0.0
N208 N 0.41022 0.90217 0.14679 0.0
N209 N 0.49824 0.86158 0.4244 0.0
C210 C 0.42495 0.87504 0.20631 0.0
C211 C 0.47009 0.85227 0.34979 0.0
N212 N 0.50847 0.89017 0.12683 0.0
N213 N 0.37587 0.80398 0.41315 0.0
H214 H 0.54306 0.88003 0.42774 0.0
H215 H 0.47824 0.85899 0.48173 0.0
H216 H 0.33109 0.78588 0.41271 0.0
H217 H 0.3909 0.78963 0.46274 0.0
H218 H 0.48943 0.89001 0.06981 0.0
H219 H 0.55233 0.9042 0.12206 0.0
H220 H 0.43748 0.92627 0.09782 0.0
H221 H 0.37375 0.90662 0.15207 0.0
C222 C 0.61352 0.47812 0.74318 0.0
C223 C 0.65865 0.48616 0.79855 0.0
C224 C 0.59737 0.38879 0.8563 0.0
C225 C 0.55243 0.38045 0.80032 0.0
N226 N 0.51232 0.41985 0.70331 0.0
N227 N 0.68979 0.45309 0.91889 0.0
C228 C 0.55899 0.42603 0.74744 0.0
C229 C 0.64925 0.44299 0.85884 0.0
N230 N 0.62308 0.52026 0.6862 0.0
N231 N 0.59248 0.34375 0.90349 0.0
H232 H 0.73113 0.48884 0.92004 0.0
H233 H 0.6812 0.4273 0.97191 0.0
H234 H 0.55411 0.30509 0.91178 0.0
H235 H 0.6275 0.34348 0.93182 0.0
H236 H 0.59519 0.51468 0.63708 0.0
H237 H 0.66038 0.56083 0.68627 0.0
H238 H 0.51208 0.45284 0.66888 0.0
H239 H 0.47172 0.38261 0.70678 0.0
C240 C 0.32401 0.31434 0.94392 0.0
C241 C 0.31781 0.25954 0.96211 0.0
C242 C 0.28392 0.26325 0.10275 0.0
C243 C 0.28302 0.31457 0.0819 0.0
N244 N 0.28828 0.37996 0.97189 0.0
N245 N 0.2743 0.17438 0.04886 0.0
C246 C 0.29943 0.33801 0.99954 0.0
C247 C 0.29262 0.23174 0.03866 0.0
N248 N 0.35406 0.34431 0.87454 0.0
N249 N 0.27853 0.2454 0.18405 0.0
H250 H 0.27647 0.14913 1.00064 0.0
H251 H 0.2511 0.15089 0.10127 0.0
H252 H 0.27603 0.26934 0.23376 0.0
H253 H 0.28368 0.21072 0.2025 0.0
H254 H 0.36492 0.38705 0.86323 0.0
H255 H 0.37232 0.32818 0.83207 0.0
H256 H 0.29443 0.39395 0.90984 0.0
H257 H 0.26678 0.39615 1.00745 0.0
C258 C 0.97431 0.23613 0.50267 0.0
C259 C 0.98003 0.26139 0.58269 0.0
C260 C 0.0792 0.33567 0.54779 0.0
C261 C 0.07077 0.31468 0.46394 0.0
N262 N 1.00438 0.25229 0.35792 0.0
N263 N 0.03346 0.34254 0.67507 0.0
C264 C 1.01656 0.26699 0.44032 0.0
C265 C 0.0312 0.31332 0.60355 0.0
N266 N 0.92966 0.18166 0.487 0.0
N267 N 0.13325 0.37442 0.57616 0.0
H268 H 0.99884 0.32814 0.71683 0.0
H269 H 0.06763 0.3837 0.68874 0.0
H270 H 0.1704 0.39034 0.5395 0.0
H271 H 0.14204 0.38602 0.63901 0.0
H272 H 0.92645 0.15908 0.43214 0.0
H273 H 0.89932 0.15661 0.53244 0.0
H274 H 0.96347 0.22155 0.33674 0.0
H275 H 0.03319 0.27528 0.30993 0.0
C276 C 0.72515 0.04934 1.01155 0.0
C277 C 0.77767 0.06498 0.96835 0.0
C278 C 0.78135 0.98419 0.03616 0.0
C279 C 0.73224 0.97236 0.08519 0.0
N280 N 0.66439 1.00114 0.13197 0.0
N281 N 0.86307 0.05544 0.95674 0.0
C282 C 0.70623 1.00724 0.07665 0.0
C283 C 0.80779 0.0346 0.98524 0.0
N284 N 0.69183 0.07256 0.98797 0.0
N285 N 0.80231 0.94675 0.0367 0.0
H286 H 0.88549 0.09353 0.92246 0.0
H287 H 0.88904 0.03838 0.97492 0.0
H288 H 0.78484 0.90982 0.0739 0.0
H289 H 0.83366 0.94965 0.9948 0.0
H290 H 0.65039 0.05836 1.0114 0.0
H291 H 0.70305 0.10184 0.93878 0.0
H292 H 0.64786 0.02922 0.13407 0.0
H293 H 0.65003 0.97115 0.18084 0.0
C294 C 0.7521 0.79621 0.54603 0.0
C295 C 0.73042 0.76975 0.46731 0.0
C296 C 0.75621 0.69584 0.50088 0.0
C297 C 0.77076 0.71788 0.58397 0.0
N298 N 0.76941 0.78208 0.68988 0.0
N299 N 0.70017 0.68712 0.37699 0.0
C300 C 0.76495 0.76612 0.60779 0.0
C301 C 0.72901 0.71738 0.44673 0.0
N302 N 0.76265 0.85108 0.56094 0.0
N303 N 0.77115 0.65691 0.47153 0.0
H304 H 0.67865 0.7009 0.33675 0.0
H305 H 0.69297 0.64577 0.36373 0.0
H306 H 0.79416 0.64225 0.50664 0.0
H307 H 0.76644 0.64417 0.40899 0.0
H308 H 0.78363 0.87445 0.61448 0.0
H309 H 0.75629 0.87559 0.51589 0.0
H310 H 0.75966 0.81315 0.71139 0.0
H311 H 0.77644 0.75989 0.73765 0.0
C312 C 0.967 0.69226 0.05359 0.0
C313 C 0.97645 0.70985 0.96812 0.0
C314 C 0.07439 0.7863 1.00242 0.0
C315 C 0.06755 0.76439 0.08513 0.0
N316 N 1.01089 0.6884 0.18421 0.0
N317 N 0.04468 0.7635 0.85833 0.0
C318 C 1.01485 0.71498 0.10937 0.0
C319 C 0.03187 0.75387 0.94167 0.0
N320 N 0.91236 0.65629 0.08299 0.0
N321 N 0.12009 0.83934 0.9825 0.0
H322 H 1.01571 0.73797 0.81203 0.0
H323 H 0.08612 0.79183 0.83588 0.0
H324 H 0.15019 0.86635 0.02664 0.0
H325 H 0.12412 0.85926 0.92477 0.0
H326 H 0.90296 0.64763 0.1465 0.0
H327 H 0.87556 0.63953 0.04564 0.0
H328 H 0.97537 0.64879 0.20094 0.0
H329 H 0.04531 0.70297 0.22601 0.0
C330 C 0.31969 0.07256 0.48974 0.0
C331 C 0.32611 0.06431 0.57603 0.0
C332 C 0.27582 0.95988 0.55227 0.0
C333 C 0.27632 0.96864 0.46376 0.0
N334 N 0.32392 0.03808 0.35215 0.0
N335 N 0.33039 1.00044 0.67853 0.0
C336 C 0.30569 0.02643 0.43325 0.0
C337 C 0.3102 1.00801 0.60414 0.0
N338 N 0.32405 0.12279 0.46136 0.0
N339 N 0.24176 0.90713 0.58882 0.0
H340 H 0.36111 0.03561 0.71253 0.0
H341 H 0.32342 0.96028 0.69882 0.0
H342 H 0.2122 0.87009 0.55721 0.0
H343 H 0.23794 0.90195 0.65371 0.0
H344 H 0.31621 0.12842 0.39903 0.0
H345 H 0.32749 0.15503 0.50164 0.0
H346 H 0.34854 0.08026 0.3296 0.0
H347 H 0.32178 1.00634 0.31176 0.0
C348 C 0.76899 0.75223 0.10875 0.0
C349 C 0.72426 0.76299 0.08271 0.0
C350 C 0.72653 0.72492 0.94331 0.0
C351 C 0.77617 0.72171 0.9666 0.0
N352 N 0.85268 0.7458 0.06667 0.0
N353 N 0.67034 0.77198 0.96731 0.0
C354 C 0.79971 0.73917 0.04801 0.0
C355 C 0.70553 0.75265 0.99778 0.0
N356 N 0.78093 0.75228 0.19183 0.0
N357 N 0.69805 0.69978 0.87067 0.0
H358 H 0.65613 0.79514 1.00309 0.0
H359 H 0.66047 0.77052 0.90391 0.0
H360 H 0.71106 0.67763 0.83026 0.0
H361 H 0.6584 0.69601 0.85491 0.0
H362 H 0.80914 0.73905 0.2145 0.0
H363 H 0.75777 0.75906 0.23853 0.0
H364 H 0.87416 0.76368 0.12273 0.0
H365 H 0.87807 0.73966 1.02277 0.0
C366 C 1.00908 0.7776 0.56911 0.0
C367 C 0.97678 0.71727 0.58487 0.0
C368 C 0.03354 0.70201 0.47691 0.0
C369 C 0.07163 0.7626 0.47105 0.0
N370 N 0.10067 0.85805 0.5271 0.0
N371 N 0.96746 0.62313 0.56539 0.0
C372 C 0.06095 0.80043 0.52169 0.0
C373 C 0.99163 0.67971 0.54213 0.0
N374 N 0.98899 0.81319 0.59542 0.0
N375 N 0.03472 0.66579 0.41754 0.0
H376 H 0.93903 0.60593 0.61561 0.0
H377 H 0.98087 0.59542 0.54109 0.0
H378 H 0.0615 0.68084 0.3651 0.0
H379 H 1.0043 0.62181 0.41509 0.0
H380 H 1.00802 0.85648 0.57762 0.0
H381 H 0.94973 0.79833 0.62656 0.0
H382 H 0.09734 0.88538 0.57067 0.0
H383 H 0.13972 0.8778 0.49483 0.0
C384 C 0.29225 0.02478 0.10506 0.0
C385 C 0.27904 0.96801 0.08072 0.0
C386 C 0.32697 1.00675 0.94529 0.0
C387 C 0.33626 0.06188 0.96771 0.0
N388 N 0.35236 0.12748 0.08087 0.0
N389 N 0.27264 0.90372 0.96861 0.0
C390 C 0.32573 0.07219 0.05092 0.0
C391 C 0.29382 0.95867 0.99855 0.0
N392 N 0.27134 0.03393 0.17815 0.0
N393 N 0.35426 1.00148 0.87652 0.0
H394 H 0.24496 0.86679 1.00262 0.0
H395 H 0.27696 0.89473 0.90638 0.0
H396 H 0.38414 0.03777 0.84331 0.0
H397 H 0.35411 0.96354 0.86041 0.0
H398 H 0.27337 0.07303 0.19251 0.0
H399 H 0.24772 1.00192 0.22185 0.0
H400 H 0.35204 0.13763 0.14381 0.0
H401 H 0.3806 0.16284 0.0446 0.0
C402 C 0.34814 0.28539 0.49963 0.0
C403 C 0.32529 0.26952 0.58243 0.0
C404 C 0.24819 0.29047 0.54597 0.0
C405 C 0.27419 0.31146 0.46653 0.0
N406 N 0.35602 0.34055 0.37469 0.0
N407 N 0.26266 0.27241 0.68953 0.0
C408 C 0.32626 0.31232 0.44534 0.0
C409 C 0.27788 0.27648 0.60706 0.0
N410 N 0.38872 0.27251 0.47078 0.0
N411 N 0.19401 0.28157 0.56232 0.0
H412 H 0.28519 0.26532 0.73678 0.0
H413 H 0.23225 0.28284 0.71188 0.0
H414 H 0.16977 0.2892 0.51839 0.0
H415 H 0.17076 0.26088 0.6162 0.0
H416 H 0.40135 0.27695 0.40818 0.0
H417 H 0.40581 0.252 0.50651 0.0
H418 H 0.39746 0.34814 0.36098 0.0
H419 H 0.34182 0.36132 0.33371 0.0
C420 C 0.03761 0.27701 0.93876 0.0
C421 C 0.98278 0.26821 0.96485 0.0
C422 C 1.02429 0.30973 0.10208 0.0
C423 C 0.07649 0.31132 0.07929 0.0
N424 N 0.12794 0.28419 0.98112 0.0
N425 N 0.9212 0.2638 0.07975 0.0
C426 C 0.08187 0.29156 0.99903 0.0
C427 C 0.97528 0.28125 0.04885 0.0
N428 N 0.04847 0.27373 0.85596 0.0
N429 N 1.02189 0.3371 0.17308 0.0
H430 H 0.88357 0.24011 0.04498 0.0
H431 H 0.91328 0.26723 0.14284 0.0
H432 H 0.05732 0.35986 0.21256 0.0
H433 H 0.98657 0.34209 0.18812 0.0
H434 H 0.08952 0.28582 0.83271 0.0
H435 H 1.01803 0.26507 0.80947 0.0
H436 H 0.13084 0.26437 0.9265 0.0
H437 H 0.16024 0.29206 1.02433 0.0
C438 C 0.70748 0.96001 0.55572 0.0
C439 C 0.71685 0.97097 0.46818 0.0
C440 C 0.76617 0.07575 0.49476 0.0
C441 C 0.7621 0.06474 0.58243 0.0
N442 N 0.72919 0.99749 0.69761 0.0
N443 N 0.75434 0.03831 0.35319 0.0
C444 C 0.73262 1.00711 0.61312 0.0
C445 C 0.74587 0.02864 0.43748 0.0
N446 N 0.67379 0.90458 0.58413 0.0
N447 N 0.78863 0.13122 0.46612 0.0
H448 H 0.73488 1.0054 0.30908 0.0
H449 H 0.7821 0.07841 0.32653 0.0
H450 H 0.80626 0.16726 0.50506 0.0
H451 H 0.78686 0.14194 0.404 0.0
H452 H 0.65934 0.89403 0.6456 0.0
H453 H 0.65703 0.86842 0.5455 0.0
H454 H 0.71631 0.95741 0.72479 0.0
H455 H 0.74125 0.03046 0.74141 0.0
loop_
_geom_bond_atom_site_label_1
_geom_bond_atom_site_label_2
_geom_bond_distance
_geom_bond_site_symmetry_2
_ccdc_geom_bond_type
Fe0 O2 1.918 . S
Fe0 O5 1.997 . S
Fe0 O6 2.002 . S
Fe0 O11 1.976 . S
Fe0 O14 1.996 . S
Fe1 O2 1.918 . S
Fe1 O9 1.997 . S
Fe1 O12 1.996 . S
Fe1 O16 1.976 . S
Fe1 O19 2.002 . S
O2 Fe0 1.918 . S
O2 Fe1 1.918 . S
O2 Fe3 1.918 . S
Fe3 O2 1.918 . S
Fe3 O4 2.002 . S
Fe3 O13 1.976 . S
Fe3 O17 1.996 . S
Fe3 O20 1.997 . S
O4 Fe3 2.002 . S
O4 C21 1.295 . S
O5 Fe0 1.997 . S
O5 C21 1.235 . S
O6 Fe0 2.002 . S
O6 C7 1.295 . S
C7 O6 1.295 . S
C7 O9 1.235 . S
C8 O13 1.287 . S
C8 O14 1.255 . S
O9 Fe1 1.997 . S
O9 C7 1.235 . S
C10 O16 1.287 . S
C10 O17 1.255 . S
O11 Fe0 1.976 . S
O11 C18 1.287 . S
O12 Fe1 1.996 . S
O12 C18 1.255 . S
O13 Fe3 1.976 . S
O13 C8 1.287 . S
O14 Fe0 1.996 . S
O14 C8 1.255 . S
C15 O19 1.295 . S
C15 O20 1.235 . S
O16 Fe1 1.976 . S
O16 C10 1.287 . S
O17 Fe3 1.996 . S
O17 C10 1.255 . S
C18 O11 1.287 . S
C18 O12 1.255 . S
O19 Fe1 2.002 . S
O19 C15 1.295 . S
O20 Fe3 1.997 . S
O20 C15 1.235 . S
C21 O4 1.295 . S
C21 O5 1.235 . S
Fe22 O24 1.918 . S
Fe22 O27 1.997 . S
Fe22 O28 2.002 . S
Fe22 O33 1.976 . S
Fe22 O36 1.996 . S
Fe23 O24 1.918 . S
Fe23 O31 1.997 . S
Fe23 O34 1.996 . S
Fe23 O38 1.976 . S
Fe23 O41 2.002 . S
O24 Fe22 1.918 . S
O24 Fe23 1.918 . S
O24 Fe25 1.918 . S
Fe25 O24 1.918 . S
Fe25 O26 2.002 . S
Fe25 O35 1.976 . S
Fe25 O39 1.996 . S
Fe25 O42 1.997 . S
O26 Fe25 2.002 . S
O26 C43 1.295 . S
O27 Fe22 1.997 . S
O27 C43 1.235 . S
O28 Fe22 2.002 . S
O28 C29 1.295 . S
C29 O28 1.295 . S
C29 O31 1.235 . S
C30 O35 1.287 . S
C30 O36 1.255 . S
O31 Fe23 1.997 . S
O31 C29 1.235 . S
C32 O38 1.287 . S
C32 O39 1.255 . S
O33 Fe22 1.976 . S
O33 C40 1.287 . S
O34 Fe23 1.996 . S
O34 C40 1.255 . S
O35 Fe25 1.976 . S
O35 C30 1.287 . S
O36 Fe22 1.996 . S
O36 C30 1.255 . S
C37 O41 1.295 . S
C37 O42 1.235 . S
O38 Fe23 1.976 . S
O38 C32 1.287 . S
O39 Fe25 1.996 . S
O39 C32 1.255 . S
C40 O33 1.287 . S
C40 O34 1.255 . S
O41 Fe23 2.002 . S
O41 C37 1.295 . S
O42 Fe25 1.997 . S
O42 C37 1.235 . S
C43 O26 1.295 . S
C43 O27 1.235 . S
Fe44 O46 1.918 . S
Fe44 O49 1.997 . S
Fe44 O50 2.002 . S
Fe44 O55 1.976 . S
Fe44 O58 1.996 . S
Fe45 O46 1.918 . S
Fe45 O53 1.997 . S
Fe45 O56 1.996 . S
Fe45 O60 1.976 . S
Fe45 O63 2.002 . S
O46 Fe44 1.918 . S
O46 Fe45 1.918 . S
O46 Fe47 1.918 . S
Fe47 O46 1.918 . S
Fe47 O48 2.002 . S
Fe47 O57 1.976 . S
Fe47 O61 1.996 . S
Fe47 O64 1.997 . S
O48 Fe47 2.002 . S
O48 C65 1.295 . S
O49 Fe44 1.997 . S
O49 C65 1.235 . S
O50 Fe44 2.002 . S
O50 C51 1.295 . S
C51 O50 1.295 . S
C51 O53 1.235 . S
C52 O57 1.287 . S
C52 O58 1.255 . S
O53 Fe45 1.997 . S
O53 C51 1.235 . S
C54 O60 1.287 . S
C54 O61 1.255 . S
O55 Fe44 1.976 . S
O55 C62 1.287 . S
O56 Fe45 1.996 . S
O56 C62 1.255 . S
O57 Fe47 1.976 . S
O57 C52 1.287 . S
O58 Fe44 1.996 . S
O58 C52 1.255 . S
C59 O63 1.295 . S
C59 O64 1.235 . S
O60 Fe45 1.976 . S
O60 C54 1.287 . S
O61 Fe47 1.996 . S
O61 C54 1.255 . S
C62 O55 1.287 . S
C62 O56 1.255 . S
O63 Fe45 2.002 . S
O63 C59 1.295 . S
O64 Fe47 1.997 . S
O64 C59 1.235 . S
C65 O48 1.295 . S
C65 O49 1.235 . S
Fe66 O68 1.918 . S
Fe66 O71 1.997 . S
Fe66 O72 2.002 . S
Fe66 O77 1.976 . S
Fe66 O80 1.996 . S
Fe67 O68 1.918 . S
Fe67 O75 1.997 . S
Fe67 O78 1.996 . S
Fe67 O82 1.976 . S
Fe67 O85 2.002 . S
O68 Fe66 1.918 . S
O68 Fe67 1.918 . S
O68 Fe69 1.918 . S
Fe69 O68 1.918 . S
Fe69 O70 2.002 . S
Fe69 O79 1.976 . S
Fe69 O83 1.996 . S
Fe69 O86 1.997 . S
O70 Fe69 2.002 . S
O70 C87 1.295 . S
O71 Fe66 1.997 . S
O71 C87 1.235 . S
O72 Fe66 2.002 . S
O72 C73 1.295 . S
C73 O72 1.295 . S
C73 O75 1.235 . S
C74 O79 1.287 . S
C74 O80 1.255 . S
O75 Fe67 1.997 . S
O75 C73 1.235 . S
C76 O82 1.287 . S
C76 O83 1.255 . S
O77 Fe66 1.976 . S
O77 C84 1.287 . S
O78 Fe67 1.996 . S
O78 C84 1.255 . S
O79 Fe69 1.976 . S
O79 C74 1.287 . S
O80 Fe66 1.996 . S
O80 C74 1.255 . S
C81 O85 1.295 . S
C81 O86 1.235 . S
O82 Fe67 1.976 . S
O82 C76 1.287 . S
O83 Fe69 1.996 . S
O83 C76 1.255 . S
C84 O77 1.287 . S
C84 O78 1.255 . S
O85 Fe67 2.002 . S
O85 C81 1.295 . S
O86 Fe69 1.997 . S
O86 C81 1.235 . S
C87 O70 1.295 . S
C87 O71 1.235 . S
Fe88 O90 1.918 . S
Fe88 O93 1.997 . S
Fe88 O94 2.002 . S
Fe88 O99 1.976 . S
Fe88 O102 1.996 . S
Fe89 O90 1.918 . S
Fe89 O97 1.997 . S
Fe89 O100 1.996 . S
Fe89 O104 1.976 . S
Fe89 O107 2.002 . S
O90 Fe88 1.918 . S
O90 Fe89 1.918 . S
O90 Fe91 1.918 . S
Fe91 O90 1.918 . S
Fe91 O92 2.002 . S
Fe91 O101 1.976 . S
Fe91 O105 1.996 . S
Fe91 O108 1.997 . S
O92 Fe91 2.002 . S
O92 C109 1.295 . S
O93 Fe88 1.997 . S
O93 C109 1.235 . S
O94 Fe88 2.002 . S
O94 C95 1.295 . S
C95 O94 1.295 . S
C95 O97 1.235 . S
C96 O101 1.287 . S
C96 O102 1.255 . S
O97 Fe89 1.997 . S
O97 C95 1.235 . S
C98 O104 1.287 . S
C98 O105 1.255 . S
O99 Fe88 1.976 . S
O99 C106 1.287 . S
O100 Fe89 1.996 . S
O100 C106 1.255 . S
O101 Fe91 1.976 . S
O101 C96 1.287 . S
O102 Fe88 1.996 . S
O102 C96 1.255 . S
C103 O107 1.295 . S
C103 O108 1.235 . S
O104 Fe89 1.976 . S
O104 C98 1.287 . S
O105 Fe91 1.996 . S
O105 C98 1.255 . S
C106 O99 1.287 . S
C106 O100 1.255 . S
O107 Fe89 2.002 . S
O107 C103 1.295 . S
O108 Fe91 1.997 . S
O108 C103 1.235 . S
C109 O92 1.295 . S
C109 O93 1.235 . S
Fe110 O112 1.918 . S
Fe110 O115 1.997 . S
Fe110 O116 2.002 . S
Fe110 O121 1.976 . S
Fe110 O124 1.996 . S
Fe111 O112 1.918 . S
Fe111 O119 1.997 . S
Fe111 O122 1.996 . S
Fe111 O126 1.976 . S
Fe111 O129 2.002 . S
O112 Fe110 1.918 . S
O112 Fe111 1.918 . S
O112 Fe113 1.918 . S
Fe113 O112 1.918 . S
Fe113 O114 2.002 . S
Fe113 O123 1.976 . S
Fe113 O127 1.996 . S
Fe113 O130 1.997 . S
O114 Fe113 2.002 . S
O114 C131 1.295 . S
O115 Fe110 1.997 . S
O115 C131 1.235 . S
O116 Fe110 2.002 . S
O116 C117 1.295 . S
C117 O116 1.295 . S
C117 O119 1.235 . S
C118 O123 1.287 . S
C118 O124 1.255 . S
O119 Fe111 1.997 . S
O119 C117 1.235 . S
C120 O126 1.287 . S
C120 O127 1.255 . S
O121 Fe110 1.976 . S
O121 C128 1.287 . S
O122 Fe111 1.996 . S
O122 C128 1.255 . S
O123 Fe113 1.976 . S
O123 C118 1.287 . S
O124 Fe110 1.996 . S
O124 C118 1.255 . S
C125 O129 1.295 . S
C125 O130 1.235 . S
O126 Fe111 1.976 . S
O126 C120 1.287 . S
O127 Fe113 1.996 . S
O127 C120 1.255 . S
C128 O121 1.287 . S
C128 O122 1.255 . S
O129 Fe111 2.002 . S
O129 C125 1.295 . S
O130 Fe113 1.997 . S
O130 C125 1.235 . S
C131 O114 1.295 . S
C131 O115 1.235 . S
C132 C133 1.363 . S
C132 C138 1.379 . S
C132 N140 1.356 . S
C133 C132 1.363 . S
C133 C139 1.363 . S
C134 C135 1.363 . S
C134 C139 1.379 . S
C134 N141 1.356 . S
C135 C134 1.363 . S
C135 C138 1.363 . S
N136 C138 1.356 . S
N136 H148 0.984 . S
N136 H149 0.985 . S
N137 C139 1.356 . S
N137 H142 0.984 . S
N137 H143 0.985 . S
C138 C132 1.379 . S
C138 C135 1.363 . S
C138 N136 1.356 . S
C139 C133 1.363 . S
C139 C134 1.379 . S
C139 N137 1.356 . S
N140 C132 1.356 . S
N140 H146 0.984 . S
N140 H147 0.984 . S
N141 C134 1.356 . S
N141 H144 0.984 . S
N141 H145 0.985 . S
H142 N137 0.984 . S
H143 N137 0.985 . S
H144 N141 0.984 . S
H145 N141 0.985 . S
H146 N140 0.984 . S
H147 N140 0.984 . S
H148 N136 0.984 . S
H149 N136 0.985 . S
C150 C151 1.363 . S
C150 C156 1.379 . S
C150 N158 1.356 . S
C151 C150 1.363 . S
C151 C157 1.363 . S
C152 C153 1.363 . S
C152 C157 1.379 . S
C152 N159 1.356 . S
C153 C152 1.363 . S
C153 C156 1.363 . S
N154 C156 1.356 . S
N154 H166 0.984 . S
N154 H167 0.985 . S
N155 C157 1.356 . S
N155 H160 0.984 . S
N155 H161 0.985 . S
C156 C150 1.379 . S
C156 C153 1.363 . S
C156 N154 1.356 . S
C157 C151 1.363 . S
C157 C152 1.379 . S
C157 N155 1.356 . S
N158 C150 1.356 . S
N158 H164 0.984 . S
N158 H165 0.984 . S
N159 C152 1.356 . S
N159 H162 0.984 . S
N159 H163 0.985 . S
H160 N155 0.984 . S
H161 N155 0.985 . S
H162 N159 0.984 . S
H163 N159 0.985 . S
H164 N158 0.984 . S
H165 N158 0.984 . S
H166 N154 0.984 . S
H167 N154 0.985 . S
C168 C169 1.363 . S
C168 C174 1.379 . S
C168 N176 1.356 . S
C169 C168 1.363 . S
C169 C175 1.363 . S
C170 C171 1.363 . S
C170 C175 1.379 . S
C170 N177 1.356 . S
C171 C170 1.363 . S
C171 C174 1.363 . S
N172 C174 1.356 . S
N172 H184 0.984 . S
N172 H185 0.985 . S
N173 C175 1.356 . S
N173 H178 0.984 . S
N173 H179 0.985 . S
C174 C168 1.379 . S
C174 C171 1.363 . S
C174 N172 1.356 . S
C175 C169 1.363 . S
C175 C170 1.379 . S
C175 N173 1.356 . S
N176 C168 1.356 . S
N176 H182 0.984 . S
N176 H183 0.984 . S
N177 C170 1.356 . S
N177 H180 0.984 . S
N177 H181 0.985 . S
H178 N173 0.984 . S
H179 N173 0.985 . S
H180 N177 0.984 . S
H181 N177 0.985 . S
H182 N176 0.984 . S
H183 N176 0.984 . S
H184 N172 0.984 . S
H185 N172 0.985 . S
C186 C187 1.363 . S
C186 C192 1.379 . S
C186 N194 1.356 . S
C187 C186 1.363 . S
C187 C193 1.363 . S
C188 C189 1.363 . S
C188 C193 1.379 . S
C188 N195 1.356 . S
C189 C188 1.363 . S
C189 C192 1.363 . S
N190 C192 1.356 . S
N190 H202 0.984 . S
N190 H203 0.985 . S
N191 C193 1.356 . S
N191 H196 0.984 . S
N191 H197 0.985 . S
C192 C186 1.379 . S
C192 C189 1.363 . S
C192 N190 1.356 . S
C193 C187 1.363 . S
C193 C188 1.379 . S
C193 N191 1.356 . S
N194 C186 1.356 . S
N194 H200 0.984 . S
N194 H201 0.984 . S
N195 C188 1.356 . S
N195 H198 0.984 . S
N195 H199 0.985 . S
H196 N191 0.984 . S
H197 N191 0.985 . S
H198 N195 0.984 . S
H199 N195 0.985 . S
H200 N194 0.984 . S
H201 N194 0.984 . S
H202 N190 0.984 . S
H203 N190 0.985 . S
C204 C205 1.363 . S
C204 C210 1.379 . S
C204 N212 1.356 . S
C205 C204 1.363 . S
C205 C211 1.363 . S
C206 C207 1.363 . S
C206 C211 1.379 . S
C206 N213 1.356 . S
C207 C206 1.363 . S
C207 C210 1.363 . S
N208 C210 1.356 . S
N208 H220 0.984 . S
N208 H221 0.985 . S
N209 C211 1.356 . S
N209 H214 0.984 . S
N209 H215 0.985 . S
C210 C204 1.379 . S
C210 C207 1.363 . S
C210 N208 1.356 . S
C211 C205 1.363 . S
C211 C206 1.379 . S
C211 N209 1.356 . S
N212 C204 1.356 . S
N212 H218 0.984 . S
N212 H219 0.984 . S
N213 C206 1.356 . S
N213 H216 0.984 . S
N213 H217 0.985 . S
H214 N209 0.984 . S
H215 N209 0.985 . S
H216 N213 0.984 . S
H217 N213 0.985 . S
H218 N212 0.984 . S
H219 N212 0.984 . S
H220 N208 0.984 . S
H221 N208 0.985 . S
C222 C223 1.363 . S
C222 C228 1.379 . S
C222 N230 1.356 . S
C223 C222 1.363 . S
C223 C229 1.363 . S
C224 C225 1.363 . S
C224 C229 1.379 . S
C224 N231 1.356 . S
C225 C224 1.363 . S
C225 C228 1.363 . S
N226 C228 1.356 . S
N226 H238 0.984 . S
N226 H239 0.985 . S
N227 C229 1.356 . S
N227 H232 0.984 . S
N227 H233 0.985 . S
C228 C222 1.379 . S
C228 C225 1.363 . S
C228 N226 1.356 . S
C229 C223 1.363 . S
C229 C224 1.379 . S
C229 N227 1.356 . S
N230 C222 1.356 . S
N230 H236 0.984 . S
N230 H237 0.984 . S
N231 C224 1.356 . S
N231 H234 0.984 . S
N231 H235 0.985 . S
H232 N227 0.984 . S
H233 N227 0.985 . S
H234 N231 0.984 . S
H235 N231 0.985 . S
H236 N230 0.984 . S
H237 N230 0.984 . S
H238 N226 0.984 . S
H239 N226 0.985 . S
C240 C241 1.363 . S
C240 C246 1.379 . S
C240 N248 1.356 . S
C241 C240 1.363 . S
C241 C247 1.363 1_556 S
C242 C243 1.363 . S
C242 C247 1.379 . S
C242 N249 1.356 . S
C243 C242 1.363 . S
C243 C246 1.363 1_554 S
N244 C246 1.356 1_554 S
N244 H256 0.984 1_554 S
N244 H257 0.985 . S
N245 C247 1.356 1_556 S
N245 H250 0.984 . S
N245 H251 0.985 1_556 S
C246 C240 1.379 . S
C246 C243 1.363 1_556 S
C246 N244 1.356 1_556 S
C247 C241 1.363 1_554 S
C247 C242 1.379 . S
C247 N245 1.356 1_554 S
N248 C240 1.356 . S
N248 H254 0.984 . S
N248 H255 0.984 . S
N249 C242 1.356 . S
N249 H252 0.984 . S
N249 H253 0.985 . S
H250 N245 0.984 . S
H251 N245 0.985 1_554 S
H252 N249 0.984 . S
H253 N249 0.985 . S
H254 N248 0.984 . S
H255 N248 0.984 . S
H256 N244 0.984 1_556 S
H257 N244 0.985 . S
C258 C259 1.363 . S
C258 C264 1.379 . S
C258 N266 1.356 . S
C259 C258 1.363 . S
C259 C265 1.363 1_655 S
C260 C261 1.363 . S
C260 C265 1.379 . S
C260 N267 1.356 . S
C261 C260 1.363 . S
C261 C264 1.363 1_455 S
N262 C264 1.356 . S
N262 H274 0.984 . S
N262 H275 0.985 1_655 S
N263 C265 1.361 . S
N263 H268 0.971 1_455 S
N263 H269 0.993 . S
C264 C258 1.379 . S
C264 C261 1.363 1_655 S
C264 N262 1.356 . S
C265 C259 1.363 1_455 S
C265 C260 1.379 . S
C265 N263 1.361 . S
N266 C258 1.356 . S
N266 H272 0.984 . S
N266 H273 0.984 . S
N267 C260 1.356 . S
N267 H270 0.984 . S
N267 H271 0.985 . S
H268 N263 0.971 1_655 S
H269 N263 0.993 . S
H270 N267 0.984 . S
H271 N267 0.985 . S
H272 N266 0.984 . S
H273 N266 0.984 . S
H274 N262 0.984 . S
H275 N262 0.985 1_455 S
C276 C277 1.363 . S
C276 C282 1.379 1_546 S
C276 N284 1.356 . S
C277 C276 1.363 . S
C277 C283 1.363 . S
C278 C279 1.363 . S
C278 C283 1.379 1_564 S
C278 N285 1.356 . S
C279 C278 1.363 . S
C279 C282 1.363 . S
N280 C282 1.356 . S
N280 H292 0.984 . S
N280 H293 0.985 . S
N281 C283 1.356 . S
N281 H286 0.984 . S
N281 H287 0.985 . S
C282 C276 1.379 1_564 S
C282 C279 1.363 . S
C282 N280 1.356 . S
C283 C277 1.363 . S
C283 C278 1.379 1_546 S
C283 N281 1.356 . S
N284 C276 1.356 . S
N284 H290 0.984 . S
N284 H291 0.984 . S
N285 C278 1.356 . S
N285 H288 0.984 . S
N285 H289 0.985 . S
H286 N281 0.984 . S
H287 N281 0.985 . S
H288 N285 0.984 . S
H289 N285 0.985 . S
H290 N284 0.984 . S
H291 N284 0.984 . S
H292 N280 0.984 . S
H293 N280 0.985 . S
C294 C295 1.363 . S
C294 C300 1.379 . S
C294 N302 1.356 . S
C295 C294 1.363 . S
C295 C301 1.363 . S
C296 C297 1.363 . S
C296 C301 1.379 . S
C296 N303 1.356 . S
C297 C296 1.363 . S
C297 C300 1.363 . S
N298 C300 1.356 . S
N298 H310 0.984 . S
N298 H311 0.985 . S
N299 C301 1.356 . S
N299 H304 0.984 . S
N299 H305 0.985 . S
C300 C294 1.379 . S
C300 C297 1.363 . S
C300 N298 1.356 . S
C301 C295 1.363 . S
C301 C296 1.379 . S
C301 N299 1.356 . S
N302 C294 1.356 . S
N302 H308 0.984 . S
N302 H309 0.984 . S
N303 C296 1.356 . S
N303 H306 0.984 . S
N303 H307 0.985 . S
H304 N299 0.984 . S
H305 N299 0.985 . S
H306 N303 0.984 . S
H307 N303 0.985 . S
H308 N302 0.984 . S
H309 N302 0.984 . S
H310 N298 0.984 . S
H311 N298 0.985 . S
C312 C313 1.363 1_554 S
C312 C318 1.379 . S
C312 N320 1.356 . S
C313 C312 1.363 1_556 S
C313 C319 1.363 1_655 S
C314 C315 1.363 1_556 S
C314 C319 1.379 . S
C314 N321 1.356 . S
C315 C314 1.363 1_554 S
C315 C318 1.363 1_455 S
N316 C318 1.356 . S
N316 H328 0.984 . S
N316 H329 0.985 1_655 S
N317 C319 1.356 . S
N317 H322 0.984 1_455 S
N317 H323 0.985 . S
C318 C312 1.379 . S
C318 C315 1.363 1_655 S
C318 N316 1.356 . S
C319 C313 1.363 1_455 S
C319 C314 1.379 . S
C319 N317 1.356 . S
N320 C312 1.356 . S
N320 H326 0.984 . S
N320 H327 0.984 1_554 S
N321 C314 1.356 . S
N321 H324 0.984 1_556 S
N321 H325 0.985 . S
H322 N317 0.984 1_655 S
H323 N317 0.985 . S
H324 N321 0.984 1_554 S
H325 N321 0.985 . S
H326 N320 0.984 . S
H327 N320 0.984 1_556 S
H328 N316 0.984 . S
H329 N316 0.985 1_455 S
C330 C331 1.363 . S
C330 C336 1.379 . S
C330 N338 1.356 . S
C331 C330 1.363 . S
C331 C337 1.363 1_545 S
C332 C333 1.363 . S
C332 C337 1.379 . S
C332 N339 1.356 . S
C333 C332 1.363 . S
C333 C336 1.363 1_565 S
N334 C336 1.355 1_565 S
N334 H346 0.983 1_565 S
N334 H347 0.988 . S
N335 C337 1.357 . S
N335 H340 0.982 1_565 S
N335 H341 0.986 . S
C336 C330 1.379 . S
C336 C333 1.363 1_545 S
C336 N334 1.355 1_545 S
C337 C331 1.363 1_565 S
C337 C332 1.379 . S
C337 N335 1.357 . S
N338 C330 1.356 . S
N338 H344 0.984 . S
N338 H345 0.984 . S
N339 C332 1.356 . S
N339 H342 0.984 . S
N339 H343 0.985 . S
H340 N335 0.982 1_545 S
H341 N335 0.986 . S
H342 N339 0.984 . S
H343 N339 0.985 . S
H344 N338 0.984 . S
H345 N338 0.984 . S
H346 N334 0.983 1_545 S
H347 N334 0.988 . S
C348 C349 1.363 . S
C348 C354 1.379 . S
C348 N356 1.356 . S
C349 C348 1.363 . S
C349 C355 1.363 1_554 S
C350 C351 1.363 . S
C350 C355 1.379 . S
C350 N357 1.356 . S
C351 C350 1.363 . S
C351 C354 1.363 1_556 S
N352 C354 1.356 . S
N352 H364 0.984 . S
N352 H365 0.985 1_554 S
N353 C355 1.356 . S
N353 H358 0.984 1_556 S
N353 H359 0.985 . S
C354 C348 1.379 . S
C354 C351 1.363 1_554 S
C354 N352 1.356 . S
C355 C349 1.363 1_556 S
C355 C350 1.379 . S
C355 N353 1.356 . S
N356 C348 1.356 . S
N356 H362 0.984 . S
N356 H363 0.984 . S
N357 C350 1.356 . S
N357 H360 0.984 . S
N357 H361 0.985 . S
H358 N353 0.984 1_554 S
H359 N353 0.985 . S
H360 N357 0.984 . S
H361 N357 0.985 . S
H362 N356 0.984 . S
H363 N356 0.984 . S
H364 N352 0.984 . S
H365 N352 0.985 1_556 S
C366 C367 1.363 . S
C366 C372 1.379 1_655 S
C366 N374 1.356 . S
C367 C366 1.363 . S
C367 C373 1.363 . S
C368 C369 1.363 . S
C368 C373 1.379 1_455 S
C368 N375 1.356 . S
C369 C368 1.363 . S
C369 C372 1.363 . S
N370 C372 1.356 . S
N370 H382 0.984 . S
N370 H383 0.985 . S
N371 C373 1.356 . S
N371 H376 0.984 . S
N371 H377 0.985 . S
C372 C366 1.379 1_455 S
C372 C369 1.363 . S
C372 N370 1.356 . S
C373 C367 1.363 . S
C373 C368 1.379 1_655 S
C373 N371 1.356 . S
N374 C366 1.356 . S
N374 H380 0.984 . S
N374 H381 0.984 . S
N375 C368 1.356 . S
N375 H378 0.984 . S
N375 H379 0.985 . S
H376 N371 0.984 . S
H377 N371 0.985 . S
H378 N375 0.984 . S
H379 N375 0.985 . S
H380 N374 0.984 . S
H381 N374 0.984 . S
H382 N370 0.984 . S
H383 N370 0.985 . S
C384 C385 1.363 1_545 S
C384 C390 1.379 . S
C384 N392 1.356 . S
C385 C384 1.363 1_565 S
C385 C391 1.363 1_554 S
C386 C387 1.363 1_565 S
C386 C391 1.379 . S
C386 N393 1.356 . S
C387 C386 1.363 1_545 S
C387 C390 1.363 1_556 S
N388 C390 1.356 . S
N388 H400 0.984 . S
N388 H401 0.985 1_554 S
N389 C391 1.356 . S
N389 H394 0.984 1_556 S
N389 H395 0.985 . S
C390 C384 1.379 . S
C390 C387 1.363 1_554 S
C390 N388 1.356 . S
C391 C385 1.363 1_556 S
C391 C386 1.379 . S
C391 N389 1.356 . S
N392 C384 1.356 . S
N392 H398 0.984 . S
N392 H399 0.984 1_545 S
N393 C386 1.356 . S
N393 H396 0.984 1_565 S
N393 H397 0.985 . S
H394 N389 0.984 1_554 S
H395 N389 0.985 . S
H396 N393 0.984 1_545 S
H397 N393 0.985 . S
H398 N392 0.984 . S
H399 N392 0.984 1_565 S
H400 N388 0.984 . S
H401 N388 0.985 1_556 S
C402 C403 1.363 . S
C402 C408 1.379 . S
C402 N410 1.356 . S
C403 C402 1.363 . S
C403 C409 1.363 . S
C404 C405 1.363 . S
C404 C409 1.379 . S
C404 N411 1.356 . S
C405 C404 1.363 . S
C405 C408 1.363 . S
N406 C408 1.356 . S
N406 H418 0.984 . S
N406 H419 0.985 . S
N407 C409 1.356 . S
N407 H412 0.984 . S
N407 H413 0.985 . S
C408 C402 1.379 . S
C408 C405 1.363 . S
C408 N406 1.356 . S
C409 C403 1.363 . S
C409 C404 1.379 . S
C409 N407 1.356 . S
N410 C402 1.356 . S
N410 H416 0.984 . S
N410 H417 0.984 . S
N411 C404 1.356 . S
N411 H414 0.984 . S
N411 H415 0.985 . S
H412 N407 0.984 . S
H413 N407 0.985 . S
H414 N411 0.984 . S
H415 N411 0.985 . S
H416 N410 0.984 . S
H417 N410 0.984 . S
H418 N406 0.984 . S
H419 N406 0.985 . S
C420 C421 1.363 1_455 S
C420 C426 1.379 . S
C420 N428 1.356 . S
C421 C420 1.363 1_655 S
C421 C427 1.363 1_556 S
C422 C423 1.363 1_655 S
C422 C427 1.379 . S
C422 N429 1.356 . S
C423 C422 1.363 1_455 S
C423 C426 1.363 1_554 S
N424 C426 1.356 . S
N424 H436 0.984 . S
N424 H437 0.985 1_556 S
N425 C427 1.356 . S
N425 H430 0.984 1_554 S
N425 H431 0.985 . S
C426 C420 1.379 . S
C426 C423 1.363 1_556 S
C426 N424 1.356 . S
C427 C421 1.363 1_554 S
C427 C422 1.379 . S
C427 N425 1.356 . S
N428 C420 1.356 . S
N428 H434 0.984 . S
N428 H435 0.984 1_455 S
N429 C422 1.356 . S
N429 H432 0.984 1_655 S
N429 H433 0.985 . S
H430 N425 0.984 1_556 S
H431 N425 0.985 . S
H432 N429 0.984 1_455 S
H433 N429 0.985 . S
H434 N428 0.984 . S
H435 N428 0.984 1_655 S
H436 N424 0.984 . S
H437 N424 0.985 1_554 S
C438 C439 1.363 . S
C438 C444 1.379 . S
C438 N446 1.356 . S
C439 C438 1.363 . S
C439 C445 1.363 1_565 S
C440 C441 1.363 . S
C440 C445 1.379 . S
C440 N447 1.356 . S
C441 C440 1.363 . S
C441 C444 1.363 1_545 S
N442 C444 1.356 . S
N442 H454 0.984 . S
N442 H455 0.985 1_565 S
N443 C445 1.356 . S
N443 H448 0.984 1_545 S
N443 H449 0.985 . S
C444 C438 1.379 . S
C444 C441 1.363 1_565 S
C444 N442 1.356 . S
C445 C439 1.363 1_545 S
C445 C440 1.379 . S
C445 N443 1.356 . S
N446 C438 1.356 . S
N446 H452 0.984 . S
N446 H453 0.984 . S
N447 C440 1.356 . S
N447 H450 0.984 . S
N447 H451 0.985 . S
H448 N443 0.984 1_565 S
H449 N443 0.985 . S
H450 N447 0.984 . S
H451 N447 0.985 . S
H452 N446 0.984 . S
H453 N446 0.984 . S
H454 N442 0.984 . S
H455 N442 0.985 1_545 S
C133 C15 1.475 . S
C135 C103 1.479 . S
C151 C40 1.463 . S
C153 C117 1.441 . S
C169 C10 1.429 . S
C171 C54 1.427 . S
C187 C81 1.475 . S
C189 C29 1.479 . S
C205 C59 1.441 . S
C207 C98 1.463 . S
C223 C76 1.429 . S
C225 C128 1.427 . S
C241 C120 1.485 . S
C243 C8 1.485 . S
C259 C43 1.542 . S
C261 C7 1.542 . S
C277 C32 1.518 . S
C279 C51 1.510 . S
C295 C52 1.485 . S
C297 C74 1.485 . S
C313 C73 1.542 . S
C315 C95 1.542 . S
C331 C131 1.510 . S
C333 C96 1.518 . S
C349 C62 1.485 . S
C351 C84 1.485 . S
C367 C87 1.540 . S
C369 C109 1.540 . S
C385 C106 1.517 . S
C387 C125 1.509 . S
C403 C118 1.485 . S
C405 C18 1.485 . S
C421 C37 1.540 . S
C423 C21 1.540 . S
C439 C65 1.509 . S
C441 C30 1.517 . S
