# Generated by pormake.
# Topology uni, (4)-cn, num edge types: 1
# Building blocks:
#     Node 0, Type 0, BuildingBlock: AZAVOO_clean_sbu_0, # of connection points: 4
#     Node 1, Type 0, BuildingBlock: AZAVOO_clean_sbu_0, # of connection points: 4
#     Node 2, Type 0, BuildingBlock: AZAVOO_clean_sbu_0, # of connection points: 4
#     Node 3, Type 0, BuildingBlock: AZAVOO_clean_sbu_0, # of connection points: 4
#     Node 4, Type 0, BuildingBlock: AZAVOO_clean_sbu_0, # of connection points: 4
#     Node 5, Type 0, BuildingBlock: AZAVOO_clean_sbu_0, # of connection points: 4
#     Edge 6, Type (0, 0), BuildingBlock: UVAHIK_clean_linker_0, # of connection points: 2
#     Edge 7, Type (0, 0), BuildingBlock: UVAHIK_clean_linker_0, # of connection points: 2
#     Edge 8, Type (0, 0), BuildingBlock: UVAHIK_clean_linker_0, # of connection points: 2
#     Edge 9, Type (0, 0), BuildingBlock: UVAHIK_clean_linker_0, # of connection points: 2
#     Edge 10, Type (0, 0), BuildingBlock: UVAHIK_clean_linker_0, # of connection points: 2
#     Edge 11, Type (0, 0), BuildingBlock: UVAHIK_clean_linker_0, # of connection points: 2
#     Edge 12, Type (0, 0), BuildingBlock: UVAHIK_clean_linker_0, # of connection points: 2
#     Edge 13, Type (0, 0), BuildingBlock: UVAHIK_clean_linker_0, # of connection points: 2
#     Edge 14, Type (0, 0), BuildingBlock: UVAHIK_clean_linker_0, # of connection points: 2
#     Edge 15, Type (0, 0), BuildingBlock: UVAHIK_clean_linker_0, # of connection points: 2
#     Edge 16, Type (0, 0), BuildingBlock: UVAHIK_clean_linker_0, # of connection points: 2
#     Edge 17, Type (0, 0), BuildingBlock: UVAHIK_clean_linker_0, # of connection points: 2
# Relax obj value: 0.055
# Max RMSD: 0.097
# Mean RMSD: 0.097
data_MOF--net-uni--node1-AZAVOO_clean_sbu_0--edge1-UVAHIK_clean_linker_0
_symmetry_space_group_name_H-M    P1
_symmetry_Int_Tables_number       1
_symmetry_cell_setting            triclinic
loop_
_symmetry_equiv_pos_as_xyz
'x, y, z'
_cell_length_a     51.120241
_cell_length_b     51.257979
_cell_length_c     28.265803
_cell_angle_alpha  90.024516
_cell_angle_beta   90.014635
_cell_angle_gamma 119.99955
loop_
_atom_site_label
_atom_site_type_symbol
_atom_site_fract_x
_atom_site_fract_y
_atom_site_fract_z
_atom_type_partial_charge
Mg0 Mg 0.65329 0.02814 0.0243 0.0
O1 O 0.62805 0.03598 0.08475 0.0
O2 O 0.62292 0.07538 0.06474 0.0
Mg3 Mg 0.64263 0.09103 0.99081 0.0
C4 C 0.61907 0.05466 0.09372 0.0
C5 C 0.67214 0.98235 0.05078 0.0
O6 O 0.67707 0.98587 0.00497 0.0
O7 O 0.69739 0.06961 0.04517 0.0
O8 O 0.69046 0.10699 0.01983 0.0
O9 O 0.60975 0.99657 0.98991 0.0
O10 O 0.63514 0.04553 0.97581 0.0
C11 C 0.70697 0.09757 0.03859 0.0
C12 C 0.61127 0.0197 0.96879 0.0
O13 O 0.66275 -0.00197 0.07171 0.0
Mg14 Mg 0.63532 0.64627 0.19681 0.0
O15 O 0.59876 0.62151 0.25284 0.0
O16 O 0.55481 0.61452 0.22496 0.0
Mg17 Mg 0.56305 0.63386 0.15014 0.0
C18 C 0.57054 0.61177 0.25756 0.0
C19 C 0.69518 0.67966 0.25926 0.0
O20 O 0.69972 0.70363 0.23561 0.0
O21 O 0.6364 0.69053 0.21307 0.0
O22 O 0.59261 0.68122 0.18076 0.0
O23 O 0.62443 0.60215 0.16476 0.0
O24 O 0.60296 0.62849 0.14332 0.0
C25 C 0.61731 0.69873 0.20222 0.0
C26 C 0.60459 0.60434 0.13921 0.0
O27 O 0.6713 0.65463 0.25174 0.0
Mg28 Mg -0.0011 0.646 0.35079 0.0
O29 O 0.98916 0.60894 0.40476 0.0
O30 O 0.94963 0.56595 0.37958 0.0
Mg31 Mg 0.93528 0.57532 0.3079 0.0
C32 C 0.97019 0.58096 0.41006 0.0
C33 C 0.0292 0.70457 0.41689 0.0
O34 O 0.00889 0.71015 0.39857 0.0
O35 O 0.95755 0.64828 0.37462 0.0
O36 O 0.91997 0.60577 0.34404 0.0
O37 O 0.03006 0.63518 0.31249 0.0
O38 O 0.98128 0.61383 0.29665 0.0
C39 C 0.9295 0.6305 0.36666 0.0
C40 C 0.00692 0.61546 0.28873 0.0
O41 O 0.02956 0.68088 0.40473 0.0
Mg42 Mg 0.36999 0.00122 0.52375 0.0
O43 O 0.39596 0.99417 0.58352 0.0
O44 O 0.40348 0.95628 0.56348 0.0
Mg45 Mg 0.38387 0.94057 0.48927 0.0
C46 C 0.40625 0.9766 0.59252 0.0
C47 C 0.34391 0.04096 0.55813 0.0
O48 O 0.33433 0.03592 0.51412 0.0
O49 O 0.32686 0.95862 0.54364 0.0
O50 O 0.33547 0.92239 0.51786 0.0
O51 O 0.41322 0.03422 0.49026 0.0
O52 O 0.38927 0.98541 0.47456 0.0
C53 C 0.31819 0.93088 0.53665 0.0
C54 C 0.41264 0.01171 0.46841 0.0
O55 O 0.35893 0.02914 0.57348 0.0
Mg56 Mg 0.37501 0.37205 0.69584 0.0
O57 O 0.41128 0.39623 0.75268 0.0
O58 O 0.45561 0.40462 0.7244 0.0
Mg59 Mg 0.44755 0.38515 0.64964 0.0
C60 C 0.43963 0.40662 0.75734 0.0
C61 C 0.34013 0.38392 0.77375 0.0
O62 O 0.36374 0.41081 0.76728 0.0
O63 O 0.37436 0.32819 0.71139 0.0
O64 O 0.41805 0.33729 0.67922 0.0
O65 O 0.38486 0.41595 0.66463 0.0
O66 O 0.40794 0.39117 0.64303 0.0
C67 C 0.39325 0.31979 0.70042 0.0
C68 C 0.40539 0.41486 0.63932 0.0
O69 O 0.33815 0.36188 0.75014 0.0
Mg70 Mg 0.01762 0.38504 0.84905 0.0
O71 O 0.02478 0.42168 0.90247 0.0
O72 O 0.06251 0.46571 0.87673 0.0
Mg73 Mg 0.07822 0.45743 0.80554 0.0
C74 C 0.04237 0.45 0.90733 0.0
C75 C 0.99055 0.32637 0.91396 0.0
O76 O 0.0111 0.32202 0.89339 0.0
O77 O 0.06064 0.38627 0.87377 0.0
O78 O 0.09635 0.42986 0.84316 0.0
O79 O 0.98457 0.39291 0.80996 0.0
O80 O 0.03352 0.41694 0.79462 0.0
C81 C 0.08834 0.40557 0.86624 0.0
C82 C 0.00716 0.41352 0.78635 0.0
O83 O 0.98876 0.34952 0.90342 0.0
C84 C 0.60039 0.07596 0.15609 0.0
C85 C 0.60245 0.0515 0.13814 0.0
C86 C 0.58297 0.07253 0.19613 0.0
C87 C 0.54182 0.0204 0.29632 0.0
H88 H 0.49681 0.06286 0.29466 0.0
C89 C 0.4383 0.9918 0.41584 0.0
C90 C 0.43772 0.01636 0.43689 0.0
C91 C 0.46088 0.99656 0.3833 0.0
C92 C 0.50948 0.0511 0.29585 0.0
H93 H 0.58831 0.00437 0.14861 0.0
H94 H 0.55695 -0.00198 0.21737 0.0
H95 H 0.53137 0.07022 0.23035 0.0
H96 H 0.46083 0.06516 0.44116 0.0
H97 H 0.49986 0.07336 0.38382 0.0
H98 H 0.51862 0.00038 0.36121 0.0
C99 C 0.56941 0.02012 0.20139 0.0
C100 C 0.52945 0.05541 0.25909 0.0
C101 C 0.58728 0.02369 0.16176 0.0
C102 C 0.46058 0.04573 0.42556 0.0
C103 C 0.48288 0.05047 0.39262 0.0
C104 C 0.52144 0.01576 0.33282 0.0
C105 C 0.56668 0.0444 0.21873 0.0
C106 C 0.54596 0.04017 0.25879 0.0
C107 C 0.48302 0.02595 0.37073 0.0
C108 C 0.50514 0.03113 0.33291 0.0
H109 H 0.61215 0.09779 0.13903 0.0
H110 H 0.58211 0.09197 0.20909 0.0
H111 H 0.55442 0.0086 0.29773 0.0
H112 H 0.421 0.96891 0.42366 0.0
H113 H 0.46037 0.97727 0.36665 0.0
C114 C 0.5278 0.59364 0.31525 0.0
C115 C 0.55537 0.59607 0.30174 0.0
C116 C 0.51293 0.57784 0.35609 0.0
C117 C 0.52357 0.54331 0.46573 0.0
H118 H 0.43617 0.49539 0.46075 0.0
C119 C 0.45054 0.44115 0.58626 0.0
C120 C 0.42491 0.43978 0.60703 0.0
C121 C 0.46779 0.46359 0.55341 0.0
C122 C 0.46055 0.50896 0.46282 0.0
H123 H 0.58907 0.58399 0.32053 0.0
H124 H 0.56261 0.55537 0.39046 0.0
H125 H 0.46361 0.52783 0.39439 0.0
H126 H 0.3975 0.46116 0.61 0.0
H127 H 0.4273 0.49995 0.55148 0.0
H128 H 0.52023 0.5229 0.53338 0.0
C129 C 0.55281 0.56642 0.37057 0.0
C130 C 0.47635 0.52769 0.42489 0.0
C131 C 0.56794 0.58268 0.3302 0.0
C132 C 0.41717 0.46165 0.59475 0.0
C133 C 0.43412 0.48377 0.56119 0.0
C134 C 0.50775 0.52414 0.5033 0.0
C135 C 0.52498 0.56361 0.38394 0.0
C136 C 0.50811 0.54496 0.42562 0.0
C137 C 0.45944 0.48477 0.54001 0.0
C138 C 0.47614 0.50667 0.50199 0.0
H139 H 0.51773 0.60403 0.29431 0.0
H140 H 0.49192 0.57679 0.36571 0.0
H141 H 0.54793 0.5567 0.46813 0.0
H142 H 0.45712 0.42468 0.59468 0.0
H143 H 0.48708 0.46374 0.53722 0.0
C144 C 0.97335 0.42529 0.73808 0.0
C145 C 0.0027 0.43257 0.75168 0.0
C146 C 0.96893 0.44221 0.70358 0.0
C147 C 0.00387 0.51577 0.64608 0.0
H148 H 0.95281 0.47266 0.53928 0.0
C149 C -0.00015 0.57728 0.47765 0.0
C150 C 0.97263 0.56523 0.45224 0.0
C151 C 0.00265 0.56171 0.51609 0.0
C152 C 0.96668 0.48511 0.56919 0.0
H153 H 0.05039 0.46367 0.74005 0.0
H154 H 0.04258 0.49366 0.68067 0.0
H155 H 0.95895 0.44466 0.60372 0.0
H156 H 0.92663 0.52794 0.44827 0.0
H157 H 0.93107 0.50136 0.51636 0.0
H158 H 0.0112 0.5562 0.61238 0.0
C159 C 0.02307 0.47477 0.69675 0.0
C160 C 0.97029 0.46901 0.60599 0.0
C161 C 0.02751 0.45754 0.7307 0.0
C162 C 0.94802 0.53765 0.46683 0.0
C163 C 0.95066 0.52232 0.50574 0.0
C164 C -0.0001 0.53189 0.60963 0.0
C165 C 0.99375 0.46703 0.68249 0.0
C166 C 0.9891 0.48419 0.64455 0.0
C167 C 0.97814 0.53393 0.53054 0.0
C168 C 0.98145 0.51679 0.57045 0.0
H169 H 0.95374 0.40615 0.75345 0.0
H170 H 0.94609 0.43591 0.69334 0.0
H171 H 0.01829 0.52796 0.67571 0.0
H172 H 0.01931 0.59839 0.46709 0.0
H173 H 0.02433 0.57118 0.53367 0.0
C174 C 0.58595 0.0415 0.91959 0.0
C175 C 0.58666 0.01625 0.93721 0.0
C176 C 0.56366 0.03799 0.88734 0.0
C177 C 0.49029 0.98012 0.83384 0.0
H178 H 0.51525 0.0381 0.73156 0.0
C179 C 0.42813 0.95797 0.65435 0.0
C180 C 0.42317 0.98085 0.63704 0.0
C181 C 0.44552 0.96266 0.69499 0.0
C182 C 0.50788 0.02193 0.76022 0.0
H183 H 0.56432 0.96747 0.93523 0.0
H184 H 0.52633 0.96137 0.87787 0.0
H185 H 0.55052 0.04582 0.79517 0.0
H186 H 0.43226 0.02646 0.64921 0.0
H187 H 0.46319 0.03478 0.71967 0.0
H188 H 0.44807 0.95557 0.79713 0.0
C189 C 0.54233 0.9839 0.88982 0.0
C190 C 0.52802 0.02639 0.79689 0.0
C191 C 0.56431 0.98741 0.92256 0.0
C192 C 0.43559 0.00835 0.66168 0.0
C193 C 0.4534 0.0132 0.70185 0.0
C194 C 0.47033 0.97544 0.79673 0.0
C195 C 0.54185 0.00915 0.87137 0.0
C196 C 0.51962 0.0054 0.83403 0.0
C197 C 0.45868 0.99047 0.71867 0.0
C198 C 0.47904 0.99619 0.75943 0.0
H199 H 0.60275 0.06402 0.93026 0.0
H200 H 0.56371 0.05795 0.87471 0.0
H201 H 0.48274 0.96379 0.86225 0.0
H202 H 0.41879 0.93651 0.63628 0.0
H203 H 0.44945 0.94486 0.7071 0.0
C204 C 0.56636 0.58489 0.07428 0.0
C205 C 0.58421 0.57996 0.10678 0.0
C206 C 0.54838 0.5627 0.04159 0.0
C207 C 0.50173 0.5079 0.98893 0.0
H208 H 0.53584 0.46413 0.92726 0.0
C209 C 0.43741 0.42158 0.84116 0.0
C210 C 0.45459 0.42224 0.80185 0.0
C211 C 0.4516 0.43737 0.88243 0.0
C212 C 0.52603 0.47625 0.94397 0.0
H213 H 0.59664 0.54756 0.13137 0.0
H214 H 0.56471 0.50844 0.07477 0.0
H215 H 0.56325 0.49856 0.99172 0.0
H216 H 0.50021 0.4398 0.77539 0.0
H217 H 0.52486 0.46789 0.84665 0.0
H218 H 0.46531 0.48687 0.93958 0.0
C219 C 0.56504 0.52973 0.074 0.0
C220 C 0.54156 0.4957 0.98144 0.0
C221 C 0.58321 0.55207 0.1066 0.0
C222 C 0.48626 0.43867 0.80504 0.0
C223 C 0.50043 0.45464 0.84613 0.0
C224 C 0.48632 0.48864 0.95125 0.0
C225 C 0.54764 0.53491 0.04075 0.0
C226 C 0.52984 0.51215 0.00387 0.0
C227 C 0.4833 0.4544 0.88523 0.0
C228 C 0.4985 0.47293 0.9278 0.0
H229 H 0.56683 0.60625 0.07316 0.0
H230 H 0.53577 0.56775 0.01599 0.0
H231 H 0.49178 0.51982 0.00589 0.0
H232 H 0.41296 0.40897 0.84005 0.0
H233 H 0.4377 0.43628 0.91211 0.0
C234 C 0.06308 0.49306 0.96441 0.0
C235 C 0.03902 0.46525 0.94938 0.0
C236 C 0.05977 0.50791 0.00337 0.0
C237 C 0.00983 0.49675 0.10691 0.0
H238 H 0.05054 0.58401 0.10309 0.0
C239 C 0.98466 0.57147 0.23276 0.0
C240 C 0.01013 0.59583 0.25365 0.0
C241 C 0.98809 0.55405 0.19785 0.0
C242 C 0.03921 0.55965 0.10472 0.0
H243 H 0.99258 0.43114 0.96341 0.0
H244 H 0.98632 0.45757 0.03015 0.0
H245 H 0.05638 0.55667 0.0374 0.0
H246 H 0.05915 0.62082 0.25461 0.0
H247 H 0.06502 0.59081 0.19296 0.0
H248 H 0.99179 0.50009 0.17375 0.0
C249 C 0.0081 0.46759 0.01284 0.0
C250 C 0.04268 0.54391 0.06722 0.0
C251 C 0.01161 0.45248 0.97434 0.0
C252 C 0.03906 0.60218 0.2393 0.0
C253 C 0.04246 0.58512 0.2039 0.0
C254 C 0.00596 0.51253 0.14408 0.0
C255 C 0.0321 0.4956 0.02776 0.0
C256 C 0.02819 0.51224 0.06787 0.0
C257 C 0.01703 0.56105 0.18265 0.0
C258 C 0.02078 0.54412 0.14339 0.0
H259 H 0.08462 0.5033 0.94624 0.0
H260 H 0.07902 0.52903 0.01441 0.0
H261 H -0.00131 0.47244 0.10913 0.0
H262 H 0.96209 0.56602 0.24285 0.0
H263 H 0.96813 0.53568 0.18173 0.0
C264 C 0.65532 0.75374 0.21118 0.0
C265 C 0.62503 0.7304 0.20908 0.0
C266 C 0.66254 0.78379 0.20572 0.0
C267 C 0.66862 0.84757 0.2026 0.0
H268 H 0.62822 0.85126 0.08863 0.0
C269 C 0.66861 0.9538 0.12502 0.0
C270 C 0.67366 0.95784 0.07594 0.0
C271 C 0.66633 0.92838 0.1474 0.0
C272 C 0.63969 0.85059 0.12045 0.0
H273 H 0.57853 0.72045 0.20542 0.0
H274 H 0.59117 0.77265 0.19614 0.0
H275 H 0.61583 0.80253 0.12134 0.0
H276 H 0.682 0.93928 0.01244 0.0
H277 H 0.6775 0.89485 0.05137 0.0
H278 H 0.69246 0.89604 0.20121 0.0
C279 C 0.6093 0.76774 0.20095 0.0
C280 C 0.63239 0.82273 0.13947 0.0
C281 C 0.6021 0.73787 0.20629 0.0
C282 C 0.6779 0.93679 0.05021 0.0
C283 C 0.67529 0.91132 0.07242 0.0
C284 C 0.67562 0.87567 0.18384 0.0
C285 C 0.63958 0.79081 0.19823 0.0
C286 C 0.64682 0.82088 0.18058 0.0
C287 C 0.66874 0.9065 0.12092 0.0
C288 C 0.66142 0.8773 0.14226 0.0
H289 H 0.67348 0.74869 0.21342 0.0
H290 H 0.68608 0.80121 0.20376 0.0
H291 H 0.68008 0.84668 0.23426 0.0
H292 H 0.66541 0.96973 0.14586 0.0
H293 H 0.66117 0.92506 0.18483 0.0
C294 C 0.9167 0.67068 0.3852 0.0
C295 C 0.90742 0.64 0.37941 0.0
C296 C 0.89529 0.68001 0.38846 0.0
C297 C 0.81388 0.65358 0.40573 0.0
H298 H 0.82582 0.71082 0.30671 0.0
C299 C 0.71549 0.65401 0.31027 0.0
C300 C 0.71916 0.68065 0.28996 0.0
C301 C 0.73934 0.65388 0.33408 0.0
C302 C 0.82229 0.69542 0.33542 0.0
H303 H 0.86854 0.59491 0.3765 0.0
H304 H 0.83133 0.61115 0.38269 0.0
H305 H 0.86678 0.70188 0.32769 0.0
H306 H 0.75017 0.72854 0.28162 0.0
H307 H 0.79173 0.72845 0.32407 0.0
H308 H 0.7691 0.64647 0.4126 0.0
C309 C 0.85507 0.62801 0.38446 0.0
C310 C 0.84584 0.69027 0.3474 0.0
C311 C 0.87641 0.61872 0.38057 0.0
C312 C 0.7467 0.70756 0.29644 0.0
C313 C 0.77057 0.70747 0.32057 0.0
C314 C 0.7904 0.65894 0.39409 0.0
C315 C 0.86426 0.6588 0.38678 0.0
C316 C 0.84152 0.66851 0.38145 0.0
C317 C 0.76744 0.68045 0.33856 0.0
C318 C 0.79393 0.67907 0.35749 0.0
H319 H 0.94043 0.68763 0.38447 0.0
H320 H 0.90297 0.70387 0.39056 0.0
H321 H 0.81007 0.63696 0.43256 0.0
H322 H 0.69456 0.63286 0.30613 0.0
H323 H 0.73611 0.63254 0.34679 0.0
C324 C 0.05532 0.75451 0.45878 0.0
C325 C 0.05362 0.727 0.44752 0.0
C326 C 0.08031 0.77686 0.48329 0.0
C327 C 0.14951 0.79139 0.55034 0.0
H328 H 0.18363 0.87071 0.494 0.0
C329 C 0.27653 0.87717 0.54258 0.0
C330 C 0.28624 0.90805 0.54601 0.0
C331 C 0.24579 0.85576 0.54418 0.0
C332 C 0.17417 0.84888 0.5109 0.0
H333 H 0.0761 0.7008 0.45538 0.0
H334 H 0.11968 0.73975 0.49673 0.0
H335 H 0.13311 0.83166 0.47167 0.0
H336 H 0.27128 0.94051 0.55685 0.0
H337 H 0.2176 0.90304 0.5592 0.0
H338 H 0.1915 0.80839 0.58747 0.0
C339 C 0.10165 0.7441 0.48748 0.0
C340 C 0.14511 0.82644 0.49816 0.0
C341 C 0.07669 0.72178 0.46327 0.0
C342 C 0.26461 0.91692 0.55387 0.0
C343 C 0.23384 0.8955 0.55503 0.0
C344 C 0.17869 0.81378 0.56277 0.0
C345 C 0.10414 0.77218 0.4969 0.0
C346 C 0.13275 0.79715 0.51663 0.0
C347 C 0.22409 0.86477 0.54891 0.0
C348 C 0.19161 0.84252 0.54217 0.0
H349 H 0.03779 0.75914 0.44753 0.0
H350 H 0.08127 0.79806 0.49063 0.0
H351 H 0.14044 0.76926 0.56604 0.0
H352 H 0.29257 0.86953 0.53681 0.0
H353 H 0.23897 0.83226 0.53902 0.0
C354 C 0.40624 0.27885 0.6976 0.0
C355 C 0.38519 0.28804 0.70811 0.0
C356 C 0.39758 0.24839 0.69731 0.0
C357 C 0.33025 0.1754 0.67563 0.0
H358 H 0.38673 0.14715 0.69825 0.0
C359 C 0.32929 0.08049 0.56773 0.0
C360 C 0.34019 0.06269 0.58772 0.0
C361 C 0.32924 0.10357 0.59391 0.0
C362 C 0.3703 0.15428 0.69257 0.0
H363 H 0.339 0.27243 0.73004 0.0
H364 H 0.32395 0.21908 0.72998 0.0
H365 H 0.39797 0.19614 0.72807 0.0
H366 H 0.35761 0.05373 0.65193 0.0
H367 H 0.35695 0.09364 0.69796 0.0
H368 H 0.30271 0.13364 0.63974 0.0
C369 C 0.34705 0.23554 0.72114 0.0
C370 C 0.37696 0.1826 0.70922 0.0
C371 C 0.35574 0.26613 0.72144 0.0
C372 C 0.34941 0.06731 0.63532 0.0
C373 C 0.34914 0.09027 0.66165 0.0
C374 C 0.32347 0.14696 0.65929 0.0
C375 C 0.36767 0.22629 0.7077 0.0
C376 C 0.35763 0.194 0.69924 0.0
C377 C 0.33984 0.10922 0.64085 0.0
C378 C 0.344 0.13658 0.6659 0.0
H379 H 0.42917 0.29509 0.6875 0.0
H380 H 0.41401 0.24217 0.68625 0.0
H381 H 0.31486 0.18346 0.66715 0.0
H382 H 0.32199 0.0775 0.53117 0.0
H383 H 0.3223 0.11792 0.57642 0.0
C384 C 0.14232 0.42185 0.88321 0.0
C385 C 0.11204 0.39866 0.88063 0.0
C386 C 0.16543 0.41515 0.88906 0.0
C387 C 0.18204 0.35725 0.8549 0.0
H388 H 0.25663 0.40655 0.92341 0.0
C389 C 0.2887 0.35191 0.80938 0.0
C390 C 0.31471 0.38027 0.80355 0.0
C391 C 0.26331 0.34929 0.83257 0.0
C392 C 0.23597 0.39255 0.90402 0.0
H393 H 0.08209 0.35032 0.88515 0.0
H394 H 0.1227 0.33859 0.89459 0.0
H395 H 0.21228 0.4111 0.9407 0.0
H396 H 0.33508 0.42786 0.81993 0.0
H397 H 0.29086 0.42348 0.85894 0.0
H398 H 0.20598 0.34013 0.81593 0.0
C399 C 0.12843 0.36195 0.89214 0.0
C400 C 0.21055 0.39508 0.91413 0.0
C401 C 0.10522 0.36869 0.88693 0.0
C402 C 0.31538 0.40567 0.82361 0.0
C403 C 0.29001 0.4031 0.84646 0.0
C404 C 0.2075 0.35493 0.84446 0.0
C405 C 0.1588 0.38509 0.89194 0.0
C406 C 0.18364 0.37817 0.88856 0.0
C407 C 0.26336 0.375 0.85019 0.0
C408 C 0.23509 0.37333 0.86772 0.0
H409 H 0.1483 0.44518 0.87883 0.0
H410 H 0.18862 0.43346 0.88836 0.0
H411 H 0.16172 0.34416 0.83423 0.0
H412 H 0.28758 0.33184 0.79475 0.0
H413 H 0.24337 0.32723 0.83554 0.0
C414 C 0.94468 0.30748 0.96494 0.0
C415 C 0.96756 0.3032 0.94551 0.0
C416 C 0.92091 0.28447 0.99017 0.0
C417 C 0.87919 0.20208 0.99709 0.0
H418 H 0.83492 0.21738 0.09418 0.0
C419 C 0.76045 0.11023 0.05331 0.0
C420 C 0.73906 0.11968 0.04849 0.0
C421 C 0.79133 0.13136 0.05459 0.0
C422 C 0.84716 0.21273 0.06735 0.0
H423 H 0.98441 0.27199 0.93994 0.0
H424 H 0.94296 0.2318 0.98466 0.0
H425 H 0.88526 0.25733 0.07133 0.0
H426 H 0.73319 0.15873 0.04506 0.0
H427 H 0.7869 0.19547 0.04753 0.0
H428 H 0.84072 0.15782 0.99207 0.0
C429 C 0.94317 0.25284 0.97954 0.0
C430 C 0.87593 0.2356 0.05412 0.0
C431 C 0.96699 0.27591 0.95408 0.0
C432 C 0.74908 0.15069 0.0484 0.0
C433 C 0.77988 0.17177 0.05019 0.0
C434 C 0.85054 0.17917 0.01059 0.0
C435 C 0.91945 0.2566 0.99688 0.0
C436 C 0.8918 0.2309 0.01754 0.0
C437 C 0.80136 0.16232 0.05173 0.0
C438 C 0.8338 0.18459 0.04463 0.0
H439 H 0.94446 0.32827 0.95922 0.0
H440 H 0.9029 0.28811 0.00234 0.0
H441 H 0.89054 0.19769 0.96847 0.0
H442 H 0.7535 0.0865 0.05359 0.0
H443 H 0.80741 0.12347 0.05619 0.0
loop_
_geom_bond_atom_site_label_1
_geom_bond_atom_site_label_2
_geom_bond_distance
_geom_bond_site_symmetry_2
_ccdc_geom_bond_type
Mg0 O1 2.028 . S
Mg0 O7 1.986 . S
Mg0 O9 2.114 1_545 S
Mg0 O10 2.251 . S
Mg0 O13 2.010 1_545 S
O1 Mg0 2.028 . S
O1 C4 1.250 . S
O2 Mg3 2.028 . S
O2 C4 1.248 . S
Mg3 O2 2.028 . S
Mg3 O8 2.032 . S
Mg3 O10 2.079 . S
C4 O1 1.250 . S
C4 O2 1.248 . S
C5 O6 1.264 . S
C5 O13 1.249 . S
O6 C5 1.264 . S
O7 Mg0 1.986 . S
O7 C11 1.246 . S
O8 Mg3 2.032 . S
O8 C11 1.259 . S
O9 Mg0 2.114 1_565 S
O9 C12 1.252 1_564 S
O10 Mg0 2.251 . S
O10 Mg3 2.079 . S
O10 C12 1.273 1_554 S
C11 O7 1.246 . S
C11 O8 1.259 . S
C12 O9 1.252 1_546 S
C12 O10 1.273 1_556 S
O13 Mg0 2.010 1_565 S
O13 C5 1.249 . S
Mg14 O15 2.028 . S
Mg14 O21 1.986 . S
Mg14 O23 2.114 . S
Mg14 O24 2.251 . S
Mg14 O27 2.010 . S
O15 Mg14 2.028 . S
O15 C18 1.250 . S
O16 Mg17 2.028 . S
O16 C18 1.248 . S
Mg17 O16 2.028 . S
Mg17 O22 2.032 . S
Mg17 O24 2.079 . S
C18 O15 1.250 . S
C18 O16 1.248 . S
C19 O20 1.264 . S
C19 O27 1.249 . S
O20 C19 1.264 . S
O21 Mg14 1.986 . S
O21 C25 1.246 . S
O22 Mg17 2.032 . S
O22 C25 1.259 . S
O23 Mg14 2.114 . S
O23 C26 1.252 . S
O24 Mg14 2.251 . S
O24 Mg17 2.079 . S
O24 C26 1.273 . S
C25 O21 1.246 . S
C25 O22 1.259 . S
C26 O23 1.252 . S
C26 O24 1.273 . S
O27 Mg14 2.010 . S
O27 C19 1.249 . S
Mg28 O29 2.028 . S
Mg28 O35 1.986 1_455 S
Mg28 O37 2.114 . S
Mg28 O38 2.251 1_455 S
Mg28 O41 2.010 . S
O29 Mg28 2.028 . S
O29 C32 1.250 . S
O30 Mg31 2.028 . S
O30 C32 1.248 1_655 S
Mg31 O30 2.028 . S
Mg31 O36 2.032 . S
Mg31 O38 2.079 . S
C32 O29 1.250 . S
C32 O30 1.248 1_455 S
C33 O34 1.264 . S
C33 O41 1.249 . S
O34 C33 1.264 . S
O35 Mg28 1.986 1_655 S
O35 C39 1.246 . S
O36 Mg31 2.032 . S
O36 C39 1.259 . S
O37 Mg28 2.114 . S
O37 C40 1.252 . S
O38 Mg28 2.251 1_655 S
O38 Mg31 2.079 . S
O38 C40 1.273 1_655 S
C39 O35 1.246 . S
C39 O36 1.259 . S
C40 O37 1.252 . S
C40 O38 1.273 1_455 S
O41 Mg28 2.010 . S
O41 C33 1.249 . S
Mg42 O43 2.028 . S
Mg42 O49 1.986 1_545 S
Mg42 O51 2.114 . S
Mg42 O52 2.245 1_545 S
Mg42 O55 2.010 . S
O43 Mg42 2.028 . S
O43 C46 1.250 . S
O44 Mg45 2.028 . S
O44 C46 1.248 1_565 S
Mg45 O44 2.028 . S
Mg45 O50 2.032 . S
Mg45 O52 2.085 . S
C46 O43 1.250 . S
C46 O44 1.248 1_545 S
C47 O48 1.264 . S
C47 O55 1.249 . S
O48 C47 1.264 . S
O49 Mg42 1.986 1_565 S
O49 C53 1.246 . S
O50 Mg45 2.032 . S
O50 C53 1.259 . S
O51 Mg42 2.114 . S
O51 C54 1.252 . S
O52 Mg42 2.245 1_565 S
O52 Mg45 2.085 . S
O52 C54 1.268 1_565 S
C53 O49 1.246 . S
C53 O50 1.259 . S
C54 O51 1.252 . S
C54 O52 1.268 1_545 S
O55 Mg42 2.010 . S
O55 C47 1.249 . S
Mg56 O57 2.028 . S
Mg56 O63 1.986 . S
Mg56 O65 2.114 . S
Mg56 O66 2.251 . S
Mg56 O69 2.010 . S
O57 Mg56 2.028 . S
O57 C60 1.250 . S
O58 Mg59 2.028 . S
O58 C60 1.248 . S
Mg59 O58 2.028 . S
Mg59 O64 2.032 . S
Mg59 O66 2.079 . S
C60 O57 1.250 . S
C60 O58 1.248 . S
C61 O62 1.264 . S
C61 O69 1.249 . S
O62 C61 1.264 . S
O63 Mg56 1.986 . S
O63 C67 1.246 . S
O64 Mg59 2.032 . S
O64 C67 1.259 . S
O65 Mg56 2.114 . S
O65 C68 1.252 . S
O66 Mg56 2.251 . S
O66 Mg59 2.079 . S
O66 C68 1.273 . S
C67 O63 1.246 . S
C67 O64 1.259 . S
C68 O65 1.252 . S
C68 O66 1.273 . S
O69 Mg56 2.010 . S
O69 C61 1.249 . S
Mg70 O71 2.028 . S
Mg70 O77 1.986 . S
Mg70 O79 2.114 1_455 S
Mg70 O80 2.251 . S
Mg70 O83 2.010 1_455 S
O71 Mg70 2.028 . S
O71 C74 1.250 . S
O72 Mg73 2.028 . S
O72 C74 1.248 . S
Mg73 O72 2.028 . S
Mg73 O78 2.032 . S
Mg73 O80 2.079 . S
C74 O71 1.250 . S
C74 O72 1.248 . S
C75 O76 1.264 . S
C75 O83 1.249 . S
O76 C75 1.264 . S
O77 Mg70 1.986 . S
O77 C81 1.246 . S
O78 Mg73 2.032 . S
O78 C81 1.259 . S
O79 Mg70 2.114 1_655 S
O79 C82 1.252 1_655 S
O80 Mg70 2.251 . S
O80 Mg73 2.079 . S
O80 C82 1.273 . S
C81 O77 1.246 . S
C81 O78 1.259 . S
C82 O79 1.252 1_455 S
C82 O80 1.273 . S
O83 Mg70 2.010 1_655 S
O83 C75 1.249 . S
C84 C85 1.349 . S
C84 C86 1.327 . S
C84 H109 0.950 . S
C85 C84 1.349 . S
C85 C101 1.349 . S
C86 C84 1.327 . S
C86 C105 1.429 . S
C86 H110 0.950 . S
C87 C104 1.587 . S
C87 C106 1.396 . S
C87 H111 0.913 1_545 S
H88 C92 0.949 . S
C89 C90 1.349 . S
C89 C91 1.327 . S
C89 H112 0.950 1_545 S
C90 C89 1.349 . S
C90 C102 1.349 . S
C91 C89 1.327 . S
C91 C107 1.429 . S
C91 H113 0.950 1_545 S
C92 H88 0.949 . S
C92 C100 1.574 . S
C92 C108 1.368 . S
H93 C101 0.950 1_565 S
H94 C99 0.922 1_565 S
H95 C100 0.949 . S
H96 C102 0.950 . S
H97 C103 0.950 . S
H98 C104 0.949 1_565 S
C99 H94 0.922 1_545 S
C99 C101 1.313 . S
C99 C105 1.471 . S
C100 C92 1.574 . S
C100 H95 0.949 . S
C100 C106 1.368 . S
C101 C85 1.349 . S
C101 H93 0.950 1_545 S
C101 C99 1.313 . S
C102 C90 1.349 . S
C102 H96 0.950 . S
C102 C103 1.327 . S
C103 H97 0.950 . S
C103 C102 1.327 . S
C103 C107 1.429 . S
C104 C87 1.587 . S
C104 H98 0.949 1_545 S
C104 C108 1.368 . S
C105 C86 1.429 . S
C105 C99 1.471 . S
C105 C106 1.523 . S
C106 C87 1.396 . S
C106 C100 1.368 . S
C106 C105 1.523 . S
C107 C91 1.429 . S
C107 C103 1.429 . S
C107 C108 1.523 . S
C108 C92 1.368 . S
C108 C104 1.368 . S
C108 C107 1.523 . S
H109 C84 0.950 . S
H110 C86 0.950 . S
H111 C87 0.913 1_565 S
H112 C89 0.950 1_565 S
H113 C91 0.950 1_565 S
C114 C115 1.349 . S
C114 C116 1.327 . S
C114 H139 0.950 . S
C115 C114 1.349 . S
C115 C131 1.349 . S
C116 C114 1.327 . S
C116 C135 1.429 . S
C116 H140 0.950 . S
C117 C134 1.574 . S
C117 C136 1.368 . S
C117 H141 0.949 . S
H118 C122 0.949 . S
C119 C120 1.349 . S
C119 C121 1.327 . S
C119 H142 0.950 . S
C120 C119 1.349 . S
C120 C132 1.349 . S
C121 C119 1.327 . S
C121 C137 1.429 . S
C121 H143 0.950 . S
C122 H118 0.949 . S
C122 C130 1.574 . S
C122 C138 1.368 . S
H123 C131 0.950 . S
H124 C129 0.950 . S
H125 C130 0.949 . S
H126 C132 0.950 . S
H127 C133 0.950 . S
H128 C134 0.949 . S
C129 H124 0.950 . S
C129 C131 1.327 . S
C129 C135 1.429 . S
C130 C122 1.574 . S
C130 H125 0.949 . S
C130 C136 1.368 . S
C131 C115 1.349 . S
C131 H123 0.950 . S
C131 C129 1.327 . S
C132 C120 1.349 . S
C132 H126 0.950 . S
C132 C133 1.327 . S
C133 H127 0.950 . S
C133 C132 1.327 . S
C133 C137 1.429 . S
C134 C117 1.574 . S
C134 H128 0.949 . S
C134 C138 1.368 . S
C135 C116 1.429 . S
C135 C129 1.429 . S
C135 C136 1.523 . S
C136 C117 1.368 . S
C136 C130 1.368 . S
C136 C135 1.523 . S
C137 C121 1.429 . S
C137 C133 1.429 . S
C137 C138 1.523 . S
C138 C122 1.368 . S
C138 C134 1.368 . S
C138 C137 1.523 . S
H139 C114 0.950 . S
H140 C116 0.950 . S
H141 C117 0.949 . S
H142 C119 0.950 . S
H143 C121 0.950 . S
C144 C145 1.349 1_655 S
C144 C146 1.327 . S
C144 H169 0.950 . S
C145 C144 1.349 1_455 S
C145 C161 1.349 . S
C146 C144 1.327 . S
C146 C165 1.429 1_655 S
C146 H170 0.950 . S
C147 C164 1.574 . S
C147 C166 1.368 . S
C147 H171 0.949 . S
H148 C152 0.949 . S
C149 C150 1.349 . S
C149 C151 1.327 . S
C149 H172 0.950 . S
C150 C149 1.349 . S
C150 C162 1.349 1_455 S
C151 C149 1.327 . S
C151 C167 1.429 . S
C151 H173 0.950 . S
C152 H148 0.949 . S
C152 C160 1.574 . S
C152 C168 1.368 1_655 S
H153 C161 0.950 . S
H154 C159 0.950 . S
H155 C160 0.949 . S
H156 C162 0.950 . S
H157 C163 0.950 . S
H158 C164 0.949 . S
C159 H154 0.950 . S
C159 C161 1.327 . S
C159 C165 1.429 . S
C160 C152 1.574 . S
C160 H155 0.949 . S
C160 C166 1.368 1_655 S
C161 C145 1.349 . S
C161 H153 0.950 . S
C161 C159 1.327 . S
C162 C150 1.349 1_655 S
C162 H156 0.950 . S
C162 C163 1.327 . S
C163 H157 0.950 . S
C163 C162 1.327 . S
C163 C167 1.429 1_655 S
C164 C147 1.574 . S
C164 H158 0.949 . S
C164 C168 1.368 . S
C165 C146 1.429 1_455 S
C165 C159 1.429 . S
C165 C166 1.523 . S
C166 C147 1.368 . S
C166 C160 1.368 1_455 S
C166 C165 1.523 . S
C167 C151 1.429 . S
C167 C163 1.429 1_455 S
C167 C168 1.523 . S
C168 C152 1.368 1_455 S
C168 C164 1.368 . S
C168 C167 1.523 . S
H169 C144 0.950 . S
H170 C146 0.950 . S
H171 C147 0.949 . S
H172 C149 0.950 . S
H173 C151 0.950 . S
C174 C175 1.349 . S
C174 C176 1.327 . S
C174 H199 0.950 . S
C175 C174 1.349 . S
C175 C191 1.349 1_545 S
C176 C174 1.327 . S
C176 C195 1.429 . S
C176 H200 0.950 . S
C177 C194 1.574 . S
C177 C196 1.368 1_565 S
C177 H201 0.949 . S
H178 C182 0.949 . S
C179 C180 1.349 1_565 S
C179 C181 1.327 . S
C179 H202 0.950 . S
C180 C179 1.349 1_545 S
C180 C192 1.349 . S
C181 C179 1.327 . S
C181 C197 1.429 1_565 S
C181 H203 0.950 . S
C182 H178 0.949 . S
C182 C190 1.574 . S
C182 C198 1.368 . S
H183 C191 0.950 . S
H184 C189 0.950 . S
H185 C190 0.949 . S
H186 C192 0.950 . S
H187 C193 0.950 . S
H188 C194 0.949 . S
C189 H184 0.950 . S
C189 C191 1.327 . S
C189 C195 1.429 1_565 S
C190 C182 1.574 . S
C190 H185 0.949 . S
C190 C196 1.368 . S
C191 C175 1.349 1_565 S
C191 H183 0.950 . S
C191 C189 1.327 . S
C192 C180 1.349 . S
C192 H186 0.950 . S
C192 C193 1.327 . S
C193 H187 0.950 . S
C193 C192 1.327 . S
C193 C197 1.429 . S
C194 C177 1.574 . S
C194 H188 0.949 . S
C194 C198 1.368 1_565 S
C195 C176 1.429 . S
C195 C189 1.429 1_545 S
C195 C196 1.523 . S
C196 C177 1.368 1_545 S
C196 C190 1.368 . S
C196 C195 1.523 . S
C197 C181 1.429 1_545 S
C197 C193 1.429 . S
C197 C198 1.523 . S
C198 C182 1.368 . S
C198 C194 1.368 1_545 S
C198 C197 1.523 . S
H199 C174 0.950 . S
H200 C176 0.950 . S
H201 C177 0.949 . S
H202 C179 0.950 . S
H203 C181 0.950 . S
C204 C205 1.349 . S
C204 C206 1.327 . S
C204 H229 0.950 . S
C205 C204 1.349 . S
C205 C221 1.349 . S
C206 C204 1.327 . S
C206 C225 1.429 . S
C206 H230 0.950 . S
C207 C224 1.574 1_554 S
C207 C226 1.368 . S
C207 H231 0.949 . S
H208 C212 0.949 . S
C209 C210 1.349 . S
C209 C211 1.327 . S
C209 H232 0.950 . S
C210 C209 1.349 . S
C210 C222 1.349 . S
C211 C209 1.327 . S
C211 C227 1.429 . S
C211 H233 0.950 . S
C212 H208 0.949 . S
C212 C220 1.574 . S
C212 C228 1.368 . S
H213 C221 0.950 . S
H214 C219 0.950 . S
H215 C220 0.949 . S
H216 C222 0.950 . S
H217 C223 0.950 . S
H218 C224 0.949 . S
C219 H214 0.950 . S
C219 C221 1.327 . S
C219 C225 1.429 . S
C220 C212 1.574 . S
C220 H215 0.949 . S
C220 C226 1.368 1_556 S
C221 C205 1.349 . S
C221 H213 0.950 . S
C221 C219 1.327 . S
C222 C210 1.349 . S
C222 H216 0.950 . S
C222 C223 1.327 . S
C223 H217 0.950 . S
C223 C222 1.327 . S
C223 C227 1.429 . S
C224 C207 1.574 1_556 S
C224 H218 0.949 . S
C224 C228 1.368 . S
C225 C206 1.429 . S
C225 C219 1.429 . S
C225 C226 1.523 . S
C226 C207 1.368 . S
C226 C220 1.368 1_554 S
C226 C225 1.523 . S
C227 C211 1.429 . S
C227 C223 1.429 . S
C227 C228 1.523 . S
C228 C212 1.368 . S
C228 C224 1.368 . S
C228 C227 1.523 . S
H229 C204 0.950 . S
H230 C206 0.950 . S
H231 C207 0.949 . S
H232 C209 0.950 . S
H233 C211 0.950 . S
C234 C235 1.349 1_554 S
C234 C236 1.327 . S
C234 H259 0.950 . S
C235 C234 1.349 1_556 S
C235 C251 1.348 1_456 S
C236 C234 1.327 . S
C236 C255 1.429 . S
C236 H260 0.950 . S
C237 C254 1.574 . S
C237 C256 1.368 1_655 S
C237 H261 0.949 . S
H238 C242 0.949 . S
C239 C240 1.349 1_655 S
C239 C241 1.327 . S
C239 H262 0.950 . S
C240 C239 1.349 1_455 S
C240 C252 1.349 . S
C241 C239 1.327 . S
C241 C257 1.429 1_655 S
C241 H263 0.950 . S
C242 H238 0.949 . S
C242 C250 1.574 . S
C242 C258 1.368 . S
H243 C251 0.943 1_556 S
H244 C249 0.950 . S
H245 C250 0.949 . S
H246 C252 0.950 . S
H247 C253 0.950 . S
H248 C254 0.949 . S
C249 H244 0.950 . S
C249 C251 1.335 . S
C249 C255 1.429 1_655 S
C250 C242 1.574 . S
C250 H245 0.949 . S
C250 C256 1.368 . S
C251 C235 1.348 1_654 S
C251 H243 0.943 1_554 S
C251 C249 1.335 . S
C252 C240 1.349 . S
C252 H246 0.950 . S
C252 C253 1.327 . S
C253 H247 0.950 . S
C253 C252 1.327 . S
C253 C257 1.429 . S
C254 C237 1.574 . S
C254 H248 0.949 . S
C254 C258 1.368 1_655 S
C255 C236 1.429 . S
C255 C249 1.429 1_455 S
C255 C256 1.523 . S
C256 C237 1.368 1_455 S
C256 C250 1.368 . S
C256 C255 1.523 . S
C257 C241 1.429 1_455 S
C257 C253 1.429 . S
C257 C258 1.523 . S
C258 C242 1.368 . S
C258 C254 1.368 1_455 S
C258 C257 1.523 . S
H259 C234 0.950 . S
H260 C236 0.950 . S
H261 C237 0.949 . S
H262 C239 0.950 . S
H263 C241 0.950 . S
C264 C265 1.349 . S
C264 C266 1.327 . S
C264 H289 0.950 . S
C265 C264 1.349 . S
C265 C281 1.349 . S
C266 C264 1.327 . S
C266 C285 1.429 . S
C266 H290 0.950 . S
C267 C284 1.574 . S
C267 C286 1.368 . S
C267 H291 0.949 . S
H268 C272 0.949 . S
C269 C270 1.349 . S
C269 C271 1.327 . S
C269 H292 0.950 . S
C270 C269 1.349 . S
C270 C282 1.349 . S
C271 C269 1.327 . S
C271 C287 1.429 . S
C271 H293 0.950 . S
C272 H268 0.949 . S
C272 C280 1.574 . S
C272 C288 1.368 . S
H273 C281 0.950 . S
H274 C279 0.950 . S
H275 C280 0.949 . S
H276 C282 0.950 . S
H277 C283 0.950 . S
H278 C284 0.949 . S
C279 H274 0.950 . S
C279 C281 1.327 . S
C279 C285 1.429 . S
C280 C272 1.574 . S
C280 H275 0.949 . S
C280 C286 1.368 . S
C281 C265 1.349 . S
C281 H273 0.950 . S
C281 C279 1.327 . S
C282 C270 1.349 . S
C282 H276 0.950 . S
C282 C283 1.327 . S
C283 H277 0.950 . S
C283 C282 1.327 . S
C283 C287 1.429 . S
C284 C267 1.574 . S
C284 H278 0.949 . S
C284 C288 1.368 . S
C285 C266 1.429 . S
C285 C279 1.429 . S
C285 C286 1.523 . S
C286 C267 1.368 . S
C286 C280 1.368 . S
C286 C285 1.523 . S
C287 C271 1.429 . S
C287 C283 1.429 . S
C287 C288 1.523 . S
C288 C272 1.368 . S
C288 C284 1.368 . S
C288 C287 1.523 . S
H289 C264 0.950 . S
H290 C266 0.950 . S
H291 C267 0.949 . S
H292 C269 0.950 . S
H293 C271 0.950 . S
C294 C295 1.349 . S
C294 C296 1.327 . S
C294 H319 0.950 . S
C295 C294 1.349 . S
C295 C311 1.349 . S
C296 C294 1.327 . S
C296 C315 1.429 . S
C296 H320 0.950 . S
C297 C314 1.574 . S
C297 C316 1.368 . S
C297 H321 0.949 . S
H298 C302 0.949 . S
C299 C300 1.349 . S
C299 C301 1.327 . S
C299 H322 0.950 . S
C300 C299 1.349 . S
C300 C312 1.349 . S
C301 C299 1.327 . S
C301 C317 1.429 . S
C301 H323 0.950 . S
C302 H298 0.949 . S
C302 C310 1.574 . S
C302 C318 1.368 . S
H303 C311 0.950 . S
H304 C309 0.950 . S
H305 C310 0.949 . S
H306 C312 0.950 . S
H307 C313 0.950 . S
H308 C314 0.949 . S
C309 H304 0.950 . S
C309 C311 1.327 . S
C309 C315 1.429 . S
C310 C302 1.574 . S
C310 H305 0.949 . S
C310 C316 1.368 . S
C311 C295 1.349 . S
C311 H303 0.950 . S
C311 C309 1.327 . S
C312 C300 1.349 . S
C312 H306 0.950 . S
C312 C313 1.327 . S
C313 H307 0.950 . S
C313 C312 1.327 . S
C313 C317 1.429 . S
C314 C297 1.574 . S
C314 H308 0.949 . S
C314 C318 1.368 . S
C315 C296 1.429 . S
C315 C309 1.429 . S
C315 C316 1.523 . S
C316 C297 1.368 . S
C316 C310 1.368 . S
C316 C315 1.523 . S
C317 C301 1.429 . S
C317 C313 1.429 . S
C317 C318 1.523 . S
C318 C302 1.368 . S
C318 C314 1.368 . S
C318 C317 1.523 . S
H319 C294 0.950 . S
H320 C296 0.950 . S
H321 C297 0.949 . S
H322 C299 0.950 . S
H323 C301 0.950 . S
C324 C325 1.349 . S
C324 C326 1.327 . S
C324 H349 0.950 . S
C325 C324 1.349 . S
C325 C341 1.349 . S
C326 C324 1.327 . S
C326 C345 1.429 . S
C326 H350 0.950 . S
C327 C344 1.574 . S
C327 C346 1.368 . S
C327 H351 0.949 . S
H328 C332 0.949 . S
C329 C330 1.349 . S
C329 C331 1.327 . S
C329 H352 0.950 . S
C330 C329 1.349 . S
C330 C342 1.349 . S
C331 C329 1.327 . S
C331 C347 1.429 . S
C331 H353 0.950 . S
C332 H328 0.949 . S
C332 C340 1.574 . S
C332 C348 1.368 . S
H333 C341 0.950 . S
H334 C339 0.950 . S
H335 C340 0.949 . S
H336 C342 0.950 . S
H337 C343 0.950 . S
H338 C344 0.949 . S
C339 H334 0.950 . S
C339 C341 1.327 . S
C339 C345 1.429 . S
C340 C332 1.574 . S
C340 H335 0.949 . S
C340 C346 1.368 . S
C341 C325 1.349 . S
C341 H333 0.950 . S
C341 C339 1.327 . S
C342 C330 1.349 . S
C342 H336 0.950 . S
C342 C343 1.327 . S
C343 H337 0.950 . S
C343 C342 1.327 . S
C343 C347 1.429 . S
C344 C327 1.574 . S
C344 H338 0.949 . S
C344 C348 1.368 . S
C345 C326 1.429 . S
C345 C339 1.429 . S
C345 C346 1.523 . S
C346 C327 1.368 . S
C346 C340 1.368 . S
C346 C345 1.523 . S
C347 C331 1.429 . S
C347 C343 1.429 . S
C347 C348 1.523 . S
C348 C332 1.368 . S
C348 C344 1.368 . S
C348 C347 1.523 . S
H349 C324 0.950 . S
H350 C326 0.950 . S
H351 C327 0.949 . S
H352 C329 0.950 . S
H353 C331 0.950 . S
C354 C355 1.349 . S
C354 C356 1.327 . S
C354 H379 0.950 . S
C355 C354 1.349 . S
C355 C371 1.349 . S
C356 C354 1.327 . S
C356 C375 1.429 . S
C356 H380 0.950 . S
C357 C374 1.574 . S
C357 C376 1.368 . S
C357 H381 0.949 . S
H358 C362 0.949 . S
C359 C360 1.349 . S
C359 C361 1.327 . S
C359 H382 0.950 . S
C360 C359 1.349 . S
C360 C372 1.349 . S
C361 C359 1.327 . S
C361 C377 1.429 . S
C361 H383 0.950 . S
C362 H358 0.949 . S
C362 C370 1.574 . S
C362 C378 1.368 . S
H363 C371 0.950 . S
H364 C369 0.950 . S
H365 C370 0.949 . S
H366 C372 0.950 . S
H367 C373 0.950 . S
H368 C374 0.949 . S
C369 H364 0.950 . S
C369 C371 1.327 . S
C369 C375 1.429 . S
C370 C362 1.574 . S
C370 H365 0.949 . S
C370 C376 1.368 . S
C371 C355 1.349 . S
C371 H363 0.950 . S
C371 C369 1.327 . S
C372 C360 1.349 . S
C372 H366 0.950 . S
C372 C373 1.327 . S
C373 H367 0.950 . S
C373 C372 1.327 . S
C373 C377 1.429 . S
C374 C357 1.574 . S
C374 H368 0.949 . S
C374 C378 1.368 . S
C375 C356 1.429 . S
C375 C369 1.429 . S
C375 C376 1.523 . S
C376 C357 1.368 . S
C376 C370 1.368 . S
C376 C375 1.523 . S
C377 C361 1.429 . S
C377 C373 1.429 . S
C377 C378 1.523 . S
C378 C362 1.368 . S
C378 C374 1.368 . S
C378 C377 1.523 . S
H379 C354 0.950 . S
H380 C356 0.950 . S
H381 C357 0.949 . S
H382 C359 0.950 . S
H383 C361 0.950 . S
C384 C385 1.349 . S
C384 C386 1.327 . S
C384 H409 0.950 . S
C385 C384 1.349 . S
C385 C401 1.349 . S
C386 C384 1.327 . S
C386 C405 1.429 . S
C386 H410 0.950 . S
C387 C404 1.574 . S
C387 C406 1.368 . S
C387 H411 0.949 . S
H388 C392 0.949 . S
C389 C390 1.349 . S
C389 C391 1.327 . S
C389 H412 0.950 . S
C390 C389 1.349 . S
C390 C402 1.349 . S
C391 C389 1.327 . S
C391 C407 1.429 . S
C391 H413 0.950 . S
C392 H388 0.949 . S
C392 C400 1.574 . S
C392 C408 1.368 . S
H393 C401 0.950 . S
H394 C399 0.950 . S
H395 C400 0.949 . S
H396 C402 0.950 . S
H397 C403 0.950 . S
H398 C404 0.949 . S
C399 H394 0.950 . S
C399 C401 1.327 . S
C399 C405 1.429 . S
C400 C392 1.574 . S
C400 H395 0.949 . S
C400 C406 1.368 . S
C401 C385 1.349 . S
C401 H393 0.950 . S
C401 C399 1.327 . S
C402 C390 1.349 . S
C402 H396 0.950 . S
C402 C403 1.327 . S
C403 H397 0.950 . S
C403 C402 1.327 . S
C403 C407 1.429 . S
C404 C387 1.574 . S
C404 H398 0.949 . S
C404 C408 1.368 . S
C405 C386 1.429 . S
C405 C399 1.429 . S
C405 C406 1.523 . S
C406 C387 1.368 . S
C406 C400 1.368 . S
C406 C405 1.523 . S
C407 C391 1.429 . S
C407 C403 1.429 . S
C407 C408 1.523 . S
C408 C392 1.368 . S
C408 C404 1.368 . S
C408 C407 1.523 . S
H409 C384 0.950 . S
H410 C386 0.950 . S
H411 C387 0.949 . S
H412 C389 0.950 . S
H413 C391 0.950 . S
C414 C415 1.349 . S
C414 C416 1.327 . S
C414 H439 0.950 . S
C415 C414 1.349 . S
C415 C431 1.349 . S
C416 C414 1.327 . S
C416 C435 1.429 . S
C416 H440 0.950 1_556 S
C417 C434 1.574 . S
C417 C436 1.368 . S
C417 H441 0.949 . S
H418 C422 0.949 . S
C419 C420 1.361 . S
C419 C421 1.323 1_554 S
C419 H442 0.942 1_554 S
C420 C419 1.361 . S
C420 C432 1.349 . S
C421 C419 1.323 1_556 S
C421 C437 1.429 1_556 S
C421 H443 0.950 . S
C422 H418 0.949 . S
C422 C430 1.574 . S
C422 C438 1.368 1_554 S
H423 C431 0.950 . S
H424 C429 0.950 . S
H425 C430 0.949 . S
H426 C432 0.950 . S
H427 C433 0.950 . S
H428 C434 0.949 . S
C429 H424 0.950 . S
C429 C431 1.327 . S
C429 C435 1.429 . S
C430 C422 1.574 . S
C430 H425 0.949 . S
C430 C436 1.368 1_554 S
C431 C415 1.349 . S
C431 H423 0.950 . S
C431 C429 1.327 . S
C432 C420 1.349 . S
C432 H426 0.950 . S
C432 C433 1.327 . S
C433 H427 0.950 . S
C433 C432 1.327 . S
C433 C437 1.429 . S
C434 C417 1.574 . S
C434 H428 0.949 . S
C434 C438 1.368 . S
C435 C416 1.429 . S
C435 C429 1.429 . S
C435 C436 1.523 . S
C436 C417 1.368 . S
C436 C430 1.368 1_556 S
C436 C435 1.523 . S
C437 C421 1.429 1_554 S
C437 C433 1.429 . S
C437 C438 1.523 1_554 S
C438 C422 1.368 1_556 S
C438 C434 1.368 . S
C438 C437 1.523 1_556 S
H439 C414 0.950 . S
H440 C416 0.950 1_554 S
H441 C417 0.949 . S
H442 C419 0.942 1_556 S
H443 C421 0.950 . S
C85 C4 1.281 . S
C90 C54 1.314 . S
C115 C18 1.281 . S
C120 C68 1.314 . S
C145 C82 1.314 . S
C150 C32 1.281 . S
C175 C12 1.314 . S
C180 C46 1.281 . S
C205 C26 1.314 . S
C210 C60 1.281 . S
C235 C74 1.281 . S
C240 C40 1.314 . S
C265 C25 1.404 . S
C270 C5 1.260 . S
C295 C39 1.404 . S
C300 C19 1.259 . S
C325 C33 1.259 . S
C330 C53 1.404 . S
C355 C67 1.404 . S
C360 C47 1.259 . S
C385 C81 1.404 . S
C390 C61 1.259 . S
C415 C75 1.259 . S
C420 C11 1.404 . S
