# Generated by pormake.
# Topology wgw, (6)-cn, num edge types: 1
# Building blocks:
#     Node 0, Type 0, BuildingBlock: IZENUY_clean_sbu_0, # of connection points: 6
#     Node 1, Type 0, BuildingBlock: IZENUY_clean_sbu_0, # of connection points: 6
#     Node 2, Type 0, BuildingBlock: IZENUY_clean_sbu_0, # of connection points: 6
#     Node 3, Type 0, BuildingBlock: IZENUY_clean_sbu_0, # of connection points: 6
#     Node 4, Type 0, BuildingBlock: IZENUY_clean_sbu_0, # of connection points: 6
#     Node 5, Type 0, BuildingBlock: IZENUY_clean_sbu_0, # of connection points: 6
#     Node 6, Type 0, BuildingBlock: IZENUY_clean_sbu_0, # of connection points: 6
#     Node 7, Type 0, BuildingBlock: IZENUY_clean_sbu_0, # of connection points: 6
#     Edge 8, Type (0, 0), BuildingBlock: XIVTED_clean_linker_0, # of connection points: 2
#     Edge 9, Type (0, 0), BuildingBlock: XIVTED_clean_linker_0, # of connection points: 2
#     Edge 10, Type (0, 0), BuildingBlock: XIVTED_clean_linker_0, # of connection points: 2
#     Edge 11, Type (0, 0), BuildingBlock: XIVTED_clean_linker_0, # of connection points: 2
#     Edge 12, Type (0, 0), BuildingBlock: XIVTED_clean_linker_0, # of connection points: 2
#     Edge 13, Type (0, 0), BuildingBlock: XIVTED_clean_linker_0, # of connection points: 2
#     Edge 14, Type (0, 0), BuildingBlock: XIVTED_clean_linker_0, # of connection points: 2
#     Edge 15, Type (0, 0), BuildingBlock: XIVTED_clean_linker_0, # of connection points: 2
#     Edge 16, Type (0, 0), BuildingBlock: XIVTED_clean_linker_0, # of connection points: 2
#     Edge 17, Type (0, 0), BuildingBlock: XIVTED_clean_linker_0, # of connection points: 2
#     Edge 18, Type (0, 0), BuildingBlock: XIVTED_clean_linker_0, # of connection points: 2
#     Edge 19, Type (0, 0), BuildingBlock: XIVTED_clean_linker_0, # of connection points: 2
#     Edge 20, Type (0, 0), BuildingBlock: XIVTED_clean_linker_0, # of connection points: 2
#     Edge 21, Type (0, 0), BuildingBlock: XIVTED_clean_linker_0, # of connection points: 2
#     Edge 22, Type (0, 0), BuildingBlock: XIVTED_clean_linker_0, # of connection points: 2
#     Edge 23, Type (0, 0), BuildingBlock: XIVTED_clean_linker_0, # of connection points: 2
#     Edge 24, Type (0, 0), BuildingBlock: XIVTED_clean_linker_0, # of connection points: 2
#     Edge 25, Type (0, 0), BuildingBlock: XIVTED_clean_linker_0, # of connection points: 2
#     Edge 26, Type (0, 0), BuildingBlock: XIVTED_clean_linker_0, # of connection points: 2
#     Edge 27, Type (0, 0), BuildingBlock: XIVTED_clean_linker_0, # of connection points: 2
#     Edge 28, Type (0, 0), BuildingBlock: XIVTED_clean_linker_0, # of connection points: 2
#     Edge 29, Type (0, 0), BuildingBlock: XIVTED_clean_linker_0, # of connection points: 2
#     Edge 30, Type (0, 0), BuildingBlock: XIVTED_clean_linker_0, # of connection points: 2
#     Edge 31, Type (0, 0), BuildingBlock: XIVTED_clean_linker_0, # of connection points: 2
# Relax obj value: 0.276
# Max RMSD: 0.289
# Mean RMSD: 0.289
data_MOF--net-wgw--node1-IZENUY_clean_sbu_0--edge1-XIVTED_clean_linker_0
_symmetry_space_group_name_H-M    P1
_symmetry_Int_Tables_number       1
_symmetry_cell_setting            triclinic
loop_
_symmetry_equiv_pos_as_xyz
'x, y, z'
_cell_length_a     27.744406
_cell_length_b     27.635504
_cell_length_c     43.342791
_cell_angle_alpha  89.922076
_cell_angle_beta   89.985387
_cell_angle_gamma 90.129623
loop_
_atom_site_label
_atom_site_type_symbol
_atom_site_fract_x
_atom_site_fract_y
_atom_site_fract_z
_atom_type_partial_charge
Fe0 Fe 0.03788 0.40304 0.16658 0.0
Fe1 Fe 0.11417 0.4835 0.16349 0.0
O2 O 0.06776 0.45277 0.18367 0.0
Fe3 Fe 0.05166 0.47225 0.22115 0.0
O4 O 0.03323 0.41229 0.23565 0.0
O5 O 0.0542 0.36362 0.19811 0.0
O6 O 0.09251 0.3802 0.14693 0.0
C7 C 0.13681 0.38861 0.15241 0.0
C8 C 0.96296 0.45637 0.1959 0.0
O9 O 0.15037 0.42927 0.1625 0.0
C10 C 0.06552 0.55894 0.18833 0.0
O11 O 0.01935 0.43871 0.13349 0.0
O12 O 0.08993 0.47175 0.12481 0.0
O13 O 0.99128 0.48582 0.20865 0.0
O14 O 0.97845 0.41741 0.18389 0.0
C15 C 0.14858 0.48203 0.22506 0.0
O16 O 0.08008 0.53968 0.16367 0.0
O17 O 0.0658 0.53583 0.21354 0.0
C18 C 0.0477 0.46147 0.11598 0.0
O19 O 0.14759 0.50087 0.19839 0.0
O20 O 0.11206 0.46035 0.23571 0.0
C21 C 0.04344 0.37046 0.22594 0.0
Fe22 Fe 0.02614 0.10465 0.66651 0.0
Fe23 Fe 0.04432 0.04245 0.72412 0.0
O24 O 0.05758 0.05749 0.68537 0.0
Fe25 Fe 0.10267 0.02421 0.66554 0.0
O26 O 0.13914 0.07853 0.66145 0.0
O27 O 0.07991 0.12567 0.64529 0.0
O28 O 0.04218 0.14862 0.69574 0.0
C29 C 0.03407 0.14453 0.7242 0.0
C30 C 0.03501 0.04225 0.61805 0.0
O31 O 0.02736 0.10349 0.73625 0.0
C32 C 0.05287 0.95268 0.69522 0.0
O33 O 0.96783 0.09134 0.68518 0.0
O34 O 0.98289 0.0276 0.71429 0.0
O35 O 0.07733 0.03261 0.62676 0.0
O36 O 0.00674 0.06498 0.63544 0.0
C37 C 0.141 0.03225 0.72581 0.0
O38 O 0.05766 0.9784 0.71912 0.0
O39 O 0.06727 0.96814 0.66922 0.0
C40 C 0.95375 0.05409 0.6998 0.0
O41 O 0.1057 0.05594 0.73614 0.0
O42 O 0.13773 0.01007 0.70034 0.0
C43 C 0.12447 0.11845 0.65055 0.0
Fe44 Fe 0.46669 0.04205 0.22768 0.0
Fe45 Fe 0.4821 0.10198 0.16918 0.0
O46 O 0.44854 0.05788 0.18986 0.0
Fe47 Fe 0.39771 0.02989 0.17276 0.0
O48 O 0.35845 0.04859 0.20395 0.0
O49 O 0.40605 0.02811 0.24214 0.0
O50 O 0.45878 0.10393 0.24134 0.0
C51 C 0.48295 0.13862 0.23025 0.0
C52 C 0.44631 0.95305 0.20323 0.0
O53 O 0.50152 0.13521 0.20363 0.0
C54 C 0.45622 0.03611 0.12214 0.0
O55 O 0.53067 0.05162 0.22003 0.0
O56 O 0.53604 0.06397 0.16998 0.0
O57 O 0.40861 0.97002 0.19065 0.0
O58 O 0.47644 0.98015 0.21634 0.0
C59 C 0.38899 0.12966 0.15755 0.0
O60 O 0.4686 0.07797 0.13067 0.0
O61 O 0.43284 0.00869 0.13993 0.0
C62 C 0.55346 0.04765 0.1949 0.0
O63 O 0.43015 0.14145 0.16766 0.0
O64 O 0.37824 0.08553 0.15257 0.0
C65 C 0.36476 0.039 0.23206 0.0
Fe66 Fe 0.38739 0.48285 0.66978 0.0
Fe67 Fe 0.46322 0.40147 0.66964 0.0
O68 O 0.43249 0.44867 0.68898 0.0
Fe69 Fe 0.4468 0.46294 0.72769 0.0
O70 O 0.38584 0.44908 0.74031 0.0
O71 O 0.35285 0.49547 0.70496 0.0
O72 O 0.35051 0.42889 0.66495 0.0
C73 C 0.36467 0.38907 0.65371 0.0
C74 C 0.43751 0.55355 0.69999 0.0
O75 O 0.40913 0.38115 0.64871 0.0
C76 C 0.53627 0.45216 0.70173 0.0
O77 O 0.41263 0.47633 0.63089 0.0
O78 O 0.48219 0.44118 0.63856 0.0
O79 O 0.43317 0.52708 0.72359 0.0
O80 O 0.42284 0.53877 0.67397 0.0
C81 C 0.45672 0.36091 0.72724 0.0
O82 O 0.52192 0.41449 0.68775 0.0
O83 O 0.50771 0.47816 0.717 0.0
C84 C 0.4546 0.46594 0.62182 0.0
O85 O 0.44762 0.35712 0.69889 0.0
O86 O 0.4643 0.40178 0.73921 0.0
C87 C 0.35029 0.47284 0.73036 0.0
Fe88 Fe 0.61398 0.52451 0.35491 0.0
Fe89 Fe 0.55366 0.53829 0.29662 0.0
O90 O 0.56778 0.5558 0.33487 0.0
Fe91 Fe 0.53601 0.60349 0.35308 0.0
O92 O 0.59008 0.62712 0.37316 0.0
O93 O 0.64926 0.5794 0.3578 0.0
O94 O 0.64883 0.50977 0.3201 0.0
C95 C 0.65065 0.52991 0.29385 0.0
C96 C 0.54674 0.54276 0.40257 0.0
O97 O 0.61445 0.55212 0.28336 0.0
C98 C 0.46346 0.54991 0.3214 0.0
O99 O 0.58051 0.46767 0.35277 0.0
O100 O 0.56829 0.47434 0.30281 0.0
O101 O 0.51828 0.56543 0.38526 0.0
O102 O 0.589 0.53335 0.39367 0.0
C103 C 0.54041 0.64044 0.29468 0.0
O104 O 0.49284 0.52285 0.30757 0.0
O105 O 0.47737 0.58785 0.33538 0.0
C106 C 0.56744 0.44951 0.32737 0.0
O107 O 0.53506 0.59867 0.28334 0.0
O108 O 0.5501 0.64603 0.32277 0.0
C109 C 0.63471 0.61946 0.3683 0.0
Fe110 Fe 0.96287 0.60458 0.84907 0.0
Fe111 Fe 0.94667 0.54076 0.7922 0.0
O112 O 0.93186 0.55671 0.83057 0.0
Fe113 Fe 0.88595 0.52419 0.85009 0.0
O114 O 0.85027 0.57869 0.8544 0.0
O115 O 0.90937 0.6262 0.87008 0.0
O116 O 0.94656 0.64728 0.81903 0.0
C117 C 0.95651 0.64248 0.79087 0.0
C118 C 0.954 0.54143 0.89763 0.0
O119 O 0.9661 0.60132 0.77996 0.0
C120 C 0.9309 0.45032 0.82044 0.0
O121 O 0.02141 0.59058 0.83086 0.0
O122 O 0.00681 0.52469 0.80378 0.0
O123 O 0.91183 0.53106 0.88876 0.0
O124 O 0.98172 0.56605 0.88074 0.0
C125 C 0.84994 0.53273 0.78898 0.0
O126 O 0.93115 0.47703 0.79679 0.0
O127 O 0.91922 0.4672 0.84649 0.0
C128 C 0.03567 0.55185 0.81805 0.0
O129 O 0.8863 0.55523 0.77879 0.0
O130 O 0.85119 0.51175 0.815 0.0
C131 C 0.86481 0.61844 0.86544 0.0
Fe132 Fe 0.96496 0.9552 0.29095 0.0
Fe133 Fe 0.97953 0.90098 0.3515 0.0
O134 O 0.94798 0.94531 0.32976 0.0
Fe135 Fe 0.90059 0.97882 0.34683 0.0
O136 O 0.85805 0.96164 0.31711 0.0
O137 O 0.90486 0.9709 0.27675 0.0
O138 O 0.95216 0.89292 0.28069 0.0
C139 C 0.97575 0.85853 0.2922 0.0
C140 C 0.95258 0.04852 0.31071 0.0
O141 O 0.99605 0.86363 0.31814 0.0
C142 C 0.95984 0.9713 0.39694 0.0
O143 O 0.0289 0.94314 0.29814 0.0
O144 O 0.03541 0.93592 0.3486 0.0
O145 O 0.91624 0.03679 0.32709 0.0
O146 O 0.97886 0.01694 0.29852 0.0
C147 C 0.88518 0.8804 0.36491 0.0
O148 O 0.96878 0.92826 0.38936 0.0
O149 O 0.93869 0.99929 0.37851 0.0
C150 C 0.05278 0.9487 0.32281 0.0
O151 O 0.9253 0.86524 0.35495 0.0
O152 O 0.87725 0.92558 0.36853 0.0
C153 C 0.86356 0.96569 0.28842 0.0
Fe154 Fe 0.60389 0.9813 0.85452 0.0
Fe155 Fe 0.52571 0.90235 0.85261 0.0
O156 O 0.55786 0.94984 0.83446 0.0
Fe157 Fe 0.5444 0.9664 0.79598 0.0
O158 O 0.60515 0.95171 0.78327 0.0
O159 O 0.63944 0.99476 0.81981 0.0
O160 O 0.63875 0.92625 0.85827 0.0
C161 C 0.62346 0.88652 0.869 0.0
C162 C 0.55987 0.05612 0.82521 0.0
O163 O 0.57874 0.87965 0.87385 0.0
C164 C 0.45417 0.95559 0.82031 0.0
O165 O 0.5778 0.97299 0.89314 0.0
O166 O 0.50675 0.94108 0.88427 0.0
O167 O 0.56008 0.02997 0.80131 0.0
O168 O 0.57108 0.03865 0.85127 0.0
C169 C 0.5334 0.86469 0.79439 0.0
O170 O 0.46773 0.91717 0.83387 0.0
O171 O 0.48385 0.98269 0.80665 0.0
C172 C 0.53533 0.96343 0.90177 0.0
O173 O 0.54198 0.85962 0.82272 0.0
O174 O 0.5251 0.90604 0.78323 0.0
C175 C 0.64138 0.97395 0.7938 0.0
H176 H 0.41963 0.46214 0.31654 0.0
H177 H 0.19965 0.56566 0.22659 0.0
H178 H 0.39024 0.6153 0.31468 0.0
H179 H 0.19041 0.42518 0.26968 0.0
H180 H 0.27084 0.58382 0.25761 0.0
H181 H 0.337 0.44625 0.29937 0.0
C182 C 0.39541 0.49236 0.31304 0.0
C183 C 0.4117 0.54012 0.31681 0.0
C184 C 0.25296 0.54924 0.26059 0.0
C185 C 0.31782 0.52223 0.29657 0.0
C186 C 0.21261 0.53868 0.24273 0.0
C187 C 0.18953 0.49366 0.24544 0.0
C188 C 0.27122 0.51408 0.28076 0.0
C189 C 0.20737 0.46025 0.26693 0.0
C190 C 0.34832 0.48325 0.30333 0.0
C191 C 0.37899 0.57798 0.31208 0.0
N192 N 0.24784 0.47077 0.28343 0.0
N193 N 0.33381 0.56827 0.30156 0.0
H194 H 0.8866 0.39796 0.77685 0.0
H195 H 0.03391 0.1552 0.78735 0.0
H196 H 0.99114 0.38578 0.85001 0.0
H197 H 0.00829 0.23334 0.70261 0.0
H198 H 0.00537 0.22614 0.81657 0.0
H199 H 0.913 0.32035 0.75649 0.0
C200 C 0.91418 0.37808 0.78918 0.0
C201 C 0.93687 0.39816 0.81506 0.0
C202 C 0.00656 0.22752 0.79161 0.0
C203 C 0.96795 0.30993 0.79144 0.0
C204 C 0.02278 0.18733 0.77493 0.0
C205 C 0.02336 0.18836 0.74247 0.0
C206 C 0.98963 0.26811 0.77556 0.0
C207 C 0.00863 0.23085 0.72754 0.0
C208 C 0.92956 0.33416 0.77735 0.0
C209 C 0.9726 0.37111 0.83013 0.0
N210 N 0.99171 0.26866 0.74419 0.0
N211 N 0.98765 0.32824 0.81783 0.0
H212 H 0.35663 0.98619 0.28554 0.0
H213 H 0.07342 0.03372 0.29623 0.0
H214 H 0.27573 0.07904 0.22452 0.0
H215 H 0.14102 0.91284 0.34147 0.0
H216 H 0.15207 0.06332 0.28016 0.0
H217 H 0.28274 0.97056 0.31516 0.0
C218 C 0.32354 0.00392 0.27867 0.0
C219 C 0.32219 0.03369 0.25235 0.0
C220 C 0.15006 0.03067 0.29395 0.0
C221 C 0.23797 0.01611 0.28617 0.0
C222 C 0.10513 0.01392 0.30327 0.0
C223 C 0.10087 0.97074 0.31997 0.0
C224 C 0.19132 0.00363 0.30097 0.0
C225 C 0.14303 0.94644 0.32867 0.0
C226 C 0.28144 0.99478 0.29552 0.0
C227 C 0.27835 0.05549 0.24444 0.0
N228 N 0.18675 0.96286 0.31862 0.0
N229 N 0.23806 0.04612 0.26119 0.0
H230 H 0.45278 0.34892 0.79013 0.0
H231 H 0.60729 0.10996 0.78361 0.0
H232 H 0.48733 0.27358 0.70584 0.0
H233 H 0.49657 0.11923 0.85313 0.0
H234 H 0.5808 0.18721 0.76241 0.0
H235 H 0.48134 0.27835 0.8198 0.0
C236 C 0.4659 0.31743 0.7779 0.0
C237 C 0.46765 0.31701 0.74546 0.0
C238 C 0.56292 0.17287 0.7827 0.0
C239 C 0.50157 0.23775 0.77911 0.0
C240 C 0.57835 0.12921 0.79504 0.0
C241 C 0.55399 0.10839 0.82011 0.0
C242 C 0.52291 0.19614 0.79553 0.0
C243 C 0.51648 0.13453 0.83396 0.0
C244 C 0.48215 0.27745 0.79483 0.0
C245 C 0.48501 0.27542 0.73075 0.0
N246 N 0.50153 0.17715 0.82122 0.0
N247 N 0.50194 0.23781 0.74769 0.0
H248 H 0.69001 0.5855 0.24746 0.0
H249 H 0.89225 0.38905 0.20659 0.0
H250 H 0.70412 0.44784 0.29362 0.0
H251 H 0.91603 0.54258 0.19674 0.0
H252 H 0.81018 0.40573 0.22496 0.0
H253 H 0.76145 0.56571 0.21609 0.0
C254 C 0.70785 0.55105 0.25076 0.0
C255 C 0.69173 0.51858 0.27343 0.0
C256 C 0.83316 0.43564 0.21819 0.0
C257 C 0.772 0.49534 0.23738 0.0
C258 C 0.87972 0.42612 0.20747 0.0
C259 C 0.9109 0.46454 0.20042 0.0
C260 C 0.81767 0.4838 0.22137 0.0
C261 C 0.8931 0.51201 0.20226 0.0
C262 C 0.74843 0.5398 0.23293 0.0
C263 C 0.7159 0.47428 0.27675 0.0
N264 N 0.84773 0.52037 0.21274 0.0
N265 N 0.75475 0.46396 0.25894 0.0
H266 H 0.07877 0.86306 0.67116 0.0
H267 H 0.92036 0.73266 0.80091 0.0
H268 H 0.97686 0.93363 0.73112 0.0
H269 H 0.00736 0.65167 0.73668 0.0
H270 H 0.93624 0.80577 0.77131 0.0
H271 H 0.04863 0.78397 0.68986 0.0
C272 C 0.04924 0.86187 0.68748 0.0
C273 C 0.03032 0.90478 0.69971 0.0
C274 C 0.9517 0.77205 0.76341 0.0
C275 C 0.99634 0.81552 0.72134 0.0
C276 C 0.94267 0.73026 0.78045 0.0
C277 C 0.96288 0.68611 0.77145 0.0
C278 C 0.9819 0.77012 0.73734 0.0
C279 C 0.99114 0.68508 0.74447 0.0
C280 C 0.03228 0.81692 0.69832 0.0
C281 C 0.99253 0.90145 0.72111 0.0
N282 N 1.00039 0.72663 0.72856 0.0
N283 N 0.97719 0.85785 0.73135 0.0
H284 H 0.64029 0.08363 0.17372 0.0
H285 H 0.77482 0.92711 0.29922 0.0
H286 H 0.57558 0.96345 0.22192 0.0
H287 H 0.85428 0.01167 0.23258 0.0
H288 H 0.70199 0.93837 0.26869 0.0
H289 H 0.72026 0.05574 0.19104 0.0
C290 C 0.64315 0.05052 0.18699 0.0
C291 C 0.60162 0.02584 0.19664 0.0
C292 C 0.73539 0.95406 0.26044 0.0
C293 C 0.69179 0.99465 0.21702 0.0
C294 C 0.77693 0.9478 0.278 0.0
C295 C 0.82048 0.96877 0.26853 0.0
C296 C 0.73702 0.98242 0.23349 0.0
C297 C 0.8213 0.99491 0.24067 0.0
C298 C 0.68858 0.03483 0.19708 0.0
C299 C 0.60688 0.98361 0.21423 0.0
N300 N 0.77995 1.00171 0.22434 0.0
N301 N 0.65097 0.96977 0.22421 0.0
H302 H 0.41249 0.64308 0.67522 0.0
H303 H 0.56992 0.77485 0.80475 0.0
H304 H 0.51223 0.5729 0.73695 0.0
H305 H 0.48298 0.85515 0.74004 0.0
H306 H 0.55413 0.70144 0.77562 0.0
H307 H 0.44265 0.72231 0.69352 0.0
C308 C 0.44146 0.64437 0.69193 0.0
C309 C 0.4597 0.60155 0.70479 0.0
C310 C 0.53866 0.73505 0.7675 0.0
C311 C 0.49383 0.691 0.72587 0.0
C312 C 0.54765 0.77703 0.78426 0.0
C313 C 0.52739 0.82107 0.775 0.0
C314 C 0.50841 0.73665 0.74145 0.0
C315 C 0.49923 0.82182 0.748 0.0
C316 C 0.45845 0.6894 0.70252 0.0
C317 C 0.4969 0.60502 0.72658 0.0
N318 N 0.48997 0.78006 0.73237 0.0
N319 N 0.51234 0.64871 0.73653 0.0
H320 H 0.80798 0.44516 0.78338 0.0
H321 H 0.57719 0.54131 0.7028 0.0
H322 H 0.80304 0.59032 0.74687 0.0
H323 H 0.61222 0.38943 0.70486 0.0
H324 H 0.66079 0.56077 0.71558 0.0
H325 H 0.73812 0.42383 0.75233 0.0
C326 C 0.7922 0.47249 0.76858 0.0
C327 C 0.81058 0.51976 0.76794 0.0
C328 C 0.65049 0.52324 0.71262 0.0
C329 C 0.73031 0.49573 0.73257 0.0
C330 C 0.60279 0.51212 0.7056 0.0
C331 C 0.58786 0.46371 0.70354 0.0
C332 C 0.68309 0.48557 0.71823 0.0
C333 C 0.62238 0.42718 0.70656 0.0
C334 C 0.75259 0.46017 0.75066 0.0
C335 C 0.78946 0.55361 0.74808 0.0
N336 N 0.66834 0.43884 0.71445 0.0
N337 N 0.74958 0.5412 0.73156 0.0
H338 H 0.98319 0.60746 0.17483 0.0
H339 H 0.05358 0.80022 0.29923 0.0
H340 H 0.12773 0.62601 0.20905 0.0
H341 H 0.93075 0.82414 0.24 0.0
H342 H 0.07934 0.73481 0.26584 0.0
H343 H 0.96201 0.68743 0.19559 0.0
C344 C 0.0109 0.62946 0.18552 0.0
C345 C 0.0573 0.61095 0.19006 0.0
C346 C 0.0469 0.75448 0.25994 0.0
C347 C 0.03316 0.70043 0.21485 0.0
C348 C 0.03179 0.7915 0.27925 0.0
C349 C 0.98971 0.81742 0.27251 0.0
C350 C 0.01937 0.74245 0.23391 0.0
C351 C 0.96335 0.80485 0.24603 0.0
C352 C 0.99876 0.67469 0.19761 0.0
C353 C 0.09174 0.63966 0.20486 0.0
N354 N 0.97833 0.76774 0.22778 0.0
N355 N 0.07878 0.68272 0.2172 0.0
H356 H 0.88092 0.11923 0.70788 0.0
H357 H 0.684 0.91698 0.74958 0.0
H358 H 0.90951 0.96633 0.70111 0.0
H359 H 0.6904 0.05854 0.79126 0.0
H360 H 0.75557 0.93794 0.7185 0.0
H361 H 0.79824 0.10051 0.72428 0.0
C362 C 0.8694 0.0818 0.70919 0.0
C363 C 0.90202 0.04418 0.70378 0.0
C364 C 0.74079 0.96441 0.73426 0.0
C365 C 0.80824 0.0226 0.72238 0.0
C366 C 0.70018 0.9525 0.7519 0.0
C367 C 0.68206 0.98579 0.7733 0.0
C368 C 0.76227 0.01024 0.73766 0.0
C369 C 0.70394 0.03149 0.77543 0.0
C370 C 0.82249 0.07112 0.71872 0.0
C371 C 0.88554 0.99624 0.70583 0.0
N372 N 0.7429 0.04235 0.75787 0.0
N373 N 0.8398 0.98672 0.71522 0.0
H374 H 0.38399 0.89026 0.23073 0.0
H375 H 0.56049 0.66327 0.23424 0.0
H376 H 0.52394 0.89873 0.18789 0.0
H377 H 0.48369 0.71345 0.31453 0.0
H378 H 0.53226 0.73542 0.20576 0.0
H379 H 0.4039 0.80861 0.24951 0.0
C380 C 0.41814 0.87414 0.22437 0.0
C381 C 0.45238 0.90073 0.2077 0.0
C382 C 0.52155 0.73017 0.22956 0.0
C383 C 0.47521 0.80832 0.22894 0.0
C384 C 0.53766 0.68937 0.24575 0.0
C385 C 0.52501 0.68311 0.27683 0.0
C386 C 0.49123 0.76353 0.24436 0.0
C387 C 0.49497 0.71754 0.29074 0.0
C388 C 0.42964 0.828 0.2353 0.0
C389 C 0.49666 0.87895 0.20062 0.0
N390 N 0.47882 0.75611 0.27436 0.0
N391 N 0.50696 0.8339 0.21135 0.0
H392 H 0.30371 0.41233 0.7709 0.0
H393 H 0.11154 0.61541 0.81702 0.0
H394 H 0.30614 0.55919 0.73707 0.0
H395 H 0.07695 0.46321 0.81322 0.0
H396 H 0.19521 0.59608 0.80352 0.0
H397 H 0.2315 0.43208 0.80156 0.0
C398 C 0.28937 0.44875 0.7703 0.0
C399 C 0.30997 0.48397 0.75111 0.0
C400 C 0.16936 0.56694 0.80622 0.0
C401 C 0.22912 0.50692 0.78624 0.0
C402 C 0.12183 0.57792 0.81403 0.0
C403 C 0.08738 0.54089 0.81561 0.0
C404 C 0.18232 0.51866 0.80042 0.0
C405 C 0.10245 0.49284 0.81159 0.0
C406 C 0.24843 0.45997 0.78769 0.0
C407 C 0.29052 0.53077 0.75113 0.0
N408 N 0.14881 0.48308 0.80389 0.0
N409 N 0.25108 0.54087 0.76835 0.0
H410 H 0.09284 0.28654 0.22387 0.0
H411 H 0.9183 0.13529 0.3359 0.0
H412 H 0.97641 0.35669 0.27211 0.0
H413 H 0.01407 0.07819 0.26625 0.0
H414 H 0.94397 0.21799 0.3207 0.0
H415 H 0.07264 0.21107 0.24951 0.0
C416 C 0.06324 0.28604 0.2402 0.0
C417 C 0.03594 0.32759 0.24565 0.0
C418 C 0.95932 0.18695 0.30911 0.0
C419 C 0.01132 0.24069 0.27458 0.0
C420 C 0.94459 0.13994 0.31766 0.0
C421 C 0.96446 0.09946 0.30274 0.0
C422 C 0.99419 0.19289 0.28576 0.0
C423 C 0.99826 0.10769 0.27912 0.0
C424 C 0.05145 0.24287 0.25477 0.0
C425 C 0.99825 0.32517 0.26732 0.0
N426 N 0.01193 0.15302 0.2716 0.0
N427 N 0.98641 0.28204 0.28073 0.0
H428 H 0.37965 0.891 0.81529 0.0
H429 H 0.1849 0.0913 0.76835 0.0
H430 H 0.41194 0.0438 0.81474 0.0
H431 H 0.18998 0.94777 0.72946 0.0
H432 H 0.25697 0.07194 0.79924 0.0
H433 H 0.29724 0.90944 0.79841 0.0
C434 C 0.36903 0.92841 0.81233 0.0
C435 C 0.40258 0.96593 0.81595 0.0
C436 C 0.2418 0.0447 0.78413 0.0
C437 C 0.30901 0.98714 0.79688 0.0
C438 C 0.20091 0.05569 0.7666 0.0
C439 C 0.18219 0.02133 0.74606 0.0
C440 C 0.26298 0.99872 0.78153 0.0
C441 C 0.20392 0.97558 0.74463 0.0
C442 C 0.32225 0.93888 0.80254 0.0
C443 C 0.38714 0.01384 0.81173 0.0
N444 N 0.24316 0.9656 0.76212 0.0
N445 N 0.34148 0.02313 0.8022 0.0
H446 H 0.49009 0.39486 0.3453 0.0
H447 H 0.56332 0.19349 0.22395 0.0
H448 H 0.62766 0.38722 0.29959 0.0
H449 H 0.43741 0.17694 0.28153 0.0
H450 H 0.58796 0.26263 0.25435 0.0
H451 H 0.47111 0.31284 0.32648 0.0
C452 C 0.51689 0.37507 0.33226 0.0
C453 C 0.56065 0.39714 0.32416 0.0
C454 C 0.55504 0.24394 0.26064 0.0
C455 C 0.5389 0.30485 0.30188 0.0
C456 C 0.54069 0.20449 0.24306 0.0
C457 C 0.49788 0.17967 0.24997 0.0
C458 C 0.52612 0.25966 0.28521 0.0
C459 C 0.47058 0.19525 0.27538 0.0
C460 C 0.50595 0.32861 0.3213 0.0
C461 C 0.59375 0.37101 0.30651 0.0
N462 N 0.48484 0.23478 0.29191 0.0
N463 N 0.58202 0.3265 0.29573 0.0
H464 H 0.12281 0.29222 0.13861 0.0
H465 H 0.40244 0.22783 0.15912 0.0
H466 H 0.23492 0.39759 0.15527 0.0
H467 H 0.29304 0.11963 0.14247 0.0
H468 H 0.34168 0.29069 0.1535 0.0
H469 H 0.18451 0.22896 0.13564 0.0
C470 C 0.16035 0.30221 0.14125 0.0
C471 C 0.17356 0.3504 0.1473 0.0
C472 C 0.33089 0.25325 0.15085 0.0
C473 C 0.24432 0.27807 0.14417 0.0
C474 C 0.36569 0.21721 0.15403 0.0
C475 C 0.35295 0.16818 0.15138 0.0
C476 C 0.28267 0.24045 0.14514 0.0
C477 C 0.30461 0.15689 0.14469 0.0
C478 C 0.19556 0.26602 0.13967 0.0
C479 C 0.22283 0.36102 0.15071 0.0
N480 N 0.27119 0.1927 0.14203 0.0
N481 N 0.25622 0.32523 0.14925 0.0
H482 H 0.10543 0.214 0.63877 0.0
H483 H 0.38281 0.29459 0.63867 0.0
H484 H 0.22349 0.11399 0.64989 0.0
H485 H 0.26551 0.39396 0.65444 0.0
H486 H 0.32452 0.22879 0.63333 0.0
H487 H 0.16342 0.28053 0.63508 0.0
C488 C 0.14355 0.20585 0.63999 0.0
C489 C 0.15952 0.15817 0.64472 0.0
C490 C 0.31152 0.26506 0.63772 0.0
C491 C 0.22614 0.23447 0.64061 0.0
C492 C 0.34477 0.30281 0.64061 0.0
C493 C 0.32916 0.35007 0.64712 0.0
C494 C 0.26211 0.27446 0.6411 0.0
C495 C 0.27931 0.35819 0.64953 0.0
C496 C 0.17661 0.24397 0.63806 0.0
C497 C 0.20943 0.15008 0.64634 0.0
N498 N 0.24761 0.32077 0.6466 0.0
N499 N 0.24091 0.18781 0.64436 0.0
H500 H 0.78768 0.89454 0.37433 0.0
H501 H 0.73247 0.60993 0.37251 0.0
H502 H 0.89604 0.7828 0.3716 0.0
H503 H 0.61984 0.71709 0.37771 0.0
H504 H 0.7924 0.67388 0.37689 0.0
H505 H 0.72551 0.83165 0.38025 0.0
C506 C 0.79851 0.85695 0.37544 0.0
C507 C 0.84725 0.84404 0.37228 0.0
C508 C 0.75463 0.68361 0.37734 0.0
C509 C 0.77632 0.77196 0.3788 0.0
C510 C 0.72024 0.64694 0.37485 0.0
C511 C 0.67088 0.65801 0.37458 0.0
C512 C 0.73992 0.73214 0.37927 0.0
C513 C 0.65747 0.7068 0.37786 0.0
C514 C 0.76297 0.82105 0.37868 0.0
C515 C 0.85902 0.79466 0.37368 0.0
N516 N 0.69178 0.74213 0.37975 0.0
N517 N 0.82394 0.76065 0.37663 0.0
H518 H 0.60434 0.79035 0.87935 0.0
H519 H 0.88275 0.71338 0.87992 0.0
H520 H 0.72213 0.89198 0.87164 0.0
H521 H 0.76588 0.61236 0.86587 0.0
H522 H 0.82396 0.77846 0.88572 0.0
H523 H 0.66274 0.72435 0.88325 0.0
C524 C 0.64245 0.79893 0.87896 0.0
C525 C 0.65827 0.84689 0.87508 0.0
C526 C 0.81117 0.74198 0.88163 0.0
C527 C 0.72535 0.77133 0.87937 0.0
C528 C 0.84473 0.70468 0.87846 0.0
C529 C 0.82935 0.6572 0.87228 0.0
C530 C 0.76173 0.73186 0.87879 0.0
C531 C 0.7795 0.64837 0.87048 0.0
C532 C 0.67577 0.76116 0.88099 0.0
C533 C 0.70819 0.85562 0.87447 0.0
N534 N 0.74754 0.68533 0.8736 0.0
N535 N 0.73987 0.81826 0.87648 0.0
H536 H 0.04059 0.56007 0.92605 0.0
H537 H 0.96155 0.44147 0.08734 0.0
H538 H 0.90206 0.4928 0.94173 0.0
H539 H 0.10058 0.5074 0.07123 0.0
H540 H 0.93914 0.45976 0.03404 0.0
H541 H 0.06347 0.54034 0.97903 0.0
C542 C 0.01499 0.54106 0.94057 0.0
C543 C 0.96923 0.52824 0.92935 0.0
C544 C 0.97456 0.4702 0.04217 0.0
C545 C 0.99524 0.50561 0.99018 0.0
C546 C 0.98739 0.45979 0.07264 0.0
C547 C 0.03309 0.4728 0.08386 0.0
C548 C 0.00761 0.49385 0.0227 0.0
C549 C 0.06498 0.49657 0.06366 0.0
C550 C 0.02809 0.52983 0.97086 0.0
C551 C 0.93768 0.50353 0.94931 0.0
N552 N 0.05165 0.50629 0.03413 0.0
N553 N 0.95123 0.49314 0.97872 0.0
H554 H 0.94821 0.01061 0.5957 0.0
H555 H 0.00365 0.05346 0.41868 0.0
H556 H 0.09042 0.05472 0.56681 0.0
H557 H 0.93394 0.92189 0.44844 0.0
H558 H 0.02073 0.07314 0.47318 0.0
H559 H 0.92709 0.99574 0.54125 0.0
C560 C 0.97479 0.01735 0.57788 0.0
C561 C 0.02122 0.03337 0.58563 0.0
C562 C 0.00138 0.04021 0.46761 0.0
C563 C 0.99692 0.01818 0.52379 0.0
C564 C 0.99149 0.02915 0.43672 0.0
C565 C 0.96767 0.98595 0.42927 0.0
C566 C 0.98581 0.0086 0.49101 0.0
C567 C 0.95274 0.95538 0.45336 0.0
C568 C 0.96279 0.00887 0.54699 0.0
C569 C 0.05443 0.04175 0.56174 0.0
N570 N 0.96169 0.96746 0.48321 0.0
N571 N 0.04152 0.0345 0.53182 0.0
H572 H 0.59105 0.95068 0.95274 0.0
H573 H 0.42986 0.08702 0.07133 0.0
H574 H 0.44886 0.99533 0.92463 0.0
H575 H 0.49958 0.95485 0.09928 0.0
H576 H 0.44574 0.06646 0.01707 0.0
H577 H 0.56838 0.96442 1.00681 0.0
C578 C 0.55514 0.96362 0.95799 0.0
C579 C 0.52174 0.97208 0.93428 0.0
C580 C 0.4572 0.04188 0.03511 0.0
C581 C 0.49611 0.98852 0.99578 0.0
C582 C 0.44837 0.05359 0.06594 0.0
C583 C 0.46339 0.02241 0.0896 0.0
C584 C 0.48271 0.99959 0.02805 0.0
C585 C 0.48724 0.97957 0.08157 0.0
C586 C 0.54221 0.97105 0.98876 0.0
C587 C 0.47554 0.98837 0.9423 0.0
N588 N 0.49696 0.96974 0.0514 0.0
N589 N 0.46425 0.99684 0.97242 0.0
H590 H 0.46046 0.56167 0.4312 0.0
H591 H 0.54091 0.44711 0.59322 0.0
H592 H 0.59984 0.49718 0.44733 0.0
H593 H 0.40242 0.51375 0.57755 0.0
H594 H 0.56329 0.46554 0.53995 0.0
H595 H 0.43842 0.54406 0.48465 0.0
C596 C 0.48643 0.54372 0.44592 0.0
C597 C 0.53216 0.531 0.43467 0.0
C598 C 0.52803 0.47621 0.54818 0.0
C599 C 0.5071 0.5108 0.49605 0.0
C600 C 0.51522 0.46574 0.57865 0.0
C601 C 0.46961 0.47875 0.58996 0.0
C602 C 0.49503 0.49985 0.52876 0.0
C603 C 0.43794 0.50293 0.56991 0.0
C604 C 0.47382 0.53374 0.47649 0.0
C605 C 0.56422 0.50775 0.45492 0.0
N606 N 0.45119 0.51257 0.54033 0.0
N607 N 0.5511 0.49847 0.48457 0.0
loop_
_geom_bond_atom_site_label_1
_geom_bond_atom_site_label_2
_geom_bond_distance
_geom_bond_site_symmetry_2
_ccdc_geom_bond_type
Fe0 O2 1.918 . S
Fe0 O5 1.997 . S
Fe0 O6 2.002 . S
Fe0 O11 1.976 . S
Fe0 O14 1.996 1_455 S
Fe1 O2 1.918 . S
Fe1 O9 1.997 . S
Fe1 O12 1.996 . S
Fe1 O16 1.976 . S
Fe1 O19 2.002 . S
O2 Fe0 1.918 . S
O2 Fe1 1.918 . S
O2 Fe3 1.918 . S
Fe3 O2 1.918 . S
Fe3 O4 2.002 . S
Fe3 O13 1.976 1_455 S
Fe3 O17 1.996 . S
Fe3 O20 1.997 . S
O4 Fe3 2.002 . S
O4 C21 1.295 . S
O5 Fe0 1.997 . S
O5 C21 1.235 . S
O6 Fe0 2.002 . S
O6 C7 1.295 . S
C7 O6 1.295 . S
C7 O9 1.235 . S
C8 O13 1.287 . S
C8 O14 1.255 . S
O9 Fe1 1.997 . S
O9 C7 1.235 . S
C10 O16 1.287 . S
C10 O17 1.255 . S
O11 Fe0 1.976 . S
O11 C18 1.287 . S
O12 Fe1 1.996 . S
O12 C18 1.255 . S
O13 Fe3 1.976 1_655 S
O13 C8 1.287 . S
O14 Fe0 1.996 1_655 S
O14 C8 1.255 . S
C15 O19 1.295 . S
C15 O20 1.235 . S
O16 Fe1 1.976 . S
O16 C10 1.287 . S
O17 Fe3 1.996 . S
O17 C10 1.255 . S
C18 O11 1.287 . S
C18 O12 1.255 . S
O19 Fe1 2.002 . S
O19 C15 1.295 . S
O20 Fe3 1.997 . S
O20 C15 1.235 . S
C21 O4 1.295 . S
C21 O5 1.235 . S
Fe22 O24 1.918 . S
Fe22 O27 1.997 . S
Fe22 O28 2.002 . S
Fe22 O33 1.976 1_455 S
Fe22 O36 1.996 . S
Fe23 O24 1.918 . S
Fe23 O31 1.997 . S
Fe23 O34 1.996 1_455 S
Fe23 O38 1.976 1_545 S
Fe23 O41 2.002 . S
O24 Fe22 1.918 . S
O24 Fe23 1.918 . S
O24 Fe25 1.918 . S
Fe25 O24 1.918 . S
Fe25 O26 2.002 . S
Fe25 O35 1.976 . S
Fe25 O39 1.996 1_545 S
Fe25 O42 1.997 . S
O26 Fe25 2.002 . S
O26 C43 1.295 . S
O27 Fe22 1.997 . S
O27 C43 1.235 . S
O28 Fe22 2.002 . S
O28 C29 1.295 . S
C29 O28 1.295 . S
C29 O31 1.235 . S
C30 O35 1.287 . S
C30 O36 1.255 . S
O31 Fe23 1.997 . S
O31 C29 1.235 . S
C32 O38 1.287 . S
C32 O39 1.255 . S
O33 Fe22 1.976 1_655 S
O33 C40 1.287 . S
O34 Fe23 1.996 1_655 S
O34 C40 1.255 . S
O35 Fe25 1.976 . S
O35 C30 1.287 . S
O36 Fe22 1.996 . S
O36 C30 1.255 . S
C37 O41 1.295 . S
C37 O42 1.235 . S
O38 Fe23 1.976 1_565 S
O38 C32 1.287 . S
O39 Fe25 1.996 1_565 S
O39 C32 1.255 . S
C40 O33 1.287 . S
C40 O34 1.255 . S
O41 Fe23 2.002 . S
O41 C37 1.295 . S
O42 Fe25 1.997 . S
O42 C37 1.235 . S
C43 O26 1.295 . S
C43 O27 1.235 . S
Fe44 O46 1.918 . S
Fe44 O49 1.997 . S
Fe44 O50 2.002 . S
Fe44 O55 1.976 . S
Fe44 O58 1.996 1_545 S
Fe45 O46 1.918 . S
Fe45 O53 1.997 . S
Fe45 O56 1.996 . S
Fe45 O60 1.976 . S
Fe45 O63 2.002 . S
O46 Fe44 1.918 . S
O46 Fe45 1.918 . S
O46 Fe47 1.918 . S
Fe47 O46 1.918 . S
Fe47 O48 2.002 . S
Fe47 O57 1.976 1_545 S
Fe47 O61 1.996 . S
Fe47 O64 1.997 . S
O48 Fe47 2.002 . S
O48 C65 1.295 . S
O49 Fe44 1.997 . S
O49 C65 1.235 . S
O50 Fe44 2.002 . S
O50 C51 1.295 . S
C51 O50 1.295 . S
C51 O53 1.235 . S
C52 O57 1.287 . S
C52 O58 1.255 . S
O53 Fe45 1.997 . S
O53 C51 1.235 . S
C54 O60 1.287 . S
C54 O61 1.255 . S
O55 Fe44 1.976 . S
O55 C62 1.287 . S
O56 Fe45 1.996 . S
O56 C62 1.255 . S
O57 Fe47 1.976 1_565 S
O57 C52 1.287 . S
O58 Fe44 1.996 1_565 S
O58 C52 1.255 . S
C59 O63 1.295 . S
C59 O64 1.235 . S
O60 Fe45 1.976 . S
O60 C54 1.287 . S
O61 Fe47 1.996 . S
O61 C54 1.255 . S
C62 O55 1.287 . S
C62 O56 1.255 . S
O63 Fe45 2.002 . S
O63 C59 1.295 . S
O64 Fe47 1.997 . S
O64 C59 1.235 . S
C65 O48 1.295 . S
C65 O49 1.235 . S
Fe66 O68 1.918 . S
Fe66 O71 1.997 . S
Fe66 O72 2.002 . S
Fe66 O77 1.976 . S
Fe66 O80 1.996 . S
Fe67 O68 1.918 . S
Fe67 O75 1.997 . S
Fe67 O78 1.996 . S
Fe67 O82 1.976 . S
Fe67 O85 2.002 . S
O68 Fe66 1.918 . S
O68 Fe67 1.918 . S
O68 Fe69 1.918 . S
Fe69 O68 1.918 . S
Fe69 O70 2.002 . S
Fe69 O79 1.976 . S
Fe69 O83 1.996 . S
Fe69 O86 1.997 . S
O70 Fe69 2.002 . S
O70 C87 1.295 . S
O71 Fe66 1.997 . S
O71 C87 1.235 . S
O72 Fe66 2.002 . S
O72 C73 1.295 . S
C73 O72 1.295 . S
C73 O75 1.235 . S
C74 O79 1.287 . S
C74 O80 1.255 . S
O75 Fe67 1.997 . S
O75 C73 1.235 . S
C76 O82 1.287 . S
C76 O83 1.255 . S
O77 Fe66 1.976 . S
O77 C84 1.287 . S
O78 Fe67 1.996 . S
O78 C84 1.255 . S
O79 Fe69 1.976 . S
O79 C74 1.287 . S
O80 Fe66 1.996 . S
O80 C74 1.255 . S
C81 O85 1.295 . S
C81 O86 1.235 . S
O82 Fe67 1.976 . S
O82 C76 1.287 . S
O83 Fe69 1.996 . S
O83 C76 1.255 . S
C84 O77 1.287 . S
C84 O78 1.255 . S
O85 Fe67 2.002 . S
O85 C81 1.295 . S
O86 Fe69 1.997 . S
O86 C81 1.235 . S
C87 O70 1.295 . S
C87 O71 1.235 . S
Fe88 O90 1.918 . S
Fe88 O93 1.997 . S
Fe88 O94 2.002 . S
Fe88 O99 1.976 . S
Fe88 O102 1.996 . S
Fe89 O90 1.918 . S
Fe89 O97 1.997 . S
Fe89 O100 1.996 . S
Fe89 O104 1.976 . S
Fe89 O107 2.002 . S
O90 Fe88 1.918 . S
O90 Fe89 1.918 . S
O90 Fe91 1.918 . S
Fe91 O90 1.918 . S
Fe91 O92 2.002 . S
Fe91 O101 1.976 . S
Fe91 O105 1.996 . S
Fe91 O108 1.997 . S
O92 Fe91 2.002 . S
O92 C109 1.295 . S
O93 Fe88 1.997 . S
O93 C109 1.235 . S
O94 Fe88 2.002 . S
O94 C95 1.295 . S
C95 O94 1.295 . S
C95 O97 1.235 . S
C96 O101 1.287 . S
C96 O102 1.255 . S
O97 Fe89 1.997 . S
O97 C95 1.235 . S
C98 O104 1.287 . S
C98 O105 1.255 . S
O99 Fe88 1.976 . S
O99 C106 1.287 . S
O100 Fe89 1.996 . S
O100 C106 1.255 . S
O101 Fe91 1.976 . S
O101 C96 1.287 . S
O102 Fe88 1.996 . S
O102 C96 1.255 . S
C103 O107 1.295 . S
C103 O108 1.235 . S
O104 Fe89 1.976 . S
O104 C98 1.287 . S
O105 Fe91 1.996 . S
O105 C98 1.255 . S
C106 O99 1.287 . S
C106 O100 1.255 . S
O107 Fe89 2.002 . S
O107 C103 1.295 . S
O108 Fe91 1.997 . S
O108 C103 1.235 . S
C109 O92 1.295 . S
C109 O93 1.235 . S
Fe110 O112 1.918 . S
Fe110 O115 1.997 . S
Fe110 O116 2.002 . S
Fe110 O121 1.976 1_655 S
Fe110 O124 1.996 . S
Fe111 O112 1.918 . S
Fe111 O119 1.997 . S
Fe111 O122 1.996 1_655 S
Fe111 O126 1.976 . S
Fe111 O129 2.002 . S
O112 Fe110 1.918 . S
O112 Fe111 1.918 . S
O112 Fe113 1.918 . S
Fe113 O112 1.918 . S
Fe113 O114 2.002 . S
Fe113 O123 1.976 . S
Fe113 O127 1.996 . S
Fe113 O130 1.997 . S
O114 Fe113 2.002 . S
O114 C131 1.295 . S
O115 Fe110 1.997 . S
O115 C131 1.235 . S
O116 Fe110 2.002 . S
O116 C117 1.295 . S
C117 O116 1.295 . S
C117 O119 1.235 . S
C118 O123 1.287 . S
C118 O124 1.255 . S
O119 Fe111 1.997 . S
O119 C117 1.235 . S
C120 O126 1.287 . S
C120 O127 1.255 . S
O121 Fe110 1.976 1_455 S
O121 C128 1.287 . S
O122 Fe111 1.996 1_455 S
O122 C128 1.255 . S
O123 Fe113 1.976 . S
O123 C118 1.287 . S
O124 Fe110 1.996 . S
O124 C118 1.255 . S
C125 O129 1.295 . S
C125 O130 1.235 . S
O126 Fe111 1.976 . S
O126 C120 1.287 . S
O127 Fe113 1.996 . S
O127 C120 1.255 . S
C128 O121 1.287 . S
C128 O122 1.255 . S
O129 Fe111 2.002 . S
O129 C125 1.295 . S
O130 Fe113 1.997 . S
O130 C125 1.235 . S
C131 O114 1.295 . S
C131 O115 1.235 . S
Fe132 O134 1.918 . S
Fe132 O137 1.997 . S
Fe132 O138 2.002 . S
Fe132 O143 1.976 1_655 S
Fe132 O146 1.996 1_565 S
Fe133 O134 1.918 . S
Fe133 O141 1.997 . S
Fe133 O144 1.996 1_655 S
Fe133 O148 1.976 . S
Fe133 O151 2.002 . S
O134 Fe132 1.918 . S
O134 Fe133 1.918 . S
O134 Fe135 1.918 . S
Fe135 O134 1.918 . S
Fe135 O136 2.002 . S
Fe135 O145 1.976 1_565 S
Fe135 O149 1.996 . S
Fe135 O152 1.997 . S
O136 Fe135 2.002 . S
O136 C153 1.295 . S
O137 Fe132 1.997 . S
O137 C153 1.235 . S
O138 Fe132 2.002 . S
O138 C139 1.295 . S
C139 O138 1.295 . S
C139 O141 1.235 . S
C140 O145 1.287 . S
C140 O146 1.255 . S
O141 Fe133 1.997 . S
O141 C139 1.235 . S
C142 O148 1.287 . S
C142 O149 1.255 . S
O143 Fe132 1.976 1_455 S
O143 C150 1.287 . S
O144 Fe133 1.996 1_455 S
O144 C150 1.255 . S
O145 Fe135 1.976 1_545 S
O145 C140 1.287 . S
O146 Fe132 1.996 1_545 S
O146 C140 1.255 . S
C147 O151 1.295 . S
C147 O152 1.235 . S
O148 Fe133 1.976 . S
O148 C142 1.287 . S
O149 Fe135 1.996 . S
O149 C142 1.255 . S
C150 O143 1.287 . S
C150 O144 1.255 . S
O151 Fe133 2.002 . S
O151 C147 1.295 . S
O152 Fe135 1.997 . S
O152 C147 1.235 . S
C153 O136 1.295 . S
C153 O137 1.235 . S
Fe154 O156 1.918 . S
Fe154 O159 1.997 . S
Fe154 O160 2.002 . S
Fe154 O165 1.976 . S
Fe154 O168 1.996 1_565 S
Fe155 O156 1.918 . S
Fe155 O163 1.997 . S
Fe155 O166 1.996 . S
Fe155 O170 1.976 . S
Fe155 O173 2.002 . S
O156 Fe154 1.918 . S
O156 Fe155 1.918 . S
O156 Fe157 1.918 . S
Fe157 O156 1.918 . S
Fe157 O158 2.002 . S
Fe157 O167 1.976 1_565 S
Fe157 O171 1.996 . S
Fe157 O174 1.997 . S
O158 Fe157 2.002 . S
O158 C175 1.295 . S
O159 Fe154 1.997 . S
O159 C175 1.235 . S
O160 Fe154 2.002 . S
O160 C161 1.295 . S
C161 O160 1.295 . S
C161 O163 1.235 . S
C162 O167 1.287 . S
C162 O168 1.255 . S
O163 Fe155 1.997 . S
O163 C161 1.235 . S
C164 O170 1.287 . S
C164 O171 1.255 . S
O165 Fe154 1.976 . S
O165 C172 1.287 . S
O166 Fe155 1.996 . S
O166 C172 1.255 . S
O167 Fe157 1.976 1_545 S
O167 C162 1.287 . S
O168 Fe154 1.996 1_545 S
O168 C162 1.255 . S
C169 O173 1.295 . S
C169 O174 1.235 . S
O170 Fe155 1.976 . S
O170 C164 1.287 . S
O171 Fe157 1.996 . S
O171 C164 1.255 . S
C172 O165 1.287 . S
C172 O166 1.255 . S
O173 Fe155 2.002 . S
O173 C169 1.295 . S
O174 Fe157 1.997 . S
O174 C169 1.235 . S
C175 O158 1.295 . S
C175 O159 1.235 . S
H176 C182 0.930 . S
H177 C186 0.930 . S
H178 C191 0.929 . S
H179 C189 0.929 . S
H180 C184 0.929 . S
H181 C190 0.929 . S
C182 H176 0.930 . S
C182 C183 1.367 . S
C182 C190 1.378 . S
C183 C182 1.367 . S
C183 C191 1.433 . S
C184 H180 0.929 . S
C184 C186 1.378 . S
C184 C188 1.350 . S
C185 C188 1.463 . S
C185 C190 1.350 . S
C185 N193 1.427 . S
C186 H177 0.930 . S
C186 C184 1.378 . S
C186 C187 1.367 . S
C187 C186 1.367 . S
C187 C189 1.433 . S
C188 C184 1.350 . S
C188 C185 1.463 . S
C188 N192 1.427 . S
C189 H179 0.929 . S
C189 C187 1.433 . S
C189 N192 1.384 . S
C190 H181 0.929 . S
C190 C182 1.378 . S
C190 C185 1.350 . S
C191 H178 0.929 . S
C191 C183 1.433 . S
C191 N193 1.384 . S
N192 C188 1.427 . S
N192 C189 1.384 . S
N193 C185 1.427 . S
N193 C191 1.384 . S
H194 C200 0.930 . S
H195 C204 0.930 . S
H196 C209 0.929 . S
H197 C207 0.929 . S
H198 C202 0.929 . S
H199 C208 0.929 . S
C200 H194 0.930 . S
C200 C201 1.367 . S
C200 C208 1.378 . S
C201 C200 1.367 . S
C201 C209 1.433 . S
C202 H198 0.929 . S
C202 C204 1.378 . S
C202 C206 1.350 1_455 S
C203 C206 1.463 . S
C203 C208 1.350 . S
C203 N211 1.427 . S
C204 H195 0.930 . S
C204 C202 1.378 . S
C204 C205 1.367 . S
C205 C204 1.367 . S
C205 C207 1.433 1_455 S
C206 C202 1.350 1_655 S
C206 C203 1.463 . S
C206 N210 1.427 . S
C207 H197 0.929 . S
C207 C205 1.433 1_655 S
C207 N210 1.384 . S
C208 H199 0.929 . S
C208 C200 1.378 . S
C208 C203 1.350 . S
C209 H196 0.929 . S
C209 C201 1.433 . S
C209 N211 1.384 . S
N210 C206 1.427 . S
N210 C207 1.384 . S
N211 C203 1.427 . S
N211 C209 1.384 . S
H212 C218 0.930 . S
H213 C222 0.930 1_545 S
H214 C227 0.929 . S
H215 C225 0.929 . S
H216 C220 0.929 . S
H217 C226 0.929 . S
C218 H212 0.930 . S
C218 C219 1.367 1_565 S
C218 C226 1.378 . S
C219 C218 1.367 1_545 S
C219 C227 1.433 . S
C220 H216 0.929 . S
C220 C222 1.378 1_545 S
C220 C224 1.350 1_545 S
C221 C224 1.463 . S
C221 C226 1.350 . S
C221 N229 1.427 1_565 S
C222 H213 0.930 1_565 S
C222 C220 1.378 1_565 S
C222 C223 1.367 . S
C223 C222 1.367 . S
C223 C225 1.433 . S
C224 C220 1.350 1_565 S
C224 C221 1.463 . S
C224 N228 1.427 . S
C225 H215 0.929 . S
C225 C223 1.433 . S
C225 N228 1.384 . S
C226 H217 0.929 . S
C226 C218 1.378 . S
C226 C221 1.350 . S
C227 H214 0.929 . S
C227 C219 1.433 . S
C227 N229 1.384 . S
N228 C224 1.427 . S
N228 C225 1.384 . S
N229 C221 1.427 1_545 S
N229 C227 1.384 . S
H230 C236 0.930 . S
H231 C240 0.930 . S
H232 C245 0.929 . S
H233 C243 0.929 . S
H234 C238 0.929 . S
H235 C244 0.929 . S
C236 H230 0.930 . S
C236 C237 1.367 . S
C236 C244 1.378 . S
C237 C236 1.367 . S
C237 C245 1.433 . S
C238 H234 0.929 . S
C238 C240 1.378 . S
C238 C242 1.350 . S
C239 C242 1.463 . S
C239 C244 1.350 . S
C239 N247 1.427 . S
C240 H231 0.930 . S
C240 C238 1.378 . S
C240 C241 1.367 . S
C241 C240 1.367 . S
C241 C243 1.433 . S
C242 C238 1.350 . S
C242 C239 1.463 . S
C242 N246 1.427 . S
C243 H233 0.929 . S
C243 C241 1.433 . S
C243 N246 1.384 . S
C244 H235 0.929 . S
C244 C236 1.378 . S
C244 C239 1.350 . S
C245 H232 0.929 . S
C245 C237 1.433 . S
C245 N247 1.384 . S
N246 C242 1.427 . S
N246 C243 1.384 . S
N247 C239 1.427 . S
N247 C245 1.384 . S
H248 C254 0.930 . S
H249 C258 0.930 . S
H250 C263 0.929 . S
H251 C261 0.929 . S
H252 C256 0.929 . S
H253 C262 0.929 . S
C254 H248 0.930 . S
C254 C255 1.367 . S
C254 C262 1.378 . S
C255 C254 1.367 . S
C255 C263 1.433 . S
C256 H252 0.929 . S
C256 C258 1.378 . S
C256 C260 1.350 . S
C257 C260 1.463 . S
C257 C262 1.350 . S
C257 N265 1.427 . S
C258 H249 0.930 . S
C258 C256 1.378 . S
C258 C259 1.367 . S
C259 C258 1.367 . S
C259 C261 1.433 . S
C260 C256 1.350 . S
C260 C257 1.463 . S
C260 N264 1.427 . S
C261 H251 0.929 . S
C261 C259 1.433 . S
C261 N264 1.384 . S
C262 H253 0.929 . S
C262 C254 1.378 . S
C262 C257 1.350 . S
C263 H250 0.929 . S
C263 C255 1.433 . S
C263 N265 1.384 . S
N264 C260 1.427 . S
N264 C261 1.384 . S
N265 C257 1.427 . S
N265 C263 1.384 . S
H266 C272 0.930 . S
H267 C276 0.930 . S
H268 C281 0.929 . S
H269 C279 0.929 . S
H270 C274 0.929 . S
H271 C280 0.929 . S
C272 H266 0.930 . S
C272 C273 1.367 . S
C272 C280 1.378 . S
C273 C272 1.367 . S
C273 C281 1.433 . S
C274 H270 0.929 . S
C274 C276 1.378 . S
C274 C278 1.350 1_655 S
C275 C278 1.463 . S
C275 C280 1.350 . S
C275 N283 1.427 . S
C276 H267 0.930 . S
C276 C274 1.378 . S
C276 C277 1.367 . S
C277 C276 1.367 . S
C277 C279 1.433 1_655 S
C278 C274 1.350 1_455 S
C278 C275 1.463 . S
C278 N282 1.427 . S
C279 H269 0.929 . S
C279 C277 1.433 1_455 S
C279 N282 1.384 . S
C280 H271 0.929 . S
C280 C272 1.378 . S
C280 C275 1.350 . S
C281 H268 0.929 . S
C281 C273 1.433 . S
C281 N283 1.384 . S
N282 C278 1.427 . S
N282 C279 1.384 . S
N283 C275 1.427 . S
N283 C281 1.384 . S
H284 C290 0.930 . S
H285 C294 0.930 . S
H286 C299 0.929 . S
H287 C297 0.929 . S
H288 C292 0.929 . S
H289 C298 0.929 . S
C290 H284 0.930 . S
C290 C291 1.367 . S
C290 C298 1.378 . S
C291 C290 1.367 . S
C291 C299 1.433 . S
C292 H288 0.929 . S
C292 C294 1.378 . S
C292 C296 1.350 1_565 S
C293 C296 1.463 . S
C293 C298 1.350 . S
C293 N301 1.427 . S
C294 H285 0.930 . S
C294 C292 1.378 . S
C294 C295 1.367 . S
C295 C294 1.367 . S
C295 C297 1.433 1_565 S
C296 C292 1.350 1_545 S
C296 C293 1.463 . S
C296 N300 1.427 . S
C297 H287 0.929 . S
C297 C295 1.433 1_545 S
C297 N300 1.384 . S
C298 H289 0.929 . S
C298 C290 1.378 . S
C298 C293 1.350 . S
C299 H286 0.929 . S
C299 C291 1.433 . S
C299 N301 1.384 . S
N300 C296 1.427 . S
N300 C297 1.384 . S
N301 C293 1.427 . S
N301 C299 1.384 . S
H302 C308 0.930 . S
H303 C312 0.930 . S
H304 C317 0.929 . S
H305 C315 0.929 . S
H306 C310 0.929 . S
H307 C316 0.929 . S
C308 H302 0.930 . S
C308 C309 1.367 . S
C308 C316 1.378 . S
C309 C308 1.367 . S
C309 C317 1.433 . S
C310 H306 0.929 . S
C310 C312 1.378 . S
C310 C314 1.350 . S
C311 C314 1.463 . S
C311 C316 1.350 . S
C311 N319 1.427 . S
C312 H303 0.930 . S
C312 C310 1.378 . S
C312 C313 1.367 . S
C313 C312 1.367 . S
C313 C315 1.433 . S
C314 C310 1.350 . S
C314 C311 1.463 . S
C314 N318 1.427 . S
C315 H305 0.929 . S
C315 C313 1.433 . S
C315 N318 1.384 . S
C316 H307 0.929 . S
C316 C308 1.378 . S
C316 C311 1.350 . S
C317 H304 0.929 . S
C317 C309 1.433 . S
C317 N319 1.384 . S
N318 C314 1.427 . S
N318 C315 1.384 . S
N319 C311 1.427 . S
N319 C317 1.384 . S
H320 C326 0.930 . S
H321 C330 0.930 . S
H322 C335 0.929 . S
H323 C333 0.929 . S
H324 C328 0.929 . S
H325 C334 0.929 . S
C326 H320 0.930 . S
C326 C327 1.367 . S
C326 C334 1.378 . S
C327 C326 1.367 . S
C327 C335 1.433 . S
C328 H324 0.929 . S
C328 C330 1.378 . S
C328 C332 1.350 . S
C329 C332 1.463 . S
C329 C334 1.350 . S
C329 N337 1.427 . S
C330 H321 0.930 . S
C330 C328 1.378 . S
C330 C331 1.367 . S
C331 C330 1.367 . S
C331 C333 1.433 . S
C332 C328 1.350 . S
C332 C329 1.463 . S
C332 N336 1.427 . S
C333 H323 0.929 . S
C333 C331 1.433 . S
C333 N336 1.384 . S
C334 H325 0.929 . S
C334 C326 1.378 . S
C334 C329 1.350 . S
C335 H322 0.929 . S
C335 C327 1.433 . S
C335 N337 1.384 . S
N336 C332 1.427 . S
N336 C333 1.384 . S
N337 C329 1.427 . S
N337 C335 1.384 . S
H338 C344 0.932 . S
H339 C348 0.930 . S
H340 C353 0.929 . S
H341 C351 0.929 . S
H342 C346 0.929 . S
H343 C352 0.929 . S
C344 H338 0.932 . S
C344 C345 1.365 1_655 S
C344 C352 1.378 . S
C345 C344 1.365 1_455 S
C345 C353 1.433 . S
C346 H342 0.929 . S
C346 C348 1.378 . S
C346 C350 1.350 . S
C347 C350 1.463 . S
C347 C352 1.350 1_455 S
C347 N355 1.427 . S
C348 H339 0.930 . S
C348 C346 1.378 . S
C348 C349 1.367 1_455 S
C349 C348 1.367 1_655 S
C349 C351 1.433 . S
C350 C346 1.350 . S
C350 C347 1.463 . S
C350 N354 1.427 1_455 S
C351 H341 0.929 . S
C351 C349 1.433 . S
C351 N354 1.384 . S
C352 H343 0.929 . S
C352 C344 1.378 . S
C352 C347 1.350 1_655 S
C353 H340 0.929 . S
C353 C345 1.433 . S
C353 N355 1.384 . S
N354 C350 1.427 1_655 S
N354 C351 1.384 . S
N355 C347 1.427 . S
N355 C353 1.384 . S
H356 C362 0.930 . S
H357 C366 0.930 . S
H358 C371 0.929 . S
H359 C369 0.929 . S
H360 C364 0.929 . S
H361 C370 0.929 . S
C362 H356 0.930 . S
C362 C363 1.367 . S
C362 C370 1.378 . S
C363 C362 1.367 . S
C363 C371 1.433 1_545 S
C364 H360 0.929 . S
C364 C366 1.378 . S
C364 C368 1.350 1_565 S
C365 C368 1.463 . S
C365 C370 1.350 . S
C365 N373 1.427 1_545 S
C366 H357 0.930 . S
C366 C364 1.378 . S
C366 C367 1.367 . S
C367 C366 1.367 . S
C367 C369 1.433 1_565 S
C368 C364 1.350 1_545 S
C368 C365 1.463 . S
C368 N372 1.427 . S
C369 H359 0.929 . S
C369 C367 1.433 1_545 S
C369 N372 1.384 . S
C370 H361 0.929 . S
C370 C362 1.378 . S
C370 C365 1.350 . S
C371 H358 0.929 . S
C371 C363 1.433 1_565 S
C371 N373 1.384 . S
N372 C368 1.427 . S
N372 C369 1.384 . S
N373 C365 1.427 1_565 S
N373 C371 1.384 . S
H374 C380 0.930 . S
H375 C384 0.930 . S
H376 C389 0.929 . S
H377 C387 0.929 . S
H378 C382 0.929 . S
H379 C388 0.929 . S
C380 H374 0.930 . S
C380 C381 1.367 . S
C380 C388 1.378 . S
C381 C380 1.367 . S
C381 C389 1.433 . S
C382 H378 0.929 . S
C382 C384 1.378 . S
C382 C386 1.350 . S
C383 C386 1.463 . S
C383 C388 1.350 . S
C383 N391 1.427 . S
C384 H375 0.930 . S
C384 C382 1.378 . S
C384 C385 1.367 . S
C385 C384 1.367 . S
C385 C387 1.433 . S
C386 C382 1.350 . S
C386 C383 1.463 . S
C386 N390 1.427 . S
C387 H377 0.929 . S
C387 C385 1.433 . S
C387 N390 1.384 . S
C388 H379 0.929 . S
C388 C380 1.378 . S
C388 C383 1.350 . S
C389 H376 0.929 . S
C389 C381 1.433 . S
C389 N391 1.384 . S
N390 C386 1.427 . S
N390 C387 1.384 . S
N391 C383 1.427 . S
N391 C389 1.384 . S
H392 C398 0.930 . S
H393 C402 0.930 . S
H394 C407 0.929 . S
H395 C405 0.929 . S
H396 C400 0.929 . S
H397 C406 0.929 . S
C398 H392 0.930 . S
C398 C399 1.367 . S
C398 C406 1.378 . S
C399 C398 1.367 . S
C399 C407 1.433 . S
C400 H396 0.929 . S
C400 C402 1.378 . S
C400 C404 1.350 . S
C401 C404 1.463 . S
C401 C406 1.350 . S
C401 N409 1.427 . S
C402 H393 0.930 . S
C402 C400 1.378 . S
C402 C403 1.367 . S
C403 C402 1.367 . S
C403 C405 1.433 . S
C404 C400 1.350 . S
C404 C401 1.463 . S
C404 N408 1.427 . S
C405 H395 0.929 . S
C405 C403 1.433 . S
C405 N408 1.384 . S
C406 H397 0.929 . S
C406 C398 1.378 . S
C406 C401 1.350 . S
C407 H394 0.929 . S
C407 C399 1.433 . S
C407 N409 1.384 . S
N408 C404 1.427 . S
N408 C405 1.384 . S
N409 C401 1.427 . S
N409 C407 1.384 . S
H410 C416 0.930 . S
H411 C420 0.930 . S
H412 C425 0.929 . S
H413 C423 0.929 . S
H414 C418 0.929 . S
H415 C424 0.926 1_655 S
C416 H410 0.930 . S
C416 C417 1.367 . S
C416 C424 1.382 . S
C417 C416 1.367 . S
C417 C425 1.433 . S
C418 H414 0.929 . S
C418 C420 1.378 . S
C418 C422 1.350 . S
C419 C422 1.463 . S
C419 C424 1.349 1_655 S
C419 N427 1.427 1_655 S
C420 H411 0.930 . S
C420 C418 1.378 . S
C420 C421 1.367 . S
C421 C420 1.367 . S
C421 C423 1.433 . S
C422 C418 1.350 . S
C422 C419 1.463 . S
C422 N426 1.427 . S
C423 H413 0.929 . S
C423 C421 1.433 . S
C423 N426 1.384 . S
C424 H415 0.926 1_455 S
C424 C416 1.382 . S
C424 C419 1.349 1_455 S
C425 H412 0.929 . S
C425 C417 1.433 . S
C425 N427 1.384 . S
N426 C422 1.427 . S
N426 C423 1.384 . S
N427 C419 1.427 1_455 S
N427 C425 1.384 . S
H428 C434 0.930 . S
H429 C438 0.930 . S
H430 C443 0.929 1_545 S
H431 C441 0.929 . S
H432 C436 0.929 . S
H433 C442 0.929 . S
C434 H428 0.930 . S
C434 C435 1.367 . S
C434 C442 1.378 . S
C435 C434 1.367 . S
C435 C443 1.433 . S
C436 H432 0.929 . S
C436 C438 1.378 . S
C436 C440 1.350 1_545 S
C437 C440 1.463 . S
C437 C442 1.350 . S
C437 N445 1.427 1_565 S
C438 H429 0.930 . S
C438 C436 1.378 . S
C438 C439 1.367 . S
C439 C438 1.367 . S
C439 C441 1.433 1_545 S
C440 C436 1.350 1_565 S
C440 C437 1.463 . S
C440 N444 1.427 . S
C441 H431 0.929 . S
C441 C439 1.433 1_565 S
C441 N444 1.384 . S
C442 H433 0.929 . S
C442 C434 1.378 . S
C442 C437 1.350 . S
C443 H430 0.929 1_565 S
C443 C435 1.433 . S
C443 N445 1.384 1_565 S
N444 C440 1.427 . S
N444 C441 1.384 . S
N445 C437 1.427 1_545 S
N445 C443 1.384 1_545 S
H446 C452 0.930 . S
H447 C456 0.930 . S
H448 C461 0.929 . S
H449 C459 0.929 . S
H450 C454 0.929 . S
H451 C460 0.929 . S
C452 H446 0.930 . S
C452 C453 1.367 . S
C452 C460 1.378 . S
C453 C452 1.367 . S
C453 C461 1.433 . S
C454 H450 0.929 . S
C454 C456 1.378 . S
C454 C458 1.350 . S
C455 C458 1.463 . S
C455 C460 1.350 . S
C455 N463 1.427 . S
C456 H447 0.930 . S
C456 C454 1.378 . S
C456 C457 1.367 . S
C457 C456 1.367 . S
C457 C459 1.433 . S
C458 C454 1.350 . S
C458 C455 1.463 . S
C458 N462 1.427 . S
C459 H449 0.929 . S
C459 C457 1.433 . S
C459 N462 1.384 . S
C460 H451 0.929 . S
C460 C452 1.378 . S
C460 C455 1.350 . S
C461 H448 0.929 . S
C461 C453 1.433 . S
C461 N463 1.384 . S
N462 C458 1.427 . S
N462 C459 1.384 . S
N463 C455 1.427 . S
N463 C461 1.384 . S
H464 C470 0.930 . S
H465 C474 0.930 . S
H466 C479 0.929 . S
H467 C477 0.929 . S
H468 C472 0.929 . S
H469 C478 0.929 . S
C470 H464 0.930 . S
C470 C471 1.367 . S
C470 C478 1.378 . S
C471 C470 1.367 . S
C471 C479 1.433 . S
C472 H468 0.929 . S
C472 C474 1.378 . S
C472 C476 1.350 . S
C473 C476 1.463 . S
C473 C478 1.350 . S
C473 N481 1.427 . S
C474 H465 0.930 . S
C474 C472 1.378 . S
C474 C475 1.367 . S
C475 C474 1.367 . S
C475 C477 1.433 . S
C476 C472 1.350 . S
C476 C473 1.463 . S
C476 N480 1.427 . S
C477 H467 0.929 . S
C477 C475 1.433 . S
C477 N480 1.384 . S
C478 H469 0.929 . S
C478 C470 1.378 . S
C478 C473 1.350 . S
C479 H466 0.929 . S
C479 C471 1.433 . S
C479 N481 1.384 . S
N480 C476 1.427 . S
N480 C477 1.384 . S
N481 C473 1.427 . S
N481 C479 1.384 . S
H482 C488 0.930 . S
H483 C492 0.930 . S
H484 C497 0.929 . S
H485 C495 0.929 . S
H486 C490 0.929 . S
H487 C496 0.929 . S
C488 H482 0.930 . S
C488 C489 1.367 . S
C488 C496 1.378 . S
C489 C488 1.367 . S
C489 C497 1.433 . S
C490 H486 0.929 . S
C490 C492 1.378 . S
C490 C494 1.350 . S
C491 C494 1.463 . S
C491 C496 1.350 . S
C491 N499 1.427 . S
C492 H483 0.930 . S
C492 C490 1.378 . S
C492 C493 1.367 . S
C493 C492 1.367 . S
C493 C495 1.433 . S
C494 C490 1.350 . S
C494 C491 1.463 . S
C494 N498 1.427 . S
C495 H485 0.929 . S
C495 C493 1.433 . S
C495 N498 1.384 . S
C496 H487 0.929 . S
C496 C488 1.378 . S
C496 C491 1.350 . S
C497 H484 0.929 . S
C497 C489 1.433 . S
C497 N499 1.384 . S
N498 C494 1.427 . S
N498 C495 1.384 . S
N499 C491 1.427 . S
N499 C497 1.384 . S
H500 C506 0.930 . S
H501 C510 0.930 . S
H502 C515 0.929 . S
H503 C513 0.929 . S
H504 C508 0.929 . S
H505 C514 0.929 . S
C506 H500 0.930 . S
C506 C507 1.367 . S
C506 C514 1.378 . S
C507 C506 1.367 . S
C507 C515 1.433 . S
C508 H504 0.929 . S
C508 C510 1.378 . S
C508 C512 1.350 . S
C509 C512 1.463 . S
C509 C514 1.350 . S
C509 N517 1.427 . S
C510 H501 0.930 . S
C510 C508 1.378 . S
C510 C511 1.367 . S
C511 C510 1.367 . S
C511 C513 1.433 . S
C512 C508 1.350 . S
C512 C509 1.463 . S
C512 N516 1.427 . S
C513 H503 0.929 . S
C513 C511 1.433 . S
C513 N516 1.384 . S
C514 H505 0.929 . S
C514 C506 1.378 . S
C514 C509 1.350 . S
C515 H502 0.929 . S
C515 C507 1.433 . S
C515 N517 1.384 . S
N516 C512 1.427 . S
N516 C513 1.384 . S
N517 C509 1.427 . S
N517 C515 1.384 . S
H518 C524 0.930 . S
H519 C528 0.930 . S
H520 C533 0.929 . S
H521 C531 0.929 . S
H522 C526 0.929 . S
H523 C532 0.929 . S
C524 H518 0.930 . S
C524 C525 1.367 . S
C524 C532 1.378 . S
C525 C524 1.367 . S
C525 C533 1.433 . S
C526 H522 0.929 . S
C526 C528 1.378 . S
C526 C530 1.350 . S
C527 C530 1.463 . S
C527 C532 1.350 . S
C527 N535 1.427 . S
C528 H519 0.930 . S
C528 C526 1.378 . S
C528 C529 1.367 . S
C529 C528 1.367 . S
C529 C531 1.433 . S
C530 C526 1.350 . S
C530 C527 1.463 . S
C530 N534 1.427 . S
C531 H521 0.929 . S
C531 C529 1.433 . S
C531 N534 1.384 . S
C532 H523 0.929 . S
C532 C524 1.378 . S
C532 C527 1.350 . S
C533 H520 0.929 . S
C533 C525 1.433 . S
C533 N535 1.384 . S
N534 C530 1.427 . S
N534 C531 1.384 . S
N535 C527 1.427 . S
N535 C533 1.384 . S
H536 C542 0.930 . S
H537 C546 0.930 . S
H538 C551 0.929 . S
H539 C549 0.929 . S
H540 C544 0.929 . S
H541 C550 0.929 . S
C542 H536 0.930 . S
C542 C543 1.367 1_455 S
C542 C550 1.378 . S
C543 C542 1.367 1_655 S
C543 C551 1.433 . S
C544 H540 0.929 . S
C544 C546 1.378 . S
C544 C548 1.350 1_655 S
C545 C548 1.463 1_656 S
C545 C550 1.350 1_655 S
C545 N553 1.427 . S
C546 H537 0.930 . S
C546 C544 1.378 . S
C546 C547 1.367 1_655 S
C547 C546 1.367 1_455 S
C547 C549 1.433 . S
C548 C544 1.350 1_455 S
C548 C545 1.463 1_454 S
C548 N552 1.427 . S
C549 H539 0.929 . S
C549 C547 1.433 . S
C549 N552 1.384 . S
C550 H541 0.929 . S
C550 C542 1.378 . S
C550 C545 1.350 1_455 S
C551 H538 0.929 . S
C551 C543 1.433 . S
C551 N553 1.384 . S
N552 C548 1.427 . S
N552 C549 1.384 . S
N553 C545 1.427 . S
N553 C551 1.384 . S
H554 C560 0.930 . S
H555 C564 0.930 . S
H556 C569 0.929 . S
H557 C567 0.929 . S
H558 C562 0.929 . S
H559 C568 0.929 . S
C560 H554 0.930 . S
C560 C561 1.367 1_665 S
C560 C568 1.378 . S
C561 C560 1.367 1_445 S
C561 C569 1.433 . S
C562 H558 0.929 . S
C562 C564 1.378 . S
C562 C566 1.350 1_445 S
C563 C566 1.463 1_445 S
C563 C568 1.350 1_445 S
C563 N571 1.427 . S
C564 H555 0.930 . S
C564 C562 1.378 . S
C564 C565 1.367 1_445 S
C565 C564 1.367 1_665 S
C565 C567 1.433 . S
C566 C562 1.350 1_665 S
C566 C563 1.463 1_665 S
C566 N570 1.427 . S
C567 H557 0.929 . S
C567 C565 1.433 . S
C567 N570 1.384 . S
C568 H559 0.929 . S
C568 C560 1.378 . S
C568 C563 1.350 1_665 S
C569 H556 0.929 . S
C569 C561 1.433 . S
C569 N571 1.384 . S
N570 C566 1.427 . S
N570 C567 1.384 . S
N571 C563 1.427 . S
N571 C569 1.384 . S
H572 C578 0.930 . S
H573 C582 0.930 . S
H574 C587 0.929 . S
H575 C585 0.929 . S
H576 C580 0.929 . S
H577 C586 0.929 . S
C578 H572 0.930 . S
C578 C579 1.367 . S
C578 C586 1.378 . S
C579 C578 1.367 . S
C579 C587 1.433 1_565 S
C580 H576 0.929 . S
C580 C582 1.378 . S
C580 C584 1.350 . S
C581 C584 1.463 1_566 S
C581 C586 1.350 . S
C581 N589 1.427 1_565 S
C582 H573 0.930 . S
C582 C580 1.378 . S
C582 C583 1.367 . S
C583 C582 1.367 . S
C583 C585 1.433 1_545 S
C584 C580 1.350 . S
C584 C581 1.463 1_544 S
C584 N588 1.427 1_545 S
C585 H575 0.929 . S
C585 C583 1.433 1_565 S
C585 N588 1.384 . S
C586 H577 0.929 . S
C586 C578 1.378 . S
C586 C581 1.350 . S
C587 H574 0.929 . S
C587 C579 1.433 1_545 S
C587 N589 1.384 . S
N588 C584 1.427 1_565 S
N588 C585 1.384 . S
N589 C581 1.427 1_545 S
N589 C587 1.384 . S
H590 C596 0.930 . S
H591 C600 0.930 . S
H592 C605 0.929 . S
H593 C603 0.929 . S
H594 C598 0.929 . S
H595 C604 0.929 . S
C596 H590 0.930 . S
C596 C597 1.367 . S
C596 C604 1.378 . S
C597 C596 1.367 . S
C597 C605 1.433 . S
C598 H594 0.929 . S
C598 C600 1.378 . S
C598 C602 1.350 . S
C599 C602 1.463 . S
C599 C604 1.350 . S
C599 N607 1.427 . S
C600 H591 0.930 . S
C600 C598 1.378 . S
C600 C601 1.367 . S
C601 C600 1.367 . S
C601 C603 1.433 . S
C602 C598 1.350 . S
C602 C599 1.463 . S
C602 N606 1.427 . S
C603 H593 0.929 . S
C603 C601 1.433 . S
C603 N606 1.384 . S
C604 H595 0.929 . S
C604 C596 1.378 . S
C604 C599 1.350 . S
C605 H592 0.929 . S
C605 C597 1.433 . S
C605 N607 1.384 . S
N606 C602 1.427 . S
N606 C603 1.384 . S
N607 C599 1.427 . S
N607 C605 1.384 . S
C183 C98 1.268 . S
C187 C15 1.257 . S
C201 C120 1.263 . S
C205 C29 1.269 . S
C219 C65 1.260 . S
C223 C150 1.261 . S
C237 C81 1.269 . S
C241 C162 1.265 . S
C255 C95 1.269 . S
C259 C8 1.267 . S
C273 C32 1.272 . S
C277 C117 1.264 . S
C291 C62 1.272 . S
C295 C153 1.264 . S
C309 C74 1.272 . S
C313 C169 1.266 . S
C327 C125 1.264 . S
C331 C76 1.264 . S
C345 C10 1.257 . S
C349 C139 1.264 . S
C363 C40 1.267 . S
C367 C175 1.274 . S
C381 C52 1.262 . S
C385 C103 1.275 . S
C399 C87 1.274 . S
C403 C128 1.259 . S
C417 C21 1.267 . S
C421 C140 1.268 . S
C435 C164 1.261 . S
C439 C37 1.275 . S
C453 C106 1.264 . S
C457 C51 1.264 . S
C471 C7 1.701 . S
C475 C59 1.708 . S
C489 C43 1.705 . S
C493 C73 1.705 . S
C507 C147 1.707 . S
C511 C109 1.703 . S
C525 C161 1.708 . S
C529 C131 1.702 . S
C543 C118 1.438 . S
C547 C18 1.438 . S
C561 C30 1.439 . S
C565 C142 1.439 . S
C579 C172 1.434 . S
C583 C54 1.434 . S
C597 C96 1.436 . S
C601 C84 1.435 . S
