# Generated by pormake.
# Topology wke, (5)-cn, num edge types: 1
# Building blocks:
#     Node 0, Type 0, BuildingBlock: XOMCOT_clean_sbu_0, # of connection points: 5
#     Node 1, Type 0, BuildingBlock: XOMCOT_clean_sbu_0, # of connection points: 5
#     Node 2, Type 0, BuildingBlock: XOMCOT_clean_sbu_0, # of connection points: 5
#     Node 3, Type 0, BuildingBlock: XOMCOT_clean_sbu_0, # of connection points: 5
#     Node 4, Type 0, BuildingBlock: XOMCOT_clean_sbu_0, # of connection points: 5
#     Node 5, Type 0, BuildingBlock: XOMCOT_clean_sbu_0, # of connection points: 5
#     Node 6, Type 0, BuildingBlock: XOMCOT_clean_sbu_0, # of connection points: 5
#     Node 7, Type 0, BuildingBlock: XOMCOT_clean_sbu_0, # of connection points: 5
#     Node 8, Type 0, BuildingBlock: XOMCOT_clean_sbu_0, # of connection points: 5
#     Node 9, Type 0, BuildingBlock: XOMCOT_clean_sbu_0, # of connection points: 5
#     Node 10, Type 0, BuildingBlock: XOMCOT_clean_sbu_0, # of connection points: 5
#     Node 11, Type 0, BuildingBlock: XOMCOT_clean_sbu_0, # of connection points: 5
#     Edge 12, Type (0, 0), BuildingBlock: OJICUG_clean_linker_0, # of connection points: 2
#     Edge 13, Type (0, 0), BuildingBlock: OJICUG_clean_linker_0, # of connection points: 2
#     Edge 14, Type (0, 0), BuildingBlock: OJICUG_clean_linker_0, # of connection points: 2
#     Edge 15, Type (0, 0), BuildingBlock: OJICUG_clean_linker_0, # of connection points: 2
#     Edge 16, Type (0, 0), BuildingBlock: OJICUG_clean_linker_0, # of connection points: 2
#     Edge 17, Type (0, 0), BuildingBlock: OJICUG_clean_linker_0, # of connection points: 2
#     Edge 18, Type (0, 0), BuildingBlock: OJICUG_clean_linker_0, # of connection points: 2
#     Edge 19, Type (0, 0), BuildingBlock: OJICUG_clean_linker_0, # of connection points: 2
#     Edge 20, Type (0, 0), BuildingBlock: OJICUG_clean_linker_0, # of connection points: 2
#     Edge 21, Type (0, 0), BuildingBlock: OJICUG_clean_linker_0, # of connection points: 2
#     Edge 22, Type (0, 0), BuildingBlock: OJICUG_clean_linker_0, # of connection points: 2
#     Edge 23, Type (0, 0), BuildingBlock: OJICUG_clean_linker_0, # of connection points: 2
#     Edge 24, Type (0, 0), BuildingBlock: OJICUG_clean_linker_0, # of connection points: 2
#     Edge 25, Type (0, 0), BuildingBlock: OJICUG_clean_linker_0, # of connection points: 2
#     Edge 26, Type (0, 0), BuildingBlock: OJICUG_clean_linker_0, # of connection points: 2
#     Edge 27, Type (0, 0), BuildingBlock: OJICUG_clean_linker_0, # of connection points: 2
#     Edge 28, Type (0, 0), BuildingBlock: OJICUG_clean_linker_0, # of connection points: 2
#     Edge 29, Type (0, 0), BuildingBlock: OJICUG_clean_linker_0, # of connection points: 2
#     Edge 30, Type (0, 0), BuildingBlock: OJICUG_clean_linker_0, # of connection points: 2
#     Edge 31, Type (0, 0), BuildingBlock: OJICUG_clean_linker_0, # of connection points: 2
#     Edge 32, Type (0, 0), BuildingBlock: OJICUG_clean_linker_0, # of connection points: 2
#     Edge 33, Type (0, 0), BuildingBlock: OJICUG_clean_linker_0, # of connection points: 2
#     Edge 34, Type (0, 0), BuildingBlock: OJICUG_clean_linker_0, # of connection points: 2
#     Edge 35, Type (0, 0), BuildingBlock: OJICUG_clean_linker_0, # of connection points: 2
#     Edge 36, Type (0, 0), BuildingBlock: OJICUG_clean_linker_0, # of connection points: 2
#     Edge 37, Type (0, 0), BuildingBlock: OJICUG_clean_linker_0, # of connection points: 2
#     Edge 38, Type (0, 0), BuildingBlock: OJICUG_clean_linker_0, # of connection points: 2
#     Edge 39, Type (0, 0), BuildingBlock: OJICUG_clean_linker_0, # of connection points: 2
#     Edge 40, Type (0, 0), BuildingBlock: OJICUG_clean_linker_0, # of connection points: 2
#     Edge 41, Type (0, 0), BuildingBlock: OJICUG_clean_linker_0, # of connection points: 2
# Relax obj value: 0.147
# Max RMSD: 0.149
# Mean RMSD: 0.149
data_MOF--net-wke--node1-XOMCOT_clean_sbu_0--edge1-OJICUG_clean_linker_0
_symmetry_space_group_name_H-M    P1
_symmetry_Int_Tables_number       1
_symmetry_cell_setting            triclinic
loop_
_symmetry_equiv_pos_as_xyz
'x, y, z'
_cell_length_a     53.059387
_cell_length_b     52.924829
_cell_length_c     13.52674
_cell_angle_alpha  89.994826
_cell_angle_beta   90.019265
_cell_angle_gamma 120.08804
loop_
_atom_site_label
_atom_site_type_symbol
_atom_site_fract_x
_atom_site_fract_y
_atom_site_fract_z
_atom_type_partial_charge
Co0 Co 0.11844 0.42267 0.34318 0.0
C1 C 0.11551 0.42203 0.1237 0.0
C2 C 0.08735 0.3797 0.18435 0.0
C3 C 0.0865 0.3775 0.08256 0.0
N4 N 0.105 0.40785 0.21026 0.0
N5 N 0.10423 0.40427 0.04468 0.0
H6 H 0.13275 0.44434 0.11765 0.0
H7 H 0.07656 0.36177 0.23589 0.0
C8 C 0.05319 0.38648 0.37288 0.0
O9 O 0.04874 0.39535 0.28734 0.0
N10 N 0.13197 0.43677 0.47507 0.0
C11 C 0.15023 0.46449 0.50311 0.0
C12 C 0.15147 0.46545 0.60496 0.0
C13 C 0.12269 0.42119 0.55943 0.0
N14 N 0.13398 0.4382 0.64029 0.0
C15 C 0.12522 0.47575 0.26248 0.0
C16 C 0.08173 0.47762 0.36813 0.0
C17 C 0.09688 0.49896 0.29581 0.0
C18 C 0.11921 0.49806 0.24414 0.0
C19 C 0.08823 0.45526 0.38311 0.0
N20 N 0.10866 0.45353 0.32626 0.0
H21 H 0.14401 0.47713 0.22719 0.0
H22 H 0.0773 0.43993 0.44225 0.0
H23 H 0.16114 0.48283 0.45319 0.0
H24 H 0.1071 0.39806 0.56153 0.0
O25 O 0.15791 0.44359 0.29566 0.0
O26 O 0.13597 0.39803 0.35036 0.0
O27 O 0.07907 0.39475 0.40204 0.0
C28 C 0.15924 0.42019 0.31329 0.0
H29 H 0.07421 0.35766 0.0401 0.0
H30 H 0.16398 0.48483 0.64936 0.0
H31 H 0.06514 0.47826 0.41289 0.0
H32 H 0.13274 0.51513 0.19223 0.0
Co33 Co 0.70086 0.11272 0.82472 0.0
C34 C 0.70265 0.11267 0.60552 0.0
C35 C 0.70255 0.07513 0.66418 0.0
C36 C 0.70403 0.07441 0.56242 0.0
N37 N 0.70065 0.09868 0.69124 0.0
N38 N 0.70383 0.09799 0.526 0.0
H39 H 0.7051 0.13412 0.60056 0.0
H40 H 0.70364 0.05983 0.7144 0.0
C41 C 0.66456 0.04807 0.86186 0.0
O42 O 0.64787 0.04592 0.7868 0.0
N43 N 0.70194 0.12677 0.95695 0.0
C44 C 0.69749 0.14865 0.98453 0.0
C45 C 0.69854 0.15041 0.08621 0.0
C46 C 0.70586 0.11567 0.04142 0.0
N47 N 0.70366 0.12954 0.12192 0.0
C48 C 0.65599 0.12029 0.73757 0.0
C49 C 0.61169 0.08624 0.86751 0.0
C50 C 0.60613 0.10027 0.78968 0.0
C51 C 0.62876 0.11756 0.72483 0.0
C52 C 0.63965 0.08987 0.87823 0.0
N53 N 0.66108 0.10557 0.81045 0.0
H54 H 0.67327 0.13558 0.69119 0.0
H55 H 0.64414 0.08049 0.94201 0.0
H56 H 0.69322 0.16198 0.93434 0.0
H57 H 0.70931 0.09722 0.04392 0.0
O58 O 0.72077 0.15225 0.77799 0.0
O59 O 0.74296 0.12863 0.82924 0.0
O60 O 0.68715 0.0725 0.88237 0.0
C61 C 0.74502 0.15261 0.79439 0.0
H62 H 0.70522 0.05788 0.51889 0.0
H63 H 0.69554 0.16578 0.13012 0.0
H64 H 0.59499 0.07361 0.92159 0.0
H65 H 0.62564 0.12955 0.66571 0.0
Co66 Co 0.59191 0.70349 0.3481 0.0
C67 C 0.59256 0.70161 0.1286 0.0
C68 C 0.63438 0.71392 0.18923 0.0
C69 C 0.63657 0.71523 0.08742 0.0
N70 N 0.6065 0.70457 0.21513 0.0
N71 N 0.61012 0.70735 0.0496 0.0
H72 H 0.57066 0.69762 0.12254 0.0
H73 H 0.65214 0.72024 0.24076 0.0
C74 C 0.62579 0.67211 0.37719 0.0
O75 O 0.61637 0.65895 0.29159 0.0
N76 N 0.57805 0.70324 0.47998 0.0
C77 C 0.55058 0.69465 0.50793 0.0
C78 C 0.54965 0.69501 0.60976 0.0
C79 C 0.59352 0.70911 0.56435 0.0
N80 N 0.57667 0.70394 0.64515 0.0
C81 C 0.53852 0.65787 0.26617 0.0
C82 C 0.53505 0.61197 0.3739 0.0
C83 C 0.51414 0.60615 0.30048 0.0
C84 C 0.51584 0.62967 0.24776 0.0
C85 C 0.55777 0.6407 0.38897 0.0
N86 N 0.56034 0.66309 0.33097 0.0
H87 H 0.53773 0.67557 0.23029 0.0
H88 H 0.57273 0.64485 0.449 0.0
H89 H 0.53237 0.68778 0.45794 0.0
H90 H 0.61644 0.71595 0.56648 0.0
O91 O 0.57197 0.72304 0.30097 0.0
O92 O 0.61741 0.7457 0.35582 0.0
O93 O 0.61885 0.69075 0.40658 0.0
C94 C 0.59564 0.74752 0.31914 0.0
H95 H 0.65619 0.72191 0.04492 0.0
H96 H 0.53044 0.68878 0.6541 0.0
H97 H 0.53381 0.59456 0.4195 0.0
H98 H 0.49911 0.62646 0.19503 0.0
Co99 Co 0.8895 0.58469 0.84386 0.0
C100 C 0.89169 0.58557 0.62439 0.0
C101 C 0.91995 0.62781 0.68573 0.0
C102 C 0.92014 0.63032 0.58419 0.0
N103 N 0.90265 0.59955 0.71098 0.0
N104 N 0.90216 0.60368 0.5459 0.0
H105 H 0.87527 0.56297 0.61821 0.0
H106 H 0.93068 0.64563 0.7377 0.0
C107 C 0.95481 0.62106 0.87204 0.0
O108 O 0.95918 0.61237 0.78602 0.0
N109 N 0.8763 0.57074 0.97593 0.0
C110 C 0.85828 0.5431 1.00535 0.0
C111 C 0.8567 0.54275 0.1072 0.0
C112 C 0.88519 0.58682 0.05928 0.0
N113 N 0.87379 0.57026 0.14095 0.0
C114 C 0.88268 0.53161 0.76298 0.0
C115 C 0.92639 0.52989 0.86784 0.0
C116 C 0.91111 0.50846 0.79588 0.0
C117 C 0.88867 0.50929 0.74458 0.0
C118 C 0.9199 0.55225 0.8829 0.0
N119 N 0.89933 0.55389 0.82648 0.0
H120 H 0.86382 0.5302 0.72801 0.0
H121 H 0.93093 0.56764 0.94181 0.0
H122 H 0.84775 0.52446 0.95649 0.0
H123 H 0.89993 0.61016 0.05992 0.0
O124 O 0.84994 0.56368 0.79716 0.0
O125 O 0.87191 0.60927 0.8516 0.0
O126 O 0.92897 0.61266 0.90189 0.0
C127 C 0.8486 0.58708 0.81482 0.0
H128 H 0.93146 0.65041 0.54238 0.0
H129 H 0.84477 0.52352 0.1528 0.0
H130 H 0.94307 0.5293 0.9123 0.0
H131 H 0.87507 0.49217 0.69294 0.0
Co132 Co 0.30712 0.89487 0.32405 0.0
C133 C 0.3043 0.89461 0.10448 0.0
C134 C 0.3056 0.93261 0.16439 0.0
C135 C 0.30344 0.93326 0.063 0.0
N136 N 0.30721 0.90885 0.1905 0.0
N137 N 0.30269 0.9093 0.02543 0.0
H138 H 0.30228 0.87337 0.09944 0.0
H139 H 0.30487 0.94799 0.21511 0.0
C140 C 0.34357 0.95947 0.3621 0.0
O141 O 0.36043 0.96166 0.2876 0.0
N142 N 0.30606 0.881 0.45657 0.0
C143 C 0.31079 0.85942 0.48601 0.0
C144 C 0.30918 0.85779 0.58785 0.0
C145 C 0.30149 0.89205 0.53988 0.0
N146 N 0.30351 0.87847 0.62127 0.0
C147 C 0.35211 0.88774 0.23588 0.0
C148 C 0.39619 0.92104 0.36771 0.0
C149 C 0.40182 0.90731 0.28911 0.0
C150 C 0.37932 0.89041 0.22328 0.0
C151 C 0.36824 0.91745 0.37831 0.0
N152 N 0.34692 0.90209 0.30979 0.0
H153 H 0.33491 0.87279 0.18851 0.0
H154 H 0.36367 0.92661 0.44252 0.0
H155 H 0.31571 0.8463 0.4371 0.0
H156 H 0.29685 0.90976 0.54108 0.0
O157 O 0.2873 0.8553 0.27763 0.0
O158 O 0.26502 0.87887 0.32855 0.0
O159 O 0.3208 0.93508 0.38163 0.0
C160 C 0.26302 0.85489 0.2939 0.0
H161 H 0.3016 0.94962 0.02077 0.0
H162 H 0.31287 0.8432 0.63379 0.0
H163 H 0.41279 0.93338 0.42241 0.0
H164 H 0.38252 0.87868 0.16347 0.0
Co165 Co 0.41612 0.30388 0.84895 0.0
C166 C 0.41548 0.3058 0.62945 0.0
C167 C 0.37362 0.29334 0.69 0.0
C168 C 0.37143 0.29203 0.58819 0.0
N169 N 0.40151 0.30277 0.71595 0.0
N170 N 0.3979 0.30001 0.55041 0.0
H171 H 0.4374 0.30989 0.62343 0.0
H172 H 0.35585 0.28695 0.7415 0.0
C173 C 0.3822 0.33522 0.87776 0.0
O174 O 0.39157 0.34833 0.79207 0.0
N175 N 0.43 0.30416 0.98087 0.0
C176 C 0.45747 0.31279 1.00889 0.0
C177 C 0.4584 0.31245 0.11073 0.0
C178 C 0.41452 0.29829 0.0652 0.0
N179 N 0.43138 0.30348 0.14605 0.0
C180 C 0.46954 0.34945 0.76713 0.0
C181 C 0.47293 0.39542 0.87417 0.0
C182 C 0.49386 0.40121 0.80088 0.0
C183 C 0.4922 0.37765 0.74854 0.0
C184 C 0.45024 0.3667 0.88943 0.0
N185 N 0.4477 0.34427 0.83174 0.0
H186 H 0.47034 0.33173 0.7315 0.0
H187 H 0.43527 0.36259 0.94937 0.0
H188 H 0.47568 0.31967 0.95895 0.0
H189 H 0.3916 0.29142 0.06727 0.0
O190 O 0.43603 0.28429 0.80194 0.0
O191 O 0.3906 0.26167 0.85678 0.0
O192 O 0.38919 0.31664 0.90731 0.0
C193 C 0.41235 0.25983 0.82013 0.0
H194 H 0.3518 0.28529 0.54565 0.0
H195 H 0.47761 0.31871 0.15513 0.0
H196 H 0.47415 0.41286 0.91951 0.0
H197 H 0.50894 0.38083 0.69594 0.0
Co198 Co 0.59224 0.89495 0.2034 0.0
C199 C 0.59482 0.8947 0.42297 0.0
C200 C 0.63152 0.93269 0.36306 0.0
C201 C 0.63433 0.93333 0.46445 0.0
N202 N 0.60614 0.90893 0.33695 0.0
N203 N 0.61111 0.90938 0.50202 0.0
H204 H 0.57558 0.87346 0.428 0.0
H205 H 0.64763 0.94806 0.31233 0.0
C206 C 0.62032 0.95954 0.1655 0.0
O207 O 0.60568 0.96169 0.24019 0.0
N208 N 0.57944 0.88108 0.07087 0.0
C209 C 0.55312 0.85951 0.04141 0.0
C210 C 0.5531 0.85788 0.93957 0.0
C211 C 0.59506 0.89214 0.98757 0.0
N212 N 0.57946 0.87856 0.90617 0.0
C213 C 0.54009 0.88772 0.2916 0.0
C214 C 0.5293 0.92108 0.16011 0.0
C215 C 0.50994 0.90731 0.23868 0.0
C216 C 0.51555 0.89038 0.30433 0.0
C217 C 0.55366 0.9175 0.14937 0.0
N218 N 0.55963 0.90212 0.21775 0.0
H219 H 0.54234 0.87275 0.33883 0.0
H220 H 0.5674 0.9267 0.08518 0.0
H221 H 0.53508 0.84638 0.09031 0.0
H222 H 0.6174 0.90984 0.9864 0.0
O223 O 0.57254 0.85538 0.24976 0.0
O224 O 0.61838 0.87899 0.1988 0.0
O225 O 0.61874 0.93518 0.14585 0.0
C226 C 0.59642 0.855 0.23343 0.0
H227 H 0.65254 0.94969 0.50668 0.0
H228 H 0.53483 0.84329 0.89362 0.0
H229 H 0.52504 0.93345 0.10553 0.0
H230 H 0.50062 0.87862 0.3641 0.0
Co231 Co 0.69939 0.58452 0.6845 0.0
C232 C 0.69706 0.58514 0.90397 0.0
C233 C 0.7112 0.62747 0.84332 0.0
C234 C 0.71255 0.62966 0.94511 0.0
N235 N 0.70072 0.59933 0.81741 0.0
N236 N 0.70355 0.6029 0.98299 0.0
H237 H 0.69203 0.56285 0.91002 0.0
H238 H 0.71834 0.6454 0.79178 0.0
C239 C 0.67032 0.6207 0.65458 0.0
O240 O 0.65697 0.6118 0.74005 0.0
N241 N 0.69886 0.57044 0.55263 0.0
C242 C 0.68944 0.54272 0.52461 0.0
C243 C 0.68974 0.54177 0.42277 0.0
C244 C 0.70514 0.58601 0.46826 0.0
N245 N 0.69945 0.569 0.38741 0.0
C246 C 0.65307 0.53143 0.76504 0.0
C247 C 0.60773 0.52953 0.65903 0.0
C248 C 0.60152 0.5082 0.7314 0.0
C249 C 0.62475 0.50911 0.78325 0.0
C250 C 0.6366 0.55191 0.6442 0.0
N251 N 0.65874 0.55365 0.70122 0.0
H252 H 0.67047 0.53006 0.80048 0.0
H253 H 0.64102 0.56724 0.58505 0.0
H254 H 0.68203 0.52439 0.57455 0.0
H255 H 0.71264 0.60914 0.46613 0.0
O256 O 0.71793 0.56361 0.7322 0.0
O257 O 0.74156 0.60918 0.67757 0.0
O258 O 0.68794 0.61244 0.62552 0.0
C259 C 0.74266 0.58703 0.71474 0.0
H260 H 0.7201 0.6495 0.98757 0.0
H261 H 0.68289 0.52239 0.37838 0.0
H262 H 0.59051 0.52888 0.61414 0.0
H263 H 0.62119 0.49205 0.83522 0.0
Co264 Co 0.11608 0.7034 0.17848 0.0
C265 C 0.11359 0.70157 0.39798 0.0
C266 C 0.08395 0.71371 0.33738 0.0
C267 C 0.08307 0.71502 0.43919 0.0
N268 N 0.10255 0.70446 0.31145 0.0
N269 N 0.10172 0.70725 0.47699 0.0
H270 H 0.13155 0.69768 0.40403 0.0
H271 H 0.07246 0.71997 0.28587 0.0
C272 C 0.05084 0.67199 0.14921 0.0
O273 O 0.04714 0.65874 0.23461 0.0
N274 N 0.1297 0.70315 0.0466 0.0
C275 C 0.14854 0.69451 0.01865 0.0
C276 C 0.14983 0.69488 0.91682 0.0
C277 C 0.12013 0.70906 0.96224 0.0
N278 N 0.13179 0.70386 0.88143 0.0
C279 C 0.12374 0.65773 0.26055 0.0
C280 C 0.08133 0.61187 0.15256 0.0
C281 C 0.09632 0.606 0.22623 0.0
C282 C 0.11814 0.6295 0.27905 0.0
C283 C 0.08743 0.64062 0.13738 0.0
N284 N 0.10721 0.66298 0.19553 0.0
H285 H 0.14222 0.67541 0.29653 0.0
H286 H 0.07668 0.6448 0.07719 0.0
H287 H 0.15984 0.6876 0.06864 0.0
H288 H 0.1041 0.71596 0.96014 0.0
O289 O 0.15558 0.72292 0.22567 0.0
O290 O 0.13282 0.74561 0.17086 0.0
O291 O 0.07641 0.6907 0.11995 0.0
C292 C 0.15639 0.7474 0.20758 0.0
H293 H 0.07008 0.72163 0.48172 0.0
H294 H 0.16278 0.68861 0.87249 0.0
H295 H 0.06518 0.59448 0.10686 0.0
H296 H 0.1316 0.62627 0.33197 0.0
Co297 Co 0.4155 0.11227 0.7046 0.0
C298 C 0.41292 0.11253 0.92417 0.0
C299 C 0.37619 0.07456 0.86418 0.0
C300 C 0.37339 0.07392 0.96556 0.0
N301 N 0.4016 0.0983 0.83813 0.0
N302 N 0.39661 0.09786 1.00317 0.0
H303 H 0.43216 0.13376 0.92924 0.0
H304 H 0.36008 0.0592 0.81342 0.0
C305 C 0.3874 0.04769 0.6668 0.0
O306 O 0.40203 0.04556 0.74162 0.0
N307 N 0.4283 0.12613 0.57209 0.0
C308 C 0.45462 0.1477 0.54268 0.0
C309 C 0.45464 0.14933 0.44084 0.0
C310 C 0.41268 0.11508 0.48876 0.0
N311 N 0.42828 0.12865 0.40738 0.0
C312 C 0.46762 0.11943 0.7929 0.0
C313 C 0.47843 0.08616 0.66113 0.0
C314 C 0.49781 0.09992 0.7397 0.0
C315 C 0.49218 0.11679 0.80553 0.0
C316 C 0.45405 0.0897 0.65052 0.0
N317 N 0.44808 0.10506 0.71898 0.0
H318 H 0.46536 0.13437 0.84023 0.0
H319 H 0.4403 0.08051 0.58632 0.0
H320 H 0.47267 0.16082 0.5916 0.0
H321 H 0.39033 0.09738 0.48754 0.0
O322 O 0.43524 0.15184 0.75097 0.0
O323 O 0.3894 0.12827 0.69994 0.0
O324 O 0.38898 0.07204 0.64705 0.0
C325 C 0.41137 0.15225 0.73459 0.0
H326 H 0.35516 0.05757 1.00775 0.0
H327 H 0.47291 0.16391 0.39492 0.0
H328 H 0.48271 0.07383 0.60644 0.0
H329 H 0.50712 0.12854 0.86534 0.0
Co330 Co 0.30854 0.4228 0.18444 0.0
C331 C 0.31087 0.42218 0.40392 0.0
C332 C 0.29666 0.37984 0.34325 0.0
C333 C 0.29532 0.37765 0.44505 0.0
N334 N 0.30718 0.40799 0.31736 0.0
N335 N 0.30437 0.40442 0.48293 0.0
H336 H 0.31595 0.44449 0.40997 0.0
H337 H 0.28951 0.36191 0.2917 0.0
C338 C 0.33761 0.38663 0.1548 0.0
O339 O 0.35094 0.39551 0.24035 0.0
N340 N 0.3091 0.43689 0.05256 0.0
C341 C 0.31852 0.46461 0.02454 0.0
C342 C 0.31823 0.46556 0.9227 0.0
C343 C 0.30281 0.42131 0.96818 0.0
N344 N 0.30852 0.43833 0.88734 0.0
C345 C 0.35485 0.47591 0.26506 0.0
C346 C 0.40019 0.47779 0.15927 0.0
C347 C 0.4064 0.49916 0.23153 0.0
C348 C 0.38317 0.49825 0.28328 0.0
C349 C 0.37133 0.45541 0.1444 0.0
N350 N 0.34918 0.45368 0.20131 0.0
H351 H 0.33744 0.47728 0.3004 0.0
H352 H 0.36692 0.44007 0.0853 0.0
H353 H 0.32593 0.48294 0.07449 0.0
H354 H 0.2953 0.39819 0.96606 0.0
O355 O 0.28997 0.4437 0.23199 0.0
O356 O 0.26637 0.39813 0.17729 0.0
O357 O 0.32001 0.39489 0.12559 0.0
C358 C 0.26525 0.42028 0.21438 0.0
H359 H 0.28775 0.35781 0.48749 0.0
H360 H 0.32509 0.48494 0.87831 0.0
H361 H 0.41742 0.47843 0.11446 0.0
H362 H 0.38672 0.51532 0.33517 0.0
Co363 Co 0.89204 0.30405 0.67939 0.0
C364 C 0.89462 0.30599 0.8989 0.0
C365 C 0.92403 0.29355 0.83835 0.0
C366 C 0.92491 0.29224 0.94016 0.0
N367 N 0.90557 0.30298 0.81239 0.0
N368 N 0.9064 0.3002 0.97793 0.0
H369 H 0.87677 0.31005 0.90492 0.0
H370 H 0.93541 0.28716 0.78685 0.0
C371 C 0.9573 0.33532 0.65033 0.0
O372 O 0.96109 0.34849 0.73592 0.0
N373 N 0.87843 0.30431 0.54748 0.0
C374 C 0.85961 0.31297 0.51946 0.0
C375 C 0.85833 0.31262 0.41762 0.0
C376 C 0.88801 0.29841 0.46314 0.0
N377 N 0.87636 0.30363 0.38229 0.0
C378 C 0.88434 0.34972 0.76116 0.0
C379 C 0.92683 0.39559 0.65351 0.0
C380 C 0.91176 0.40144 0.72686 0.0
C381 C 0.88991 0.37794 0.77953 0.0
C382 C 0.92078 0.36684 0.63849 0.0
N383 N 0.90094 0.34448 0.69644 0.0
H384 H 0.86584 0.33203 0.79699 0.0
H385 H 0.93159 0.36268 0.57852 0.0
H386 H 0.84831 0.31989 0.56941 0.0
H387 H 0.90404 0.29152 0.46106 0.0
O388 O 0.85255 0.28454 0.72652 0.0
O389 O 0.87529 0.26184 0.67174 0.0
O390 O 0.9317 0.31673 0.62094 0.0
C391 C 0.85172 0.26005 0.70842 0.0
H392 H 0.9378 0.2855 0.9827 0.0
H393 H 0.84541 0.31892 0.37323 0.0
H394 H 0.94302 0.41299 0.60794 0.0
H395 H 0.8764 0.38117 0.83221 0.0
C396 C 0.03397 0.37307 0.54594 0.0
C397 C 0.02871 0.37095 0.44336 0.0
H398 H 0.01559 0.36367 0.69173 0.0
C399 C 0.99981 0.35547 0.40969 0.0
H400 H 0.05595 0.38512 0.57458 0.0
C401 C 0.97669 0.34283 0.47704 0.0
C402 C 0.98192 0.34585 0.57966 0.0
H403 H 0.99504 0.35348 0.33127 0.0
H404 H 0.95468 0.33168 0.44845 0.0
C405 C 0.01084 0.3609 0.6133 0.0
C406 C 0.67115 0.01434 0.97592 0.0
C407 C 0.65345 0.02469 0.9369 0.0
H408 H 0.67412 0.9847 0.07803 0.0
C409 C 0.62533 0.01399 0.97521 0.0
H410 H 0.69301 0.02251 0.94793 0.0
C411 C 0.61516 0.99364 0.05219 0.0
C412 C 0.63254 0.98283 0.09009 0.0
H413 H 0.61142 0.02192 0.9472 0.0
H414 H 0.59339 0.98583 0.08059 0.0
C415 C 0.66047 0.99298 0.05044 0.0
C416 C 0.66454 0.63417 0.48154 0.0
C417 C 0.66142 0.63628 0.58412 0.0
H418 H 0.6556 0.64364 0.33576 0.0
C419 C 0.64805 0.65181 0.61781 0.0
H420 H 0.67443 0.62208 0.4529 0.0
C421 C 0.63764 0.66452 0.55048 0.0
C422 C 0.63984 0.66152 0.44786 0.0
H423 H 0.64528 0.65379 0.69623 0.0
H424 H 0.62682 0.67572 0.57908 0.0
C425 C 0.65363 0.64641 0.4142 0.0
C426 C 0.99729 0.64574 0.11229 0.0
C427 C 0.02617 0.66146 0.07866 0.0
H428 H 0.95222 0.62093 0.07325 0.0
C429 C 0.03134 0.66514 0.97606 0.0
H430 H 0.99256 0.64241 0.19066 0.0
C431 C 0.0082 0.65254 0.90867 0.0
C432 C 0.97935 0.63645 0.94238 0.0
H433 H 0.05333 0.67681 0.94742 0.0
H434 H 0.01291 0.65507 0.8302 0.0
C435 C 0.97415 0.63359 0.04493 0.0
C436 C 0.39256 0.01342 0.55435 0.0
C437 C 0.37523 0.0244 0.59137 0.0
H438 H 0.39638 0.98512 0.44973 0.0
C439 C 0.34745 0.01446 0.55065 0.0
H440 H 0.41422 0.02106 0.58357 0.0
C441 C 0.33688 0.99319 0.47584 0.0
C442 C 0.35455 0.98272 0.43761 0.0
H443 H 0.33385 0.02287 0.57755 0.0
H444 H 0.31514 0.98521 0.44695 0.0
C445 C 0.38251 0.99316 0.4771 0.0
C446 C 0.35433 0.36091 0.91457 0.0
C447 C 0.36815 0.34583 0.94833 0.0
H448 H 0.3335 0.3852 0.9531 0.0
C449 C 0.37036 0.34284 0.05098 0.0
H450 H 0.35235 0.36365 0.83611 0.0
C451 C 0.35992 0.35555 0.11823 0.0
C452 C 0.34654 0.37105 0.08443 0.0
H453 H 0.38119 0.33167 0.07966 0.0
H454 H 0.3627 0.35358 0.19666 0.0
C455 C 0.3434 0.37314 0.98183 0.0
C456 C 0.09053 0.55871 0.16414 0.0
C457 C 0.09137 0.57614 0.24372 0.0
H458 H 0.09137 0.52037 0.11858 0.0
C459 C 0.09046 0.56611 0.34076 0.0
H460 H 0.09136 0.56591 0.08865 0.0
C461 C 0.0904 0.54001 0.35794 0.0
C462 C 0.09154 0.52359 0.27837 0.0
H463 H 0.09082 0.579 0.40353 0.0
H464 H 0.09113 0.53358 0.43343 0.0
C465 C 0.09075 0.53276 0.18133 0.0
C466 C 0.5517 0.12569 0.75784 0.0
C467 C 0.52526 0.09926 0.74965 0.0
H468 H 0.59779 0.14654 0.77798 0.0
C469 C 0.52532 0.07278 0.75627 0.0
H470 H 0.55225 0.1464 0.75279 0.0
C471 C 0.55151 0.07286 0.77216 0.0
C472 C 0.57794 0.09943 0.77962 0.0
H473 H 0.50511 0.05214 0.75093 0.0
H474 H 0.55122 0.05229 0.77687 0.0
C475 C 0.57773 0.12578 0.77224 0.0
C476 C 0.47998 0.56625 0.18617 0.0
C477 C 0.48916 0.57631 0.28316 0.0
H478 H 0.44671 0.53372 0.09369 0.0
C479 C 0.47258 0.55893 0.36283 0.0
H480 H 0.4925 0.57911 0.12333 0.0
C481 C 0.44638 0.533 0.3458 0.0
C482 C 0.43637 0.5238 0.24881 0.0
H483 H 0.47901 0.56615 0.43828 0.0
H484 H 0.43338 0.52064 0.40863 0.0
C485 C 0.45391 0.54018 0.16914 0.0
C486 C 0.91714 0.47458 0.68152 0.0
C487 C 0.91643 0.48382 0.77852 0.0
H488 H 0.91653 0.4414 0.58903 0.0
C489 C 0.91765 0.46746 0.85817 0.0
H490 H 0.91645 0.48692 0.61871 0.0
C491 C 0.91762 0.44138 0.84113 0.0
C492 C 0.91666 0.43129 0.74415 0.0
H493 H 0.91698 0.47395 0.93363 0.0
H494 H 0.91732 0.42853 0.90396 0.0
C495 C 0.9174 0.44865 0.66448 0.0
C496 C 0.48259 0.93458 0.25596 0.0
C497 C 0.48255 0.90806 0.24883 0.0
H498 H 0.45681 0.95519 0.27707 0.0
C499 C 0.45605 0.88167 0.25671 0.0
H500 H 0.50283 0.95519 0.25087 0.0
C501 C 0.43007 0.88167 0.27122 0.0
C502 C 0.42997 0.90806 0.27909 0.0
H503 H 0.45543 0.86093 0.25129 0.0
H504 H 0.40995 0.86093 0.2766 0.0
C505 C 0.45645 0.93458 0.27199 0.0
C506 C 0.52798 0.44101 0.68629 0.0
C507 C 0.5188 0.43104 0.78334 0.0
H508 H 0.56124 0.47349 0.59366 0.0
C509 C 0.53536 0.44852 0.86292 0.0
H510 H 0.51548 0.42808 0.62353 0.0
C511 C 0.56154 0.47445 0.84576 0.0
C512 C 0.57155 0.48357 0.74873 0.0
H513 H 0.52894 0.44137 0.93842 0.0
H514 H 0.57453 0.48689 0.90852 0.0
C515 C 0.55403 0.4671 0.66913 0.0
C516 C 0.12904 0.44987 0.81387 0.0
C517 C 0.12667 0.42953 0.74237 0.0
H518 H 0.12314 0.45771 0.96461 0.0
C519 C 0.11632 0.40045 0.77197 0.0
H520 H 0.13626 0.47226 0.79372 0.0
C521 C 0.10873 0.39203 0.87067 0.0
C522 C 0.11132 0.41249 0.94217 0.0
H523 H 0.11444 0.38424 0.71918 0.0
H524 H 0.10134 0.36962 0.89112 0.0
C525 C 0.12144 0.44147 0.91222 0.0
C526 C 0.71761 0.09795 0.35102 0.0
C527 C 0.70425 0.1061 0.42403 0.0
H528 H 0.72866 0.09966 0.19824 0.0
C529 C 0.69101 0.12231 0.3961 0.0
H530 H 0.72825 0.08573 0.37039 0.0
C531 C 0.69107 0.13017 0.29763 0.0
C532 C 0.70443 0.1221 0.22423 0.0
H533 H 0.68002 0.12845 0.4502 0.0
H534 H 0.68004 0.14205 0.27909 0.0
C535 C 0.7178 0.10596 0.25227 0.0
C536 C 0.56464 0.68772 0.81897 0.0
C537 C 0.58523 0.70514 0.74726 0.0
H538 H 0.55648 0.67423 0.96994 0.0
C539 C 0.6144 0.72312 0.77669 0.0
H540 H 0.54214 0.67312 0.79898 0.0
C541 C 0.62269 0.72375 0.87542 0.0
C542 C 0.602 0.70644 0.94711 0.0
H543 H 0.63081 0.73702 0.72375 0.0
H544 H 0.6452 0.73817 0.89576 0.0
C545 C 0.57291 0.68833 0.91736 0.0
C546 C 0.91379 0.6127 0.3676 0.0
C547 C 0.89444 0.5961 0.44338 0.0
H548 H 0.9226 0.61752 0.21268 0.0
C549 C 0.86763 0.57153 0.41735 0.0
H550 H 0.93469 0.63157 0.38487 0.0
C551 C 0.86073 0.56335 0.31842 0.0
C552 C 0.88035 0.57957 0.24274 0.0
H553 H 0.8518 0.5586 0.47323 0.0
H554 H 0.83992 0.54435 0.30127 0.0
C555 C 0.90682 0.60457 0.26856 0.0
C556 C 0.31112 0.91499 0.74918 0.0
C557 C 0.302 0.88597 0.72261 0.0
H558 H 0.31888 0.94523 0.866 0.0
C559 C 0.29194 0.86455 0.79671 0.0
H560 H 0.31937 0.93209 0.69393 0.0
C561 C 0.29139 0.87202 0.89546 0.0
C562 C 0.3012 0.90119 0.92268 0.0
H563 H 0.28435 0.84195 0.7782 0.0
H564 H 0.28323 0.85481 0.95016 0.0
C565 C 0.31079 0.92252 0.84801 0.0
C566 C 0.4351 0.31912 0.41823 0.0
C567 C 0.40603 0.30095 0.44793 0.0
H568 H 0.46586 0.33439 0.2999 0.0
C569 C 0.38535 0.28359 0.37622 0.0
H570 H 0.45152 0.33326 0.47083 0.0
C571 C 0.39365 0.28424 0.27751 0.0
C572 C 0.42281 0.30228 0.24813 0.0
H573 H 0.36286 0.26912 0.39653 0.0
H574 H 0.37726 0.2703 0.22455 0.0
C575 C 0.44338 0.31975 0.31986 0.0
C576 C 0.58512 0.8721 0.63198 0.0
C577 C 0.6045 0.90127 0.60477 0.0
H578 H 0.56209 0.84205 0.74922 0.0
C579 C 0.61625 0.92261 0.67945 0.0
H580 H 0.57607 0.8549 0.57727 0.0
C581 C 0.60839 0.91508 0.77828 0.0
C582 C 0.58847 0.88606 0.80483 0.0
H583 H 0.63088 0.94531 0.66147 0.0
H584 H 0.61724 0.93217 0.83354 0.0
C585 C 0.5771 0.86464 0.73072 0.0
C586 C 0.68284 0.5573 0.21382 0.0
C587 C 0.7008 0.57767 0.28532 0.0
H588 H 0.66908 0.54945 0.06307 0.0
C589 C 0.71949 0.60675 0.25572 0.0
H590 H 0.6677 0.53491 0.23397 0.0
C591 C 0.7203 0.61516 0.15701 0.0
C592 C 0.70244 0.59468 0.0855 0.0
H593 H 0.73382 0.62298 0.30851 0.0
H594 H 0.73529 0.63758 0.13656 0.0
C595 C 0.68361 0.5657 0.11546 0.0
C596 C 0.11995 0.68827 0.60919 0.0
C597 C 0.10894 0.70635 0.57948 0.0
H598 H 0.13554 0.67308 0.72752 0.0
C599 C 0.10552 0.72363 0.65118 0.0
H600 H 0.12231 0.67419 0.55657 0.0
C601 C 0.1132 0.72301 0.74991 0.0
C602 C 0.12442 0.70506 0.77931 0.0
H603 H 0.09741 0.73803 0.63086 0.0
H604 H 0.11067 0.7369 0.80287 0.0
C605 C 0.12762 0.68767 0.70757 0.0
C606 C 0.39146 0.08463 0.18059 0.0
C607 C 0.40322 0.10596 0.10594 0.0
H608 H 0.39046 0.07505 0.33468 0.0
C609 C 0.42261 0.13513 0.13318 0.0
H610 H 0.37682 0.06193 0.16258 0.0
C611 C 0.43064 0.14259 0.23194 0.0
C612 C 0.41925 0.12116 0.30603 0.0
H613 H 0.43167 0.15233 0.07848 0.0
H614 H 0.44566 0.16518 0.25046 0.0
C615 C 0.39933 0.09215 0.27944 0.0
C616 C 0.32514 0.45001 0.7138 0.0
C617 C 0.30716 0.42966 0.78526 0.0
H618 H 0.33889 0.45785 0.56308 0.0
C619 C 0.28843 0.40059 0.75562 0.0
H620 H 0.3403 0.4724 0.73398 0.0
C621 C 0.28761 0.39217 0.65692 0.0
C622 C 0.30549 0.41264 0.58545 0.0
H623 H 0.27409 0.38437 0.80839 0.0
H624 H 0.2726 0.36976 0.63644 0.0
C625 C 0.32435 0.44162 0.61544 0.0
C626 C 0.88065 0.31991 0.2085 0.0
C627 C 0.88374 0.30243 0.28021 0.0
H628 H 0.88605 0.33345 0.05756 0.0
C629 C 0.89485 0.28439 0.2508 0.0
H630 H 0.87282 0.33457 0.22848 0.0
C631 C 0.90251 0.28375 0.15209 0.0
C632 C 0.89921 0.30112 0.08041 0.0
H633 H 0.89728 0.27044 0.30374 0.0
H634 H 0.91052 0.26928 0.13176 0.0
C635 C 0.88831 0.3193 0.11014 0.0
C636 C 0.18576 0.39283 0.27721 0.0
C637 C 0.18601 0.41933 0.28991 0.0
H638 H 0.21072 0.37222 0.24102 0.0
C639 C 0.21223 0.44571 0.27637 0.0
H640 H 0.16578 0.37218 0.28655 0.0
C641 C 0.23772 0.44573 0.25144 0.0
C642 C 0.2376 0.41938 0.2378 0.0
H643 H 0.21316 0.46649 0.28561 0.0
H644 H 0.25756 0.46653 0.24226 0.0
C645 C 0.21136 0.39286 0.25043 0.0
C646 C 0.82504 0.20548 0.73734 0.0
C647 C 0.82497 0.23197 0.72952 0.0
H648 H 0.79969 0.15925 0.76617 0.0
C649 C 0.79878 0.2319 0.74475 0.0
H650 H 0.84499 0.20495 0.72652 0.0
C651 C 0.77319 0.20608 0.76631 0.0
C652 C 0.77304 0.17956 0.77462 0.0
H653 H 0.79792 0.25188 0.73931 0.0
H654 H 0.75343 0.207 0.77695 0.0
C655 C 0.79924 0.17943 0.76064 0.0
C656 C 0.6238 0.82815 0.26705 0.0
C657 C 0.59747 0.82804 0.25321 0.0
H658 H 0.64402 0.80261 0.30096 0.0
C659 C 0.57109 0.80153 0.26164 0.0
H660 H 0.64444 0.84833 0.26143 0.0
C661 C 0.57085 0.7757 0.28313 0.0
C662 C 0.59697 0.77562 0.29818 0.0
H663 H 0.55041 0.80062 0.25114 0.0
H664 H 0.55001 0.75573 0.28866 0.0
C665 C 0.62354 0.8021 0.29028 0.0
C666 C 0.8221 0.61444 0.7784 0.0
C667 C 0.82183 0.58794 0.79135 0.0
H668 H 0.79719 0.63507 0.74166 0.0
C669 C 0.79561 0.56157 0.77769 0.0
H670 H 0.84209 0.63509 0.78777 0.0
C671 C 0.77015 0.56156 0.7524 0.0
C672 C 0.7703 0.58791 0.7385 0.0
H673 H 0.79467 0.54078 0.78708 0.0
H674 H 0.7503 0.54076 0.74313 0.0
C675 C 0.79653 0.61443 0.75126 0.0
C676 C 0.23492 0.80143 0.26553 0.0
C677 C 0.23503 0.82793 0.274 0.0
H678 H 0.21023 0.75563 0.23834 0.0
C679 C 0.20881 0.82802 0.26005 0.0
H680 H 0.2547 0.80053 0.27613 0.0
C681 C 0.18303 0.80197 0.23666 0.0
C682 C 0.18314 0.7755 0.22872 0.0
H683 H 0.20833 0.84819 0.26568 0.0
H684 H 0.16306 0.80247 0.22589 0.0
C685 C 0.20934 0.77559 0.2439 0.0
C686 C 0.38438 0.20525 0.79136 0.0
C687 C 0.41097 0.23171 0.79921 0.0
H688 H 0.36341 0.15901 0.76258 0.0
C689 C 0.43706 0.23158 0.78415 0.0
H690 H 0.36392 0.20477 0.80205 0.0
C691 C 0.43678 0.20573 0.7627 0.0
C692 C 0.41037 0.17923 0.75431 0.0
H693 H 0.45793 0.25153 0.78965 0.0
H694 H 0.45744 0.2066 0.75219 0.0
C695 C 0.38407 0.17917 0.76815 0.0
loop_
_geom_bond_atom_site_label_1
_geom_bond_atom_site_label_2
_geom_bond_distance
_geom_bond_site_symmetry_2
_ccdc_geom_bond_type
Co0 N4 2.148 . S
Co0 N10 2.128 . S
Co0 N20 2.194 . S
Co0 O25 2.351 . S
Co0 O26 2.155 . S
Co0 O27 2.096 . S
C1 N4 1.301 . S
C1 N5 1.328 . S
C1 H6 0.930 . S
C2 C3 1.333 . S
C2 N4 1.317 . S
C2 H7 0.930 . S
C3 C2 1.333 . S
C3 N5 1.350 . S
C3 H29 0.931 . S
N4 Co0 2.148 . S
N4 C1 1.301 . S
N4 C2 1.317 . S
N5 C1 1.328 . S
N5 C3 1.350 . S
H6 C1 0.930 . S
H7 C2 0.930 . S
C8 O9 1.224 . S
C8 O27 1.247 . S
O9 C8 1.224 . S
N10 Co0 2.128 . S
N10 C11 1.355 . S
N10 C13 1.311 . S
C11 N10 1.355 . S
C11 C12 1.363 . S
C11 H23 0.929 . S
C12 C11 1.363 . S
C12 N14 1.375 . S
C12 H30 0.931 . S
C13 N10 1.311 . S
C13 N14 1.347 . S
C13 H24 0.929 . S
N14 C12 1.375 . S
N14 C13 1.347 . S
C15 C18 1.365 . S
C15 N20 1.328 . S
C15 H21 0.929 . S
C16 C17 1.362 . S
C16 C19 1.378 . S
C16 H31 0.929 . S
C17 C16 1.362 . S
C17 C18 1.366 . S
C18 C15 1.365 . S
C18 C17 1.366 . S
C18 H32 0.930 . S
C19 C16 1.378 . S
C19 N20 1.315 . S
C19 H22 0.930 . S
N20 Co0 2.194 . S
N20 C15 1.328 . S
N20 C19 1.315 . S
H21 C15 0.929 . S
H22 C19 0.930 . S
H23 C11 0.929 . S
H24 C13 0.929 . S
O25 Co0 2.351 . S
O25 C28 1.244 . S
O26 Co0 2.155 . S
O26 C28 1.240 . S
O27 Co0 2.096 . S
O27 C8 1.247 . S
C28 O25 1.244 . S
C28 O26 1.240 . S
H29 C3 0.931 . S
H30 C12 0.931 . S
H31 C16 0.929 . S
H32 C18 0.930 . S
Co33 N37 2.148 . S
Co33 N43 2.128 . S
Co33 N53 2.194 . S
Co33 O58 2.351 . S
Co33 O59 2.155 . S
Co33 O60 2.096 . S
C34 N37 1.301 . S
C34 N38 1.328 . S
C34 H39 0.930 . S
C35 C36 1.333 . S
C35 N37 1.317 . S
C35 H40 0.930 . S
C36 C35 1.333 . S
C36 N38 1.350 . S
C36 H62 0.931 . S
N37 Co33 2.148 . S
N37 C34 1.301 . S
N37 C35 1.317 . S
N38 C34 1.328 . S
N38 C36 1.350 . S
H39 C34 0.930 . S
H40 C35 0.930 . S
C41 O42 1.224 . S
C41 O60 1.247 . S
O42 C41 1.224 . S
N43 Co33 2.128 . S
N43 C44 1.355 1_556 S
N43 C46 1.311 1_556 S
C44 N43 1.355 1_554 S
C44 C45 1.363 . S
C44 H56 0.929 1_554 S
C45 C44 1.363 . S
C45 N47 1.375 . S
C45 H63 0.931 . S
C46 N43 1.311 1_554 S
C46 N47 1.347 . S
C46 H57 0.929 . S
N47 C45 1.375 . S
N47 C46 1.347 . S
C48 C51 1.365 . S
C48 N53 1.328 . S
C48 H54 0.929 . S
C49 C50 1.362 . S
C49 C52 1.378 . S
C49 H64 0.929 . S
C50 C49 1.362 . S
C50 C51 1.366 . S
C51 C48 1.365 . S
C51 C50 1.366 . S
C51 H65 0.930 . S
C52 C49 1.378 . S
C52 N53 1.315 . S
C52 H55 0.930 . S
N53 Co33 2.194 . S
N53 C48 1.328 . S
N53 C52 1.315 . S
H54 C48 0.929 . S
H55 C52 0.930 . S
H56 C44 0.929 1_556 S
H57 C46 0.929 . S
O58 Co33 2.351 . S
O58 C61 1.244 . S
O59 Co33 2.155 . S
O59 C61 1.240 . S
O60 Co33 2.096 . S
O60 C41 1.247 . S
C61 O58 1.244 . S
C61 O59 1.240 . S
H62 C36 0.931 . S
H63 C45 0.931 . S
H64 C49 0.929 . S
H65 C51 0.930 . S
Co66 N70 2.148 . S
Co66 N76 2.128 . S
Co66 N86 2.194 . S
Co66 O91 2.351 . S
Co66 O92 2.155 . S
Co66 O93 2.096 . S
C67 N70 1.301 . S
C67 N71 1.328 . S
C67 H72 0.930 . S
C68 C69 1.333 . S
C68 N70 1.317 . S
C68 H73 0.930 . S
C69 C68 1.333 . S
C69 N71 1.350 . S
C69 H95 0.931 . S
N70 Co66 2.148 . S
N70 C67 1.301 . S
N70 C68 1.317 . S
N71 C67 1.328 . S
N71 C69 1.350 . S
H72 C67 0.930 . S
H73 C68 0.930 . S
C74 O75 1.224 . S
C74 O93 1.247 . S
O75 C74 1.224 . S
N76 Co66 2.128 . S
N76 C77 1.355 . S
N76 C79 1.311 . S
C77 N76 1.355 . S
C77 C78 1.363 . S
C77 H89 0.929 . S
C78 C77 1.363 . S
C78 N80 1.375 . S
C78 H96 0.931 . S
C79 N76 1.311 . S
C79 N80 1.347 . S
C79 H90 0.929 . S
N80 C78 1.375 . S
N80 C79 1.347 . S
C81 C84 1.365 . S
C81 N86 1.328 . S
C81 H87 0.929 . S
C82 C83 1.362 . S
C82 C85 1.378 . S
C82 H97 0.929 . S
C83 C82 1.362 . S
C83 C84 1.366 . S
C84 C81 1.365 . S
C84 C83 1.366 . S
C84 H98 0.930 . S
C85 C82 1.378 . S
C85 N86 1.315 . S
C85 H88 0.930 . S
N86 Co66 2.194 . S
N86 C81 1.328 . S
N86 C85 1.315 . S
H87 C81 0.929 . S
H88 C85 0.930 . S
H89 C77 0.929 . S
H90 C79 0.929 . S
O91 Co66 2.351 . S
O91 C94 1.244 . S
O92 Co66 2.155 . S
O92 C94 1.240 . S
O93 Co66 2.096 . S
O93 C74 1.247 . S
C94 O91 1.244 . S
C94 O92 1.240 . S
H95 C69 0.931 . S
H96 C78 0.931 . S
H97 C82 0.929 . S
H98 C84 0.930 . S
Co99 N103 2.148 . S
Co99 N109 2.128 . S
Co99 N119 2.194 . S
Co99 O124 2.351 . S
Co99 O125 2.155 . S
Co99 O126 2.096 . S
C100 N103 1.301 . S
C100 N104 1.328 . S
C100 H105 0.930 . S
C101 C102 1.333 . S
C101 N103 1.317 . S
C101 H106 0.930 . S
C102 C101 1.333 . S
C102 N104 1.350 . S
C102 H128 0.931 . S
N103 Co99 2.148 . S
N103 C100 1.301 . S
N103 C101 1.317 . S
N104 C100 1.328 . S
N104 C102 1.350 . S
H105 C100 0.930 . S
H106 C101 0.930 . S
C107 O108 1.224 . S
C107 O126 1.247 . S
O108 C107 1.224 . S
N109 Co99 2.128 . S
N109 C110 1.355 1_556 S
N109 C112 1.311 1_556 S
C110 N109 1.355 1_554 S
C110 C111 1.363 . S
C110 H122 0.929 1_554 S
C111 C110 1.363 . S
C111 N113 1.375 . S
C111 H129 0.931 . S
C112 N109 1.311 1_554 S
C112 N113 1.347 . S
C112 H123 0.929 . S
N113 C111 1.375 . S
N113 C112 1.347 . S
C114 C117 1.365 . S
C114 N119 1.328 . S
C114 H120 0.929 . S
C115 C116 1.362 . S
C115 C118 1.378 . S
C115 H130 0.929 . S
C116 C115 1.362 . S
C116 C117 1.366 . S
C117 C114 1.365 . S
C117 C116 1.366 . S
C117 H131 0.930 . S
C118 C115 1.378 . S
C118 N119 1.315 . S
C118 H121 0.930 . S
N119 Co99 2.194 . S
N119 C114 1.328 . S
N119 C118 1.315 . S
H120 C114 0.929 . S
H121 C118 0.930 . S
H122 C110 0.929 1_556 S
H123 C112 0.929 . S
O124 Co99 2.351 . S
O124 C127 1.244 . S
O125 Co99 2.155 . S
O125 C127 1.240 . S
O126 Co99 2.096 . S
O126 C107 1.247 . S
C127 O124 1.244 . S
C127 O125 1.240 . S
H128 C102 0.931 . S
H129 C111 0.931 . S
H130 C115 0.929 . S
H131 C117 0.930 . S
Co132 N136 2.148 . S
Co132 N142 2.128 . S
Co132 N152 2.194 . S
Co132 O157 2.351 . S
Co132 O158 2.155 . S
Co132 O159 2.096 . S
C133 N136 1.301 . S
C133 N137 1.328 . S
C133 H138 0.930 . S
C134 C135 1.333 . S
C134 N136 1.317 . S
C134 H139 0.930 . S
C135 C134 1.333 . S
C135 N137 1.350 . S
C135 H161 0.931 . S
N136 Co132 2.148 . S
N136 C133 1.301 . S
N136 C134 1.317 . S
N137 C133 1.328 . S
N137 C135 1.350 . S
H138 C133 0.930 . S
H139 C134 0.930 . S
C140 O141 1.224 . S
C140 O159 1.247 . S
O141 C140 1.224 . S
N142 Co132 2.128 . S
N142 C143 1.355 . S
N142 C145 1.311 . S
C143 N142 1.355 . S
C143 C144 1.363 . S
C143 H155 0.929 . S
C144 C143 1.363 . S
C144 N146 1.375 . S
C144 H162 0.931 . S
C145 N142 1.311 . S
C145 N146 1.347 . S
C145 H156 0.929 . S
N146 C144 1.375 . S
N146 C145 1.347 . S
C147 C150 1.365 . S
C147 N152 1.328 . S
C147 H153 0.929 . S
C148 C149 1.362 . S
C148 C151 1.378 . S
C148 H163 0.929 . S
C149 C148 1.362 . S
C149 C150 1.366 . S
C150 C147 1.365 . S
C150 C149 1.366 . S
C150 H164 0.930 . S
C151 C148 1.378 . S
C151 N152 1.315 . S
C151 H154 0.930 . S
N152 Co132 2.194 . S
N152 C147 1.328 . S
N152 C151 1.315 . S
H153 C147 0.929 . S
H154 C151 0.930 . S
H155 C143 0.929 . S
H156 C145 0.929 . S
O157 Co132 2.351 . S
O157 C160 1.244 . S
O158 Co132 2.155 . S
O158 C160 1.240 . S
O159 Co132 2.096 . S
O159 C140 1.247 . S
C160 O157 1.244 . S
C160 O158 1.240 . S
H161 C135 0.931 . S
H162 C144 0.931 . S
H163 C148 0.929 . S
H164 C150 0.930 . S
Co165 N169 2.148 . S
Co165 N175 2.128 . S
Co165 N185 2.194 . S
Co165 O190 2.351 . S
Co165 O191 2.155 . S
Co165 O192 2.096 . S
C166 N169 1.301 . S
C166 N170 1.328 . S
C166 H171 0.930 . S
C167 C168 1.333 . S
C167 N169 1.317 . S
C167 H172 0.930 . S
C168 C167 1.333 . S
C168 N170 1.350 . S
C168 H194 0.931 . S
N169 Co165 2.148 . S
N169 C166 1.301 . S
N169 C167 1.317 . S
N170 C166 1.328 . S
N170 C168 1.350 . S
H171 C166 0.930 . S
H172 C167 0.930 . S
C173 O174 1.224 . S
C173 O192 1.247 . S
O174 C173 1.224 . S
N175 Co165 2.128 . S
N175 C176 1.355 1_556 S
N175 C178 1.311 1_556 S
C176 N175 1.355 1_554 S
C176 C177 1.363 . S
C176 H188 0.929 1_554 S
C177 C176 1.363 . S
C177 N179 1.375 . S
C177 H195 0.931 . S
C178 N175 1.311 1_554 S
C178 N179 1.347 . S
C178 H189 0.929 . S
N179 C177 1.375 . S
N179 C178 1.347 . S
C180 C183 1.365 . S
C180 N185 1.328 . S
C180 H186 0.929 . S
C181 C182 1.362 . S
C181 C184 1.378 . S
C181 H196 0.929 . S
C182 C181 1.362 . S
C182 C183 1.366 . S
C183 C180 1.365 . S
C183 C182 1.366 . S
C183 H197 0.930 . S
C184 C181 1.378 . S
C184 N185 1.315 . S
C184 H187 0.930 . S
N185 Co165 2.194 . S
N185 C180 1.328 . S
N185 C184 1.315 . S
H186 C180 0.929 . S
H187 C184 0.930 . S
H188 C176 0.929 1_556 S
H189 C178 0.929 . S
O190 Co165 2.351 . S
O190 C193 1.244 . S
O191 Co165 2.155 . S
O191 C193 1.240 . S
O192 Co165 2.096 . S
O192 C173 1.247 . S
C193 O190 1.244 . S
C193 O191 1.240 . S
H194 C168 0.931 . S
H195 C177 0.931 . S
H196 C181 0.929 . S
H197 C183 0.930 . S
Co198 N202 2.148 . S
Co198 N208 2.128 . S
Co198 N218 2.194 . S
Co198 O223 2.351 . S
Co198 O224 2.155 . S
Co198 O225 2.096 . S
C199 N202 1.301 . S
C199 N203 1.328 . S
C199 H204 0.930 . S
C200 C201 1.333 . S
C200 N202 1.317 . S
C200 H205 0.930 . S
C201 C200 1.333 . S
C201 N203 1.350 . S
C201 H227 0.931 . S
N202 Co198 2.148 . S
N202 C199 1.301 . S
N202 C200 1.317 . S
N203 C199 1.328 . S
N203 C201 1.350 . S
H204 C199 0.930 . S
H205 C200 0.930 . S
C206 O207 1.224 . S
C206 O225 1.247 . S
O207 C206 1.224 . S
N208 Co198 2.128 . S
N208 C209 1.355 1_554 S
N208 C211 1.311 1_554 S
C209 N208 1.355 1_556 S
C209 C210 1.363 . S
C209 H221 0.929 1_556 S
C210 C209 1.363 . S
C210 N212 1.375 . S
C210 H228 0.931 . S
C211 N208 1.311 1_556 S
C211 N212 1.347 . S
C211 H222 0.929 . S
N212 C210 1.375 . S
N212 C211 1.347 . S
C213 C216 1.365 . S
C213 N218 1.328 . S
C213 H219 0.929 . S
C214 C215 1.362 . S
C214 C217 1.378 . S
C214 H229 0.929 . S
C215 C214 1.362 . S
C215 C216 1.366 . S
C216 C213 1.365 . S
C216 C215 1.366 . S
C216 H230 0.930 . S
C217 C214 1.378 . S
C217 N218 1.315 . S
C217 H220 0.930 . S
N218 Co198 2.194 . S
N218 C213 1.328 . S
N218 C217 1.315 . S
H219 C213 0.929 . S
H220 C217 0.930 . S
H221 C209 0.929 1_554 S
H222 C211 0.929 . S
O223 Co198 2.351 . S
O223 C226 1.244 . S
O224 Co198 2.155 . S
O224 C226 1.240 . S
O225 Co198 2.096 . S
O225 C206 1.247 . S
C226 O223 1.244 . S
C226 O224 1.240 . S
H227 C201 0.931 . S
H228 C210 0.931 . S
H229 C214 0.929 . S
H230 C216 0.930 . S
Co231 N235 2.148 . S
Co231 N241 2.128 . S
Co231 N251 2.194 . S
Co231 O256 2.351 . S
Co231 O257 2.155 . S
Co231 O258 2.096 . S
C232 N235 1.301 . S
C232 N236 1.328 . S
C232 H237 0.930 . S
C233 C234 1.333 . S
C233 N235 1.317 . S
C233 H238 0.930 . S
C234 C233 1.333 . S
C234 N236 1.350 . S
C234 H260 0.931 . S
N235 Co231 2.148 . S
N235 C232 1.301 . S
N235 C233 1.317 . S
N236 C232 1.328 . S
N236 C234 1.350 . S
H237 C232 0.930 . S
H238 C233 0.930 . S
C239 O240 1.224 . S
C239 O258 1.247 . S
O240 C239 1.224 . S
N241 Co231 2.128 . S
N241 C242 1.355 . S
N241 C244 1.311 . S
C242 N241 1.355 . S
C242 C243 1.363 . S
C242 H254 0.929 . S
C243 C242 1.363 . S
C243 N245 1.375 . S
C243 H261 0.931 . S
C244 N241 1.311 . S
C244 N245 1.347 . S
C244 H255 0.929 . S
N245 C243 1.375 . S
N245 C244 1.347 . S
C246 C249 1.365 . S
C246 N251 1.328 . S
C246 H252 0.929 . S
C247 C248 1.362 . S
C247 C250 1.378 . S
C247 H262 0.929 . S
C248 C247 1.362 . S
C248 C249 1.366 . S
C249 C246 1.365 . S
C249 C248 1.366 . S
C249 H263 0.930 . S
C250 C247 1.378 . S
C250 N251 1.315 . S
C250 H253 0.930 . S
N251 Co231 2.194 . S
N251 C246 1.328 . S
N251 C250 1.315 . S
H252 C246 0.929 . S
H253 C250 0.930 . S
H254 C242 0.929 . S
H255 C244 0.929 . S
O256 Co231 2.351 . S
O256 C259 1.244 . S
O257 Co231 2.155 . S
O257 C259 1.240 . S
O258 Co231 2.096 . S
O258 C239 1.247 . S
C259 O256 1.244 . S
C259 O257 1.240 . S
H260 C234 0.931 . S
H261 C243 0.931 . S
H262 C247 0.929 . S
H263 C249 0.930 . S
Co264 N268 2.148 . S
Co264 N274 2.128 . S
Co264 N284 2.194 . S
Co264 O289 2.351 . S
Co264 O290 2.155 . S
Co264 O291 2.096 . S
C265 N268 1.301 . S
C265 N269 1.328 . S
C265 H270 0.930 . S
C266 C267 1.333 . S
C266 N268 1.317 . S
C266 H271 0.930 . S
C267 C266 1.333 . S
C267 N269 1.350 . S
C267 H293 0.931 . S
N268 Co264 2.148 . S
N268 C265 1.301 . S
N268 C266 1.317 . S
N269 C265 1.328 . S
N269 C267 1.350 . S
H270 C265 0.930 . S
H271 C266 0.930 . S
C272 O273 1.224 . S
C272 O291 1.247 . S
O273 C272 1.224 . S
N274 Co264 2.128 . S
N274 C275 1.355 1_554 S
N274 C277 1.311 1_554 S
C275 N274 1.355 1_556 S
C275 C276 1.363 . S
C275 H287 0.929 1_556 S
C276 C275 1.363 . S
C276 N278 1.375 . S
C276 H294 0.931 . S
C277 N274 1.311 1_556 S
C277 N278 1.347 . S
C277 H288 0.929 . S
N278 C276 1.375 . S
N278 C277 1.347 . S
C279 C282 1.365 . S
C279 N284 1.328 . S
C279 H285 0.929 . S
C280 C281 1.362 . S
C280 C283 1.378 . S
C280 H295 0.929 . S
C281 C280 1.362 . S
C281 C282 1.366 . S
C282 C279 1.365 . S
C282 C281 1.366 . S
C282 H296 0.930 . S
C283 C280 1.378 . S
C283 N284 1.315 . S
C283 H286 0.930 . S
N284 Co264 2.194 . S
N284 C279 1.328 . S
N284 C283 1.315 . S
H285 C279 0.929 . S
H286 C283 0.930 . S
H287 C275 0.929 1_554 S
H288 C277 0.929 . S
O289 Co264 2.351 . S
O289 C292 1.244 . S
O290 Co264 2.155 . S
O290 C292 1.240 . S
O291 Co264 2.096 . S
O291 C272 1.247 . S
C292 O289 1.244 . S
C292 O290 1.240 . S
H293 C267 0.931 . S
H294 C276 0.931 . S
H295 C280 0.929 . S
H296 C282 0.930 . S
Co297 N301 2.148 . S
Co297 N307 2.128 . S
Co297 N317 2.194 . S
Co297 O322 2.351 . S
Co297 O323 2.155 . S
Co297 O324 2.096 . S
C298 N301 1.301 . S
C298 N302 1.328 . S
C298 H303 0.930 . S
C299 C300 1.333 . S
C299 N301 1.317 . S
C299 H304 0.930 . S
C300 C299 1.333 . S
C300 N302 1.350 . S
C300 H326 0.931 . S
N301 Co297 2.148 . S
N301 C298 1.301 . S
N301 C299 1.317 . S
N302 C298 1.328 . S
N302 C300 1.350 . S
H303 C298 0.930 . S
H304 C299 0.930 . S
C305 O306 1.224 . S
C305 O324 1.247 . S
O306 C305 1.224 . S
N307 Co297 2.128 . S
N307 C308 1.355 . S
N307 C310 1.311 . S
C308 N307 1.355 . S
C308 C309 1.363 . S
C308 H320 0.929 . S
C309 C308 1.363 . S
C309 N311 1.375 . S
C309 H327 0.931 . S
C310 N307 1.311 . S
C310 N311 1.347 . S
C310 H321 0.929 . S
N311 C309 1.375 . S
N311 C310 1.347 . S
C312 C315 1.365 . S
C312 N317 1.328 . S
C312 H318 0.929 . S
C313 C314 1.362 . S
C313 C316 1.378 . S
C313 H328 0.929 . S
C314 C313 1.362 . S
C314 C315 1.366 . S
C315 C312 1.365 . S
C315 C314 1.366 . S
C315 H329 0.930 . S
C316 C313 1.378 . S
C316 N317 1.315 . S
C316 H319 0.930 . S
N317 Co297 2.194 . S
N317 C312 1.328 . S
N317 C316 1.315 . S
H318 C312 0.929 . S
H319 C316 0.930 . S
H320 C308 0.929 . S
H321 C310 0.929 . S
O322 Co297 2.351 . S
O322 C325 1.244 . S
O323 Co297 2.155 . S
O323 C325 1.240 . S
O324 Co297 2.096 . S
O324 C305 1.247 . S
C325 O322 1.244 . S
C325 O323 1.240 . S
H326 C300 0.931 . S
H327 C309 0.931 . S
H328 C313 0.929 . S
H329 C315 0.930 . S
Co330 N334 2.148 . S
Co330 N340 2.128 . S
Co330 N350 2.194 . S
Co330 O355 2.351 . S
Co330 O356 2.155 . S
Co330 O357 2.096 . S
C331 N334 1.301 . S
C331 N335 1.328 . S
C331 H336 0.930 . S
C332 C333 1.333 . S
C332 N334 1.317 . S
C332 H337 0.930 . S
C333 C332 1.333 . S
C333 N335 1.350 . S
C333 H359 0.931 . S
N334 Co330 2.148 . S
N334 C331 1.301 . S
N334 C332 1.317 . S
N335 C331 1.328 . S
N335 C333 1.350 . S
H336 C331 0.930 . S
H337 C332 0.930 . S
C338 O339 1.224 . S
C338 O357 1.247 . S
O339 C338 1.224 . S
N340 Co330 2.128 . S
N340 C341 1.355 1_554 S
N340 C343 1.311 1_554 S
C341 N340 1.355 1_556 S
C341 C342 1.363 . S
C341 H353 0.929 1_556 S
C342 C341 1.363 . S
C342 N344 1.375 . S
C342 H360 0.931 . S
C343 N340 1.311 1_556 S
C343 N344 1.347 . S
C343 H354 0.929 . S
N344 C342 1.375 . S
N344 C343 1.347 . S
C345 C348 1.365 . S
C345 N350 1.328 . S
C345 H351 0.929 . S
C346 C347 1.362 . S
C346 C349 1.378 . S
C346 H361 0.929 . S
C347 C346 1.362 . S
C347 C348 1.366 . S
C348 C345 1.365 . S
C348 C347 1.366 . S
C348 H362 0.930 . S
C349 C346 1.378 . S
C349 N350 1.315 . S
C349 H352 0.930 . S
N350 Co330 2.194 . S
N350 C345 1.328 . S
N350 C349 1.315 . S
H351 C345 0.929 . S
H352 C349 0.930 . S
H353 C341 0.929 1_554 S
H354 C343 0.929 . S
O355 Co330 2.351 . S
O355 C358 1.244 . S
O356 Co330 2.155 . S
O356 C358 1.240 . S
O357 Co330 2.096 . S
O357 C338 1.247 . S
C358 O355 1.244 . S
C358 O356 1.240 . S
H359 C333 0.931 . S
H360 C342 0.931 . S
H361 C346 0.929 . S
H362 C348 0.930 . S
Co363 N367 2.148 . S
Co363 N373 2.128 . S
Co363 N383 2.194 . S
Co363 O388 2.351 . S
Co363 O389 2.155 . S
Co363 O390 2.096 . S
C364 N367 1.301 . S
C364 N368 1.328 . S
C364 H369 0.930 . S
C365 C366 1.333 . S
C365 N367 1.317 . S
C365 H370 0.930 . S
C366 C365 1.333 . S
C366 N368 1.350 . S
C366 H392 0.931 . S
N367 Co363 2.148 . S
N367 C364 1.301 . S
N367 C365 1.317 . S
N368 C364 1.328 . S
N368 C366 1.350 . S
H369 C364 0.930 . S
H370 C365 0.930 . S
C371 O372 1.224 . S
C371 O390 1.247 . S
O372 C371 1.224 . S
N373 Co363 2.128 . S
N373 C374 1.355 . S
N373 C376 1.311 . S
C374 N373 1.355 . S
C374 C375 1.363 . S
C374 H386 0.929 . S
C375 C374 1.363 . S
C375 N377 1.375 . S
C375 H393 0.931 . S
C376 N373 1.311 . S
C376 N377 1.347 . S
C376 H387 0.929 . S
N377 C375 1.375 . S
N377 C376 1.347 . S
C378 C381 1.365 . S
C378 N383 1.328 . S
C378 H384 0.929 . S
C379 C380 1.362 . S
C379 C382 1.378 . S
C379 H394 0.929 . S
C380 C379 1.362 . S
C380 C381 1.366 . S
C381 C378 1.365 . S
C381 C380 1.366 . S
C381 H395 0.930 . S
C382 C379 1.378 . S
C382 N383 1.315 . S
C382 H385 0.930 . S
N383 Co363 2.194 . S
N383 C378 1.328 . S
N383 C382 1.315 . S
H384 C378 0.929 . S
H385 C382 0.930 . S
H386 C374 0.929 . S
H387 C376 0.929 . S
O388 Co363 2.351 . S
O388 C391 1.244 . S
O389 Co363 2.155 . S
O389 C391 1.240 . S
O390 Co363 2.096 . S
O390 C371 1.247 . S
C391 O388 1.244 . S
C391 O389 1.240 . S
H392 C366 0.931 . S
H393 C375 0.931 . S
H394 C379 0.929 . S
H395 C381 0.930 . S
C396 C397 1.387 . S
C396 H400 0.950 . S
C396 C405 1.401 . S
C397 C396 1.387 . S
C397 C399 1.381 1_455 S
H398 C405 0.953 . S
C399 C397 1.381 1_655 S
C399 C401 1.401 . S
C399 H403 0.953 . S
H400 C396 0.950 . S
C401 C399 1.401 . S
C401 C402 1.387 . S
C401 H404 0.950 . S
C402 C401 1.387 . S
C402 C405 1.381 1_655 S
H403 C399 0.953 . S
H404 C401 0.950 . S
C405 C396 1.401 . S
C405 H398 0.953 . S
C405 C402 1.381 1_455 S
C406 C407 1.387 . S
C406 H410 0.950 . S
C406 C415 1.390 1_546 S
C407 C406 1.387 . S
C407 C409 1.387 . S
H408 C415 0.950 . S
C409 C407 1.387 . S
C409 C411 1.390 1_546 S
C409 H413 0.950 . S
H410 C406 0.950 . S
C411 C409 1.390 1_564 S
C411 C412 1.387 . S
C411 H414 0.950 . S
C412 C411 1.387 . S
C412 C415 1.387 . S
H413 C409 0.950 . S
H414 C411 0.950 . S
C415 C406 1.390 1_564 S
C415 H408 0.950 . S
C415 C412 1.387 . S
C416 C417 1.387 . S
C416 H420 0.950 . S
C416 C425 1.390 . S
C417 C416 1.387 . S
C417 C419 1.387 . S
H418 C425 0.950 . S
C419 C417 1.387 . S
C419 C421 1.390 . S
C419 H423 0.950 . S
H420 C416 0.950 . S
C421 C419 1.390 . S
C421 C422 1.387 . S
C421 H424 0.950 . S
C422 C421 1.387 . S
C422 C425 1.387 . S
H423 C419 0.950 . S
H424 C421 0.950 . S
C425 C416 1.390 . S
C425 H418 0.950 . S
C425 C422 1.387 . S
C426 C427 1.373 1_655 S
C426 H430 0.941 . S
C426 C435 1.414 . S
C427 C426 1.373 1_455 S
C427 C429 1.387 1_554 S
H428 C435 0.950 . S
C429 C427 1.387 1_556 S
C429 C431 1.415 . S
C429 H433 0.950 . S
H430 C426 0.941 . S
C431 C429 1.415 . S
C431 C432 1.373 1_455 S
C431 H434 0.941 . S
C432 C431 1.373 1_655 S
C432 C435 1.387 1_556 S
H433 C429 0.950 . S
H434 C431 0.941 . S
C435 C426 1.414 . S
C435 H428 0.950 . S
C435 C432 1.387 1_554 S
C436 C437 1.387 . S
C436 H440 0.950 . S
C436 C445 1.390 1_545 S
C437 C436 1.387 . S
C437 C439 1.387 . S
H438 C445 0.950 . S
C439 C437 1.387 . S
C439 C441 1.390 1_545 S
C439 H443 0.950 . S
H440 C436 0.950 . S
C441 C439 1.390 1_565 S
C441 C442 1.387 . S
C441 H444 0.950 . S
C442 C441 1.387 . S
C442 C445 1.387 . S
H443 C439 0.950 . S
H444 C441 0.950 . S
C445 C436 1.390 1_565 S
C445 H438 0.950 . S
C445 C442 1.387 . S
C446 C447 1.387 . S
C446 H450 0.950 . S
C446 C455 1.390 . S
C447 C446 1.387 . S
C447 C449 1.387 1_556 S
H448 C455 0.950 . S
C449 C447 1.387 1_554 S
C449 C451 1.390 . S
C449 H453 0.950 . S
H450 C446 0.950 . S
C451 C449 1.390 . S
C451 C452 1.387 . S
C451 H454 0.950 . S
C452 C451 1.387 . S
C452 C455 1.387 1_554 S
H453 C449 0.950 . S
H454 C451 0.950 . S
C455 C446 1.390 . S
C455 H448 0.950 . S
C455 C452 1.387 1_556 S
C456 C457 1.387 . S
C456 H460 0.950 . S
C456 C465 1.390 . S
C457 C456 1.387 . S
C457 C459 1.387 . S
H458 C465 0.950 . S
C459 C457 1.387 . S
C459 C461 1.390 . S
C459 H463 0.950 . S
H460 C456 0.950 . S
C461 C459 1.390 . S
C461 C462 1.387 . S
C461 H464 0.950 . S
C462 C461 1.387 . S
C462 C465 1.387 . S
H463 C459 0.950 . S
H464 C461 0.950 . S
C465 C456 1.390 . S
C465 H458 0.950 . S
C465 C462 1.387 . S
C466 C467 1.387 . S
C466 H470 0.950 . S
C466 C475 1.390 . S
C467 C466 1.387 . S
C467 C469 1.387 . S
H468 C475 0.950 . S
C469 C467 1.387 . S
C469 C471 1.390 . S
C469 H473 0.950 . S
H470 C466 0.950 . S
C471 C469 1.390 . S
C471 C472 1.387 . S
C471 H474 0.950 . S
C472 C471 1.387 . S
C472 C475 1.387 . S
H473 C469 0.950 . S
H474 C471 0.950 . S
C475 C466 1.390 . S
C475 H468 0.950 . S
C475 C472 1.387 . S
C476 C477 1.387 . S
C476 H480 0.950 . S
C476 C485 1.390 . S
C477 C476 1.387 . S
C477 C479 1.387 . S
H478 C485 0.950 . S
C479 C477 1.387 . S
C479 C481 1.390 . S
C479 H483 0.950 . S
H480 C476 0.950 . S
C481 C479 1.390 . S
C481 C482 1.387 . S
C481 H484 0.950 . S
C482 C481 1.387 . S
C482 C485 1.387 . S
H483 C479 0.950 . S
H484 C481 0.950 . S
C485 C476 1.390 . S
C485 H478 0.950 . S
C485 C482 1.387 . S
C486 C487 1.387 . S
C486 H490 0.950 . S
C486 C495 1.390 . S
C487 C486 1.387 . S
C487 C489 1.387 . S
H488 C495 0.950 . S
C489 C487 1.387 . S
C489 C491 1.390 . S
C489 H493 0.950 . S
H490 C486 0.950 . S
C491 C489 1.390 . S
C491 C492 1.387 . S
C491 H494 0.950 . S
C492 C491 1.387 . S
C492 C495 1.387 . S
H493 C489 0.950 . S
H494 C491 0.950 . S
C495 C486 1.390 . S
C495 H488 0.950 . S
C495 C492 1.387 . S
C496 C497 1.387 . S
C496 H500 0.950 . S
C496 C505 1.390 . S
C497 C496 1.387 . S
C497 C499 1.387 . S
H498 C505 0.950 . S
C499 C497 1.387 . S
C499 C501 1.390 . S
C499 H503 0.950 . S
H500 C496 0.950 . S
C501 C499 1.390 . S
C501 C502 1.387 . S
C501 H504 0.950 . S
C502 C501 1.387 . S
C502 C505 1.387 . S
H503 C499 0.950 . S
H504 C501 0.950 . S
C505 C496 1.390 . S
C505 H498 0.950 . S
C505 C502 1.387 . S
C506 C507 1.387 . S
C506 H510 0.950 . S
C506 C515 1.390 . S
C507 C506 1.387 . S
C507 C509 1.387 . S
H508 C515 0.950 . S
C509 C507 1.387 . S
C509 C511 1.390 . S
C509 H513 0.950 . S
H510 C506 0.950 . S
C511 C509 1.390 . S
C511 C512 1.387 . S
C511 H514 0.950 . S
C512 C511 1.387 . S
C512 C515 1.387 . S
H513 C509 0.950 . S
H514 C511 0.950 . S
C515 C506 1.390 . S
C515 H508 0.950 . S
C515 C512 1.387 . S
C516 C517 1.387 . S
C516 H520 0.950 . S
C516 C525 1.390 . S
C517 C516 1.387 . S
C517 C519 1.387 . S
H518 C525 0.950 . S
C519 C517 1.387 . S
C519 C521 1.390 . S
C519 H523 0.950 . S
H520 C516 0.950 . S
C521 C519 1.390 . S
C521 C522 1.387 . S
C521 H524 0.950 . S
C522 C521 1.387 . S
C522 C525 1.387 . S
H523 C519 0.950 . S
H524 C521 0.950 . S
C525 C516 1.390 . S
C525 H518 0.950 . S
C525 C522 1.387 . S
C526 C527 1.387 . S
C526 H530 0.950 . S
C526 C535 1.390 . S
C527 C526 1.387 . S
C527 C529 1.387 . S
H528 C535 0.950 . S
C529 C527 1.387 . S
C529 C531 1.390 . S
C529 H533 0.950 . S
H530 C526 0.950 . S
C531 C529 1.390 . S
C531 C532 1.387 . S
C531 H534 0.950 . S
C532 C531 1.387 . S
C532 C535 1.387 . S
H533 C529 0.950 . S
H534 C531 0.950 . S
C535 C526 1.390 . S
C535 H528 0.950 . S
C535 C532 1.387 . S
C536 C537 1.387 . S
C536 H540 0.950 . S
C536 C545 1.390 . S
C537 C536 1.387 . S
C537 C539 1.387 . S
H538 C545 0.950 . S
C539 C537 1.387 . S
C539 C541 1.390 . S
C539 H543 0.950 . S
H540 C536 0.950 . S
C541 C539 1.390 . S
C541 C542 1.387 . S
C541 H544 0.950 . S
C542 C541 1.387 . S
C542 C545 1.387 . S
H543 C539 0.950 . S
H544 C541 0.950 . S
C545 C536 1.390 . S
C545 H538 0.950 . S
C545 C542 1.387 . S
C546 C547 1.387 . S
C546 H550 0.950 . S
C546 C555 1.390 . S
C547 C546 1.387 . S
C547 C549 1.387 . S
H548 C555 0.950 . S
C549 C547 1.387 . S
C549 C551 1.390 . S
C549 H553 0.950 . S
H550 C546 0.950 . S
C551 C549 1.390 . S
C551 C552 1.387 . S
C551 H554 0.950 . S
C552 C551 1.387 . S
C552 C555 1.387 . S
H553 C549 0.950 . S
H554 C551 0.950 . S
C555 C546 1.390 . S
C555 H548 0.950 . S
C555 C552 1.387 . S
C556 C557 1.387 . S
C556 H560 0.950 . S
C556 C565 1.390 . S
C557 C556 1.387 . S
C557 C559 1.387 . S
H558 C565 0.950 . S
C559 C557 1.387 . S
C559 C561 1.390 . S
C559 H563 0.950 . S
H560 C556 0.950 . S
C561 C559 1.390 . S
C561 C562 1.387 . S
C561 H564 0.950 . S
C562 C561 1.387 . S
C562 C565 1.387 . S
H563 C559 0.950 . S
H564 C561 0.950 . S
C565 C556 1.390 . S
C565 H558 0.950 . S
C565 C562 1.387 . S
C566 C567 1.387 . S
C566 H570 0.950 . S
C566 C575 1.390 . S
C567 C566 1.387 . S
C567 C569 1.387 . S
H568 C575 0.950 . S
C569 C567 1.387 . S
C569 C571 1.390 . S
C569 H573 0.950 . S
H570 C566 0.950 . S
C571 C569 1.390 . S
C571 C572 1.387 . S
C571 H574 0.950 . S
C572 C571 1.387 . S
C572 C575 1.387 . S
H573 C569 0.950 . S
H574 C571 0.950 . S
C575 C566 1.390 . S
C575 H568 0.950 . S
C575 C572 1.387 . S
C576 C577 1.387 . S
C576 H580 0.950 . S
C576 C585 1.390 . S
C577 C576 1.387 . S
C577 C579 1.387 . S
H578 C585 0.950 . S
C579 C577 1.387 . S
C579 C581 1.390 . S
C579 H583 0.950 . S
H580 C576 0.950 . S
C581 C579 1.390 . S
C581 C582 1.387 . S
C581 H584 0.950 . S
C582 C581 1.387 . S
C582 C585 1.387 . S
H583 C579 0.950 . S
H584 C581 0.950 . S
C585 C576 1.390 . S
C585 H578 0.950 . S
C585 C582 1.387 . S
C586 C587 1.387 . S
C586 H590 0.950 . S
C586 C595 1.390 . S
C587 C586 1.387 . S
C587 C589 1.387 . S
H588 C595 0.950 . S
C589 C587 1.387 . S
C589 C591 1.390 . S
C589 H593 0.950 . S
H590 C586 0.950 . S
C591 C589 1.390 . S
C591 C592 1.387 . S
C591 H594 0.950 . S
C592 C591 1.387 . S
C592 C595 1.387 . S
H593 C589 0.950 . S
H594 C591 0.950 . S
C595 C586 1.390 . S
C595 H588 0.950 . S
C595 C592 1.387 . S
C596 C597 1.387 . S
C596 H600 0.950 . S
C596 C605 1.390 . S
C597 C596 1.387 . S
C597 C599 1.387 . S
H598 C605 0.950 . S
C599 C597 1.387 . S
C599 C601 1.390 . S
C599 H603 0.950 . S
H600 C596 0.950 . S
C601 C599 1.390 . S
C601 C602 1.387 . S
C601 H604 0.950 . S
C602 C601 1.387 . S
C602 C605 1.387 . S
H603 C599 0.950 . S
H604 C601 0.950 . S
C605 C596 1.390 . S
C605 H598 0.950 . S
C605 C602 1.387 . S
C606 C607 1.387 . S
C606 H610 0.950 . S
C606 C615 1.390 . S
C607 C606 1.387 . S
C607 C609 1.387 . S
H608 C615 0.950 . S
C609 C607 1.387 . S
C609 C611 1.390 . S
C609 H613 0.950 . S
H610 C606 0.950 . S
C611 C609 1.390 . S
C611 C612 1.387 . S
C611 H614 0.950 . S
C612 C611 1.387 . S
C612 C615 1.387 . S
H613 C609 0.950 . S
H614 C611 0.950 . S
C615 C606 1.390 . S
C615 H608 0.950 . S
C615 C612 1.387 . S
C616 C617 1.387 . S
C616 H620 0.950 . S
C616 C625 1.390 . S
C617 C616 1.387 . S
C617 C619 1.387 . S
H618 C625 0.950 . S
C619 C617 1.387 . S
C619 C621 1.390 . S
C619 H623 0.950 . S
H620 C616 0.950 . S
C621 C619 1.390 . S
C621 C622 1.387 . S
C621 H624 0.950 . S
C622 C621 1.387 . S
C622 C625 1.387 . S
H623 C619 0.950 . S
H624 C621 0.950 . S
C625 C616 1.390 . S
C625 H618 0.950 . S
C625 C622 1.387 . S
C626 C627 1.387 . S
C626 H630 0.950 . S
C626 C635 1.390 . S
C627 C626 1.387 . S
C627 C629 1.387 . S
H628 C635 0.950 . S
C629 C627 1.387 . S
C629 C631 1.390 . S
C629 H633 0.950 . S
H630 C626 0.950 . S
C631 C629 1.390 . S
C631 C632 1.387 . S
C631 H634 0.950 . S
C632 C631 1.387 . S
C632 C635 1.387 . S
H633 C629 0.950 . S
H634 C631 0.950 . S
C635 C626 1.390 . S
C635 H628 0.950 . S
C635 C632 1.387 . S
C636 C637 1.387 . S
C636 H640 0.950 . S
C636 C645 1.390 . S
C637 C636 1.387 . S
C637 C639 1.387 . S
H638 C645 0.950 . S
C639 C637 1.387 . S
C639 C641 1.390 . S
C639 H643 0.950 . S
H640 C636 0.950 . S
C641 C639 1.390 . S
C641 C642 1.387 . S
C641 H644 0.950 . S
C642 C641 1.387 . S
C642 C645 1.387 . S
H643 C639 0.950 . S
H644 C641 0.950 . S
C645 C636 1.390 . S
C645 H638 0.950 . S
C645 C642 1.387 . S
C646 C647 1.387 . S
C646 H650 0.950 . S
C646 C655 1.390 . S
C647 C646 1.387 . S
C647 C649 1.387 . S
H648 C655 0.950 . S
C649 C647 1.387 . S
C649 C651 1.390 . S
C649 H653 0.950 . S
H650 C646 0.950 . S
C651 C649 1.390 . S
C651 C652 1.387 . S
C651 H654 0.950 . S
C652 C651 1.387 . S
C652 C655 1.387 . S
H653 C649 0.950 . S
H654 C651 0.950 . S
C655 C646 1.390 . S
C655 H648 0.950 . S
C655 C652 1.387 . S
C656 C657 1.387 . S
C656 H660 0.950 . S
C656 C665 1.390 . S
C657 C656 1.387 . S
C657 C659 1.387 . S
H658 C665 0.950 . S
C659 C657 1.387 . S
C659 C661 1.390 . S
C659 H663 0.950 . S
H660 C656 0.950 . S
C661 C659 1.390 . S
C661 C662 1.387 . S
C661 H664 0.950 . S
C662 C661 1.387 . S
C662 C665 1.387 . S
H663 C659 0.950 . S
H664 C661 0.950 . S
C665 C656 1.390 . S
C665 H658 0.950 . S
C665 C662 1.387 . S
C666 C667 1.387 . S
C666 H670 0.950 . S
C666 C675 1.390 . S
C667 C666 1.387 . S
C667 C669 1.387 . S
H668 C675 0.950 . S
C669 C667 1.387 . S
C669 C671 1.390 . S
C669 H673 0.950 . S
H670 C666 0.950 . S
C671 C669 1.390 . S
C671 C672 1.387 . S
C671 H674 0.950 . S
C672 C671 1.387 . S
C672 C675 1.387 . S
H673 C669 0.950 . S
H674 C671 0.950 . S
C675 C666 1.390 . S
C675 H668 0.950 . S
C675 C672 1.387 . S
C676 C677 1.387 . S
C676 H680 0.950 . S
C676 C685 1.390 . S
C677 C676 1.387 . S
C677 C679 1.387 . S
H678 C685 0.950 . S
C679 C677 1.387 . S
C679 C681 1.390 . S
C679 H683 0.950 . S
H680 C676 0.950 . S
C681 C679 1.390 . S
C681 C682 1.387 . S
C681 H684 0.950 . S
C682 C681 1.387 . S
C682 C685 1.387 . S
H683 C679 0.950 . S
H684 C681 0.950 . S
C685 C676 1.390 . S
C685 H678 0.950 . S
C685 C682 1.387 . S
C686 C687 1.387 . S
C686 H690 0.950 . S
C686 C695 1.390 . S
C687 C686 1.387 . S
C687 C689 1.387 . S
H688 C695 0.950 . S
C689 C687 1.387 . S
C689 C691 1.390 . S
C689 H693 0.950 . S
H690 C686 0.950 . S
C691 C689 1.390 . S
C691 C692 1.387 . S
C691 H694 0.950 . S
C692 C691 1.387 . S
C692 C695 1.387 . S
H693 C689 0.950 . S
H694 C691 0.950 . S
C695 C686 1.390 . S
C695 H688 0.950 . S
C695 C692 1.387 . S
C397 C8 1.334 . S
C402 C371 1.332 . S
C407 C41 1.335 . S
C412 C206 1.335 . S
C417 C239 1.333 . S
C422 C74 1.332 . S
C427 C272 1.332 . S
C432 C107 1.334 . S
C437 C305 1.333 . S
C442 C140 1.333 . S
C447 C173 1.332 . S
C452 C338 1.335 . S
C457 C281 1.587 . S
C462 C17 1.588 . S
C467 C314 1.588 . S
C472 C50 1.588 . S
C477 C83 1.587 . S
C482 C347 1.587 . S
C487 C116 1.588 . S
C492 C380 1.587 . S
C497 C215 1.587 . S
C502 C149 1.587 . S
C507 C182 1.588 . S
C512 C248 1.587 . S
C517 N14 1.436 . S
C522 N5 1.435 1_556 S
C527 N38 1.435 . S
C532 N47 1.437 . S
C537 N80 1.436 . S
C542 N71 1.435 1_556 S
C547 N104 1.435 . S
C552 N113 1.436 . S
C557 N146 1.436 . S
C562 N137 1.435 1_556 S
C567 N170 1.434 . S
C572 N179 1.436 . S
C577 N203 1.434 . S
C582 N212 1.436 . S
C587 N245 1.435 . S
C592 N236 1.434 1_554 S
C597 N269 1.434 . S
C602 N278 1.436 . S
C607 N302 1.435 1_554 S
C612 N311 1.436 . S
C617 N344 1.436 . S
C622 N335 1.435 . S
C627 N377 1.436 . S
C632 N368 1.435 1_554 S
C637 C28 1.351 . S
C642 C358 1.351 . S
C647 C391 1.351 . S
C652 C61 1.351 . S
C657 C226 1.352 . S
C662 C94 1.351 . S
C667 C127 1.351 . S
C672 C259 1.351 . S
C677 C160 1.351 . S
C682 C292 1.351 . S
C687 C193 1.351 . S
C692 C325 1.352 . S
