# Generated by pormake.
# Topology ukd, (4)-cn, num edge types: 1
# Building blocks:
#     Node 0, Type 0, BuildingBlock: GALJAG_clean_sbu_0, # of connection points: 4
#     Node 1, Type 0, BuildingBlock: GALJAG_clean_sbu_0, # of connection points: 4
#     Node 2, Type 0, BuildingBlock: GALJAG_clean_sbu_0, # of connection points: 4
#     Node 3, Type 0, BuildingBlock: GALJAG_clean_sbu_0, # of connection points: 4
#     Node 4, Type 0, BuildingBlock: GALJAG_clean_sbu_0, # of connection points: 4
#     Node 5, Type 0, BuildingBlock: GALJAG_clean_sbu_0, # of connection points: 4
#     Node 6, Type 0, BuildingBlock: GALJAG_clean_sbu_0, # of connection points: 4
#     Node 7, Type 0, BuildingBlock: GALJAG_clean_sbu_0, # of connection points: 4
#     Node 8, Type 0, BuildingBlock: GALJAG_clean_sbu_0, # of connection points: 4
#     Node 9, Type 0, BuildingBlock: GALJAG_clean_sbu_0, # of connection points: 4
#     Node 10, Type 0, BuildingBlock: GALJAG_clean_sbu_0, # of connection points: 4
#     Node 11, Type 0, BuildingBlock: GALJAG_clean_sbu_0, # of connection points: 4
#     Node 12, Type 0, BuildingBlock: GALJAG_clean_sbu_0, # of connection points: 4
#     Node 13, Type 0, BuildingBlock: GALJAG_clean_sbu_0, # of connection points: 4
#     Node 14, Type 0, BuildingBlock: GALJAG_clean_sbu_0, # of connection points: 4
#     Node 15, Type 0, BuildingBlock: GALJAG_clean_sbu_0, # of connection points: 4
#     Node 16, Type 0, BuildingBlock: GALJAG_clean_sbu_0, # of connection points: 4
#     Node 17, Type 0, BuildingBlock: GALJAG_clean_sbu_0, # of connection points: 4
#     Node 18, Type 0, BuildingBlock: GALJAG_clean_sbu_0, # of connection points: 4
#     Node 19, Type 0, BuildingBlock: GALJAG_clean_sbu_0, # of connection points: 4
#     Node 20, Type 0, BuildingBlock: GALJAG_clean_sbu_0, # of connection points: 4
#     Node 21, Type 0, BuildingBlock: GALJAG_clean_sbu_0, # of connection points: 4
#     Node 22, Type 0, BuildingBlock: GALJAG_clean_sbu_0, # of connection points: 4
#     Node 23, Type 0, BuildingBlock: GALJAG_clean_sbu_0, # of connection points: 4
#     Node 24, Type 0, BuildingBlock: GALJAG_clean_sbu_0, # of connection points: 4
#     Node 25, Type 0, BuildingBlock: GALJAG_clean_sbu_0, # of connection points: 4
#     Node 26, Type 0, BuildingBlock: GALJAG_clean_sbu_0, # of connection points: 4
#     Node 27, Type 0, BuildingBlock: GALJAG_clean_sbu_0, # of connection points: 4
#     Node 28, Type 0, BuildingBlock: GALJAG_clean_sbu_0, # of connection points: 4
#     Node 29, Type 0, BuildingBlock: GALJAG_clean_sbu_0, # of connection points: 4
#     Node 30, Type 0, BuildingBlock: GALJAG_clean_sbu_0, # of connection points: 4
#     Node 31, Type 0, BuildingBlock: GALJAG_clean_sbu_0, # of connection points: 4
#     Edge 32, Type (0, 0), BuildingBlock: OJICUG_clean_linker_0, # of connection points: 2
#     Edge 33, Type (0, 0), BuildingBlock: OJICUG_clean_linker_0, # of connection points: 2
#     Edge 34, Type (0, 0), BuildingBlock: OJICUG_clean_linker_0, # of connection points: 2
#     Edge 35, Type (0, 0), BuildingBlock: OJICUG_clean_linker_0, # of connection points: 2
#     Edge 36, Type (0, 0), BuildingBlock: OJICUG_clean_linker_0, # of connection points: 2
#     Edge 37, Type (0, 0), BuildingBlock: OJICUG_clean_linker_0, # of connection points: 2
#     Edge 38, Type (0, 0), BuildingBlock: OJICUG_clean_linker_0, # of connection points: 2
#     Edge 39, Type (0, 0), BuildingBlock: OJICUG_clean_linker_0, # of connection points: 2
#     Edge 40, Type (0, 0), BuildingBlock: OJICUG_clean_linker_0, # of connection points: 2
#     Edge 41, Type (0, 0), BuildingBlock: OJICUG_clean_linker_0, # of connection points: 2
#     Edge 42, Type (0, 0), BuildingBlock: OJICUG_clean_linker_0, # of connection points: 2
#     Edge 43, Type (0, 0), BuildingBlock: OJICUG_clean_linker_0, # of connection points: 2
#     Edge 44, Type (0, 0), BuildingBlock: OJICUG_clean_linker_0, # of connection points: 2
#     Edge 45, Type (0, 0), BuildingBlock: OJICUG_clean_linker_0, # of connection points: 2
#     Edge 46, Type (0, 0), BuildingBlock: OJICUG_clean_linker_0, # of connection points: 2
#     Edge 47, Type (0, 0), BuildingBlock: OJICUG_clean_linker_0, # of connection points: 2
#     Edge 48, Type (0, 0), BuildingBlock: OJICUG_clean_linker_0, # of connection points: 2
#     Edge 49, Type (0, 0), BuildingBlock: OJICUG_clean_linker_0, # of connection points: 2
#     Edge 50, Type (0, 0), BuildingBlock: OJICUG_clean_linker_0, # of connection points: 2
#     Edge 51, Type (0, 0), BuildingBlock: OJICUG_clean_linker_0, # of connection points: 2
#     Edge 52, Type (0, 0), BuildingBlock: OJICUG_clean_linker_0, # of connection points: 2
#     Edge 53, Type (0, 0), BuildingBlock: OJICUG_clean_linker_0, # of connection points: 2
#     Edge 54, Type (0, 0), BuildingBlock: OJICUG_clean_linker_0, # of connection points: 2
#     Edge 55, Type (0, 0), BuildingBlock: OJICUG_clean_linker_0, # of connection points: 2
#     Edge 56, Type (0, 0), BuildingBlock: OJICUG_clean_linker_0, # of connection points: 2
#     Edge 57, Type (0, 0), BuildingBlock: OJICUG_clean_linker_0, # of connection points: 2
#     Edge 58, Type (0, 0), BuildingBlock: OJICUG_clean_linker_0, # of connection points: 2
#     Edge 59, Type (0, 0), BuildingBlock: OJICUG_clean_linker_0, # of connection points: 2
#     Edge 60, Type (0, 0), BuildingBlock: OJICUG_clean_linker_0, # of connection points: 2
#     Edge 61, Type (0, 0), BuildingBlock: OJICUG_clean_linker_0, # of connection points: 2
#     Edge 62, Type (0, 0), BuildingBlock: OJICUG_clean_linker_0, # of connection points: 2
#     Edge 63, Type (0, 0), BuildingBlock: OJICUG_clean_linker_0, # of connection points: 2
#     Edge 64, Type (0, 0), BuildingBlock: OJICUG_clean_linker_0, # of connection points: 2
#     Edge 65, Type (0, 0), BuildingBlock: OJICUG_clean_linker_0, # of connection points: 2
#     Edge 66, Type (0, 0), BuildingBlock: OJICUG_clean_linker_0, # of connection points: 2
#     Edge 67, Type (0, 0), BuildingBlock: OJICUG_clean_linker_0, # of connection points: 2
#     Edge 68, Type (0, 0), BuildingBlock: OJICUG_clean_linker_0, # of connection points: 2
#     Edge 69, Type (0, 0), BuildingBlock: OJICUG_clean_linker_0, # of connection points: 2
#     Edge 70, Type (0, 0), BuildingBlock: OJICUG_clean_linker_0, # of connection points: 2
#     Edge 71, Type (0, 0), BuildingBlock: OJICUG_clean_linker_0, # of connection points: 2
#     Edge 72, Type (0, 0), BuildingBlock: OJICUG_clean_linker_0, # of connection points: 2
#     Edge 73, Type (0, 0), BuildingBlock: OJICUG_clean_linker_0, # of connection points: 2
#     Edge 74, Type (0, 0), BuildingBlock: OJICUG_clean_linker_0, # of connection points: 2
#     Edge 75, Type (0, 0), BuildingBlock: OJICUG_clean_linker_0, # of connection points: 2
#     Edge 76, Type (0, 0), BuildingBlock: OJICUG_clean_linker_0, # of connection points: 2
#     Edge 77, Type (0, 0), BuildingBlock: OJICUG_clean_linker_0, # of connection points: 2
#     Edge 78, Type (0, 0), BuildingBlock: OJICUG_clean_linker_0, # of connection points: 2
#     Edge 79, Type (0, 0), BuildingBlock: OJICUG_clean_linker_0, # of connection points: 2
#     Edge 80, Type (0, 0), BuildingBlock: OJICUG_clean_linker_0, # of connection points: 2
#     Edge 81, Type (0, 0), BuildingBlock: OJICUG_clean_linker_0, # of connection points: 2
#     Edge 82, Type (0, 0), BuildingBlock: OJICUG_clean_linker_0, # of connection points: 2
#     Edge 83, Type (0, 0), BuildingBlock: OJICUG_clean_linker_0, # of connection points: 2
#     Edge 84, Type (0, 0), BuildingBlock: OJICUG_clean_linker_0, # of connection points: 2
#     Edge 85, Type (0, 0), BuildingBlock: OJICUG_clean_linker_0, # of connection points: 2
#     Edge 86, Type (0, 0), BuildingBlock: OJICUG_clean_linker_0, # of connection points: 2
#     Edge 87, Type (0, 0), BuildingBlock: OJICUG_clean_linker_0, # of connection points: 2
#     Edge 88, Type (0, 0), BuildingBlock: OJICUG_clean_linker_0, # of connection points: 2
#     Edge 89, Type (0, 0), BuildingBlock: OJICUG_clean_linker_0, # of connection points: 2
#     Edge 90, Type (0, 0), BuildingBlock: OJICUG_clean_linker_0, # of connection points: 2
#     Edge 91, Type (0, 0), BuildingBlock: OJICUG_clean_linker_0, # of connection points: 2
#     Edge 92, Type (0, 0), BuildingBlock: OJICUG_clean_linker_0, # of connection points: 2
#     Edge 93, Type (0, 0), BuildingBlock: OJICUG_clean_linker_0, # of connection points: 2
#     Edge 94, Type (0, 0), BuildingBlock: OJICUG_clean_linker_0, # of connection points: 2
#     Edge 95, Type (0, 0), BuildingBlock: OJICUG_clean_linker_0, # of connection points: 2
# Relax obj value: 0.105
# Max RMSD: 0.103
# Mean RMSD: 0.103
data_MOF--net-ukd--node1-GALJAG_clean_sbu_0--edge1-OJICUG_clean_linker_0
_symmetry_space_group_name_H-M    P1
_symmetry_Int_Tables_number       1
_symmetry_cell_setting            triclinic
loop_
_symmetry_equiv_pos_as_xyz
'x, y, z'
_cell_length_a     33.608349
_cell_length_b     33.685385
_cell_length_c     52.502492
_cell_angle_alpha  89.891139
_cell_angle_beta   90.044611
_cell_angle_gamma 89.95898
loop_
_atom_site_label
_atom_site_type_symbol
_atom_site_fract_x
_atom_site_fract_y
_atom_site_fract_z
_atom_type_partial_charge
In0 In 0.21232 0.18015 0.34018 0.0
O1 O 0.16213 0.13612 0.33059 0.0
O2 O 0.16959 0.15432 0.369 0.0
C3 C 0.23349 0.20774 0.2942 0.0
C4 C 0.27508 0.13526 0.3545 0.0
C5 C 0.18549 0.25109 0.35625 0.0
O6 O 0.20553 0.18302 0.29714 0.0
O7 O 0.25166 0.21726 0.31437 0.0
O8 O 0.21412 0.23376 0.36735 0.0
O9 O 0.1709 0.23249 0.33765 0.0
C10 C 0.14987 0.13407 0.35329 0.0
O11 O 0.26195 0.1632 0.36816 0.0
O12 O 0.25697 0.13051 0.3337 0.0
In13 In 0.06468 0.96183 0.58855 0.0
O14 O 0.08082 0.01091 0.61673 0.0
O15 O 0.11131 0.00947 0.58127 0.0
C16 C 0.99498 0.93329 0.60596 0.0
C17 C 0.1145 0.90193 0.60112 0.0
C18 C 0.03602 0.98185 0.5426 0.0
O19 O 0.01104 0.96355 0.61581 0.0
O20 O 0.01432 0.91777 0.58799 0.0
O21 O 0.0625 0.9555 0.54547 0.0
O22 O 0.02518 -0.00101 0.56283 0.0
C23 C 0.10699 0.02622 0.60255 0.0
O24 O 0.10832 0.91166 0.57822 0.0
O25 O 0.09628 0.92278 0.61724 0.0
In26 In 0.28256 0.80684 0.8412 0.0
O27 O 0.23254 0.82317 0.86891 0.0
O28 O 0.23581 0.85423 0.83368 0.0
C29 C 0.31009 0.73628 0.85762 0.0
C30 C 0.34336 0.85495 0.85442 0.0
C31 C 0.26394 0.77873 0.79501 0.0
O32 O 0.28077 0.75295 0.86832 0.0
O33 O 0.32508 0.75541 0.83936 0.0
O34 O 0.29168 0.80353 0.79843 0.0
O35 O 0.24464 0.76941 0.81479 0.0
C36 C 0.21809 0.84978 0.85464 0.0
O37 O 0.33101 0.85276 0.83175 0.0
O38 O 0.3245 0.8338 0.87011 0.0
In39 In 0.43736 0.03527 0.08934 0.0
O40 O 0.42122 0.98432 0.11639 0.0
O41 O 0.38904 0.98991 0.08166 0.0
C42 C 0.50831 0.06197 0.10564 0.0
C43 C 0.38967 0.09593 0.10327 0.0
C44 C 0.46434 0.01541 0.0431 0.0
O45 O 0.49127 0.03292 0.11637 0.0
O46 O 0.48933 0.07717 0.08734 0.0
O47 O 0.43933 0.04305 0.04636 0.0
O48 O 0.47472 -0.00278 0.06311 0.0
C49 C 0.39403 0.971 0.10214 0.0
O50 O 0.39307 0.0854 0.0803 0.0
O51 O 0.40952 0.07543 0.11885 0.0
In52 In 0.21786 0.80474 0.14229 0.0
O53 O 0.26545 0.82647 0.11443 0.0
O54 O 0.26507 0.85099 0.15163 0.0
C55 C 0.19536 0.73749 0.11825 0.0
C56 C 0.15783 0.85542 0.13248 0.0
C57 C 0.22921 0.77365 0.18899 0.0
O58 O 0.23097 0.74352 0.12474 0.0
O59 O 0.17173 0.76524 0.12346 0.0
O60 O 0.20066 0.79693 0.18413 0.0
O61 O 0.25189 0.7666 0.17044 0.0
C62 C 0.28096 0.85049 0.12993 0.0
O63 O 0.16637 0.84489 0.15499 0.0
O64 O 0.18014 0.84117 0.11544 0.0
In65 In 0.42771 0.95112 0.40207 0.0
O66 O 0.41067 -0.00178 0.37262 0.0
O67 O 0.38467 0.00204 0.40948 0.0
C68 C 0.49502 0.91919 0.38289 0.0
C69 C 0.3735 0.89317 0.39396 0.0
C70 C 0.45833 0.97403 0.44693 0.0
O71 O 0.48027 0.9507 0.37379 0.0
O72 O 0.47529 0.90387 0.40074 0.0
O73 O 0.42937 0.95021 0.44537 0.0
O74 O 0.47084 0.98726 0.42589 0.0
C75 C 0.38718 0.01641 0.38733 0.0
O76 O 0.38935 0.89866 0.41546 0.0
O77 O 0.38464 0.91702 0.37689 0.0
In78 In 0.28645 0.18426 0.64911 0.0
O79 O 0.33606 0.13943 0.65848 0.0
O80 O 0.32709 0.15644 0.61993 0.0
C81 C 0.2666 0.2117 0.6953 0.0
C82 C 0.22231 0.14151 0.63498 0.0
C83 C 0.31534 0.25383 0.63207 0.0
O84 O 0.29367 0.18608 0.69212 0.0
O85 O 0.24881 0.22248 0.67522 0.0
O86 O 0.28523 0.2378 0.62189 0.0
O87 O 0.33016 0.23483 0.65048 0.0
C88 C 0.34721 0.13641 0.6356 0.0
O89 O 0.23628 0.16901 0.62127 0.0
O90 O 0.2403 0.13607 0.65577 0.0
In91 In 0.06092 0.03136 0.89897 0.0
O92 O 0.10641 0.08008 0.9085 0.0
O93 O 0.09079 0.0708 0.86977 0.0
C94 C 0.03366 0.01231 0.94538 0.0
C95 C 0.10272 0.96634 0.8853 0.0
C96 C 0.99101 0.061 0.88246 0.0
O97 O 0.05985 0.03874 0.94196 0.0
O98 O 0.02218 0.99477 0.92542 0.0
O99 O 0.00612 0.03028 0.87252 0.0
O100 O 0.01128 0.07624 0.90011 0.0
C101 C 0.11075 0.09064 0.88558 0.0
O102 O 0.07653 0.98153 0.87101 0.0
O103 O 0.10728 0.98356 0.90639 0.0
In104 In 0.78651 0.81316 0.65089 0.0
O105 O 0.73689 0.82842 0.62269 0.0
O106 O 0.74055 0.86173 0.65699 0.0
C107 C 0.81475 0.74305 0.63464 0.0
C108 C 0.84802 0.86001 0.63727 0.0
C109 C 0.76567 0.78547 0.69689 0.0
O110 O 0.78527 0.75953 0.62395 0.0
O111 O 0.8294 0.76198 0.65308 0.0
O112 O 0.79295 0.81095 0.69399 0.0
O113 O 0.7481 0.77518 0.67666 0.0
C114 C 0.72282 0.85611 0.63614 0.0
O115 O 0.83622 0.85796 0.66008 0.0
O116 O 0.82817 0.83956 0.62175 0.0
In117 In 0.93188 0.03255 0.3999 0.0
O118 O 0.98606 0.03052 0.37304 0.0
O119 O 0.98285 0.07577 0.40124 0.0
C120 C 0.88837 0.96876 0.38607 0.0
C121 C 0.9603 0.01263 0.44591 0.0
C122 C 0.88363 0.09341 0.38686 0.0
O123 O 0.9147 0.98356 0.37176 0.0
O124 O 0.88453 0.9857 0.40731 0.0
O125 O 0.8871 0.08197 0.40968 0.0
O126 O 0.90364 0.07369 0.37103 0.0
C127 C 0.00233 0.06039 0.38329 0.0
O128 O 0.93442 0.03955 0.44292 0.0
O129 O 0.97062 0.9949 0.42576 0.0
In130 In 0.71662 0.18284 0.14944 0.0
O131 O 0.66734 0.1377 0.15864 0.0
O132 O 0.6753 0.15583 0.12023 0.0
C133 C 0.73533 0.20972 0.19591 0.0
C134 C 0.78112 0.14021 0.13567 0.0
C135 C 0.68891 0.25356 0.13336 0.0
O136 O 0.70841 0.18408 0.19235 0.0
O137 O 0.7537 0.22059 0.17609 0.0
O138 O 0.71857 0.23727 0.1228 0.0
O139 O 0.67373 0.23404 0.15138 0.0
C140 C 0.65565 0.13527 0.13584 0.0
O141 O 0.76645 0.16685 0.12153 0.0
O142 O 0.76361 0.13555 0.15668 0.0
In143 In 0.56045 0.9598 0.89917 0.0
O144 O 0.50572 0.96112 0.87274 0.0
O145 O 0.50922 0.91702 0.9018 0.0
C146 C 0.6035 0.02349 0.88471 0.0
C147 C 0.53412 0.98083 0.94535 0.0
C148 C 0.60831 0.8989 0.88594 0.0
O149 O 0.57651 0.009 0.87079 0.0
O150 O 0.60831 0.00619 0.90579 0.0
O151 O 0.60534 0.9104 0.90874 0.0
O152 O 0.588 0.91859 0.87018 0.0
C153 C 0.48951 0.93176 0.88367 0.0
O154 O 0.55935 0.95336 0.94221 0.0
O155 O 0.52321 -0.00163 0.92521 0.0
In156 In 0.78212 0.1836 0.83903 0.0
O157 O 0.83133 0.13815 0.82978 0.0
O158 O 0.82595 0.15907 0.86773 0.0
C159 C 0.76221 0.21178 0.79295 0.0
C160 C 0.7188 0.13945 0.85296 0.0
C161 C 0.80718 0.25484 0.85543 0.0
O162 O 0.79088 0.18792 0.79621 0.0
O163 O 0.74269 0.22003 0.81282 0.0
O164 O 0.77934 0.23655 0.86665 0.0
O165 O 0.82198 0.23699 0.83662 0.0
C166 C 0.84465 0.13745 0.85228 0.0
O167 O 0.73268 0.1666 0.86694 0.0
O168 O 0.73656 0.13494 0.83203 0.0
In169 In 0.56361 0.03357 0.58771 0.0
O170 O 0.56141 0.03751 0.54445 0.0
O171 O 0.52404 0.99524 0.56304 0.0
C172 C 0.61227 0.09434 0.60001 0.0
C173 C 0.49371 0.06206 0.60464 0.0
C174 C 0.6068 0.9701 0.6024 0.0
O175 O 0.6063 0.08448 0.57712 0.0
O176 O 0.59444 0.0732 0.61618 0.0
O177 O 0.57992 0.9849 0.61625 0.0
O178 O 0.6114 0.98691 0.58113 0.0
C179 C 0.53486 0.01109 0.54234 0.0
O180 O 0.51031 0.03258 0.61517 0.0
O181 O 0.5126 0.07688 0.58621 0.0
In182 In 0.71031 0.80727 0.34035 0.0
O183 O 0.65889 0.85018 0.33089 0.0
O184 O 0.66439 0.82858 0.36871 0.0
C185 C 0.73241 0.78219 0.29407 0.0
C186 C 0.77225 0.85309 0.35488 0.0
C187 C 0.68785 0.7343 0.35544 0.0
O188 O 0.70328 0.80547 0.29733 0.0
O189 O 0.75116 0.77286 0.3141 0.0
O190 O 0.71271 0.75432 0.3682 0.0
O191 O 0.67477 0.75121 0.33572 0.0
C192 C 0.64485 0.8494 0.35318 0.0
O193 O 0.75962 0.82476 0.36843 0.0
O194 O 0.75377 0.85811 0.33424 0.0
In195 In 0.93914 0.95987 0.09042 0.0
O196 O 0.93961 0.9527 0.04742 0.0
O197 O 0.97592 -0.00198 0.06376 0.0
C198 C 0.89111 0.89918 0.10408 0.0
C199 C 0.01053 0.93238 0.10581 0.0
C200 C 0.89666 0.02429 0.10438 0.0
O201 O 0.89407 0.91052 0.08123 0.0
O202 O 0.91167 0.91878 0.11968 0.0
O203 O 0.92391 0.01003 0.11824 0.0
O204 O 0.89133 0.0064 0.08361 0.0
C205 C 0.96474 0.98012 0.04385 0.0
O206 O 0.99327 0.96038 0.11745 0.0
O207 O 0.99164 0.91859 0.08708 0.0
In208 In 0.7124 0.68281 0.83957 0.0
O209 O 0.76244 0.66695 0.86743 0.0
O210 O 0.75863 0.63477 0.83271 0.0
C211 C 0.68457 0.75324 0.85576 0.0
C212 C 0.65128 0.63516 0.85299 0.0
C213 C 0.73283 0.71081 0.79358 0.0
O214 O 0.71368 0.73644 0.86668 0.0
O215 O 0.66993 0.73433 0.83731 0.0
O216 O 0.70538 0.68551 0.79652 0.0
O217 O 0.75075 0.72076 0.81375 0.0
C218 C 0.77658 0.6398 0.85354 0.0
O219 O 0.66304 0.63772 0.8302 0.0
O220 O 0.67084 0.65571 0.86862 0.0
In221 In 0.56461 0.46061 0.09027 0.0
O222 O 0.58135 0.50969 0.11847 0.0
O223 O 0.61225 0.5073 0.0832 0.0
C224 C 0.49386 0.43329 0.10675 0.0
C225 C 0.6125 0.39953 0.10345 0.0
C226 C 0.53707 0.48017 0.04398 0.0
O227 O 0.51048 0.46282 0.11716 0.0
O228 O 0.51306 0.41803 0.08863 0.0
O229 O 0.56249 0.45292 0.0473 0.0
O230 O 0.52672 0.49839 0.06394 0.0
C231 C 0.60802 0.52435 0.10437 0.0
O232 O 0.60985 0.41153 0.08071 0.0
O233 O 0.59186 0.41881 0.11917 0.0
In234 In 0.78082 0.3102 0.33999 0.0
O235 O 0.72941 0.32647 0.3668 0.0
O236 O 0.73509 0.3583 0.332 0.0
C237 C 0.80775 0.23944 0.35657 0.0
C238 C 0.84226 0.35719 0.35359 0.0
C239 C 0.76254 0.28279 0.29358 0.0
O240 O 0.77884 0.25663 0.36739 0.0
O241 O 0.82258 0.25813 0.33807 0.0
O242 O 0.78958 0.30829 0.29715 0.0
O243 O 0.74386 0.27226 0.31336 0.0
C244 C 0.71602 0.35348 0.35242 0.0
O245 O 0.83081 0.35443 0.33076 0.0
O246 O 0.82207 0.33732 0.36929 0.0
In247 In 0.93397 0.53501 0.5886 0.0
O248 O 0.92199 0.47613 0.60963 0.0
O249 O 0.87425 0.50475 0.59016 0.0
C250 C 0.00409 0.56351 0.60505 0.0
C251 C 0.89088 0.59836 0.60254 0.0
C252 C 0.95759 0.51167 0.54219 0.0
O253 O 0.98517 0.53765 0.61774 0.0
O254 O 0.98767 0.57409 0.58454 0.0
O255 O 0.93474 0.54107 0.54541 0.0
O256 O 0.96691 0.49321 0.56228 0.0
C257 C 0.8855 0.47589 0.60366 0.0
O258 O 0.89232 0.58688 0.57962 0.0
O259 O 0.91075 0.57766 0.61809 0.0
In260 In 0.71002 0.31122 0.64933 0.0
O261 O 0.77004 0.32409 0.62987 0.0
O262 O 0.7401 0.37109 0.64899 0.0
C263 C 0.68656 0.23999 0.63171 0.0
C264 C 0.64627 0.35398 0.63468 0.0
C265 C 0.73097 0.28763 0.69638 0.0
O266 O 0.71024 0.26161 0.61907 0.0
O267 O 0.67517 0.25456 0.65254 0.0
O268 O 0.70034 0.30853 0.69229 0.0
O269 O 0.75176 0.28037 0.67693 0.0
C270 C 0.76981 0.36033 0.63611 0.0
O271 O 0.65689 0.35175 0.65776 0.0
O272 O 0.66769 0.33464 0.61934 0.0
In273 In 0.93346 0.45873 0.8992 0.0
O274 O 0.91795 0.50831 0.87098 0.0
O275 O 0.88787 0.50725 0.90658 0.0
C276 C 0.00277 0.42837 0.88244 0.0
C277 C 0.88313 0.39989 0.88613 0.0
C278 C 0.96209 0.4775 0.94524 0.0
O279 O 0.98807 0.45953 0.87273 0.0
O280 O 0.98229 0.41292 0.89994 0.0
O281 O 0.93431 0.45257 0.94235 0.0
O282 O 0.97423 0.4938 0.92499 0.0
C283 C 0.89219 0.52402 0.88528 0.0
O284 O 0.8883 0.40985 0.90907 0.0
O285 O 0.90253 0.42009 0.8702 0.0
In286 In 0.78766 0.68308 0.15096 0.0
O287 O 0.73844 0.66652 0.12264 0.0
O288 O 0.74217 0.63412 0.15735 0.0
C289 C 0.81395 0.75438 0.13509 0.0
C290 C 0.85067 0.6377 0.13791 0.0
C291 C 0.76666 0.70995 0.19703 0.0
O292 O 0.78571 0.73683 0.12379 0.0
O293 O 0.82834 0.73588 0.15385 0.0
O294 O 0.79472 0.68536 0.19397 0.0
O295 O 0.7484 0.71976 0.17692 0.0
C296 C 0.7245 0.63905 0.1364 0.0
O297 O 0.83749 0.63832 0.16043 0.0
O298 O 0.83141 0.65873 0.12234 0.0
In299 In 0.55386 0.53337 0.39192 0.0
O300 O 0.5972 0.58195 0.40477 0.0
O301 O 0.59405 0.56762 0.36535 0.0
C302 C 0.52056 0.51959 0.43768 0.0
C303 C 0.59633 0.4679 0.3798 0.0
C304 C 0.48978 0.56485 0.36818 0.0
O305 O 0.54787 0.54487 0.4345 0.0
O306 O 0.51048 0.50103 0.41785 0.0
O307 O 0.49667 0.52796 0.36786 0.0
O308 O 0.51501 0.58512 0.38018 0.0
C309 C 0.6092 0.58919 0.38242 0.0
O310 O 0.57363 0.48504 0.36405 0.0
O311 O 0.59679 0.48318 0.40168 0.0
In312 In 0.28621 0.31123 0.15163 0.0
O313 O 0.23477 0.32596 0.1246 0.0
O314 O 0.24179 0.36117 0.15787 0.0
C315 C 0.31358 0.24084 0.13503 0.0
C316 C 0.34765 0.35825 0.1379 0.0
C317 C 0.26582 0.28334 0.19771 0.0
O318 O 0.28507 0.25836 0.12394 0.0
O319 O 0.32785 0.25899 0.15391 0.0
O320 O 0.29368 0.30814 0.19467 0.0
O321 O 0.24745 0.27389 0.17761 0.0
C322 C 0.22231 0.35476 0.13776 0.0
O323 O 0.3361 0.35581 0.16074 0.0
O324 O 0.32774 0.33787 0.12236 0.0
In325 In 0.4355 0.53 0.90039 0.0
O326 O 0.43764 0.53739 0.94336 0.0
O327 O 0.47392 0.49247 0.92657 0.0
C328 C 0.38678 0.5905 0.8874 0.0
C329 C 0.50576 0.55841 0.88381 0.0
C330 C 0.39255 0.46598 0.88632 0.0
O331 O 0.39016 0.57887 0.91018 0.0
O332 O 0.40711 0.57113 0.87155 0.0
O333 O 0.41911 0.48081 0.8722 0.0
O334 O 0.38824 0.48298 0.9075 0.0
C335 C 0.46338 0.51043 0.94659 0.0
O336 O 0.48963 0.52857 0.87345 0.0
O337 O 0.48633 0.57342 0.90191 0.0
In338 In 0.21269 0.68481 0.6502 0.0
O339 O 0.27252 0.67233 0.63032 0.0
O340 O 0.24161 0.62441 0.64776 0.0
C341 C 0.19008 0.75675 0.63291 0.0
C342 C 0.14741 0.64352 0.63689 0.0
C343 C 0.23413 0.706 0.69755 0.0
O344 O 0.21208 0.73428 0.61971 0.0
O345 O 0.17998 0.74274 0.6542 0.0
O346 O 0.2033 0.68567 0.69314 0.0
O347 O 0.25496 0.71391 0.6782 0.0
C348 C 0.27154 0.63561 0.63526 0.0
O349 O 0.15984 0.64452 0.65961 0.0
O350 O 0.16782 0.66334 0.6212 0.0
In351 In 0.06079 0.45709 0.40013 0.0
O352 O 0.05707 0.44954 0.44309 0.0
O353 O 0.02313 0.49588 0.42576 0.0
C354 C 0.1089 0.39645 0.38673 0.0
C355 C 0.99031 0.42954 0.38353 0.0
C356 C 0.10399 0.52126 0.38683 0.0
O357 O 0.10561 0.40759 0.4096 0.0
O358 O 0.08871 0.41632 0.37099 0.0
O359 O 0.07547 0.50868 0.37338 0.0
O360 O 0.11038 0.50168 0.40691 0.0
C361 C 0.03223 0.47743 0.44591 0.0
O362 O 0.00757 0.45821 0.37252 0.0
O363 O 0.00893 0.415 0.4022 0.0
In364 In 0.27644 0.6851 0.33655 0.0
O365 O 0.23665 0.66127 0.3687 0.0
O366 O 0.22438 0.64303 0.33085 0.0
C367 C 0.28969 0.7536 0.36219 0.0
C368 C 0.34543 0.64335 0.33763 0.0
C369 C 0.25872 0.70789 0.28873 0.0
O370 O 0.29634 0.72003 0.37203 0.0
O371 O 0.27438 0.75225 0.34034 0.0
O372 O 0.28911 0.68719 0.29386 0.0
O373 O 0.23713 0.71627 0.30764 0.0
C374 C 0.21523 0.64068 0.35403 0.0
O375 O 0.34402 0.68044 0.33468 0.0
O376 O 0.31188 0.62683 0.33918 0.0
In377 In 0.06509 0.53259 0.08729 0.0
O378 O 0.06693 0.52995 0.04417 0.0
O379 O 0.02088 0.49803 0.06313 0.0
C380 C 0.11807 0.59261 0.09135 0.0
C381 C -0.00178 0.56433 0.10732 0.0
C382 C 0.10616 0.46886 0.10394 0.0
O383 O 0.09669 0.58756 0.07192 0.0
O384 O 0.11342 0.56698 0.1086 0.0
O385 O 0.08547 0.49011 0.11869 0.0
O386 O 0.10541 0.47933 0.08086 0.0
C387 C 0.03614 0.50867 0.04222 0.0
O388 O 0.01243 0.53211 0.11572 0.0
O389 O 0.01825 0.58024 0.08986 0.0
In390 In 0.21275 0.30767 0.83957 0.0
O391 O 0.26199 0.32401 0.86793 0.0
O392 O 0.25848 0.35642 0.83324 0.0
C393 C 0.18736 0.23588 0.85515 0.0
C394 C 0.14982 0.35317 0.85278 0.0
C395 C 0.23344 0.28197 0.79312 0.0
O396 O 0.21514 0.25383 0.86663 0.0
O397 O 0.17288 0.25424 0.83637 0.0
O398 O 0.20528 0.30633 0.79655 0.0
O399 O 0.25187 0.2717 0.81308 0.0
C400 C 0.27609 0.35141 0.8542 0.0
O401 O 0.16311 0.35263 0.83029 0.0
O402 O 0.16879 0.33177 0.86828 0.0
In403 In 0.43374 0.46168 0.58363 0.0
O404 O 0.43179 0.45528 0.54042 0.0
O405 O 0.46414 0.50379 0.55608 0.0
C406 C 0.39211 0.39741 0.59807 0.0
C407 C 0.50481 0.43503 0.60014 0.0
C408 C 0.38551 0.52041 0.59978 0.0
O409 O 0.39255 0.40917 0.57516 0.0
O410 O 0.41232 0.41818 0.61332 0.0
O411 O 0.4225 0.52102 0.6042 0.0
O412 O 0.37359 0.49088 0.58724 0.0
C413 C 0.45356 0.48521 0.53635 0.0
O414 O 0.48471 0.45979 0.61291 0.0
O415 O 0.48928 0.42479 0.57931 0.0
C416 C 0.12796 0.34695 0.3539 0.0
C417 C 0.13186 0.36113 0.3789 0.0
H418 H 0.14182 0.30111 0.32734 0.0
C419 C 0.15588 0.34006 0.39623 0.0
H420 H 0.10976 0.3625 0.34006 0.0
C421 C 0.1748 0.3048 0.38877 0.0
C422 C 0.16936 0.28994 0.36403 0.0
H423 H 0.15945 0.35041 0.41562 0.0
H424 H 0.19249 0.28855 0.40254 0.0
C425 C 0.14626 0.31167 0.34662 0.0
C426 C 0.94015 0.9253 0.63817 0.0
C427 C 0.95627 0.91706 0.61406 0.0
H428 H 0.89298 0.91322 0.66473 0.0
C429 C 0.93554 0.89184 0.59748 0.0
H430 H 0.95562 0.94469 0.65129 0.0
C431 C 0.89979 0.87456 0.6049 0.0
C432 C 0.88415 0.88156 0.62927 0.0
H433 H 0.94708 0.88521 0.57869 0.0
H434 H 0.88494 0.85483 0.59169 0.0
C435 C 0.90444 0.90733 0.64583 0.0
C436 C 0.36771 0.64062 0.85487 0.0
C437 C 0.36373 0.6259 0.87976 0.0
H438 H 0.35393 0.687 0.82857 0.0
C439 C 0.33964 0.64657 0.89718 0.0
H440 H 0.38596 0.62538 0.84097 0.0
C441 C 0.32072 0.68198 0.8899 0.0
C442 C 0.32627 0.69736 0.86527 0.0
H443 H 0.33604 0.63581 0.91649 0.0
H444 H 0.30296 0.69794 0.90372 0.0
C445 C 0.34945 0.67603 0.84777 0.0
C446 C 0.56886 0.10124 0.09612 0.0
C447 C 0.54747 0.07756 0.11334 0.0
H448 H 0.62001 0.13728 0.08964 0.0
C449 C 0.56315 0.07067 0.13776 0.0
H450 H 0.55766 0.10678 0.07709 0.0
C451 C 0.59897 0.08867 0.14513 0.0
C452 C 0.61977 0.11318 0.128 0.0
H453 H 0.54716 0.05248 0.15136 0.0
H454 H 0.60999 0.08398 0.1643 0.0
C455 C 0.60471 0.1186 0.1033 0.0
C456 C 0.19429 0.66355 0.11818 0.0
C457 C 0.18096 0.69966 0.10789 0.0
H458 H 0.184 0.60083 0.12129 0.0
C459 C 0.14981 0.69965 0.09011 0.0
H460 H 0.21803 0.66303 0.13216 0.0
C461 C 0.13119 0.66417 0.08338 0.0
C462 C 0.14254 0.62836 0.09503 0.0
H463 H 0.13902 0.72727 0.08204 0.0
H464 H 0.1063 0.66513 0.07026 0.0
C465 C 0.17475 0.62814 0.11209 0.0
C466 C 0.55174 0.91353 0.35175 0.0
C467 C 0.53347 0.90225 0.37472 0.0
H468 H 0.60155 0.90522 0.32661 0.0
C469 C 0.55252 0.87444 0.39052 0.0
H470 H 0.53767 0.93498 0.33926 0.0
C471 C 0.589 0.85815 0.38359 0.0
C472 C 0.60712 0.86875 0.36049 0.0
H473 H 0.53936 0.86537 0.40844 0.0
H474 H 0.60272 0.83668 0.39624 0.0
C475 C 0.5882 0.89657 0.34455 0.0
C476 C 0.35956 0.31171 0.63929 0.0
C477 C 0.33284 0.29159 0.62333 0.0
H478 H 0.39877 0.36098 0.64387 0.0
C479 C 0.32461 0.3071 0.59903 0.0
H480 H 0.36634 0.30055 0.65817 0.0
C481 C 0.34373 0.34172 0.59064 0.0
C482 C 0.37078 0.36152 0.60662 0.0
H483 H 0.30419 0.29203 0.58635 0.0
H484 H 0.33748 0.35286 0.57169 0.0
C485 C 0.3781 0.3464 0.63111 0.0
C486 C 0.93481 0.06924 0.8511 0.0
C487 C 0.95249 0.07828 0.87466 0.0
H488 H 0.88661 0.08132 0.82525 0.0
C489 C 0.93358 0.10537 0.89093 0.0
H490 H 0.94885 0.04845 0.83821 0.0
C491 C 0.89809 0.12355 0.88377 0.0
C492 C 0.88083 0.11556 0.85997 0.0
H493 H 0.94634 0.11276 0.90928 0.0
H494 H 0.88463 0.14463 0.89673 0.0
C495 C 0.89934 0.08804 0.8437 0.0
C496 C 0.87542 0.6491 0.63535 0.0
C497 C 0.86922 0.63422 0.61072 0.0
H498 H 0.86308 0.69518 0.66204 0.0
C499 C 0.84333 0.65449 0.59414 0.0
H500 H 0.89517 0.63414 0.64857 0.0
C501 C 0.82443 0.68946 0.60203 0.0
C502 C 0.83173 0.70484 0.62644 0.0
H503 H 0.83796 0.64353 0.57506 0.0
H504 H 0.80501 0.70496 0.58887 0.0
C505 C 0.8571 0.68414 0.64305 0.0
C506 C 0.09344 0.08702 0.34408 0.0
C507 C 0.11358 0.11243 0.36096 0.0
H508 H 0.04227 0.04985 0.33805 0.0
C509 C 0.09773 0.11882 0.38534 0.0
H510 H 0.10508 0.08157 0.32518 0.0
C511 C 0.06191 0.10134 0.39246 0.0
C512 C 0.04129 0.07654 0.37555 0.0
H513 H 0.11248 0.13823 0.3988 0.0
H514 H 0.05019 0.10754 0.41126 0.0
C515 C 0.05765 0.06888 0.35143 0.0
C516 C 0.63005 0.34855 0.1358 0.0
C517 C 0.63518 0.36392 0.11115 0.0
H518 H 0.64293 0.30167 0.16192 0.0
C519 C 0.66022 0.34381 0.09402 0.0
H520 H 0.611 0.36333 0.14946 0.0
C521 C 0.67908 0.30839 0.10134 0.0
C522 C 0.67252 0.29241 0.12572 0.0
H523 H 0.66472 0.35508 0.0749 0.0
H524 H 0.69766 0.29293 0.08774 0.0
C525 C 0.64825 0.31311 0.14292 0.0
C526 C 0.43411 0.92202 0.85204 0.0
C527 C 0.4506 0.91516 0.87625 0.0
H528 H 0.38698 0.90789 0.82588 0.0
C529 C 0.43034 0.89052 0.89347 0.0
H530 H 0.44921 0.94091 0.83842 0.0
C531 C 0.39483 0.87224 0.88652 0.0
C532 C 0.37896 0.87771 0.86203 0.0
H533 H 0.44217 0.88494 0.91235 0.0
H534 H 0.38041 0.85288 0.90018 0.0
C535 C 0.39863 0.90313 0.84488 0.0
C536 C 0.83768 0.34259 0.89607 0.0
C537 C 0.85945 0.3651 0.87831 0.0
H538 H 0.80323 0.28976 0.90264 0.0
C539 C 0.86089 0.35258 0.85285 0.0
H540 H 0.83604 0.35166 0.91582 0.0
C541 C 0.84279 0.31729 0.8455 0.0
C542 C 0.82229 0.29396 0.86333 0.0
H543 H 0.87725 0.36932 0.83867 0.0
H544 H 0.84549 0.30787 0.82585 0.0
C545 C 0.8189 0.30732 0.88856 0.0
C546 C 0.40391 0.0896 0.64466 0.0
C547 C 0.38303 0.11432 0.62766 0.0
H548 H 0.45552 0.05292 0.65057 0.0
C549 C 0.3979 0.11987 0.60293 0.0
H550 H 0.39304 0.08483 0.66384 0.0
C551 C 0.43356 0.10233 0.59558 0.0
C552 C 0.45495 0.0783 0.61262 0.0
H553 H 0.38255 0.13874 0.58938 0.0
H554 H 0.44457 0.1079 0.57651 0.0
C555 C 0.43953 0.07138 0.6371 0.0
C556 C 0.67087 0.68301 0.38846 0.0
C557 C 0.67356 0.6946 0.36281 0.0
H558 H 0.64781 0.64018 0.41499 0.0
C559 C 0.65889 0.66924 0.34384 0.0
H560 H 0.68194 0.70219 0.40341 0.0
C561 C 0.6401 0.63384 0.35034 0.0
C562 C 0.63492 0.6233 0.37601 0.0
H563 H 0.66093 0.67735 0.3239 0.0
H564 H 0.62799 0.61566 0.33521 0.0
C565 C 0.65132 0.64768 0.39505 0.0
C566 C 0.10891 0.87971 0.10056 0.0
C567 C 0.1221 0.8789 0.12593 0.0
H568 H 0.06319 0.89702 0.07454 0.0
C569 C 0.09948 0.89834 0.14469 0.0
H570 H 0.1256 0.86501 0.08565 0.0
C571 C 0.06375 0.91743 0.13816 0.0
C572 C 0.04988 0.91647 0.11292 0.0
H573 H 0.10902 0.89817 0.1644 0.0
H574 H 0.04629 0.93152 0.15293 0.0
C575 C 0.07306 0.89792 0.09418 0.0
C576 C 0.67419 0.80729 0.88808 0.0
C577 C 0.66821 0.792 0.8635 0.0
H578 H 0.65943 0.85336 0.91473 0.0
C579 C 0.64462 0.81334 0.84616 0.0
H580 H 0.69226 0.79133 0.90179 0.0
C581 C 0.62648 0.84872 0.85335 0.0
C582 C 0.631 0.86338 0.87819 0.0
H583 H 0.63977 0.80244 0.827 0.0
H584 H 0.60794 0.86401 0.83958 0.0
C585 C 0.6554 0.84264 0.89546 0.0
C586 C 0.43937 0.42415 0.13909 0.0
C587 C 0.45501 0.41711 0.1147 0.0
H588 H 0.3929 0.41055 0.16584 0.0
C589 C 0.43395 0.39266 0.0978 0.0
H590 H 0.4551 0.44289 0.15247 0.0
C591 C 0.39846 0.3748 0.10522 0.0
C592 C 0.3834 0.38046 0.12988 0.0
H593 H 0.44512 0.38695 0.0788 0.0
H594 H 0.38338 0.35562 0.09178 0.0
C595 C 0.40391 0.40564 0.14672 0.0
C596 C 0.83707 0.15005 0.39654 0.0
C597 C 0.86083 0.12895 0.37914 0.0
H598 H 0.80083 0.20178 0.40293 0.0
C599 C 0.86467 0.14331 0.35415 0.0
H600 H 0.83357 0.13958 0.41592 0.0
C601 C 0.84659 0.17876 0.34693 0.0
C602 C 0.82373 0.2005 0.36438 0.0
H603 H 0.88268 0.12776 0.34027 0.0
H604 H 0.85097 0.18942 0.32765 0.0
C605 C 0.81833 0.1855 0.38913 0.0
C606 C 0.09767 0.62506 0.6039 0.0
C607 C 0.11154 0.62143 0.629 0.0
H608 H 0.05308 0.60949 0.57679 0.0
C609 C 0.09065 0.59707 0.64619 0.0
H610 H 0.11313 0.6435 0.59019 0.0
C611 C 0.0561 0.57716 0.6384 0.0
C612 C 0.04187 0.58165 0.6134 0.0
H613 H 0.10082 0.59365 0.66566 0.0
H614 H 0.04014 0.559 0.65203 0.0
C615 C 0.0632 0.60553 0.59623 0.0
C616 C 0.65375 0.15453 0.58963 0.0
C617 C 0.63547 0.12959 0.60768 0.0
H618 H 0.68499 0.20937 0.58312 0.0
C619 C 0.63718 0.13988 0.63355 0.0
H620 H 0.65293 0.14724 0.56955 0.0
C621 C 0.65498 0.17519 0.64116 0.0
C622 C 0.67192 0.20095 0.62316 0.0
H623 H 0.62361 0.12124 0.64796 0.0
H624 H 0.65475 0.18269 0.66123 0.0
C625 C 0.67211 0.18995 0.59736 0.0
C626 C 0.09581 0.366 0.88397 0.0
C627 C 0.11336 0.37458 0.86034 0.0
H628 H 0.04713 0.37604 0.90921 0.0
C629 C 0.09487 0.40222 0.84407 0.0
H630 H 0.10925 0.34478 0.89691 0.0
C631 C 0.05919 0.42067 0.85132 0.0
C632 C 0.04127 0.4111 0.87471 0.0
H633 H 0.10782 0.40937 0.82574 0.0
H634 H 0.04523 0.44164 0.83845 0.0
C635 C 0.06008 0.3838 0.89097 0.0
C636 C 0.87168 0.85002 0.13714 0.0
C637 C 0.86799 0.86403 0.11206 0.0
H638 H 0.85748 0.80444 0.16391 0.0
C639 C 0.84395 0.84301 0.09478 0.0
H640 H 0.88987 0.86556 0.15093 0.0
C641 C 0.82485 0.80791 0.10238 0.0
C642 C 0.8301 0.79319 0.12721 0.0
H643 H 0.84053 0.85325 0.07533 0.0
H644 H 0.80721 0.79165 0.08864 0.0
C645 C 0.85318 0.81491 0.14457 0.0
C646 C 0.41937 0.56129 0.35232 0.0
C647 C 0.45406 0.58339 0.3569 0.0
H648 H 0.3573 0.56309 0.34267 0.0
C649 C 0.45356 0.62455 0.35261 0.0
H650 H 0.41898 0.52952 0.35553 0.0
C651 C 0.41866 0.64359 0.34499 0.0
C652 C 0.3833 0.62197 0.34184 0.0
H653 H 0.47997 0.64229 0.35581 0.0
H654 H 0.41904 0.67555 0.34264 0.0
C655 C 0.38413 0.5805 0.34502 0.0
C656 C 0.37111 0.14494 0.13651 0.0
C657 C 0.367 0.13124 0.11142 0.0
H658 H 0.35751 0.19033 0.16345 0.0
C659 C 0.34302 0.15272 0.09428 0.0
H660 H 0.38931 0.12906 0.15019 0.0
C661 C 0.32427 0.18788 0.10205 0.0
C662 C 0.32984 0.20223 0.1269 0.0
H663 H 0.33932 0.14274 0.07482 0.0
H664 H 0.30655 0.20443 0.08844 0.0
C665 C 0.35298 0.18015 0.1441 0.0
C666 C 0.56502 0.59991 0.89282 0.0
C667 C 0.5444 0.57513 0.87589 0.0
H668 H 0.61508 0.63757 0.89894 0.0
C669 C 0.56029 0.56823 0.85155 0.0
H670 H 0.55366 0.60555 0.91178 0.0
C671 C 0.59558 0.58715 0.844 0.0
C672 C 0.61567 0.6126 0.86088 0.0
H673 H 0.54489 0.54924 0.83816 0.0
H674 H 0.6068 0.58231 0.82492 0.0
C675 C 0.60034 0.61817 0.88547 0.0
C676 C 0.17455 0.80645 0.59845 0.0
C677 C 0.1754 0.79585 0.62434 0.0
H678 H 0.15424 0.84869 0.57058 0.0
C679 C 0.15928 0.82198 0.64239 0.0
H680 H 0.18678 0.78676 0.58416 0.0
C681 C 0.14111 0.85718 0.63474 0.0
C682 C 0.1383 0.86701 0.60881 0.0
H683 H 0.15985 0.81479 0.66251 0.0
H684 H 0.1281 0.87608 0.64919 0.0
C685 C 0.15591 0.84177 0.59071 0.0
C686 C 0.93551 0.42068 0.35139 0.0
C687 C 0.95118 0.41384 0.37583 0.0
H688 H 0.88846 0.40769 0.32496 0.0
C689 C 0.92961 0.39043 0.39312 0.0
H690 H 0.9516 0.43867 0.33774 0.0
C691 C 0.89356 0.37338 0.38603 0.0
C692 C 0.87845 0.37885 0.36135 0.0
H693 H 0.94078 0.38494 0.41217 0.0
H694 H 0.87809 0.35495 0.39975 0.0
C695 C 0.89949 0.40299 0.34412 0.0
C696 C 0.3253 0.79169 0.39639 0.0
C697 C 0.30478 0.79116 0.37305 0.0
H698 H 0.36293 0.82494 0.42159 0.0
C699 C 0.30326 0.82603 0.35833 0.0
H700 H 0.32698 0.76525 0.40811 0.0
C701 C 0.32421 0.85978 0.36582 0.0
C702 C 0.34666 0.85962 0.38836 0.0
H703 H 0.28763 0.82665 0.34028 0.0
H704 H 0.32398 0.88558 0.35345 0.0
C705 C 0.34588 0.8258 0.40407 0.0
C706 C 0.94123 0.60957 0.09987 0.0
C707 C 0.96004 0.5816 0.11567 0.0
H708 H 0.89188 0.64842 0.09436 0.0
C709 C 0.94198 0.57092 0.13882 0.0
H710 H 0.95422 0.61818 0.0818 0.0
C711 C 0.90608 0.58885 0.14626 0.0
C712 C 0.88752 0.61697 0.13035 0.0
H713 H 0.95589 0.54936 0.15131 0.0
H714 H 0.89294 0.58081 0.16438 0.0
C715 C 0.90532 0.62676 0.10701 0.0
C716 C 0.17595 0.18258 0.88792 0.0
C717 C 0.17179 0.19677 0.86288 0.0
H718 H 0.15942 0.13758 0.91498 0.0
C719 C 0.1502 0.17427 0.84516 0.0
H720 H 0.19246 0.19946 0.90192 0.0
C721 C 0.13192 0.13896 0.85244 0.0
C722 C 0.1343 0.12557 0.87773 0.0
H723 H 0.14682 0.18432 0.82565 0.0
H724 H 0.11476 0.12286 0.83837 0.0
C725 C 0.15704 0.14731 0.89536 0.0
C726 C 0.56527 0.39439 0.59209 0.0
C727 C 0.54249 0.41718 0.60905 0.0
H728 H 0.61583 0.35687 0.58688 0.0
C729 C 0.55488 0.42043 0.63453 0.0
H730 H 0.55656 0.3914 0.57231 0.0
C731 C 0.58892 0.4002 0.643 0.0
C732 C 0.61116 0.37676 0.62603 0.0
H733 H 0.53776 0.43769 0.64803 0.0
H734 H 0.59753 0.40255 0.66282 0.0
C735 C 0.59926 0.37455 0.60045 0.0
C736 C 0.22719 0.23567 0.22451 0.0
C737 C 0.25707 0.26466 0.22252 0.0
H738 H 0.19655 0.19464 0.24872 0.0
C739 C 0.27962 0.27428 0.24417 0.0
H740 H 0.20946 0.22749 0.2081 0.0
C741 C 0.27236 0.2553 0.26739 0.0
C742 C 0.24245 0.22633 0.26938 0.0
H743 H 0.30299 0.29635 0.24317 0.0
H744 H 0.29006 0.26349 0.28382 0.0
C745 C 0.21994 0.21669 0.24772 0.0
C746 C 0.98681 0.01874 0.51581 0.0
C747 C 0.01728 0.99031 0.51775 0.0
H748 H 0.94463 0.04788 0.49155 0.0
C749 C 0.02846 0.96888 0.49598 0.0
H750 H 0.97743 0.03558 0.53231 0.0
C751 C 0.00951 0.97576 0.4727 0.0
C752 C 0.97904 0.00419 0.47076 0.0
H753 H 0.05171 0.94664 0.49695 0.0
H754 H 0.01889 0.95892 0.4562 0.0
C755 C 0.96788 0.02564 0.49252 0.0
C756 C 0.21813 0.71464 0.7437 0.0
C757 C 0.24295 0.72283 0.72284 0.0
H758 H 0.20518 0.72619 0.78291 0.0
C759 C 0.27471 0.7495 0.72589 0.0
H760 H 0.1933 0.69437 0.74185 0.0
C761 C 0.28125 0.76802 0.74929 0.0
C762 C 0.25625 0.7601 0.77009 0.0
H763 H 0.2942 0.75655 0.7101 0.0
H764 H 0.30593 0.78849 0.75107 0.0
C765 C 0.22478 0.73305 0.76714 0.0
C766 C 0.47044 0.028 -0.00366 0.0
C767 C 0.48174 0.00627 0.01802 0.0
H768 H 0.47843 0.03712 0.95632 0.0
C769 C 0.51083 0.97653 0.01571 0.0
H770 H 0.4482 0.0512 -0.00241 0.0
C771 C 0.52828 0.96861 0.99213 0.0
C772 C 0.51693 0.99028 0.97044 0.0
H773 H 0.52025 0.95942 0.03213 0.0
H774 H 0.55049 0.94537 0.99089 0.0
C775 C 0.48787 0.02005 0.97275 0.0
C776 C 0.27556 0.71431 0.24256 0.0
C777 C 0.2501 0.72312 0.26295 0.0
H778 H 0.28885 0.72345 0.20314 0.0
C779 C 0.21712 0.748 0.25874 0.0
H780 H 0.3012 0.69525 0.24525 0.0
C781 C 0.2101 0.76427 0.23465 0.0
C782 C 0.23591 0.75592 0.21435 0.0
H783 H 0.197 0.75534 0.27413 0.0
H784 H 0.18467 0.78363 0.232 0.0
C785 C 0.26851 0.73054 0.21848 0.0
C786 C 0.50951 0.01087 0.47212 0.0
C787 C 0.4775 0.98408 0.47137 0.0
H788 H 0.55297 0.04031 0.4952 0.0
C789 C 0.46494 0.96584 0.49404 0.0
H790 H 0.51993 0.02526 0.4549 0.0
C791 C 0.48404 0.9742 0.51703 0.0
C792 C 0.51599 0.00106 0.51781 0.0
H793 H 0.44048 0.94491 0.49402 0.0
H794 H 0.47357 0.9598 0.53423 0.0
C795 C 0.52854 0.01935 0.49515 0.0
C796 C 0.22041 0.27588 0.74641 0.0
C797 C 0.24256 0.26479 0.76797 0.0
H798 H 0.21051 0.26754 0.70649 0.0
C799 C 0.27243 0.23585 0.76551 0.0
H800 H 0.19709 0.29798 0.74776 0.0
C801 C 0.27995 0.21825 0.74194 0.0
C802 C 0.25777 0.22929 0.72038 0.0
H803 H 0.28985 0.22658 0.78184 0.0
H804 H 0.30323 0.1961 0.74059 0.0
C805 C 0.22798 0.25832 0.72282 0.0
C806 C 0.98651 0.9749 0.97329 0.0
C807 C 0.01635 0.0038 0.97062 0.0
H808 H 0.94655 0.94494 -0.00143 0.0
C809 C 0.02858 0.02532 0.99212 0.0
H810 H 0.97636 0.95797 0.95701 0.0
C811 C 0.01135 0.01801 0.01587 0.0
C812 C 0.98161 0.98902 0.01855 0.0
H813 H 0.05139 0.0479 0.9906 0.0
H814 H 0.02155 0.0349 0.03215 0.0
C815 C 0.96931 0.96756 -0.00296 0.0
C816 C 0.72723 0.73761 0.72368 0.0
C817 C 0.75666 0.76708 0.72175 0.0
H818 H 0.69684 0.69642 0.74792 0.0
C819 C 0.77852 0.77751 0.74352 0.0
H820 H 0.71003 0.72882 0.70717 0.0
C821 C 0.77112 0.7588 0.7668 0.0
C822 C 0.74171 0.72931 0.76873 0.0
H823 H 0.80151 0.79998 0.74257 0.0
H824 H 0.78833 0.76758 0.78331 0.0
C825 C 0.71982 0.7189 0.74697 0.0
C826 C 0.77178 0.25755 0.22371 0.0
C827 C 0.74294 0.22768 0.22103 0.0
H828 H 0.80035 0.29869 0.24878 0.0
C829 C 0.72023 0.21645 0.24229 0.0
H830 H 0.78959 0.26695 0.20761 0.0
C831 C 0.72623 0.23478 0.26581 0.0
C832 C 0.75505 0.26468 0.26849 0.0
H833 H 0.69765 0.19365 0.24073 0.0
H834 H 0.7084 0.2254 0.28191 0.0
C835 C 0.77779 0.27588 0.24724 0.0
C836 C 0.7789 0.22403 0.74726 0.0
C837 C 0.75388 0.23087 0.7682 0.0
H838 H 0.79156 0.23713 0.70822 0.0
C839 C 0.72192 0.2575 0.76559 0.0
H840 H 0.80394 0.2039 0.74876 0.0
C841 C 0.71491 0.27668 0.74239 0.0
C842 C 0.73983 0.26969 0.72142 0.0
H843 H 0.70229 0.26353 0.78147 0.0
H844 H 0.68978 0.2967 0.74082 0.0
C845 C 0.77197 0.2433 0.7241 0.0
C846 C 0.71919 0.77436 0.2475 0.0
C847 C 0.74193 0.76466 0.26908 0.0
H848 H 0.709 0.76434 0.20779 0.0
C849 C 0.77259 0.73651 0.26687 0.0
H850 H 0.69523 0.7958 0.24868 0.0
C851 C 0.7803 0.71829 0.24351 0.0
C852 C 0.7575 0.72793 0.22194 0.0
H853 H 0.79047 0.72829 0.28323 0.0
H854 H 0.80421 0.69679 0.24234 0.0
C855 C 0.72692 0.75617 0.22414 0.0
C856 C 0.48909 0.51753 0.01656 0.0
C857 C 0.51888 0.48847 0.01894 0.0
H858 H 0.44789 0.54701 0.9918 0.0
C859 C 0.52989 0.46632 -0.00256 0.0
H860 H 0.47985 0.53493 0.03285 0.0
C861 C 0.51145 0.4731 0.97398 0.0
C862 C 0.48164 0.50214 0.9716 0.0
H863 H 0.55263 0.4436 -0.00125 0.0
H864 H 0.52068 0.4557 0.95769 0.0
C865 C 0.47064 0.5243 0.9931 0.0
C866 C 0.02208 0.46328 0.49216 0.0
C867 C 0.01329 0.4863 0.47057 0.0
H868 H 0.01089 0.45298 0.53173 0.0
C869 C 0.98503 0.51691 0.47248 0.0
H870 H 0.04353 0.43932 0.4912 0.0
C871 C 0.96617 0.52461 0.49564 0.0
C872 C 0.97519 0.50178 0.51729 0.0
H873 H 0.97748 0.53498 0.45608 0.0
H874 H 0.94487 0.54871 0.49665 0.0
C875 C 0.00318 0.47094 0.51531 0.0
C876 C 0.98384 0.47529 0.01596 0.0
C877 C 0.01788 0.49937 0.0174 0.0
H878 H 0.9393 0.44953 0.9919 0.0
C879 C 0.03323 0.51625 -0.00499 0.0
H880 H 0.97127 0.46203 0.03296 0.0
C881 C 0.01473 0.50948 0.97163 0.0
C882 C 0.98064 0.4855 0.97016 0.0
H883 H 0.05931 0.53511 -0.00444 0.0
H884 H 0.02728 0.52292 0.95469 0.0
C885 C 0.96544 0.46829 0.99251 0.0
C886 C 0.51285 0.53464 0.48401 0.0
C887 C 0.50199 0.51203 0.46268 0.0
H888 H 0.50563 0.54414 0.52403 0.0
C889 C 0.47351 0.48181 0.4655 0.0
H890 H 0.53457 0.55824 0.48238 0.0
C891 C 0.45692 0.47371 0.48935 0.0
C892 C 0.4684 0.4958 0.51078 0.0
H893 H 0.46446 0.46398 0.44935 0.0
H894 H 0.43563 0.44973 0.49106 0.0
C895 C 0.49615 0.52665 0.50783 0.0
C896 C 0.31617 0.10364 0.38874 0.0
C897 C 0.30717 0.1082 0.36278 0.0
H898 H 0.34843 0.07053 0.41692 0.0
C899 C 0.32708 0.08449 0.34485 0.0
H900 H 0.30118 0.12147 0.40296 0.0
C901 C 0.3546 0.05588 0.35278 0.0
C902 C 0.36207 0.0499 0.37882 0.0
H903 H 0.32079 0.08752 0.3247 0.0
H904 H 0.36876 0.03735 0.33858 0.0
C905 C 0.34308 0.07444 0.39671 0.0
C906 C 0.15367 0.0819 0.59283 0.0
C907 C 0.1329 0.05906 0.61085 0.0
H908 H 0.19773 0.12683 0.58643 0.0
C909 C 0.13942 0.06587 0.63689 0.0
H910 H 0.14907 0.07728 0.57262 0.0
C911 C 0.16781 0.09357 0.64475 0.0
C912 C 0.18943 0.11559 0.62672 0.0
H913 H 0.12388 0.04857 0.65116 0.0
H914 H 0.1734 0.09721 0.66494 0.0
C915 C 0.18137 0.11031 0.60071 0.0
C916 C 0.16353 0.89745 0.84407 0.0
C917 C 0.18504 0.87592 0.86244 0.0
H918 H 0.11971 0.94243 0.83695 0.0
C919 C 0.17675 0.88193 0.88834 0.0
H920 H 0.16928 0.89325 0.82395 0.0
C921 C 0.149 0.9106 0.89577 0.0
C922 C 0.12841 0.93304 0.87741 0.0
H923 H 0.19298 0.86579 0.90289 0.0
H924 H 0.14426 0.91581 0.9159 0.0
C925 C 0.1351 0.92546 0.85148 0.0
C926 C 0.33526 0.89776 0.14161 0.0
C927 C 0.31304 0.87816 0.12276 0.0
H928 H 0.37916 0.94214 0.14978 0.0
C929 C 0.31984 0.88729 0.09704 0.0
H930 H 0.33063 0.89115 0.16159 0.0
C931 C 0.34697 0.9169 0.09034 0.0
C932 C 0.36839 0.93727 0.10922 0.0
H933 H 0.30305 0.87268 0.08213 0.0
H934 H 0.3507 0.92432 0.0704 0.0
C935 C 0.36306 0.9268 0.13487 0.0
C936 C 0.68223 0.88688 0.60148 0.0
C937 C 0.68997 0.88188 0.62756 0.0
H938 H 0.64993 0.91934 0.57302 0.0
C939 C 0.66791 0.90387 0.64535 0.0
H940 H 0.69893 0.87035 0.58739 0.0
C941 C 0.63932 0.93121 0.63717 0.0
C942 C 0.63306 0.9377 0.61105 0.0
H943 H 0.67326 0.90043 0.66559 0.0
H944 H 0.62338 0.94848 0.65125 0.0
C945 C 0.65434 0.91494 0.59328 0.0
C946 C 0.84152 0.9134 0.39631 0.0
C947 C 0.8619 0.93616 0.37805 0.0
H948 H 0.79768 0.8684 0.40322 0.0
C949 C 0.85455 0.92942 0.3521 0.0
H950 H 0.84675 0.91799 0.41646 0.0
C951 C 0.82588 0.90177 0.34458 0.0
C952 C 0.80481 0.87968 0.36285 0.0
H953 H 0.86975 0.94667 0.33764 0.0
H954 H 0.81979 0.89806 0.32445 0.0
C955 C 0.81356 0.88501 0.38876 0.0
C956 C 0.82174 0.10789 0.10171 0.0
C957 C 0.81416 0.11423 0.12767 0.0
H958 H 0.85372 0.07387 0.07399 0.0
C959 C 0.83637 0.09316 0.14593 0.0
H960 H 0.80495 0.12366 0.08727 0.0
C961 C 0.86485 0.06531 0.13835 0.0
C962 C 0.87085 0.0574 0.1124 0.0
H963 H 0.83114 0.09763 0.16608 0.0
H964 H 0.88083 0.04871 0.15279 0.0
C965 C 0.84951 0.07935 0.09414 0.0
C966 C 0.63601 0.06363 0.85052 0.0
C967 C 0.62953 0.05632 0.87651 0.0
H968 H 0.66998 0.09555 0.82267 0.0
C969 C 0.65043 0.07871 0.89467 0.0
H970 H 0.62037 0.04666 0.83615 0.0
C971 C 0.67815 0.10721 0.88698 0.0
C972 C 0.68613 0.11308 0.86101 0.0
H973 H 0.64585 0.07369 0.91485 0.0
H974 H 0.69453 0.12343 0.90137 0.0
C975 C 0.66445 0.09145 0.84283 0.0
C976 C 0.81816 0.60845 0.88755 0.0
C977 C 0.80966 0.61385 0.86159 0.0
H978 H 0.8509 0.57524 0.91543 0.0
C979 C 0.83106 0.59196 0.84343 0.0
H980 H 0.80201 0.6249 0.90193 0.0
C981 C 0.85959 0.56418 0.85111 0.0
C982 C 0.86649 0.55719 0.8771 0.0
H983 H 0.82516 0.59571 0.82328 0.0
H984 H 0.87488 0.54691 0.83674 0.0
C985 C 0.84601 0.58 0.89525 0.0
C986 C 0.68367 0.60736 0.10221 0.0
C987 C 0.69166 0.61297 0.1282 0.0
H988 H 0.65105 0.57434 0.07427 0.0
C989 C 0.66972 0.59142 0.14632 0.0
H990 H 0.70024 0.62353 0.08787 0.0
C991 C 0.641 0.56396 0.13857 0.0
C992 C 0.63445 0.55688 0.11257 0.0
H993 H 0.67522 0.59534 0.16649 0.0
H994 H 0.62516 0.54708 0.15292 0.0
C995 C 0.65564 0.57918 0.09445 0.0
C996 C 0.67105 0.38415 0.3849 0.0
C997 C 0.68215 0.37923 0.35932 0.0
H998 H 0.63518 0.41654 0.41148 0.0
C999 C 0.66235 0.40124 0.3404 0.0
H1000 H 0.68589 0.36759 0.39985 0.0
C1001 C 0.63288 0.42863 0.34699 0.0
C1002 C 0.62325 0.43511 0.37265 0.0
H1003 H 0.67021 0.39786 0.32052 0.0
H1004 H 0.61889 0.44596 0.33205 0.0
C1005 C 0.64213 0.41218 0.39153 0.0
C1006 C 0.81733 0.45677 0.61659 0.0
C1007 C 0.85705 0.44566 0.61254 0.0
H1008 H 0.75901 0.43848 0.62766 0.0
C1009 C 0.8684 0.40595 0.61641 0.0
H1010 H 0.80787 0.48724 0.61381 0.0
C1011 C 0.83998 0.3776 0.62369 0.0
C1012 C 0.80032 0.38904 0.62797 0.0
H1013 H 0.89889 0.39674 0.61327 0.0
H1014 H 0.84905 0.347 0.62631 0.0
C1015 C 0.78942 0.4289 0.62457 0.0
C1016 C 0.1489 0.40945 0.09584 0.0
C1017 C 0.13215 0.43652 0.11313 0.0
H1018 H 0.19016 0.3617 0.09023 0.0
C1019 C 0.14295 0.43433 0.13893 0.0
H1020 H 0.14099 0.41041 0.07585 0.0
C1021 C 0.17152 0.40693 0.14706 0.0
C1022 C 0.18926 0.38074 0.12963 0.0
H1023 H 0.13056 0.45489 0.15265 0.0
H1024 H 0.18033 0.4068 0.16692 0.0
C1025 C 0.17695 0.38154 0.10407 0.0
C1026 C 0.35965 0.42641 0.85208 0.0
C1027 C 0.36623 0.43339 0.87809 0.0
H1028 H 0.32537 0.39515 0.82414 0.0
C1029 C 0.34509 0.41101 0.89619 0.0
H1030 H 0.37545 0.44336 0.83775 0.0
C1031 C 0.31704 0.38287 0.88841 0.0
C1032 C 0.309 0.37738 0.86242 0.0
H1033 H 0.34971 0.41578 0.91637 0.0
H1034 H 0.30048 0.36666 0.90274 0.0
C1035 C 0.33092 0.39897 0.84431 0.0
C1036 C 0.36911 0.59006 0.61346 0.0
C1037 C 0.35741 0.55057 0.60923 0.0
H1038 H 0.35051 0.64873 0.62449 0.0
C1039 C 0.31775 0.53961 0.61367 0.0
H1040 H 0.39955 0.59918 0.61005 0.0
C1041 C 0.29029 0.56738 0.62239 0.0
C1042 C 0.30157 0.60701 0.62624 0.0
H1043 H 0.30798 0.50933 0.61065 0.0
H1044 H 0.25994 0.55789 0.62577 0.0
C1045 C 0.34114 0.61832 0.62155 0.0
C1046 C 0.15608 0.57199 0.39658 0.0
C1047 C 0.12955 0.55478 0.37907 0.0
H1048 H 0.20361 0.6134 0.40245 0.0
C1049 C 0.12937 0.56831 0.35378 0.0
H1050 H 0.1567 0.56222 0.41625 0.0
C1051 C 0.15653 0.59718 0.34584 0.0
C1052 C 0.18389 0.6135 0.36315 0.0
H1053 H 0.10925 0.55558 0.33989 0.0
H1054 H 0.15664 0.60613 0.32601 0.0
C1055 C 0.18281 0.60135 0.38873 0.0
loop_
_geom_bond_atom_site_label_1
_geom_bond_atom_site_label_2
_geom_bond_distance
_geom_bond_site_symmetry_2
_ccdc_geom_bond_type
In0 O1 2.294 . S
In0 O2 2.326 . S
In0 O6 2.266 . S
In0 O7 2.326 . S
In0 O8 2.266 . S
In0 O9 2.326 . S
In0 O11 2.294 . S
In0 O12 2.326 . S
O1 In0 2.294 . S
O1 C10 1.240 . S
O2 In0 2.326 . S
O2 C10 1.252 . S
C3 O6 1.252 . S
C3 O7 1.260 . S
C4 O11 1.240 . S
C4 O12 1.252 . S
C5 O8 1.252 . S
C5 O9 1.260 . S
O6 In0 2.266 . S
O6 C3 1.252 . S
O7 In0 2.326 . S
O7 C3 1.260 . S
O8 In0 2.266 . S
O8 C5 1.252 . S
O9 In0 2.326 . S
O9 C5 1.260 . S
C10 O1 1.240 . S
C10 O2 1.252 . S
O11 In0 2.294 . S
O11 C4 1.240 . S
O12 In0 2.326 . S
O12 C4 1.252 . S
In13 O14 2.294 1_565 S
In13 O15 2.326 . S
In13 O19 2.266 . S
In13 O20 2.326 . S
In13 O21 2.266 . S
In13 O22 2.326 1_565 S
In13 O24 2.294 . S
In13 O25 2.326 . S
O14 In13 2.294 1_545 S
O14 C23 1.240 . S
O15 In13 2.326 . S
O15 C23 1.252 1_565 S
C16 O19 1.252 1_655 S
C16 O20 1.260 1_655 S
C17 O24 1.240 . S
C17 O25 1.252 . S
C18 O21 1.252 . S
C18 O22 1.260 1_565 S
O19 In13 2.266 . S
O19 C16 1.252 1_455 S
O20 In13 2.326 . S
O20 C16 1.260 1_455 S
O21 In13 2.266 . S
O21 C18 1.252 . S
O22 In13 2.326 1_545 S
O22 C18 1.260 1_545 S
C23 O14 1.240 . S
C23 O15 1.252 1_545 S
O24 In13 2.294 . S
O24 C17 1.240 . S
O25 In13 2.326 . S
O25 C17 1.252 . S
In26 O27 2.294 . S
In26 O28 2.326 . S
In26 O32 2.266 . S
In26 O33 2.326 . S
In26 O34 2.266 . S
In26 O35 2.326 . S
In26 O37 2.294 . S
In26 O38 2.326 . S
O27 In26 2.294 . S
O27 C36 1.240 . S
O28 In26 2.326 . S
O28 C36 1.252 . S
C29 O32 1.252 . S
C29 O33 1.260 . S
C30 O37 1.240 . S
C30 O38 1.252 . S
C31 O34 1.252 . S
C31 O35 1.260 . S
O32 In26 2.266 . S
O32 C29 1.252 . S
O33 In26 2.326 . S
O33 C29 1.260 . S
O34 In26 2.266 . S
O34 C31 1.252 . S
O35 In26 2.326 . S
O35 C31 1.260 . S
C36 O27 1.240 . S
C36 O28 1.252 . S
O37 In26 2.294 . S
O37 C30 1.240 . S
O38 In26 2.326 . S
O38 C30 1.252 . S
In39 O40 2.294 1_545 S
In39 O41 2.326 . S
In39 O45 2.266 . S
In39 O46 2.326 . S
In39 O47 2.266 . S
In39 O48 2.326 1_545 S
In39 O50 2.294 . S
In39 O51 2.326 . S
O40 In39 2.294 1_565 S
O40 C49 1.240 . S
O41 In39 2.326 . S
O41 C49 1.252 1_545 S
C42 O45 1.252 . S
C42 O46 1.260 . S
C43 O50 1.240 . S
C43 O51 1.252 . S
C44 O47 1.252 . S
C44 O48 1.260 1_545 S
O45 In39 2.266 . S
O45 C42 1.252 . S
O46 In39 2.326 . S
O46 C42 1.260 . S
O47 In39 2.266 . S
O47 C44 1.252 . S
O48 In39 2.326 1_565 S
O48 C44 1.260 1_565 S
C49 O40 1.240 . S
C49 O41 1.252 1_565 S
O50 In39 2.294 . S
O50 C43 1.240 . S
O51 In39 2.326 . S
O51 C43 1.252 . S
In52 O53 2.294 . S
In52 O54 2.326 . S
In52 O58 2.266 . S
In52 O59 2.326 . S
In52 O60 2.266 . S
In52 O61 2.326 . S
In52 O63 2.294 . S
In52 O64 2.326 . S
O53 In52 2.294 . S
O53 C62 1.240 . S
O54 In52 2.326 . S
O54 C62 1.252 . S
C55 O58 1.252 . S
C55 O59 1.260 . S
C56 O63 1.240 . S
C56 O64 1.252 . S
C57 O60 1.252 . S
C57 O61 1.260 . S
O58 In52 2.266 . S
O58 C55 1.252 . S
O59 In52 2.326 . S
O59 C55 1.260 . S
O60 In52 2.266 . S
O60 C57 1.252 . S
O61 In52 2.326 . S
O61 C57 1.260 . S
C62 O53 1.240 . S
C62 O54 1.252 . S
O63 In52 2.294 . S
O63 C56 1.240 . S
O64 In52 2.326 . S
O64 C56 1.252 . S
In65 O66 2.294 1_565 S
In65 O67 2.326 . S
In65 O71 2.266 . S
In65 O72 2.326 . S
In65 O73 2.266 . S
In65 O74 2.326 1_565 S
In65 O76 2.294 . S
In65 O77 2.326 . S
O66 In65 2.294 1_545 S
O66 C75 1.240 . S
O67 In65 2.326 . S
O67 C75 1.252 1_565 S
C68 O71 1.252 . S
C68 O72 1.260 . S
C69 O76 1.240 . S
C69 O77 1.252 . S
C70 O73 1.252 . S
C70 O74 1.260 1_565 S
O71 In65 2.266 . S
O71 C68 1.252 . S
O72 In65 2.326 . S
O72 C68 1.260 . S
O73 In65 2.266 . S
O73 C70 1.252 . S
O74 In65 2.326 1_545 S
O74 C70 1.260 1_545 S
C75 O66 1.240 . S
C75 O67 1.252 1_545 S
O76 In65 2.294 . S
O76 C69 1.240 . S
O77 In65 2.326 . S
O77 C69 1.252 . S
In78 O79 2.294 . S
In78 O80 2.326 . S
In78 O84 2.266 . S
In78 O85 2.326 . S
In78 O86 2.266 . S
In78 O87 2.326 . S
In78 O89 2.294 . S
In78 O90 2.326 . S
O79 In78 2.294 . S
O79 C88 1.240 . S
O80 In78 2.326 . S
O80 C88 1.252 . S
C81 O84 1.252 . S
C81 O85 1.260 . S
C82 O89 1.240 . S
C82 O90 1.252 . S
C83 O86 1.252 . S
C83 O87 1.260 . S
O84 In78 2.266 . S
O84 C81 1.252 . S
O85 In78 2.326 . S
O85 C81 1.260 . S
O86 In78 2.266 . S
O86 C83 1.252 . S
O87 In78 2.326 . S
O87 C83 1.260 . S
C88 O79 1.240 . S
C88 O80 1.252 . S
O89 In78 2.294 . S
O89 C82 1.240 . S
O90 In78 2.326 . S
O90 C82 1.252 . S
In91 O92 2.294 . S
In91 O93 2.326 . S
In91 O97 2.266 . S
In91 O98 2.326 1_545 S
In91 O99 2.266 . S
In91 O100 2.326 . S
In91 O102 2.294 1_545 S
In91 O103 2.326 . S
O92 In91 2.294 . S
O92 C101 1.240 . S
O93 In91 2.326 . S
O93 C101 1.252 . S
C94 O97 1.252 . S
C94 O98 1.260 1_545 S
C95 O102 1.240 . S
C95 O103 1.252 1_565 S
C96 O99 1.252 1_655 S
C96 O100 1.260 1_655 S
O97 In91 2.266 . S
O97 C94 1.252 . S
O98 In91 2.326 1_565 S
O98 C94 1.260 1_565 S
O99 In91 2.266 . S
O99 C96 1.252 1_455 S
O100 In91 2.326 . S
O100 C96 1.260 1_455 S
C101 O92 1.240 . S
C101 O93 1.252 . S
O102 In91 2.294 1_565 S
O102 C95 1.240 . S
O103 In91 2.326 . S
O103 C95 1.252 1_545 S
In104 O105 2.294 . S
In104 O106 2.326 . S
In104 O110 2.266 . S
In104 O111 2.326 . S
In104 O112 2.266 . S
In104 O113 2.326 . S
In104 O115 2.294 . S
In104 O116 2.326 . S
O105 In104 2.294 . S
O105 C114 1.240 . S
O106 In104 2.326 . S
O106 C114 1.252 . S
C107 O110 1.252 . S
C107 O111 1.260 . S
C108 O115 1.240 . S
C108 O116 1.252 . S
C109 O112 1.252 . S
C109 O113 1.260 . S
O110 In104 2.266 . S
O110 C107 1.252 . S
O111 In104 2.326 . S
O111 C107 1.260 . S
O112 In104 2.266 . S
O112 C109 1.252 . S
O113 In104 2.326 . S
O113 C109 1.260 . S
C114 O105 1.240 . S
C114 O106 1.252 . S
O115 In104 2.294 . S
O115 C108 1.240 . S
O116 In104 2.326 . S
O116 C108 1.252 . S
In117 O118 2.294 . S
In117 O119 2.326 . S
In117 O123 2.266 1_545 S
In117 O124 2.326 . S
In117 O125 2.266 . S
In117 O126 2.326 . S
In117 O128 2.294 . S
In117 O129 2.326 1_545 S
O118 In117 2.294 . S
O118 C127 1.240 1_655 S
O119 In117 2.326 . S
O119 C127 1.252 1_655 S
C120 O123 1.252 . S
C120 O124 1.260 1_565 S
C121 O128 1.240 . S
C121 O129 1.252 1_545 S
C122 O125 1.252 . S
C122 O126 1.260 . S
O123 In117 2.266 1_565 S
O123 C120 1.252 . S
O124 In117 2.326 . S
O124 C120 1.260 1_545 S
O125 In117 2.266 . S
O125 C122 1.252 . S
O126 In117 2.326 . S
O126 C122 1.260 . S
C127 O118 1.240 1_455 S
C127 O119 1.252 1_455 S
O128 In117 2.294 . S
O128 C121 1.240 . S
O129 In117 2.326 1_565 S
O129 C121 1.252 1_565 S
In130 O131 2.294 . S
In130 O132 2.326 . S
In130 O136 2.266 . S
In130 O137 2.326 . S
In130 O138 2.266 . S
In130 O139 2.326 . S
In130 O141 2.294 . S
In130 O142 2.326 . S
O131 In130 2.294 . S
O131 C140 1.240 . S
O132 In130 2.326 . S
O132 C140 1.252 . S
C133 O136 1.252 . S
C133 O137 1.260 . S
C134 O141 1.240 . S
C134 O142 1.252 . S
C135 O138 1.252 . S
C135 O139 1.260 . S
O136 In130 2.266 . S
O136 C133 1.252 . S
O137 In130 2.326 . S
O137 C133 1.260 . S
O138 In130 2.266 . S
O138 C135 1.252 . S
O139 In130 2.326 . S
O139 C135 1.260 . S
C140 O131 1.240 . S
C140 O132 1.252 . S
O141 In130 2.294 . S
O141 C134 1.240 . S
O142 In130 2.326 . S
O142 C134 1.252 . S
In143 O144 2.294 . S
In143 O145 2.326 . S
In143 O149 2.266 1_565 S
In143 O150 2.326 . S
In143 O151 2.266 . S
In143 O152 2.326 . S
In143 O154 2.294 . S
In143 O155 2.326 1_565 S
O144 In143 2.294 . S
O144 C153 1.240 . S
O145 In143 2.326 . S
O145 C153 1.252 . S
C146 O149 1.252 . S
C146 O150 1.260 1_545 S
C147 O154 1.240 . S
C147 O155 1.252 1_565 S
C148 O151 1.252 . S
C148 O152 1.260 . S
O149 In143 2.266 1_545 S
O149 C146 1.252 . S
O150 In143 2.326 . S
O150 C146 1.260 1_565 S
O151 In143 2.266 . S
O151 C148 1.252 . S
O152 In143 2.326 . S
O152 C148 1.260 . S
C153 O144 1.240 . S
C153 O145 1.252 . S
O154 In143 2.294 . S
O154 C147 1.240 . S
O155 In143 2.326 1_545 S
O155 C147 1.252 1_545 S
In156 O157 2.294 . S
In156 O158 2.326 . S
In156 O162 2.266 . S
In156 O163 2.326 . S
In156 O164 2.266 . S
In156 O165 2.326 . S
In156 O167 2.294 . S
In156 O168 2.326 . S
O157 In156 2.294 . S
O157 C166 1.240 . S
O158 In156 2.326 . S
O158 C166 1.252 . S
C159 O162 1.252 . S
C159 O163 1.260 . S
C160 O167 1.240 . S
C160 O168 1.252 . S
C161 O164 1.252 . S
C161 O165 1.260 . S
O162 In156 2.266 . S
O162 C159 1.252 . S
O163 In156 2.326 . S
O163 C159 1.260 . S
O164 In156 2.266 . S
O164 C161 1.252 . S
O165 In156 2.326 . S
O165 C161 1.260 . S
C166 O157 1.240 . S
C166 O158 1.252 . S
O167 In156 2.294 . S
O167 C160 1.240 . S
O168 In156 2.326 . S
O168 C160 1.252 . S
In169 O170 2.294 . S
In169 O171 2.326 1_545 S
In169 O175 2.266 . S
In169 O176 2.326 . S
In169 O177 2.266 1_545 S
In169 O178 2.326 . S
In169 O180 2.294 . S
In169 O181 2.326 . S
O170 In169 2.294 . S
O170 C179 1.240 . S
O171 In169 2.326 1_565 S
O171 C179 1.252 1_565 S
C172 O175 1.252 . S
C172 O176 1.260 . S
C173 O180 1.240 . S
C173 O181 1.252 . S
C174 O177 1.252 . S
C174 O178 1.260 1_565 S
O175 In169 2.266 . S
O175 C172 1.252 . S
O176 In169 2.326 . S
O176 C172 1.260 . S
O177 In169 2.266 1_565 S
O177 C174 1.252 . S
O178 In169 2.326 . S
O178 C174 1.260 1_545 S
C179 O170 1.240 . S
C179 O171 1.252 1_545 S
O180 In169 2.294 . S
O180 C173 1.240 . S
O181 In169 2.326 . S
O181 C173 1.252 . S
In182 O183 2.294 . S
In182 O184 2.326 . S
In182 O188 2.266 . S
In182 O189 2.326 . S
In182 O190 2.266 . S
In182 O191 2.326 . S
In182 O193 2.294 . S
In182 O194 2.326 . S
O183 In182 2.294 . S
O183 C192 1.240 . S
O184 In182 2.326 . S
O184 C192 1.252 . S
C185 O188 1.252 . S
C185 O189 1.260 . S
C186 O193 1.240 . S
C186 O194 1.252 . S
C187 O190 1.252 . S
C187 O191 1.260 . S
O188 In182 2.266 . S
O188 C185 1.252 . S
O189 In182 2.326 . S
O189 C185 1.260 . S
O190 In182 2.266 . S
O190 C187 1.252 . S
O191 In182 2.326 . S
O191 C187 1.260 . S
C192 O183 1.240 . S
C192 O184 1.252 . S
O193 In182 2.294 . S
O193 C186 1.240 . S
O194 In182 2.326 . S
O194 C186 1.252 . S
In195 O196 2.294 . S
In195 O197 2.326 1_565 S
In195 O201 2.266 . S
In195 O202 2.326 . S
In195 O203 2.266 1_565 S
In195 O204 2.326 . S
In195 O206 2.294 . S
In195 O207 2.326 . S
O196 In195 2.294 . S
O196 C205 1.240 . S
O197 In195 2.326 1_545 S
O197 C205 1.252 1_545 S
C198 O201 1.252 . S
C198 O202 1.260 . S
C199 O206 1.240 1_455 S
C199 O207 1.252 1_455 S
C200 O203 1.252 . S
C200 O204 1.260 1_545 S
O201 In195 2.266 . S
O201 C198 1.252 . S
O202 In195 2.326 . S
O202 C198 1.260 . S
O203 In195 2.266 1_545 S
O203 C200 1.252 . S
O204 In195 2.326 . S
O204 C200 1.260 1_565 S
C205 O196 1.240 . S
C205 O197 1.252 1_565 S
O206 In195 2.294 . S
O206 C199 1.240 1_655 S
O207 In195 2.326 . S
O207 C199 1.252 1_655 S
In208 O209 2.294 . S
In208 O210 2.326 . S
In208 O214 2.266 . S
In208 O215 2.326 . S
In208 O216 2.266 . S
In208 O217 2.326 . S
In208 O219 2.294 . S
In208 O220 2.326 . S
O209 In208 2.294 . S
O209 C218 1.240 . S
O210 In208 2.326 . S
O210 C218 1.252 . S
C211 O214 1.252 . S
C211 O215 1.260 . S
C212 O219 1.240 . S
C212 O220 1.252 . S
C213 O216 1.252 . S
C213 O217 1.260 . S
O214 In208 2.266 . S
O214 C211 1.252 . S
O215 In208 2.326 . S
O215 C211 1.260 . S
O216 In208 2.266 . S
O216 C213 1.252 . S
O217 In208 2.326 . S
O217 C213 1.260 . S
C218 O209 1.240 . S
C218 O210 1.252 . S
O219 In208 2.294 . S
O219 C212 1.240 . S
O220 In208 2.326 . S
O220 C212 1.252 . S
In221 O222 2.294 . S
In221 O223 2.326 . S
In221 O227 2.266 . S
In221 O228 2.326 . S
In221 O229 2.266 . S
In221 O230 2.326 . S
In221 O232 2.294 . S
In221 O233 2.326 . S
O222 In221 2.294 . S
O222 C231 1.240 . S
O223 In221 2.326 . S
O223 C231 1.252 . S
C224 O227 1.252 . S
C224 O228 1.260 . S
C225 O232 1.240 . S
C225 O233 1.252 . S
C226 O229 1.252 . S
C226 O230 1.260 . S
O227 In221 2.266 . S
O227 C224 1.252 . S
O228 In221 2.326 . S
O228 C224 1.260 . S
O229 In221 2.266 . S
O229 C226 1.252 . S
O230 In221 2.326 . S
O230 C226 1.260 . S
C231 O222 1.240 . S
C231 O223 1.252 . S
O232 In221 2.294 . S
O232 C225 1.240 . S
O233 In221 2.326 . S
O233 C225 1.252 . S
In234 O235 2.294 . S
In234 O236 2.326 . S
In234 O240 2.266 . S
In234 O241 2.326 . S
In234 O242 2.266 . S
In234 O243 2.326 . S
In234 O245 2.294 . S
In234 O246 2.326 . S
O235 In234 2.294 . S
O235 C244 1.240 . S
O236 In234 2.326 . S
O236 C244 1.252 . S
C237 O240 1.252 . S
C237 O241 1.260 . S
C238 O245 1.240 . S
C238 O246 1.252 . S
C239 O242 1.252 . S
C239 O243 1.260 . S
O240 In234 2.266 . S
O240 C237 1.252 . S
O241 In234 2.326 . S
O241 C237 1.260 . S
O242 In234 2.266 . S
O242 C239 1.252 . S
O243 In234 2.326 . S
O243 C239 1.260 . S
C244 O235 1.240 . S
C244 O236 1.252 . S
O245 In234 2.294 . S
O245 C238 1.240 . S
O246 In234 2.326 . S
O246 C238 1.252 . S
In247 O248 2.294 . S
In247 O249 2.326 . S
In247 O253 2.266 . S
In247 O254 2.326 . S
In247 O255 2.266 . S
In247 O256 2.326 . S
In247 O258 2.294 . S
In247 O259 2.326 . S
O248 In247 2.294 . S
O248 C257 1.240 . S
O249 In247 2.326 . S
O249 C257 1.252 . S
C250 O253 1.252 1_455 S
C250 O254 1.260 1_455 S
C251 O258 1.240 . S
C251 O259 1.252 . S
C252 O255 1.252 . S
C252 O256 1.260 . S
O253 In247 2.266 . S
O253 C250 1.252 1_655 S
O254 In247 2.326 . S
O254 C250 1.260 1_655 S
O255 In247 2.266 . S
O255 C252 1.252 . S
O256 In247 2.326 . S
O256 C252 1.260 . S
C257 O248 1.240 . S
C257 O249 1.252 . S
O258 In247 2.294 . S
O258 C251 1.240 . S
O259 In247 2.326 . S
O259 C251 1.252 . S
In260 O261 2.294 . S
In260 O262 2.326 . S
In260 O266 2.266 . S
In260 O267 2.326 . S
In260 O268 2.266 . S
In260 O269 2.326 . S
In260 O271 2.294 . S
In260 O272 2.326 . S
O261 In260 2.294 . S
O261 C270 1.240 . S
O262 In260 2.326 . S
O262 C270 1.252 . S
C263 O266 1.252 . S
C263 O267 1.260 . S
C264 O271 1.240 . S
C264 O272 1.252 . S
C265 O268 1.252 . S
C265 O269 1.260 . S
O266 In260 2.266 . S
O266 C263 1.252 . S
O267 In260 2.326 . S
O267 C263 1.260 . S
O268 In260 2.266 . S
O268 C265 1.252 . S
O269 In260 2.326 . S
O269 C265 1.260 . S
C270 O261 1.240 . S
C270 O262 1.252 . S
O271 In260 2.294 . S
O271 C264 1.240 . S
O272 In260 2.326 . S
O272 C264 1.252 . S
In273 O274 2.294 . S
In273 O275 2.326 . S
In273 O279 2.266 . S
In273 O280 2.326 . S
In273 O281 2.266 . S
In273 O282 2.326 . S
In273 O284 2.294 . S
In273 O285 2.326 . S
O274 In273 2.294 . S
O274 C283 1.240 . S
O275 In273 2.326 . S
O275 C283 1.252 . S
C276 O279 1.252 1_455 S
C276 O280 1.260 1_455 S
C277 O284 1.240 . S
C277 O285 1.252 . S
C278 O281 1.252 . S
C278 O282 1.260 . S
O279 In273 2.266 . S
O279 C276 1.252 1_655 S
O280 In273 2.326 . S
O280 C276 1.260 1_655 S
O281 In273 2.266 . S
O281 C278 1.252 . S
O282 In273 2.326 . S
O282 C278 1.260 . S
C283 O274 1.240 . S
C283 O275 1.252 . S
O284 In273 2.294 . S
O284 C277 1.240 . S
O285 In273 2.326 . S
O285 C277 1.252 . S
In286 O287 2.294 . S
In286 O288 2.326 . S
In286 O292 2.266 . S
In286 O293 2.326 . S
In286 O294 2.266 . S
In286 O295 2.326 . S
In286 O297 2.294 . S
In286 O298 2.326 . S
O287 In286 2.294 . S
O287 C296 1.240 . S
O288 In286 2.326 . S
O288 C296 1.252 . S
C289 O292 1.252 . S
C289 O293 1.260 . S
C290 O297 1.240 . S
C290 O298 1.252 . S
C291 O294 1.252 . S
C291 O295 1.260 . S
O292 In286 2.266 . S
O292 C289 1.252 . S
O293 In286 2.326 . S
O293 C289 1.260 . S
O294 In286 2.266 . S
O294 C291 1.252 . S
O295 In286 2.326 . S
O295 C291 1.260 . S
C296 O287 1.240 . S
C296 O288 1.252 . S
O297 In286 2.294 . S
O297 C290 1.240 . S
O298 In286 2.326 . S
O298 C290 1.252 . S
In299 O300 2.294 . S
In299 O301 2.326 . S
In299 O305 2.266 . S
In299 O306 2.326 . S
In299 O307 2.266 . S
In299 O308 2.326 . S
In299 O310 2.294 . S
In299 O311 2.326 . S
O300 In299 2.294 . S
O300 C309 1.240 . S
O301 In299 2.326 . S
O301 C309 1.252 . S
C302 O305 1.252 . S
C302 O306 1.260 . S
C303 O310 1.240 . S
C303 O311 1.252 . S
C304 O307 1.252 . S
C304 O308 1.260 . S
O305 In299 2.266 . S
O305 C302 1.252 . S
O306 In299 2.326 . S
O306 C302 1.260 . S
O307 In299 2.266 . S
O307 C304 1.252 . S
O308 In299 2.326 . S
O308 C304 1.260 . S
C309 O300 1.240 . S
C309 O301 1.252 . S
O310 In299 2.294 . S
O310 C303 1.240 . S
O311 In299 2.326 . S
O311 C303 1.252 . S
In312 O313 2.294 . S
In312 O314 2.326 . S
In312 O318 2.266 . S
In312 O319 2.326 . S
In312 O320 2.266 . S
In312 O321 2.326 . S
In312 O323 2.294 . S
In312 O324 2.326 . S
O313 In312 2.294 . S
O313 C322 1.240 . S
O314 In312 2.326 . S
O314 C322 1.252 . S
C315 O318 1.252 . S
C315 O319 1.260 . S
C316 O323 1.240 . S
C316 O324 1.252 . S
C317 O320 1.252 . S
C317 O321 1.260 . S
O318 In312 2.266 . S
O318 C315 1.252 . S
O319 In312 2.326 . S
O319 C315 1.260 . S
O320 In312 2.266 . S
O320 C317 1.252 . S
O321 In312 2.326 . S
O321 C317 1.260 . S
C322 O313 1.240 . S
C322 O314 1.252 . S
O323 In312 2.294 . S
O323 C316 1.240 . S
O324 In312 2.326 . S
O324 C316 1.252 . S
In325 O326 2.294 . S
In325 O327 2.326 . S
In325 O331 2.266 . S
In325 O332 2.326 . S
In325 O333 2.266 . S
In325 O334 2.326 . S
In325 O336 2.294 . S
In325 O337 2.326 . S
O326 In325 2.294 . S
O326 C335 1.240 . S
O327 In325 2.326 . S
O327 C335 1.252 . S
C328 O331 1.252 . S
C328 O332 1.260 . S
C329 O336 1.240 . S
C329 O337 1.252 . S
C330 O333 1.252 . S
C330 O334 1.260 . S
O331 In325 2.266 . S
O331 C328 1.252 . S
O332 In325 2.326 . S
O332 C328 1.260 . S
O333 In325 2.266 . S
O333 C330 1.252 . S
O334 In325 2.326 . S
O334 C330 1.260 . S
C335 O326 1.240 . S
C335 O327 1.252 . S
O336 In325 2.294 . S
O336 C329 1.240 . S
O337 In325 2.326 . S
O337 C329 1.252 . S
In338 O339 2.294 . S
In338 O340 2.326 . S
In338 O344 2.266 . S
In338 O345 2.326 . S
In338 O346 2.266 . S
In338 O347 2.326 . S
In338 O349 2.294 . S
In338 O350 2.326 . S
O339 In338 2.294 . S
O339 C348 1.240 . S
O340 In338 2.326 . S
O340 C348 1.252 . S
C341 O344 1.252 . S
C341 O345 1.260 . S
C342 O349 1.240 . S
C342 O350 1.252 . S
C343 O346 1.252 . S
C343 O347 1.260 . S
O344 In338 2.266 . S
O344 C341 1.252 . S
O345 In338 2.326 . S
O345 C341 1.260 . S
O346 In338 2.266 . S
O346 C343 1.252 . S
O347 In338 2.326 . S
O347 C343 1.260 . S
C348 O339 1.240 . S
C348 O340 1.252 . S
O349 In338 2.294 . S
O349 C342 1.240 . S
O350 In338 2.326 . S
O350 C342 1.252 . S
In351 O352 2.294 . S
In351 O353 2.326 . S
In351 O357 2.266 . S
In351 O358 2.326 . S
In351 O359 2.266 . S
In351 O360 2.326 . S
In351 O362 2.294 . S
In351 O363 2.326 . S
O352 In351 2.294 . S
O352 C361 1.240 . S
O353 In351 2.326 . S
O353 C361 1.252 . S
C354 O357 1.252 . S
C354 O358 1.260 . S
C355 O362 1.240 1_655 S
C355 O363 1.252 1_655 S
C356 O359 1.252 . S
C356 O360 1.260 . S
O357 In351 2.266 . S
O357 C354 1.252 . S
O358 In351 2.326 . S
O358 C354 1.260 . S
O359 In351 2.266 . S
O359 C356 1.252 . S
O360 In351 2.326 . S
O360 C356 1.260 . S
C361 O352 1.240 . S
C361 O353 1.252 . S
O362 In351 2.294 . S
O362 C355 1.240 1_455 S
O363 In351 2.326 . S
O363 C355 1.252 1_455 S
In364 O365 2.294 . S
In364 O366 2.326 . S
In364 O370 2.266 . S
In364 O371 2.326 . S
In364 O372 2.266 . S
In364 O373 2.326 . S
In364 O375 2.294 . S
In364 O376 2.326 . S
O365 In364 2.294 . S
O365 C374 1.240 . S
O366 In364 2.326 . S
O366 C374 1.252 . S
C367 O370 1.252 . S
C367 O371 1.260 . S
C368 O375 1.240 . S
C368 O376 1.252 . S
C369 O372 1.252 . S
C369 O373 1.260 . S
O370 In364 2.266 . S
O370 C367 1.252 . S
O371 In364 2.326 . S
O371 C367 1.260 . S
O372 In364 2.266 . S
O372 C369 1.252 . S
O373 In364 2.326 . S
O373 C369 1.260 . S
C374 O365 1.240 . S
C374 O366 1.252 . S
O375 In364 2.294 . S
O375 C368 1.240 . S
O376 In364 2.326 . S
O376 C368 1.252 . S
In377 O378 2.294 . S
In377 O379 2.326 . S
In377 O383 2.266 . S
In377 O384 2.326 . S
In377 O385 2.266 . S
In377 O386 2.326 . S
In377 O388 2.294 . S
In377 O389 2.326 . S
O378 In377 2.294 . S
O378 C387 1.240 . S
O379 In377 2.326 . S
O379 C387 1.252 . S
C380 O383 1.252 . S
C380 O384 1.260 . S
C381 O388 1.240 1_655 S
C381 O389 1.252 1_655 S
C382 O385 1.252 . S
C382 O386 1.260 . S
O383 In377 2.266 . S
O383 C380 1.252 . S
O384 In377 2.326 . S
O384 C380 1.260 . S
O385 In377 2.266 . S
O385 C382 1.252 . S
O386 In377 2.326 . S
O386 C382 1.260 . S
C387 O378 1.240 . S
C387 O379 1.252 . S
O388 In377 2.294 . S
O388 C381 1.240 1_455 S
O389 In377 2.326 . S
O389 C381 1.252 1_455 S
In390 O391 2.294 . S
In390 O392 2.326 . S
In390 O396 2.266 . S
In390 O397 2.326 . S
In390 O398 2.266 . S
In390 O399 2.326 . S
In390 O401 2.294 . S
In390 O402 2.326 . S
O391 In390 2.294 . S
O391 C400 1.240 . S
O392 In390 2.326 . S
O392 C400 1.252 . S
C393 O396 1.252 . S
C393 O397 1.260 . S
C394 O401 1.240 . S
C394 O402 1.252 . S
C395 O398 1.252 . S
C395 O399 1.260 . S
O396 In390 2.266 . S
O396 C393 1.252 . S
O397 In390 2.326 . S
O397 C393 1.260 . S
O398 In390 2.266 . S
O398 C395 1.252 . S
O399 In390 2.326 . S
O399 C395 1.260 . S
C400 O391 1.240 . S
C400 O392 1.252 . S
O401 In390 2.294 . S
O401 C394 1.240 . S
O402 In390 2.326 . S
O402 C394 1.252 . S
In403 O404 2.294 . S
In403 O405 2.326 . S
In403 O409 2.266 . S
In403 O410 2.326 . S
In403 O411 2.266 . S
In403 O412 2.326 . S
In403 O414 2.294 . S
In403 O415 2.326 . S
O404 In403 2.294 . S
O404 C413 1.240 . S
O405 In403 2.326 . S
O405 C413 1.252 . S
C406 O409 1.252 . S
C406 O410 1.260 . S
C407 O414 1.240 . S
C407 O415 1.252 . S
C408 O411 1.252 . S
C408 O412 1.260 . S
O409 In403 2.266 . S
O409 C406 1.252 . S
O410 In403 2.326 . S
O410 C406 1.260 . S
O411 In403 2.266 . S
O411 C408 1.252 . S
O412 In403 2.326 . S
O412 C408 1.260 . S
C413 O404 1.240 . S
C413 O405 1.252 . S
O414 In403 2.294 . S
O414 C407 1.240 . S
O415 In403 2.326 . S
O415 C407 1.252 . S
C416 C417 1.387 . S
C416 H420 0.950 . S
C416 C425 1.390 . S
C417 C416 1.387 . S
C417 C419 1.387 . S
H418 C425 0.950 . S
C419 C417 1.387 . S
C419 C421 1.390 . S
C419 H423 0.950 . S
H420 C416 0.950 . S
C421 C419 1.390 . S
C421 C422 1.387 . S
C421 H424 0.950 . S
C422 C421 1.387 . S
C422 C425 1.387 . S
H423 C419 0.950 . S
H424 C421 0.950 . S
C425 C416 1.390 . S
C425 H418 0.950 . S
C425 C422 1.387 . S
C426 C427 1.387 . S
C426 H430 0.950 . S
C426 C435 1.390 . S
C427 C426 1.387 . S
C427 C429 1.387 . S
H428 C435 0.950 . S
C429 C427 1.387 . S
C429 C431 1.390 . S
C429 H433 0.950 . S
H430 C426 0.950 . S
C431 C429 1.390 . S
C431 C432 1.387 . S
C431 H434 0.950 . S
C432 C431 1.387 . S
C432 C435 1.387 . S
H433 C429 0.950 . S
H434 C431 0.950 . S
C435 C426 1.390 . S
C435 H428 0.950 . S
C435 C432 1.387 . S
C436 C437 1.387 . S
C436 H440 0.950 . S
C436 C445 1.390 . S
C437 C436 1.387 . S
C437 C439 1.387 . S
H438 C445 0.950 . S
C439 C437 1.387 . S
C439 C441 1.390 . S
C439 H443 0.950 . S
H440 C436 0.950 . S
C441 C439 1.390 . S
C441 C442 1.387 . S
C441 H444 0.950 . S
C442 C441 1.387 . S
C442 C445 1.387 . S
H443 C439 0.950 . S
H444 C441 0.950 . S
C445 C436 1.390 . S
C445 H438 0.950 . S
C445 C442 1.387 . S
C446 C447 1.387 . S
C446 H450 0.950 . S
C446 C455 1.390 . S
C447 C446 1.387 . S
C447 C449 1.387 . S
H448 C455 0.950 . S
C449 C447 1.387 . S
C449 C451 1.390 . S
C449 H453 0.950 . S
H450 C446 0.950 . S
C451 C449 1.390 . S
C451 C452 1.387 . S
C451 H454 0.950 . S
C452 C451 1.387 . S
C452 C455 1.387 . S
H453 C449 0.950 . S
H454 C451 0.950 . S
C455 C446 1.390 . S
C455 H448 0.950 . S
C455 C452 1.387 . S
C456 C457 1.387 . S
C456 H460 0.950 . S
C456 C465 1.390 . S
C457 C456 1.387 . S
C457 C459 1.387 . S
H458 C465 0.950 . S
C459 C457 1.387 . S
C459 C461 1.390 . S
C459 H463 0.950 . S
H460 C456 0.950 . S
C461 C459 1.390 . S
C461 C462 1.387 . S
C461 H464 0.950 . S
C462 C461 1.387 . S
C462 C465 1.387 . S
H463 C459 0.950 . S
H464 C461 0.950 . S
C465 C456 1.390 . S
C465 H458 0.950 . S
C465 C462 1.387 . S
C466 C467 1.387 . S
C466 H470 0.950 . S
C466 C475 1.390 . S
C467 C466 1.387 . S
C467 C469 1.387 . S
H468 C475 0.950 . S
C469 C467 1.387 . S
C469 C471 1.390 . S
C469 H473 0.950 . S
H470 C466 0.950 . S
C471 C469 1.390 . S
C471 C472 1.387 . S
C471 H474 0.950 . S
C472 C471 1.387 . S
C472 C475 1.387 . S
H473 C469 0.950 . S
H474 C471 0.950 . S
C475 C466 1.390 . S
C475 H468 0.950 . S
C475 C472 1.387 . S
C476 C477 1.387 . S
C476 H480 0.950 . S
C476 C485 1.390 . S
C477 C476 1.387 . S
C477 C479 1.387 . S
H478 C485 0.950 . S
C479 C477 1.387 . S
C479 C481 1.390 . S
C479 H483 0.950 . S
H480 C476 0.950 . S
C481 C479 1.390 . S
C481 C482 1.387 . S
C481 H484 0.950 . S
C482 C481 1.387 . S
C482 C485 1.387 . S
H483 C479 0.950 . S
H484 C481 0.950 . S
C485 C476 1.390 . S
C485 H478 0.950 . S
C485 C482 1.387 . S
C486 C487 1.387 . S
C486 H490 0.950 . S
C486 C495 1.390 . S
C487 C486 1.387 . S
C487 C489 1.387 . S
H488 C495 0.950 . S
C489 C487 1.387 . S
C489 C491 1.390 . S
C489 H493 0.950 . S
H490 C486 0.950 . S
C491 C489 1.390 . S
C491 C492 1.387 . S
C491 H494 0.950 . S
C492 C491 1.387 . S
C492 C495 1.387 . S
H493 C489 0.950 . S
H494 C491 0.950 . S
C495 C486 1.390 . S
C495 H488 0.950 . S
C495 C492 1.387 . S
C496 C497 1.387 . S
C496 H500 0.950 . S
C496 C505 1.390 . S
C497 C496 1.387 . S
C497 C499 1.387 . S
H498 C505 0.950 . S
C499 C497 1.387 . S
C499 C501 1.390 . S
C499 H503 0.950 . S
H500 C496 0.950 . S
C501 C499 1.390 . S
C501 C502 1.387 . S
C501 H504 0.950 . S
C502 C501 1.387 . S
C502 C505 1.387 . S
H503 C499 0.950 . S
H504 C501 0.950 . S
C505 C496 1.390 . S
C505 H498 0.950 . S
C505 C502 1.387 . S
C506 C507 1.387 . S
C506 H510 0.950 . S
C506 C515 1.390 . S
C507 C506 1.387 . S
C507 C509 1.387 . S
H508 C515 0.950 . S
C509 C507 1.387 . S
C509 C511 1.390 . S
C509 H513 0.950 . S
H510 C506 0.950 . S
C511 C509 1.390 . S
C511 C512 1.387 . S
C511 H514 0.950 . S
C512 C511 1.387 . S
C512 C515 1.387 . S
H513 C509 0.950 . S
H514 C511 0.950 . S
C515 C506 1.390 . S
C515 H508 0.950 . S
C515 C512 1.387 . S
C516 C517 1.387 . S
C516 H520 0.950 . S
C516 C525 1.390 . S
C517 C516 1.387 . S
C517 C519 1.387 . S
H518 C525 0.950 . S
C519 C517 1.387 . S
C519 C521 1.390 . S
C519 H523 0.950 . S
H520 C516 0.950 . S
C521 C519 1.390 . S
C521 C522 1.387 . S
C521 H524 0.950 . S
C522 C521 1.387 . S
C522 C525 1.387 . S
H523 C519 0.950 . S
H524 C521 0.950 . S
C525 C516 1.390 . S
C525 H518 0.950 . S
C525 C522 1.387 . S
C526 C527 1.387 . S
C526 H530 0.950 . S
C526 C535 1.390 . S
C527 C526 1.387 . S
C527 C529 1.387 . S
H528 C535 0.950 . S
C529 C527 1.387 . S
C529 C531 1.390 . S
C529 H533 0.950 . S
H530 C526 0.950 . S
C531 C529 1.390 . S
C531 C532 1.387 . S
C531 H534 0.950 . S
C532 C531 1.387 . S
C532 C535 1.387 . S
H533 C529 0.950 . S
H534 C531 0.950 . S
C535 C526 1.390 . S
C535 H528 0.950 . S
C535 C532 1.387 . S
C536 C537 1.387 . S
C536 H540 0.950 . S
C536 C545 1.390 . S
C537 C536 1.387 . S
C537 C539 1.387 . S
H538 C545 0.950 . S
C539 C537 1.387 . S
C539 C541 1.390 . S
C539 H543 0.950 . S
H540 C536 0.950 . S
C541 C539 1.390 . S
C541 C542 1.387 . S
C541 H544 0.950 . S
C542 C541 1.387 . S
C542 C545 1.387 . S
H543 C539 0.950 . S
H544 C541 0.950 . S
C545 C536 1.390 . S
C545 H538 0.950 . S
C545 C542 1.387 . S
C546 C547 1.387 . S
C546 H550 0.950 . S
C546 C555 1.390 . S
C547 C546 1.387 . S
C547 C549 1.387 . S
H548 C555 0.950 . S
C549 C547 1.387 . S
C549 C551 1.390 . S
C549 H553 0.950 . S
H550 C546 0.950 . S
C551 C549 1.390 . S
C551 C552 1.387 . S
C551 H554 0.950 . S
C552 C551 1.387 . S
C552 C555 1.387 . S
H553 C549 0.950 . S
H554 C551 0.950 . S
C555 C546 1.390 . S
C555 H548 0.950 . S
C555 C552 1.387 . S
C556 C557 1.387 . S
C556 H560 0.950 . S
C556 C565 1.390 . S
C557 C556 1.387 . S
C557 C559 1.387 . S
H558 C565 0.950 . S
C559 C557 1.387 . S
C559 C561 1.390 . S
C559 H563 0.950 . S
H560 C556 0.950 . S
C561 C559 1.390 . S
C561 C562 1.387 . S
C561 H564 0.950 . S
C562 C561 1.387 . S
C562 C565 1.387 . S
H563 C559 0.950 . S
H564 C561 0.950 . S
C565 C556 1.390 . S
C565 H558 0.950 . S
C565 C562 1.387 . S
C566 C567 1.387 . S
C566 H570 0.950 . S
C566 C575 1.390 . S
C567 C566 1.387 . S
C567 C569 1.387 . S
H568 C575 0.950 . S
C569 C567 1.387 . S
C569 C571 1.390 . S
C569 H573 0.950 . S
H570 C566 0.950 . S
C571 C569 1.390 . S
C571 C572 1.387 . S
C571 H574 0.950 . S
C572 C571 1.387 . S
C572 C575 1.387 . S
H573 C569 0.950 . S
H574 C571 0.950 . S
C575 C566 1.390 . S
C575 H568 0.950 . S
C575 C572 1.387 . S
C576 C577 1.387 . S
C576 H580 0.950 . S
C576 C585 1.390 . S
C577 C576 1.387 . S
C577 C579 1.387 . S
H578 C585 0.950 . S
C579 C577 1.387 . S
C579 C581 1.390 . S
C579 H583 0.950 . S
H580 C576 0.950 . S
C581 C579 1.390 . S
C581 C582 1.387 . S
C581 H584 0.950 . S
C582 C581 1.387 . S
C582 C585 1.387 . S
H583 C579 0.950 . S
H584 C581 0.950 . S
C585 C576 1.390 . S
C585 H578 0.950 . S
C585 C582 1.387 . S
C586 C587 1.387 . S
C586 H590 0.950 . S
C586 C595 1.390 . S
C587 C586 1.387 . S
C587 C589 1.387 . S
H588 C595 0.950 . S
C589 C587 1.387 . S
C589 C591 1.390 . S
C589 H593 0.950 . S
H590 C586 0.950 . S
C591 C589 1.390 . S
C591 C592 1.387 . S
C591 H594 0.950 . S
C592 C591 1.387 . S
C592 C595 1.387 . S
H593 C589 0.950 . S
H594 C591 0.950 . S
C595 C586 1.390 . S
C595 H588 0.950 . S
C595 C592 1.387 . S
C596 C597 1.387 . S
C596 H600 0.950 . S
C596 C605 1.390 . S
C597 C596 1.387 . S
C597 C599 1.387 . S
H598 C605 0.950 . S
C599 C597 1.387 . S
C599 C601 1.390 . S
C599 H603 0.950 . S
H600 C596 0.950 . S
C601 C599 1.390 . S
C601 C602 1.387 . S
C601 H604 0.950 . S
C602 C601 1.387 . S
C602 C605 1.387 . S
H603 C599 0.950 . S
H604 C601 0.950 . S
C605 C596 1.390 . S
C605 H598 0.950 . S
C605 C602 1.387 . S
C606 C607 1.387 . S
C606 H610 0.950 . S
C606 C615 1.390 . S
C607 C606 1.387 . S
C607 C609 1.387 . S
H608 C615 0.950 . S
C609 C607 1.387 . S
C609 C611 1.390 . S
C609 H613 0.950 . S
H610 C606 0.950 . S
C611 C609 1.390 . S
C611 C612 1.387 . S
C611 H614 0.950 . S
C612 C611 1.387 . S
C612 C615 1.387 . S
H613 C609 0.950 . S
H614 C611 0.950 . S
C615 C606 1.390 . S
C615 H608 0.950 . S
C615 C612 1.387 . S
C616 C617 1.387 . S
C616 H620 0.950 . S
C616 C625 1.390 . S
C617 C616 1.387 . S
C617 C619 1.387 . S
H618 C625 0.950 . S
C619 C617 1.387 . S
C619 C621 1.390 . S
C619 H623 0.950 . S
H620 C616 0.950 . S
C621 C619 1.390 . S
C621 C622 1.387 . S
C621 H624 0.950 . S
C622 C621 1.387 . S
C622 C625 1.387 . S
H623 C619 0.950 . S
H624 C621 0.950 . S
C625 C616 1.390 . S
C625 H618 0.950 . S
C625 C622 1.387 . S
C626 C627 1.387 . S
C626 H630 0.950 . S
C626 C635 1.390 . S
C627 C626 1.387 . S
C627 C629 1.387 . S
H628 C635 0.950 . S
C629 C627 1.387 . S
C629 C631 1.390 . S
C629 H633 0.950 . S
H630 C626 0.950 . S
C631 C629 1.390 . S
C631 C632 1.387 . S
C631 H634 0.950 . S
C632 C631 1.387 . S
C632 C635 1.387 . S
H633 C629 0.950 . S
H634 C631 0.950 . S
C635 C626 1.390 . S
C635 H628 0.950 . S
C635 C632 1.387 . S
C636 C637 1.387 . S
C636 H640 0.950 . S
C636 C645 1.390 . S
C637 C636 1.387 . S
C637 C639 1.387 . S
H638 C645 0.950 . S
C639 C637 1.387 . S
C639 C641 1.390 . S
C639 H643 0.950 . S
H640 C636 0.950 . S
C641 C639 1.390 . S
C641 C642 1.387 . S
C641 H644 0.950 . S
C642 C641 1.387 . S
C642 C645 1.387 . S
H643 C639 0.950 . S
H644 C641 0.950 . S
C645 C636 1.390 . S
C645 H638 0.950 . S
C645 C642 1.387 . S
C646 C647 1.387 . S
C646 H650 0.950 . S
C646 C655 1.390 . S
C647 C646 1.387 . S
C647 C649 1.387 . S
H648 C655 0.950 . S
C649 C647 1.387 . S
C649 C651 1.390 . S
C649 H653 0.950 . S
H650 C646 0.950 . S
C651 C649 1.390 . S
C651 C652 1.387 . S
C651 H654 0.950 . S
C652 C651 1.387 . S
C652 C655 1.387 . S
H653 C649 0.950 . S
H654 C651 0.950 . S
C655 C646 1.390 . S
C655 H648 0.950 . S
C655 C652 1.387 . S
C656 C657 1.387 . S
C656 H660 0.950 . S
C656 C665 1.390 . S
C657 C656 1.387 . S
C657 C659 1.387 . S
H658 C665 0.950 . S
C659 C657 1.387 . S
C659 C661 1.390 . S
C659 H663 0.950 . S
H660 C656 0.950 . S
C661 C659 1.390 . S
C661 C662 1.387 . S
C661 H664 0.950 . S
C662 C661 1.387 . S
C662 C665 1.387 . S
H663 C659 0.950 . S
H664 C661 0.950 . S
C665 C656 1.390 . S
C665 H658 0.950 . S
C665 C662 1.387 . S
C666 C667 1.387 . S
C666 H670 0.950 . S
C666 C675 1.390 . S
C667 C666 1.387 . S
C667 C669 1.387 . S
H668 C675 0.950 . S
C669 C667 1.387 . S
C669 C671 1.390 . S
C669 H673 0.950 . S
H670 C666 0.950 . S
C671 C669 1.390 . S
C671 C672 1.387 . S
C671 H674 0.950 . S
C672 C671 1.387 . S
C672 C675 1.387 . S
H673 C669 0.950 . S
H674 C671 0.950 . S
C675 C666 1.390 . S
C675 H668 0.950 . S
C675 C672 1.387 . S
C676 C677 1.387 . S
C676 H680 0.950 . S
C676 C685 1.390 . S
C677 C676 1.387 . S
C677 C679 1.387 . S
H678 C685 0.950 . S
C679 C677 1.387 . S
C679 C681 1.390 . S
C679 H683 0.950 . S
H680 C676 0.950 . S
C681 C679 1.390 . S
C681 C682 1.387 . S
C681 H684 0.950 . S
C682 C681 1.387 . S
C682 C685 1.387 . S
H683 C679 0.950 . S
H684 C681 0.950 . S
C685 C676 1.390 . S
C685 H678 0.950 . S
C685 C682 1.387 . S
C686 C687 1.387 . S
C686 H690 0.950 . S
C686 C695 1.390 . S
C687 C686 1.387 . S
C687 C689 1.387 . S
H688 C695 0.950 . S
C689 C687 1.387 . S
C689 C691 1.390 . S
C689 H693 0.950 . S
H690 C686 0.950 . S
C691 C689 1.390 . S
C691 C692 1.387 . S
C691 H694 0.950 . S
C692 C691 1.387 . S
C692 C695 1.387 . S
H693 C689 0.950 . S
H694 C691 0.950 . S
C695 C686 1.390 . S
C695 H688 0.950 . S
C695 C692 1.387 . S
C696 C697 1.387 . S
C696 H700 0.950 . S
C696 C705 1.390 . S
C697 C696 1.387 . S
C697 C699 1.387 . S
H698 C705 0.950 . S
C699 C697 1.387 . S
C699 C701 1.390 . S
C699 H703 0.950 . S
H700 C696 0.950 . S
C701 C699 1.390 . S
C701 C702 1.387 . S
C701 H704 0.950 . S
C702 C701 1.387 . S
C702 C705 1.387 . S
H703 C699 0.950 . S
H704 C701 0.950 . S
C705 C696 1.390 . S
C705 H698 0.950 . S
C705 C702 1.387 . S
C706 C707 1.387 . S
C706 H710 0.950 . S
C706 C715 1.390 . S
C707 C706 1.387 . S
C707 C709 1.387 . S
H708 C715 0.950 . S
C709 C707 1.387 . S
C709 C711 1.390 . S
C709 H713 0.950 . S
H710 C706 0.950 . S
C711 C709 1.390 . S
C711 C712 1.387 . S
C711 H714 0.950 . S
C712 C711 1.387 . S
C712 C715 1.387 . S
H713 C709 0.950 . S
H714 C711 0.950 . S
C715 C706 1.390 . S
C715 H708 0.950 . S
C715 C712 1.387 . S
C716 C717 1.387 . S
C716 H720 0.950 . S
C716 C725 1.390 . S
C717 C716 1.387 . S
C717 C719 1.387 . S
H718 C725 0.950 . S
C719 C717 1.387 . S
C719 C721 1.390 . S
C719 H723 0.950 . S
H720 C716 0.950 . S
C721 C719 1.390 . S
C721 C722 1.387 . S
C721 H724 0.950 . S
C722 C721 1.387 . S
C722 C725 1.387 . S
H723 C719 0.950 . S
H724 C721 0.950 . S
C725 C716 1.390 . S
C725 H718 0.950 . S
C725 C722 1.387 . S
C726 C727 1.387 . S
C726 H730 0.950 . S
C726 C735 1.390 . S
C727 C726 1.387 . S
C727 C729 1.387 . S
H728 C735 0.950 . S
C729 C727 1.387 . S
C729 C731 1.390 . S
C729 H733 0.950 . S
H730 C726 0.950 . S
C731 C729 1.390 . S
C731 C732 1.387 . S
C731 H734 0.950 . S
C732 C731 1.387 . S
C732 C735 1.387 . S
H733 C729 0.950 . S
H734 C731 0.950 . S
C735 C726 1.390 . S
C735 H728 0.950 . S
C735 C732 1.387 . S
C736 C737 1.387 . S
C736 H740 0.950 . S
C736 C745 1.390 . S
C737 C736 1.387 . S
C737 C739 1.387 . S
H738 C745 0.950 . S
C739 C737 1.387 . S
C739 C741 1.390 . S
C739 H743 0.950 . S
H740 C736 0.950 . S
C741 C739 1.390 . S
C741 C742 1.387 . S
C741 H744 0.950 . S
C742 C741 1.387 . S
C742 C745 1.387 . S
H743 C739 0.950 . S
H744 C741 0.950 . S
C745 C736 1.390 . S
C745 H738 0.950 . S
C745 C742 1.387 . S
C746 C747 1.387 1_545 S
C746 H750 0.950 . S
C746 C755 1.390 1_455 S
C747 C746 1.387 1_565 S
C747 C749 1.387 . S
H748 C755 0.950 . S
C749 C747 1.387 . S
C749 C751 1.390 1_455 S
C749 H753 0.950 . S
H750 C746 0.950 . S
C751 C749 1.390 1_655 S
C751 C752 1.387 1_565 S
C751 H754 0.950 . S
C752 C751 1.387 1_545 S
C752 C755 1.387 . S
H753 C749 0.950 . S
H754 C751 0.950 . S
C755 C746 1.390 1_655 S
C755 H748 0.950 . S
C755 C752 1.387 . S
C756 C757 1.387 . S
C756 H760 0.950 . S
C756 C765 1.390 . S
C757 C756 1.387 . S
C757 C759 1.387 . S
H758 C765 0.950 . S
C759 C757 1.387 . S
C759 C761 1.390 . S
C759 H763 0.950 . S
H760 C756 0.950 . S
C761 C759 1.390 . S
C761 C762 1.387 . S
C761 H764 0.950 . S
C762 C761 1.387 . S
C762 C765 1.387 . S
H763 C759 0.950 . S
H764 C761 0.950 . S
C765 C756 1.390 . S
C765 H758 0.950 . S
C765 C762 1.387 . S
C766 C767 1.387 . S
C766 H770 0.950 . S
C766 C775 1.390 1_554 S
C767 C766 1.387 . S
C767 C769 1.387 1_545 S
H768 C775 0.950 . S
C769 C767 1.387 1_565 S
C769 C771 1.390 1_554 S
C769 H773 0.950 . S
H770 C766 0.950 . S
C771 C769 1.390 1_556 S
C771 C772 1.387 . S
C771 H774 0.950 . S
C772 C771 1.387 . S
C772 C775 1.387 1_565 S
H773 C769 0.950 . S
H774 C771 0.950 . S
C775 C766 1.390 1_556 S
C775 H768 0.950 . S
C775 C772 1.387 1_545 S
C776 C777 1.387 . S
C776 H780 0.950 . S
C776 C785 1.390 . S
C777 C776 1.387 . S
C777 C779 1.387 . S
H778 C785 0.950 . S
C779 C777 1.387 . S
C779 C781 1.390 . S
C779 H783 0.950 . S
H780 C776 0.950 . S
C781 C779 1.390 . S
C781 C782 1.387 . S
C781 H784 0.950 . S
C782 C781 1.387 . S
C782 C785 1.387 . S
H783 C779 0.950 . S
H784 C781 0.950 . S
C785 C776 1.390 . S
C785 H778 0.950 . S
C785 C782 1.387 . S
C786 C787 1.387 1_545 S
C786 H790 0.950 . S
C786 C795 1.390 . S
C787 C786 1.387 1_565 S
C787 C789 1.387 . S
H788 C795 0.950 . S
C789 C787 1.387 . S
C789 C791 1.390 . S
C789 H793 0.950 . S
H790 C786 0.950 . S
C791 C789 1.390 . S
C791 C792 1.387 1_565 S
C791 H794 0.950 . S
C792 C791 1.387 1_545 S
C792 C795 1.387 . S
H793 C789 0.950 . S
H794 C791 0.950 . S
C795 C786 1.390 . S
C795 H788 0.950 . S
C795 C792 1.387 . S
C796 C797 1.387 . S
C796 H800 0.950 . S
C796 C805 1.390 . S
C797 C796 1.387 . S
C797 C799 1.387 . S
H798 C805 0.950 . S
C799 C797 1.387 . S
C799 C801 1.390 . S
C799 H803 0.950 . S
H800 C796 0.950 . S
C801 C799 1.390 . S
C801 C802 1.387 . S
C801 H804 0.950 . S
C802 C801 1.387 . S
C802 C805 1.387 . S
H803 C799 0.950 . S
H804 C801 0.950 . S
C805 C796 1.390 . S
C805 H798 0.950 . S
C805 C802 1.387 . S
C806 C807 1.387 1_565 S
C806 H810 0.950 . S
C806 C815 1.390 1_456 S
C807 C806 1.387 1_545 S
C807 C809 1.387 . S
H808 C815 0.950 . S
C809 C807 1.387 . S
C809 C811 1.390 1_456 S
C809 H813 0.950 . S
H810 C806 0.950 . S
C811 C809 1.390 1_654 S
C811 C812 1.387 1_545 S
C811 H814 0.950 . S
C812 C811 1.387 1_565 S
C812 C815 1.387 . S
H813 C809 0.950 . S
H814 C811 0.950 . S
C815 C806 1.390 1_654 S
C815 H808 0.950 . S
C815 C812 1.387 . S
C816 C817 1.387 . S
C816 H820 0.950 . S
C816 C825 1.390 . S
C817 C816 1.387 . S
C817 C819 1.387 . S
H818 C825 0.950 . S
C819 C817 1.387 . S
C819 C821 1.390 . S
C819 H823 0.950 . S
H820 C816 0.950 . S
C821 C819 1.390 . S
C821 C822 1.387 . S
C821 H824 0.950 . S
C822 C821 1.387 . S
C822 C825 1.387 . S
H823 C819 0.950 . S
H824 C821 0.950 . S
C825 C816 1.390 . S
C825 H818 0.950 . S
C825 C822 1.387 . S
C826 C827 1.387 . S
C826 H830 0.950 . S
C826 C835 1.390 . S
C827 C826 1.387 . S
C827 C829 1.387 . S
H828 C835 0.950 . S
C829 C827 1.387 . S
C829 C831 1.390 . S
C829 H833 0.950 . S
H830 C826 0.950 . S
C831 C829 1.390 . S
C831 C832 1.387 . S
C831 H834 0.950 . S
C832 C831 1.387 . S
C832 C835 1.387 . S
H833 C829 0.950 . S
H834 C831 0.950 . S
C835 C826 1.390 . S
C835 H828 0.950 . S
C835 C832 1.387 . S
C836 C837 1.387 . S
C836 H840 0.950 . S
C836 C845 1.390 . S
C837 C836 1.387 . S
C837 C839 1.387 . S
H838 C845 0.950 . S
C839 C837 1.387 . S
C839 C841 1.390 . S
C839 H843 0.950 . S
H840 C836 0.950 . S
C841 C839 1.390 . S
C841 C842 1.387 . S
C841 H844 0.950 . S
C842 C841 1.387 . S
C842 C845 1.387 . S
H843 C839 0.950 . S
H844 C841 0.950 . S
C845 C836 1.390 . S
C845 H838 0.950 . S
C845 C842 1.387 . S
C846 C847 1.387 . S
C846 H850 0.950 . S
C846 C855 1.390 . S
C847 C846 1.387 . S
C847 C849 1.387 . S
H848 C855 0.950 . S
C849 C847 1.387 . S
C849 C851 1.390 . S
C849 H853 0.950 . S
H850 C846 0.950 . S
C851 C849 1.390 . S
C851 C852 1.387 . S
C851 H854 0.950 . S
C852 C851 1.387 . S
C852 C855 1.387 . S
H853 C849 0.950 . S
H854 C851 0.950 . S
C855 C846 1.390 . S
C855 H848 0.950 . S
C855 C852 1.387 . S
C856 C857 1.387 . S
C856 H860 0.950 . S
C856 C865 1.390 1_554 S
C857 C856 1.387 . S
C857 C859 1.387 . S
H858 C865 0.950 . S
C859 C857 1.387 . S
C859 C861 1.390 1_554 S
C859 H863 0.950 . S
H860 C856 0.950 . S
C861 C859 1.390 1_556 S
C861 C862 1.387 . S
C861 H864 0.950 . S
C862 C861 1.387 . S
C862 C865 1.387 . S
H863 C859 0.950 . S
H864 C861 0.950 . S
C865 C856 1.390 1_556 S
C865 H858 0.950 . S
C865 C862 1.387 . S
C866 C867 1.387 . S
C866 H870 0.950 . S
C866 C875 1.390 1_455 S
C867 C866 1.387 . S
C867 C869 1.387 . S
H868 C875 0.950 . S
C869 C867 1.387 . S
C869 C871 1.390 1_455 S
C869 H873 0.950 . S
H870 C866 0.950 . S
C871 C869 1.390 1_655 S
C871 C872 1.387 . S
C871 H874 0.950 . S
C872 C871 1.387 . S
C872 C875 1.387 . S
H873 C869 0.950 . S
H874 C871 0.950 . S
C875 C866 1.390 1_655 S
C875 H868 0.950 . S
C875 C872 1.387 . S
C876 C877 1.387 . S
C876 H880 0.950 . S
C876 C885 1.390 1_454 S
C877 C876 1.387 . S
C877 C879 1.387 . S
H878 C885 0.950 . S
C879 C877 1.387 . S
C879 C881 1.390 1_454 S
C879 H883 0.950 . S
H880 C876 0.950 . S
C881 C879 1.390 1_656 S
C881 C882 1.387 . S
C881 H884 0.950 . S
C882 C881 1.387 . S
C882 C885 1.387 . S
H883 C879 0.950 . S
H884 C881 0.950 . S
C885 C876 1.390 1_656 S
C885 H878 0.950 . S
C885 C882 1.387 . S
C886 C887 1.387 . S
C886 H890 0.950 . S
C886 C895 1.390 . S
C887 C886 1.387 . S
C887 C889 1.387 . S
H888 C895 0.950 . S
C889 C887 1.387 . S
C889 C891 1.390 . S
C889 H893 0.950 . S
H890 C886 0.950 . S
C891 C889 1.390 . S
C891 C892 1.387 . S
C891 H894 0.950 . S
C892 C891 1.387 . S
C892 C895 1.387 . S
H893 C889 0.950 . S
H894 C891 0.950 . S
C895 C886 1.390 . S
C895 H888 0.950 . S
C895 C892 1.387 . S
C896 C897 1.387 . S
C896 H900 0.950 . S
C896 C905 1.390 . S
C897 C896 1.387 . S
C897 C899 1.387 . S
H898 C905 0.950 . S
C899 C897 1.387 . S
C899 C901 1.390 . S
C899 H903 0.950 . S
H900 C896 0.950 . S
C901 C899 1.390 . S
C901 C902 1.387 . S
C901 H904 0.950 . S
C902 C901 1.387 . S
C902 C905 1.387 . S
H903 C899 0.950 . S
H904 C901 0.950 . S
C905 C896 1.390 . S
C905 H898 0.950 . S
C905 C902 1.387 . S
C906 C907 1.387 . S
C906 H910 0.950 . S
C906 C915 1.390 . S
C907 C906 1.387 . S
C907 C909 1.387 . S
H908 C915 0.950 . S
C909 C907 1.387 . S
C909 C911 1.390 . S
C909 H913 0.950 . S
H910 C906 0.950 . S
C911 C909 1.390 . S
C911 C912 1.387 . S
C911 H914 0.950 . S
C912 C911 1.387 . S
C912 C915 1.387 . S
H913 C909 0.950 . S
H914 C911 0.950 . S
C915 C906 1.390 . S
C915 H908 0.950 . S
C915 C912 1.387 . S
C916 C917 1.387 . S
C916 H920 0.950 . S
C916 C925 1.390 . S
C917 C916 1.387 . S
C917 C919 1.387 . S
H918 C925 0.950 . S
C919 C917 1.387 . S
C919 C921 1.390 . S
C919 H923 0.950 . S
H920 C916 0.950 . S
C921 C919 1.390 . S
C921 C922 1.387 . S
C921 H924 0.950 . S
C922 C921 1.387 . S
C922 C925 1.387 . S
H923 C919 0.950 . S
H924 C921 0.950 . S
C925 C916 1.390 . S
C925 H918 0.950 . S
C925 C922 1.387 . S
C926 C927 1.387 . S
C926 H930 0.950 . S
C926 C935 1.390 . S
C927 C926 1.387 . S
C927 C929 1.387 . S
H928 C935 0.950 . S
C929 C927 1.387 . S
C929 C931 1.390 . S
C929 H933 0.950 . S
H930 C926 0.950 . S
C931 C929 1.390 . S
C931 C932 1.387 . S
C931 H934 0.950 . S
C932 C931 1.387 . S
C932 C935 1.387 . S
H933 C929 0.950 . S
H934 C931 0.950 . S
C935 C926 1.390 . S
C935 H928 0.950 . S
C935 C932 1.387 . S
C936 C937 1.387 . S
C936 H940 0.950 . S
C936 C945 1.390 . S
C937 C936 1.387 . S
C937 C939 1.387 . S
H938 C945 0.950 . S
C939 C937 1.387 . S
C939 C941 1.390 . S
C939 H943 0.950 . S
H940 C936 0.950 . S
C941 C939 1.390 . S
C941 C942 1.387 . S
C941 H944 0.950 . S
C942 C941 1.387 . S
C942 C945 1.387 . S
H943 C939 0.950 . S
H944 C941 0.950 . S
C945 C936 1.390 . S
C945 H938 0.950 . S
C945 C942 1.387 . S
C946 C947 1.387 . S
C946 H950 0.950 . S
C946 C955 1.390 . S
C947 C946 1.387 . S
C947 C949 1.387 . S
H948 C955 0.950 . S
C949 C947 1.387 . S
C949 C951 1.390 . S
C949 H953 0.950 . S
H950 C946 0.950 . S
C951 C949 1.390 . S
C951 C952 1.387 . S
C951 H954 0.950 . S
C952 C951 1.387 . S
C952 C955 1.387 . S
H953 C949 0.950 . S
H954 C951 0.950 . S
C955 C946 1.390 . S
C955 H948 0.950 . S
C955 C952 1.387 . S
C956 C957 1.387 . S
C956 H960 0.950 . S
C956 C965 1.390 . S
C957 C956 1.387 . S
C957 C959 1.387 . S
H958 C965 0.950 . S
C959 C957 1.387 . S
C959 C961 1.390 . S
C959 H963 0.950 . S
H960 C956 0.950 . S
C961 C959 1.390 . S
C961 C962 1.387 . S
C961 H964 0.950 . S
C962 C961 1.387 . S
C962 C965 1.387 . S
H963 C959 0.950 . S
H964 C961 0.950 . S
C965 C956 1.390 . S
C965 H958 0.950 . S
C965 C962 1.387 . S
C966 C967 1.387 . S
C966 H970 0.950 . S
C966 C975 1.390 . S
C967 C966 1.387 . S
C967 C969 1.387 . S
H968 C975 0.950 . S
C969 C967 1.387 . S
C969 C971 1.390 . S
C969 H973 0.950 . S
H970 C966 0.950 . S
C971 C969 1.390 . S
C971 C972 1.387 . S
C971 H974 0.950 . S
C972 C971 1.387 . S
C972 C975 1.387 . S
H973 C969 0.950 . S
H974 C971 0.950 . S
C975 C966 1.390 . S
C975 H968 0.950 . S
C975 C972 1.387 . S
C976 C977 1.387 . S
C976 H980 0.950 . S
C976 C985 1.390 . S
C977 C976 1.387 . S
C977 C979 1.387 . S
H978 C985 0.950 . S
C979 C977 1.387 . S
C979 C981 1.390 . S
C979 H983 0.950 . S
H980 C976 0.950 . S
C981 C979 1.390 . S
C981 C982 1.387 . S
C981 H984 0.950 . S
C982 C981 1.387 . S
C982 C985 1.387 . S
H983 C979 0.950 . S
H984 C981 0.950 . S
C985 C976 1.390 . S
C985 H978 0.950 . S
C985 C982 1.387 . S
C986 C987 1.387 . S
C986 H990 0.950 . S
C986 C995 1.390 . S
C987 C986 1.387 . S
C987 C989 1.387 . S
H988 C995 0.950 . S
C989 C987 1.387 . S
C989 C991 1.390 . S
C989 H993 0.950 . S
H990 C986 0.950 . S
C991 C989 1.390 . S
C991 C992 1.387 . S
C991 H994 0.950 . S
C992 C991 1.387 . S
C992 C995 1.387 . S
H993 C989 0.950 . S
H994 C991 0.950 . S
C995 C986 1.390 . S
C995 H988 0.950 . S
C995 C992 1.387 . S
C996 C997 1.387 . S
C996 H1000 0.950 . S
C996 C1005 1.390 . S
C997 C996 1.387 . S
C997 C999 1.387 . S
H998 C1005 0.950 . S
C999 C997 1.387 . S
C999 C1001 1.390 . S
C999 H1003 0.950 . S
H1000 C996 0.950 . S
C1001 C999 1.390 . S
C1001 C1002 1.387 . S
C1001 H1004 0.950 . S
C1002 C1001 1.387 . S
C1002 C1005 1.387 . S
H1003 C999 0.950 . S
H1004 C1001 0.950 . S
C1005 C996 1.390 . S
C1005 H998 0.950 . S
C1005 C1002 1.387 . S
C1006 C1007 1.387 . S
C1006 H1010 0.950 . S
C1006 C1015 1.390 . S
C1007 C1006 1.387 . S
C1007 C1009 1.387 . S
H1008 C1015 0.950 . S
C1009 C1007 1.387 . S
C1009 C1011 1.390 . S
C1009 H1013 0.950 . S
H1010 C1006 0.950 . S
C1011 C1009 1.390 . S
C1011 C1012 1.387 . S
C1011 H1014 0.950 . S
C1012 C1011 1.387 . S
C1012 C1015 1.387 . S
H1013 C1009 0.950 . S
H1014 C1011 0.950 . S
C1015 C1006 1.390 . S
C1015 H1008 0.950 . S
C1015 C1012 1.387 . S
C1016 C1017 1.387 . S
C1016 H1020 0.950 . S
C1016 C1025 1.390 . S
C1017 C1016 1.387 . S
C1017 C1019 1.387 . S
H1018 C1025 0.950 . S
C1019 C1017 1.387 . S
C1019 C1021 1.390 . S
C1019 H1023 0.950 . S
H1020 C1016 0.950 . S
C1021 C1019 1.390 . S
C1021 C1022 1.387 . S
C1021 H1024 0.950 . S
C1022 C1021 1.387 . S
C1022 C1025 1.387 . S
H1023 C1019 0.950 . S
H1024 C1021 0.950 . S
C1025 C1016 1.390 . S
C1025 H1018 0.950 . S
C1025 C1022 1.387 . S
C1026 C1027 1.387 . S
C1026 H1030 0.950 . S
C1026 C1035 1.390 . S
C1027 C1026 1.387 . S
C1027 C1029 1.387 . S
H1028 C1035 0.950 . S
C1029 C1027 1.387 . S
C1029 C1031 1.390 . S
C1029 H1033 0.950 . S
H1030 C1026 0.950 . S
C1031 C1029 1.390 . S
C1031 C1032 1.387 . S
C1031 H1034 0.950 . S
C1032 C1031 1.387 . S
C1032 C1035 1.387 . S
H1033 C1029 0.950 . S
H1034 C1031 0.950 . S
C1035 C1026 1.390 . S
C1035 H1028 0.950 . S
C1035 C1032 1.387 . S
C1036 C1037 1.387 . S
C1036 H1040 0.950 . S
C1036 C1045 1.390 . S
C1037 C1036 1.387 . S
C1037 C1039 1.387 . S
H1038 C1045 0.950 . S
C1039 C1037 1.387 . S
C1039 C1041 1.390 . S
C1039 H1043 0.950 . S
H1040 C1036 0.950 . S
C1041 C1039 1.390 . S
C1041 C1042 1.387 . S
C1041 H1044 0.950 . S
C1042 C1041 1.387 . S
C1042 C1045 1.387 . S
H1043 C1039 0.950 . S
H1044 C1041 0.950 . S
C1045 C1036 1.390 . S
C1045 H1038 0.950 . S
C1045 C1042 1.387 . S
C1046 C1047 1.387 . S
C1046 H1050 0.950 . S
C1046 C1055 1.390 . S
C1047 C1046 1.387 . S
C1047 C1049 1.387 . S
H1048 C1055 0.950 . S
C1049 C1047 1.387 . S
C1049 C1051 1.390 . S
C1049 H1053 0.950 . S
H1050 C1046 0.950 . S
C1051 C1049 1.390 . S
C1051 C1052 1.387 . S
C1051 H1054 0.950 . S
C1052 C1051 1.387 . S
C1052 C1055 1.387 . S
H1053 C1049 0.950 . S
H1054 C1051 0.950 . S
C1055 C1046 1.390 . S
C1055 H1048 0.950 . S
C1055 C1052 1.387 . S
C417 C354 1.513 . S
C422 C5 1.516 . S
C427 C16 1.508 . S
C432 C108 1.510 . S
C437 C328 1.513 . S
C442 C29 1.516 . S
C447 C42 1.509 . S
C452 C140 1.509 . S
C457 C55 1.516 . S
C462 C380 1.514 . S
C467 C68 1.508 . S
C472 C192 1.510 . S
C477 C83 1.516 . S
C482 C406 1.513 . S
C487 C96 1.509 . S
C492 C166 1.509 . S
C497 C251 1.518 . S
C502 C107 1.516 . S
C507 C10 1.508 . S
C512 C127 1.510 . S
C517 C225 1.518 . S
C522 C135 1.516 . S
C527 C153 1.510 . S
C532 C30 1.508 . S
C537 C277 1.517 . S
C542 C161 1.517 . S
C547 C88 1.508 . S
C552 C173 1.510 . S
C557 C187 1.517 . S
C562 C309 1.517 . S
C567 C56 1.509 . S
C572 C199 1.509 . S
C577 C211 1.515 . S
C582 C148 1.514 . S
C587 C224 1.508 . S
C592 C316 1.510 . S
C597 C122 1.514 . S
C602 C237 1.515 . S
C607 C342 1.509 . S
C612 C250 1.509 . S
C617 C172 1.514 . S
C622 C263 1.515 . S
C627 C394 1.508 . S
C632 C276 1.509 . S
C637 C198 1.513 . S
C642 C289 1.516 . S
C647 C304 1.509 . S
C652 C368 1.509 . S
C657 C43 1.518 . S
C662 C315 1.516 . S
C667 C329 1.509 . S
C672 C212 1.509 . S
C677 C341 1.517 . S
C682 C17 1.517 . S
C687 C355 1.510 . S
C692 C238 1.508 . S
C697 C367 1.517 . S
C702 C69 1.517 . S
C707 C381 1.510 . S
C712 C290 1.509 . S
C717 C393 1.517 . S
C722 C101 1.517 . S
C727 C407 1.509 . S
C732 C264 1.509 . S
C737 C317 1.534 . S
C742 C3 1.534 . S
C747 C18 1.537 . S
C752 C121 1.533 . S
C757 C343 1.535 . S
C762 C31 1.535 . S
C767 C44 1.537 . S
C772 C147 1.533 . S
C777 C369 1.534 . S
C782 C57 1.534 . S
C787 C70 1.537 . S
C792 C179 1.533 . S
C797 C395 1.535 . S
C802 C81 1.535 . S
C807 C94 1.537 . S
C812 C205 1.533 . S
C817 C109 1.534 . S
C822 C213 1.534 . S
C827 C133 1.535 . S
C832 C239 1.535 . S
C837 C159 1.535 . S
C842 C265 1.535 . S
C847 C185 1.534 . S
C852 C291 1.534 . S
C857 C226 1.537 . S
C862 C335 1.533 . S
C867 C361 1.533 . S
C872 C252 1.537 . S
C877 C387 1.533 . S
C882 C278 1.537 . S
C887 C302 1.537 . S
C892 C413 1.533 . S
C897 C4 1.419 . S
C902 C75 1.419 . S
C907 C23 1.419 . S
C912 C82 1.419 . S
C917 C36 1.419 . S
C922 C95 1.420 . S
C927 C62 1.419 . S
C932 C49 1.420 . S
C937 C114 1.420 . S
C942 C174 1.420 . S
C947 C120 1.420 . S
C952 C186 1.420 . S
C957 C134 1.420 . S
C962 C200 1.420 . S
C967 C146 1.419 . S
C972 C160 1.421 . S
C977 C218 1.419 . S
C982 C283 1.419 . S
C987 C296 1.419 . S
C992 C231 1.419 . S
C997 C244 1.419 . S
C1002 C303 1.419 . S
C1007 C257 1.420 . S
C1012 C270 1.419 . S
C1017 C382 1.420 . S
C1022 C322 1.420 . S
C1027 C330 1.419 . S
C1032 C400 1.420 . S
C1037 C408 1.420 . S
C1042 C348 1.421 . S
C1047 C356 1.420 . S
C1052 C374 1.420 . S
