# Generated by pormake.
# Topology wio, (6)-cn, num edge types: 1
# Building blocks:
#     Node 0, Type 0, BuildingBlock: VOLQOD_clean_sbu_1, # of connection points: 6
#     Node 1, Type 0, BuildingBlock: VOLQOD_clean_sbu_1, # of connection points: 6
#     Node 2, Type 0, BuildingBlock: VOLQOD_clean_sbu_1, # of connection points: 6
#     Node 3, Type 0, BuildingBlock: VOLQOD_clean_sbu_1, # of connection points: 6
#     Node 4, Type 0, BuildingBlock: VOLQOD_clean_sbu_1, # of connection points: 6
#     Node 5, Type 0, BuildingBlock: VOLQOD_clean_sbu_1, # of connection points: 6
#     Node 6, Type 0, BuildingBlock: VOLQOD_clean_sbu_1, # of connection points: 6
#     Node 7, Type 0, BuildingBlock: VOLQOD_clean_sbu_1, # of connection points: 6
#     Node 8, Type 0, BuildingBlock: VOLQOD_clean_sbu_1, # of connection points: 6
#     Node 9, Type 0, BuildingBlock: VOLQOD_clean_sbu_1, # of connection points: 6
#     Node 10, Type 0, BuildingBlock: VOLQOD_clean_sbu_1, # of connection points: 6
#     Node 11, Type 0, BuildingBlock: VOLQOD_clean_sbu_1, # of connection points: 6
#     Node 12, Type 0, BuildingBlock: VOLQOD_clean_sbu_1, # of connection points: 6
#     Node 13, Type 0, BuildingBlock: VOLQOD_clean_sbu_1, # of connection points: 6
#     Node 14, Type 0, BuildingBlock: VOLQOD_clean_sbu_1, # of connection points: 6
#     Node 15, Type 0, BuildingBlock: VOLQOD_clean_sbu_1, # of connection points: 6
#     Node 16, Type 0, BuildingBlock: VOLQOD_clean_sbu_1, # of connection points: 6
#     Node 17, Type 0, BuildingBlock: VOLQOD_clean_sbu_1, # of connection points: 6
#     Node 18, Type 0, BuildingBlock: VOLQOD_clean_sbu_1, # of connection points: 6
#     Node 19, Type 0, BuildingBlock: VOLQOD_clean_sbu_1, # of connection points: 6
#     Node 20, Type 0, BuildingBlock: VOLQOD_clean_sbu_1, # of connection points: 6
#     Node 21, Type 0, BuildingBlock: VOLQOD_clean_sbu_1, # of connection points: 6
#     Node 22, Type 0, BuildingBlock: VOLQOD_clean_sbu_1, # of connection points: 6
#     Node 23, Type 0, BuildingBlock: VOLQOD_clean_sbu_1, # of connection points: 6
#     Node 24, Type 0, BuildingBlock: VOLQOD_clean_sbu_1, # of connection points: 6
#     Node 25, Type 0, BuildingBlock: VOLQOD_clean_sbu_1, # of connection points: 6
#     Node 26, Type 0, BuildingBlock: VOLQOD_clean_sbu_1, # of connection points: 6
#     Node 27, Type 0, BuildingBlock: VOLQOD_clean_sbu_1, # of connection points: 6
#     Node 28, Type 0, BuildingBlock: VOLQOD_clean_sbu_1, # of connection points: 6
#     Node 29, Type 0, BuildingBlock: VOLQOD_clean_sbu_1, # of connection points: 6
#     Node 30, Type 0, BuildingBlock: VOLQOD_clean_sbu_1, # of connection points: 6
#     Node 31, Type 0, BuildingBlock: VOLQOD_clean_sbu_1, # of connection points: 6
#     Edge 32, Type (0, 0), BuildingBlock: XIVTED_clean_linker_0, # of connection points: 2
#     Edge 33, Type (0, 0), BuildingBlock: XIVTED_clean_linker_0, # of connection points: 2
#     Edge 34, Type (0, 0), BuildingBlock: XIVTED_clean_linker_0, # of connection points: 2
#     Edge 35, Type (0, 0), BuildingBlock: XIVTED_clean_linker_0, # of connection points: 2
#     Edge 36, Type (0, 0), BuildingBlock: XIVTED_clean_linker_0, # of connection points: 2
#     Edge 37, Type (0, 0), BuildingBlock: XIVTED_clean_linker_0, # of connection points: 2
#     Edge 38, Type (0, 0), BuildingBlock: XIVTED_clean_linker_0, # of connection points: 2
#     Edge 39, Type (0, 0), BuildingBlock: XIVTED_clean_linker_0, # of connection points: 2
#     Edge 40, Type (0, 0), BuildingBlock: XIVTED_clean_linker_0, # of connection points: 2
#     Edge 41, Type (0, 0), BuildingBlock: XIVTED_clean_linker_0, # of connection points: 2
#     Edge 42, Type (0, 0), BuildingBlock: XIVTED_clean_linker_0, # of connection points: 2
#     Edge 43, Type (0, 0), BuildingBlock: XIVTED_clean_linker_0, # of connection points: 2
#     Edge 44, Type (0, 0), BuildingBlock: XIVTED_clean_linker_0, # of connection points: 2
#     Edge 45, Type (0, 0), BuildingBlock: XIVTED_clean_linker_0, # of connection points: 2
#     Edge 46, Type (0, 0), BuildingBlock: XIVTED_clean_linker_0, # of connection points: 2
#     Edge 47, Type (0, 0), BuildingBlock: XIVTED_clean_linker_0, # of connection points: 2
#     Edge 48, Type (0, 0), BuildingBlock: XIVTED_clean_linker_0, # of connection points: 2
#     Edge 49, Type (0, 0), BuildingBlock: XIVTED_clean_linker_0, # of connection points: 2
#     Edge 50, Type (0, 0), BuildingBlock: XIVTED_clean_linker_0, # of connection points: 2
#     Edge 51, Type (0, 0), BuildingBlock: XIVTED_clean_linker_0, # of connection points: 2
#     Edge 52, Type (0, 0), BuildingBlock: XIVTED_clean_linker_0, # of connection points: 2
#     Edge 53, Type (0, 0), BuildingBlock: XIVTED_clean_linker_0, # of connection points: 2
#     Edge 54, Type (0, 0), BuildingBlock: XIVTED_clean_linker_0, # of connection points: 2
#     Edge 55, Type (0, 0), BuildingBlock: XIVTED_clean_linker_0, # of connection points: 2
#     Edge 56, Type (0, 0), BuildingBlock: XIVTED_clean_linker_0, # of connection points: 2
#     Edge 57, Type (0, 0), BuildingBlock: XIVTED_clean_linker_0, # of connection points: 2
#     Edge 58, Type (0, 0), BuildingBlock: XIVTED_clean_linker_0, # of connection points: 2
#     Edge 59, Type (0, 0), BuildingBlock: XIVTED_clean_linker_0, # of connection points: 2
#     Edge 60, Type (0, 0), BuildingBlock: XIVTED_clean_linker_0, # of connection points: 2
#     Edge 61, Type (0, 0), BuildingBlock: XIVTED_clean_linker_0, # of connection points: 2
#     Edge 62, Type (0, 0), BuildingBlock: XIVTED_clean_linker_0, # of connection points: 2
#     Edge 63, Type (0, 0), BuildingBlock: XIVTED_clean_linker_0, # of connection points: 2
#     Edge 64, Type (0, 0), BuildingBlock: XIVTED_clean_linker_0, # of connection points: 2
#     Edge 65, Type (0, 0), BuildingBlock: XIVTED_clean_linker_0, # of connection points: 2
#     Edge 66, Type (0, 0), BuildingBlock: XIVTED_clean_linker_0, # of connection points: 2
#     Edge 67, Type (0, 0), BuildingBlock: XIVTED_clean_linker_0, # of connection points: 2
#     Edge 68, Type (0, 0), BuildingBlock: XIVTED_clean_linker_0, # of connection points: 2
#     Edge 69, Type (0, 0), BuildingBlock: XIVTED_clean_linker_0, # of connection points: 2
#     Edge 70, Type (0, 0), BuildingBlock: XIVTED_clean_linker_0, # of connection points: 2
#     Edge 71, Type (0, 0), BuildingBlock: XIVTED_clean_linker_0, # of connection points: 2
#     Edge 72, Type (0, 0), BuildingBlock: XIVTED_clean_linker_0, # of connection points: 2
#     Edge 73, Type (0, 0), BuildingBlock: XIVTED_clean_linker_0, # of connection points: 2
#     Edge 74, Type (0, 0), BuildingBlock: XIVTED_clean_linker_0, # of connection points: 2
#     Edge 75, Type (0, 0), BuildingBlock: XIVTED_clean_linker_0, # of connection points: 2
#     Edge 76, Type (0, 0), BuildingBlock: XIVTED_clean_linker_0, # of connection points: 2
#     Edge 77, Type (0, 0), BuildingBlock: XIVTED_clean_linker_0, # of connection points: 2
#     Edge 78, Type (0, 0), BuildingBlock: XIVTED_clean_linker_0, # of connection points: 2
#     Edge 79, Type (0, 0), BuildingBlock: XIVTED_clean_linker_0, # of connection points: 2
#     Edge 80, Type (0, 0), BuildingBlock: XIVTED_clean_linker_0, # of connection points: 2
#     Edge 81, Type (0, 0), BuildingBlock: XIVTED_clean_linker_0, # of connection points: 2
#     Edge 82, Type (0, 0), BuildingBlock: XIVTED_clean_linker_0, # of connection points: 2
#     Edge 83, Type (0, 0), BuildingBlock: XIVTED_clean_linker_0, # of connection points: 2
#     Edge 84, Type (0, 0), BuildingBlock: XIVTED_clean_linker_0, # of connection points: 2
#     Edge 85, Type (0, 0), BuildingBlock: XIVTED_clean_linker_0, # of connection points: 2
#     Edge 86, Type (0, 0), BuildingBlock: XIVTED_clean_linker_0, # of connection points: 2
#     Edge 87, Type (0, 0), BuildingBlock: XIVTED_clean_linker_0, # of connection points: 2
#     Edge 88, Type (0, 0), BuildingBlock: XIVTED_clean_linker_0, # of connection points: 2
#     Edge 89, Type (0, 0), BuildingBlock: XIVTED_clean_linker_0, # of connection points: 2
#     Edge 90, Type (0, 0), BuildingBlock: XIVTED_clean_linker_0, # of connection points: 2
#     Edge 91, Type (0, 0), BuildingBlock: XIVTED_clean_linker_0, # of connection points: 2
#     Edge 92, Type (0, 0), BuildingBlock: XIVTED_clean_linker_0, # of connection points: 2
#     Edge 93, Type (0, 0), BuildingBlock: XIVTED_clean_linker_0, # of connection points: 2
#     Edge 94, Type (0, 0), BuildingBlock: XIVTED_clean_linker_0, # of connection points: 2
#     Edge 95, Type (0, 0), BuildingBlock: XIVTED_clean_linker_0, # of connection points: 2
#     Edge 96, Type (0, 0), BuildingBlock: XIVTED_clean_linker_0, # of connection points: 2
#     Edge 97, Type (0, 0), BuildingBlock: XIVTED_clean_linker_0, # of connection points: 2
#     Edge 98, Type (0, 0), BuildingBlock: XIVTED_clean_linker_0, # of connection points: 2
#     Edge 99, Type (0, 0), BuildingBlock: XIVTED_clean_linker_0, # of connection points: 2
#     Edge 100, Type (0, 0), BuildingBlock: XIVTED_clean_linker_0, # of connection points: 2
#     Edge 101, Type (0, 0), BuildingBlock: XIVTED_clean_linker_0, # of connection points: 2
#     Edge 102, Type (0, 0), BuildingBlock: XIVTED_clean_linker_0, # of connection points: 2
#     Edge 103, Type (0, 0), BuildingBlock: XIVTED_clean_linker_0, # of connection points: 2
#     Edge 104, Type (0, 0), BuildingBlock: XIVTED_clean_linker_0, # of connection points: 2
#     Edge 105, Type (0, 0), BuildingBlock: XIVTED_clean_linker_0, # of connection points: 2
#     Edge 106, Type (0, 0), BuildingBlock: XIVTED_clean_linker_0, # of connection points: 2
#     Edge 107, Type (0, 0), BuildingBlock: XIVTED_clean_linker_0, # of connection points: 2
#     Edge 108, Type (0, 0), BuildingBlock: XIVTED_clean_linker_0, # of connection points: 2
#     Edge 109, Type (0, 0), BuildingBlock: XIVTED_clean_linker_0, # of connection points: 2
#     Edge 110, Type (0, 0), BuildingBlock: XIVTED_clean_linker_0, # of connection points: 2
#     Edge 111, Type (0, 0), BuildingBlock: XIVTED_clean_linker_0, # of connection points: 2
#     Edge 112, Type (0, 0), BuildingBlock: XIVTED_clean_linker_0, # of connection points: 2
#     Edge 113, Type (0, 0), BuildingBlock: XIVTED_clean_linker_0, # of connection points: 2
#     Edge 114, Type (0, 0), BuildingBlock: XIVTED_clean_linker_0, # of connection points: 2
#     Edge 115, Type (0, 0), BuildingBlock: XIVTED_clean_linker_0, # of connection points: 2
#     Edge 116, Type (0, 0), BuildingBlock: XIVTED_clean_linker_0, # of connection points: 2
#     Edge 117, Type (0, 0), BuildingBlock: XIVTED_clean_linker_0, # of connection points: 2
#     Edge 118, Type (0, 0), BuildingBlock: XIVTED_clean_linker_0, # of connection points: 2
#     Edge 119, Type (0, 0), BuildingBlock: XIVTED_clean_linker_0, # of connection points: 2
#     Edge 120, Type (0, 0), BuildingBlock: XIVTED_clean_linker_0, # of connection points: 2
#     Edge 121, Type (0, 0), BuildingBlock: XIVTED_clean_linker_0, # of connection points: 2
#     Edge 122, Type (0, 0), BuildingBlock: XIVTED_clean_linker_0, # of connection points: 2
#     Edge 123, Type (0, 0), BuildingBlock: XIVTED_clean_linker_0, # of connection points: 2
#     Edge 124, Type (0, 0), BuildingBlock: XIVTED_clean_linker_0, # of connection points: 2
#     Edge 125, Type (0, 0), BuildingBlock: XIVTED_clean_linker_0, # of connection points: 2
#     Edge 126, Type (0, 0), BuildingBlock: XIVTED_clean_linker_0, # of connection points: 2
#     Edge 127, Type (0, 0), BuildingBlock: XIVTED_clean_linker_0, # of connection points: 2
# Relax obj value: 0.385
# Max RMSD: 0.209
# Mean RMSD: 0.204
data_MOF--net-wio--node1-VOLQOD_clean_sbu_1--edge1-XIVTED_clean_linker_0
_symmetry_space_group_name_H-M    P1
_symmetry_Int_Tables_number       1
_symmetry_cell_setting            triclinic
loop_
_symmetry_equiv_pos_as_xyz
'x, y, z'
_cell_length_a     59.859095
_cell_length_b     59.847784
_cell_length_c     37.732301
_cell_angle_alpha  89.935771
_cell_angle_beta   89.911653
_cell_angle_gamma 89.984302
loop_
_atom_site_label
_atom_site_type_symbol
_atom_site_fract_x
_atom_site_fract_y
_atom_site_fract_z
_atom_type_partial_charge
O0 O 0.16675 0.07108 0.3354 0.0
Zn1 Zn 0.17149 0.09895 0.36322 0.0
O2 O 0.15107 0.12169 0.34595 0.0
Zn3 Zn 0.1678 0.14252 0.31607 0.0
Zn4 Zn 0.12822 0.1079 0.31745 0.0
Zn5 Zn 0.13589 0.13547 0.38627 0.0
O6 O 0.16146 0.17341 0.33513 0.0
O7 O 0.1445 0.16809 0.38742 0.0
O8 O 0.20365 0.10671 0.35439 0.0
O9 O 0.20127 0.13581 0.31801 0.0
O10 O 0.15878 0.1403 0.2634 0.0
O11 O 0.13037 0.11673 0.26687 0.0
O12 O 0.09744 0.11451 0.33292 0.0
O13 O 0.1654 0.09153 0.4144 0.0
O14 O 0.10202 0.13444 0.38171 0.0
O15 O 0.14155 0.11787 0.43162 0.0
C16 C 0.14935 0.06347 0.32042 0.0
C17 C 0.15307 0.18094 0.36393 0.0
C18 C 0.14321 0.1291 0.24863 0.0
C19 C 0.21288 0.12114 0.33432 0.0
C20 C 0.08939 0.12521 0.35892 0.0
C21 C 0.15297 0.10032 0.43804 0.0
O22 O 0.1319 0.07527 0.31671 0.0
O23 O 0.1781 0.93397 0.58799 0.0
Zn24 Zn 0.15186 0.93379 0.62064 0.0
O25 O 0.1328 0.9098 0.60446 0.0
Zn26 Zn 0.11097 0.92225 0.57248 0.0
Zn27 Zn 0.1521 0.88957 0.57935 0.0
Zn28 Zn 0.12063 0.8935 0.64439 0.0
O29 O 0.0808 0.91297 0.59131 0.0
O30 O 0.08715 0.89873 0.64528 0.0
O31 O 0.13859 0.96421 0.61306 0.0
O32 O 0.11369 0.95632 0.57125 0.0
O33 O 0.11588 0.91103 0.52161 0.0
O34 O 0.14701 0.8912 0.52719 0.0
O35 O 0.14767 0.85793 0.59272 0.0
O36 O 0.16182 0.92777 0.67072 0.0
O37 O 0.12483 0.85993 0.63881 0.0
O38 O 0.13838 0.90116 0.68889 0.0
C39 C 0.18964 0.91708 0.57914 0.0
C40 C 0.07377 0.90485 0.62065 0.0
C41 C 0.13167 0.89948 0.50796 0.0
C42 C 0.12483 0.97052 0.58931 0.0
C43 C 0.1363 0.84852 0.61687 0.0
C44 C 0.15489 0.91424 0.6945 0.0
O45 O 0.18354 0.89772 0.58875 0.0
O46 O 0.37428 0.92129 0.82859 0.0
Zn47 Zn 0.37302 0.88861 0.82291 0.0
O48 O 0.34979 0.8763 0.85269 0.0
Zn49 Zn 0.36458 0.86148 0.89256 0.0
Zn50 Zn 0.3308 0.89998 0.87137 0.0
Zn51 Zn 0.33186 0.85641 0.82299 0.0
O52 O 0.35518 0.82891 0.89241 0.0
O53 O 0.33679 0.82503 0.84117 0.0
O54 O 0.40317 0.87764 0.83478 0.0
O55 O 0.3984 0.86182 0.8873 0.0
O56 O 0.35908 0.87835 0.93891 0.0
O57 O 0.33252 0.90257 0.92439 0.0
O58 O 0.29899 0.89702 0.85464 0.0
O59 O 0.36811 0.88289 0.77159 0.0
O60 O 0.29888 0.86508 0.82467 0.0
O61 O 0.34034 0.85852 0.77011 0.0
C62 C 0.36048 0.93551 0.84052 0.0
C63 C 0.34557 0.81673 0.86912 0.0
C64 C 0.34573 0.89416 0.94718 0.0
C65 C 0.41107 0.86823 0.86214 0.0
C66 C 0.28869 0.88222 0.83675 0.0
C67 C 0.3549 0.87047 0.75419 0.0
O68 O 0.34222 0.92956 0.85499 0.0
O69 O 0.32077 0.10164 0.06973 0.0
Zn70 Zn 0.35235 0.11021 0.07495 0.0
O71 O 0.36774 0.08864 0.10446 0.0
Zn72 Zn 0.38038 0.10552 0.14405 0.0
Zn73 Zn 0.34689 0.06624 0.12237 0.0
Zn74 Zn 0.38996 0.07313 0.07562 0.0
O75 O 0.41376 0.09988 0.14555 0.0
O76 O 0.42014 0.08151 0.09495 0.0
O77 O 0.35406 0.14156 0.09182 0.0
O78 O 0.3763 0.13918 0.13844 0.0
O79 O 0.36321 0.09884 0.18942 0.0
O80 O 0.33912 0.07239 0.17344 0.0
O81 O 0.35702 0.03451 0.11371 0.0
O82 O 0.36408 0.11041 0.02557 0.0
O83 O 0.38545 0.03931 0.07667 0.0
O84 O 0.38819 0.08233 0.02344 0.0
C85 C 0.31012 0.08374 0.07622 0.0
C86 C 0.42715 0.09141 0.12277 0.0
C87 C 0.34675 0.08599 0.19643 0.0
C88 C 0.36475 0.15077 0.11686 0.0
C89 C 0.37181 0.0265 0.09297 0.0
C90 C 0.37743 0.09805 0.00828 0.0
O91 O 0.31857 0.0681 0.09463 0.0
O92 O 0.16727 0.92777 0.14429 0.0
Zn93 Zn 0.17089 0.89712 0.1246 0.0
O94 O 0.14864 0.87753 0.14613 0.0
Zn95 Zn 0.16391 0.8574 0.17866 0.0
Zn96 Zn 0.1273 0.89504 0.17253 0.0
Zn97 Zn 0.13184 0.86234 0.10888 0.0
O98 O 0.15679 0.8261 0.16294 0.0
O99 O 0.13996 0.82943 0.11025 0.0
O100 O 0.20264 0.88859 0.13655 0.0
O101 O 0.19765 0.86226 0.17729 0.0
O102 O 0.15433 0.86238 0.23032 0.0
O103 O 0.13035 0.89035 0.2246 0.0
O104 O 0.09571 0.8881 0.16121 0.0
O105 O 0.16536 0.90095 0.07234 0.0
O106 O 0.09812 0.86426 0.11658 0.0
O107 O 0.13676 0.87825 0.06166 0.0
C108 C 0.15005 0.9377 0.1561 0.0
C109 C 0.14835 0.81748 0.13504 0.0
C110 C 0.14114 0.87677 0.24399 0.0
C111 C 0.21051 0.87504 0.15943 0.0
C112 C 0.08649 0.87552 0.13852 0.0
C113 C 0.15044 0.89334 0.05152 0.0
O114 O 0.13233 0.92716 0.16405 0.0
O115 O 0.31013 0.92637 0.38181 0.0
Zn116 Zn 0.34219 0.92685 0.36767 0.0
O117 O 0.35852 0.90319 0.39258 0.0
Zn118 Zn 0.37965 0.91673 0.42527 0.0
Zn119 Zn 0.33792 0.88415 0.41831 0.0
Zn120 Zn 0.37337 0.88443 0.35771 0.0
O121 O 0.41106 0.90906 0.40906 0.0
O122 O 0.40661 0.89065 0.35812 0.0
O123 O 0.35176 0.95778 0.38225 0.0
O124 O 0.37505 0.95059 0.42671 0.0
O125 O 0.37487 0.90508 0.47566 0.0
O126 O 0.34422 0.88447 0.47076 0.0
O127 O 0.33959 0.85227 0.40342 0.0
O128 O 0.34077 0.92139 0.31494 0.0
O129 O 0.3695 0.85145 0.36874 0.0
O130 O 0.35808 0.88868 0.31001 0.0
C131 C 0.29829 0.91165 0.39705 0.0
C132 C 0.41916 0.89938 0.38174 0.0
C133 C 0.3597 0.89291 0.4896 0.0
C134 C 0.36379 0.9644 0.40803 0.0
C135 C 0.35393 0.84147 0.38548 0.0
C136 C 0.3459 0.90412 0.29689 0.0
O137 O 0.30682 0.89429 0.41091 0.0
O138 O 0.33176 0.16177 0.61355 0.0
Zn139 Zn 0.32522 0.12772 0.61489 0.0
O140 O 0.34535 0.11535 0.65099 0.0
Zn141 Zn 0.36581 0.0939 0.63187 0.0
Zn142 Zn 0.36378 0.13634 0.6767 0.0
Zn143 Zn 0.32803 0.0983 0.68406 0.0
O144 O 0.36759 0.06775 0.66453 0.0
O145 O 0.33143 0.06626 0.67352 0.0
O146 O 0.33108 0.11066 0.56699 0.0
O147 O 0.35658 0.08557 0.58394 0.0
O148 O 0.39664 0.10522 0.62777 0.0
O149 O 0.39706 0.1336 0.6652 0.0
O150 O 0.36123 0.13217 0.72998 0.0
O151 O 0.29188 0.12312 0.62994 0.0
O152 O 0.33885 0.10269 0.73403 0.0
O153 O 0.29572 0.10437 0.6805 0.0
C154 C 0.34261 0.17433 0.63511 0.0
C155 C 0.3507 0.05796 0.67762 0.0
C156 C 0.40714 0.1205 0.64394 0.0
C157 C 0.34375 0.0938 0.56053 0.0
C158 C 0.35164 0.11706 0.74836 0.0
C159 C 0.28348 0.11364 0.65733 0.0
O160 O 0.35399 0.16629 0.6607 0.0
O161 O 0.18166 0.05894 0.88783 0.0
Zn162 Zn 0.15079 0.06181 0.868 0.0
O163 O 0.13537 0.08668 0.89071 0.0
Zn164 Zn 0.11407 0.07506 0.9248 0.0
Zn165 Zn 0.15698 0.1054 0.9141 0.0
Zn166 Zn 0.12127 0.10521 0.85488 0.0
O167 O 0.08324 0.08424 0.90887 0.0
O168 O 0.08781 0.10013 0.85577 0.0
O169 O 0.13709 0.03193 0.87997 0.0
O170 O 0.11618 0.04102 0.92662 0.0
O171 O 0.11994 0.08743 0.97454 0.0
O172 O 0.15086 0.1072 0.96634 0.0
O173 O 0.15687 0.13681 0.89707 0.0
O174 O 0.15537 0.06819 0.81578 0.0
O175 O 0.12583 0.13813 0.86525 0.0
O176 O 0.13683 0.09999 0.80737 0.0
C177 C 0.19444 0.07383 0.9005 0.0
C178 C 0.07522 0.09311 0.88083 0.0
C179 C 0.13559 0.09976 0.98664 0.0
C180 C 0.12519 0.02632 0.90662 0.0
C181 C 0.14219 0.14784 0.88029 0.0
C182 C 0.14998 0.08472 0.79614 0.0
O183 O 0.18731 0.09315 0.90857 0.0
O184 O 0.82973 0.93048 0.6567 0.0
Zn185 Zn 0.82611 0.90173 0.63095 0.0
O186 O 0.84736 0.88025 0.64996 0.0
Zn187 Zn 0.83101 0.85916 0.67977 0.0
Zn188 Zn 0.8691 0.89538 0.67895 0.0
Zn189 Zn 0.86382 0.86658 0.6108 0.0
O190 O 0.83753 0.82854 0.66058 0.0
O191 O 0.85578 0.83375 0.60941 0.0
O192 O 0.79414 0.89345 0.64038 0.0
O193 O 0.79752 0.86544 0.67863 0.0
O194 O 0.8402 0.86106 0.73216 0.0
O195 O 0.86642 0.88709 0.72988 0.0
O196 O 0.90042 0.88946 0.66539 0.0
O197 O 0.8322 0.90836 0.57961 0.0
O198 O 0.89753 0.86823 0.61767 0.0
O199 O 0.8588 0.88409 0.56504 0.0
C200 C 0.84662 0.93904 0.6718 0.0
C201 C 0.84665 0.82094 0.63242 0.0
C202 C 0.85455 0.87346 0.74755 0.0
C203 C 0.78544 0.87944 0.66175 0.0
C204 C 0.90938 0.8783 0.64064 0.0
C205 C 0.84608 0.90049 0.55724 0.0
O206 O 0.86426 0.92784 0.67746 0.0
O207 O 0.81664 0.07308 0.39858 0.0
Zn208 Zn 0.84739 0.07219 0.37842 0.0
O209 O 0.86549 0.09552 0.40034 0.0
Zn210 Zn 0.88756 0.08169 0.43152 0.0
Zn211 Zn 0.84681 0.11529 0.42795 0.0
Zn212 Zn 0.87872 0.11349 0.36274 0.0
O213 O 0.91818 0.09052 0.41342 0.0
O214 O 0.91188 0.10791 0.36191 0.0
O215 O 0.85828 0.04128 0.39014 0.0
O216 O 0.88401 0.04767 0.4313 0.0
O217 O 0.88366 0.09176 0.48327 0.0
O218 O 0.85359 0.11325 0.47969 0.0
O219 O 0.8504 0.14736 0.41546 0.0
O220 O 0.84262 0.07764 0.32617 0.0
O221 O 0.87469 0.14663 0.3712 0.0
O222 O 0.86267 0.10821 0.31612 0.0
C223 C 0.80572 0.08901 0.41249 0.0
C224 C 0.92523 0.10002 0.38517 0.0
C225 C 0.86878 0.10394 0.498 0.0
C226 C 0.87197 0.03416 0.41339 0.0
C227 C 0.8624 0.15741 0.39275 0.0
C228 C 0.84871 0.09351 0.30578 0.0
O229 O 0.8151 0.10706 0.42206 0.0
O230 O 0.67383 0.06924 0.15362 0.0
Zn231 Zn 0.67569 0.09934 0.13112 0.0
O232 O 0.65307 0.11871 0.15202 0.0
Zn233 Zn 0.66751 0.13953 0.18432 0.0
Zn234 Zn 0.63237 0.1006 0.17848 0.0
Zn235 Zn 0.63604 0.13307 0.11424 0.0
O236 O 0.6597 0.17063 0.16742 0.0
O237 O 0.64318 0.16624 0.11469 0.0
O238 O 0.70707 0.10942 0.14171 0.0
O239 O 0.70137 0.13506 0.18335 0.0
O240 O 0.6575 0.13478 0.23613 0.0
O241 O 0.63484 0.10574 0.23048 0.0
O242 O 0.60075 0.10644 0.16674 0.0
O243 O 0.66946 0.0938 0.07932 0.0
O244 O 0.60248 0.13038 0.12205 0.0
O245 O 0.64107 0.11658 0.06754 0.0
C246 C 0.65683 0.05875 0.16498 0.0
C247 C 0.65109 0.17872 0.13918 0.0
C248 C 0.64477 0.11995 0.24985 0.0
C249 C 0.71456 0.12286 0.16504 0.0
C250 C 0.59121 0.11877 0.144 0.0
C251 C 0.65452 0.10108 0.05819 0.0
O252 O 0.63838 0.0686 0.17066 0.0
O253 O 0.67895 0.92971 0.91236 0.0
Zn254 Zn 0.6519 0.93041 0.88158 0.0
O255 O 0.63246 0.90693 0.89894 0.0
Zn256 Zn 0.61062 0.92006 0.93053 0.0
Zn257 Zn 0.65114 0.88636 0.92459 0.0
Zn258 Zn 0.62006 0.89024 0.85976 0.0
O259 O 0.58029 0.91075 0.91213 0.0
O260 O 0.58689 0.89583 0.85875 0.0
O261 O 0.63972 0.96132 0.89026 0.0
O262 O 0.61386 0.95417 0.93109 0.0
O263 O 0.6153 0.9092 0.98169 0.0
O264 O 0.64617 0.8889 0.97669 0.0
O265 O 0.64566 0.85452 0.91288 0.0
O266 O 0.66087 0.92421 0.83083 0.0
O267 O 0.62344 0.85666 0.86624 0.0
O268 O 0.63743 0.89714 0.81478 0.0
C269 C 0.69008 0.91263 0.92161 0.0
C270 C 0.57341 0.90225 0.88303 0.0
C271 C 0.63091 0.89759 0.99567 0.0
C272 C 0.62574 0.96805 0.91346 0.0
C273 C 0.63425 0.84515 0.88884 0.0
C274 C 0.65369 0.91028 0.80791 0.0
O275 O 0.68285 0.8932 0.91469 0.0
O276 O 0.8276 0.06751 0.85945 0.0
Zn277 Zn 0.82507 0.09763 0.88127 0.0
O278 O 0.84788 0.11705 0.86088 0.0
Zn279 Zn 0.83331 0.13846 0.82958 0.0
Zn280 Zn 0.8685 0.0995 0.83322 0.0
Zn281 Zn 0.8652 0.1305 0.89925 0.0
O282 O 0.84108 0.16908 0.84807 0.0
O283 O 0.85819 0.16382 0.90016 0.0
O284 O 0.79369 0.10714 0.86933 0.0
O285 O 0.79945 0.13377 0.8293 0.0
O286 O 0.84344 0.135 0.77773 0.0
O287 O 0.86564 0.10548 0.78138 0.0
O288 O 0.90023 0.10522 0.84465 0.0
O289 O 0.83036 0.09193 0.93322 0.0
O290 O 0.89878 0.1279 0.89087 0.0
O291 O 0.86013 0.1128 0.94515 0.0
C292 C 0.84452 0.0573 0.84722 0.0
C293 C 0.85002 0.17671 0.87633 0.0
C294 C 0.85583 0.12031 0.76299 0.0
C295 C 0.78625 0.12088 0.84639 0.0
C296 C 0.90993 0.11693 0.86799 0.0
C297 C 0.84584 0.09799 0.95426 0.0
O298 O 0.86263 0.06741 0.84013 0.0
O299 O 0.67883 0.06982 0.60055 0.0
Zn300 Zn 0.65099 0.06896 0.62959 0.0
O301 O 0.63149 0.09216 0.61164 0.0
Zn302 Zn 0.61006 0.07862 0.57981 0.0
Zn303 Zn 0.64999 0.11277 0.58577 0.0
Zn304 Zn 0.61852 0.10888 0.65074 0.0
O305 O 0.5796 0.08701 0.59874 0.0
O306 O 0.58521 0.10279 0.65176 0.0
O307 O 0.63927 0.03791 0.62093 0.0
O308 O 0.6138 0.04462 0.57947 0.0
O309 O 0.61457 0.08941 0.52827 0.0
O310 O 0.64488 0.1104 0.53375 0.0
O311 O 0.64428 0.14445 0.59761 0.0
O312 O 0.65945 0.07535 0.68035 0.0
O313 O 0.62133 0.14237 0.6435 0.0
O314 O 0.63639 0.10289 0.69586 0.0
C315 C 0.68999 0.08686 0.59106 0.0
C316 C 0.57214 0.09556 0.6275 0.0
C317 C 0.62999 0.10141 0.5145 0.0
C318 C 0.6256 0.03094 0.59753 0.0
C319 C 0.63239 0.15382 0.62111 0.0
C320 C 0.65257 0.08967 0.7029 0.0
O321 O 0.68192 0.10635 0.59435 0.0
O322 O 0.66734 0.92894 0.35173 0.0
Zn323 Zn 0.66985 0.89974 0.37679 0.0
O324 O 0.6474 0.87964 0.35755 0.0
Zn325 Zn 0.66258 0.85883 0.32595 0.0
Zn326 Zn 0.62595 0.89671 0.33059 0.0
Zn327 Zn 0.63072 0.8655 0.39617 0.0
O328 O 0.65497 0.82797 0.34328 0.0
O329 O 0.638 0.83225 0.39577 0.0
O330 O 0.70155 0.89011 0.36669 0.0
O331 O 0.69644 0.86344 0.3267 0.0
O332 O 0.65293 0.8629 0.27416 0.0
O333 O 0.62817 0.89025 0.27894 0.0
O334 O 0.59441 0.89108 0.3439 0.0
O335 O 0.66389 0.90595 0.42839 0.0
O336 O 0.59689 0.86815 0.38976 0.0
O337 O 0.63653 0.88233 0.4424 0.0
C338 C 0.65043 0.9389 0.33894 0.0
C339 C 0.64621 0.81983 0.37138 0.0
C340 C 0.63921 0.87659 0.26004 0.0
C341 C 0.70938 0.87626 0.34425 0.0
C342 C 0.58521 0.87929 0.36774 0.0
C343 C 0.64975 0.89827 0.45058 0.0
O344 O 0.63184 0.92899 0.33505 0.0
O345 O 0.8125 0.92362 0.11678 0.0
Zn346 Zn 0.84403 0.92346 0.13341 0.0
O347 O 0.86033 0.89926 0.10988 0.0
Zn348 Zn 0.88187 0.91246 0.07727 0.0
Zn349 Zn 0.83989 0.88019 0.08399 0.0
Zn350 Zn 0.87429 0.88056 0.14588 0.0
O351 O 0.91274 0.90367 0.09383 0.0
O352 O 0.90781 0.88588 0.14537 0.0
O353 O 0.85512 0.95424 0.11985 0.0
O354 O 0.87875 0.94657 0.07604 0.0
O355 O 0.87693 0.9014 0.02662 0.0
O356 O 0.84593 0.88132 0.03167 0.0
O357 O 0.84194 0.84792 0.09726 0.0
O358 O 0.84071 0.91788 0.18599 0.0
O359 O 0.86954 0.84749 0.13618 0.0
O360 O 0.85857 0.88564 0.19315 0.0
C361 C 0.80049 0.90841 0.10324 0.0
C362 C 0.92057 0.89401 0.12136 0.0
C363 C 0.86143 0.88967 0.01271 0.0
C364 C 0.86783 0.96068 0.09466 0.0
C365 C 0.85521 0.83723 0.1173 0.0
C366 C 0.84578 0.901 0.205 0.0
O367 O 0.80879 0.89024 0.0918 0.0
O368 O 0.66846 0.56876 0.85556 0.0
Zn369 Zn 0.67176 0.5992 0.87592 0.0
O370 O 0.64931 0.61888 0.85516 0.0
Zn371 Zn 0.66425 0.63979 0.8232 0.0
Zn372 Zn 0.6282 0.60166 0.8279 0.0
Zn373 Zn 0.63254 0.6331 0.89357 0.0
O374 O 0.65702 0.67076 0.84083 0.0
O375 O 0.63989 0.66629 0.89316 0.0
O376 O 0.7032 0.60802 0.86332 0.0
O377 O 0.69804 0.63471 0.82323 0.0
O378 O 0.65426 0.63593 0.77134 0.0
O379 O 0.63064 0.6076 0.77591 0.0
O380 O 0.59666 0.60747 0.84081 0.0
O381 O 0.6669 0.59459 0.92822 0.0
O382 O 0.59894 0.63052 0.8865 0.0
O383 O 0.63782 0.6164 0.94025 0.0
C384 C 0.65154 0.55893 0.84266 0.0
C385 C 0.64826 0.6788 0.86899 0.0
C386 C 0.64113 0.62174 0.75705 0.0
C387 C 0.71095 0.62165 0.84046 0.0
C388 C 0.58738 0.61934 0.86444 0.0
C389 C 0.65191 0.60149 0.94958 0.0
O390 O 0.63391 0.5695 0.83433 0.0
O391 O 0.67788 0.42903 0.11303 0.0
Zn392 Zn 0.64726 0.43041 0.13368 0.0
O393 O 0.62887 0.40693 0.11244 0.0
Zn394 Zn 0.60713 0.42114 0.08105 0.0
Zn395 Zn 0.64732 0.38679 0.08532 0.0
Zn396 Zn 0.61576 0.3888 0.15011 0.0
O397 O 0.57645 0.41433 0.10124 0.0
O398 O 0.58254 0.39463 0.15082 0.0
O399 O 0.63701 0.46166 0.12137 0.0
O400 O 0.61216 0.45497 0.07905 0.0
O401 O 0.61017 0.4098 0.02956 0.0
O402 O 0.64045 0.38863 0.03384 0.0
O403 O 0.64361 0.35471 0.09768 0.0
O404 O 0.65245 0.42485 0.18586 0.0
O405 O 0.61947 0.35545 0.14204 0.0
O406 O 0.63251 0.3942 0.19627 0.0
C407 C 0.68859 0.41274 0.09981 0.0
C408 C 0.56934 0.40415 0.12889 0.0
C409 C 0.62514 0.39749 0.01526 0.0
C410 C 0.62411 0.46862 0.09685 0.0
C411 C 0.63167 0.34463 0.12039 0.0
C412 C 0.64666 0.40886 0.20625 0.0
O413 O 0.67902 0.39464 0.09109 0.0
O414 O 0.85993 0.43273 0.34629 0.0
Zn415 Zn 0.86575 0.40116 0.33427 0.0
O416 O 0.84434 0.3827 0.35887 0.0
Zn417 Zn 0.8602 0.36869 0.39774 0.0
Zn418 Zn 0.82148 0.4027 0.37666 0.0
Zn419 Zn 0.83031 0.36249 0.32576 0.0
O420 O 0.85271 0.33567 0.39667 0.0
O421 O 0.83762 0.33138 0.34278 0.0
O422 O 0.89715 0.39428 0.34654 0.0
O423 O 0.89408 0.37123 0.39221 0.0
O424 O 0.85333 0.38539 0.44361 0.0
O425 O 0.82752 0.41032 0.42766 0.0
O426 O 0.79014 0.39192 0.36775 0.0
O427 O 0.8631 0.39788 0.28182 0.0
O428 O 0.79635 0.36707 0.32518 0.0
O429 O 0.84148 0.36808 0.27496 0.0
C430 C 0.841 0.44017 0.33701 0.0
C431 C 0.84536 0.32326 0.37165 0.0
C432 C 0.84067 0.402 0.45077 0.0
C433 C 0.90603 0.38222 0.37031 0.0
C434 C 0.7829 0.37885 0.34372 0.0
C435 C 0.85367 0.3836 0.26192 0.0
O436 O 0.82343 0.42978 0.34616 0.0
O437 O 0.82292 0.60844 0.56649 0.0
Zn438 Zn 0.85471 0.61497 0.57259 0.0
O439 O 0.86771 0.59346 0.6047 0.0
Zn440 Zn 0.87943 0.61041 0.6448 0.0
Zn441 Zn 0.84534 0.57253 0.6219 0.0
Zn442 Zn 0.89009 0.57662 0.57818 0.0
O443 O 0.91265 0.60501 0.64731 0.0
O444 O 0.91993 0.5858 0.59778 0.0
O445 O 0.85767 0.64639 0.58746 0.0
O446 O 0.87598 0.64389 0.63815 0.0
O447 O 0.86149 0.60449 0.68981 0.0
O448 O 0.83641 0.57946 0.67217 0.0
O449 O 0.85469 0.5405 0.61604 0.0
O450 O 0.86714 0.61319 0.52375 0.0
O451 O 0.88503 0.54307 0.58242 0.0
O452 O 0.88923 0.58353 0.52488 0.0
C453 C 0.8111 0.59127 0.57265 0.0
C454 C 0.92643 0.59644 0.62524 0.0
C455 C 0.84423 0.59251 0.69575 0.0
C456 C 0.86673 0.65553 0.61406 0.0
C457 C 0.87022 0.53132 0.59812 0.0
C458 C 0.87974 0.59936 0.50797 0.0
O459 O 0.8181 0.57528 0.59182 0.0
O460 O 0.66828 0.42805 0.66033 0.0
Zn461 Zn 0.67071 0.39921 0.6345 0.0
O462 O 0.64801 0.37942 0.65339 0.0
Zn463 Zn 0.66221 0.35884 0.68614 0.0
Zn464 Zn 0.62656 0.3972 0.67883 0.0
Zn465 Zn 0.63199 0.36528 0.61456 0.0
O466 O 0.65474 0.32792 0.66895 0.0
O467 O 0.63979 0.3323 0.615 0.0
O468 O 0.70205 0.38896 0.64478 0.0
O469 O 0.69608 0.36312 0.68601 0.0
O470 O 0.6516 0.36368 0.73749 0.0
O471 O 0.62885 0.39261 0.73108 0.0
O472 O 0.5952 0.3902 0.66656 0.0
O473 O 0.66512 0.40586 0.58297 0.0
O474 O 0.59827 0.36701 0.62117 0.0
O475 O 0.63775 0.38243 0.56851 0.0
C476 C 0.65093 0.43859 0.67016 0.0
C477 C 0.64705 0.31984 0.64009 0.0
C478 C 0.63874 0.37853 0.7508 0.0
C479 C 0.7094 0.37533 0.66797 0.0
C480 C 0.58634 0.37785 0.64321 0.0
C481 C 0.65105 0.39838 0.5606 0.0
O482 O 0.63185 0.42932 0.67016 0.0
O483 O 0.81427 0.4238 0.90814 0.0
Zn484 Zn 0.84251 0.42654 0.88074 0.0
O485 O 0.8639 0.40534 0.89989 0.0
Zn486 Zn 0.88483 0.42186 0.92981 0.0
Zn487 Zn 0.84816 0.38358 0.92831 0.0
Zn488 Zn 0.87762 0.38867 0.8611 0.0
O489 O 0.91586 0.4145 0.91159 0.0
O490 O 0.91057 0.39611 0.86065 0.0
O491 O 0.8511 0.45863 0.88829 0.0
O492 O 0.87847 0.45562 0.92767 0.0
O493 O 0.88208 0.41264 0.98235 0.0
O494 O 0.85627 0.38621 0.97908 0.0
O495 O 0.85404 0.35206 0.91539 0.0
O496 O 0.8353 0.41946 0.83001 0.0
O497 O 0.87587 0.35494 0.86829 0.0
O498 O 0.86036 0.39368 0.81506 0.0
C499 C 0.80523 0.40703 0.92296 0.0
C500 C 0.92347 0.4049 0.88379 0.0
C501 C 0.86961 0.39806 0.99721 0.0
C502 C 0.86475 0.46757 0.90989 0.0
C503 C 0.86556 0.34307 0.89107 0.0
C504 C 0.84346 0.40583 0.80753 0.0
O505 O 0.81568 0.38872 0.92674 0.0
O506 O 0.83133 0.65835 0.11721 0.0
Zn507 Zn 0.82372 0.62465 0.11617 0.0
O508 O 0.84479 0.60958 0.14916 0.0
Zn509 Zn 0.86325 0.58822 0.12391 0.0
Zn510 Zn 0.86523 0.62968 0.17391 0.0
Zn511 Zn 0.82792 0.59351 0.18443 0.0
O512 O 0.85707 0.55655 0.1372 0.0
O513 O 0.82875 0.56125 0.17425 0.0
O514 O 0.82719 0.61108 0.06506 0.0
O515 O 0.85715 0.58975 0.07324 0.0
O516 O 0.89564 0.59344 0.12937 0.0
O517 O 0.89797 0.62418 0.16163 0.0
O518 O 0.86356 0.62618 0.22744 0.0
O519 O 0.7908 0.62046 0.13342 0.0
O520 O 0.84014 0.59774 0.2338 0.0
O521 O 0.7957 0.60103 0.18311 0.0
C522 C 0.84468 0.66986 0.13652 0.0
C523 C 0.84135 0.54868 0.15599 0.0
C524 C 0.90723 0.60848 0.14421 0.0
C525 C 0.84247 0.5981 0.05305 0.0
C526 C 0.85378 0.61178 0.24695 0.0
C527 C 0.78299 0.6109 0.16118 0.0
O528 O 0.85751 0.66067 0.15921 0.0
O529 O 0.67936 0.56937 0.39209 0.0
Zn530 Zn 0.64838 0.56776 0.37347 0.0
O531 O 0.63063 0.59157 0.39484 0.0
Zn532 Zn 0.60909 0.57832 0.42735 0.0
Zn533 Zn 0.64952 0.61161 0.42132 0.0
Zn534 Zn 0.61713 0.60902 0.35672 0.0
O535 O 0.57852 0.58649 0.40929 0.0
O536 O 0.58387 0.60265 0.35643 0.0
O537 O 0.63803 0.53693 0.38751 0.0
O538 O 0.6127 0.54438 0.42894 0.0
O539 O 0.61326 0.58938 0.47849 0.0
O540 O 0.64409 0.60963 0.47364 0.0
O541 O 0.64465 0.64357 0.40925 0.0
O542 O 0.65267 0.57231 0.32086 0.0
O543 O 0.62037 0.64237 0.36509 0.0
O544 O 0.63373 0.6035 0.31008 0.0
C545 C 0.69046 0.58582 0.40383 0.0
C546 C 0.57095 0.59511 0.38072 0.0
C547 C 0.62871 0.60109 0.49258 0.0
C548 C 0.62458 0.53041 0.41163 0.0
C549 C 0.63231 0.6534 0.38681 0.0
C550 C 0.64728 0.58825 0.3001 0.0
O551 O 0.68117 0.60406 0.41281 0.0
O552 O 0.31721 0.42455 0.1503 0.0
Zn553 Zn 0.31913 0.39395 0.12917 0.0
O554 O 0.34249 0.37685 0.15288 0.0
Zn555 Zn 0.32864 0.35549 0.18482 0.0
Zn556 Zn 0.36098 0.39727 0.179 0.0
Zn557 Zn 0.36155 0.36275 0.11778 0.0
O558 O 0.33603 0.32436 0.16726 0.0
O559 O 0.35484 0.32955 0.11667 0.0
O560 O 0.28832 0.38196 0.13824 0.0
O561 O 0.29481 0.3608 0.18559 0.0
O562 O 0.33959 0.35972 0.2358 0.0
O563 O 0.35823 0.39173 0.23123 0.0
O564 O 0.39315 0.39527 0.16614 0.0
O565 O 0.32695 0.39922 0.07775 0.0
O566 O 0.39451 0.36634 0.12957 0.0
O567 O 0.35807 0.37934 0.07088 0.0
C568 C 0.33266 0.43654 0.16321 0.0
C569 C 0.34573 0.31668 0.13961 0.0
C570 C 0.35019 0.37595 0.24988 0.0
C571 C 0.28126 0.37103 0.16503 0.0
C572 C 0.40423 0.38148 0.14757 0.0
C573 C 0.34378 0.39336 0.05917 0.0
O574 O 0.35153 0.42838 0.17131 0.0
O575 O 0.31781 0.56511 0.9153 0.0
Zn576 Zn 0.34478 0.56507 0.88419 0.0
O577 O 0.36364 0.58904 0.90073 0.0
Zn578 Zn 0.38515 0.57644 0.93343 0.0
Zn579 Zn 0.3442 0.60963 0.92491 0.0
Zn580 Zn 0.37638 0.60512 0.86094 0.0
O581 O 0.41565 0.58511 0.91482 0.0
O582 O 0.4097 0.59937 0.86074 0.0
O583 O 0.35777 0.5346 0.89256 0.0
O584 O 0.38196 0.54227 0.93545 0.0
O585 O 0.38012 0.58845 0.9839 0.0
O586 O 0.34945 0.60883 0.97694 0.0
O587 O 0.34865 0.64115 0.9106 0.0
O588 O 0.33568 0.57071 0.83365 0.0
O589 O 0.37251 0.63883 0.86589 0.0
O590 O 0.35922 0.59735 0.816 0.0
C591 C 0.30607 0.58183 0.92433 0.0
C592 C 0.42289 0.59304 0.88546 0.0
C593 C 0.36449 0.60058 0.99676 0.0
C594 C 0.37099 0.52814 0.91695 0.0
C595 C 0.36057 0.6504 0.88697 0.0
C596 C 0.34288 0.58414 0.80996 0.0
O597 O 0.31256 0.60148 0.91703 0.0
O598 O 0.15367 0.57099 0.66251 0.0
Zn599 Zn 0.16564 0.59874 0.64041 0.0
O600 O 0.14807 0.62415 0.65632 0.0
Zn601 Zn 0.167 0.6438 0.68482 0.0
Zn602 Zn 0.12397 0.61477 0.68684 0.0
Zn603 Zn 0.13428 0.63821 0.6148 0.0
O604 O 0.1626 0.67481 0.66502 0.0
O605 O 0.14484 0.67039 0.61326 0.0
O606 O 0.19799 0.60153 0.65428 0.0
O607 O 0.19963 0.63424 0.68192 0.0
O608 O 0.15916 0.64292 0.73832 0.0
O609 O 0.12827 0.62277 0.73696 0.0
O610 O 0.0945 0.62608 0.67284 0.0
O611 O 0.16236 0.59307 0.58828 0.0
O612 O 0.1004 0.63947 0.61897 0.0
O613 O 0.13914 0.61956 0.56987 0.0
C614 C 0.13541 0.56684 0.67842 0.0
C615 C 0.15437 0.68277 0.63641 0.0
C616 C 0.14282 0.63354 0.75425 0.0
C617 C 0.20911 0.61658 0.67032 0.0
C618 C 0.08727 0.63468 0.64442 0.0
C619 C 0.15053 0.60189 0.56403 0.0
O620 O 0.12188 0.58216 0.68721 0.0
O621 O 0.17715 0.43133 0.41391 0.0
Zn622 Zn 0.1495 0.43133 0.38446 0.0
O623 O 0.13118 0.40714 0.40221 0.0
Zn624 Zn 0.11035 0.41878 0.43661 0.0
Zn625 Zn 0.15171 0.38676 0.42424 0.0
Zn626 Zn 0.11748 0.39123 0.36347 0.0
O627 O 0.07932 0.41075 0.41913 0.0
O628 O 0.0843 0.39768 0.36411 0.0
O629 O 0.13642 0.46167 0.39474 0.0
O630 O 0.11379 0.45292 0.43957 0.0
O631 O 0.11647 0.40524 0.486 0.0
O632 O 0.14838 0.38718 0.47676 0.0
O633 O 0.14679 0.3553 0.41026 0.0
O634 O 0.15811 0.42521 0.33337 0.0
O635 O 0.12071 0.35764 0.36889 0.0
O636 O 0.13463 0.39794 0.31822 0.0
C637 C 0.18939 0.41454 0.4207 0.0
C638 C 0.07153 0.40363 0.38966 0.0
C639 C 0.1331 0.39395 0.49757 0.0
C640 C 0.12399 0.46749 0.42066 0.0
C641 C 0.13365 0.34608 0.3884 0.0
C642 C 0.15091 0.41097 0.31091 0.0
O643 O 0.18285 0.39508 0.41247 0.0
O644 O 0.32327 0.56546 0.35127 0.0
Zn645 Zn 0.32146 0.59462 0.37688 0.0
O646 O 0.34313 0.61537 0.35661 0.0
Zn647 Zn 0.3269 0.63665 0.32685 0.0
Zn648 Zn 0.36423 0.59901 0.32797 0.0
Zn649 Zn 0.36054 0.62922 0.39443 0.0
O650 O 0.33254 0.66742 0.34689 0.0
O651 O 0.35334 0.66223 0.39547 0.0
O652 O 0.28957 0.60391 0.36901 0.0
O653 O 0.29345 0.63018 0.32785 0.0
O654 O 0.3369 0.63493 0.27456 0.0
O655 O 0.36278 0.60853 0.27782 0.0
O656 O 0.39585 0.60277 0.34197 0.0
O657 O 0.32855 0.58828 0.42803 0.0
O658 O 0.39401 0.62672 0.38646 0.0
O659 O 0.35575 0.61232 0.44068 0.0
C660 C 0.33923 0.55638 0.33438 0.0
C661 C 0.34279 0.67499 0.37404 0.0
C662 C 0.35155 0.62248 0.25982 0.0
C663 C 0.28112 0.61722 0.34633 0.0
C664 C 0.40535 0.61486 0.365 0.0
C665 C 0.34294 0.59619 0.44949 0.0
O666 O 0.35706 0.56694 0.32724 0.0
O667 O 0.18226 0.5657 0.11732 0.0
Zn668 Zn 0.15057 0.56479 0.13372 0.0
O669 O 0.1339 0.58931 0.11186 0.0
Zn670 Zn 0.11236 0.57732 0.07836 0.0
Zn671 Zn 0.15425 0.60895 0.08723 0.0
Zn672 Zn 0.11979 0.60695 0.14892 0.0
O673 O 0.08137 0.58426 0.09692 0.0
O674 O 0.08664 0.60119 0.14894 0.0
O675 O 0.13991 0.53443 0.1173 0.0
O676 O 0.11615 0.54353 0.07434 0.0
O677 O 0.117 0.59051 0.02848 0.0
O678 O 0.1493 0.60819 0.03495 0.0
O679 O 0.15032 0.64089 0.10009 0.0
O680 O 0.15334 0.56887 0.18687 0.0
O681 O 0.12384 0.64016 0.1411 0.0
O682 O 0.13506 0.60072 0.1956 0.0
C683 C 0.19415 0.58168 0.10573 0.0
C684 C 0.07373 0.59303 0.12535 0.0
C685 C 0.13337 0.60151 0.01541 0.0
C686 C 0.1272 0.52889 0.09165 0.0
C687 C 0.13718 0.65094 0.12113 0.0
C688 C 0.14781 0.58518 0.20681 0.0
O689 O 0.1856 0.60015 0.09613 0.0
O690 O 0.15494 0.42363 0.83103 0.0
Zn691 Zn 0.1654 0.39821 0.86111 0.0
O692 O 0.1483 0.37165 0.849 0.0
Zn693 Zn 0.16838 0.35103 0.82496 0.0
Zn694 Zn 0.12529 0.37732 0.81432 0.0
Zn695 Zn 0.13284 0.36017 0.89114 0.0
O696 O 0.16319 0.32116 0.84779 0.0
O697 O 0.14063 0.32716 0.89437 0.0
O698 O 0.19856 0.39445 0.85152 0.0
O699 O 0.20085 0.36011 0.82981 0.0
O700 O 0.16249 0.35014 0.77099 0.0
O701 O 0.12684 0.35942 0.77047 0.0
O702 O 0.09461 0.37481 0.83252 0.0
O703 O 0.16033 0.40677 0.91198 0.0
O704 O 0.09879 0.36288 0.88756 0.0
O705 O 0.1399 0.37922 0.93485 0.0
C706 C 0.14051 0.42457 0.80636 0.0
C707 C 0.15228 0.31414 0.87474 0.0
C708 C 0.14416 0.35279 0.75428 0.0
C709 C 0.21014 0.37828 0.8394 0.0
C710 C 0.08633 0.36906 0.86204 0.0
C711 C 0.15013 0.39786 0.93806 0.0
O712 O 0.12864 0.40797 0.7976 0.0
O713 O 0.31321 0.42793 0.61548 0.0
Zn714 Zn 0.34467 0.42724 0.6329 0.0
O715 O 0.36092 0.40291 0.61019 0.0
Zn716 Zn 0.38302 0.41537 0.57785 0.0
Zn717 Zn 0.34029 0.38456 0.58364 0.0
Zn718 Zn 0.37421 0.3843 0.64683 0.0
O719 O 0.41349 0.40616 0.59498 0.0
O720 O 0.40782 0.38861 0.6465 0.0
O721 O 0.35664 0.45741 0.61986 0.0
O722 O 0.38049 0.44949 0.57646 0.0
O723 O 0.37842 0.40427 0.52713 0.0
O724 O 0.34521 0.38785 0.53123 0.0
O725 O 0.34306 0.35197 0.59459 0.0
O726 O 0.34136 0.42242 0.68536 0.0
O727 O 0.36857 0.35152 0.63704 0.0
O728 O 0.35902 0.39027 0.69433 0.0
C729 C 0.301 0.41241 0.60325 0.0
C730 C 0.42091 0.3964 0.62268 0.0
C731 C 0.36163 0.39479 0.51283 0.0
C732 C 0.36968 0.46368 0.59506 0.0
C733 C 0.35537 0.34129 0.61615 0.0
C734 C 0.34654 0.4061 0.70544 0.0
O735 O 0.30918 0.39385 0.5933 0.0
H736 H 0.24096 0.15064 0.30014 0.0
H737 H 0.31996 0.05658 0.23248 0.0
H738 H 0.23939 0.08469 0.34656 0.0
H739 H 0.34141 0.12539 0.23195 0.0
H740 H 0.29077 0.06627 0.27534 0.0
H741 H 0.278 0.14231 0.27564 0.0
C742 C 0.24854 0.13459 0.30578 0.0
C743 C 0.23689 0.11831 0.32523 0.0
C744 C 0.3022 0.07915 0.26648 0.0
C745 C 0.27903 0.10851 0.29661 0.0
C746 C 0.3189 0.0736 0.24209 0.0
C747 C 0.33314 0.09018 0.22859 0.0
C748 C 0.29927 0.10155 0.27662 0.0
C749 C 0.33089 0.11203 0.2418 0.0
C750 C 0.2697 0.12986 0.29181 0.0
C751 C 0.24763 0.09778 0.33167 0.0
N752 N 0.31392 0.1172 0.26442 0.0
N753 N 0.26785 0.09331 0.31679 0.0
H754 H 0.11429 0.09843 0.47662 0.0
H755 H 0.09357 0.99346 0.55008 0.0
H756 H 0.18119 0.07171 0.4728 0.0
H757 H 0.15783 0.00124 0.60032 0.0
H758 H 0.09885 0.02974 0.52094 0.0
H759 H 0.10451 0.07027 0.52136 0.0
C760 C 0.1271 0.08707 0.4859 0.0
C761 C 0.14858 0.08732 0.47079 0.0
C762 C 0.11148 0.02377 0.53917 0.0
C763 C 0.1374 0.05501 0.52154 0.0
C764 C 0.1085 0.00303 0.55573 0.0
C765 C 0.12525 0.99425 0.57772 0.0
C766 C 0.13157 0.03554 0.54401 0.0
C767 C 0.14438 0.00735 0.58377 0.0
C768 C 0.1214 0.07084 0.51106 0.0
C769 C 0.16442 0.07202 0.48358 0.0
N770 N 0.14727 0.02703 0.56631 0.0
N771 N 0.15849 0.05644 0.50815 0.0
H772 H 0.26559 0.92166 0.84019 0.0
H773 H 0.15931 0.87623 0.73432 0.0
H774 H 0.25833 0.85288 0.80782 0.0
H775 H 0.18364 0.94389 0.72581 0.0
H776 H 0.18912 0.86806 0.77687 0.0
H777 H 0.22931 0.93006 0.81365 0.0
C778 C 0.25621 0.90819 0.82815 0.0
C779 C 0.2652 0.88653 0.82596 0.0
C780 C 0.18761 0.8848 0.76618 0.0
C781 C 0.22353 0.89614 0.79567 0.0
C782 C 0.17048 0.88957 0.74217 0.0
C783 C 0.16904 0.91078 0.72628 0.0
C784 C 0.20319 0.90144 0.77482 0.0
C785 C 0.1842 0.92729 0.73722 0.0
C786 C 0.23554 0.91308 0.81286 0.0
C787 C 0.25219 0.86984 0.80988 0.0
N788 N 0.20071 0.92224 0.76064 0.0
N789 N 0.23207 0.87502 0.79519 0.0
H790 H 0.31456 0.91732 0.98557 0.0
H791 H 0.4032 0.0009 0.05824 0.0
H792 H 0.38471 0.90102 0.98324 0.0
H793 H 0.33694 0.99754 0.10318 0.0
H794 H 0.39737 0.96396 0.03174 0.0
H795 H 0.3222 0.946 0.03018 0.0
C796 C 0.33148 0.91933 0.99522 0.0
C797 C 0.34899 0.90669 0.9807 0.0
C798 C 0.3843 0.97113 0.04802 0.0
C799 C 0.35801 0.94014 0.03072 0.0
C800 C 0.38761 0.99224 0.06316 0.0
C801 C 0.37051 0.00249 0.08285 0.0
C802 C 0.36354 0.9604 0.05185 0.0
C803 C 0.35063 0.99039 0.08823 0.0
C804 C 0.33586 0.93578 0.02058 0.0
C805 C 0.37066 0.91022 0.99392 0.0
N806 N 0.34753 0.97025 0.07224 0.0
N807 N 0.37464 0.92697 0.01752 0.0
H808 H 0.32443 0.93409 0.25347 0.0
H809 H 0.23586 0.84483 0.19685 0.0
H810 H 0.33621 0.86349 0.26736 0.0
H811 H 0.23983 0.9091 0.14526 0.0
H812 H 0.27331 0.85081 0.22109 0.0
H813 H 0.29469 0.92536 0.21125 0.0
C814 C 0.3212 0.91677 0.24692 0.0
C815 C 0.33281 0.89953 0.26424 0.0
C816 C 0.26615 0.86342 0.20392 0.0
C817 C 0.29822 0.88939 0.21677 0.0
C818 C 0.24474 0.86002 0.1901 0.0
C819 C 0.23456 0.87652 0.16912 0.0
C820 C 0.27732 0.88369 0.19743 0.0
C821 C 0.24694 0.89589 0.16128 0.0
C822 C 0.30413 0.91179 0.2229 0.0
C823 C 0.32778 0.87737 0.25471 0.0
N824 N 0.26745 0.89912 0.17597 0.0
N825 N 0.31054 0.87294 0.2323 0.0
H826 H 0.32853 0.99294 0.39861 0.0
H827 H 0.38113 0.08726 0.52253 0.0
H828 H 0.39395 0.98921 0.44608 0.0
H829 H 0.31034 0.07441 0.52057 0.0
H830 H 0.38664 0.05886 0.47694 0.0
H831 H 0.32276 0.02935 0.42716 0.0
C832 C 0.34192 1e-05 0.41429 0.0
C833 C 0.3618 0.98796 0.41999 0.0
C834 C 0.36983 0.06263 0.48575 0.0
C835 C 0.35526 0.02964 0.45241 0.0
C836 C 0.36662 0.07901 0.51144 0.0
C837 C 0.34523 0.08321 0.52525 0.0
C838 C 0.35153 0.05022 0.47366 0.0
C839 C 0.32704 0.07185 0.51032 0.0
C840 C 0.3385 0.0207 0.43075 0.0
C841 C 0.37838 0.99784 0.44101 0.0
N842 N 0.33063 0.05556 0.48559 0.0
N843 N 0.37473 0.01806 0.45644 0.0
H844 H 0.17258 0.05377 0.75638 0.0
H845 H 0.2514 0.14585 0.66948 0.0
H846 H 0.15805 0.1243 0.76132 0.0
H847 H 0.26089 0.07484 0.65901 0.0
H848 H 0.21384 0.13886 0.69403 0.0
H849 H 0.20112 0.06133 0.71174 0.0
C850 C 0.17503 0.07082 0.74749 0.0
C851 C 0.16296 0.08841 0.76294 0.0
C852 C 0.2239 0.12483 0.68546 0.0
C853 C 0.19627 0.09736 0.71227 0.0
C854 C 0.24523 0.12886 0.67112 0.0
C855 C 0.25911 0.11088 0.66202 0.0
C856 C 0.21664 0.10268 0.69091 0.0
C857 C 0.2506 0.08916 0.66554 0.0
C858 C 0.19146 0.07517 0.72204 0.0
C859 C 0.16691 0.11018 0.7502 0.0
N860 N 0.23011 0.08567 0.68002 0.0
N861 N 0.18351 0.11409 0.72618 0.0
H862 H 0.11045 0.89835 0.01727 0.0
H863 H 0.09471 0.00489 0.94929 0.0
H864 H 0.17958 0.91851 0.01193 0.0
H865 H 0.15597 0.99392 0.89144 0.0
H866 H 0.09878 0.96786 0.9763 0.0
H867 H 0.10113 0.92756 0.9742 0.0
C868 C 0.1238 0.90843 0.00627 0.0
C869 C 0.14584 0.90609 0.01855 0.0
C870 C 0.11098 0.97329 0.95691 0.0
C871 C 0.13515 0.9398 0.9698 0.0
C872 C 0.10872 0.99449 0.94162 0.0
C873 C 0.12497 0.00254 0.91798 0.0
C874 C 0.1299 0.96025 0.94913 0.0
C875 C 0.14292 0.98837 0.90929 0.0
C876 C 0.11837 0.92533 0.98209 0.0
C877 C 0.16235 0.91983 0.00346 0.0
N878 N 0.14518 0.96816 0.92549 0.0
N879 N 0.15665 0.93619 0.98007 0.0
H880 H 0.75889 0.91603 0.6512 0.0
H881 H 0.65809 0.87144 0.77053 0.0
H882 H 0.75792 0.84983 0.69676 0.0
H883 H 0.6812 0.93971 0.773 0.0
H884 H 0.68698 0.86278 0.72655 0.0
H885 H 0.72274 0.92367 0.67889 0.0
C886 C 0.75085 0.90286 0.66622 0.0
C887 C 0.76162 0.88227 0.6719 0.0
C888 C 0.68536 0.87974 0.73621 0.0
C889 C 0.72014 0.89101 0.70347 0.0
C890 C 0.66877 0.88478 0.76105 0.0
C891 C 0.66729 0.90635 0.77563 0.0
C892 C 0.70028 0.89646 0.72531 0.0
C893 C 0.68181 0.92286 0.76262 0.0
C894 C 0.73028 0.90734 0.6822 0.0
C895 C 0.75034 0.86597 0.69188 0.0
N896 N 0.69777 0.91756 0.73831 0.0
N897 N 0.73026 0.87073 0.70712 0.0
H898 H 0.83911 0.0039 0.39822 0.0
H899 H 0.88625 0.90794 0.52494 0.0
H900 H 0.90191 0.00993 0.45354 0.0
H901 H 0.8163 0.92454 0.51754 0.0
H902 H 0.89466 0.93758 0.48189 0.0
H903 H 0.83369 0.96714 0.42518 0.0
C904 C 0.85207 0.99731 0.41532 0.0
C905 C 0.87095 0.01021 0.42386 0.0
C906 C 0.87744 0.93432 0.48911 0.0
C907 C 0.86476 0.96798 0.45457 0.0
C908 C 0.87258 0.91726 0.51333 0.0
C909 C 0.85051 0.91379 0.52484 0.0
C910 C 0.86007 0.94761 0.47575 0.0
C911 C 0.83352 0.92669 0.5094 0.0
C912 C 0.84884 0.97636 0.43083 0.0
C913 C 0.88704 0.0007 0.44639 0.0
N914 N 0.83866 0.94308 0.48575 0.0
N915 N 0.88352 0.9802 0.46114 0.0
H916 H 0.73951 0.15294 0.20335 0.0
H917 H 0.82543 0.06328 0.26551 0.0
H918 H 0.74402 0.08899 0.15107 0.0
H919 H 0.8404 0.1336 0.27357 0.0
H920 H 0.79608 0.07203 0.22249 0.0
H921 H 0.77664 0.14663 0.22883 0.0
C922 C 0.74846 0.13778 0.19667 0.0
C923 C 0.73853 0.12145 0.17515 0.0
C924 C 0.80615 0.0855 0.23306 0.0
C925 C 0.78079 0.11389 0.20491 0.0
C926 C 0.82296 0.08049 0.25754 0.0
C927 C 0.83539 0.09771 0.27328 0.0
C928 C 0.8013 0.10791 0.22501 0.0
C929 C 0.83132 0.11976 0.26205 0.0
C930 C 0.76966 0.13419 0.2112 0.0
C931 C 0.75096 0.10208 0.16747 0.0
N932 N 0.81428 0.12427 0.23928 0.0
N933 N 0.77121 0.09864 0.18291 0.0
H934 H 0.5948 0.99148 0.95277 0.0
H935 H 0.6147 0.097 0.02293 0.0
H936 H 0.65882 -0.0013 0.90129 0.0
H937 H 0.68295 0.07382 0.02081 0.0
H938 H 0.60479 0.06786 0.9802 0.0
H939 H 0.60004 0.02816 0.98028 0.0
C940 C 0.60969 0.00099 0.94653 0.0
C941 C 0.62635 0.99191 0.92459 0.0
C942 C 0.62197 0.06934 0.9888 0.0
C943 C 0.63261 0.03388 0.95638 0.0
C944 C 0.62775 0.0862 0.01279 0.0
C945 C 0.6497 0.08778 0.0258 0.0
C946 C 0.6383 0.05408 0.97741 0.0
C947 C 0.66581 0.07314 0.01178 0.0
C948 C 0.61264 0.02201 0.96215 0.0
C949 C 0.64543 0.005 0.9178 0.0
N950 N 0.65977 0.05685 0.98852 0.0
N951 N 0.64825 0.02503 0.93425 0.0
H952 H 0.76117 0.15074 0.80749 0.0
H953 H 0.67815 0.05976 0.74008 0.0
H954 H 0.75745 0.08613 0.8581 0.0
H955 H 0.66024 0.12952 0.73605 0.0
H956 H 0.70757 0.06876 0.78287 0.0
H957 H 0.72462 0.14374 0.78027 0.0
C958 C 0.75252 0.13529 0.81343 0.0
C959 C 0.76251 0.119 0.83507 0.0
C960 C 0.69688 0.08203 0.7732 0.0
C961 C 0.72097 0.11067 0.80327 0.0
C962 C 0.68006 0.07689 0.74885 0.0
C963 C 0.66665 0.09388 0.73455 0.0
C964 C 0.70082 0.10441 0.78249 0.0
C965 C 0.67003 0.11585 0.74663 0.0
C966 C 0.73166 0.13131 0.7979 0.0
C967 C 0.75047 0.09923 0.8417 0.0
N968 N 0.68709 0.12056 0.76928 0.0
N969 N 0.73059 0.09544 0.82532 0.0
H970 H 0.65865 0.00054 0.61123 0.0
H971 H 0.60988 0.90584 0.48384 0.0
H972 H 0.59515 0.007 0.5581 0.0
H973 H 0.68001 0.92185 0.49012 0.0
H974 H 0.60204 0.93516 0.5276 0.0
H975 H 0.66379 0.96403 0.58333 0.0
C976 C 0.64548 0.99408 0.59446 0.0
C977 C 0.62647 0.00704 0.58681 0.0
C978 C 0.61917 0.93184 0.51997 0.0
C979 C 0.63234 0.96509 0.55497 0.0
C980 C 0.62372 0.91496 0.49532 0.0
C981 C 0.64566 0.9114 0.48328 0.0
C982 C 0.63674 0.94489 0.53323 0.0
C983 C 0.66286 0.92405 0.49863 0.0
C984 C 0.64855 0.97328 0.57838 0.0
C985 C 0.61012 0.99771 0.56459 0.0
N986 N 0.65804 0.94029 0.52269 0.0
N987 N 0.61348 0.97736 0.5493 0.0
H988 H 0.83612 0.86065 0.23572 0.0
H989 H 0.73884 0.91017 0.35825 0.0
H990 H 0.82315 0.93124 0.24654 0.0
H991 H 0.73473 0.84598 0.30665 0.0
H992 H 0.77607 0.91545 0.33272 0.0
H993 H 0.80572 0.85295 0.27747 0.0
C994 C 0.82742 0.8746 0.24772 0.0
C995 C 0.83217 0.89667 0.23734 0.0
C996 C 0.76715 0.90006 0.32752 0.0
C997 C 0.79722 0.88785 0.28505 0.0
C998 C 0.74592 0.89692 0.34225 0.0
C999 C 0.73346 0.87763 0.33441 0.0
C1000 C 0.77624 0.88365 0.30522 0.0
C1001 C 0.7436 0.86117 0.31325 0.0
C1002 C 0.80988 0.87013 0.27126 0.0
C1003 C 0.82004 0.91398 0.25359 0.0
N1004 N 0.76433 0.8646 0.29926 0.0
N1005 N 0.80303 0.9092 0.2764 0.0
H1006 H 0.88611 0.08696 0.98368 0.0
H1007 H 0.83574 0.9919 0.1098 0.0
H1008 H 0.81537 0.07524 0.99504 0.0
H1009 H 0.89775 0.98379 0.05274 0.0
H1010 H 0.83132 0.02892 0.08304 0.0
H1011 H 0.89337 0.05589 0.0246 0.0
C1012 C 0.87207 0.07839 0.99571 0.0
C1013 C 0.85006 0.08376 0.98589 0.0
C1014 C 0.84606 0.01916 0.07688 0.0
C1015 C 0.85834 0.04813 0.03259 0.0
C1016 C 0.84872 -0.00194 0.0923 0.0
C1017 C 0.86714 0.98456 0.08341 0.0
C1018 C 0.86212 0.02712 0.05287 0.0
C1019 C 0.88325 0.99351 0.06025 0.0
C1020 C 0.87627 0.06049 0.0187 0.0
C1021 C 0.83258 0.07171 1.00186 0.0
N1022 N 0.88034 0.01419 0.04573 0.0
N1023 N 0.83709 0.05443 0.02428 0.0
H1024 H 0.73923 0.58661 0.85284 0.0
H1025 H 0.83827 0.63209 0.73048 0.0
H1026 H 0.73672 0.65125 0.80207 0.0
H1027 H 0.81766 0.56305 0.73199 0.0
H1028 H 0.80864 0.6408 0.77341 0.0
H1029 H 0.77559 0.57989 0.8252 0.0
C1030 C 0.74653 0.59966 0.83661 0.0
C1031 C 0.73474 0.6195 0.82956 0.0
C1032 C 0.81099 0.62369 0.76488 0.0
C1033 C 0.77649 0.61182 0.79808 0.0
C1034 C 0.82801 0.61863 0.74072 0.0
C1035 C 0.83041 0.59678 0.72764 0.0
C1036 C 0.79664 0.60669 0.77664 0.0
C1037 C 0.81636 0.58009 0.74135 0.0
C1038 C 0.76723 0.59569 0.8207 0.0
C1039 C 0.7451 0.63566 0.80806 0.0
N1040 N 0.80004 0.58539 0.76503 0.0
N1041 N 0.76535 0.63143 0.79293 0.0
H1042 H 0.68281 0.57967 0.99039 0.0
H1043 H 0.65513 0.49999 0.11668 0.0
H1044 H 0.61201 0.59155 0.98131 0.0
H1045 H 0.59741 0.49149 0.04958 0.0
H1046 H 0.6619 0.53638 0.08922 0.0
H1047 H 0.67523 0.55046 0.03418 0.0
C1048 C 0.6657 0.57662 0.99847 0.0
C1049 C 0.64805 0.58825 0.98236 0.0
C1050 C 0.64769 0.5266 0.08066 0.0
C1051 C 0.63915 0.55437 0.03198 0.0
C1052 C 0.64363 0.50588 0.09659 0.0
C1053 C 0.62579 0.49239 0.08516 0.0
C1054 C 0.63376 0.53408 0.05318 0.0
C1055 C 0.61149 0.50112 0.05904 0.0
C1056 C 0.66136 0.55991 0.02352 0.0
C1057 C 0.62616 0.58326 0.9934 0.0
N1058 N 0.61585 0.52134 0.04383 0.0
N1059 N 0.6223 0.56634 0.01685 0.0
H1060 H 0.67036 0.43881 0.24651 0.0
H1061 H 0.75833 0.34933 0.30357 0.0
H1062 H 0.65618 0.36843 0.23653 0.0
H1063 H 0.75311 0.41226 0.35871 0.0
H1064 H 0.7211 0.35571 0.27836 0.0
H1065 H 0.70058 0.42983 0.28794 0.0
C1066 C 0.6732 0.42152 0.25375 0.0
C1067 C 0.66066 0.40438 0.23799 0.0
C1068 C 0.72797 0.3679 0.29652 0.0
C1069 C 0.69578 0.39393 0.28436 0.0
C1070 C 0.74923 0.36428 0.3109 0.0
C1071 C 0.75896 0.38028 0.33327 0.0
C1072 C 0.71658 0.38793 0.30379 0.0
C1073 C 0.74632 0.3994 0.3417 0.0
C1074 C 0.69051 0.41639 0.27729 0.0
C1075 C 0.66527 0.38222 0.24817 0.0
N1076 N 0.72603 0.40289 0.32644 0.0
N1077 N 0.68277 0.37761 0.27002 0.0
H1078 H 0.83677 0.50236 0.61727 0.0
H1079 H 0.80992 0.42658 0.48748 0.0
H1080 H 0.89888 0.50501 0.55903 0.0
H1081 H 0.87927 0.40704 0.48849 0.0
H1082 H 0.81772 0.45391 0.53388 0.0
H1083 H 0.82906 0.4659 0.59105 0.0
C1084 C 0.84904 0.49514 0.59953 0.0
C1085 C 0.86831 0.50711 0.58975 0.0
C1086 C 0.83111 0.44315 0.52487 0.0
C1087 C 0.85927 0.46546 0.55918 0.0
C1088 C 0.82666 0.42759 0.49825 0.0
C1089 C 0.84394 0.41448 0.48421 0.0
C1090 C 0.85313 0.44599 0.53697 0.0
C1091 C 0.86541 0.41668 0.49884 0.0
C1092 C 0.84446 0.47439 0.58431 0.0
C1093 C 0.88365 0.49662 0.56693 0.0
N1094 N 0.86953 0.43257 0.52378 0.0
N1095 N 0.87867 0.47651 0.55209 0.0
H1096 H 0.73405 0.34469 0.70577 0.0
H1097 H 0.84022 0.36626 0.77146 0.0
H1098 H 0.73909 0.40909 0.6548 0.0
H1099 H 0.81528 0.4339 0.77166 0.0
H1100 H 0.81085 0.35598 0.72929 0.0
H1101 H 0.77121 0.35041 0.73132 0.0
C1102 C 0.74317 0.35978 0.69926 0.0
C1103 C 0.73337 0.37642 0.6781 0.0
C1104 C 0.81202 0.37312 0.73824 0.0
C1105 C 0.77585 0.38318 0.70753 0.0
C1106 C 0.82899 0.37911 0.76188 0.0
C1107 C 0.83009 0.40096 0.77538 0.0
C1108 C 0.79622 0.38918 0.72775 0.0
C1109 C 0.81494 0.41683 0.76219 0.0
C1110 C 0.76446 0.36299 0.7137 0.0
C1111 C 0.74597 0.39574 0.6708 0.0
N1112 N 0.79856 0.4106 0.73927 0.0
N1113 N 0.76629 0.3988 0.68615 0.0
H1114 H 0.80759 0.57961 0.01603 0.0
H1115 H 0.82946 0.49501 0.89357 0.0
H1116 H 0.87806 0.5936 0.00961 0.0
H1117 H 0.89311 0.49512 0.94716 0.0
H1118 H 0.82185 0.5323 0.9172 0.0
H1119 H 0.81227 0.55068 0.97058 0.0
C1120 C 0.82379 0.57746 0.00366 0.0
C1121 C 0.84245 0.58905 0.01656 0.0
C1122 C 0.83753 0.52423 0.92357 0.0
C1123 C 0.84817 0.55549 0.96554 0.0
C1124 C 0.84205 0.50299 0.90978 0.0
C1125 C 0.86193 0.49168 0.91867 0.0
C1126 C 0.85308 0.53441 0.94616 0.0
C1127 C 0.87751 0.50301 0.93982 0.0
C1128 C 0.82656 0.56072 0.97795 0.0
C1129 C 0.86323 0.58505 1.00035 0.0
N1130 N 0.87272 0.52367 0.9529 0.0
N1131 N 0.86565 0.56821 0.97653 0.0
H1132 H 0.76007 0.57236 0.16465 0.0
H1133 H 0.65531 0.62714 0.26318 0.0
H1134 H 0.75128 0.64351 0.17425 0.0
H1135 H 0.67118 0.55682 0.26331 0.0
H1136 H 0.68511 0.63338 0.21955 0.0
H1137 H 0.72268 0.56661 0.18879 0.0
C1138 C 0.74994 0.58682 0.17104 0.0
C1139 C 0.75869 0.60843 0.16728 0.0
C1140 C 0.68175 0.61653 0.22859 0.0
C1141 C 0.71596 0.602 0.19627 0.0
C1142 C 0.66457 0.61289 0.25328 0.0
C1143 C 0.66078 0.5914 0.26725 0.0
C1144 C 0.69515 0.59855 0.21756 0.0
C1145 C 0.67354 0.57369 0.25359 0.0
C1146 C 0.72863 0.58354 0.18509 0.0
C1147 C 0.74501 0.62659 0.17637 0.0
N1148 N 0.69023 0.57769 0.2299 0.0
N1149 N 0.7244 0.62297 0.19098 0.0
H1150 H 0.68177 0.42165 0.52143 0.0
H1151 H 0.59401 0.50713 0.45186 0.0
H1152 H 0.61142 0.40658 0.52716 0.0
H1153 H 0.65801 0.50004 0.40024 0.0
H1154 H 0.59961 0.47061 0.48014 0.0
H1155 H 0.67376 0.45047 0.47703 0.0
C1156 C 0.66471 0.42402 0.51265 0.0
C1157 C 0.64726 0.41164 0.52792 0.0
C1158 C 0.61221 0.47689 0.46206 0.0
C1159 C 0.63787 0.44516 0.47818 0.0
C1160 C 0.60903 0.49774 0.44593 0.0
C1161 C 0.62558 0.50676 0.4237 0.0
C1162 C 0.63232 0.46525 0.45668 0.0
C1163 C 0.64476 0.4938 0.4171 0.0
C1164 C 0.66013 0.44051 0.4874 0.0
C1165 C 0.62541 0.41558 0.51584 0.0
N1166 N 0.6478 0.47395 0.43406 0.0
N1167 N 0.62126 0.43235 0.4923 0.0
H1168 H 0.1781 0.43962 0.27367 0.0
H1169 H 0.25202 0.4034 0.14323 0.0
H1170 H 0.1566 0.37086 0.27782 0.0
H1171 H 0.25696 0.3469 0.21404 0.0
H1172 H 0.21672 0.4138 0.17144 0.0
H1173 H 0.20672 0.42909 0.23014 0.0
C1174 C 0.179 0.42245 0.26472 0.0
C1175 C 0.16479 0.40616 0.27919 0.0
C1176 C 0.22543 0.39898 0.18044 0.0
C1177 C 0.19784 0.3939 0.2302 0.0
C1178 C 0.24547 0.39283 0.16412 0.0
C1179 C 0.25769 0.3743 0.17648 0.0
C1180 C 0.21729 0.38636 0.20899 0.0
C1181 C 0.24826 0.36139 0.20381 0.0
C1182 C 0.19532 0.41645 0.23988 0.0
C1183 C 0.16698 0.38404 0.26703 0.0
N1184 N 0.22865 0.3677 0.21923 0.0
N1185 N 0.18355 0.37846 0.24392 0.0
H1186 H 0.3852 0.40358 0.03318 0.0
H1187 H 0.34018 0.49639 0.89871 0.0
H1188 H 0.31511 0.41544 0.01443 0.0
H1189 H 0.39981 0.50544 0.96129 0.0
H1190 H 0.33495 0.45965 0.92578 0.0
H1191 H 0.3943 0.43364 0.99137 0.0
C1192 C 0.37172 0.41196 0.0194 0.0
C1193 C 0.34931 0.40698 0.02741 0.0
C1194 C 0.34939 0.46954 0.93307 0.0
C1195 C 0.35971 0.4414 0.97964 0.0
C1196 C 0.35252 0.49049 0.91749 0.0
C1197 C 0.37042 0.50423 0.92791 0.0
C1198 C 0.36444 0.46197 0.95885 0.0
C1199 C 0.38571 0.49555 0.95259 0.0
C1200 C 0.37696 0.42928 0.99586 0.0
C1201 C 0.33258 0.41872 0.00912 0.0
N1202 N 0.38232 0.47502 0.96735 0.0
N1203 N 0.33812 0.43544 0.98622 0.0
H1204 H 0.23155 0.57676 0.66654 0.0
H1205 H 0.33922 0.6218 0.76913 0.0
H1206 H 0.24057 0.64581 0.69632 0.0
H1207 H 0.31433 0.55438 0.7785 0.0
H1208 H 0.30964 0.62992 0.72619 0.0
H1209 H 0.26819 0.56808 0.69153 0.0
C1210 C 0.24138 0.59022 0.67766 0.0
C1211 C 0.23278 0.61204 0.6797 0.0
C1212 C 0.31099 0.61323 0.73712 0.0
C1213 C 0.27484 0.60211 0.70822 0.0
C1214 C 0.32799 0.60849 0.76137 0.0
C1215 C 0.32914 0.5874 0.7777 0.0
C1216 C 0.29526 0.59668 0.72874 0.0
C1217 C 0.31396 0.57091 0.7668 0.0
C1218 C 0.26227 0.58519 0.69205 0.0
C1219 C 0.24639 0.62872 0.69448 0.0
N1220 N 0.29754 0.57594 0.74323 0.0
N1221 N 0.26668 0.62338 0.7084 0.0
H1222 H 0.11146 0.59762 0.52712 0.0
H1223 H 0.09343 0.48998 0.46206 0.0
H1224 H 0.17952 0.57404 0.52932 0.0
H1225 H 0.15642 0.49866 0.40805 0.0
H1226 H 0.09822 0.52691 0.48927 0.0
H1227 H 0.10212 0.5676 0.48535 0.0
C1228 C 0.12461 0.5866 0.51794 0.0
C1229 C 0.14632 0.58832 0.5318 0.0
C1230 C 0.11069 0.52095 0.47072 0.0
C1231 C 0.13564 0.55377 0.48458 0.0
C1232 C 0.10801 0.49983 0.45531 0.0
C1233 C 0.12448 0.49119 0.43258 0.0
C1234 C 0.13025 0.5333 0.46407 0.0
C1235 C 0.14317 0.50467 0.42512 0.0
C1236 C 0.11916 0.56927 0.49457 0.0
C1237 C 0.16258 0.57331 0.51937 0.0
N1238 N 0.14579 0.52478 0.44143 0.0
N1239 N 0.1569 0.55664 0.49656 0.0
H1240 H 0.17237 0.55482 0.24534 0.0
H1241 H 0.25408 0.64696 0.31105 0.0
H1242 H 0.15394 0.62453 0.24232 0.0
H1243 H 0.25372 0.58153 0.35925 0.0
H1244 H 0.21694 0.63941 0.28659 0.0
H1245 H 0.20142 0.56378 0.28871 0.0
C1246 C 0.174 0.5719 0.25447 0.0
C1247 C 0.16077 0.58895 0.23984 0.0
C1248 C 0.22482 0.62689 0.30313 0.0
C1249 C 0.19446 0.5994 0.28861 0.0
C1250 C 0.24603 0.63119 0.31706 0.0
C1251 C 0.25712 0.61484 0.33711 0.0
C1252 C 0.21487 0.60588 0.30848 0.0
C1253 C 0.24584 0.59466 0.344 0.0
C1254 C 0.19065 0.57701 0.27916 0.0
C1255 C 0.16373 0.61081 0.25271 0.0
N1256 N 0.22556 0.59057 0.3291 0.0
N1257 N 0.1806 0.61549 0.27565 0.0
H1258 H 0.11331 0.40038 0.98099 0.0
H1259 H 0.09523 0.50619 0.05388 0.0
H1260 H 0.17955 0.42742 0.96753 0.0
H1261 H 0.16154 0.49899 0.09702 0.0
H1262 H 0.09973 0.47014 0.0237 0.0
H1263 H 0.1055 0.42941 0.02535 0.0
C1264 C 0.12642 0.41201 0.9881 0.0
C1265 C 0.14711 0.41154 0.97047 0.0
C1266 C 0.11305 0.4762 0.04053 0.0
C1267 C 0.13819 0.44483 0.02073 0.0
C1268 C 0.11053 0.49681 0.05761 0.0
C1269 C 0.12798 0.50558 0.07817 0.0
C1270 C 0.13338 0.46457 0.04326 0.0
C1271 C 0.14756 0.49279 0.08176 0.0
C1272 C 0.12183 0.42873 0.01301 0.0
C1273 C 0.16337 0.42724 0.98038 0.0
N1274 N 0.14993 0.4732 0.06382 0.0
N1275 N 0.15856 0.44326 0.00482 0.0
H1276 H 0.32374 0.4379 0.74331 0.0
H1277 H 0.24139 0.3469 0.82013 0.0
H1278 H 0.33841 0.36731 0.74209 0.0
H1279 H 0.23408 0.41743 0.8409 0.0
H1280 H 0.27917 0.35383 0.79812 0.0
H1281 H 0.29386 0.43096 0.78606 0.0
C1282 C 0.32109 0.421 0.75275 0.0
C1283 C 0.33348 0.40314 0.73865 0.0
C1284 C 0.26946 0.36776 0.80805 0.0
C1285 C 0.29876 0.39498 0.787 0.0
C1286 C 0.24783 0.36381 0.82062 0.0
C1287 C 0.23434 0.38163 0.83201 0.0
C1288 C 0.27764 0.38974 0.8063 0.0
C1289 C 0.24374 0.40316 0.8322 0.0
C1290 C 0.30391 0.41702 0.77708 0.0
C1291 C 0.32928 0.38161 0.75204 0.0
N1292 N 0.26462 0.40665 0.81897 0.0
N1293 N 0.31197 0.37808 0.77482 0.0
H1294 H 0.33855 0.49523 0.61262 0.0
H1295 H 0.38369 0.58846 0.47935 0.0
H1296 H 0.39876 0.48634 0.55106 0.0
H1297 H 0.31373 0.57299 0.4916 0.0
H1298 H 0.39269 0.55912 0.52257 0.0
H1299 H 0.33324 0.53179 0.58503 0.0
C1300 C 0.351 0.50114 0.59399 0.0
C1301 C 0.36906 0.4875 0.58391 0.0
C1302 C 0.37536 0.56258 0.51637 0.0
C1303 C 0.36303 0.52952 0.55253 0.0
C1304 C 0.37017 0.57946 0.49207 0.0
C1305 C 0.34789 0.58314 0.48188 0.0
C1306 C 0.35813 0.54971 0.53118 0.0
C1307 C 0.33109 0.57066 0.4987 0.0
C1308 C 0.34783 0.52198 0.57815 0.0
C1309 C 0.38452 0.49617 0.55944 0.0
N1310 N 0.33656 0.55444 0.52245 0.0
N1311 N 0.3811 0.5166 0.54441 0.0
H1312 H 0.12303 0.32047 0.33063 0.0
H1313 H 0.1471 0.2041 0.42579 0.0
H1314 H 0.1462 0.31602 0.43868 0.0
H1315 H 0.15418 0.21324 0.31279 0.0
H1316 H 0.14103 0.24437 0.43216 0.0
H1317 H 0.12789 0.27989 0.3248 0.0
C1318 C 0.12886 0.31092 0.3532 0.0
C1319 C 0.13432 0.32155 0.38512 0.0
C1320 C 0.14403 0.23751 0.40603 0.0
C1321 C 0.13984 0.27544 0.37868 0.0
C1322 C 0.14751 0.21458 0.40238 0.0
C1323 C 0.15127 0.20534 0.36874 0.0
C1324 C 0.14385 0.25118 0.37578 0.0
C1325 C 0.15156 0.21969 0.33926 0.0
C1326 C 0.1318 0.28787 0.34978 0.0
C1327 C 0.14197 0.30846 0.41351 0.0
N1328 N 0.1477 0.2419 0.34343 0.0
N1329 N 0.14445 0.28606 0.40967 0.0
H1330 H 0.05064 0.89497 0.68158 0.0
H1331 H 0.93527 0.87181 0.58144 0.0
H1332 H 0.04181 0.90456 0.569 0.0
H1333 H 0.93938 0.88579 0.69344 0.0
H1334 H 0.97581 0.87724 0.57678 0.0
H1335 H 0.01088 0.8859 0.68673 0.0
C1336 C 0.04035 0.89526 0.658 0.0
C1337 C 0.04956 0.90069 0.62486 0.0
C1338 C 0.96779 0.87895 0.60238 0.0
C1339 C 0.00424 0.88993 0.63048 0.0
C1340 C 0.94474 0.87567 0.6051 0.0
C1341 C 0.93397 0.87851 0.63781 0.0
C1342 C 0.9801 0.88479 0.63269 0.0
C1343 C 0.94701 0.88365 0.66763 0.0
C1344 C 0.01769 0.89005 0.66095 0.0
C1345 C 0.03542 0.9007 0.59515 0.0
N1346 N 0.96938 0.88666 0.66435 0.0
N1347 N 0.0135 0.8953 0.59864 0.0
H1348 H 0.35253 0.79224 0.92956 0.0
H1349 H 0.36913 0.67652 0.82858 0.0
H1350 H 0.34151 0.78529 0.81705 0.0
H1351 H 0.35023 0.68022 0.93885 0.0
H1352 H 0.36507 0.71729 0.82427 0.0
H1353 H 0.35708 0.75164 0.93397 0.0
C1354 C 0.35093 0.78218 0.90585 0.0
C1355 C 0.34652 0.79215 0.87293 0.0
C1356 C 0.36188 0.7091 0.84937 0.0
C1357 C 0.35219 0.74588 0.87768 0.0
C1358 C 0.36435 0.68592 0.8519 0.0
C1359 C 0.35992 0.67501 0.88406 0.0
C1360 C 0.35536 0.72139 0.87938 0.0
C1361 C 0.35364 0.68796 0.91347 0.0
C1362 C 0.35355 0.75905 0.90838 0.0
C1363 C 0.34469 0.77829 0.84302 0.0
N1364 N 0.35163 0.71047 0.91046 0.0
N1365 N 0.34773 0.75587 0.84606 0.0
H1366 H 0.45922 0.08851 0.07148 0.0
H1367 H 0.56216 0.11045 0.19793 0.0
H1368 H 0.45033 0.10343 0.18258 0.0
H1369 H 0.56446 0.12505 0.08596 0.0
H1370 H 0.52184 0.1046 0.19348 0.0
H1371 H 0.49881 0.09762 0.0769 0.0
C1372 C 0.46562 0.09348 0.09713 0.0
C1373 C 0.45143 0.09513 0.1267 0.0
C1374 C 0.53113 0.10933 0.16999 0.0
C1375 C 0.49672 0.10568 0.13289 0.0
C1376 C 0.55411 0.11265 0.17246 0.0
C1377 C 0.56662 0.1182 0.14221 0.0
C1378 C 0.52068 0.11108 0.13689 0.0
C1379 C 0.55539 0.1209 0.10992 0.0
C1380 C 0.48817 0.09891 0.10005 0.0
C1381 C 0.46066 0.10192 0.15913 0.0
N1382 N 0.53304 0.117 0.10799 0.0
N1383 N 0.48279 0.10682 0.16142 0.0
H1384 H 0.15007 0.78743 0.18933 0.0
H1385 H 0.15079 0.67929 0.06885 0.0
H1386 H 0.14327 0.79158 0.07559 0.0
H1387 H 0.12494 0.67853 0.17571 0.0
H1388 H 0.15314 0.72006 0.07158 0.0
H1389 H 0.1463 0.74686 0.18564 0.0
C1390 C 0.14795 0.7798 0.16353 0.0
C1391 C 0.14703 0.7929 0.13266 0.0
C1392 C 0.14685 0.71095 0.09432 0.0
C1393 C 0.14276 0.74653 0.12841 0.0
C1394 C 0.14559 0.68772 0.09288 0.0
C1395 C 0.13769 0.67556 0.12216 0.0
C1396 C 0.14062 0.72203 0.1255 0.0
C1397 C 0.13104 0.68731 0.15253 0.0
C1398 C 0.14562 0.75669 0.16154 0.0
C1399 C 0.14403 0.78211 0.10002 0.0
N1400 N 0.13288 0.70994 0.15356 0.0
N1401 N 0.14216 0.75948 0.0987 0.0
H1402 H 0.55872 0.87228 0.42631 0.0
H1403 H 0.44377 0.8895 0.32244 0.0
H1404 H 0.55563 0.88735 0.31456 0.0
H1405 H 0.45037 0.90237 0.4345 0.0
H1406 H 0.48408 0.88284 0.3191 0.0
H1407 H 0.51794 0.8768 0.42985 0.0
C1408 C 0.54944 0.87623 0.40249 0.0
C1409 C 0.56055 0.87954 0.37014 0.0
C1410 C 0.47668 0.88719 0.34437 0.0
C1411 C 0.51414 0.88468 0.37397 0.0
C1412 C 0.45369 0.89102 0.3463 0.0
C1413 C 0.44369 0.89665 0.37874 0.0
C1414 C 0.48971 0.8886 0.37521 0.0
C1415 C 0.4574 0.89829 0.40885 0.0
C1416 C 0.52625 0.87899 0.40457 0.0
C1417 C 0.54775 0.88481 0.3401 0.0
N1418 N 0.47968 0.89414 0.40641 0.0
N1419 N 0.52525 0.88718 0.34272 0.0
H1420 H 0.37687 0.31283 0.66147 0.0
H1421 H 0.32333 0.20056 0.58262 0.0
H1422 H 0.33026 0.3134 0.5742 0.0
H1423 H 0.36319 0.20452 0.67782 0.0
H1424 H 0.32633 0.24143 0.57655 0.0
H1425 H 0.37322 0.27241 0.6649 0.0
C1426 C 0.3659 0.30446 0.64293 0.0
C1427 C 0.35382 0.31659 0.61759 0.0
C1428 C 0.33434 0.23322 0.59874 0.0
C1429 C 0.34946 0.27008 0.62143 0.0
C1430 C 0.33261 0.20993 0.60222 0.0
C1431 C 0.34306 0.19898 0.63067 0.0
C1432 C 0.34666 0.24549 0.62381 0.0
C1433 C 0.35488 0.21203 0.6553 0.0
C1434 C 0.36376 0.28133 0.64495 0.0
C1435 C 0.33986 0.30474 0.59426 0.0
N1436 N 0.35638 0.23444 0.65121 0.0
N1437 N 0.33804 0.28212 0.59674 0.0
H1438 H 0.04479 0.09176 0.93488 0.0
H1439 H 0.93835 0.10903 0.81306 0.0
H1440 H 0.05007 0.10344 0.82222 0.0
H1441 H 0.93756 0.1235 0.92507 0.0
H1442 H 0.97882 0.10425 0.81575 0.0
H1443 H 0.00486 0.09991 0.93174 0.0
C1444 C 0.03755 0.09588 0.90941 0.0
C1445 C 0.05082 0.09682 0.87869 0.0
C1446 C 0.96984 0.10868 0.83967 0.0
C1447 C 0.0051 0.10624 0.87507 0.0
C1448 C 0.94674 0.11138 0.8382 0.0
C1449 C 0.93459 0.11661 0.86895 0.0
C1450 C 0.98085 0.11078 0.87226 0.0
C1451 C 0.94632 0.11956 0.90075 0.0
C1452 C 0.01478 0.10072 0.90775 0.0
C1453 C 0.0405 0.10249 0.84653 0.0
N1454 N 0.96882 0.11632 0.90169 0.0
N1455 N 0.01821 0.10685 0.84552 0.0
H1456 H 0.85729 0.79736 0.57241 0.0
H1457 H 0.8702 0.68115 0.67401 0.0
H1458 H 0.84101 0.78889 0.68318 0.0
H1459 H 0.86044 0.68563 0.56087 0.0
H1460 H 0.86516 0.72173 0.6782 0.0
H1461 H 0.86337 0.757 0.56784 0.0
C1462 C 0.85486 0.78702 0.59568 0.0
C1463 C 0.84856 0.79649 0.62818 0.0
C1464 C 0.86419 0.71377 0.65249 0.0
C1465 C 0.85589 0.75053 0.62328 0.0
C1466 C 0.86723 0.69069 0.65007 0.0
C1467 C 0.86562 0.68005 0.61709 0.0
C1468 C 0.85987 0.72622 0.62166 0.0
C1469 C 0.86163 0.69317 0.58687 0.0
C1470 C 0.85835 0.76403 0.59306 0.0
C1471 C 0.84569 0.7823 0.65752 0.0
N1472 N 0.85892 0.71558 0.58986 0.0
N1473 N 0.84955 0.76005 0.65444 0.0
H1474 H 0.06522 0.12914 0.42049 0.0
H1475 H 0.94751 0.11178 0.32459 0.0
H1476 H 0.05798 0.1208 0.30749 0.0
H1477 H 0.95808 0.09734 0.43548 0.0
H1478 H 0.98719 0.1205 0.31856 0.0
H1479 H 0.02476 0.12374 0.42725 0.0
C1480 C 0.05507 0.12656 0.39711 0.0
C1481 C 0.06492 0.12529 0.36342 0.0
C1482 C 0.98082 0.11535 0.34418 0.0
C1483 C 0.01893 0.119 0.37091 0.0
C1484 C 0.95819 0.11033 0.34763 0.0
C1485 C 0.94948 0.10369 0.38054 0.0
C1486 C 0.99481 0.11402 0.37393 0.0
C1487 C 0.96411 0.10218 0.40952 0.0
C1488 C 0.03208 0.12327 0.40099 0.0
C1489 C 0.05107 0.12172 0.33398 0.0
N1490 N 0.98607 0.10742 0.40558 0.0
N1491 N 0.0288 0.11867 0.33842 0.0
H1492 H 0.64343 0.31595 0.06744 0.0
H1493 H 0.65283 0.20966 0.1923 0.0
H1494 H 0.62285 0.31728 0.1771 0.0
H1495 H 0.64362 0.20369 0.07922 0.0
H1496 H 0.64678 0.24993 0.18748 0.0
H1497 H 0.64787 0.2754 0.07146 0.0
C1498 C 0.63975 0.30768 0.09234 0.0
C1499 C 0.63277 0.31999 0.12203 0.0
C1500 C 0.64608 0.23978 0.16376 0.0
C1501 C 0.63818 0.2737 0.12685 0.0
C1502 C 0.64973 0.21683 0.16639 0.0
C1503 C 0.64878 0.20327 0.13607 0.0
C1504 C 0.64183 0.24935 0.13051 0.0
C1505 C 0.64447 0.2135 0.10327 0.0
C1506 C 0.64224 0.28456 0.09454 0.0
C1507 C 0.62816 0.30841 0.15355 0.0
N1508 N 0.64129 0.23597 0.10133 0.0
N1509 N 0.63118 0.28591 0.15527 0.0
H1510 H 0.43547 0.86756 0.92355 0.0
H1511 H 0.55143 0.88866 0.82319 0.0
H1512 H 0.44231 0.86889 0.80968 0.0
H1513 H 0.54072 0.90368 0.93388 0.0
H1514 H 0.51253 0.87679 0.81865 0.0
H1515 H 0.47562 0.87481 0.92891 0.0
C1516 C 0.4455 0.86886 0.89972 0.0
C1517 C 0.43557 0.8678 0.86613 0.0
C1518 C 0.51869 0.88276 0.8439 0.0
C1519 C 0.48123 0.87641 0.87203 0.0
C1520 C 0.54087 0.88964 0.84648 0.0
C1521 C 0.54936 0.89729 0.87893 0.0
C1522 C 0.50492 0.88332 0.87403 0.0
C1523 C 0.53488 0.89808 0.90825 0.0
C1524 C 0.46833 0.87326 0.90278 0.0
C1525 C 0.44929 0.8698 0.8361 0.0
N1526 N 0.51339 0.89108 0.90514 0.0
N1527 N 0.47139 0.87415 0.83975 0.0
H1528 H 0.87391 0.31672 0.83301 0.0
H1529 H 0.85907 0.20103 0.93644 0.0
H1530 H 0.85799 0.31333 0.9445 0.0
H1531 H 0.84727 0.20819 0.82412 0.0
H1532 H 0.86482 0.24155 0.9404 0.0
H1533 H 0.87097 0.27586 0.82981 0.0
C1534 C 0.87007 0.30737 0.85685 0.0
C1535 C 0.86604 0.31841 0.889 0.0
C1536 C 0.86092 0.23417 0.91495 0.0
C1537 C 0.86273 0.27187 0.88556 0.0
C1538 C 0.85762 0.2111 0.91267 0.0
C1539 C 0.85252 0.20122 0.87996 0.0
C1540 C 0.85951 0.24736 0.8842 0.0
C1541 C 0.85094 0.21509 0.84997 0.0
C1542 C 0.86824 0.28412 0.85497 0.0
C1543 C 0.86102 0.30549 0.91909 0.0
N1544 N 0.85455 0.23741 0.85278 0.0
N1545 N 0.85953 0.2829 0.91666 0.0
H1546 H 0.4385 0.13835 0.68929 0.0
H1547 H 0.53935 0.08173 0.58233 0.0
H1548 H 0.43172 0.10326 0.59 0.0
H1549 H 0.5492 0.11768 0.68029 0.0
H1550 H 0.49975 0.09031 0.58519 0.0
H1551 H 0.47917 0.13297 0.68594 0.0
C1552 C 0.44558 0.12989 0.66652 0.0
C1553 C 0.43171 0.12108 0.64003 0.0
C1554 C 0.51051 0.09632 0.60616 0.0
C1555 C 0.47795 0.11459 0.63631 0.0
C1556 C 0.53319 0.09131 0.60464 0.0
C1557 C 0.54772 0.09896 0.63112 0.0
C1558 C 0.5021 0.10911 0.63439 0.0
C1559 C 0.53863 0.11135 0.65933 0.0
C1560 C 0.46874 0.12665 0.66478 0.0
C1561 C 0.44173 0.11013 0.61124 0.0
N1562 N 0.51638 0.11608 0.6602 0.0
N1563 N 0.46415 0.10708 0.6103 0.0
H1564 H 0.64841 0.78931 0.3179 0.0
H1565 H 0.64323 0.68194 0.44033 0.0
H1566 H 0.63897 0.79441 0.43109 0.0
H1567 H 0.62201 0.68094 0.33106 0.0
H1568 H 0.64586 0.72269 0.4374 0.0
H1569 H 0.64344 0.74894 0.32209 0.0
C1570 C 0.64545 0.78194 0.34372 0.0
C1571 C 0.64418 0.79527 0.37426 0.0
C1572 C 0.64048 0.71354 0.41418 0.0
C1573 C 0.63848 0.74903 0.37909 0.0
C1574 C 0.63904 0.69031 0.41575 0.0
C1575 C 0.63245 0.67806 0.38582 0.0
C1576 C 0.63573 0.72456 0.38227 0.0
C1577 C 0.62709 0.68976 0.35475 0.0
C1578 C 0.64243 0.75891 0.34598 0.0
C1579 C 0.64007 0.78476 0.4069 0.0
N1580 N 0.62911 0.71238 0.35364 0.0
N1581 N 0.63753 0.7622 0.40851 0.0
H1582 H 0.95159 0.89648 0.06827 0.0
H1583 H 0.05736 0.88352 0.19252 0.0
H1584 H 0.94531 0.88389 0.18054 0.0
H1585 H 0.05954 0.86715 0.08123 0.0
H1586 H 0.01673 0.88685 0.18883 0.0
H1587 H 0.99174 0.88961 0.07255 0.0
C1588 C 0.95866 0.89242 0.0939 0.0
C1589 C 0.94505 0.89086 0.12417 0.0
C1590 C 0.02607 0.88232 0.16531 0.0
C1591 C 0.99102 0.88295 0.12911 0.0
C1592 C 0.04924 0.88045 0.16734 0.0
C1593 C 0.06182 0.87509 0.13709 0.0
C1594 C 0.0154 0.87929 0.13261 0.0
C1595 C 0.05045 0.87121 0.1052 0.0
C1596 C 0.98155 0.88831 0.0962 0.0
C1597 C 0.95515 0.88529 0.15655 0.0
N1598 N 0.02787 0.87368 0.10367 0.0
N1599 N 0.97757 0.88171 0.15823 0.0
H1600 H 0.6518 0.70998 0.81636 0.0
H1601 H 0.64303 0.81568 0.94218 0.0
H1602 H 0.64007 0.70363 0.92888 0.0
H1603 H 0.62604 0.81854 0.83114 0.0
H1604 H 0.64587 0.77502 0.93793 0.0
H1605 H 0.64687 0.75035 0.82136 0.0
C1606 C 0.64836 0.71707 0.8422 0.0
C1607 C 0.64641 0.70337 0.87231 0.0
C1608 C 0.64137 0.78454 0.91458 0.0
C1609 C 0.64073 0.74961 0.87807 0.0
C1610 C 0.6398 0.80773 0.91692 0.0
C1611 C 0.63433 0.8205 0.88691 0.0
C1612 C 0.63788 0.77405 0.88185 0.0
C1613 C 0.63021 0.80932 0.85492 0.0
C1614 C 0.64536 0.7401 0.84493 0.0
C1615 C 0.6417 0.71353 0.90499 0.0
N1616 N 0.63232 0.78672 0.85313 0.0
N1617 N 0.63916 0.73608 0.90706 0.0
H1618 H 0.53636 0.43322 0.10924 0.0
H1619 H 0.43613 0.34919 0.13653 0.0
H1620 H 0.54713 0.36921 0.15914 0.0
H1621 H 0.42784 0.41998 0.15389 0.0
H1622 H 0.47686 0.35483 0.13366 0.0
H1623 H 0.49588 0.42747 0.1146 0.0
C1624 C 0.53019 0.41803 0.12145 0.0
C1625 C 0.54503 0.40174 0.13402 0.0
C1626 C 0.46601 0.36904 0.13819 0.0
C1627 C 0.49904 0.39484 0.13926 0.0
C1628 C 0.44288 0.36586 0.13965 0.0
C1629 C 0.4287 0.38413 0.14563 0.0
C1630 C 0.4748 0.39068 0.14171 0.0
C1631 C 0.43824 0.40542 0.14955 0.0
C1632 C 0.50718 0.41478 0.1245 0.0
C1633 C 0.5362 0.38229 0.14951 0.0
N1634 N 0.46069 0.40815 0.14716 0.0
N1635 N 0.51373 0.37923 0.15132 0.0
H1636 H 0.84447 0.29224 0.31866 0.0
H1637 H 0.84949 0.18627 0.44484 0.0
H1638 H 0.85084 0.29843 0.43222 0.0
H1639 H 0.87244 0.18448 0.33636 0.0
H1640 H 0.84543 0.22684 0.44028 0.0
H1641 H 0.84965 0.25191 0.32416 0.0
C1642 C 0.84677 0.28511 0.3448 0.0
C1643 C 0.8472 0.29873 0.37507 0.0
C1644 C 0.85148 0.21756 0.41758 0.0
C1645 C 0.85314 0.25262 0.38142 0.0
C1646 C 0.85375 0.19443 0.4201 0.0
C1647 C 0.8613 0.18202 0.39089 0.0
C1648 C 0.85638 0.22827 0.38544 0.0
C1649 C 0.86666 0.19344 0.35954 0.0
C1650 C 0.84991 0.26212 0.34784 0.0
C1651 C 0.85045 0.28856 0.4082 0.0
N1652 N 0.86388 0.21594 0.35751 0.0
N1653 N 0.85318 0.26606 0.41053 0.0
H1654 H 0.95978 0.58889 0.57703 0.0
H1655 H 0.05592 0.64124 0.69544 0.0
H1656 H 0.94764 0.61702 0.68071 0.0
H1657 H 0.06339 0.6289 0.58343 0.0
H1658 H 0.0161 0.63314 0.69064 0.0
H1659 H -0.00181 0.60229 0.5798 0.0
C1660 C 0.96523 0.59764 0.60059 0.0
C1661 C 0.95042 0.60178 0.62875 0.0
C1662 C 0.02634 0.63256 0.66697 0.0
C1663 C 0.99433 0.61747 0.63175 0.0
C1664 C 0.04902 0.63731 0.66965 0.0
C1665 C 0.0629 0.63561 0.6398 0.0
C1666 C 0.01757 0.62567 0.63431 0.0
C1667 C 0.0532 0.63048 0.60703 0.0
C1668 C 0.98711 0.60553 0.60193 0.0
C1669 C 0.95845 0.6134 0.65841 0.0
N1670 N 0.03113 0.62529 0.60525 0.0
N1671 N 0.97988 0.62081 0.65914 0.0
H1672 H 0.64891 0.28891 0.69321 0.0
H1673 H 0.64187 0.18302 0.56775 0.0
H1674 H 0.64021 0.29493 0.57999 0.0
H1675 H 0.62311 0.18058 0.6782 0.0
H1676 H 0.6448 0.22365 0.57176 0.0
H1677 H 0.64362 0.24861 0.68831 0.0
C1678 C 0.64605 0.28175 0.66725 0.0
C1679 C 0.64506 0.29532 0.6369 0.0
C1680 C 0.63988 0.21423 0.59502 0.0
C1681 C 0.63895 0.24921 0.63126 0.0
C1682 C 0.63825 0.19106 0.59282 0.0
C1683 C 0.6323 0.17844 0.62276 0.0
C1684 C 0.63594 0.22482 0.62755 0.0
C1685 C 0.62767 0.18971 0.65449 0.0
C1686 C 0.64284 0.25877 0.66457 0.0
C1687 C 0.6411 0.28511 0.60405 0.0
N1688 N 0.62984 0.2123 0.65617 0.0
N1689 N 0.63831 0.26261 0.60206 0.0
H1690 H 0.95601 0.41216 0.93371 0.0
H1691 H 0.05477 0.36712 0.81062 0.0
H1692 H 0.94657 0.38889 0.82646 0.0
H1693 H 0.06247 0.37698 0.92321 0.0
H1694 H 0.0153 0.37629 0.81588 0.0
H1695 H 0.99547 0.40181 0.92977 0.0
C1696 C 0.96225 0.40515 0.90917 0.0
C1697 C 0.94789 0.4014 0.88034 0.0
C1698 C 0.02551 0.37629 0.83955 0.0
C1699 C 0.99299 0.38928 0.87592 0.0
C1700 C 0.04806 0.371 0.83659 0.0
C1701 C 0.06192 0.37133 0.86654 0.0
C1702 C 0.01668 0.38227 0.87266 0.0
C1703 C 0.05231 0.37639 0.89951 0.0
C1704 C 0.98475 0.39905 0.90711 0.0
C1705 C 0.95695 0.39208 0.84938 0.0
N1706 N 0.03027 0.38191 0.90165 0.0
N1707 N 0.97888 0.38634 0.84802 0.0
H1708 H 0.82713 0.80979 0.07981 0.0
H1709 H 0.87176 0.69838 0.17287 0.0
H1710 H 0.8795 0.80817 0.15836 0.0
H1711 H 0.82063 0.69787 0.0922 0.0
H1712 H 0.87434 0.73863 0.16751 0.0
H1713 H 0.82423 0.76913 0.08356 0.0
C1714 C 0.83806 0.80092 0.09783 0.0
C1715 C 0.8536 0.81251 0.11885 0.0
C1716 C 0.86254 0.72981 0.15091 0.0
C1717 C 0.85028 0.76585 0.12324 0.0
C1718 C 0.861 0.70669 0.15394 0.0
C1719 C 0.84591 0.69455 0.13292 0.0
C1720 C 0.84888 0.74115 0.12669 0.0
C1721 C 0.83249 0.70648 0.10894 0.0
C1722 C 0.83637 0.77767 0.09992 0.0
C1723 C 0.86729 0.80003 0.14164 0.0
N1724 N 0.83429 0.72914 0.10648 0.0
N1725 N 0.86527 0.77744 0.14324 0.0
H1726 H 0.5468 0.60276 0.32011 0.0
H1727 H 0.43196 0.62446 0.4221 0.0
H1728 H 0.5396 0.59455 0.43328 0.0
H1729 H 0.43464 0.60389 0.31255 0.0
H1730 H 0.47269 0.62027 0.42557 0.0
H1731 H 0.50646 0.60929 0.31581 0.0
C1732 C 0.53675 0.60227 0.344 0.0
C1733 C 0.54655 0.59796 0.37706 0.0
C1734 C 0.4643 0.61678 0.40078 0.0
C1735 C 0.50065 0.60584 0.3724 0.0
C1736 C 0.44114 0.61931 0.39872 0.0
C1737 C 0.42995 0.61438 0.36707 0.0
C1738 C 0.47629 0.60966 0.3708 0.0
C1739 C 0.44261 0.60767 0.33757 0.0
C1740 C 0.51378 0.606 0.34152 0.0
C1741 C 0.53273 0.59758 0.40719 0.0
N1742 N 0.46512 0.60554 0.34013 0.0
N1743 N 0.5105 0.60161 0.40417 0.0
H1744 H 0.37154 0.17612 0.17659 0.0
H1745 H 0.3545 0.2931 0.07889 0.0
H1746 H 0.35436 0.18128 0.06582 0.0
H1747 H 0.3423 0.28448 0.19087 0.0
H1748 H 0.35992 0.25268 0.07342 0.0
H1749 H 0.36673 0.21674 0.18224 0.0
C1750 C 0.36695 0.1858 0.15345 0.0
C1751 C 0.36327 0.17532 0.12073 0.0
C1752 C 0.35597 0.25967 0.09914 0.0
C1753 C 0.3579 0.22159 0.12694 0.0
C1754 C 0.35289 0.28272 0.10229 0.0
C1755 C 0.34783 0.29218 0.13535 0.0
C1756 C 0.35443 0.24604 0.12937 0.0
C1757 C 0.34598 0.27789 0.1648 0.0
C1758 C 0.36407 0.2089 0.15673 0.0
C1759 C 0.35722 0.18865 0.09161 0.0
N1760 N 0.34946 0.25556 0.16118 0.0
N1761 N 0.35482 0.21108 0.09536 0.0
H1762 H 0.56125 0.62748 0.92284 0.0
H1763 H 0.44624 0.60109 0.82416 0.0
H1764 H 0.55763 0.60929 0.81233 0.0
H1765 H 0.45477 0.59414 0.93726 0.0
H1766 H 0.48607 0.60969 0.81863 0.0
H1767 H 0.52077 0.62172 0.92778 0.0
C1768 C 0.5519 0.6226 0.89954 0.0
C1769 C 0.56279 0.61873 0.86719 0.0
C1770 C 0.47919 0.60621 0.84461 0.0
C1771 C 0.51672 0.61208 0.87266 0.0
C1772 C 0.45649 0.60127 0.84779 0.0
C1773 C 0.44718 0.59675 0.88119 0.0
C1774 C 0.49258 0.607 0.8751 0.0
C1775 C 0.46126 0.5973 0.91094 0.0
C1776 C 0.52888 0.61913 0.90244 0.0
C1777 C 0.54991 0.61228 0.83786 0.0
N1778 N 0.48324 0.60247 0.90722 0.0
N1779 N 0.52755 0.60915 0.84129 0.0
H1780 H 0.12899 0.82241 0.67556 0.0
H1781 H 0.14714 0.7067 0.57542 0.0
H1782 H 0.14632 0.81882 0.56462 0.0
H1783 H 0.15882 0.71466 0.68762 0.0
H1784 H 0.14189 0.74718 0.57038 0.0
H1785 H 0.13408 0.7818 0.68002 0.0
C1786 C 0.13362 0.81305 0.65212 0.0
C1787 C 0.13733 0.82395 0.61973 0.0
C1788 C 0.14575 0.74002 0.59602 0.0
C1789 C 0.14313 0.77775 0.6246 0.0
C1790 C 0.14879 0.71696 0.5989 0.0
C1791 C 0.15351 0.7073 0.63195 0.0
C1792 C 0.14701 0.7534 0.62649 0.0
C1793 C 0.15538 0.7214 0.66155 0.0
C1794 C 0.1367 0.78997 0.65472 0.0
C1795 C 0.14345 0.81107 0.59017 0.0
N1796 N 0.15191 0.74372 0.65818 0.0
N1797 N 0.1461 0.78864 0.59328 0.0
H1798 H 0.93193 0.37343 0.42881 0.0
H1799 H 0.04744 0.39711 0.32879 0.0
H1800 H 0.93614 0.39162 0.31829 0.0
H1801 H 0.03997 0.40255 0.4423 0.0
H1802 H 0.00736 0.38982 0.32392 0.0
H1803 H 0.97259 0.37806 0.43361 0.0
C1804 C 0.94143 0.37808 0.40549 0.0
C1805 C 0.93066 0.38226 0.37316 0.0
C1806 C 0.01452 0.39268 0.34987 0.0
C1807 C 0.97695 0.38761 0.37845 0.0
C1808 C 0.03738 0.39687 0.35267 0.0
C1809 C 0.04709 0.40058 0.38598 0.0
C1810 C 0.00129 0.39186 0.38062 0.0
C1811 C 0.03319 0.39999 0.41604 0.0
C1812 C 0.96456 0.3809 0.4083 0.0
C1813 C 0.94375 0.3884 0.3438 0.0
N1814 N 0.01102 0.39558 0.41266 0.0
N1815 N 0.96618 0.39089 0.34715 0.0
H1816 H 0.31609 0.81656 0.39058 0.0
H1817 H 0.37637 0.69918 0.40437 0.0
H1818 H 0.38748 0.81065 0.3775 0.0
H1819 H 0.31196 0.70626 0.35434 0.0
H1820 H 0.37936 0.74004 0.40741 0.0
H1821 H 0.31301 0.77578 0.38939 0.0
C1822 C 0.33112 0.80665 0.38755 0.0
C1823 C 0.35208 0.81693 0.38405 0.0
C1824 C 0.36457 0.73256 0.39595 0.0
C1825 C 0.34866 0.77044 0.38335 0.0
C1826 C 0.36274 0.70933 0.3945 0.0
C1827 C 0.34387 0.69939 0.3791 0.0
C1828 C 0.34718 0.74584 0.38269 0.0
C1829 C 0.3268 0.71329 0.36632 0.0
C1830 C 0.32932 0.78346 0.38676 0.0
C1831 C 0.37101 0.80334 0.38003 0.0
N1832 N 0.3288 0.73585 0.3686 0.0
N1833 N 0.36889 0.7807 0.38013 0.0
H1834 H 0.05067 0.61593 0.17684 0.0
H1835 H 0.93122 0.58201 0.09958 0.0
H1836 H 0.04089 0.57461 0.08437 0.0
H1837 H 0.93936 0.63146 0.18183 0.0
H1838 H 0.9715 0.57807 0.09599 0.0
H1839 H 0.01014 0.62041 0.18177 0.0
C1840 C 0.04003 0.60768 0.1577 0.0
C1841 C 0.04924 0.59487 0.1301 0.0
C1842 C 0.96456 0.58984 0.1148 0.0
C1843 C 0.0029 0.60004 0.13558 0.0
C1844 C 0.94149 0.59211 0.11692 0.0
C1845 C 0.93184 0.60707 0.14115 0.0
C1846 C 0.97827 0.60252 0.13718 0.0
C1847 C 0.94609 0.61977 0.16273 0.0
C1848 C 0.01691 0.61035 0.16046 0.0
C1849 C 0.03461 0.58467 0.10603 0.0
N1850 N 0.96864 0.61713 0.16035 0.0
N1851 N 0.01222 0.58749 0.10935 0.0
H1852 H 0.11822 0.28958 0.90336 0.0
H1853 H 0.18008 0.17266 0.88559 0.0
H1854 H 0.18452 0.28353 0.85929 0.0
H1855 H 0.10859 0.17873 0.87424 0.0
H1856 H 0.18301 0.21339 0.8876 0.0
H1857 H 0.11562 0.24866 0.90564 0.0
C1858 C 0.13236 0.27965 0.8948 0.0
C1859 C 0.15161 0.28986 0.88107 0.0
C1860 C 0.16671 0.20577 0.88461 0.0
C1861 C 0.1487 0.24339 0.88357 0.0
C1862 C 0.165 0.18259 0.88347 0.0
C1863 C 0.14406 0.17237 0.87957 0.0
C1864 C 0.1473 0.21881 0.8826 0.0
C1865 C 0.12506 0.186 0.87693 0.0
C1866 C 0.13076 0.25638 0.89576 0.0
C1867 C 0.16936 0.27626 0.86991 0.0
N1868 N 0.1271 0.2086 0.87878 0.0
N1869 N 0.1675 0.25369 0.87148 0.0
H1870 H 0.55671 0.38492 0.69679 0.0
H1871 H 0.45231 0.39859 0.57023 0.0
H1872 H 0.56006 0.36971 0.58513 0.0
H1873 H 0.44495 0.38565 0.68225 0.0
H1874 H 0.49234 0.39139 0.5753 0.0
H1875 H 0.51611 0.3879 0.69226 0.0
C1876 C 0.54885 0.38203 0.67135 0.0
C1877 C 0.56174 0.37714 0.64122 0.0
C1878 C 0.48194 0.39006 0.59872 0.0
C1879 C 0.51537 0.3809 0.63582 0.0
C1880 C 0.45912 0.39436 0.59596 0.0
C1881 C 0.44526 0.39283 0.62594 0.0
C1882 C 0.49107 0.38455 0.63179 0.0
C1883 C 0.45501 0.38704 0.65849 0.0
C1884 C 0.5257 0.38369 0.66884 0.0
C1885 C 0.55072 0.37344 0.609 0.0
N1886 N 0.47737 0.38328 0.66061 0.0
N1887 N 0.52814 0.3757 0.60702 0.0
H1888 H 0.18698 0.04148 0.29866 0.0
H1889 H 0.11654 0.96782 0.16341 0.0
H1890 H 0.1149 0.03957 0.29322 0.0
H1891 H 0.18748 0.95921 0.17865 0.0
H1892 H 0.11733 -0.00024 0.2032 0.0
H1893 H 0.1887 0.01389 0.25103 0.0
C1894 C 0.17153 0.03486 0.28806 0.0
C1895 C 0.15075 0.04291 0.29961 0.0
C1896 C 0.13281 0.99109 0.19747 0.0
C1897 C 0.15265 0.01218 0.24469 0.0
C1898 C 0.13239 0.97309 0.17443 0.0
C1899 C 0.15186 0.96069 0.16859 0.0
C1900 C 0.15279 0.99645 0.2149 0.0
C1901 C 0.17206 0.96828 0.18292 0.0
C1902 C 0.17254 0.01944 0.26052 0.0
C1903 C 0.13127 0.03395 0.28484 0.0
N1904 N 0.17194 0.98549 0.20624 0.0
N1905 N 0.13271 0.0192 0.25786 0.0
H1906 H 0.20474 0.95515 0.54624 0.0
H1907 H 0.26376 0.88244 0.39789 0.0
H1908 H 0.20653 0.88304 0.53979 0.0
H1909 H 0.28048 0.95149 0.4167 0.0
H1910 H 0.23092 0.88667 0.43555 0.0
H1911 H 0.22388 0.95709 0.48878 0.0
C1912 C 0.20935 0.93977 0.53299 0.0
C1913 C 0.2043 0.9189 0.54805 0.0
C1914 C 0.24144 0.90109 0.43071 0.0
C1915 C 0.22511 0.92107 0.48214 0.0
C1916 C 0.25998 0.89872 0.40896 0.0
C1917 C 0.275 0.91646 0.40538 0.0
C1918 C 0.23851 0.92109 0.44956 0.0
C1919 C 0.26936 0.93733 0.41957 0.0
C1920 C 0.21989 0.94092 0.50006 0.0
C1921 C 0.21032 0.89951 0.52954 0.0
N1922 N 0.25184 0.93893 0.44226 0.0
N1923 N 0.22035 0.9011 0.49757 0.0
H1924 H 0.39777 0.95453 0.81149 0.0
H1925 H 0.32016 0.04528 0.72701 0.0
H1926 H 0.33147 0.97033 0.84935 0.0
H1927 H 0.38888 0.03539 0.69538 0.0
H1928 H 0.32652 0.02222 0.77868 0.0
H1929 H 0.39833 0.98957 0.77881 0.0
C1930 C 0.38354 0.96564 0.81365 0.0
C1931 C 0.36407 0.95909 0.83165 0.0
C1932 C 0.34028 0.0251 0.76057 0.0
C1933 C 0.36453 -0.00117 0.79409 0.0
C1934 C 0.33655 0.03797 0.73064 0.0
C1935 C 0.35392 0.04183 0.7064 0.0
C1936 C 0.36139 0.01558 0.76603 0.0
C1937 C 0.37495 0.03246 0.7131 0.0
C1938 C 0.38387 0.98563 0.79492 0.0
C1939 C 0.34649 0.9744 0.83469 0.0
N1940 N 0.37804 0.0195 0.74219 0.0
N1941 N 0.34688 0.99337 0.81517 0.0
H1942 H 0.20589 0.03624 0.93673 0.0
H1943 H 0.28316 0.11454 0.04569 0.0
H1944 H 0.23193 0.09872 0.89746 0.0
H1945 H 0.2923 0.04329 0.05729 0.0
H1946 H 0.25816 0.10775 0.99623 0.0
H1947 H 0.23521 0.03581 0.98213 0.0
C1948 C 0.21847 0.04924 0.93655 0.0
C1949 C 0.21641 0.06782 0.91408 0.0
C1950 C 0.26559 0.09359 0.0097 0.0
C1951 C 0.24887 0.06782 0.96602 0.0
C1952 C 0.27952 0.09743 0.03827 0.0
C1953 C 0.29009 0.07947 0.05507 0.0
C1954 C 0.26205 0.07164 0.99808 0.0
C1955 C 0.28453 0.0576 0.04479 0.0
C1956 C 0.23491 0.04915 0.96272 0.0
C1957 C 0.23288 0.08434 0.91486 0.0
N1958 N 0.27094 0.05423 0.01648 0.0
N1959 N 0.24814 0.08429 0.94119 0.0
H1960 H 0.87667 0.02591 0.8389 0.0
H1961 H 0.8079 0.95859 0.69441 0.0
H1962 H 0.80665 0.03868 0.8205 0.0
H1963 H 0.8797 0.96593 0.6958 0.0
H1964 H 0.80528 0.98469 0.74409 0.0
H1965 H 0.87565 0.99663 0.79423 0.0
C1966 C 0.86092 0.02202 0.82617 0.0
C1967 C 0.84187 0.03496 0.8325 0.0
C1968 C 0.82153 0.98075 0.73309 0.0
C1969 C 0.84077 0.00238 0.78079 0.0
C1970 C 0.82304 0.96623 0.7044 0.0
C1971 C 0.84411 0.95988 0.69152 0.0
C1972 C 0.84122 0.9887 0.74867 0.0
C1973 C 0.86318 0.97015 0.70541 0.0
C1974 C 0.86042 0.00562 0.80032 0.0
C1975 C 0.82176 0.02916 0.81589 0.0
N1976 N 0.8613 0.98381 0.73371 0.0
N1977 N 0.82182 0.01352 0.78994 0.0
H1978 H 0.70517 0.04818 0.56027 0.0
H1979 H 0.77273 0.11964 0.41893 0.0
H1980 H 0.71696 0.11939 0.56487 0.0
H1981 H 0.78778 0.04995 0.43623 0.0
H1982 H 0.742 0.11674 0.46109 0.0
H1983 H 0.72917 0.04617 0.50764 0.0
C1984 C 0.71315 0.06328 0.55074 0.0
C1985 C 0.70886 0.08406 0.56667 0.0
C1986 C 0.75176 0.10196 0.45511 0.0
C1987 C 0.73522 0.0819 0.50622 0.0
C1988 C 0.76904 0.10355 0.43078 0.0
C1989 C 0.78301 0.08517 0.42511 0.0
C1990 C 0.74877 0.08196 0.47393 0.0
C1991 C 0.77745 0.06457 0.44048 0.0
C1992 C 0.72649 0.06213 0.52048 0.0
C1993 C 0.71957 0.10307 0.55321 0.0
N1994 N 0.76099 0.0636 0.46518 0.0
N1995 N 0.73202 0.10157 0.52345 0.0
H1996 H 0.69474 0.04017 0.19228 0.0
H1997 H 0.61818 0.96799 0.3184 0.0
H1998 H 0.62464 0.02753 0.17445 0.0
H1999 H 0.68946 0.95685 0.31425 0.0
H2000 H 0.62172 0.99489 0.27046 0.0
H2001 H 0.69489 0.011 0.2378 0.0
C2002 C 0.67961 0.03068 0.197 0.0
C2003 C 0.65947 0.03653 0.18042 0.0
C2004 C 0.63662 0.98665 0.28019 0.0
C2005 C 0.65942 0.00412 0.23272 0.0
C2006 C 0.63466 0.97162 0.30793 0.0
C2007 C 0.65349 0.95992 0.31973 0.0
C2008 C 0.65756 0.99007 0.26438 0.0
C2009 C 0.6745 0.96544 0.30565 0.0
C2010 C 0.67965 0.01433 0.22329 0.0
C2011 C 0.64036 0.02379 0.18733 0.0
N2012 N 0.67597 0.98001 0.27818 0.0
N2013 N 0.64067 0.00847 0.21362 0.0
H2014 H 0.70551 0.95109 0.95279 0.0
H2015 H 0.76564 0.87959 0.10199 0.0
H2016 H 0.71069 0.87906 0.95741 0.0
H2017 H 0.78358 0.94812 0.08075 0.0
H2018 H 0.73371 0.88352 0.06247 0.0
H2019 H 0.72608 0.95335 0.00885 0.0
C2020 C 0.71122 0.93581 0.96524 0.0
C2021 C 0.7064 0.91484 0.95038 0.0
C2022 C 0.74432 0.89788 0.06715 0.0
C2023 C 0.7288 0.91737 0.01472 0.0
C2024 C 0.76232 0.89571 0.08995 0.0
C2025 C 0.77746 0.91334 0.09345 0.0
C2026 C 0.74196 0.91762 0.0474 0.0
C2027 C 0.77238 0.93402 0.07799 0.0
C2028 C 0.72257 0.93714 0.99741 0.0
C2029 C 0.71401 0.89559 0.96776 0.0
N2030 N 0.75533 0.93545 0.05448 0.0
N2031 N 0.72469 0.89735 0.99912 0.0
H2032 H 0.61844 0.52869 0.83319 0.0
H2033 H 0.68942 0.45626 0.69736 0.0
H2034 H 0.68946 0.53821 0.82003 0.0
H2035 H 0.618 0.4665 0.69244 0.0
H2036 H 0.69125 0.48239 0.74702 0.0
H2037 H 0.61982 0.49823 0.79054 0.0
C2038 C 0.63443 0.52387 0.82205 0.0
C2039 C 0.65374 0.53621 0.82919 0.0
C2040 C 0.67526 0.479 0.73473 0.0
C2041 C 0.65532 0.50223 0.7798 0.0
C2042 C 0.67422 0.46442 0.70607 0.0
C2043 C 0.65344 0.45895 0.69121 0.0
C2044 C 0.6554 0.48793 0.74837 0.0
C2045 C 0.63431 0.46998 0.7035 0.0
C2046 C 0.63517 0.50677 0.79739 0.0
C2047 C 0.67415 0.52919 0.81471 0.0
N2048 N 0.63571 0.48372 0.73177 0.0
N2049 N 0.67435 0.51287 0.78984 0.0
H2050 H 0.7865 0.44654 0.94428 0.0
H2051 H 0.72179 0.3822 0.09714 0.0
H2052 H 0.77931 0.37487 0.95269 0.0
H2053 H 0.70581 0.45047 0.07044 0.0
H2054 H 0.75176 0.38283 0.05343 0.0
H2055 H 0.76166 0.45087 0.99541 0.0
C2056 C 0.77924 0.43176 0.95622 0.0
C2057 C 0.78522 0.41027 0.94467 0.0
C2058 C 0.74196 0.39783 0.0576 0.0
C2059 C 0.75785 0.41515 0.00347 0.0
C2060 C 0.72518 0.39757 0.08289 0.0
C2061 C 0.71117 0.41612 0.0865 0.0
C2062 C 0.74442 0.41667 0.03581 0.0
C2063 C 0.71624 0.43577 0.06793 0.0
C2064 C 0.76543 0.43427 0.98569 0.0
C2065 C 0.7754 0.39172 0.96109 0.0
N2066 N 0.73222 0.43539 0.04243 0.0
N2067 N 0.76245 0.39459 0.99006 0.0
H2068 H 0.87556 0.51874 0.15887 0.0
H2069 H 0.80378 0.45348 0.30079 0.0
H2070 H 0.80405 0.52449 0.16972 0.0
H2071 H 0.87592 0.45723 0.29903 0.0
H2072 H 0.80284 0.47111 0.2426 0.0
H2073 H 0.87466 0.48532 0.196 0.0
C2074 C 0.85956 0.51238 0.16779 0.0
C2075 C 0.83995 0.5247 0.16273 0.0
C2076 C 0.81886 0.46797 0.25495 0.0
C2077 C 0.83889 0.48735 0.20571 0.0
C2078 C 0.81941 0.45827 0.28842 0.0
C2079 C 0.83995 0.45419 0.30509 0.0
C2080 C 0.83897 0.47379 0.23817 0.0
C2081 C 0.85967 0.46037 0.28747 0.0
C2082 C 0.85908 0.49351 0.18936 0.0
C2083 C 0.81962 0.51571 0.17429 0.0
N2084 N 0.85868 0.46995 0.255 0.0
N2085 N 0.81965 0.49785 0.19627 0.0
H2086 H 0.72363 0.61647 0.40322 0.0
H2087 H 0.79176 0.55194 0.5522 0.0
H2088 H 0.70894 0.54809 0.43108 0.0
H2089 H 0.78678 0.62362 0.5408 0.0
H2090 H 0.7664 0.54756 0.50172 0.0
H2091 H 0.75561 0.61561 0.44299 0.0
C2092 C 0.72766 0.60105 0.4169 0.0
C2093 C 0.7135 0.58254 0.41488 0.0
C2094 C 0.77083 0.56418 0.51058 0.0
C2095 C 0.74907 0.58172 0.46122 0.0
C2096 C 0.78488 0.56672 0.53969 0.0
C2097 C 0.79141 0.58819 0.55038 0.0
C2098 C 0.76356 0.58326 0.49232 0.0
C2099 C 0.78229 0.60677 0.53313 0.0
C2100 C 0.74565 0.60064 0.4399 0.0
C2101 C 0.71944 0.56279 0.43251 0.0
N2102 N 0.769 0.60386 0.50466 0.0
N2103 N 0.73656 0.56306 0.45596 0.0
H2104 H 0.37075 0.5276 0.31077 0.0
H2105 H 0.29441 0.45029 0.1958 0.0
H2106 H 0.2994 0.53827 0.31337 0.0
H2107 H 0.36029 0.47211 0.16478 0.0
H2108 H 0.29351 0.47983 0.24089 0.0
H2109 H 0.36569 0.50069 0.26327 0.0
C2110 C 0.35396 0.52385 0.30187 0.0
C2111 C 0.33551 0.5354 0.31543 0.0
C2112 C 0.30782 0.47849 0.22341 0.0
C2113 C 0.32969 0.50524 0.26061 0.0
C2114 C 0.30821 0.46195 0.19738 0.0
C2115 C 0.32766 0.45868 0.17725 0.0
C2116 C 0.32706 0.49135 0.22897 0.0
C2117 C 0.34517 0.47399 0.18033 0.0
C2118 C 0.35112 0.50882 0.27441 0.0
C2119 C 0.31406 0.52973 0.30336 0.0
N2120 N 0.3447 0.48938 0.20646 0.0
N2121 N 0.31169 0.51513 0.27608 0.0
H2122 H 0.29087 0.54284 0.95435 0.0
H2123 H 0.22827 0.61145 0.10474 0.0
H2124 H 0.28476 0.61473 0.96068 0.0
H2125 H 0.21212 0.54273 0.08176 0.0
H2126 H 0.2602 0.60887 0.06481 0.0
H2127 H 0.26967 0.53968 0.00981 0.0
C2128 C 0.28483 0.55791 0.96705 0.0
C2129 C 0.28955 0.57909 0.95281 0.0
C2130 C 0.24997 0.59418 0.06916 0.0
C2131 C 0.26637 0.57555 0.01651 0.0
C2132 C 0.23197 0.59559 0.09221 0.0
C2133 C 0.2173 0.57751 0.09541 0.0
C2134 C 0.25289 0.57472 0.04896 0.0
C2135 C 0.22292 0.55717 0.07929 0.0
C2136 C 0.27309 0.55607 0.99887 0.0
C2137 C 0.2815 0.59805 0.97051 0.0
N2138 N 0.24 0.55648 0.05566 0.0
N2139 N 0.27045 0.5958 1.00154 0.0
H2140 H 0.14176 0.46708 0.83135 0.0
H2141 H 0.15167 0.52752 0.65234 0.0
H2142 H 0.13276 0.42815 0.73615 0.0
H2143 H 0.11005 0.55532 0.73499 0.0
H2144 H 0.14968 0.49108 0.68209 0.0
H2145 H 0.13599 0.50124 0.79648 0.0
C2146 C 0.13865 0.46583 0.80314 0.0
C2147 C 0.1377 0.44509 0.78632 0.0
C2148 C 0.14068 0.50518 0.69311 0.0
C2149 C 0.13136 0.48341 0.74692 0.0
C2150 C 0.14185 0.52583 0.67634 0.0
C2151 C 0.13122 0.54432 0.69158 0.0
C2152 C 0.1294 0.50349 0.72554 0.0
C2153 C 0.11855 0.54142 0.72252 0.0
C2154 C 0.13516 0.48513 0.78348 0.0
C2155 C 0.13348 0.44403 0.74983 0.0
N2156 N 0.1184 0.52139 0.73905 0.0
N2157 N 0.13074 0.46309 0.73103 0.0
H2158 H 0.21291 0.38084 0.45134 0.0
H2159 H 0.28433 0.45213 0.57982 0.0
H2160 H 0.20395 0.45252 0.45433 0.0
H2161 H 0.26624 0.38351 0.60007 0.0
H2162 H 0.25351 0.45492 0.5376 0.0
H2163 H 0.23408 0.38292 0.50578 0.0
C2164 C 0.21567 0.39711 0.46313 0.0
C2165 C 0.2065 0.41653 0.44835 0.0
C2166 C 0.25583 0.43952 0.55224 0.0
C2167 C 0.23044 0.41893 0.51125 0.0
C2168 C 0.27323 0.43798 0.57661 0.0
C2169 C 0.27813 0.4173 0.59231 0.0
C2170 C 0.24368 0.4202 0.54387 0.0
C2171 C 0.26328 0.39953 0.58756 0.0
C2172 C 0.22742 0.39822 0.49464 0.0
C2173 C 0.21073 0.43713 0.4649 0.0
N2174 N 0.24701 0.40118 0.5629 0.0
N2175 N 0.22249 0.43782 0.49562 0.0
H2176 H 0.16755 0.12402 0.02172 0.0
H2177 H 0.10801 0.11274 0.21093 0.0
H2178 H 0.10521 0.08939 0.03907 0.0
H2179 H 0.17259 0.14359 0.19673 0.0
H2180 H 0.10551 0.10709 0.14726 0.0
H2181 H 0.16863 0.13367 0.08456 0.0
C2182 C 0.15403 0.11845 0.03867 0.0
C2183 C 0.13625 0.10576 0.0249 0.0
C2184 C 0.1202 0.11522 0.15792 0.0
C2185 C 0.13744 0.11693 0.0972 0.0
C2186 C 0.12164 0.11854 0.1944 0.0
C2187 C 0.14065 0.12855 0.20943 0.0
C2188 C 0.13789 0.12187 0.13591 0.0
C2189 C 0.15763 0.13582 0.18641 0.0
C2190 C 0.15469 0.12401 0.07463 0.0
C2191 C 0.11928 0.0991 0.04835 0.0
N2192 N 0.15593 0.13218 0.15083 0.0
N2193 N 0.12032 0.10474 0.08327 0.0
H2194 H 0.16258 0.87502 0.47111 0.0
H2195 H 0.1106 0.90165 0.2807 0.0
H2196 H 0.10291 0.91445 0.45598 0.0
H2197 H 0.16581 0.85631 0.29662 0.0
H2198 H 0.10765 0.90653 0.3446 0.0
H2199 H 0.16421 0.86832 0.4075 0.0
C2200 C 0.14975 0.88227 0.45448 0.0
C2201 C 0.13252 0.89535 0.46913 0.0
C2202 C 0.12035 0.89543 0.33421 0.0
C2203 C 0.13441 0.88766 0.3958 0.0
C2204 C 0.12209 0.89261 0.29761 0.0
C2205 C 0.13856 0.87857 0.28308 0.0
C2206 C 0.13526 0.88425 0.35673 0.0
C2207 C 0.15285 0.86728 0.30653 0.0
C2208 C 0.15071 0.87837 0.41805 0.0
C2209 C 0.11647 0.90427 0.44599 0.0
N2210 N 0.15095 0.87047 0.34216 0.0
N2211 N 0.11784 0.9003 0.41051 0.0
H2212 H 0.32623 0.85177 0.70498 0.0
H2213 H 0.38997 0.90734 0.53932 0.0
H2214 H 0.38649 0.89103 0.71329 0.0
H2215 H 0.3297 0.86831 0.52873 0.0
H2216 H 0.38945 0.90024 0.60306 0.0
H2217 H 0.32782 0.85604 0.64027 0.0
C2218 C 0.33987 0.86111 0.69328 0.0
C2219 C 0.35618 0.87112 0.71478 0.0
C2220 C 0.37635 0.89317 0.58681 0.0
C2221 C 0.35803 0.87619 0.64076 0.0
C2222 C 0.37663 0.89726 0.55032 0.0
C2223 C 0.35984 0.88849 0.52845 0.0
C2224 C 0.35912 0.88023 0.60179 0.0
C2225 C 0.34301 0.87548 0.54444 0.0
C2226 C 0.34073 0.86361 0.65633 0.0
C2227 C 0.37344 0.88309 0.69799 0.0
N2228 N 0.34305 0.8718 0.58006 0.0
N2229 N 0.37385 0.88534 0.66217 0.0
H2230 H 0.36663 0.14953 0.7938 0.0
H2231 H 0.38472 0.06628 0.95718 0.0
H2232 H 0.34897 0.07966 0.78974 0.0
H2233 H 0.37162 0.13661 0.97102 0.0
H2234 H 0.38003 0.07102 0.8929 0.0
H2235 H 0.37612 0.14508 0.85669 0.0
C2236 C 0.36473 0.13329 0.80613 0.0
C2237 C 0.35676 0.11501 0.78662 0.0
C2238 C 0.37845 0.08542 0.91007 0.0
C2239 C 0.36809 0.10971 0.85811 0.0
C2240 C 0.38134 0.08277 0.94663 0.0
C2241 C 0.37849 0.10107 0.9694 0.0
C2242 C 0.37308 0.10657 0.89626 0.0
C2243 C 0.37384 0.12205 0.95438 0.0
C2244 C 0.37016 0.13076 0.84194 0.0
C2245 C 0.35474 0.09429 0.8039 0.0
N2246 N 0.37127 0.12424 0.91877 0.0
N2247 N 0.36048 0.09217 0.8386 0.0
H2248 H 0.88683 0.89397 0.7869 0.0
H2249 H 0.83131 0.865 0.97443 0.0
H2250 H 0.82787 0.85298 0.79788 0.0
H2251 H 0.89076 0.90512 0.96199 0.0
H2252 H 0.83046 0.85917 0.91042 0.0
H2253 H 0.88929 0.89662 0.85109 0.0
C2254 C 0.87442 0.88538 0.80279 0.0
C2255 C 0.85701 0.87329 0.78676 0.0
C2256 C 0.84373 0.86919 0.92168 0.0
C2257 C 0.85974 0.87644 0.86087 0.0
C2258 C 0.84424 0.87258 0.95831 0.0
C2259 C 0.86112 0.88567 0.9738 0.0
C2260 C 0.86019 0.87897 0.90015 0.0
C2261 C 0.8774 0.89496 0.95137 0.0
C2262 C 0.87586 0.88694 0.83958 0.0
C2263 C 0.84157 0.86246 0.80897 0.0
N2264 N 0.87648 0.89147 0.91575 0.0
N2265 N 0.84322 0.86441 0.84488 0.0
H2266 H 0.83439 0.14552 0.71197 0.0
H2267 H 0.89531 0.08405 0.54886 0.0
H2268 H 0.88396 0.09369 0.7244 0.0
H2269 H 0.84162 0.13161 0.53654 0.0
H2270 H 0.89321 0.08922 0.61322 0.0
H2271 H 0.83862 0.14259 0.6475 0.0
C2272 C 0.84623 0.13362 0.70124 0.0
C2273 C 0.85874 0.11979 0.7238 0.0
C2274 C 0.88193 0.09857 0.59638 0.0
C2275 C 0.86367 0.1163 0.64992 0.0
C2276 C 0.88316 0.09564 0.55959 0.0
C2277 C 0.86858 0.10731 0.5371 0.0
C2278 C 0.86606 0.11334 0.61087 0.0
C2279 C 0.85317 0.12213 0.55269 0.0
C2280 C 0.84862 0.13191 0.66439 0.0
C2281 C 0.87384 0.10465 0.7082 0.0
N2282 N 0.8523 0.12467 0.58847 0.0
N2283 N 0.87583 0.1033 0.67237 0.0
H2284 H 0.65887 0.12854 0.47826 0.0
H2285 H 0.61547 0.09325 0.28601 0.0
H2286 H 0.60401 0.08294 0.46149 0.0
H2287 H 0.66643 0.14312 0.30307 0.0
H2288 H 0.61097 0.08948 0.34988 0.0
H2289 H 0.66172 0.13409 0.4145 0.0
C2290 C 0.64734 0.11968 0.46122 0.0
C2291 C 0.63115 0.10516 0.47551 0.0
C2292 C 0.62308 0.10131 0.33975 0.0
C2293 C 0.63446 0.11154 0.40187 0.0
C2294 C 0.62572 0.1035 0.30315 0.0
C2295 C 0.64145 0.11853 0.28891 0.0
C2296 C 0.63632 0.11413 0.36265 0.0
C2297 C 0.65411 0.13135 0.3127 0.0
C2298 C 0.649 0.12293 0.42468 0.0
C2299 C 0.61673 0.09428 0.45183 0.0
N2300 N 0.65133 0.12878 0.34835 0.0
N2301 N 0.61878 0.09763 0.41621 0.0
H2302 H 0.6615 0.87318 0.03318 0.0
H2303 H 0.60809 0.90029 0.22262 0.0
H2304 H 0.602 0.91305 0.04718 0.0
H2305 H 0.66434 0.85605 0.20803 0.0
H2306 H 0.60539 0.90473 0.15862 0.0
H2307 H 0.66271 0.86672 0.09687 0.0
C2308 C 0.64862 0.88059 0.04959 0.0
C2309 C 0.63158 0.89373 0.03459 0.0
C2310 C 0.61826 0.89395 0.16932 0.0
C2311 C 0.63296 0.88629 0.10803 0.0
C2312 C 0.61984 0.89137 0.20598 0.0
C2313 C 0.63656 0.8778 0.22092 0.0
C2314 C 0.63356 0.883 0.14714 0.0
C2315 C 0.65119 0.86665 0.1978 0.0
C2316 C 0.64934 0.87683 0.08607 0.0
C2317 C 0.61545 0.90284 0.05744 0.0
N2318 N 0.64943 0.86961 0.1621 0.0
N2319 N 0.61657 0.89898 0.09298 0.0
H2320 H 0.66436 0.64466 0.70514 0.0
H2321 H 0.60104 0.58361 0.54422 0.0
H2322 H 0.61155 0.59633 0.71928 0.0
H2323 H 0.65756 0.62755 0.53016 0.0
H2324 H 0.60311 0.5899 0.60829 0.0
H2325 H 0.66051 0.64062 0.64075 0.0
C2326 C 0.65187 0.63333 0.6948 0.0
C2327 C 0.63835 0.62078 0.71784 0.0
C2328 C 0.61503 0.5982 0.59115 0.0
C2329 C 0.63387 0.616 0.64404 0.0
C2330 C 0.61384 0.59461 0.55451 0.0
C2331 C 0.62918 0.60497 0.53159 0.0
C2332 C 0.63165 0.61231 0.6051 0.0
C2333 C 0.6454 0.61909 0.54665 0.0
C2334 C 0.64972 0.63096 0.65799 0.0
C2335 C 0.62246 0.60631 0.70272 0.0
N2336 N 0.64621 0.62231 0.58231 0.0
N2337 N 0.62072 0.6043 0.66694 0.0
H2338 H 0.61055 0.40658 0.78673 0.0
H2339 H 0.65134 0.36795 0.97894 0.0
H2340 H 0.65901 0.35427 0.80414 0.0
H2341 H 0.59994 0.41751 0.96254 0.0
H2342 H 0.65362 0.36229 0.91523 0.0
H2343 H 0.60588 0.41029 0.85063 0.0
C2344 C 0.6202 0.39578 0.80394 0.0
C2345 C 0.6353 0.38008 0.78981 0.0
C2346 C 0.64176 0.37435 0.92546 0.0
C2347 C 0.62995 0.38438 0.8635 0.0
C2348 C 0.64043 0.37765 0.96198 0.0
C2349 C 0.62545 0.39336 0.97635 0.0
C2350 C 0.62811 0.38687 0.90272 0.0
C2351 C 0.61172 0.40524 0.95278 0.0
C2352 C 0.61747 0.39793 0.84054 0.0
C2353 C 0.64721 0.36659 0.81367 0.0
N2354 N 0.61347 0.40184 0.91714 0.0
N2355 N 0.64435 0.36911 0.84928 0.0
H2356 H 0.84988 0.36445 0.03474 0.0
H2357 H 0.87601 0.41636 0.22543 0.0
H2358 H 0.88863 0.42459 0.04914 0.0
H2359 H 0.839 0.35528 0.20931 0.0
H2360 H 0.88145 0.41944 0.16151 0.0
H2361 H 0.84682 0.36055 0.09864 0.0
C2362 C 0.85788 0.37685 0.05132 0.0
C2363 C 0.86948 0.39498 0.03633 0.0
C2364 C 0.87221 0.40532 0.17193 0.0
C2365 C 0.86587 0.39056 0.11019 0.0
C2366 C 0.86907 0.40351 0.20852 0.0
C2367 C 0.85704 0.38545 0.22297 0.0
C2368 C 0.86327 0.389 0.14939 0.0
C2369 C 0.84838 0.36947 0.19951 0.0
C2370 C 0.85608 0.37457 0.08797 0.0
C2371 C 0.87955 0.41035 0.05943 0.0
N2372 N 0.85165 0.37164 0.16396 0.0
N2373 N 0.87741 0.40786 0.09522 0.0
H2374 H 0.87214 0.64417 0.2894 0.0
H2375 H 0.88402 0.56526 0.45979 0.0
H2376 H 0.84865 0.57601 0.2915 0.0
H2377 H 0.87773 0.63689 0.46724 0.0
H2378 H 0.8795 0.56812 0.39516 0.0
H2379 H 0.88192 0.64096 0.35233 0.0
C2380 C 0.86905 0.62855 0.30305 0.0
C2381 C 0.85935 0.61041 0.28521 0.0
C2382 C 0.8794 0.5832 0.411 0.0
C2383 C 0.87097 0.60649 0.35691 0.0
C2384 C 0.88222 0.5816 0.44776 0.0
C2385 C 0.8812 0.60086 0.46886 0.0
C2386 C 0.87596 0.60424 0.39528 0.0
C2387 C 0.87852 0.62162 0.45193 0.0
C2388 C 0.87465 0.62673 0.33892 0.0
C2389 C 0.85582 0.59052 0.30427 0.0
N2390 N 0.87598 0.62276 0.41619 0.0
N2391 N 0.86172 0.58905 0.33901 0.0
H2392 H 0.36104 0.34301 0.29782 0.0
H2393 H 0.32769 0.40715 0.46961 0.0
H2394 H 0.34367 0.41278 0.2902 0.0
H2395 H 0.39274 0.37627 0.46825 0.0
H2396 H 0.32524 0.40207 0.40507 0.0
H2397 H 0.36505 0.34742 0.36266 0.0
C2398 C 0.35794 0.35915 0.30984 0.0
C2399 C 0.35208 0.37759 0.28882 0.0
C2400 C 0.34 0.39641 0.41902 0.0
C2401 C 0.3561 0.38252 0.36219 0.0
C2402 C 0.34142 0.39928 0.45564 0.0
C2403 C 0.36053 0.39229 0.47399 0.0
C2404 C 0.35744 0.38573 0.40091 0.0
C2405 C 0.37786 0.38209 0.45483 0.0
C2406 C 0.36037 0.36166 0.34657 0.0
C2407 C 0.34834 0.39821 0.30553 0.0
N2408 N 0.37581 0.37883 0.41922 0.0
N2409 N 0.35011 0.40006 0.3413 0.0
H2410 H 0.38648 0.6045 0.22328 0.0
H2411 H 0.33249 0.62439 0.03229 0.0
H2412 H 0.32476 0.64044 0.20733 0.0
H2413 H 0.39378 0.58789 0.04951 0.0
H2414 H 0.33033 0.6321 0.09557 0.0
H2415 H 0.3905 0.60055 0.15948 0.0
C2416 C 0.3738 0.61175 0.20635 0.0
C2417 C 0.35512 0.62271 0.22086 0.0
C2418 C 0.3443 0.62247 0.08555 0.0
C2419 C 0.35964 0.61803 0.14724 0.0
C2420 C 0.34558 0.61801 0.04931 0.0
C2421 C 0.36338 0.6054 0.03536 0.0
C2422 C 0.36091 0.6143 0.10828 0.0
C2423 C 0.37974 0.59762 0.05895 0.0
C2424 C 0.37613 0.60943 0.1698 0.0
C2425 C 0.33942 0.63188 0.1974 0.0
N2426 N 0.37808 0.60217 0.09422 0.0
N2427 N 0.34194 0.62918 0.16174 0.0
H2428 H 0.17492 0.64385 0.80445 0.0
H2429 H 0.1013 0.59415 0.96436 0.0
H2430 H 0.10672 0.62139 0.79382 0.0
H2431 H 0.16714 0.62214 0.97878 0.0
H2432 H 0.10309 0.60444 0.90163 0.0
H2433 H 0.17232 0.63729 0.86867 0.0
C2434 C 0.15933 0.63789 0.8156 0.0
C2435 C 0.1411 0.63304 0.79357 0.0
C2436 C 0.11714 0.60838 0.91855 0.0
C2437 C 0.13809 0.62516 0.86683 0.0
C2438 C 0.11613 0.60242 0.9544 0.0
C2439 C 0.13407 0.60722 0.97702 0.0
C2440 C 0.13626 0.61915 0.90506 0.0
C2441 C 0.15286 0.61806 0.96246 0.0
C2442 C 0.15789 0.63399 0.85222 0.0
C2443 C 0.12134 0.62519 0.80958 0.0
N2444 N 0.15348 0.62359 0.9275 0.0
N2445 N 0.12044 0.62136 0.84501 0.0
H2446 H 0.17915 0.35332 0.70644 0.0
H2447 H 0.10002 0.39423 0.5484 0.0
H2448 H 0.10712 0.35359 0.71227 0.0
H2449 H 0.16974 0.37842 0.53317 0.0
H2450 H 0.10285 0.38088 0.60965 0.0
H2451 H 0.17659 0.3624 0.64312 0.0
C2452 C 0.16282 0.35474 0.69432 0.0
C2453 C 0.14334 0.35282 0.7149 0.0
C2454 C 0.11752 0.3803 0.59286 0.0
C2455 C 0.1403 0.36386 0.64273 0.0
C2456 C 0.11594 0.38811 0.55796 0.0
C2457 C 0.13462 0.38743 0.53551 0.0
C2458 C 0.138 0.37198 0.60559 0.0
C2459 C 0.15483 0.37917 0.54941 0.0
C2460 C 0.16136 0.36016 0.65823 0.0
C2461 C 0.12262 0.3551 0.69766 0.0
N2462 N 0.156 0.37184 0.58349 0.0
N2463 N 0.12167 0.36076 0.66283 0.0
loop_
_geom_bond_atom_site_label_1
_geom_bond_atom_site_label_2
_geom_bond_distance
_geom_bond_site_symmetry_2
_ccdc_geom_bond_type
O0 Zn1 1.953 . S
O0 C16 1.225 . S
Zn1 O0 1.953 . S
Zn1 O2 1.949 . S
Zn1 O8 1.919 . S
Zn1 O13 1.924 . S
O2 Zn1 1.949 . S
O2 Zn3 1.923 . S
O2 Zn4 1.950 . S
O2 Zn5 1.945 . S
Zn3 O2 1.923 . S
Zn3 O6 1.933 . S
Zn3 O9 1.941 . S
Zn3 O10 1.965 . S
Zn4 O2 1.950 . S
Zn4 O11 1.938 . S
Zn4 O12 1.906 . S
Zn4 O22 1.953 . S
Zn5 O2 1.945 . S
Zn5 O7 1.932 . S
Zn5 O14 1.977 . S
Zn5 O15 1.910 . S
O6 Zn3 1.933 . S
O6 C17 1.226 . S
O7 Zn5 1.932 . S
O7 C17 1.307 . S
O8 Zn1 1.919 . S
O8 C19 1.253 . S
O9 Zn3 1.941 . S
O9 C19 1.283 . S
O10 Zn3 1.965 . S
O10 C18 1.303 . S
O11 Zn4 1.938 . S
O11 C18 1.247 . S
O12 Zn4 1.906 . S
O12 C20 1.304 . S
O13 Zn1 1.924 . S
O13 C21 1.311 . S
O14 Zn5 1.977 . S
O14 C20 1.272 . S
O15 Zn5 1.910 . S
O15 C21 1.231 . S
C16 O0 1.225 . S
C16 O22 1.298 . S
C17 O6 1.226 . S
C17 O7 1.307 . S
C18 O10 1.303 . S
C18 O11 1.247 . S
C19 O8 1.253 . S
C19 O9 1.283 . S
C20 O12 1.304 . S
C20 O14 1.272 . S
C21 O13 1.311 . S
C21 O15 1.231 . S
O22 Zn4 1.953 . S
O22 C16 1.298 . S
O23 Zn24 1.953 . S
O23 C39 1.225 . S
Zn24 O23 1.953 . S
Zn24 O25 1.949 . S
Zn24 O31 1.919 . S
Zn24 O36 1.924 . S
O25 Zn24 1.949 . S
O25 Zn26 1.923 . S
O25 Zn27 1.950 . S
O25 Zn28 1.945 . S
Zn26 O25 1.923 . S
Zn26 O29 1.933 . S
Zn26 O32 1.941 . S
Zn26 O33 1.965 . S
Zn27 O25 1.950 . S
Zn27 O34 1.938 . S
Zn27 O35 1.906 . S
Zn27 O45 1.953 . S
Zn28 O25 1.945 . S
Zn28 O30 1.932 . S
Zn28 O37 1.977 . S
Zn28 O38 1.910 . S
O29 Zn26 1.933 . S
O29 C40 1.226 . S
O30 Zn28 1.932 . S
O30 C40 1.307 . S
O31 Zn24 1.919 . S
O31 C42 1.253 . S
O32 Zn26 1.941 . S
O32 C42 1.283 . S
O33 Zn26 1.965 . S
O33 C41 1.303 . S
O34 Zn27 1.938 . S
O34 C41 1.247 . S
O35 Zn27 1.906 . S
O35 C43 1.304 . S
O36 Zn24 1.924 . S
O36 C44 1.311 . S
O37 Zn28 1.977 . S
O37 C43 1.272 . S
O38 Zn28 1.910 . S
O38 C44 1.231 . S
C39 O23 1.225 . S
C39 O45 1.298 . S
C40 O29 1.226 . S
C40 O30 1.307 . S
C41 O33 1.303 . S
C41 O34 1.247 . S
C42 O31 1.253 . S
C42 O32 1.283 . S
C43 O35 1.304 . S
C43 O37 1.272 . S
C44 O36 1.311 . S
C44 O38 1.231 . S
O45 Zn27 1.953 . S
O45 C39 1.298 . S
O46 Zn47 1.953 . S
O46 C62 1.225 . S
Zn47 O46 1.953 . S
Zn47 O48 1.949 . S
Zn47 O54 1.919 . S
Zn47 O59 1.924 . S
O48 Zn47 1.949 . S
O48 Zn49 1.923 . S
O48 Zn50 1.950 . S
O48 Zn51 1.945 . S
Zn49 O48 1.923 . S
Zn49 O52 1.933 . S
Zn49 O55 1.941 . S
Zn49 O56 1.965 . S
Zn50 O48 1.950 . S
Zn50 O57 1.938 . S
Zn50 O58 1.906 . S
Zn50 O68 1.953 . S
Zn51 O48 1.945 . S
Zn51 O53 1.932 . S
Zn51 O60 1.977 . S
Zn51 O61 1.910 . S
O52 Zn49 1.933 . S
O52 C63 1.226 . S
O53 Zn51 1.932 . S
O53 C63 1.307 . S
O54 Zn47 1.919 . S
O54 C65 1.253 . S
O55 Zn49 1.941 . S
O55 C65 1.283 . S
O56 Zn49 1.965 . S
O56 C64 1.303 . S
O57 Zn50 1.938 . S
O57 C64 1.247 . S
O58 Zn50 1.906 . S
O58 C66 1.304 . S
O59 Zn47 1.924 . S
O59 C67 1.311 . S
O60 Zn51 1.977 . S
O60 C66 1.272 . S
O61 Zn51 1.910 . S
O61 C67 1.231 . S
C62 O46 1.225 . S
C62 O68 1.298 . S
C63 O52 1.226 . S
C63 O53 1.307 . S
C64 O56 1.303 . S
C64 O57 1.247 . S
C65 O54 1.253 . S
C65 O55 1.283 . S
C66 O58 1.304 . S
C66 O60 1.272 . S
C67 O59 1.311 . S
C67 O61 1.231 . S
O68 Zn50 1.953 . S
O68 C62 1.298 . S
O69 Zn70 1.953 . S
O69 C85 1.225 . S
Zn70 O69 1.953 . S
Zn70 O71 1.949 . S
Zn70 O77 1.919 . S
Zn70 O82 1.924 . S
O71 Zn70 1.949 . S
O71 Zn72 1.923 . S
O71 Zn73 1.950 . S
O71 Zn74 1.945 . S
Zn72 O71 1.923 . S
Zn72 O75 1.933 . S
Zn72 O78 1.941 . S
Zn72 O79 1.965 . S
Zn73 O71 1.950 . S
Zn73 O80 1.938 . S
Zn73 O81 1.906 . S
Zn73 O91 1.953 . S
Zn74 O71 1.945 . S
Zn74 O76 1.932 . S
Zn74 O83 1.977 . S
Zn74 O84 1.910 . S
O75 Zn72 1.933 . S
O75 C86 1.226 . S
O76 Zn74 1.932 . S
O76 C86 1.307 . S
O77 Zn70 1.919 . S
O77 C88 1.253 . S
O78 Zn72 1.941 . S
O78 C88 1.283 . S
O79 Zn72 1.965 . S
O79 C87 1.303 . S
O80 Zn73 1.938 . S
O80 C87 1.247 . S
O81 Zn73 1.906 . S
O81 C89 1.304 . S
O82 Zn70 1.924 . S
O82 C90 1.311 1_554 S
O83 Zn74 1.977 . S
O83 C89 1.272 . S
O84 Zn74 1.910 . S
O84 C90 1.231 1_554 S
C85 O69 1.225 . S
C85 O91 1.298 . S
C86 O75 1.226 . S
C86 O76 1.307 . S
C87 O79 1.303 . S
C87 O80 1.247 . S
C88 O77 1.253 . S
C88 O78 1.283 . S
C89 O81 1.304 . S
C89 O83 1.272 . S
C90 O82 1.311 1_556 S
C90 O84 1.231 1_556 S
O91 Zn73 1.953 . S
O91 C85 1.298 . S
O92 Zn93 1.953 . S
O92 C108 1.225 . S
Zn93 O92 1.953 . S
Zn93 O94 1.949 . S
Zn93 O100 1.919 . S
Zn93 O105 1.924 . S
O94 Zn93 1.949 . S
O94 Zn95 1.923 . S
O94 Zn96 1.950 . S
O94 Zn97 1.945 . S
Zn95 O94 1.923 . S
Zn95 O98 1.933 . S
Zn95 O101 1.941 . S
Zn95 O102 1.965 . S
Zn96 O94 1.950 . S
Zn96 O103 1.938 . S
Zn96 O104 1.906 . S
Zn96 O114 1.953 . S
Zn97 O94 1.945 . S
Zn97 O99 1.932 . S
Zn97 O106 1.977 . S
Zn97 O107 1.910 . S
O98 Zn95 1.933 . S
O98 C109 1.226 . S
O99 Zn97 1.932 . S
O99 C109 1.307 . S
O100 Zn93 1.919 . S
O100 C111 1.253 . S
O101 Zn95 1.941 . S
O101 C111 1.283 . S
O102 Zn95 1.965 . S
O102 C110 1.303 . S
O103 Zn96 1.938 . S
O103 C110 1.247 . S
O104 Zn96 1.906 . S
O104 C112 1.304 . S
O105 Zn93 1.924 . S
O105 C113 1.311 . S
O106 Zn97 1.977 . S
O106 C112 1.272 . S
O107 Zn97 1.910 . S
O107 C113 1.231 . S
C108 O92 1.225 . S
C108 O114 1.298 . S
C109 O98 1.226 . S
C109 O99 1.307 . S
C110 O102 1.303 . S
C110 O103 1.247 . S
C111 O100 1.253 . S
C111 O101 1.283 . S
C112 O104 1.304 . S
C112 O106 1.272 . S
C113 O105 1.311 . S
C113 O107 1.231 . S
O114 Zn96 1.953 . S
O114 C108 1.298 . S
O115 Zn116 1.953 . S
O115 C131 1.225 . S
Zn116 O115 1.953 . S
Zn116 O117 1.949 . S
Zn116 O123 1.919 . S
Zn116 O128 1.924 . S
O117 Zn116 1.949 . S
O117 Zn118 1.923 . S
O117 Zn119 1.950 . S
O117 Zn120 1.945 . S
Zn118 O117 1.923 . S
Zn118 O121 1.933 . S
Zn118 O124 1.941 . S
Zn118 O125 1.965 . S
Zn119 O117 1.950 . S
Zn119 O126 1.938 . S
Zn119 O127 1.906 . S
Zn119 O137 1.953 . S
Zn120 O117 1.945 . S
Zn120 O122 1.932 . S
Zn120 O129 1.977 . S
Zn120 O130 1.910 . S
O121 Zn118 1.933 . S
O121 C132 1.226 . S
O122 Zn120 1.932 . S
O122 C132 1.307 . S
O123 Zn116 1.919 . S
O123 C134 1.253 . S
O124 Zn118 1.941 . S
O124 C134 1.283 . S
O125 Zn118 1.965 . S
O125 C133 1.303 . S
O126 Zn119 1.938 . S
O126 C133 1.247 . S
O127 Zn119 1.906 . S
O127 C135 1.304 . S
O128 Zn116 1.924 . S
O128 C136 1.311 . S
O129 Zn120 1.977 . S
O129 C135 1.272 . S
O130 Zn120 1.910 . S
O130 C136 1.231 . S
C131 O115 1.225 . S
C131 O137 1.298 . S
C132 O121 1.226 . S
C132 O122 1.307 . S
C133 O125 1.303 . S
C133 O126 1.247 . S
C134 O123 1.253 . S
C134 O124 1.283 . S
C135 O127 1.304 . S
C135 O129 1.272 . S
C136 O128 1.311 . S
C136 O130 1.231 . S
O137 Zn119 1.953 . S
O137 C131 1.298 . S
O138 Zn139 1.953 . S
O138 C154 1.225 . S
Zn139 O138 1.953 . S
Zn139 O140 1.949 . S
Zn139 O146 1.919 . S
Zn139 O151 1.924 . S
O140 Zn139 1.949 . S
O140 Zn141 1.923 . S
O140 Zn142 1.950 . S
O140 Zn143 1.945 . S
Zn141 O140 1.923 . S
Zn141 O144 1.933 . S
Zn141 O147 1.941 . S
Zn141 O148 1.965 . S
Zn142 O140 1.950 . S
Zn142 O149 1.938 . S
Zn142 O150 1.906 . S
Zn142 O160 1.953 . S
Zn143 O140 1.945 . S
Zn143 O145 1.932 . S
Zn143 O152 1.977 . S
Zn143 O153 1.910 . S
O144 Zn141 1.933 . S
O144 C155 1.226 . S
O145 Zn143 1.932 . S
O145 C155 1.307 . S
O146 Zn139 1.919 . S
O146 C157 1.253 . S
O147 Zn141 1.941 . S
O147 C157 1.283 . S
O148 Zn141 1.965 . S
O148 C156 1.303 . S
O149 Zn142 1.938 . S
O149 C156 1.247 . S
O150 Zn142 1.906 . S
O150 C158 1.304 . S
O151 Zn139 1.924 . S
O151 C159 1.311 . S
O152 Zn143 1.977 . S
O152 C158 1.272 . S
O153 Zn143 1.910 . S
O153 C159 1.231 . S
C154 O138 1.225 . S
C154 O160 1.298 . S
C155 O144 1.226 . S
C155 O145 1.307 . S
C156 O148 1.303 . S
C156 O149 1.247 . S
C157 O146 1.253 . S
C157 O147 1.283 . S
C158 O150 1.304 . S
C158 O152 1.272 . S
C159 O151 1.311 . S
C159 O153 1.231 . S
O160 Zn142 1.953 . S
O160 C154 1.298 . S
O161 Zn162 1.953 . S
O161 C177 1.225 . S
Zn162 O161 1.953 . S
Zn162 O163 1.949 . S
Zn162 O169 1.919 . S
Zn162 O174 1.924 . S
O163 Zn162 1.949 . S
O163 Zn164 1.923 . S
O163 Zn165 1.950 . S
O163 Zn166 1.945 . S
Zn164 O163 1.923 . S
Zn164 O167 1.933 . S
Zn164 O170 1.941 . S
Zn164 O171 1.965 . S
Zn165 O163 1.950 . S
Zn165 O172 1.938 . S
Zn165 O173 1.906 . S
Zn165 O183 1.953 . S
Zn166 O163 1.945 . S
Zn166 O168 1.932 . S
Zn166 O175 1.977 . S
Zn166 O176 1.910 . S
O167 Zn164 1.933 . S
O167 C178 1.226 . S
O168 Zn166 1.932 . S
O168 C178 1.307 . S
O169 Zn162 1.919 . S
O169 C180 1.253 . S
O170 Zn164 1.941 . S
O170 C180 1.283 . S
O171 Zn164 1.965 . S
O171 C179 1.303 1_556 S
O172 Zn165 1.938 . S
O172 C179 1.247 1_556 S
O173 Zn165 1.906 . S
O173 C181 1.304 . S
O174 Zn162 1.924 . S
O174 C182 1.311 . S
O175 Zn166 1.977 . S
O175 C181 1.272 . S
O176 Zn166 1.910 . S
O176 C182 1.231 . S
C177 O161 1.225 . S
C177 O183 1.298 . S
C178 O167 1.226 . S
C178 O168 1.307 . S
C179 O171 1.303 1_554 S
C179 O172 1.247 1_554 S
C180 O169 1.253 . S
C180 O170 1.283 . S
C181 O173 1.304 . S
C181 O175 1.272 . S
C182 O174 1.311 . S
C182 O176 1.231 . S
O183 Zn165 1.953 . S
O183 C177 1.298 . S
O184 Zn185 1.953 . S
O184 C200 1.225 . S
Zn185 O184 1.953 . S
Zn185 O186 1.949 . S
Zn185 O192 1.919 . S
Zn185 O197 1.924 . S
O186 Zn185 1.949 . S
O186 Zn187 1.923 . S
O186 Zn188 1.950 . S
O186 Zn189 1.945 . S
Zn187 O186 1.923 . S
Zn187 O190 1.933 . S
Zn187 O193 1.941 . S
Zn187 O194 1.965 . S
Zn188 O186 1.950 . S
Zn188 O195 1.938 . S
Zn188 O196 1.906 . S
Zn188 O206 1.953 . S
Zn189 O186 1.945 . S
Zn189 O191 1.932 . S
Zn189 O198 1.977 . S
Zn189 O199 1.910 . S
O190 Zn187 1.933 . S
O190 C201 1.226 . S
O191 Zn189 1.932 . S
O191 C201 1.307 . S
O192 Zn185 1.919 . S
O192 C203 1.253 . S
O193 Zn187 1.941 . S
O193 C203 1.283 . S
O194 Zn187 1.965 . S
O194 C202 1.303 . S
O195 Zn188 1.938 . S
O195 C202 1.247 . S
O196 Zn188 1.906 . S
O196 C204 1.304 . S
O197 Zn185 1.924 . S
O197 C205 1.311 . S
O198 Zn189 1.977 . S
O198 C204 1.272 . S
O199 Zn189 1.910 . S
O199 C205 1.231 . S
C200 O184 1.225 . S
C200 O206 1.298 . S
C201 O190 1.226 . S
C201 O191 1.307 . S
C202 O194 1.303 . S
C202 O195 1.247 . S
C203 O192 1.253 . S
C203 O193 1.283 . S
C204 O196 1.304 . S
C204 O198 1.272 . S
C205 O197 1.311 . S
C205 O199 1.231 . S
O206 Zn188 1.953 . S
O206 C200 1.298 . S
O207 Zn208 1.953 . S
O207 C223 1.225 . S
Zn208 O207 1.953 . S
Zn208 O209 1.949 . S
Zn208 O215 1.919 . S
Zn208 O220 1.924 . S
O209 Zn208 1.949 . S
O209 Zn210 1.923 . S
O209 Zn211 1.950 . S
O209 Zn212 1.945 . S
Zn210 O209 1.923 . S
Zn210 O213 1.933 . S
Zn210 O216 1.941 . S
Zn210 O217 1.965 . S
Zn211 O209 1.950 . S
Zn211 O218 1.938 . S
Zn211 O219 1.906 . S
Zn211 O229 1.953 . S
Zn212 O209 1.945 . S
Zn212 O214 1.932 . S
Zn212 O221 1.977 . S
Zn212 O222 1.910 . S
O213 Zn210 1.933 . S
O213 C224 1.226 . S
O214 Zn212 1.932 . S
O214 C224 1.307 . S
O215 Zn208 1.919 . S
O215 C226 1.253 . S
O216 Zn210 1.941 . S
O216 C226 1.283 . S
O217 Zn210 1.965 . S
O217 C225 1.303 . S
O218 Zn211 1.938 . S
O218 C225 1.247 . S
O219 Zn211 1.906 . S
O219 C227 1.304 . S
O220 Zn208 1.924 . S
O220 C228 1.311 . S
O221 Zn212 1.977 . S
O221 C227 1.272 . S
O222 Zn212 1.910 . S
O222 C228 1.231 . S
C223 O207 1.225 . S
C223 O229 1.298 . S
C224 O213 1.226 . S
C224 O214 1.307 . S
C225 O217 1.303 . S
C225 O218 1.247 . S
C226 O215 1.253 . S
C226 O216 1.283 . S
C227 O219 1.304 . S
C227 O221 1.272 . S
C228 O220 1.311 . S
C228 O222 1.231 . S
O229 Zn211 1.953 . S
O229 C223 1.298 . S
O230 Zn231 1.953 . S
O230 C246 1.225 . S
Zn231 O230 1.953 . S
Zn231 O232 1.949 . S
Zn231 O238 1.919 . S
Zn231 O243 1.924 . S
O232 Zn231 1.949 . S
O232 Zn233 1.923 . S
O232 Zn234 1.950 . S
O232 Zn235 1.945 . S
Zn233 O232 1.923 . S
Zn233 O236 1.933 . S
Zn233 O239 1.941 . S
Zn233 O240 1.965 . S
Zn234 O232 1.950 . S
Zn234 O241 1.938 . S
Zn234 O242 1.906 . S
Zn234 O252 1.953 . S
Zn235 O232 1.945 . S
Zn235 O237 1.932 . S
Zn235 O244 1.977 . S
Zn235 O245 1.910 . S
O236 Zn233 1.933 . S
O236 C247 1.226 . S
O237 Zn235 1.932 . S
O237 C247 1.307 . S
O238 Zn231 1.919 . S
O238 C249 1.253 . S
O239 Zn233 1.941 . S
O239 C249 1.283 . S
O240 Zn233 1.965 . S
O240 C248 1.303 . S
O241 Zn234 1.938 . S
O241 C248 1.247 . S
O242 Zn234 1.906 . S
O242 C250 1.304 . S
O243 Zn231 1.924 . S
O243 C251 1.311 . S
O244 Zn235 1.977 . S
O244 C250 1.272 . S
O245 Zn235 1.910 . S
O245 C251 1.231 . S
C246 O230 1.225 . S
C246 O252 1.298 . S
C247 O236 1.226 . S
C247 O237 1.307 . S
C248 O240 1.303 . S
C248 O241 1.247 . S
C249 O238 1.253 . S
C249 O239 1.283 . S
C250 O242 1.304 . S
C250 O244 1.272 . S
C251 O243 1.311 . S
C251 O245 1.231 . S
O252 Zn234 1.953 . S
O252 C246 1.298 . S
O253 Zn254 1.953 . S
O253 C269 1.225 . S
Zn254 O253 1.953 . S
Zn254 O255 1.949 . S
Zn254 O261 1.919 . S
Zn254 O266 1.924 . S
O255 Zn254 1.949 . S
O255 Zn256 1.923 . S
O255 Zn257 1.950 . S
O255 Zn258 1.945 . S
Zn256 O255 1.923 . S
Zn256 O259 1.933 . S
Zn256 O262 1.941 . S
Zn256 O263 1.965 . S
Zn257 O255 1.950 . S
Zn257 O264 1.938 . S
Zn257 O265 1.906 . S
Zn257 O275 1.953 . S
Zn258 O255 1.945 . S
Zn258 O260 1.932 . S
Zn258 O267 1.977 . S
Zn258 O268 1.910 . S
O259 Zn256 1.933 . S
O259 C270 1.226 . S
O260 Zn258 1.932 . S
O260 C270 1.307 . S
O261 Zn254 1.919 . S
O261 C272 1.253 . S
O262 Zn256 1.941 . S
O262 C272 1.283 . S
O263 Zn256 1.965 . S
O263 C271 1.303 1_556 S
O264 Zn257 1.938 . S
O264 C271 1.247 1_556 S
O265 Zn257 1.906 . S
O265 C273 1.304 . S
O266 Zn254 1.924 . S
O266 C274 1.311 . S
O267 Zn258 1.977 . S
O267 C273 1.272 . S
O268 Zn258 1.910 . S
O268 C274 1.231 . S
C269 O253 1.225 . S
C269 O275 1.298 . S
C270 O259 1.226 . S
C270 O260 1.307 . S
C271 O263 1.303 1_554 S
C271 O264 1.247 1_554 S
C272 O261 1.253 . S
C272 O262 1.283 . S
C273 O265 1.304 . S
C273 O267 1.272 . S
C274 O266 1.311 . S
C274 O268 1.231 . S
O275 Zn257 1.953 . S
O275 C269 1.298 . S
O276 Zn277 1.953 . S
O276 C292 1.225 . S
Zn277 O276 1.953 . S
Zn277 O278 1.949 . S
Zn277 O284 1.919 . S
Zn277 O289 1.924 . S
O278 Zn277 1.949 . S
O278 Zn279 1.923 . S
O278 Zn280 1.950 . S
O278 Zn281 1.945 . S
Zn279 O278 1.923 . S
Zn279 O282 1.933 . S
Zn279 O285 1.941 . S
Zn279 O286 1.965 . S
Zn280 O278 1.950 . S
Zn280 O287 1.938 . S
Zn280 O288 1.906 . S
Zn280 O298 1.953 . S
Zn281 O278 1.945 . S
Zn281 O283 1.932 . S
Zn281 O290 1.977 . S
Zn281 O291 1.910 . S
O282 Zn279 1.933 . S
O282 C293 1.226 . S
O283 Zn281 1.932 . S
O283 C293 1.307 . S
O284 Zn277 1.919 . S
O284 C295 1.253 . S
O285 Zn279 1.941 . S
O285 C295 1.283 . S
O286 Zn279 1.965 . S
O286 C294 1.303 . S
O287 Zn280 1.938 . S
O287 C294 1.247 . S
O288 Zn280 1.906 . S
O288 C296 1.304 . S
O289 Zn277 1.924 . S
O289 C297 1.311 . S
O290 Zn281 1.977 . S
O290 C296 1.272 . S
O291 Zn281 1.910 . S
O291 C297 1.231 . S
C292 O276 1.225 . S
C292 O298 1.298 . S
C293 O282 1.226 . S
C293 O283 1.307 . S
C294 O286 1.303 . S
C294 O287 1.247 . S
C295 O284 1.253 . S
C295 O285 1.283 . S
C296 O288 1.304 . S
C296 O290 1.272 . S
C297 O289 1.311 . S
C297 O291 1.231 . S
O298 Zn280 1.953 . S
O298 C292 1.298 . S
O299 Zn300 1.953 . S
O299 C315 1.225 . S
Zn300 O299 1.953 . S
Zn300 O301 1.949 . S
Zn300 O307 1.919 . S
Zn300 O312 1.924 . S
O301 Zn300 1.949 . S
O301 Zn302 1.923 . S
O301 Zn303 1.950 . S
O301 Zn304 1.945 . S
Zn302 O301 1.923 . S
Zn302 O305 1.933 . S
Zn302 O308 1.941 . S
Zn302 O309 1.965 . S
Zn303 O301 1.950 . S
Zn303 O310 1.938 . S
Zn303 O311 1.906 . S
Zn303 O321 1.953 . S
Zn304 O301 1.945 . S
Zn304 O306 1.932 . S
Zn304 O313 1.977 . S
Zn304 O314 1.910 . S
O305 Zn302 1.933 . S
O305 C316 1.226 . S
O306 Zn304 1.932 . S
O306 C316 1.307 . S
O307 Zn300 1.919 . S
O307 C318 1.253 . S
O308 Zn302 1.941 . S
O308 C318 1.283 . S
O309 Zn302 1.965 . S
O309 C317 1.303 . S
O310 Zn303 1.938 . S
O310 C317 1.247 . S
O311 Zn303 1.906 . S
O311 C319 1.304 . S
O312 Zn300 1.924 . S
O312 C320 1.311 . S
O313 Zn304 1.977 . S
O313 C319 1.272 . S
O314 Zn304 1.910 . S
O314 C320 1.231 . S
C315 O299 1.225 . S
C315 O321 1.298 . S
C316 O305 1.226 . S
C316 O306 1.307 . S
C317 O309 1.303 . S
C317 O310 1.247 . S
C318 O307 1.253 . S
C318 O308 1.283 . S
C319 O311 1.304 . S
C319 O313 1.272 . S
C320 O312 1.311 . S
C320 O314 1.231 . S
O321 Zn303 1.953 . S
O321 C315 1.298 . S
O322 Zn323 1.953 . S
O322 C338 1.225 . S
Zn323 O322 1.953 . S
Zn323 O324 1.949 . S
Zn323 O330 1.919 . S
Zn323 O335 1.924 . S
O324 Zn323 1.949 . S
O324 Zn325 1.923 . S
O324 Zn326 1.950 . S
O324 Zn327 1.945 . S
Zn325 O324 1.923 . S
Zn325 O328 1.933 . S
Zn325 O331 1.941 . S
Zn325 O332 1.965 . S
Zn326 O324 1.950 . S
Zn326 O333 1.938 . S
Zn326 O334 1.906 . S
Zn326 O344 1.953 . S
Zn327 O324 1.945 . S
Zn327 O329 1.932 . S
Zn327 O336 1.977 . S
Zn327 O337 1.910 . S
O328 Zn325 1.933 . S
O328 C339 1.226 . S
O329 Zn327 1.932 . S
O329 C339 1.307 . S
O330 Zn323 1.919 . S
O330 C341 1.253 . S
O331 Zn325 1.941 . S
O331 C341 1.283 . S
O332 Zn325 1.965 . S
O332 C340 1.303 . S
O333 Zn326 1.938 . S
O333 C340 1.247 . S
O334 Zn326 1.906 . S
O334 C342 1.304 . S
O335 Zn323 1.924 . S
O335 C343 1.311 . S
O336 Zn327 1.977 . S
O336 C342 1.272 . S
O337 Zn327 1.910 . S
O337 C343 1.231 . S
C338 O322 1.225 . S
C338 O344 1.298 . S
C339 O328 1.226 . S
C339 O329 1.307 . S
C340 O332 1.303 . S
C340 O333 1.247 . S
C341 O330 1.253 . S
C341 O331 1.283 . S
C342 O334 1.304 . S
C342 O336 1.272 . S
C343 O335 1.311 . S
C343 O337 1.231 . S
O344 Zn326 1.953 . S
O344 C338 1.298 . S
O345 Zn346 1.953 . S
O345 C361 1.225 . S
Zn346 O345 1.953 . S
Zn346 O347 1.949 . S
Zn346 O353 1.919 . S
Zn346 O358 1.924 . S
O347 Zn346 1.949 . S
O347 Zn348 1.923 . S
O347 Zn349 1.950 . S
O347 Zn350 1.945 . S
Zn348 O347 1.923 . S
Zn348 O351 1.933 . S
Zn348 O354 1.941 . S
Zn348 O355 1.965 . S
Zn349 O347 1.950 . S
Zn349 O356 1.938 . S
Zn349 O357 1.906 . S
Zn349 O367 1.953 . S
Zn350 O347 1.945 . S
Zn350 O352 1.932 . S
Zn350 O359 1.977 . S
Zn350 O360 1.910 . S
O351 Zn348 1.933 . S
O351 C362 1.226 . S
O352 Zn350 1.932 . S
O352 C362 1.307 . S
O353 Zn346 1.919 . S
O353 C364 1.253 . S
O354 Zn348 1.941 . S
O354 C364 1.283 . S
O355 Zn348 1.965 . S
O355 C363 1.303 1_554 S
O356 Zn349 1.938 . S
O356 C363 1.247 1_554 S
O357 Zn349 1.906 . S
O357 C365 1.304 . S
O358 Zn346 1.924 . S
O358 C366 1.311 . S
O359 Zn350 1.977 . S
O359 C365 1.272 . S
O360 Zn350 1.910 . S
O360 C366 1.231 . S
C361 O345 1.225 . S
C361 O367 1.298 . S
C362 O351 1.226 . S
C362 O352 1.307 . S
C363 O355 1.303 1_556 S
C363 O356 1.247 1_556 S
C364 O353 1.253 . S
C364 O354 1.283 . S
C365 O357 1.304 . S
C365 O359 1.272 . S
C366 O358 1.311 . S
C366 O360 1.231 . S
O367 Zn349 1.953 . S
O367 C361 1.298 . S
O368 Zn369 1.953 . S
O368 C384 1.225 . S
Zn369 O368 1.953 . S
Zn369 O370 1.949 . S
Zn369 O376 1.919 . S
Zn369 O381 1.924 . S
O370 Zn369 1.949 . S
O370 Zn371 1.923 . S
O370 Zn372 1.950 . S
O370 Zn373 1.945 . S
Zn371 O370 1.923 . S
Zn371 O374 1.933 . S
Zn371 O377 1.941 . S
Zn371 O378 1.965 . S
Zn372 O370 1.950 . S
Zn372 O379 1.938 . S
Zn372 O380 1.906 . S
Zn372 O390 1.953 . S
Zn373 O370 1.945 . S
Zn373 O375 1.932 . S
Zn373 O382 1.977 . S
Zn373 O383 1.910 . S
O374 Zn371 1.933 . S
O374 C385 1.226 . S
O375 Zn373 1.932 . S
O375 C385 1.307 . S
O376 Zn369 1.919 . S
O376 C387 1.253 . S
O377 Zn371 1.941 . S
O377 C387 1.283 . S
O378 Zn371 1.965 . S
O378 C386 1.303 . S
O379 Zn372 1.938 . S
O379 C386 1.247 . S
O380 Zn372 1.906 . S
O380 C388 1.304 . S
O381 Zn369 1.924 . S
O381 C389 1.311 . S
O382 Zn373 1.977 . S
O382 C388 1.272 . S
O383 Zn373 1.910 . S
O383 C389 1.231 . S
C384 O368 1.225 . S
C384 O390 1.298 . S
C385 O374 1.226 . S
C385 O375 1.307 . S
C386 O378 1.303 . S
C386 O379 1.247 . S
C387 O376 1.253 . S
C387 O377 1.283 . S
C388 O380 1.304 . S
C388 O382 1.272 . S
C389 O381 1.311 . S
C389 O383 1.231 . S
O390 Zn372 1.953 . S
O390 C384 1.298 . S
O391 Zn392 1.953 . S
O391 C407 1.225 . S
Zn392 O391 1.953 . S
Zn392 O393 1.949 . S
Zn392 O399 1.919 . S
Zn392 O404 1.924 . S
O393 Zn392 1.949 . S
O393 Zn394 1.923 . S
O393 Zn395 1.950 . S
O393 Zn396 1.945 . S
Zn394 O393 1.923 . S
Zn394 O397 1.933 . S
Zn394 O400 1.941 . S
Zn394 O401 1.965 . S
Zn395 O393 1.950 . S
Zn395 O402 1.938 . S
Zn395 O403 1.906 . S
Zn395 O413 1.953 . S
Zn396 O393 1.945 . S
Zn396 O398 1.932 . S
Zn396 O405 1.977 . S
Zn396 O406 1.910 . S
O397 Zn394 1.933 . S
O397 C408 1.226 . S
O398 Zn396 1.932 . S
O398 C408 1.307 . S
O399 Zn392 1.919 . S
O399 C410 1.253 . S
O400 Zn394 1.941 . S
O400 C410 1.283 . S
O401 Zn394 1.965 . S
O401 C409 1.303 1_554 S
O402 Zn395 1.938 . S
O402 C409 1.247 1_554 S
O403 Zn395 1.906 . S
O403 C411 1.304 . S
O404 Zn392 1.924 . S
O404 C412 1.311 . S
O405 Zn396 1.977 . S
O405 C411 1.272 . S
O406 Zn396 1.910 . S
O406 C412 1.231 . S
C407 O391 1.225 . S
C407 O413 1.298 . S
C408 O397 1.226 . S
C408 O398 1.307 . S
C409 O401 1.303 1_556 S
C409 O402 1.247 1_556 S
C410 O399 1.253 . S
C410 O400 1.283 . S
C411 O403 1.304 . S
C411 O405 1.272 . S
C412 O404 1.311 . S
C412 O406 1.231 . S
O413 Zn395 1.953 . S
O413 C407 1.298 . S
O414 Zn415 1.953 . S
O414 C430 1.225 . S
Zn415 O414 1.953 . S
Zn415 O416 1.949 . S
Zn415 O422 1.919 . S
Zn415 O427 1.924 . S
O416 Zn415 1.949 . S
O416 Zn417 1.923 . S
O416 Zn418 1.950 . S
O416 Zn419 1.945 . S
Zn417 O416 1.923 . S
Zn417 O420 1.933 . S
Zn417 O423 1.941 . S
Zn417 O424 1.965 . S
Zn418 O416 1.950 . S
Zn418 O425 1.938 . S
Zn418 O426 1.906 . S
Zn418 O436 1.953 . S
Zn419 O416 1.945 . S
Zn419 O421 1.932 . S
Zn419 O428 1.977 . S
Zn419 O429 1.910 . S
O420 Zn417 1.933 . S
O420 C431 1.226 . S
O421 Zn419 1.932 . S
O421 C431 1.307 . S
O422 Zn415 1.919 . S
O422 C433 1.253 . S
O423 Zn417 1.941 . S
O423 C433 1.283 . S
O424 Zn417 1.965 . S
O424 C432 1.303 . S
O425 Zn418 1.938 . S
O425 C432 1.247 . S
O426 Zn418 1.906 . S
O426 C434 1.304 . S
O427 Zn415 1.924 . S
O427 C435 1.311 . S
O428 Zn419 1.977 . S
O428 C434 1.272 . S
O429 Zn419 1.910 . S
O429 C435 1.231 . S
C430 O414 1.225 . S
C430 O436 1.298 . S
C431 O420 1.226 . S
C431 O421 1.307 . S
C432 O424 1.303 . S
C432 O425 1.247 . S
C433 O422 1.253 . S
C433 O423 1.283 . S
C434 O426 1.304 . S
C434 O428 1.272 . S
C435 O427 1.311 . S
C435 O429 1.231 . S
O436 Zn418 1.953 . S
O436 C430 1.298 . S
O437 Zn438 1.953 . S
O437 C453 1.225 . S
Zn438 O437 1.953 . S
Zn438 O439 1.949 . S
Zn438 O445 1.919 . S
Zn438 O450 1.924 . S
O439 Zn438 1.949 . S
O439 Zn440 1.923 . S
O439 Zn441 1.950 . S
O439 Zn442 1.945 . S
Zn440 O439 1.923 . S
Zn440 O443 1.933 . S
Zn440 O446 1.941 . S
Zn440 O447 1.965 . S
Zn441 O439 1.950 . S
Zn441 O448 1.938 . S
Zn441 O449 1.906 . S
Zn441 O459 1.953 . S
Zn442 O439 1.945 . S
Zn442 O444 1.932 . S
Zn442 O451 1.977 . S
Zn442 O452 1.910 . S
O443 Zn440 1.933 . S
O443 C454 1.226 . S
O444 Zn442 1.932 . S
O444 C454 1.307 . S
O445 Zn438 1.919 . S
O445 C456 1.253 . S
O446 Zn440 1.941 . S
O446 C456 1.283 . S
O447 Zn440 1.965 . S
O447 C455 1.303 . S
O448 Zn441 1.938 . S
O448 C455 1.247 . S
O449 Zn441 1.906 . S
O449 C457 1.304 . S
O450 Zn438 1.924 . S
O450 C458 1.311 . S
O451 Zn442 1.977 . S
O451 C457 1.272 . S
O452 Zn442 1.910 . S
O452 C458 1.231 . S
C453 O437 1.225 . S
C453 O459 1.298 . S
C454 O443 1.226 . S
C454 O444 1.307 . S
C455 O447 1.303 . S
C455 O448 1.247 . S
C456 O445 1.253 . S
C456 O446 1.283 . S
C457 O449 1.304 . S
C457 O451 1.272 . S
C458 O450 1.311 . S
C458 O452 1.231 . S
O459 Zn441 1.953 . S
O459 C453 1.298 . S
O460 Zn461 1.953 . S
O460 C476 1.225 . S
Zn461 O460 1.953 . S
Zn461 O462 1.949 . S
Zn461 O468 1.919 . S
Zn461 O473 1.924 . S
O462 Zn461 1.949 . S
O462 Zn463 1.923 . S
O462 Zn464 1.950 . S
O462 Zn465 1.945 . S
Zn463 O462 1.923 . S
Zn463 O466 1.933 . S
Zn463 O469 1.941 . S
Zn463 O470 1.965 . S
Zn464 O462 1.950 . S
Zn464 O471 1.938 . S
Zn464 O472 1.906 . S
Zn464 O482 1.953 . S
Zn465 O462 1.945 . S
Zn465 O467 1.932 . S
Zn465 O474 1.977 . S
Zn465 O475 1.910 . S
O466 Zn463 1.933 . S
O466 C477 1.226 . S
O467 Zn465 1.932 . S
O467 C477 1.307 . S
O468 Zn461 1.919 . S
O468 C479 1.253 . S
O469 Zn463 1.941 . S
O469 C479 1.283 . S
O470 Zn463 1.965 . S
O470 C478 1.303 . S
O471 Zn464 1.938 . S
O471 C478 1.247 . S
O472 Zn464 1.906 . S
O472 C480 1.304 . S
O473 Zn461 1.924 . S
O473 C481 1.311 . S
O474 Zn465 1.977 . S
O474 C480 1.272 . S
O475 Zn465 1.910 . S
O475 C481 1.231 . S
C476 O460 1.225 . S
C476 O482 1.298 . S
C477 O466 1.226 . S
C477 O467 1.307 . S
C478 O470 1.303 . S
C478 O471 1.247 . S
C479 O468 1.253 . S
C479 O469 1.283 . S
C480 O472 1.304 . S
C480 O474 1.272 . S
C481 O473 1.311 . S
C481 O475 1.231 . S
O482 Zn464 1.953 . S
O482 C476 1.298 . S
O483 Zn484 1.953 . S
O483 C499 1.225 . S
Zn484 O483 1.953 . S
Zn484 O485 1.949 . S
Zn484 O491 1.919 . S
Zn484 O496 1.924 . S
O485 Zn484 1.949 . S
O485 Zn486 1.923 . S
O485 Zn487 1.950 . S
O485 Zn488 1.945 . S
Zn486 O485 1.923 . S
Zn486 O489 1.933 . S
Zn486 O492 1.941 . S
Zn486 O493 1.965 . S
Zn487 O485 1.950 . S
Zn487 O494 1.938 . S
Zn487 O495 1.906 . S
Zn487 O505 1.953 . S
Zn488 O485 1.945 . S
Zn488 O490 1.932 . S
Zn488 O497 1.977 . S
Zn488 O498 1.910 . S
O489 Zn486 1.933 . S
O489 C500 1.226 . S
O490 Zn488 1.932 . S
O490 C500 1.307 . S
O491 Zn484 1.919 . S
O491 C502 1.253 . S
O492 Zn486 1.941 . S
O492 C502 1.283 . S
O493 Zn486 1.965 . S
O493 C501 1.303 1_556 S
O494 Zn487 1.938 . S
O494 C501 1.247 1_556 S
O495 Zn487 1.906 . S
O495 C503 1.304 . S
O496 Zn484 1.924 . S
O496 C504 1.311 . S
O497 Zn488 1.977 . S
O497 C503 1.272 . S
O498 Zn488 1.910 . S
O498 C504 1.231 . S
C499 O483 1.225 . S
C499 O505 1.298 . S
C500 O489 1.226 . S
C500 O490 1.307 . S
C501 O493 1.303 1_554 S
C501 O494 1.247 1_554 S
C502 O491 1.253 . S
C502 O492 1.283 . S
C503 O495 1.304 . S
C503 O497 1.272 . S
C504 O496 1.311 . S
C504 O498 1.231 . S
O505 Zn487 1.953 . S
O505 C499 1.298 . S
O506 Zn507 1.953 . S
O506 C522 1.225 . S
Zn507 O506 1.953 . S
Zn507 O508 1.949 . S
Zn507 O514 1.919 . S
Zn507 O519 1.924 . S
O508 Zn507 1.949 . S
O508 Zn509 1.923 . S
O508 Zn510 1.950 . S
O508 Zn511 1.945 . S
Zn509 O508 1.923 . S
Zn509 O512 1.933 . S
Zn509 O515 1.941 . S
Zn509 O516 1.965 . S
Zn510 O508 1.950 . S
Zn510 O517 1.938 . S
Zn510 O518 1.906 . S
Zn510 O528 1.953 . S
Zn511 O508 1.945 . S
Zn511 O513 1.932 . S
Zn511 O520 1.977 . S
Zn511 O521 1.910 . S
O512 Zn509 1.933 . S
O512 C523 1.226 . S
O513 Zn511 1.932 . S
O513 C523 1.307 . S
O514 Zn507 1.919 . S
O514 C525 1.253 . S
O515 Zn509 1.941 . S
O515 C525 1.283 . S
O516 Zn509 1.965 . S
O516 C524 1.303 . S
O517 Zn510 1.938 . S
O517 C524 1.247 . S
O518 Zn510 1.906 . S
O518 C526 1.304 . S
O519 Zn507 1.924 . S
O519 C527 1.311 . S
O520 Zn511 1.977 . S
O520 C526 1.272 . S
O521 Zn511 1.910 . S
O521 C527 1.231 . S
C522 O506 1.225 . S
C522 O528 1.298 . S
C523 O512 1.226 . S
C523 O513 1.307 . S
C524 O516 1.303 . S
C524 O517 1.247 . S
C525 O514 1.253 . S
C525 O515 1.283 . S
C526 O518 1.304 . S
C526 O520 1.272 . S
C527 O519 1.311 . S
C527 O521 1.231 . S
O528 Zn510 1.953 . S
O528 C522 1.298 . S
O529 Zn530 1.953 . S
O529 C545 1.225 . S
Zn530 O529 1.953 . S
Zn530 O531 1.949 . S
Zn530 O537 1.919 . S
Zn530 O542 1.924 . S
O531 Zn530 1.949 . S
O531 Zn532 1.923 . S
O531 Zn533 1.950 . S
O531 Zn534 1.945 . S
Zn532 O531 1.923 . S
Zn532 O535 1.933 . S
Zn532 O538 1.941 . S
Zn532 O539 1.965 . S
Zn533 O531 1.950 . S
Zn533 O540 1.938 . S
Zn533 O541 1.906 . S
Zn533 O551 1.953 . S
Zn534 O531 1.945 . S
Zn534 O536 1.932 . S
Zn534 O543 1.977 . S
Zn534 O544 1.910 . S
O535 Zn532 1.933 . S
O535 C546 1.226 . S
O536 Zn534 1.932 . S
O536 C546 1.307 . S
O537 Zn530 1.919 . S
O537 C548 1.253 . S
O538 Zn532 1.941 . S
O538 C548 1.283 . S
O539 Zn532 1.965 . S
O539 C547 1.303 . S
O540 Zn533 1.938 . S
O540 C547 1.247 . S
O541 Zn533 1.906 . S
O541 C549 1.304 . S
O542 Zn530 1.924 . S
O542 C550 1.311 . S
O543 Zn534 1.977 . S
O543 C549 1.272 . S
O544 Zn534 1.910 . S
O544 C550 1.231 . S
C545 O529 1.225 . S
C545 O551 1.298 . S
C546 O535 1.226 . S
C546 O536 1.307 . S
C547 O539 1.303 . S
C547 O540 1.247 . S
C548 O537 1.253 . S
C548 O538 1.283 . S
C549 O541 1.304 . S
C549 O543 1.272 . S
C550 O542 1.311 . S
C550 O544 1.231 . S
O551 Zn533 1.953 . S
O551 C545 1.298 . S
O552 Zn553 1.953 . S
O552 C568 1.225 . S
Zn553 O552 1.953 . S
Zn553 O554 1.949 . S
Zn553 O560 1.919 . S
Zn553 O565 1.924 . S
O554 Zn553 1.949 . S
O554 Zn555 1.923 . S
O554 Zn556 1.950 . S
O554 Zn557 1.945 . S
Zn555 O554 1.923 . S
Zn555 O558 1.933 . S
Zn555 O561 1.941 . S
Zn555 O562 1.965 . S
Zn556 O554 1.950 . S
Zn556 O563 1.938 . S
Zn556 O564 1.906 . S
Zn556 O574 1.953 . S
Zn557 O554 1.945 . S
Zn557 O559 1.932 . S
Zn557 O566 1.977 . S
Zn557 O567 1.910 . S
O558 Zn555 1.933 . S
O558 C569 1.226 . S
O559 Zn557 1.932 . S
O559 C569 1.307 . S
O560 Zn553 1.919 . S
O560 C571 1.253 . S
O561 Zn555 1.941 . S
O561 C571 1.283 . S
O562 Zn555 1.965 . S
O562 C570 1.303 . S
O563 Zn556 1.938 . S
O563 C570 1.247 . S
O564 Zn556 1.906 . S
O564 C572 1.304 . S
O565 Zn553 1.924 . S
O565 C573 1.311 . S
O566 Zn557 1.977 . S
O566 C572 1.272 . S
O567 Zn557 1.910 . S
O567 C573 1.231 . S
C568 O552 1.225 . S
C568 O574 1.298 . S
C569 O558 1.226 . S
C569 O559 1.307 . S
C570 O562 1.303 . S
C570 O563 1.247 . S
C571 O560 1.253 . S
C571 O561 1.283 . S
C572 O564 1.304 . S
C572 O566 1.272 . S
C573 O565 1.311 . S
C573 O567 1.231 . S
O574 Zn556 1.953 . S
O574 C568 1.298 . S
O575 Zn576 1.953 . S
O575 C591 1.225 . S
Zn576 O575 1.953 . S
Zn576 O577 1.949 . S
Zn576 O583 1.919 . S
Zn576 O588 1.924 . S
O577 Zn576 1.949 . S
O577 Zn578 1.923 . S
O577 Zn579 1.950 . S
O577 Zn580 1.945 . S
Zn578 O577 1.923 . S
Zn578 O581 1.933 . S
Zn578 O584 1.941 . S
Zn578 O585 1.965 . S
Zn579 O577 1.950 . S
Zn579 O586 1.938 . S
Zn579 O587 1.906 . S
Zn579 O597 1.953 . S
Zn580 O577 1.945 . S
Zn580 O582 1.932 . S
Zn580 O589 1.977 . S
Zn580 O590 1.910 . S
O581 Zn578 1.933 . S
O581 C592 1.226 . S
O582 Zn580 1.932 . S
O582 C592 1.307 . S
O583 Zn576 1.919 . S
O583 C594 1.253 . S
O584 Zn578 1.941 . S
O584 C594 1.283 . S
O585 Zn578 1.965 . S
O585 C593 1.303 1_556 S
O586 Zn579 1.938 . S
O586 C593 1.247 1_556 S
O587 Zn579 1.906 . S
O587 C595 1.304 . S
O588 Zn576 1.924 . S
O588 C596 1.311 . S
O589 Zn580 1.977 . S
O589 C595 1.272 . S
O590 Zn580 1.910 . S
O590 C596 1.231 . S
C591 O575 1.225 . S
C591 O597 1.298 . S
C592 O581 1.226 . S
C592 O582 1.307 . S
C593 O585 1.303 1_554 S
C593 O586 1.247 1_554 S
C594 O583 1.253 . S
C594 O584 1.283 . S
C595 O587 1.304 . S
C595 O589 1.272 . S
C596 O588 1.311 . S
C596 O590 1.231 . S
O597 Zn579 1.953 . S
O597 C591 1.298 . S
O598 Zn599 1.953 . S
O598 C614 1.225 . S
Zn599 O598 1.953 . S
Zn599 O600 1.949 . S
Zn599 O606 1.919 . S
Zn599 O611 1.924 . S
O600 Zn599 1.949 . S
O600 Zn601 1.923 . S
O600 Zn602 1.950 . S
O600 Zn603 1.945 . S
Zn601 O600 1.923 . S
Zn601 O604 1.933 . S
Zn601 O607 1.941 . S
Zn601 O608 1.965 . S
Zn602 O600 1.950 . S
Zn602 O609 1.938 . S
Zn602 O610 1.906 . S
Zn602 O620 1.953 . S
Zn603 O600 1.945 . S
Zn603 O605 1.932 . S
Zn603 O612 1.977 . S
Zn603 O613 1.910 . S
O604 Zn601 1.933 . S
O604 C615 1.226 . S
O605 Zn603 1.932 . S
O605 C615 1.307 . S
O606 Zn599 1.919 . S
O606 C617 1.253 . S
O607 Zn601 1.941 . S
O607 C617 1.283 . S
O608 Zn601 1.965 . S
O608 C616 1.303 . S
O609 Zn602 1.938 . S
O609 C616 1.247 . S
O610 Zn602 1.906 . S
O610 C618 1.304 . S
O611 Zn599 1.924 . S
O611 C619 1.311 . S
O612 Zn603 1.977 . S
O612 C618 1.272 . S
O613 Zn603 1.910 . S
O613 C619 1.231 . S
C614 O598 1.225 . S
C614 O620 1.298 . S
C615 O604 1.226 . S
C615 O605 1.307 . S
C616 O608 1.303 . S
C616 O609 1.247 . S
C617 O606 1.253 . S
C617 O607 1.283 . S
C618 O610 1.304 . S
C618 O612 1.272 . S
C619 O611 1.311 . S
C619 O613 1.231 . S
O620 Zn602 1.953 . S
O620 C614 1.298 . S
O621 Zn622 1.953 . S
O621 C637 1.225 . S
Zn622 O621 1.953 . S
Zn622 O623 1.949 . S
Zn622 O629 1.919 . S
Zn622 O634 1.924 . S
O623 Zn622 1.949 . S
O623 Zn624 1.923 . S
O623 Zn625 1.950 . S
O623 Zn626 1.945 . S
Zn624 O623 1.923 . S
Zn624 O627 1.933 . S
Zn624 O630 1.941 . S
Zn624 O631 1.965 . S
Zn625 O623 1.950 . S
Zn625 O632 1.938 . S
Zn625 O633 1.906 . S
Zn625 O643 1.953 . S
Zn626 O623 1.945 . S
Zn626 O628 1.932 . S
Zn626 O635 1.977 . S
Zn626 O636 1.910 . S
O627 Zn624 1.933 . S
O627 C638 1.226 . S
O628 Zn626 1.932 . S
O628 C638 1.307 . S
O629 Zn622 1.919 . S
O629 C640 1.253 . S
O630 Zn624 1.941 . S
O630 C640 1.283 . S
O631 Zn624 1.965 . S
O631 C639 1.303 . S
O632 Zn625 1.938 . S
O632 C639 1.247 . S
O633 Zn625 1.906 . S
O633 C641 1.304 . S
O634 Zn622 1.924 . S
O634 C642 1.311 . S
O635 Zn626 1.977 . S
O635 C641 1.272 . S
O636 Zn626 1.910 . S
O636 C642 1.231 . S
C637 O621 1.225 . S
C637 O643 1.298 . S
C638 O627 1.226 . S
C638 O628 1.307 . S
C639 O631 1.303 . S
C639 O632 1.247 . S
C640 O629 1.253 . S
C640 O630 1.283 . S
C641 O633 1.304 . S
C641 O635 1.272 . S
C642 O634 1.311 . S
C642 O636 1.231 . S
O643 Zn625 1.953 . S
O643 C637 1.298 . S
O644 Zn645 1.953 . S
O644 C660 1.225 . S
Zn645 O644 1.953 . S
Zn645 O646 1.949 . S
Zn645 O652 1.919 . S
Zn645 O657 1.924 . S
O646 Zn645 1.949 . S
O646 Zn647 1.923 . S
O646 Zn648 1.950 . S
O646 Zn649 1.945 . S
Zn647 O646 1.923 . S
Zn647 O650 1.933 . S
Zn647 O653 1.941 . S
Zn647 O654 1.965 . S
Zn648 O646 1.950 . S
Zn648 O655 1.938 . S
Zn648 O656 1.906 . S
Zn648 O666 1.953 . S
Zn649 O646 1.945 . S
Zn649 O651 1.932 . S
Zn649 O658 1.977 . S
Zn649 O659 1.910 . S
O650 Zn647 1.933 . S
O650 C661 1.226 . S
O651 Zn649 1.932 . S
O651 C661 1.307 . S
O652 Zn645 1.919 . S
O652 C663 1.253 . S
O653 Zn647 1.941 . S
O653 C663 1.283 . S
O654 Zn647 1.965 . S
O654 C662 1.303 . S
O655 Zn648 1.938 . S
O655 C662 1.247 . S
O656 Zn648 1.906 . S
O656 C664 1.304 . S
O657 Zn645 1.924 . S
O657 C665 1.311 . S
O658 Zn649 1.977 . S
O658 C664 1.272 . S
O659 Zn649 1.910 . S
O659 C665 1.231 . S
C660 O644 1.225 . S
C660 O666 1.298 . S
C661 O650 1.226 . S
C661 O651 1.307 . S
C662 O654 1.303 . S
C662 O655 1.247 . S
C663 O652 1.253 . S
C663 O653 1.283 . S
C664 O656 1.304 . S
C664 O658 1.272 . S
C665 O657 1.311 . S
C665 O659 1.231 . S
O666 Zn648 1.953 . S
O666 C660 1.298 . S
O667 Zn668 1.953 . S
O667 C683 1.225 . S
Zn668 O667 1.953 . S
Zn668 O669 1.949 . S
Zn668 O675 1.919 . S
Zn668 O680 1.924 . S
O669 Zn668 1.949 . S
O669 Zn670 1.923 . S
O669 Zn671 1.950 . S
O669 Zn672 1.945 . S
Zn670 O669 1.923 . S
Zn670 O673 1.933 . S
Zn670 O676 1.941 . S
Zn670 O677 1.965 . S
Zn671 O669 1.950 . S
Zn671 O678 1.938 . S
Zn671 O679 1.906 . S
Zn671 O689 1.953 . S
Zn672 O669 1.945 . S
Zn672 O674 1.932 . S
Zn672 O681 1.977 . S
Zn672 O682 1.910 . S
O673 Zn670 1.933 . S
O673 C684 1.226 . S
O674 Zn672 1.932 . S
O674 C684 1.307 . S
O675 Zn668 1.919 . S
O675 C686 1.253 . S
O676 Zn670 1.941 . S
O676 C686 1.283 . S
O677 Zn670 1.965 . S
O677 C685 1.303 1_554 S
O678 Zn671 1.938 . S
O678 C685 1.247 1_554 S
O679 Zn671 1.906 . S
O679 C687 1.304 . S
O680 Zn668 1.924 . S
O680 C688 1.311 . S
O681 Zn672 1.977 . S
O681 C687 1.272 . S
O682 Zn672 1.910 . S
O682 C688 1.231 . S
C683 O667 1.225 . S
C683 O689 1.298 . S
C684 O673 1.226 . S
C684 O674 1.307 . S
C685 O677 1.303 1_556 S
C685 O678 1.247 1_556 S
C686 O675 1.253 . S
C686 O676 1.283 . S
C687 O679 1.304 . S
C687 O681 1.272 . S
C688 O680 1.311 . S
C688 O682 1.231 . S
O689 Zn671 1.953 . S
O689 C683 1.298 . S
O690 Zn691 1.953 . S
O690 C706 1.225 . S
Zn691 O690 1.953 . S
Zn691 O692 1.949 . S
Zn691 O698 1.919 . S
Zn691 O703 1.924 . S
O692 Zn691 1.949 . S
O692 Zn693 1.923 . S
O692 Zn694 1.950 . S
O692 Zn695 1.945 . S
Zn693 O692 1.923 . S
Zn693 O696 1.933 . S
Zn693 O699 1.941 . S
Zn693 O700 1.965 . S
Zn694 O692 1.950 . S
Zn694 O701 1.938 . S
Zn694 O702 1.906 . S
Zn694 O712 1.953 . S
Zn695 O692 1.945 . S
Zn695 O697 1.932 . S
Zn695 O704 1.977 . S
Zn695 O705 1.910 . S
O696 Zn693 1.933 . S
O696 C707 1.226 . S
O697 Zn695 1.932 . S
O697 C707 1.307 . S
O698 Zn691 1.919 . S
O698 C709 1.253 . S
O699 Zn693 1.941 . S
O699 C709 1.283 . S
O700 Zn693 1.965 . S
O700 C708 1.303 . S
O701 Zn694 1.938 . S
O701 C708 1.247 . S
O702 Zn694 1.906 . S
O702 C710 1.304 . S
O703 Zn691 1.924 . S
O703 C711 1.311 . S
O704 Zn695 1.977 . S
O704 C710 1.272 . S
O705 Zn695 1.910 . S
O705 C711 1.231 . S
C706 O690 1.225 . S
C706 O712 1.298 . S
C707 O696 1.226 . S
C707 O697 1.307 . S
C708 O700 1.303 . S
C708 O701 1.247 . S
C709 O698 1.253 . S
C709 O699 1.283 . S
C710 O702 1.304 . S
C710 O704 1.272 . S
C711 O703 1.311 . S
C711 O705 1.231 . S
O712 Zn694 1.953 . S
O712 C706 1.298 . S
O713 Zn714 1.953 . S
O713 C729 1.225 . S
Zn714 O713 1.953 . S
Zn714 O715 1.949 . S
Zn714 O721 1.919 . S
Zn714 O726 1.924 . S
O715 Zn714 1.949 . S
O715 Zn716 1.923 . S
O715 Zn717 1.950 . S
O715 Zn718 1.945 . S
Zn716 O715 1.923 . S
Zn716 O719 1.933 . S
Zn716 O722 1.941 . S
Zn716 O723 1.965 . S
Zn717 O715 1.950 . S
Zn717 O724 1.938 . S
Zn717 O725 1.906 . S
Zn717 O735 1.953 . S
Zn718 O715 1.945 . S
Zn718 O720 1.932 . S
Zn718 O727 1.977 . S
Zn718 O728 1.910 . S
O719 Zn716 1.933 . S
O719 C730 1.226 . S
O720 Zn718 1.932 . S
O720 C730 1.307 . S
O721 Zn714 1.919 . S
O721 C732 1.253 . S
O722 Zn716 1.941 . S
O722 C732 1.283 . S
O723 Zn716 1.965 . S
O723 C731 1.303 . S
O724 Zn717 1.938 . S
O724 C731 1.247 . S
O725 Zn717 1.906 . S
O725 C733 1.304 . S
O726 Zn714 1.924 . S
O726 C734 1.311 . S
O727 Zn718 1.977 . S
O727 C733 1.272 . S
O728 Zn718 1.910 . S
O728 C734 1.231 . S
C729 O713 1.225 . S
C729 O735 1.298 . S
C730 O719 1.226 . S
C730 O720 1.307 . S
C731 O723 1.303 . S
C731 O724 1.247 . S
C732 O721 1.253 . S
C732 O722 1.283 . S
C733 O725 1.304 . S
C733 O727 1.272 . S
C734 O726 1.311 . S
C734 O728 1.231 . S
O735 Zn717 1.953 . S
O735 C729 1.298 . S
H736 C742 0.930 . S
H737 C746 0.930 . S
H738 C751 0.929 . S
H739 C749 0.929 . S
H740 C744 0.929 . S
H741 C750 0.929 . S
C742 H736 0.930 . S
C742 C743 1.367 . S
C742 C750 1.378 . S
C743 C742 1.367 . S
C743 C751 1.433 . S
C744 H740 0.929 . S
C744 C746 1.378 . S
C744 C748 1.350 . S
C745 C748 1.463 . S
C745 C750 1.350 . S
C745 N753 1.427 . S
C746 H737 0.930 . S
C746 C744 1.378 . S
C746 C747 1.367 . S
C747 C746 1.367 . S
C747 C749 1.433 . S
C748 C744 1.350 . S
C748 C745 1.463 . S
C748 N752 1.427 . S
C749 H739 0.929 . S
C749 C747 1.433 . S
C749 N752 1.384 . S
C750 H741 0.929 . S
C750 C742 1.378 . S
C750 C745 1.350 . S
C751 H738 0.929 . S
C751 C743 1.433 . S
C751 N753 1.384 . S
N752 C748 1.427 . S
N752 C749 1.384 . S
N753 C745 1.427 . S
N753 C751 1.384 . S
H754 C760 0.930 . S
H755 C764 0.930 . S
H756 C769 0.929 . S
H757 C767 0.929 . S
H758 C762 0.929 . S
H759 C768 0.929 . S
C760 H754 0.930 . S
C760 C761 1.367 . S
C760 C768 1.378 . S
C761 C760 1.367 . S
C761 C769 1.433 . S
C762 H758 0.929 . S
C762 C764 1.378 . S
C762 C766 1.350 . S
C763 C766 1.463 1_545 S
C763 C768 1.350 . S
C763 N771 1.427 . S
C764 H755 0.930 . S
C764 C762 1.378 . S
C764 C765 1.367 . S
C765 C764 1.367 . S
C765 C767 1.433 . S
C766 C762 1.350 . S
C766 C763 1.463 1_565 S
C766 N770 1.427 1_565 S
C767 H757 0.929 . S
C767 C765 1.433 . S
C767 N770 1.384 1_565 S
C768 H759 0.929 . S
C768 C760 1.378 . S
C768 C763 1.350 . S
C769 H756 0.929 . S
C769 C761 1.433 . S
C769 N771 1.384 . S
N770 C766 1.427 1_545 S
N770 C767 1.384 1_545 S
N771 C763 1.427 . S
N771 C769 1.384 . S
H772 C778 0.930 . S
H773 C782 0.930 . S
H774 C787 0.929 . S
H775 C785 0.929 . S
H776 C780 0.929 . S
H777 C786 0.929 . S
C778 H772 0.930 . S
C778 C779 1.367 . S
C778 C786 1.378 . S
C779 C778 1.367 . S
C779 C787 1.433 . S
C780 H776 0.929 . S
C780 C782 1.378 . S
C780 C784 1.350 . S
C781 C784 1.463 . S
C781 C786 1.350 . S
C781 N789 1.427 . S
C782 H773 0.930 . S
C782 C780 1.378 . S
C782 C783 1.367 . S
C783 C782 1.367 . S
C783 C785 1.433 . S
C784 C780 1.350 . S
C784 C781 1.463 . S
C784 N788 1.427 . S
C785 H775 0.929 . S
C785 C783 1.433 . S
C785 N788 1.384 . S
C786 H777 0.929 . S
C786 C778 1.378 . S
C786 C781 1.350 . S
C787 H774 0.929 . S
C787 C779 1.433 . S
C787 N789 1.384 . S
N788 C784 1.427 . S
N788 C785 1.384 . S
N789 C781 1.427 . S
N789 C787 1.384 . S
H790 C796 0.930 . S
H791 C800 0.930 . S
H792 C805 0.929 . S
H793 C803 0.929 . S
H794 C798 0.917 1_565 S
H795 C804 0.929 . S
C796 H790 0.930 . S
C796 C797 1.367 . S
C796 C804 1.378 . S
C797 C796 1.367 . S
C797 C805 1.433 . S
C798 H794 0.917 1_545 S
C798 C800 1.390 . S
C798 C802 1.350 1_545 S
C799 C802 1.468 1_556 S
C799 C804 1.350 . S
C799 N807 1.427 . S
C800 H791 0.930 . S
C800 C798 1.390 . S
C800 C801 1.367 . S
C801 C800 1.367 . S
C801 C803 1.433 . S
C802 C798 1.350 1_565 S
C802 C799 1.468 1_554 S
C802 N806 1.422 1_564 S
C803 H793 0.929 . S
C803 C801 1.433 . S
C803 N806 1.384 1_554 S
C804 H795 0.929 . S
C804 C796 1.378 . S
C804 C799 1.350 . S
C805 H792 0.929 . S
C805 C797 1.433 . S
C805 N807 1.384 . S
N806 C802 1.422 1_546 S
N806 C803 1.384 1_556 S
N807 C799 1.427 . S
N807 C805 1.384 . S
H808 C814 0.930 . S
H809 C818 0.930 . S
H810 C823 0.929 . S
H811 C821 0.929 . S
H812 C816 0.929 . S
H813 C822 0.929 . S
C814 H808 0.930 . S
C814 C815 1.367 . S
C814 C822 1.378 . S
C815 C814 1.367 . S
C815 C823 1.433 . S
C816 H812 0.929 . S
C816 C818 1.378 . S
C816 C820 1.350 . S
C817 C820 1.463 . S
C817 C822 1.350 . S
C817 N825 1.427 . S
C818 H809 0.930 . S
C818 C816 1.378 . S
C818 C819 1.367 . S
C819 C818 1.367 . S
C819 C821 1.433 . S
C820 C816 1.350 . S
C820 C817 1.463 . S
C820 N824 1.427 . S
C821 H811 0.929 . S
C821 C819 1.433 . S
C821 N824 1.384 . S
C822 H813 0.929 . S
C822 C814 1.378 . S
C822 C817 1.350 . S
C823 H810 0.929 . S
C823 C815 1.433 . S
C823 N825 1.384 . S
N824 C820 1.427 . S
N824 C821 1.384 . S
N825 C817 1.427 . S
N825 C823 1.384 . S
H826 C832 0.930 . S
H827 C836 0.930 . S
H828 C841 0.929 . S
H829 C839 0.929 . S
H830 C834 0.929 . S
H831 C840 0.929 1_545 S
C832 H826 0.930 . S
C832 C833 1.367 . S
C832 C840 1.378 . S
C833 C832 1.367 . S
C833 C841 1.433 . S
C834 H830 0.929 . S
C834 C836 1.378 . S
C834 C838 1.350 . S
C835 C838 1.463 1_565 S
C835 C840 1.350 . S
C835 N843 1.427 . S
C836 H827 0.930 . S
C836 C834 1.378 . S
C836 C837 1.367 . S
C837 C836 1.367 . S
C837 C839 1.433 . S
C838 C834 1.350 . S
C838 C835 1.463 1_545 S
C838 N842 1.427 . S
C839 H829 0.929 . S
C839 C837 1.433 . S
C839 N842 1.384 . S
C840 H831 0.929 1_565 S
C840 C832 1.378 . S
C840 C835 1.350 . S
C841 H828 0.929 . S
C841 C833 1.433 . S
C841 N843 1.384 . S
N842 C838 1.427 . S
N842 C839 1.384 . S
N843 C835 1.427 . S
N843 C841 1.384 . S
H844 C850 0.930 . S
H845 C854 0.930 . S
H846 C859 0.929 . S
H847 C857 0.929 . S
H848 C852 0.929 . S
H849 C858 0.929 . S
C850 H844 0.930 . S
C850 C851 1.367 . S
C850 C858 1.378 . S
C851 C850 1.367 . S
C851 C859 1.433 . S
C852 H848 0.929 . S
C852 C854 1.378 . S
C852 C856 1.350 . S
C853 C856 1.463 . S
C853 C858 1.350 . S
C853 N861 1.427 . S
C854 H845 0.930 . S
C854 C852 1.378 . S
C854 C855 1.367 . S
C855 C854 1.367 . S
C855 C857 1.433 . S
C856 C852 1.350 . S
C856 C853 1.463 . S
C856 N860 1.427 . S
C857 H847 0.929 . S
C857 C855 1.433 . S
C857 N860 1.384 . S
C858 H849 0.929 . S
C858 C850 1.378 . S
C858 C853 1.350 . S
C859 H846 0.929 . S
C859 C851 1.433 . S
C859 N861 1.384 . S
N860 C856 1.427 . S
N860 C857 1.384 . S
N861 C853 1.427 . S
N861 C859 1.384 . S
H862 C868 0.930 . S
H863 C872 0.930 1_554 S
H864 C877 0.929 . S
H865 C875 0.929 . S
H866 C870 0.929 . S
H867 C876 0.929 1_556 S
C868 H862 0.930 . S
C868 C869 1.367 . S
C868 C876 1.378 . S
C869 C868 1.367 . S
C869 C877 1.433 . S
C870 H866 0.929 . S
C870 C872 1.378 1_554 S
C870 C874 1.340 1_554 S
C871 C874 1.449 1_564 S
C871 C876 1.350 . S
C871 N879 1.427 . S
C872 H863 0.930 1_556 S
C872 C870 1.378 1_556 S
C872 C873 1.367 . S
C873 C872 1.367 . S
C873 C875 1.433 . S
C874 C870 1.340 1_556 S
C874 C871 1.449 1_546 S
C874 N878 1.447 1_545 S
C875 H865 0.929 . S
C875 C873 1.433 . S
C875 N878 1.347 1_545 S
C876 H867 0.929 1_554 S
C876 C868 1.378 . S
C876 C871 1.350 . S
C877 H864 0.929 . S
C877 C869 1.433 . S
C877 N879 1.384 . S
N878 C874 1.447 1_565 S
N878 C875 1.347 1_565 S
N879 C871 1.427 . S
N879 C877 1.384 . S
H880 C886 0.930 . S
H881 C890 0.930 . S
H882 C895 0.929 . S
H883 C893 0.929 . S
H884 C888 0.929 . S
H885 C894 0.929 . S
C886 H880 0.930 . S
C886 C887 1.367 . S
C886 C894 1.378 . S
C887 C886 1.367 . S
C887 C895 1.433 . S
C888 H884 0.929 . S
C888 C890 1.378 . S
C888 C892 1.350 . S
C889 C892 1.463 . S
C889 C894 1.350 . S
C889 N897 1.427 . S
C890 H881 0.930 . S
C890 C888 1.378 . S
C890 C891 1.367 . S
C891 C890 1.367 . S
C891 C893 1.433 . S
C892 C888 1.350 . S
C892 C889 1.463 . S
C892 N896 1.427 . S
C893 H883 0.929 . S
C893 C891 1.433 . S
C893 N896 1.384 . S
C894 H885 0.929 . S
C894 C886 1.378 . S
C894 C889 1.350 . S
C895 H882 0.929 . S
C895 C887 1.433 . S
C895 N897 1.384 . S
N896 C892 1.427 . S
N896 C893 1.384 . S
N897 C889 1.427 . S
N897 C895 1.384 . S
H898 C904 0.930 . S
H899 C908 0.930 . S
H900 C913 0.929 . S
H901 C911 0.929 . S
H902 C906 0.929 . S
H903 C912 0.929 . S
C904 H898 0.930 . S
C904 C905 1.367 . S
C904 C912 1.378 . S
C905 C904 1.367 . S
C905 C913 1.433 . S
C906 H902 0.929 . S
C906 C908 1.378 . S
C906 C910 1.350 . S
C907 C910 1.437 1_545 S
C907 C912 1.362 . S
C907 N915 1.441 . S
C908 H899 0.930 . S
C908 C906 1.378 . S
C908 C909 1.367 . S
C909 C908 1.367 . S
C909 C911 1.433 . S
C910 C906 1.350 . S
C910 C907 1.437 1_565 S
C910 N914 1.427 . S
C911 H901 0.929 . S
C911 C909 1.433 . S
C911 N914 1.384 . S
C912 H903 0.929 . S
C912 C904 1.378 . S
C912 C907 1.362 . S
C913 H900 0.929 . S
C913 C905 1.433 . S
C913 N915 1.384 . S
N914 C910 1.427 . S
N914 C911 1.384 . S
N915 C907 1.441 . S
N915 C913 1.384 . S
H916 C922 0.930 . S
H917 C926 0.930 . S
H918 C931 0.929 . S
H919 C929 0.929 . S
H920 C924 0.929 . S
H921 C930 0.929 . S
C922 H916 0.930 . S
C922 C923 1.367 . S
C922 C930 1.378 . S
C923 C922 1.367 . S
C923 C931 1.433 . S
C924 H920 0.929 . S
C924 C926 1.378 . S
C924 C928 1.350 . S
C925 C928 1.463 . S
C925 C930 1.350 . S
C925 N933 1.427 . S
C926 H917 0.930 . S
C926 C924 1.378 . S
C926 C927 1.367 . S
C927 C926 1.367 . S
C927 C929 1.433 . S
C928 C924 1.350 . S
C928 C925 1.463 . S
C928 N932 1.427 . S
C929 H919 0.929 . S
C929 C927 1.433 . S
C929 N932 1.384 . S
C930 H921 0.929 . S
C930 C922 1.378 . S
C930 C925 1.350 . S
C931 H918 0.929 . S
C931 C923 1.433 . S
C931 N933 1.384 . S
N932 C928 1.427 . S
N932 C929 1.384 . S
N933 C925 1.427 . S
N933 C931 1.384 . S
H934 C940 0.930 . S
H935 C944 0.930 . S
H936 C949 0.929 . S
H937 C947 0.929 . S
H938 C942 0.929 1_556 S
H939 C948 0.929 . S
C940 H934 0.930 . S
C940 C941 1.367 . S
C940 C948 1.378 1_556 S
C941 C940 1.367 . S
C941 C949 1.433 . S
C942 H938 0.929 1_554 S
C942 C944 1.378 . S
C942 C946 1.350 . S
C943 C946 1.463 1_566 S
C943 C948 1.350 1_556 S
C943 N951 1.425 1_565 S
C944 H935 0.930 . S
C944 C942 1.378 . S
C944 C945 1.367 . S
C945 C944 1.367 . S
C945 C947 1.433 . S
C946 C942 1.350 . S
C946 C943 1.463 1_544 S
C946 N950 1.427 . S
C947 H937 0.929 . S
C947 C945 1.433 . S
C947 N950 1.384 . S
C948 H939 0.929 . S
C948 C940 1.378 1_554 S
C948 C943 1.350 1_554 S
C949 H936 0.929 . S
C949 C941 1.433 . S
C949 N951 1.361 1_565 S
N950 C946 1.427 . S
N950 C947 1.384 . S
N951 C943 1.425 1_545 S
N951 C949 1.361 1_545 S
H952 C958 0.930 . S
H953 C962 0.930 . S
H954 C967 0.929 . S
H955 C965 0.929 . S
H956 C960 0.929 . S
H957 C966 0.929 . S
C958 H952 0.930 . S
C958 C959 1.367 . S
C958 C966 1.378 . S
C959 C958 1.367 . S
C959 C967 1.433 . S
C960 H956 0.929 . S
C960 C962 1.378 . S
C960 C964 1.350 . S
C961 C964 1.463 . S
C961 C966 1.350 . S
C961 N969 1.427 . S
C962 H953 0.930 . S
C962 C960 1.378 . S
C962 C963 1.367 . S
C963 C962 1.367 . S
C963 C965 1.433 . S
C964 C960 1.350 . S
C964 C961 1.463 . S
C964 N968 1.427 . S
C965 H955 0.929 . S
C965 C963 1.433 . S
C965 N968 1.384 . S
C966 H957 0.929 . S
C966 C958 1.378 . S
C966 C961 1.350 . S
C967 H954 0.929 . S
C967 C959 1.433 . S
C967 N969 1.384 . S
N968 C964 1.427 . S
N968 C965 1.384 . S
N969 C961 1.427 . S
N969 C967 1.384 . S
H970 C976 0.930 . S
H971 C980 0.930 . S
H972 C985 0.929 . S
H973 C983 0.929 . S
H974 C978 0.929 . S
H975 C984 0.929 . S
C976 H970 0.930 . S
C976 C977 1.367 . S
C976 C984 1.378 . S
C977 C976 1.367 . S
C977 C985 1.433 . S
C978 H974 0.929 . S
C978 C980 1.378 . S
C978 C982 1.350 . S
C979 C982 1.463 1_545 S
C979 C984 1.350 . S
C979 N987 1.427 . S
C980 H971 0.930 . S
C980 C978 1.378 . S
C980 C981 1.367 . S
C981 C980 1.367 . S
C981 C983 1.433 . S
C982 C978 1.350 . S
C982 C979 1.463 1_565 S
C982 N986 1.427 . S
C983 H973 0.929 . S
C983 C981 1.433 . S
C983 N986 1.384 . S
C984 H975 0.929 . S
C984 C976 1.378 . S
C984 C979 1.350 . S
C985 H972 0.929 . S
C985 C977 1.433 . S
C985 N987 1.384 . S
N986 C982 1.427 . S
N986 C983 1.384 . S
N987 C979 1.427 . S
N987 C985 1.384 . S
H988 C994 0.930 . S
H989 C998 0.930 . S
H990 C1003 0.929 . S
H991 C1001 0.929 . S
H992 C996 0.929 . S
H993 C1002 0.929 . S
C994 H988 0.930 . S
C994 C995 1.367 . S
C994 C1002 1.378 . S
C995 C994 1.367 . S
C995 C1003 1.433 . S
C996 H992 0.929 . S
C996 C998 1.378 . S
C996 C1000 1.350 . S
C997 C1000 1.463 . S
C997 C1002 1.350 . S
C997 N1005 1.427 . S
C998 H989 0.930 . S
C998 C996 1.378 . S
C998 C999 1.367 . S
C999 C998 1.367 . S
C999 C1001 1.433 . S
C1000 C996 1.350 . S
C1000 C997 1.463 . S
C1000 N1004 1.427 . S
C1001 H991 0.929 . S
C1001 C999 1.433 . S
C1001 N1004 1.384 . S
C1002 H993 0.929 . S
C1002 C994 1.378 . S
C1002 C997 1.350 . S
C1003 H990 0.929 . S
C1003 C995 1.433 . S
C1003 N1005 1.384 . S
N1004 C1000 1.427 . S
N1004 C1001 1.384 . S
N1005 C997 1.427 . S
N1005 C1003 1.384 . S
H1006 C1012 0.930 . S
H1007 C1016 0.930 . S
H1008 C1021 0.929 . S
H1009 C1019 0.929 . S
H1010 C1014 0.929 1_545 S
H1011 C1020 0.929 . S
C1012 H1006 0.930 . S
C1012 C1013 1.367 . S
C1012 C1020 1.378 . S
C1013 C1012 1.367 . S
C1013 C1021 1.433 . S
C1014 H1010 0.929 1_565 S
C1014 C1016 1.378 . S
C1014 C1018 1.350 . S
C1015 C1018 1.463 1_546 S
C1015 C1020 1.350 . S
C1015 N1023 1.427 . S
C1016 H1007 0.930 . S
C1016 C1014 1.378 . S
C1016 C1017 1.367 . S
C1017 C1016 1.367 . S
C1017 C1019 1.433 . S
C1018 C1014 1.350 . S
C1018 C1015 1.463 1_564 S
C1018 N1022 1.426 1_554 S
C1019 H1009 0.929 . S
C1019 C1017 1.433 . S
C1019 N1022 1.373 1_554 S
C1020 H1011 0.929 . S
C1020 C1012 1.378 . S
C1020 C1015 1.350 . S
C1021 H1008 0.929 . S
C1021 C1013 1.433 . S
C1021 N1023 1.384 . S
N1022 C1018 1.426 1_556 S
N1022 C1019 1.373 1_556 S
N1023 C1015 1.427 . S
N1023 C1021 1.384 . S
H1024 C1030 0.930 . S
H1025 C1034 0.930 . S
H1026 C1039 0.929 . S
H1027 C1037 0.929 . S
H1028 C1032 0.929 . S
H1029 C1038 0.929 . S
C1030 H1024 0.930 . S
C1030 C1031 1.367 . S
C1030 C1038 1.378 . S
C1031 C1030 1.367 . S
C1031 C1039 1.433 . S
C1032 H1028 0.929 . S
C1032 C1034 1.378 . S
C1032 C1036 1.350 . S
C1033 C1036 1.463 . S
C1033 C1038 1.350 . S
C1033 N1041 1.427 . S
C1034 H1025 0.930 . S
C1034 C1032 1.378 . S
C1034 C1035 1.367 . S
C1035 C1034 1.367 . S
C1035 C1037 1.433 . S
C1036 C1032 1.350 . S
C1036 C1033 1.463 . S
C1036 N1040 1.427 . S
C1037 H1027 0.929 . S
C1037 C1035 1.433 . S
C1037 N1040 1.384 . S
C1038 H1029 0.929 . S
C1038 C1030 1.378 . S
C1038 C1033 1.350 . S
C1039 H1026 0.929 . S
C1039 C1031 1.433 . S
C1039 N1041 1.384 . S
N1040 C1036 1.427 . S
N1040 C1037 1.384 . S
N1041 C1033 1.427 . S
N1041 C1039 1.384 . S
H1042 C1048 0.930 . S
H1043 C1052 0.930 . S
H1044 C1057 0.929 . S
H1045 C1055 0.929 . S
H1046 C1050 0.929 . S
H1047 C1056 0.929 . S
C1048 H1042 0.930 . S
C1048 C1049 1.367 . S
C1048 C1056 1.378 . S
C1049 C1048 1.367 . S
C1049 C1057 1.433 . S
C1050 H1046 0.929 . S
C1050 C1052 1.378 . S
C1050 C1054 1.350 . S
C1051 C1054 1.463 1_556 S
C1051 C1056 1.350 . S
C1051 N1059 1.427 . S
C1052 H1043 0.930 . S
C1052 C1050 1.378 . S
C1052 C1053 1.367 . S
C1053 C1052 1.367 . S
C1053 C1055 1.433 . S
C1054 C1050 1.350 . S
C1054 C1051 1.463 1_554 S
C1054 N1058 1.427 1_554 S
C1055 H1045 0.929 . S
C1055 C1053 1.433 . S
C1055 N1058 1.384 1_554 S
C1056 H1047 0.929 . S
C1056 C1048 1.378 . S
C1056 C1051 1.350 . S
C1057 H1044 0.929 . S
C1057 C1049 1.433 . S
C1057 N1059 1.384 . S
N1058 C1054 1.427 1_556 S
N1058 C1055 1.384 1_556 S
N1059 C1051 1.427 . S
N1059 C1057 1.384 . S
H1060 C1066 0.930 . S
H1061 C1070 0.930 . S
H1062 C1075 0.929 . S
H1063 C1073 0.929 . S
H1064 C1068 0.929 . S
H1065 C1074 0.929 . S
C1066 H1060 0.930 . S
C1066 C1067 1.367 . S
C1066 C1074 1.378 . S
C1067 C1066 1.367 . S
C1067 C1075 1.433 . S
C1068 H1064 0.929 . S
C1068 C1070 1.378 . S
C1068 C1072 1.350 . S
C1069 C1072 1.463 . S
C1069 C1074 1.350 . S
C1069 N1077 1.427 . S
C1070 H1061 0.930 . S
C1070 C1068 1.378 . S
C1070 C1071 1.367 . S
C1071 C1070 1.367 . S
C1071 C1073 1.433 . S
C1072 C1068 1.350 . S
C1072 C1069 1.463 . S
C1072 N1076 1.427 . S
C1073 H1063 0.929 . S
C1073 C1071 1.433 . S
C1073 N1076 1.384 . S
C1074 H1065 0.929 . S
C1074 C1066 1.378 . S
C1074 C1069 1.350 . S
C1075 H1062 0.929 . S
C1075 C1067 1.433 . S
C1075 N1077 1.384 . S
N1076 C1072 1.427 . S
N1076 C1073 1.384 . S
N1077 C1069 1.427 . S
N1077 C1075 1.384 . S
H1078 C1084 0.930 . S
H1079 C1088 0.930 . S
H1080 C1093 0.929 . S
H1081 C1091 0.929 . S
H1082 C1086 0.929 . S
H1083 C1092 0.929 . S
C1084 H1078 0.930 . S
C1084 C1085 1.367 . S
C1084 C1092 1.378 . S
C1085 C1084 1.367 . S
C1085 C1093 1.433 . S
C1086 H1082 0.929 . S
C1086 C1088 1.378 . S
C1086 C1090 1.350 . S
C1087 C1090 1.463 . S
C1087 C1092 1.350 . S
C1087 N1095 1.427 . S
C1088 H1079 0.930 . S
C1088 C1086 1.378 . S
C1088 C1089 1.367 . S
C1089 C1088 1.367 . S
C1089 C1091 1.433 . S
C1090 C1086 1.350 . S
C1090 C1087 1.463 . S
C1090 N1094 1.427 . S
C1091 H1081 0.929 . S
C1091 C1089 1.433 . S
C1091 N1094 1.384 . S
C1092 H1083 0.929 . S
C1092 C1084 1.378 . S
C1092 C1087 1.350 . S
C1093 H1080 0.929 . S
C1093 C1085 1.433 . S
C1093 N1095 1.384 . S
N1094 C1090 1.427 . S
N1094 C1091 1.384 . S
N1095 C1087 1.427 . S
N1095 C1093 1.384 . S
H1096 C1102 0.930 . S
H1097 C1106 0.930 . S
H1098 C1111 0.929 . S
H1099 C1109 0.929 . S
H1100 C1104 0.929 . S
H1101 C1110 0.929 . S
C1102 H1096 0.930 . S
C1102 C1103 1.367 . S
C1102 C1110 1.378 . S
C1103 C1102 1.367 . S
C1103 C1111 1.433 . S
C1104 H1100 0.929 . S
C1104 C1106 1.378 . S
C1104 C1108 1.350 . S
C1105 C1108 1.463 . S
C1105 C1110 1.350 . S
C1105 N1113 1.427 . S
C1106 H1097 0.930 . S
C1106 C1104 1.378 . S
C1106 C1107 1.367 . S
C1107 C1106 1.367 . S
C1107 C1109 1.433 . S
C1108 C1104 1.350 . S
C1108 C1105 1.463 . S
C1108 N1112 1.427 . S
C1109 H1099 0.929 . S
C1109 C1107 1.433 . S
C1109 N1112 1.384 . S
C1110 H1101 0.929 . S
C1110 C1102 1.378 . S
C1110 C1105 1.350 . S
C1111 H1098 0.929 . S
C1111 C1103 1.433 . S
C1111 N1113 1.384 . S
N1112 C1108 1.427 . S
N1112 C1109 1.384 . S
N1113 C1105 1.427 . S
N1113 C1111 1.384 . S
H1114 C1120 0.930 . S
H1115 C1124 0.930 . S
H1116 C1129 0.929 . S
H1117 C1127 0.929 1_554 S
H1118 C1122 0.929 . S
H1119 C1128 0.929 . S
C1120 H1114 0.930 . S
C1120 C1121 1.367 . S
C1120 C1128 1.378 . S
C1121 C1120 1.367 . S
C1121 C1129 1.433 . S
C1122 H1118 0.929 . S
C1122 C1124 1.378 . S
C1122 C1126 1.383 . S
C1123 C1126 1.442 1_554 S
C1123 C1128 1.350 . S
C1123 N1131 1.427 . S
C1124 H1115 0.930 . S
C1124 C1122 1.378 . S
C1124 C1125 1.367 . S
C1125 C1124 1.367 . S
C1125 C1127 1.433 . S
C1126 C1122 1.383 . S
C1126 C1123 1.442 1_556 S
C1126 N1130 1.413 1_556 S
C1127 H1117 0.929 1_556 S
C1127 C1125 1.433 . S
C1127 N1130 1.384 1_556 S
C1128 H1119 0.929 . S
C1128 C1120 1.378 . S
C1128 C1123 1.350 . S
C1129 H1116 0.929 . S
C1129 C1121 1.433 . S
C1129 N1131 1.384 . S
N1130 C1126 1.413 1_554 S
N1130 C1127 1.384 1_554 S
N1131 C1123 1.427 . S
N1131 C1129 1.384 . S
H1132 C1138 0.930 . S
H1133 C1142 0.930 . S
H1134 C1147 0.929 . S
H1135 C1145 0.929 . S
H1136 C1140 0.929 . S
H1137 C1146 0.929 . S
C1138 H1132 0.930 . S
C1138 C1139 1.367 . S
C1138 C1146 1.378 . S
C1139 C1138 1.367 . S
C1139 C1147 1.433 . S
C1140 H1136 0.929 . S
C1140 C1142 1.378 . S
C1140 C1144 1.350 . S
C1141 C1144 1.463 . S
C1141 C1146 1.350 . S
C1141 N1149 1.427 . S
C1142 H1133 0.930 . S
C1142 C1140 1.378 . S
C1142 C1143 1.367 . S
C1143 C1142 1.367 . S
C1143 C1145 1.433 . S
C1144 C1140 1.350 . S
C1144 C1141 1.463 . S
C1144 N1148 1.427 . S
C1145 H1135 0.929 . S
C1145 C1143 1.433 . S
C1145 N1148 1.384 . S
C1146 H1137 0.929 . S
C1146 C1138 1.378 . S
C1146 C1141 1.350 . S
C1147 H1134 0.929 . S
C1147 C1139 1.433 . S
C1147 N1149 1.384 . S
N1148 C1144 1.427 . S
N1148 C1145 1.384 . S
N1149 C1141 1.427 . S
N1149 C1147 1.384 . S
H1150 C1156 0.930 . S
H1151 C1160 0.930 . S
H1152 C1165 0.929 . S
H1153 C1163 0.929 . S
H1154 C1158 0.929 . S
H1155 C1164 0.929 . S
C1156 H1150 0.930 . S
C1156 C1157 1.367 . S
C1156 C1164 1.378 . S
C1157 C1156 1.367 . S
C1157 C1165 1.433 . S
C1158 H1154 0.929 . S
C1158 C1160 1.378 . S
C1158 C1162 1.350 . S
C1159 C1162 1.463 . S
C1159 C1164 1.350 . S
C1159 N1167 1.427 . S
C1160 H1151 0.930 . S
C1160 C1158 1.378 . S
C1160 C1161 1.367 . S
C1161 C1160 1.367 . S
C1161 C1163 1.433 . S
C1162 C1158 1.350 . S
C1162 C1159 1.463 . S
C1162 N1166 1.427 . S
C1163 H1153 0.929 . S
C1163 C1161 1.433 . S
C1163 N1166 1.384 . S
C1164 H1155 0.929 . S
C1164 C1156 1.378 . S
C1164 C1159 1.350 . S
C1165 H1152 0.929 . S
C1165 C1157 1.433 . S
C1165 N1167 1.384 . S
N1166 C1162 1.427 . S
N1166 C1163 1.384 . S
N1167 C1159 1.427 . S
N1167 C1165 1.384 . S
H1168 C1174 0.930 . S
H1169 C1178 0.930 . S
H1170 C1183 0.929 . S
H1171 C1181 0.929 . S
H1172 C1176 0.929 . S
H1173 C1182 0.929 . S
C1174 H1168 0.930 . S
C1174 C1175 1.367 . S
C1174 C1182 1.378 . S
C1175 C1174 1.367 . S
C1175 C1183 1.433 . S
C1176 H1172 0.929 . S
C1176 C1178 1.378 . S
C1176 C1180 1.350 . S
C1177 C1180 1.463 . S
C1177 C1182 1.350 . S
C1177 N1185 1.427 . S
C1178 H1169 0.930 . S
C1178 C1176 1.378 . S
C1178 C1179 1.367 . S
C1179 C1178 1.367 . S
C1179 C1181 1.433 . S
C1180 C1176 1.350 . S
C1180 C1177 1.463 . S
C1180 N1184 1.427 . S
C1181 H1171 0.929 . S
C1181 C1179 1.433 . S
C1181 N1184 1.384 . S
C1182 H1173 0.929 . S
C1182 C1174 1.378 . S
C1182 C1177 1.350 . S
C1183 H1170 0.929 . S
C1183 C1175 1.433 . S
C1183 N1185 1.384 . S
N1184 C1180 1.427 . S
N1184 C1181 1.384 . S
N1185 C1177 1.427 . S
N1185 C1183 1.384 . S
H1186 C1192 0.930 . S
H1187 C1196 0.930 . S
H1188 C1201 0.929 . S
H1189 C1199 0.929 . S
H1190 C1194 0.929 . S
H1191 C1200 0.929 . S
C1192 H1186 0.930 . S
C1192 C1193 1.367 . S
C1192 C1200 1.378 . S
C1193 C1192 1.367 . S
C1193 C1201 1.433 . S
C1194 H1190 0.929 . S
C1194 C1196 1.378 . S
C1194 C1198 1.350 . S
C1195 C1198 1.463 1_554 S
C1195 C1200 1.350 . S
C1195 N1203 1.427 . S
C1196 H1187 0.930 . S
C1196 C1194 1.378 . S
C1196 C1197 1.367 . S
C1197 C1196 1.367 . S
C1197 C1199 1.433 . S
C1198 C1194 1.350 . S
C1198 C1195 1.463 1_556 S
C1198 N1202 1.427 1_556 S
C1199 H1189 0.929 . S
C1199 C1197 1.433 . S
C1199 N1202 1.384 1_556 S
C1200 H1191 0.929 . S
C1200 C1192 1.378 . S
C1200 C1195 1.350 . S
C1201 H1188 0.929 . S
C1201 C1193 1.433 . S
C1201 N1203 1.384 . S
N1202 C1198 1.427 1_554 S
N1202 C1199 1.384 1_554 S
N1203 C1195 1.427 . S
N1203 C1201 1.384 . S
H1204 C1210 0.930 . S
H1205 C1214 0.930 . S
H1206 C1219 0.929 . S
H1207 C1217 0.929 . S
H1208 C1212 0.929 . S
H1209 C1218 0.929 . S
C1210 H1204 0.930 . S
C1210 C1211 1.367 . S
C1210 C1218 1.378 . S
C1211 C1210 1.367 . S
C1211 C1219 1.433 . S
C1212 H1208 0.929 . S
C1212 C1214 1.378 . S
C1212 C1216 1.350 . S
C1213 C1216 1.463 . S
C1213 C1218 1.350 . S
C1213 N1221 1.427 . S
C1214 H1205 0.930 . S
C1214 C1212 1.378 . S
C1214 C1215 1.367 . S
C1215 C1214 1.367 . S
C1215 C1217 1.433 . S
C1216 C1212 1.350 . S
C1216 C1213 1.463 . S
C1216 N1220 1.427 . S
C1217 H1207 0.929 . S
C1217 C1215 1.433 . S
C1217 N1220 1.384 . S
C1218 H1209 0.929 . S
C1218 C1210 1.378 . S
C1218 C1213 1.350 . S
C1219 H1206 0.929 . S
C1219 C1211 1.433 . S
C1219 N1221 1.384 . S
N1220 C1216 1.427 . S
N1220 C1217 1.384 . S
N1221 C1213 1.427 . S
N1221 C1219 1.384 . S
H1222 C1228 0.930 . S
H1223 C1232 0.930 . S
H1224 C1237 0.929 . S
H1225 C1235 0.929 . S
H1226 C1230 0.929 . S
H1227 C1236 0.929 . S
C1228 H1222 0.930 . S
C1228 C1229 1.367 . S
C1228 C1236 1.378 . S
C1229 C1228 1.367 . S
C1229 C1237 1.433 . S
C1230 H1226 0.929 . S
C1230 C1232 1.378 . S
C1230 C1234 1.350 . S
C1231 C1234 1.463 . S
C1231 C1236 1.350 . S
C1231 N1239 1.427 . S
C1232 H1223 0.930 . S
C1232 C1230 1.378 . S
C1232 C1233 1.367 . S
C1233 C1232 1.367 . S
C1233 C1235 1.433 . S
C1234 C1230 1.350 . S
C1234 C1231 1.463 . S
C1234 N1238 1.427 . S
C1235 H1225 0.929 . S
C1235 C1233 1.433 . S
C1235 N1238 1.384 . S
C1236 H1227 0.929 . S
C1236 C1228 1.378 . S
C1236 C1231 1.350 . S
C1237 H1224 0.929 . S
C1237 C1229 1.433 . S
C1237 N1239 1.384 . S
N1238 C1234 1.427 . S
N1238 C1235 1.384 . S
N1239 C1231 1.427 . S
N1239 C1237 1.384 . S
H1240 C1246 0.930 . S
H1241 C1250 0.930 . S
H1242 C1255 0.929 . S
H1243 C1253 0.929 . S
H1244 C1248 0.929 . S
H1245 C1254 0.929 . S
C1246 H1240 0.930 . S
C1246 C1247 1.367 . S
C1246 C1254 1.378 . S
C1247 C1246 1.367 . S
C1247 C1255 1.433 . S
C1248 H1244 0.929 . S
C1248 C1250 1.378 . S
C1248 C1252 1.350 . S
C1249 C1252 1.463 . S
C1249 C1254 1.350 . S
C1249 N1257 1.427 . S
C1250 H1241 0.930 . S
C1250 C1248 1.378 . S
C1250 C1251 1.367 . S
C1251 C1250 1.367 . S
C1251 C1253 1.433 . S
C1252 C1248 1.350 . S
C1252 C1249 1.463 . S
C1252 N1256 1.427 . S
C1253 H1243 0.929 . S
C1253 C1251 1.433 . S
C1253 N1256 1.384 . S
C1254 H1245 0.929 . S
C1254 C1246 1.378 . S
C1254 C1249 1.350 . S
C1255 H1242 0.929 . S
C1255 C1247 1.433 . S
C1255 N1257 1.384 . S
N1256 C1252 1.427 . S
N1256 C1253 1.384 . S
N1257 C1249 1.427 . S
N1257 C1255 1.384 . S
H1258 C1264 0.930 . S
H1259 C1268 0.930 1_556 S
H1260 C1273 0.929 . S
H1261 C1271 0.929 . S
H1262 C1266 0.929 . S
H1263 C1272 0.929 1_554 S
C1264 H1258 0.930 . S
C1264 C1265 1.367 . S
C1264 C1272 1.378 . S
C1265 C1264 1.367 . S
C1265 C1273 1.433 . S
C1266 H1262 0.929 . S
C1266 C1268 1.378 1_556 S
C1266 C1270 1.347 1_556 S
C1267 C1270 1.459 1_556 S
C1267 C1272 1.350 . S
C1267 N1275 1.427 . S
C1268 H1259 0.930 1_554 S
C1268 C1266 1.378 1_554 S
C1268 C1269 1.367 . S
C1269 C1268 1.367 . S
C1269 C1271 1.433 . S
C1270 C1266 1.347 1_554 S
C1270 C1267 1.459 1_554 S
C1270 N1274 1.434 . S
C1271 H1261 0.929 . S
C1271 C1269 1.433 . S
C1271 N1274 1.384 . S
C1272 H1263 0.929 1_556 S
C1272 C1264 1.378 . S
C1272 C1267 1.350 . S
C1273 H1260 0.929 . S
C1273 C1265 1.433 . S
C1273 N1275 1.384 . S
N1274 C1270 1.434 . S
N1274 C1271 1.384 . S
N1275 C1267 1.427 . S
N1275 C1273 1.384 . S
H1276 C1282 0.930 . S
H1277 C1286 0.930 . S
H1278 C1291 0.929 . S
H1279 C1289 0.929 . S
H1280 C1284 0.929 . S
H1281 C1290 0.929 . S
C1282 H1276 0.930 . S
C1282 C1283 1.367 . S
C1282 C1290 1.378 . S
C1283 C1282 1.367 . S
C1283 C1291 1.433 . S
C1284 H1280 0.929 . S
C1284 C1286 1.378 . S
C1284 C1288 1.350 . S
C1285 C1288 1.463 . S
C1285 C1290 1.350 . S
C1285 N1293 1.427 . S
C1286 H1277 0.930 . S
C1286 C1284 1.378 . S
C1286 C1287 1.367 . S
C1287 C1286 1.367 . S
C1287 C1289 1.433 . S
C1288 C1284 1.350 . S
C1288 C1285 1.463 . S
C1288 N1292 1.427 . S
C1289 H1279 0.929 . S
C1289 C1287 1.433 . S
C1289 N1292 1.384 . S
C1290 H1281 0.929 . S
C1290 C1282 1.378 . S
C1290 C1285 1.350 . S
C1291 H1278 0.929 . S
C1291 C1283 1.433 . S
C1291 N1293 1.384 . S
N1292 C1288 1.427 . S
N1292 C1289 1.384 . S
N1293 C1285 1.427 . S
N1293 C1291 1.384 . S
H1294 C1300 0.930 . S
H1295 C1304 0.930 . S
H1296 C1309 0.929 . S
H1297 C1307 0.929 . S
H1298 C1302 0.929 . S
H1299 C1308 0.929 . S
C1300 H1294 0.930 . S
C1300 C1301 1.367 . S
C1300 C1308 1.378 . S
C1301 C1300 1.367 . S
C1301 C1309 1.433 . S
C1302 H1298 0.929 . S
C1302 C1304 1.378 . S
C1302 C1306 1.350 . S
C1303 C1306 1.463 . S
C1303 C1308 1.350 . S
C1303 N1311 1.427 . S
C1304 H1295 0.930 . S
C1304 C1302 1.378 . S
C1304 C1305 1.367 . S
C1305 C1304 1.367 . S
C1305 C1307 1.433 . S
C1306 C1302 1.350 . S
C1306 C1303 1.463 . S
C1306 N1310 1.427 . S
C1307 H1297 0.929 . S
C1307 C1305 1.433 . S
C1307 N1310 1.384 . S
C1308 H1299 0.929 . S
C1308 C1300 1.378 . S
C1308 C1303 1.350 . S
C1309 H1296 0.929 . S
C1309 C1301 1.433 . S
C1309 N1311 1.384 . S
N1310 C1306 1.427 . S
N1310 C1307 1.384 . S
N1311 C1303 1.427 . S
N1311 C1309 1.384 . S
H1312 C1318 0.930 . S
H1313 C1322 0.930 . S
H1314 C1327 0.929 . S
H1315 C1325 0.929 . S
H1316 C1320 0.929 . S
H1317 C1326 0.929 . S
C1318 H1312 0.930 . S
C1318 C1319 1.367 . S
C1318 C1326 1.378 . S
C1319 C1318 1.367 . S
C1319 C1327 1.433 . S
C1320 H1316 0.929 . S
C1320 C1322 1.378 . S
C1320 C1324 1.350 . S
C1321 C1324 1.463 . S
C1321 C1326 1.350 . S
C1321 N1329 1.427 . S
C1322 H1313 0.930 . S
C1322 C1320 1.378 . S
C1322 C1323 1.367 . S
C1323 C1322 1.367 . S
C1323 C1325 1.433 . S
C1324 C1320 1.350 . S
C1324 C1321 1.463 . S
C1324 N1328 1.427 . S
C1325 H1315 0.929 . S
C1325 C1323 1.433 . S
C1325 N1328 1.384 . S
C1326 H1317 0.929 . S
C1326 C1318 1.378 . S
C1326 C1321 1.350 . S
C1327 H1314 0.929 . S
C1327 C1319 1.433 . S
C1327 N1329 1.384 . S
N1328 C1324 1.427 . S
N1328 C1325 1.384 . S
N1329 C1321 1.427 . S
N1329 C1327 1.384 . S
H1330 C1336 0.930 . S
H1331 C1340 0.930 . S
H1332 C1345 0.929 . S
H1333 C1343 0.929 . S
H1334 C1338 0.929 . S
H1335 C1344 0.929 . S
C1336 H1330 0.930 . S
C1336 C1337 1.367 . S
C1336 C1344 1.378 . S
C1337 C1336 1.367 . S
C1337 C1345 1.433 . S
C1338 H1334 0.929 . S
C1338 C1340 1.378 . S
C1338 C1342 1.350 . S
C1339 C1342 1.463 1_455 S
C1339 C1344 1.350 . S
C1339 N1347 1.427 . S
C1340 H1331 0.930 . S
C1340 C1338 1.378 . S
C1340 C1341 1.367 . S
C1341 C1340 1.367 . S
C1341 C1343 1.433 . S
C1342 C1338 1.350 . S
C1342 C1339 1.463 1_655 S
C1342 N1346 1.427 . S
C1343 H1333 0.929 . S
C1343 C1341 1.433 . S
C1343 N1346 1.384 . S
C1344 H1335 0.929 . S
C1344 C1336 1.378 . S
C1344 C1339 1.350 . S
C1345 H1332 0.929 . S
C1345 C1337 1.433 . S
C1345 N1347 1.384 . S
N1346 C1342 1.427 . S
N1346 C1343 1.384 . S
N1347 C1339 1.427 . S
N1347 C1345 1.384 . S
H1348 C1354 0.930 . S
H1349 C1358 0.930 . S
H1350 C1363 0.929 . S
H1351 C1361 0.929 . S
H1352 C1356 0.929 . S
H1353 C1362 0.929 . S
C1354 H1348 0.930 . S
C1354 C1355 1.367 . S
C1354 C1362 1.378 . S
C1355 C1354 1.367 . S
C1355 C1363 1.433 . S
C1356 H1352 0.929 . S
C1356 C1358 1.378 . S
C1356 C1360 1.350 . S
C1357 C1360 1.463 . S
C1357 C1362 1.350 . S
C1357 N1365 1.427 . S
C1358 H1349 0.930 . S
C1358 C1356 1.378 . S
C1358 C1359 1.367 . S
C1359 C1358 1.367 . S
C1359 C1361 1.433 . S
C1360 C1356 1.350 . S
C1360 C1357 1.463 . S
C1360 N1364 1.427 . S
C1361 H1351 0.929 . S
C1361 C1359 1.433 . S
C1361 N1364 1.384 . S
C1362 H1353 0.929 . S
C1362 C1354 1.378 . S
C1362 C1357 1.350 . S
C1363 H1350 0.929 . S
C1363 C1355 1.433 . S
C1363 N1365 1.384 . S
N1364 C1360 1.427 . S
N1364 C1361 1.384 . S
N1365 C1357 1.427 . S
N1365 C1363 1.384 . S
H1366 C1372 0.930 . S
H1367 C1376 0.930 . S
H1368 C1381 0.929 . S
H1369 C1379 0.929 . S
H1370 C1374 0.929 . S
H1371 C1380 0.929 . S
C1372 H1366 0.930 . S
C1372 C1373 1.367 . S
C1372 C1380 1.378 . S
C1373 C1372 1.367 . S
C1373 C1381 1.433 . S
C1374 H1370 0.929 . S
C1374 C1376 1.378 . S
C1374 C1378 1.350 . S
C1375 C1378 1.463 . S
C1375 C1380 1.350 . S
C1375 N1383 1.427 . S
C1376 H1367 0.930 . S
C1376 C1374 1.378 . S
C1376 C1377 1.367 . S
C1377 C1376 1.367 . S
C1377 C1379 1.433 . S
C1378 C1374 1.350 . S
C1378 C1375 1.463 . S
C1378 N1382 1.427 . S
C1379 H1369 0.929 . S
C1379 C1377 1.433 . S
C1379 N1382 1.384 . S
C1380 H1371 0.929 . S
C1380 C1372 1.378 . S
C1380 C1375 1.350 . S
C1381 H1368 0.929 . S
C1381 C1373 1.433 . S
C1381 N1383 1.384 . S
N1382 C1378 1.427 . S
N1382 C1379 1.384 . S
N1383 C1375 1.427 . S
N1383 C1381 1.384 . S
H1384 C1390 0.930 . S
H1385 C1394 0.930 . S
H1386 C1399 0.929 . S
H1387 C1397 0.929 . S
H1388 C1392 0.929 . S
H1389 C1398 0.929 . S
C1390 H1384 0.930 . S
C1390 C1391 1.367 . S
C1390 C1398 1.378 . S
C1391 C1390 1.367 . S
C1391 C1399 1.433 . S
C1392 H1388 0.929 . S
C1392 C1394 1.378 . S
C1392 C1396 1.350 . S
C1393 C1396 1.463 . S
C1393 C1398 1.350 . S
C1393 N1401 1.427 . S
C1394 H1385 0.930 . S
C1394 C1392 1.378 . S
C1394 C1395 1.367 . S
C1395 C1394 1.367 . S
C1395 C1397 1.433 . S
C1396 C1392 1.350 . S
C1396 C1393 1.463 . S
C1396 N1400 1.427 . S
C1397 H1387 0.929 . S
C1397 C1395 1.433 . S
C1397 N1400 1.384 . S
C1398 H1389 0.929 . S
C1398 C1390 1.378 . S
C1398 C1393 1.350 . S
C1399 H1386 0.929 . S
C1399 C1391 1.433 . S
C1399 N1401 1.384 . S
N1400 C1396 1.427 . S
N1400 C1397 1.384 . S
N1401 C1393 1.427 . S
N1401 C1399 1.384 . S
H1402 C1408 0.930 . S
H1403 C1412 0.930 . S
H1404 C1417 0.929 . S
H1405 C1415 0.929 . S
H1406 C1410 0.929 . S
H1407 C1416 0.929 . S
C1408 H1402 0.930 . S
C1408 C1409 1.367 . S
C1408 C1416 1.378 . S
C1409 C1408 1.367 . S
C1409 C1417 1.433 . S
C1410 H1406 0.929 . S
C1410 C1412 1.378 . S
C1410 C1414 1.350 . S
C1411 C1414 1.463 . S
C1411 C1416 1.350 . S
C1411 N1419 1.427 . S
C1412 H1403 0.930 . S
C1412 C1410 1.378 . S
C1412 C1413 1.367 . S
C1413 C1412 1.367 . S
C1413 C1415 1.433 . S
C1414 C1410 1.350 . S
C1414 C1411 1.463 . S
C1414 N1418 1.427 . S
C1415 H1405 0.929 . S
C1415 C1413 1.433 . S
C1415 N1418 1.384 . S
C1416 H1407 0.929 . S
C1416 C1408 1.378 . S
C1416 C1411 1.350 . S
C1417 H1404 0.929 . S
C1417 C1409 1.433 . S
C1417 N1419 1.384 . S
N1418 C1414 1.427 . S
N1418 C1415 1.384 . S
N1419 C1411 1.427 . S
N1419 C1417 1.384 . S
H1420 C1426 0.930 . S
H1421 C1430 0.930 . S
H1422 C1435 0.929 . S
H1423 C1433 0.929 . S
H1424 C1428 0.929 . S
H1425 C1434 0.929 . S
C1426 H1420 0.930 . S
C1426 C1427 1.367 . S
C1426 C1434 1.378 . S
C1427 C1426 1.367 . S
C1427 C1435 1.433 . S
C1428 H1424 0.929 . S
C1428 C1430 1.378 . S
C1428 C1432 1.350 . S
C1429 C1432 1.463 . S
C1429 C1434 1.350 . S
C1429 N1437 1.427 . S
C1430 H1421 0.930 . S
C1430 C1428 1.378 . S
C1430 C1431 1.367 . S
C1431 C1430 1.367 . S
C1431 C1433 1.433 . S
C1432 C1428 1.350 . S
C1432 C1429 1.463 . S
C1432 N1436 1.427 . S
C1433 H1423 0.929 . S
C1433 C1431 1.433 . S
C1433 N1436 1.384 . S
C1434 H1425 0.929 . S
C1434 C1426 1.378 . S
C1434 C1429 1.350 . S
C1435 H1422 0.929 . S
C1435 C1427 1.433 . S
C1435 N1437 1.384 . S
N1436 C1432 1.427 . S
N1436 C1433 1.384 . S
N1437 C1429 1.427 . S
N1437 C1435 1.384 . S
H1438 C1444 0.930 . S
H1439 C1448 0.930 . S
H1440 C1453 0.929 . S
H1441 C1451 0.929 . S
H1442 C1446 0.929 . S
H1443 C1452 0.929 . S
C1444 H1438 0.930 . S
C1444 C1445 1.367 . S
C1444 C1452 1.378 . S
C1445 C1444 1.367 . S
C1445 C1453 1.433 . S
C1446 H1442 0.929 . S
C1446 C1448 1.378 . S
C1446 C1450 1.350 . S
C1447 C1450 1.463 1_455 S
C1447 C1452 1.350 . S
C1447 N1455 1.427 . S
C1448 H1439 0.930 . S
C1448 C1446 1.378 . S
C1448 C1449 1.367 . S
C1449 C1448 1.367 . S
C1449 C1451 1.433 . S
C1450 C1446 1.350 . S
C1450 C1447 1.463 1_655 S
C1450 N1454 1.427 . S
C1451 H1441 0.929 . S
C1451 C1449 1.433 . S
C1451 N1454 1.384 . S
C1452 H1443 0.929 . S
C1452 C1444 1.378 . S
C1452 C1447 1.350 . S
C1453 H1440 0.929 . S
C1453 C1445 1.433 . S
C1453 N1455 1.384 . S
N1454 C1450 1.427 . S
N1454 C1451 1.384 . S
N1455 C1447 1.427 . S
N1455 C1453 1.384 . S
H1456 C1462 0.930 . S
H1457 C1466 0.930 . S
H1458 C1471 0.929 . S
H1459 C1469 0.929 . S
H1460 C1464 0.929 . S
H1461 C1470 0.929 . S
C1462 H1456 0.930 . S
C1462 C1463 1.367 . S
C1462 C1470 1.378 . S
C1463 C1462 1.367 . S
C1463 C1471 1.433 . S
C1464 H1460 0.929 . S
C1464 C1466 1.378 . S
C1464 C1468 1.350 . S
C1465 C1468 1.463 . S
C1465 C1470 1.350 . S
C1465 N1473 1.427 . S
C1466 H1457 0.930 . S
C1466 C1464 1.378 . S
C1466 C1467 1.367 . S
C1467 C1466 1.367 . S
C1467 C1469 1.433 . S
C1468 C1464 1.350 . S
C1468 C1465 1.463 . S
C1468 N1472 1.427 . S
C1469 H1459 0.929 . S
C1469 C1467 1.433 . S
C1469 N1472 1.384 . S
C1470 H1461 0.929 . S
C1470 C1462 1.378 . S
C1470 C1465 1.350 . S
C1471 H1458 0.929 . S
C1471 C1463 1.433 . S
C1471 N1473 1.384 . S
N1472 C1468 1.427 . S
N1472 C1469 1.384 . S
N1473 C1465 1.427 . S
N1473 C1471 1.384 . S
H1474 C1480 0.930 . S
H1475 C1484 0.930 . S
H1476 C1489 0.929 . S
H1477 C1487 0.929 . S
H1478 C1482 0.929 . S
H1479 C1488 0.929 . S
C1480 H1474 0.930 . S
C1480 C1481 1.367 . S
C1480 C1488 1.378 . S
C1481 C1480 1.367 . S
C1481 C1489 1.433 . S
C1482 H1478 0.929 . S
C1482 C1484 1.378 . S
C1482 C1486 1.350 . S
C1483 C1486 1.463 1_455 S
C1483 C1488 1.350 . S
C1483 N1491 1.427 . S
C1484 H1475 0.930 . S
C1484 C1482 1.378 . S
C1484 C1485 1.367 . S
C1485 C1484 1.367 . S
C1485 C1487 1.433 . S
C1486 C1482 1.350 . S
C1486 C1483 1.463 1_655 S
C1486 N1490 1.427 . S
C1487 H1477 0.929 . S
C1487 C1485 1.433 . S
C1487 N1490 1.384 . S
C1488 H1479 0.929 . S
C1488 C1480 1.378 . S
C1488 C1483 1.350 . S
C1489 H1476 0.929 . S
C1489 C1481 1.433 . S
C1489 N1491 1.384 . S
N1490 C1486 1.427 . S
N1490 C1487 1.384 . S
N1491 C1483 1.427 . S
N1491 C1489 1.384 . S
H1492 C1498 0.930 . S
H1493 C1502 0.930 . S
H1494 C1507 0.929 . S
H1495 C1505 0.929 . S
H1496 C1500 0.929 . S
H1497 C1506 0.929 . S
C1498 H1492 0.930 . S
C1498 C1499 1.367 . S
C1498 C1506 1.378 . S
C1499 C1498 1.367 . S
C1499 C1507 1.433 . S
C1500 H1496 0.929 . S
C1500 C1502 1.378 . S
C1500 C1504 1.350 . S
C1501 C1504 1.463 . S
C1501 C1506 1.350 . S
C1501 N1509 1.427 . S
C1502 H1493 0.930 . S
C1502 C1500 1.378 . S
C1502 C1503 1.367 . S
C1503 C1502 1.367 . S
C1503 C1505 1.433 . S
C1504 C1500 1.350 . S
C1504 C1501 1.463 . S
C1504 N1508 1.427 . S
C1505 H1495 0.929 . S
C1505 C1503 1.433 . S
C1505 N1508 1.384 . S
C1506 H1497 0.929 . S
C1506 C1498 1.378 . S
C1506 C1501 1.350 . S
C1507 H1494 0.929 . S
C1507 C1499 1.433 . S
C1507 N1509 1.384 . S
N1508 C1504 1.427 . S
N1508 C1505 1.384 . S
N1509 C1501 1.427 . S
N1509 C1507 1.384 . S
H1510 C1516 0.930 . S
H1511 C1520 0.930 . S
H1512 C1525 0.929 . S
H1513 C1523 0.929 . S
H1514 C1518 0.929 . S
H1515 C1524 0.929 . S
C1516 H1510 0.930 . S
C1516 C1517 1.367 . S
C1516 C1524 1.378 . S
C1517 C1516 1.367 . S
C1517 C1525 1.433 . S
C1518 H1514 0.929 . S
C1518 C1520 1.378 . S
C1518 C1522 1.350 . S
C1519 C1522 1.463 . S
C1519 C1524 1.350 . S
C1519 N1527 1.427 . S
C1520 H1511 0.930 . S
C1520 C1518 1.378 . S
C1520 C1521 1.367 . S
C1521 C1520 1.367 . S
C1521 C1523 1.433 . S
C1522 C1518 1.350 . S
C1522 C1519 1.463 . S
C1522 N1526 1.427 . S
C1523 H1513 0.929 . S
C1523 C1521 1.433 . S
C1523 N1526 1.384 . S
C1524 H1515 0.929 . S
C1524 C1516 1.378 . S
C1524 C1519 1.350 . S
C1525 H1512 0.929 . S
C1525 C1517 1.433 . S
C1525 N1527 1.384 . S
N1526 C1522 1.427 . S
N1526 C1523 1.384 . S
N1527 C1519 1.427 . S
N1527 C1525 1.384 . S
H1528 C1534 0.930 . S
H1529 C1538 0.930 . S
H1530 C1543 0.929 . S
H1531 C1541 0.929 . S
H1532 C1536 0.929 . S
H1533 C1542 0.929 . S
C1534 H1528 0.930 . S
C1534 C1535 1.367 . S
C1534 C1542 1.378 . S
C1535 C1534 1.367 . S
C1535 C1543 1.433 . S
C1536 H1532 0.929 . S
C1536 C1538 1.378 . S
C1536 C1540 1.350 . S
C1537 C1540 1.463 . S
C1537 C1542 1.350 . S
C1537 N1545 1.427 . S
C1538 H1529 0.930 . S
C1538 C1536 1.378 . S
C1538 C1539 1.367 . S
C1539 C1538 1.367 . S
C1539 C1541 1.433 . S
C1540 C1536 1.350 . S
C1540 C1537 1.463 . S
C1540 N1544 1.427 . S
C1541 H1531 0.929 . S
C1541 C1539 1.433 . S
C1541 N1544 1.384 . S
C1542 H1533 0.929 . S
C1542 C1534 1.378 . S
C1542 C1537 1.350 . S
C1543 H1530 0.929 . S
C1543 C1535 1.433 . S
C1543 N1545 1.384 . S
N1544 C1540 1.427 . S
N1544 C1541 1.384 . S
N1545 C1537 1.427 . S
N1545 C1543 1.384 . S
H1546 C1552 0.930 . S
H1547 C1556 0.930 . S
H1548 C1561 0.929 . S
H1549 C1559 0.929 . S
H1550 C1554 0.929 . S
H1551 C1560 0.929 . S
C1552 H1546 0.930 . S
C1552 C1553 1.367 . S
C1552 C1560 1.378 . S
C1553 C1552 1.367 . S
C1553 C1561 1.433 . S
C1554 H1550 0.929 . S
C1554 C1556 1.378 . S
C1554 C1558 1.350 . S
C1555 C1558 1.463 . S
C1555 C1560 1.350 . S
C1555 N1563 1.427 . S
C1556 H1547 0.930 . S
C1556 C1554 1.378 . S
C1556 C1557 1.367 . S
C1557 C1556 1.367 . S
C1557 C1559 1.433 . S
C1558 C1554 1.350 . S
C1558 C1555 1.463 . S
C1558 N1562 1.427 . S
C1559 H1549 0.929 . S
C1559 C1557 1.433 . S
C1559 N1562 1.384 . S
C1560 H1551 0.929 . S
C1560 C1552 1.378 . S
C1560 C1555 1.350 . S
C1561 H1548 0.929 . S
C1561 C1553 1.433 . S
C1561 N1563 1.384 . S
N1562 C1558 1.427 . S
N1562 C1559 1.384 . S
N1563 C1555 1.427 . S
N1563 C1561 1.384 . S
H1564 C1570 0.930 . S
H1565 C1574 0.930 . S
H1566 C1579 0.929 . S
H1567 C1577 0.929 . S
H1568 C1572 0.929 . S
H1569 C1578 0.929 . S
C1570 H1564 0.930 . S
C1570 C1571 1.367 . S
C1570 C1578 1.378 . S
C1571 C1570 1.367 . S
C1571 C1579 1.433 . S
C1572 H1568 0.929 . S
C1572 C1574 1.378 . S
C1572 C1576 1.350 . S
C1573 C1576 1.463 . S
C1573 C1578 1.350 . S
C1573 N1581 1.427 . S
C1574 H1565 0.930 . S
C1574 C1572 1.378 . S
C1574 C1575 1.367 . S
C1575 C1574 1.367 . S
C1575 C1577 1.433 . S
C1576 C1572 1.350 . S
C1576 C1573 1.463 . S
C1576 N1580 1.427 . S
C1577 H1567 0.929 . S
C1577 C1575 1.433 . S
C1577 N1580 1.384 . S
C1578 H1569 0.929 . S
C1578 C1570 1.378 . S
C1578 C1573 1.350 . S
C1579 H1566 0.929 . S
C1579 C1571 1.433 . S
C1579 N1581 1.384 . S
N1580 C1576 1.427 . S
N1580 C1577 1.384 . S
N1581 C1573 1.427 . S
N1581 C1579 1.384 . S
H1582 C1588 0.930 . S
H1583 C1592 0.930 . S
H1584 C1597 0.929 . S
H1585 C1595 0.929 . S
H1586 C1590 0.929 . S
H1587 C1596 0.929 . S
C1588 H1582 0.930 . S
C1588 C1589 1.367 . S
C1588 C1596 1.378 . S
C1589 C1588 1.367 . S
C1589 C1597 1.433 . S
C1590 H1586 0.929 . S
C1590 C1592 1.378 . S
C1590 C1594 1.350 . S
C1591 C1594 1.463 1_655 S
C1591 C1596 1.350 . S
C1591 N1599 1.427 . S
C1592 H1583 0.930 . S
C1592 C1590 1.378 . S
C1592 C1593 1.367 . S
C1593 C1592 1.367 . S
C1593 C1595 1.433 . S
C1594 C1590 1.350 . S
C1594 C1591 1.463 1_455 S
C1594 N1598 1.427 . S
C1595 H1585 0.929 . S
C1595 C1593 1.433 . S
C1595 N1598 1.384 . S
C1596 H1587 0.929 . S
C1596 C1588 1.378 . S
C1596 C1591 1.350 . S
C1597 H1584 0.929 . S
C1597 C1589 1.433 . S
C1597 N1599 1.384 . S
N1598 C1594 1.427 . S
N1598 C1595 1.384 . S
N1599 C1591 1.427 . S
N1599 C1597 1.384 . S
H1600 C1606 0.930 . S
H1601 C1610 0.930 . S
H1602 C1615 0.929 . S
H1603 C1613 0.929 . S
H1604 C1608 0.929 . S
H1605 C1614 0.929 . S
C1606 H1600 0.930 . S
C1606 C1607 1.367 . S
C1606 C1614 1.378 . S
C1607 C1606 1.367 . S
C1607 C1615 1.433 . S
C1608 H1604 0.929 . S
C1608 C1610 1.378 . S
C1608 C1612 1.350 . S
C1609 C1612 1.463 . S
C1609 C1614 1.350 . S
C1609 N1617 1.427 . S
C1610 H1601 0.930 . S
C1610 C1608 1.378 . S
C1610 C1611 1.367 . S
C1611 C1610 1.367 . S
C1611 C1613 1.433 . S
C1612 C1608 1.350 . S
C1612 C1609 1.463 . S
C1612 N1616 1.427 . S
C1613 H1603 0.929 . S
C1613 C1611 1.433 . S
C1613 N1616 1.384 . S
C1614 H1605 0.929 . S
C1614 C1606 1.378 . S
C1614 C1609 1.350 . S
C1615 H1602 0.929 . S
C1615 C1607 1.433 . S
C1615 N1617 1.384 . S
N1616 C1612 1.427 . S
N1616 C1613 1.384 . S
N1617 C1609 1.427 . S
N1617 C1615 1.384 . S
H1618 C1624 0.930 . S
H1619 C1628 0.930 . S
H1620 C1633 0.929 . S
H1621 C1631 0.929 . S
H1622 C1626 0.929 . S
H1623 C1632 0.929 . S
C1624 H1618 0.930 . S
C1624 C1625 1.367 . S
C1624 C1632 1.378 . S
C1625 C1624 1.367 . S
C1625 C1633 1.433 . S
C1626 H1622 0.929 . S
C1626 C1628 1.378 . S
C1626 C1630 1.350 . S
C1627 C1630 1.463 . S
C1627 C1632 1.350 . S
C1627 N1635 1.427 . S
C1628 H1619 0.930 . S
C1628 C1626 1.378 . S
C1628 C1629 1.367 . S
C1629 C1628 1.367 . S
C1629 C1631 1.433 . S
C1630 C1626 1.350 . S
C1630 C1627 1.463 . S
C1630 N1634 1.427 . S
C1631 H1621 0.929 . S
C1631 C1629 1.433 . S
C1631 N1634 1.384 . S
C1632 H1623 0.929 . S
C1632 C1624 1.378 . S
C1632 C1627 1.350 . S
C1633 H1620 0.929 . S
C1633 C1625 1.433 . S
C1633 N1635 1.384 . S
N1634 C1630 1.427 . S
N1634 C1631 1.384 . S
N1635 C1627 1.427 . S
N1635 C1633 1.384 . S
H1636 C1642 0.930 . S
H1637 C1646 0.930 . S
H1638 C1651 0.929 . S
H1639 C1649 0.929 . S
H1640 C1644 0.929 . S
H1641 C1650 0.929 . S
C1642 H1636 0.930 . S
C1642 C1643 1.367 . S
C1642 C1650 1.378 . S
C1643 C1642 1.367 . S
C1643 C1651 1.433 . S
C1644 H1640 0.929 . S
C1644 C1646 1.378 . S
C1644 C1648 1.350 . S
C1645 C1648 1.463 . S
C1645 C1650 1.350 . S
C1645 N1653 1.427 . S
C1646 H1637 0.930 . S
C1646 C1644 1.378 . S
C1646 C1647 1.367 . S
C1647 C1646 1.367 . S
C1647 C1649 1.433 . S
C1648 C1644 1.350 . S
C1648 C1645 1.463 . S
C1648 N1652 1.427 . S
C1649 H1639 0.929 . S
C1649 C1647 1.433 . S
C1649 N1652 1.384 . S
C1650 H1641 0.929 . S
C1650 C1642 1.378 . S
C1650 C1645 1.350 . S
C1651 H1638 0.929 . S
C1651 C1643 1.433 . S
C1651 N1653 1.384 . S
N1652 C1648 1.427 . S
N1652 C1649 1.384 . S
N1653 C1645 1.427 . S
N1653 C1651 1.384 . S
H1654 C1660 0.930 . S
H1655 C1664 0.930 . S
H1656 C1669 0.929 . S
H1657 C1667 0.929 . S
H1658 C1662 0.929 . S
H1659 C1668 0.929 . S
C1660 H1654 0.930 . S
C1660 C1661 1.367 . S
C1660 C1668 1.378 . S
C1661 C1660 1.367 . S
C1661 C1669 1.433 . S
C1662 H1658 0.929 . S
C1662 C1664 1.378 . S
C1662 C1666 1.350 . S
C1663 C1666 1.463 1_655 S
C1663 C1668 1.350 . S
C1663 N1671 1.427 . S
C1664 H1655 0.930 . S
C1664 C1662 1.378 . S
C1664 C1665 1.367 . S
C1665 C1664 1.367 . S
C1665 C1667 1.433 . S
C1666 C1662 1.350 . S
C1666 C1663 1.463 1_455 S
C1666 N1670 1.427 . S
C1667 H1657 0.929 . S
C1667 C1665 1.433 . S
C1667 N1670 1.384 . S
C1668 H1659 0.929 . S
C1668 C1660 1.378 . S
C1668 C1663 1.350 . S
C1669 H1656 0.929 . S
C1669 C1661 1.433 . S
C1669 N1671 1.384 . S
N1670 C1666 1.427 . S
N1670 C1667 1.384 . S
N1671 C1663 1.427 . S
N1671 C1669 1.384 . S
H1672 C1678 0.930 . S
H1673 C1682 0.930 . S
H1674 C1687 0.929 . S
H1675 C1685 0.929 . S
H1676 C1680 0.929 . S
H1677 C1686 0.929 . S
C1678 H1672 0.930 . S
C1678 C1679 1.367 . S
C1678 C1686 1.378 . S
C1679 C1678 1.367 . S
C1679 C1687 1.433 . S
C1680 H1676 0.929 . S
C1680 C1682 1.378 . S
C1680 C1684 1.350 . S
C1681 C1684 1.463 . S
C1681 C1686 1.350 . S
C1681 N1689 1.427 . S
C1682 H1673 0.930 . S
C1682 C1680 1.378 . S
C1682 C1683 1.367 . S
C1683 C1682 1.367 . S
C1683 C1685 1.433 . S
C1684 C1680 1.350 . S
C1684 C1681 1.463 . S
C1684 N1688 1.427 . S
C1685 H1675 0.929 . S
C1685 C1683 1.433 . S
C1685 N1688 1.384 . S
C1686 H1677 0.929 . S
C1686 C1678 1.378 . S
C1686 C1681 1.350 . S
C1687 H1674 0.929 . S
C1687 C1679 1.433 . S
C1687 N1689 1.384 . S
N1688 C1684 1.427 . S
N1688 C1685 1.384 . S
N1689 C1681 1.427 . S
N1689 C1687 1.384 . S
H1690 C1696 0.930 . S
H1691 C1700 0.930 . S
H1692 C1705 0.929 . S
H1693 C1703 0.929 . S
H1694 C1698 0.929 . S
H1695 C1704 0.929 . S
C1696 H1690 0.930 . S
C1696 C1697 1.367 . S
C1696 C1704 1.378 . S
C1697 C1696 1.367 . S
C1697 C1705 1.433 . S
C1698 H1694 0.929 . S
C1698 C1700 1.378 . S
C1698 C1702 1.350 . S
C1699 C1702 1.463 1_655 S
C1699 C1704 1.350 . S
C1699 N1707 1.427 . S
C1700 H1691 0.930 . S
C1700 C1698 1.378 . S
C1700 C1701 1.367 . S
C1701 C1700 1.367 . S
C1701 C1703 1.433 . S
C1702 C1698 1.350 . S
C1702 C1699 1.463 1_455 S
C1702 N1706 1.427 . S
C1703 H1693 0.929 . S
C1703 C1701 1.433 . S
C1703 N1706 1.384 . S
C1704 H1695 0.929 . S
C1704 C1696 1.378 . S
C1704 C1699 1.350 . S
C1705 H1692 0.929 . S
C1705 C1697 1.433 . S
C1705 N1707 1.384 . S
N1706 C1702 1.427 . S
N1706 C1703 1.384 . S
N1707 C1699 1.427 . S
N1707 C1705 1.384 . S
H1708 C1714 0.930 . S
H1709 C1718 0.930 . S
H1710 C1723 0.929 . S
H1711 C1721 0.929 . S
H1712 C1716 0.929 . S
H1713 C1722 0.929 . S
C1714 H1708 0.930 . S
C1714 C1715 1.367 . S
C1714 C1722 1.378 . S
C1715 C1714 1.367 . S
C1715 C1723 1.433 . S
C1716 H1712 0.929 . S
C1716 C1718 1.378 . S
C1716 C1720 1.350 . S
C1717 C1720 1.463 . S
C1717 C1722 1.350 . S
C1717 N1725 1.427 . S
C1718 H1709 0.930 . S
C1718 C1716 1.378 . S
C1718 C1719 1.367 . S
C1719 C1718 1.367 . S
C1719 C1721 1.433 . S
C1720 C1716 1.350 . S
C1720 C1717 1.463 . S
C1720 N1724 1.427 . S
C1721 H1711 0.929 . S
C1721 C1719 1.433 . S
C1721 N1724 1.384 . S
C1722 H1713 0.929 . S
C1722 C1714 1.378 . S
C1722 C1717 1.350 . S
C1723 H1710 0.929 . S
C1723 C1715 1.433 . S
C1723 N1725 1.384 . S
N1724 C1720 1.427 . S
N1724 C1721 1.384 . S
N1725 C1717 1.427 . S
N1725 C1723 1.384 . S
H1726 C1732 0.930 . S
H1727 C1736 0.930 . S
H1728 C1741 0.929 . S
H1729 C1739 0.929 . S
H1730 C1734 0.929 . S
H1731 C1740 0.929 . S
C1732 H1726 0.930 . S
C1732 C1733 1.367 . S
C1732 C1740 1.378 . S
C1733 C1732 1.367 . S
C1733 C1741 1.433 . S
C1734 H1730 0.929 . S
C1734 C1736 1.378 . S
C1734 C1738 1.350 . S
C1735 C1738 1.463 . S
C1735 C1740 1.350 . S
C1735 N1743 1.427 . S
C1736 H1727 0.930 . S
C1736 C1734 1.378 . S
C1736 C1737 1.367 . S
C1737 C1736 1.367 . S
C1737 C1739 1.433 . S
C1738 C1734 1.350 . S
C1738 C1735 1.463 . S
C1738 N1742 1.427 . S
C1739 H1729 0.929 . S
C1739 C1737 1.433 . S
C1739 N1742 1.384 . S
C1740 H1731 0.929 . S
C1740 C1732 1.378 . S
C1740 C1735 1.350 . S
C1741 H1728 0.929 . S
C1741 C1733 1.433 . S
C1741 N1743 1.384 . S
N1742 C1738 1.427 . S
N1742 C1739 1.384 . S
N1743 C1735 1.427 . S
N1743 C1741 1.384 . S
H1744 C1750 0.930 . S
H1745 C1754 0.930 . S
H1746 C1759 0.929 . S
H1747 C1757 0.929 . S
H1748 C1752 0.929 . S
H1749 C1758 0.929 . S
C1750 H1744 0.930 . S
C1750 C1751 1.367 . S
C1750 C1758 1.378 . S
C1751 C1750 1.367 . S
C1751 C1759 1.433 . S
C1752 H1748 0.929 . S
C1752 C1754 1.378 . S
C1752 C1756 1.350 . S
C1753 C1756 1.463 . S
C1753 C1758 1.350 . S
C1753 N1761 1.427 . S
C1754 H1745 0.930 . S
C1754 C1752 1.378 . S
C1754 C1755 1.367 . S
C1755 C1754 1.367 . S
C1755 C1757 1.433 . S
C1756 C1752 1.350 . S
C1756 C1753 1.463 . S
C1756 N1760 1.427 . S
C1757 H1747 0.929 . S
C1757 C1755 1.433 . S
C1757 N1760 1.384 . S
C1758 H1749 0.929 . S
C1758 C1750 1.378 . S
C1758 C1753 1.350 . S
C1759 H1746 0.929 . S
C1759 C1751 1.433 . S
C1759 N1761 1.384 . S
N1760 C1756 1.427 . S
N1760 C1757 1.384 . S
N1761 C1753 1.427 . S
N1761 C1759 1.384 . S
H1762 C1768 0.930 . S
H1763 C1772 0.930 . S
H1764 C1777 0.929 . S
H1765 C1775 0.929 . S
H1766 C1770 0.929 . S
H1767 C1776 0.929 . S
C1768 H1762 0.930 . S
C1768 C1769 1.367 . S
C1768 C1776 1.378 . S
C1769 C1768 1.367 . S
C1769 C1777 1.433 . S
C1770 H1766 0.929 . S
C1770 C1772 1.378 . S
C1770 C1774 1.350 . S
C1771 C1774 1.463 . S
C1771 C1776 1.350 . S
C1771 N1779 1.427 . S
C1772 H1763 0.930 . S
C1772 C1770 1.378 . S
C1772 C1773 1.367 . S
C1773 C1772 1.367 . S
C1773 C1775 1.433 . S
C1774 C1770 1.350 . S
C1774 C1771 1.463 . S
C1774 N1778 1.427 . S
C1775 H1765 0.929 . S
C1775 C1773 1.433 . S
C1775 N1778 1.384 . S
C1776 H1767 0.929 . S
C1776 C1768 1.378 . S
C1776 C1771 1.350 . S
C1777 H1764 0.929 . S
C1777 C1769 1.433 . S
C1777 N1779 1.384 . S
N1778 C1774 1.427 . S
N1778 C1775 1.384 . S
N1779 C1771 1.427 . S
N1779 C1777 1.384 . S
H1780 C1786 0.930 . S
H1781 C1790 0.930 . S
H1782 C1795 0.929 . S
H1783 C1793 0.929 . S
H1784 C1788 0.929 . S
H1785 C1794 0.929 . S
C1786 H1780 0.930 . S
C1786 C1787 1.367 . S
C1786 C1794 1.378 . S
C1787 C1786 1.367 . S
C1787 C1795 1.433 . S
C1788 H1784 0.929 . S
C1788 C1790 1.378 . S
C1788 C1792 1.350 . S
C1789 C1792 1.463 . S
C1789 C1794 1.350 . S
C1789 N1797 1.427 . S
C1790 H1781 0.930 . S
C1790 C1788 1.378 . S
C1790 C1791 1.367 . S
C1791 C1790 1.367 . S
C1791 C1793 1.433 . S
C1792 C1788 1.350 . S
C1792 C1789 1.463 . S
C1792 N1796 1.427 . S
C1793 H1783 0.929 . S
C1793 C1791 1.433 . S
C1793 N1796 1.384 . S
C1794 H1785 0.929 . S
C1794 C1786 1.378 . S
C1794 C1789 1.350 . S
C1795 H1782 0.929 . S
C1795 C1787 1.433 . S
C1795 N1797 1.384 . S
N1796 C1792 1.427 . S
N1796 C1793 1.384 . S
N1797 C1789 1.427 . S
N1797 C1795 1.384 . S
H1798 C1804 0.930 . S
H1799 C1808 0.930 . S
H1800 C1813 0.929 . S
H1801 C1811 0.929 . S
H1802 C1806 0.929 . S
H1803 C1812 0.929 . S
C1804 H1798 0.930 . S
C1804 C1805 1.367 . S
C1804 C1812 1.378 . S
C1805 C1804 1.367 . S
C1805 C1813 1.433 . S
C1806 H1802 0.929 . S
C1806 C1808 1.378 . S
C1806 C1810 1.350 . S
C1807 C1810 1.463 1_655 S
C1807 C1812 1.350 . S
C1807 N1815 1.427 . S
C1808 H1799 0.930 . S
C1808 C1806 1.378 . S
C1808 C1809 1.367 . S
C1809 C1808 1.367 . S
C1809 C1811 1.433 . S
C1810 C1806 1.350 . S
C1810 C1807 1.463 1_455 S
C1810 N1814 1.427 . S
C1811 H1801 0.929 . S
C1811 C1809 1.433 . S
C1811 N1814 1.384 . S
C1812 H1803 0.929 . S
C1812 C1804 1.378 . S
C1812 C1807 1.350 . S
C1813 H1800 0.929 . S
C1813 C1805 1.433 . S
C1813 N1815 1.384 . S
N1814 C1810 1.427 . S
N1814 C1811 1.384 . S
N1815 C1807 1.427 . S
N1815 C1813 1.384 . S
H1816 C1822 0.930 . S
H1817 C1826 0.930 . S
H1818 C1831 0.929 . S
H1819 C1829 0.929 . S
H1820 C1824 0.929 . S
H1821 C1830 0.929 . S
C1822 H1816 0.930 . S
C1822 C1823 1.367 . S
C1822 C1830 1.378 . S
C1823 C1822 1.367 . S
C1823 C1831 1.433 . S
C1824 H1820 0.929 . S
C1824 C1826 1.378 . S
C1824 C1828 1.350 . S
C1825 C1828 1.463 . S
C1825 C1830 1.350 . S
C1825 N1833 1.427 . S
C1826 H1817 0.930 . S
C1826 C1824 1.378 . S
C1826 C1827 1.367 . S
C1827 C1826 1.367 . S
C1827 C1829 1.433 . S
C1828 C1824 1.350 . S
C1828 C1825 1.463 . S
C1828 N1832 1.427 . S
C1829 H1819 0.929 . S
C1829 C1827 1.433 . S
C1829 N1832 1.384 . S
C1830 H1821 0.929 . S
C1830 C1822 1.378 . S
C1830 C1825 1.350 . S
C1831 H1818 0.929 . S
C1831 C1823 1.433 . S
C1831 N1833 1.384 . S
N1832 C1828 1.427 . S
N1832 C1829 1.384 . S
N1833 C1825 1.427 . S
N1833 C1831 1.384 . S
H1834 C1840 0.930 . S
H1835 C1844 0.930 . S
H1836 C1849 0.929 . S
H1837 C1847 0.929 . S
H1838 C1842 0.929 . S
H1839 C1848 0.929 . S
C1840 H1834 0.930 . S
C1840 C1841 1.367 . S
C1840 C1848 1.378 . S
C1841 C1840 1.367 . S
C1841 C1849 1.433 . S
C1842 H1838 0.929 . S
C1842 C1844 1.378 . S
C1842 C1846 1.350 . S
C1843 C1846 1.463 1_455 S
C1843 C1848 1.350 . S
C1843 N1851 1.427 . S
C1844 H1835 0.930 . S
C1844 C1842 1.378 . S
C1844 C1845 1.367 . S
C1845 C1844 1.367 . S
C1845 C1847 1.433 . S
C1846 C1842 1.350 . S
C1846 C1843 1.463 1_655 S
C1846 N1850 1.427 . S
C1847 H1837 0.929 . S
C1847 C1845 1.433 . S
C1847 N1850 1.384 . S
C1848 H1839 0.929 . S
C1848 C1840 1.378 . S
C1848 C1843 1.350 . S
C1849 H1836 0.929 . S
C1849 C1841 1.433 . S
C1849 N1851 1.384 . S
N1850 C1846 1.427 . S
N1850 C1847 1.384 . S
N1851 C1843 1.427 . S
N1851 C1849 1.384 . S
H1852 C1858 0.930 . S
H1853 C1862 0.930 . S
H1854 C1867 0.929 . S
H1855 C1865 0.929 . S
H1856 C1860 0.929 . S
H1857 C1866 0.929 . S
C1858 H1852 0.930 . S
C1858 C1859 1.367 . S
C1858 C1866 1.378 . S
C1859 C1858 1.367 . S
C1859 C1867 1.433 . S
C1860 H1856 0.929 . S
C1860 C1862 1.378 . S
C1860 C1864 1.350 . S
C1861 C1864 1.463 . S
C1861 C1866 1.350 . S
C1861 N1869 1.427 . S
C1862 H1853 0.930 . S
C1862 C1860 1.378 . S
C1862 C1863 1.367 . S
C1863 C1862 1.367 . S
C1863 C1865 1.433 . S
C1864 C1860 1.350 . S
C1864 C1861 1.463 . S
C1864 N1868 1.427 . S
C1865 H1855 0.929 . S
C1865 C1863 1.433 . S
C1865 N1868 1.384 . S
C1866 H1857 0.929 . S
C1866 C1858 1.378 . S
C1866 C1861 1.350 . S
C1867 H1854 0.929 . S
C1867 C1859 1.433 . S
C1867 N1869 1.384 . S
N1868 C1864 1.427 . S
N1868 C1865 1.384 . S
N1869 C1861 1.427 . S
N1869 C1867 1.384 . S
H1870 C1876 0.930 . S
H1871 C1880 0.930 . S
H1872 C1885 0.929 . S
H1873 C1883 0.929 . S
H1874 C1878 0.929 . S
H1875 C1884 0.929 . S
C1876 H1870 0.930 . S
C1876 C1877 1.367 . S
C1876 C1884 1.378 . S
C1877 C1876 1.367 . S
C1877 C1885 1.433 . S
C1878 H1874 0.929 . S
C1878 C1880 1.378 . S
C1878 C1882 1.350 . S
C1879 C1882 1.463 . S
C1879 C1884 1.350 . S
C1879 N1887 1.427 . S
C1880 H1871 0.930 . S
C1880 C1878 1.378 . S
C1880 C1881 1.367 . S
C1881 C1880 1.367 . S
C1881 C1883 1.433 . S
C1882 C1878 1.350 . S
C1882 C1879 1.463 . S
C1882 N1886 1.427 . S
C1883 H1873 0.929 . S
C1883 C1881 1.433 . S
C1883 N1886 1.384 . S
C1884 H1875 0.929 . S
C1884 C1876 1.378 . S
C1884 C1879 1.350 . S
C1885 H1872 0.929 . S
C1885 C1877 1.433 . S
C1885 N1887 1.384 . S
N1886 C1882 1.427 . S
N1886 C1883 1.384 . S
N1887 C1879 1.427 . S
N1887 C1885 1.384 . S
H1888 C1894 0.930 . S
H1889 C1898 0.930 . S
H1890 C1903 0.929 . S
H1891 C1901 0.929 . S
H1892 C1896 0.929 . S
H1893 C1902 0.929 . S
C1894 H1888 0.930 . S
C1894 C1895 1.367 . S
C1894 C1902 1.378 . S
C1895 C1894 1.367 . S
C1895 C1903 1.433 . S
C1896 H1892 0.929 . S
C1896 C1898 1.378 . S
C1896 C1900 1.350 . S
C1897 C1900 1.463 1_545 S
C1897 C1902 1.350 . S
C1897 N1905 1.427 . S
C1898 H1889 0.930 . S
C1898 C1896 1.378 . S
C1898 C1899 1.367 . S
C1899 C1898 1.367 . S
C1899 C1901 1.433 . S
C1900 C1896 1.350 . S
C1900 C1897 1.463 1_565 S
C1900 N1904 1.427 . S
C1901 H1891 0.929 . S
C1901 C1899 1.433 . S
C1901 N1904 1.384 . S
C1902 H1893 0.929 . S
C1902 C1894 1.378 . S
C1902 C1897 1.350 . S
C1903 H1890 0.929 . S
C1903 C1895 1.433 . S
C1903 N1905 1.384 . S
N1904 C1900 1.427 . S
N1904 C1901 1.384 . S
N1905 C1897 1.427 . S
N1905 C1903 1.384 . S
H1906 C1912 0.930 . S
H1907 C1916 0.930 . S
H1908 C1921 0.929 . S
H1909 C1919 0.929 . S
H1910 C1914 0.929 . S
H1911 C1920 0.929 . S
C1912 H1906 0.930 . S
C1912 C1913 1.367 . S
C1912 C1920 1.378 . S
C1913 C1912 1.367 . S
C1913 C1921 1.433 . S
C1914 H1910 0.929 . S
C1914 C1916 1.378 . S
C1914 C1918 1.350 . S
C1915 C1918 1.463 . S
C1915 C1920 1.350 . S
C1915 N1923 1.427 . S
C1916 H1907 0.930 . S
C1916 C1914 1.378 . S
C1916 C1917 1.367 . S
C1917 C1916 1.367 . S
C1917 C1919 1.433 . S
C1918 C1914 1.350 . S
C1918 C1915 1.463 . S
C1918 N1922 1.427 . S
C1919 H1909 0.929 . S
C1919 C1917 1.433 . S
C1919 N1922 1.384 . S
C1920 H1911 0.929 . S
C1920 C1912 1.378 . S
C1920 C1915 1.350 . S
C1921 H1908 0.929 . S
C1921 C1913 1.433 . S
C1921 N1923 1.384 . S
N1922 C1918 1.427 . S
N1922 C1919 1.384 . S
N1923 C1915 1.427 . S
N1923 C1921 1.384 . S
H1924 C1930 0.930 . S
H1925 C1934 0.930 . S
H1926 C1939 0.929 . S
H1927 C1937 0.929 . S
H1928 C1932 0.929 . S
H1929 C1938 0.929 . S
C1930 H1924 0.930 . S
C1930 C1931 1.367 . S
C1930 C1938 1.378 . S
C1931 C1930 1.367 . S
C1931 C1939 1.433 . S
C1932 H1928 0.929 . S
C1932 C1934 1.378 . S
C1932 C1936 1.350 . S
C1933 C1936 1.463 1_565 S
C1933 C1938 1.350 . S
C1933 N1941 1.427 . S
C1934 H1925 0.930 . S
C1934 C1932 1.378 . S
C1934 C1935 1.367 . S
C1935 C1934 1.367 . S
C1935 C1937 1.433 . S
C1936 C1932 1.350 . S
C1936 C1933 1.463 1_545 S
C1936 N1940 1.427 . S
C1937 H1927 0.929 . S
C1937 C1935 1.433 . S
C1937 N1940 1.384 . S
C1938 H1929 0.929 . S
C1938 C1930 1.378 . S
C1938 C1933 1.350 . S
C1939 H1926 0.929 . S
C1939 C1931 1.433 . S
C1939 N1941 1.384 . S
N1940 C1936 1.427 . S
N1940 C1937 1.384 . S
N1941 C1933 1.427 . S
N1941 C1939 1.384 . S
H1942 C1948 0.930 . S
H1943 C1952 0.930 . S
H1944 C1957 0.929 . S
H1945 C1955 0.929 . S
H1946 C1950 0.929 . S
H1947 C1956 0.929 . S
C1948 H1942 0.930 . S
C1948 C1949 1.367 . S
C1948 C1956 1.378 1_556 S
C1949 C1948 1.367 . S
C1949 C1957 1.433 . S
C1950 H1946 0.929 . S
C1950 C1952 1.378 1_556 S
C1950 C1954 1.350 1_556 S
C1951 C1954 1.463 1_556 S
C1951 C1956 1.350 1_556 S
C1951 N1959 1.427 . S
C1952 H1943 0.930 . S
C1952 C1950 1.378 1_554 S
C1952 C1953 1.367 . S
C1953 C1952 1.367 . S
C1953 C1955 1.433 . S
C1954 C1950 1.350 1_554 S
C1954 C1951 1.463 1_554 S
C1954 N1958 1.427 . S
C1955 H1945 0.929 . S
C1955 C1953 1.433 . S
C1955 N1958 1.384 . S
C1956 H1947 0.929 . S
C1956 C1948 1.378 1_554 S
C1956 C1951 1.350 1_554 S
C1957 H1944 0.929 . S
C1957 C1949 1.433 . S
C1957 N1959 1.384 . S
N1958 C1954 1.427 . S
N1958 C1955 1.384 . S
N1959 C1951 1.427 . S
N1959 C1957 1.384 . S
H1960 C1966 0.930 . S
H1961 C1970 0.930 . S
H1962 C1975 0.929 . S
H1963 C1973 0.929 . S
H1964 C1968 0.929 . S
H1965 C1974 0.929 . S
C1966 H1960 0.930 . S
C1966 C1967 1.367 . S
C1966 C1974 1.378 . S
C1967 C1966 1.367 . S
C1967 C1975 1.433 . S
C1968 H1964 0.929 . S
C1968 C1970 1.378 . S
C1968 C1972 1.350 . S
C1969 C1972 1.463 1_545 S
C1969 C1974 1.350 . S
C1969 N1977 1.427 . S
C1970 H1961 0.930 . S
C1970 C1968 1.378 . S
C1970 C1971 1.367 . S
C1971 C1970 1.367 . S
C1971 C1973 1.433 . S
C1972 C1968 1.350 . S
C1972 C1969 1.463 1_565 S
C1972 N1976 1.427 . S
C1973 H1963 0.929 . S
C1973 C1971 1.433 . S
C1973 N1976 1.384 . S
C1974 H1965 0.929 . S
C1974 C1966 1.378 . S
C1974 C1969 1.350 . S
C1975 H1962 0.929 . S
C1975 C1967 1.433 . S
C1975 N1977 1.384 . S
N1976 C1972 1.427 . S
N1976 C1973 1.384 . S
N1977 C1969 1.427 . S
N1977 C1975 1.384 . S
H1978 C1984 0.930 . S
H1979 C1988 0.930 . S
H1980 C1993 0.929 . S
H1981 C1991 0.929 . S
H1982 C1986 0.929 . S
H1983 C1992 0.929 . S
C1984 H1978 0.930 . S
C1984 C1985 1.367 . S
C1984 C1992 1.378 . S
C1985 C1984 1.367 . S
C1985 C1993 1.433 . S
C1986 H1982 0.929 . S
C1986 C1988 1.378 . S
C1986 C1990 1.350 . S
C1987 C1990 1.463 . S
C1987 C1992 1.350 . S
C1987 N1995 1.427 . S
C1988 H1979 0.930 . S
C1988 C1986 1.378 . S
C1988 C1989 1.367 . S
C1989 C1988 1.367 . S
C1989 C1991 1.433 . S
C1990 C1986 1.350 . S
C1990 C1987 1.463 . S
C1990 N1994 1.427 . S
C1991 H1981 0.929 . S
C1991 C1989 1.433 . S
C1991 N1994 1.384 . S
C1992 H1983 0.929 . S
C1992 C1984 1.378 . S
C1992 C1987 1.350 . S
C1993 H1980 0.929 . S
C1993 C1985 1.433 . S
C1993 N1995 1.384 . S
N1994 C1990 1.427 . S
N1994 C1991 1.384 . S
N1995 C1987 1.427 . S
N1995 C1993 1.384 . S
H1996 C2002 0.930 . S
H1997 C2006 0.930 . S
H1998 C2011 0.929 . S
H1999 C2009 0.929 . S
H2000 C2004 0.929 1_545 S
H2001 C2010 0.929 1_565 S
C2002 H1996 0.930 . S
C2002 C2003 1.367 . S
C2002 C2010 1.378 . S
C2003 C2002 1.367 . S
C2003 C2011 1.433 . S
C2004 H2000 0.929 1_565 S
C2004 C2006 1.378 . S
C2004 C2008 1.350 . S
C2005 C2008 1.463 1_545 S
C2005 C2010 1.350 . S
C2005 N2013 1.427 . S
C2006 H1997 0.930 . S
C2006 C2004 1.378 . S
C2006 C2007 1.367 . S
C2007 C2006 1.367 . S
C2007 C2009 1.433 . S
C2008 C2004 1.350 . S
C2008 C2005 1.463 1_565 S
C2008 N2012 1.427 . S
C2009 H1999 0.929 . S
C2009 C2007 1.433 . S
C2009 N2012 1.384 . S
C2010 H2001 0.929 1_545 S
C2010 C2002 1.378 . S
C2010 C2005 1.350 . S
C2011 H1998 0.929 . S
C2011 C2003 1.433 . S
C2011 N2013 1.384 . S
N2012 C2008 1.427 . S
N2012 C2009 1.384 . S
N2013 C2005 1.427 . S
N2013 C2011 1.384 . S
H2014 C2020 0.930 1_554 S
H2015 C2024 0.930 1_556 S
H2016 C2029 0.929 . S
H2017 C2027 0.929 . S
H2018 C2022 0.929 . S
H2019 C2028 0.929 . S
C2020 H2014 0.930 1_556 S
C2020 C2021 1.367 . S
C2020 C2028 1.378 1_556 S
C2021 C2020 1.367 . S
C2021 C2029 1.433 . S
C2022 H2018 0.929 . S
C2022 C2024 1.378 1_556 S
C2022 C2026 1.350 1_556 S
C2023 C2026 1.463 1_556 S
C2023 C2028 1.350 1_556 S
C2023 N2031 1.427 . S
C2024 H2015 0.930 1_554 S
C2024 C2022 1.378 1_554 S
C2024 C2025 1.367 . S
C2025 C2024 1.367 . S
C2025 C2027 1.433 . S
C2026 C2022 1.350 1_554 S
C2026 C2023 1.463 1_554 S
C2026 N2030 1.427 . S
C2027 H2017 0.929 . S
C2027 C2025 1.433 . S
C2027 N2030 1.384 . S
C2028 H2019 0.929 . S
C2028 C2020 1.378 1_554 S
C2028 C2023 1.350 1_554 S
C2029 H2016 0.929 . S
C2029 C2021 1.433 . S
C2029 N2031 1.384 . S
N2030 C2026 1.427 . S
N2030 C2027 1.384 . S
N2031 C2023 1.427 . S
N2031 C2029 1.384 . S
H2032 C2038 0.930 . S
H2033 C2042 0.930 . S
H2034 C2047 0.929 . S
H2035 C2045 0.929 . S
H2036 C2040 0.929 . S
H2037 C2046 0.929 . S
C2038 H2032 0.930 . S
C2038 C2039 1.367 . S
C2038 C2046 1.378 . S
C2039 C2038 1.367 . S
C2039 C2047 1.433 . S
C2040 H2036 0.929 . S
C2040 C2042 1.378 . S
C2040 C2044 1.350 . S
C2041 C2044 1.463 . S
C2041 C2046 1.350 . S
C2041 N2049 1.427 . S
C2042 H2033 0.930 . S
C2042 C2040 1.378 . S
C2042 C2043 1.367 . S
C2043 C2042 1.367 . S
C2043 C2045 1.433 . S
C2044 C2040 1.350 . S
C2044 C2041 1.463 . S
C2044 N2048 1.427 . S
C2045 H2035 0.929 . S
C2045 C2043 1.433 . S
C2045 N2048 1.384 . S
C2046 H2037 0.929 . S
C2046 C2038 1.378 . S
C2046 C2041 1.350 . S
C2047 H2034 0.929 . S
C2047 C2039 1.433 . S
C2047 N2049 1.384 . S
N2048 C2044 1.427 . S
N2048 C2045 1.384 . S
N2049 C2041 1.427 . S
N2049 C2047 1.384 . S
H2050 C2056 0.930 . S
H2051 C2060 0.930 . S
H2052 C2065 0.929 . S
H2053 C2063 0.929 . S
H2054 C2058 0.929 . S
H2055 C2064 0.928 1_554 S
C2056 H2050 0.930 . S
C2056 C2057 1.367 . S
C2056 C2064 1.378 . S
C2057 C2056 1.367 . S
C2057 C2065 1.433 . S
C2058 H2054 0.929 . S
C2058 C2060 1.378 . S
C2058 C2062 1.350 . S
C2059 C2062 1.463 1_556 S
C2059 C2064 1.350 . S
C2059 N2067 1.427 . S
C2060 H2051 0.930 . S
C2060 C2058 1.378 . S
C2060 C2061 1.367 . S
C2061 C2060 1.367 . S
C2061 C2063 1.433 . S
C2062 C2058 1.350 . S
C2062 C2059 1.463 1_554 S
C2062 N2066 1.427 . S
C2063 H2053 0.929 . S
C2063 C2061 1.433 . S
C2063 N2066 1.384 . S
C2064 H2055 0.928 1_556 S
C2064 C2056 1.378 . S
C2064 C2059 1.350 . S
C2065 H2052 0.929 . S
C2065 C2057 1.433 . S
C2065 N2067 1.384 . S
N2066 C2062 1.427 . S
N2066 C2063 1.384 . S
N2067 C2059 1.427 . S
N2067 C2065 1.384 . S
H2068 C2074 0.930 . S
H2069 C2078 0.930 . S
H2070 C2083 0.929 . S
H2071 C2081 0.929 . S
H2072 C2076 0.929 . S
H2073 C2082 0.929 . S
C2074 H2068 0.930 . S
C2074 C2075 1.367 . S
C2074 C2082 1.378 . S
C2075 C2074 1.367 . S
C2075 C2083 1.433 . S
C2076 H2072 0.929 . S
C2076 C2078 1.378 . S
C2076 C2080 1.350 . S
C2077 C2080 1.463 . S
C2077 C2082 1.350 . S
C2077 N2085 1.427 . S
C2078 H2069 0.930 . S
C2078 C2076 1.378 . S
C2078 C2079 1.367 . S
C2079 C2078 1.367 . S
C2079 C2081 1.433 . S
C2080 C2076 1.350 . S
C2080 C2077 1.463 . S
C2080 N2084 1.427 . S
C2081 H2071 0.929 . S
C2081 C2079 1.433 . S
C2081 N2084 1.384 . S
C2082 H2073 0.929 . S
C2082 C2074 1.378 . S
C2082 C2077 1.350 . S
C2083 H2070 0.929 . S
C2083 C2075 1.433 . S
C2083 N2085 1.384 . S
N2084 C2080 1.427 . S
N2084 C2081 1.384 . S
N2085 C2077 1.427 . S
N2085 C2083 1.384 . S
H2086 C2092 0.930 . S
H2087 C2096 0.930 . S
H2088 C2101 0.929 . S
H2089 C2099 0.929 . S
H2090 C2094 0.929 . S
H2091 C2100 0.929 . S
C2092 H2086 0.930 . S
C2092 C2093 1.367 . S
C2092 C2100 1.378 . S
C2093 C2092 1.367 . S
C2093 C2101 1.433 . S
C2094 H2090 0.929 . S
C2094 C2096 1.378 . S
C2094 C2098 1.350 . S
C2095 C2098 1.463 . S
C2095 C2100 1.350 . S
C2095 N2103 1.427 . S
C2096 H2087 0.930 . S
C2096 C2094 1.378 . S
C2096 C2097 1.367 . S
C2097 C2096 1.367 . S
C2097 C2099 1.433 . S
C2098 C2094 1.350 . S
C2098 C2095 1.463 . S
C2098 N2102 1.427 . S
C2099 H2089 0.929 . S
C2099 C2097 1.433 . S
C2099 N2102 1.384 . S
C2100 H2091 0.929 . S
C2100 C2092 1.378 . S
C2100 C2095 1.350 . S
C2101 H2088 0.929 . S
C2101 C2093 1.433 . S
C2101 N2103 1.384 . S
N2102 C2098 1.427 . S
N2102 C2099 1.384 . S
N2103 C2095 1.427 . S
N2103 C2101 1.384 . S
H2104 C2110 0.930 . S
H2105 C2114 0.930 . S
H2106 C2119 0.929 . S
H2107 C2117 0.929 . S
H2108 C2112 0.929 . S
H2109 C2118 0.929 . S
C2110 H2104 0.930 . S
C2110 C2111 1.367 . S
C2110 C2118 1.378 . S
C2111 C2110 1.367 . S
C2111 C2119 1.433 . S
C2112 H2108 0.929 . S
C2112 C2114 1.378 . S
C2112 C2116 1.350 . S
C2113 C2116 1.463 . S
C2113 C2118 1.350 . S
C2113 N2121 1.427 . S
C2114 H2105 0.930 . S
C2114 C2112 1.378 . S
C2114 C2115 1.367 . S
C2115 C2114 1.367 . S
C2115 C2117 1.433 . S
C2116 C2112 1.350 . S
C2116 C2113 1.463 . S
C2116 N2120 1.427 . S
C2117 H2107 0.929 . S
C2117 C2115 1.433 . S
C2117 N2120 1.384 . S
C2118 H2109 0.929 . S
C2118 C2110 1.378 . S
C2118 C2113 1.350 . S
C2119 H2106 0.929 . S
C2119 C2111 1.433 . S
C2119 N2121 1.384 . S
N2120 C2116 1.427 . S
N2120 C2117 1.384 . S
N2121 C2113 1.427 . S
N2121 C2119 1.384 . S
H2122 C2128 0.930 . S
H2123 C2132 0.930 . S
H2124 C2137 0.929 . S
H2125 C2135 0.929 . S
H2126 C2130 0.929 . S
H2127 C2136 0.929 . S
C2128 H2122 0.930 . S
C2128 C2129 1.367 . S
C2128 C2136 1.378 1_556 S
C2129 C2128 1.367 . S
C2129 C2137 1.433 . S
C2130 H2126 0.929 . S
C2130 C2132 1.378 1_556 S
C2130 C2134 1.350 1_556 S
C2131 C2134 1.463 1_556 S
C2131 C2136 1.350 1_556 S
C2131 N2139 1.427 . S
C2132 H2123 0.930 . S
C2132 C2130 1.378 1_554 S
C2132 C2133 1.367 . S
C2133 C2132 1.367 . S
C2133 C2135 1.433 . S
C2134 C2130 1.350 1_554 S
C2134 C2131 1.463 1_554 S
C2134 N2138 1.427 . S
C2135 H2125 0.929 . S
C2135 C2133 1.433 . S
C2135 N2138 1.384 . S
C2136 H2127 0.929 . S
C2136 C2128 1.378 1_554 S
C2136 C2131 1.350 1_554 S
C2137 H2124 0.929 . S
C2137 C2129 1.433 . S
C2137 N2139 1.384 . S
N2138 C2134 1.427 . S
N2138 C2135 1.384 . S
N2139 C2131 1.427 . S
N2139 C2137 1.384 . S
H2140 C2146 0.930 . S
H2141 C2150 0.930 . S
H2142 C2155 0.929 . S
H2143 C2153 0.929 . S
H2144 C2148 0.929 . S
H2145 C2154 0.929 . S
C2146 H2140 0.930 . S
C2146 C2147 1.367 . S
C2146 C2154 1.378 . S
C2147 C2146 1.367 . S
C2147 C2155 1.433 . S
C2148 H2144 0.929 . S
C2148 C2150 1.378 . S
C2148 C2152 1.350 . S
C2149 C2152 1.463 . S
C2149 C2154 1.350 . S
C2149 N2157 1.427 . S
C2150 H2141 0.930 . S
C2150 C2148 1.378 . S
C2150 C2151 1.367 . S
C2151 C2150 1.367 . S
C2151 C2153 1.433 . S
C2152 C2148 1.350 . S
C2152 C2149 1.463 . S
C2152 N2156 1.427 . S
C2153 H2143 0.929 . S
C2153 C2151 1.433 . S
C2153 N2156 1.384 . S
C2154 H2145 0.929 . S
C2154 C2146 1.378 . S
C2154 C2149 1.350 . S
C2155 H2142 0.929 . S
C2155 C2147 1.433 . S
C2155 N2157 1.384 . S
N2156 C2152 1.427 . S
N2156 C2153 1.384 . S
N2157 C2149 1.427 . S
N2157 C2155 1.384 . S
H2158 C2164 0.930 . S
H2159 C2168 0.930 . S
H2160 C2173 0.929 . S
H2161 C2171 0.929 . S
H2162 C2166 0.929 . S
H2163 C2172 0.929 . S
C2164 H2158 0.930 . S
C2164 C2165 1.367 . S
C2164 C2172 1.378 . S
C2165 C2164 1.367 . S
C2165 C2173 1.433 . S
C2166 H2162 0.929 . S
C2166 C2168 1.378 . S
C2166 C2170 1.350 . S
C2167 C2170 1.463 . S
C2167 C2172 1.350 . S
C2167 N2175 1.427 . S
C2168 H2159 0.930 . S
C2168 C2166 1.378 . S
C2168 C2169 1.367 . S
C2169 C2168 1.367 . S
C2169 C2171 1.433 . S
C2170 C2166 1.350 . S
C2170 C2167 1.463 . S
C2170 N2174 1.427 . S
C2171 H2161 0.929 . S
C2171 C2169 1.433 . S
C2171 N2174 1.384 . S
C2172 H2163 0.929 . S
C2172 C2164 1.378 . S
C2172 C2167 1.350 . S
C2173 H2160 0.929 . S
C2173 C2165 1.433 . S
C2173 N2175 1.384 . S
N2174 C2170 1.427 . S
N2174 C2171 1.384 . S
N2175 C2167 1.427 . S
N2175 C2173 1.384 . S
H2176 C2182 0.930 . S
H2177 C2186 0.930 . S
H2178 C2191 0.929 . S
H2179 C2189 0.929 . S
H2180 C2184 0.929 . S
H2181 C2190 0.929 . S
C2182 H2176 0.930 . S
C2182 C2183 1.367 . S
C2182 C2190 1.378 . S
C2183 C2182 1.367 . S
C2183 C2191 1.433 . S
C2184 H2180 0.929 . S
C2184 C2186 1.378 . S
C2184 C2188 1.350 . S
C2185 C2188 1.463 . S
C2185 C2190 1.350 . S
C2185 N2193 1.427 . S
C2186 H2177 0.930 . S
C2186 C2184 1.378 . S
C2186 C2187 1.367 . S
C2187 C2186 1.367 . S
C2187 C2189 1.433 . S
C2188 C2184 1.350 . S
C2188 C2185 1.463 . S
C2188 N2192 1.427 . S
C2189 H2179 0.929 . S
C2189 C2187 1.433 . S
C2189 N2192 1.384 . S
C2190 H2181 0.929 . S
C2190 C2182 1.378 . S
C2190 C2185 1.350 . S
C2191 H2178 0.929 . S
C2191 C2183 1.433 . S
C2191 N2193 1.384 . S
N2192 C2188 1.427 . S
N2192 C2189 1.384 . S
N2193 C2185 1.427 . S
N2193 C2191 1.384 . S
H2194 C2200 0.930 . S
H2195 C2204 0.930 . S
H2196 C2209 0.929 . S
H2197 C2207 0.929 . S
H2198 C2202 0.929 . S
H2199 C2208 0.929 . S
C2200 H2194 0.930 . S
C2200 C2201 1.367 . S
C2200 C2208 1.378 . S
C2201 C2200 1.367 . S
C2201 C2209 1.433 . S
C2202 H2198 0.929 . S
C2202 C2204 1.378 . S
C2202 C2206 1.350 . S
C2203 C2206 1.463 . S
C2203 C2208 1.350 . S
C2203 N2211 1.427 . S
C2204 H2195 0.930 . S
C2204 C2202 1.378 . S
C2204 C2205 1.367 . S
C2205 C2204 1.367 . S
C2205 C2207 1.433 . S
C2206 C2202 1.350 . S
C2206 C2203 1.463 . S
C2206 N2210 1.427 . S
C2207 H2197 0.929 . S
C2207 C2205 1.433 . S
C2207 N2210 1.384 . S
C2208 H2199 0.929 . S
C2208 C2200 1.378 . S
C2208 C2203 1.350 . S
C2209 H2196 0.929 . S
C2209 C2201 1.433 . S
C2209 N2211 1.384 . S
N2210 C2206 1.427 . S
N2210 C2207 1.384 . S
N2211 C2203 1.427 . S
N2211 C2209 1.384 . S
H2212 C2218 0.930 . S
H2213 C2222 0.930 . S
H2214 C2227 0.929 . S
H2215 C2225 0.929 . S
H2216 C2220 0.929 . S
H2217 C2226 0.929 . S
C2218 H2212 0.930 . S
C2218 C2219 1.367 . S
C2218 C2226 1.378 . S
C2219 C2218 1.367 . S
C2219 C2227 1.433 . S
C2220 H2216 0.929 . S
C2220 C2222 1.378 . S
C2220 C2224 1.350 . S
C2221 C2224 1.463 . S
C2221 C2226 1.350 . S
C2221 N2229 1.427 . S
C2222 H2213 0.930 . S
C2222 C2220 1.378 . S
C2222 C2223 1.367 . S
C2223 C2222 1.367 . S
C2223 C2225 1.433 . S
C2224 C2220 1.350 . S
C2224 C2221 1.463 . S
C2224 N2228 1.427 . S
C2225 H2215 0.929 . S
C2225 C2223 1.433 . S
C2225 N2228 1.384 . S
C2226 H2217 0.929 . S
C2226 C2218 1.378 . S
C2226 C2221 1.350 . S
C2227 H2214 0.929 . S
C2227 C2219 1.433 . S
C2227 N2229 1.384 . S
N2228 C2224 1.427 . S
N2228 C2225 1.384 . S
N2229 C2221 1.427 . S
N2229 C2227 1.384 . S
H2230 C2236 0.930 . S
H2231 C2240 0.930 . S
H2232 C2245 0.929 . S
H2233 C2243 0.929 . S
H2234 C2238 0.929 . S
H2235 C2244 0.929 . S
C2236 H2230 0.930 . S
C2236 C2237 1.367 . S
C2236 C2244 1.378 . S
C2237 C2236 1.367 . S
C2237 C2245 1.433 . S
C2238 H2234 0.929 . S
C2238 C2240 1.378 . S
C2238 C2242 1.350 . S
C2239 C2242 1.463 . S
C2239 C2244 1.350 . S
C2239 N2247 1.427 . S
C2240 H2231 0.930 . S
C2240 C2238 1.378 . S
C2240 C2241 1.367 . S
C2241 C2240 1.367 . S
C2241 C2243 1.433 . S
C2242 C2238 1.350 . S
C2242 C2239 1.463 . S
C2242 N2246 1.427 . S
C2243 H2233 0.929 . S
C2243 C2241 1.433 . S
C2243 N2246 1.384 . S
C2244 H2235 0.929 . S
C2244 C2236 1.378 . S
C2244 C2239 1.350 . S
C2245 H2232 0.929 . S
C2245 C2237 1.433 . S
C2245 N2247 1.384 . S
N2246 C2242 1.427 . S
N2246 C2243 1.384 . S
N2247 C2239 1.427 . S
N2247 C2245 1.384 . S
H2248 C2254 0.930 . S
H2249 C2258 0.930 . S
H2250 C2263 0.929 . S
H2251 C2261 0.929 . S
H2252 C2256 0.929 . S
H2253 C2262 0.929 . S
C2254 H2248 0.930 . S
C2254 C2255 1.367 . S
C2254 C2262 1.378 . S
C2255 C2254 1.367 . S
C2255 C2263 1.433 . S
C2256 H2252 0.929 . S
C2256 C2258 1.378 . S
C2256 C2260 1.350 . S
C2257 C2260 1.463 . S
C2257 C2262 1.350 . S
C2257 N2265 1.427 . S
C2258 H2249 0.930 . S
C2258 C2256 1.378 . S
C2258 C2259 1.367 . S
C2259 C2258 1.367 . S
C2259 C2261 1.433 . S
C2260 C2256 1.350 . S
C2260 C2257 1.463 . S
C2260 N2264 1.427 . S
C2261 H2251 0.929 . S
C2261 C2259 1.433 . S
C2261 N2264 1.384 . S
C2262 H2253 0.929 . S
C2262 C2254 1.378 . S
C2262 C2257 1.350 . S
C2263 H2250 0.929 . S
C2263 C2255 1.433 . S
C2263 N2265 1.384 . S
N2264 C2260 1.427 . S
N2264 C2261 1.384 . S
N2265 C2257 1.427 . S
N2265 C2263 1.384 . S
H2266 C2272 0.930 . S
H2267 C2276 0.930 . S
H2268 C2281 0.929 . S
H2269 C2279 0.929 . S
H2270 C2274 0.929 . S
H2271 C2280 0.929 . S
C2272 H2266 0.930 . S
C2272 C2273 1.367 . S
C2272 C2280 1.378 . S
C2273 C2272 1.367 . S
C2273 C2281 1.433 . S
C2274 H2270 0.929 . S
C2274 C2276 1.378 . S
C2274 C2278 1.350 . S
C2275 C2278 1.463 . S
C2275 C2280 1.350 . S
C2275 N2283 1.427 . S
C2276 H2267 0.930 . S
C2276 C2274 1.378 . S
C2276 C2277 1.367 . S
C2277 C2276 1.367 . S
C2277 C2279 1.433 . S
C2278 C2274 1.350 . S
C2278 C2275 1.463 . S
C2278 N2282 1.427 . S
C2279 H2269 0.929 . S
C2279 C2277 1.433 . S
C2279 N2282 1.384 . S
C2280 H2271 0.929 . S
C2280 C2272 1.378 . S
C2280 C2275 1.350 . S
C2281 H2268 0.929 . S
C2281 C2273 1.433 . S
C2281 N2283 1.384 . S
N2282 C2278 1.427 . S
N2282 C2279 1.384 . S
N2283 C2275 1.427 . S
N2283 C2281 1.384 . S
H2284 C2290 0.930 . S
H2285 C2294 0.930 . S
H2286 C2299 0.929 . S
H2287 C2297 0.929 . S
H2288 C2292 0.929 . S
H2289 C2298 0.929 . S
C2290 H2284 0.930 . S
C2290 C2291 1.367 . S
C2290 C2298 1.378 . S
C2291 C2290 1.367 . S
C2291 C2299 1.433 . S
C2292 H2288 0.929 . S
C2292 C2294 1.378 . S
C2292 C2296 1.350 . S
C2293 C2296 1.463 . S
C2293 C2298 1.350 . S
C2293 N2301 1.427 . S
C2294 H2285 0.930 . S
C2294 C2292 1.378 . S
C2294 C2295 1.367 . S
C2295 C2294 1.367 . S
C2295 C2297 1.433 . S
C2296 C2292 1.350 . S
C2296 C2293 1.463 . S
C2296 N2300 1.427 . S
C2297 H2287 0.929 . S
C2297 C2295 1.433 . S
C2297 N2300 1.384 . S
C2298 H2289 0.929 . S
C2298 C2290 1.378 . S
C2298 C2293 1.350 . S
C2299 H2286 0.929 . S
C2299 C2291 1.433 . S
C2299 N2301 1.384 . S
N2300 C2296 1.427 . S
N2300 C2297 1.384 . S
N2301 C2293 1.427 . S
N2301 C2299 1.384 . S
H2302 C2308 0.930 . S
H2303 C2312 0.930 . S
H2304 C2317 0.929 . S
H2305 C2315 0.929 . S
H2306 C2310 0.929 . S
H2307 C2316 0.929 . S
C2308 H2302 0.930 . S
C2308 C2309 1.367 . S
C2308 C2316 1.378 . S
C2309 C2308 1.367 . S
C2309 C2317 1.433 . S
C2310 H2306 0.929 . S
C2310 C2312 1.378 . S
C2310 C2314 1.350 . S
C2311 C2314 1.463 . S
C2311 C2316 1.350 . S
C2311 N2319 1.427 . S
C2312 H2303 0.930 . S
C2312 C2310 1.378 . S
C2312 C2313 1.367 . S
C2313 C2312 1.367 . S
C2313 C2315 1.433 . S
C2314 C2310 1.350 . S
C2314 C2311 1.463 . S
C2314 N2318 1.427 . S
C2315 H2305 0.929 . S
C2315 C2313 1.433 . S
C2315 N2318 1.384 . S
C2316 H2307 0.929 . S
C2316 C2308 1.378 . S
C2316 C2311 1.350 . S
C2317 H2304 0.929 . S
C2317 C2309 1.433 . S
C2317 N2319 1.384 . S
N2318 C2314 1.427 . S
N2318 C2315 1.384 . S
N2319 C2311 1.427 . S
N2319 C2317 1.384 . S
H2320 C2326 0.930 . S
H2321 C2330 0.930 . S
H2322 C2335 0.929 . S
H2323 C2333 0.929 . S
H2324 C2328 0.929 . S
H2325 C2334 0.929 . S
C2326 H2320 0.930 . S
C2326 C2327 1.367 . S
C2326 C2334 1.378 . S
C2327 C2326 1.367 . S
C2327 C2335 1.433 . S
C2328 H2324 0.929 . S
C2328 C2330 1.378 . S
C2328 C2332 1.350 . S
C2329 C2332 1.463 . S
C2329 C2334 1.350 . S
C2329 N2337 1.427 . S
C2330 H2321 0.930 . S
C2330 C2328 1.378 . S
C2330 C2331 1.367 . S
C2331 C2330 1.367 . S
C2331 C2333 1.433 . S
C2332 C2328 1.350 . S
C2332 C2329 1.463 . S
C2332 N2336 1.427 . S
C2333 H2323 0.929 . S
C2333 C2331 1.433 . S
C2333 N2336 1.384 . S
C2334 H2325 0.929 . S
C2334 C2326 1.378 . S
C2334 C2329 1.350 . S
C2335 H2322 0.929 . S
C2335 C2327 1.433 . S
C2335 N2337 1.384 . S
N2336 C2332 1.427 . S
N2336 C2333 1.384 . S
N2337 C2329 1.427 . S
N2337 C2335 1.384 . S
H2338 C2344 0.930 . S
H2339 C2348 0.930 . S
H2340 C2353 0.929 . S
H2341 C2351 0.929 . S
H2342 C2346 0.929 . S
H2343 C2352 0.929 . S
C2344 H2338 0.930 . S
C2344 C2345 1.367 . S
C2344 C2352 1.378 . S
C2345 C2344 1.367 . S
C2345 C2353 1.433 . S
C2346 H2342 0.929 . S
C2346 C2348 1.378 . S
C2346 C2350 1.350 . S
C2347 C2350 1.463 . S
C2347 C2352 1.350 . S
C2347 N2355 1.427 . S
C2348 H2339 0.930 . S
C2348 C2346 1.378 . S
C2348 C2349 1.367 . S
C2349 C2348 1.367 . S
C2349 C2351 1.433 . S
C2350 C2346 1.350 . S
C2350 C2347 1.463 . S
C2350 N2354 1.427 . S
C2351 H2341 0.929 . S
C2351 C2349 1.433 . S
C2351 N2354 1.384 . S
C2352 H2343 0.929 . S
C2352 C2344 1.378 . S
C2352 C2347 1.350 . S
C2353 H2340 0.929 . S
C2353 C2345 1.433 . S
C2353 N2355 1.384 . S
N2354 C2350 1.427 . S
N2354 C2351 1.384 . S
N2355 C2347 1.427 . S
N2355 C2353 1.384 . S
H2356 C2362 0.930 . S
H2357 C2366 0.930 . S
H2358 C2371 0.929 . S
H2359 C2369 0.929 . S
H2360 C2364 0.929 . S
H2361 C2370 0.929 . S
C2362 H2356 0.930 . S
C2362 C2363 1.367 . S
C2362 C2370 1.378 . S
C2363 C2362 1.367 . S
C2363 C2371 1.433 . S
C2364 H2360 0.929 . S
C2364 C2366 1.378 . S
C2364 C2368 1.350 . S
C2365 C2368 1.463 . S
C2365 C2370 1.350 . S
C2365 N2373 1.427 . S
C2366 H2357 0.930 . S
C2366 C2364 1.378 . S
C2366 C2367 1.367 . S
C2367 C2366 1.367 . S
C2367 C2369 1.433 . S
C2368 C2364 1.350 . S
C2368 C2365 1.463 . S
C2368 N2372 1.427 . S
C2369 H2359 0.929 . S
C2369 C2367 1.433 . S
C2369 N2372 1.384 . S
C2370 H2361 0.929 . S
C2370 C2362 1.378 . S
C2370 C2365 1.350 . S
C2371 H2358 0.929 . S
C2371 C2363 1.433 . S
C2371 N2373 1.384 . S
N2372 C2368 1.427 . S
N2372 C2369 1.384 . S
N2373 C2365 1.427 . S
N2373 C2371 1.384 . S
H2374 C2380 0.930 . S
H2375 C2384 0.930 . S
H2376 C2389 0.929 . S
H2377 C2387 0.929 . S
H2378 C2382 0.929 . S
H2379 C2388 0.929 . S
C2380 H2374 0.930 . S
C2380 C2381 1.367 . S
C2380 C2388 1.378 . S
C2381 C2380 1.367 . S
C2381 C2389 1.433 . S
C2382 H2378 0.929 . S
C2382 C2384 1.378 . S
C2382 C2386 1.350 . S
C2383 C2386 1.463 . S
C2383 C2388 1.350 . S
C2383 N2391 1.427 . S
C2384 H2375 0.930 . S
C2384 C2382 1.378 . S
C2384 C2385 1.367 . S
C2385 C2384 1.367 . S
C2385 C2387 1.433 . S
C2386 C2382 1.350 . S
C2386 C2383 1.463 . S
C2386 N2390 1.427 . S
C2387 H2377 0.929 . S
C2387 C2385 1.433 . S
C2387 N2390 1.384 . S
C2388 H2379 0.929 . S
C2388 C2380 1.378 . S
C2388 C2383 1.350 . S
C2389 H2376 0.929 . S
C2389 C2381 1.433 . S
C2389 N2391 1.384 . S
N2390 C2386 1.427 . S
N2390 C2387 1.384 . S
N2391 C2383 1.427 . S
N2391 C2389 1.384 . S
H2392 C2398 0.930 . S
H2393 C2402 0.930 . S
H2394 C2407 0.929 . S
H2395 C2405 0.929 . S
H2396 C2400 0.929 . S
H2397 C2406 0.929 . S
C2398 H2392 0.930 . S
C2398 C2399 1.367 . S
C2398 C2406 1.378 . S
C2399 C2398 1.367 . S
C2399 C2407 1.433 . S
C2400 H2396 0.929 . S
C2400 C2402 1.378 . S
C2400 C2404 1.350 . S
C2401 C2404 1.463 . S
C2401 C2406 1.350 . S
C2401 N2409 1.427 . S
C2402 H2393 0.930 . S
C2402 C2400 1.378 . S
C2402 C2403 1.367 . S
C2403 C2402 1.367 . S
C2403 C2405 1.433 . S
C2404 C2400 1.350 . S
C2404 C2401 1.463 . S
C2404 N2408 1.427 . S
C2405 H2395 0.929 . S
C2405 C2403 1.433 . S
C2405 N2408 1.384 . S
C2406 H2397 0.929 . S
C2406 C2398 1.378 . S
C2406 C2401 1.350 . S
C2407 H2394 0.929 . S
C2407 C2399 1.433 . S
C2407 N2409 1.384 . S
N2408 C2404 1.427 . S
N2408 C2405 1.384 . S
N2409 C2401 1.427 . S
N2409 C2407 1.384 . S
H2410 C2416 0.930 . S
H2411 C2420 0.930 . S
H2412 C2425 0.929 . S
H2413 C2423 0.929 . S
H2414 C2418 0.929 . S
H2415 C2424 0.929 . S
C2416 H2410 0.930 . S
C2416 C2417 1.367 . S
C2416 C2424 1.378 . S
C2417 C2416 1.367 . S
C2417 C2425 1.433 . S
C2418 H2414 0.929 . S
C2418 C2420 1.378 . S
C2418 C2422 1.350 . S
C2419 C2422 1.463 . S
C2419 C2424 1.350 . S
C2419 N2427 1.427 . S
C2420 H2411 0.930 . S
C2420 C2418 1.378 . S
C2420 C2421 1.367 . S
C2421 C2420 1.367 . S
C2421 C2423 1.433 . S
C2422 C2418 1.350 . S
C2422 C2419 1.463 . S
C2422 N2426 1.427 . S
C2423 H2413 0.929 . S
C2423 C2421 1.433 . S
C2423 N2426 1.384 . S
C2424 H2415 0.929 . S
C2424 C2416 1.378 . S
C2424 C2419 1.350 . S
C2425 H2412 0.929 . S
C2425 C2417 1.433 . S
C2425 N2427 1.384 . S
N2426 C2422 1.427 . S
N2426 C2423 1.384 . S
N2427 C2419 1.427 . S
N2427 C2425 1.384 . S
H2428 C2434 0.930 . S
H2429 C2438 0.930 . S
H2430 C2443 0.929 . S
H2431 C2441 0.929 . S
H2432 C2436 0.929 . S
H2433 C2442 0.929 . S
C2434 H2428 0.930 . S
C2434 C2435 1.367 . S
C2434 C2442 1.378 . S
C2435 C2434 1.367 . S
C2435 C2443 1.433 . S
C2436 H2432 0.929 . S
C2436 C2438 1.378 . S
C2436 C2440 1.350 . S
C2437 C2440 1.463 . S
C2437 C2442 1.350 . S
C2437 N2445 1.427 . S
C2438 H2429 0.930 . S
C2438 C2436 1.378 . S
C2438 C2439 1.367 . S
C2439 C2438 1.367 . S
C2439 C2441 1.433 . S
C2440 C2436 1.350 . S
C2440 C2437 1.463 . S
C2440 N2444 1.427 . S
C2441 H2431 0.929 . S
C2441 C2439 1.433 . S
C2441 N2444 1.384 . S
C2442 H2433 0.929 . S
C2442 C2434 1.378 . S
C2442 C2437 1.350 . S
C2443 H2430 0.929 . S
C2443 C2435 1.433 . S
C2443 N2445 1.384 . S
N2444 C2440 1.427 . S
N2444 C2441 1.384 . S
N2445 C2437 1.427 . S
N2445 C2443 1.384 . S
H2446 C2452 0.930 . S
H2447 C2456 0.930 . S
H2448 C2461 0.929 . S
H2449 C2459 0.929 . S
H2450 C2454 0.929 . S
H2451 C2460 0.929 . S
C2452 H2446 0.930 . S
C2452 C2453 1.367 . S
C2452 C2460 1.378 . S
C2453 C2452 1.367 . S
C2453 C2461 1.433 . S
C2454 H2450 0.929 . S
C2454 C2456 1.378 . S
C2454 C2458 1.350 . S
C2455 C2458 1.463 . S
C2455 C2460 1.350 . S
C2455 N2463 1.427 . S
C2456 H2447 0.930 . S
C2456 C2454 1.378 . S
C2456 C2457 1.367 . S
C2457 C2456 1.367 . S
C2457 C2459 1.433 . S
C2458 C2454 1.350 . S
C2458 C2455 1.463 . S
C2458 N2462 1.427 . S
C2459 H2449 0.929 . S
C2459 C2457 1.433 . S
C2459 N2462 1.384 . S
C2460 H2451 0.929 . S
C2460 C2452 1.378 . S
C2460 C2455 1.350 . S
C2461 H2448 0.929 . S
C2461 C2453 1.433 . S
C2461 N2463 1.384 . S
N2462 C2458 1.427 . S
N2462 C2459 1.384 . S
N2463 C2455 1.427 . S
N2463 C2461 1.384 . S
C743 C19 1.679 . S
C747 C87 1.808 . S
C761 C21 1.801 . S
C765 C42 1.645 . S
C779 C66 1.626 . S
C783 C44 1.768 . S
C797 C64 1.793 . S
C801 C89 1.671 . S
C815 C136 1.803 . S
C819 C111 1.665 . S
C833 C134 1.685 . S
C837 C157 1.803 . S
C851 C182 1.789 . S
C855 C159 1.698 . S
C869 C113 1.790 . S
C873 C180 1.638 . S
C887 C203 1.656 . S
C891 C274 1.798 . S
C905 C226 1.654 . S
C909 C205 1.804 . S
C923 C249 1.649 . S
C927 C228 1.788 . S
C941 C272 1.634 . S
C945 C251 1.787 . S
C959 C295 1.661 . S
C963 C320 1.795 . S
C977 C318 1.639 . S
C981 C343 1.784 . S
C995 C366 1.787 . S
C999 C341 1.647 . S
C1013 C297 1.789 . S
C1017 C364 1.647 . S
C1031 C387 1.662 . S
C1035 C455 1.812 . S
C1049 C389 1.798 . S
C1053 C410 1.657 . S
C1067 C412 1.770 . S
C1071 C434 1.634 . S
C1085 C457 1.672 . S
C1089 C432 1.793 . S
C1103 C479 1.650 . S
C1107 C504 1.804 . S
C1121 C525 1.805 . S
C1125 C502 1.691 . S
C1139 C527 1.689 . S
C1143 C550 1.787 . S
C1157 C481 1.788 . S
C1161 C548 1.653 . S
C1175 C642 1.799 . S
C1179 C571 1.664 . S
C1193 C573 1.803 . S
C1197 C594 1.660 . S
C1211 C617 1.638 . S
C1215 C596 1.786 . S
C1229 C619 1.787 . S
C1233 C640 1.635 . S
C1247 C688 1.796 . S
C1251 C663 1.659 . S
C1265 C711 1.787 . S
C1269 C686 1.637 . S
C1283 C734 1.790 . S
C1287 C709 1.652 . S
C1301 C732 1.648 . S
C1305 C665 1.789 . S
C1319 C641 1.352 . S
C1323 C17 1.367 . S
C1337 C40 1.372 . S
C1341 C204 1.357 . S
C1355 C63 1.356 . S
C1359 C595 1.327 . S
C1373 C86 1.348 . S
C1377 C250 1.329 . S
C1391 C109 1.380 . S
C1395 C687 1.372 . S
C1409 C342 1.339 . S
C1413 C132 1.353 . S
C1427 C733 1.373 . S
C1431 C154 1.399 . S
C1445 C178 1.362 . S
C1449 C296 1.353 . S
C1463 C201 1.397 . S
C1467 C456 1.368 . S
C1481 C20 1.343 . S
C1485 C224 1.355 . S
C1499 C411 1.347 . S
C1503 C247 1.354 . S
C1517 C65 1.400 . S
C1521 C270 1.429 . S
C1535 C503 1.368 . S
C1539 C293 1.379 . S
C1553 C156 1.346 . S
C1557 C316 1.394 . S
C1571 C339 1.358 . S
C1575 C549 1.352 . S
C1589 C362 1.361 . S
C1593 C112 1.354 . S
C1607 C385 1.358 . S
C1611 C273 1.348 . S
C1625 C408 1.369 . S
C1629 C572 1.363 . S
C1643 C431 1.354 . S
C1647 C227 1.329 . S
C1661 C454 1.349 . S
C1665 C618 1.333 . S
C1679 C477 1.370 . S
C1683 C319 1.364 . S
C1697 C500 1.357 . S
C1701 C710 1.352 . S
C1715 C365 1.368 . S
C1719 C522 1.392 . S
C1733 C546 1.373 . S
C1737 C664 1.364 . S
C1751 C88 1.382 . S
C1755 C569 1.405 . S
C1769 C388 1.332 . S
C1773 C592 1.346 . S
C1787 C43 1.357 . S
C1791 C615 1.365 . S
C1805 C433 1.408 . S
C1809 C638 1.430 . S
C1823 C135 1.356 . S
C1827 C661 1.369 . S
C1841 C684 1.405 . S
C1845 C524 1.364 . S
C1859 C707 1.360 . S
C1863 C181 1.347 . S
C1877 C480 1.355 . S
C1881 C730 1.361 . S
C1895 C16 0.138 . S
C1899 C108 0.160 . S
C1913 C39 0.143 . S
C1917 C131 0.172 . S
C1931 C62 0.134 . S
C1935 C155 0.134 . S
C1949 C177 0.137 . S
C1953 C85 0.143 . S
C1967 C292 0.159 . S
C1971 C200 0.135 . S
C1985 C315 0.144 . S
C1989 C223 0.167 . S
C2003 C246 0.179 . S
C2007 C338 0.193 . S
C2021 C269 0.150 . S
C2025 C361 0.158 . S
C2039 C384 0.171 . S
C2043 C476 0.139 . S
C2057 C499 0.152 . S
C2061 C407 0.176 . S
C2075 C523 0.139 . S
C2079 C430 0.128 . S
C2093 C545 0.154 . S
C2097 C453 0.134 . S
C2111 C660 0.162 . S
C2115 C568 0.135 . S
C2129 C591 0.138 . S
C2133 C683 0.165 . S
C2147 C706 0.187 . S
C2151 C614 0.188 . S
C2165 C637 0.187 . S
C2169 C729 0.163 . S
C2183 C179 1.049 . S
C2187 C18 1.046 . S
C2201 C41 1.059 . S
C2205 C110 1.056 . S
C2219 C67 1.034 . S
C2223 C133 1.040 . S
C2237 C158 0.958 . S
C2241 C90 0.980 . S
C2255 C202 1.053 . S
C2259 C363 1.050 . S
C2273 C294 1.062 . S
C2277 C225 1.065 . S
C2291 C317 1.062 . S
C2295 C248 1.060 . S
C2309 C271 1.044 . S
C2313 C340 1.045 . S
C2327 C386 1.048 . S
C2331 C547 1.046 . S
C2345 C478 1.059 . S
C2349 C409 1.058 . S
C2363 C501 1.040 . S
C2367 C435 1.038 . S
C2381 C526 0.959 . S
C2385 C458 0.980 . S
C2399 C570 1.050 . S
C2403 C731 1.053 . S
C2417 C662 1.063 . S
C2421 C593 1.066 . S
C2435 C616 1.058 . S
C2439 C685 1.061 . S
C2453 C708 1.042 . S
C2457 C639 1.043 . S
