# Generated by pormake.
# Topology wli, (5)-cn, num edge types: 1
# Building blocks:
#     Node 0, Type 0, BuildingBlock: XOMCOT_clean_sbu_0, # of connection points: 5
#     Node 1, Type 0, BuildingBlock: XOMCOT_clean_sbu_0, # of connection points: 5
#     Node 2, Type 0, BuildingBlock: XOMCOT_clean_sbu_0, # of connection points: 5
#     Node 3, Type 0, BuildingBlock: XOMCOT_clean_sbu_0, # of connection points: 5
#     Node 4, Type 0, BuildingBlock: XOMCOT_clean_sbu_0, # of connection points: 5
#     Node 5, Type 0, BuildingBlock: XOMCOT_clean_sbu_0, # of connection points: 5
#     Edge 6, Type (0, 0), BuildingBlock: AJUNOK_clean_linker_0, # of connection points: 2
#     Edge 7, Type (0, 0), BuildingBlock: AJUNOK_clean_linker_0, # of connection points: 2
#     Edge 8, Type (0, 0), BuildingBlock: AJUNOK_clean_linker_0, # of connection points: 2
#     Edge 9, Type (0, 0), BuildingBlock: AJUNOK_clean_linker_0, # of connection points: 2
#     Edge 10, Type (0, 0), BuildingBlock: AJUNOK_clean_linker_0, # of connection points: 2
#     Edge 11, Type (0, 0), BuildingBlock: AJUNOK_clean_linker_0, # of connection points: 2
#     Edge 12, Type (0, 0), BuildingBlock: AJUNOK_clean_linker_0, # of connection points: 2
#     Edge 13, Type (0, 0), BuildingBlock: AJUNOK_clean_linker_0, # of connection points: 2
#     Edge 14, Type (0, 0), BuildingBlock: AJUNOK_clean_linker_0, # of connection points: 2
#     Edge 15, Type (0, 0), BuildingBlock: AJUNOK_clean_linker_0, # of connection points: 2
#     Edge 16, Type (0, 0), BuildingBlock: AJUNOK_clean_linker_0, # of connection points: 2
#     Edge 17, Type (0, 0), BuildingBlock: AJUNOK_clean_linker_0, # of connection points: 2
#     Edge 18, Type (0, 0), BuildingBlock: AJUNOK_clean_linker_0, # of connection points: 2
#     Edge 19, Type (0, 0), BuildingBlock: AJUNOK_clean_linker_0, # of connection points: 2
#     Edge 20, Type (0, 0), BuildingBlock: AJUNOK_clean_linker_0, # of connection points: 2
# Relax obj value: 0.136
# Max RMSD: 0.158
# Mean RMSD: 0.158
data_MOF--net-wli--node1-XOMCOT_clean_sbu_0--edge1-AJUNOK_clean_linker_0
_symmetry_space_group_name_H-M    P1
_symmetry_Int_Tables_number       1
_symmetry_cell_setting            triclinic
loop_
_symmetry_equiv_pos_as_xyz
'x, y, z'
_cell_length_a     27.171452
_cell_length_b     27.150252
_cell_length_c     20.736535
_cell_angle_alpha  89.808565
_cell_angle_beta   90.042969
_cell_angle_gamma 120.18618
loop_
_atom_site_label
_atom_site_type_symbol
_atom_site_fract_x
_atom_site_fract_y
_atom_site_fract_z
_atom_type_partial_charge
Co0 Co 0.25353 0.45807 0.12497 0.0
C1 C 0.15815 0.37913 0.21047 0.0
C2 C 0.23426 0.37689 0.23076 0.0
C3 C 0.19344 0.34347 0.27571 0.0
N4 N 0.21168 0.39809 0.18855 0.0
N5 N 0.14593 0.34556 0.26309 0.0
H6 H 0.12945 0.39187 0.19105 0.0
H7 H 0.27818 0.38703 0.23063 0.0
C8 C 0.28437 0.3696 0.09398 0.0
O9 O 0.23034 0.33287 0.10471 0.0
N10 N 0.29393 0.5193 0.0638 0.0
C11 C 0.26969 0.54438 0.03069 0.0
C12 C 0.31094 0.58933 0.99621 0.0
C13 C 0.34994 0.54949 0.04922 0.0
N14 N 0.36131 0.59266 0.00777 0.0
C15 C 0.14727 0.41311 0.05743 0.0
C16 C 0.18011 0.37772 0.94935 0.0
C17 C 0.12742 0.37531 0.94876 0.0
C18 C 0.11115 0.39323 1.00413 0.0
C19 C 0.21636 0.40145 1.00178 0.0
N20 N 0.19903 0.41632 0.0566 0.0
H21 H 0.13511 0.43013 0.09716 0.0
H22 H 0.25942 0.41029 0.99607 0.0
H23 H 0.22506 0.53154 0.03253 0.0
H24 H 0.38166 0.54117 0.06984 0.0
O25 O 0.21835 0.49887 0.15938 0.0
O26 O 0.29934 0.50794 0.19453 0.0
O27 O 0.30251 0.42313 0.10005 0.0
C28 C 0.26079 0.52296 0.19914 0.0
H29 H 0.19924 0.32208 0.31668 0.0
H30 H 0.30444 0.61747 0.96476 0.0
H31 H 0.19456 0.36315 0.90903 0.0
H32 H 0.07184 0.39424 1.00561 0.0
Co33 Co 0.62148 0.81288 0.78776 0.0
C34 C 0.70334 0.79866 0.87104 0.0
C35 C 0.69874 0.87271 0.89591 0.0
C36 C 0.73283 0.86618 0.94031 0.0
N37 N 0.68108 0.83103 0.85147 0.0
N38 N 0.73581 0.81961 0.92454 0.0
H39 H 0.69249 0.75817 0.85029 0.0
H40 H 0.68579 0.90441 0.89739 0.0
C41 C 0.71049 0.93214 0.7563 0.0
O42 O 0.74634 0.91455 0.77021 0.0
N43 N 0.56036 0.79228 0.72675 0.0
C44 C 0.53636 0.74381 0.69206 0.0
C45 C 0.48974 0.73867 0.66034 0.0
C46 C 0.5278 0.81613 0.71584 0.0
N47 N 0.48397 0.78366 0.67573 0.0
C48 C 0.66721 0.75253 0.71958 0.0
C49 C 0.70313 0.82247 0.61224 0.0
C50 C 0.70627 0.77259 0.6112 0.0
C51 C 0.68806 0.73748 0.66619 0.0
C52 C 0.67834 0.83363 0.66451 0.0
N53 N 0.66347 0.80083 0.71915 0.0
H54 H 0.64998 0.72272 0.75904 0.0
H55 H 0.6687 0.86729 0.65877 0.0
H56 H 0.55085 0.71333 0.69127 0.0
H57 H 0.53482 0.8551 0.73824 0.0
O58 O 0.58066 0.73648 0.82196 0.0
O59 O 0.57146 0.80824 0.8573 0.0
O60 O 0.65684 0.89715 0.76281 0.0
C61 C 0.55644 0.75452 0.86177 0.0
H62 H 0.75249 0.89268 0.98213 0.0
H63 H 0.46211 0.70442 0.62825 0.0
H64 H 0.71791 0.85224 0.57236 0.0
H65 H 0.68762 0.69739 0.66729 0.0
Co66 Co 0.2669 0.82629 0.45758 0.0
C67 C 0.28073 0.92077 0.54277 0.0
C68 C 0.2006 0.84489 0.55808 0.0
C69 C 0.20648 0.88501 0.60294 0.0
N70 N 0.24668 0.86775 0.51909 0.0
N71 N 0.25728 0.9325 0.59357 0.0
H72 H 0.32302 0.94955 0.52586 0.0
H73 H 0.16611 0.8012 0.55582 0.0
C74 C 0.15198 0.8 0.41435 0.0
O75 O 0.17096 0.85402 0.42703 0.0
N76 N 0.28932 0.78581 0.39903 0.0
C77 C 0.3397 0.80981 0.36798 0.0
C78 C 0.34352 0.76843 0.33446 0.0
C79 C 0.26303 0.72982 0.38431 0.0
N80 N 0.29549 0.71817 0.34463 0.0
C81 C 0.32935 0.93534 0.39379 0.0
C82 C 0.27062 0.90056 0.27856 0.0
C83 C 0.3152 0.9564 0.28484 0.0
C84 C 0.34531 0.97389 0.34269 0.0
C85 C 0.25648 0.86337 0.33055 0.0
N86 N 0.28347 0.8816 0.38876 0.0
H87 H 0.35667 0.9477 0.43523 0.0
H88 H 0.22562 0.81909 0.32254 0.0
H89 H 0.37185 0.85444 0.37024 0.0
H90 H 0.22203 0.69834 0.40352 0.0
O91 O 0.34144 0.86042 0.49614 0.0
O92 O 0.26708 0.77926 0.52824 0.0
O93 O 0.18401 0.77898 0.42709 0.0
C94 C 0.3209 0.81709 0.53513 0.0
H95 H 0.1771 0.8787 0.64162 0.0
H96 H 0.37884 0.77484 0.30439 0.0
H97 H 0.24875 0.88512 0.23296 0.0
H98 H 0.38228 1.01609 0.34732 0.0
Co99 Co 0.47149 0.23664 0.8909 0.0
C100 C 0.39445 0.14606 0.80004 0.0
C101 C 0.3789 0.21576 0.79839 0.0
C102 C 0.34527 0.1768 0.752 0.0
N103 N 0.4085 0.19555 0.83031 0.0
N104 N 0.3557 0.13327 0.75284 0.0
H105 H 0.41435 0.1211 0.80939 0.0
H106 H 0.38308 0.25704 0.80627 0.0
C107 C 0.38497 0.26284 0.94217 0.0
O108 O 0.34871 0.20861 0.93187 0.0
N109 N 0.53574 0.27658 0.9482 0.0
C110 C 0.56252 0.25239 0.97781 0.0
C111 C 0.60815 0.29351 0.01138 0.0
C112 C 0.56571 0.33237 0.96358 0.0
N113 N 0.61024 0.34375 1.00258 0.0
C114 C 0.41937 0.1254 0.95112 0.0
C115 C 0.4075 0.16186 0.07137 0.0
C116 C 0.39077 0.10461 0.06256 0.0
C117 C 0.39674 0.08628 1.00166 0.0
C118 C 0.42991 0.19944 0.01961 0.0
N119 N 0.43347 0.18081 0.95945 0.0
H120 H 0.42855 0.11145 0.90685 0.0
H121 H 0.44637 0.24416 0.02874 0.0
H122 H 0.54975 0.20777 0.97487 0.0
H123 H 0.55589 0.36386 0.94547 0.0
O124 O 0.51119 0.2029 0.85041 0.0
O125 O 0.51773 0.28429 0.82012 0.0
O126 O 0.43703 0.28384 0.92439 0.0
C127 C 0.53373 0.24673 0.81204 0.0
H128 H 0.3175 0.18145 0.71818 0.0
H129 H 0.63724 0.28684 0.04082 0.0
H130 H 0.40543 0.1779 0.11846 0.0
H131 H 0.38552 0.04244 0.99361 0.0
Co132 Co 0.83906 0.25537 0.55915 0.0
C133 C 0.93231 0.27082 0.47071 0.0
C134 C 0.85502 0.19245 0.4529 0.0
C135 C 0.89476 0.19874 0.40726 0.0
N136 N 0.879 0.23698 0.4939 0.0
N137 N 0.94308 0.24835 0.41829 0.0
H138 H 0.9622 0.31212 0.48964 0.0
H139 H 0.81103 0.1586 0.45481 0.0
C140 C 0.81262 0.13821 0.59574 0.0
O141 O 0.86566 0.15596 0.57927 0.0
N142 N 0.7999 0.27596 0.62166 0.0
C143 C 0.82454 0.32479 0.65569 0.0
C144 C 0.78303 0.32972 0.68756 0.0
C145 C 0.74347 0.25178 0.63298 0.0
N146 N 0.73214 0.28426 0.67277 0.0
C147 C 0.94845 0.32038 0.62017 0.0
C148 C 0.92219 0.25363 0.72959 0.0
C149 C 0.97588 0.30291 0.72533 0.0
C150 C 0.9881 0.33723 0.6701 0.0
C151 C 0.88261 0.24064 0.68064 0.0
N152 N 0.89695 0.27139 0.62451 0.0
H153 H 0.95786 0.34931 0.58034 0.0
H154 H 0.83961 0.2072 0.68995 0.0
H155 H 0.86955 0.35573 0.65569 0.0
H156 H 0.7114 0.21263 0.6108 0.0
O157 O 0.87133 0.33061 0.52226 0.0
O158 O 0.78926 0.25592 0.49235 0.0
O159 O 0.79272 0.17188 0.58801 0.0
C160 C 0.82666 0.30987 0.48572 0.0
H161 H 0.88789 0.17046 0.36727 0.0
H162 H 0.78972 0.36417 0.71923 0.0
H163 H 0.90958 0.22611 0.77155 0.0
H164 H 1.02663 0.37822 0.66626 0.0
Co165 Co 0.82673 0.60687 0.22184 0.0
C166 C 0.8167 0.68708 0.13148 0.0
C167 C 0.88989 0.67954 0.11115 0.0
C168 C 0.88468 0.71208 0.06333 0.0
N169 N 0.84778 0.66456 0.15468 0.0
N170 N 0.83827 0.71631 0.07595 0.0
H171 H 0.77686 0.67916 0.15162 0.0
H172 H 0.92104 0.66589 0.11279 0.0
C173 C 0.9458 0.69525 0.25443 0.0
O174 O 0.92966 0.73135 0.23615 0.0
N175 N 0.8029 0.54765 0.28635 0.0
C176 C 0.75169 0.52309 0.31547 0.0
C177 C 0.74575 0.47888 0.35301 0.0
C178 C 0.8277 0.51792 0.30657 0.0
N179 N 0.79336 0.4753 0.34769 0.0
C180 C 0.76489 0.65478 0.28122 0.0
C181 C 0.83175 0.69531 0.39017 0.0
C182 C 0.78244 0.69938 0.38633 0.0
C183 C 0.74828 0.67758 0.33116 0.0
C184 C 0.84458 0.6687 0.34119 0.0
N185 N 0.8134 0.65169 0.28554 0.0
H186 H 0.73596 0.63551 0.24148 0.0
H187 H 0.87791 0.65921 0.35052 0.0
H188 H 0.71991 0.53539 0.3083 0.0
H189 H 0.86966 0.52745 0.29143 0.0
O190 O 0.75159 0.56621 0.18504 0.0
O191 O 0.82301 0.55393 0.15632 0.0
O192 O 0.91003 0.64159 0.25031 0.0
C193 C 0.76982 0.53989 0.14888 0.0
H194 H 0.91236 0.73022 0.02194 0.0
H195 H 0.70827 0.4504 0.38072 0.0
H196 H 0.8592 0.71017 0.43204 0.0
H197 H 0.70738 0.67506 0.32748 0.0
C198 C 0.32746 0.65246 0.30799 0.0
C199 C 0.28322 0.66458 0.31673 0.0
C200 C 0.31915 0.60496 0.27259 0.0
C201 C 0.26632 0.56796 0.24398 0.0
H202 H 0.3694 0.68088 0.32736 0.0
H203 H 0.35508 0.59865 0.26541 0.0
S204 S 0.13516 0.57792 0.25726 0.0
N205 N 0.18373 0.63369 0.29746 0.0
N206 N 0.16759 0.54413 0.23122 0.0
C207 C 0.22083 0.57793 0.25514 0.0
C208 C 0.22934 0.62623 0.29153 0.0
C209 C 0.47435 0.73027 0.93524 0.0
C210 C 0.51135 0.71464 0.90662 0.0
C211 C 0.42687 0.69077 0.97085 0.0
C212 C 0.41487 0.63435 0.97983 0.0
H213 H 0.48066 0.77258 0.92792 0.0
H214 H 0.39834 0.70401 0.99016 0.0
S215 S 0.50121 0.57324 0.92017 0.0
N216 N 0.53506 0.63974 0.89383 0.0
N217 N 0.44554 0.56578 0.96065 0.0
C218 C 0.4531 0.61898 0.95456 0.0
C219 C 0.50135 0.65905 0.91787 0.0
C220 C 0.41534 0.85515 0.58966 0.0
C221 C 0.35902 0.80996 0.58074 0.0
C222 C 0.45531 0.84748 0.62457 0.0
C223 C 0.44053 0.79425 0.65127 0.0
H224 H 0.42939 0.89631 0.56751 0.0
H225 H 0.49881 0.88239 0.62755 0.0
S226 S 0.29737 0.66459 0.64998 0.0
N227 N 0.28943 0.71177 0.60767 0.0
N228 N 0.36464 0.69758 0.67304 0.0
C229 C 0.38365 0.74987 0.64637 0.0
C230 C 0.34284 0.75768 0.61125 0.0
C231 C 0.59079 0.21034 0.75659 0.0
C232 C 0.57931 0.25502 0.7664 0.0
C233 C 0.63909 0.21915 0.72233 0.0
C234 C 0.67787 0.27302 0.69718 0.0
H235 H 0.56346 0.16869 0.77763 0.0
H236 H 0.64787 0.18451 0.71863 0.0
S237 S 0.66343 0.40174 0.70066 0.0
N238 N 0.6078 0.35347 0.74164 0.0
N239 N 0.69842 0.36975 0.67729 0.0
C240 C 0.665 0.31695 0.70276 0.0
C241 C 0.61569 0.30799 0.73727 0.0
C242 C 0.77543 0.41044 0.43975 0.0
C243 C 0.80295 0.43369 0.38039 0.0
C244 C 0.78151 0.36844 0.47189 0.0
C245 C 0.81577 0.34833 0.44637 0.0
H246 H 0.74954 0.42542 0.46238 0.0
H247 H 0.76047 0.35268 0.51798 0.0
S248 S 0.89699 0.39339 0.29346 0.0
N249 N 0.86508 0.4315 0.2971 0.0
N250 N 0.87812 0.35397 0.35962 0.0
C251 C 0.84401 0.37095 0.38779 0.0
C252 C 0.83729 0.41336 0.35429 0.0
C253 C 0.70766 0.40931 0.04153 0.0
C254 C 0.65127 0.397 0.03167 0.0
C255 C 0.74659 0.45697 0.07714 0.0
C256 C 0.73052 0.49402 0.10463 0.0
H257 H 0.72145 0.38108 0.02267 0.0
H258 H 0.78891 0.46358 0.08501 0.0
S259 S 0.58897 0.48305 0.08912 0.0
N260 N 0.58219 0.42728 0.04964 0.0
N261 N 0.65518 0.51729 0.11572 0.0
C262 C 0.67495 0.48364 0.09265 0.0
C263 C 0.6354 0.43511 0.05628 0.0
C264 C 0.99471 0.30938 0.84437 0.0
C265 C 1.01613 0.32058 0.78085 0.0
C266 C 1.0309 0.32587 0.89768 0.0
C267 C 0.09041 0.35648 0.89038 0.0
H268 H 0.9494 0.28832 0.85364 0.0
H269 H 1.0117 0.31455 0.94514 0.0
S270 S 0.16898 0.39849 0.73443 0.0
N271 N 0.10128 0.36196 0.71375 0.0
N272 N 0.16936 0.39996 0.81393 0.0
C273 C 0.11271 0.36914 0.82713 0.0
C274 C 0.07566 0.34981 0.77257 0.0
C275 C 0.77491 0.70958 0.50566 0.0
C276 C 0.76429 0.72088 0.44232 0.0
C277 C 0.75722 0.7276 0.55935 0.0
C278 C 0.72607 0.75585 0.55255 0.0
H279 H 0.79633 0.6857 0.51443 0.0
H280 H 0.76804 0.71893 0.60668 0.0
S281 S 0.68546 0.79483 0.39721 0.0
N282 N 0.72308 0.76516 0.37604 0.0
N283 N 0.68276 0.79181 0.47664 0.0
C284 C 0.71407 0.76657 0.48945 0.0
C285 C 0.73462 0.75064 0.4346 0.0
C286 C 0.32669 0.06104 0.15738 0.0
C287 C 0.37095 0.06539 0.11814 0.0
C288 C 0.30854 1.02543 0.21168 0.0
C289 C 0.3347 0.99394 0.2284 0.0
H290 H 0.3059 0.08512 0.1458 0.0
H291 H 0.27414 1.02261 0.24084 0.0
S292 S 0.45304 0.99155 0.14318 0.0
N293 N 0.44108 0.03607 0.10074 0.0
N294 N 0.40657 0.96901 0.20301 0.0
C295 C 0.37891 0.99795 0.18999 0.0
C296 C 0.39717 0.03378 0.13463 0.0
C297 C 0.38238 0.35157 0.97578 0.0
C298 C 0.3671 0.29428 0.98638 0.0
C299 C 0.35866 0.37788 0.01358 0.0
C300 C 0.31941 0.34781 0.06349 0.0
H301 H 0.41042 0.37516 0.93614 0.0
H302 H 0.36869 0.42076 1.00135 0.0
S303 S 0.27461 0.20096 0.11852 0.0
N304 N 0.31633 0.21141 0.05603 0.0
N305 N 0.27298 0.26056 0.12664 0.0
C306 C 0.30761 0.29221 0.07736 0.0
C307 C 0.3311 0.26554 0.03896 0.0
C308 C 0.81663 0.06819 0.6703 0.0
C309 C 0.78313 0.08644 0.63772 0.0
C310 C 0.79245 1.02026 0.71044 0.0
C311 C 0.73317 0.98704 0.71978 0.0
H312 H 0.86254 0.09127 0.66519 0.0
H313 H 0.82107 1.00866 0.73331 0.0
S314 S 0.6258 1.01751 0.64821 0.0
N315 N 0.68724 0.06907 0.62003 0.0
N316 N 0.64119 0.97736 0.69445 0.0
C317 C 0.69879 1.00535 0.68886 0.0
C318 C 0.72384 0.05527 0.64821 0.0
C319 C 0.08047 0.80242 0.34115 0.0
C320 C 0.09991 0.76957 0.3731 0.0
C321 C 1.03245 0.77772 0.30151 0.0
C322 C 1.00019 0.71841 0.29189 0.0
H323 H 0.10266 0.84832 0.34632 0.0
H324 H 1.02013 0.80601 0.27915 0.0
S325 S 1.03363 0.61239 0.36174 0.0
N326 N 0.08441 0.6741 0.38998 0.0
N327 N 0.99255 0.62705 0.31634 0.0
C328 C 1.01945 0.68459 0.32236 0.0
C329 C 0.06951 0.71022 0.36259 0.0
C330 C 1.0175 0.24044 0.35844 0.0
C331 C 0.99415 0.27361 0.37945 0.0
C332 C 0.06751 0.26436 0.32108 0.0
C333 C 0.09503 0.32189 0.30198 0.0
H334 H 0.99732 0.19588 0.37185 0.0
H335 H 0.08444 0.2376 0.3062 0.0
S336 S 0.051 0.42686 0.34363 0.0
N337 N 1.00251 0.36704 0.37819 0.0
N338 N 0.09575 0.41158 0.30732 0.0
C339 C 0.07193 0.3554 0.32224 0.0
C340 C 1.02171 0.33138 0.36119 0.0
C341 C 0.76369 0.79664 0.02935 0.0
C342 C 0.76257 0.79408 0.96147 0.0
C343 C 0.78844 0.77121 0.06618 0.0
C344 C 0.81377 0.74276 0.03675 0.0
H345 H 0.74439 0.81762 0.05434 0.0
H346 H 0.78813 0.77415 0.11823 0.0
S347 S 0.82212 0.72378 0.86063 0.0
N348 N 0.78954 0.76108 0.86635 0.0
N349 N 0.83512 0.71259 0.93543 0.0
C350 C 0.81309 0.73997 0.96892 0.0
C351 C 0.78764 0.76566 0.9314 0.0
C352 C 0.27412 0.05566 0.69435 0.0
C353 C 0.33228 0.08428 0.71067 0.0
C354 C 0.24987 1.00598 0.65651 0.0
C355 C 0.28299 0.98343 0.63277 0.0
H356 H 0.24696 0.07118 0.71214 0.0
H357 H 0.20492 0.98523 0.64527 0.0
S358 S 0.4378 0.04307 0.66052 0.0
N359 N 0.42278 0.08737 0.69817 0.0
N360 N 0.37711 0.99347 0.62925 0.0
C361 C 0.34134 1.01196 0.64837 0.0
C362 C 0.36597 0.06245 0.68677 0.0
loop_
_geom_bond_atom_site_label_1
_geom_bond_atom_site_label_2
_geom_bond_distance
_geom_bond_site_symmetry_2
_ccdc_geom_bond_type
Co0 N4 2.148 . S
Co0 N10 2.128 . S
Co0 N20 2.194 . S
Co0 O25 2.351 . S
Co0 O26 2.155 . S
Co0 O27 2.096 . S
C1 N4 1.301 . S
C1 N5 1.328 . S
C1 H6 0.930 . S
C2 C3 1.333 . S
C2 N4 1.317 . S
C2 H7 0.930 . S
C3 C2 1.333 . S
C3 N5 1.350 . S
C3 H29 0.931 . S
N4 Co0 2.148 . S
N4 C1 1.301 . S
N4 C2 1.317 . S
N5 C1 1.328 . S
N5 C3 1.350 . S
H6 C1 0.930 . S
H7 C2 0.930 . S
C8 O9 1.224 . S
C8 O27 1.247 . S
O9 C8 1.224 . S
N10 Co0 2.128 . S
N10 C11 1.355 1_554 S
N10 C13 1.311 1_554 S
C11 N10 1.355 1_556 S
C11 C12 1.363 . S
C11 H23 0.929 . S
C12 C11 1.363 . S
C12 N14 1.375 . S
C12 H30 0.931 . S
C13 N10 1.311 1_556 S
C13 N14 1.347 . S
C13 H24 0.936 . S
N14 C12 1.375 . S
N14 C13 1.347 . S
C15 C18 1.365 1_554 S
C15 N20 1.328 . S
C15 H21 0.929 . S
C16 C17 1.362 . S
C16 C19 1.378 . S
C16 H31 0.929 . S
C17 C16 1.362 . S
C17 C18 1.366 . S
C18 C15 1.365 1_556 S
C18 C17 1.366 . S
C18 H32 0.930 . S
C19 C16 1.378 . S
C19 N20 1.315 1_556 S
C19 H22 0.930 . S
N20 Co0 2.194 . S
N20 C15 1.328 . S
N20 C19 1.315 1_554 S
H21 C15 0.929 . S
H22 C19 0.930 . S
H23 C11 0.929 . S
H24 C13 0.936 . S
O25 Co0 2.351 . S
O25 C28 1.244 . S
O26 Co0 2.155 . S
O26 C28 1.240 . S
O27 Co0 2.096 . S
O27 C8 1.247 . S
C28 O25 1.244 . S
C28 O26 1.240 . S
H29 C3 0.931 . S
H30 C12 0.931 . S
H31 C16 0.929 . S
H32 C18 0.930 . S
Co33 N37 2.148 . S
Co33 N43 2.128 . S
Co33 N53 2.194 . S
Co33 O58 2.351 . S
Co33 O59 2.155 . S
Co33 O60 2.096 . S
C34 N37 1.301 . S
C34 N38 1.328 . S
C34 H39 0.930 . S
C35 C36 1.333 . S
C35 N37 1.317 . S
C35 H40 0.930 . S
C36 C35 1.333 . S
C36 N38 1.350 . S
C36 H62 0.931 . S
N37 Co33 2.148 . S
N37 C34 1.301 . S
N37 C35 1.317 . S
N38 C34 1.328 . S
N38 C36 1.350 . S
H39 C34 0.930 . S
H40 C35 0.930 . S
C41 O42 1.224 . S
C41 O60 1.247 . S
O42 C41 1.224 . S
N43 Co33 2.128 . S
N43 C44 1.355 . S
N43 C46 1.311 . S
C44 N43 1.355 . S
C44 C45 1.363 . S
C44 H56 0.929 . S
C45 C44 1.363 . S
C45 N47 1.375 . S
C45 H63 0.931 . S
C46 N43 1.311 . S
C46 N47 1.347 . S
C46 H57 0.929 . S
N47 C45 1.375 . S
N47 C46 1.347 . S
C48 C51 1.365 . S
C48 N53 1.328 . S
C48 H54 0.929 . S
C49 C50 1.362 . S
C49 C52 1.378 . S
C49 H64 0.929 . S
C50 C49 1.362 . S
C50 C51 1.366 . S
C51 C48 1.365 . S
C51 C50 1.366 . S
C51 H65 0.930 . S
C52 C49 1.378 . S
C52 N53 1.315 . S
C52 H55 0.930 . S
N53 Co33 2.194 . S
N53 C48 1.328 . S
N53 C52 1.315 . S
H54 C48 0.929 . S
H55 C52 0.930 . S
H56 C44 0.929 . S
H57 C46 0.929 . S
O58 Co33 2.351 . S
O58 C61 1.244 . S
O59 Co33 2.155 . S
O59 C61 1.240 . S
O60 Co33 2.096 . S
O60 C41 1.247 . S
C61 O58 1.244 . S
C61 O59 1.240 . S
H62 C36 0.931 . S
H63 C45 0.931 . S
H64 C49 0.929 . S
H65 C51 0.930 . S
Co66 N70 2.148 . S
Co66 N76 2.128 . S
Co66 N86 2.194 . S
Co66 O91 2.351 . S
Co66 O92 2.155 . S
Co66 O93 2.096 . S
C67 N70 1.301 . S
C67 N71 1.328 . S
C67 H72 0.930 . S
C68 C69 1.333 . S
C68 N70 1.317 . S
C68 H73 0.930 . S
C69 C68 1.333 . S
C69 N71 1.350 . S
C69 H95 0.931 . S
N70 Co66 2.148 . S
N70 C67 1.301 . S
N70 C68 1.317 . S
N71 C67 1.328 . S
N71 C69 1.350 . S
H72 C67 0.930 . S
H73 C68 0.930 . S
C74 O75 1.224 . S
C74 O93 1.247 . S
O75 C74 1.224 . S
N76 Co66 2.128 . S
N76 C77 1.355 . S
N76 C79 1.311 . S
C77 N76 1.355 . S
C77 C78 1.363 . S
C77 H89 0.929 . S
C78 C77 1.363 . S
C78 N80 1.375 . S
C78 H96 0.931 . S
C79 N76 1.311 . S
C79 N80 1.347 . S
C79 H90 0.929 . S
N80 C78 1.375 . S
N80 C79 1.347 . S
C81 C84 1.365 . S
C81 N86 1.328 . S
C81 H87 0.929 . S
C82 C83 1.362 . S
C82 C85 1.378 . S
C82 H97 0.929 . S
C83 C82 1.362 . S
C83 C84 1.366 . S
C84 C81 1.365 . S
C84 C83 1.366 . S
C84 H98 0.930 . S
C85 C82 1.378 . S
C85 N86 1.315 . S
C85 H88 0.930 . S
N86 Co66 2.194 . S
N86 C81 1.328 . S
N86 C85 1.315 . S
H87 C81 0.929 . S
H88 C85 0.930 . S
H89 C77 0.929 . S
H90 C79 0.929 . S
O91 Co66 2.351 . S
O91 C94 1.244 . S
O92 Co66 2.155 . S
O92 C94 1.240 . S
O93 Co66 2.096 . S
O93 C74 1.247 . S
C94 O91 1.244 . S
C94 O92 1.240 . S
H95 C69 0.931 . S
H96 C78 0.931 . S
H97 C82 0.929 . S
H98 C84 0.930 . S
Co99 N103 2.148 . S
Co99 N109 2.128 . S
Co99 N119 2.194 . S
Co99 O124 2.351 . S
Co99 O125 2.155 . S
Co99 O126 2.096 . S
C100 N103 1.301 . S
C100 N104 1.328 . S
C100 H105 0.930 . S
C101 C102 1.333 . S
C101 N103 1.317 . S
C101 H106 0.930 . S
C102 C101 1.333 . S
C102 N104 1.350 . S
C102 H128 0.931 . S
N103 Co99 2.148 . S
N103 C100 1.301 . S
N103 C101 1.317 . S
N104 C100 1.328 . S
N104 C102 1.350 . S
H105 C100 0.930 . S
H106 C101 0.930 . S
C107 O108 1.224 . S
C107 O126 1.247 . S
O108 C107 1.224 . S
N109 Co99 2.128 . S
N109 C110 1.355 1_556 S
N109 C112 1.311 1_556 S
C110 N109 1.355 1_554 S
C110 C111 1.363 . S
C110 H122 0.929 . S
C111 C110 1.363 . S
C111 N113 1.375 . S
C111 H129 0.931 . S
C112 N109 1.311 1_554 S
C112 N113 1.347 . S
C112 H123 0.936 . S
N113 C111 1.375 . S
N113 C112 1.347 . S
C114 C117 1.365 1_556 S
C114 N119 1.328 . S
C114 H120 0.929 . S
C115 C116 1.362 . S
C115 C118 1.378 . S
C115 H130 0.929 . S
C116 C115 1.362 . S
C116 C117 1.366 . S
C117 C114 1.365 1_554 S
C117 C116 1.366 . S
C117 H131 0.930 . S
C118 C115 1.378 . S
C118 N119 1.315 1_554 S
C118 H121 0.930 . S
N119 Co99 2.194 . S
N119 C114 1.328 . S
N119 C118 1.315 1_556 S
H120 C114 0.929 . S
H121 C118 0.930 . S
H122 C110 0.929 . S
H123 C112 0.936 . S
O124 Co99 2.351 . S
O124 C127 1.244 . S
O125 Co99 2.155 . S
O125 C127 1.240 . S
O126 Co99 2.096 . S
O126 C107 1.247 . S
C127 O124 1.244 . S
C127 O125 1.240 . S
H128 C102 0.931 . S
H129 C111 0.931 . S
H130 C115 0.929 . S
H131 C117 0.930 . S
Co132 N136 2.148 . S
Co132 N142 2.128 . S
Co132 N152 2.194 . S
Co132 O157 2.351 . S
Co132 O158 2.155 . S
Co132 O159 2.096 . S
C133 N136 1.301 . S
C133 N137 1.328 . S
C133 H138 0.930 . S
C134 C135 1.333 . S
C134 N136 1.317 . S
C134 H139 0.930 . S
C135 C134 1.333 . S
C135 N137 1.350 . S
C135 H161 0.931 . S
N136 Co132 2.148 . S
N136 C133 1.301 . S
N136 C134 1.317 . S
N137 C133 1.328 . S
N137 C135 1.350 . S
H138 C133 0.930 . S
H139 C134 0.930 . S
C140 O141 1.224 . S
C140 O159 1.247 . S
O141 C140 1.224 . S
N142 Co132 2.128 . S
N142 C143 1.355 . S
N142 C145 1.311 . S
C143 N142 1.355 . S
C143 C144 1.363 . S
C143 H155 0.929 . S
C144 C143 1.363 . S
C144 N146 1.375 . S
C144 H162 0.931 . S
C145 N142 1.311 . S
C145 N146 1.347 . S
C145 H156 0.929 . S
N146 C144 1.375 . S
N146 C145 1.347 . S
C147 C150 1.365 . S
C147 N152 1.328 . S
C147 H153 0.929 . S
C148 C149 1.362 . S
C148 C151 1.378 . S
C148 H163 0.929 . S
C149 C148 1.362 . S
C149 C150 1.366 . S
C150 C147 1.365 . S
C150 C149 1.366 . S
C150 H164 0.930 . S
C151 C148 1.378 . S
C151 N152 1.315 . S
C151 H154 0.930 . S
N152 Co132 2.194 . S
N152 C147 1.328 . S
N152 C151 1.315 . S
H153 C147 0.929 . S
H154 C151 0.930 . S
H155 C143 0.929 . S
H156 C145 0.929 . S
O157 Co132 2.351 . S
O157 C160 1.244 . S
O158 Co132 2.155 . S
O158 C160 1.240 . S
O159 Co132 2.096 . S
O159 C140 1.247 . S
C160 O157 1.244 . S
C160 O158 1.240 . S
H161 C135 0.931 . S
H162 C144 0.931 . S
H163 C148 0.929 . S
H164 C150 0.930 . S
Co165 N169 2.148 . S
Co165 N175 2.128 . S
Co165 N185 2.194 . S
Co165 O190 2.351 . S
Co165 O191 2.155 . S
Co165 O192 2.096 . S
C166 N169 1.301 . S
C166 N170 1.328 . S
C166 H171 0.930 . S
C167 C168 1.333 . S
C167 N169 1.317 . S
C167 H172 0.930 . S
C168 C167 1.333 . S
C168 N170 1.350 . S
C168 H194 0.931 . S
N169 Co165 2.148 . S
N169 C166 1.301 . S
N169 C167 1.317 . S
N170 C166 1.328 . S
N170 C168 1.350 . S
H171 C166 0.930 . S
H172 C167 0.930 . S
C173 O174 1.224 . S
C173 O192 1.247 . S
O174 C173 1.224 . S
N175 Co165 2.128 . S
N175 C176 1.355 . S
N175 C178 1.311 . S
C176 N175 1.355 . S
C176 C177 1.363 . S
C176 H188 0.929 . S
C177 C176 1.363 . S
C177 N179 1.375 . S
C177 H195 0.931 . S
C178 N175 1.311 . S
C178 N179 1.347 . S
C178 H189 0.929 . S
N179 C177 1.375 . S
N179 C178 1.347 . S
C180 C183 1.365 . S
C180 N185 1.328 . S
C180 H186 0.929 . S
C181 C182 1.362 . S
C181 C184 1.378 . S
C181 H196 0.929 . S
C182 C181 1.362 . S
C182 C183 1.366 . S
C183 C180 1.365 . S
C183 C182 1.366 . S
C183 H197 0.930 . S
C184 C181 1.378 . S
C184 N185 1.315 . S
C184 H187 0.930 . S
N185 Co165 2.194 . S
N185 C180 1.328 . S
N185 C184 1.315 . S
H186 C180 0.929 . S
H187 C184 0.930 . S
H188 C176 0.929 . S
H189 C178 0.929 . S
O190 Co165 2.351 . S
O190 C193 1.244 . S
O191 Co165 2.155 . S
O191 C193 1.240 . S
O192 Co165 2.096 . S
O192 C173 1.247 . S
C193 O190 1.244 . S
C193 O191 1.240 . S
H194 C168 0.931 . S
H195 C177 0.931 . S
H196 C181 0.929 . S
H197 C183 0.930 . S
C198 C199 1.369 . S
C198 C200 1.419 . S
C198 H202 0.930 . S
C199 C198 1.369 . S
C199 C208 1.429 . S
C200 C198 1.419 . S
C200 C201 1.363 . S
C200 H203 0.929 . S
C201 C200 1.363 . S
C201 C207 1.428 . S
H202 C198 0.930 . S
H203 C200 0.929 . S
S204 N205 1.613 . S
S204 N206 1.610 . S
N205 S204 1.613 . S
N205 C208 1.350 . S
N206 S204 1.610 . S
N206 C207 1.351 . S
C207 C201 1.428 . S
C207 N206 1.351 . S
C207 C208 1.434 . S
C208 C199 1.429 . S
C208 N205 1.350 . S
C208 C207 1.434 . S
C209 C210 1.369 . S
C209 C211 1.419 . S
C209 H213 0.930 . S
C210 C209 1.369 . S
C210 C219 1.429 . S
C211 C209 1.419 . S
C211 C212 1.363 . S
C211 H214 0.929 . S
C212 C211 1.363 . S
C212 C218 1.428 . S
H213 C209 0.930 . S
H214 C211 0.929 . S
S215 N216 1.613 . S
S215 N217 1.610 . S
N216 S215 1.613 . S
N216 C219 1.350 . S
N217 S215 1.610 . S
N217 C218 1.351 . S
C218 C212 1.428 . S
C218 N217 1.351 . S
C218 C219 1.434 . S
C219 C210 1.429 . S
C219 N216 1.350 . S
C219 C218 1.434 . S
C220 C221 1.369 . S
C220 C222 1.419 . S
C220 H224 0.930 . S
C221 C220 1.369 . S
C221 C230 1.429 . S
C222 C220 1.419 . S
C222 C223 1.363 . S
C222 H225 0.929 . S
C223 C222 1.363 . S
C223 C229 1.428 . S
H224 C220 0.930 . S
H225 C222 0.929 . S
S226 N227 1.613 . S
S226 N228 1.610 . S
N227 S226 1.613 . S
N227 C230 1.350 . S
N228 S226 1.610 . S
N228 C229 1.351 . S
C229 C223 1.428 . S
C229 N228 1.351 . S
C229 C230 1.434 . S
C230 C221 1.429 . S
C230 N227 1.350 . S
C230 C229 1.434 . S
C231 C232 1.369 . S
C231 C233 1.419 . S
C231 H235 0.930 . S
C232 C231 1.369 . S
C232 C241 1.429 . S
C233 C231 1.419 . S
C233 C234 1.363 . S
C233 H236 0.929 . S
C234 C233 1.363 . S
C234 C240 1.428 . S
H235 C231 0.930 . S
H236 C233 0.929 . S
S237 N238 1.613 . S
S237 N239 1.610 . S
N238 S237 1.613 . S
N238 C241 1.350 . S
N239 S237 1.610 . S
N239 C240 1.351 . S
C240 C234 1.428 . S
C240 N239 1.351 . S
C240 C241 1.434 . S
C241 C232 1.429 . S
C241 N238 1.350 . S
C241 C240 1.434 . S
C242 C243 1.369 . S
C242 C244 1.419 . S
C242 H246 0.930 . S
C243 C242 1.369 . S
C243 C252 1.429 . S
C244 C242 1.419 . S
C244 C245 1.363 . S
C244 H247 0.929 . S
C245 C244 1.363 . S
C245 C251 1.428 . S
H246 C242 0.930 . S
H247 C244 0.929 . S
S248 N249 1.613 . S
S248 N250 1.610 . S
N249 S248 1.613 . S
N249 C252 1.350 . S
N250 S248 1.610 . S
N250 C251 1.351 . S
C251 C245 1.428 . S
C251 N250 1.351 . S
C251 C252 1.434 . S
C252 C243 1.429 . S
C252 N249 1.350 . S
C252 C251 1.434 . S
C253 C254 1.369 . S
C253 C255 1.419 . S
C253 H257 0.930 . S
C254 C253 1.369 . S
C254 C263 1.429 . S
C255 C253 1.419 . S
C255 C256 1.363 . S
C255 H258 0.929 . S
C256 C255 1.363 . S
C256 C262 1.428 . S
H257 C253 0.930 . S
H258 C255 0.929 . S
S259 N260 1.613 . S
S259 N261 1.610 . S
N260 S259 1.613 . S
N260 C263 1.350 . S
N261 S259 1.610 . S
N261 C262 1.351 . S
C262 C256 1.428 . S
C262 N261 1.351 . S
C262 C263 1.434 . S
C263 C254 1.429 . S
C263 N260 1.350 . S
C263 C262 1.434 . S
C264 C265 1.369 . S
C264 C266 1.419 . S
C264 H268 0.930 . S
C265 C264 1.369 . S
C265 C274 1.429 1_655 S
C266 C264 1.419 . S
C266 C267 1.363 1_655 S
C266 H269 0.929 . S
C267 C266 1.363 1_455 S
C267 C273 1.428 . S
H268 C264 0.930 . S
H269 C266 0.929 . S
S270 N271 1.613 . S
S270 N272 1.610 . S
N271 S270 1.613 . S
N271 C274 1.350 . S
N272 S270 1.610 . S
N272 C273 1.351 . S
C273 C267 1.428 . S
C273 N272 1.351 . S
C273 C274 1.434 . S
C274 C265 1.429 1_455 S
C274 N271 1.350 . S
C274 C273 1.434 . S
C275 C276 1.369 . S
C275 C277 1.419 . S
C275 H279 0.930 . S
C276 C275 1.369 . S
C276 C285 1.429 . S
C277 C275 1.419 . S
C277 C278 1.363 . S
C277 H280 0.929 . S
C278 C277 1.363 . S
C278 C284 1.428 . S
H279 C275 0.930 . S
H280 C277 0.929 . S
S281 N282 1.613 . S
S281 N283 1.610 . S
N282 S281 1.613 . S
N282 C285 1.350 . S
N283 S281 1.610 . S
N283 C284 1.351 . S
C284 C278 1.428 . S
C284 N283 1.351 . S
C284 C285 1.434 . S
C285 C276 1.429 . S
C285 N282 1.350 . S
C285 C284 1.434 . S
C286 C287 1.369 . S
C286 C288 1.419 1_545 S
C286 H290 0.930 . S
C287 C286 1.369 . S
C287 C296 1.429 . S
C288 C286 1.419 1_565 S
C288 C289 1.363 . S
C288 H291 0.929 . S
C289 C288 1.363 . S
C289 C295 1.428 . S
H290 C286 0.930 . S
H291 C288 0.929 . S
S292 N293 1.593 1_565 S
S292 N294 1.610 . S
N293 S292 1.593 1_545 S
N293 C296 1.360 . S
N294 S292 1.610 . S
N294 C295 1.351 . S
C295 C289 1.428 . S
C295 N294 1.351 . S
C295 C296 1.434 1_565 S
C296 C287 1.429 . S
C296 N293 1.360 . S
C296 C295 1.434 1_545 S
C297 C298 1.369 . S
C297 C299 1.419 . S
C297 H301 0.930 . S
C298 C297 1.369 . S
C298 C307 1.429 1_556 S
C299 C297 1.419 . S
C299 C300 1.363 1_556 S
C299 H302 0.929 . S
C300 C299 1.363 1_554 S
C300 C306 1.428 . S
H301 C297 0.930 . S
H302 C299 0.929 . S
S303 N304 1.613 . S
S303 N305 1.610 . S
N304 S303 1.613 . S
N304 C307 1.350 . S
N305 S303 1.610 . S
N305 C306 1.351 . S
C306 C300 1.428 . S
C306 N305 1.351 . S
C306 C307 1.434 . S
C307 C298 1.429 1_554 S
C307 N304 1.350 . S
C307 C306 1.434 . S
C308 C309 1.369 . S
C308 C310 1.419 1_545 S
C308 H312 0.930 . S
C309 C308 1.369 . S
C309 C318 1.429 . S
C310 C308 1.419 1_565 S
C310 C311 1.363 . S
C310 H313 0.929 . S
C311 C310 1.363 . S
C311 C317 1.428 . S
H312 C308 0.930 . S
H313 C310 0.929 . S
S314 N315 1.613 . S
S314 N316 1.610 . S
N315 S314 1.613 . S
N315 C318 1.350 1_565 S
N316 S314 1.610 . S
N316 C317 1.351 . S
C317 C311 1.428 . S
C317 N316 1.351 . S
C317 C318 1.434 1_565 S
C318 C309 1.429 . S
C318 N315 1.350 1_545 S
C318 C317 1.434 1_545 S
C319 C320 1.369 . S
C319 C321 1.419 1_455 S
C319 H323 0.930 . S
C320 C319 1.369 . S
C320 C329 1.429 . S
C321 C319 1.419 1_655 S
C321 C322 1.363 . S
C321 H324 0.929 . S
C322 C321 1.363 . S
C322 C328 1.428 . S
H323 C319 0.930 . S
H324 C321 0.929 . S
S325 N326 1.613 1_655 S
S325 N327 1.610 . S
N326 S325 1.613 1_455 S
N326 C329 1.350 . S
N327 S325 1.610 . S
N327 C328 1.351 . S
C328 C322 1.428 . S
C328 N327 1.351 . S
C328 C329 1.434 1_655 S
C329 C320 1.429 . S
C329 N326 1.350 . S
C329 C328 1.434 1_455 S
C330 C331 1.369 . S
C330 C332 1.419 . S
C330 H334 0.930 . S
C331 C330 1.369 . S
C331 C340 1.429 1_655 S
C332 C330 1.419 . S
C332 C333 1.363 1_655 S
C332 H335 0.929 . S
C333 C332 1.363 1_455 S
C333 C339 1.428 . S
H334 C330 0.930 . S
H335 C332 0.929 . S
S336 N337 1.613 . S
S336 N338 1.610 . S
N337 S336 1.613 . S
N337 C340 1.350 . S
N338 S336 1.610 . S
N338 C339 1.351 . S
C339 C333 1.428 . S
C339 N338 1.351 . S
C339 C340 1.434 . S
C340 C331 1.429 1_455 S
C340 N337 1.350 . S
C340 C339 1.434 . S
C341 C342 1.369 1_554 S
C341 C343 1.419 . S
C341 H345 0.930 . S
C342 C341 1.369 1_556 S
C342 C351 1.429 . S
C343 C341 1.419 . S
C343 C344 1.363 . S
C343 H346 0.929 . S
C344 C343 1.363 . S
C344 C350 1.428 1_554 S
H345 C341 0.930 . S
H346 C343 0.929 . S
S347 N348 1.613 . S
S347 N349 1.610 . S
N348 S347 1.613 . S
N348 C351 1.350 . S
N349 S347 1.610 . S
N349 C350 1.351 . S
C350 C344 1.428 1_556 S
C350 N349 1.351 . S
C350 C351 1.434 . S
C351 C342 1.429 . S
C351 N348 1.350 . S
C351 C350 1.434 . S
C352 C353 1.369 1_565 S
C352 C354 1.419 . S
C352 H356 0.930 . S
C353 C352 1.369 1_545 S
C353 C362 1.429 . S
C354 C352 1.419 . S
C354 C355 1.363 . S
C354 H357 0.929 . S
C355 C354 1.363 . S
C355 C361 1.428 1_565 S
H356 C352 0.930 . S
H357 C354 0.929 . S
S358 N359 1.613 . S
S358 N360 1.610 . S
N359 S358 1.613 . S
N359 C362 1.350 . S
N360 S358 1.610 . S
N360 C361 1.351 . S
C361 C355 1.428 1_545 S
C361 N360 1.351 . S
C361 C362 1.434 . S
C362 C353 1.429 . S
C362 N359 1.350 . S
C362 C361 1.434 . S
C199 N80 1.268 . S
C201 C28 1.355 . S
C210 C61 1.359 . S
C212 N14 1.259 . S
C221 C94 1.357 . S
C223 N47 1.266 . S
C232 C127 1.360 . S
C234 N146 1.259 . S
C243 N179 1.264 . S
C245 C160 1.358 . S
C254 N113 1.272 . S
C256 C193 1.355 . S
C265 C149 0.875 . S
C267 C17 0.874 . S
C276 C182 0.875 . S
C278 C50 0.875 . S
C287 C116 0.876 . S
C289 C83 0.875 . S
C298 C107 1.826 . S
C300 C8 1.832 . S
C309 C140 1.833 . S
C311 C41 1.827 . S
C320 C74 1.832 . S
C322 C173 1.828 . S
C331 N137 1.901 . S
C333 N5 1.899 . S
C342 N38 1.901 . S
C344 N170 1.898 . S
C353 N104 1.898 . S
C355 N71 1.901 . S
