# Generated by pormake.
# Topology sml, (6)-cn, num edge types: 1
# Building blocks:
#     Node 0, Type 0, BuildingBlock: FUNLAD_clean_sbu_0, # of connection points: 6
#     Node 1, Type 0, BuildingBlock: FUNLAD_clean_sbu_0, # of connection points: 6
#     Node 2, Type 0, BuildingBlock: FUNLAD_clean_sbu_0, # of connection points: 6
#     Node 3, Type 0, BuildingBlock: FUNLAD_clean_sbu_0, # of connection points: 6
#     Node 4, Type 0, BuildingBlock: FUNLAD_clean_sbu_0, # of connection points: 6
#     Node 5, Type 0, BuildingBlock: FUNLAD_clean_sbu_0, # of connection points: 6
#     Edge 6, Type (0, 0), BuildingBlock: XUDNAN_clean_linker_2, # of connection points: 2
#     Edge 7, Type (0, 0), BuildingBlock: XUDNAN_clean_linker_2, # of connection points: 2
#     Edge 8, Type (0, 0), BuildingBlock: XUDNAN_clean_linker_2, # of connection points: 2
#     Edge 9, Type (0, 0), BuildingBlock: XUDNAN_clean_linker_2, # of connection points: 2
#     Edge 10, Type (0, 0), BuildingBlock: XUDNAN_clean_linker_2, # of connection points: 2
#     Edge 11, Type (0, 0), BuildingBlock: XUDNAN_clean_linker_2, # of connection points: 2
#     Edge 12, Type (0, 0), BuildingBlock: XUDNAN_clean_linker_2, # of connection points: 2
#     Edge 13, Type (0, 0), BuildingBlock: XUDNAN_clean_linker_2, # of connection points: 2
#     Edge 14, Type (0, 0), BuildingBlock: XUDNAN_clean_linker_2, # of connection points: 2
#     Edge 15, Type (0, 0), BuildingBlock: XUDNAN_clean_linker_2, # of connection points: 2
#     Edge 16, Type (0, 0), BuildingBlock: XUDNAN_clean_linker_2, # of connection points: 2
#     Edge 17, Type (0, 0), BuildingBlock: XUDNAN_clean_linker_2, # of connection points: 2
#     Edge 18, Type (0, 0), BuildingBlock: XUDNAN_clean_linker_2, # of connection points: 2
#     Edge 19, Type (0, 0), BuildingBlock: XUDNAN_clean_linker_2, # of connection points: 2
#     Edge 20, Type (0, 0), BuildingBlock: XUDNAN_clean_linker_2, # of connection points: 2
#     Edge 21, Type (0, 0), BuildingBlock: XUDNAN_clean_linker_2, # of connection points: 2
#     Edge 22, Type (0, 0), BuildingBlock: XUDNAN_clean_linker_2, # of connection points: 2
#     Edge 23, Type (0, 0), BuildingBlock: XUDNAN_clean_linker_2, # of connection points: 2
# Relax obj value: 0.385
# Max RMSD: 0.211
# Mean RMSD: 0.211
data_MOF--net-sml--node1-FUNLAD_clean_sbu_0--edge1-XUDNAN_clean_linker_2
_symmetry_space_group_name_H-M    P1
_symmetry_Int_Tables_number       1
_symmetry_cell_setting            triclinic
loop_
_symmetry_equiv_pos_as_xyz
'x, y, z'
_cell_length_a     47.281065
_cell_length_b     47.355364
_cell_length_c     14.676695
_cell_angle_alpha  89.645307
_cell_angle_beta   90.298416
_cell_angle_gamma 119.96562
loop_
_atom_site_label
_atom_site_type_symbol
_atom_site_fract_x
_atom_site_fract_y
_atom_site_fract_z
_atom_type_partial_charge
C0 C 0.1509 0.40369 0.86898 0.0
N1 N 0.17094 0.34133 0.02701 0.0
C2 C 0.15095 0.31733 0.96845 0.0
C3 C 0.15793 0.29292 0.94384 0.0
C4 C 0.18574 0.29331 -0.02005 0.0
C5 C 0.20458 0.31716 0.04471 0.0
C6 C 0.19688 0.34111 0.06678 0.0
Zn7 Zn 0.168 0.38283 0.0425 0.0
C8 C 0.23292 0.44137 -0.01357 0.0
N9 N 0.1692 0.47342 0.06675 0.0
C10 C 0.14078 0.47382 0.05662 0.0
C11 C 0.19706 0.50061 0.09327 0.0
C12 C 0.19702 0.52949 0.11115 0.0
C13 C 0.16778 0.53039 0.10474 0.0
C14 C 0.13942 0.50194 0.07638 0.0
Zn15 Zn 0.16998 0.43074 0.05 0.0
O16 O 0.15487 0.38124 0.90373 0.0
C17 C 0.1051 0.37315 0.10705 0.0
O18 O 0.15318 0.4265 0.91889 0.0
H19 H 0.21941 0.49991 0.10214 0.0
H20 H 0.13059 0.31806 0.93698 0.0
H21 H 0.11884 0.45207 0.03521 0.0
O22 O 0.11733 0.35566 0.08326 0.0
O23 O 0.12223 0.40395 0.09968 0.0
H24 H 0.21279 0.36057 0.11213 0.0
O25 O 0.18737 0.43523 0.17965 0.0
O26 O 0.18168 0.38633 0.18252 0.0
O27 O 0.21769 0.4566 0.0008 0.0
O28 O 0.21857 0.41078 0.00093 0.0
C29 C 0.1894 0.41301 0.22227 0.0
H30 H 0.14281 0.27511 0.89332 0.0
H31 H 0.22586 0.31807 0.07567 0.0
H32 H 0.2198 0.55077 0.13026 0.0
H33 H 0.11609 0.50094 0.07157 0.0
C34 C 0.82281 0.24042 0.52586 0.0
N35 N 0.80793 0.15855 0.37933 0.0
C36 C 0.78966 0.14144 0.45238 0.0
C37 C 0.78175 0.1092 0.46678 0.0
C38 C 0.7932 0.09417 0.40659 0.0
C39 C 0.81369 0.11311 0.33461 0.0
C40 C 0.82053 0.14528 0.32171 0.0
Zn41 Zn 0.81078 0.2027 0.35393 0.0
C42 C 0.74401 0.19577 0.39028 0.0
N43 N 0.8097 0.2921 0.31574 0.0
C44 C 0.8347 0.32061 0.34813 0.0
C45 C 0.7859 0.29182 0.26253 0.0
C46 C 0.78697 0.32092 0.23864 0.0
C47 C 0.81267 0.35081 0.27007 0.0
C48 C 0.83664 0.35034 0.32616 0.0
Zn49 Zn 0.80851 0.2487 0.34083 0.0
O50 O 0.82222 0.21557 0.49147 0.0
C51 C 0.87555 0.25686 0.3071 0.0
O52 O 0.81892 0.26005 0.4755 0.0
H53 H 0.76629 0.26898 0.23703 0.0
H54 H 0.77984 0.15229 0.49772 0.0
H55 H 0.85341 0.32036 0.39027 0.0
O56 O 0.86193 0.22623 0.32101 0.0
O57 O 0.85858 0.27083 0.31127 0.0
H58 H 0.83501 0.15927 0.26401 0.0
O59 O 0.79703 0.23613 0.20774 0.0
O60 O 0.79859 0.19051 0.2157 0.0
O61 O 0.75856 0.22598 0.37151 0.0
O62 O 0.75975 0.1805 0.38726 0.0
C63 C 0.79332 0.21043 0.17075 0.0
H64 H 0.76544 0.09589 0.52228 0.0
H65 H 0.82378 0.10305 0.28731 0.0
H66 H 0.76819 0.31996 0.19406 0.0
H67 H 0.85668 0.37267 0.35303 0.0
C68 C 0.5654 0.71598 0.47938 0.0
N69 N 0.6227 0.80077 0.62554 0.0
C70 C 0.64779 0.80373 0.57341 0.0
C71 C 0.67232 0.83445 0.54428 0.0
C72 C 0.67121 0.86244 0.56959 0.0
C73 C 0.6459 0.85877 0.627 0.0
C74 C 0.62172 0.82758 0.65391 0.0
Zn75 Zn 0.58331 0.75526 0.65068 0.0
C76 C 0.51997 0.75308 0.60194 0.0
N77 N 0.49965 0.66027 0.68491 0.0
C78 C 0.47386 0.64654 0.62622 0.0
C79 C 0.49917 0.64536 0.76505 0.0
C80 C 0.47161 0.61615 0.79036 0.0
C81 C 0.44454 0.60198 0.73212 0.0
C82 C 0.44587 0.61709 0.64858 0.0
Zn83 Zn 0.53913 0.70557 0.65963 0.0
O84 O 0.58531 0.74225 0.51896 0.0
C85 C 0.60142 0.70573 0.70178 0.0
O86 O 0.54066 0.69418 0.52171 0.0
H87 H 0.51988 0.65655 0.81074 0.0
H88 H 0.64819 0.78217 0.55158 0.0
H89 H 0.47467 0.65885 0.56313 0.0
O90 O 0.61484 0.73651 0.69185 0.0
O91 O 0.57074 0.68804 0.69187 0.0
H92 H 0.60145 0.82473 0.69464 0.0
O93 O 0.53902 0.71808 0.79786 0.0
O94 O 0.58135 0.76731 0.78295 0.0
O95 O 0.50819 0.72332 0.62345 0.0
O96 O 0.55062 0.7725 0.60786 0.0
C97 C 0.55984 0.74513 0.83276 0.0
H98 H 0.69159 0.83621 0.50084 0.0
H99 H 0.64388 0.87964 0.64734 0.0
H100 H 0.47117 0.60506 0.85553 0.0
H101 H 0.42514 0.60673 0.60258 0.0
C102 C 0.73191 0.56553 0.16551 0.0
N103 N 0.8146 0.62577 0.006 0.0
C104 C 0.819 0.64936 0.06647 0.0
C105 C 0.85039 0.67518 0.08503 0.0
C106 C 0.87725 0.67704 0.03929 0.0
C107 C 0.87189 0.65313 -0.02513 0.0
C108 C 0.84031 0.62741 0.96002 0.0
Zn109 Zn 0.77 0.58418 -0.00803 0.0
C110 C 0.7744 0.52566 0.05186 0.0
N111 N 0.67942 0.49526 -0.02797 0.0
C112 C 0.64993 0.4923 -0.00808 0.0
C113 C 0.68172 0.46923 0.94308 0.0
C114 C 0.65401 0.43862 0.93636 0.0
C115 C 0.62346 0.43471 0.95809 0.0
C116 C 0.62131 0.46196 -0.01539 0.0
Zn117 Zn 0.72249 0.53824 -0.01389 0.0
O118 O 0.75932 0.58601 0.13125 0.0
C119 C 0.71712 0.59538 0.92367 0.0
O120 O 0.70993 0.54403 0.11521 0.0
H121 H 0.70522 0.47205 0.92618 0.0
H122 H 0.79831 0.64763 0.10259 0.0
H123 H 0.64866 0.51332 0.01461 0.0
O124 O 0.74664 0.61168 0.9511 0.0
O125 O 0.70188 0.56448 0.93042 0.0
H126 H 0.83659 0.6081 0.91406 0.0
O127 O 0.7353 0.53215 0.85745 0.0
O128 O 0.77916 0.58046 0.85218 0.0
O129 O 0.74381 0.51262 0.04167 0.0
O130 O 0.79247 0.55567 0.03171 0.0
C131 C 0.75953 0.55374 0.81367 0.0
H132 H 0.85372 0.69326 0.13529 0.0
H133 H 0.89211 0.65352 0.93935 0.0
H134 H 0.65642 0.41806 0.91489 0.0
H135 H 0.59798 0.45961 0.00194 0.0
C136 C 0.24297 0.82097 0.19918 0.0
N137 N 0.15874 0.79841 0.34546 0.0
C138 C 0.15767 0.82205 0.29495 0.0
C139 C 0.12794 0.81745 0.26169 0.0
C140 C 0.09897 0.78812 0.27994 0.0
C141 C 0.10062 0.76495 0.33673 0.0
C142 C 0.13089 0.77063 0.36893 0.0
Zn143 Zn 0.20319 0.8022 0.37062 0.0
C144 C 0.20239 0.74085 0.32611 0.0
N145 N 0.29694 0.81004 0.40674 0.0
C146 C 0.32568 0.83482 0.37425 0.0
C147 C 0.29581 0.7842 0.4514 0.0
C148 C 0.32391 0.78193 0.46195 0.0
C149 C 0.35354 0.80654 0.42679 0.0
C150 C 0.35456 0.83354 0.38366 0.0
Zn151 Zn 0.25297 0.808 0.38402 0.0
O152 O 0.21596 0.81525 0.23326 0.0
C153 C 0.25353 0.86956 0.42625 0.0
O154 O 0.26487 0.82123 0.24993 0.0
H155 H 0.27282 0.76467 0.47654 0.0
H156 H 0.18008 0.8439 0.2767 0.0
H157 H 0.32603 0.85506 0.33866 0.0
O158 O 0.22342 0.85149 0.40739 0.0
O159 O 0.27253 0.85778 0.42227 0.0
H160 H 0.13229 0.75207 0.40875 0.0
O161 O 0.24009 0.79379 0.51629 0.0
O162 O 0.19117 0.78849 0.50908 0.0
O163 O 0.2325 0.75845 0.34503 0.0
O164 O 0.18373 0.75285 0.33241 0.0
C165 C 0.21322 0.7865 0.55379 0.0
H166 H 0.1278 0.83622 0.21949 0.0
H167 H 0.07905 0.74184 0.35193 0.0
H168 H 0.32233 0.76063 0.49476 0.0
H169 H 0.3771 0.85273 0.35483 0.0
C170 C 0.40621 0.13951 0.863 0.0
N171 N 0.35441 0.17334 0.71114 0.0
C172 C 0.32774 0.15121 0.75864 0.0
C173 C 0.30296 0.15794 0.78081 0.0
C174 C 0.30564 0.18771 0.75382 0.0
C175 C 0.33284 0.20946 0.70178 0.0
C176 C 0.35704 0.20182 0.68142 0.0
Zn177 Zn 0.39319 0.16597 0.69166 0.0
C178 C 0.45525 0.22237 0.75103 0.0
N179 N 0.47398 0.14967 0.66017 0.0
C180 C 0.47347 0.12079 0.66947 0.0
C181 C 0.50094 0.17657 0.62771 0.0
C182 C 0.52869 0.17529 0.60383 0.0
C183 C 0.52876 0.1457 0.6096 0.0
C184 C 0.50065 0.1182 0.64397 0.0
Zn185 Zn 0.43396 0.15502 0.68287 0.0
O186 O 0.38884 0.14941 0.82346 0.0
C187 C 0.37163 0.09771 0.62913 0.0
O188 O 0.42923 0.1389 0.82017 0.0
H189 H 0.50088 0.19917 0.61823 0.0
H190 H 0.32613 0.12874 0.78185 0.0
H191 H 0.45172 0.09953 0.69442 0.0
O192 O 0.36142 0.11741 0.64659 0.0
O193 O 0.40178 0.10706 0.63882 0.0
H194 H 0.37841 0.2191 0.64379 0.0
O195 O 0.43744 0.17086 0.54506 0.0
O196 O 0.39759 0.18159 0.55903 0.0
O197 O 0.46482 0.20251 0.73094 0.0
O198 O 0.42562 0.21439 0.73818 0.0
C199 C 0.4183 0.17945 0.50954 0.0
H200 H 0.2826 0.14055 0.82167 0.0
H201 H 0.33569 0.23244 0.67808 0.0
H202 H 0.54983 0.19749 0.5805 0.0
H203 H 0.49926 0.09473 0.64905 0.0
H204 H 0.31755 0.24749 0.81212 0.0
H205 H 0.23872 0.14878 0.76468 0.0
H206 H 0.19892 0.16448 0.8182 0.0
H207 H 0.28575 0.26197 0.01422 0.0
H208 H 0.29947 0.30401 -0.01309 0.0
H209 H 0.32142 0.28488 0.94432 0.0
H210 H 0.31463 0.30027 0.77902 0.0
H211 H 0.29285 0.31964 0.82116 0.0
H212 H 0.27434 0.28815 0.7363 0.0
H213 H 0.16772 0.19179 0.87765 0.0
H214 H 0.1484 0.22795 0.93806 0.0
H215 H 0.24824 0.30839 0.94121 0.0
C216 C 0.29189 0.2292 0.81161 0.0
C217 C 0.28129 0.19692 0.78366 0.0
C218 C 0.24749 0.17361 0.78638 0.0
C219 C 0.22469 0.18234 0.81628 0.0
C220 C 0.23608 0.21444 0.84331 0.0
C221 C 0.26892 0.23747 0.84103 0.0
C222 C 0.27512 0.27026 0.87404 0.0
C223 C 0.29671 0.28089 0.95998 0.0
C224 C 0.29011 0.2961 0.79809 0.0
C225 C 0.24064 0.26217 0.89552 0.0
C226 C 0.21836 0.22992 0.87739 0.0
C227 C 0.185 0.21709 0.89199 0.0
C228 C 0.17423 0.23782 0.92598 0.0
C229 C 0.19679 0.27095 0.94527 0.0
C230 C 0.23037 0.28306 0.9292 0.0
H231 H 0.0542 0.30833 0.11089 0.0
H232 H 0.08089 0.40655 0.19438 0.0
H233 H 0.02667 0.38615 0.25973 0.0
H234 H 0.97181 0.28441 0.04645 0.0
H235 H 0.95405 0.24319 0.08844 0.0
H236 H 0.99591 0.26459 0.05103 0.0
H237 H 1.01442 0.25399 0.20763 0.0
H238 H 0.9726 0.23257 0.24558 0.0
H239 H 1.00301 0.26656 0.31017 0.0
H240 H 0.97039 0.35756 0.30991 0.0
H241 H 0.91251 0.32095 0.34341 0.0
H242 H 0.91877 0.23946 0.2318 0.0
C243 C 0.04861 0.32539 0.14357 0.0
C244 C 0.07198 0.35912 0.14709 0.0
C245 C 0.06358 0.38068 0.19 0.0
C246 C 0.03278 0.36934 0.22791 0.0
C247 C 1.01031 0.33626 0.22277 0.0
C248 C 0.01753 0.31442 0.18192 0.0
C249 C 0.98784 0.28023 0.18384 0.0
C250 C 0.97675 0.26735 0.08665 0.0
C251 C 0.9949 0.25696 0.24017 0.0
C252 C 0.96301 0.28664 0.23118 0.0
C253 C 0.97687 0.31923 0.25298 0.0
C254 C 0.9592 0.33192 0.29379 0.0
C255 C 0.92624 0.31087 0.31223 0.0
C256 C 0.91105 0.27732 0.29031 0.0
C257 C 0.92983 0.26491 0.25019 0.0
H258 H 0.77685 0.05646 0.56367 0.0
H259 H 0.78176 0.05013 0.26929 0.0
H260 H 0.75695 0.99065 0.28211 0.0
H261 H 0.78855 0.98756 0.62549 0.0
H262 H 0.75896 0.97439 0.71602 0.0
H263 H 0.78215 0.01695 0.68577 0.0
H264 H 0.72841 0.01806 0.66095 0.0
H265 H 0.70509 0.97555 0.69076 0.0
H266 H 0.69816 0.98956 0.58297 0.0
H267 H 0.72668 0.93129 0.32462 0.0
H268 H 0.69177 0.87696 0.39295 0.0
H269 H 0.70292 0.92154 0.65793 0.0
C270 C 0.77298 0.04279 0.50156 0.0
C271 C 0.78165 0.05851 0.41536 0.0
C272 C 0.77628 0.03922 0.33652 0.0
C273 C 0.7619 1.0052 0.34295 0.0
C274 C 0.75278 0.9906 0.42859 0.0
C275 C 0.75808 1.00879 0.50651 0.0
C276 C 0.74322 0.98702 0.58923 0.0
C277 C 0.76982 0.99177 0.65819 0.0
C278 C 0.71718 0.9929 0.63353 0.0
C279 C 0.72801 0.95373 0.54525 0.0
C280 C 0.73433 0.95632 0.45281 0.0
C281 C 0.7219 0.92895 0.3971 0.0
C282 C 0.7022 0.89816 0.43665 0.0
C283 C 0.69474 0.89495 0.53088 0.0
C284 C 0.70817 0.92319 0.58574 0.0
H285 H 0.65426 0.72211 0.8174 0.0
H286 H 0.59091 0.65142 0.61706 0.0
H287 H 0.61749 0.61892 0.64444 0.0
H288 H 0.72799 0.71447 0.77109 0.0
H289 H 0.73911 0.7175 0.88977 0.0
H290 H 0.71815 0.73796 0.84751 0.0
H291 H 0.67305 0.70825 0.96872 0.0
H292 H 0.69374 0.68758 0.01099 0.0
H293 H 0.65177 0.66435 -0.02542 0.0
H294 H 0.64549 0.59124 0.70093 0.0
H295 H 0.6753 0.56909 0.78382 0.0
H296 H 0.72243 0.65614 0.95091 0.0
C297 C 0.64671 0.70021 0.77802 0.0
C298 C 0.62068 0.68928 0.71466 0.0
C299 C 0.61077 0.66013 0.66587 0.0
C300 C 0.6258 0.64156 0.68065 0.0
C301 C 0.65073 0.65235 0.74486 0.0
C302 C 0.66136 0.68094 0.79286 0.0
C303 C 0.68707 0.68514 0.86286 0.0
C304 C 0.72004 0.71558 0.84151 0.0
C305 C 0.67572 0.6864 0.96004 0.0
C306 C 0.68848 0.65408 0.84763 0.0
C307 C 0.66734 0.63585 0.77856 0.0
C308 C 0.66243 0.60539 0.75442 0.0
C309 C 0.67934 0.59294 0.80244 0.0
C310 C 0.70113 0.61086 0.87379 0.0
C311 C 0.70618 0.64213 0.89593 0.0
H312 H 0.03631 0.75541 0.34881 0.0
H313 H 0.0912 0.80187 0.10327 0.0
H314 H 0.03982 0.78419 0.01976 0.0
H315 H 0.97609 0.68563 0.24289 0.0
H316 H 0.94287 0.68101 0.31316 0.0
H317 H 0.98384 0.70132 0.35746 0.0
H318 H 0.97901 0.7522 0.39434 0.0
H319 H 0.93792 0.73198 0.35005 0.0
H320 H 0.96781 0.77118 0.30531 0.0
H321 H 0.98315 0.75539 0.95739 0.0
H322 H 0.92476 0.71838 0.92225 0.0
H323 H 0.90613 0.69091 0.20715 0.0
C324 C 0.03754 0.76231 0.27785 0.0
C325 C 0.06792 0.78037 0.23308 0.0
C326 C 0.06837 0.78876 0.13994 0.0
C327 C 0.03926 0.77867 0.09162 0.0
C328 C 1.00979 0.76038 0.13731 0.0
C329 C 1.00867 0.75247 0.22853 0.0
C330 C 0.9738 0.73047 0.25965 0.0
C331 C 0.96887 0.69767 0.29535 0.0
C332 C 0.96406 0.74748 0.3316 0.0
C333 C 0.95562 0.72633 0.17092 0.0
C334 C 0.97684 0.74404 0.10136 0.0
C335 C 0.9662 0.74196 0.01159 0.0
C336 C 0.93309 0.72088 -0.00782 0.0
C337 C 0.91104 0.70232 0.06226 0.0
C338 C 0.92239 0.70557 0.1529 0.0
H339 H 0.3851 0.04894 0.59045 0.0
H340 H 0.30615 0.07078 0.59618 0.0
H341 H 0.26775 0.01505 0.54332 0.0
H342 H 0.35869 0.99928 0.38848 0.0
H343 H 0.3706 0.97087 0.43048 0.0
H344 H 0.39204 0.0126 0.46822 0.0
H345 H 0.37997 0.99314 0.63621 0.0
H346 H 0.35852 0.95136 0.59903 0.0
H347 H 0.33836 0.96649 0.67132 0.0
H348 H 0.23795 0.95722 0.49065 0.0
H349 H 0.2183 0.90064 0.4429 0.0
H350 H 0.3165 0.91599 0.47187 0.0
C351 C 0.35974 0.04205 0.58052 0.0
C352 C 0.34864 0.06427 0.59746 0.0
C353 C 0.31524 0.05422 0.58372 0.0
C354 C 0.29324 0.02262 0.55362 0.0
C355 C 0.30499 1.00136 0.53764 0.0
C356 C 0.33743 0.01059 0.55064 0.0
C357 C 0.34366 0.98289 0.52912 0.0
C358 C 0.36767 0.99196 0.44932 0.0
C359 C 0.35584 0.97288 0.61399 0.0
C360 C 0.3096 0.95661 0.50221 0.0
C361 C 0.28773 0.96785 0.50745 0.0
C362 C 0.25483 0.94813 0.48624 0.0
C363 C 0.24393 0.91599 0.45915 0.0
C364 C 0.26584 0.9038 0.45361 0.0
C365 C 0.29914 0.92453 0.47535 0.0
H366 H 0.13994 0.35884 0.73497 0.0
H367 H 0.16921 0.46053 0.78037 0.0
H368 H 0.18961 0.4738 0.62407 0.0
H369 H 0.20502 0.3708 0.59307 0.0
H370 H 0.18075 0.3386 0.51397 0.0
H371 H 0.16762 0.33573 0.6304 0.0
H372 H 0.1121 0.32885 0.57731 0.0
H373 H 0.12458 0.33031 0.46089 0.0
H374 H 0.11169 0.35819 0.49924 0.0
H375 H 0.2126 0.4779 0.47357 0.0
H376 H 0.21974 0.47025 0.31198 0.0
H377 H 0.17083 0.36539 0.35362 0.0
C378 C 0.14988 0.38369 0.71106 0.0
C379 C 0.15337 0.40869 0.77007 0.0
C380 C 0.16627 0.44092 0.73651 0.0
C381 C 0.17846 0.44888 0.64825 0.0
C382 C 0.17669 0.42418 0.5939 0.0
C383 C 0.16137 0.39202 0.62184 0.0
C384 C 0.16055 0.37006 0.54599 0.0
C385 C 0.17963 0.35278 0.57249 0.0
C386 C 0.12513 0.34541 0.51924 0.0
C387 C 0.17792 0.39513 0.47156 0.0
C388 C 0.18794 0.42624 0.50246 0.0
C389 C 0.20446 0.45367 0.44768 0.0
C390 C 0.20858 0.44905 0.35627 0.0
C391 C 0.19533 0.4172 0.32052 0.0
C392 C 0.18136 0.38997 0.37958 0.0
H393 H 0.81585 0.18573 0.04047 0.0
H394 H 0.75375 0.22755 0.08592 0.0
H395 H 0.75441 0.23885 0.9223 0.0
H396 H 0.86663 0.24068 0.89146 0.0
H397 H 0.87142 0.21419 0.81321 0.0
H398 H 0.86083 0.20192 0.93005 0.0
H399 H 0.80887 0.14879 0.881 0.0
H400 H 0.82007 0.16003 0.76359 0.0
H401 H 0.78039 0.15101 0.80324 0.0
H402 H 0.77276 0.25808 0.7689 0.0
H403 H 0.79365 0.2693 0.61249 0.0
H404 H 0.8412 0.21209 0.65904 0.0
C405 C 0.80101 0.19558 0.0148 0.0
C406 C 0.78495 0.20604 0.07453 0.0
C407 C 0.76631 0.2196 0.04019 0.0
C408 C 0.76662 0.22621 0.94774 0.0
C409 C 0.78509 0.21837 0.89121 0.0
C410 C 0.80081 0.20209 0.92199 0.0
C411 C 0.82057 0.19852 0.84675 0.0
C412 C 0.85701 0.21481 0.87195 0.0
C413 C 0.80663 0.16244 0.82216 0.0
C414 C 0.81481 0.21692 0.77119 0.0
C415 C 0.79454 0.22836 0.79904 0.0
C416 C 0.78778 0.2484 0.74475 0.0
C417 C 0.80032 0.25514 0.65672 0.0
C418 C 0.8188 0.24131 0.62399 0.0
C419 C 0.82696 0.22277 0.68267 0.0
H420 H 0.51868 0.68646 0.34748 0.0
H421 H 0.62328 0.74256 0.3941 0.0
H422 H 0.63226 0.75631 0.23139 0.0
H423 H 0.52537 0.65698 0.11008 0.0
H424 H 0.49056 0.65951 0.07046 0.0
H425 H 0.49282 0.64923 0.1877 0.0
H426 H 0.48451 0.69697 0.23773 0.0
H427 H 0.48374 0.7084 0.12097 0.0
H428 H 0.51283 0.73777 0.19957 0.0
H429 H 0.62937 0.77446 0.07849 0.0
H430 H 0.61683 0.78229 0.92123 0.0
H431 H 0.51449 0.71112 0.96524 0.0
C432 C 0.54347 0.70015 0.32224 0.0
C433 C 0.57031 0.71372 0.3824 0.0
C434 C 0.60247 0.73218 0.34832 0.0
C435 C 0.60782 0.74025 0.25638 0.0
C436 C 0.58074 0.72896 0.19981 0.0
C437 C 0.54931 0.70814 0.22984 0.0
C438 C 0.52467 0.7008 0.15428 0.0
C439 C 0.50734 0.66447 0.12911 0.0
C440 C 0.5 0.71164 0.17972 0.0
C441 C 0.54722 0.72189 0.079 0.0
C442 C 0.57933 0.73824 0.10774 0.0
C443 C 0.60449 0.7611 0.05374 0.0
C444 C 0.59697 0.76579 0.96512 0.0
C445 C 0.56472 0.7471 0.93132 0.0
C446 C 0.53935 0.72558 -0.01032 0.0
H447 H 0.79072 0.60065 0.68201 0.0
H448 H 0.72865 0.49636 0.72411 0.0
H449 H 0.71389 0.48949 0.5621 0.0
H450 H 0.74161 0.61213 0.53559 0.0
H451 H 0.77239 0.64026 0.45804 0.0
H452 H 0.78297 0.63775 0.57463 0.0
H453 H 0.82796 0.62529 0.5235 0.0
H454 H 0.81859 0.62923 0.40656 0.0
H455 H 0.81787 0.5926 0.44441 0.0
H456 H 0.69646 0.49508 0.41004 0.0
H457 H 0.69075 0.50943 0.25316 0.0
H458 H 0.76786 0.60928 0.30006 0.0
C459 C 0.77524 0.57625 0.65615 0.0
C460 C 0.76041 0.54911 0.7154 0.0
C461 C 0.73996 0.51752 0.67972 0.0
C462 C 0.73125 0.51335 0.58803 0.0
C463 C 0.74399 0.54089 0.53292 0.0
C464 C 0.76668 0.57151 0.56392 0.0
C465 C 0.77599 0.59688 0.48928 0.0
C466 C 0.76774 0.62331 0.51605 0.0
C467 C 0.81226 0.61187 0.46444 0.0
C468 C 0.75402 0.57575 0.41316 0.0
C469 C 0.73538 0.54371 0.441 0.0
C470 C 0.71155 0.51986 0.38607 0.0
C471 C 0.70815 0.52846 0.2975 0.0
C472 C 0.72912 0.56044 0.26433 0.0
C473 C 0.75165 0.58465 0.32376 0.0
H474 H 0.18412 0.8043 0.68462 0.0
H475 H 0.23816 0.75374 0.64024 0.0
H476 H 0.25181 0.75804 0.80304 0.0
H477 H 0.23625 0.86067 0.8307 0.0
H478 H 0.20736 0.86121 0.90934 0.0
H479 H 0.1955 0.84903 0.79309 0.0
H480 H 0.147 0.79361 0.84518 0.0
H481 H 0.1577 0.8062 0.96191 0.0
H482 H 0.15419 0.76846 0.92382 0.0
H483 H 0.27045 0.7789 0.95576 0.0
H484 H 0.279 0.79963 0.11224 0.0
H485 H 0.20983 0.83334 0.06564 0.0
C486 C 0.19726 0.79263 0.71044 0.0
C487 C 0.21032 0.77888 0.65084 0.0
C488 C 0.22813 0.76447 0.68564 0.0
C489 C 0.23617 0.76695 0.77764 0.0
C490 C 0.22548 0.78321 0.83362 0.0
C491 C 0.20521 0.79454 0.80295 0.0
C492 C 0.19855 0.81231 0.87784 0.0
C493 C 0.21012 0.84791 0.85107 0.0
C494 C 0.1622 0.79405 0.90375 0.0
C495 C 0.2195 0.81041 0.95323 0.0
C496 C 0.2351 0.79391 0.92539 0.0
C497 C 0.25767 0.79103 -0.02021 0.0
C498 C 0.26282 0.80346 0.0679 0.0
C499 C 0.24491 0.81789 0.10075 0.0
C500 C 0.22372 0.82231 0.0419 0.0
H501 H 0.46189 0.1856 0.37605 0.0
H502 H 0.36295 0.16642 0.42023 0.0
H503 H 0.34845 0.1466 0.26367 0.0
H504 H 0.46584 0.21518 0.13873 0.0
H505 H 0.49076 0.1986 0.10108 0.0
H506 H 0.49346 0.21177 0.21722 0.0
H507 H 0.481 0.15446 0.27169 0.0
H508 H 0.47692 0.14076 0.15558 0.0
H509 H 0.44391 0.11896 0.23483 0.0
H510 H 0.3423 0.12326 0.11264 0.0
H511 H 0.34899 0.11463 0.95121 0.0
H512 H 0.4528 0.15335 -0.00546 0.0
C513 C 0.43746 0.17804 0.35174 0.0
C514 C 0.41349 0.17727 0.41044 0.0
C515 C 0.38179 0.16735 0.37649 0.0
C516 C 0.3731 0.15552 0.28808 0.0
C517 C 0.39663 0.15465 0.23389 0.0
C518 C 0.42853 0.16703 0.26228 0.0
C519 C 0.44938 0.16535 0.18665 0.0
C520 C 0.47645 0.19977 0.15929 0.0
C521 C 0.46364 0.14358 0.21387 0.0
C522 C 0.42393 0.14972 0.11211 0.0
C523 C 0.39354 0.14295 0.1425 0.0
C524 C 0.36598 0.12878 0.08731 0.0
C525 C 0.36998 0.12369 -0.00388 0.0
C526 C 0.40139 0.13347 0.96104 0.0
C527 C 0.42848 0.14515 0.02036 0.0
H528 H 0.20569 0.57736 0.2315 0.0
H529 H 0.12794 0.55246 0.03379 0.0
H530 H 0.12564 0.60132 0.07782 0.0
H531 H 0.17913 0.61243 0.40209 0.0
H532 H 0.21974 0.6449 0.42833 0.0
H533 H 0.21364 0.60652 0.38684 0.0
H534 H 0.2541 0.6363 0.25468 0.0
H535 H 0.26054 0.67477 0.29624 0.0
H536 H 0.24745 0.66289 0.18028 0.0
H537 H 0.13166 0.6531 0.14408 0.0
H538 H 0.14966 0.7067 0.21504 0.0
H539 H 0.22714 0.70031 0.35626 0.0
C540 C 0.18837 0.58212 0.19612 0.0
C541 C 0.16678 0.56047 0.12942 0.0
C542 C 0.14422 0.56789 0.08679 0.0
C543 C 0.14284 0.5958 0.11089 0.0
C544 C 0.16448 0.61644 0.17673 0.0
C545 C 0.18716 0.6102 0.21767 0.0
C546 C 0.20906 0.63725 0.28231 0.0
C547 C 0.20514 0.6245 0.38072 0.0
C548 C 0.2449 0.65378 0.2515 0.0
C549 C 0.19521 0.65978 0.27108 0.0
C550 C 0.16914 0.64708 0.21111 0.0
C551 C 0.15212 0.66334 0.19086 0.0
C552 C 0.16241 0.69365 0.23179 0.0
C553 C 0.1898 0.70758 0.29083 0.0
C554 C 0.2062 0.69025 0.31106 0.0
H555 H 0.69757 0.2121 0.34966 0.0
H556 H 0.71356 0.1427 0.50292 0.0
H557 H 0.6582 0.11909 0.56898 0.0
H558 H 0.65558 0.22811 0.51584 0.0
H559 H 0.62694 0.23049 0.43915 0.0
H560 H 0.66658 0.23998 0.39862 0.0
H561 H 0.63974 0.19664 0.2716 0.0
H562 H 0.59994 0.18718 0.31125 0.0
H563 H 0.61002 0.1553 0.30172 0.0
H564 H 0.60356 0.10797 0.63237 0.0
H565 H 0.55319 0.10753 0.67838 0.0
H566 H 0.57126 0.18049 0.47084 0.0
C567 C 0.6892 0.19158 0.39598 0.0
C568 C 0.70976 0.17921 0.42136 0.0
C569 C 0.69802 0.15235 0.48211 0.0
C570 C 0.66668 0.13886 0.52012 0.0
C571 C 0.64719 0.15207 0.49501 0.0
C572 C 0.65781 0.17742 0.43291 0.0
C573 C 0.63256 0.18773 0.41855 0.0
C574 C 0.64624 0.2237 0.44463 0.0
C575 C 0.61981 0.18132 0.31992 0.0
C576 C 0.60656 0.16506 0.48469 0.0
C577 C 0.61533 0.14465 0.52828 0.0
C578 C 0.59612 0.12336 0.59719 0.0
C579 C 0.56738 0.12317 0.62258 0.0
C580 C 0.55797 0.14402 0.57879 0.0
C581 C 0.57771 0.1646 0.50744 0.0
H582 H 0.2758 0.50665 -0.00432 0.0
H583 H 0.26512 0.41642 0.89044 0.0
H584 H 0.31888 0.44754 0.81445 0.0
H585 H 0.31238 0.5556 0.80311 0.0
H586 H 0.34005 0.59149 0.86642 0.0
H587 H 0.30169 0.56195 0.91586 0.0
H588 H 0.33194 0.55588 0.05577 0.0
H589 H 0.37043 0.58566 0.00723 0.0
H590 H 0.36367 0.54591 0.03866 0.0
H591 H 0.3723 0.48962 0.74041 0.0
H592 H 0.42278 0.5386 0.68591 0.0
H593 H 0.39867 0.60027 0.84535 0.0
C594 C 0.28491 0.49337 0.95742 0.0
C595 C 0.26632 0.45915 0.94869 0.0
C596 C 0.27911 0.44263 0.89841 0.0
C597 C 0.30952 0.46012 0.85474 0.0
C598 C 0.32695 0.49399 0.86334 0.0
C599 C 0.31528 0.51034 0.9147 0.0
C600 C 0.33854 0.54675 0.91342 0.0
C601 C 0.32218 0.56501 0.87222 0.0
C602 C 0.35194 0.55928 0.00947 0.0
C603 C 0.36485 0.54853 0.85157 0.0
C604 C 0.3578 0.51789 0.8231 0.0
C605 C 0.3782 0.51366 0.76308 0.0
C606 C 0.40664 0.54147 0.73223 0.0
C607 C 0.41428 0.57283 0.76192 0.0
C608 C 0.39319 0.57637 0.8222 0.0
H609 H 0.76212 0.36335 0.25031 0.0
H610 H 0.86747 0.40923 0.22685 0.0
H611 H 0.87001 0.46023 0.1752 0.0
H612 H 0.75015 0.39802 0.04937 0.0
H613 H 0.71754 0.40262 0.09632 0.0
H614 H 0.72451 0.37075 0.13773 0.0
H615 H 0.7299 0.39234 0.30256 0.0
H616 H 0.72292 0.42429 0.26156 0.0
H617 H 0.75914 0.43435 0.32673 0.0
H618 H 0.86033 0.50606 0.1193 0.0
H619 H 0.83905 0.54154 0.06379 0.0
H620 H 0.74031 0.46396 0.12006 0.0
C621 C 0.78579 0.38403 0.23421 0.0
C622 C 0.81459 0.38214 0.2429 0.0
C623 C 0.84505 0.4101 0.22221 0.0
C624 C 0.84674 0.43917 0.19226 0.0
C625 C 0.81778 0.43996 0.18334 0.0
C626 C 0.78789 0.41306 0.20389 0.0
C627 C 0.76018 0.41963 0.18588 0.0
C628 C 0.73672 0.39638 0.11298 0.0
C629 C 0.74197 0.41753 0.27447 0.0
C630 C 0.77904 0.45428 0.15078 0.0
C631 C 0.81225 0.46583 0.15033 0.0
C632 C 0.83435 0.49725 0.11963 0.0
C633 C 0.82208 0.51723 0.08824 0.0
C634 C 0.78804 0.50554 0.08722 0.0
C635 C 0.76648 0.47369 0.11951 0.0
H636 H 0.40555 0.83162 0.54548 0.0
H637 H 0.36374 0.76856 0.31168 0.0
H638 H 0.40617 0.75274 0.32244 0.0
H639 H 0.49324 0.85689 0.49538 0.0
H640 H 0.50276 0.8565 0.61429 0.0
H641 H 0.4721 0.86655 0.58061 0.0
H642 H 0.43024 0.82081 0.68592 0.0
H643 H 0.4606 0.81045 0.71935 0.0
H644 H 0.42234 0.7797 0.6717 0.0
H645 H 0.44715 0.73797 0.37002 0.0
H646 H 0.48672 0.72658 0.44822 0.0
H647 H 0.50454 0.80015 0.65004 0.0
C648 C 0.40618 0.81533 0.4951 0.0
C649 C 0.38196 0.80162 0.42668 0.0
C650 C 0.38256 0.77958 0.3634 0.0
C651 C 0.4065 0.77051 0.3691 0.0
C652 C 0.42973 0.78383 0.43835 0.0
C653 C 0.43009 0.80604 0.4998 0.0
C654 C 0.45637 0.81462 0.57174 0.0
C655 C 0.48268 0.85079 0.56508 0.0
C656 C 0.44148 0.80586 0.66784 0.0
C657 C 0.46975 0.7928 0.54315 0.0
C658 C 0.4541 0.77551 0.46546 0.0
C659 C 0.46007 0.75183 0.42966 0.0
C660 C 0.48241 0.74543 0.47465 0.0
C661 C 0.49874 0.76278 0.55409 0.0
C662 C 0.49277 0.78712 0.58819 0.0
H663 H 0.56913 0.41211 0.84918 0.0
H664 H 0.61441 0.38305 0.05894 0.0
H665 H 0.57144 0.32561 0.03997 0.0
H666 H 0.4817 0.34755 0.90051 0.0
H667 H 0.47098 0.34195 0.78134 0.0
H668 H 0.50171 0.38136 0.82234 0.0
H669 H 0.5426 0.38199 0.70454 0.0
H670 H 0.51224 0.34252 0.66392 0.0
H671 H 0.55115 0.3489 0.7035 0.0
H672 H 0.53039 0.27206 -0.0168 0.0
H673 H 0.49076 0.2241 0.89605 0.0
H674 H 0.46966 0.28595 0.72323 0.0
C675 C 0.56911 0.39365 0.89316 0.0
C676 C 0.59463 0.40173 0.95632 0.0
C677 C 0.59476 0.3771 0.01091 0.0
C678 C 0.57047 0.34453 0.00069 0.0
C679 C 0.54619 0.33705 0.93575 0.0
C680 C 0.54498 0.36081 0.88342 0.0
C681 C 0.51801 0.3456 0.81244 0.0
C682 C 0.49152 0.35466 0.83025 0.0
C683 C 0.53184 0.35533 0.71539 0.0
C684 C 0.5053 0.30967 0.83064 0.0
C685 C 0.52182 0.30547 0.9028 0.0
C686 C 0.51681 0.27493 0.92786 0.0
C687 C 0.4945 0.24792 0.87757 0.0
C688 C 0.47728 0.25155 0.80355 0.0
C689 C 0.48224 0.28268 0.78063 0.0
loop_
_geom_bond_atom_site_label_1
_geom_bond_atom_site_label_2
_geom_bond_distance
_geom_bond_site_symmetry_2
_ccdc_geom_bond_type
C0 O16 1.251 . S
C0 O18 1.254 . S
N1 C2 1.333 1_554 S
N1 C6 1.307 . S
N1 Zn7 2.020 . S
C2 N1 1.333 1_556 S
C2 C3 1.379 . S
C2 H20 0.952 . S
C3 C2 1.379 . S
C3 C4 1.390 1_556 S
C3 H30 0.949 . S
C4 C3 1.390 1_554 S
C4 C5 1.357 . S
C5 C4 1.357 . S
C5 C6 1.370 . S
C5 H31 0.950 . S
C6 N1 1.307 . S
C6 C5 1.370 . S
C6 H24 0.948 . S
Zn7 N1 2.020 . S
Zn7 O16 2.039 1_554 S
Zn7 O22 2.034 . S
Zn7 O26 2.025 . S
Zn7 O28 2.024 . S
C8 O27 1.246 . S
C8 O28 1.249 . S
N9 C10 1.307 . S
N9 C11 1.333 . S
N9 Zn15 2.020 . S
C10 N9 1.307 . S
C10 C14 1.370 . S
C10 H21 0.948 . S
C11 N9 1.333 . S
C11 C12 1.379 . S
C11 H19 0.952 . S
C12 C11 1.379 . S
C12 C13 1.390 . S
C12 H32 0.949 . S
C13 C12 1.390 . S
C13 C14 1.357 . S
C14 C10 1.370 . S
C14 C13 1.357 . S
C14 H33 0.950 . S
Zn15 N9 2.020 . S
Zn15 O18 2.025 1_554 S
Zn15 O23 2.024 . S
Zn15 O25 2.039 . S
Zn15 O27 2.034 . S
O16 C0 1.251 . S
O16 Zn7 2.039 1_556 S
C17 O22 1.246 . S
C17 O23 1.249 . S
O18 C0 1.254 . S
O18 Zn15 2.025 1_556 S
H19 C11 0.952 . S
H20 C2 0.952 . S
H21 C10 0.948 . S
O22 Zn7 2.034 . S
O22 C17 1.246 . S
O23 Zn15 2.024 . S
O23 C17 1.249 . S
H24 C6 0.948 . S
O25 Zn15 2.039 . S
O25 C29 1.251 . S
O26 Zn7 2.025 . S
O26 C29 1.254 . S
O27 C8 1.246 . S
O27 Zn15 2.034 . S
O28 Zn7 2.024 . S
O28 C8 1.249 . S
C29 O25 1.251 . S
C29 O26 1.254 . S
H30 C3 0.949 . S
H31 C5 0.950 . S
H32 C12 0.949 . S
H33 C14 0.950 . S
C34 O50 1.251 . S
C34 O52 1.254 . S
N35 C36 1.333 . S
N35 C40 1.307 . S
N35 Zn41 2.020 . S
C36 N35 1.333 . S
C36 C37 1.379 . S
C36 H54 0.952 . S
C37 C36 1.379 . S
C37 C38 1.390 . S
C37 H64 0.949 . S
C38 C37 1.390 . S
C38 C39 1.357 . S
C39 C38 1.357 . S
C39 C40 1.370 . S
C39 H65 0.950 . S
C40 N35 1.307 . S
C40 C39 1.370 . S
C40 H58 0.948 . S
Zn41 N35 2.020 . S
Zn41 O50 2.039 . S
Zn41 O56 2.034 . S
Zn41 O60 2.025 . S
Zn41 O62 2.024 . S
C42 O61 1.246 . S
C42 O62 1.249 . S
N43 C44 1.307 . S
N43 C45 1.333 . S
N43 Zn49 2.020 . S
C44 N43 1.307 . S
C44 C48 1.370 . S
C44 H55 0.948 . S
C45 N43 1.333 . S
C45 C46 1.379 . S
C45 H53 0.952 . S
C46 C45 1.379 . S
C46 C47 1.390 . S
C46 H66 0.949 . S
C47 C46 1.390 . S
C47 C48 1.357 . S
C48 C44 1.370 . S
C48 C47 1.357 . S
C48 H67 0.950 . S
Zn49 N43 2.020 . S
Zn49 O52 2.025 . S
Zn49 O57 2.024 . S
Zn49 O59 2.039 . S
Zn49 O61 2.034 . S
O50 C34 1.251 . S
O50 Zn41 2.039 . S
C51 O56 1.246 . S
C51 O57 1.249 . S
O52 C34 1.254 . S
O52 Zn49 2.025 . S
H53 C45 0.952 . S
H54 C36 0.952 . S
H55 C44 0.948 . S
O56 Zn41 2.034 . S
O56 C51 1.246 . S
O57 Zn49 2.024 . S
O57 C51 1.249 . S
H58 C40 0.948 . S
O59 Zn49 2.039 . S
O59 C63 1.251 . S
O60 Zn41 2.025 . S
O60 C63 1.254 . S
O61 C42 1.246 . S
O61 Zn49 2.034 . S
O62 Zn41 2.024 . S
O62 C42 1.249 . S
C63 O59 1.251 . S
C63 O60 1.254 . S
H64 C37 0.949 . S
H65 C39 0.950 . S
H66 C46 0.949 . S
H67 C48 0.950 . S
C68 O84 1.251 . S
C68 O86 1.254 . S
N69 C70 1.333 . S
N69 C74 1.307 . S
N69 Zn75 2.020 . S
C70 N69 1.333 . S
C70 C71 1.379 . S
C70 H88 0.952 . S
C71 C70 1.379 . S
C71 C72 1.390 . S
C71 H98 0.949 . S
C72 C71 1.390 . S
C72 C73 1.357 . S
C73 C72 1.357 . S
C73 C74 1.370 . S
C73 H99 0.950 . S
C74 N69 1.307 . S
C74 C73 1.370 . S
C74 H92 0.948 . S
Zn75 N69 2.020 . S
Zn75 O84 2.039 . S
Zn75 O90 2.034 . S
Zn75 O94 2.025 . S
Zn75 O96 2.024 . S
C76 O95 1.246 . S
C76 O96 1.249 . S
N77 C78 1.307 . S
N77 C79 1.333 . S
N77 Zn83 2.020 . S
C78 N77 1.307 . S
C78 C82 1.370 . S
C78 H89 0.948 . S
C79 N77 1.333 . S
C79 C80 1.379 . S
C79 H87 0.952 . S
C80 C79 1.379 . S
C80 C81 1.390 . S
C80 H100 0.949 . S
C81 C80 1.390 . S
C81 C82 1.357 . S
C82 C78 1.370 . S
C82 C81 1.357 . S
C82 H101 0.950 . S
Zn83 N77 2.020 . S
Zn83 O86 2.025 . S
Zn83 O91 2.024 . S
Zn83 O93 2.039 . S
Zn83 O95 2.034 . S
O84 C68 1.251 . S
O84 Zn75 2.039 . S
C85 O90 1.246 . S
C85 O91 1.249 . S
O86 C68 1.254 . S
O86 Zn83 2.025 . S
H87 C79 0.952 . S
H88 C70 0.952 . S
H89 C78 0.948 . S
O90 Zn75 2.034 . S
O90 C85 1.246 . S
O91 Zn83 2.024 . S
O91 C85 1.249 . S
H92 C74 0.948 . S
O93 Zn83 2.039 . S
O93 C97 1.251 . S
O94 Zn75 2.025 . S
O94 C97 1.254 . S
O95 C76 1.246 . S
O95 Zn83 2.034 . S
O96 Zn75 2.024 . S
O96 C76 1.249 . S
C97 O93 1.251 . S
C97 O94 1.254 . S
H98 C71 0.949 . S
H99 C73 0.950 . S
H100 C80 0.949 . S
H101 C82 0.950 . S
C102 O118 1.251 . S
C102 O120 1.254 . S
N103 C104 1.333 . S
N103 C108 1.307 1_554 S
N103 Zn109 2.020 . S
C104 N103 1.333 . S
C104 C105 1.379 . S
C104 H122 0.952 . S
C105 C104 1.379 . S
C105 C106 1.390 . S
C105 H132 0.949 . S
C106 C105 1.390 . S
C106 C107 1.357 1_554 S
C107 C106 1.357 1_556 S
C107 C108 1.370 . S
C107 H133 0.950 . S
C108 N103 1.307 1_556 S
C108 C107 1.370 . S
C108 H126 0.948 . S
Zn109 N103 2.020 . S
Zn109 O118 2.039 . S
Zn109 O124 2.034 1_554 S
Zn109 O128 2.025 1_554 S
Zn109 O130 2.024 . S
C110 O129 1.246 . S
C110 O130 1.249 . S
N111 C112 1.307 1_556 S
N111 C113 1.333 . S
N111 Zn117 2.020 . S
C112 N111 1.307 1_554 S
C112 C116 1.370 . S
C112 H123 0.948 . S
C113 N111 1.333 . S
C113 C114 1.379 . S
C113 H121 0.952 . S
C114 C113 1.379 . S
C114 C115 1.390 . S
C114 H134 0.949 . S
C115 C114 1.390 . S
C115 C116 1.357 1_556 S
C116 C112 1.370 . S
C116 C115 1.357 1_554 S
C116 H135 0.950 . S
Zn117 N111 2.020 . S
Zn117 O120 2.025 1_556 S
Zn117 O125 2.024 . S
Zn117 O127 2.039 . S
Zn117 O129 2.034 1_556 S
O118 C102 1.251 . S
O118 Zn109 2.039 . S
C119 O124 1.246 . S
C119 O125 1.249 . S
O120 C102 1.254 . S
O120 Zn117 2.025 1_554 S
H121 C113 0.952 . S
H122 C104 0.952 . S
H123 C112 0.948 . S
O124 Zn109 2.034 1_556 S
O124 C119 1.246 . S
O125 Zn117 2.024 . S
O125 C119 1.249 . S
H126 C108 0.948 . S
O127 Zn117 2.039 . S
O127 C131 1.251 . S
O128 Zn109 2.025 1_556 S
O128 C131 1.254 . S
O129 C110 1.246 . S
O129 Zn117 2.034 1_554 S
O130 Zn109 2.024 . S
O130 C110 1.249 . S
C131 O127 1.251 . S
C131 O128 1.254 . S
H132 C105 0.949 . S
H133 C107 0.950 . S
H134 C114 0.949 . S
H135 C116 0.950 . S
C136 O152 1.251 . S
C136 O154 1.254 . S
N137 C138 1.333 . S
N137 C142 1.307 . S
N137 Zn143 2.020 . S
C138 N137 1.333 . S
C138 C139 1.379 . S
C138 H156 0.952 . S
C139 C138 1.379 . S
C139 C140 1.390 . S
C139 H166 0.949 . S
C140 C139 1.390 . S
C140 C141 1.357 . S
C141 C140 1.357 . S
C141 C142 1.370 . S
C141 H167 0.950 . S
C142 N137 1.307 . S
C142 C141 1.370 . S
C142 H160 0.948 . S
Zn143 N137 2.020 . S
Zn143 O152 2.039 . S
Zn143 O158 2.034 . S
Zn143 O162 2.025 . S
Zn143 O164 2.024 . S
C144 O163 1.246 . S
C144 O164 1.249 . S
N145 C146 1.307 . S
N145 C147 1.333 . S
N145 Zn151 2.020 . S
C146 N145 1.307 . S
C146 C150 1.370 . S
C146 H157 0.948 . S
C147 N145 1.333 . S
C147 C148 1.379 . S
C147 H155 0.952 . S
C148 C147 1.379 . S
C148 C149 1.390 . S
C148 H168 0.949 . S
C149 C148 1.390 . S
C149 C150 1.357 . S
C150 C146 1.370 . S
C150 C149 1.357 . S
C150 H169 0.950 . S
Zn151 N145 2.020 . S
Zn151 O154 2.025 . S
Zn151 O159 2.024 . S
Zn151 O161 2.039 . S
Zn151 O163 2.034 . S
O152 C136 1.251 . S
O152 Zn143 2.039 . S
C153 O158 1.246 . S
C153 O159 1.249 . S
O154 C136 1.254 . S
O154 Zn151 2.025 . S
H155 C147 0.952 . S
H156 C138 0.952 . S
H157 C146 0.948 . S
O158 Zn143 2.034 . S
O158 C153 1.246 . S
O159 Zn151 2.024 . S
O159 C153 1.249 . S
H160 C142 0.948 . S
O161 Zn151 2.039 . S
O161 C165 1.251 . S
O162 Zn143 2.025 . S
O162 C165 1.254 . S
O163 C144 1.246 . S
O163 Zn151 2.034 . S
O164 Zn143 2.024 . S
O164 C144 1.249 . S
C165 O161 1.251 . S
C165 O162 1.254 . S
H166 C139 0.949 . S
H167 C141 0.950 . S
H168 C148 0.949 . S
H169 C150 0.950 . S
C170 O186 1.251 . S
C170 O188 1.254 . S
N171 C172 1.333 . S
N171 C176 1.307 . S
N171 Zn177 2.020 . S
C172 N171 1.333 . S
C172 C173 1.379 . S
C172 H190 0.952 . S
C173 C172 1.379 . S
C173 C174 1.390 . S
C173 H200 0.949 . S
C174 C173 1.390 . S
C174 C175 1.357 . S
C175 C174 1.357 . S
C175 C176 1.370 . S
C175 H201 0.950 . S
C176 N171 1.307 . S
C176 C175 1.370 . S
C176 H194 0.948 . S
Zn177 N171 2.020 . S
Zn177 O186 2.039 . S
Zn177 O192 2.034 . S
Zn177 O196 2.025 . S
Zn177 O198 2.024 . S
C178 O197 1.246 . S
C178 O198 1.249 . S
N179 C180 1.307 . S
N179 C181 1.333 . S
N179 Zn185 2.020 . S
C180 N179 1.307 . S
C180 C184 1.370 . S
C180 H191 0.948 . S
C181 N179 1.333 . S
C181 C182 1.379 . S
C181 H189 0.952 . S
C182 C181 1.379 . S
C182 C183 1.390 . S
C182 H202 0.949 . S
C183 C182 1.390 . S
C183 C184 1.357 . S
C184 C180 1.370 . S
C184 C183 1.357 . S
C184 H203 0.950 . S
Zn185 N179 2.020 . S
Zn185 O188 2.025 . S
Zn185 O193 2.024 . S
Zn185 O195 2.039 . S
Zn185 O197 2.034 . S
O186 C170 1.251 . S
O186 Zn177 2.039 . S
C187 O192 1.246 . S
C187 O193 1.249 . S
O188 C170 1.254 . S
O188 Zn185 2.025 . S
H189 C181 0.952 . S
H190 C172 0.952 . S
H191 C180 0.948 . S
O192 Zn177 2.034 . S
O192 C187 1.246 . S
O193 Zn185 2.024 . S
O193 C187 1.249 . S
H194 C176 0.948 . S
O195 Zn185 2.039 . S
O195 C199 1.251 . S
O196 Zn177 2.025 . S
O196 C199 1.254 . S
O197 C178 1.246 . S
O197 Zn185 2.034 . S
O198 Zn177 2.024 . S
O198 C178 1.249 . S
C199 O195 1.251 . S
C199 O196 1.254 . S
H200 C173 0.949 . S
H201 C175 0.950 . S
H202 C182 0.949 . S
H203 C184 0.950 . S
H204 C216 0.930 . S
H205 C218 0.930 . S
H206 C219 0.930 . S
H207 C223 0.959 . S
H208 C223 0.959 . S
H209 C223 0.961 . S
H210 C224 0.960 . S
H211 C224 0.961 . S
H212 C224 0.959 . S
H213 C227 0.929 . S
H214 C228 0.931 . S
H215 C230 0.930 1_554 S
C216 H204 0.930 . S
C216 C217 1.399 . S
C216 C221 1.399 . S
C217 C216 1.399 . S
C217 C218 1.376 . S
C218 H205 0.930 . S
C218 C217 1.376 . S
C218 C219 1.388 . S
C219 H206 0.930 . S
C219 C218 1.388 . S
C219 C220 1.390 . S
C220 C219 1.390 . S
C220 C221 1.394 . S
C220 C226 1.465 . S
C221 C216 1.399 . S
C221 C220 1.394 . S
C221 C222 1.516 . S
C222 C221 1.516 . S
C222 C223 1.502 1_556 S
C222 C224 1.561 . S
C222 C225 1.526 . S
C223 H207 0.959 . S
C223 H208 0.959 . S
C223 H209 0.961 . S
C223 C222 1.502 1_554 S
C224 H210 0.960 . S
C224 H211 0.961 . S
C224 H212 0.959 . S
C224 C222 1.561 . S
C225 C222 1.526 . S
C225 C226 1.396 . S
C225 C230 1.390 . S
C226 C220 1.465 . S
C226 C225 1.396 . S
C226 C227 1.399 . S
C227 H213 0.929 . S
C227 C226 1.399 . S
C227 C228 1.385 . S
C228 H214 0.931 . S
C228 C227 1.385 . S
C228 C229 1.389 . S
C229 C228 1.389 . S
C229 C230 1.387 . S
C230 H215 0.930 1_556 S
C230 C225 1.390 . S
C230 C229 1.387 . S
H231 C243 0.930 . S
H232 C245 0.930 . S
H233 C246 0.930 . S
H234 C250 0.959 . S
H235 C250 0.959 . S
H236 C250 0.961 . S
H237 C251 0.960 . S
H238 C251 0.961 . S
H239 C251 0.959 . S
H240 C254 0.929 . S
H241 C255 0.931 . S
H242 C257 0.930 . S
C243 H231 0.930 . S
C243 C244 1.399 . S
C243 C248 1.399 1_455 S
C244 C243 1.399 . S
C244 C245 1.376 . S
C245 H232 0.930 . S
C245 C244 1.376 . S
C245 C246 1.388 . S
C246 H233 0.930 . S
C246 C245 1.388 . S
C246 C247 1.390 1_455 S
C247 C246 1.390 1_655 S
C247 C248 1.394 . S
C247 C253 1.465 . S
C248 C243 1.399 1_655 S
C248 C247 1.394 . S
C248 C249 1.516 . S
C249 C248 1.516 . S
C249 C250 1.502 . S
C249 C251 1.561 . S
C249 C252 1.526 . S
C250 H234 0.959 . S
C250 H235 0.959 . S
C250 H236 0.961 . S
C250 C249 1.502 . S
C251 H237 0.960 . S
C251 H238 0.961 . S
C251 H239 0.959 . S
C251 C249 1.561 . S
C252 C249 1.526 . S
C252 C253 1.396 . S
C252 C257 1.390 . S
C253 C247 1.465 . S
C253 C252 1.396 . S
C253 C254 1.399 . S
C254 H240 0.929 . S
C254 C253 1.399 . S
C254 C255 1.385 . S
C255 H241 0.931 . S
C255 C254 1.385 . S
C255 C256 1.389 . S
C256 C255 1.389 . S
C256 C257 1.387 . S
C257 H242 0.930 . S
C257 C252 1.390 . S
C257 C256 1.387 . S
H258 C270 0.930 . S
H259 C272 0.930 . S
H260 C273 0.930 1_565 S
H261 C277 0.959 . S
H262 C277 0.959 . S
H263 C277 0.961 . S
H264 C278 0.960 1_545 S
H265 C278 0.961 . S
H266 C278 0.959 . S
H267 C281 0.929 . S
H268 C282 0.931 . S
H269 C284 0.930 . S
C270 H258 0.930 . S
C270 C271 1.399 . S
C270 C275 1.399 1_545 S
C271 C270 1.399 . S
C271 C272 1.376 . S
C272 H259 0.930 . S
C272 C271 1.376 . S
C272 C273 1.388 . S
C273 H260 0.930 1_545 S
C273 C272 1.388 . S
C273 C274 1.390 1_545 S
C274 C273 1.390 1_565 S
C274 C275 1.394 . S
C274 C280 1.465 . S
C275 C270 1.399 1_565 S
C275 C274 1.394 . S
C275 C276 1.516 . S
C276 C275 1.516 . S
C276 C277 1.502 . S
C276 C278 1.561 . S
C276 C279 1.526 . S
C277 H261 0.959 . S
C277 H262 0.959 . S
C277 H263 0.961 . S
C277 C276 1.502 . S
C278 H264 0.960 1_565 S
C278 H265 0.961 . S
C278 H266 0.959 . S
C278 C276 1.561 . S
C279 C276 1.526 . S
C279 C280 1.396 . S
C279 C284 1.390 . S
C280 C274 1.465 . S
C280 C279 1.396 . S
C280 C281 1.399 . S
C281 H267 0.929 . S
C281 C280 1.399 . S
C281 C282 1.385 . S
C282 H268 0.931 . S
C282 C281 1.385 . S
C282 C283 1.389 . S
C283 C282 1.389 . S
C283 C284 1.387 . S
C284 H269 0.930 . S
C284 C279 1.390 . S
C284 C283 1.387 . S
H285 C297 0.930 . S
H286 C299 0.930 . S
H287 C300 0.930 . S
H288 C304 0.959 . S
H289 C304 0.959 1_554 S
H290 C304 0.961 . S
H291 C305 0.960 . S
H292 C305 0.961 . S
H293 C305 0.959 . S
H294 C308 0.929 . S
H295 C309 0.931 . S
H296 C311 0.930 1_554 S
C297 H285 0.930 . S
C297 C298 1.399 . S
C297 C302 1.399 . S
C298 C297 1.399 . S
C298 C299 1.376 . S
C299 H286 0.930 . S
C299 C298 1.376 . S
C299 C300 1.388 . S
C300 H287 0.930 . S
C300 C299 1.388 . S
C300 C301 1.390 . S
C301 C300 1.390 . S
C301 C302 1.394 . S
C301 C307 1.465 . S
C302 C297 1.399 . S
C302 C301 1.394 . S
C302 C303 1.516 . S
C303 C302 1.516 . S
C303 C304 1.502 . S
C303 C305 1.561 1_556 S
C303 C306 1.526 . S
C304 H288 0.959 . S
C304 H289 0.959 1_556 S
C304 H290 0.961 . S
C304 C303 1.502 . S
C305 H291 0.960 . S
C305 H292 0.961 . S
C305 H293 0.959 . S
C305 C303 1.561 1_554 S
C306 C303 1.526 . S
C306 C307 1.396 . S
C306 C311 1.390 . S
C307 C301 1.465 . S
C307 C306 1.396 . S
C307 C308 1.399 . S
C308 H294 0.929 . S
C308 C307 1.399 . S
C308 C309 1.385 . S
C309 H295 0.931 . S
C309 C308 1.385 . S
C309 C310 1.389 . S
C310 C309 1.389 . S
C310 C311 1.387 . S
C311 H296 0.930 1_556 S
C311 C306 1.390 . S
C311 C310 1.387 . S
H312 C324 0.930 . S
H313 C326 0.930 . S
H314 C327 0.930 . S
H315 C331 0.959 . S
H316 C331 0.959 . S
H317 C331 0.961 . S
H318 C332 0.960 . S
H319 C332 0.961 . S
H320 C332 0.959 . S
H321 C335 0.929 1_556 S
H322 C336 0.931 1_556 S
H323 C338 0.930 . S
C324 H312 0.930 . S
C324 C325 1.399 . S
C324 C329 1.399 1_455 S
C325 C324 1.399 . S
C325 C326 1.376 . S
C326 H313 0.930 . S
C326 C325 1.376 . S
C326 C327 1.388 . S
C327 H314 0.930 . S
C327 C326 1.388 . S
C327 C328 1.390 1_455 S
C328 C327 1.390 1_655 S
C328 C329 1.394 . S
C328 C334 1.465 . S
C329 C324 1.399 1_655 S
C329 C328 1.394 . S
C329 C330 1.516 . S
C330 C329 1.516 . S
C330 C331 1.502 . S
C330 C332 1.561 . S
C330 C333 1.526 . S
C331 H315 0.959 . S
C331 H316 0.959 . S
C331 H317 0.961 . S
C331 C330 1.502 . S
C332 H318 0.960 . S
C332 H319 0.961 . S
C332 H320 0.959 . S
C332 C330 1.561 . S
C333 C330 1.526 . S
C333 C334 1.396 . S
C333 C338 1.390 . S
C334 C328 1.465 . S
C334 C333 1.396 . S
C334 C335 1.399 . S
C335 H321 0.929 1_554 S
C335 C334 1.399 . S
C335 C336 1.385 . S
C336 H322 0.931 1_554 S
C336 C335 1.385 . S
C336 C337 1.389 . S
C337 C336 1.389 . S
C337 C338 1.387 . S
C338 H323 0.930 . S
C338 C333 1.390 . S
C338 C337 1.387 . S
H339 C351 0.930 . S
H340 C353 0.930 . S
H341 C354 0.930 . S
H342 C358 0.959 . S
H343 C358 0.959 . S
H344 C358 0.961 1_545 S
H345 C359 0.960 1_545 S
H346 C359 0.961 . S
H347 C359 0.959 . S
H348 C362 0.929 . S
H349 C363 0.931 . S
H350 C365 0.930 . S
C351 H339 0.930 . S
C351 C352 1.399 . S
C351 C356 1.399 . S
C352 C351 1.399 . S
C352 C353 1.376 . S
C353 H340 0.930 . S
C353 C352 1.376 . S
C353 C354 1.388 1_545 S
C354 H341 0.930 . S
C354 C353 1.388 1_565 S
C354 C355 1.390 . S
C355 C354 1.390 . S
C355 C356 1.394 1_565 S
C355 C361 1.465 . S
C356 C351 1.399 . S
C356 C355 1.394 1_545 S
C356 C357 1.516 1_545 S
C357 C356 1.516 1_565 S
C357 C358 1.502 . S
C357 C359 1.561 . S
C357 C360 1.526 . S
C358 H342 0.959 . S
C358 H343 0.959 . S
C358 H344 0.961 1_565 S
C358 C357 1.502 . S
C359 H345 0.960 1_565 S
C359 H346 0.961 . S
C359 H347 0.959 . S
C359 C357 1.561 . S
C360 C357 1.526 . S
C360 C361 1.396 . S
C360 C365 1.390 . S
C361 C355 1.465 . S
C361 C360 1.396 . S
C361 C362 1.399 . S
C362 H348 0.929 . S
C362 C361 1.399 . S
C362 C363 1.385 . S
C363 H349 0.931 . S
C363 C362 1.385 . S
C363 C364 1.389 . S
C364 C363 1.389 . S
C364 C365 1.387 . S
C365 H350 0.930 . S
C365 C360 1.390 . S
C365 C364 1.387 . S
H366 C378 0.930 . S
H367 C380 0.930 . S
H368 C381 0.930 . S
H369 C385 0.959 . S
H370 C385 0.959 . S
H371 C385 0.961 . S
H372 C386 0.960 . S
H373 C386 0.961 . S
H374 C386 0.959 . S
H375 C389 0.929 . S
H376 C390 0.931 . S
H377 C392 0.930 . S
C378 H366 0.930 . S
C378 C379 1.399 . S
C378 C383 1.399 . S
C379 C378 1.399 . S
C379 C380 1.376 . S
C380 H367 0.930 . S
C380 C379 1.376 . S
C380 C381 1.388 . S
C381 H368 0.930 . S
C381 C380 1.388 . S
C381 C382 1.390 . S
C382 C381 1.390 . S
C382 C383 1.394 . S
C382 C388 1.465 . S
C383 C378 1.399 . S
C383 C382 1.394 . S
C383 C384 1.516 . S
C384 C383 1.516 . S
C384 C385 1.502 . S
C384 C386 1.561 . S
C384 C387 1.526 . S
C385 H369 0.959 . S
C385 H370 0.959 . S
C385 H371 0.961 . S
C385 C384 1.502 . S
C386 H372 0.960 . S
C386 H373 0.961 . S
C386 H374 0.959 . S
C386 C384 1.561 . S
C387 C384 1.526 . S
C387 C388 1.396 . S
C387 C392 1.390 . S
C388 C382 1.465 . S
C388 C387 1.396 . S
C388 C389 1.399 . S
C389 H375 0.929 . S
C389 C388 1.399 . S
C389 C390 1.385 . S
C390 H376 0.931 . S
C390 C389 1.385 . S
C390 C391 1.389 . S
C391 C390 1.389 . S
C391 C392 1.387 . S
C392 H377 0.930 . S
C392 C387 1.390 . S
C392 C391 1.387 . S
H393 C405 0.930 . S
H394 C407 0.930 . S
H395 C408 0.930 . S
H396 C412 0.959 . S
H397 C412 0.959 . S
H398 C412 0.961 . S
H399 C413 0.960 . S
H400 C413 0.961 . S
H401 C413 0.959 . S
H402 C416 0.929 . S
H403 C417 0.931 . S
H404 C419 0.930 . S
C405 H393 0.930 . S
C405 C406 1.399 . S
C405 C410 1.399 1_554 S
C406 C405 1.399 . S
C406 C407 1.376 . S
C407 H394 0.930 . S
C407 C406 1.376 . S
C407 C408 1.388 1_554 S
C408 H395 0.930 . S
C408 C407 1.388 1_556 S
C408 C409 1.390 . S
C409 C408 1.390 . S
C409 C410 1.394 . S
C409 C415 1.465 . S
C410 C405 1.399 1_556 S
C410 C409 1.394 . S
C410 C411 1.516 . S
C411 C410 1.516 . S
C411 C412 1.502 . S
C411 C413 1.561 . S
C411 C414 1.526 . S
C412 H396 0.959 . S
C412 H397 0.959 . S
C412 H398 0.961 . S
C412 C411 1.502 . S
C413 H399 0.960 . S
C413 H400 0.961 . S
C413 H401 0.959 . S
C413 C411 1.561 . S
C414 C411 1.526 . S
C414 C415 1.396 . S
C414 C419 1.390 . S
C415 C409 1.465 . S
C415 C414 1.396 . S
C415 C416 1.399 . S
C416 H402 0.929 . S
C416 C415 1.399 . S
C416 C417 1.385 . S
C417 H403 0.931 . S
C417 C416 1.385 . S
C417 C418 1.389 . S
C418 C417 1.389 . S
C418 C419 1.387 . S
C419 H404 0.930 . S
C419 C414 1.390 . S
C419 C418 1.387 . S
H420 C432 0.930 . S
H421 C434 0.930 . S
H422 C435 0.930 . S
H423 C439 0.959 . S
H424 C439 0.959 . S
H425 C439 0.961 . S
H426 C440 0.960 . S
H427 C440 0.961 . S
H428 C440 0.959 . S
H429 C443 0.929 . S
H430 C444 0.931 1_556 S
H431 C446 0.930 . S
C432 H420 0.930 . S
C432 C433 1.399 . S
C432 C437 1.399 . S
C433 C432 1.399 . S
C433 C434 1.376 . S
C434 H421 0.930 . S
C434 C433 1.376 . S
C434 C435 1.388 . S
C435 H422 0.930 . S
C435 C434 1.388 . S
C435 C436 1.390 . S
C436 C435 1.390 . S
C436 C437 1.394 . S
C436 C442 1.465 . S
C437 C432 1.399 . S
C437 C436 1.394 . S
C437 C438 1.516 . S
C438 C437 1.516 . S
C438 C439 1.502 . S
C438 C440 1.561 . S
C438 C441 1.526 . S
C439 H423 0.959 . S
C439 H424 0.959 . S
C439 H425 0.961 . S
C439 C438 1.502 . S
C440 H426 0.960 . S
C440 H427 0.961 . S
C440 H428 0.959 . S
C440 C438 1.561 . S
C441 C438 1.526 . S
C441 C442 1.396 . S
C441 C446 1.390 . S
C442 C436 1.465 . S
C442 C441 1.396 . S
C442 C443 1.399 . S
C443 H429 0.929 . S
C443 C442 1.399 . S
C443 C444 1.385 . S
C444 H430 0.931 1_554 S
C444 C443 1.385 . S
C444 C445 1.389 . S
C445 C444 1.389 . S
C445 C446 1.387 . S
C446 H431 0.930 . S
C446 C441 1.390 . S
C446 C445 1.387 . S
H447 C459 0.930 . S
H448 C461 0.930 . S
H449 C462 0.930 . S
H450 C466 0.959 . S
H451 C466 0.959 . S
H452 C466 0.961 . S
H453 C467 0.960 . S
H454 C467 0.961 . S
H455 C467 0.959 . S
H456 C470 0.929 . S
H457 C471 0.931 . S
H458 C473 0.930 . S
C459 H447 0.930 . S
C459 C460 1.399 . S
C459 C464 1.399 . S
C460 C459 1.399 . S
C460 C461 1.376 . S
C461 H448 0.930 . S
C461 C460 1.376 . S
C461 C462 1.388 . S
C462 H449 0.930 . S
C462 C461 1.388 . S
C462 C463 1.390 . S
C463 C462 1.390 . S
C463 C464 1.394 . S
C463 C469 1.465 . S
C464 C459 1.399 . S
C464 C463 1.394 . S
C464 C465 1.516 . S
C465 C464 1.516 . S
C465 C466 1.502 . S
C465 C467 1.561 . S
C465 C468 1.526 . S
C466 H450 0.959 . S
C466 H451 0.959 . S
C466 H452 0.961 . S
C466 C465 1.502 . S
C467 H453 0.960 . S
C467 H454 0.961 . S
C467 H455 0.959 . S
C467 C465 1.561 . S
C468 C465 1.526 . S
C468 C469 1.396 . S
C468 C473 1.390 . S
C469 C463 1.465 . S
C469 C468 1.396 . S
C469 C470 1.399 . S
C470 H456 0.929 . S
C470 C469 1.399 . S
C470 C471 1.385 . S
C471 H457 0.931 . S
C471 C470 1.385 . S
C471 C472 1.389 . S
C472 C471 1.389 . S
C472 C473 1.387 . S
C473 H458 0.930 . S
C473 C468 1.390 . S
C473 C472 1.387 . S
H474 C486 0.930 . S
H475 C488 0.930 . S
H476 C489 0.930 . S
H477 C493 0.959 . S
H478 C493 0.959 . S
H479 C493 0.961 . S
H480 C494 0.960 . S
H481 C494 0.961 . S
H482 C494 0.959 . S
H483 C497 0.929 . S
H484 C498 0.931 . S
H485 C500 0.930 . S
C486 H474 0.930 . S
C486 C487 1.399 . S
C486 C491 1.399 . S
C487 C486 1.399 . S
C487 C488 1.376 . S
C488 H475 0.930 . S
C488 C487 1.376 . S
C488 C489 1.388 . S
C489 H476 0.930 . S
C489 C488 1.388 . S
C489 C490 1.390 . S
C490 C489 1.390 . S
C490 C491 1.394 . S
C490 C496 1.465 . S
C491 C486 1.399 . S
C491 C490 1.394 . S
C491 C492 1.516 . S
C492 C491 1.516 . S
C492 C493 1.502 . S
C492 C494 1.561 . S
C492 C495 1.532 . S
C493 H477 0.959 . S
C493 H478 0.959 . S
C493 H479 0.961 . S
C493 C492 1.502 . S
C494 H480 0.960 . S
C494 H481 0.961 . S
C494 H482 0.959 . S
C494 C492 1.561 . S
C495 C492 1.532 . S
C495 C496 1.398 . S
C495 C500 1.382 1_556 S
C496 C490 1.465 . S
C496 C495 1.398 . S
C496 C497 1.399 1_556 S
C497 H483 0.929 . S
C497 C496 1.399 1_554 S
C497 C498 1.385 . S
C498 H484 0.931 . S
C498 C497 1.385 . S
C498 C499 1.389 . S
C499 C498 1.389 . S
C499 C500 1.387 . S
C500 H485 0.930 . S
C500 C495 1.382 1_554 S
C500 C499 1.387 . S
H501 C513 0.930 . S
H502 C515 0.930 . S
H503 C516 0.930 . S
H504 C520 0.959 . S
H505 C520 0.959 . S
H506 C520 0.961 . S
H507 C521 0.960 . S
H508 C521 0.961 . S
H509 C521 0.959 . S
H510 C524 0.929 . S
H511 C525 0.931 . S
H512 C527 0.930 . S
C513 H501 0.930 . S
C513 C514 1.399 . S
C513 C518 1.399 . S
C514 C513 1.399 . S
C514 C515 1.376 . S
C515 H502 0.930 . S
C515 C514 1.376 . S
C515 C516 1.388 . S
C516 H503 0.930 . S
C516 C515 1.388 . S
C516 C517 1.390 . S
C517 C516 1.390 . S
C517 C518 1.394 . S
C517 C523 1.465 . S
C518 C513 1.399 . S
C518 C517 1.394 . S
C518 C519 1.516 . S
C519 C518 1.516 . S
C519 C520 1.502 . S
C519 C521 1.561 . S
C519 C522 1.526 . S
C520 H504 0.959 . S
C520 H505 0.959 . S
C520 H506 0.961 . S
C520 C519 1.502 . S
C521 H507 0.960 . S
C521 H508 0.961 . S
C521 H509 0.959 . S
C521 C519 1.561 . S
C522 C519 1.526 . S
C522 C523 1.396 . S
C522 C527 1.390 1_554 S
C523 C517 1.465 . S
C523 C522 1.396 . S
C523 C524 1.399 . S
C524 H510 0.929 . S
C524 C523 1.399 . S
C524 C525 1.385 1_554 S
C525 H511 0.931 . S
C525 C524 1.385 1_556 S
C525 C526 1.389 . S
C526 C525 1.389 . S
C526 C527 1.387 . S
C527 H512 0.930 . S
C527 C522 1.390 1_556 S
C527 C526 1.387 . S
H528 C540 0.930 . S
H529 C542 0.930 . S
H530 C543 0.930 . S
H531 C547 0.959 . S
H532 C547 0.959 . S
H533 C547 0.961 . S
H534 C548 0.960 . S
H535 C548 0.961 . S
H536 C548 0.959 . S
H537 C551 0.929 . S
H538 C552 0.931 . S
H539 C554 0.930 . S
C540 H528 0.930 . S
C540 C541 1.399 . S
C540 C545 1.399 . S
C541 C540 1.399 . S
C541 C542 1.376 . S
C542 H529 0.930 . S
C542 C541 1.376 . S
C542 C543 1.388 . S
C543 H530 0.930 . S
C543 C542 1.388 . S
C543 C544 1.390 . S
C544 C543 1.390 . S
C544 C545 1.394 . S
C544 C550 1.465 . S
C545 C540 1.399 . S
C545 C544 1.394 . S
C545 C546 1.516 . S
C546 C545 1.516 . S
C546 C547 1.502 . S
C546 C548 1.561 . S
C546 C549 1.526 . S
C547 H531 0.959 . S
C547 H532 0.959 . S
C547 H533 0.961 . S
C547 C546 1.502 . S
C548 H534 0.960 . S
C548 H535 0.961 . S
C548 H536 0.959 . S
C548 C546 1.561 . S
C549 C546 1.526 . S
C549 C550 1.396 . S
C549 C554 1.390 . S
C550 C544 1.465 . S
C550 C549 1.396 . S
C550 C551 1.399 . S
C551 H537 0.929 . S
C551 C550 1.399 . S
C551 C552 1.385 . S
C552 H538 0.931 . S
C552 C551 1.385 . S
C552 C553 1.389 . S
C553 C552 1.389 . S
C553 C554 1.387 . S
C554 H539 0.930 . S
C554 C549 1.390 . S
C554 C553 1.387 . S
H555 C567 0.930 . S
H556 C569 0.930 . S
H557 C570 0.930 . S
H558 C574 0.959 . S
H559 C574 0.959 . S
H560 C574 0.961 . S
H561 C575 0.960 . S
H562 C575 0.961 . S
H563 C575 0.959 . S
H564 C578 0.929 . S
H565 C579 0.931 . S
H566 C581 0.930 . S
C567 H555 0.930 . S
C567 C568 1.399 . S
C567 C572 1.399 . S
C568 C567 1.399 . S
C568 C569 1.376 . S
C569 H556 0.930 . S
C569 C568 1.376 . S
C569 C570 1.388 . S
C570 H557 0.930 . S
C570 C569 1.388 . S
C570 C571 1.390 . S
C571 C570 1.390 . S
C571 C572 1.394 . S
C571 C577 1.465 . S
C572 C567 1.399 . S
C572 C571 1.394 . S
C572 C573 1.516 . S
C573 C572 1.516 . S
C573 C574 1.502 . S
C573 C575 1.561 . S
C573 C576 1.526 . S
C574 H558 0.959 . S
C574 H559 0.959 . S
C574 H560 0.961 . S
C574 C573 1.502 . S
C575 H561 0.960 . S
C575 H562 0.961 . S
C575 H563 0.959 . S
C575 C573 1.561 . S
C576 C573 1.526 . S
C576 C577 1.396 . S
C576 C581 1.390 . S
C577 C571 1.465 . S
C577 C576 1.396 . S
C577 C578 1.399 . S
C578 H564 0.929 . S
C578 C577 1.399 . S
C578 C579 1.385 . S
C579 H565 0.931 . S
C579 C578 1.385 . S
C579 C580 1.389 . S
C580 C579 1.389 . S
C580 C581 1.387 . S
C581 H566 0.930 . S
C581 C576 1.390 . S
C581 C580 1.387 . S
H582 C594 0.930 . S
H583 C596 0.930 . S
H584 C597 0.930 . S
H585 C601 0.959 1_556 S
H586 C601 0.959 . S
H587 C601 0.961 . S
H588 C602 0.960 . S
H589 C602 0.961 . S
H590 C602 0.959 . S
H591 C605 0.929 . S
H592 C606 0.931 . S
H593 C608 0.930 . S
C594 H582 0.930 . S
C594 C595 1.399 . S
C594 C599 1.399 . S
C595 C594 1.399 . S
C595 C596 1.376 1_554 S
C596 H583 0.930 . S
C596 C595 1.376 1_556 S
C596 C597 1.388 . S
C597 H584 0.930 . S
C597 C596 1.388 . S
C597 C598 1.390 . S
C598 C597 1.390 . S
C598 C599 1.394 1_556 S
C598 C604 1.465 . S
C599 C594 1.399 . S
C599 C598 1.394 1_554 S
C599 C600 1.516 . S
C600 C599 1.516 . S
C600 C601 1.502 . S
C600 C602 1.561 . S
C600 C603 1.526 1_554 S
C601 H585 0.959 1_554 S
C601 H586 0.959 . S
C601 H587 0.961 . S
C601 C600 1.502 . S
C602 H588 0.960 . S
C602 H589 0.961 . S
C602 H590 0.959 . S
C602 C600 1.561 . S
C603 C600 1.526 1_556 S
C603 C604 1.396 . S
C603 C608 1.390 . S
C604 C598 1.465 . S
C604 C603 1.396 . S
C604 C605 1.399 . S
C605 H591 0.929 . S
C605 C604 1.399 . S
C605 C606 1.385 . S
C606 H592 0.931 . S
C606 C605 1.385 . S
C606 C607 1.389 . S
C607 C606 1.389 . S
C607 C608 1.387 . S
C608 H593 0.930 . S
C608 C603 1.390 . S
C608 C607 1.387 . S
H609 C621 0.930 . S
H610 C623 0.930 . S
H611 C624 0.930 1_556 S
H612 C628 0.959 . S
H613 C628 0.959 . S
H614 C628 0.961 . S
H615 C629 0.960 . S
H616 C629 0.961 . S
H617 C629 0.959 . S
H618 C632 0.929 . S
H619 C633 0.931 . S
H620 C635 0.930 . S
C621 H609 0.930 . S
C621 C622 1.399 . S
C621 C626 1.399 . S
C622 C621 1.399 . S
C622 C623 1.376 . S
C623 H610 0.930 . S
C623 C622 1.376 . S
C623 C624 1.388 . S
C624 H611 0.930 1_554 S
C624 C623 1.388 . S
C624 C625 1.390 . S
C625 C624 1.390 . S
C625 C626 1.394 . S
C625 C631 1.465 . S
C626 C621 1.399 . S
C626 C625 1.394 . S
C626 C627 1.516 . S
C627 C626 1.516 . S
C627 C628 1.502 . S
C627 C629 1.561 . S
C627 C630 1.526 . S
C628 H612 0.959 . S
C628 H613 0.959 . S
C628 H614 0.961 . S
C628 C627 1.502 . S
C629 H615 0.960 . S
C629 H616 0.961 . S
C629 H617 0.959 . S
C629 C627 1.561 . S
C630 C627 1.526 . S
C630 C631 1.396 . S
C630 C635 1.390 . S
C631 C625 1.465 . S
C631 C630 1.396 . S
C631 C632 1.399 1_554 S
C632 H618 0.929 . S
C632 C631 1.399 1_556 S
C632 C633 1.385 . S
C633 H619 0.931 . S
C633 C632 1.385 . S
C633 C634 1.389 1_556 S
C634 C633 1.389 1_554 S
C634 C635 1.387 . S
C635 H620 0.930 . S
C635 C630 1.390 . S
C635 C634 1.387 . S
H636 C648 0.930 . S
H637 C650 0.930 . S
H638 C651 0.930 . S
H639 C655 0.959 . S
H640 C655 0.959 . S
H641 C655 0.961 . S
H642 C656 0.960 . S
H643 C656 0.961 . S
H644 C656 0.959 . S
H645 C659 0.929 . S
H646 C660 0.931 . S
H647 C662 0.930 . S
C648 H636 0.930 . S
C648 C649 1.399 . S
C648 C653 1.399 . S
C649 C648 1.399 . S
C649 C650 1.376 . S
C650 H637 0.930 . S
C650 C649 1.376 . S
C650 C651 1.388 . S
C651 H638 0.930 . S
C651 C650 1.388 . S
C651 C652 1.390 . S
C652 C651 1.390 . S
C652 C653 1.394 . S
C652 C658 1.465 . S
C653 C648 1.399 . S
C653 C652 1.394 . S
C653 C654 1.516 . S
C654 C653 1.516 . S
C654 C655 1.502 . S
C654 C656 1.561 . S
C654 C657 1.526 . S
C655 H639 0.959 . S
C655 H640 0.959 . S
C655 H641 0.961 . S
C655 C654 1.502 . S
C656 H642 0.960 . S
C656 H643 0.961 . S
C656 H644 0.959 . S
C656 C654 1.561 . S
C657 C654 1.526 . S
C657 C658 1.396 . S
C657 C662 1.390 . S
C658 C652 1.465 . S
C658 C657 1.396 . S
C658 C659 1.399 . S
C659 H645 0.929 . S
C659 C658 1.399 . S
C659 C660 1.385 . S
C660 H646 0.931 . S
C660 C659 1.385 . S
C660 C661 1.389 . S
C661 C660 1.389 . S
C661 C662 1.387 . S
C662 H647 0.930 . S
C662 C657 1.390 . S
C662 C661 1.387 . S
H663 C675 0.930 . S
H664 C677 0.930 . S
H665 C678 0.930 . S
H666 C682 0.959 . S
H667 C682 0.959 . S
H668 C682 0.961 . S
H669 C683 0.960 . S
H670 C683 0.961 . S
H671 C683 0.959 . S
H672 C686 0.929 . S
H673 C687 0.931 . S
H674 C689 0.930 . S
C675 H663 0.930 . S
C675 C676 1.399 . S
C675 C680 1.399 . S
C676 C675 1.399 . S
C676 C677 1.376 . S
C677 H664 0.930 . S
C677 C676 1.376 . S
C677 C678 1.388 . S
C678 H665 0.930 . S
C678 C677 1.388 . S
C678 C679 1.390 . S
C679 C678 1.390 . S
C679 C680 1.394 . S
C679 C685 1.465 . S
C680 C675 1.399 . S
C680 C679 1.394 . S
C680 C681 1.516 . S
C681 C680 1.516 . S
C681 C682 1.502 . S
C681 C683 1.561 . S
C681 C684 1.526 . S
C682 H666 0.959 . S
C682 H667 0.959 . S
C682 H668 0.961 . S
C682 C681 1.502 . S
C683 H669 0.960 . S
C683 H670 0.961 . S
C683 H671 0.959 . S
C683 C681 1.561 . S
C684 C681 1.526 . S
C684 C685 1.396 . S
C684 C689 1.390 . S
C685 C679 1.465 . S
C685 C684 1.396 . S
C685 C686 1.399 . S
C686 H672 0.929 . S
C686 C685 1.399 . S
C686 C687 1.385 . S
C687 H673 0.931 . S
C687 C686 1.385 . S
C687 C688 1.389 . S
C688 C687 1.389 . S
C688 C689 1.387 . S
C689 H674 0.930 . S
C689 C684 1.390 . S
C689 C688 1.387 . S
C217 C174 1.453 . S
C229 C4 1.443 1_556 S
C244 C17 1.641 . S
C256 C51 1.635 . S
C271 C38 1.408 . S
C283 C72 1.408 . S
C298 C85 1.631 . S
C310 C119 1.636 . S
C325 C140 1.440 . S
C337 C106 1.450 . S
C352 C187 1.636 . S
C364 C153 1.642 . S
C379 C0 0.954 . S
C391 C29 0.910 . S
C406 C63 0.924 . S
C418 C34 0.943 . S
C433 C68 0.917 . S
C445 C97 0.935 1_554 S
C460 C131 0.944 . S
C472 C102 0.924 . S
C487 C165 0.956 . S
C499 C136 0.905 . S
C514 C199 0.903 . S
C526 C170 0.955 . S
C541 C13 1.689 . S
C553 C144 1.751 . S
C568 C42 1.759 . S
C580 C183 1.669 . S
C595 C8 1.745 . S
C607 C81 1.725 . S
C622 C47 1.714 . S
C634 C110 1.755 . S
C649 C149 1.667 . S
C661 C76 1.761 . S
C676 C115 1.668 . S
C688 C178 1.760 . S
