# Generated by pormake.
# Topology wmg, (6)-cn, num edge types: 1
# Building blocks:
#     Node 0, Type 0, BuildingBlock: OJICUG_clean_sbu_0, # of connection points: 6
#     Node 1, Type 0, BuildingBlock: OJICUG_clean_sbu_0, # of connection points: 6
#     Node 2, Type 0, BuildingBlock: OJICUG_clean_sbu_0, # of connection points: 6
#     Node 3, Type 0, BuildingBlock: OJICUG_clean_sbu_0, # of connection points: 6
#     Node 4, Type 0, BuildingBlock: OJICUG_clean_sbu_0, # of connection points: 6
#     Node 5, Type 0, BuildingBlock: OJICUG_clean_sbu_0, # of connection points: 6
#     Node 6, Type 0, BuildingBlock: OJICUG_clean_sbu_0, # of connection points: 6
#     Node 7, Type 0, BuildingBlock: OJICUG_clean_sbu_0, # of connection points: 6
#     Node 8, Type 0, BuildingBlock: OJICUG_clean_sbu_0, # of connection points: 6
#     Node 9, Type 0, BuildingBlock: OJICUG_clean_sbu_0, # of connection points: 6
#     Node 10, Type 0, BuildingBlock: OJICUG_clean_sbu_0, # of connection points: 6
#     Node 11, Type 0, BuildingBlock: OJICUG_clean_sbu_0, # of connection points: 6
#     Node 12, Type 0, BuildingBlock: OJICUG_clean_sbu_0, # of connection points: 6
#     Node 13, Type 0, BuildingBlock: OJICUG_clean_sbu_0, # of connection points: 6
#     Node 14, Type 0, BuildingBlock: OJICUG_clean_sbu_0, # of connection points: 6
#     Node 15, Type 0, BuildingBlock: OJICUG_clean_sbu_0, # of connection points: 6
#     Node 16, Type 0, BuildingBlock: OJICUG_clean_sbu_0, # of connection points: 6
#     Node 17, Type 0, BuildingBlock: OJICUG_clean_sbu_0, # of connection points: 6
#     Edge 18, Type (0, 0), BuildingBlock: KIFKEQ_clean_linker_1, # of connection points: 2
#     Edge 19, Type (0, 0), BuildingBlock: KIFKEQ_clean_linker_1, # of connection points: 2
#     Edge 20, Type (0, 0), BuildingBlock: KIFKEQ_clean_linker_1, # of connection points: 2
#     Edge 21, Type (0, 0), BuildingBlock: KIFKEQ_clean_linker_1, # of connection points: 2
#     Edge 22, Type (0, 0), BuildingBlock: KIFKEQ_clean_linker_1, # of connection points: 2
#     Edge 23, Type (0, 0), BuildingBlock: KIFKEQ_clean_linker_1, # of connection points: 2
#     Edge 24, Type (0, 0), BuildingBlock: KIFKEQ_clean_linker_1, # of connection points: 2
#     Edge 25, Type (0, 0), BuildingBlock: KIFKEQ_clean_linker_1, # of connection points: 2
#     Edge 26, Type (0, 0), BuildingBlock: KIFKEQ_clean_linker_1, # of connection points: 2
#     Edge 27, Type (0, 0), BuildingBlock: KIFKEQ_clean_linker_1, # of connection points: 2
#     Edge 28, Type (0, 0), BuildingBlock: KIFKEQ_clean_linker_1, # of connection points: 2
#     Edge 29, Type (0, 0), BuildingBlock: KIFKEQ_clean_linker_1, # of connection points: 2
#     Edge 30, Type (0, 0), BuildingBlock: KIFKEQ_clean_linker_1, # of connection points: 2
#     Edge 31, Type (0, 0), BuildingBlock: KIFKEQ_clean_linker_1, # of connection points: 2
#     Edge 32, Type (0, 0), BuildingBlock: KIFKEQ_clean_linker_1, # of connection points: 2
#     Edge 33, Type (0, 0), BuildingBlock: KIFKEQ_clean_linker_1, # of connection points: 2
#     Edge 34, Type (0, 0), BuildingBlock: KIFKEQ_clean_linker_1, # of connection points: 2
#     Edge 35, Type (0, 0), BuildingBlock: KIFKEQ_clean_linker_1, # of connection points: 2
#     Edge 36, Type (0, 0), BuildingBlock: KIFKEQ_clean_linker_1, # of connection points: 2
#     Edge 37, Type (0, 0), BuildingBlock: KIFKEQ_clean_linker_1, # of connection points: 2
#     Edge 38, Type (0, 0), BuildingBlock: KIFKEQ_clean_linker_1, # of connection points: 2
#     Edge 39, Type (0, 0), BuildingBlock: KIFKEQ_clean_linker_1, # of connection points: 2
#     Edge 40, Type (0, 0), BuildingBlock: KIFKEQ_clean_linker_1, # of connection points: 2
#     Edge 41, Type (0, 0), BuildingBlock: KIFKEQ_clean_linker_1, # of connection points: 2
#     Edge 42, Type (0, 0), BuildingBlock: KIFKEQ_clean_linker_1, # of connection points: 2
#     Edge 43, Type (0, 0), BuildingBlock: KIFKEQ_clean_linker_1, # of connection points: 2
#     Edge 44, Type (0, 0), BuildingBlock: KIFKEQ_clean_linker_1, # of connection points: 2
#     Edge 45, Type (0, 0), BuildingBlock: KIFKEQ_clean_linker_1, # of connection points: 2
#     Edge 46, Type (0, 0), BuildingBlock: KIFKEQ_clean_linker_1, # of connection points: 2
#     Edge 47, Type (0, 0), BuildingBlock: KIFKEQ_clean_linker_1, # of connection points: 2
#     Edge 48, Type (0, 0), BuildingBlock: KIFKEQ_clean_linker_1, # of connection points: 2
#     Edge 49, Type (0, 0), BuildingBlock: KIFKEQ_clean_linker_1, # of connection points: 2
#     Edge 50, Type (0, 0), BuildingBlock: KIFKEQ_clean_linker_1, # of connection points: 2
#     Edge 51, Type (0, 0), BuildingBlock: KIFKEQ_clean_linker_1, # of connection points: 2
#     Edge 52, Type (0, 0), BuildingBlock: KIFKEQ_clean_linker_1, # of connection points: 2
#     Edge 53, Type (0, 0), BuildingBlock: KIFKEQ_clean_linker_1, # of connection points: 2
#     Edge 54, Type (0, 0), BuildingBlock: KIFKEQ_clean_linker_1, # of connection points: 2
#     Edge 55, Type (0, 0), BuildingBlock: KIFKEQ_clean_linker_1, # of connection points: 2
#     Edge 56, Type (0, 0), BuildingBlock: KIFKEQ_clean_linker_1, # of connection points: 2
#     Edge 57, Type (0, 0), BuildingBlock: KIFKEQ_clean_linker_1, # of connection points: 2
#     Edge 58, Type (0, 0), BuildingBlock: KIFKEQ_clean_linker_1, # of connection points: 2
#     Edge 59, Type (0, 0), BuildingBlock: KIFKEQ_clean_linker_1, # of connection points: 2
#     Edge 60, Type (0, 0), BuildingBlock: KIFKEQ_clean_linker_1, # of connection points: 2
#     Edge 61, Type (0, 0), BuildingBlock: KIFKEQ_clean_linker_1, # of connection points: 2
#     Edge 62, Type (0, 0), BuildingBlock: KIFKEQ_clean_linker_1, # of connection points: 2
#     Edge 63, Type (0, 0), BuildingBlock: KIFKEQ_clean_linker_1, # of connection points: 2
#     Edge 64, Type (0, 0), BuildingBlock: KIFKEQ_clean_linker_1, # of connection points: 2
#     Edge 65, Type (0, 0), BuildingBlock: KIFKEQ_clean_linker_1, # of connection points: 2
#     Edge 66, Type (0, 0), BuildingBlock: KIFKEQ_clean_linker_1, # of connection points: 2
#     Edge 67, Type (0, 0), BuildingBlock: KIFKEQ_clean_linker_1, # of connection points: 2
#     Edge 68, Type (0, 0), BuildingBlock: KIFKEQ_clean_linker_1, # of connection points: 2
#     Edge 69, Type (0, 0), BuildingBlock: KIFKEQ_clean_linker_1, # of connection points: 2
#     Edge 70, Type (0, 0), BuildingBlock: KIFKEQ_clean_linker_1, # of connection points: 2
#     Edge 71, Type (0, 0), BuildingBlock: KIFKEQ_clean_linker_1, # of connection points: 2
# Relax obj value: 0.253
# Max RMSD: 0.274
# Mean RMSD: 0.274
data_MOF--net-wmg--node1-OJICUG_clean_sbu_0--edge1-KIFKEQ_clean_linker_1
_symmetry_space_group_name_H-M    P1
_symmetry_Int_Tables_number       1
_symmetry_cell_setting            triclinic
loop_
_symmetry_equiv_pos_as_xyz
'x, y, z'
_cell_length_a     65.484224
_cell_length_b     65.453565
_cell_length_c     24.789306
_cell_angle_alpha  90.018765
_cell_angle_beta   90.00236
_cell_angle_gamma 120.00329
loop_
_atom_site_label
_atom_site_type_symbol
_atom_site_fract_x
_atom_site_fract_y
_atom_site_fract_z
_atom_type_partial_charge
Sc0 Sc 0.18532 0.24684 0.00972 0.0
Sc1 Sc 0.20671 0.29454 0.09608 0.0
Sc2 Sc 0.174 0.23774 0.14588 0.0
O3 O 0.18865 0.25989 0.0837 0.0
C4 C 0.13417 0.21741 0.06129 0.0
C5 C 0.17805 0.28929 0.98692 0.0
C6 C 0.17023 0.28274 0.18444 0.0
C7 C 0.23807 0.29041 0.00761 0.0
C8 C 0.19024 0.20912 0.06948 0.0
C9 C 0.22451 0.27259 0.1864 0.0
O10 O 0.14925 0.21912 0.02617 0.0
O11 O 0.19258 0.30201 0.02365 0.0
O12 O 0.16953 0.2633 0.19499 0.0
O13 O 0.22046 0.27357 0.98376 0.0
O14 O 0.17682 0.20895 0.10709 0.0
O15 O 0.2229 0.29004 0.16844 0.0
O16 O 0.19969 0.22584 0.03582 0.0
O17 O 0.23648 0.29813 0.05333 0.0
O18 O 0.20863 0.25115 0.17863 0.0
O19 O 0.17122 0.26758 0.98096 0.0
O20 O 0.14008 0.22538 0.10919 0.0
O21 O 0.17829 0.29336 0.14016 0.0
Sc22 Sc 0.74163 0.93789 0.00781 0.0
Sc23 Sc 0.69561 0.90826 0.09912 0.0
Sc24 Sc 0.75355 0.93686 0.14331 0.0
O25 O 0.73006 0.9275 0.08294 0.0
C26 C 0.77268 0.91668 0.05616 0.0
C27 C 0.70045 0.88573 0.98882 0.0
C28 C 0.71167 0.88775 0.18897 0.0
C29 C 0.69626 0.94407 0.01246 0.0
C30 C 0.78089 0.98115 0.06492 0.0
C31 C 0.71725 0.95064 0.18435 0.0
O32 O 0.76888 0.92833 0.01982 0.0
O33 O 0.68854 0.88503 0.03022 0.0
O34 O 0.73025 0.90759 0.19655 0.0
O35 O 0.71495 0.94741 0.9887 0.0
O36 O 0.78137 0.9684 0.10313 0.0
O37 O 0.70014 0.93079 0.16844 0.0
O38 O 0.76378 0.97346 0.03238 0.0
O39 O 0.6879 0.93108 0.05374 0.0
O40 O 0.7389 0.95709 0.17577 0.0
O41 O 0.72023 0.90342 0.97702 0.0
O42 O 0.76656 0.91601 0.10548 0.0
O43 O 0.69993 0.88332 0.14584 0.0
Sc44 Sc 0.05757 0.80865 0.00793 0.0
Sc45 Sc 0.08035 0.7842 0.0963 0.0
Sc46 Sc 0.05518 0.81594 0.14572 0.0
O47 O 0.06444 0.80293 0.08321 0.0
C48 C 0.07726 0.85817 0.06607 0.0
C49 C 0.10706 0.81456 0.99167 0.0
C50 C 0.10339 0.81963 0.18852 0.0
C51 C 0.04699 0.75549 0.00224 0.0
C52 C 0.01264 0.80196 0.06253 0.0
C53 C 0.03917 0.76489 0.18311 0.0
O54 O 0.06572 0.84431 0.02738 0.0
O55 O 0.10336 0.79889 0.02691 0.0
O56 O 0.08432 0.81999 0.19679 0.0
O57 O 0.04927 0.7739 0.97913 0.0
O58 O 0.02425 0.81328 0.10424 0.0
O59 O 0.05827 0.76674 0.16522 0.0
O60 O 0.02136 0.79461 0.02705 0.0
O61 O 0.0547 0.75578 0.04925 0.0
O62 O 0.0335 0.78074 0.17622 0.0
O63 O 0.09342 0.82287 0.98483 0.0
O64 O 0.07744 0.85078 0.1136 0.0
O65 O 0.10687 0.81137 0.14544 0.0
Sc66 Sc 0.81333 0.75449 0.86507 0.0
Sc67 Sc 0.78262 0.69724 0.91382 0.0
Sc68 Sc 0.80225 0.74488 0.00161 0.0
O69 O 0.79943 0.73201 0.92723 0.0
C70 C 0.85364 0.77473 0.94932 0.0
C71 C 0.81836 0.71061 0.82274 0.0
C72 C 0.81117 0.70275 0.02308 0.0
C73 C 0.76273 0.71869 0.82651 0.0
C74 C 0.79764 0.78335 0.94239 0.0
C75 C 0.74993 0.70065 0.00225 0.0
O76 O 0.84756 0.76754 0.90086 0.0
O77 O 0.81096 0.69944 0.86663 0.0
O78 O 0.81552 0.72361 0.03207 0.0
O79 O 0.77837 0.74027 0.83385 0.0
O80 O 0.78868 0.76682 0.97655 0.0
O81 O 0.75277 0.69184 0.95935 0.0
O82 O 0.81039 0.78319 0.9037 0.0
O83 O 0.76491 0.70145 0.84376 0.0
O84 O 0.76658 0.71872 0.02527 0.0
O85 O 0.81803 0.72966 0.81405 0.0
O86 O 0.83871 0.77189 0.98606 0.0
O87 O 0.79831 0.69026 0.98391 0.0
Sc88 Sc 0.23383 0.05743 0.85548 0.0
Sc89 Sc 0.29194 0.08701 0.89698 0.0
Sc90 Sc 0.24695 0.06025 0.99101 0.0
O91 O 0.25774 0.06829 0.91487 0.0
C92 C 0.21402 0.07799 0.9392 0.0
C93 C 0.2751 0.10605 0.80644 0.0
C94 C 0.28781 0.11237 0.0033 0.0
C95 C 0.27005 0.04366 0.81564 0.0
C96 C 0.20812 0.01542 0.94101 0.0
C97 C 0.29268 0.05455 0.98871 0.0
O98 O 0.22065 0.07878 0.89033 0.0
O99 O 0.28679 0.11128 0.8498 0.0
O100 O 0.2672 0.09599 0.01474 0.0
O101 O 0.24845 0.03678 0.82576 0.0
O102 O 0.22584 0.02394 0.97196 0.0
O103 O 0.29956 0.06423 0.94297 0.0
O104 O 0.20707 0.02672 0.90021 0.0
O105 O 0.28691 0.06416 0.82833 0.0
O106 O 0.27527 0.05368 0.01384 0.0
O107 O 0.25677 0.08587 0.79972 0.0
O108 O 0.21793 0.06673 0.9761 0.0
O109 O 0.29996 0.11092 0.96483 0.0
Sc110 Sc 0.93486 0.17488 0.8495 0.0
Sc111 Sc 0.90723 0.206 0.88641 0.0
Sc112 Sc 0.93486 0.18975 0.98303 0.0
O113 O 0.92553 0.19031 0.90675 0.0
C114 C 0.91391 0.137 0.93897 0.0
C115 C 0.88658 0.1681 0.80003 0.0
C116 C 0.88325 0.18012 0.99697 0.0
C117 C 0.94986 0.22424 0.80305 0.0
C118 C 0.97832 0.19277 0.93072 0.0
C119 C 0.9417 0.24168 0.9733 0.0
O120 O 0.91313 0.1417 0.88919 0.0
O121 O 0.88206 0.17584 0.84236 0.0
O122 O 0.89987 0.17655 0.01032 0.0
O123 O 0.95598 0.20908 0.81491 0.0
O124 O 0.97065 0.20312 0.9606 0.0
O125 O 0.93046 0.23727 0.92921 0.0
O126 O 0.96566 0.1787 0.89346 0.0
O127 O 0.92991 0.22191 0.8164 0.0
O128 O 0.94361 0.22601 -0.00018 0.0
O129 O 0.90631 0.16896 0.79382 0.0
O130 O 0.92593 0.15297 0.97401 0.0
O131 O 0.88393 0.19201 0.95557 0.0
Sc132 Sc 0.85327 0.58283 0.34505 0.0
Sc133 Sc 0.87662 0.6284 0.43736 0.0
Sc134 Sc 0.84149 0.57108 0.48126 0.0
O135 O 0.85703 0.59411 0.42103 0.0
C136 C 0.80171 0.55312 0.39558 0.0
C137 C 0.85029 0.62796 0.32831 0.0
C138 C 0.83906 0.61676 0.52283 0.0
C139 C 0.90739 0.62397 0.34894 0.0
C140 C 0.8553 0.54189 0.39853 0.0
C141 C 0.89187 0.60372 0.5252 0.0
O142 O 0.81669 0.55633 0.35881 0.0
O143 O 0.8656 0.63913 0.36485 0.0
O144 O 0.83745 0.59674 0.53206 0.0
O145 O 0.88942 0.60883 0.32249 0.0
O146 O 0.84384 0.5425 0.43969 0.0
O147 O 0.8905 0.62168 0.51056 0.0
O148 O 0.86478 0.55872 0.36503 0.0
O149 O 0.90589 0.63021 0.39646 0.0
O150 O 0.87576 0.58268 0.51478 0.0
O151 O 0.8411 0.60596 0.32098 0.0
O152 O 0.8077 0.55983 0.4443 0.0
O153 O 0.84829 0.62812 0.47985 0.0
Sc154 Sc 0.40818 0.26815 0.33565 0.0
Sc155 Sc 0.36139 0.24612 0.4235 0.0
Sc156 Sc 0.41766 0.26614 0.47182 0.0
O157 O 0.39572 0.25984 0.41024 0.0
C158 C 0.43704 0.24563 0.38689 0.0
C159 C 0.36304 0.22175 0.31306 0.0
C160 C 0.37077 0.21773 0.50671 0.0
C161 C 0.3681 0.28248 0.3373 0.0
C162 C 0.44752 0.31062 0.39461 0.0
C163 C 0.38489 0.28359 0.51588 0.0
O164 O 0.43472 0.25815 0.3506 0.0
O165 O 0.35168 0.22648 0.34795 0.0
O166 O 0.3908 0.23572 0.5182 0.0
O167 O 0.38244 0.27831 0.31132 0.0
O168 O 0.44696 0.29753 0.43354 0.0
O169 O 0.36712 0.26459 0.49934 0.0
O170 O 0.4313 0.30349 0.35956 0.0
O171 O 0.36187 0.27547 0.38529 0.0
O172 O 0.40599 0.28862 0.50614 0.0
O173 O 0.38532 0.23305 0.30979 0.0
O174 O 0.42917 0.24394 0.43474 0.0
O175 O 0.35992 0.21662 0.46342 0.0
Sc176 Sc 0.72131 0.13835 0.32857 0.0
Sc177 Sc 0.74708 0.11528 0.41334 0.0
Sc178 Sc 0.7283 0.15241 0.46444 0.0
O179 O 0.73241 0.13539 0.40172 0.0
C180 C 0.74859 0.19108 0.37584 0.0
C181 C 0.76801 0.13936 0.29877 0.0
C182 C 0.77606 0.15264 0.49773 0.0
C183 C 0.70705 0.08385 0.33146 0.0
C184 C 0.68272 0.14019 0.39361 0.0
C185 C 0.71001 0.10187 0.50855 0.0
O186 O 0.73504 0.17601 0.34082 0.0
O187 O 0.76714 0.1265 0.33838 0.0
O188 O 0.75855 0.15531 0.50938 0.0
O189 O 0.70766 0.10141 0.30763 0.0
O190 O 0.69708 0.15199 0.4312 0.0
O191 O 0.72777 0.1015 0.48834 0.0
O192 O 0.68746 0.12939 0.35796 0.0
O193 O 0.7186 0.08589 0.37412 0.0
O194 O 0.70594 0.11878 0.50088 0.0
O195 O 0.754 0.14725 0.29342 0.0
O196 O 0.75053 0.18535 0.4241 0.0
O197 O 0.77675 0.14291 0.45415 0.0
Sc198 Sc 0.48529 0.09063 0.18729 0.0
Sc199 Sc 0.44772 0.03347 0.22956 0.0
Sc200 Sc 0.47139 0.07877 0.32272 0.0
O201 O 0.46821 0.06763 0.24673 0.0
C202 C 0.52387 0.10733 0.2758 0.0
C203 C 0.48626 0.04417 0.1473 0.0
C204 C 0.47209 0.03245 0.34026 0.0
C205 C 0.43532 0.05964 0.13938 0.0
C206 C 0.47199 0.12076 0.26746 0.0
C207 C 0.41667 0.03917 0.31536 0.0
O208 O 0.51837 0.10085 0.22679 0.0
O209 O 0.47597 0.03266 0.18941 0.0
O210 O 0.48174 0.05444 0.34814 0.0
O211 O 0.45184 0.08036 0.15082 0.0
O212 O 0.46178 0.10417 0.3013 0.0
O213 O 0.41847 0.03269 0.2683 0.0
O214 O 0.48361 0.11965 0.22732 0.0
O215 O 0.43539 0.04113 0.15514 0.0
O216 O 0.43456 0.05391 0.34268 0.0
O217 O 0.48889 0.06456 0.13791 0.0
O218 O 0.50856 0.10409 0.31172 0.0
O219 O 0.45708 0.02174 0.30292 0.0
Sc220 Sc 0.90915 0.39599 0.18693 0.0
Sc221 Sc 0.96515 0.41738 0.24203 0.0
Sc222 Sc 0.91571 0.39151 0.32453 0.0
O223 O 0.93017 0.40181 0.25118 0.0
C224 C 0.88805 0.41517 0.27234 0.0
C225 C 0.95571 0.44468 0.15287 0.0
C226 C 0.9593 0.44051 0.35127 0.0
C227 C 0.94381 0.37945 0.14623 0.0
C228 C 0.87851 0.34972 0.25855 0.0
C229 C 0.95751 0.3799 0.32987 0.0
O230 O 0.8963 0.41707 0.22479 0.0
O231 O 0.96689 0.44558 0.19535 0.0
O232 O 0.93756 0.42561 0.35667 0.0
O233 O 0.92264 0.37537 0.15012 0.0
O234 O 0.89353 0.35671 0.29624 0.0
O235 O 0.96694 0.39058 0.28641 0.0
O236 O 0.87959 0.36332 0.22035 0.0
O237 O 0.96116 0.39627 0.17111 0.0
O238 O 0.94028 0.38053 0.3518 0.0
O239 O 0.93541 0.42708 0.14235 0.0
O240 O 0.88961 0.402 0.30815 0.0
O241 O 0.97207 0.43912 0.31407 0.0
Sc242 Sc 0.60056 0.50622 0.18694 0.0
Sc243 Sc 0.57274 0.53631 0.23072 0.0
Sc244 Sc 0.59879 0.51646 0.32256 0.0
O245 O 0.5905 0.51968 0.24698 0.0
C246 C 0.5802 0.46585 0.2703 0.0
C247 C 0.5521 0.50022 0.13993 0.0
C248 C 0.5473 0.50632 0.33697 0.0
C249 C 0.61544 0.5567 0.14732 0.0
C250 C 0.64354 0.52335 0.26933 0.0
C251 C 0.60558 0.56828 0.32309 0.0
O252 O 0.57903 0.4718 0.2218 0.0
O253 O 0.54761 0.50761 0.18296 0.0
O254 O 0.56312 0.50107 0.34682 0.0
O255 O 0.62154 0.54131 0.15649 0.0
O256 O 0.63495 0.53202 0.30164 0.0
O257 O 0.59646 0.56627 0.27695 0.0
O258 O 0.63152 0.50999 0.23036 0.0
O259 O 0.5955 0.55407 0.16181 0.0
O260 O 0.60555 0.55115 0.34748 0.0
O261 O 0.57179 0.50104 0.13278 0.0
O262 O 0.59223 0.48097 0.30668 0.0
O263 O 0.54916 0.52054 0.29945 0.0
Sc264 Sc 0.52109 0.91732 0.66564 0.0
Sc265 Sc 0.54025 0.96467 0.7538 0.0
Sc266 Sc 0.50965 0.90722 0.802 0.0
O267 O 0.52381 0.92997 0.74033 0.0
C268 C 0.46991 0.88674 0.71622 0.0
C269 C 0.51058 0.95842 0.64607 0.0
C270 C 0.50404 0.95048 0.8449 0.0
C271 C 0.57286 0.96218 0.66419 0.0
C272 C 0.52706 0.87991 0.72476 0.0
C273 C 0.55983 0.94339 0.84347 0.0
O274 O 0.48513 0.88919 0.68074 0.0
O275 O 0.52377 0.97116 0.68459 0.0
O276 O 0.50401 0.93124 0.8528 0.0
O277 O 0.55624 0.94418 0.64107 0.0
O278 O 0.51369 0.87936 0.76281 0.0
O279 O 0.55853 0.96059 0.82258 0.0
O280 O 0.53585 0.89652 0.69079 0.0
O281 O 0.5701 0.97065 0.70766 0.0
O282 O 0.54415 0.92174 0.83679 0.0
O283 O 0.50662 0.93773 0.63653 0.0
O284 O 0.47566 0.8941 0.76462 0.0
O285 O 0.51206 0.96224 0.80194 0.0
Sc286 Sc 0.07978 0.60266 0.6698 0.0
Sc287 Sc 0.03464 0.58136 0.76332 0.0
Sc288 Sc 0.09237 0.60661 0.80624 0.0
O289 O 0.06892 0.59682 0.74626 0.0
C290 C 0.11112 0.58382 0.72502 0.0
C291 C 0.03557 0.55352 0.65817 0.0
C292 C 0.04835 0.55872 0.85279 0.0
C293 C 0.03742 0.61386 0.66982 0.0
C294 C 0.11995 0.64779 0.71887 0.0
C295 C 0.05851 0.62334 0.8468 0.0
O296 O 0.10733 0.59439 0.68639 0.0
O297 O 0.02429 0.55809 0.69356 0.0
O298 O 0.06782 0.57797 0.85996 0.0
O299 O 0.05269 0.61084 0.64454 0.0
O300 O 0.11988 0.63694 0.76177 0.0
O301 O 0.04095 0.60343 0.83371 0.0
O302 O 0.10314 0.63904 0.68516 0.0
O303 O 0.03149 0.60725 0.71816 0.0
O304 O 0.07972 0.62899 0.83605 0.0
O305 O 0.05749 0.56655 0.65024 0.0
O306 O 0.10456 0.58409 0.7734 0.0
O307 O 0.03626 0.55487 0.81016 0.0
Sc308 Sc 0.39148 0.47251 0.66699 0.0
Sc309 Sc 0.41101 0.44536 0.75466 0.0
Sc310 Sc 0.39198 0.48236 0.80393 0.0
O311 O 0.39844 0.46702 0.74194 0.0
C312 C 0.41398 0.52325 0.72111 0.0
C313 C 0.43748 0.47275 0.64679 0.0
C314 C 0.43948 0.48227 0.84035 0.0
C315 C 0.37569 0.41784 0.66517 0.0
C316 C 0.34838 0.46892 0.72451 0.0
C317 C 0.373 0.43144 0.84655 0.0
O318 O 0.40176 0.50893 0.68375 0.0
O319 O 0.43173 0.45599 0.68048 0.0
O320 O 0.42192 0.48516 0.85096 0.0
O321 O 0.38103 0.43688 0.64015 0.0
O322 O 0.36097 0.48075 0.76481 0.0
O323 O 0.39137 0.43165 0.82887 0.0
O324 O 0.35601 0.4607 0.68846 0.0
O325 O 0.38166 0.41772 0.71371 0.0
O326 O 0.36879 0.44811 0.83734 0.0
O327 O 0.42683 0.48439 0.64377 0.0
O328 O 0.41491 0.51641 0.76876 0.0
O329 O 0.44039 0.4721 0.79757 0.0
Sc330 Sc 0.14947 0.42247 0.52793 0.0
Sc331 Sc 0.11581 0.36495 0.5711 0.0
Sc332 Sc 0.1384 0.4105 0.66354 0.0
O333 O 0.13475 0.39924 0.5878 0.0
C334 C 0.18966 0.44109 0.61216 0.0
C335 C 0.15305 0.37786 0.48491 0.0
C336 C 0.14261 0.36612 0.6799 0.0
C337 C 0.09932 0.38894 0.48474 0.0
C338 C 0.13459 0.45041 0.61008 0.0
C339 C 0.08472 0.36876 0.65995 0.0
O340 O 0.18353 0.4342 0.56359 0.0
O341 O 0.14459 0.36615 0.52792 0.0
O342 O 0.15153 0.3881 0.68731 0.0
O343 O 0.11479 0.41015 0.49598 0.0
O344 O 0.1254 0.43341 0.64313 0.0
O345 O 0.08616 0.36235 0.61252 0.0
O346 O 0.14709 0.45062 0.57033 0.0
O347 O 0.10161 0.37138 0.49812 0.0
O348 O 0.10267 0.38389 0.68638 0.0
O349 O 0.15344 0.39731 0.47637 0.0
O350 O 0.17474 0.43777 0.64921 0.0
O351 O 0.12735 0.35477 0.64339 0.0
Sc352 Sc 0.57316 0.72609 0.5278 0.0
Sc353 Sc 0.62935 0.74456 0.5769 0.0
Sc354 Sc 0.58254 0.72576 0.66513 0.0
O355 O 0.59504 0.73223 0.58986 0.0
C356 C 0.55521 0.74916 0.61043 0.0
C357 C 0.62097 0.77273 0.48903 0.0
C358 C 0.62896 0.77234 0.68284 0.0
C359 C 0.60415 0.70576 0.48589 0.0
C360 C 0.54156 0.68352 0.60943 0.0
C361 C 0.62108 0.70937 0.66859 0.0
O362 O 0.56264 0.7496 0.56264 0.0
O363 O 0.63244 0.77349 0.53096 0.0
O364 O 0.60675 0.7609 0.68791 0.0
O365 O 0.58352 0.70244 0.49427 0.0
O366 O 0.55741 0.69048 0.64536 0.0
O367 O 0.62814 0.71603 0.62082 0.0
O368 O 0.54347 0.69562 0.5673 0.0
O369 O 0.62268 0.72337 0.5049 0.0
O370 O 0.60673 0.71415 0.69245 0.0
O371 O 0.60019 0.75554 0.47973 0.0
O372 O 0.55739 0.73718 0.64818 0.0
O373 O 0.64001 0.76677 0.64886 0.0
Sc374 Sc 0.26863 0.85028 0.52293 0.0
Sc375 Sc 0.24497 0.88251 0.57996 0.0
Sc376 Sc 0.27156 0.8593 0.66171 0.0
O377 O 0.26159 0.86401 0.58837 0.0
C378 C 0.24865 0.80864 0.60511 0.0
C379 C 0.21948 0.84682 0.48823 0.0
C380 C 0.22204 0.85314 0.68827 0.0
C381 C 0.28376 0.90153 0.48637 0.0
C382 C 0.31402 0.86445 0.59677 0.0
C383 C 0.28259 0.91253 0.66833 0.0
O384 O 0.24785 0.81576 0.55766 0.0
O385 O 0.21762 0.85596 0.53164 0.0
O386 O 0.23752 0.84712 0.69441 0.0
O387 O 0.28893 0.88516 0.48945 0.0
O388 O 0.30656 0.87176 0.63496 0.0
O389 O 0.27092 0.91099 0.62629 0.0
O390 O 0.30106 0.85316 0.55665 0.0
O391 O 0.2661 0.90068 0.51027 0.0
O392 O 0.28292 0.89494 0.68921 0.0
O393 O 0.23777 0.84536 0.47751 0.0
O394 O 0.26052 0.82268 0.64336 0.0
O395 O 0.22288 0.86678 0.65052 0.0
H396 H 0.21121 0.11203 0.88077 0.0
H397 H 0.19479 0.07824 0.03716 0.0
H398 H 0.2031 0.14206 0.91566 0.0
H399 H 0.1871 0.10855 0.072 0.0
H400 H 0.16093 0.16289 0.09987 0.0
H401 H 0.16243 0.12826 0.06693 0.0
H402 H 0.22674 0.1741 0.98096 0.0
H403 H 0.22529 0.20831 0.01333 0.0
C404 C 0.20538 0.11067 0.92217 0.0
C405 C 0.20401 0.0929 0.95628 0.0
C406 C 0.20095 0.12801 0.94233 0.0
C407 C 0.19499 0.12792 0.99691 0.0
C408 C 0.19173 0.10912 0.02986 0.0
C409 C 0.19622 0.09179 0.00978 0.0
C410 C 0.17558 0.16549 0.07477 0.0
C411 C 0.19285 0.1883 0.05876 0.0
C412 C 0.17635 0.14571 0.05562 0.0
C413 C 0.19435 0.14849 0.02012 0.0
C414 C 0.21223 0.17135 0.00677 0.0
C415 C 0.21151 0.19097 0.02584 0.0
H416 H 0.78281 0.01429 0.99578 0.0
H417 H 0.82593 0.00129 0.10695 0.0
H418 H 0.81717 0.05051 0.96679 0.0
H419 H 0.86071 0.03802 0.07736 0.0
H420 H 0.88364 0.09815 0.87976 0.0
H421 H 0.85307 0.06019 0.91388 0.0
H422 H 0.87754 0.08238 0.07668 0.0
H423 H 0.90839 0.12037 0.04277 0.0
C424 C 0.79962 0.01919 0.01433 0.0
C425 C 0.80159 0.00468 0.0534 0.0
C426 C 0.81939 0.03991 0.99727 0.0
C427 C 0.84173 0.04683 0.01884 0.0
C428 C 0.84369 0.03302 0.05979 0.0
C429 C 0.82378 0.01206 0.07685 0.0
C430 C 0.88287 0.09486 0.92274 0.0
C431 C 0.89837 0.11251 0.95845 0.0
C432 C 0.86522 0.07313 0.94233 0.0
C433 C 0.86263 0.06849 0.99806 0.0
C434 C 0.87908 0.08545 0.03355 0.0
C435 C 0.89675 0.10725 0.01398 0.0
H436 H 0.89136 0.78341 0.88552 0.0
H437 H 0.87249 0.78739 0.05081 0.0
H438 H 0.93038 0.79223 0.91525 0.0
H439 H 0.9113 0.79563 0.08042 0.0
H440 H 0.99146 0.82521 0.10778 0.0
H441 H 0.95425 0.82251 0.07995 0.0
H442 H 0.94339 0.76867 0.96408 0.0
H443 H 0.98028 0.77153 0.99099 0.0
C444 C 0.89559 0.7865 0.92805 0.0
C445 C 0.87861 0.7844 0.96571 0.0
C446 C 0.91791 0.79136 0.94518 0.0
C447 C 0.92377 0.79414 0.00037 0.0
C448 C 0.90738 0.79361 0.03766 0.0
C449 C 0.88507 0.78882 0.02054 0.0
C450 C 0.98097 0.81265 0.07679 0.0
C451 C 0.98896 0.79874 0.05134 0.0
C452 C 0.95971 0.81116 0.06071 0.0
C453 C 0.94612 0.79574 0.01896 0.0
C454 C 0.95376 0.78126 0.99516 0.0
C455 C 0.97486 0.78275 0.01105 0.0
H456 H 0.7665 0.78584 0.01069 0.0
H457 H 0.82211 0.82796 0.89756 0.0
H458 H 0.76423 0.82029 0.03683 0.0
H459 H 0.81975 0.86287 0.92432 0.0
H460 H 0.78442 0.91028 0.9536 0.0
H461 H 0.79217 0.87941 0.92281 0.0
H462 H 0.78966 0.85687 0.08749 0.0
H463 H 0.78161 0.88743 0.11848 0.0
C464 C 0.77824 0.80247 0.99114 0.0
C465 C 0.79468 0.80412 0.95231 0.0
C466 C 0.77704 0.8223 0.00657 0.0
C467 C 0.79219 0.84443 0.98363 0.0
C468 C 0.80794 0.84605 0.94295 0.0
C469 C 0.80923 0.82606 0.9275 0.0
C470 C 0.78598 0.89907 0.98349 0.0
C471 C 0.78207 0.90123 0.03862 0.0
C472 C 0.79047 0.88139 0.96569 0.0
C473 C 0.79109 0.86543 0.00257 0.0
C474 C 0.78877 0.86859 0.05794 0.0
C475 C 0.78433 0.88625 0.07576 0.0
H476 H 0.19346 0.00274 0.04336 0.0
H477 H 0.17507 0.97906 0.87881 0.0
H478 H 0.1595 0.96696 0.07555 0.0
H479 H 0.14156 0.94208 0.91112 0.0
H480 H 0.07421 0.88329 0.9813 0.0
H481 H 0.1041 0.92249 0.95135 0.0
H482 H 0.14748 0.92778 0.08825 0.0
H483 H 0.11715 0.88938 0.11933 0.0
C484 C 0.18223 0.98962 0.01404 0.0
C485 C 0.18707 0.99346 0.95861 0.0
C486 C 0.16276 0.96899 0.03254 0.0
C487 C 0.14786 0.95129 0.99621 0.0
C488 C 0.15244 0.95537 0.94041 0.0
C489 C 0.17173 0.97642 0.92176 0.0
C490 C 0.08994 0.89313 0.00555 0.0
C491 C 0.09328 0.88328 0.05283 0.0
C492 C 0.10723 0.9155 0.98801 0.0
C493 C 0.12842 0.92837 0.01691 0.0
C494 C 0.1313 0.91874 0.06523 0.0
C495 C 0.11385 0.8966 0.08321 0.0
H496 H 0.09684 0.2128 0.12087 0.0
H497 H 0.11551 0.20145 0.96075 0.0
H498 H 0.05855 0.20463 0.08724 0.0
H499 H 0.07737 0.19376 0.92717 0.0
H500 H -0.0025 0.16588 0.89674 0.0
H501 H 0.03386 0.16803 0.92944 0.0
H502 H 0.04772 0.22783 0.0288 0.0
H503 H 0.01169 0.22563 0.99696 0.0
C504 C 0.09269 0.2082 0.07873 0.0
C505 C 0.10943 0.20808 0.04349 0.0
C506 C 0.0708 0.20371 0.05935 0.0
C507 C 0.06513 0.19903 0.00429 0.0
C508 C 0.08119 0.19731 0.96976 0.0
C509 C 0.10311 0.20178 0.98913 0.0
C510 C 0.00848 0.17962 0.9251 0.0
C511 C 0.00157 0.19546 0.94451 0.0
C512 C 0.02924 0.1808 0.94395 0.0
C513 C 0.04339 0.19779 0.98259 0.0
C514 C 0.03687 0.2141 0.00027 0.0
C515 C 0.01627 0.21296 0.98153 0.0
H516 H 0.86445 0.5129 0.46247 0.0
H517 H 0.84617 0.5218 0.30047 0.0
H518 H 0.8694 0.47996 0.4316 0.0
H519 H 0.84982 0.48854 0.27012 0.0
H520 H 0.89101 0.45296 0.21833 0.0
H521 H 0.88057 0.48143 0.25121 0.0
H522 H 0.85253 0.44069 0.3972 0.0
H523 H 0.86385 0.41255 0.36495 0.0
C524 C 0.86101 0.50745 0.42062 0.0
C525 C 0.8553 0.52004 0.38367 0.0
C526 C 0.86375 0.48857 0.40282 0.0
C527 C 0.86044 0.48178 0.34797 0.0
C528 C 0.85329 0.49364 0.31215 0.0
C529 C 0.85101 0.51263 0.32964 0.0
C530 C 0.88227 0.4498 0.25704 0.0
C531 C 0.87829 0.43041 0.28885 0.0
C532 C 0.87619 0.46617 0.27602 0.0
C533 C 0.86567 0.46347 0.3271 0.0
C534 C 0.86093 0.4436 0.35813 0.0
C535 C 0.86722 0.42731 0.33932 0.0
H536 H 0.54691 0.42893 0.2107 0.0
H537 H 0.57859 0.44648 0.36937 0.0
H538 H 0.51655 0.39076 0.24453 0.0
H539 H 0.54794 0.40839 0.40311 0.0
H540 H 0.49335 0.32744 0.42843 0.0
H541 H 0.52839 0.36376 0.39767 0.0
H542 H 0.4837 0.38244 0.30742 0.0
H543 H 0.44913 0.34665 0.33762 0.0
C544 C 0.54773 0.42452 0.25245 0.0
C545 C 0.56502 0.44097 0.2874 0.0
C546 C 0.53021 0.40271 0.27196 0.0
C547 C 0.5296 0.39684 0.32677 0.0
C548 C 0.54792 0.41245 0.36076 0.0
C549 C 0.56544 0.43432 0.34131 0.0
C550 C 0.49108 0.33956 0.40283 0.0
C551 C 0.46851 0.33405 0.38497 0.0
C552 C 0.5111 0.36023 0.38496 0.0
C553 C 0.50878 0.37556 0.34891 0.0
C554 C 0.48612 0.3706 0.33372 0.0
C555 C 0.46628 0.35016 0.3515 0.0
H556 H 0.56141 0.11181 0.21738 0.0
H557 H 0.54258 0.1256 0.37493 0.0
H558 H 0.60081 0.12383 0.25025 0.0
H559 H 0.5822 0.13808 0.40741 0.0
H560 H 0.64324 0.12352 0.45668 0.0
H561 H 0.60533 0.11938 0.42915 0.0
H562 H 0.63719 0.1566 0.281 0.0
H563 H 0.67451 0.15989 0.30794 0.0
C564 C 0.56578 0.11783 0.2587 0.0
C565 C 0.54873 0.11759 0.29346 0.0
C566 C 0.58844 0.12483 0.27759 0.0
C567 C 0.59466 0.13186 0.33162 0.0
C568 C 0.57789 0.13245 0.36585 0.0
C569 C 0.5552 0.12542 0.347 0.0
C570 C 0.64211 0.13127 0.41899 0.0
C571 C 0.66155 0.14195 0.38426 0.0
C572 C 0.62049 0.12893 0.4031 0.0
C573 C 0.61816 0.13735 0.35239 0.0
C574 C 0.63821 0.14944 0.31963 0.0
C575 C 0.65961 0.15154 0.33524 0.0
H576 H 0.4611 0.14794 0.20254 0.0
H577 H 0.48422 0.14321 0.36258 0.0
H578 H 0.45641 0.18122 0.23169 0.0
H579 H 0.48081 0.1769 0.39117 0.0
H580 H 0.43662 0.20958 0.44325 0.0
H581 H 0.44869 0.18216 0.41174 0.0
H582 H 0.47366 0.22126 0.26272 0.0
H583 H 0.4608 0.24838 0.29367 0.0
C584 C 0.46573 0.15447 0.24346 0.0
C585 C 0.47266 0.14297 0.28062 0.0
C586 C 0.46315 0.17352 0.26024 0.0
C587 C 0.46783 0.18148 0.31417 0.0
C588 C 0.47636 0.17083 0.3499 0.0
C589 C 0.47849 0.15165 0.33347 0.0
C590 C 0.44503 0.21261 0.40414 0.0
C591 C 0.44763 0.23114 0.37098 0.0
C592 C 0.45206 0.19689 0.38601 0.0
C593 C 0.46213 0.19944 0.3345 0.0
C594 C 0.46562 0.21855 0.30219 0.0
C595 C 0.45841 0.2342 0.32018 0.0
H596 H 0.78357 0.22759 0.43309 0.0
H597 H 0.7496 0.21047 0.27683 0.0
H598 H 0.81339 0.26583 0.39873 0.0
H599 H 0.77975 0.24883 0.24255 0.0
H600 H 0.8324 0.33201 0.22557 0.0
H601 H 0.7984 0.29397 0.25261 0.0
H602 H 0.84552 0.27525 0.33161 0.0
H603 H 0.87903 0.31272 0.30505 0.0
C604 C 0.7822 0.23206 0.39169 0.0
C605 C 0.7643 0.21574 0.35766 0.0
C606 C 0.79941 0.25394 0.37188 0.0
C607 C 0.79914 0.26011 0.31764 0.0
C608 C 0.78043 0.24452 0.28445 0.0
C609 C 0.76321 0.22252 0.3042 0.0
C610 C 0.83542 0.31947 0.24759 0.0
C611 C 0.85832 0.32544 0.26378 0.0
C612 C 0.816 0.29782 0.26336 0.0
C613 C 0.81931 0.28198 0.29554 0.0
C614 C 0.84235 0.28739 0.30829 0.0
C615 C 0.86157 0.3088 0.29264 0.0
H616 H 0.6766 0.55721 0.33404 0.0
H617 H 0.66387 0.4976 0.235 0.0
H618 H 0.71332 0.56081 0.36534 0.0
H619 H 0.70087 0.50109 0.26724 0.0
H620 H 0.78243 0.53617 0.2962 0.0
H621 H 0.74386 0.52743 0.2638 0.0
H622 H 0.72574 0.53912 0.42392 0.0
H623 H 0.76461 0.54848 0.45635 0.0
C624 C 0.68167 0.54487 0.31879 0.0
C625 C 0.6672 0.52699 0.28226 0.0
C626 C 0.70265 0.5468 0.33723 0.0
C627 C 0.70975 0.53091 0.31978 0.0
C628 C 0.6958 0.51356 0.28157 0.0
C629 C 0.67469 0.51162 0.26293 0.0
C630 C 0.77014 0.53655 0.32485 0.0
C631 C 0.77681 0.5434 0.37883 0.0
C632 C 0.74795 0.53142 0.30617 0.0
C633 C 0.73192 0.533 0.34102 0.0
C634 C 0.73796 0.53829 0.39578 0.0
C635 C 0.76016 0.54344 0.4145 0.0
H636 H 0.53632 0.75154 0.70703 0.0
H637 H 0.55324 0.78266 0.54777 0.0
H638 H 0.52806 0.78202 0.737 0.0
H639 H 0.54434 0.81284 0.57768 0.0
H640 H 0.56224 0.88005 0.6669 0.0
H641 H 0.56555 0.8464 0.63822 0.0
H642 H 0.5029 0.79992 0.72892 0.0
H643 H 0.49971 0.83396 0.75853 0.0
C644 C 0.53783 0.76459 0.67801 0.0
C645 C 0.54584 0.76485 0.62511 0.0
C646 C 0.53297 0.78202 0.69528 0.0
C647 C 0.53598 0.80007 0.66004 0.0
C648 C 0.54241 0.79943 0.60614 0.0
C649 C 0.5473 0.78201 0.58884 0.0
C650 C 0.54923 0.86269 0.68116 0.0
C651 C 0.5306 0.85964 0.7147 0.0
C652 C 0.55099 0.84336 0.66419 0.0
C653 C 0.53416 0.82045 0.68018 0.0
C654 C 0.51608 0.81739 0.71575 0.0
C655 C 0.51433 0.83686 0.73294 0.0
H656 H 0.13783 0.66124 0.61883 0.0
H657 H 0.14998 0.68458 0.78451 0.0
H658 H 0.17147 0.6982 0.59055 0.0
H659 H 0.18314 0.72261 0.75595 0.0
H660 H 0.25078 0.78441 0.69329 0.0
H661 H 0.22173 0.74452 0.72123 0.0
H662 H 0.18111 0.73684 0.57736 0.0
H663 H 0.21056 0.77597 0.54851 0.0
C664 C 0.14765 0.67448 0.64921 0.0
C665 C 0.14112 0.67021 0.70379 0.0
C666 C 0.16692 0.69579 0.63296 0.0
C667 C 0.1799 0.71373 0.67065 0.0
C668 C 0.17374 0.70918 0.7257 0.0
C669 C 0.15465 0.68749 0.74217 0.0
C670 C 0.23585 0.77397 0.66718 0.0
C671 C 0.23306 0.78338 0.61853 0.0
C672 C 0.21904 0.75117 0.68351 0.0
C673 C 0.19888 0.73734 0.65189 0.0
C674 C 0.19654 0.74662 0.60249 0.0
C675 C 0.21348 0.76921 0.58584 0.0
H676 H 0.20918 0.4568 0.71214 0.0
H677 H 0.22686 0.44774 0.5491 0.0
H678 H 0.24816 0.46569 0.74246 0.0
H679 H 0.26594 0.45706 0.57955 0.0
H680 H 0.31358 0.43547 0.66304 0.0
H681 H 0.27683 0.43288 0.63611 0.0
H682 H 0.29227 0.49278 0.7368 0.0
H683 H 0.32959 0.49542 0.76437 0.0
C684 C 0.22152 0.4572 0.68247 0.0
C685 C 0.21469 0.45113 0.62822 0.0
C686 C 0.2439 0.4624 0.69997 0.0
C687 C 0.2599 0.46161 0.66361 0.0
C688 C 0.25374 0.45728 0.60872 0.0
C689 C 0.23138 0.4521 0.59119 0.0
C690 C 0.30921 0.4481 0.67978 0.0
C691 C 0.32467 0.46585 0.7154 0.0
C692 C 0.2882 0.44672 0.6639 0.0
C693 C 0.28198 0.46302 0.68316 0.0
C694 C 0.29676 0.4801 0.72098 0.0
C695 C 0.31801 0.48153 0.73698 0.0
H696 H 0.11602 0.55262 0.79004 0.0
H697 H 0.12811 0.57987 0.62713 0.0
H698 H 0.12453 0.52204 0.76124 0.0
H699 H 0.13589 0.54895 0.59833 0.0
H700 H 0.16175 0.49579 0.5726 0.0
H701 H 0.16066 0.53084 0.60302 0.0
H702 H 0.10152 0.48711 0.70634 0.0
H703 H 0.1028 0.45246 0.67691 0.0
C704 C 0.12089 0.55239 0.74838 0.0
C705 C 0.12099 0.5685 0.71081 0.0
C706 C 0.12554 0.53472 0.73174 0.0
C707 C 0.13035 0.53277 0.67723 0.0
C708 C 0.13223 0.54995 0.64057 0.0
C709 C 0.12765 0.56764 0.65717 0.0
C710 C 0.14839 0.4937 0.60137 0.0
C711 C 0.13247 0.47137 0.62255 0.0
C712 C 0.14783 0.51376 0.61898 0.0
C713 C 0.13132 0.5118 0.65797 0.0
C714 C 0.11493 0.48935 0.67757 0.0
C715 C 0.11552 0.46942 0.66017 0.0
H716 H 0.51447 0.64591 0.54279 0.0
H717 H 0.51868 0.67246 0.70416 0.0
H718 H 0.48083 0.60787 0.57014 0.0
H719 H 0.48473 0.63528 0.73092 0.0
H720 H 0.45019 0.55782 0.77943 0.0
H721 H 0.47858 0.59737 0.74979 0.0
H722 H 0.44052 0.58549 0.59987 0.0
H723 H 0.41244 0.54551 0.62892 0.0
C724 C 0.50781 0.64373 0.58364 0.0
C725 C 0.51927 0.66183 0.62164 0.0
C726 C 0.48854 0.62204 0.59938 0.0
C727 C 0.48032 0.61836 0.65312 0.0
C728 C 0.49098 0.63719 0.68977 0.0
C729 C 0.51034 0.65855 0.67435 0.0
C730 C 0.44761 0.56373 0.74053 0.0
C731 C 0.42907 0.54843 0.70657 0.0
C732 C 0.46389 0.5865 0.72347 0.0
C733 C 0.46191 0.59466 0.67224 0.0
C734 C 0.44281 0.57967 0.63913 0.0
C735 C 0.4266 0.5568 0.65605 0.0
H736 H 0.43265 0.88244 0.77546 0.0
H737 H 0.45126 0.87101 0.61536 0.0
H738 H 0.3948 0.87536 0.74132 0.0
H739 H 0.41341 0.86423 0.58135 0.0
H740 H 0.33168 0.83688 0.55762 0.0
H741 H 0.36857 0.83864 0.58575 0.0
H742 H 0.38649 0.90068 0.68079 0.0
H743 H 0.35014 0.89895 0.65319 0.0
C744 C 0.42855 0.87799 0.73325 0.0
C745 C 0.44521 0.87762 0.69815 0.0
C746 C 0.40691 0.87412 0.71357 0.0
C747 C 0.40137 0.86975 0.6584 0.0
C748 C 0.41721 0.86762 0.62399 0.0
C749 C 0.43893 0.87155 0.64363 0.0
C750 C 0.3438 0.85114 0.58355 0.0
C751 C 0.33789 0.86761 0.60368 0.0
C752 C 0.36479 0.85205 0.59995 0.0
C753 C 0.38005 0.8694 0.63673 0.0
C754 C 0.37474 0.88665 0.65385 0.0
C755 C 0.35398 0.88577 0.63756 0.0
H756 H 0.18896 0.33558 0.97869 0.0
H757 H 0.14983 0.26752 0.90057 0.0
H758 H 0.17948 0.35355 0.90361 0.0
H759 H 0.14158 0.28551 0.82528 0.0
H760 H 0.1136 0.32178 0.7173 0.0
H761 H 0.12028 0.30335 0.79545 0.0
H762 H 0.19078 0.36319 0.81159 0.0
H763 H 0.18357 0.382 0.73498 0.0
C764 C 0.17827 0.32446 0.94582 0.0
C765 C 0.17035 0.30019 0.94554 0.0
C766 C 0.17306 0.33476 0.90255 0.0
C767 C 0.16002 0.32098 0.85813 0.0
C768 C 0.15142 0.29661 0.85897 0.0
C769 C 0.15634 0.28632 0.90226 0.0
C770 C 0.13065 0.33073 0.73704 0.0
C771 C 0.14811 0.35321 0.72022 0.0
C772 C 0.13447 0.32027 0.78195 0.0
C773 C 0.15598 0.33195 0.81017 0.0
C774 C 0.17379 0.35402 0.79169 0.0
C775 C 0.16982 0.36463 0.74738 0.0
H776 H 0.65468 0.84968 0.97838 0.0
H777 H 0.72446 0.87765 0.91029 0.0
H778 H 0.63845 0.82148 0.90398 0.0
H779 H 0.70822 0.8504 0.83549 0.0
H780 H 0.67198 0.7853 0.72664 0.0
H781 H 0.68947 0.81027 0.80593 0.0
H782 H 0.63234 0.82543 0.80932 0.0
H783 H 0.61463 0.80003 0.73142 0.0
C784 C 0.66655 0.84962 0.94803 0.0
C785 C 0.69074 0.86614 0.9497 0.0
C786 C 0.65727 0.83369 0.90514 0.0
C787 C 0.67203 0.83408 0.86334 0.0
C788 C 0.69638 0.8496 0.86699 0.0
C789 C 0.70564 0.86537 0.90979 0.0
C790 C 0.66349 0.79439 0.7438 0.0
C791 C 0.64201 0.7908 0.72311 0.0
C792 C 0.67337 0.80852 0.78938 0.0
C793 C 0.662 0.81941 0.81451 0.0
C794 C 0.64113 0.81669 0.79193 0.0
C795 C 0.63119 0.80245 0.74686 0.0
H796 H 0.21892 0.82915 0.78031 0.0
H797 H 0.18414 0.86034 0.69265 0.0
H798 H 0.19238 0.82075 0.85518 0.0
H799 H 0.15659 0.8508 0.76753 0.0
H800 H 0.12929 0.85505 0.93291 0.0
H801 H 0.15654 0.86354 0.85817 0.0
H802 H 0.1532 0.79655 0.88362 0.0
H803 H 0.1268 0.78859 0.9596 0.0
C804 C 0.20531 0.83386 0.77649 0.0
C805 C 0.20375 0.84557 0.73042 0.0
C806 C 0.18998 0.82891 0.81957 0.0
C807 C 0.17244 0.8352 0.81751 0.0
C808 C 0.17026 0.84616 0.77074 0.0
C809 C 0.18586 0.8514 0.72763 0.0
C810 C 0.13473 0.84235 0.92296 0.0
C811 C 0.12605 0.82121 0.95209 0.0
C812 C 0.15006 0.84706 0.87976 0.0
C813 C 0.15678 0.83059 0.86448 0.0
C814 C 0.14858 0.80974 0.89468 0.0
C815 C 0.13351 0.80519 0.93835 0.0
H816 H 0.80167 0.65689 0.03114 0.0
H817 H 0.84065 0.72543 0.10712 0.0
H818 H 0.81245 0.63968 0.10552 0.0
H819 H 0.85028 0.70816 0.18186 0.0
H820 H 0.87919 0.67234 0.29005 0.0
H821 H 0.87202 0.69053 0.21188 0.0
H822 H 0.80148 0.63063 0.19807 0.0
H823 H 0.80907 0.61216 0.27465 0.0
C824 C 0.81265 0.66829 0.06333 0.0
C825 C 0.82001 0.69244 0.06342 0.0
C826 C 0.81861 0.65842 0.10624 0.0
C827 C 0.8319 0.67251 0.15008 0.0
C828 C 0.84016 0.69681 0.14872 0.0
C829 C 0.83444 0.70667 0.10581 0.0
C830 C 0.86204 0.66334 0.2708 0.0
C831 C 0.84467 0.64092 0.28823 0.0
C832 C 0.85795 0.67365 0.22587 0.0
C833 C 0.83629 0.66184 0.19819 0.0
C834 C 0.81858 0.63988 0.21743 0.0
C835 C 0.82279 0.62946 0.26176 0.0
H836 H 0.33428 0.14697 0.01135 0.0
H837 H 0.26532 0.12334 0.08026 0.0
H838 H 0.35211 0.17541 0.08469 0.0
H839 H 0.28308 0.1506 0.15428 0.0
H840 H 0.32135 0.21229 0.2681 0.0
H841 H 0.30365 0.1897 0.18611 0.0
H842 H 0.35852 0.17132 0.17792 0.0
H843 H 0.37668 0.19475 0.25837 0.0
C844 C 0.32293 0.14806 0.0416 0.0
C845 C 0.29848 0.13259 0.04062 0.0
C846 C 0.33313 0.16412 0.08393 0.0
C847 C 0.31904 0.16484 0.12596 0.0
C848 C 0.29447 0.15057 0.12262 0.0
C849 C 0.28429 0.13476 0.08024 0.0
C850 C 0.32934 0.20307 0.24913 0.0
C851 C 0.35023 0.20505 0.26951 0.0
C852 C 0.31933 0.19028 0.20203 0.0
C853 C 0.32987 0.17899 0.17508 0.0
C854 C 0.35035 0.18037 0.19677 0.0
C855 C 0.36053 0.19343 0.2433 0.0
H856 H 0.80892 0.13717 0.29796 0.0
H857 H 0.76368 0.15164 0.19716 0.0
H858 H 0.83566 0.14575 0.22137 0.0
H859 H 0.7896 0.15928 0.12137 0.0
H860 H 0.85581 0.19954 0.01848 0.0
H861 H 0.8277 0.18894 0.09227 0.0
H862 H 0.83791 0.13047 0.13375 0.0
H863 H 0.86654 0.14156 0.06107 0.0
C864 C 0.80466 0.14205 0.25959 0.0
C865 C 0.78445 0.14408 0.25383 0.0
C866 C 0.81981 0.1468 0.21572 0.0
C867 C 0.81475 0.15334 0.1655 0.0
C868 C 0.79427 0.15482 0.15977 0.0
C869 C 0.77939 0.15038 0.20339 0.0
C870 C 0.85166 0.18417 0.04275 0.0
C871 C 0.86333 0.17143 0.03444 0.0
C872 C 0.83565 0.17812 0.08508 0.0
C873 C 0.83085 0.15902 0.11917 0.0
C874 C 0.8417 0.1456 0.10898 0.0
C875 C 0.85786 0.1518 0.0671 0.0
H876 H 0.52039 0.00427 0.63692 0.0
H877 H 0.47888 0.9349 0.56616 0.0
H878 H 0.50908 0.02103 0.56268 0.0
H879 H 0.46865 0.95172 0.49136 0.0
H880 H 0.44159 0.98892 0.38071 0.0
H881 H 0.44798 0.97067 0.46009 0.0
H882 H 0.52009 0.02804 0.46942 0.0
H883 H 0.51335 0.04653 0.39172 0.0
C884 C 0.5087 0.99259 0.60598 0.0
C885 C 0.50094 0.96836 0.60694 0.0
C886 C 0.50242 0.00219 0.56317 0.0
C887 C 0.48841 0.98774 0.52055 0.0
C888 C 0.47943 0.96334 0.52348 0.0
C889 C 0.4855 0.95374 0.56633 0.0
C890 C 0.45889 -0.00272 0.39927 0.0
C891 C 0.47699 0.01904 0.38039 0.0
C892 C 0.46252 0.98698 0.44486 0.0
C893 C 0.48441 -0.00181 0.47167 0.0
C894 C 0.50281 0.01935 0.45078 0.0
C895 C 0.49909 0.02975 0.40582 0.0
H896 H 0.05176 0.52823 0.60482 0.0
H897 H 0.99077 0.53672 0.62197 0.0
H898 H 0.03305 0.5015 0.52919 0.0
H899 H 0.9724 0.51082 0.54494 0.0
H900 H 0.93744 0.44581 0.43905 0.0
H901 H 0.95519 0.4716 0.51522 0.0
H902 H 0.02325 0.50293 0.43691 0.0
H903 H 0.00553 0.47598 0.36081 0.0
C904 C 0.03422 0.52415 0.59262 0.0
C905 C 0.02262 0.53439 0.61924 0.0
C906 C 0.02366 0.50914 0.54887 0.0
C907 C 0.00141 0.50434 0.53043 0.0
C908 C 0.98947 0.51397 0.55838 0.0
C909 C -9e-05 0.52872 0.60268 0.0
C910 C 0.9562 0.45826 0.43754 0.0
C911 C 0.97012 0.45867 0.39378 0.0
C912 C 0.96636 0.4732 0.48138 0.0
C913 C 0.99065 0.48923 0.48242 0.0
C914 C 0.00451 0.49038 0.4378 0.0
C915 C 0.99435 0.47515 0.39393 0.0
H916 H 0.46561 0.51376 0.5943 0.0
H917 H 0.44687 0.44047 0.6014 0.0
H918 H 0.48958 0.5193 0.51473 0.0
H919 H 0.47007 0.44567 0.52034 0.0
H920 H 0.53607 0.47283 0.41415 0.0
H921 H 0.50922 0.46383 0.48882 0.0
H922 H 0.48568 0.50942 0.42111 0.0
H923 H 0.51369 0.51949 0.34709 0.0
C924 C 0.46679 0.49888 0.5789 0.0
C925 C 0.45461 0.47675 0.60409 0.0
C926 C 0.48019 0.50194 0.53286 0.0
C927 C 0.4814 0.48283 0.5106 0.0
C928 C 0.46964 0.4608 0.53667 0.0
C929 C 0.45648 0.45783 0.58327 0.0
C930 C 0.52503 0.48082 0.41468 0.0
C931 C 0.5274 0.49732 0.37522 0.0
C932 C 0.50946 0.47547 0.45748 0.0
C933 C 0.49562 0.48623 0.46149 0.0
C934 C 0.49663 0.50134 0.41986 0.0
C935 C 0.51244 0.5069 0.37711 0.0
H936 H 0.25941 0.31446 0.22815 0.0
H937 H 0.2408 0.24198 0.19935 0.0
H938 H 0.29859 0.32324 0.25882 0.0
H939 H 0.27978 0.25093 0.22915 0.0
H940 H 0.35604 0.27647 0.23103 0.0
H941 H 0.3227 0.27812 0.19181 0.0
H942 H 0.31415 0.30791 0.33961 0.0
H943 H 0.34741 0.30616 0.37916 0.0
C944 C 0.26358 0.30039 0.22877 0.0
C945 C 0.24697 0.27749 0.21153 0.0
C946 C 0.28599 0.30549 0.24596 0.0
C947 C 0.29224 0.28788 0.24508 0.0
C948 C 0.27551 0.26493 0.229 0.0
C949 C 0.25307 0.25975 0.21275 0.0
C950 C 0.3477 0.28428 0.25437 0.0
C951 C 0.35406 0.29088 0.30835 0.0
C952 C 0.3285 0.285 0.23212 0.0
C953 C 0.31569 0.29269 0.26324 0.0
C954 C 0.32374 0.30185 0.31496 0.0
C955 C 0.34274 0.30083 0.33751 0.0
H956 H 0.68543 0.04044 0.37806 0.0
H957 H 0.70728 0.07564 0.22404 0.0
H958 H 0.68287 0.00499 0.33875 0.0
H959 H 0.70499 0.04025 0.18498 0.0
H960 H 0.67563 0.94241 0.23055 0.0
H961 H 0.66553 0.97204 0.26051 0.0
H962 H 0.7355 0.02744 0.21837 0.0
H963 H 0.74579 -0.00178 0.18956 0.0
C964 C 0.68866 0.04021 0.33525 0.0
C965 C 0.69677 0.06081 0.30414 0.0
C966 C 0.68724 0.01996 0.31284 0.0
C967 C 0.6942 0.02017 0.25927 0.0
C968 C 0.69977 0.03984 0.22663 0.0
C969 C 0.70083 0.05998 0.24881 0.0
C970 C 0.6889 0.96092 0.22821 0.0
C971 C 0.71158 0.96795 0.20808 0.0
C972 C 0.68304 0.9778 0.24496 0.0
C973 C 0.69959 0.00194 0.24055 0.0
C974 C 0.72226 0.00892 0.22105 0.0
C975 C 0.72825 0.99214 0.20538 0.0
H976 H 0.95011 0.65085 0.39642 0.0
H977 H 0.91632 0.63044 0.24019 0.0
H978 H 0.98445 0.68395 0.35514 0.0
H979 H 0.95134 0.66341 0.19892 0.0
H980 H 0.03353 0.72163 0.16267 0.0
H981 H 0.00381 0.6837 0.20036 0.0
H982 H 0.97699 0.71941 0.29881 0.0
H983 H 0.00629 0.75742 0.26018 0.0
C984 C 0.9503 0.65293 0.35303 0.0
C985 C 0.93028 0.63834 0.32165 0.0
C986 C 0.96995 0.6719 0.32963 0.0
C987 C 0.97014 0.67623 0.27436 0.0
C988 C 0.95136 0.66026 0.24182 0.0
C989 C 0.93144 0.64137 0.26538 0.0
C990 C 0.02145 0.72142 0.19282 0.0
C991 C 0.02227 0.74246 0.20896 0.0
C992 C 0.00444 0.69975 0.21392 0.0
C993 C 0.9884 0.6989 0.25232 0.0
C994 C 0.98941 0.71986 0.26929 0.0
C995 C 0.00607 0.7415 0.24728 0.0
H996 H 0.74584 0.74883 0.81404 0.0
H997 H 0.72776 0.67643 0.78633 0.0
H998 H 0.70682 0.73954 0.78405 0.0
H999 H 0.68849 0.66729 0.7555 0.0
H1000 H 0.64112 0.68441 0.63088 0.0
H1001 H 0.67338 0.68202 0.6739 0.0
H1002 H 0.66377 0.7129 0.81867 0.0
H1003 H 0.63142 0.71525 0.77586 0.0
C1004 C 0.73365 0.73098 0.80099 0.0
C1005 C 0.73998 0.7134 0.80231 0.0
C1006 C 0.71117 0.7256 0.78466 0.0
C1007 C 0.69457 0.7026 0.76863 0.0
C1008 C 0.70097 0.68509 0.76831 0.0
C1009 C 0.72344 0.69038 0.78557 0.0
C1010 C 0.6453 0.68982 0.67263 0.0
C1011 C 0.63407 0.70037 0.69979 0.0
C1012 C 0.66373 0.68842 0.6972 0.0
C1013 C 0.67129 0.69776 0.74901 0.0
C1014 C 0.65838 0.70589 0.7783 0.0
C1015 C 0.63974 0.70702 0.75399 0.0
H1016 H 0.30508 0.95641 0.6253 0.0
H1017 H 0.28096 0.91894 0.77621 0.0
H1018 H 0.30734 0.99132 0.66653 0.0
H1019 H 0.28307 0.95391 0.81748 0.0
H1020 H 0.31185 0.05235 0.77012 0.0
H1021 H 0.32281 0.02316 0.74252 0.0
H1022 H 0.25346 0.96706 0.78674 0.0
H1023 H 0.24237 0.99589 0.81369 0.0
C1024 C 0.3013 0.95605 0.66797 0.0
C1025 C 0.29258 0.93501 0.69756 0.0
C1026 C 0.30257 0.976 0.69151 0.0
C1027 C 0.29487 0.97503 0.74471 0.0
C1028 C 0.2888 0.95489 0.77609 0.0
C1029 C 0.28784 0.93501 0.75272 0.0
C1030 C 0.29891 0.03378 0.77358 0.0
C1031 C 0.27617 0.02643 0.79364 0.0
C1032 C 0.30527 0.01715 0.75821 0.0
C1033 C 0.28915 0.99296 0.76371 0.0
C1034 C 0.26642 0.98565 0.78336 0.0
C1035 C 0.25994 0.00218 0.79786 0.0
H1036 H -0.00288 0.24136 0.79573 0.0
H1037 H 0.94304 0.25867 0.75781 0.0
H1038 H 0.02724 0.2806 0.76796 0.0
H1039 H 0.97356 0.29815 0.72936 0.0
H1040 H 0.04099 0.34785 0.61508 0.0
H1041 H 0.00562 0.31442 0.65274 0.0
H1042 H 0.04198 0.32321 0.80371 0.0
H1043 H 0.0774 0.35673 0.76621 0.0
C1044 C 0.9916 0.25339 0.7808 0.0
C1045 C 0.96764 0.24683 0.77884 0.0
C1046 C 0.0089 0.276 0.76575 0.0
C1047 C 0.00266 0.29247 0.74779 0.0
C1048 C 0.97874 0.28577 0.74374 0.0
C1049 C 0.96135 0.26317 0.75964 0.0
C1050 C 0.04113 0.34318 0.65697 0.0
C1051 C 0.06199 0.35458 0.68756 0.0
C1052 C 0.02089 0.32409 0.67846 0.0
C1053 C 0.02137 0.31605 0.73058 0.0
C1054 C 0.0414 0.32899 0.76306 0.0
C1055 C 0.06157 0.34827 0.74181 0.0
H1056 H 0.92773 0.64485 0.56696 0.0
H1057 H 0.90702 0.57197 0.53593 0.0
H1058 H 0.96677 0.6526 0.59496 0.0
H1059 H 0.94595 0.57985 0.56375 0.0
H1060 H 0.02248 0.60387 0.56567 0.0
H1061 H 0.98819 0.60435 0.52801 0.0
H1062 H 0.98342 0.63911 0.67157 0.0
H1063 H 0.01758 0.6386 0.70921 0.0
C1064 C 0.9314 0.63044 0.56664 0.0
C1065 C 0.91422 0.60776 0.54941 0.0
C1066 C 0.95377 0.63494 0.58237 0.0
C1067 C 0.95946 0.61694 0.58041 0.0
C1068 C 0.94216 0.59417 0.56442 0.0
C1069 C 0.91974 0.58959 0.54935 0.0
C1070 C 0.01468 0.61246 0.58816 0.0
C1071 C 0.0225 0.62104 0.64044 0.0
C1072 C 0.99491 0.61245 0.56698 0.0
C1073 C 0.98294 0.62132 0.59747 0.0
C1074 C 0.99228 0.63211 0.64732 0.0
C1075 C 0.01184 0.63186 0.66877 0.0
H1076 H 0.41632 0.33037 0.52911 0.0
H1077 H 0.34347 0.27749 0.55737 0.0
H1078 H 0.4079 0.36096 0.55768 0.0
H1079 H 0.33517 0.30834 0.58611 0.0
H1080 H 0.34978 0.37309 0.70332 0.0
H1081 H 0.34847 0.33828 0.66409 0.0
H1082 H 0.38288 0.37813 0.52071 0.0
H1083 H 0.38424 0.41302 0.55988 0.0
C1084 C 0.3986 0.32522 0.54213 0.0
C1085 C 0.38058 0.3015 0.54108 0.0
C1086 C 0.3937 0.34278 0.55757 0.0
C1087 C 0.37077 0.33697 0.57281 0.0
C1088 C 0.35292 0.31322 0.57395 0.0
C1089 C 0.35775 0.29562 0.55784 0.0
C1090 C 0.35624 0.37414 0.66257 0.0
C1091 C 0.36742 0.39578 0.63488 0.0
C1092 C 0.3555 0.35424 0.64021 0.0
C1093 C 0.36611 0.35581 0.59009 0.0
C1094 C 0.37497 0.37671 0.55993 0.0
C1095 C 0.37548 0.39656 0.58205 0.0
H1096 H 0.71532 0.06696 0.55585 0.0
H1097 H 0.66359 0.08776 0.52059 0.0
H1098 H 0.68386 0.02888 0.58956 0.0
H1099 H 0.63243 0.04974 0.55314 0.0
H1100 H 0.58064 0.9723 0.55728 0.0
H1101 H 0.61642 0.00503 0.51814 0.0
H1102 H 0.65188 0.01697 0.67142 0.0
H1103 H 0.61606 0.9846 0.71086 0.0
C1104 C 0.69733 0.0635 0.55575 0.0
C1105 C 0.69192 0.08038 0.53587 0.0
C1106 C 0.6794 0.04172 0.57463 0.0
C1107 C 0.65583 0.03637 0.57266 0.0
C1108 C 0.6505 0.05338 0.55396 0.0
C1109 C 0.66837 0.07525 0.53615 0.0
C1110 C 0.59637 0.98133 0.58194 0.0
C1111 C 0.59566 0.97616 0.63702 0.0
C1112 C 0.61669 0.00012 0.55976 0.0
C1113 C 0.63662 0.01356 0.59219 0.0
C1114 C 0.63669 0.00681 0.64578 0.0
C1115 C 0.61626 0.98834 0.66821 0.0
H1116 H 0.30529 0.05979 0.09461 0.0
H1117 H 0.31542 0.03401 0.94234 0.0
H1118 H 0.33914 0.0583 0.13208 0.0
H1119 H 0.349 0.03227 0.97996 0.0
H1120 H 0.40067 0.02031 0.08883 0.0
H1121 H 0.36259 0.01401 0.05662 0.0
H1122 H 0.38291 0.08552 0.10044 0.0
H1123 H 0.42094 0.09202 0.13201 0.0
C1124 C 0.31418 0.05295 0.06991 0.0
C1125 C 0.30793 0.04715 0.01562 0.0
C1126 C 0.33365 0.05236 0.09107 0.0
C1127 C 0.34679 0.04554 0.05847 0.0
C1128 C 0.33914 0.03761 0.00579 0.0
C1129 C 0.31996 0.03859 0.98437 0.0
C1130 C 0.39711 0.03477 0.09093 0.0
C1131 C 0.41385 0.0567 0.11274 0.0
C1132 C 0.37531 0.03109 0.07282 0.0
C1133 C 0.36975 0.04913 0.07719 0.0
C1134 C 0.38665 0.07119 0.09773 0.0
C1135 C 0.40854 0.075 0.11498 0.0
H1136 H 0.94898 0.28104 0.91983 0.0
H1137 H 0.95328 0.25617 0.07872 0.0
H1138 H 0.95354 0.31713 0.95905 0.0
H1139 H 0.95821 0.29278 0.11783 0.0
H1140 H 0.97963 0.37009 0.16068 0.0
H1141 H 0.98451 0.33925 0.11718 0.0
H1142 H 0.92276 0.31987 0.01998 0.0
H1143 H 0.91762 0.35042 0.0638 0.0
C1144 C 0.95139 0.28345 0.96308 0.0
C1145 C 0.95027 0.26548 0.99633 0.0
C1146 C 0.95396 0.30414 0.98541 0.0
C1147 C 0.95577 0.30748 0.04139 0.0
C1148 C 0.9568 0.29055 0.07443 0.0
C1149 C 0.95403 0.26964 0.05206 0.0
C1150 C 0.96732 0.35951 0.12936 0.0
C1151 C 0.94825 0.36271 0.11546 0.0
C1152 C 0.97005 0.34178 0.10487 0.0
C1153 C 0.95406 0.32728 0.06529 0.0
C1154 C 0.93548 0.331 0.05008 0.0
C1155 C 0.93248 0.34841 0.07524 0.0
H1156 H 0.74176 0.69127 0.10946 0.0
H1157 H 0.70683 0.67775 0.95503 0.0
H1158 H 0.70629 0.6581 0.14833 0.0
H1159 H 0.67136 0.64485 0.99404 0.0
H1160 H 0.60816 0.59047 0.09987 0.0
H1161 H 0.63839 0.63003 0.07057 0.0
H1162 H 0.69277 0.6146 0.11703 0.0
H1163 H 0.66295 0.57525 0.14531 0.0
C1164 C 0.72617 0.6819 0.08453 0.0
C1165 C 0.72701 0.68682 0.02926 0.0
C1166 C 0.706 0.66284 0.10658 0.0
C1167 C 0.68635 0.6488 0.0738 0.0
C1168 C 0.68629 0.65543 0.02006 0.0
C1169 C 0.70656 0.67421 0.99782 0.0
C1170 C 0.62657 0.5955 0.10337 0.0
C1171 C 0.63316 0.57966 0.12446 0.0
C1172 C 0.64379 0.61812 0.08699 0.0
C1173 C 0.66781 0.62541 0.0927 0.0
C1174 C 0.67434 0.60954 0.11335 0.0
C1175 C 0.65723 0.58688 0.12869 0.0
H1176 H 0.60411 0.98058 0.82763 0.0
H1177 H 0.56448 0.91808 0.9249 0.0
H1178 H 0.64077 0.9872 0.86988 0.0
H1179 H 0.601 0.925 0.96764 0.0
H1180 H 0.66589 0.9534 0.06655 0.0
H1181 H 0.63441 0.9582 0.02784 0.0
H1182 H 0.66186 0.96064 0.86826 0.0
H1183 H 0.69348 0.95546 0.90697 0.0
C1184 C 0.60319 0.96856 0.85882 0.0
C1185 C 0.58146 0.94884 0.87325 0.0
C1186 C 0.62415 0.97229 0.88258 0.0
C1187 C 0.6236 0.95667 0.922 0.0
C1188 C 0.60181 0.93743 0.93767 0.0
C1189 C 0.58095 0.93342 0.91316 0.0
C1190 C 0.66558 0.95548 0.02324 0.0
C1191 C 0.68183 0.95352 0.9896 0.0
C1192 C 0.64756 0.95823 0.00123 0.0
C1193 C 0.64555 0.95933 0.94521 0.0
C1194 C 0.66311 0.9598 0.91169 0.0
C1195 C 0.68119 0.95689 0.93379 0.0
H1196 H 0.0172 0.6165 0.89081 0.0
H1197 H 0.08868 0.67071 0.85424 0.0
H1198 H 0.00824 0.64678 0.92047 0.0
H1199 H 0.07961 0.70075 0.88377 0.0
H1200 H 0.05421 0.75147 0.89559 0.0
H1201 H 0.05326 0.71724 0.85339 0.0
H1202 H 0.02241 0.67649 0.99793 0.0
H1203 H 0.02337 0.71063 0.04005 0.0
C1204 C 0.03103 0.63482 0.88944 0.0
C1205 C 0.05371 0.6412 0.87048 0.0
C1206 C 0.02583 0.6521 0.9061 0.0
C1207 C 0.0431 0.67604 0.90334 0.0
C1208 C 0.06582 0.68241 0.88509 0.0
C1209 C 0.07111 0.66517 0.86906 0.0
C1210 C 0.04632 0.73492 0.91741 0.0
C1211 C 0.03912 0.73368 0.97119 0.0
C1212 C 0.04604 0.71545 0.89356 0.0
C1213 C 0.03824 0.69448 0.92297 0.0
C1214 C 0.02857 0.69248 0.97448 0.0
C1215 C 0.02911 0.71199 -0.00146 0.0
H1216 H 0.28224 0.31288 0.04981 0.0
H1217 H 0.24381 0.30117 0.90069 0.0
H1218 H 0.317 0.34582 0.0086 0.0
H1219 H 0.27857 0.33434 0.85967 0.0
H1220 H 0.32618 0.41641 0.85629 0.0
H1221 H 0.29533 0.37834 0.88963 0.0
H1222 H 0.3476 0.35899 0.92935 0.0
H1223 H 0.37867 0.39709 0.89536 0.0
C1224 C 0.28153 0.31687 0.00765 0.0
C1225 C 0.26036 0.30465 0.97843 0.0
C1226 C 0.30138 0.3357 0.98417 0.0
C1227 C 0.30021 0.34279 0.93144 0.0
C1228 C 0.27971 0.32931 0.90071 0.0
C1229 C 0.25996 0.31019 0.92392 0.0
C1230 C 0.33118 0.4042 0.87271 0.0
C1231 C 0.35487 0.4098 0.87342 0.0
C1232 C 0.31349 0.38228 0.89097 0.0
C1233 C 0.31914 0.36566 0.91102 0.0
C1234 C 0.34285 0.37148 0.91359 0.0
C1235 C 0.36056 0.39329 0.89444 0.0
H1236 H 0.97904 0.3573 0.28784 0.0
H1237 H 0.96608 0.38256 0.43767 0.0
H1238 H 0.0116 0.35509 0.32964 0.0
H1239 H -0.00117 0.38048 0.47948 0.0
H1240 H 0.08122 0.41837 0.48075 0.0
H1241 H 0.04206 0.40896 0.45085 0.0
H1242 H 0.02665 0.33895 0.40587 0.0
H1243 H 0.06594 0.34822 0.4362 0.0
C1244 C 0.98256 0.36142 0.33037 0.0
C1245 C 0.9703 0.37034 0.3595 0.0
C1246 C 0.00119 0.36019 0.35422 0.0
C1247 C 0.00796 0.36813 0.40728 0.0
C1248 C 0.99407 0.37459 0.43816 0.0
C1249 C 0.97519 0.37551 0.4145 0.0
C1250 C 0.06962 0.40104 0.46401 0.0
C1251 C 0.07674 0.3841 0.4605 0.0
C1252 C 0.04706 0.39553 0.4478 0.0
C1253 C 0.03124 0.37307 0.42717 0.0
C1254 C 0.03849 0.35629 0.4222 0.0
C1255 C 0.06099 0.36169 0.43918 0.0
H1256 H 0.57093 0.65944 0.47509 0.0
H1257 H 0.64345 0.71001 0.43645 0.0
H1258 H 0.57652 0.62772 0.44042 0.0
H1259 H 0.64881 0.67806 0.40098 0.0
H1260 H 0.62653 0.61213 0.27935 0.0
H1261 H 0.62935 0.6474 0.32038 0.0
H1262 H 0.60331 0.60987 0.47064 0.0
H1263 H 0.60079 0.5746 0.42985 0.0
C1264 C 0.58795 0.66384 0.45845 0.0
C1265 C 0.60673 0.68722 0.4583 0.0
C1266 C 0.59122 0.64565 0.4394 0.0
C1267 C 0.61321 0.65052 0.41908 0.0
C1268 C 0.63178 0.67394 0.41697 0.0
C1269 C 0.62864 0.69214 0.43697 0.0
C1270 C 0.62216 0.61169 0.32166 0.0
C1271 C 0.6133 0.59069 0.35147 0.0
C1272 C 0.62377 0.63182 0.34502 0.0
C1273 C 0.61618 0.63109 0.39822 0.0
C1274 C 0.60902 0.61066 0.42929 0.0
C1275 C 0.60781 0.59062 0.40619 0.0
H1276 H 0.40626 0.03407 0.42357 0.0
H1277 H 0.37436 0.01251 0.26572 0.0
H1278 H 0.37038 0.00216 0.46428 0.0
H1279 H 0.33906 0.98044 0.30652 0.0
H1280 H 0.31234 0.90725 0.40056 0.0
H1281 H 0.34136 0.94454 0.35886 0.0
H1282 H 0.32166 0.98286 0.46886 0.0
H1283 H 0.29224 0.94564 0.50979 0.0
C1284 C 0.39139 0.02312 0.39777 0.0
C1285 C 0.39335 0.02549 0.34137 0.0
C1286 C 0.37093 0.00482 0.42105 0.0
C1287 C 0.35236 0.98871 0.38815 0.0
C1288 C 0.35338 0.99251 0.33243 0.0
C1289 C 0.37359 0.0109 0.30927 0.0
C1290 C 0.31399 0.9236 0.41524 0.0
C1291 C 0.29997 0.92356 0.45804 0.0
C1292 C 0.33045 0.94485 0.39138 0.0
C1293 C 0.33352 0.9664 0.41076 0.0
C1294 C 0.31947 0.96641 0.45327 0.0
C1295 C 0.30261 0.94513 0.47632 0.0
H1296 H 0.17797 0.32766 0.17977 0.0
H1297 H 0.15173 0.2675 0.28638 0.0
H1298 H 0.1755 0.35114 0.25156 0.0
H1299 H 0.14786 0.29089 0.35833 0.0
H1300 H 0.16662 0.34468 0.49245 0.0
H1301 H 0.16971 0.32131 0.41973 0.0
H1302 H 0.15178 0.35941 0.30433 0.0
H1303 H 0.15005 0.38351 0.37673 0.0
C1304 C 0.17111 0.31918 0.21831 0.0
C1305 C 0.16508 0.29555 0.22708 0.0
C1306 C 0.16959 0.33277 0.25976 0.0
C1307 C 0.16154 0.32311 0.31125 0.0
C1308 C 0.15464 0.29918 0.31963 0.0
C1309 C 0.15654 0.28561 0.27814 0.0
C1310 C 0.16381 0.34833 0.45133 0.0
C1311 C 0.15833 0.36612 0.44031 0.0
C1312 C 0.16521 0.33466 0.40961 0.0
C1313 C 0.16075 0.33815 0.35581 0.0
C1314 C 0.15573 0.35633 0.34489 0.0
C1315 C 0.15477 0.37027 0.38651 0.0
H1316 H 0.71921 0.89605 0.29756 0.0
H1317 H 0.67918 0.84082 0.18214 0.0
H1318 H 0.69663 0.8695 0.37087 0.0
H1319 H 0.65721 0.81398 0.25529 0.0
H1320 H 0.60468 0.77815 0.39043 0.0
H1321 H 0.62737 0.80618 0.31924 0.0
H1322 H 0.68924 0.8362 0.42105 0.0
H1323 H 0.66651 0.80913 0.49241 0.0
C1324 C 0.70601 0.87806 0.2879 0.0
C1325 C 0.70104 0.87059 0.23394 0.0
C1326 C 0.69295 0.86278 0.32999 0.0
C1327 C 0.67477 0.83956 0.31924 0.0
C1328 C 0.67056 0.83186 0.26528 0.0
C1329 C 0.68342 0.84719 0.22326 0.0
C1330 C 0.62302 0.79097 0.39787 0.0
C1331 C 0.63365 0.79125 0.44733 0.0
C1332 C 0.63616 0.80691 0.35676 0.0
C1333 C 0.66032 0.8234 0.36391 0.0
C1334 C 0.67069 0.82404 0.41396 0.0
C1335 C 0.65756 0.80832 0.45505 0.0
H1336 H 0.14984 0.8321 0.18049 0.0
H1337 H 0.09601 0.82038 0.2969 0.0
H1338 H 0.17709 0.83774 0.2534 0.0
H1339 H 0.12277 0.82486 0.36989 0.0
H1340 H 0.18323 0.8561 0.48986 0.0
H1341 H 0.15603 0.85089 0.41814 0.0
H1342 H 0.18568 0.81759 0.31981 0.0
H1343 H 0.21394 0.82396 0.39124 0.0
C1344 C 0.14385 0.83082 0.22174 0.0
C1345 C 0.12077 0.82592 0.23284 0.0
C1346 C 0.1594 0.83374 0.26367 0.0
C1347 C 0.15219 0.83149 0.31789 0.0
C1348 C 0.1292 0.82706 0.32886 0.0
C1349 C 0.11377 0.8245 0.28691 0.0
C1350 C 0.18389 0.84743 0.45323 0.0
C1351 C 0.20092 0.84049 0.4465 0.0
C1352 C 0.16811 0.84435 0.41189 0.0
C1353 C 0.16857 0.83391 0.36269 0.0
C1354 C 0.18507 0.82619 0.35659 0.0
C1355 C 0.20113 0.82957 0.39784 0.0
H1356 H 0.8455 0.66123 0.51828 0.0
H1357 H 0.82045 0.6012 0.62487 0.0
H1358 H 0.84194 0.68422 0.58969 0.0
H1359 H 0.81551 0.62409 0.69652 0.0
H1360 H 0.83248 0.67781 0.83065 0.0
H1361 H 0.83622 0.65465 0.7584 0.0
H1362 H 0.81772 0.69193 0.64202 0.0
H1363 H 0.81526 0.71582 0.71408 0.0
C1364 C 0.83872 0.65267 0.55676 0.0
C1365 C 0.83332 0.62921 0.56552 0.0
C1366 C 0.83653 0.66597 0.59801 0.0
C1367 C 0.82849 0.65625 0.64947 0.0
C1368 C 0.82226 0.63247 0.65788 0.0
C1369 C 0.82477 0.61917 0.61653 0.0
C1370 C 0.82963 0.68132 0.78945 0.0
C1371 C 0.82381 0.69887 0.77816 0.0
C1372 C 0.83142 0.66776 0.74794 0.0
C1373 C 0.82706 0.67107 0.69393 0.0
C1374 C 0.82162 0.68896 0.68273 0.0
C1375 C 0.82023 0.70279 0.72417 0.0
H1376 H 0.3053 0.1535 0.8102 0.0
H1377 H 0.27043 0.09539 0.69866 0.0
H1378 H 0.3286 0.17926 0.73671 0.0
H1379 H 0.2944 0.12088 0.6252 0.0
H1380 H 0.32659 0.17924 0.49794 0.0
H1381 H 0.30236 0.15269 0.56866 0.0
H1382 H 0.36068 0.18677 0.68022 0.0
H1383 H 0.38476 0.21425 0.60957 0.0
C1384 C 0.30245 0.14629 0.76977 0.0
C1385 C 0.28593 0.1224 0.76027 0.0
C1386 C 0.31609 0.16098 0.72767 0.0
C1387 C 0.31382 0.15215 0.67493 0.0
C1388 C 0.29661 0.12844 0.66509 0.0
C1389 C 0.28273 0.11378 0.70721 0.0
C1390 C 0.33445 0.18102 0.53736 0.0
C1391 C 0.3577 0.19913 0.54796 0.0
C1392 C 0.32046 0.16562 0.57809 0.0
C1393 C 0.32933 0.16765 0.63062 0.0
C1394 C 0.35298 0.18501 0.64063 0.0
C1395 C 0.36695 0.20061 0.59988 0.0
H1396 H 0.78123 0.17229 0.59858 0.0
H1397 H 0.81234 0.14332 0.4913 0.0
H1398 H 0.80819 0.1751 0.66984 0.0
H1399 H 0.83845 0.14517 0.56283 0.0
H1400 H 0.89646 0.17075 0.69198 0.0
H1401 H 0.87119 0.16886 0.61761 0.0
H1402 H 0.81402 0.15045 0.72978 0.0
H1403 H 0.83959 0.15325 0.80404 0.0
C1404 C 0.79391 0.16669 0.58998 0.0
C1405 C 0.79447 0.15754 0.53906 0.0
C1406 C 0.80921 0.168 0.63112 0.0
C1407 C 0.82535 0.16 0.62262 0.0
C1408 C 0.82647 0.15167 0.57105 0.0
C1409 C 0.81135 0.15057 0.52986 0.0
C1410 C 0.87835 0.16583 0.70056 0.0
C1411 C 0.87007 0.16218 0.75397 0.0
C1412 C 0.86382 0.16483 0.65788 0.0
C1413 C 0.84057 0.1599 0.66753 0.0
C1414 C 0.83198 0.155 0.72076 0.0
C1415 C 0.84656 0.15627 0.76337 0.0
H1416 H 0.47813 -0.00094 0.15136 0.0
H1417 H 0.50618 0.06003 0.04683 0.0
H1418 H 0.48078 0.97582 0.07915 0.0
H1419 H 0.51014 0.03684 0.97457 0.0
H1420 H 0.49052 0.98374 0.83874 0.0
H1421 H 0.48753 0.00677 0.91237 0.0
H1422 H 0.50469 0.96755 0.02621 0.0
H1423 H 0.50644 0.94384 0.95286 0.0
C1424 C 0.48539 0.00774 0.11321 0.0
C1425 C 0.49182 0.03152 0.10506 0.0
C1426 C 0.48702 0.9943 0.07157 0.0
C1427 C 0.49552 0.00425 0.02052 0.0
C1428 C 0.50297 0.02835 0.0129 0.0
C1429 C 0.50102 0.04179 0.05459 0.0
C1430 C 0.49319 0.97976 0.87969 0.0
C1431 C 0.49851 0.96181 0.88997 0.0
C1432 C 0.49184 0.99323 0.92192 0.0
C1433 C 0.49617 0.98936 0.97551 0.0
C1434 C 0.50092 0.97095 0.98576 0.0
C1435 C 0.50186 0.95723 0.94361 0.0
H1436 H 0.00104 0.48145 0.15763 0.0
H1437 H 0.9398 0.4502 0.05385 0.0
H1438 H 0.02416 0.50833 0.08639 0.0
H1439 H 0.96283 0.47811 0.98283 0.0
H1440 H 0.0557 0.5673 0.96126 0.0
H1441 H 0.03253 0.54128 0.03474 0.0
H1442 H 0.99257 0.48563 0.91976 0.0
H1443 H 0.01508 0.51204 0.84642 0.0
C1444 C 0.99229 0.48059 0.11993 0.0
C1445 C 0.96845 0.46343 0.11165 0.0
C1446 C 0.00566 0.4962 0.07887 0.0
C1447 C -0.00442 0.49541 0.02829 0.0
C1448 C 0.97144 0.47894 0.02071 0.0
C1449 C 0.95808 0.46308 0.06175 0.0
C1450 C 0.04224 0.54938 0.95181 0.0
C1451 C 0.03728 0.54177 0.89795 0.0
C1452 C 0.02884 0.5344 0.99401 0.0
C1453 C 0.01034 0.51129 0.98348 0.0
C1454 C 0.00614 0.50344 0.92962 0.0
C1455 C 0.01931 0.5185 0.88748 0.0
H1456 H 0.47675 0.47459 0.83363 0.0
H1457 H 0.44395 0.50156 0.94164 0.0
H1458 H 0.5033 0.47732 0.90464 0.0
H1459 H 0.47152 0.50539 0.01256 0.0
H1460 H 0.50501 0.48482 0.14552 0.0
H1461 H 0.47887 0.48171 0.07225 0.0
H1462 H 0.53578 0.50161 0.95843 0.0
H1463 H 0.56159 0.50373 0.0317 0.0
C1464 C 0.47546 0.48158 0.87229 0.0
C1465 C 0.45797 0.48771 0.8818 0.0
C1466 C 0.49088 0.48323 0.91318 0.0
C1467 C 0.48954 0.49134 0.96481 0.0
C1468 C 0.47275 0.4985 0.97373 0.0
C1469 C 0.4571 0.49661 0.93281 0.0
C1470 C 0.51181 0.48811 0.10467 0.0
C1471 C 0.53537 0.49442 0.09444 0.0
C1472 C 0.4969 0.48668 0.06266 0.0
C1473 C 0.50522 0.49182 0.00925 0.0
C1474 C 0.5286 0.49733 -0.00117 0.0
C1475 C 0.54344 0.49846 0.04087 0.0
loop_
_geom_bond_atom_site_label_1
_geom_bond_atom_site_label_2
_geom_bond_distance
_geom_bond_site_symmetry_2
_ccdc_geom_bond_type
Sc0 O3 2.025 1_556 S
Sc0 O10 2.105 . S
Sc0 O13 2.105 . S
Sc0 O16 2.105 . S
Sc0 O19 2.105 . S
Sc1 O3 2.025 . S
Sc1 O11 2.105 . S
Sc1 O15 2.105 . S
Sc1 O17 2.105 . S
Sc1 O21 2.105 . S
Sc2 O3 2.025 . S
Sc2 O12 2.105 . S
Sc2 O14 2.105 . S
Sc2 O18 2.105 . S
Sc2 O20 2.105 . S
O3 Sc0 2.025 1_554 S
O3 Sc1 2.025 . S
O3 Sc2 2.025 . S
C4 O10 1.268 1_554 S
C4 O20 1.268 . S
C5 O11 1.268 1_556 S
C5 O19 1.268 . S
C6 O12 1.268 . S
C6 O21 1.268 . S
C7 O13 1.268 . S
C7 O17 1.268 1_556 S
C8 O14 1.268 . S
C8 O16 1.268 1_554 S
C9 O15 1.268 . S
C9 O18 1.268 . S
O10 Sc0 2.105 . S
O10 C4 1.268 1_556 S
O11 Sc1 2.105 . S
O11 C5 1.268 1_554 S
O12 Sc2 2.105 . S
O12 C6 1.268 . S
O13 Sc0 2.105 . S
O13 C7 1.268 . S
O14 Sc2 2.105 . S
O14 C8 1.268 . S
O15 Sc1 2.105 . S
O15 C9 1.268 . S
O16 Sc0 2.105 . S
O16 C8 1.268 1_556 S
O17 Sc1 2.105 . S
O17 C7 1.268 1_554 S
O18 Sc2 2.105 . S
O18 C9 1.268 . S
O19 Sc0 2.105 . S
O19 C5 1.268 . S
O20 Sc2 2.105 . S
O20 C4 1.268 . S
O21 Sc1 2.105 . S
O21 C6 1.268 . S
Sc22 O25 2.025 1_556 S
Sc22 O32 2.105 . S
Sc22 O35 2.105 . S
Sc22 O38 2.105 . S
Sc22 O41 2.105 . S
Sc23 O25 2.025 . S
Sc23 O33 2.105 . S
Sc23 O37 2.105 . S
Sc23 O39 2.105 . S
Sc23 O43 2.105 . S
Sc24 O25 2.025 . S
Sc24 O34 2.105 . S
Sc24 O36 2.105 . S
Sc24 O40 2.105 . S
Sc24 O42 2.105 . S
O25 Sc22 2.025 1_554 S
O25 Sc23 2.025 . S
O25 Sc24 2.025 . S
C26 O32 1.268 1_554 S
C26 O42 1.268 . S
C27 O33 1.268 1_556 S
C27 O41 1.268 . S
C28 O34 1.268 . S
C28 O43 1.268 . S
C29 O35 1.268 . S
C29 O39 1.268 1_556 S
C30 O36 1.268 . S
C30 O38 1.268 1_554 S
C31 O37 1.268 . S
C31 O40 1.268 . S
O32 Sc22 2.105 . S
O32 C26 1.268 1_556 S
O33 Sc23 2.105 . S
O33 C27 1.268 1_554 S
O34 Sc24 2.105 . S
O34 C28 1.268 . S
O35 Sc22 2.105 . S
O35 C29 1.268 . S
O36 Sc24 2.105 . S
O36 C30 1.268 . S
O37 Sc23 2.105 . S
O37 C31 1.268 . S
O38 Sc22 2.105 . S
O38 C30 1.268 1_556 S
O39 Sc23 2.105 . S
O39 C29 1.268 1_554 S
O40 Sc24 2.105 . S
O40 C31 1.268 . S
O41 Sc22 2.105 . S
O41 C27 1.268 . S
O42 Sc24 2.105 . S
O42 C26 1.268 . S
O43 Sc23 2.105 . S
O43 C28 1.268 . S
Sc44 O47 2.025 1_556 S
Sc44 O54 2.105 . S
Sc44 O57 2.105 . S
Sc44 O60 2.105 . S
Sc44 O63 2.105 . S
Sc45 O47 2.025 . S
Sc45 O55 2.105 . S
Sc45 O59 2.105 . S
Sc45 O61 2.105 . S
Sc45 O65 2.105 . S
Sc46 O47 2.025 . S
Sc46 O56 2.105 . S
Sc46 O58 2.105 . S
Sc46 O62 2.105 . S
Sc46 O64 2.105 . S
O47 Sc44 2.025 1_554 S
O47 Sc45 2.025 . S
O47 Sc46 2.025 . S
C48 O54 1.268 1_554 S
C48 O64 1.268 . S
C49 O55 1.268 1_556 S
C49 O63 1.268 . S
C50 O56 1.268 . S
C50 O65 1.268 . S
C51 O57 1.268 . S
C51 O61 1.268 1_556 S
C52 O58 1.268 . S
C52 O60 1.268 1_554 S
C53 O59 1.268 . S
C53 O62 1.268 . S
O54 Sc44 2.105 . S
O54 C48 1.268 1_556 S
O55 Sc45 2.105 . S
O55 C49 1.268 1_554 S
O56 Sc46 2.105 . S
O56 C50 1.268 . S
O57 Sc44 2.105 . S
O57 C51 1.268 . S
O58 Sc46 2.105 . S
O58 C52 1.268 . S
O59 Sc45 2.105 . S
O59 C53 1.268 . S
O60 Sc44 2.105 . S
O60 C52 1.268 1_556 S
O61 Sc45 2.105 . S
O61 C51 1.268 1_554 S
O62 Sc46 2.105 . S
O62 C53 1.268 . S
O63 Sc44 2.105 . S
O63 C49 1.268 . S
O64 Sc46 2.105 . S
O64 C48 1.268 . S
O65 Sc45 2.105 . S
O65 C50 1.268 . S
Sc66 O69 2.025 . S
Sc66 O76 2.105 . S
Sc66 O79 2.105 . S
Sc66 O82 2.105 . S
Sc66 O85 2.105 . S
Sc67 O69 2.025 . S
Sc67 O77 2.105 . S
Sc67 O81 2.105 . S
Sc67 O83 2.105 . S
Sc67 O87 2.105 . S
Sc68 O69 2.025 1_554 S
Sc68 O78 2.105 . S
Sc68 O80 2.105 . S
Sc68 O84 2.105 . S
Sc68 O86 2.105 . S
O69 Sc66 2.025 . S
O69 Sc67 2.025 . S
O69 Sc68 2.025 1_556 S
C70 O76 1.268 . S
C70 O86 1.268 1_556 S
C71 O77 1.268 . S
C71 O85 1.268 . S
C72 O78 1.268 . S
C72 O87 1.268 1_554 S
C73 O79 1.268 . S
C73 O83 1.268 . S
C74 O80 1.268 1_556 S
C74 O82 1.268 . S
C75 O81 1.268 1_554 S
C75 O84 1.268 . S
O76 Sc66 2.105 . S
O76 C70 1.268 . S
O77 Sc67 2.105 . S
O77 C71 1.268 . S
O78 Sc68 2.105 . S
O78 C72 1.268 . S
O79 Sc66 2.105 . S
O79 C73 1.268 . S
O80 Sc68 2.105 . S
O80 C74 1.268 1_554 S
O81 Sc67 2.105 . S
O81 C75 1.268 1_556 S
O82 Sc66 2.105 . S
O82 C74 1.268 . S
O83 Sc67 2.105 . S
O83 C73 1.268 . S
O84 Sc68 2.105 . S
O84 C75 1.268 . S
O85 Sc66 2.105 . S
O85 C71 1.268 . S
O86 Sc68 2.105 . S
O86 C70 1.268 1_554 S
O87 Sc67 2.105 . S
O87 C72 1.268 1_556 S
Sc88 O91 2.025 . S
Sc88 O98 2.105 . S
Sc88 O101 2.105 . S
Sc88 O104 2.105 . S
Sc88 O107 2.105 . S
Sc89 O91 2.025 . S
Sc89 O99 2.105 . S
Sc89 O103 2.105 . S
Sc89 O105 2.105 . S
Sc89 O109 2.105 . S
Sc90 O91 2.025 1_554 S
Sc90 O100 2.105 . S
Sc90 O102 2.105 . S
Sc90 O106 2.105 . S
Sc90 O108 2.105 . S
O91 Sc88 2.025 . S
O91 Sc89 2.025 . S
O91 Sc90 2.025 1_556 S
C92 O98 1.268 . S
C92 O108 1.268 1_556 S
C93 O99 1.268 . S
C93 O107 1.268 . S
C94 O100 1.268 . S
C94 O109 1.268 1_554 S
C95 O101 1.268 . S
C95 O105 1.268 . S
C96 O102 1.268 1_556 S
C96 O104 1.268 . S
C97 O103 1.268 1_554 S
C97 O106 1.268 . S
O98 Sc88 2.105 . S
O98 C92 1.268 . S
O99 Sc89 2.105 . S
O99 C93 1.268 . S
O100 Sc90 2.105 . S
O100 C94 1.268 . S
O101 Sc88 2.105 . S
O101 C95 1.268 . S
O102 Sc90 2.105 . S
O102 C96 1.268 1_554 S
O103 Sc89 2.105 . S
O103 C97 1.268 1_556 S
O104 Sc88 2.105 . S
O104 C96 1.268 . S
O105 Sc89 2.105 . S
O105 C95 1.268 . S
O106 Sc90 2.105 . S
O106 C97 1.268 . S
O107 Sc88 2.105 . S
O107 C93 1.268 . S
O108 Sc90 2.105 . S
O108 C92 1.268 1_554 S
O109 Sc89 2.105 . S
O109 C94 1.268 1_556 S
Sc110 O113 2.025 . S
Sc110 O120 2.105 . S
Sc110 O123 2.105 . S
Sc110 O126 2.105 . S
Sc110 O129 2.105 . S
Sc111 O113 2.025 . S
Sc111 O121 2.105 . S
Sc111 O125 2.105 . S
Sc111 O127 2.105 . S
Sc111 O131 2.105 . S
Sc112 O113 2.025 1_554 S
Sc112 O122 2.105 . S
Sc112 O124 2.105 . S
Sc112 O128 2.105 . S
Sc112 O130 2.105 . S
O113 Sc110 2.025 . S
O113 Sc111 2.025 . S
O113 Sc112 2.025 1_556 S
C114 O120 1.268 . S
C114 O130 1.268 1_556 S
C115 O121 1.268 . S
C115 O129 1.268 . S
C116 O122 1.268 . S
C116 O131 1.268 1_554 S
C117 O123 1.268 . S
C117 O127 1.268 . S
C118 O124 1.268 1_556 S
C118 O126 1.268 . S
C119 O125 1.268 1_554 S
C119 O128 1.268 . S
O120 Sc110 2.105 . S
O120 C114 1.268 . S
O121 Sc111 2.105 . S
O121 C115 1.268 . S
O122 Sc112 2.105 . S
O122 C116 1.268 . S
O123 Sc110 2.105 . S
O123 C117 1.268 . S
O124 Sc112 2.105 . S
O124 C118 1.268 1_554 S
O125 Sc111 2.105 . S
O125 C119 1.268 1_556 S
O126 Sc110 2.105 . S
O126 C118 1.268 . S
O127 Sc111 2.105 . S
O127 C117 1.268 . S
O128 Sc112 2.105 . S
O128 C119 1.268 . S
O129 Sc110 2.105 . S
O129 C115 1.268 . S
O130 Sc112 2.105 . S
O130 C114 1.268 1_554 S
O131 Sc111 2.105 . S
O131 C116 1.268 1_556 S
Sc132 O135 2.025 . S
Sc132 O142 2.105 . S
Sc132 O145 2.105 . S
Sc132 O148 2.105 . S
Sc132 O151 2.105 . S
Sc133 O135 2.025 . S
Sc133 O143 2.105 . S
Sc133 O147 2.105 . S
Sc133 O149 2.105 . S
Sc133 O153 2.105 . S
Sc134 O135 2.025 . S
Sc134 O144 2.105 . S
Sc134 O146 2.105 . S
Sc134 O150 2.105 . S
Sc134 O152 2.105 . S
O135 Sc132 2.025 . S
O135 Sc133 2.025 . S
O135 Sc134 2.025 . S
C136 O142 1.268 . S
C136 O152 1.268 . S
C137 O143 1.268 . S
C137 O151 1.268 . S
C138 O144 1.268 . S
C138 O153 1.268 . S
C139 O145 1.268 . S
C139 O149 1.268 . S
C140 O146 1.268 . S
C140 O148 1.268 . S
C141 O147 1.268 . S
C141 O150 1.268 . S
O142 Sc132 2.105 . S
O142 C136 1.268 . S
O143 Sc133 2.105 . S
O143 C137 1.268 . S
O144 Sc134 2.105 . S
O144 C138 1.268 . S
O145 Sc132 2.105 . S
O145 C139 1.268 . S
O146 Sc134 2.105 . S
O146 C140 1.268 . S
O147 Sc133 2.105 . S
O147 C141 1.268 . S
O148 Sc132 2.105 . S
O148 C140 1.268 . S
O149 Sc133 2.105 . S
O149 C139 1.268 . S
O150 Sc134 2.105 . S
O150 C141 1.268 . S
O151 Sc132 2.105 . S
O151 C137 1.268 . S
O152 Sc134 2.105 . S
O152 C136 1.268 . S
O153 Sc133 2.105 . S
O153 C138 1.268 . S
Sc154 O157 2.025 . S
Sc154 O164 2.105 . S
Sc154 O167 2.105 . S
Sc154 O170 2.105 . S
Sc154 O173 2.105 . S
Sc155 O157 2.025 . S
Sc155 O165 2.105 . S
Sc155 O169 2.105 . S
Sc155 O171 2.105 . S
Sc155 O175 2.105 . S
Sc156 O157 2.025 . S
Sc156 O166 2.105 . S
Sc156 O168 2.105 . S
Sc156 O172 2.105 . S
Sc156 O174 2.105 . S
O157 Sc154 2.025 . S
O157 Sc155 2.025 . S
O157 Sc156 2.025 . S
C158 O164 1.268 . S
C158 O174 1.268 . S
C159 O165 1.268 . S
C159 O173 1.268 . S
C160 O166 1.268 . S
C160 O175 1.268 . S
C161 O167 1.268 . S
C161 O171 1.268 . S
C162 O168 1.268 . S
C162 O170 1.268 . S
C163 O169 1.268 . S
C163 O172 1.268 . S
O164 Sc154 2.105 . S
O164 C158 1.268 . S
O165 Sc155 2.105 . S
O165 C159 1.268 . S
O166 Sc156 2.105 . S
O166 C160 1.268 . S
O167 Sc154 2.105 . S
O167 C161 1.268 . S
O168 Sc156 2.105 . S
O168 C162 1.268 . S
O169 Sc155 2.105 . S
O169 C163 1.268 . S
O170 Sc154 2.105 . S
O170 C162 1.268 . S
O171 Sc155 2.105 . S
O171 C161 1.268 . S
O172 Sc156 2.105 . S
O172 C163 1.268 . S
O173 Sc154 2.105 . S
O173 C159 1.268 . S
O174 Sc156 2.105 . S
O174 C158 1.268 . S
O175 Sc155 2.105 . S
O175 C160 1.268 . S
Sc176 O179 2.025 . S
Sc176 O186 2.105 . S
Sc176 O189 2.105 . S
Sc176 O192 2.105 . S
Sc176 O195 2.105 . S
Sc177 O179 2.025 . S
Sc177 O187 2.105 . S
Sc177 O191 2.105 . S
Sc177 O193 2.105 . S
Sc177 O197 2.105 . S
Sc178 O179 2.025 . S
Sc178 O188 2.105 . S
Sc178 O190 2.105 . S
Sc178 O194 2.105 . S
Sc178 O196 2.105 . S
O179 Sc176 2.025 . S
O179 Sc177 2.025 . S
O179 Sc178 2.025 . S
C180 O186 1.268 . S
C180 O196 1.268 . S
C181 O187 1.268 . S
C181 O195 1.268 . S
C182 O188 1.268 . S
C182 O197 1.268 . S
C183 O189 1.268 . S
C183 O193 1.268 . S
C184 O190 1.268 . S
C184 O192 1.268 . S
C185 O191 1.268 . S
C185 O194 1.268 . S
O186 Sc176 2.105 . S
O186 C180 1.268 . S
O187 Sc177 2.105 . S
O187 C181 1.268 . S
O188 Sc178 2.105 . S
O188 C182 1.268 . S
O189 Sc176 2.105 . S
O189 C183 1.268 . S
O190 Sc178 2.105 . S
O190 C184 1.268 . S
O191 Sc177 2.105 . S
O191 C185 1.268 . S
O192 Sc176 2.105 . S
O192 C184 1.268 . S
O193 Sc177 2.105 . S
O193 C183 1.268 . S
O194 Sc178 2.105 . S
O194 C185 1.268 . S
O195 Sc176 2.105 . S
O195 C181 1.268 . S
O196 Sc178 2.105 . S
O196 C180 1.268 . S
O197 Sc177 2.105 . S
O197 C182 1.268 . S
Sc198 O201 2.025 . S
Sc198 O208 2.105 . S
Sc198 O211 2.105 . S
Sc198 O214 2.105 . S
Sc198 O217 2.105 . S
Sc199 O201 2.025 . S
Sc199 O209 2.105 . S
Sc199 O213 2.105 . S
Sc199 O215 2.105 . S
Sc199 O219 2.105 . S
Sc200 O201 2.025 . S
Sc200 O210 2.105 . S
Sc200 O212 2.105 . S
Sc200 O216 2.105 . S
Sc200 O218 2.105 . S
O201 Sc198 2.025 . S
O201 Sc199 2.025 . S
O201 Sc200 2.025 . S
C202 O208 1.268 . S
C202 O218 1.268 . S
C203 O209 1.268 . S
C203 O217 1.268 . S
C204 O210 1.268 . S
C204 O219 1.268 . S
C205 O211 1.268 . S
C205 O215 1.268 . S
C206 O212 1.268 . S
C206 O214 1.268 . S
C207 O213 1.268 . S
C207 O216 1.268 . S
O208 Sc198 2.105 . S
O208 C202 1.268 . S
O209 Sc199 2.105 . S
O209 C203 1.268 . S
O210 Sc200 2.105 . S
O210 C204 1.268 . S
O211 Sc198 2.105 . S
O211 C205 1.268 . S
O212 Sc200 2.105 . S
O212 C206 1.268 . S
O213 Sc199 2.105 . S
O213 C207 1.268 . S
O214 Sc198 2.105 . S
O214 C206 1.268 . S
O215 Sc199 2.105 . S
O215 C205 1.268 . S
O216 Sc200 2.105 . S
O216 C207 1.268 . S
O217 Sc198 2.105 . S
O217 C203 1.268 . S
O218 Sc200 2.105 . S
O218 C202 1.268 . S
O219 Sc199 2.105 . S
O219 C204 1.268 . S
Sc220 O223 2.025 . S
Sc220 O230 2.105 . S
Sc220 O233 2.105 . S
Sc220 O236 2.105 . S
Sc220 O239 2.105 . S
Sc221 O223 2.025 . S
Sc221 O231 2.105 . S
Sc221 O235 2.105 . S
Sc221 O237 2.105 . S
Sc221 O241 2.105 . S
Sc222 O223 2.025 . S
Sc222 O232 2.105 . S
Sc222 O234 2.105 . S
Sc222 O238 2.105 . S
Sc222 O240 2.105 . S
O223 Sc220 2.025 . S
O223 Sc221 2.025 . S
O223 Sc222 2.025 . S
C224 O230 1.268 . S
C224 O240 1.268 . S
C225 O231 1.268 . S
C225 O239 1.268 . S
C226 O232 1.268 . S
C226 O241 1.268 . S
C227 O233 1.268 . S
C227 O237 1.268 . S
C228 O234 1.268 . S
C228 O236 1.268 . S
C229 O235 1.268 . S
C229 O238 1.268 . S
O230 Sc220 2.105 . S
O230 C224 1.268 . S
O231 Sc221 2.105 . S
O231 C225 1.268 . S
O232 Sc222 2.105 . S
O232 C226 1.268 . S
O233 Sc220 2.105 . S
O233 C227 1.268 . S
O234 Sc222 2.105 . S
O234 C228 1.268 . S
O235 Sc221 2.105 . S
O235 C229 1.268 . S
O236 Sc220 2.105 . S
O236 C228 1.268 . S
O237 Sc221 2.105 . S
O237 C227 1.268 . S
O238 Sc222 2.105 . S
O238 C229 1.268 . S
O239 Sc220 2.105 . S
O239 C225 1.268 . S
O240 Sc222 2.105 . S
O240 C224 1.268 . S
O241 Sc221 2.105 . S
O241 C226 1.268 . S
Sc242 O245 2.025 . S
Sc242 O252 2.105 . S
Sc242 O255 2.105 . S
Sc242 O258 2.105 . S
Sc242 O261 2.105 . S
Sc243 O245 2.025 . S
Sc243 O253 2.105 . S
Sc243 O257 2.105 . S
Sc243 O259 2.105 . S
Sc243 O263 2.105 . S
Sc244 O245 2.025 . S
Sc244 O254 2.105 . S
Sc244 O256 2.105 . S
Sc244 O260 2.105 . S
Sc244 O262 2.105 . S
O245 Sc242 2.025 . S
O245 Sc243 2.025 . S
O245 Sc244 2.025 . S
C246 O252 1.268 . S
C246 O262 1.268 . S
C247 O253 1.268 . S
C247 O261 1.268 . S
C248 O254 1.268 . S
C248 O263 1.268 . S
C249 O255 1.268 . S
C249 O259 1.268 . S
C250 O256 1.268 . S
C250 O258 1.268 . S
C251 O257 1.268 . S
C251 O260 1.268 . S
O252 Sc242 2.105 . S
O252 C246 1.268 . S
O253 Sc243 2.105 . S
O253 C247 1.268 . S
O254 Sc244 2.105 . S
O254 C248 1.268 . S
O255 Sc242 2.105 . S
O255 C249 1.268 . S
O256 Sc244 2.105 . S
O256 C250 1.268 . S
O257 Sc243 2.105 . S
O257 C251 1.268 . S
O258 Sc242 2.105 . S
O258 C250 1.268 . S
O259 Sc243 2.105 . S
O259 C249 1.268 . S
O260 Sc244 2.105 . S
O260 C251 1.268 . S
O261 Sc242 2.105 . S
O261 C247 1.268 . S
O262 Sc244 2.105 . S
O262 C246 1.268 . S
O263 Sc243 2.105 . S
O263 C248 1.268 . S
Sc264 O267 2.025 . S
Sc264 O274 2.105 . S
Sc264 O277 2.105 . S
Sc264 O280 2.105 . S
Sc264 O283 2.105 . S
Sc265 O267 2.025 . S
Sc265 O275 2.105 . S
Sc265 O279 2.105 . S
Sc265 O281 2.105 . S
Sc265 O285 2.105 . S
Sc266 O267 2.025 . S
Sc266 O276 2.105 . S
Sc266 O278 2.105 . S
Sc266 O282 2.105 . S
Sc266 O284 2.105 . S
O267 Sc264 2.025 . S
O267 Sc265 2.025 . S
O267 Sc266 2.025 . S
C268 O274 1.268 . S
C268 O284 1.268 . S
C269 O275 1.268 . S
C269 O283 1.268 . S
C270 O276 1.268 . S
C270 O285 1.268 . S
C271 O277 1.268 . S
C271 O281 1.268 . S
C272 O278 1.268 . S
C272 O280 1.268 . S
C273 O279 1.268 . S
C273 O282 1.268 . S
O274 Sc264 2.105 . S
O274 C268 1.268 . S
O275 Sc265 2.105 . S
O275 C269 1.268 . S
O276 Sc266 2.105 . S
O276 C270 1.268 . S
O277 Sc264 2.105 . S
O277 C271 1.268 . S
O278 Sc266 2.105 . S
O278 C272 1.268 . S
O279 Sc265 2.105 . S
O279 C273 1.268 . S
O280 Sc264 2.105 . S
O280 C272 1.268 . S
O281 Sc265 2.105 . S
O281 C271 1.268 . S
O282 Sc266 2.105 . S
O282 C273 1.268 . S
O283 Sc264 2.105 . S
O283 C269 1.268 . S
O284 Sc266 2.105 . S
O284 C268 1.268 . S
O285 Sc265 2.105 . S
O285 C270 1.268 . S
Sc286 O289 2.025 . S
Sc286 O296 2.105 . S
Sc286 O299 2.105 . S
Sc286 O302 2.105 . S
Sc286 O305 2.105 . S
Sc287 O289 2.025 . S
Sc287 O297 2.105 . S
Sc287 O301 2.105 . S
Sc287 O303 2.105 . S
Sc287 O307 2.105 . S
Sc288 O289 2.025 . S
Sc288 O298 2.105 . S
Sc288 O300 2.105 . S
Sc288 O304 2.105 . S
Sc288 O306 2.105 . S
O289 Sc286 2.025 . S
O289 Sc287 2.025 . S
O289 Sc288 2.025 . S
C290 O296 1.268 . S
C290 O306 1.268 . S
C291 O297 1.268 . S
C291 O305 1.268 . S
C292 O298 1.268 . S
C292 O307 1.268 . S
C293 O299 1.268 . S
C293 O303 1.268 . S
C294 O300 1.268 . S
C294 O302 1.268 . S
C295 O301 1.268 . S
C295 O304 1.268 . S
O296 Sc286 2.105 . S
O296 C290 1.268 . S
O297 Sc287 2.105 . S
O297 C291 1.268 . S
O298 Sc288 2.105 . S
O298 C292 1.268 . S
O299 Sc286 2.105 . S
O299 C293 1.268 . S
O300 Sc288 2.105 . S
O300 C294 1.268 . S
O301 Sc287 2.105 . S
O301 C295 1.268 . S
O302 Sc286 2.105 . S
O302 C294 1.268 . S
O303 Sc287 2.105 . S
O303 C293 1.268 . S
O304 Sc288 2.105 . S
O304 C295 1.268 . S
O305 Sc286 2.105 . S
O305 C291 1.268 . S
O306 Sc288 2.105 . S
O306 C290 1.268 . S
O307 Sc287 2.105 . S
O307 C292 1.268 . S
Sc308 O311 2.025 . S
Sc308 O318 2.105 . S
Sc308 O321 2.105 . S
Sc308 O324 2.105 . S
Sc308 O327 2.105 . S
Sc309 O311 2.025 . S
Sc309 O319 2.105 . S
Sc309 O323 2.105 . S
Sc309 O325 2.105 . S
Sc309 O329 2.105 . S
Sc310 O311 2.025 . S
Sc310 O320 2.105 . S
Sc310 O322 2.105 . S
Sc310 O326 2.105 . S
Sc310 O328 2.105 . S
O311 Sc308 2.025 . S
O311 Sc309 2.025 . S
O311 Sc310 2.025 . S
C312 O318 1.268 . S
C312 O328 1.268 . S
C313 O319 1.268 . S
C313 O327 1.268 . S
C314 O320 1.268 . S
C314 O329 1.268 . S
C315 O321 1.268 . S
C315 O325 1.268 . S
C316 O322 1.268 . S
C316 O324 1.268 . S
C317 O323 1.268 . S
C317 O326 1.268 . S
O318 Sc308 2.105 . S
O318 C312 1.268 . S
O319 Sc309 2.105 . S
O319 C313 1.268 . S
O320 Sc310 2.105 . S
O320 C314 1.268 . S
O321 Sc308 2.105 . S
O321 C315 1.268 . S
O322 Sc310 2.105 . S
O322 C316 1.268 . S
O323 Sc309 2.105 . S
O323 C317 1.268 . S
O324 Sc308 2.105 . S
O324 C316 1.268 . S
O325 Sc309 2.105 . S
O325 C315 1.268 . S
O326 Sc310 2.105 . S
O326 C317 1.268 . S
O327 Sc308 2.105 . S
O327 C313 1.268 . S
O328 Sc310 2.105 . S
O328 C312 1.268 . S
O329 Sc309 2.105 . S
O329 C314 1.268 . S
Sc330 O333 2.025 . S
Sc330 O340 2.105 . S
Sc330 O343 2.105 . S
Sc330 O346 2.105 . S
Sc330 O349 2.105 . S
Sc331 O333 2.025 . S
Sc331 O341 2.105 . S
Sc331 O345 2.105 . S
Sc331 O347 2.105 . S
Sc331 O351 2.105 . S
Sc332 O333 2.025 . S
Sc332 O342 2.105 . S
Sc332 O344 2.105 . S
Sc332 O348 2.105 . S
Sc332 O350 2.105 . S
O333 Sc330 2.025 . S
O333 Sc331 2.025 . S
O333 Sc332 2.025 . S
C334 O340 1.268 . S
C334 O350 1.268 . S
C335 O341 1.268 . S
C335 O349 1.268 . S
C336 O342 1.268 . S
C336 O351 1.268 . S
C337 O343 1.268 . S
C337 O347 1.268 . S
C338 O344 1.268 . S
C338 O346 1.268 . S
C339 O345 1.268 . S
C339 O348 1.268 . S
O340 Sc330 2.105 . S
O340 C334 1.268 . S
O341 Sc331 2.105 . S
O341 C335 1.268 . S
O342 Sc332 2.105 . S
O342 C336 1.268 . S
O343 Sc330 2.105 . S
O343 C337 1.268 . S
O344 Sc332 2.105 . S
O344 C338 1.268 . S
O345 Sc331 2.105 . S
O345 C339 1.268 . S
O346 Sc330 2.105 . S
O346 C338 1.268 . S
O347 Sc331 2.105 . S
O347 C337 1.268 . S
O348 Sc332 2.105 . S
O348 C339 1.268 . S
O349 Sc330 2.105 . S
O349 C335 1.268 . S
O350 Sc332 2.105 . S
O350 C334 1.268 . S
O351 Sc331 2.105 . S
O351 C336 1.268 . S
Sc352 O355 2.025 . S
Sc352 O362 2.105 . S
Sc352 O365 2.105 . S
Sc352 O368 2.105 . S
Sc352 O371 2.105 . S
Sc353 O355 2.025 . S
Sc353 O363 2.105 . S
Sc353 O367 2.105 . S
Sc353 O369 2.105 . S
Sc353 O373 2.105 . S
Sc354 O355 2.025 . S
Sc354 O364 2.105 . S
Sc354 O366 2.105 . S
Sc354 O370 2.105 . S
Sc354 O372 2.105 . S
O355 Sc352 2.025 . S
O355 Sc353 2.025 . S
O355 Sc354 2.025 . S
C356 O362 1.268 . S
C356 O372 1.268 . S
C357 O363 1.268 . S
C357 O371 1.268 . S
C358 O364 1.268 . S
C358 O373 1.268 . S
C359 O365 1.268 . S
C359 O369 1.268 . S
C360 O366 1.268 . S
C360 O368 1.268 . S
C361 O367 1.268 . S
C361 O370 1.268 . S
O362 Sc352 2.105 . S
O362 C356 1.268 . S
O363 Sc353 2.105 . S
O363 C357 1.268 . S
O364 Sc354 2.105 . S
O364 C358 1.268 . S
O365 Sc352 2.105 . S
O365 C359 1.268 . S
O366 Sc354 2.105 . S
O366 C360 1.268 . S
O367 Sc353 2.105 . S
O367 C361 1.268 . S
O368 Sc352 2.105 . S
O368 C360 1.268 . S
O369 Sc353 2.105 . S
O369 C359 1.268 . S
O370 Sc354 2.105 . S
O370 C361 1.268 . S
O371 Sc352 2.105 . S
O371 C357 1.268 . S
O372 Sc354 2.105 . S
O372 C356 1.268 . S
O373 Sc353 2.105 . S
O373 C358 1.268 . S
Sc374 O377 2.025 . S
Sc374 O384 2.105 . S
Sc374 O387 2.105 . S
Sc374 O390 2.105 . S
Sc374 O393 2.105 . S
Sc375 O377 2.025 . S
Sc375 O385 2.105 . S
Sc375 O389 2.105 . S
Sc375 O391 2.105 . S
Sc375 O395 2.105 . S
Sc376 O377 2.025 . S
Sc376 O386 2.105 . S
Sc376 O388 2.105 . S
Sc376 O392 2.105 . S
Sc376 O394 2.105 . S
O377 Sc374 2.025 . S
O377 Sc375 2.025 . S
O377 Sc376 2.025 . S
C378 O384 1.268 . S
C378 O394 1.268 . S
C379 O385 1.268 . S
C379 O393 1.268 . S
C380 O386 1.268 . S
C380 O395 1.268 . S
C381 O387 1.268 . S
C381 O391 1.268 . S
C382 O388 1.268 . S
C382 O390 1.268 . S
C383 O389 1.268 . S
C383 O392 1.268 . S
O384 Sc374 2.105 . S
O384 C378 1.268 . S
O385 Sc375 2.105 . S
O385 C379 1.268 . S
O386 Sc376 2.105 . S
O386 C380 1.268 . S
O387 Sc374 2.105 . S
O387 C381 1.268 . S
O388 Sc376 2.105 . S
O388 C382 1.268 . S
O389 Sc375 2.105 . S
O389 C383 1.268 . S
O390 Sc374 2.105 . S
O390 C382 1.268 . S
O391 Sc375 2.105 . S
O391 C381 1.268 . S
O392 Sc376 2.105 . S
O392 C383 1.268 . S
O393 Sc374 2.105 . S
O393 C379 1.268 . S
O394 Sc376 2.105 . S
O394 C378 1.268 . S
O395 Sc375 2.105 . S
O395 C380 1.268 . S
H396 C404 0.950 . S
H397 C409 0.942 1_554 S
H398 C406 0.950 . S
H399 C408 0.950 . S
H400 C410 0.950 . S
H401 C412 0.950 . S
H402 C414 0.950 . S
H403 C415 0.950 . S
C404 H396 0.950 . S
C404 C405 1.386 . S
C404 C406 1.391 . S
C405 C404 1.386 . S
C405 C409 1.402 . S
C406 H398 0.950 . S
C406 C404 1.391 . S
C406 C407 1.400 . S
C407 C406 1.400 . S
C407 C408 1.398 1_556 S
C407 C413 1.491 . S
C408 H399 0.950 . S
C408 C407 1.398 1_554 S
C408 C409 1.389 1_554 S
C409 H397 0.942 1_556 S
C409 C405 1.402 . S
C409 C408 1.389 1_556 S
C410 H400 0.950 . S
C410 C411 1.386 . S
C410 C412 1.391 . S
C411 C410 1.386 . S
C411 C415 1.393 1_554 S
C412 H401 0.950 . S
C412 C410 1.391 . S
C412 C413 1.400 1_554 S
C413 C407 1.491 . S
C413 C412 1.400 1_556 S
C413 C414 1.398 . S
C414 H402 0.950 . S
C414 C413 1.398 . S
C414 C415 1.391 . S
C415 H403 0.950 . S
C415 C411 1.393 1_556 S
C415 C414 1.391 . S
H416 C424 0.950 . S
H417 C429 0.950 1_565 S
H418 C426 0.950 1_556 S
H419 C428 0.950 . S
H420 C430 0.950 . S
H421 C432 0.950 . S
H422 C434 0.950 . S
H423 C435 0.950 . S
C424 H416 0.950 . S
C424 C425 1.386 1_545 S
C424 C426 1.391 . S
C425 C424 1.386 1_565 S
C425 C429 1.393 1_565 S
C426 H418 0.950 1_554 S
C426 C424 1.391 . S
C426 C427 1.400 1_554 S
C427 C426 1.400 1_556 S
C427 C428 1.398 . S
C427 C433 1.491 . S
C428 H419 0.950 . S
C428 C427 1.398 . S
C428 C429 1.391 1_556 S
C429 H417 0.950 1_545 S
C429 C425 1.393 1_545 S
C429 C428 1.391 1_554 S
C430 H420 0.950 . S
C430 C431 1.386 . S
C430 C432 1.391 . S
C431 C430 1.386 . S
C431 C435 1.393 . S
C432 H421 0.950 . S
C432 C430 1.391 . S
C432 C433 1.400 . S
C433 C427 1.491 . S
C433 C432 1.400 . S
C433 C434 1.398 . S
C434 H422 0.950 . S
C434 C433 1.398 . S
C434 C435 1.391 . S
C435 H423 0.950 . S
C435 C431 1.393 . S
C435 C434 1.391 . S
H436 C444 0.950 . S
H437 C449 0.950 . S
H438 C446 0.950 . S
H439 C448 0.950 . S
H440 C450 0.934 1_456 S
H441 C452 0.950 . S
H442 C454 0.950 . S
H443 C455 0.950 . S
C444 H436 0.950 . S
C444 C445 1.386 . S
C444 C446 1.391 . S
C445 C444 1.386 . S
C445 C449 1.393 . S
C446 H438 0.950 . S
C446 C444 1.391 . S
C446 C447 1.400 . S
C447 C446 1.400 . S
C447 C448 1.398 . S
C447 C453 1.491 . S
C448 H439 0.950 . S
C448 C447 1.398 . S
C448 C449 1.391 . S
C449 H437 0.950 . S
C449 C445 1.393 . S
C449 C448 1.391 . S
C450 H440 0.934 1_654 S
C450 C451 1.351 1_655 S
C450 C452 1.444 1_554 S
C451 C450 1.351 1_455 S
C451 C455 1.393 1_455 S
C452 H441 0.950 . S
C452 C450 1.444 1_556 S
C452 C453 1.400 . S
C453 C447 1.491 . S
C453 C452 1.400 . S
C453 C454 1.398 1_556 S
C454 H442 0.950 . S
C454 C453 1.398 1_554 S
C454 C455 1.391 . S
C455 H443 0.950 . S
C455 C451 1.393 1_655 S
C455 C454 1.391 . S
H456 C464 0.950 . S
H457 C469 0.950 . S
H458 C466 0.950 . S
H459 C468 0.950 . S
H460 C470 0.950 . S
H461 C472 0.950 1_556 S
H462 C474 0.950 . S
H463 C475 0.950 . S
C464 H456 0.950 . S
C464 C465 1.386 1_554 S
C464 C466 1.391 . S
C465 C464 1.386 1_556 S
C465 C469 1.393 . S
C466 H458 0.950 . S
C466 C464 1.391 . S
C466 C467 1.400 . S
C467 C466 1.400 . S
C467 C468 1.398 1_554 S
C467 C473 1.491 . S
C468 H459 0.950 . S
C468 C467 1.398 1_556 S
C468 C469 1.391 . S
C469 H457 0.950 . S
C469 C465 1.393 . S
C469 C468 1.391 . S
C470 H460 0.950 . S
C470 C471 1.386 . S
C470 C472 1.391 . S
C471 C470 1.386 . S
C471 C475 1.393 . S
C472 H461 0.950 1_554 S
C472 C470 1.391 . S
C472 C473 1.400 . S
C473 C467 1.491 . S
C473 C472 1.400 . S
C473 C474 1.398 . S
C474 H462 0.950 . S
C474 C473 1.398 . S
C474 C475 1.391 . S
C475 H463 0.950 . S
C475 C471 1.393 . S
C475 C474 1.391 . S
H476 C484 0.950 1_545 S
H477 C489 0.950 . S
H478 C486 0.950 . S
H479 C488 0.950 . S
H480 C490 0.950 . S
H481 C492 0.950 . S
H482 C494 0.950 . S
H483 C495 0.950 . S
C484 H476 0.950 1_565 S
C484 C485 1.386 1_564 S
C484 C486 1.391 . S
C485 C484 1.386 1_546 S
C485 C489 1.393 1_545 S
C486 H478 0.950 . S
C486 C484 1.391 . S
C486 C487 1.400 . S
C487 C486 1.400 . S
C487 C488 1.398 1_554 S
C487 C493 1.491 . S
C488 H479 0.950 . S
C488 C487 1.398 1_556 S
C488 C489 1.391 . S
C489 H477 0.950 . S
C489 C485 1.393 1_565 S
C489 C488 1.391 . S
C490 H480 0.950 . S
C490 C491 1.386 1_556 S
C490 C492 1.391 . S
C491 C490 1.386 1_554 S
C491 C495 1.393 . S
C492 H481 0.950 . S
C492 C490 1.391 . S
C492 C493 1.400 1_556 S
C493 C487 1.491 . S
C493 C492 1.400 1_554 S
C493 C494 1.398 . S
C494 H482 0.950 . S
C494 C493 1.398 . S
C494 C495 1.391 . S
C495 H483 0.950 . S
C495 C491 1.393 . S
C495 C494 1.391 . S
H496 C504 0.950 . S
H497 C509 0.950 . S
H498 C506 0.950 . S
H499 C508 0.950 . S
H500 C510 0.950 1_655 S
H501 C512 0.950 . S
H502 C514 0.950 . S
H503 C515 0.950 . S
C504 H496 0.950 . S
C504 C505 1.386 . S
C504 C506 1.391 . S
C505 C504 1.386 . S
C505 C509 1.393 1_554 S
C506 H498 0.950 . S
C506 C504 1.391 . S
C506 C507 1.400 . S
C507 C506 1.400 . S
C507 C508 1.398 1_554 S
C507 C513 1.491 . S
C508 H499 0.950 . S
C508 C507 1.398 1_556 S
C508 C509 1.391 . S
C509 H497 0.950 . S
C509 C505 1.393 1_556 S
C509 C508 1.391 . S
C510 H500 0.950 1_455 S
C510 C511 1.386 1_455 S
C510 C512 1.391 . S
C511 C510 1.386 1_655 S
C511 C515 1.393 1_656 S
C512 H501 0.950 . S
C512 C510 1.391 . S
C512 C513 1.400 1_556 S
C513 C507 1.491 . S
C513 C512 1.400 1_554 S
C513 C514 1.398 . S
C514 H502 0.950 . S
C514 C513 1.398 . S
C514 C515 1.391 . S
C515 H503 0.950 . S
C515 C511 1.393 1_454 S
C515 C514 1.391 . S
H516 C524 0.950 . S
H517 C529 0.950 . S
H518 C526 0.950 . S
H519 C528 0.950 . S
H520 C530 0.950 . S
H521 C532 0.950 . S
H522 C534 0.950 . S
H523 C535 0.950 . S
C524 H516 0.950 . S
C524 C525 1.386 . S
C524 C526 1.391 . S
C525 C524 1.386 . S
C525 C529 1.393 . S
C526 H518 0.950 . S
C526 C524 1.391 . S
C526 C527 1.400 . S
C527 C526 1.400 . S
C527 C528 1.398 . S
C527 C533 1.491 . S
C528 H519 0.950 . S
C528 C527 1.398 . S
C528 C529 1.391 . S
C529 H517 0.950 . S
C529 C525 1.393 . S
C529 C528 1.391 . S
C530 H520 0.950 . S
C530 C531 1.386 . S
C530 C532 1.391 . S
C531 C530 1.386 . S
C531 C535 1.393 . S
C532 H521 0.950 . S
C532 C530 1.391 . S
C532 C533 1.400 . S
C533 C527 1.491 . S
C533 C532 1.400 . S
C533 C534 1.398 . S
C534 H522 0.950 . S
C534 C533 1.398 . S
C534 C535 1.391 . S
C535 H523 0.950 . S
C535 C531 1.393 . S
C535 C534 1.391 . S
H536 C544 0.950 . S
H537 C549 0.950 . S
H538 C546 0.950 . S
H539 C548 0.950 . S
H540 C550 0.950 . S
H541 C552 0.950 . S
H542 C554 0.950 . S
H543 C555 0.950 . S
C544 H536 0.950 . S
C544 C545 1.386 . S
C544 C546 1.391 . S
C545 C544 1.386 . S
C545 C549 1.393 . S
C546 H538 0.950 . S
C546 C544 1.391 . S
C546 C547 1.400 . S
C547 C546 1.400 . S
C547 C548 1.398 . S
C547 C553 1.491 . S
C548 H539 0.950 . S
C548 C547 1.398 . S
C548 C549 1.391 . S
C549 H537 0.950 . S
C549 C545 1.393 . S
C549 C548 1.391 . S
C550 H540 0.950 . S
C550 C551 1.386 . S
C550 C552 1.391 . S
C551 C550 1.386 . S
C551 C555 1.393 . S
C552 H541 0.950 . S
C552 C550 1.391 . S
C552 C553 1.400 . S
C553 C547 1.491 . S
C553 C552 1.400 . S
C553 C554 1.398 . S
C554 H542 0.950 . S
C554 C553 1.398 . S
C554 C555 1.391 . S
C555 H543 0.950 . S
C555 C551 1.393 . S
C555 C554 1.391 . S
H556 C564 0.950 . S
H557 C569 0.950 . S
H558 C566 0.950 . S
H559 C568 0.950 . S
H560 C570 0.950 . S
H561 C572 0.950 . S
H562 C574 0.950 . S
H563 C575 0.950 . S
C564 H556 0.950 . S
C564 C565 1.386 . S
C564 C566 1.391 . S
C565 C564 1.386 . S
C565 C569 1.393 . S
C566 H558 0.950 . S
C566 C564 1.391 . S
C566 C567 1.400 . S
C567 C566 1.400 . S
C567 C568 1.398 . S
C567 C573 1.491 . S
C568 H559 0.950 . S
C568 C567 1.398 . S
C568 C569 1.391 . S
C569 H557 0.950 . S
C569 C565 1.393 . S
C569 C568 1.391 . S
C570 H560 0.950 . S
C570 C571 1.386 . S
C570 C572 1.391 . S
C571 C570 1.386 . S
C571 C575 1.393 . S
C572 H561 0.950 . S
C572 C570 1.391 . S
C572 C573 1.400 . S
C573 C567 1.491 . S
C573 C572 1.400 . S
C573 C574 1.398 . S
C574 H562 0.950 . S
C574 C573 1.398 . S
C574 C575 1.391 . S
C575 H563 0.950 . S
C575 C571 1.393 . S
C575 C574 1.391 . S
H576 C584 0.950 . S
H577 C589 0.950 . S
H578 C586 0.950 . S
H579 C588 0.950 . S
H580 C590 0.950 . S
H581 C592 0.950 . S
H582 C594 0.950 . S
H583 C595 0.950 . S
C584 H576 0.950 . S
C584 C585 1.386 . S
C584 C586 1.391 . S
C585 C584 1.386 . S
C585 C589 1.393 . S
C586 H578 0.950 . S
C586 C584 1.391 . S
C586 C587 1.400 . S
C587 C586 1.400 . S
C587 C588 1.398 . S
C587 C593 1.491 . S
C588 H579 0.950 . S
C588 C587 1.398 . S
C588 C589 1.391 . S
C589 H577 0.950 . S
C589 C585 1.393 . S
C589 C588 1.391 . S
C590 H580 0.950 . S
C590 C591 1.386 . S
C590 C592 1.391 . S
C591 C590 1.386 . S
C591 C595 1.393 . S
C592 H581 0.950 . S
C592 C590 1.391 . S
C592 C593 1.400 . S
C593 C587 1.491 . S
C593 C592 1.400 . S
C593 C594 1.398 . S
C594 H582 0.950 . S
C594 C593 1.398 . S
C594 C595 1.391 . S
C595 H583 0.950 . S
C595 C591 1.393 . S
C595 C594 1.391 . S
H596 C604 0.950 . S
H597 C609 0.950 . S
H598 C606 0.950 . S
H599 C608 0.950 . S
H600 C610 0.950 . S
H601 C612 0.950 . S
H602 C614 0.950 . S
H603 C615 0.950 . S
C604 H596 0.950 . S
C604 C605 1.386 . S
C604 C606 1.391 . S
C605 C604 1.386 . S
C605 C609 1.393 . S
C606 H598 0.950 . S
C606 C604 1.391 . S
C606 C607 1.400 . S
C607 C606 1.400 . S
C607 C608 1.398 . S
C607 C613 1.491 . S
C608 H599 0.950 . S
C608 C607 1.398 . S
C608 C609 1.391 . S
C609 H597 0.950 . S
C609 C605 1.393 . S
C609 C608 1.391 . S
C610 H600 0.950 . S
C610 C611 1.386 . S
C610 C612 1.391 . S
C611 C610 1.386 . S
C611 C615 1.393 . S
C612 H601 0.950 . S
C612 C610 1.391 . S
C612 C613 1.400 . S
C613 C607 1.491 . S
C613 C612 1.400 . S
C613 C614 1.398 . S
C614 H602 0.950 . S
C614 C613 1.398 . S
C614 C615 1.391 . S
C615 H603 0.950 . S
C615 C611 1.393 . S
C615 C614 1.391 . S
H616 C624 0.950 . S
H617 C629 0.950 . S
H618 C626 0.950 . S
H619 C628 0.950 . S
H620 C630 0.950 . S
H621 C632 0.950 . S
H622 C634 0.950 . S
H623 C635 0.950 . S
C624 H616 0.950 . S
C624 C625 1.386 . S
C624 C626 1.391 . S
C625 C624 1.386 . S
C625 C629 1.393 . S
C626 H618 0.950 . S
C626 C624 1.391 . S
C626 C627 1.400 . S
C627 C626 1.400 . S
C627 C628 1.398 . S
C627 C633 1.491 . S
C628 H619 0.950 . S
C628 C627 1.398 . S
C628 C629 1.391 . S
C629 H617 0.950 . S
C629 C625 1.393 . S
C629 C628 1.391 . S
C630 H620 0.950 . S
C630 C631 1.386 . S
C630 C632 1.391 . S
C631 C630 1.386 . S
C631 C635 1.393 . S
C632 H621 0.950 . S
C632 C630 1.391 . S
C632 C633 1.400 . S
C633 C627 1.491 . S
C633 C632 1.400 . S
C633 C634 1.398 . S
C634 H622 0.950 . S
C634 C633 1.398 . S
C634 C635 1.391 . S
C635 H623 0.950 . S
C635 C631 1.393 . S
C635 C634 1.391 . S
H636 C644 0.950 . S
H637 C649 0.950 . S
H638 C646 0.950 . S
H639 C648 0.950 . S
H640 C650 0.950 . S
H641 C652 0.950 . S
H642 C654 0.950 . S
H643 C655 0.950 . S
C644 H636 0.950 . S
C644 C645 1.386 . S
C644 C646 1.391 . S
C645 C644 1.386 . S
C645 C649 1.393 . S
C646 H638 0.950 . S
C646 C644 1.391 . S
C646 C647 1.400 . S
C647 C646 1.400 . S
C647 C648 1.398 . S
C647 C653 1.491 . S
C648 H639 0.950 . S
C648 C647 1.398 . S
C648 C649 1.391 . S
C649 H637 0.950 . S
C649 C645 1.393 . S
C649 C648 1.391 . S
C650 H640 0.950 . S
C650 C651 1.386 . S
C650 C652 1.391 . S
C651 C650 1.386 . S
C651 C655 1.393 . S
C652 H641 0.950 . S
C652 C650 1.391 . S
C652 C653 1.400 . S
C653 C647 1.491 . S
C653 C652 1.400 . S
C653 C654 1.398 . S
C654 H642 0.950 . S
C654 C653 1.398 . S
C654 C655 1.391 . S
C655 H643 0.950 . S
C655 C651 1.393 . S
C655 C654 1.391 . S
H656 C664 0.950 . S
H657 C669 0.950 . S
H658 C666 0.950 . S
H659 C668 0.950 . S
H660 C670 0.950 . S
H661 C672 0.950 . S
H662 C674 0.950 . S
H663 C675 0.950 . S
C664 H656 0.950 . S
C664 C665 1.386 . S
C664 C666 1.391 . S
C665 C664 1.386 . S
C665 C669 1.393 . S
C666 H658 0.950 . S
C666 C664 1.391 . S
C666 C667 1.400 . S
C667 C666 1.400 . S
C667 C668 1.398 . S
C667 C673 1.491 . S
C668 H659 0.950 . S
C668 C667 1.398 . S
C668 C669 1.391 . S
C669 H657 0.950 . S
C669 C665 1.393 . S
C669 C668 1.391 . S
C670 H660 0.950 . S
C670 C671 1.386 . S
C670 C672 1.391 . S
C671 C670 1.386 . S
C671 C675 1.393 . S
C672 H661 0.950 . S
C672 C670 1.391 . S
C672 C673 1.400 . S
C673 C667 1.491 . S
C673 C672 1.400 . S
C673 C674 1.398 . S
C674 H662 0.950 . S
C674 C673 1.398 . S
C674 C675 1.391 . S
C675 H663 0.950 . S
C675 C671 1.393 . S
C675 C674 1.391 . S
H676 C684 0.950 . S
H677 C689 0.950 . S
H678 C686 0.950 . S
H679 C688 0.950 . S
H680 C690 0.950 . S
H681 C692 0.950 . S
H682 C694 0.950 . S
H683 C695 0.950 . S
C684 H676 0.950 . S
C684 C685 1.386 . S
C684 C686 1.391 . S
C685 C684 1.386 . S
C685 C689 1.393 . S
C686 H678 0.950 . S
C686 C684 1.391 . S
C686 C687 1.400 . S
C687 C686 1.400 . S
C687 C688 1.398 . S
C687 C693 1.491 . S
C688 H679 0.950 . S
C688 C687 1.398 . S
C688 C689 1.391 . S
C689 H677 0.950 . S
C689 C685 1.393 . S
C689 C688 1.391 . S
C690 H680 0.950 . S
C690 C691 1.386 . S
C690 C692 1.391 . S
C691 C690 1.386 . S
C691 C695 1.393 . S
C692 H681 0.950 . S
C692 C690 1.391 . S
C692 C693 1.400 . S
C693 C687 1.491 . S
C693 C692 1.400 . S
C693 C694 1.398 . S
C694 H682 0.950 . S
C694 C693 1.398 . S
C694 C695 1.391 . S
C695 H683 0.950 . S
C695 C691 1.393 . S
C695 C694 1.391 . S
H696 C704 0.950 . S
H697 C709 0.950 . S
H698 C706 0.950 . S
H699 C708 0.950 . S
H700 C710 0.950 . S
H701 C712 0.950 . S
H702 C714 0.950 . S
H703 C715 0.950 . S
C704 H696 0.950 . S
C704 C705 1.386 . S
C704 C706 1.391 . S
C705 C704 1.386 . S
C705 C709 1.393 . S
C706 H698 0.950 . S
C706 C704 1.391 . S
C706 C707 1.400 . S
C707 C706 1.400 . S
C707 C708 1.398 . S
C707 C713 1.491 . S
C708 H699 0.950 . S
C708 C707 1.398 . S
C708 C709 1.391 . S
C709 H697 0.950 . S
C709 C705 1.393 . S
C709 C708 1.391 . S
C710 H700 0.950 . S
C710 C711 1.386 . S
C710 C712 1.391 . S
C711 C710 1.386 . S
C711 C715 1.393 . S
C712 H701 0.950 . S
C712 C710 1.391 . S
C712 C713 1.400 . S
C713 C707 1.491 . S
C713 C712 1.400 . S
C713 C714 1.398 . S
C714 H702 0.950 . S
C714 C713 1.398 . S
C714 C715 1.391 . S
C715 H703 0.950 . S
C715 C711 1.393 . S
C715 C714 1.391 . S
H716 C724 0.950 . S
H717 C729 0.950 . S
H718 C726 0.950 . S
H719 C728 0.950 . S
H720 C730 0.950 . S
H721 C732 0.950 . S
H722 C734 0.950 . S
H723 C735 0.950 . S
C724 H716 0.950 . S
C724 C725 1.386 . S
C724 C726 1.391 . S
C725 C724 1.386 . S
C725 C729 1.393 . S
C726 H718 0.950 . S
C726 C724 1.391 . S
C726 C727 1.400 . S
C727 C726 1.400 . S
C727 C728 1.398 . S
C727 C733 1.491 . S
C728 H719 0.950 . S
C728 C727 1.398 . S
C728 C729 1.391 . S
C729 H717 0.950 . S
C729 C725 1.393 . S
C729 C728 1.391 . S
C730 H720 0.950 . S
C730 C731 1.386 . S
C730 C732 1.391 . S
C731 C730 1.386 . S
C731 C735 1.393 . S
C732 H721 0.950 . S
C732 C730 1.391 . S
C732 C733 1.400 . S
C733 C727 1.491 . S
C733 C732 1.400 . S
C733 C734 1.398 . S
C734 H722 0.950 . S
C734 C733 1.398 . S
C734 C735 1.391 . S
C735 H723 0.950 . S
C735 C731 1.393 . S
C735 C734 1.391 . S
H736 C744 0.950 . S
H737 C749 0.950 . S
H738 C746 0.950 . S
H739 C748 0.950 . S
H740 C750 0.950 . S
H741 C752 0.950 . S
H742 C754 0.950 . S
H743 C755 0.950 . S
C744 H736 0.950 . S
C744 C745 1.386 . S
C744 C746 1.391 . S
C745 C744 1.386 . S
C745 C749 1.393 . S
C746 H738 0.950 . S
C746 C744 1.391 . S
C746 C747 1.400 . S
C747 C746 1.400 . S
C747 C748 1.398 . S
C747 C753 1.491 . S
C748 H739 0.950 . S
C748 C747 1.398 . S
C748 C749 1.391 . S
C749 H737 0.950 . S
C749 C745 1.393 . S
C749 C748 1.391 . S
C750 H740 0.950 . S
C750 C751 1.386 . S
C750 C752 1.391 . S
C751 C750 1.386 . S
C751 C755 1.393 . S
C752 H741 0.950 . S
C752 C750 1.391 . S
C752 C753 1.400 . S
C753 C747 1.491 . S
C753 C752 1.400 . S
C753 C754 1.398 . S
C754 H742 0.950 . S
C754 C753 1.398 . S
C754 C755 1.391 . S
C755 H743 0.950 . S
C755 C751 1.393 . S
C755 C754 1.391 . S
H756 C764 0.950 . S
H757 C769 0.950 . S
H758 C766 0.950 . S
H759 C768 0.950 . S
H760 C770 0.950 . S
H761 C772 0.950 . S
H762 C774 0.950 . S
H763 C775 0.950 . S
C764 H756 0.950 . S
C764 C765 1.386 . S
C764 C766 1.391 . S
C765 C764 1.386 . S
C765 C769 1.393 . S
C766 H758 0.950 . S
C766 C764 1.391 . S
C766 C767 1.400 . S
C767 C766 1.400 . S
C767 C768 1.398 . S
C767 C773 1.491 . S
C768 H759 0.950 . S
C768 C767 1.398 . S
C768 C769 1.391 . S
C769 H757 0.950 . S
C769 C765 1.393 . S
C769 C768 1.391 . S
C770 H760 0.950 . S
C770 C771 1.386 . S
C770 C772 1.391 . S
C771 C770 1.386 . S
C771 C775 1.393 . S
C772 H761 0.950 . S
C772 C770 1.391 . S
C772 C773 1.400 . S
C773 C767 1.491 . S
C773 C772 1.400 . S
C773 C774 1.398 . S
C774 H762 0.950 . S
C774 C773 1.398 . S
C774 C775 1.391 . S
C775 H763 0.950 . S
C775 C771 1.393 . S
C775 C774 1.391 . S
H776 C784 0.950 . S
H777 C789 0.950 . S
H778 C786 0.950 . S
H779 C788 0.950 . S
H780 C790 0.950 . S
H781 C792 0.950 . S
H782 C794 0.950 . S
H783 C795 0.950 . S
C784 H776 0.950 . S
C784 C785 1.386 . S
C784 C786 1.391 . S
C785 C784 1.386 . S
C785 C789 1.393 . S
C786 H778 0.950 . S
C786 C784 1.391 . S
C786 C787 1.400 . S
C787 C786 1.400 . S
C787 C788 1.398 . S
C787 C793 1.491 . S
C788 H779 0.950 . S
C788 C787 1.398 . S
C788 C789 1.391 . S
C789 H777 0.950 . S
C789 C785 1.393 . S
C789 C788 1.391 . S
C790 H780 0.950 . S
C790 C791 1.386 . S
C790 C792 1.391 . S
C791 C790 1.386 . S
C791 C795 1.393 . S
C792 H781 0.950 . S
C792 C790 1.391 . S
C792 C793 1.400 . S
C793 C787 1.491 . S
C793 C792 1.400 . S
C793 C794 1.398 . S
C794 H782 0.950 . S
C794 C793 1.398 . S
C794 C795 1.391 . S
C795 H783 0.950 . S
C795 C791 1.393 . S
C795 C794 1.391 . S
H796 C804 0.950 . S
H797 C809 0.950 . S
H798 C806 0.950 . S
H799 C808 0.950 . S
H800 C810 0.950 . S
H801 C812 0.950 . S
H802 C814 0.950 . S
H803 C815 0.950 . S
C804 H796 0.950 . S
C804 C805 1.386 . S
C804 C806 1.391 . S
C805 C804 1.386 . S
C805 C809 1.393 . S
C806 H798 0.950 . S
C806 C804 1.391 . S
C806 C807 1.400 . S
C807 C806 1.400 . S
C807 C808 1.398 . S
C807 C813 1.491 . S
C808 H799 0.950 . S
C808 C807 1.398 . S
C808 C809 1.391 . S
C809 H797 0.950 . S
C809 C805 1.393 . S
C809 C808 1.391 . S
C810 H800 0.950 . S
C810 C811 1.386 . S
C810 C812 1.391 . S
C811 C810 1.386 . S
C811 C815 1.393 . S
C812 H801 0.950 . S
C812 C810 1.391 . S
C812 C813 1.400 . S
C813 C807 1.491 . S
C813 C812 1.400 . S
C813 C814 1.398 . S
C814 H802 0.950 . S
C814 C813 1.398 . S
C814 C815 1.391 . S
C815 H803 0.950 . S
C815 C811 1.393 . S
C815 C814 1.391 . S
H816 C824 0.950 . S
H817 C829 0.950 . S
H818 C826 0.950 . S
H819 C828 0.950 . S
H820 C830 0.950 . S
H821 C832 0.950 . S
H822 C834 0.950 . S
H823 C835 0.950 . S
C824 H816 0.950 . S
C824 C825 1.386 . S
C824 C826 1.391 . S
C825 C824 1.386 . S
C825 C829 1.393 . S
C826 H818 0.950 . S
C826 C824 1.391 . S
C826 C827 1.400 . S
C827 C826 1.400 . S
C827 C828 1.398 . S
C827 C833 1.491 . S
C828 H819 0.950 . S
C828 C827 1.398 . S
C828 C829 1.391 . S
C829 H817 0.950 . S
C829 C825 1.393 . S
C829 C828 1.391 . S
C830 H820 0.950 . S
C830 C831 1.386 . S
C830 C832 1.391 . S
C831 C830 1.386 . S
C831 C835 1.393 . S
C832 H821 0.950 . S
C832 C830 1.391 . S
C832 C833 1.400 . S
C833 C827 1.491 . S
C833 C832 1.400 . S
C833 C834 1.398 . S
C834 H822 0.950 . S
C834 C833 1.398 . S
C834 C835 1.391 . S
C835 H823 0.950 . S
C835 C831 1.393 . S
C835 C834 1.391 . S
H836 C844 0.950 . S
H837 C849 0.950 . S
H838 C846 0.950 . S
H839 C848 0.950 . S
H840 C850 0.950 . S
H841 C852 0.950 . S
H842 C854 0.950 . S
H843 C855 0.950 . S
C844 H836 0.950 . S
C844 C845 1.386 . S
C844 C846 1.391 . S
C845 C844 1.386 . S
C845 C849 1.393 . S
C846 H838 0.950 . S
C846 C844 1.391 . S
C846 C847 1.400 . S
C847 C846 1.400 . S
C847 C848 1.398 . S
C847 C853 1.491 . S
C848 H839 0.950 . S
C848 C847 1.398 . S
C848 C849 1.391 . S
C849 H837 0.950 . S
C849 C845 1.393 . S
C849 C848 1.391 . S
C850 H840 0.950 . S
C850 C851 1.386 . S
C850 C852 1.391 . S
C851 C850 1.386 . S
C851 C855 1.393 . S
C852 H841 0.950 . S
C852 C850 1.391 . S
C852 C853 1.400 . S
C853 C847 1.491 . S
C853 C852 1.400 . S
C853 C854 1.398 . S
C854 H842 0.950 . S
C854 C853 1.398 . S
C854 C855 1.391 . S
C855 H843 0.950 . S
C855 C851 1.393 . S
C855 C854 1.391 . S
H856 C864 0.950 . S
H857 C869 0.950 . S
H858 C866 0.950 . S
H859 C868 0.950 . S
H860 C870 0.950 . S
H861 C872 0.950 . S
H862 C874 0.950 . S
H863 C875 0.950 . S
C864 H856 0.950 . S
C864 C865 1.386 . S
C864 C866 1.391 . S
C865 C864 1.386 . S
C865 C869 1.393 . S
C866 H858 0.950 . S
C866 C864 1.391 . S
C866 C867 1.400 . S
C867 C866 1.400 . S
C867 C868 1.398 . S
C867 C873 1.491 . S
C868 H859 0.950 . S
C868 C867 1.398 . S
C868 C869 1.391 . S
C869 H857 0.950 . S
C869 C865 1.393 . S
C869 C868 1.391 . S
C870 H860 0.950 . S
C870 C871 1.386 . S
C870 C872 1.391 . S
C871 C870 1.386 . S
C871 C875 1.393 . S
C872 H861 0.950 . S
C872 C870 1.391 . S
C872 C873 1.400 . S
C873 C867 1.491 . S
C873 C872 1.400 . S
C873 C874 1.398 . S
C874 H862 0.950 . S
C874 C873 1.398 . S
C874 C875 1.391 . S
C875 H863 0.950 . S
C875 C871 1.393 . S
C875 C874 1.391 . S
H876 C884 0.960 1_545 S
H877 C889 0.950 . S
H878 C886 0.950 . S
H879 C888 0.950 . S
H880 C890 0.960 1_565 S
H881 C892 0.950 . S
H882 C894 0.950 . S
H883 C895 0.950 . S
C884 H876 0.960 1_565 S
C884 C885 1.386 . S
C884 C886 1.391 1_565 S
C885 C884 1.386 . S
C885 C889 1.393 . S
C886 H878 0.950 . S
C886 C884 1.391 1_545 S
C886 C887 1.400 1_545 S
C887 C886 1.400 1_565 S
C887 C888 1.398 . S
C887 C893 1.491 1_565 S
C888 H879 0.950 . S
C888 C887 1.398 . S
C888 C889 1.391 . S
C889 H877 0.950 . S
C889 C885 1.393 . S
C889 C888 1.391 . S
C890 H880 0.960 1_545 S
C890 C891 1.386 . S
C890 C892 1.391 1_545 S
C891 C890 1.386 . S
C891 C895 1.393 . S
C892 H881 0.950 . S
C892 C890 1.391 1_565 S
C892 C893 1.400 1_565 S
C893 C887 1.491 1_545 S
C893 C892 1.400 1_545 S
C893 C894 1.398 . S
C894 H882 0.950 . S
C894 C893 1.398 . S
C894 C895 1.391 . S
C895 H883 0.950 . S
C895 C891 1.393 . S
C895 C894 1.391 . S
H896 C904 0.950 . S
H897 C909 0.950 . S
H898 C906 0.950 . S
H899 C908 0.950 . S
H900 C910 0.950 . S
H901 C912 0.950 . S
H902 C914 0.950 . S
H903 C915 0.950 . S
C904 H896 0.950 . S
C904 C905 1.386 . S
C904 C906 1.391 . S
C905 C904 1.386 . S
C905 C909 1.393 1_455 S
C906 H898 0.950 . S
C906 C904 1.391 . S
C906 C907 1.400 . S
C907 C906 1.400 . S
C907 C908 1.398 1_455 S
C907 C913 1.491 1_455 S
C908 H899 0.950 . S
C908 C907 1.398 1_655 S
C908 C909 1.391 . S
C909 H897 0.950 . S
C909 C905 1.393 1_655 S
C909 C908 1.391 . S
C910 H900 0.950 . S
C910 C911 1.386 . S
C910 C912 1.391 . S
C911 C910 1.386 . S
C911 C915 1.393 1_655 S
C912 H901 0.950 . S
C912 C910 1.391 . S
C912 C913 1.400 . S
C913 C907 1.491 1_655 S
C913 C912 1.400 . S
C913 C914 1.398 1_655 S
C914 H902 0.950 . S
C914 C913 1.398 1_455 S
C914 C915 1.391 . S
C915 H903 0.950 . S
C915 C911 1.393 1_455 S
C915 C914 1.391 . S
H916 C924 0.950 . S
H917 C929 0.950 . S
H918 C926 0.950 . S
H919 C928 0.950 . S
H920 C930 0.950 . S
H921 C932 0.950 . S
H922 C934 0.950 . S
H923 C935 0.950 . S
C924 H916 0.950 . S
C924 C925 1.386 . S
C924 C926 1.391 . S
C925 C924 1.386 . S
C925 C929 1.393 . S
C926 H918 0.950 . S
C926 C924 1.391 . S
C926 C927 1.400 . S
C927 C926 1.400 . S
C927 C928 1.398 . S
C927 C933 1.491 . S
C928 H919 0.950 . S
C928 C927 1.398 . S
C928 C929 1.391 . S
C929 H917 0.950 . S
C929 C925 1.393 . S
C929 C928 1.391 . S
C930 H920 0.950 . S
C930 C931 1.386 . S
C930 C932 1.391 . S
C931 C930 1.386 . S
C931 C935 1.393 . S
C932 H921 0.950 . S
C932 C930 1.391 . S
C932 C933 1.400 . S
C933 C927 1.491 . S
C933 C932 1.400 . S
C933 C934 1.398 . S
C934 H922 0.950 . S
C934 C933 1.398 . S
C934 C935 1.391 . S
C935 H923 0.950 . S
C935 C931 1.393 . S
C935 C934 1.391 . S
H936 C944 0.950 . S
H937 C949 0.950 . S
H938 C946 0.950 . S
H939 C948 0.950 . S
H940 C950 0.950 . S
H941 C952 0.950 . S
H942 C954 0.950 . S
H943 C955 0.950 . S
C944 H936 0.950 . S
C944 C945 1.386 . S
C944 C946 1.391 . S
C945 C944 1.386 . S
C945 C949 1.393 . S
C946 H938 0.950 . S
C946 C944 1.391 . S
C946 C947 1.400 . S
C947 C946 1.400 . S
C947 C948 1.398 . S
C947 C953 1.491 . S
C948 H939 0.950 . S
C948 C947 1.398 . S
C948 C949 1.391 . S
C949 H937 0.950 . S
C949 C945 1.393 . S
C949 C948 1.391 . S
C950 H940 0.950 . S
C950 C951 1.386 . S
C950 C952 1.391 . S
C951 C950 1.386 . S
C951 C955 1.393 . S
C952 H941 0.950 . S
C952 C950 1.391 . S
C952 C953 1.400 . S
C953 C947 1.491 . S
C953 C952 1.400 . S
C953 C954 1.398 . S
C954 H942 0.950 . S
C954 C953 1.398 . S
C954 C955 1.391 . S
C955 H943 0.950 . S
C955 C951 1.393 . S
C955 C954 1.391 . S
H956 C964 0.950 . S
H957 C969 0.950 . S
H958 C966 0.950 . S
H959 C968 0.950 . S
H960 C970 0.950 . S
H961 C972 0.950 . S
H962 C974 0.950 . S
H963 C975 0.950 . S
C964 H956 0.950 . S
C964 C965 1.386 . S
C964 C966 1.391 . S
C965 C964 1.386 . S
C965 C969 1.393 . S
C966 H958 0.950 . S
C966 C964 1.391 . S
C966 C967 1.400 . S
C967 C966 1.400 . S
C967 C968 1.398 . S
C967 C973 1.491 . S
C968 H959 0.950 . S
C968 C967 1.398 . S
C968 C969 1.391 . S
C969 H957 0.950 . S
C969 C965 1.393 . S
C969 C968 1.391 . S
C970 H960 0.950 . S
C970 C971 1.386 . S
C970 C972 1.391 1_565 S
C971 C970 1.386 . S
C971 C975 1.393 . S
C972 H961 0.950 . S
C972 C970 1.391 1_545 S
C972 C973 1.400 . S
C973 C967 1.491 . S
C973 C972 1.400 . S
C973 C974 1.398 . S
C974 H962 0.950 . S
C974 C973 1.398 . S
C974 C975 1.391 1_545 S
C975 H963 0.950 . S
C975 C971 1.393 . S
C975 C974 1.391 1_565 S
H976 C984 0.950 . S
H977 C989 0.950 . S
H978 C986 0.950 . S
H979 C988 0.950 . S
H980 C990 0.950 . S
H981 C992 0.950 . S
H982 C994 0.950 . S
H983 C995 0.950 . S
C984 H976 0.950 . S
C984 C985 1.386 . S
C984 C986 1.391 . S
C985 C984 1.386 . S
C985 C989 1.393 . S
C986 H978 0.950 . S
C986 C984 1.391 . S
C986 C987 1.400 . S
C987 C986 1.400 . S
C987 C988 1.398 . S
C987 C993 1.491 . S
C988 H979 0.950 . S
C988 C987 1.398 . S
C988 C989 1.391 . S
C989 H977 0.950 . S
C989 C985 1.393 . S
C989 C988 1.391 . S
C990 H980 0.950 . S
C990 C991 1.386 . S
C990 C992 1.391 1_455 S
C991 C990 1.386 . S
C991 C995 1.393 . S
C992 H981 0.950 . S
C992 C990 1.391 1_655 S
C992 C993 1.400 . S
C993 C987 1.491 . S
C993 C992 1.400 . S
C993 C994 1.398 1_655 S
C994 H982 0.950 . S
C994 C993 1.398 1_455 S
C994 C995 1.391 . S
C995 H983 0.950 . S
C995 C991 1.393 . S
C995 C994 1.391 . S
H996 C1004 0.950 . S
H997 C1009 0.950 . S
H998 C1006 0.950 . S
H999 C1008 0.950 . S
H1000 C1010 0.950 . S
H1001 C1012 0.950 . S
H1002 C1014 0.950 . S
H1003 C1015 0.950 . S
C1004 H996 0.950 . S
C1004 C1005 1.386 . S
C1004 C1006 1.391 . S
C1005 C1004 1.386 . S
C1005 C1009 1.393 . S
C1006 H998 0.950 . S
C1006 C1004 1.391 . S
C1006 C1007 1.400 . S
C1007 C1006 1.400 . S
C1007 C1008 1.398 . S
C1007 C1013 1.491 . S
C1008 H999 0.950 . S
C1008 C1007 1.398 . S
C1008 C1009 1.391 . S
C1009 H997 0.950 . S
C1009 C1005 1.393 . S
C1009 C1008 1.391 . S
C1010 H1000 0.950 . S
C1010 C1011 1.386 . S
C1010 C1012 1.391 . S
C1011 C1010 1.386 . S
C1011 C1015 1.393 . S
C1012 H1001 0.950 . S
C1012 C1010 1.391 . S
C1012 C1013 1.400 . S
C1013 C1007 1.491 . S
C1013 C1012 1.400 . S
C1013 C1014 1.398 . S
C1014 H1002 0.950 . S
C1014 C1013 1.398 . S
C1014 C1015 1.391 . S
C1015 H1003 0.950 . S
C1015 C1011 1.393 . S
C1015 C1014 1.391 . S
H1016 C1024 0.950 . S
H1017 C1029 0.950 . S
H1018 C1026 0.950 . S
H1019 C1028 0.950 . S
H1020 C1030 0.950 . S
H1021 C1032 0.950 . S
H1022 C1034 0.954 . S
H1023 C1035 0.950 . S
C1024 H1016 0.950 . S
C1024 C1025 1.386 . S
C1024 C1026 1.391 . S
C1025 C1024 1.386 . S
C1025 C1029 1.393 . S
C1026 H1018 0.950 . S
C1026 C1024 1.391 . S
C1026 C1027 1.400 . S
C1027 C1026 1.400 . S
C1027 C1028 1.398 . S
C1027 C1033 1.491 . S
C1028 H1019 0.950 . S
C1028 C1027 1.398 . S
C1028 C1029 1.391 . S
C1029 H1017 0.950 . S
C1029 C1025 1.393 . S
C1029 C1028 1.391 . S
C1030 H1020 0.950 . S
C1030 C1031 1.386 . S
C1030 C1032 1.391 1_545 S
C1031 C1030 1.386 . S
C1031 C1035 1.393 . S
C1032 H1021 0.950 . S
C1032 C1030 1.391 1_565 S
C1032 C1033 1.400 . S
C1033 C1027 1.491 . S
C1033 C1032 1.400 . S
C1033 C1034 1.419 . S
C1034 H1022 0.954 . S
C1034 C1033 1.419 . S
C1034 C1035 1.366 1_565 S
C1035 H1023 0.950 . S
C1035 C1031 1.393 . S
C1035 C1034 1.366 1_545 S
H1036 C1044 0.950 . S
H1037 C1049 0.950 . S
H1038 C1046 0.950 . S
H1039 C1048 0.950 . S
H1040 C1050 0.950 . S
H1041 C1052 0.950 . S
H1042 C1054 0.950 . S
H1043 C1055 0.950 . S
C1044 H1036 0.950 . S
C1044 C1045 1.386 . S
C1044 C1046 1.391 1_655 S
C1045 C1044 1.386 . S
C1045 C1049 1.393 . S
C1046 H1038 0.950 . S
C1046 C1044 1.391 1_455 S
C1046 C1047 1.400 . S
C1047 C1046 1.400 . S
C1047 C1048 1.398 1_455 S
C1047 C1053 1.491 . S
C1048 H1039 0.950 . S
C1048 C1047 1.398 1_655 S
C1048 C1049 1.391 . S
C1049 H1037 0.950 . S
C1049 C1045 1.393 . S
C1049 C1048 1.391 . S
C1050 H1040 0.950 . S
C1050 C1051 1.386 . S
C1050 C1052 1.391 . S
C1051 C1050 1.386 . S
C1051 C1055 1.393 . S
C1052 H1041 0.950 . S
C1052 C1050 1.391 . S
C1052 C1053 1.400 . S
C1053 C1047 1.491 . S
C1053 C1052 1.400 . S
C1053 C1054 1.398 . S
C1054 H1042 0.950 . S
C1054 C1053 1.398 . S
C1054 C1055 1.391 . S
C1055 H1043 0.950 . S
C1055 C1051 1.393 . S
C1055 C1054 1.391 . S
H1056 C1064 0.950 . S
H1057 C1069 0.950 . S
H1058 C1066 0.950 . S
H1059 C1068 0.950 . S
H1060 C1070 0.950 . S
H1061 C1072 0.950 . S
H1062 C1074 0.973 . S
H1063 C1075 0.950 . S
C1064 H1056 0.950 . S
C1064 C1065 1.386 . S
C1064 C1066 1.391 . S
C1065 C1064 1.386 . S
C1065 C1069 1.393 . S
C1066 H1058 0.950 . S
C1066 C1064 1.391 . S
C1066 C1067 1.400 . S
C1067 C1066 1.400 . S
C1067 C1068 1.398 . S
C1067 C1073 1.491 . S
C1068 H1059 0.950 . S
C1068 C1067 1.398 . S
C1068 C1069 1.391 . S
C1069 H1057 0.950 . S
C1069 C1065 1.393 . S
C1069 C1068 1.391 . S
C1070 H1060 0.950 . S
C1070 C1071 1.386 . S
C1070 C1072 1.391 1_455 S
C1071 C1070 1.386 . S
C1071 C1075 1.393 . S
C1072 H1061 0.950 . S
C1072 C1070 1.391 1_655 S
C1072 C1073 1.400 . S
C1073 C1067 1.491 . S
C1073 C1072 1.400 . S
C1073 C1074 1.398 1_655 S
C1074 H1062 0.973 . S
C1074 C1073 1.398 1_455 S
C1074 C1075 1.391 . S
C1075 H1063 0.950 . S
C1075 C1071 1.393 . S
C1075 C1074 1.391 . S
H1076 C1084 0.950 . S
H1077 C1089 0.950 . S
H1078 C1086 0.950 . S
H1079 C1088 0.950 . S
H1080 C1090 0.950 . S
H1081 C1092 0.950 . S
H1082 C1094 0.950 . S
H1083 C1095 0.950 . S
C1084 H1076 0.950 . S
C1084 C1085 1.386 . S
C1084 C1086 1.391 . S
C1085 C1084 1.386 . S
C1085 C1089 1.393 . S
C1086 H1078 0.950 . S
C1086 C1084 1.391 . S
C1086 C1087 1.400 . S
C1087 C1086 1.400 . S
C1087 C1088 1.398 . S
C1087 C1093 1.491 . S
C1088 H1079 0.950 . S
C1088 C1087 1.398 . S
C1088 C1089 1.391 . S
C1089 H1077 0.950 . S
C1089 C1085 1.393 . S
C1089 C1088 1.391 . S
C1090 H1080 0.950 . S
C1090 C1091 1.386 . S
C1090 C1092 1.391 . S
C1091 C1090 1.386 . S
C1091 C1095 1.393 . S
C1092 H1081 0.950 . S
C1092 C1090 1.391 . S
C1092 C1093 1.400 . S
C1093 C1087 1.491 . S
C1093 C1092 1.400 . S
C1093 C1094 1.398 . S
C1094 H1082 0.950 . S
C1094 C1093 1.398 . S
C1094 C1095 1.391 . S
C1095 H1083 0.950 . S
C1095 C1091 1.393 . S
C1095 C1094 1.391 . S
H1096 C1104 0.950 . S
H1097 C1109 0.950 . S
H1098 C1106 0.950 . S
H1099 C1108 0.950 . S
H1100 C1110 0.950 . S
H1101 C1112 0.950 . S
H1102 C1114 0.981 1_545 S
H1103 C1115 0.950 . S
C1104 H1096 0.950 . S
C1104 C1105 1.386 . S
C1104 C1106 1.391 . S
C1105 C1104 1.386 . S
C1105 C1109 1.393 . S
C1106 H1098 0.950 . S
C1106 C1104 1.391 . S
C1106 C1107 1.400 . S
C1107 C1106 1.400 . S
C1107 C1108 1.398 . S
C1107 C1113 1.491 . S
C1108 H1099 0.950 . S
C1108 C1107 1.398 . S
C1108 C1109 1.391 . S
C1109 H1097 0.950 . S
C1109 C1105 1.393 . S
C1109 C1108 1.391 . S
C1110 H1100 0.950 . S
C1110 C1111 1.386 . S
C1110 C1112 1.391 1_565 S
C1111 C1110 1.386 . S
C1111 C1115 1.393 . S
C1112 H1101 0.950 . S
C1112 C1110 1.391 1_545 S
C1112 C1113 1.400 . S
C1113 C1107 1.491 . S
C1113 C1112 1.400 . S
C1113 C1114 1.354 1_545 S
C1114 H1102 0.981 1_565 S
C1114 C1113 1.354 1_565 S
C1114 C1115 1.415 . S
C1115 H1103 0.950 . S
C1115 C1111 1.393 . S
C1115 C1114 1.415 . S
H1116 C1124 0.950 . S
H1117 C1129 0.950 . S
H1118 C1126 0.950 . S
H1119 C1128 0.950 . S
H1120 C1130 0.950 . S
H1121 C1132 0.950 . S
H1122 C1134 0.950 . S
H1123 C1135 0.950 . S
C1124 H1116 0.950 . S
C1124 C1125 1.386 . S
C1124 C1126 1.391 . S
C1125 C1124 1.386 . S
C1125 C1129 1.393 . S
C1126 H1118 0.950 . S
C1126 C1124 1.391 . S
C1126 C1127 1.400 . S
C1127 C1126 1.400 . S
C1127 C1128 1.398 . S
C1127 C1133 1.491 . S
C1128 H1119 0.950 . S
C1128 C1127 1.398 . S
C1128 C1129 1.391 . S
C1129 H1117 0.950 . S
C1129 C1125 1.393 . S
C1129 C1128 1.391 . S
C1130 H1120 0.950 . S
C1130 C1131 1.386 . S
C1130 C1132 1.391 . S
C1131 C1130 1.386 . S
C1131 C1135 1.393 . S
C1132 H1121 0.950 . S
C1132 C1130 1.391 . S
C1132 C1133 1.400 . S
C1133 C1127 1.491 . S
C1133 C1132 1.400 . S
C1133 C1134 1.398 . S
C1134 H1122 0.950 . S
C1134 C1133 1.398 . S
C1134 C1135 1.391 . S
C1135 H1123 0.950 . S
C1135 C1131 1.393 . S
C1135 C1134 1.391 . S
H1136 C1144 0.950 1_556 S
H1137 C1149 0.950 . S
H1138 C1146 0.950 . S
H1139 C1148 0.950 . S
H1140 C1150 0.950 . S
H1141 C1152 0.950 . S
H1142 C1154 0.950 . S
H1143 C1155 0.950 . S
C1144 H1136 0.950 1_554 S
C1144 C1145 1.386 . S
C1144 C1146 1.391 . S
C1145 C1144 1.386 . S
C1145 C1149 1.393 . S
C1146 H1138 0.950 . S
C1146 C1144 1.391 . S
C1146 C1147 1.400 . S
C1147 C1146 1.400 . S
C1147 C1148 1.398 . S
C1147 C1153 1.491 . S
C1148 H1139 0.950 . S
C1148 C1147 1.398 . S
C1148 C1149 1.391 . S
C1149 H1137 0.950 . S
C1149 C1145 1.393 . S
C1149 C1148 1.391 . S
C1150 H1140 0.950 . S
C1150 C1151 1.386 . S
C1150 C1152 1.391 . S
C1151 C1150 1.386 . S
C1151 C1155 1.393 . S
C1152 H1141 0.950 . S
C1152 C1150 1.391 . S
C1152 C1153 1.400 . S
C1153 C1147 1.491 . S
C1153 C1152 1.400 . S
C1153 C1154 1.398 . S
C1154 H1142 0.950 . S
C1154 C1153 1.398 . S
C1154 C1155 1.391 . S
C1155 H1143 0.950 . S
C1155 C1151 1.393 . S
C1155 C1154 1.391 . S
H1156 C1164 0.950 . S
H1157 C1169 0.950 . S
H1158 C1166 0.950 . S
H1159 C1168 0.950 . S
H1160 C1170 0.950 . S
H1161 C1172 0.950 . S
H1162 C1174 0.950 . S
H1163 C1175 0.950 . S
C1164 H1156 0.950 . S
C1164 C1165 1.386 . S
C1164 C1166 1.391 . S
C1165 C1164 1.386 . S
C1165 C1169 1.393 . S
C1166 H1158 0.950 . S
C1166 C1164 1.391 . S
C1166 C1167 1.400 . S
C1167 C1166 1.400 . S
C1167 C1168 1.398 . S
C1167 C1173 1.491 . S
C1168 H1159 0.950 . S
C1168 C1167 1.398 . S
C1168 C1169 1.391 . S
C1169 H1157 0.950 . S
C1169 C1165 1.393 . S
C1169 C1168 1.391 . S
C1170 H1160 0.950 . S
C1170 C1171 1.386 . S
C1170 C1172 1.391 . S
C1171 C1170 1.386 . S
C1171 C1175 1.393 . S
C1172 H1161 0.950 . S
C1172 C1170 1.391 . S
C1172 C1173 1.400 . S
C1173 C1167 1.491 . S
C1173 C1172 1.400 . S
C1173 C1174 1.398 . S
C1174 H1162 0.950 . S
C1174 C1173 1.398 . S
C1174 C1175 1.391 . S
C1175 H1163 0.950 . S
C1175 C1171 1.393 . S
C1175 C1174 1.391 . S
H1176 C1184 0.950 . S
H1177 C1189 0.950 . S
H1178 C1186 0.950 . S
H1179 C1188 0.950 . S
H1180 C1190 0.947 1_554 S
H1181 C1192 0.950 . S
H1182 C1194 0.950 . S
H1183 C1195 0.950 . S
C1184 H1176 0.950 . S
C1184 C1185 1.386 . S
C1184 C1186 1.391 . S
C1185 C1184 1.386 . S
C1185 C1189 1.393 . S
C1186 H1178 0.950 . S
C1186 C1184 1.391 . S
C1186 C1187 1.400 . S
C1187 C1186 1.400 . S
C1187 C1188 1.398 . S
C1187 C1193 1.491 . S
C1188 H1179 0.950 . S
C1188 C1187 1.398 . S
C1188 C1189 1.391 . S
C1189 H1177 0.950 . S
C1189 C1185 1.393 . S
C1189 C1188 1.391 . S
C1190 H1180 0.947 1_556 S
C1190 C1191 1.386 . S
C1190 C1192 1.391 . S
C1191 C1190 1.386 . S
C1191 C1195 1.393 . S
C1192 H1181 0.950 . S
C1192 C1190 1.391 . S
C1192 C1193 1.400 . S
C1193 C1187 1.491 . S
C1193 C1192 1.400 . S
C1193 C1194 1.398 . S
C1194 H1182 0.950 . S
C1194 C1193 1.398 . S
C1194 C1195 1.391 . S
C1195 H1183 0.950 . S
C1195 C1191 1.393 . S
C1195 C1194 1.391 . S
H1196 C1204 0.950 . S
H1197 C1209 0.950 . S
H1198 C1206 0.950 . S
H1199 C1208 0.950 . S
H1200 C1210 0.950 . S
H1201 C1212 0.950 . S
H1202 C1214 0.950 . S
H1203 C1215 0.950 . S
C1204 H1196 0.950 . S
C1204 C1205 1.386 . S
C1204 C1206 1.391 . S
C1205 C1204 1.386 . S
C1205 C1209 1.393 . S
C1206 H1198 0.950 . S
C1206 C1204 1.391 . S
C1206 C1207 1.400 . S
C1207 C1206 1.400 . S
C1207 C1208 1.398 . S
C1207 C1213 1.491 . S
C1208 H1199 0.950 . S
C1208 C1207 1.398 . S
C1208 C1209 1.391 . S
C1209 H1197 0.950 . S
C1209 C1205 1.393 . S
C1209 C1208 1.391 . S
C1210 H1200 0.950 . S
C1210 C1211 1.386 . S
C1210 C1212 1.391 . S
C1211 C1210 1.386 . S
C1211 C1215 1.393 . S
C1212 H1201 0.950 . S
C1212 C1210 1.391 . S
C1212 C1213 1.400 . S
C1213 C1207 1.491 . S
C1213 C1212 1.400 . S
C1213 C1214 1.398 . S
C1214 H1202 0.950 . S
C1214 C1213 1.398 . S
C1214 C1215 1.391 . S
C1215 H1203 0.950 . S
C1215 C1211 1.393 . S
C1215 C1214 1.391 . S
H1216 C1224 0.950 . S
H1217 C1229 0.950 . S
H1218 C1226 0.950 . S
H1219 C1228 0.950 . S
H1220 C1230 0.950 . S
H1221 C1232 0.950 . S
H1222 C1234 0.950 . S
H1223 C1235 0.950 . S
C1224 H1216 0.950 . S
C1224 C1225 1.386 . S
C1224 C1226 1.391 . S
C1225 C1224 1.386 . S
C1225 C1229 1.393 . S
C1226 H1218 0.950 . S
C1226 C1224 1.391 . S
C1226 C1227 1.400 . S
C1227 C1226 1.400 . S
C1227 C1228 1.398 . S
C1227 C1233 1.491 . S
C1228 H1219 0.950 . S
C1228 C1227 1.398 . S
C1228 C1229 1.391 . S
C1229 H1217 0.950 . S
C1229 C1225 1.393 . S
C1229 C1228 1.391 . S
C1230 H1220 0.950 . S
C1230 C1231 1.386 . S
C1230 C1232 1.391 . S
C1231 C1230 1.386 . S
C1231 C1235 1.393 . S
C1232 H1221 0.950 . S
C1232 C1230 1.391 . S
C1232 C1233 1.400 . S
C1233 C1227 1.491 . S
C1233 C1232 1.400 . S
C1233 C1234 1.398 . S
C1234 H1222 0.950 . S
C1234 C1233 1.398 . S
C1234 C1235 1.391 . S
C1235 H1223 0.950 . S
C1235 C1231 1.393 . S
C1235 C1234 1.391 . S
H1236 C1244 0.950 . S
H1237 C1249 0.950 . S
H1238 C1246 0.950 . S
H1239 C1248 0.950 . S
H1240 C1250 0.950 . S
H1241 C1252 0.950 . S
H1242 C1254 0.950 . S
H1243 C1255 0.950 . S
C1244 H1236 0.950 . S
C1244 C1245 1.386 . S
C1244 C1246 1.391 1_655 S
C1245 C1244 1.386 . S
C1245 C1249 1.393 . S
C1246 H1238 0.950 . S
C1246 C1244 1.391 1_455 S
C1246 C1247 1.400 . S
C1247 C1246 1.400 . S
C1247 C1248 1.398 . S
C1247 C1253 1.491 . S
C1248 H1239 0.950 . S
C1248 C1247 1.398 . S
C1248 C1249 1.391 1_455 S
C1249 H1237 0.950 . S
C1249 C1245 1.393 . S
C1249 C1248 1.391 1_655 S
C1250 H1240 0.950 . S
C1250 C1251 1.386 . S
C1250 C1252 1.391 . S
C1251 C1250 1.386 . S
C1251 C1255 1.393 . S
C1252 H1241 0.950 . S
C1252 C1250 1.391 . S
C1252 C1253 1.400 . S
C1253 C1247 1.491 . S
C1253 C1252 1.400 . S
C1253 C1254 1.398 . S
C1254 H1242 0.950 . S
C1254 C1253 1.398 . S
C1254 C1255 1.391 . S
C1255 H1243 0.950 . S
C1255 C1251 1.393 . S
C1255 C1254 1.391 . S
H1256 C1264 0.950 . S
H1257 C1269 0.950 . S
H1258 C1266 0.950 . S
H1259 C1268 0.950 . S
H1260 C1270 0.950 . S
H1261 C1272 0.950 . S
H1262 C1274 0.950 . S
H1263 C1275 0.950 . S
C1264 H1256 0.950 . S
C1264 C1265 1.386 . S
C1264 C1266 1.391 . S
C1265 C1264 1.386 . S
C1265 C1269 1.393 . S
C1266 H1258 0.950 . S
C1266 C1264 1.391 . S
C1266 C1267 1.400 . S
C1267 C1266 1.400 . S
C1267 C1268 1.398 . S
C1267 C1273 1.491 . S
C1268 H1259 0.950 . S
C1268 C1267 1.398 . S
C1268 C1269 1.391 . S
C1269 H1257 0.950 . S
C1269 C1265 1.393 . S
C1269 C1268 1.391 . S
C1270 H1260 0.950 . S
C1270 C1271 1.386 . S
C1270 C1272 1.391 . S
C1271 C1270 1.386 . S
C1271 C1275 1.393 . S
C1272 H1261 0.950 . S
C1272 C1270 1.391 . S
C1272 C1273 1.400 . S
C1273 C1267 1.491 . S
C1273 C1272 1.400 . S
C1273 C1274 1.398 . S
C1274 H1262 0.950 . S
C1274 C1273 1.398 . S
C1274 C1275 1.391 . S
C1275 H1263 0.950 . S
C1275 C1271 1.393 . S
C1275 C1274 1.391 . S
H1276 C1284 0.950 . S
H1277 C1289 0.950 . S
H1278 C1286 0.950 . S
H1279 C1288 0.950 . S
H1280 C1290 0.950 . S
H1281 C1292 0.950 . S
H1282 C1294 0.950 . S
H1283 C1295 0.950 . S
C1284 H1276 0.950 . S
C1284 C1285 1.386 . S
C1284 C1286 1.391 1_545 S
C1285 C1284 1.386 . S
C1285 C1289 1.393 . S
C1286 H1278 0.950 . S
C1286 C1284 1.391 1_565 S
C1286 C1287 1.400 . S
C1287 C1286 1.400 . S
C1287 C1288 1.398 . S
C1287 C1293 1.491 . S
C1288 H1279 0.950 . S
C1288 C1287 1.398 . S
C1288 C1289 1.391 1_565 S
C1289 H1277 0.950 . S
C1289 C1285 1.393 . S
C1289 C1288 1.391 1_545 S
C1290 H1280 0.950 . S
C1290 C1291 1.386 . S
C1290 C1292 1.391 . S
C1291 C1290 1.386 . S
C1291 C1295 1.393 . S
C1292 H1281 0.950 . S
C1292 C1290 1.391 . S
C1292 C1293 1.400 . S
C1293 C1287 1.491 . S
C1293 C1292 1.400 . S
C1293 C1294 1.398 . S
C1294 H1282 0.950 . S
C1294 C1293 1.398 . S
C1294 C1295 1.391 . S
C1295 H1283 0.950 . S
C1295 C1291 1.393 . S
C1295 C1294 1.391 . S
H1296 C1304 0.950 . S
H1297 C1309 0.950 . S
H1298 C1306 0.950 . S
H1299 C1308 0.950 . S
H1300 C1310 0.950 . S
H1301 C1312 0.950 . S
H1302 C1314 0.950 . S
H1303 C1315 0.950 . S
C1304 H1296 0.950 . S
C1304 C1305 1.386 . S
C1304 C1306 1.391 . S
C1305 C1304 1.386 . S
C1305 C1309 1.393 . S
C1306 H1298 0.950 . S
C1306 C1304 1.391 . S
C1306 C1307 1.400 . S
C1307 C1306 1.400 . S
C1307 C1308 1.398 . S
C1307 C1313 1.491 . S
C1308 H1299 0.950 . S
C1308 C1307 1.398 . S
C1308 C1309 1.391 . S
C1309 H1297 0.950 . S
C1309 C1305 1.393 . S
C1309 C1308 1.391 . S
C1310 H1300 0.950 . S
C1310 C1311 1.386 . S
C1310 C1312 1.391 . S
C1311 C1310 1.386 . S
C1311 C1315 1.393 . S
C1312 H1301 0.950 . S
C1312 C1310 1.391 . S
C1312 C1313 1.400 . S
C1313 C1307 1.491 . S
C1313 C1312 1.400 . S
C1313 C1314 1.398 . S
C1314 H1302 0.950 . S
C1314 C1313 1.398 . S
C1314 C1315 1.391 . S
C1315 H1303 0.950 . S
C1315 C1311 1.393 . S
C1315 C1314 1.391 . S
H1316 C1324 0.950 . S
H1317 C1329 0.950 . S
H1318 C1326 0.950 . S
H1319 C1328 0.950 . S
H1320 C1330 0.950 . S
H1321 C1332 0.950 . S
H1322 C1334 0.950 . S
H1323 C1335 0.950 . S
C1324 H1316 0.950 . S
C1324 C1325 1.386 . S
C1324 C1326 1.391 . S
C1325 C1324 1.386 . S
C1325 C1329 1.393 . S
C1326 H1318 0.950 . S
C1326 C1324 1.391 . S
C1326 C1327 1.400 . S
C1327 C1326 1.400 . S
C1327 C1328 1.398 . S
C1327 C1333 1.491 . S
C1328 H1319 0.950 . S
C1328 C1327 1.398 . S
C1328 C1329 1.391 . S
C1329 H1317 0.950 . S
C1329 C1325 1.393 . S
C1329 C1328 1.391 . S
C1330 H1320 0.950 . S
C1330 C1331 1.386 . S
C1330 C1332 1.391 . S
C1331 C1330 1.386 . S
C1331 C1335 1.393 . S
C1332 H1321 0.950 . S
C1332 C1330 1.391 . S
C1332 C1333 1.400 . S
C1333 C1327 1.491 . S
C1333 C1332 1.400 . S
C1333 C1334 1.398 . S
C1334 H1322 0.950 . S
C1334 C1333 1.398 . S
C1334 C1335 1.391 . S
C1335 H1323 0.950 . S
C1335 C1331 1.393 . S
C1335 C1334 1.391 . S
H1336 C1344 0.950 . S
H1337 C1349 0.950 . S
H1338 C1346 0.950 . S
H1339 C1348 0.950 . S
H1340 C1350 0.950 . S
H1341 C1352 0.950 . S
H1342 C1354 0.950 . S
H1343 C1355 0.950 . S
C1344 H1336 0.950 . S
C1344 C1345 1.386 . S
C1344 C1346 1.391 . S
C1345 C1344 1.386 . S
C1345 C1349 1.393 . S
C1346 H1338 0.950 . S
C1346 C1344 1.391 . S
C1346 C1347 1.400 . S
C1347 C1346 1.400 . S
C1347 C1348 1.398 . S
C1347 C1353 1.491 . S
C1348 H1339 0.950 . S
C1348 C1347 1.398 . S
C1348 C1349 1.391 . S
C1349 H1337 0.950 . S
C1349 C1345 1.393 . S
C1349 C1348 1.391 . S
C1350 H1340 0.950 . S
C1350 C1351 1.386 . S
C1350 C1352 1.391 . S
C1351 C1350 1.386 . S
C1351 C1355 1.393 . S
C1352 H1341 0.950 . S
C1352 C1350 1.391 . S
C1352 C1353 1.400 . S
C1353 C1347 1.491 . S
C1353 C1352 1.400 . S
C1353 C1354 1.398 . S
C1354 H1342 0.950 . S
C1354 C1353 1.398 . S
C1354 C1355 1.391 . S
C1355 H1343 0.950 . S
C1355 C1351 1.393 . S
C1355 C1354 1.391 . S
H1356 C1364 0.950 . S
H1357 C1369 0.950 . S
H1358 C1366 0.950 . S
H1359 C1368 0.950 . S
H1360 C1370 0.950 . S
H1361 C1372 0.950 . S
H1362 C1374 0.950 . S
H1363 C1375 0.950 . S
C1364 H1356 0.950 . S
C1364 C1365 1.386 . S
C1364 C1366 1.391 . S
C1365 C1364 1.386 . S
C1365 C1369 1.393 . S
C1366 H1358 0.950 . S
C1366 C1364 1.391 . S
C1366 C1367 1.400 . S
C1367 C1366 1.400 . S
C1367 C1368 1.398 . S
C1367 C1373 1.491 . S
C1368 H1359 0.950 . S
C1368 C1367 1.398 . S
C1368 C1369 1.391 . S
C1369 H1357 0.950 . S
C1369 C1365 1.393 . S
C1369 C1368 1.391 . S
C1370 H1360 0.950 . S
C1370 C1371 1.386 . S
C1370 C1372 1.391 . S
C1371 C1370 1.386 . S
C1371 C1375 1.393 . S
C1372 H1361 0.950 . S
C1372 C1370 1.391 . S
C1372 C1373 1.400 . S
C1373 C1367 1.491 . S
C1373 C1372 1.400 . S
C1373 C1374 1.398 . S
C1374 H1362 0.950 . S
C1374 C1373 1.398 . S
C1374 C1375 1.391 . S
C1375 H1363 0.950 . S
C1375 C1371 1.393 . S
C1375 C1374 1.391 . S
H1376 C1384 0.950 . S
H1377 C1389 0.950 . S
H1378 C1386 0.950 . S
H1379 C1388 0.950 . S
H1380 C1390 0.950 . S
H1381 C1392 0.950 . S
H1382 C1394 0.950 . S
H1383 C1395 0.950 . S
C1384 H1376 0.950 . S
C1384 C1385 1.386 . S
C1384 C1386 1.391 . S
C1385 C1384 1.386 . S
C1385 C1389 1.393 . S
C1386 H1378 0.950 . S
C1386 C1384 1.391 . S
C1386 C1387 1.400 . S
C1387 C1386 1.400 . S
C1387 C1388 1.398 . S
C1387 C1393 1.491 . S
C1388 H1379 0.950 . S
C1388 C1387 1.398 . S
C1388 C1389 1.391 . S
C1389 H1377 0.950 . S
C1389 C1385 1.393 . S
C1389 C1388 1.391 . S
C1390 H1380 0.950 . S
C1390 C1391 1.386 . S
C1390 C1392 1.391 . S
C1391 C1390 1.386 . S
C1391 C1395 1.393 . S
C1392 H1381 0.950 . S
C1392 C1390 1.391 . S
C1392 C1393 1.400 . S
C1393 C1387 1.491 . S
C1393 C1392 1.400 . S
C1393 C1394 1.398 . S
C1394 H1382 0.950 . S
C1394 C1393 1.398 . S
C1394 C1395 1.391 . S
C1395 H1383 0.950 . S
C1395 C1391 1.393 . S
C1395 C1394 1.391 . S
H1396 C1404 0.950 . S
H1397 C1409 0.950 . S
H1398 C1406 0.950 . S
H1399 C1408 0.950 . S
H1400 C1410 0.950 . S
H1401 C1412 0.950 . S
H1402 C1414 0.950 . S
H1403 C1415 0.950 . S
C1404 H1396 0.950 . S
C1404 C1405 1.386 . S
C1404 C1406 1.391 . S
C1405 C1404 1.386 . S
C1405 C1409 1.393 . S
C1406 H1398 0.950 . S
C1406 C1404 1.391 . S
C1406 C1407 1.400 . S
C1407 C1406 1.400 . S
C1407 C1408 1.398 . S
C1407 C1413 1.491 . S
C1408 H1399 0.950 . S
C1408 C1407 1.398 . S
C1408 C1409 1.391 . S
C1409 H1397 0.950 . S
C1409 C1405 1.393 . S
C1409 C1408 1.391 . S
C1410 H1400 0.950 . S
C1410 C1411 1.386 . S
C1410 C1412 1.391 . S
C1411 C1410 1.386 . S
C1411 C1415 1.393 . S
C1412 H1401 0.950 . S
C1412 C1410 1.391 . S
C1412 C1413 1.400 . S
C1413 C1407 1.491 . S
C1413 C1412 1.400 . S
C1413 C1414 1.398 . S
C1414 H1402 0.950 . S
C1414 C1413 1.398 . S
C1414 C1415 1.391 . S
C1415 H1403 0.950 . S
C1415 C1411 1.393 . S
C1415 C1414 1.391 . S
H1416 C1424 0.950 . S
H1417 C1429 0.950 . S
H1418 C1426 0.950 . S
H1419 C1428 0.948 1_565 S
H1420 C1430 0.950 . S
H1421 C1432 0.950 . S
H1422 C1434 0.948 1_545 S
H1423 C1435 0.950 . S
C1424 H1416 0.950 . S
C1424 C1425 1.386 . S
C1424 C1426 1.391 . S
C1425 C1424 1.386 . S
C1425 C1429 1.393 . S
C1426 H1418 0.950 . S
C1426 C1424 1.391 . S
C1426 C1427 1.400 . S
C1427 C1426 1.400 . S
C1427 C1428 1.398 . S
C1427 C1433 1.491 1_544 S
C1428 H1419 0.948 1_545 S
C1428 C1427 1.398 . S
C1428 C1429 1.391 . S
C1429 H1417 0.950 . S
C1429 C1425 1.393 . S
C1429 C1428 1.391 . S
C1430 H1420 0.950 . S
C1430 C1431 1.386 . S
C1430 C1432 1.391 . S
C1431 C1430 1.386 . S
C1431 C1435 1.393 . S
C1432 H1421 0.950 . S
C1432 C1430 1.391 . S
C1432 C1433 1.400 . S
C1433 C1427 1.491 1_566 S
C1433 C1432 1.400 . S
C1433 C1434 1.398 . S
C1434 H1422 0.948 1_565 S
C1434 C1433 1.398 . S
C1434 C1435 1.391 . S
C1435 H1423 0.950 . S
C1435 C1431 1.393 . S
C1435 C1434 1.391 . S
H1436 C1444 0.950 . S
H1437 C1449 0.950 . S
H1438 C1446 0.931 1_455 S
H1439 C1448 0.950 . S
H1440 C1450 0.950 . S
H1441 C1452 0.931 1_655 S
H1442 C1454 0.950 . S
H1443 C1455 0.950 . S
C1444 H1436 0.950 . S
C1444 C1445 1.386 . S
C1444 C1446 1.391 . S
C1445 C1444 1.386 . S
C1445 C1449 1.393 . S
C1446 H1438 0.931 1_655 S
C1446 C1444 1.391 . S
C1446 C1447 1.400 . S
C1447 C1446 1.400 . S
C1447 C1448 1.398 . S
C1447 C1453 1.491 1_654 S
C1448 H1439 0.950 . S
C1448 C1447 1.398 . S
C1448 C1449 1.391 . S
C1449 H1437 0.950 . S
C1449 C1445 1.393 . S
C1449 C1448 1.391 . S
C1450 H1440 0.950 . S
C1450 C1451 1.386 . S
C1450 C1452 1.391 . S
C1451 C1450 1.386 . S
C1451 C1455 1.393 . S
C1452 H1441 0.931 1_455 S
C1452 C1450 1.391 . S
C1452 C1453 1.400 . S
C1453 C1447 1.491 1_456 S
C1453 C1452 1.400 . S
C1453 C1454 1.398 . S
C1454 H1442 0.950 . S
C1454 C1453 1.398 . S
C1454 C1455 1.391 . S
C1455 H1443 0.950 . S
C1455 C1451 1.393 . S
C1455 C1454 1.391 . S
H1456 C1464 0.950 . S
H1457 C1469 0.950 . S
H1458 C1466 0.950 . S
H1459 C1468 0.950 1_554 S
H1460 C1470 0.950 . S
H1461 C1472 0.950 . S
H1462 C1474 0.950 1_556 S
H1463 C1475 0.950 . S
C1464 H1456 0.950 . S
C1464 C1465 1.386 . S
C1464 C1466 1.391 . S
C1465 C1464 1.386 . S
C1465 C1469 1.393 . S
C1466 H1458 0.950 . S
C1466 C1464 1.391 . S
C1466 C1467 1.400 . S
C1467 C1466 1.400 . S
C1467 C1468 1.398 . S
C1467 C1473 1.491 1_556 S
C1468 H1459 0.950 1_556 S
C1468 C1467 1.398 . S
C1468 C1469 1.391 . S
C1469 H1457 0.950 . S
C1469 C1465 1.393 . S
C1469 C1468 1.391 . S
C1470 H1460 0.950 . S
C1470 C1471 1.386 . S
C1470 C1472 1.391 . S
C1471 C1470 1.386 . S
C1471 C1475 1.393 . S
C1472 H1461 0.950 . S
C1472 C1470 1.391 . S
C1472 C1473 1.400 . S
C1473 C1467 1.491 1_554 S
C1473 C1472 1.400 . S
C1473 C1474 1.398 . S
C1474 H1462 0.950 1_554 S
C1474 C1473 1.398 . S
C1474 C1475 1.391 . S
C1475 H1463 0.950 . S
C1475 C1471 1.393 . S
C1475 C1474 1.391 . S
C405 C92 1.433 . S
C411 C8 1.428 . S
C425 C30 1.424 . S
C431 C114 1.430 . S
C445 C70 1.431 . S
C451 C52 1.425 . S
C465 C74 1.428 . S
C471 C26 1.426 . S
C485 C96 1.422 . S
C491 C48 1.428 . S
C505 C4 1.425 . S
C511 C118 1.426 . S
C525 C140 1.431 . S
C531 C224 1.428 . S
C545 C246 1.433 . S
C551 C162 1.428 . S
C565 C202 1.433 . S
C571 C184 1.432 . S
C585 C206 1.428 . S
C591 C158 1.433 . S
C605 C180 1.428 . S
C611 C228 1.431 . S
C625 C250 1.424 . S
C631 C136 1.425 . S
C645 C356 1.428 . S
C651 C272 1.423 . S
C665 C294 1.429 . S
C671 C378 1.433 . S
C685 C334 1.427 . S
C691 C316 1.422 . S
C705 C290 1.427 . S
C711 C338 1.423 . S
C725 C360 1.426 . S
C731 C312 1.432 . S
C745 C268 1.427 . S
C751 C382 1.430 . S
C765 C5 0.925 . S
C771 C336 0.925 . S
C785 C27 0.929 . S
C791 C358 0.929 . S
C805 C380 0.929 . S
C811 C49 0.929 . S
C825 C72 0.975 . S
C831 C137 0.975 . S
C845 C94 0.974 . S
C851 C159 0.974 . S
C865 C181 0.925 . S
C871 C116 0.925 . S
C885 C269 0.926 . S
C891 C204 0.926 . S
C905 C291 0.967 . S
C911 C226 0.967 . S
C925 C313 0.946 . S
C931 C248 0.946 . S
C945 C9 1.245 . S
C951 C161 1.174 . S
C965 C183 1.180 . S
C971 C31 1.246 . S
C985 C139 1.182 . S
C991 C53 1.246 . S
C1005 C73 1.245 . S
C1011 C361 1.160 . S
C1025 C383 1.146 . S
C1031 C95 1.244 . S
C1045 C117 1.245 . S
C1051 C339 1.162 . S
C1065 C141 1.245 . S
C1071 C293 1.173 . S
C1085 C163 1.245 . S
C1091 C315 1.145 . S
C1105 C185 1.245 . S
C1111 C271 1.174 . S
C1125 C97 1.156 . S
C1131 C205 1.245 . S
C1145 C119 1.144 . S
C1151 C227 1.244 . S
C1165 C75 1.161 . S
C1171 C249 1.245 . S
C1185 C273 1.244 . S
C1191 C29 1.149 . S
C1205 C295 1.245 . S
C1211 C51 1.161 . S
C1225 C7 1.163 . S
C1231 C317 1.245 . S
C1245 C229 1.144 . S
C1251 C337 1.245 . S
C1265 C359 1.246 . S
C1271 C251 1.181 . S
C1285 C207 1.182 . S
C1291 C381 1.246 . S
C1305 C6 1.882 . S
C1311 C335 1.882 . S
C1325 C28 1.866 . S
C1331 C357 1.866 . S
C1345 C50 1.881 . S
C1351 C379 1.881 . S
C1365 C138 1.876 . S
C1371 C71 1.876 . S
C1385 C93 1.862 . S
C1391 C160 1.862 . S
C1405 C182 1.869 . S
C1411 C115 1.869 . S
C1425 C203 1.870 . S
C1431 C270 1.870 . S
C1445 C225 1.873 . S
C1451 C292 1.873 . S
C1465 C314 1.881 . S
C1471 C247 1.881 . S
