# Generated by pormake.
# Topology ume, (4)-cn, num edge types: 1
# Building blocks:
#     Node 0, Type 0, BuildingBlock: NAWXER_clean_sbu_0, # of connection points: 4
#     Node 1, Type 0, BuildingBlock: NAWXER_clean_sbu_0, # of connection points: 4
#     Node 2, Type 0, BuildingBlock: NAWXER_clean_sbu_0, # of connection points: 4
#     Node 3, Type 0, BuildingBlock: NAWXER_clean_sbu_0, # of connection points: 4
#     Node 4, Type 0, BuildingBlock: NAWXER_clean_sbu_0, # of connection points: 4
#     Node 5, Type 0, BuildingBlock: NAWXER_clean_sbu_0, # of connection points: 4
#     Node 6, Type 0, BuildingBlock: NAWXER_clean_sbu_0, # of connection points: 4
#     Node 7, Type 0, BuildingBlock: NAWXER_clean_sbu_0, # of connection points: 4
#     Node 8, Type 0, BuildingBlock: NAWXER_clean_sbu_0, # of connection points: 4
#     Node 9, Type 0, BuildingBlock: NAWXER_clean_sbu_0, # of connection points: 4
#     Node 10, Type 0, BuildingBlock: NAWXER_clean_sbu_0, # of connection points: 4
#     Node 11, Type 0, BuildingBlock: NAWXER_clean_sbu_0, # of connection points: 4
#     Node 12, Type 0, BuildingBlock: NAWXER_clean_sbu_0, # of connection points: 4
#     Node 13, Type 0, BuildingBlock: NAWXER_clean_sbu_0, # of connection points: 4
#     Node 14, Type 0, BuildingBlock: NAWXER_clean_sbu_0, # of connection points: 4
#     Node 15, Type 0, BuildingBlock: NAWXER_clean_sbu_0, # of connection points: 4
#     Edge 16, Type (0, 0), BuildingBlock: CIFDUS_clean_linker_0, # of connection points: 2
#     Edge 17, Type (0, 0), BuildingBlock: CIFDUS_clean_linker_0, # of connection points: 2
#     Edge 18, Type (0, 0), BuildingBlock: CIFDUS_clean_linker_0, # of connection points: 2
#     Edge 19, Type (0, 0), BuildingBlock: CIFDUS_clean_linker_0, # of connection points: 2
#     Edge 20, Type (0, 0), BuildingBlock: CIFDUS_clean_linker_0, # of connection points: 2
#     Edge 21, Type (0, 0), BuildingBlock: CIFDUS_clean_linker_0, # of connection points: 2
#     Edge 22, Type (0, 0), BuildingBlock: CIFDUS_clean_linker_0, # of connection points: 2
#     Edge 23, Type (0, 0), BuildingBlock: CIFDUS_clean_linker_0, # of connection points: 2
#     Edge 24, Type (0, 0), BuildingBlock: CIFDUS_clean_linker_0, # of connection points: 2
#     Edge 25, Type (0, 0), BuildingBlock: CIFDUS_clean_linker_0, # of connection points: 2
#     Edge 26, Type (0, 0), BuildingBlock: CIFDUS_clean_linker_0, # of connection points: 2
#     Edge 27, Type (0, 0), BuildingBlock: CIFDUS_clean_linker_0, # of connection points: 2
#     Edge 28, Type (0, 0), BuildingBlock: CIFDUS_clean_linker_0, # of connection points: 2
#     Edge 29, Type (0, 0), BuildingBlock: CIFDUS_clean_linker_0, # of connection points: 2
#     Edge 30, Type (0, 0), BuildingBlock: CIFDUS_clean_linker_0, # of connection points: 2
#     Edge 31, Type (0, 0), BuildingBlock: CIFDUS_clean_linker_0, # of connection points: 2
#     Edge 32, Type (0, 0), BuildingBlock: CIFDUS_clean_linker_0, # of connection points: 2
#     Edge 33, Type (0, 0), BuildingBlock: CIFDUS_clean_linker_0, # of connection points: 2
#     Edge 34, Type (0, 0), BuildingBlock: CIFDUS_clean_linker_0, # of connection points: 2
#     Edge 35, Type (0, 0), BuildingBlock: CIFDUS_clean_linker_0, # of connection points: 2
#     Edge 36, Type (0, 0), BuildingBlock: CIFDUS_clean_linker_0, # of connection points: 2
#     Edge 37, Type (0, 0), BuildingBlock: CIFDUS_clean_linker_0, # of connection points: 2
#     Edge 38, Type (0, 0), BuildingBlock: CIFDUS_clean_linker_0, # of connection points: 2
#     Edge 39, Type (0, 0), BuildingBlock: CIFDUS_clean_linker_0, # of connection points: 2
#     Edge 40, Type (0, 0), BuildingBlock: CIFDUS_clean_linker_0, # of connection points: 2
#     Edge 41, Type (0, 0), BuildingBlock: CIFDUS_clean_linker_0, # of connection points: 2
#     Edge 42, Type (0, 0), BuildingBlock: CIFDUS_clean_linker_0, # of connection points: 2
#     Edge 43, Type (0, 0), BuildingBlock: CIFDUS_clean_linker_0, # of connection points: 2
#     Edge 44, Type (0, 0), BuildingBlock: CIFDUS_clean_linker_0, # of connection points: 2
#     Edge 45, Type (0, 0), BuildingBlock: CIFDUS_clean_linker_0, # of connection points: 2
#     Edge 46, Type (0, 0), BuildingBlock: CIFDUS_clean_linker_0, # of connection points: 2
#     Edge 47, Type (0, 0), BuildingBlock: CIFDUS_clean_linker_0, # of connection points: 2
# Relax obj value: 0.054
# Max RMSD: 0.243
# Mean RMSD: 0.243
data_MOF--net-ume--node1-NAWXER_clean_sbu_0--edge1-CIFDUS_clean_linker_0
_symmetry_space_group_name_H-M    P1
_symmetry_Int_Tables_number       1
_symmetry_cell_setting            triclinic
loop_
_symmetry_equiv_pos_as_xyz
'x, y, z'
_cell_length_a     25.270015
_cell_length_b     25.072874
_cell_length_c     97.835846
_cell_angle_alpha  89.58672
_cell_angle_beta   90.188532
_cell_angle_gamma 89.935684
loop_
_atom_site_label
_atom_site_type_symbol
_atom_site_fract_x
_atom_site_fract_y
_atom_site_fract_z
_atom_type_partial_charge
C0 C 0.23794 0.10434 0.35344 0.0
C1 C 0.25975 0.15408 0.30573 0.0
O2 O 0.23879 0.15063 0.3481 0.0
Zn3 Zn 0.24271 0.1287 0.32939 0.0
O4 O 0.23888 0.06325 0.34569 0.0
Zn5 Zn 0.24355 0.04768 0.324 0.0
O6 O 0.30904 0.00686 0.3234 0.0
O7 O 0.3199 0.09119 0.32902 0.0
O8 O 0.25636 0.10323 0.3072 0.0
O9 O 0.25214 0.18398 0.31595 0.0
O10 O 0.16506 0.09596 0.32552 0.0
O11 O 0.17701 0.01193 0.32002 0.0
C12 C 0.3397 0.04507 0.3266 0.0
C13 C 0.14566 0.05058 0.32215 0.0
C14 C 0.97014 0.84848 0.5809 0.0
C15 C 0.95285 0.65893 0.57506 0.0
O16 O 0.00533 0.81282 0.57957 0.0
Zn17 Zn 0.95831 0.75499 0.5779 0.0
O18 O 0.92088 0.83531 0.58088 0.0
Zn19 Zn 0.87671 0.76 0.57912 0.0
O20 O 0.83993 0.75615 0.59623 0.0
O21 O 0.92647 0.7505 0.59854 0.0
O22 O 0.90676 0.67978 0.57647 0.0
O23 O 0.99312 0.68881 0.57509 0.0
O24 O 0.91836 0.77449 0.5587 0.0
O25 O 0.83303 0.77156 0.56324 0.0
C26 C 0.88021 0.7519 0.60394 0.0
C27 C 0.87004 0.77923 0.55473 0.0
C28 C 0.16028 0.49084 0.82478 0.0
C29 C 0.34801 0.4805 0.81847 0.0
O30 O 0.19213 0.52557 0.82018 0.0
Zn31 Zn 0.25316 0.48183 0.82119 0.0
O32 O 0.1773 0.44401 0.82794 0.0
Zn33 Zn 0.25344 0.40342 0.82786 0.0
O34 O 0.26063 0.38317 0.84649 0.0
O35 O 0.26114 0.47032 0.84337 0.0
O36 O 0.33083 0.43539 0.82291 0.0
O37 O 0.31551 0.51762 0.81587 0.0
O38 O 0.23811 0.42329 0.80525 0.0
O39 O 0.24126 0.34529 0.81578 0.0
C40 C 0.26274 0.42968 0.85147 0.0
C41 C 0.2341 0.37223 0.80494 0.0
C42 C 0.53564 0.65242 0.07872 0.0
C43 C 0.53719 0.84636 0.07364 0.0
O44 O 0.49628 0.68363 0.07717 0.0
Zn45 Zn 0.53665 0.74832 0.07612 0.0
O46 O 0.58264 0.67182 0.07929 0.0
Zn47 Zn 0.6195 0.75027 0.07811 0.0
O48 O 0.65256 0.75482 0.09586 0.0
O49 O 0.56546 0.75249 0.09686 0.0
O50 O 0.58402 0.82764 0.07537 0.0
O51 O 0.49844 0.81432 0.07319 0.0
O52 O 0.57992 0.73315 0.05754 0.0
O53 O 0.66479 0.74218 0.06233 0.0
C54 C 0.61049 0.75417 0.10294 0.0
C55 C 0.62849 0.73135 0.05378 0.0
C56 C 0.25089 0.412 0.93305 0.0
C57 C 0.26393 0.38909 0.9822 0.0
O58 O 0.25052 0.37008 0.94036 0.0
Zn59 Zn 0.2543 0.40312 0.95781 0.0
O60 O 0.25213 0.45768 0.9389 0.0
Zn61 Zn 0.2548 0.48491 0.95999 0.0
O62 O 0.3158 0.52738 0.96006 0.0
O63 O 0.33151 0.44127 0.95758 0.0
O64 O 0.26142 0.43899 0.9791 0.0
O65 O 0.2609 0.35466 0.97281 0.0
O66 O 0.17702 0.43985 0.96032 0.0
O67 O 0.19355 0.52597 0.96192 0.0
C68 C 0.34829 0.48949 0.95851 0.0
C69 C 0.16064 0.48809 0.96167 0.0
C70 C 0.57555 0.73448 0.18405 0.0
C71 C 0.61623 0.75762 0.23213 0.0
O72 O 0.61987 0.73329 0.19017 0.0
Zn73 Zn 0.5932 0.74134 0.20833 0.0
O74 O 0.53289 0.73847 0.19109 0.0
Zn75 Zn 0.51374 0.74699 0.21274 0.0
O76 O 0.47312 0.80847 0.21222 0.0
O77 O 0.55751 0.8213 0.20716 0.0
O78 O 0.566 0.76029 0.23018 0.0
O79 O 0.64633 0.74587 0.22228 0.0
O80 O 0.55396 0.66612 0.21238 0.0
O81 O 0.4716 0.68792 0.21716 0.0
C82 C 0.51021 0.83945 0.20871 0.0
C83 C 0.5066 0.65257 0.21563 0.0
C84 C 0.23978 0.12869 0.48402 0.0
C85 C 0.25779 0.11438 0.43494 0.0
O86 O 0.24845 0.1648 0.47517 0.0
Zn87 Zn 0.25392 0.11915 0.45969 0.0
O88 O 0.23909 0.07952 0.48042 0.0
Zn89 Zn 0.2462 0.03691 0.46119 0.0
O90 O 0.30606 0.99166 0.46339 0.0
O91 O 0.32841 0.07639 0.46222 0.0
O92 O 0.25249 0.06807 0.44047 0.0
O93 O 0.26141 0.15504 0.44252 0.0
O94 O 0.17348 0.08813 0.4585 0.0
O95 O 0.18018 0.00059 0.46036 0.0
C96 C 0.34175 0.02705 0.46339 0.0
C97 C 0.15159 0.04192 0.45895 0.0
C98 C 0.95267 0.84433 0.71712 0.0
C99 C 0.953 0.65037 0.71269 0.0
O100 O 0.99036 0.81157 0.71895 0.0
Zn101 Zn 0.95243 0.74641 0.71495 0.0
O102 O 0.90678 0.82652 0.71386 0.0
Zn103 Zn 0.87144 0.74987 0.71007 0.0
O104 O 0.81807 0.74414 0.7241 0.0
O105 O 0.89934 0.73307 0.732 0.0
O106 O 0.90691 0.67055 0.71055 0.0
O107 O 0.99177 0.68092 0.71537 0.0
O108 O 0.93487 0.75255 0.69341 0.0
O109 O 0.8481 0.75537 0.69125 0.0
C110 C 0.84914 0.73333 0.73397 0.0
C111 C 0.89358 0.75519 0.68576 0.0
C112 C 0.84838 0.50844 0.83165 0.0
C113 C 0.66082 0.50269 0.82479 0.0
O114 O 0.81774 0.4689 0.83018 0.0
Zn115 Zn 0.75535 0.50888 0.8283 0.0
O116 O 0.82952 0.55616 0.83157 0.0
Zn117 Zn 0.75011 0.59113 0.82968 0.0
O118 O 0.74122 0.62592 0.84694 0.0
O119 O 0.74698 0.53862 0.84895 0.0
O120 O 0.67548 0.55133 0.82627 0.0
O121 O 0.69497 0.46586 0.82521 0.0
O122 O 0.76993 0.55255 0.80925 0.0
O123 O 0.75665 0.63735 0.81404 0.0
C124 C 0.74248 0.58463 0.8545 0.0
C125 C 0.76881 0.60175 0.80545 0.0
C126 C 0.37611 0.24575 0.10298 0.0
C127 C 0.35137 0.26324 0.05379 0.0
O128 O 0.33332 0.24591 0.09613 0.0
Zn129 Zn 0.36404 0.24983 0.07822 0.0
O130 O 0.4205 0.2466 0.09664 0.0
Zn131 Zn 0.44649 0.24982 0.0756 0.0
O132 O 0.48713 0.3149 0.07561 0.0
O133 O 0.40149 0.32714 0.0786 0.0
O134 O 0.40056 0.25925 0.05698 0.0
O135 O 0.31638 0.25937 0.06302 0.0
O136 O 0.39843 0.17148 0.07552 0.0
O137 O 0.48421 0.18382 0.07322 0.0
C138 C 0.44832 0.3463 0.07747 0.0
C139 C 0.44507 0.15225 0.07381 0.0
C140 C 0.64629 0.9623 0.328 0.0
C141 C 0.84001 0.96192 0.32299 0.0
O142 O 0.6768 0.00245 0.32683 0.0
Zn143 Zn 0.74213 0.96241 0.32565 0.0
O144 O 0.66633 0.91518 0.32836 0.0
Zn145 Zn 0.74459 0.87875 0.32716 0.0
O146 O 0.75009 0.84364 0.34472 0.0
O147 O 0.74735 0.93123 0.34627 0.0
O148 O 0.82129 0.91467 0.32443 0.0
O149 O 0.80822 0.00115 0.32293 0.0
O150 O 0.7269 0.92028 0.30676 0.0
O151 O 0.73617 0.8344 0.31124 0.0
C152 C 0.74963 0.88519 0.35207 0.0
C153 C 0.72514 0.87158 0.30281 0.0
C154 C 0.10426 0.25449 0.60297 0.0
C155 C 0.12207 0.23486 0.55414 0.0
O156 O 0.14502 0.24991 0.59557 0.0
Zn157 Zn 0.11032 0.24863 0.57838 0.0
O158 O 0.05845 0.25764 0.59725 0.0
Zn159 Zn 0.02964 0.25652 0.57608 0.0
O160 O 0.98128 0.1989 0.57645 0.0
O161 O 0.06453 0.17484 0.57945 0.0
O162 O 0.07321 0.24296 0.55712 0.0
O163 O 0.1567 0.23563 0.56351 0.0
O164 O 0.08267 0.3305 0.57571 0.0
O165 O 0.99624 0.3233 0.57357 0.0
C166 C 0.01527 0.16254 0.57852 0.0
C167 C 0.03704 0.35241 0.57405 0.0
C168 C 0.75516 0.87047 0.48213 0.0
C169 C 0.73745 0.91122 0.43355 0.0
O170 O 0.7417 0.83961 0.47251 0.0
Zn171 Zn 0.74088 0.89228 0.45802 0.0
O172 O 0.76014 0.92062 0.47976 0.0
Zn173 Zn 0.75105 0.97304 0.46218 0.0
O174 O 0.69161 0.01782 0.46597 0.0
O175 O 0.66787 0.93559 0.46125 0.0
O176 O 0.74324 0.95359 0.4407 0.0
O177 O 0.73366 0.86636 0.43958 0.0
O178 O 0.82244 0.92184 0.45786 0.0
O179 O 0.81739 0.00815 0.46213 0.0
C180 C 0.6553 0.98376 0.46424 0.0
C181 C 0.84515 0.96724 0.45953 0.0
C182 C 0.04572 0.14958 0.71683 0.0
C183 C 0.04001 0.34372 0.71227 0.0
O184 O 0.0079 0.18158 0.7191 0.0
Zn185 Zn 0.04344 0.24742 0.7146 0.0
O186 O 0.09054 0.16835 0.71296 0.0
Zn187 Zn 0.12254 0.24637 0.70841 0.0
O188 O 0.1798 0.25573 0.721 0.0
O189 O 0.10137 0.25978 0.73082 0.0
O190 O 0.08554 0.32436 0.70928 0.0
O191 O 0.00282 0.31244 0.71579 0.0
O192 O 0.05524 0.24298 0.69269 0.0
O193 O 0.14154 0.24197 0.68957 0.0
C194 C 0.15205 0.26308 0.7316 0.0
C195 C 0.09512 0.24164 0.68459 0.0
C196 C 0.66055 0.50752 0.96373 0.0
C197 C 0.84836 0.50996 0.96756 0.0
O198 O 0.69247 0.47098 0.96731 0.0
Zn199 Zn 0.75351 0.51277 0.96607 0.0
O200 O 0.67785 0.55458 0.96091 0.0
Zn201 Zn 0.75574 0.59231 0.96012 0.0
O202 O 0.75901 0.6144 0.94137 0.0
O203 O 0.75749 0.52702 0.94403 0.0
O204 O 0.83193 0.55597 0.96356 0.0
O205 O 0.81531 0.47389 0.97047 0.0
O206 O 0.74208 0.56909 0.98258 0.0
O207 O 0.75251 0.64878 0.97328 0.0
C208 C 0.75869 0.56823 0.93614 0.0
C209 C 0.74345 0.62004 0.98371 0.0
C210 C 0.48362 0.15268 0.20897 0.0
C211 C 0.47541 0.33845 0.21697 0.0
O212 O 0.51847 0.18508 0.21305 0.0
Zn213 Zn 0.47414 0.24459 0.21325 0.0
O214 O 0.4359 0.16876 0.20685 0.0
Zn215 Zn 0.39528 0.24567 0.20814 0.0
O216 O 0.36981 0.25522 0.18998 0.0
O217 O 0.45682 0.25504 0.19136 0.0
O218 O 0.42905 0.32302 0.21325 0.0
O219 O 0.51208 0.30467 0.21838 0.0
O220 O 0.42062 0.22759 0.23025 0.0
O221 O 0.34079 0.23211 0.22115 0.0
C222 C 0.41435 0.25754 0.1841 0.0
C223 C 0.37014 0.22388 0.23145 0.0
H224 H 0.8947 0.0563 0.32318 0.0
H225 H 0.91692 0.88609 0.32017 0.0
H226 H 0.01257 0.89844 0.31904 0.0
H227 H 0.0906 0.95716 0.31961 0.0
H228 H 0.06865 0.12718 0.32327 0.0
H229 H 0.97278 0.11521 0.32336 0.0
C230 C 0.92039 0.02188 0.3222 0.0
C231 C 0.89828 0.97029 0.32178 0.0
C232 C 0.97572 0.02919 0.32168 0.0
C233 C 0.93252 0.92627 0.32056 0.0
C234 C 0.98741 0.93327 0.3199 0.0
C235 C 0.0649 0.99169 0.32032 0.0
C236 C 0.08716 0.04304 0.32142 0.0
C237 C 0.00955 0.9845 0.32055 0.0
C238 C 0.05293 0.08716 0.32243 0.0
C239 C -0.00207 0.08037 0.3225 0.0
H240 H 0.04533 0.60377 0.57427 0.0
H241 H 0.87572 0.58285 0.57329 0.0
H242 H 0.88736 0.48623 0.57229 0.0
H243 H 0.9453 0.40815 0.57248 0.0
H244 H 0.1149 0.42849 0.57407 0.0
H245 H 0.10351 0.5254 0.57397 0.0
C246 C 0.01083 0.57816 0.57376 0.0
C247 C 0.95966 0.60056 0.57388 0.0
C248 C 0.0178 0.52271 0.57332 0.0
C249 C 0.91549 0.56671 0.57324 0.0
C250 C 0.92212 0.51147 0.57267 0.0
C251 C 0.97992 0.43366 0.57273 0.0
C252 C 0.03094 0.41104 0.5733 0.0
C253 C 0.97306 0.4891 0.57283 0.0
C254 C 0.07522 0.44482 0.57364 0.0
C255 C 0.06872 0.50021 0.5736 0.0
H256 H 0.58067 0.56918 0.81753 0.0
H257 H 0.61497 0.40523 0.82804 0.0
H258 H 0.52131 0.38293 0.82624 0.0
H259 H 0.42917 0.41096 0.82282 0.0
H260 H 0.39536 0.57476 0.81191 0.0
H261 H 0.48929 0.59582 0.81259 0.0
C262 C 0.56761 0.52858 0.81939 0.0
C263 C 0.60452 0.4891 0.82303 0.0
C264 C 0.5138 0.51589 0.81825 0.0
C265 C 0.58723 0.43644 0.82524 0.0
C266 C 0.53369 0.42361 0.82424 0.0
C267 C 0.44239 0.45112 0.82047 0.0
C268 C 0.40526 0.49121 0.81744 0.0
C269 C 0.49655 0.46314 0.8209 0.0
C270 C 0.42307 0.54305 0.81433 0.0
C271 C 0.47681 0.55529 0.81475 0.0
H272 H 0.53878 0.09855 0.07239 0.0
H273 H 0.36979 0.07387 0.07341 0.0
H274 H 0.38322 0.97744 0.07293 0.0
H275 H 0.44297 0.89985 0.07293 0.0
H276 H 0.61197 0.92483 0.07238 0.0
H277 H 0.59836 0.02118 0.07192 0.0
C278 C 0.50481 0.07216 0.07244 0.0
C279 C 0.45333 0.09365 0.07296 0.0
C280 C 0.5128 0.01663 0.07227 0.0
C281 C 0.40988 0.05862 0.07304 0.0
C282 C 0.41751 0.00336 0.07277 0.0
C283 C 0.47686 0.92632 0.07262 0.0
C284 C 0.52844 0.90491 0.0727 0.0
C285 C 0.4688 0.98189 0.07249 0.0
C286 C 0.57182 0.94 0.07235 0.0
C287 C 0.5641 0.99522 0.0721 0.0
H288 H 0.08061 0.41951 0.96742 0.0
H289 H 0.11411 0.5849 0.95837 0.0
H290 H 0.0205 0.60659 0.95993 0.0
H291 H 0.92918 0.57855 0.9633 0.0
H292 H 0.89493 0.4136 0.97266 0.0
H293 H 0.98891 0.39198 0.97167 0.0
C294 C 0.06731 0.46022 0.96578 0.0
C295 C 0.10402 0.50041 0.96274 0.0
C296 C 0.01343 0.47262 0.96679 0.0
C297 C 0.0865 0.55318 0.96076 0.0
C298 C 0.03301 0.5657 0.96163 0.0
C299 C 0.94227 0.53793 0.9652 0.0
C300 C 0.90525 0.49778 0.96798 0.0
C301 C 0.99617 0.52572 0.96459 0.0
C302 C 0.92277 0.44533 0.97049 0.0
C303 C 0.97645 0.43283 0.96988 0.0
H304 H 0.40779 0.42287 0.21607 0.0
H305 H 0.57247 0.38112 0.22161 0.0
H306 H 0.59649 0.47476 0.22212 0.0
H307 H 0.57184 0.56846 0.21963 0.0
H308 H 0.40735 0.6111 0.21462 0.0
H309 H 0.38229 0.51727 0.21533 0.0
C310 C 0.4488 0.43434 0.2175 0.0
C311 C 0.48818 0.39518 0.21865 0.0
C312 C 0.46257 0.48839 0.21781 0.0
C313 C 0.54123 0.41053 0.22063 0.0
C314 C 0.55519 0.4641 0.22089 0.0
C315 C 0.53055 0.55712 0.21874 0.0
C316 C 0.49165 0.5963 0.21695 0.0
C317 C 0.51634 0.5033 0.21925 0.0
C318 C 0.43811 0.5814 0.216 0.0
C319 C 0.42369 0.52782 0.21637 0.0
H320 H 0.42881 0.09091 0.46582 0.0
H321 H 0.38137 0.92601 0.46276 0.0
H322 H 0.47365 0.89807 0.46305 0.0
H323 H 0.56809 0.92017 0.4635 0.0
H324 H 0.61609 0.08473 0.4669 0.0
H325 H 0.52363 0.11278 0.46721 0.0
C326 C 0.43866 0.04888 0.46526 0.0
C327 C 0.39809 0.01076 0.46421 0.0
C328 C 0.49204 0.03286 0.46548 0.0
C329 C 0.41166 0.95636 0.46357 0.0
C330 C 0.46453 0.94023 0.46371 0.0
C331 C 0.55836 0.96216 0.46435 0.0
C332 C 0.59906 0.0002 0.46511 0.0
C333 C 0.50506 0.97811 0.46456 0.0
C334 C 0.58563 0.05447 0.4663 0.0
C335 C 0.5327 0.07064 0.46645 0.0
H336 H 0.95212 0.09639 0.71898 0.0
H337 H 0.12083 0.07092 0.71698 0.0
H338 H 0.10718 0.97445 0.7176 0.0
H339 H 0.04713 0.89709 0.71782 0.0
H340 H 0.8783 0.92303 0.71875 0.0
H341 H 0.89227 0.01928 0.71949 0.0
C342 C 0.98598 0.06979 0.7188 0.0
C343 C 0.03746 0.09103 0.71796 0.0
C344 C 0.97781 0.01428 0.71891 0.0
C345 C 0.08077 0.05579 0.7176 0.0
C346 C 0.073 0.00054 0.71796 0.0
C347 C 0.01339 0.92377 0.71829 0.0
C348 C 0.96172 0.90269 0.71824 0.0
C349 C 0.02167 0.9793 0.71848 0.0
C350 C 0.91849 0.93801 0.71874 0.0
C351 C 0.92643 0.99315 0.71916 0.0
H352 H 0.58967 0.05502 0.3294 0.0
H353 H 0.57117 0.8842 0.32706 0.0
H354 H 0.47522 0.89429 0.3264 0.0
H355 H 0.39598 0.95169 0.32605 0.0
H356 H 0.41482 0.12239 0.32882 0.0
H357 H 0.51062 0.11211 0.32974 0.0
C358 C 0.56469 0.01998 0.3288 0.0
C359 C 0.58785 0.96898 0.32827 0.0
C360 C 0.5093 0.02597 0.32845 0.0
C361 C 0.55464 0.92402 0.32752 0.0
C362 C 0.49961 0.9297 0.3271 0.0
C363 C 0.42104 0.98662 0.32685 0.0
C364 C 0.398 0.0377 0.32733 0.0
C365 C 0.47643 0.9805 0.32748 0.0
C366 C 0.43124 0.0825 0.32846 0.0
C367 C 0.4862 0.07674 0.32897 0.0
H368 H 0.90698 0.93626 0.57971 0.0
H369 H 0.07001 0.88712 0.5842 0.0
H370 H 0.09816 0.97998 0.58431 0.0
H371 H 0.07709 0.07493 0.5822 0.0
H372 H 0.91429 0.12431 0.57733 0.0
H373 H 0.88562 0.03159 0.57834 0.0
C374 C 0.9486 0.94589 0.58083 0.0
C375 C 0.98628 0.90485 0.58188 0.0
C376 C 0.96469 0.9994 0.58075 0.0
C377 C 0.04013 0.91797 0.58329 0.0
C378 C 0.05635 0.97107 0.58335 0.0
C379 C 0.03533 0.06546 0.58141 0.0
C380 C -0.00199 0.10646 0.57963 0.0
C381 C 0.01905 0.01207 0.58192 0.0
C382 C 0.94397 0.09348 0.57866 0.0
C383 C 0.92746 0.04046 0.57924 0.0
H384 H 0.08221 0.42517 0.83339 0.0
H385 H 0.11212 0.58678 0.81996 0.0
H386 H 0.01821 0.60786 0.82201 0.0
H387 H 0.92708 0.57893 0.82644 0.0
H388 H 0.89756 0.41636 0.83908 0.0
H389 H 0.99213 0.39733 0.83866 0.0
C390 C 0.06828 0.46508 0.83096 0.0
C391 C 0.10395 0.50418 0.82644 0.0
C392 C 0.01437 0.4768 0.83204 0.0
C393 C 0.08533 0.55579 0.82338 0.0
C394 C 0.03168 0.56795 0.82457 0.0
C395 C 0.94149 0.53959 0.82927 0.0
C396 C 0.90561 0.49907 0.83272 0.0
C397 C 0.99579 0.52858 0.82874 0.0
C398 C 0.92458 0.44811 0.83628 0.0
C399 C 0.97857 0.43715 0.83604 0.0
H400 H 0.44254 0.59783 0.07903 0.0
H401 H 0.61197 0.57532 0.07951 0.0
H402 H 0.60012 0.47883 0.07927 0.0
H403 H 0.54173 0.40061 0.07839 0.0
H404 H 0.37232 0.42342 0.0781 0.0
H405 H 0.38426 0.51976 0.0788 0.0
C406 C 0.47689 0.57185 0.07913 0.0
C407 C 0.52801 0.5939 0.07925 0.0
C408 C 0.46988 0.51631 0.07898 0.0
C409 C 0.57209 0.55954 0.07943 0.0
C410 C 0.5654 0.50426 0.07926 0.0
C411 C 0.50743 0.42665 0.07849 0.0
C412 C 0.45626 0.40472 0.07814 0.0
C413 C 0.51449 0.48219 0.07894 0.0
C414 C 0.41223 0.43911 0.07836 0.0
C415 C 0.41895 0.49431 0.07875 0.0
H416 H 0.42847 0.41907 0.96149 0.0
H417 H 0.39498 0.58626 0.95493 0.0
H418 H 0.48927 0.60651 0.95565 0.0
H419 H 0.58066 0.5771 0.95887 0.0
H420 H 0.6138 0.41013 0.96606 0.0
H421 H 0.5199 0.3895 0.96438 0.0
C422 C 0.44187 0.45985 0.96011 0.0
C423 C 0.40508 0.50107 0.9582 0.0
C424 C 0.49588 0.47133 0.96073 0.0
C425 C 0.42277 0.55384 0.9565 0.0
C426 C 0.47657 0.56549 0.95691 0.0
C427 C 0.56734 0.5362 0.96004 0.0
C428 C 0.60395 0.49532 0.96263 0.0
C429 C 0.51339 0.5246 0.95916 0.0
C430 C 0.58623 0.44245 0.96413 0.0
C431 C 0.53262 0.43052 0.96315 0.0
H432 H 0.5792 0.92194 0.20822 0.0
H433 H 0.41343 0.88297 0.20432 0.0
H434 H 0.39094 0.97718 0.20282 0.0
H435 H 0.4174 0.07021 0.20451 0.0
H436 H 0.58266 0.10981 0.20935 0.0
H437 H 0.6063 0.01569 0.20846 0.0
C438 C 0.5383 0.93419 0.20688 0.0
C439 C 0.49805 0.89594 0.20656 0.0
C440 C 0.52546 0.98839 0.20627 0.0
C441 C 0.4451 0.912 0.2048 0.0
C442 C 0.43214 0.96576 0.20392 0.0
C443 C 0.45861 0.05827 0.20522 0.0
C444 C 0.49807 0.0966 0.20715 0.0
C445 C 0.47186 0.00425 0.20495 0.0
C446 C 0.55141 0.08076 0.20802 0.0
C447 C 0.56504 0.02702 0.2075 0.0
H448 H 0.90292 0.05826 0.45918 0.0
H449 H 0.91793 0.88681 0.45786 0.0
H450 H 0.01422 0.89495 0.45719 0.0
H451 H 0.09393 0.95066 0.45762 0.0
H452 H 0.0785 0.12215 0.45882 0.0
H453 H 0.98232 0.11394 0.45883 0.0
C454 C 0.92719 0.02262 0.45873 0.0
C455 C 0.90328 0.972 0.45864 0.0
C456 C 0.98238 0.02757 0.45832 0.0
C457 C 0.93533 0.92626 0.45794 0.0
C458 C 0.99038 0.93087 0.45758 0.0
C459 C 0.06957 0.98628 0.45785 0.0
C460 C 0.0934 0.03692 0.45829 0.0
C461 C 0.0143 0.98131 0.45786 0.0
C462 C 0.06122 0.08266 0.45849 0.0
C463 C 0.0062 0.07803 0.45852 0.0
H464 H 0.94662 0.39836 0.71309 0.0
H465 H 0.11572 0.42066 0.71068 0.0
H466 H 0.10384 0.51714 0.7106 0.0
H467 H 0.04573 0.59544 0.71147 0.0
H468 H 0.87648 0.57366 0.7132 0.0
H469 H 0.88818 0.47698 0.71326 0.0
C470 C 0.98084 0.42434 0.71255 0.0
C471 C 0.03195 0.40223 0.71193 0.0
C472 C 0.97376 0.47998 0.71238 0.0
C473 C 0.07588 0.43652 0.71112 0.0
C474 C 0.06918 0.49178 0.71111 0.0
C475 C 0.0114 0.56956 0.71186 0.0
C476 C 0.96036 0.5918 0.71236 0.0
C477 C 0.01834 0.51397 0.71177 0.0
C478 C 0.91626 0.55764 0.71276 0.0
C479 C 0.92289 0.50229 0.71283 0.0
H480 H 0.2524 0.18106 0.37261 0.0
H481 H 0.22587 0.01202 0.3681 0.0
H482 H 0.23076 0.99998 0.39286 0.0
H483 H 0.24294 0.03734 0.4158 0.0
H484 H 0.27026 0.20635 0.4202 0.0
H485 H 0.26504 0.21827 0.39549 0.0
C486 C 0.24738 0.1416 0.37703 0.0
C487 C 0.23861 0.09757 0.3685 0.0
C488 C 0.25074 0.13484 0.39127 0.0
C489 C 0.23262 0.04667 0.37442 0.0
C490 C 0.2355 0.03969 0.38859 0.0
C491 C 0.24801 0.07676 0.41136 0.0
C492 C 0.25704 0.12083 0.41988 0.0
C493 C 0.24476 0.08346 0.39711 0.0
C494 C 0.26332 0.17165 0.41392 0.0
C495 C 0.26022 0.17859 0.39977 0.0
H496 H 0.95777 0.7542 0.62335 0.0
H497 H 0.78805 0.74769 0.61848 0.0
H498 H 0.77706 0.74902 0.64325 0.0
H499 H 0.81551 0.75244 0.66637 0.0
H500 H 0.9853 0.75925 0.67114 0.0
H501 H 0.99613 0.75767 0.6464 0.0
C502 C 0.91835 0.75283 0.62769 0.0
C503 C 0.87386 0.75073 0.61902 0.0
C504 C 0.91222 0.75395 0.64197 0.0
C505 C 0.82308 0.74927 0.62487 0.0
C506 C 0.8167 0.75012 0.63906 0.0
C507 C 0.85488 0.75378 0.66201 0.0
C508 C 0.89945 0.75604 0.67066 0.0
C509 C 0.86097 0.75264 0.64772 0.0
C510 C 0.95019 0.75754 0.66478 0.0
C511 C 0.95651 0.75655 0.6506 0.0
H512 H 0.25638 0.35178 0.87068 0.0
H513 H 0.27028 0.52253 0.86611 0.0
H514 H 0.26727 0.53251 0.89098 0.0
H515 H 0.25961 0.49233 0.91406 0.0
H516 H 0.24463 0.32128 0.91805 0.0
H517 H 0.2488 0.3121 0.89335 0.0
C518 C 0.25905 0.39128 0.87508 0.0
C519 C 0.2637 0.43632 0.86651 0.0
C520 C 0.25673 0.39673 0.88931 0.0
C521 C 0.26681 0.48713 0.87245 0.0
C522 C 0.26494 0.49288 0.88668 0.0
C523 C 0.25707 0.45309 0.90952 0.0
C524 C 0.25174 0.40761 0.91795 0.0
C525 C 0.25962 0.44792 0.89521 0.0
C526 C 0.24871 0.35704 0.91186 0.0
C527 C 0.25119 0.35165 0.89771 0.0
H528 H 0.52829 0.74482 0.12067 0.0
H529 H 0.6985 0.75863 0.1193 0.0
H530 H 0.7027 0.75185 0.1442 0.0
H531 H 0.65813 0.74209 0.16634 0.0
H532 H 0.48786 0.72899 0.16768 0.0
H533 H 0.48378 0.73493 0.14278 0.0
C534 C 0.56636 0.74659 0.12579 0.0
C535 C 0.61301 0.75239 0.11809 0.0
C536 C 0.56853 0.7424 0.14011 0.0
C537 C 0.66195 0.75433 0.12494 0.0
C538 C 0.66441 0.75031 0.13919 0.0
C539 C 0.6201 0.74016 0.1612 0.0
C540 C 0.57337 0.73492 0.1689 0.0
C541 C 0.61797 0.74417 0.14687 0.0
C542 C 0.52447 0.73291 0.16204 0.0
C543 C 0.52207 0.73644 0.14778 0.0
H544 H 0.7529 0.50553 0.87364 0.0
H545 H 0.73154 0.67575 0.86936 0.0
H546 H 0.73562 0.68557 0.89412 0.0
H547 H 0.7464 0.64635 0.91696 0.0
H548 H 0.76715 0.47618 0.92142 0.0
H549 H 0.76245 0.46601 0.89662 0.0
C550 C 0.74882 0.54476 0.87811 0.0
C551 C 0.7419 0.58981 0.8696 0.0
C552 C 0.75147 0.55025 0.8924 0.0
C553 C 0.73686 0.64034 0.87562 0.0
C554 C 0.73933 0.64606 0.8898 0.0
C555 C 0.75013 0.607 0.91253 0.0
C556 C 0.75737 0.56214 0.92107 0.0
C557 C 0.74696 0.60137 0.89828 0.0
C558 C 0.76167 0.51145 0.91511 0.0
C559 C 0.75889 0.50557 0.90092 0.0
H560 H 0.33179 0.25268 0.16636 0.0
H561 H 0.50212 0.26491 0.16774 0.0
H562 H 0.50537 0.26177 0.14276 0.0
H563 H 0.45975 0.254 0.12056 0.0
H564 H 0.28937 0.24082 0.11949 0.0
H565 H 0.28645 0.2455 0.14436 0.0
C566 C 0.36972 0.25502 0.16123 0.0
C567 C 0.41666 0.25915 0.16895 0.0
C568 C 0.37133 0.25258 0.14692 0.0
C569 C 0.46536 0.26185 0.16208 0.0
C570 C 0.46726 0.25988 0.14779 0.0
C571 C 0.42196 0.25196 0.12576 0.0
C572 C 0.37485 0.24689 0.11813 0.0
C573 C 0.42049 0.25486 0.14011 0.0
C574 C 0.32627 0.24459 0.12507 0.0
C575 C 0.32452 0.24738 0.13931 0.0
H576 H 0.74407 0.96594 0.37045 0.0
H577 H 0.75343 0.79439 0.36781 0.0
H578 H 0.74907 0.78716 0.3927 0.0
H579 H 0.74237 0.82956 0.41526 0.0
H580 H 0.73374 0.00121 0.41774 0.0
H581 H 0.73768 0.00818 0.39289 0.0
C582 C 0.74537 0.92691 0.37529 0.0
C583 C 0.74917 0.8808 0.36722 0.0
C584 C 0.74265 0.92299 0.38961 0.0
C585 C 0.75063 0.8306 0.37373 0.0
C586 C 0.748 0.8264 0.38798 0.0
C587 C 0.74106 0.86849 0.41037 0.0
C588 C 0.73761 0.91476 0.4184 0.0
C589 C 0.74383 0.87231 0.39603 0.0
C590 C 0.73636 0.96489 0.41185 0.0
C591 C 0.7387 0.96896 0.39762 0.0
H592 H 0.1708 0.24748 0.66507 0.0
H593 H 0.00155 0.23802 0.67036 0.0
H594 H 0.989 0.24242 0.64557 0.0
H595 H 0.02642 0.2491 0.62233 0.0
H596 H 0.19601 0.25875 0.6175 0.0
H597 H 0.20783 0.25448 0.64216 0.0
C598 C 0.1311 0.24616 0.66083 0.0
C599 C 0.08724 0.24228 0.66958 0.0
C600 C 0.12415 0.24905 0.64662 0.0
C601 C 0.0361 0.24088 0.66387 0.0
C602 C 0.02885 0.24352 0.64969 0.0
C603 C 0.0659 0.25055 0.62668 0.0
C604 C 0.11019 0.25426 0.61804 0.0
C605 C 0.07262 0.24777 0.64096 0.0
C606 C 0.16113 0.25583 0.62387 0.0
C607 C 0.16804 0.25332 0.63799 0.0
H608 H 0.2521 0.11121 0.28035 0.0
H609 H 0.31188 0.24805 0.30192 0.0
H610 H 0.35349 0.28108 0.28101 0.0
H611 H 0.37564 0.26944 0.25657 0.0
H612 H 0.30957 0.13658 0.2347 0.0
H613 H 0.26813 0.10333 0.25567 0.0
C614 C 0.2738 0.14852 0.28043 0.0
C615 C 0.27896 0.17703 0.29267 0.0
C616 C 0.29705 0.16767 0.26832 0.0
C617 C 0.30693 0.22551 0.2926 0.0
C618 C 0.33113 0.24425 0.28067 0.0
C619 C 0.35224 0.2332 0.25649 0.0
C620 C 0.34605 0.20494 0.24426 0.0
C621 C 0.32702 0.21535 0.26849 0.0
C622 C 0.31493 0.15863 0.24409 0.0
C623 C 0.29121 0.1397 0.25605 0.0
H624 H 0.84131 0.89298 0.49738 0.0
H625 H 0.69997 0.79711 0.49697 0.0
H626 H 0.72286 0.76003 0.5195 0.0
H627 H 0.78301 0.7559 0.53945 0.0
H628 H 0.92869 0.84529 0.53869 0.0
H629 H 0.90473 0.88345 0.51644 0.0
C630 C 0.81551 0.86415 0.5023 0.0
C631 C 0.76863 0.84835 0.49572 0.0
C632 C 0.83 0.8416 0.51497 0.0
C633 C 0.73605 0.81003 0.50195 0.0
C634 C 0.74918 0.78884 0.5148 0.0
C635 C 0.80959 0.78347 0.53435 0.0
C636 C 0.85744 0.79794 0.54071 0.0
C637 C 0.79605 0.80439 0.52141 0.0
C638 C 0.89181 0.83328 0.53395 0.0
C639 C 0.87797 0.85538 0.52128 0.0
H640 H 0.1204 0.24587 0.75779 0.0
H641 H 0.23978 0.3249 0.73367 0.0
H642 H 0.27565 0.36691 0.75416 0.0
H643 H 0.27037 0.38462 0.77896 0.0
H644 H 0.15646 0.29887 0.8033 0.0
H645 H 0.12108 0.25618 0.78281 0.0
C646 C 0.15463 0.27181 0.75708 0.0
C647 C 0.1773 0.28243 0.74427 0.0
C648 C 0.17574 0.29499 0.76895 0.0
C649 C 0.22188 0.3158 0.74346 0.0
C650 C 0.2422 0.34016 0.75515 0.0
C651 C 0.23799 0.3564 0.77971 0.0
C652 C 0.21562 0.34511 0.79251 0.0
C653 C 0.21901 0.33065 0.76794 0.0
C654 C 0.17421 0.30798 0.79349 0.0
C655 C 0.15392 0.28368 0.7818 0.0
H656 H 0.65826 0.60126 0.99941 0.0
H657 H 0.7993 0.69698 0.99691 0.0
H658 H 0.77666 0.74061 1.01851 0.0
H659 H 0.71628 0.75082 0.03823 0.0
H660 H 0.57082 0.66089 0.03915 0.0
H661 H 0.59507 0.61627 1.01802 0.0
C662 C 0.68408 0.63145 1.00369 0.0
C663 C 0.73074 0.64539 0.99683 0.0
C664 C 0.66966 0.65775 1.01575 0.0
C665 C 0.76339 0.68545 1.00217 0.0
C666 C 0.75038 0.7104 1.01447 0.0
C667 C 0.68982 0.72178 0.03372 0.0
C668 C 0.64185 0.70922 0.04025 0.0
C669 C 0.70352 0.69691 0.02136 0.0
C670 C 0.60773 0.67171 0.03426 0.0
C671 C 0.62172 0.64582 0.02222 0.0
H672 H 0.28552 0.34219 0.04558 0.0
H673 H 0.38547 0.21653 0.03047 0.0
H674 H 0.36455 0.24275 1.00688 0.0
H675 H 0.32026 0.30337 0.99063 0.0
H676 H 0.22866 0.43559 1.00565 0.0
H677 H 0.24391 0.40529 0.02924 0.0
C678 C 0.30208 0.32029 0.03708 0.0
C679 C 0.33618 0.27699 0.03965 0.0
C680 C 0.2917 0.33713 0.02359 0.0
C681 C 0.35874 0.24967 0.02865 0.0
C682 C 0.34689 0.26475 1.0152 0.0
C683 C 0.30339 0.32533 0.99908 0.0
C684 C 0.27298 0.37133 0.99645 0.0
C685 C 0.31379 0.30867 1.01256 0.0
C686 C 0.25219 0.40007 1.00746 0.0
C687 C 0.26081 0.38268 0.02092 0.0
H688 H 0.7413 0.78179 0.28773 0.0
H689 H 0.6591 0.93272 0.28733 0.0
H690 H 0.61539 0.90938 0.26592 0.0
H691 H 0.59919 0.84541 0.24737 0.0
H692 H 0.68736 0.69839 0.24648 0.0
H693 H 0.72957 0.72031 0.26834 0.0
C694 C 0.71414 0.80966 0.28288 0.0
C695 C 0.70353 0.85889 0.28912 0.0
C696 C 0.68969 0.79636 0.27041 0.0
C697 C 0.66842 0.89477 0.28268 0.0
C698 C 0.64302 0.8813 0.27049 0.0
C699 C 0.62733 0.81812 0.25207 0.0
C700 C 0.63959 0.77001 0.24556 0.0
C701 C 0.65299 0.83205 0.26431 0.0
C702 C 0.67708 0.73544 0.25146 0.0
C703 C 0.70129 0.74804 0.26391 0.0
H704 H 0.17016 0.2045 0.49139 0.0
H705 H 0.27547 0.08477 0.50784 0.0
H706 H 0.24959 0.1089 0.53115 0.0
H707 H 0.19617 0.1635 0.54672 0.0
H708 H 0.08341 0.27607 0.53021 0.0
H709 H 0.11263 0.25528 0.50695 0.0
C710 C 0.18764 0.18409 0.50012 0.0
C711 C 0.22527 0.14364 0.49803 0.0
C712 C 0.17096 0.19674 0.51339 0.0
C713 C 0.24674 0.11631 0.50931 0.0
C714 C 0.23191 0.13007 0.52258 0.0
C715 C 0.17817 0.18355 0.538 0.0
C716 C 0.13821 0.22169 0.54009 0.0
C717 C 0.19399 0.17013 0.52473 0.0
C718 C 0.1143 0.24666 0.52878 0.0
C719 C 0.1311 0.23487 0.51552 0.0
H720 H 0.87962 0.64796 0.74888 0.0
H721 H 0.76967 0.77938 0.74857 0.0
H722 H 0.73453 0.75022 0.77076 0.0
H723 H 0.73639 0.68765 0.79042 0.0
H724 H 0.84079 0.55152 0.78947 0.0
H725 H 0.87645 0.58164 0.76754 0.0
C726 C 0.84812 0.67026 0.75374 0.0
C727 C 0.82777 0.71622 0.74731 0.0
C728 C 0.82694 0.65209 0.76619 0.0
C729 C 0.78609 0.74413 0.75345 0.0
C730 C 0.76604 0.72741 0.7661 0.0
C731 C 0.76667 0.66446 0.78534 0.0
C732 C 0.78609 0.61753 0.79157 0.0
C733 C 0.78625 0.68148 0.77258 0.0
C734 C 0.82496 0.58755 0.78484 0.0
C735 C 0.84561 0.60495 0.77234 0.0
loop_
_geom_bond_atom_site_label_1
_geom_bond_atom_site_label_2
_geom_bond_distance
_geom_bond_site_symmetry_2
_ccdc_geom_bond_type
C0 O2 1.247 . S
C0 O4 1.258 . S
C1 O8 1.247 . S
C1 O9 1.258 . S
O2 C0 1.247 . S
O2 Zn3 2.028 . S
Zn3 O2 2.028 . S
Zn3 O7 2.035 . S
Zn3 O9 2.035 . S
Zn3 O10 2.028 . S
O4 C0 1.258 . S
O4 Zn5 2.035 . S
Zn5 O4 2.035 . S
Zn5 O6 2.028 . S
Zn5 O8 2.028 . S
Zn5 O11 2.035 . S
O6 Zn5 2.028 . S
O6 C12 1.247 . S
O7 Zn3 2.035 . S
O7 C12 1.258 . S
O8 C1 1.247 . S
O8 Zn5 2.028 . S
O9 C1 1.258 . S
O9 Zn3 2.035 . S
O10 Zn3 2.028 . S
O10 C13 1.247 . S
O11 Zn5 2.035 . S
O11 C13 1.258 . S
C12 O6 1.247 . S
C12 O7 1.258 . S
C13 O10 1.247 . S
C13 O11 1.258 . S
C14 O16 1.247 . S
C14 O18 1.258 . S
C15 O22 1.247 . S
C15 O23 1.258 . S
O16 C14 1.247 . S
O16 Zn17 2.028 . S
Zn17 O16 2.028 . S
Zn17 O21 2.035 . S
Zn17 O23 2.035 . S
Zn17 O24 2.028 . S
O18 C14 1.258 . S
O18 Zn19 2.035 . S
Zn19 O18 2.035 . S
Zn19 O20 2.028 . S
Zn19 O22 2.028 . S
Zn19 O25 2.035 . S
O20 Zn19 2.028 . S
O20 C26 1.247 . S
O21 Zn17 2.035 . S
O21 C26 1.258 . S
O22 C15 1.247 . S
O22 Zn19 2.028 . S
O23 C15 1.258 . S
O23 Zn17 2.035 . S
O24 Zn17 2.028 . S
O24 C27 1.247 . S
O25 Zn19 2.035 . S
O25 C27 1.258 . S
C26 O20 1.247 . S
C26 O21 1.258 . S
C27 O24 1.247 . S
C27 O25 1.258 . S
C28 O30 1.247 . S
C28 O32 1.258 . S
C29 O36 1.247 . S
C29 O37 1.258 . S
O30 C28 1.247 . S
O30 Zn31 2.028 . S
Zn31 O30 2.028 . S
Zn31 O35 2.035 . S
Zn31 O37 2.035 . S
Zn31 O38 2.028 . S
O32 C28 1.258 . S
O32 Zn33 2.035 . S
Zn33 O32 2.035 . S
Zn33 O34 2.028 . S
Zn33 O36 2.028 . S
Zn33 O39 2.035 . S
O34 Zn33 2.028 . S
O34 C40 1.247 . S
O35 Zn31 2.035 . S
O35 C40 1.258 . S
O36 C29 1.247 . S
O36 Zn33 2.028 . S
O37 C29 1.258 . S
O37 Zn31 2.035 . S
O38 Zn31 2.028 . S
O38 C41 1.247 . S
O39 Zn33 2.035 . S
O39 C41 1.258 . S
C40 O34 1.247 . S
C40 O35 1.258 . S
C41 O38 1.247 . S
C41 O39 1.258 . S
C42 O44 1.247 . S
C42 O46 1.258 . S
C43 O50 1.247 . S
C43 O51 1.258 . S
O44 C42 1.247 . S
O44 Zn45 2.028 . S
Zn45 O44 2.028 . S
Zn45 O49 2.035 . S
Zn45 O51 2.035 . S
Zn45 O52 2.028 . S
O46 C42 1.258 . S
O46 Zn47 2.035 . S
Zn47 O46 2.035 . S
Zn47 O48 2.028 . S
Zn47 O50 2.028 . S
Zn47 O53 2.035 . S
O48 Zn47 2.028 . S
O48 C54 1.247 . S
O49 Zn45 2.035 . S
O49 C54 1.258 . S
O50 C43 1.247 . S
O50 Zn47 2.028 . S
O51 C43 1.258 . S
O51 Zn45 2.035 . S
O52 Zn45 2.028 . S
O52 C55 1.247 . S
O53 Zn47 2.035 . S
O53 C55 1.258 . S
C54 O48 1.247 . S
C54 O49 1.258 . S
C55 O52 1.247 . S
C55 O53 1.258 . S
C56 O58 1.247 . S
C56 O60 1.258 . S
C57 O64 1.247 . S
C57 O65 1.258 . S
O58 C56 1.247 . S
O58 Zn59 2.028 . S
Zn59 O58 2.028 . S
Zn59 O63 2.035 . S
Zn59 O65 2.035 . S
Zn59 O66 2.028 . S
O60 C56 1.258 . S
O60 Zn61 2.035 . S
Zn61 O60 2.035 . S
Zn61 O62 2.028 . S
Zn61 O64 2.028 . S
Zn61 O67 2.035 . S
O62 Zn61 2.028 . S
O62 C68 1.247 . S
O63 Zn59 2.035 . S
O63 C68 1.258 . S
O64 C57 1.247 . S
O64 Zn61 2.028 . S
O65 C57 1.258 . S
O65 Zn59 2.035 . S
O66 Zn59 2.028 . S
O66 C69 1.247 . S
O67 Zn61 2.035 . S
O67 C69 1.258 . S
C68 O62 1.247 . S
C68 O63 1.258 . S
C69 O66 1.247 . S
C69 O67 1.258 . S
C70 O72 1.247 . S
C70 O74 1.258 . S
C71 O78 1.247 . S
C71 O79 1.258 . S
O72 C70 1.247 . S
O72 Zn73 2.028 . S
Zn73 O72 2.028 . S
Zn73 O77 2.035 . S
Zn73 O79 2.035 . S
Zn73 O80 2.028 . S
O74 C70 1.258 . S
O74 Zn75 2.035 . S
Zn75 O74 2.035 . S
Zn75 O76 2.028 . S
Zn75 O78 2.028 . S
Zn75 O81 2.035 . S
O76 Zn75 2.028 . S
O76 C82 1.247 . S
O77 Zn73 2.035 . S
O77 C82 1.258 . S
O78 C71 1.247 . S
O78 Zn75 2.028 . S
O79 C71 1.258 . S
O79 Zn73 2.035 . S
O80 Zn73 2.028 . S
O80 C83 1.247 . S
O81 Zn75 2.035 . S
O81 C83 1.258 . S
C82 O76 1.247 . S
C82 O77 1.258 . S
C83 O80 1.247 . S
C83 O81 1.258 . S
C84 O86 1.247 . S
C84 O88 1.258 . S
C85 O92 1.247 . S
C85 O93 1.258 . S
O86 C84 1.247 . S
O86 Zn87 2.028 . S
Zn87 O86 2.028 . S
Zn87 O91 2.035 . S
Zn87 O93 2.035 . S
Zn87 O94 2.028 . S
O88 C84 1.258 . S
O88 Zn89 2.035 . S
Zn89 O88 2.035 . S
Zn89 O90 2.028 . S
Zn89 O92 2.028 . S
Zn89 O95 2.035 . S
O90 Zn89 2.028 . S
O90 C96 1.247 . S
O91 Zn87 2.035 . S
O91 C96 1.258 . S
O92 C85 1.247 . S
O92 Zn89 2.028 . S
O93 C85 1.258 . S
O93 Zn87 2.035 . S
O94 Zn87 2.028 . S
O94 C97 1.247 . S
O95 Zn89 2.035 . S
O95 C97 1.258 . S
C96 O90 1.247 . S
C96 O91 1.258 . S
C97 O94 1.247 . S
C97 O95 1.258 . S
C98 O100 1.247 . S
C98 O102 1.258 . S
C99 O106 1.247 . S
C99 O107 1.258 . S
O100 C98 1.247 . S
O100 Zn101 2.028 . S
Zn101 O100 2.028 . S
Zn101 O105 2.035 . S
Zn101 O107 2.035 . S
Zn101 O108 2.028 . S
O102 C98 1.258 . S
O102 Zn103 2.035 . S
Zn103 O102 2.035 . S
Zn103 O104 2.028 . S
Zn103 O106 2.028 . S
Zn103 O109 2.035 . S
O104 Zn103 2.028 . S
O104 C110 1.247 . S
O105 Zn101 2.035 . S
O105 C110 1.258 . S
O106 C99 1.247 . S
O106 Zn103 2.028 . S
O107 C99 1.258 . S
O107 Zn101 2.035 . S
O108 Zn101 2.028 . S
O108 C111 1.247 . S
O109 Zn103 2.035 . S
O109 C111 1.258 . S
C110 O104 1.247 . S
C110 O105 1.258 . S
C111 O108 1.247 . S
C111 O109 1.258 . S
C112 O114 1.247 . S
C112 O116 1.258 . S
C113 O120 1.247 . S
C113 O121 1.258 . S
O114 C112 1.247 . S
O114 Zn115 2.028 . S
Zn115 O114 2.028 . S
Zn115 O119 2.035 . S
Zn115 O121 2.035 . S
Zn115 O122 2.028 . S
O116 C112 1.258 . S
O116 Zn117 2.035 . S
Zn117 O116 2.035 . S
Zn117 O118 2.028 . S
Zn117 O120 2.028 . S
Zn117 O123 2.035 . S
O118 Zn117 2.028 . S
O118 C124 1.247 . S
O119 Zn115 2.035 . S
O119 C124 1.258 . S
O120 C113 1.247 . S
O120 Zn117 2.028 . S
O121 C113 1.258 . S
O121 Zn115 2.035 . S
O122 Zn115 2.028 . S
O122 C125 1.247 . S
O123 Zn117 2.035 . S
O123 C125 1.258 . S
C124 O118 1.247 . S
C124 O119 1.258 . S
C125 O122 1.247 . S
C125 O123 1.258 . S
C126 O128 1.247 . S
C126 O130 1.258 . S
C127 O134 1.247 . S
C127 O135 1.258 . S
O128 C126 1.247 . S
O128 Zn129 2.028 . S
Zn129 O128 2.028 . S
Zn129 O133 2.035 . S
Zn129 O135 2.035 . S
Zn129 O136 2.028 . S
O130 C126 1.258 . S
O130 Zn131 2.035 . S
Zn131 O130 2.035 . S
Zn131 O132 2.028 . S
Zn131 O134 2.028 . S
Zn131 O137 2.035 . S
O132 Zn131 2.028 . S
O132 C138 1.247 . S
O133 Zn129 2.035 . S
O133 C138 1.258 . S
O134 C127 1.247 . S
O134 Zn131 2.028 . S
O135 C127 1.258 . S
O135 Zn129 2.035 . S
O136 Zn129 2.028 . S
O136 C139 1.247 . S
O137 Zn131 2.035 . S
O137 C139 1.258 . S
C138 O132 1.247 . S
C138 O133 1.258 . S
C139 O136 1.247 . S
C139 O137 1.258 . S
C140 O142 1.247 . S
C140 O144 1.258 . S
C141 O148 1.247 . S
C141 O149 1.258 . S
O142 C140 1.247 . S
O142 Zn143 2.028 . S
Zn143 O142 2.028 . S
Zn143 O147 2.035 . S
Zn143 O149 2.035 . S
Zn143 O150 2.028 . S
O144 C140 1.258 . S
O144 Zn145 2.035 . S
Zn145 O144 2.035 . S
Zn145 O146 2.028 . S
Zn145 O148 2.028 . S
Zn145 O151 2.035 . S
O146 Zn145 2.028 . S
O146 C152 1.247 . S
O147 Zn143 2.035 . S
O147 C152 1.258 . S
O148 C141 1.247 . S
O148 Zn145 2.028 . S
O149 C141 1.258 . S
O149 Zn143 2.035 . S
O150 Zn143 2.028 . S
O150 C153 1.247 . S
O151 Zn145 2.035 . S
O151 C153 1.258 . S
C152 O146 1.247 . S
C152 O147 1.258 . S
C153 O150 1.247 . S
C153 O151 1.258 . S
C154 O156 1.247 . S
C154 O158 1.258 . S
C155 O162 1.247 . S
C155 O163 1.258 . S
O156 C154 1.247 . S
O156 Zn157 2.028 . S
Zn157 O156 2.028 . S
Zn157 O161 2.035 . S
Zn157 O163 2.035 . S
Zn157 O164 2.028 . S
O158 C154 1.258 . S
O158 Zn159 2.035 . S
Zn159 O158 2.035 . S
Zn159 O160 2.028 . S
Zn159 O162 2.028 . S
Zn159 O165 2.035 . S
O160 Zn159 2.028 . S
O160 C166 1.247 . S
O161 Zn157 2.035 . S
O161 C166 1.258 . S
O162 C155 1.247 . S
O162 Zn159 2.028 . S
O163 C155 1.258 . S
O163 Zn157 2.035 . S
O164 Zn157 2.028 . S
O164 C167 1.247 . S
O165 Zn159 2.035 . S
O165 C167 1.258 . S
C166 O160 1.247 . S
C166 O161 1.258 . S
C167 O164 1.247 . S
C167 O165 1.258 . S
C168 O170 1.247 . S
C168 O172 1.258 . S
C169 O176 1.247 . S
C169 O177 1.258 . S
O170 C168 1.247 . S
O170 Zn171 2.028 . S
Zn171 O170 2.028 . S
Zn171 O175 2.035 . S
Zn171 O177 2.035 . S
Zn171 O178 2.028 . S
O172 C168 1.258 . S
O172 Zn173 2.035 . S
Zn173 O172 2.035 . S
Zn173 O174 2.028 . S
Zn173 O176 2.028 . S
Zn173 O179 2.035 . S
O174 Zn173 2.028 . S
O174 C180 1.247 . S
O175 Zn171 2.035 . S
O175 C180 1.258 . S
O176 C169 1.247 . S
O176 Zn173 2.028 . S
O177 C169 1.258 . S
O177 Zn171 2.035 . S
O178 Zn171 2.028 . S
O178 C181 1.247 . S
O179 Zn173 2.035 . S
O179 C181 1.258 . S
C180 O174 1.247 . S
C180 O175 1.258 . S
C181 O178 1.247 . S
C181 O179 1.258 . S
C182 O184 1.247 . S
C182 O186 1.258 . S
C183 O190 1.247 . S
C183 O191 1.258 . S
O184 C182 1.247 . S
O184 Zn185 2.028 . S
Zn185 O184 2.028 . S
Zn185 O189 2.035 . S
Zn185 O191 2.035 . S
Zn185 O192 2.028 . S
O186 C182 1.258 . S
O186 Zn187 2.035 . S
Zn187 O186 2.035 . S
Zn187 O188 2.028 . S
Zn187 O190 2.028 . S
Zn187 O193 2.035 . S
O188 Zn187 2.028 . S
O188 C194 1.247 . S
O189 Zn185 2.035 . S
O189 C194 1.258 . S
O190 C183 1.247 . S
O190 Zn187 2.028 . S
O191 C183 1.258 . S
O191 Zn185 2.035 . S
O192 Zn185 2.028 . S
O192 C195 1.247 . S
O193 Zn187 2.035 . S
O193 C195 1.258 . S
C194 O188 1.247 . S
C194 O189 1.258 . S
C195 O192 1.247 . S
C195 O193 1.258 . S
C196 O198 1.247 . S
C196 O200 1.258 . S
C197 O204 1.247 . S
C197 O205 1.258 . S
O198 C196 1.247 . S
O198 Zn199 2.028 . S
Zn199 O198 2.028 . S
Zn199 O203 2.035 . S
Zn199 O205 2.035 . S
Zn199 O206 2.028 . S
O200 C196 1.258 . S
O200 Zn201 2.035 . S
Zn201 O200 2.035 . S
Zn201 O202 2.028 . S
Zn201 O204 2.028 . S
Zn201 O207 2.035 . S
O202 Zn201 2.028 . S
O202 C208 1.247 . S
O203 Zn199 2.035 . S
O203 C208 1.258 . S
O204 C197 1.247 . S
O204 Zn201 2.028 . S
O205 C197 1.258 . S
O205 Zn199 2.035 . S
O206 Zn199 2.028 . S
O206 C209 1.247 . S
O207 Zn201 2.035 . S
O207 C209 1.258 . S
C208 O202 1.247 . S
C208 O203 1.258 . S
C209 O206 1.247 . S
C209 O207 1.258 . S
C210 O212 1.247 . S
C210 O214 1.258 . S
C211 O218 1.247 . S
C211 O219 1.258 . S
O212 C210 1.247 . S
O212 Zn213 2.028 . S
Zn213 O212 2.028 . S
Zn213 O217 2.035 . S
Zn213 O219 2.035 . S
Zn213 O220 2.028 . S
O214 C210 1.258 . S
O214 Zn215 2.035 . S
Zn215 O214 2.035 . S
Zn215 O216 2.028 . S
Zn215 O218 2.028 . S
Zn215 O221 2.035 . S
O216 Zn215 2.028 . S
O216 C222 1.247 . S
O217 Zn213 2.035 . S
O217 C222 1.258 . S
O218 C211 1.247 . S
O218 Zn215 2.028 . S
O219 C211 1.258 . S
O219 Zn213 2.035 . S
O220 Zn213 2.028 . S
O220 C223 1.247 . S
O221 Zn215 2.035 . S
O221 C223 1.258 . S
C222 O216 1.247 . S
C222 O217 1.258 . S
C223 O220 1.247 . S
C223 O221 1.258 . S
H224 C230 0.930 1_545 S
H225 C233 0.930 . S
H226 C234 0.930 . S
H227 C235 0.930 1_565 S
H228 C238 0.930 . S
H229 C239 0.930 . S
C230 H224 0.930 1_565 S
C230 C231 1.355 . S
C230 C232 1.415 1_565 S
C231 C230 1.355 . S
C231 C233 1.419 . S
C232 C230 1.415 1_545 S
C232 C237 1.425 1_645 S
C232 C239 1.409 . S
C233 H225 0.930 . S
C233 C231 1.419 . S
C233 C234 1.362 1_655 S
C234 H226 0.930 . S
C234 C233 1.362 1_455 S
C234 C237 1.409 . S
C235 H227 0.930 1_545 S
C235 C236 1.355 . S
C235 C237 1.415 1_545 S
C236 C235 1.355 . S
C236 C238 1.419 . S
C237 C232 1.425 1_465 S
C237 C234 1.409 . S
C237 C235 1.415 1_565 S
C238 H228 0.930 . S
C238 C236 1.419 . S
C238 C239 1.362 1_455 S
C239 H229 0.930 . S
C239 C232 1.409 . S
C239 C238 1.362 1_655 S
H240 C246 0.930 . S
H241 C249 0.930 . S
H242 C250 0.930 . S
H243 C251 0.930 . S
H244 C254 0.930 . S
H245 C255 0.930 . S
C246 H240 0.930 . S
C246 C247 1.355 . S
C246 C248 1.415 1_655 S
C247 C246 1.355 . S
C247 C249 1.419 . S
C248 C246 1.415 1_455 S
C248 C253 1.425 1_455 S
C248 C255 1.409 . S
C249 H241 0.930 . S
C249 C247 1.419 . S
C249 C250 1.362 . S
C250 H242 0.930 . S
C250 C249 1.362 . S
C250 C253 1.409 . S
C251 H243 0.930 . S
C251 C252 1.355 . S
C251 C253 1.415 1_455 S
C252 C251 1.355 . S
C252 C254 1.419 . S
C253 C248 1.425 1_655 S
C253 C250 1.409 . S
C253 C251 1.415 1_655 S
C254 H244 0.930 . S
C254 C252 1.419 . S
C254 C255 1.362 . S
C255 H245 0.930 . S
C255 C248 1.409 . S
C255 C254 1.362 . S
H256 C262 0.930 . S
H257 C265 0.930 . S
H258 C266 0.930 . S
H259 C267 0.930 . S
H260 C270 0.930 . S
H261 C271 0.930 . S
C262 H256 0.930 . S
C262 C263 1.355 . S
C262 C264 1.415 . S
C263 C262 1.355 . S
C263 C265 1.419 . S
C264 C262 1.415 . S
C264 C269 1.425 . S
C264 C271 1.409 . S
C265 H257 0.930 . S
C265 C263 1.419 . S
C265 C266 1.362 . S
C266 H258 0.930 . S
C266 C265 1.362 . S
C266 C269 1.409 . S
C267 H259 0.930 . S
C267 C268 1.355 . S
C267 C269 1.415 . S
C268 C267 1.355 . S
C268 C270 1.419 . S
C269 C264 1.425 . S
C269 C266 1.409 . S
C269 C267 1.415 . S
C270 H260 0.930 . S
C270 C268 1.419 . S
C270 C271 1.362 . S
C271 H261 0.930 . S
C271 C264 1.409 . S
C271 C270 1.362 . S
H272 C278 0.930 . S
H273 C281 0.930 . S
H274 C282 0.930 . S
H275 C283 0.930 . S
H276 C286 0.930 . S
H277 C287 0.930 . S
C278 H272 0.930 . S
C278 C279 1.355 . S
C278 C280 1.415 . S
C279 C278 1.355 . S
C279 C281 1.419 . S
C280 C278 1.415 . S
C280 C285 1.425 1_545 S
C280 C287 1.409 . S
C281 H273 0.930 . S
C281 C279 1.419 . S
C281 C282 1.362 1_545 S
C282 H274 0.930 . S
C282 C281 1.362 1_565 S
C282 C285 1.409 . S
C283 H275 0.930 . S
C283 C284 1.355 . S
C283 C285 1.415 . S
C284 C283 1.355 . S
C284 C286 1.419 . S
C285 C280 1.425 1_565 S
C285 C282 1.409 . S
C285 C283 1.415 . S
C286 H276 0.930 . S
C286 C284 1.419 . S
C286 C287 1.362 1_565 S
C287 H277 0.930 . S
C287 C280 1.409 . S
C287 C286 1.362 1_545 S
H288 C294 0.930 . S
H289 C297 0.930 . S
H290 C298 0.930 . S
H291 C299 0.930 . S
H292 C302 0.930 . S
H293 C303 0.930 . S
C294 H288 0.930 . S
C294 C295 1.355 . S
C294 C296 1.415 1_455 S
C295 C294 1.355 . S
C295 C297 1.419 . S
C296 C294 1.415 1_655 S
C296 C301 1.425 1_655 S
C296 C303 1.409 . S
C297 H289 0.930 . S
C297 C295 1.419 . S
C297 C298 1.362 . S
C298 H290 0.930 . S
C298 C297 1.362 . S
C298 C301 1.409 . S
C299 H291 0.930 . S
C299 C300 1.355 . S
C299 C301 1.415 1_655 S
C300 C299 1.355 . S
C300 C302 1.419 . S
C301 C296 1.425 1_455 S
C301 C298 1.409 . S
C301 C299 1.415 1_455 S
C302 H292 0.930 . S
C302 C300 1.419 . S
C302 C303 1.362 . S
C303 H293 0.930 . S
C303 C296 1.409 . S
C303 C302 1.362 . S
H304 C310 0.930 . S
H305 C313 0.930 . S
H306 C314 0.930 . S
H307 C315 0.930 . S
H308 C318 0.930 . S
H309 C319 0.930 . S
C310 H304 0.930 . S
C310 C311 1.355 . S
C310 C312 1.415 . S
C311 C310 1.355 . S
C311 C313 1.419 . S
C312 C310 1.415 . S
C312 C317 1.425 . S
C312 C319 1.409 . S
C313 H305 0.930 . S
C313 C311 1.419 . S
C313 C314 1.362 . S
C314 H306 0.930 . S
C314 C313 1.362 . S
C314 C317 1.409 . S
C315 H307 0.930 . S
C315 C316 1.355 . S
C315 C317 1.415 . S
C316 C315 1.355 . S
C316 C318 1.419 . S
C317 C312 1.425 . S
C317 C314 1.409 . S
C317 C315 1.415 . S
C318 H308 0.930 . S
C318 C316 1.419 . S
C318 C319 1.362 . S
C319 H309 0.930 . S
C319 C312 1.409 . S
C319 C318 1.362 . S
H320 C326 0.930 . S
H321 C329 0.930 . S
H322 C330 0.930 . S
H323 C331 0.930 . S
H324 C334 0.930 . S
H325 C335 0.930 . S
C326 H320 0.930 . S
C326 C327 1.355 . S
C326 C328 1.415 . S
C327 C326 1.355 . S
C327 C329 1.419 . S
C328 C326 1.415 . S
C328 C333 1.425 1_545 S
C328 C335 1.409 . S
C329 H321 0.930 . S
C329 C327 1.419 . S
C329 C330 1.362 1_545 S
C330 H322 0.930 . S
C330 C329 1.362 1_565 S
C330 C333 1.409 . S
C331 H323 0.930 . S
C331 C332 1.355 . S
C331 C333 1.415 . S
C332 C331 1.355 . S
C332 C334 1.419 . S
C333 C328 1.425 1_565 S
C333 C330 1.409 . S
C333 C331 1.415 . S
C334 H324 0.930 . S
C334 C332 1.419 . S
C334 C335 1.362 1_565 S
C335 H325 0.930 . S
C335 C328 1.409 . S
C335 C334 1.362 1_545 S
H336 C342 0.930 1_655 S
H337 C345 0.930 . S
H338 C346 0.930 . S
H339 C347 0.930 1_455 S
H340 C350 0.930 . S
H341 C351 0.930 . S
C342 H336 0.930 1_455 S
C342 C343 1.355 . S
C342 C344 1.415 1_455 S
C343 C342 1.355 . S
C343 C345 1.419 . S
C344 C342 1.415 1_655 S
C344 C349 1.425 1_645 S
C344 C351 1.409 . S
C345 H337 0.930 . S
C345 C343 1.419 . S
C345 C346 1.362 1_545 S
C346 H338 0.930 . S
C346 C345 1.362 1_565 S
C346 C349 1.409 . S
C347 H339 0.930 1_655 S
C347 C348 1.355 . S
C347 C349 1.415 1_655 S
C348 C347 1.355 . S
C348 C350 1.419 . S
C349 C344 1.425 1_465 S
C349 C346 1.409 . S
C349 C347 1.415 1_455 S
C350 H340 0.930 . S
C350 C348 1.419 . S
C350 C351 1.362 1_565 S
C351 H341 0.930 . S
C351 C344 1.409 . S
C351 C350 1.362 1_545 S
H352 C358 0.930 1_545 S
H353 C361 0.930 . S
H354 C362 0.930 . S
H355 C363 0.930 1_565 S
H356 C366 0.930 . S
H357 C367 0.930 . S
C358 H352 0.930 1_565 S
C358 C359 1.355 . S
C358 C360 1.415 1_565 S
C359 C358 1.355 . S
C359 C361 1.419 . S
C360 C358 1.415 1_545 S
C360 C365 1.425 1_545 S
C360 C367 1.409 . S
C361 H353 0.930 . S
C361 C359 1.419 . S
C361 C362 1.362 . S
C362 H354 0.930 . S
C362 C361 1.362 . S
C362 C365 1.409 . S
C363 H355 0.930 1_545 S
C363 C364 1.355 . S
C363 C365 1.415 1_545 S
C364 C363 1.355 . S
C364 C366 1.419 . S
C365 C360 1.425 1_565 S
C365 C362 1.409 . S
C365 C363 1.415 1_565 S
C366 H356 0.930 . S
C366 C364 1.419 . S
C366 C367 1.362 . S
C367 H357 0.930 . S
C367 C360 1.409 . S
C367 C366 1.362 . S
H368 C374 0.930 . S
H369 C377 0.930 . S
H370 C378 0.930 . S
H371 C379 0.930 . S
H372 C382 0.930 . S
H373 C383 0.930 . S
C374 H368 0.930 . S
C374 C375 1.355 . S
C374 C376 1.415 1_565 S
C375 C374 1.355 . S
C375 C377 1.419 . S
C376 C374 1.415 1_545 S
C376 C381 1.425 1_645 S
C376 C383 1.409 . S
C377 H369 0.930 . S
C377 C375 1.419 . S
C377 C378 1.362 1_655 S
C378 H370 0.930 . S
C378 C377 1.362 1_455 S
C378 C381 1.409 . S
C379 H371 0.930 . S
C379 C380 1.355 . S
C379 C381 1.415 1_545 S
C380 C379 1.355 . S
C380 C382 1.419 . S
C381 C376 1.425 1_465 S
C381 C378 1.409 . S
C381 C379 1.415 1_565 S
C382 H372 0.930 . S
C382 C380 1.419 . S
C382 C383 1.362 1_455 S
C383 H373 0.930 . S
C383 C376 1.409 . S
C383 C382 1.362 1_655 S
H384 C390 0.930 . S
H385 C393 0.930 . S
H386 C394 0.930 . S
H387 C395 0.930 . S
H388 C398 0.930 . S
H389 C399 0.930 . S
C390 H384 0.930 . S
C390 C391 1.355 . S
C390 C392 1.415 1_455 S
C391 C390 1.355 . S
C391 C393 1.419 . S
C392 C390 1.415 1_655 S
C392 C397 1.425 1_655 S
C392 C399 1.409 . S
C393 H385 0.930 . S
C393 C391 1.419 . S
C393 C394 1.362 . S
C394 H386 0.930 . S
C394 C393 1.362 . S
C394 C397 1.409 . S
C395 H387 0.930 . S
C395 C396 1.355 . S
C395 C397 1.415 1_655 S
C396 C395 1.355 . S
C396 C398 1.419 . S
C397 C392 1.425 1_455 S
C397 C394 1.409 . S
C397 C395 1.415 1_455 S
C398 H388 0.930 . S
C398 C396 1.419 . S
C398 C399 1.362 . S
C399 H389 0.930 . S
C399 C392 1.409 . S
C399 C398 1.362 . S
H400 C406 0.930 . S
H401 C409 0.930 . S
H402 C410 0.930 . S
H403 C411 0.930 . S
H404 C414 0.930 . S
H405 C415 0.930 . S
C406 H400 0.930 . S
C406 C407 1.355 . S
C406 C408 1.415 . S
C407 C406 1.355 . S
C407 C409 1.419 . S
C408 C406 1.415 . S
C408 C413 1.425 . S
C408 C415 1.409 . S
C409 H401 0.930 . S
C409 C407 1.419 . S
C409 C410 1.362 . S
C410 H402 0.930 . S
C410 C409 1.362 . S
C410 C413 1.409 . S
C411 H403 0.930 . S
C411 C412 1.355 . S
C411 C413 1.415 . S
C412 C411 1.355 . S
C412 C414 1.419 . S
C413 C408 1.425 . S
C413 C410 1.409 . S
C413 C411 1.415 . S
C414 H404 0.930 . S
C414 C412 1.419 . S
C414 C415 1.362 . S
C415 H405 0.930 . S
C415 C408 1.409 . S
C415 C414 1.362 . S
H416 C422 0.930 . S
H417 C425 0.930 . S
H418 C426 0.930 . S
H419 C427 0.930 . S
H420 C430 0.930 . S
H421 C431 0.930 . S
C422 H416 0.930 . S
C422 C423 1.355 . S
C422 C424 1.415 . S
C423 C422 1.355 . S
C423 C425 1.419 . S
C424 C422 1.415 . S
C424 C429 1.425 . S
C424 C431 1.409 . S
C425 H417 0.930 . S
C425 C423 1.419 . S
C425 C426 1.362 . S
C426 H418 0.930 . S
C426 C425 1.362 . S
C426 C429 1.409 . S
C427 H419 0.930 . S
C427 C428 1.355 . S
C427 C429 1.415 . S
C428 C427 1.355 . S
C428 C430 1.419 . S
C429 C424 1.425 . S
C429 C426 1.409 . S
C429 C427 1.415 . S
C430 H420 0.930 . S
C430 C428 1.419 . S
C430 C431 1.362 . S
C431 H421 0.930 . S
C431 C424 1.409 . S
C431 C430 1.362 . S
H432 C438 0.930 . S
H433 C441 0.930 . S
H434 C442 0.930 . S
H435 C443 0.930 . S
H436 C446 0.930 . S
H437 C447 0.930 . S
C438 H432 0.930 . S
C438 C439 1.355 . S
C438 C440 1.415 . S
C439 C438 1.355 . S
C439 C441 1.419 . S
C440 C438 1.415 . S
C440 C445 1.425 1_565 S
C440 C447 1.409 1_565 S
C441 H433 0.930 . S
C441 C439 1.419 . S
C441 C442 1.362 . S
C442 H434 0.930 . S
C442 C441 1.362 . S
C442 C445 1.409 1_565 S
C443 H435 0.930 . S
C443 C444 1.355 . S
C443 C445 1.415 . S
C444 C443 1.355 . S
C444 C446 1.419 . S
C445 C440 1.425 1_545 S
C445 C442 1.409 1_545 S
C445 C443 1.415 . S
C446 H436 0.930 . S
C446 C444 1.419 . S
C446 C447 1.362 . S
C447 H437 0.930 . S
C447 C440 1.409 1_545 S
C447 C446 1.362 . S
H448 C454 0.930 1_545 S
H449 C457 0.930 . S
H450 C458 0.930 . S
H451 C459 0.930 1_565 S
H452 C462 0.930 . S
H453 C463 0.930 . S
C454 H448 0.930 1_565 S
C454 C455 1.355 . S
C454 C456 1.415 1_565 S
C455 C454 1.355 . S
C455 C457 1.419 . S
C456 C454 1.415 1_545 S
C456 C461 1.425 1_645 S
C456 C463 1.409 . S
C457 H449 0.930 . S
C457 C455 1.419 . S
C457 C458 1.362 1_655 S
C458 H450 0.930 . S
C458 C457 1.362 1_455 S
C458 C461 1.409 . S
C459 H451 0.930 1_545 S
C459 C460 1.355 . S
C459 C461 1.415 1_545 S
C460 C459 1.355 . S
C460 C462 1.419 . S
C461 C456 1.425 1_465 S
C461 C458 1.409 . S
C461 C459 1.415 1_565 S
C462 H452 0.930 . S
C462 C460 1.419 . S
C462 C463 1.362 1_455 S
C463 H453 0.930 . S
C463 C456 1.409 . S
C463 C462 1.362 1_655 S
H464 C470 0.930 . S
H465 C473 0.930 . S
H466 C474 0.930 . S
H467 C475 0.930 . S
H468 C478 0.930 . S
H469 C479 0.930 . S
C470 H464 0.930 . S
C470 C471 1.355 . S
C470 C472 1.415 1_455 S
C471 C470 1.355 . S
C471 C473 1.419 . S
C472 C470 1.415 1_655 S
C472 C477 1.425 1_655 S
C472 C479 1.409 . S
C473 H465 0.930 . S
C473 C471 1.419 . S
C473 C474 1.362 . S
C474 H466 0.930 . S
C474 C473 1.362 . S
C474 C477 1.409 . S
C475 H467 0.930 . S
C475 C476 1.355 . S
C475 C477 1.415 1_655 S
C476 C475 1.355 . S
C476 C478 1.419 . S
C477 C472 1.425 1_455 S
C477 C474 1.409 . S
C477 C475 1.415 1_455 S
C478 H468 0.930 . S
C478 C476 1.419 . S
C478 C479 1.362 . S
C479 H469 0.930 . S
C479 C472 1.409 . S
C479 C478 1.362 . S
H480 C486 0.930 . S
H481 C489 0.930 . S
H482 C490 0.930 . S
H483 C491 0.930 . S
H484 C494 0.930 . S
H485 C495 0.930 . S
C486 H480 0.930 . S
C486 C487 1.355 . S
C486 C488 1.415 . S
C487 C486 1.355 . S
C487 C489 1.419 . S
C488 C486 1.415 . S
C488 C493 1.425 . S
C488 C495 1.409 . S
C489 H481 0.930 . S
C489 C487 1.419 . S
C489 C490 1.362 . S
C490 H482 0.930 . S
C490 C489 1.362 . S
C490 C493 1.409 . S
C491 H483 0.930 . S
C491 C492 1.355 . S
C491 C493 1.415 . S
C492 C491 1.355 . S
C492 C494 1.419 . S
C493 C488 1.425 . S
C493 C490 1.409 . S
C493 C491 1.415 . S
C494 H484 0.930 . S
C494 C492 1.419 . S
C494 C495 1.362 . S
C495 H485 0.930 . S
C495 C488 1.409 . S
C495 C494 1.362 . S
H496 C502 0.930 1_455 S
H497 C505 0.930 . S
H498 C506 0.930 . S
H499 C507 0.930 . S
H500 C510 0.930 1_455 S
H501 C511 0.930 . S
C502 H496 0.930 1_655 S
C502 C503 1.355 . S
C502 C504 1.415 . S
C503 C502 1.355 . S
C503 C505 1.419 . S
C504 C502 1.415 . S
C504 C509 1.425 . S
C504 C511 1.409 1_655 S
C505 H497 0.930 . S
C505 C503 1.419 . S
C505 C506 1.362 . S
C506 H498 0.930 . S
C506 C505 1.362 . S
C506 C509 1.409 . S
C507 H499 0.930 . S
C507 C508 1.355 . S
C507 C509 1.415 . S
C508 C507 1.355 . S
C508 C510 1.419 . S
C509 C504 1.425 . S
C509 C506 1.409 . S
C509 C507 1.415 . S
C510 H500 0.930 1_655 S
C510 C508 1.419 . S
C510 C511 1.362 1_655 S
C511 H501 0.930 . S
C511 C504 1.409 1_455 S
C511 C510 1.362 1_455 S
H512 C518 0.930 . S
H513 C521 0.930 . S
H514 C522 0.930 . S
H515 C523 0.930 . S
H516 C526 0.930 . S
H517 C527 0.930 . S
C518 H512 0.930 . S
C518 C519 1.355 . S
C518 C520 1.415 . S
C519 C518 1.355 . S
C519 C521 1.419 . S
C520 C518 1.415 . S
C520 C525 1.425 . S
C520 C527 1.409 . S
C521 H513 0.930 . S
C521 C519 1.419 . S
C521 C522 1.362 . S
C522 H514 0.930 . S
C522 C521 1.362 . S
C522 C525 1.409 . S
C523 H515 0.930 . S
C523 C524 1.355 . S
C523 C525 1.415 . S
C524 C523 1.355 . S
C524 C526 1.419 . S
C525 C520 1.425 . S
C525 C522 1.409 . S
C525 C523 1.415 . S
C526 H516 0.930 . S
C526 C524 1.419 . S
C526 C527 1.362 . S
C527 H517 0.930 . S
C527 C520 1.409 . S
C527 C526 1.362 . S
H528 C534 0.930 . S
H529 C537 0.930 . S
H530 C538 0.930 . S
H531 C539 0.930 . S
H532 C542 0.930 . S
H533 C543 0.930 . S
C534 H528 0.930 . S
C534 C535 1.355 . S
C534 C536 1.415 . S
C535 C534 1.355 . S
C535 C537 1.419 . S
C536 C534 1.415 . S
C536 C541 1.425 . S
C536 C543 1.409 . S
C537 H529 0.930 . S
C537 C535 1.419 . S
C537 C538 1.362 . S
C538 H530 0.930 . S
C538 C537 1.362 . S
C538 C541 1.409 . S
C539 H531 0.930 . S
C539 C540 1.355 . S
C539 C541 1.415 . S
C540 C539 1.355 . S
C540 C542 1.419 . S
C541 C536 1.425 . S
C541 C538 1.409 . S
C541 C539 1.415 . S
C542 H532 0.930 . S
C542 C540 1.419 . S
C542 C543 1.362 . S
C543 H533 0.930 . S
C543 C536 1.409 . S
C543 C542 1.362 . S
H544 C550 0.930 . S
H545 C553 0.930 . S
H546 C554 0.930 . S
H547 C555 0.930 . S
H548 C558 0.930 . S
H549 C559 0.930 . S
C550 H544 0.930 . S
C550 C551 1.355 . S
C550 C552 1.415 . S
C551 C550 1.355 . S
C551 C553 1.419 . S
C552 C550 1.415 . S
C552 C557 1.425 . S
C552 C559 1.409 . S
C553 H545 0.930 . S
C553 C551 1.419 . S
C553 C554 1.362 . S
C554 H546 0.930 . S
C554 C553 1.362 . S
C554 C557 1.409 . S
C555 H547 0.930 . S
C555 C556 1.355 . S
C555 C557 1.415 . S
C556 C555 1.355 . S
C556 C558 1.419 . S
C557 C552 1.425 . S
C557 C554 1.409 . S
C557 C555 1.415 . S
C558 H548 0.930 . S
C558 C556 1.419 . S
C558 C559 1.362 . S
C559 H549 0.930 . S
C559 C552 1.409 . S
C559 C558 1.362 . S
H560 C566 0.930 . S
H561 C569 0.930 . S
H562 C570 0.930 . S
H563 C571 0.930 . S
H564 C574 0.930 . S
H565 C575 0.930 . S
C566 H560 0.930 . S
C566 C567 1.355 . S
C566 C568 1.415 . S
C567 C566 1.355 . S
C567 C569 1.419 . S
C568 C566 1.415 . S
C568 C573 1.425 . S
C568 C575 1.409 . S
C569 H561 0.930 . S
C569 C567 1.419 . S
C569 C570 1.362 . S
C570 H562 0.930 . S
C570 C569 1.362 . S
C570 C573 1.409 . S
C571 H563 0.930 . S
C571 C572 1.355 . S
C571 C573 1.415 . S
C572 C571 1.355 . S
C572 C574 1.419 . S
C573 C568 1.425 . S
C573 C570 1.409 . S
C573 C571 1.415 . S
C574 H564 0.930 . S
C574 C572 1.419 . S
C574 C575 1.362 . S
C575 H565 0.930 . S
C575 C568 1.409 . S
C575 C574 1.362 . S
H576 C582 0.930 . S
H577 C585 0.930 . S
H578 C586 0.930 . S
H579 C587 0.930 . S
H580 C590 0.930 . S
H581 C591 0.930 1_545 S
C582 H576 0.930 . S
C582 C583 1.355 . S
C582 C584 1.415 . S
C583 C582 1.355 . S
C583 C585 1.419 . S
C584 C582 1.415 . S
C584 C589 1.425 . S
C584 C591 1.409 . S
C585 H577 0.930 . S
C585 C583 1.419 . S
C585 C586 1.362 . S
C586 H578 0.930 . S
C586 C585 1.362 . S
C586 C589 1.409 . S
C587 H579 0.930 . S
C587 C588 1.355 . S
C587 C589 1.415 . S
C588 C587 1.355 . S
C588 C590 1.419 . S
C589 C584 1.425 . S
C589 C586 1.409 . S
C589 C587 1.415 . S
C590 H580 0.930 . S
C590 C588 1.419 . S
C590 C591 1.362 . S
C591 H581 0.930 1_565 S
C591 C584 1.409 . S
C591 C590 1.362 . S
H592 C598 0.930 . S
H593 C601 0.930 1_655 S
H594 C602 0.930 . S
H595 C603 0.930 1_655 S
H596 C606 0.930 . S
H597 C607 0.930 . S
C598 H592 0.930 . S
C598 C599 1.355 . S
C598 C600 1.415 . S
C599 C598 1.355 . S
C599 C601 1.419 . S
C600 C598 1.415 . S
C600 C605 1.425 . S
C600 C607 1.409 . S
C601 H593 0.930 1_455 S
C601 C599 1.419 . S
C601 C602 1.362 1_455 S
C602 H594 0.930 . S
C602 C601 1.362 1_655 S
C602 C605 1.409 1_655 S
C603 H595 0.930 1_455 S
C603 C604 1.355 . S
C603 C605 1.415 . S
C604 C603 1.355 . S
C604 C606 1.419 . S
C605 C600 1.425 . S
C605 C602 1.409 1_455 S
C605 C603 1.415 . S
C606 H596 0.930 . S
C606 C604 1.419 . S
C606 C607 1.362 . S
C607 H597 0.930 . S
C607 C600 1.409 . S
C607 C606 1.362 . S
H608 C614 0.930 . S
H609 C617 0.930 . S
H610 C618 0.930 . S
H611 C619 0.930 . S
H612 C622 0.930 . S
H613 C623 0.930 . S
C614 H608 0.930 . S
C614 C615 1.355 . S
C614 C616 1.415 . S
C615 C614 1.355 . S
C615 C617 1.419 . S
C616 C614 1.415 . S
C616 C621 1.425 . S
C616 C623 1.409 . S
C617 H609 0.930 . S
C617 C615 1.419 . S
C617 C618 1.362 . S
C618 H610 0.930 . S
C618 C617 1.362 . S
C618 C621 1.409 . S
C619 H611 0.930 . S
C619 C620 1.355 . S
C619 C621 1.415 . S
C620 C619 1.355 . S
C620 C622 1.419 . S
C621 C616 1.425 . S
C621 C618 1.409 . S
C621 C619 1.415 . S
C622 H612 0.930 . S
C622 C620 1.419 . S
C622 C623 1.362 . S
C623 H613 0.930 . S
C623 C616 1.409 . S
C623 C622 1.362 . S
H624 C630 0.930 . S
H625 C633 0.930 . S
H626 C634 0.930 . S
H627 C635 0.930 . S
H628 C638 0.930 . S
H629 C639 0.930 . S
C630 H624 0.930 . S
C630 C631 1.355 . S
C630 C632 1.415 . S
C631 C630 1.355 . S
C631 C633 1.419 . S
C632 C630 1.415 . S
C632 C637 1.425 . S
C632 C639 1.409 . S
C633 H625 0.930 . S
C633 C631 1.419 . S
C633 C634 1.362 . S
C634 H626 0.930 . S
C634 C633 1.362 . S
C634 C637 1.409 . S
C635 H627 0.930 . S
C635 C636 1.355 . S
C635 C637 1.415 . S
C636 C635 1.355 . S
C636 C638 1.419 . S
C637 C632 1.425 . S
C637 C634 1.409 . S
C637 C635 1.415 . S
C638 H628 0.930 . S
C638 C636 1.419 . S
C638 C639 1.362 . S
C639 H629 0.930 . S
C639 C632 1.409 . S
C639 C638 1.362 . S
H640 C646 0.930 . S
H641 C649 0.930 . S
H642 C650 0.930 . S
H643 C651 0.930 . S
H644 C654 0.930 . S
H645 C655 0.930 . S
C646 H640 0.930 . S
C646 C647 1.355 . S
C646 C648 1.415 . S
C647 C646 1.355 . S
C647 C649 1.419 . S
C648 C646 1.415 . S
C648 C653 1.425 . S
C648 C655 1.409 . S
C649 H641 0.930 . S
C649 C647 1.419 . S
C649 C650 1.362 . S
C650 H642 0.930 . S
C650 C649 1.362 . S
C650 C653 1.409 . S
C651 H643 0.930 . S
C651 C652 1.355 . S
C651 C653 1.415 . S
C652 C651 1.355 . S
C652 C654 1.419 . S
C653 C648 1.425 . S
C653 C650 1.409 . S
C653 C651 1.415 . S
C654 H644 0.930 . S
C654 C652 1.419 . S
C654 C655 1.362 . S
C655 H645 0.930 . S
C655 C648 1.409 . S
C655 C654 1.362 . S
H656 C662 0.930 . S
H657 C665 0.930 . S
H658 C666 0.930 . S
H659 C667 0.930 . S
H660 C670 0.930 . S
H661 C671 0.930 . S
C662 H656 0.930 . S
C662 C663 1.355 . S
C662 C664 1.415 1_556 S
C663 C662 1.355 . S
C663 C665 1.419 . S
C664 C662 1.415 1_554 S
C664 C669 1.425 1_554 S
C664 C671 1.409 . S
C665 H657 0.930 . S
C665 C663 1.419 . S
C665 C666 1.362 . S
C666 H658 0.930 . S
C666 C665 1.362 . S
C666 C669 1.409 . S
C667 H659 0.930 . S
C667 C668 1.355 . S
C667 C669 1.415 1_554 S
C668 C667 1.355 . S
C668 C670 1.419 . S
C669 C664 1.425 1_556 S
C669 C666 1.409 . S
C669 C667 1.415 1_556 S
C670 H660 0.930 . S
C670 C668 1.419 . S
C670 C671 1.362 . S
C671 H661 0.930 . S
C671 C664 1.409 . S
C671 C670 1.362 . S
H672 C678 0.930 . S
H673 C681 0.930 . S
H674 C682 0.930 . S
H675 C683 0.930 . S
H676 C686 0.930 . S
H677 C687 0.930 . S
C678 H672 0.930 . S
C678 C679 1.355 . S
C678 C680 1.415 . S
C679 C678 1.355 . S
C679 C681 1.419 . S
C680 C678 1.415 . S
C680 C685 1.425 1_554 S
C680 C687 1.409 . S
C681 H673 0.930 . S
C681 C679 1.419 . S
C681 C682 1.362 1_554 S
C682 H674 0.930 . S
C682 C681 1.362 1_556 S
C682 C685 1.409 . S
C683 H675 0.930 . S
C683 C684 1.355 . S
C683 C685 1.415 . S
C684 C683 1.355 . S
C684 C686 1.419 . S
C685 C680 1.425 1_556 S
C685 C682 1.409 . S
C685 C683 1.415 . S
C686 H676 0.930 . S
C686 C684 1.419 . S
C686 C687 1.362 1_556 S
C687 H677 0.930 . S
C687 C680 1.409 . S
C687 C686 1.362 1_554 S
H688 C694 0.930 . S
H689 C697 0.930 . S
H690 C698 0.930 . S
H691 C699 0.930 . S
H692 C702 0.930 . S
H693 C703 0.930 . S
C694 H688 0.930 . S
C694 C695 1.355 . S
C694 C696 1.415 . S
C695 C694 1.355 . S
C695 C697 1.419 . S
C696 C694 1.415 . S
C696 C701 1.425 . S
C696 C703 1.409 . S
C697 H689 0.930 . S
C697 C695 1.419 . S
C697 C698 1.362 . S
C698 H690 0.930 . S
C698 C697 1.362 . S
C698 C701 1.409 . S
C699 H691 0.930 . S
C699 C700 1.355 . S
C699 C701 1.415 . S
C700 C699 1.355 . S
C700 C702 1.419 . S
C701 C696 1.425 . S
C701 C698 1.409 . S
C701 C699 1.415 . S
C702 H692 0.930 . S
C702 C700 1.419 . S
C702 C703 1.362 . S
C703 H693 0.930 . S
C703 C696 1.409 . S
C703 C702 1.362 . S
H704 C710 0.930 . S
H705 C713 0.930 . S
H706 C714 0.930 . S
H707 C715 0.930 . S
H708 C718 0.930 . S
H709 C719 0.930 . S
C710 H704 0.930 . S
C710 C711 1.355 . S
C710 C712 1.415 . S
C711 C710 1.355 . S
C711 C713 1.419 . S
C712 C710 1.415 . S
C712 C717 1.425 . S
C712 C719 1.409 . S
C713 H705 0.930 . S
C713 C711 1.419 . S
C713 C714 1.362 . S
C714 H706 0.930 . S
C714 C713 1.362 . S
C714 C717 1.409 . S
C715 H707 0.930 . S
C715 C716 1.355 . S
C715 C717 1.415 . S
C716 C715 1.355 . S
C716 C718 1.419 . S
C717 C712 1.425 . S
C717 C714 1.409 . S
C717 C715 1.415 . S
C718 H708 0.930 . S
C718 C716 1.419 . S
C718 C719 1.362 . S
C719 H709 0.930 . S
C719 C712 1.409 . S
C719 C718 1.362 . S
H720 C726 0.930 . S
H721 C729 0.930 . S
H722 C730 0.930 . S
H723 C731 0.930 . S
H724 C734 0.930 . S
H725 C735 0.930 . S
C726 H720 0.930 . S
C726 C727 1.355 . S
C726 C728 1.415 . S
C727 C726 1.355 . S
C727 C729 1.419 . S
C728 C726 1.415 . S
C728 C733 1.425 . S
C728 C735 1.409 . S
C729 H721 0.930 . S
C729 C727 1.419 . S
C729 C730 1.362 . S
C730 H722 0.930 . S
C730 C729 1.362 . S
C730 C733 1.409 . S
C731 H723 0.930 . S
C731 C732 1.355 . S
C731 C733 1.415 . S
C732 C731 1.355 . S
C732 C734 1.419 . S
C733 C728 1.425 . S
C733 C730 1.409 . S
C733 C731 1.415 . S
C734 H724 0.930 . S
C734 C732 1.419 . S
C734 C735 1.362 . S
C735 H725 0.930 . S
C735 C728 1.409 . S
C735 C734 1.362 . S
C231 C141 2.073 . S
C236 C13 2.072 . S
C247 C15 2.048 . S
C252 C167 2.055 . S
C263 C113 2.018 . S
C268 C29 2.018 . S
C279 C139 2.073 . S
C284 C43 2.072 . S
C295 C69 2.024 . S
C300 C197 2.020 . S
C311 C211 2.025 . S
C316 C83 2.021 . S
C327 C96 2.015 . S
C332 C180 2.019 . S
C343 C182 2.069 . S
C348 C98 2.070 . S
C359 C140 1.538 . S
C364 C12 1.543 . S
C375 C14 1.490 . S
C380 C166 1.482 . S
C391 C28 1.471 . S
C396 C112 1.476 . S
C407 C42 1.542 . S
C412 C138 1.546 . S
C423 C68 1.473 . S
C428 C196 1.469 . S
C439 C82 1.477 . S
C444 C210 1.484 . S
C455 C181 1.543 . S
C460 C97 1.547 . S
C471 C183 1.548 . S
C476 C99 1.545 . S
C487 C0 1.606 . S
C492 C85 1.608 . S
C503 C26 1.627 . S
C508 C111 1.643 . S
C519 C40 1.613 . S
C524 C56 1.604 . S
C535 C54 1.639 . S
C540 C70 1.647 . S
C551 C124 1.639 . S
C556 C208 1.647 . S
C567 C222 1.643 . S
C572 C126 1.627 . S
C583 C152 1.640 . S
C588 C169 1.647 . S
C599 C195 1.628 . S
C604 C154 1.610 . S
C615 C1 1.694 . S
C620 C223 1.696 . S
C631 C168 1.701 . S
C636 C27 1.697 . S
C647 C194 1.696 . S
C652 C41 1.695 . S
C663 C209 1.694 . S
C668 C55 1.695 . S
C679 C127 1.734 . S
C684 C57 1.736 . S
C695 C153 1.710 . S
C700 C71 1.703 . S
C711 C84 1.734 . S
C716 C155 1.735 . S
C727 C110 1.698 . S
C732 C125 1.707 . S
