# Generated by pormake.
# Topology tfs, (6)-cn, num edge types: 1
# Building blocks:
#     Node 0, Type 0, BuildingBlock: VOLQOD_clean_sbu_1, # of connection points: 6
#     Node 1, Type 0, BuildingBlock: VOLQOD_clean_sbu_1, # of connection points: 6
#     Node 2, Type 0, BuildingBlock: VOLQOD_clean_sbu_1, # of connection points: 6
#     Node 3, Type 0, BuildingBlock: VOLQOD_clean_sbu_1, # of connection points: 6
#     Node 4, Type 0, BuildingBlock: VOLQOD_clean_sbu_1, # of connection points: 6
#     Node 5, Type 0, BuildingBlock: VOLQOD_clean_sbu_1, # of connection points: 6
#     Edge 6, Type (0, 0), BuildingBlock: TEMPAE_clean_linker_10, # of connection points: 2
#     Edge 7, Type (0, 0), BuildingBlock: TEMPAE_clean_linker_10, # of connection points: 2
#     Edge 8, Type (0, 0), BuildingBlock: TEMPAE_clean_linker_10, # of connection points: 2
#     Edge 9, Type (0, 0), BuildingBlock: TEMPAE_clean_linker_10, # of connection points: 2
#     Edge 10, Type (0, 0), BuildingBlock: TEMPAE_clean_linker_10, # of connection points: 2
#     Edge 11, Type (0, 0), BuildingBlock: TEMPAE_clean_linker_10, # of connection points: 2
#     Edge 12, Type (0, 0), BuildingBlock: TEMPAE_clean_linker_10, # of connection points: 2
#     Edge 13, Type (0, 0), BuildingBlock: TEMPAE_clean_linker_10, # of connection points: 2
#     Edge 14, Type (0, 0), BuildingBlock: TEMPAE_clean_linker_10, # of connection points: 2
#     Edge 15, Type (0, 0), BuildingBlock: TEMPAE_clean_linker_10, # of connection points: 2
#     Edge 16, Type (0, 0), BuildingBlock: TEMPAE_clean_linker_10, # of connection points: 2
#     Edge 17, Type (0, 0), BuildingBlock: TEMPAE_clean_linker_10, # of connection points: 2
#     Edge 18, Type (0, 0), BuildingBlock: TEMPAE_clean_linker_10, # of connection points: 2
#     Edge 19, Type (0, 0), BuildingBlock: TEMPAE_clean_linker_10, # of connection points: 2
#     Edge 20, Type (0, 0), BuildingBlock: TEMPAE_clean_linker_10, # of connection points: 2
#     Edge 21, Type (0, 0), BuildingBlock: TEMPAE_clean_linker_10, # of connection points: 2
#     Edge 22, Type (0, 0), BuildingBlock: TEMPAE_clean_linker_10, # of connection points: 2
#     Edge 23, Type (0, 0), BuildingBlock: TEMPAE_clean_linker_10, # of connection points: 2
# Relax obj value: 0.115
# Max RMSD: 0.091
# Mean RMSD: 0.091
data_MOF--net-tfs--node1-VOLQOD_clean_sbu_1--edge1-TEMPAE_clean_linker_10
_symmetry_space_group_name_H-M    P1
_symmetry_Int_Tables_number       1
_symmetry_cell_setting            triclinic
loop_
_symmetry_equiv_pos_as_xyz
'x, y, z'
_cell_length_a     46.521818
_cell_length_b     46.577564
_cell_length_c     17.368115
_cell_angle_alpha  89.955666
_cell_angle_beta   90.057802
_cell_angle_gamma 120.06247
loop_
_atom_site_label
_atom_site_type_symbol
_atom_site_fract_x
_atom_site_fract_y
_atom_site_fract_z
_atom_type_partial_charge
O0 O 0.2609 0.46998 0.93455 0.0
Zn1 Zn 0.21198 0.45201 0.92002 0.0
O2 O 0.18531 0.41487 -0.01316 0.0
Zn3 Zn 0.16268 0.37491 0.92502 0.0
Zn4 Zn 0.21507 0.41129 0.05898 0.0
Zn5 Zn 0.15243 0.42153 0.04138 0.0
O6 O 0.11455 0.34849 0.95351 0.0
O7 O 0.10594 0.38566 0.0138 0.0
O8 O 0.19979 0.44035 0.80931 0.0
O9 O 0.16432 0.3862 0.81292 0.0
O10 O 0.18373 0.34671 0.93796 0.0
O11 O 0.21646 0.36977 0.03956 0.0
O12 O 0.20028 0.41038 0.16665 0.0
O13 O 0.20397 0.48909 0.94537 0.0
O14 O 0.15726 0.41842 0.1565 0.0
O15 O 0.15888 0.46706 0.01935 0.0
C16 C 0.27698 0.46864 -0.00755 0.0
C17 C 0.09509 0.35706 0.98389 0.0
C18 C 0.20386 0.34724 -0.0116 0.0
C19 C 0.18016 0.41323 0.7755 0.0
C20 C 0.1773 0.41369 0.19732 0.0
C21 C 0.18183 0.49157 0.98282 0.0
O22 O 0.26219 0.44922 0.04866 0.0
O23 O 0.77256 0.25754 0.93117 0.0
Zn24 Zn 0.74489 0.20813 0.91925 0.0
O25 O 0.75924 0.18476 -0.01323 0.0
Zn26 Zn 0.78043 0.16528 0.9262 0.0
Zn27 Zn 0.79078 0.21677 0.05873 0.0
Zn28 Zn 0.72113 0.14997 0.04185 0.0
O29 O 0.76138 0.11696 0.95298 0.0
O30 O 0.71462 0.10527 0.01365 0.0
O31 O 0.74575 0.19601 0.80939 0.0
O32 O 0.77123 0.16655 0.8133 0.0
O33 O 0.83012 0.19008 0.94237 0.0
O34 O 0.83577 0.22243 0.04209 0.0
O35 O 0.77742 0.20201 0.16663 0.0
O36 O 0.6982 0.19585 0.944 0.0
O37 O 0.72904 0.15524 0.1569 0.0
O38 O 0.67919 0.15154 0.01974 0.0
C39 C 0.78955 0.27505 -0.01197 0.0
C40 C 0.73364 0.09615 0.983 0.0
C41 C 0.84808 0.21138 -0.00704 0.0
C42 C 0.75691 0.17935 0.77573 0.0
C43 C 0.7526 0.17726 0.19754 0.0
C44 C 0.6748 0.17252 0.98207 0.0
O45 O 0.79591 0.26212 0.04541 0.0
O46 O 0.50193 0.76795 0.9567 0.0
Zn47 Zn 0.52688 0.74417 0.93711 0.0
O48 O 0.56695 0.76194 -0.00125 0.0
Zn49 Zn 0.60581 0.78201 0.93197 0.0
Zn50 Zn 0.56898 0.79623 0.06634 0.0
Zn51 Zn 0.56585 0.72566 0.05841 0.0
O52 O 0.63484 0.7624 0.95165 0.0
O53 O 0.60668 0.72243 0.0373 0.0
O54 O 0.5371 0.74656 0.82452 0.0
O55 O 0.59218 0.77302 0.82188 0.0
O56 O 0.63312 0.83163 0.94585 0.0
O57 O 0.61051 0.8397 0.05012 0.0
O58 O 0.5673 0.7831 0.1761 0.0
O59 O 0.49578 0.69694 0.96317 0.0
O60 O 0.56559 0.73461 0.17126 0.0
O61 O 0.5241 0.68122 0.03805 0.0
C62 C 0.5063 0.79117 0.00218 0.0
C63 C 0.63194 0.73887 -0.00571 0.0
C64 C 0.63269 0.85058 -0.00195 0.0
C65 C 0.5643 0.75869 0.78747 0.0
C66 C 0.56604 0.75816 0.20942 0.0
C67 C 0.49777 0.67474 0.00144 0.0
O68 O 0.53102 0.80459 0.04774 0.0
O69 O 0.72884 0.51216 0.91539 0.0
Zn70 Zn 0.77834 0.53496 0.90653 0.0
O71 O 0.80027 0.5723 0.97528 0.0
Zn72 Zn 0.82054 0.61352 0.91598 0.0
Zn73 Zn 0.76648 0.57039 0.04314 0.0
Zn74 Zn 0.83373 0.56877 0.03537 0.0
O75 O 0.86909 0.64106 0.94031 0.0
O76 O 0.87879 0.60764 0.0141 0.0
O77 O 0.79058 0.54868 0.79747 0.0
O78 O 0.8179 0.60368 0.80262 0.0
O79 O 0.79726 0.63977 0.93485 0.0
O80 O 0.75766 0.60678 0.01701 0.0
O81 O 0.78045 0.57488 0.15315 0.0
O82 O 0.79087 0.50095 0.93263 0.0
O83 O 0.82621 0.57132 0.1482 0.0
O84 O 0.83265 0.52527 0.01583 0.0
C85 C 0.71069 0.50997 0.97232 0.0
C86 C 0.88882 0.63486 0.97814 0.0
C87 C 0.77169 0.63264 0.97523 0.0
C88 C 0.80585 0.57679 0.76438 0.0
C89 C 0.80455 0.57435 0.18638 0.0
C90 C 0.81287 0.50036 0.97505 0.0
O91 O 0.72274 0.52848 0.03109 0.0
O92 O 0.22641 0.73902 0.93005 0.0
Zn93 Zn 0.246 0.78824 0.91553 0.0
O94 O 0.2264 0.80588 -0.01419 0.0
Zn95 Zn 0.20259 0.82359 0.92875 0.0
Zn96 Zn 0.19578 0.77048 0.05238 0.0
Zn97 Zn 0.26103 0.84069 0.04773 0.0
O98 O 0.22047 0.87156 0.95274 0.0
O99 O 0.26665 0.88476 0.018 0.0
O100 O 0.23932 0.79684 0.8066 0.0
O101 O 0.20872 0.82103 0.81474 0.0
O102 O 0.1535 0.798 0.94979 0.0
O103 O 0.14917 0.75742 0.02528 0.0
O104 O 0.20317 0.78448 0.16272 0.0
O105 O 0.29493 0.80899 0.93448 0.0
O106 O 0.24891 0.83389 0.15968 0.0
O107 O 0.30463 0.84188 0.03555 0.0
C108 C 0.21016 0.71988 -0.01443 0.0
C109 C 0.24749 0.89296 -0.01566 0.0
C110 C 0.13607 0.77112 -0.01333 0.0
C111 C 0.22404 0.80997 0.77491 0.0
C112 C 0.22523 0.81039 0.19679 0.0
C113 C 0.31446 0.82877 -0.01453 0.0
O114 O 0.19924 0.72966 0.04072 0.0
O115 O 0.47138 0.20843 0.90707 0.0
Zn116 Zn 0.45065 0.23684 0.89197 0.0
O117 O 0.41266 0.22369 0.95798 0.0
Zn118 Zn 0.37264 0.20405 0.89536 0.0
Zn119 Zn 0.41076 0.19128 0.03035 0.0
Zn120 Zn 0.41687 0.26214 0.01303 0.0
O121 O 0.34439 0.22377 0.92192 0.0
O122 O 0.37909 0.26953 -0.01374 0.0
O123 O 0.43871 0.23622 0.78118 0.0
O124 O 0.38388 0.21338 0.78326 0.0
O125 O 0.34545 0.15481 0.91114 0.0
O126 O 0.36933 0.14793 0.01502 0.0
O127 O 0.41069 0.20536 0.13794 0.0
O128 O 0.48561 0.28314 0.91698 0.0
O129 O 0.41481 0.25476 0.12807 0.0
O130 O 0.46071 0.30321 -0.00936 0.0
C131 C 0.46983 0.1901 0.96314 0.0
C132 C 0.35112 0.25093 0.95424 0.0
C133 C 0.34647 0.13661 0.96449 0.0
C134 C 0.41123 0.22646 0.74659 0.0
C135 C 0.41232 0.23086 0.16878 0.0
C136 C 0.48607 0.30689 0.95415 0.0
O137 O 0.44923 0.18332 0.01787 0.0
C138 C 0.33534 0.29457 0.95858 0.0
C139 C 0.32574 0.26092 0.95549 0.0
C140 C 0.31155 0.30452 0.96099 0.0
C141 C 0.2774 0.28015 0.96236 0.0
C142 C 0.26753 0.2461 0.95917 0.0
C143 C 0.2919 0.23687 0.95481 0.0
C144 C 0.32298 0.34114 0.96273 0.0
C145 C 0.23136 0.21952 0.96238 0.0
C146 C 0.22712 0.31498 0.04891 0.0
C147 C 0.21616 0.32379 0.98268 0.0
C148 C 0.24481 0.29806 0.04329 0.0
C149 C 0.25238 0.29072 0.9696 0.0
C150 C 0.23946 0.29761 0.90276 0.0
C151 C 0.22106 0.31378 0.91023 0.0
C152 C 0.25739 0.29023 0.11595 0.0
C153 C 0.24745 0.29058 0.82318 0.0
H154 H 0.36151 0.31316 0.95839 0.0
H155 H 0.2845 0.2108 0.95299 0.0
H156 H 0.31097 0.34743 0.91557 0.0
H157 H 0.31549 0.34751 0.01785 0.0
H158 H 0.35035 0.35684 0.95668 0.0
H159 H 0.22781 0.19419 0.95671 0.0
H160 H 0.22048 0.22113 0.01791 0.0
H161 H 0.21727 0.22336 0.91589 0.0
H162 H 0.22296 0.32245 0.10501 0.0
H163 H 0.2127 0.32077 0.85897 0.0
H164 H 0.28452 0.30748 0.12137 0.0
H165 H 0.25332 0.26465 0.11376 0.0
H166 H 0.24507 0.29273 0.16821 0.0
H167 H 0.27396 0.30822 0.81017 0.0
H168 H 0.23197 0.29326 0.77816 0.0
H169 H 0.2438 0.26519 0.81993 0.0
C170 C 0.0474 0.29899 0.98393 0.0
C171 C 0.0591 0.33321 -0.01583 0.0
C172 C 0.01324 0.27602 -0.01482 0.0
C173 C 0.99038 0.28764 -0.01537 0.0
C174 C 0.00209 0.32217 0.98349 0.0
C175 C 0.03636 0.34457 -0.01567 0.0
C176 C 0.00163 0.23941 -0.01155 0.0
C177 C 0.97841 0.33548 0.98134 0.0
C178 C 0.90115 0.23228 0.92099 0.0
C179 C 0.8844 0.22608 -0.00863 0.0
C180 C 0.93592 0.25147 0.91795 0.0
C181 C 0.95414 0.26388 -0.01283 0.0
C182 C 0.93737 0.25572 0.05873 0.0
C183 C 0.90261 0.23729 0.05987 0.0
C184 C 0.95292 0.26018 0.8405 0.0
C185 C 0.95601 0.26773 0.13388 0.0
H186 H 0.06499 0.29017 -0.01563 0.0
H187 H 0.04537 0.37101 0.98382 0.0
H188 H 0.98671 0.22844 0.04133 0.0
H189 H 0.98529 0.22648 0.93863 0.0
H190 H 0.02264 0.23446 -0.01169 0.0
H191 H 0.99157 0.36296 0.97669 0.0
H192 H 0.96123 0.32474 0.93168 0.0
H193 H 0.96304 0.32803 0.03431 0.0
H194 H 0.88701 0.22384 0.86796 0.0
H195 H 0.8896 0.23226 0.11438 0.0
H196 H 0.97359 0.25479 0.83952 0.0
H197 H 0.96383 0.28717 0.82993 0.0
H198 H 0.93552 0.24642 0.79272 0.0
H199 H 0.97676 0.26247 0.13606 0.0
H200 H 0.93966 0.25596 0.18448 0.0
H201 H 0.96696 0.295 0.13848 0.0
C202 C 0.689 0.03688 0.98353 0.0
C203 C 0.72292 0.06049 0.98167 0.0
C204 C 0.67814 0.0029 0.98297 0.0
C205 C 0.70182 0.99227 0.98241 0.0
C206 C 0.73614 0.01597 0.98038 0.0
C207 C 0.74631 0.0499 0.97912 0.0
C208 C 0.64127 0.97837 0.98361 0.0
C209 C 0.76203 0.00549 0.98143 0.0
C210 C 0.66503 0.90548 0.06206 0.0
C211 C 0.65606 0.88657 -0.00557 0.0
C212 C 0.68244 0.9402 0.05905 0.0
C213 C 0.69021 0.95626 -0.01342 0.0
C214 C 0.68293 0.93731 0.91821 0.0
C215 C 0.66623 0.90257 0.92304 0.0
C216 C 0.69058 0.95959 0.13331 0.0
C217 C 0.69033 0.9535 0.83985 0.0
H218 H 0.67085 0.04499 -0.01535 0.0
H219 H 0.77257 0.06814 0.97807 0.0
H220 H 0.63461 0.96077 0.93483 0.0
H221 H 0.63444 0.9636 0.03749 0.0
H222 H 0.62617 0.99072 0.97946 0.0
H223 H 0.78768 0.02697 0.97722 0.0
H224 H 0.75988 0.99187 0.03554 0.0
H225 H 0.75786 0.98828 0.93309 0.0
H226 H 0.65746 0.89309 0.11737 0.0
H227 H 0.65914 0.88794 0.87066 0.0
H228 H 0.67395 0.97009 0.14008 0.0
H229 H 0.71649 0.98065 0.13234 0.0
H230 H 0.68742 0.94385 0.18428 0.0
H231 H 0.67333 0.96329 0.82872 0.0
H232 H 0.68705 0.93582 0.79314 0.0
H233 H 0.71607 0.9748 0.83748 0.0
C234 C 0.77333 0.68693 0.98384 0.0
C235 C 0.75572 0.65281 0.96934 0.0
C236 C 0.75668 0.7051 -0.01323 0.0
C237 C 0.72202 0.68869 0.9726 0.0
C238 C 0.70466 0.65453 0.95395 0.0
C239 C 0.72167 0.6369 0.95382 0.0
C240 C 0.77576 0.74132 0.00851 0.0
C241 C 0.66789 0.6363 0.93636 0.0
C242 C 0.66374 0.71496 0.05556 0.0
C243 C 0.65786 0.72954 -0.00855 0.0
C244 C 0.68657 0.70374 0.05175 0.0
C245 C 0.70309 0.7063 0.98145 0.0
C246 C 0.69811 0.72207 0.91733 0.0
C247 C 0.6758 0.7339 0.92343 0.0
C248 C 0.69184 0.68775 0.12192 0.0
C249 C 0.71465 0.72452 0.84092 0.0
H250 H 0.79969 0.69898 -0.00366 0.0
H251 H 0.70827 0.61047 0.94207 0.0
H252 H 0.77108 0.75639 0.96632 0.0
H253 H 0.7671 0.74476 0.06544 0.0
H254 H 0.80294 0.75095 0.01181 0.0
H255 H 0.65889 0.61055 0.9161 0.0
H256 H 0.65378 0.63517 -0.01119 0.0
H257 H 0.66221 0.64974 0.89157 0.0
H258 H 0.6502 0.71201 0.10852 0.0
H259 H 0.67119 0.74511 0.8737 0.0
H260 H 0.71875 0.6978 0.13221 0.0
H261 H 0.68043 0.66066 0.11226 0.0
H262 H 0.68064 0.69167 0.17447 0.0
H263 H 0.74166 0.73441 0.84874 0.0
H264 H 0.71104 0.74062 0.79943 0.0
H265 H 0.70409 0.69938 0.81546 0.0
C266 C 0.083 0.77204 -0.01111 0.0
C267 C 0.09979 0.75428 0.98173 0.0
C268 C 0.04816 0.75548 -0.01186 0.0
C269 C 0.03014 0.72067 0.97714 0.0
C270 C 0.04721 0.70293 0.96697 0.0
C271 C 0.08187 0.71992 0.97084 0.0
C272 C 0.03067 0.77494 0.00161 0.0
C273 C 0.02888 0.66594 0.95276 0.0
C274 C 0.94252 0.66505 0.04743 0.0
C275 C 0.92435 0.65949 0.9794 0.0
C276 C 0.97687 0.68681 0.04854 0.0
C277 C -0.0066 0.70225 0.97924 0.0
C278 C 0.97498 0.6973 0.91072 0.0
C279 C 0.94043 0.67631 0.91196 0.0
C280 C -0.0044 0.6923 0.12322 0.0
C281 C -0.0081 0.71253 0.8353 0.0
H282 H 0.0971 0.79866 -0.00229 0.0
H283 H 0.09509 0.70637 0.96445 0.0
H284 H 0.01327 0.77087 0.95367 0.0
H285 H 0.01567 0.76608 0.05507 0.0
H286 H 0.04835 0.80198 0.00712 0.0
H287 H 0.046 0.65645 0.93979 0.0
H288 H 0.01402 0.65274 0.00424 0.0
H289 H 0.01134 0.65971 0.90389 0.0
H290 H 0.92984 0.65223 0.09971 0.0
H291 H 0.92621 0.67174 0.85935 0.0
H292 H 0.01267 0.71919 0.13295 0.0
H293 H 0.01098 0.68027 0.12021 0.0
H294 H 0.97865 0.68194 0.17342 0.0
H295 H 0.00885 0.73961 0.84187 0.0
H296 H 0.97383 0.70827 0.78866 0.0
H297 H 0.00727 0.7016 0.81743 0.0
C298 C 0.23334 0.93784 0.9721 0.0
C299 C 0.25735 0.92824 0.97987 0.0
C300 C 0.24267 0.97148 0.9681 0.0
C301 C 0.27677 -0.00425 0.97014 0.0
C302 C 0.30109 0.98609 0.97659 0.0
C303 C 0.29103 0.95242 0.98232 0.0
C304 C 0.21616 0.98106 0.96307 0.0
C305 C 0.33779 0.01132 0.97764 0.0
C306 C 0.31244 0.08319 0.89602 0.0
C307 C 0.32243 0.10095 0.96518 0.0
C308 C 0.29534 0.04843 0.8965 0.0
C309 C 0.28754 0.03146 0.96786 0.0
C310 C 0.29479 0.0494 0.03767 0.0
C311 C 0.31264 0.08406 0.03549 0.0
C312 C 0.28841 0.03011 0.82095 0.0
C313 C 0.28604 0.0321 0.11481 0.0
H314 H 0.20724 0.91909 0.9706 0.0
H315 H 0.30963 0.94498 -0.01254 0.0
H316 H 0.21778 -0.00381 0.01397 0.0
H317 H 0.22013 -0.0034 0.91136 0.0
H318 H 0.19077 0.95909 0.96045 0.0
H319 H 0.35345 -0.00047 0.97885 0.0
H320 H 0.34452 0.0275 0.92606 0.0
H321 H 0.34381 0.02748 0.02901 0.0
H322 H 0.32015 0.09639 0.84169 0.0
H323 H 0.32006 0.09797 0.08893 0.0
H324 H 0.26289 0.00841 0.81995 0.0
H325 H 0.3059 0.02063 0.81398 0.0
H326 H 0.29148 0.04635 0.77106 0.0
H327 H 0.26035 0.01064 0.1142 0.0
H328 H 0.28826 0.0491 0.16221 0.0
H329 H 0.30304 0.02244 0.12732 0.0
C330 C 0.2001 0.66912 0.05622 0.0
C331 C 0.20375 0.68555 -0.01383 0.0
C332 C 0.19494 0.63679 0.05783 0.0
C333 C 0.19251 0.62032 -0.01238 0.0
C334 C 0.19515 0.63645 0.91668 0.0
C335 C 0.20122 0.66911 0.91682 0.0
C336 C 0.19316 0.62068 0.13455 0.0
C337 C 0.19197 0.61935 0.8407 0.0
C338 C 0.21527 0.553 0.98252 0.0
C339 C 0.18402 0.52419 -0.01412 0.0
C340 C 0.21834 0.58443 -0.01527 0.0
C341 C 0.18937 0.58706 -0.01172 0.0
C342 C 0.15769 0.55804 -0.00849 0.0
C343 C 0.1554 0.52681 -0.0086 0.0
C344 C 0.25261 0.61482 0.98326 0.0
C345 C 0.12628 0.56001 -0.00641 0.0
H346 H 0.20221 0.6819 0.10991 0.0
H347 H 0.20365 0.68169 0.86261 0.0
H348 H 0.16972 0.59656 0.13899 0.0
H349 H 0.21393 0.61553 0.13938 0.0
H350 H 0.19455 0.63652 0.18385 0.0
H351 H 0.19197 0.63435 0.79093 0.0
H352 H 0.21291 0.61457 0.83371 0.0
H353 H 0.16868 0.59497 0.83944 0.0
H354 H 0.23746 0.55097 0.9792 0.0
H355 H 0.13124 0.50448 -0.00637 0.0
H356 H 0.2559 0.63088 0.03355 0.0
H357 H 0.25559 0.6296 0.9307 0.0
H358 H 0.27261 0.6084 -0.01579 0.0
H359 H 0.12642 0.5744 0.04457 0.0
H360 H 0.10359 0.5351 -0.00432 0.0
H361 H 0.12499 0.57329 0.94181 0.0
C362 C 0.50882 0.17525 0.90048 0.0
C363 C 0.49445 0.17904 0.96774 0.0
C364 C 0.53535 0.16908 0.90423 0.0
C365 C 0.54834 0.16763 0.97695 0.0
C366 C 0.53286 0.16981 0.04508 0.0
C367 C 0.50577 0.17509 0.03961 0.0
C368 C 0.55064 0.166 0.83029 0.0
C369 C 0.54639 0.16907 0.12365 0.0
C370 C 0.61268 0.14017 -0.01066 0.0
C371 C 0.64224 0.1707 0.98369 0.0
C372 C 0.58171 0.1386 -0.01286 0.0
C373 C 0.58056 0.16834 0.98134 0.0
C374 C 0.61044 0.19925 0.97794 0.0
C375 C 0.64088 0.19999 0.97811 0.0
C376 C 0.55032 0.1052 -0.01097 0.0
C377 C 0.61032 0.2316 0.97359 0.0
H378 H 0.49982 0.1779 0.84482 0.0
H379 H 0.49478 0.17814 0.09174 0.0
H380 H 0.5751 0.1887 0.8215 0.0
H381 H 0.55496 0.14467 0.83335 0.0
H382 H 0.53476 0.16276 0.77949 0.0
H383 H 0.52937 0.16723 0.17066 0.0
H384 H 0.55088 0.14789 0.12844 0.0
H385 H 0.57062 0.19211 0.13214 0.0
H386 H 0.61376 0.11749 -0.00678 0.0
H387 H 0.66375 0.22366 0.97462 0.0
H388 H 0.53613 0.10145 0.93496 0.0
H389 H 0.53417 0.10416 0.03717 0.0
H390 H 0.55547 0.08448 -0.00437 0.0
H391 H 0.59834 0.23267 0.91926 0.0
H392 H 0.63576 0.25353 0.97585 0.0
H393 H 0.59563 0.23329 0.02188 0.0
C394 C 0.47018 0.61273 0.01415 0.0
C395 C 0.4679 0.64147 0.006 0.0
C396 C 0.44138 0.58117 0.0145 0.0
C397 C 0.40978 0.5786 0.0085 0.0
C398 C 0.40748 0.6077 0.00288 0.0
C399 C 0.43653 0.63866 0.00081 0.0
C400 C 0.44473 0.55063 0.01907 0.0
C401 C 0.37429 0.60619 -0.00193 0.0
C402 C 0.3315 0.50585 0.9297 0.0
C403 C 0.31302 0.49239 -0.0029 0.0
C404 C 0.36439 0.53213 0.93298 0.0
C405 C 0.37879 0.54579 0.00532 0.0
C406 C 0.36097 0.5309 0.07375 0.0
C407 C 0.32834 0.50409 0.06881 0.0
C408 C 0.38284 0.54678 0.85872 0.0
C409 C 0.3752 0.545 0.15196 0.0
H410 H 0.49445 0.61488 0.01796 0.0
H411 H 0.43464 0.66087 -0.00439 0.0
H412 H 0.42953 0.53446 0.06711 0.0
H413 H 0.43518 0.53605 0.96522 0.0
H414 H 0.47091 0.55685 0.02743 0.0
H415 H 0.37684 0.63121 -0.00134 0.0
H416 H 0.36131 0.59339 0.94432 0.0
H417 H 0.35829 0.59168 0.04706 0.0
H418 H 0.31988 0.49655 0.87415 0.0
H419 H 0.31413 0.49376 0.12111 0.0
H420 H 0.40875 0.5518 0.86285 0.0
H421 H 0.38396 0.57079 0.84759 0.0
H422 H 0.37054 0.53017 0.8088 0.0
H423 H 0.40127 0.55058 0.15658 0.0
H424 H 0.3605 0.52784 0.19928 0.0
H425 H 0.37529 0.56868 0.16003 0.0
C426 C 0.78398 0.4389 0.97116 0.0
C427 C 0.81364 0.46913 0.98001 0.0
C428 C 0.7835 0.40869 0.97582 0.0
C429 C 0.81361 0.40868 -0.01248 0.0
C430 C 0.84374 0.43913 -0.00379 0.0
C431 C 0.84333 0.46911 -0.00651 0.0
C432 C 0.7507 0.37675 0.96814 0.0
C433 C 0.87638 0.44002 0.00682 0.0
C434 C 0.80215 0.32667 0.0587 0.0
C435 C 0.80032 0.3107 -0.011 0.0
C436 C 0.80805 0.35931 0.05955 0.0
C437 C 0.8131 0.37654 -0.01088 0.0
C438 C 0.81354 0.36125 0.91907 0.0
C439 C 0.80663 0.32829 0.91974 0.0
C440 C 0.80659 0.37446 0.13522 0.0
C441 C 0.81967 0.3791 0.84299 0.0
H442 H 0.76091 0.43884 0.96173 0.0
H443 H 0.86629 0.49252 5e-05 0.0
H444 H 0.75099 0.36305 0.91622 0.0
H445 H 0.74666 0.36055 0.01866 0.0
H446 H 0.72936 0.3811 0.96346 0.0
H447 H 0.89756 0.46572 0.01331 0.0
H448 H 0.87531 0.42546 0.05838 0.0
H449 H 0.88116 0.42834 0.9565 0.0
H450 H 0.79714 0.31303 0.1123 0.0
H451 H 0.80562 0.31608 0.86586 0.0
H452 H 0.784 0.37681 0.13654 0.0
H453 H 0.82832 0.39976 0.14156 0.0
H454 H 0.80582 0.35924 0.18529 0.0
H455 H 0.79788 0.38164 0.82783 0.0
H456 H 0.82391 0.36564 0.79561 0.0
H457 H 0.84151 0.40447 0.84712 0.0
C458 C 0.36153 0.83322 0.06267 0.0
C459 C 0.34817 0.83367 -0.00931 0.0
C460 C 0.39042 0.83097 0.06813 0.0
C461 C 0.40667 0.83018 -9e-05 0.0
C462 C 0.39485 0.8337 0.92739 0.0
C463 C 0.36532 0.83477 0.92357 0.0
C464 C 0.40176 0.82646 0.14641 0.0
C465 C 0.4121 0.83406 0.85351 0.0
C466 C 0.49052 0.83496 0.01405 0.0
C467 C 0.48125 0.80159 0.00387 0.0
C468 C 0.46655 0.84489 0.01261 0.0
C469 C 0.43264 0.82064 0.0034 0.0
C470 C 0.42321 0.78678 -0.00456 0.0
C471 C 0.44771 0.77776 -0.00552 0.0
C472 C 0.47753 0.88128 0.0189 0.0
C473 C 0.38722 0.76001 -0.01243 0.0
H474 H 0.34807 0.83214 0.11455 0.0
H475 H 0.35507 0.83544 0.86793 0.0
H476 H 0.39597 0.80038 0.15263 0.0
H477 H 0.429 0.84255 0.1528 0.0
H478 H 0.3893 0.83206 0.19382 0.0
H479 H 0.40325 0.84259 0.80384 0.0
H480 H 0.43938 0.85044 0.8591 0.0
H481 H 0.40727 0.80867 0.84091 0.0
H482 H 0.51656 0.85336 0.02084 0.0
H483 H 0.44059 0.75189 -0.01252 0.0
H484 H 0.46459 0.88552 0.06734 0.0
H485 H 0.47065 0.88956 0.96556 0.0
H486 H 0.50476 0.8969 0.02775 0.0
H487 H 0.37244 0.76166 0.0357 0.0
H488 H 0.384 0.73471 -0.01273 0.0
H489 H 0.37682 0.76354 0.93324 0.0
C490 C 0.65858 0.47307 0.90097 0.0
C491 C 0.67532 0.48436 0.97125 0.0
C492 C 0.62579 0.44669 0.89855 0.0
C493 C 0.60984 0.43077 0.96794 0.0
C494 C 0.6262 0.4429 0.03931 0.0
C495 C 0.65871 0.46989 0.04015 0.0
C496 C 0.6088 0.4349 0.82151 0.0
C497 C 0.61021 0.42609 0.11433 0.0
C498 C 0.51736 0.36862 0.96871 0.0
C499 C 0.51737 0.33882 0.95764 0.0
C500 C 0.54733 0.39899 0.97147 0.0
C501 C 0.57777 0.39921 0.96504 0.0
C502 C 0.57783 0.36909 0.95511 0.0
C503 C 0.5476 0.33932 0.95059 0.0
C504 C 0.54646 0.43078 0.98029 0.0
C505 C 0.60984 0.36827 0.94962 0.0
H506 H 0.67129 0.48458 0.8477 0.0
H507 H 0.6717 0.47859 0.09453 0.0
H508 H 0.60635 0.41055 0.80738 0.0
H509 H 0.58338 0.43136 0.82358 0.0
H510 H 0.62283 0.45258 0.77442 0.0
H511 H 0.62499 0.44036 0.16511 0.0
H512 H 0.58491 0.42266 0.11906 0.0
H513 H 0.60762 0.40108 0.116 0.0
H514 H 0.49394 0.36822 0.9738 0.0
H515 H 0.54766 0.31624 0.94293 0.0
H516 H 0.55908 0.44737 0.93062 0.0
H517 H 0.56017 0.44412 0.03289 0.0
H518 H 0.5207 0.42633 0.98397 0.0
H519 H 0.62416 0.38248 0.89845 0.0
H520 H 0.60548 0.34259 0.9451 0.0
H521 H 0.62548 0.38024 0.00105 0.0
C522 C 0.19333 0.44265 0.64888 0.0
C523 C 0.17592 0.41311 0.69106 0.0
C524 C 0.19081 0.44272 0.56852 0.0
C525 C 0.17041 0.41253 0.52947 0.0
C526 C 0.15186 0.38283 0.57173 0.0
C527 C 0.15486 0.38346 0.65211 0.0
C528 C 0.21095 0.4749 0.52524 0.0
C529 C 0.12981 0.35019 0.53185 0.0
C530 C 0.15035 0.41712 0.31942 0.0
C531 C 0.17444 0.4124 0.28224 0.0
C532 C 0.14834 0.41677 0.40011 0.0
C533 C 0.17095 0.41161 0.44423 0.0
C534 C 0.19497 0.40638 0.40705 0.0
C535 C 0.1964 0.40682 0.32662 0.0
C536 C 0.12238 0.42235 0.43816 0.0
C537 C 0.21951 0.40077 0.45226 0.0
H538 H 0.20946 0.46574 0.67845 0.0
H539 H 0.14111 0.36056 0.68423 0.0
H540 H 0.23014 0.47356 0.49005 0.0
H541 H 0.19481 0.47905 0.48513 0.0
H542 H 0.22353 0.49658 0.56444 0.0
H543 H 0.1148 0.32995 0.57327 0.0
H544 H 0.11275 0.35265 0.49124 0.0
H545 H 0.14529 0.34295 0.4976 0.0
H546 H 0.13325 0.42138 0.28559 0.0
H547 H 0.21504 0.40303 0.29858 0.0
H548 H 0.13463 0.44523 0.47359 0.0
H549 H 0.1069 0.40147 0.47754 0.0
H550 H 0.10588 0.42479 0.39561 0.0
H551 H 0.23504 0.42268 0.48896 0.0
H552 H 0.23615 0.39636 0.41442 0.0
H553 H 0.20611 0.37911 0.49108 0.0
C554 C 0.76648 0.15803 0.6517 0.0
C555 C 0.75319 0.17498 0.69126 0.0
C556 C 0.76431 0.15509 0.57126 0.0
C557 C 0.7485 0.16945 0.52966 0.0
C558 C 0.73403 0.18556 0.56937 0.0
C559 C 0.73656 0.18815 0.64969 0.0
C560 C 0.77997 0.13768 0.53064 0.0
C561 C 0.71694 0.20116 0.52682 0.0
C562 C 0.7772 0.19918 0.32672 0.0
C563 C 0.75146 0.17443 0.28246 0.0
C564 C 0.77666 0.19751 0.40712 0.0
C565 C 0.74973 0.1704 0.44441 0.0
C566 C 0.72383 0.14508 0.40041 0.0
C567 C 0.72497 0.14741 0.31975 0.0
C568 C 0.80473 0.22505 0.45219 0.0
C569 C 0.69479 0.11579 0.43858 0.0
H570 H 0.77916 0.14757 0.68335 0.0
H571 H 0.72593 0.20103 0.67973 0.0
H572 H 0.762 0.11881 0.4901 0.0
H573 H 0.80151 0.15591 0.49619 0.0
H574 H 0.78869 0.12532 0.57159 0.0
H575 H 0.70474 0.21049 0.56652 0.0
H576 H 0.73537 0.22224 0.49153 0.0
H577 H 0.69793 0.18295 0.48689 0.0
H578 H 0.79784 0.22015 0.2986 0.0
H579 H 0.70504 0.12813 0.28601 0.0
H580 H 0.81641 0.21467 0.49041 0.0
H581 H 0.79492 0.2375 0.48949 0.0
H582 H 0.82422 0.244 0.41424 0.0
H583 H 0.70379 0.10297 0.47718 0.0
H584 H 0.67728 0.09761 0.39608 0.0
H585 H 0.68104 0.12449 0.47485 0.0
C586 C 0.53343 0.74191 0.66262 0.0
C587 C 0.56366 0.75621 0.70273 0.0
C588 C 0.53271 0.74027 0.58208 0.0
C589 C 0.56294 0.75323 0.54106 0.0
C590 C 0.59346 0.76704 0.58112 0.0
C591 C 0.59346 0.76839 0.66156 0.0
C592 C 0.49972 0.72534 0.54083 0.0
C593 C 0.62616 0.78103 0.53897 0.0
C594 C 0.56224 0.72887 0.33296 0.0
C595 C 0.56486 0.75654 0.29429 0.0
C596 C 0.56119 0.72722 0.41352 0.0
C597 C 0.56286 0.7539 0.45601 0.0
C598 C 0.5653 0.78177 0.41745 0.0
C599 C 0.56626 0.78276 0.33699 0.0
C600 C 0.55856 0.69712 0.45316 0.0
C601 C 0.5672 0.81071 0.46121 0.0
H602 H 0.51029 0.73233 0.69403 0.0
H603 H 0.61693 0.7793 0.69208 0.0
H604 H 0.4987 0.74456 0.50508 0.0
H605 H 0.49691 0.70537 0.50139 0.0
H606 H 0.4784 0.71489 0.58137 0.0
H607 H 0.64758 0.78955 0.57892 0.0
H608 H 0.62583 0.76206 0.49984 0.0
H609 H 0.63006 0.80234 0.50284 0.0
H610 H 0.56106 0.70847 0.30036 0.0
H611 H 0.56825 0.80422 0.30763 0.0
H612 H 0.53641 0.68563 0.49113 0.0
H613 H 0.58062 0.70463 0.49027 0.0
H614 H 0.55671 0.67815 0.41159 0.0
H615 H 0.54522 0.80202 0.49916 0.0
H616 H 0.5684 0.83024 0.42234 0.0
H617 H 0.58952 0.82197 0.49871 0.0
C618 C 0.79517 0.54846 0.63711 0.0
C619 C 0.80896 0.57802 0.67965 0.0
C620 C 0.79651 0.54899 0.55665 0.0
C621 C 0.81206 0.57983 0.51785 0.0
C622 C 0.82678 0.60978 0.56023 0.0
C623 C 0.82503 0.60853 0.64082 0.0
C624 C 0.78056 0.51654 0.51313 0.0
C625 C 0.84368 0.64308 0.52039 0.0
C626 C 0.83447 0.57822 0.30908 0.0
C627 C 0.80729 0.57712 0.27109 0.0
C628 C 0.83683 0.57998 0.38955 0.0
C629 C 0.81135 0.58051 0.43275 0.0
C630 C 0.7842 0.58002 0.39482 0.0
C631 C 0.78251 0.57837 0.31438 0.0
C632 C 0.86619 0.58058 0.42838 0.0
C633 C 0.75653 0.58049 0.43928 0.0
H634 H 0.78284 0.52476 0.66657 0.0
H635 H 0.83589 0.63148 0.67326 0.0
H636 H 0.75981 0.51443 0.47737 0.0
H637 H 0.79882 0.51571 0.47353 0.0
H638 H 0.77071 0.49473 0.55214 0.0
H639 H 0.85557 0.66402 0.5618 0.0
H640 H 0.86291 0.64467 0.48009 0.0
H641 H 0.82526 0.646 0.48573 0.0
H642 H 0.85383 0.57746 0.27603 0.0
H643 H 0.76148 0.57763 0.28554 0.0
H644 H 0.85758 0.5579 0.46384 0.0
H645 H 0.87854 0.60216 0.46779 0.0
H646 H 0.88479 0.58191 0.38631 0.0
H647 H 0.74373 0.55799 0.47586 0.0
H648 H 0.73786 0.58135 0.40088 0.0
H649 H 0.76684 0.6023 0.47817 0.0
C650 C 0.24832 0.84058 0.32079 0.0
C651 C 0.2237 0.81282 0.28135 0.0
C652 C 0.24806 0.84229 0.40131 0.0
C653 C 0.2226 0.8156 0.4431 0.0
C654 C 0.19714 0.788 0.40366 0.0
C655 C 0.19798 0.78694 0.32319 0.0
C656 C 0.27558 0.87214 0.44173 0.0
C657 C 0.16958 0.75908 0.44655 0.0
C658 C 0.24073 0.79979 0.64594 0.0
C659 C 0.22414 0.81224 0.69004 0.0
C660 C 0.24075 0.80118 0.5655 0.0
C661 C 0.2238 0.81537 0.52823 0.0
C662 C 0.20735 0.82838 0.57213 0.0
C663 C 0.20769 0.82664 0.65271 0.0
C664 C 0.25859 0.78706 0.52037 0.0
C665 C 0.18911 0.84377 0.53397 0.0
H666 H 0.26819 0.86078 0.28892 0.0
H667 H 0.17874 0.76547 0.29323 0.0
H668 H 0.26502 0.88273 0.48252 0.0
H669 H 0.29081 0.86451 0.4759 0.0
H670 H 0.29212 0.89183 0.40071 0.0
H671 H 0.15056 0.74048 0.40712 0.0
H672 H 0.18011 0.74662 0.48158 0.0
H673 H 0.1572 0.76796 0.48678 0.0
H674 H 0.2536 0.7887 0.67419 0.0
H675 H 0.19491 0.83642 0.68635 0.0
H676 H 0.27739 0.80633 0.48191 0.0
H677 H 0.24064 0.76643 0.4833 0.0
H678 H 0.27123 0.77757 0.55829 0.0
H679 H 0.20615 0.86422 0.49527 0.0
H680 H 0.17849 0.85372 0.57645 0.0
H681 H 0.16864 0.82501 0.49781 0.0
C682 C 0.441 0.24404 0.62064 0.0
C683 C 0.41116 0.23048 0.66217 0.0
C684 C 0.44123 0.24685 0.54035 0.0
C685 C 0.4109 0.23585 0.50075 0.0
C686 C 0.38085 0.2232 0.54235 0.0
C687 C 0.38132 0.22062 0.62268 0.0
C688 C 0.47377 0.26044 0.49771 0.0
C689 C 0.34806 0.21131 0.50182 0.0
C690 C 0.41469 0.26057 0.29114 0.0
C691 C 0.4113 0.23236 0.25367 0.0
C692 C 0.41425 0.26203 0.37183 0.0
C693 C 0.41033 0.23465 0.41557 0.0
C694 C 0.40654 0.20603 0.37809 0.0
C695 C 0.40708 0.20524 0.2977 0.0
C696 C 0.41833 0.29292 0.41027 0.0
C697 C 0.40226 0.1763 0.42293 0.0
H698 H 0.46422 0.25196 0.65067 0.0
H699 H 0.35818 0.21039 0.65433 0.0
H700 H 0.47358 0.24052 0.4623 0.0
H701 H 0.47712 0.28051 0.45788 0.0
H702 H 0.49541 0.27034 0.53736 0.0
H703 H 0.3274 0.20491 0.54284 0.0
H704 H 0.34972 0.23061 0.46163 0.0
H705 H 0.34194 0.189 0.46701 0.0
H706 H 0.41791 0.2816 0.25754 0.0
H707 H 0.40431 0.18326 0.2694 0.0
H708 H 0.44106 0.30427 0.4464 0.0
H709 H 0.397 0.28647 0.44905 0.0
H710 H 0.42016 0.31166 0.36795 0.0
H711 H 0.42427 0.18362 0.46013 0.0
H712 H 0.39903 0.15574 0.38483 0.0
H713 H 0.3803 0.16691 0.46124 0.0
loop_
_geom_bond_atom_site_label_1
_geom_bond_atom_site_label_2
_geom_bond_distance
_geom_bond_site_symmetry_2
_ccdc_geom_bond_type
O0 Zn1 1.953 . S
O0 C16 1.225 . S
Zn1 O0 1.953 . S
Zn1 O2 1.949 1_556 S
Zn1 O8 1.919 . S
Zn1 O13 1.924 . S
O2 Zn1 1.949 1_554 S
O2 Zn3 1.923 1_554 S
O2 Zn4 1.950 . S
O2 Zn5 1.945 . S
Zn3 O2 1.923 1_556 S
Zn3 O6 1.933 . S
Zn3 O9 1.941 . S
Zn3 O10 1.965 . S
Zn4 O2 1.950 . S
Zn4 O11 1.938 . S
Zn4 O12 1.906 . S
Zn4 O22 1.953 . S
Zn5 O2 1.945 . S
Zn5 O7 1.932 . S
Zn5 O14 1.977 . S
Zn5 O15 1.910 . S
O6 Zn3 1.933 . S
O6 C17 1.230 . S
O7 Zn5 1.932 . S
O7 C17 1.303 1_554 S
O8 Zn1 1.919 . S
O8 C19 1.253 . S
O9 Zn3 1.941 . S
O9 C19 1.283 . S
O10 Zn3 1.965 . S
O10 C18 1.303 1_556 S
O11 Zn4 1.938 . S
O11 C18 1.247 . S
O12 Zn4 1.906 . S
O12 C20 1.304 . S
O13 Zn1 1.924 . S
O13 C21 1.311 . S
O14 Zn5 1.977 . S
O14 C20 1.272 . S
O15 Zn5 1.910 . S
O15 C21 1.231 1_554 S
C16 O0 1.225 . S
C16 O22 1.298 1_556 S
C17 O6 1.230 . S
C17 O7 1.303 1_556 S
C18 O10 1.303 1_554 S
C18 O11 1.247 . S
C19 O8 1.253 . S
C19 O9 1.283 . S
C20 O12 1.304 . S
C20 O14 1.272 . S
C21 O13 1.311 . S
C21 O15 1.231 1_556 S
O22 Zn4 1.953 . S
O22 C16 1.298 1_554 S
O23 Zn24 1.953 . S
O23 C39 1.225 . S
Zn24 O23 1.953 . S
Zn24 O25 1.949 1_556 S
Zn24 O31 1.919 . S
Zn24 O36 1.924 . S
O25 Zn24 1.949 1_554 S
O25 Zn26 1.923 1_554 S
O25 Zn27 1.950 . S
O25 Zn28 1.945 . S
Zn26 O25 1.923 1_556 S
Zn26 O29 1.933 . S
Zn26 O32 1.941 . S
Zn26 O33 1.965 . S
Zn27 O25 1.950 . S
Zn27 O34 1.938 . S
Zn27 O35 1.906 . S
Zn27 O45 1.953 . S
Zn28 O25 1.945 . S
Zn28 O30 1.932 . S
Zn28 O37 1.977 . S
Zn28 O38 1.910 . S
O29 Zn26 1.933 . S
O29 C40 1.230 . S
O30 Zn28 1.932 . S
O30 C40 1.303 1_554 S
O31 Zn24 1.919 . S
O31 C42 1.253 . S
O32 Zn26 1.941 . S
O32 C42 1.283 . S
O33 Zn26 1.965 . S
O33 C41 1.303 1_556 S
O34 Zn27 1.938 . S
O34 C41 1.247 . S
O35 Zn27 1.906 . S
O35 C43 1.304 . S
O36 Zn24 1.924 . S
O36 C44 1.311 . S
O37 Zn28 1.977 . S
O37 C43 1.272 . S
O38 Zn28 1.910 . S
O38 C44 1.231 1_554 S
C39 O23 1.225 . S
C39 O45 1.298 1_556 S
C40 O29 1.230 . S
C40 O30 1.303 1_556 S
C41 O33 1.303 1_554 S
C41 O34 1.247 . S
C42 O31 1.253 . S
C42 O32 1.283 . S
C43 O35 1.304 . S
C43 O37 1.272 . S
C44 O36 1.311 . S
C44 O38 1.231 1_556 S
O45 Zn27 1.953 . S
O45 C39 1.298 1_554 S
O46 Zn47 1.953 . S
O46 C62 1.225 . S
Zn47 O46 1.953 . S
Zn47 O48 1.949 1_556 S
Zn47 O54 1.919 . S
Zn47 O59 1.924 . S
O48 Zn47 1.949 1_554 S
O48 Zn49 1.923 1_554 S
O48 Zn50 1.950 . S
O48 Zn51 1.945 . S
Zn49 O48 1.923 1_556 S
Zn49 O52 1.933 . S
Zn49 O55 1.941 . S
Zn49 O56 1.965 . S
Zn50 O48 1.950 . S
Zn50 O57 1.938 . S
Zn50 O58 1.906 . S
Zn50 O68 1.953 . S
Zn51 O48 1.945 . S
Zn51 O53 1.932 . S
Zn51 O60 1.977 . S
Zn51 O61 1.910 . S
O52 Zn49 1.933 . S
O52 C63 1.230 . S
O53 Zn51 1.932 . S
O53 C63 1.303 1_554 S
O54 Zn47 1.919 . S
O54 C65 1.253 . S
O55 Zn49 1.941 . S
O55 C65 1.283 . S
O56 Zn49 1.965 . S
O56 C64 1.303 1_556 S
O57 Zn50 1.938 . S
O57 C64 1.247 . S
O58 Zn50 1.906 . S
O58 C66 1.304 . S
O59 Zn47 1.924 . S
O59 C67 1.311 . S
O60 Zn51 1.977 . S
O60 C66 1.272 . S
O61 Zn51 1.910 . S
O61 C67 1.231 1_554 S
C62 O46 1.225 . S
C62 O68 1.298 1_556 S
C63 O52 1.230 . S
C63 O53 1.303 1_556 S
C64 O56 1.303 1_554 S
C64 O57 1.247 . S
C65 O54 1.253 . S
C65 O55 1.283 . S
C66 O58 1.304 . S
C66 O60 1.272 . S
C67 O59 1.311 . S
C67 O61 1.231 1_556 S
O68 Zn50 1.953 . S
O68 C62 1.298 1_554 S
O69 Zn70 1.953 . S
O69 C85 1.225 . S
Zn70 O69 1.953 . S
Zn70 O71 1.949 1_556 S
Zn70 O77 1.919 . S
Zn70 O82 1.924 . S
O71 Zn70 1.949 1_554 S
O71 Zn72 1.923 1_554 S
O71 Zn73 1.950 . S
O71 Zn74 1.945 . S
Zn72 O71 1.923 1_556 S
Zn72 O75 1.933 . S
Zn72 O78 1.941 . S
Zn72 O79 1.965 . S
Zn73 O71 1.950 . S
Zn73 O80 1.938 . S
Zn73 O81 1.906 . S
Zn73 O91 1.953 . S
Zn74 O71 1.945 . S
Zn74 O76 1.932 . S
Zn74 O83 1.977 . S
Zn74 O84 1.910 . S
O75 Zn72 1.933 . S
O75 C86 1.230 . S
O76 Zn74 1.932 . S
O76 C86 1.303 1_554 S
O77 Zn70 1.919 . S
O77 C88 1.253 . S
O78 Zn72 1.941 . S
O78 C88 1.283 . S
O79 Zn72 1.965 . S
O79 C87 1.303 1_556 S
O80 Zn73 1.938 . S
O80 C87 1.247 . S
O81 Zn73 1.906 . S
O81 C89 1.304 . S
O82 Zn70 1.924 . S
O82 C90 1.311 . S
O83 Zn74 1.977 . S
O83 C89 1.272 . S
O84 Zn74 1.910 . S
O84 C90 1.231 1_554 S
C85 O69 1.225 . S
C85 O91 1.298 1_556 S
C86 O75 1.230 . S
C86 O76 1.303 1_556 S
C87 O79 1.303 1_554 S
C87 O80 1.247 . S
C88 O77 1.253 . S
C88 O78 1.283 . S
C89 O81 1.304 . S
C89 O83 1.272 . S
C90 O82 1.311 . S
C90 O84 1.231 1_556 S
O91 Zn73 1.953 . S
O91 C85 1.298 1_554 S
O92 Zn93 1.953 . S
O92 C108 1.225 . S
Zn93 O92 1.953 . S
Zn93 O94 1.949 1_556 S
Zn93 O100 1.919 . S
Zn93 O105 1.924 . S
O94 Zn93 1.949 1_554 S
O94 Zn95 1.923 1_554 S
O94 Zn96 1.950 . S
O94 Zn97 1.945 . S
Zn95 O94 1.923 1_556 S
Zn95 O98 1.933 . S
Zn95 O101 1.941 . S
Zn95 O102 1.965 . S
Zn96 O94 1.950 . S
Zn96 O103 1.938 . S
Zn96 O104 1.906 . S
Zn96 O114 1.953 . S
Zn97 O94 1.945 . S
Zn97 O99 1.932 . S
Zn97 O106 1.977 . S
Zn97 O107 1.910 . S
O98 Zn95 1.933 . S
O98 C109 1.230 . S
O99 Zn97 1.932 . S
O99 C109 1.303 1_554 S
O100 Zn93 1.919 . S
O100 C111 1.253 . S
O101 Zn95 1.941 . S
O101 C111 1.283 . S
O102 Zn95 1.965 . S
O102 C110 1.303 1_556 S
O103 Zn96 1.938 . S
O103 C110 1.247 . S
O104 Zn96 1.906 . S
O104 C112 1.304 . S
O105 Zn93 1.924 . S
O105 C113 1.311 . S
O106 Zn97 1.977 . S
O106 C112 1.272 . S
O107 Zn97 1.910 . S
O107 C113 1.231 1_554 S
C108 O92 1.225 . S
C108 O114 1.298 1_556 S
C109 O98 1.230 . S
C109 O99 1.303 1_556 S
C110 O102 1.303 1_554 S
C110 O103 1.247 . S
C111 O100 1.253 . S
C111 O101 1.283 . S
C112 O104 1.304 . S
C112 O106 1.272 . S
C113 O105 1.311 . S
C113 O107 1.231 1_556 S
O114 Zn96 1.953 . S
O114 C108 1.298 1_554 S
O115 Zn116 1.953 . S
O115 C131 1.225 . S
Zn116 O115 1.953 . S
Zn116 O117 1.949 1_556 S
Zn116 O123 1.919 . S
Zn116 O128 1.924 . S
O117 Zn116 1.949 1_554 S
O117 Zn118 1.923 1_554 S
O117 Zn119 1.950 . S
O117 Zn120 1.945 . S
Zn118 O117 1.923 1_556 S
Zn118 O121 1.933 . S
Zn118 O124 1.941 . S
Zn118 O125 1.965 . S
Zn119 O117 1.950 . S
Zn119 O126 1.938 . S
Zn119 O127 1.906 . S
Zn119 O137 1.953 . S
Zn120 O117 1.945 . S
Zn120 O122 1.932 . S
Zn120 O129 1.977 . S
Zn120 O130 1.910 . S
O121 Zn118 1.933 . S
O121 C132 1.230 . S
O122 Zn120 1.932 . S
O122 C132 1.303 1_554 S
O123 Zn116 1.919 . S
O123 C134 1.253 . S
O124 Zn118 1.941 . S
O124 C134 1.283 . S
O125 Zn118 1.965 . S
O125 C133 1.303 1_556 S
O126 Zn119 1.938 . S
O126 C133 1.247 . S
O127 Zn119 1.906 . S
O127 C135 1.304 . S
O128 Zn116 1.924 . S
O128 C136 1.311 . S
O129 Zn120 1.977 . S
O129 C135 1.272 . S
O130 Zn120 1.910 . S
O130 C136 1.231 1_554 S
C131 O115 1.225 . S
C131 O137 1.298 1_556 S
C132 O121 1.230 . S
C132 O122 1.303 1_556 S
C133 O125 1.303 1_554 S
C133 O126 1.247 . S
C134 O123 1.253 . S
C134 O124 1.283 . S
C135 O127 1.304 . S
C135 O129 1.272 . S
C136 O128 1.311 . S
C136 O130 1.231 1_556 S
O137 Zn119 1.953 . S
O137 C131 1.298 1_554 S
C138 C139 1.391 . S
C138 C140 1.394 . S
C138 H154 0.931 . S
C139 C138 1.391 . S
C139 C143 1.376 1_556 S
C140 C138 1.394 . S
C140 C141 1.369 . S
C140 C144 1.531 . S
C141 C140 1.369 . S
C141 C142 1.410 1_556 S
C141 C149 1.503 . S
C142 C141 1.410 1_554 S
C142 C143 1.392 . S
C142 C145 1.511 . S
C143 C139 1.376 1_554 S
C143 C142 1.392 . S
C143 H155 0.929 . S
C144 C140 1.531 . S
C144 H156 0.960 . S
C144 H157 0.962 . S
C144 H158 0.960 . S
C145 C142 1.511 . S
C145 H159 0.961 . S
C145 H160 0.961 . S
C145 H161 0.961 . S
C146 C147 1.370 1_554 S
C146 C148 1.363 . S
C146 H162 0.931 . S
C147 C146 1.370 1_556 S
C147 C151 1.408 . S
C148 C146 1.363 . S
C148 C149 1.370 1_554 S
C148 C152 1.524 . S
C149 C141 1.503 . S
C149 C148 1.370 1_556 S
C149 C150 1.403 . S
C150 C149 1.403 . S
C150 C151 1.404 . S
C150 C153 1.539 . S
C151 C147 1.408 . S
C151 C150 1.404 . S
C151 H163 0.930 . S
C152 C148 1.524 . S
C152 H164 0.956 . S
C152 H165 0.961 . S
C152 H166 0.961 . S
C153 C150 1.539 . S
C153 H167 0.958 . S
C153 H168 0.961 . S
C153 H169 0.960 . S
H154 C138 0.931 . S
H155 C143 0.929 . S
H156 C144 0.960 . S
H157 C144 0.962 . S
H158 C144 0.960 . S
H159 C145 0.961 . S
H160 C145 0.961 . S
H161 C145 0.961 . S
H162 C146 0.931 . S
H163 C151 0.930 . S
H164 C152 0.956 . S
H165 C152 0.961 . S
H166 C152 0.961 . S
H167 C153 0.958 . S
H168 C153 0.961 . S
H169 C153 0.960 . S
C170 C171 1.391 1_556 S
C170 C172 1.393 1_556 S
C170 H186 0.931 . S
C171 C170 1.391 1_554 S
C171 C175 1.376 . S
C172 C170 1.393 1_554 S
C172 C173 1.347 1_455 S
C172 C176 1.530 1_454 S
C173 C172 1.347 1_655 S
C173 C174 1.411 1_655 S
C173 C181 1.526 . S
C174 C173 1.411 1_455 S
C174 C175 1.392 . S
C174 C177 1.511 1_455 S
C175 C171 1.376 . S
C175 C174 1.392 . S
C175 H187 0.929 . S
C176 C172 1.530 1_656 S
C176 H188 0.968 1_556 S
C176 H189 0.963 . S
C176 H190 0.951 1_656 S
C177 C174 1.511 1_655 S
C177 H191 0.961 1_655 S
C177 H192 0.961 . S
C177 H193 0.961 . S
C178 C179 1.370 . S
C178 C180 1.363 . S
C178 H194 0.931 . S
C179 C178 1.370 . S
C179 C183 1.408 1_556 S
C180 C178 1.363 . S
C180 C181 1.370 1_556 S
C180 C184 1.524 . S
C181 C173 1.526 . S
C181 C180 1.370 1_554 S
C181 C182 1.403 . S
C182 C181 1.403 . S
C182 C183 1.404 . S
C182 C185 1.539 . S
C183 C179 1.408 1_554 S
C183 C182 1.404 . S
C183 H195 0.930 . S
C184 C180 1.524 . S
C184 H196 0.956 . S
C184 H197 0.961 . S
C184 H198 0.961 . S
C185 C182 1.539 . S
C185 H199 0.958 . S
C185 H200 0.961 . S
C185 H201 0.960 . S
H186 C170 0.931 . S
H187 C175 0.929 . S
H188 C176 0.968 1_554 S
H189 C176 0.963 . S
H190 C176 0.951 1_454 S
H191 C177 0.961 1_455 S
H192 C177 0.961 . S
H193 C177 0.961 . S
H194 C178 0.931 . S
H195 C183 0.930 . S
H196 C184 0.956 . S
H197 C184 0.961 . S
H198 C184 0.961 . S
H199 C185 0.958 . S
H200 C185 0.961 . S
H201 C185 0.960 . S
C202 C203 1.391 . S
C202 C204 1.394 . S
C202 H218 0.931 . S
C203 C202 1.391 . S
C203 C207 1.376 . S
C204 C202 1.394 . S
C204 C205 1.347 1_545 S
C204 C208 1.531 1_545 S
C205 C204 1.347 1_565 S
C205 C206 1.409 1_565 S
C205 C213 1.526 . S
C206 C205 1.409 1_545 S
C206 C207 1.392 . S
C206 C209 1.514 . S
C207 C203 1.376 . S
C207 C206 1.392 . S
C207 H219 0.929 . S
C208 C204 1.531 1_565 S
C208 H220 0.960 . S
C208 H221 0.962 1_556 S
C208 H222 0.960 1_565 S
C209 C206 1.514 . S
C209 H223 0.961 1_556 S
C209 H224 0.958 1_546 S
C209 H225 0.960 1_545 S
C210 C211 1.370 1_554 S
C210 C212 1.363 . S
C210 H226 0.931 . S
C211 C210 1.370 1_556 S
C211 C215 1.408 . S
C212 C210 1.363 . S
C212 C213 1.370 1_554 S
C212 C216 1.524 . S
C213 C205 1.526 . S
C213 C212 1.370 1_556 S
C213 C214 1.403 . S
C214 C213 1.403 . S
C214 C215 1.404 . S
C214 C217 1.539 . S
C215 C211 1.408 . S
C215 C214 1.404 . S
C215 H227 0.930 . S
C216 C212 1.524 . S
C216 H228 0.956 . S
C216 H229 0.961 . S
C216 H230 0.961 . S
C217 C214 1.539 . S
C217 H231 0.958 . S
C217 H232 0.961 . S
C217 H233 0.960 . S
H218 C202 0.931 . S
H219 C207 0.929 . S
H220 C208 0.960 . S
H221 C208 0.962 1_554 S
H222 C208 0.960 1_545 S
H223 C209 0.961 1_554 S
H224 C209 0.958 1_564 S
H225 C209 0.960 1_565 S
H226 C210 0.931 . S
H227 C215 0.930 . S
H228 C216 0.956 . S
H229 C216 0.961 . S
H230 C216 0.961 . S
H231 C217 0.958 . S
H232 C217 0.961 . S
H233 C217 0.960 . S
C234 C235 1.391 . S
C234 C236 1.394 . S
C234 H250 0.931 1_556 S
C235 C234 1.391 . S
C235 C239 1.376 . S
C236 C234 1.394 . S
C236 C237 1.369 . S
C236 C240 1.531 1_556 S
C237 C236 1.369 . S
C237 C238 1.410 . S
C237 C245 1.503 . S
C238 C237 1.410 . S
C238 C239 1.392 . S
C238 C241 1.511 . S
C239 C235 1.376 . S
C239 C238 1.392 . S
C239 H251 0.929 . S
C240 C236 1.531 1_554 S
C240 H252 0.960 1_554 S
C240 H253 0.962 . S
C240 H254 0.960 1_554 S
C241 C238 1.511 . S
C241 H255 0.961 . S
C241 H256 0.961 . S
C241 H257 0.961 . S
C242 C243 1.370 1_554 S
C242 C244 1.363 . S
C242 H258 0.931 . S
C243 C242 1.370 1_556 S
C243 C247 1.408 . S
C244 C242 1.363 . S
C244 C245 1.370 1_554 S
C244 C248 1.524 . S
C245 C237 1.503 . S
C245 C244 1.370 1_556 S
C245 C246 1.403 . S
C246 C245 1.403 . S
C246 C247 1.404 . S
C246 C249 1.539 . S
C247 C243 1.408 . S
C247 C246 1.404 . S
C247 H259 0.930 . S
C248 C244 1.524 . S
C248 H260 0.956 . S
C248 H261 0.961 . S
C248 H262 0.961 . S
C249 C246 1.539 . S
C249 H263 0.958 . S
C249 H264 0.961 . S
C249 H265 0.960 . S
H250 C234 0.931 1_554 S
H251 C239 0.929 . S
H252 C240 0.960 1_556 S
H253 C240 0.962 . S
H254 C240 0.960 1_556 S
H255 C241 0.961 . S
H256 C241 0.961 . S
H257 C241 0.961 . S
H258 C242 0.931 . S
H259 C247 0.930 . S
H260 C248 0.956 . S
H261 C248 0.961 . S
H262 C248 0.961 . S
H263 C249 0.958 . S
H264 C249 0.961 . S
H265 C249 0.960 . S
C266 C267 1.391 . S
C266 C268 1.394 . S
C266 H282 0.931 . S
C267 C266 1.391 . S
C267 C271 1.376 . S
C268 C266 1.394 . S
C268 C269 1.369 . S
C268 C272 1.531 . S
C269 C268 1.369 . S
C269 C270 1.410 . S
C269 C277 1.527 . S
C270 C269 1.410 . S
C270 C271 1.392 . S
C270 C273 1.511 . S
C271 C267 1.376 . S
C271 C270 1.392 . S
C271 H283 0.929 . S
C272 C268 1.531 . S
C272 H284 0.960 . S
C272 H285 0.962 1_556 S
C272 H286 0.960 . S
C273 C270 1.511 . S
C273 H287 0.961 1_556 S
C273 H288 0.961 1_556 S
C273 H289 0.961 . S
C274 C275 1.370 1_554 S
C274 C276 1.363 . S
C274 H290 0.931 . S
C275 C274 1.370 1_556 S
C275 C279 1.408 . S
C276 C274 1.363 . S
C276 C277 1.360 1_654 S
C276 C280 1.524 1_655 S
C277 C269 1.527 . S
C277 C276 1.360 1_456 S
C277 C278 1.390 1_455 S
C278 C277 1.390 1_655 S
C278 C279 1.404 . S
C278 C281 1.539 . S
C279 C275 1.408 . S
C279 C278 1.404 . S
C279 H291 0.930 . S
C280 C276 1.524 1_455 S
C280 H292 0.956 . S
C280 H293 0.961 . S
C280 H294 0.961 1_455 S
C281 C278 1.539 . S
C281 H295 0.957 . S
C281 H296 0.961 . S
C281 H297 0.960 1_655 S
H282 C266 0.931 . S
H283 C271 0.929 . S
H284 C272 0.960 . S
H285 C272 0.962 1_554 S
H286 C272 0.960 . S
H287 C273 0.961 1_554 S
H288 C273 0.961 1_554 S
H289 C273 0.961 . S
H290 C274 0.931 . S
H291 C279 0.930 . S
H292 C280 0.956 . S
H293 C280 0.961 . S
H294 C280 0.961 1_655 S
H295 C281 0.957 . S
H296 C281 0.961 . S
H297 C281 0.960 1_455 S
C298 C299 1.391 . S
C298 C300 1.394 . S
C298 H314 0.931 . S
C299 C298 1.391 . S
C299 C303 1.376 1_554 S
C300 C298 1.394 . S
C300 C301 1.364 1_565 S
C300 C304 1.531 1_565 S
C301 C300 1.364 1_545 S
C301 C302 1.384 1_544 S
C301 C309 1.535 . S
C302 C301 1.384 1_566 S
C302 C303 1.392 . S
C302 C305 1.511 1_565 S
C303 C299 1.376 1_556 S
C303 C302 1.392 . S
C303 H315 0.929 . S
C304 C300 1.531 1_545 S
C304 H316 0.960 . S
C304 H317 0.962 . S
C304 H318 0.960 1_545 S
C305 C302 1.511 1_545 S
C305 H319 0.961 1_545 S
C305 H320 0.961 . S
C305 H321 0.961 . S
C306 C307 1.370 . S
C306 C308 1.363 . S
C306 H322 0.931 . S
C307 C306 1.370 . S
C307 C311 1.408 1_556 S
C308 C306 1.363 . S
C308 C309 1.370 1_556 S
C308 C312 1.524 . S
C309 C301 1.535 . S
C309 C308 1.370 1_554 S
C309 C310 1.403 . S
C310 C309 1.403 . S
C310 C311 1.404 . S
C310 C313 1.539 . S
C311 C307 1.408 1_554 S
C311 C310 1.404 . S
C311 H323 0.930 . S
C312 C308 1.524 . S
C312 H324 0.956 . S
C312 H325 0.961 . S
C312 H326 0.961 . S
C313 C310 1.539 . S
C313 H327 0.958 . S
C313 H328 0.961 . S
C313 H329 0.960 . S
H314 C298 0.931 . S
H315 C303 0.929 . S
H316 C304 0.960 . S
H317 C304 0.962 . S
H318 C304 0.960 1_565 S
H319 C305 0.961 1_565 S
H320 C305 0.961 . S
H321 C305 0.961 . S
H322 C306 0.931 . S
H323 C311 0.930 . S
H324 C312 0.956 . S
H325 C312 0.961 . S
H326 C312 0.961 . S
H327 C313 0.958 . S
H328 C313 0.961 . S
H329 C313 0.960 . S
C330 C331 1.391 . S
C330 C332 1.394 . S
C330 H346 0.931 . S
C331 C330 1.391 . S
C331 C335 1.376 1_554 S
C332 C330 1.394 . S
C332 C333 1.369 . S
C332 C336 1.531 . S
C333 C332 1.369 . S
C333 C334 1.410 1_554 S
C333 C341 1.503 . S
C334 C333 1.410 1_556 S
C334 C335 1.392 . S
C334 C337 1.511 . S
C335 C331 1.376 1_556 S
C335 C334 1.392 . S
C335 H347 0.929 . S
C336 C332 1.531 . S
C336 H348 0.960 . S
C336 H349 0.962 . S
C336 H350 0.960 . S
C337 C334 1.511 . S
C337 H351 0.961 . S
C337 H352 0.961 . S
C337 H353 0.961 . S
C338 C339 1.370 1_556 S
C338 C340 1.363 . S
C338 H354 0.931 . S
C339 C338 1.370 1_554 S
C339 C343 1.408 . S
C340 C338 1.363 . S
C340 C341 1.370 1_556 S
C340 C344 1.524 . S
C341 C333 1.503 . S
C341 C340 1.370 1_554 S
C341 C342 1.403 . S
C342 C341 1.403 . S
C342 C343 1.404 . S
C342 C345 1.539 . S
C343 C339 1.408 . S
C343 C342 1.404 . S
C343 H355 0.930 . S
C344 C340 1.524 . S
C344 H356 0.956 . S
C344 H357 0.961 . S
C344 H358 0.961 . S
C345 C342 1.539 . S
C345 H359 0.958 . S
C345 H360 0.961 . S
C345 H361 0.960 . S
H346 C330 0.931 . S
H347 C335 0.929 . S
H348 C336 0.960 . S
H349 C336 0.962 . S
H350 C336 0.960 . S
H351 C337 0.961 . S
H352 C337 0.961 . S
H353 C337 0.961 . S
H354 C338 0.931 . S
H355 C343 0.930 . S
H356 C344 0.956 . S
H357 C344 0.961 . S
H358 C344 0.961 . S
H359 C345 0.958 . S
H360 C345 0.961 . S
H361 C345 0.960 . S
C362 C363 1.391 . S
C362 C364 1.394 . S
C362 H378 0.931 . S
C363 C362 1.391 . S
C363 C367 1.376 1_556 S
C364 C362 1.394 . S
C364 C365 1.369 . S
C364 C368 1.531 . S
C365 C364 1.369 . S
C365 C366 1.410 1_556 S
C365 C373 1.503 . S
C366 C365 1.410 1_554 S
C366 C367 1.392 . S
C366 C369 1.511 . S
C367 C363 1.376 1_554 S
C367 C366 1.392 . S
C367 H379 0.929 . S
C368 C364 1.531 . S
C368 H380 0.960 . S
C368 H381 0.962 . S
C368 H382 0.960 . S
C369 C366 1.511 . S
C369 H383 0.961 . S
C369 H384 0.961 . S
C369 H385 0.961 1_554 S
C370 C371 1.369 1_554 S
C370 C372 1.363 . S
C370 H386 0.931 . S
C371 C370 1.369 1_556 S
C371 C375 1.409 . S
C372 C370 1.363 . S
C372 C373 1.370 1_554 S
C372 C376 1.524 . S
C373 C365 1.503 . S
C373 C372 1.370 1_556 S
C373 C374 1.403 . S
C374 C373 1.403 . S
C374 C375 1.404 . S
C374 C377 1.539 . S
C375 C371 1.409 . S
C375 C374 1.404 . S
C375 H387 0.930 . S
C376 C372 1.524 . S
C376 H388 0.956 . S
C376 H389 0.961 . S
C376 H390 0.961 . S
C377 C374 1.539 . S
C377 H391 0.958 . S
C377 H392 0.961 . S
C377 H393 0.960 . S
H378 C362 0.931 . S
H379 C367 0.929 . S
H380 C368 0.960 . S
H381 C368 0.962 . S
H382 C368 0.960 . S
H383 C369 0.961 . S
H384 C369 0.961 . S
H385 C369 0.961 1_556 S
H386 C370 0.931 . S
H387 C375 0.930 . S
H388 C376 0.956 . S
H389 C376 0.961 . S
H390 C376 0.961 . S
H391 C377 0.958 . S
H392 C377 0.961 . S
H393 C377 0.960 . S
C394 C395 1.391 . S
C394 C396 1.394 . S
C394 H410 0.931 . S
C395 C394 1.391 . S
C395 C399 1.376 1_554 S
C396 C394 1.394 . S
C396 C397 1.369 . S
C396 C400 1.531 . S
C397 C396 1.369 . S
C397 C398 1.410 1_554 S
C397 C405 1.503 . S
C398 C397 1.410 1_556 S
C398 C399 1.392 . S
C398 C401 1.511 . S
C399 C395 1.376 1_556 S
C399 C398 1.392 . S
C399 H411 0.929 . S
C400 C396 1.531 . S
C400 H412 0.960 . S
C400 H413 0.962 . S
C400 H414 0.960 . S
C401 C398 1.511 . S
C401 H415 0.961 . S
C401 H416 0.961 . S
C401 H417 0.961 . S
C402 C403 1.367 1_556 S
C402 C404 1.363 . S
C402 H418 0.931 . S
C403 C402 1.367 1_554 S
C403 C407 1.412 . S
C404 C402 1.363 . S
C404 C405 1.370 1_556 S
C404 C408 1.524 . S
C405 C397 1.503 . S
C405 C404 1.370 1_554 S
C405 C406 1.403 . S
C406 C405 1.403 . S
C406 C407 1.404 . S
C406 C409 1.539 . S
C407 C403 1.412 . S
C407 C406 1.404 . S
C407 H419 0.930 . S
C408 C404 1.524 . S
C408 H420 0.956 . S
C408 H421 0.961 . S
C408 H422 0.961 . S
C409 C406 1.539 . S
C409 H423 0.958 . S
C409 H424 0.961 . S
C409 H425 0.960 . S
H410 C394 0.931 . S
H411 C399 0.929 . S
H412 C400 0.960 . S
H413 C400 0.962 . S
H414 C400 0.960 . S
H415 C401 0.961 . S
H416 C401 0.961 . S
H417 C401 0.961 . S
H418 C402 0.931 . S
H419 C407 0.930 . S
H420 C408 0.956 . S
H421 C408 0.961 . S
H422 C408 0.961 . S
H423 C409 0.958 . S
H424 C409 0.961 . S
H425 C409 0.960 . S
C426 C427 1.391 . S
C426 C428 1.394 . S
C426 H442 0.931 . S
C427 C426 1.391 . S
C427 C431 1.376 1_556 S
C428 C426 1.394 . S
C428 C429 1.369 . S
C428 C432 1.531 . S
C429 C428 1.369 . S
C429 C430 1.410 1_556 S
C429 C437 1.503 . S
C430 C429 1.410 1_554 S
C430 C431 1.392 . S
C430 C433 1.511 . S
C431 C427 1.376 1_554 S
C431 C430 1.392 . S
C431 H443 0.929 . S
C432 C428 1.531 . S
C432 H444 0.960 . S
C432 H445 0.962 . S
C432 H446 0.960 . S
C433 C430 1.511 . S
C433 H447 0.961 . S
C433 H448 0.961 . S
C433 H449 0.961 . S
C434 C435 1.370 1_554 S
C434 C436 1.363 . S
C434 H450 0.931 . S
C435 C434 1.370 1_556 S
C435 C439 1.408 . S
C436 C434 1.363 . S
C436 C437 1.370 1_554 S
C436 C440 1.524 . S
C437 C429 1.503 . S
C437 C436 1.370 1_556 S
C437 C438 1.403 . S
C438 C437 1.403 . S
C438 C439 1.404 . S
C438 C441 1.539 . S
C439 C435 1.408 . S
C439 C438 1.404 . S
C439 H451 0.930 . S
C440 C436 1.524 . S
C440 H452 0.956 . S
C440 H453 0.961 . S
C440 H454 0.961 . S
C441 C438 1.539 . S
C441 H455 0.958 . S
C441 H456 0.961 . S
C441 H457 0.960 . S
H442 C426 0.931 . S
H443 C431 0.929 . S
H444 C432 0.960 . S
H445 C432 0.962 . S
H446 C432 0.960 . S
H447 C433 0.961 . S
H448 C433 0.961 . S
H449 C433 0.961 . S
H450 C434 0.931 . S
H451 C439 0.930 . S
H452 C440 0.956 . S
H453 C440 0.961 . S
H454 C440 0.961 . S
H455 C441 0.958 . S
H456 C441 0.961 . S
H457 C441 0.960 . S
C458 C459 1.391 . S
C458 C460 1.394 . S
C458 H474 0.931 . S
C459 C458 1.391 . S
C459 C463 1.376 1_554 S
C460 C458 1.394 . S
C460 C461 1.369 . S
C460 C464 1.531 . S
C461 C460 1.369 . S
C461 C462 1.410 1_554 S
C461 C469 1.503 . S
C462 C461 1.410 1_556 S
C462 C463 1.392 . S
C462 C465 1.511 . S
C463 C459 1.376 1_556 S
C463 C462 1.392 . S
C463 H475 0.929 . S
C464 C460 1.531 . S
C464 H476 0.960 . S
C464 H477 0.962 . S
C464 H478 0.960 . S
C465 C462 1.511 . S
C465 H479 0.961 . S
C465 H480 0.961 . S
C465 H481 0.961 . S
C466 C467 1.370 . S
C466 C468 1.363 . S
C466 H482 0.931 . S
C467 C466 1.370 . S
C467 C471 1.408 1_556 S
C468 C466 1.363 . S
C468 C469 1.370 1_556 S
C468 C472 1.524 . S
C469 C461 1.503 . S
C469 C468 1.370 1_554 S
C469 C470 1.403 . S
C470 C469 1.403 . S
C470 C471 1.404 . S
C470 C473 1.539 . S
C471 C467 1.408 1_554 S
C471 C470 1.404 . S
C471 H483 0.930 . S
C472 C468 1.524 . S
C472 H484 0.956 1_556 S
C472 H485 0.961 . S
C472 H486 0.961 . S
C473 C470 1.539 . S
C473 H487 0.958 . S
C473 H488 0.961 1_554 S
C473 H489 0.960 1_554 S
H474 C458 0.931 . S
H475 C463 0.929 . S
H476 C464 0.960 . S
H477 C464 0.962 . S
H478 C464 0.960 . S
H479 C465 0.961 . S
H480 C465 0.961 . S
H481 C465 0.961 . S
H482 C466 0.931 . S
H483 C471 0.930 . S
H484 C472 0.956 1_554 S
H485 C472 0.961 . S
H486 C472 0.961 . S
H487 C473 0.958 . S
H488 C473 0.961 1_556 S
H489 C473 0.960 1_556 S
C490 C491 1.391 . S
C490 C492 1.394 . S
C490 H506 0.931 . S
C491 C490 1.391 . S
C491 C495 1.376 1_556 S
C492 C490 1.394 . S
C492 C493 1.369 . S
C492 C496 1.531 . S
C493 C492 1.369 . S
C493 C494 1.410 1_556 S
C493 C501 1.503 . S
C494 C493 1.410 1_554 S
C494 C495 1.392 . S
C494 C497 1.511 . S
C495 C491 1.376 1_554 S
C495 C494 1.392 . S
C495 H507 0.929 . S
C496 C492 1.531 . S
C496 H508 0.960 . S
C496 H509 0.962 . S
C496 H510 0.960 . S
C497 C494 1.511 . S
C497 H511 0.961 . S
C497 H512 0.961 . S
C497 H513 0.961 . S
C498 C499 1.370 . S
C498 C500 1.363 . S
C498 H514 0.931 . S
C499 C498 1.370 . S
C499 C503 1.409 1_554 S
C500 C498 1.363 . S
C500 C501 1.370 1_554 S
C500 C504 1.524 . S
C501 C493 1.503 . S
C501 C500 1.370 1_556 S
C501 C502 1.403 . S
C502 C501 1.403 . S
C502 C503 1.404 . S
C502 C505 1.539 . S
C503 C499 1.409 1_556 S
C503 C502 1.404 . S
C503 H515 0.930 . S
C504 C500 1.524 . S
C504 H516 0.956 . S
C504 H517 0.961 . S
C504 H518 0.961 . S
C505 C502 1.539 . S
C505 H519 0.958 . S
C505 H520 0.961 . S
C505 H521 0.960 . S
H506 C490 0.931 . S
H507 C495 0.929 . S
H508 C496 0.960 . S
H509 C496 0.962 . S
H510 C496 0.960 . S
H511 C497 0.961 . S
H512 C497 0.961 . S
H513 C497 0.961 . S
H514 C498 0.931 . S
H515 C503 0.930 . S
H516 C504 0.956 . S
H517 C504 0.961 . S
H518 C504 0.961 . S
H519 C505 0.958 . S
H520 C505 0.961 . S
H521 C505 0.960 . S
C522 C523 1.391 . S
C522 C524 1.394 . S
C522 H538 0.931 . S
C523 C522 1.391 . S
C523 C527 1.376 . S
C524 C522 1.394 . S
C524 C525 1.369 . S
C524 C528 1.531 . S
C525 C524 1.369 . S
C525 C526 1.410 . S
C525 C533 1.503 . S
C526 C525 1.410 . S
C526 C527 1.392 . S
C526 C529 1.511 . S
C527 C523 1.376 . S
C527 C526 1.392 . S
C527 H539 0.929 . S
C528 C524 1.531 . S
C528 H540 0.960 . S
C528 H541 0.962 . S
C528 H542 0.960 . S
C529 C526 1.511 . S
C529 H543 0.961 . S
C529 H544 0.961 . S
C529 H545 0.961 . S
C530 C531 1.370 . S
C530 C532 1.363 . S
C530 H546 0.931 . S
C531 C530 1.370 . S
C531 C535 1.408 . S
C532 C530 1.363 . S
C532 C533 1.370 . S
C532 C536 1.524 . S
C533 C525 1.503 . S
C533 C532 1.370 . S
C533 C534 1.403 . S
C534 C533 1.403 . S
C534 C535 1.404 . S
C534 C537 1.539 . S
C535 C531 1.408 . S
C535 C534 1.404 . S
C535 H547 0.930 . S
C536 C532 1.524 . S
C536 H548 0.956 . S
C536 H549 0.961 . S
C536 H550 0.961 . S
C537 C534 1.539 . S
C537 H551 0.958 . S
C537 H552 0.961 . S
C537 H553 0.960 . S
H538 C522 0.931 . S
H539 C527 0.929 . S
H540 C528 0.960 . S
H541 C528 0.962 . S
H542 C528 0.960 . S
H543 C529 0.961 . S
H544 C529 0.961 . S
H545 C529 0.961 . S
H546 C530 0.931 . S
H547 C535 0.930 . S
H548 C536 0.956 . S
H549 C536 0.961 . S
H550 C536 0.961 . S
H551 C537 0.958 . S
H552 C537 0.961 . S
H553 C537 0.960 . S
C554 C555 1.391 . S
C554 C556 1.394 . S
C554 H570 0.931 . S
C555 C554 1.391 . S
C555 C559 1.376 . S
C556 C554 1.394 . S
C556 C557 1.369 . S
C556 C560 1.531 . S
C557 C556 1.369 . S
C557 C558 1.410 . S
C557 C565 1.503 . S
C558 C557 1.410 . S
C558 C559 1.392 . S
C558 C561 1.511 . S
C559 C555 1.376 . S
C559 C558 1.392 . S
C559 H571 0.929 . S
C560 C556 1.531 . S
C560 H572 0.960 . S
C560 H573 0.962 . S
C560 H574 0.960 . S
C561 C558 1.511 . S
C561 H575 0.961 . S
C561 H576 0.961 . S
C561 H577 0.961 . S
C562 C563 1.370 . S
C562 C564 1.363 . S
C562 H578 0.931 . S
C563 C562 1.370 . S
C563 C567 1.408 . S
C564 C562 1.363 . S
C564 C565 1.370 . S
C564 C568 1.524 . S
C565 C557 1.503 . S
C565 C564 1.370 . S
C565 C566 1.403 . S
C566 C565 1.403 . S
C566 C567 1.404 . S
C566 C569 1.539 . S
C567 C563 1.408 . S
C567 C566 1.404 . S
C567 H579 0.930 . S
C568 C564 1.524 . S
C568 H580 0.956 . S
C568 H581 0.961 . S
C568 H582 0.961 . S
C569 C566 1.539 . S
C569 H583 0.958 . S
C569 H584 0.961 . S
C569 H585 0.960 . S
H570 C554 0.931 . S
H571 C559 0.929 . S
H572 C560 0.960 . S
H573 C560 0.962 . S
H574 C560 0.960 . S
H575 C561 0.961 . S
H576 C561 0.961 . S
H577 C561 0.961 . S
H578 C562 0.931 . S
H579 C567 0.930 . S
H580 C568 0.956 . S
H581 C568 0.961 . S
H582 C568 0.961 . S
H583 C569 0.958 . S
H584 C569 0.961 . S
H585 C569 0.960 . S
C586 C587 1.391 . S
C586 C588 1.394 . S
C586 H602 0.931 . S
C587 C586 1.391 . S
C587 C591 1.376 . S
C588 C586 1.394 . S
C588 C589 1.369 . S
C588 C592 1.531 . S
C589 C588 1.369 . S
C589 C590 1.410 . S
C589 C597 1.503 . S
C590 C589 1.410 . S
C590 C591 1.392 . S
C590 C593 1.511 . S
C591 C587 1.376 . S
C591 C590 1.392 . S
C591 H603 0.929 . S
C592 C588 1.531 . S
C592 H604 0.960 . S
C592 H605 0.962 . S
C592 H606 0.960 . S
C593 C590 1.511 . S
C593 H607 0.961 . S
C593 H608 0.961 . S
C593 H609 0.961 . S
C594 C595 1.370 . S
C594 C596 1.363 . S
C594 H610 0.931 . S
C595 C594 1.370 . S
C595 C599 1.408 . S
C596 C594 1.363 . S
C596 C597 1.370 . S
C596 C600 1.524 . S
C597 C589 1.503 . S
C597 C596 1.370 . S
C597 C598 1.403 . S
C598 C597 1.403 . S
C598 C599 1.404 . S
C598 C601 1.539 . S
C599 C595 1.408 . S
C599 C598 1.404 . S
C599 H611 0.930 . S
C600 C596 1.524 . S
C600 H612 0.956 . S
C600 H613 0.961 . S
C600 H614 0.961 . S
C601 C598 1.539 . S
C601 H615 0.958 . S
C601 H616 0.961 . S
C601 H617 0.960 . S
H602 C586 0.931 . S
H603 C591 0.929 . S
H604 C592 0.960 . S
H605 C592 0.962 . S
H606 C592 0.960 . S
H607 C593 0.961 . S
H608 C593 0.961 . S
H609 C593 0.961 . S
H610 C594 0.931 . S
H611 C599 0.930 . S
H612 C600 0.956 . S
H613 C600 0.961 . S
H614 C600 0.961 . S
H615 C601 0.958 . S
H616 C601 0.961 . S
H617 C601 0.960 . S
C618 C619 1.391 . S
C618 C620 1.394 . S
C618 H634 0.931 . S
C619 C618 1.391 . S
C619 C623 1.376 . S
C620 C618 1.394 . S
C620 C621 1.369 . S
C620 C624 1.531 . S
C621 C620 1.369 . S
C621 C622 1.410 . S
C621 C629 1.503 . S
C622 C621 1.410 . S
C622 C623 1.392 . S
C622 C625 1.511 . S
C623 C619 1.376 . S
C623 C622 1.392 . S
C623 H635 0.929 . S
C624 C620 1.531 . S
C624 H636 0.960 . S
C624 H637 0.962 . S
C624 H638 0.960 . S
C625 C622 1.511 . S
C625 H639 0.961 . S
C625 H640 0.961 . S
C625 H641 0.961 . S
C626 C627 1.370 . S
C626 C628 1.363 . S
C626 H642 0.931 . S
C627 C626 1.370 . S
C627 C631 1.408 . S
C628 C626 1.363 . S
C628 C629 1.370 . S
C628 C632 1.524 . S
C629 C621 1.503 . S
C629 C628 1.370 . S
C629 C630 1.403 . S
C630 C629 1.403 . S
C630 C631 1.404 . S
C630 C633 1.539 . S
C631 C627 1.408 . S
C631 C630 1.404 . S
C631 H643 0.930 . S
C632 C628 1.524 . S
C632 H644 0.956 . S
C632 H645 0.961 . S
C632 H646 0.961 . S
C633 C630 1.539 . S
C633 H647 0.958 . S
C633 H648 0.961 . S
C633 H649 0.960 . S
H634 C618 0.931 . S
H635 C623 0.929 . S
H636 C624 0.960 . S
H637 C624 0.962 . S
H638 C624 0.960 . S
H639 C625 0.961 . S
H640 C625 0.961 . S
H641 C625 0.961 . S
H642 C626 0.931 . S
H643 C631 0.930 . S
H644 C632 0.956 . S
H645 C632 0.961 . S
H646 C632 0.961 . S
H647 C633 0.958 . S
H648 C633 0.961 . S
H649 C633 0.960 . S
C650 C651 1.391 . S
C650 C652 1.394 . S
C650 H666 0.931 . S
C651 C650 1.391 . S
C651 C655 1.376 . S
C652 C650 1.394 . S
C652 C653 1.369 . S
C652 C656 1.531 . S
C653 C652 1.369 . S
C653 C654 1.410 . S
C653 C661 1.503 . S
C654 C653 1.410 . S
C654 C655 1.392 . S
C654 C657 1.511 . S
C655 C651 1.376 . S
C655 C654 1.392 . S
C655 H667 0.929 . S
C656 C652 1.531 . S
C656 H668 0.960 . S
C656 H669 0.962 . S
C656 H670 0.960 . S
C657 C654 1.511 . S
C657 H671 0.961 . S
C657 H672 0.961 . S
C657 H673 0.961 . S
C658 C659 1.370 . S
C658 C660 1.363 . S
C658 H674 0.931 . S
C659 C658 1.370 . S
C659 C663 1.408 . S
C660 C658 1.363 . S
C660 C661 1.370 . S
C660 C664 1.524 . S
C661 C653 1.503 . S
C661 C660 1.370 . S
C661 C662 1.403 . S
C662 C661 1.403 . S
C662 C663 1.404 . S
C662 C665 1.539 . S
C663 C659 1.408 . S
C663 C662 1.404 . S
C663 H675 0.930 . S
C664 C660 1.524 . S
C664 H676 0.956 . S
C664 H677 0.961 . S
C664 H678 0.961 . S
C665 C662 1.539 . S
C665 H679 0.958 . S
C665 H680 0.961 . S
C665 H681 0.960 . S
H666 C650 0.931 . S
H667 C655 0.929 . S
H668 C656 0.960 . S
H669 C656 0.962 . S
H670 C656 0.960 . S
H671 C657 0.961 . S
H672 C657 0.961 . S
H673 C657 0.961 . S
H674 C658 0.931 . S
H675 C663 0.930 . S
H676 C664 0.956 . S
H677 C664 0.961 . S
H678 C664 0.961 . S
H679 C665 0.958 . S
H680 C665 0.961 . S
H681 C665 0.960 . S
C682 C683 1.391 . S
C682 C684 1.394 . S
C682 H698 0.931 . S
C683 C682 1.391 . S
C683 C687 1.376 . S
C684 C682 1.394 . S
C684 C685 1.369 . S
C684 C688 1.531 . S
C685 C684 1.369 . S
C685 C686 1.410 . S
C685 C693 1.503 . S
C686 C685 1.410 . S
C686 C687 1.392 . S
C686 C689 1.511 . S
C687 C683 1.376 . S
C687 C686 1.392 . S
C687 H699 0.929 . S
C688 C684 1.531 . S
C688 H700 0.960 . S
C688 H701 0.962 . S
C688 H702 0.960 . S
C689 C686 1.511 . S
C689 H703 0.961 . S
C689 H704 0.961 . S
C689 H705 0.961 . S
C690 C691 1.370 . S
C690 C692 1.363 . S
C690 H706 0.931 . S
C691 C690 1.370 . S
C691 C695 1.408 . S
C692 C690 1.363 . S
C692 C693 1.370 . S
C692 C696 1.524 . S
C693 C685 1.503 . S
C693 C692 1.370 . S
C693 C694 1.403 . S
C694 C693 1.403 . S
C694 C695 1.404 . S
C694 C697 1.539 . S
C695 C691 1.408 . S
C695 C694 1.404 . S
C695 H707 0.930 . S
C696 C692 1.524 . S
C696 H708 0.956 . S
C696 H709 0.961 . S
C696 H710 0.961 . S
C697 C694 1.539 . S
C697 H711 0.958 . S
C697 H712 0.961 . S
C697 H713 0.960 . S
H698 C682 0.931 . S
H699 C687 0.929 . S
H700 C688 0.960 . S
H701 C688 0.962 . S
H702 C688 0.960 . S
H703 C689 0.961 . S
H704 C689 0.961 . S
H705 C689 0.961 . S
H706 C690 0.931 . S
H707 C695 0.930 . S
H708 C696 0.956 . S
H709 C696 0.961 . S
H710 C696 0.961 . S
H711 C697 0.958 . S
H712 C697 0.961 . S
H713 C697 0.960 . S
C139 C132 1.483 . S
C147 C18 1.467 1_556 S
C171 C17 1.474 1_554 S
C179 C41 1.455 1_556 S
C203 C40 1.478 . S
C211 C64 1.470 1_556 S
C235 C87 1.477 1_556 S
C243 C63 1.480 . S
C267 C110 1.478 1_556 S
C275 C86 1.479 . S
C299 C109 1.466 1_554 S
C307 C133 1.460 1_556 S
C331 C108 1.464 1_554 S
C339 C21 1.461 1_554 S
C363 C131 1.448 . S
C371 C44 1.459 . S
C395 C67 1.468 1_554 S
C403 C16 1.454 1_554 S
C427 C90 1.446 . S
C435 C39 1.460 . S
C459 C113 1.463 1_554 S
C467 C62 1.452 . S
C491 C85 1.446 . S
C499 C136 1.459 1_554 S
C523 C19 1.407 . S
C531 C20 1.443 . S
C555 C42 1.463 . S
C563 C43 1.456 . S
C587 C65 1.427 . S
C595 C66 1.455 . S
C619 C88 1.407 . S
C627 C89 1.443 . S
C651 C112 1.468 . S
C659 C111 1.443 . S
C683 C134 1.433 . S
C691 C135 1.456 . S
