# Generated by pormake.
# Topology crs, (6)-cn, num edge types: 1
# Building blocks:
#     Node 0, Type 0, BuildingBlock: GEDQOX_clean_sbu_0, # of connection points: 6
#     Node 1, Type 0, BuildingBlock: GEDQOX_clean_sbu_0, # of connection points: 6
#     Node 2, Type 0, BuildingBlock: GEDQOX_clean_sbu_0, # of connection points: 6
#     Node 3, Type 0, BuildingBlock: GEDQOX_clean_sbu_0, # of connection points: 6
#     Node 4, Type 0, BuildingBlock: GEDQOX_clean_sbu_0, # of connection points: 6
#     Node 5, Type 0, BuildingBlock: GEDQOX_clean_sbu_0, # of connection points: 6
#     Node 6, Type 0, BuildingBlock: GEDQOX_clean_sbu_0, # of connection points: 6
#     Node 7, Type 0, BuildingBlock: GEDQOX_clean_sbu_0, # of connection points: 6
#     Node 8, Type 0, BuildingBlock: GEDQOX_clean_sbu_0, # of connection points: 6
#     Node 9, Type 0, BuildingBlock: GEDQOX_clean_sbu_0, # of connection points: 6
#     Node 10, Type 0, BuildingBlock: GEDQOX_clean_sbu_0, # of connection points: 6
#     Node 11, Type 0, BuildingBlock: GEDQOX_clean_sbu_0, # of connection points: 6
#     Node 12, Type 0, BuildingBlock: GEDQOX_clean_sbu_0, # of connection points: 6
#     Node 13, Type 0, BuildingBlock: GEDQOX_clean_sbu_0, # of connection points: 6
#     Node 14, Type 0, BuildingBlock: GEDQOX_clean_sbu_0, # of connection points: 6
#     Node 15, Type 0, BuildingBlock: GEDQOX_clean_sbu_0, # of connection points: 6
#     Edge 16, Type (0, 0), BuildingBlock: UVAHIK_clean_linker_0, # of connection points: 2
#     Edge 17, Type (0, 0), BuildingBlock: UVAHIK_clean_linker_0, # of connection points: 2
#     Edge 18, Type (0, 0), BuildingBlock: UVAHIK_clean_linker_0, # of connection points: 2
#     Edge 19, Type (0, 0), BuildingBlock: UVAHIK_clean_linker_0, # of connection points: 2
#     Edge 20, Type (0, 0), BuildingBlock: UVAHIK_clean_linker_0, # of connection points: 2
#     Edge 21, Type (0, 0), BuildingBlock: UVAHIK_clean_linker_0, # of connection points: 2
#     Edge 22, Type (0, 0), BuildingBlock: UVAHIK_clean_linker_0, # of connection points: 2
#     Edge 23, Type (0, 0), BuildingBlock: UVAHIK_clean_linker_0, # of connection points: 2
#     Edge 24, Type (0, 0), BuildingBlock: UVAHIK_clean_linker_0, # of connection points: 2
#     Edge 25, Type (0, 0), BuildingBlock: UVAHIK_clean_linker_0, # of connection points: 2
#     Edge 26, Type (0, 0), BuildingBlock: UVAHIK_clean_linker_0, # of connection points: 2
#     Edge 27, Type (0, 0), BuildingBlock: UVAHIK_clean_linker_0, # of connection points: 2
#     Edge 28, Type (0, 0), BuildingBlock: UVAHIK_clean_linker_0, # of connection points: 2
#     Edge 29, Type (0, 0), BuildingBlock: UVAHIK_clean_linker_0, # of connection points: 2
#     Edge 30, Type (0, 0), BuildingBlock: UVAHIK_clean_linker_0, # of connection points: 2
#     Edge 31, Type (0, 0), BuildingBlock: UVAHIK_clean_linker_0, # of connection points: 2
#     Edge 32, Type (0, 0), BuildingBlock: UVAHIK_clean_linker_0, # of connection points: 2
#     Edge 33, Type (0, 0), BuildingBlock: UVAHIK_clean_linker_0, # of connection points: 2
#     Edge 34, Type (0, 0), BuildingBlock: UVAHIK_clean_linker_0, # of connection points: 2
#     Edge 35, Type (0, 0), BuildingBlock: UVAHIK_clean_linker_0, # of connection points: 2
#     Edge 36, Type (0, 0), BuildingBlock: UVAHIK_clean_linker_0, # of connection points: 2
#     Edge 37, Type (0, 0), BuildingBlock: UVAHIK_clean_linker_0, # of connection points: 2
#     Edge 38, Type (0, 0), BuildingBlock: UVAHIK_clean_linker_0, # of connection points: 2
#     Edge 39, Type (0, 0), BuildingBlock: UVAHIK_clean_linker_0, # of connection points: 2
#     Edge 40, Type (0, 0), BuildingBlock: UVAHIK_clean_linker_0, # of connection points: 2
#     Edge 41, Type (0, 0), BuildingBlock: UVAHIK_clean_linker_0, # of connection points: 2
#     Edge 42, Type (0, 0), BuildingBlock: UVAHIK_clean_linker_0, # of connection points: 2
#     Edge 43, Type (0, 0), BuildingBlock: UVAHIK_clean_linker_0, # of connection points: 2
#     Edge 44, Type (0, 0), BuildingBlock: UVAHIK_clean_linker_0, # of connection points: 2
#     Edge 45, Type (0, 0), BuildingBlock: UVAHIK_clean_linker_0, # of connection points: 2
#     Edge 46, Type (0, 0), BuildingBlock: UVAHIK_clean_linker_0, # of connection points: 2
#     Edge 47, Type (0, 0), BuildingBlock: UVAHIK_clean_linker_0, # of connection points: 2
#     Edge 48, Type (0, 0), BuildingBlock: UVAHIK_clean_linker_0, # of connection points: 2
#     Edge 49, Type (0, 0), BuildingBlock: UVAHIK_clean_linker_0, # of connection points: 2
#     Edge 50, Type (0, 0), BuildingBlock: UVAHIK_clean_linker_0, # of connection points: 2
#     Edge 51, Type (0, 0), BuildingBlock: UVAHIK_clean_linker_0, # of connection points: 2
#     Edge 52, Type (0, 0), BuildingBlock: UVAHIK_clean_linker_0, # of connection points: 2
#     Edge 53, Type (0, 0), BuildingBlock: UVAHIK_clean_linker_0, # of connection points: 2
#     Edge 54, Type (0, 0), BuildingBlock: UVAHIK_clean_linker_0, # of connection points: 2
#     Edge 55, Type (0, 0), BuildingBlock: UVAHIK_clean_linker_0, # of connection points: 2
#     Edge 56, Type (0, 0), BuildingBlock: UVAHIK_clean_linker_0, # of connection points: 2
#     Edge 57, Type (0, 0), BuildingBlock: UVAHIK_clean_linker_0, # of connection points: 2
#     Edge 58, Type (0, 0), BuildingBlock: UVAHIK_clean_linker_0, # of connection points: 2
#     Edge 59, Type (0, 0), BuildingBlock: UVAHIK_clean_linker_0, # of connection points: 2
#     Edge 60, Type (0, 0), BuildingBlock: UVAHIK_clean_linker_0, # of connection points: 2
#     Edge 61, Type (0, 0), BuildingBlock: UVAHIK_clean_linker_0, # of connection points: 2
#     Edge 62, Type (0, 0), BuildingBlock: UVAHIK_clean_linker_0, # of connection points: 2
#     Edge 63, Type (0, 0), BuildingBlock: UVAHIK_clean_linker_0, # of connection points: 2
# Relax obj value: 0.327
# Max RMSD: 0.335
# Mean RMSD: 0.235
data_MOF--net-crs--node1-GEDQOX_clean_sbu_0--edge1-UVAHIK_clean_linker_0
_symmetry_space_group_name_H-M    P1
_symmetry_Int_Tables_number       1
_symmetry_cell_setting            triclinic
loop_
_symmetry_equiv_pos_as_xyz
'x, y, z'
_cell_length_a     47.481176
_cell_length_b     61.715128
_cell_length_c     77.613437
_cell_angle_alpha  93.220513
_cell_angle_beta   107.43984
_cell_angle_gamma 87.600206
loop_
_atom_site_label
_atom_site_type_symbol
_atom_site_fract_x
_atom_site_fract_y
_atom_site_fract_z
_atom_type_partial_charge
Nd0 Nd 0.02588 1.0001 0.99812 0.0
Nd1 Nd 0.99424 0.03121 0.01702 0.0
C2 C 0.05186 0.97906 0.9761 0.0
C3 C 0.04861 0.9605 0.96289 0.0
C4 C 0.02353 0.9584 0.94773 0.0
C5 C 0.0225 0.94181 0.93452 0.0
C6 C 0.0465 0.92705 0.93624 0.0
C7 C 0.071 0.92874 0.9518 0.0
C8 C 0.07205 0.94533 0.96495 0.0
C9 C 0.04716 1.00007 0.03525 0.0
C10 C 0.97369 0.98041 0.0092 0.0
C11 C 0.96823 0.05382 0.03822 0.0
C12 C 0.97067 0.0754 0.04757 0.0
C13 C 0.99818 0.08369 0.05754 0.0
C14 C 0.99983 0.10422 0.06631 0.0
C15 C 0.97405 0.11694 0.06515 0.0
C16 C 0.94662 0.10864 0.0549 0.0
C17 C 0.94498 0.08806 0.04626 0.0
C18 C 0.97461 0.03239 0.98003 0.0
C19 C 0.04808 0.05056 0.00723 0.0
O20 O 0.03408 0.99593 0.97151 0.0
O21 O 0.0573 0.97465 0.99307 0.0
O22 O 0.04393 0.98259 0.02485 0.0
O23 O 0.04007 0.01669 0.02604 0.0
O24 O 0.98754 0.97856 0.99678 0.0
O25 O 0.97602 0.998 0.01999 0.0
O26 O 0.98993 0.03977 0.04422 0.0
O27 O 0.95835 0.05351 0.0206 0.0
O28 O 0.97886 0.04953 0.99084 0.0
O29 O 0.98031 0.01521 0.98874 0.0
O30 O 0.03304 0.05256 0.01901 0.0
O31 O 0.04605 0.03311 0.9963 0.0
H32 H 0.00507 0.96988 0.94583 0.0
H33 H 0.00341 0.94109 0.92263 0.0
H34 H 0.08963 0.91743 0.9537 0.0
H35 H 0.09158 0.94662 0.97655 0.0
H36 H 0.01839 0.0743 0.05865 0.0
H37 H 0.02129 0.10994 0.07428 0.0
H38 H 0.92638 0.1181 0.05344 0.0
H39 H 0.92357 0.08202 0.03849 0.0
Nd40 Nd 0.9948 0.2734 0.23945 0.0
Nd41 Nd 0.05262 0.2973 0.24025 0.0
C42 C 0.94673 0.26102 0.24576 0.0
C43 C 0.93518 0.26668 0.26102 0.0
C44 C 0.93753 0.2879 0.26884 0.0
C45 C 0.93221 0.29224 0.28545 0.0
C46 C 0.92501 0.27535 0.2946 0.0
C47 C 0.9214 0.25435 0.28639 0.0
C48 C 0.92636 0.25007 0.26969 0.0
C49 C 0.04136 0.24641 0.23692 0.0
C50 C 0.03805 0.29548 0.27806 0.0
C51 C 0.10601 0.30477 0.23832 0.0
C52 C 0.12209 0.29947 0.22507 0.0
C53 C 0.1139 0.2819 0.21248 0.0
C54 C 0.1272 0.27846 0.19869 0.0
C55 C 0.14866 0.29267 0.19717 0.0
C56 C 0.15722 0.30995 0.21008 0.0
C57 C 0.14405 0.3133 0.22391 0.0
C58 C 0.00683 0.32779 0.23891 0.0
C59 C 0.00587 0.27972 0.20164 0.0
O60 O 0.94648 0.27655 0.23484 0.0
O61 O 0.97151 0.2496 0.25006 0.0
O62 O 0.01389 0.24313 0.22799 0.0
O63 O 0.04347 0.26343 0.24714 0.0
O64 O 0.01232 0.28726 0.26877 0.0
O65 O 0.05883 0.29927 0.27055 0.0
O66 O 0.10041 0.28863 0.24695 0.0
O67 O 0.08352 0.31828 0.23293 0.0
O68 O 0.03352 0.33288 0.23988 0.0
O69 O 0.0062 0.30745 0.23881 0.0
O70 O 0.03363 0.28359 0.21095 0.0
O71 O 0.98486 0.27909 0.20952 0.0
H72 H 0.94494 0.30092 0.26261 0.0
H73 H 0.93528 0.30852 0.29157 0.0
H74 H 0.91547 0.24113 0.29313 0.0
H75 H 0.92476 0.23357 0.26397 0.0
H76 H 0.09666 0.27121 0.213 0.0
H77 H 0.11988 0.26517 0.18882 0.0
H78 H 0.17386 0.32105 0.20934 0.0
H79 H 0.15046 0.32703 0.23344 0.0
Nd80 Nd 0.73575 0.28775 0.51817 0.0
Nd81 Nd 0.76431 0.25572 0.50277 0.0
C82 C 0.70148 0.31077 0.53403 0.0
C83 C 0.68096 0.3053 0.54381 0.0
C84 C 0.68068 0.28412 0.54945 0.0
C85 C 0.66221 0.27922 0.55962 0.0
C86 C 0.64368 0.29542 0.56426 0.0
C87 C 0.64333 0.31643 0.55798 0.0
C88 C 0.66189 0.32132 0.54785 0.0
C89 C 0.7436 0.30264 0.48667 0.0
C90 C 0.6978 0.24655 0.49675 0.0
C91 C 0.79828 0.2325 0.4868 0.0
C92 C 0.81782 0.23812 0.47643 0.0
C93 C 0.82218 0.25998 0.47413 0.0
C94 C 0.83843 0.26544 0.4628 0.0
C95 C 0.85018 0.24909 0.45344 0.0
C96 C 0.84659 0.22719 0.45626 0.0
C97 C 0.83052 0.22175 0.46773 0.0
C98 C 0.75616 0.24087 0.53416 0.0
C99 C 0.80218 0.29707 0.52415 0.0
O100 O 0.7293 0.3062 0.54202 0.0
O101 O 0.69348 0.30531 0.51679 0.0
O102 O 0.74694 0.31395 0.50162 0.0
O103 O 0.73556 0.28361 0.48823 0.0
O104 O 0.70202 0.26052 0.51064 0.0
O105 O 0.71797 0.24398 0.48833 0.0
O106 O 0.77027 0.23661 0.47908 0.0
O107 O 0.80673 0.23852 0.50394 0.0
O108 O 0.75275 0.22958 0.5192 0.0
O109 O 0.76454 0.25982 0.53266 0.0
O110 O 0.798 0.28303 0.51031 0.0
O111 O 0.782 0.2997 0.53255 0.0
H112 H 0.69526 0.27153 0.54634 0.0
H113 H 0.66327 0.26297 0.56441 0.0
H114 H 0.62899 0.32916 0.5611 0.0
H115 H 0.6617 0.33768 0.54342 0.0
H116 H 0.81213 0.27282 0.48055 0.0
H117 H 0.84047 0.28242 0.46064 0.0
H118 H 0.85555 0.21431 0.44922 0.0
H119 H 0.82725 0.20481 0.46937 0.0
Nd120 Nd 0.76306 0.0415 0.75345 0.0
Nd121 Nd 0.74024 1.00139 0.76666 0.0
C122 C 0.76884 0.07832 0.73816 0.0
C123 C 0.76756 0.08959 0.72124 0.0
C124 C 0.74254 0.08928 0.70585 0.0
C125 C 0.74122 0.10168 0.69085 0.0
C126 C 0.76477 0.11495 0.69078 0.0
C127 C 0.7899 0.11489 0.70614 0.0
C128 C 0.79123 0.10246 0.72105 0.0
C129 C 0.79568 1.00365 0.75175 0.0
C130 C 0.7106 0.01208 0.72504 0.0
C131 C 0.7343 0.96496 0.78253 0.0
C132 C 0.73727 0.95399 0.79994 0.0
C133 C 0.7634 0.94258 0.80903 0.0
C134 C 0.76492 0.93022 0.82409 0.0
C135 C 0.74033 0.9287 0.83062 0.0
C136 C 0.71433 0.94037 0.8216 0.0
C137 C 0.71282 0.95268 0.80655 0.0
C138 C 0.70782 0.03946 0.76814 0.0
C139 C 0.7927 0.03076 0.79496 0.0
O140 O 0.74426 0.07257 0.74076 0.0
O141 O 0.79072 0.06463 0.74472 0.0
O142 O 0.80657 0.02286 0.75558 0.0
O143 O 0.76775 1.0048 0.7477 0.0
O144 O 0.72312 0.0311 0.72974 0.0
O145 O 0.71711 0.99582 0.73613 0.0
O146 O 0.75805 0.96945 0.77831 0.0
O147 O 0.71316 0.97954 0.77697 0.0
O148 O 0.69666 0.02035 0.76409 0.0
O149 O 0.73574 0.03804 0.77241 0.0
O150 O 0.78059 0.01163 0.79016 0.0
O151 O 0.78567 0.0471 0.78398 0.0
H152 H 0.72374 0.07972 0.7055 0.0
H153 H 0.72133 0.10129 0.67947 0.0
H154 H 0.80877 0.12446 0.70668 0.0
H155 H 0.81077 0.10322 0.73267 0.0
H156 H 0.78264 0.94283 0.8043 0.0
H157 H 0.78554 0.92185 0.83062 0.0
H158 H 0.69464 0.93951 0.82579 0.0
H159 H 0.69208 0.96077 0.7998 0.0
Nd160 Nd 0.45123 0.74102 0.27737 0.0
Nd161 Nd 0.51337 0.75979 0.28099 0.0
C162 C 0.39963 0.73153 0.28094 0.0
C163 C 0.38236 0.73868 0.29319 0.0
C164 C 0.38653 0.75913 0.30229 0.0
C165 C 0.37193 0.76495 0.31513 0.0
C166 C 0.35309 0.75033 0.31922 0.0
C167 C 0.3486 0.73001 0.30976 0.0
C168 C 0.36311 0.72427 0.29687 0.0
C169 C 0.49587 0.71091 0.27728 0.0
C170 C 0.49278 0.76268 0.31643 0.0
C171 C 0.56739 0.76115 0.27905 0.0
C172 C 0.57606 0.76732 0.26342 0.0
C173 C 0.59491 0.75338 0.25682 0.0
C174 C 0.59604 0.75493 0.23916 0.0
C175 C 0.57835 0.77048 0.2279 0.0
C176 C 0.56115 0.78541 0.23499 0.0
C177 C 0.55991 0.78379 0.25257 0.0
C178 C 0.47137 0.79353 0.27374 0.0
C179 C 0.46763 0.74661 0.24057 0.0
O180 O 0.4026 0.74571 0.26967 0.0
O181 O 0.42412 0.72065 0.28843 0.0
O182 O 0.4687 0.70893 0.26728 0.0
O183 O 0.4984 0.72795 0.28744 0.0
O184 O 0.46594 0.75844 0.30568 0.0
O185 O 0.51628 0.76084 0.31069 0.0
O186 O 0.55243 0.74328 0.27595 0.0
O187 O 0.55598 0.77659 0.28745 0.0
O188 O 0.4993 0.79589 0.27598 0.0
O189 O 0.46702 0.77381 0.27527 0.0
O190 O 0.4949 0.75018 0.25083 0.0
O191 O 0.4454 0.74479 0.24733 0.0
H192 H 0.4015 0.77045 0.29973 0.0
H193 H 0.37564 0.78082 0.32197 0.0
H194 H 0.33467 0.71821 0.31274 0.0
H195 H 0.35989 0.70832 0.2901 0.0
H196 H 0.60711 0.74032 0.26486 0.0
H197 H 0.60985 0.74343 0.23407 0.0
H198 H 0.54712 0.79744 0.22659 0.0
H199 H 0.54463 0.79444 0.25716 0.0
Nd200 Nd 0.22075 0.78091 0.49628 0.0
Nd201 Nd 0.27787 0.76104 0.51744 0.0
C202 C 0.17661 0.80355 0.47511 0.0
C203 C 0.17129 0.82621 0.47002 0.0
C204 C 0.19478 0.83916 0.4699 0.0
C205 C 0.18953 0.86075 0.46517 0.0
C206 C 0.16066 0.86974 0.46042 0.0
C207 C 0.13726 0.8568 0.46093 0.0
C208 C 0.14258 0.8352 0.46574 0.0
C209 C 0.22329 0.77281 0.53109 0.0
C210 C 0.27747 0.81224 0.51526 0.0
C211 C 0.32208 0.73829 0.53842 0.0
C212 C 0.32673 0.7163 0.5451 0.0
C213 C 0.303 0.70457 0.54664 0.0
C214 C 0.30773 0.68359 0.55295 0.0
C215 C 0.33628 0.67403 0.55783 0.0
C216 C 0.35986 0.68573 0.55589 0.0
C217 C 0.35508 0.70671 0.54956 0.0
C218 C 0.27552 0.76968 0.48282 0.0
C219 C 0.22092 0.72995 0.49906 0.0
O220 O 0.19618 0.79239 0.46921 0.0
O221 O 0.17903 0.80022 0.49195 0.0
O222 O 0.20043 0.76914 0.51724 0.0
O223 O 0.24379 0.78088 0.52647 0.0
O224 O 0.25263 0.80955 0.50201 0.0
O225 O 0.29013 0.79615 0.52551 0.0
O226 O 0.30456 0.75131 0.54465 0.0
O227 O 0.31755 0.73956 0.52107 0.0
O228 O 0.29812 0.77349 0.4968 0.0
O229 O 0.255 0.76122 0.4872 0.0
O230 O 0.24536 0.73292 0.51255 0.0
O231 O 0.20887 0.74572 0.48829 0.0
H232 H 0.2171 0.83248 0.47319 0.0
H233 H 0.20796 0.87015 0.46458 0.0
H234 H 0.11483 0.86333 0.45742 0.0
H235 H 0.12425 0.82545 0.46598 0.0
H236 H 0.28092 0.71173 0.54318 0.0
H237 H 0.28919 0.67514 0.55455 0.0
H238 H 0.38203 0.67871 0.55938 0.0
H239 H 0.37356 0.7155 0.54823 0.0
Nd240 Nd 0.27572 0.52987 0.75423 0.0
Nd241 Nd 0.22694 0.51556 0.7644 0.0
C242 C 0.31994 0.54795 0.74679 0.0
C243 C 0.32607 0.55072 0.72962 0.0
C244 C 0.3027 0.55289 0.71364 0.0
C245 C 0.30837 0.55381 0.6971 0.0
C246 C 0.33753 0.55242 0.69618 0.0
C247 C 0.36091 0.55024 0.71224 0.0
C248 C 0.35518 0.54936 0.72884 0.0
C249 C 0.27506 0.48514 0.75424 0.0
C250 C 0.21992 0.51709 0.72131 0.0
C251 C 0.18178 0.498 0.77124 0.0
C252 C 0.17267 0.49795 0.78765 0.0
C253 C 0.18759 0.51059 0.80302 0.0
C254 C 0.18009 0.50971 0.81902 0.0
C255 C 0.15756 0.49614 0.8199 0.0
C256 C 0.14212 0.48397 0.80428 0.0
C257 C 0.14966 0.48487 0.78826 0.0
C258 C 0.22775 0.56027 0.76423 0.0
C259 C 0.28292 0.52792 0.7975 0.0
O260 O 0.29738 0.55909 0.74936 0.0
O261 O 0.32086 0.5279 0.75143 0.0
O262 O 0.27834 0.49584 0.74111 0.0
O263 O 0.27064 0.49809 0.76645 0.0
O264 O 0.24264 0.52989 0.72613 0.0
O265 O 0.21217 0.50692 0.73363 0.0
O266 O 0.20637 0.48731 0.77185 0.0
O267 O 0.18018 0.51687 0.76418 0.0
O268 O 0.22449 0.5497 0.77744 0.0
O269 O 0.23199 0.5472 0.75206 0.0
O270 O 0.25923 0.5161 0.79273 0.0
O271 O 0.2917 0.53729 0.78518 0.0
H272 H 0.28001 0.55374 0.71392 0.0
H273 H 0.28989 0.55592 0.68506 0.0
H274 H 0.38358 0.54895 0.71195 0.0
H275 H 0.37344 0.54732 0.74102 0.0
H276 H 0.20538 0.52085 0.80271 0.0
H277 H 0.19221 0.5194 0.83077 0.0
H278 H 0.12499 0.47309 0.8046 0.0
H279 H 0.13799 0.47501 0.77649 0.0
Nd280 Nd 0.02414 0.49911 0.4958 0.0
Nd281 Nd 0.99255 0.52666 0.51785 0.0
C282 C 0.04076 0.47385 0.47169 0.0
C283 C 0.03899 0.45219 0.46229 0.0
C284 C 0.01542 0.44732 0.44675 0.0
C285 C 0.01649 0.42853 0.43602 0.0
C286 C 0.0412 0.41424 0.44055 0.0
C287 C 0.06399 0.41852 0.45664 0.0
C288 C 0.06295 0.43734 0.46735 0.0
C289 C 0.05427 0.50347 0.53194 0.0
C290 C 0.9761 0.47642 0.51186 0.0
C291 C 0.97684 0.55344 0.54142 0.0
C292 C 0.97953 0.57642 0.54815 0.0
C293 C 0.00154 0.58228 0.5642 0.0
C294 C 0.00298 0.60359 0.57141 0.0
C295 C 0.98231 0.61954 0.56281 0.0
C296 C 0.96058 0.61378 0.5466 0.0
C297 C 0.95917 0.59244 0.53936 0.0
C298 C 0.96294 0.52311 0.48151 0.0
C299 C 0.04227 0.54888 0.50292 0.0
O300 O 0.0173 0.48671 0.46758 0.0
O301 O 0.05608 0.4756 0.48878 0.0
O302 O 0.06688 0.50389 0.51926 0.0
O303 O 0.02702 0.50015 0.52542 0.0
O304 O 0.98934 0.47568 0.49905 0.0
O305 O 0.97737 0.49372 0.5228 0.0
O306 O 1.00089 0.54121 0.5456 0.0
O307 O 0.9598 0.54924 0.52498 0.0
O308 O 0.95014 0.5223 0.49407 0.0
O309 O 0.99021 0.52616 0.48828 0.0
O310 O 0.02811 0.54969 0.51524 0.0
O311 O 0.04085 0.53184 0.49172 0.0
H312 H 0.99676 0.45852 0.44236 0.0
H313 H 0.9987 0.42589 0.42362 0.0
H314 H 0.08315 0.4077 0.46063 0.0
H315 H 0.08156 0.44071 0.47917 0.0
H316 H 0.01731 0.57027 0.57144 0.0
H317 H 0.01967 0.60738 0.58408 0.0
H318 H 0.94448 0.62572 0.53958 0.0
H319 H 0.9418 0.58845 0.52704 0.0
Nd320 Nd 0.22631 0.27795 0.99579 0.0
Nd321 Nd 0.28162 0.26428 0.02367 0.0
C322 C 0.18546 0.29594 0.96902 0.0
C323 C 0.17883 0.31804 0.96227 0.0
C324 C 0.197 0.3277 0.9537 0.0
C325 C 0.19073 0.34876 0.94772 0.0
C326 C 0.16625 0.36069 0.95025 0.0
C327 C 0.14814 0.35102 0.95886 0.0
C328 C 0.1543 0.32987 0.96473 0.0
C329 C 0.22107 0.27708 0.02995 0.0
C330 C 0.27706 0.31379 0.01488 0.0
C331 C 0.32315 0.24639 0.05016 0.0
C332 C 0.33103 0.22396 0.0555 0.0
C333 C 0.30903 0.20881 0.0538 0.0
C334 C 0.31671 0.1874 0.05846 0.0
C335 C 0.34656 0.18068 0.06481 0.0
C336 C 0.36855 0.19583 0.06617 0.0
C337 C 0.3608 0.2173 0.06153 0.0
C338 C 0.28657 0.26518 0.98942 0.0
C339 C 0.23065 0.22838 0.00463 0.0
O340 O 0.20915 0.28588 0.96697 0.0
O341 O 0.18186 0.29307 0.98476 0.0
O342 O 0.20106 0.27023 0.01551 0.0
O343 O 0.24273 0.2846 0.02619 0.0
O344 O 0.25622 0.30753 1.00012 0.0
O345 O 0.28759 0.30071 0.02829 0.0
O346 O 0.29824 0.25446 0.05203 0.0
O347 O 0.32722 0.25111 0.03491 0.0
O348 O 0.30659 0.27214 0.0038 0.0
O349 O 0.26514 0.25754 0.99333 0.0
O350 O 0.25207 0.23446 0.01916 0.0
O351 O 0.21946 0.2416 0.9914 0.0
H352 H 0.21605 0.31902 0.95155 0.0
H353 H 0.20477 0.3555 0.94078 0.0
H354 H 0.12926 0.3598 0.96115 0.0
H355 H 0.13993 0.3228 0.9713 0.0
H356 H 0.28589 0.21353 0.04904 0.0
H357 H 0.29922 0.17629 0.05758 0.0
H358 H 0.39172 0.19112 0.07088 0.0
H359 H 0.37807 0.22872 0.06267 0.0
Nd360 Nd 0.27655 0.03676 0.25367 0.0
Nd361 Nd 0.23444 1.00258 0.2653 0.0
C362 C 0.29716 0.06927 0.24113 0.0
C363 C 0.3082 0.0703 0.22528 0.0
C364 C 0.28828 0.07288 0.20796 0.0
C365 C 0.29815 0.07134 0.19272 0.0
C366 C 0.32819 0.06734 0.19444 0.0
C367 C 0.34831 0.0655 0.21178 0.0
C368 C 0.33841 0.06696 0.22706 0.0
C369 C 0.29769 0.99381 0.25289 0.0
C370 C 0.22271 0.01154 0.22256 0.0
C371 C 0.21412 0.96984 0.27771 0.0
C372 C 0.20368 0.96868 0.29378 0.0
C373 C 0.22402 0.96538 0.31085 0.0
C374 C 0.21498 0.96726 0.32639 0.0
C375 C 0.18537 0.97232 0.32523 0.0
C376 C 0.16474 0.9747 0.30813 0.0
C377 C 0.1738 0.97289 0.29254 0.0
C378 C 0.21349 0.04554 0.26634 0.0
C379 C 0.28756 0.02833 0.29646 0.0
O380 O 0.26883 0.06594 0.23754 0.0
O381 O 0.31347 0.05803 0.25459 0.0
O382 O 0.31075 0.01031 0.24933 0.0
O383 O 0.27452 1.00103 0.25609 0.0
O384 O 0.24048 0.02829 0.22717 0.0
O385 O 0.21986 0.99764 0.23434 0.0
O386 O 0.24244 0.97299 0.28097 0.0
O387 O 0.19756 0.98135 0.26451 0.0
O388 O 0.2006 0.02908 0.27013 0.0
O389 O 0.23634 0.0383 0.26276 0.0
O390 O 0.27024 0.01133 0.29186 0.0
O391 O 0.29035 0.04217 0.28462 0.0
H392 H 0.2649 0.07568 0.20607 0.0
H393 H 0.28224 0.07342 0.17957 0.0
H394 H 0.37161 0.06251 0.2135 0.0
H395 H 0.35434 0.06499 0.24022 0.0
H396 H 0.24715 0.96188 0.31231 0.0
H397 H 0.23123 0.96475 0.33935 0.0
H398 H 0.14174 0.9785 0.30683 0.0
H399 H 0.15755 0.97541 0.27959 0.0
Nd400 Nd 0.45266 0.24188 0.78042 0.0
Nd401 Nd 0.50966 0.2674 0.78164 0.0
C402 C 0.39927 0.23391 0.78192 0.0
C403 C 0.38233 0.24115 0.79432 0.0
C404 C 0.3885 0.26087 0.80446 0.0
C405 C 0.37522 0.26624 0.81801 0.0
C406 C 0.3558 0.25187 0.82181 0.0
C407 C 0.34903 0.23245 0.81118 0.0
C408 C 0.36219 0.22716 0.79756 0.0
C409 C 0.50001 0.21262 0.78336 0.0
C410 C 0.49704 0.26217 0.81906 0.0
C411 C 0.55661 0.28082 0.77463 0.0
C412 C 0.56551 0.27705 0.75803 0.0
C413 C 0.56848 0.25586 0.75093 0.0
C414 C 0.57045 0.25252 0.73336 0.0
C415 C 0.56894 0.27026 0.72258 0.0
C416 C 0.56741 0.29141 0.72995 0.0
C417 C 0.56597 0.29478 0.74758 0.0
C418 C 0.46102 0.29271 0.78276 0.0
C419 C 0.46825 0.24399 0.74291 0.0
O420 O 0.40428 0.24852 0.77165 0.0
O421 O 0.42249 0.22163 0.78909 0.0
O422 O 0.47346 0.2069 0.78216 0.0
O423 O 0.49985 0.23298 0.78293 0.0
O424 O 0.46982 0.25718 0.80936 0.0
O425 O 0.51869 0.2631 0.81171 0.0
O426 O 0.55753 0.26403 0.78445 0.0
O427 O 0.53256 0.29285 0.77256 0.0
O428 O 0.48795 0.29732 0.79201 0.0
O429 O 0.4607 0.27556 0.77295 0.0
O430 O 0.49263 0.25404 0.75217 0.0
O431 O 0.44808 0.23845 0.75034 0.0
H432 H 0.40424 0.27181 0.80228 0.0
H433 H 0.38063 0.28146 0.82574 0.0
H434 H 0.33456 0.22085 0.81387 0.0
H435 H 0.3575 0.21175 0.79002 0.0
H436 H 0.56785 0.24182 0.75856 0.0
H437 H 0.57164 0.23608 0.72788 0.0
H438 H 0.56661 0.30533 0.72188 0.0
H439 H 0.56355 0.31123 0.7527 0.0
Nd440 Nd 0.99677 0.78001 0.73397 0.0
Nd441 Nd 0.05378 0.80545 0.73518 0.0
C442 C 0.94837 0.76554 0.7386 0.0
C443 C 0.93437 0.76952 0.75294 0.0
C444 C 0.93808 0.78928 0.76315 0.0
C445 C 0.9295 0.79152 0.77887 0.0
C446 C 0.91733 0.77396 0.78469 0.0
C447 C 0.9126 0.7545 0.77397 0.0
C448 C 0.92102 0.75234 0.75822 0.0
C449 C 0.04544 0.75455 0.73294 0.0
C450 C 0.03679 0.8045 0.7724 0.0
C451 C 0.10756 0.81402 0.73466 0.0
C452 C 0.12636 0.80664 0.72342 0.0
C453 C 0.1198 0.78775 0.71219 0.0
C454 C 0.13544 0.78236 0.69981 0.0
C455 C 0.1577 0.79589 0.69839 0.0
C456 C 0.16481 0.81439 0.71013 0.0
C457 C 0.14924 0.81971 0.72254 0.0
C458 C 0.00621 0.83461 0.73237 0.0
C459 C 0.00966 0.78564 0.69664 0.0
O460 O 0.94819 0.78181 0.72839 0.0
O461 O 0.97389 0.75514 0.74368 0.0
O462 O 0.01854 0.75013 0.72358 0.0
O463 O 0.04585 0.77173 0.7427 0.0
O464 O 0.01191 0.79506 0.76307 0.0
O465 O 0.05776 0.80869 0.76517 0.0
O466 O 0.10229 0.7998 0.74516 0.0
O467 O 0.08403 0.82538 0.72632 0.0
O468 O 0.03266 0.84048 0.7335 0.0
O469 O 0.00669 0.81428 0.73274 0.0
O470 O 0.03717 0.78974 0.70635 0.0
O471 O 0.98806 0.78546 0.70408 0.0
H472 H 0.94875 0.80267 0.75941 0.0
H473 H 0.93313 0.80677 0.78671 0.0
H474 H 0.90378 0.74052 0.7782 0.0
H475 H 0.91847 0.73688 0.75065 0.0
H476 H 0.10193 0.77759 0.71256 0.0
H477 H 0.1292 0.76815 0.69081 0.0
H478 H 0.18204 0.82499 0.70947 0.0
H479 H 0.15445 0.83441 0.73105 0.0
Nd480 Nd 0.76606 0.53979 0.25244 0.0
Nd481 Nd 0.74028 0.4985 0.26723 0.0
C482 C 0.77407 0.57462 0.2354 0.0
C483 C 0.76749 0.58678 0.21821 0.0
C484 C 0.75017 0.60614 0.21602 0.0
C485 C 0.74734 0.61929 0.20123 0.0
C486 C 0.76196 0.6137 0.18814 0.0
C487 C 0.77867 0.59402 0.19014 0.0
C488 C 0.78143 0.58086 0.20488 0.0
C489 C 0.79975 0.50169 0.25649 0.0
C490 C 0.71492 0.50833 0.22427 0.0
C491 C 0.73902 0.46001 0.28114 0.0
C492 C 0.73884 0.44818 0.29747 0.0
C493 C 0.74589 0.42583 0.29806 0.0
C494 C 0.74579 0.41393 0.31299 0.0
C495 C 0.73864 0.42395 0.328 0.0
C496 C 0.73179 0.44651 0.32743 0.0
C497 C 0.73184 0.45843 0.31239 0.0
C498 C 0.70838 0.53651 0.27097 0.0
C499 C 0.78742 0.53241 0.29554 0.0
O500 O 0.75426 0.57409 0.24405 0.0
O501 O 0.79033 0.55676 0.23692 0.0
O502 O 0.81052 0.52106 0.25958 0.0
O503 O 0.77176 0.50286 0.25072 0.0
O504 O 0.73054 0.52619 0.22762 0.0
O505 O 0.71576 0.4942 0.23673 0.0
O506 O 0.76343 0.46938 0.28138 0.0
O507 O 0.71524 0.47107 0.27251 0.0
O508 O 0.70292 0.51758 0.27562 0.0
O509 O 0.73016 0.53433 0.26478 0.0
O510 O 0.77519 0.51312 0.29193 0.0
O511 O 0.78499 0.54689 0.28312 0.0
H512 H 0.7395 0.61153 0.22609 0.0
H513 H 0.7345 0.63431 0.20047 0.0
H514 H 0.78994 0.58875 0.18034 0.0
H515 H 0.7952 0.56626 0.20604 0.0
H516 H 0.75155 0.41745 0.28685 0.0
H517 H 0.75178 0.39682 0.31282 0.0
H518 H 0.7259 0.45496 0.33852 0.0
H519 H 0.72634 0.47564 0.3124 0.0
Nd520 Nd 0.72951 0.79265 0.01888 0.0
Nd521 Nd 0.76793 0.7575 0.00372 0.0
C522 C 0.70073 0.81465 0.03861 0.0
C523 C 0.68265 0.80939 0.05006 0.0
C524 C 0.68956 0.79122 0.06075 0.0
C525 C 0.6708 0.7854 0.07043 0.0
C526 C 0.64488 0.79773 0.06959 0.0
C527 C 0.63815 0.81602 0.05894 0.0
C528 C 0.65689 0.82176 0.04921 0.0
C529 C 0.73124 0.80533 0.98512 0.0
C530 C 0.69994 0.74682 0.99992 0.0
C531 C 0.79586 0.73488 0.98382 0.0
C532 C 0.81191 0.73894 0.97101 0.0
C533 C 0.81936 0.76008 0.96862 0.0
C534 C 0.83384 0.76374 0.95587 0.0
C535 C 0.84112 0.74627 0.94543 0.0
C536 C 0.83433 0.72506 0.94833 0.0
C537 C 0.81974 0.72145 0.96099 0.0
C538 C 0.7662 0.74496 0.03747 0.0
C539 C 0.79731 0.80345 0.02267 0.0
O540 O 0.72915 0.80994 0.04458 0.0
O541 O 0.68906 0.8097 0.02137 0.0
O542 O 0.71674 0.81538 0.99498 0.0
O543 O 0.74337 0.78841 0.99311 0.0
O544 O 0.69946 0.76343 0.01131 0.0
O545 O 0.72193 0.74309 0.9929 0.0
O546 O 0.7673 0.73899 0.97836 0.0
O547 O 0.80859 0.74148 1.0006 0.0
O548 O 0.78128 0.73498 0.02793 0.0
O549 O 0.75403 0.76175 0.02934 0.0
O550 O 0.79771 0.78691 0.01118 0.0
O551 O 0.77542 0.80708 0.02978 0.0
H552 H 0.70936 0.78149 0.06156 0.0
H553 H 0.67683 0.77146 0.07879 0.0
H554 H 0.61825 0.82572 0.05797 0.0
H555 H 0.65109 0.8357 0.04083 0.0
H556 H 0.81367 0.77371 0.97647 0.0
H557 H 0.83857 0.78026 0.95383 0.0
H558 H 0.84011 0.71125 0.9407 0.0
H559 H 0.81435 0.70503 0.96286 0.0
Nd560 Nd 0.50909 0.01417 0.50221 0.0
Nd561 Nd 0.4776 0.04381 0.52246 0.0
C562 C 0.53305 0.99339 0.47909 0.0
C563 C 0.52999 0.97208 0.46947 0.0
C564 C 0.50719 0.9584 0.46958 0.0
C565 C 0.50457 0.93807 0.46042 0.0
C566 C 0.52479 0.9311 0.45109 0.0
C567 C 0.54764 0.94492 0.45111 0.0
C568 C 0.5502 0.96524 0.46024 0.0
C569 C 0.53129 0.01233 0.53907 0.0
C570 C 0.45776 0.99267 0.51365 0.0
C571 C 0.45365 0.06365 0.54597 0.0
C572 C 0.45878 0.08207 0.55941 0.0
C573 C 0.46144 0.07814 0.57745 0.0
C574 C 0.46507 0.09529 0.59036 0.0
C575 C 0.46591 0.11679 0.58547 0.0
C576 C 0.46349 0.12073 0.56741 0.0
C577 C 0.46006 0.10352 0.55449 0.0
C578 C 0.4543 0.04408 0.48544 0.0
C579 C 0.52762 0.06552 0.51042 0.0
O580 O 0.51028 0.00677 0.47418 0.0
O581 O 0.54475 0.99329 0.49661 0.0
O582 O 0.52781 0.99543 0.528 0.0
O583 O 0.52385 0.02962 0.53064 0.0
O584 O 0.47276 0.99102 0.50183 0.0
O585 O 0.45863 0.01037 0.52418 0.0
O586 O 0.47192 0.04694 0.54985 0.0
O587 O 0.44614 0.06807 0.52888 0.0
O588 O 0.45711 0.06148 0.49594 0.0
O589 O 0.46266 0.02751 0.49455 0.0
O590 O 0.51436 0.06654 0.52312 0.0
O591 O 0.52582 0.04812 0.49944 0.0
H592 H 0.49147 0.96343 0.47674 0.0
H593 H 0.4869 0.92773 0.4608 0.0
H594 H 0.5633 0.94018 0.44382 0.0
H595 H 0.56791 0.97565 0.46003 0.0
H596 H 0.46033 0.06177 0.58153 0.0
H597 H 0.46644 0.09176 0.60411 0.0
H598 H 0.46431 0.13712 0.56329 0.0
H599 H 0.45816 0.10704 0.54067 0.0
Nd600 Nd 0.50884 0.51681 0.00282 0.0
Nd601 Nd 0.47483 0.54415 0.02356 0.0
C602 C 0.52865 0.48988 0.98106 0.0
C603 C 0.52307 0.46815 0.97209 0.0
C604 C 0.49429 0.46113 0.9634 0.0
C605 C 0.48984 0.44071 0.95437 0.0
C606 C 0.51406 0.42692 0.95404 0.0
C607 C 0.54275 0.43385 0.96313 0.0
C608 C 0.54719 0.45429 0.97202 0.0
C609 C 0.53682 0.52177 0.0393 0.0
C610 C 0.4572 0.49459 0.01549 0.0
C611 C 0.45505 0.56954 0.04629 0.0
C612 C 0.45895 0.59052 0.05661 0.0
C613 C 0.48708 0.59839 0.06579 0.0
C614 C 0.48998 0.61704 0.07725 0.0
C615 C 0.46482 0.62816 0.07965 0.0
C616 C 0.43672 0.62071 0.06977 0.0
C617 C 0.43386 0.60206 0.0584 0.0
C618 C 0.44638 0.53852 0.98722 0.0
C619 C 0.52483 0.56692 0.00933 0.0
O620 O 0.50862 0.50516 0.97528 0.0
O621 O 0.53988 0.4906 0.99863 0.0
O622 O 0.55011 0.52287 0.02702 0.0
O623 O 0.5098 0.51803 0.03222 0.0
O624 O 0.47122 0.49452 0.00314 0.0
O625 O 0.4588 0.51102 0.02728 0.0
O626 O 0.4759 0.55466 0.05143 0.0
O627 O 0.44376 0.56987 0.02874 0.0
O628 O 0.43313 0.53806 0.99959 0.0
O629 O 0.47337 0.54251 0.99412 0.0
O630 O 0.5106 0.56751 0.02164 0.0
O631 O 0.52449 0.5497 0.99846 0.0
H632 H 0.4753 0.47147 0.96344 0.0
H633 H 0.46747 0.43571 0.94762 0.0
H634 H 0.56185 0.42371 0.96293 0.0
H635 H 0.56955 0.45942 0.97866 0.0
H636 H 0.50678 0.5898 0.06451 0.0
H637 H 0.51192 0.62253 0.08451 0.0
H638 H 0.41691 0.6287 0.07146 0.0
H639 H 0.41197 0.5962 0.05147 0.0
C640 C 0.95418 0.14504 0.08348 0.0
C641 C 0.97569 0.13847 0.075 0.0
C642 C 0.95636 0.16478 0.09345 0.0
C643 C 0.01131 0.20242 0.12013 0.0
H644 H 0.94312 0.23939 0.1199 0.0
C645 C 0.02149 0.27142 0.17382 0.0
C646 C 0.99934 0.27194 0.18248 0.0
C647 C 0.01756 0.2599 0.15728 0.0
C648 C 0.96238 0.22923 0.12016 0.0
H649 H 0.01578 0.14803 0.06982 0.0
H650 H 0.0199 0.18229 0.08763 0.0
H651 H 0.93827 0.20938 0.09739 0.0
H652 H 0.95476 0.26222 0.17981 0.0
H653 H 0.9482 0.24185 0.15132 0.0
H654 H 0.03514 0.22136 0.14338 0.0
C655 C 0.00143 0.17205 0.08656 0.0
C656 C 0.95959 0.21208 0.10725 0.0
C657 C 0.99913 0.15237 0.07645 0.0
C658 C 0.97234 0.26213 0.17356 0.0
C659 C 0.9685 0.25049 0.15711 0.0
C660 C 0.01406 0.21944 0.13312 0.0
C661 C 0.98021 0.17835 0.0953 0.0
C662 C 0.98388 0.1982 0.10738 0.0
C663 C 0.99149 0.24853 0.1491 0.0
C664 C 0.98946 0.23275 0.13357 0.0
H665 H 0.9361 0.13463 0.08293 0.0
H666 H 0.93994 0.16902 0.10029 0.0
H667 H 0.03035 0.19186 0.1207 0.0
H668 H 0.04247 0.27899 0.18022 0.0
H669 H 0.03545 0.25917 0.15127 0.0
C670 C 0.85333 0.24475 0.42202 0.0
C671 C 0.86317 0.25492 0.43932 0.0
C672 C 0.86291 0.25162 0.408 0.0
C673 C 0.92147 0.27707 0.39674 0.0
H674 H 0.86049 0.28728 0.35161 0.0
C675 C 0.9379 0.26533 0.32672 0.0
C676 C 0.92277 0.27924 0.31307 0.0
C677 C 0.93433 0.26788 0.3439 0.0
C678 C 0.87779 0.28493 0.36419 0.0
H679 H 0.89145 0.27974 0.45574 0.0
H680 H 0.90883 0.29153 0.43104 0.0
H681 H 0.84659 0.28047 0.37857 0.0
H682 H 0.89339 0.30741 0.30678 0.0
H683 H 0.88667 0.31169 0.33691 0.0
H684 H 0.95266 0.28054 0.38208 0.0
C685 C 0.89346 0.27839 0.42844 0.0
C686 C 0.86982 0.28083 0.37954 0.0
C687 C 0.88353 0.27169 0.44248 0.0
C688 C 0.90512 0.29642 0.3171 0.0
C689 C 0.90129 0.29885 0.33427 0.0
C690 C 0.92948 0.28096 0.38129 0.0
C691 C 0.88271 0.26867 0.41102 0.0
C692 C 0.89155 0.27622 0.39577 0.0
C693 C 0.91539 0.2843 0.3477 0.0
C694 C 0.90764 0.28432 0.36477 0.0
H695 H 0.83737 0.23198 0.41916 0.0
H696 H 0.85463 0.2437 0.3947 0.0
H697 H 0.93856 0.27357 0.40916 0.0
H698 H 0.95205 0.2522 0.32399 0.0
H699 H 0.94523 0.25631 0.35392 0.0
C700 C 0.74922 0.12174 0.65698 0.0
C701 C 0.76321 0.12891 0.675 0.0
C702 C 0.74832 0.13459 0.64234 0.0
C703 C 0.75773 0.1917 0.63024 0.0
H704 H 0.76532 0.16298 0.58615 0.0
C705 C 0.76822 0.23977 0.56866 0.0
C706 C 0.75579 0.23044 0.55116 0.0
C707 C 0.76905 0.22837 0.58417 0.0
C708 C 0.76271 0.17143 0.5982 0.0
H709 H 0.78656 0.15602 0.69132 0.0
H710 H 0.78533 0.17809 0.66599 0.0
H711 H 0.76643 0.14156 0.61166 0.0
H712 H 0.73319 0.20215 0.5365 0.0
H713 H 0.73402 0.18284 0.56299 0.0
H714 H 0.75395 0.22162 0.61664 0.0
C715 C 0.77489 0.16249 0.66312 0.0
C716 C 0.76337 0.15899 0.61299 0.0
C717 C 0.77592 0.1496 0.67776 0.0
C718 C 0.74341 0.20981 0.54968 0.0
C719 C 0.74411 0.19856 0.56503 0.0
C720 C 0.75697 0.20418 0.61537 0.0
C721 C 0.76123 0.15521 0.6451 0.0
C722 C 0.76073 0.16881 0.62929 0.0
C723 C 0.7574 0.20734 0.58263 0.0
C724 C 0.75921 0.19427 0.59898 0.0
H725 H 0.73931 0.10595 0.6541 0.0
H726 H 0.7372 0.12834 0.6288 0.0
H727 H 0.75533 0.20004 0.64239 0.0
H728 H 0.77791 0.25562 0.57037 0.0
H729 H 0.77955 0.23584 0.59738 0.0
C730 C 0.95229 0.01406 0.9495 0.0
C731 C 0.96001 0.03316 0.96034 0.0
C732 C 0.937 0.01514 0.93106 0.0
C733 C 0.88885 0.05238 0.89807 0.0
H734 H 0.9038 0.01007 0.86282 0.0
C735 C 0.82485 0.05347 0.82111 0.0
C736 C 0.81462 0.03313 0.81316 0.0
C737 C 0.84493 0.05501 0.8386 0.0
C738 C 0.89928 0.02199 0.87251 0.0
H739 H 0.95871 0.06831 0.96029 0.0
H740 H 0.93248 0.07018 0.92818 0.0
H741 H 0.93451 0.00947 0.89422 0.0
H742 H 0.81804 0.99844 0.8173 0.0
H743 H 0.8525 1.00118 0.84737 0.0
H744 H 0.85334 0.06471 0.87633 0.0
C745 C 0.93761 0.05439 0.9339 0.0
C746 C 0.91685 0.02158 0.89054 0.0
C747 C 0.95283 0.0533 0.9523 0.0
C748 C 0.82527 0.01444 0.82293 0.0
C749 C 0.84534 0.01595 0.8402 0.0
C750 C 0.8713 0.05281 0.88001 0.0
C751 C 0.92917 0.03534 0.92306 0.0
C752 C 0.91158 0.03656 0.90363 0.0
C753 C 0.8554 0.03621 0.84832 0.0
C754 C 0.87598 0.03737 0.86707 0.0
H755 H 0.95759 0.99832 0.95533 0.0
H756 H 0.93062 1.0001 0.92317 0.0
H757 H 0.8839 0.06404 0.9078 0.0
H758 H 0.8171 0.06817 0.81396 0.0
H759 H 0.85237 0.07086 0.84448 0.0
C760 C 0.072 0.02042 0.06429 0.0
C761 C 0.06256 1.00066 0.05488 0.0
C762 C 0.08794 0.02085 0.08266 0.0
C763 C 0.13263 0.985 0.11861 0.0
H764 H 0.12512 0.03453 0.15008 0.0
C765 C 0.18933 0.98969 0.19656 0.0
C766 C 0.20435 0.00898 0.20339 0.0
C767 C 0.17133 0.98783 0.17858 0.0
C768 C 0.12751 0.02062 0.14142 0.0
H769 H 0.06147 0.96596 0.05737 0.0
H770 H 0.08836 0.96671 0.08956 0.0
H771 H 0.09401 0.03285 0.11876 0.0
H772 H 0.21215 0.04141 0.19658 0.0
H773 H 0.18054 0.03818 0.16546 0.0
H774 H 0.16585 0.97269 0.14156 0.0
C775 C 0.08434 0.98185 0.08272 0.0
C776 C 0.10978 0.01968 0.12341 0.0
C777 C 0.06871 0.98141 0.06428 0.0
C778 C 0.20101 0.02628 0.19182 0.0
C779 C 0.18272 0.02452 0.17399 0.0
C780 C 0.15007 0.98582 0.13671 0.0
C781 C 0.09449 1.00156 0.09215 0.0
C782 C 0.11233 1.002 0.11165 0.0
C783 C 0.1676 0.00533 0.16718 0.0
C784 C 0.14797 1.00378 0.14824 0.0
H785 H 0.06763 0.03552 0.05736 0.0
H786 H 0.09572 0.03631 0.08928 0.0
H787 H 0.13566 0.97127 0.10997 0.0
H788 H 0.19144 0.97605 0.20508 0.0
H789 H 0.15986 0.97286 0.17368 0.0
C790 C 0.02015 0.38423 0.41749 0.0
C791 C 0.04452 0.39639 0.42756 0.0
C792 C 0.02257 0.36951 0.40359 0.0
C793 C 0.0654 0.36148 0.37154 0.0
H794 H 0.02606 0.30644 0.35941 0.0
C795 C 0.06951 0.31076 0.30798 0.0
C796 C 0.04263 0.30208 0.29734 0.0
C797 C 0.07261 0.31903 0.32558 0.0
C798 C 0.03705 0.32183 0.36257 0.0
H799 H 0.09087 0.40194 0.43133 0.0
H800 H 0.09518 0.37605 0.40738 0.0
H801 H 0.026 0.32673 0.38738 0.0
H802 H 0.99836 0.29438 0.29723 0.0
H803 H 0.0035 0.30924 0.32759 0.0
H804 H 0.07561 0.35714 0.34657 0.0
C805 C 0.07411 0.37806 0.4101 0.0
C806 C 0.03704 0.33341 0.3786 0.0
C807 C 0.07171 0.39273 0.42398 0.0
C808 C 0.01936 0.30102 0.30498 0.0
C809 C 0.02238 0.30942 0.32251 0.0
C810 C 0.06529 0.34999 0.35552 0.0
C811 C 0.0494 0.36671 0.39944 0.0
C812 C 0.05101 0.35346 0.38317 0.0
C813 C 0.04885 0.31895 0.3329 0.0
C814 C 0.05088 0.33013 0.35072 0.0
H815 H 0.99898 0.3865 0.42004 0.0
H816 H 0.00308 0.36108 0.39557 0.0
H817 H 0.07588 0.37707 0.37447 0.0
H818 H 0.08799 0.31164 0.3026 0.0
H819 H 0.09352 0.32584 0.33334 0.0
C820 C 0.62572 0.30604 0.59076 0.0
C821 C 0.62656 0.29087 0.57674 0.0
C822 C 0.61185 0.30127 0.60351 0.0
C823 C 0.59226 0.25523 0.62487 0.0
H824 H 0.55395 0.30093 0.64672 0.0
C825 C 0.59058 0.25561 0.69854 0.0
C826 C 0.56774 0.26695 0.70342 0.0
C827 C 0.5911 0.2549 0.6806 0.0
C828 C 0.56398 0.28775 0.64061 0.0
H829 H 0.61251 0.25903 0.56471 0.0
H830 H 0.5882 0.25063 0.58714 0.0
H831 H 0.5656 0.30736 0.61912 0.0
H832 H 0.52623 0.28472 0.69349 0.0
H833 H 0.52651 0.28292 0.66205 0.0
H834 H 0.59077 0.23566 0.64648 0.0
C835 C 0.59859 0.26616 0.5883 0.0
C836 C 0.57102 0.29158 0.62489 0.0
C837 C 0.61252 0.27096 0.57549 0.0
C838 C 0.54438 0.27627 0.69 0.0
C839 C 0.54462 0.27526 0.67205 0.0
C840 C 0.58501 0.25133 0.64058 0.0
C841 C 0.59843 0.28119 0.60257 0.0
C842 C 0.58622 0.27567 0.61722 0.0
C843 C 0.56853 0.26527 0.66724 0.0
C844 C 0.57168 0.26781 0.64898 0.0
H845 H 0.63683 0.32133 0.59234 0.0
H846 H 0.61272 0.31302 0.61454 0.0
H847 H 0.60402 0.24264 0.6193 0.0
H848 H 0.60877 0.24829 0.70873 0.0
H849 H 0.61002 0.24725 0.67746 0.0
C850 C 0.75833 0.89528 0.84956 0.0
C851 C 0.74154 0.91492 0.84651 0.0
C852 C 0.75901 0.8824 0.86419 0.0
C853 C 0.74218 0.88506 0.90886 0.0
H854 H 0.74599 0.82219 0.9045 0.0
C855 C 0.71721 0.83384 0.96217 0.0
C856 C 0.73379 0.81475 0.96814 0.0
C857 C 0.71991 0.84465 0.94737 0.0
C858 C 0.74527 0.83973 0.90608 0.0
H859 H 0.71257 0.93611 0.85722 0.0
H860 H 0.71322 0.91376 0.88213 0.0
H861 H 0.74698 0.84361 0.87902 0.0
H862 H 0.76586 0.79181 0.96241 0.0
H863 H 0.77075 0.81081 0.93624 0.0
H864 H 0.74029 0.88133 0.93576 0.0
C865 C 0.72627 0.90829 0.87335 0.0
C866 C 0.74583 0.85213 0.89138 0.0
C867 C 0.72555 0.92112 0.85875 0.0
C868 C 0.7528 0.80646 0.95831 0.0
C869 C 0.75549 0.81739 0.94325 0.0
C870 C 0.74157 0.87274 0.92345 0.0
C871 C 0.74305 0.88866 0.87645 0.0
C872 C 0.74384 0.87509 0.89238 0.0
C873 C 0.7394 0.83696 0.93773 0.0
C874 C 0.74259 0.84982 0.92231 0.0
H875 H 0.77073 0.88959 0.84048 0.0
H876 H 0.77244 0.86761 0.866 0.0
H877 H 0.7415 0.90258 0.91062 0.0
H878 H 0.70209 0.84078 0.96915 0.0
H879 H 0.70646 0.8592 0.94346 0.0
C880 C 0.19107 0.27043 0.05039 0.0
C881 C 0.21746 0.27748 0.0482 0.0
C882 C 0.18697 0.27097 0.06747 0.0
C883 C 0.21403 0.29708 0.11327 0.0
H884 H 0.16848 0.25242 0.12489 0.0
C885 C 0.16316 0.30835 0.17205 0.0
C886 C 0.16091 0.29018 0.18164 0.0
C887 C 0.17323 0.306 0.15687 0.0
C888 C 0.18162 0.26489 0.12204 0.0
H889 H 0.2605 0.29032 0.06216 0.0
H890 H 0.25362 0.29092 0.09222 0.0
H891 H 0.181 0.24912 0.0967 0.0
H892 H 0.16833 0.25537 0.18316 0.0
H893 H 0.18648 0.25125 0.15683 0.0
H894 H 0.21513 0.31263 0.13879 0.0
C895 C 0.23585 0.28531 0.08066 0.0
C896 C 0.18844 0.26315 0.1057 0.0
C897 C 0.23988 0.28488 0.06348 0.0
C898 C 0.16951 0.26963 0.17591 0.0
C899 C 0.17983 0.26729 0.16079 0.0
C900 C 0.20738 0.29874 0.12968 0.0
C901 C 0.20927 0.27842 0.08285 0.0
C902 C 0.20427 0.27941 0.10094 0.0
C903 C 0.18152 0.28542 0.15095 0.0
C904 C 0.19065 0.28285 0.13415 0.0
H905 H 0.17336 0.26468 0.03885 0.0
H906 H 0.16601 0.26594 0.06854 0.0
H907 H 0.22609 0.30998 0.11003 0.0
H908 H 0.15626 0.32435 0.17597 0.0
H909 H 0.17365 0.32028 0.14946 0.0
C910 C 0.74764 0.41984 0.36188 0.0
C911 C 0.73853 0.41087 0.34401 0.0
C912 C 0.7483 0.40742 0.37674 0.0
C913 C 0.71995 0.35608 0.38938 0.0
H914 H 0.78204 0.36568 0.43439 0.0
C915 C 0.73487 0.30231 0.45234 0.0
C916 C 0.74368 0.31301 0.46955 0.0
C917 C 0.73458 0.31317 0.43666 0.0
C918 C 0.76424 0.36284 0.42205 0.0
H919 H 0.72213 0.38141 0.32821 0.0
H920 H 0.72376 0.3599 0.35388 0.0
H921 H 0.78032 0.38667 0.40849 0.0
H922 H 0.7595 0.34359 0.48351 0.0
H923 H 0.75869 0.36224 0.45671 0.0
H924 H 0.70388 0.33223 0.40305 0.0
C925 C 0.73031 0.37665 0.35648 0.0
C926 C 0.76324 0.37503 0.40705 0.0
C927 C 0.72974 0.38904 0.34164 0.0
C928 C 0.75251 0.33469 0.47057 0.0
C929 C 0.75229 0.34544 0.45506 0.0
C930 C 0.72094 0.34387 0.40443 0.0
C931 C 0.73977 0.38552 0.37437 0.0
C932 C 0.74095 0.37206 0.39042 0.0
C933 C 0.74331 0.33501 0.43774 0.0
C934 C 0.74295 0.34715 0.42115 0.0
H935 H 0.75485 0.43643 0.3645 0.0
H936 H 0.75535 0.41516 0.39015 0.0
H937 H 0.70218 0.35329 0.37701 0.0
H938 H 0.72803 0.28562 0.45096 0.0
H939 H 0.72777 0.30435 0.42369 0.0
C940 C 0.55455 0.99109 0.56646 0.0
C941 C 0.54626 0.01132 0.55873 0.0
C942 C 0.56973 0.98981 0.58486 0.0
C943 C 0.58815 0.02175 0.62871 0.0
H944 H 0.65289 0.9796 0.64298 0.0
C945 C 0.67781 0.02863 0.69723 0.0
C946 C 0.68882 0.00981 0.70676 0.0
C947 C 0.65819 0.02726 0.67981 0.0
C948 C 0.63458 0.99121 0.63928 0.0
H949 H 0.54686 0.0461 0.56428 0.0
H950 H 0.5738 0.04397 0.59642 0.0
H951 H 0.62321 0.98068 0.61135 0.0
H952 H 0.68738 0.9747 0.70535 0.0
H953 H 0.6529 0.97227 0.67455 0.0
H954 H 0.59998 0.03259 0.65659 0.0
C955 C 0.56829 0.02902 0.58831 0.0
C956 C 0.61754 0.99187 0.62111 0.0
C957 C 0.553 0.03029 0.56987 0.0
C958 C 0.67932 0.98949 0.6984 0.0
C959 C 0.65971 0.98811 0.68075 0.0
C960 C 0.60523 0.02112 0.64684 0.0
C961 C 0.57708 0.00875 0.59603 0.0
C962 C 0.59433 0.00735 0.61553 0.0
C963 C 0.64895 0.00704 0.67126 0.0
C964 C 0.62895 0.00607 0.65232 0.0
H965 H 0.54945 0.97617 0.55825 0.0
H966 H 0.57562 0.97393 0.59034 0.0
H967 H 0.5701 0.03357 0.62503 0.0
H968 H 0.68446 0.04461 0.70318 0.0
H969 H 0.65077 0.04215 0.67286 0.0
C970 C 0.02132 0.89978 0.91161 0.0
C971 C 0.04689 0.9109 0.92134 0.0
C972 C 0.02149 0.88568 0.89686 0.0
C973 C 0.06082 0.87632 0.86282 0.0
H974 H 0.02101 0.82138 0.85265 0.0
C975 C 0.06682 0.82124 0.80204 0.0
C976 C 0.04021 0.81222 0.79133 0.0
C977 C 0.069 0.83079 0.81911 0.0
C978 C 0.03206 0.83675 0.85525 0.0
H979 H 0.09279 0.91569 0.92329 0.0
H980 H 0.09321 0.89089 0.89789 0.0
H981 H 0.02188 0.84293 0.88024 0.0
H982 H 0.99541 0.80527 0.79061 0.0
H983 H 0.99905 0.82228 0.82023 0.0
H984 H 0.07052 0.87055 0.8378 0.0
C985 C 0.07294 0.89319 0.90153 0.0
C986 C 0.03255 0.84908 0.87104 0.0
C987 C 0.07278 0.90722 0.91624 0.0
C988 C 0.01624 0.8121 0.79846 0.0
C989 C 0.01837 0.82177 0.81551 0.0
C990 C 0.06027 0.86408 0.84707 0.0
C991 C 0.0472 0.88251 0.8915 0.0
C992 C 0.04695 0.86902 0.87498 0.0
C993 C 0.04457 0.83169 0.82587 0.0
C994 C 0.04589 0.84414 0.84306 0.0
H995 H 1.0011 0.90209 0.9153 0.0
H996 H 0.00125 0.87778 0.88933 0.0
H997 H 0.07157 0.89182 0.86525 0.0
H998 H 0.08584 0.8214 0.79708 0.0
H999 H 0.08973 0.83783 0.82691 0.0
C1000 C 0.07627 0.07054 0.99094 0.0
C1001 C 0.06834 0.06775 0.00668 0.0
C1002 C 0.09526 0.08702 0.99041 0.0
C1003 C 0.12652 0.13829 0.01508 0.0
H1004 H 0.18078 0.13042 0.98636 0.0
C1005 C 0.21927 0.19736 0.02042 0.0
C1006 C 0.2168 0.20732 0.00417 0.0
C1007 C 0.20308 0.17902 0.02043 0.0
C1008 C 0.16566 0.13275 0.99439 0.0
H1009 H 0.07462 0.07948 0.03439 0.0
H1010 H 0.10876 0.1075 0.03383 0.0
H1011 H 0.14866 0.10087 0.98737 0.0
H1012 H 0.19677 0.20527 0.9751 0.0
H1013 H 0.16897 0.17267 0.97512 0.0
H1014 H 0.14442 0.16992 0.02253 0.0
C1015 C 0.09953 0.09763 0.0216 0.0
C1016 C 0.1471 0.11594 0.9949 0.0
C1017 C 0.08008 0.08147 0.02198 0.0
C1018 C 0.19901 0.19794 0.98782 0.0
C1019 C 0.18323 0.17931 0.98781 0.0
C1020 C 0.14547 0.15486 0.01485 0.0
C1021 C 0.10719 0.10079 0.00575 0.0
C1022 C 0.12721 0.11852 0.00523 0.0
C1023 C 0.18459 0.17009 0.00417 0.0
C1024 C 0.16511 0.15223 0.00449 0.0
H1025 H 0.06735 0.06025 0.9789 0.0
H1026 H 0.10015 0.08915 0.97787 0.0
H1027 H 0.11106 0.14118 0.02281 0.0
H1028 H 0.23262 0.20428 0.03326 0.0
H1029 H 0.20449 0.17208 0.03319 0.0
C1030 C 0.66663 0.55502 0.27969 0.0
C1031 C 0.68986 0.55641 0.27208 0.0
C1032 C 0.64763 0.5728 0.2803 0.0
C1033 C 0.59898 0.60696 0.26938 0.0
H1034 H 0.62506 0.66611 0.28118 0.0
C1035 C 0.51443 0.67824 0.26291 0.0
C1036 C 0.52006 0.69499 0.27645 0.0
C1037 C 0.53629 0.66261 0.26204 0.0
C1038 C 0.6174 0.64967 0.27796 0.0
H1039 H 0.71168 0.57806 0.25951 0.0
H1040 H 0.67821 0.6094 0.26045 0.0
H1041 H 0.66118 0.6367 0.28045 0.0
H1042 H 0.55353 0.70856 0.2996 0.0
H1043 H 0.59188 0.68108 0.29821 0.0
H1044 H 0.55548 0.61956 0.2672 0.0
C1045 C 0.67485 0.59438 0.26605 0.0
C1046 C 0.63812 0.63281 0.27734 0.0
C1047 C 0.694 0.5764 0.26542 0.0
C1048 C 0.54846 0.6959 0.28897 0.0
C1049 C 0.57048 0.68017 0.2881 0.0
C1050 C 0.57838 0.62371 0.26993 0.0
C1051 C 0.65105 0.5927 0.27326 0.0
C1052 C 0.62923 0.61114 0.27319 0.0
C1053 C 0.56459 0.66309 0.27474 0.0
C1054 C 0.58716 0.64536 0.27425 0.0
H1055 H 0.66284 0.53999 0.28512 0.0
H1056 H 0.63013 0.57088 0.28635 0.0
H1057 H 0.59106 0.59062 0.26588 0.0
H1058 H 0.49294 0.67712 0.25291 0.0
H1059 H 0.53092 0.65009 0.25131 0.0
C1060 C 0.321 0.83541 0.53011 0.0
C1061 C 0.29295 0.83302 0.51744 0.0
C1062 C 0.33717 0.85398 0.53071 0.0
C1063 C 0.34468 0.89676 0.5015 0.0
H1064 H 0.39408 0.92331 0.54622 0.0
C1065 C 0.42261 0.97614 0.52733 0.0
C1066 C 0.43864 0.97477 0.51471 0.0
C1067 C 0.40409 0.95946 0.52811 0.0
C1068 C 0.38022 0.91619 0.53362 0.0
H1069 H 0.2593 0.84885 0.49613 0.0
H1070 H 0.28744 0.88129 0.4973 0.0
H1071 H 0.36173 0.89401 0.54726 0.0
H1072 H 0.44794 0.95465 0.49311 0.0
H1073 H 0.41579 0.92549 0.49458 0.0
H1074 H 0.363 0.91899 0.48785 0.0
C1075 C 0.29712 0.8686 0.50653 0.0
C1076 C 0.36189 0.89928 0.53422 0.0
C1077 C 0.28093 0.85004 0.50594 0.0
C1078 C 0.43586 0.95627 0.50296 0.0
C1079 C 0.41728 0.93961 0.50372 0.0
C1080 C 0.36305 0.91361 0.5009 0.0
C1081 C 0.32567 0.87058 0.51868 0.0
C1082 C 0.34403 0.8893 0.51816 0.0
C1083 C 0.40112 0.94105 0.51627 0.0
C1084 C 0.38117 0.92343 0.51695 0.0
H1085 H 0.33095 0.82263 0.53918 0.0
H1086 H 0.35919 0.85492 0.54014 0.0
H1087 H 0.33146 0.88925 0.48888 0.0
H1088 H 0.4242 0.99017 0.53657 0.0
H1089 H 0.39172 0.96116 0.5378 0.0
C1090 C 0.09324 0.7377 0.75178 0.0
C1091 C 0.07005 0.73819 0.73551 0.0
C1092 C 0.11404 0.72037 0.75498 0.0
C1093 C 0.14729 0.67586 0.7331 0.0
H1094 H 0.15583 0.64524 0.77667 0.0
C1095 C 0.20306 0.58986 0.74338 0.0
C1096 C 0.21592 0.58286 0.76101 0.0
C1097 C 0.18828 0.61014 0.74046 0.0
C1098 C 0.15445 0.65373 0.76461 0.0
H1099 H 0.05141 0.72157 0.70948 0.0
H1100 H 0.08824 0.69178 0.71479 0.0
H1101 H 0.126 0.67857 0.77133 0.0
H1102 H 0.22481 0.59213 0.78939 0.0
H1103 H 0.20082 0.62787 0.78446 0.0
H1104 H 0.17615 0.65145 0.72645 0.0
C1105 C 0.09014 0.70458 0.72518 0.0
C1106 C 0.13709 0.67289 0.76152 0.0
C1107 C 0.069 0.72161 0.72216 0.0
C1108 C 0.21493 0.59702 0.77564 0.0
C1109 C 0.20075 0.61747 0.77275 0.0
C1110 C 0.16517 0.65691 0.73634 0.0
C1111 C 0.11251 0.70345 0.74179 0.0
C1112 C 0.13296 0.68405 0.74563 0.0
C1113 C 0.18645 0.62422 0.75511 0.0
C1114 C 0.16878 0.6453 0.75205 0.0
H1115 H 0.09458 0.75021 0.76234 0.0
H1116 H 0.13113 0.72004 0.76786 0.0
H1117 H 0.14472 0.68418 0.72077 0.0
H1118 H 0.20321 0.57924 0.73181 0.0
H1119 H 0.17737 0.61433 0.72666 0.0
C1120 C 0.84577 0.31121 0.51697 0.0
C1121 C 0.82618 0.31281 0.52749 0.0
C1122 C 0.86495 0.32798 0.51756 0.0
C1123 C 0.87057 0.3869 0.52764 0.0
H1124 H 0.94826 0.37792 0.52131 0.0
C1125 C 0.94526 0.45823 0.52765 0.0
C1126 C 0.96022 0.45727 0.51447 0.0
C1127 C 0.9305 0.44024 0.53038 0.0
C1128 C 0.9265 0.38067 0.52294 0.0
H1129 H 0.81281 0.33268 0.54777 0.0
H1130 H 0.84677 0.36178 0.54909 0.0
H1131 H 0.92114 0.3468 0.52537 0.0
H1132 H 0.97141 0.4365 0.49386 0.0
H1133 H 0.94541 0.40507 0.49857 0.0
H1134 H 0.8758 0.42071 0.52507 0.0
C1135 C 0.84678 0.34774 0.54006 0.0
C1136 C 0.91097 0.36285 0.5253 0.0
C1137 C 0.82751 0.33096 0.53944 0.0
C1138 C 0.96011 0.43782 0.50411 0.0
C1139 C 0.94539 0.41975 0.5069 0.0
C1140 C 0.88612 0.4047 0.52534 0.0
C1141 C 0.86512 0.34674 0.52874 0.0
C1142 C 0.88271 0.36573 0.52756 0.0
C1143 C 0.93035 0.42078 0.52005 0.0
C1144 C 0.91418 0.4018 0.52284 0.0
H1145 H 0.8454 0.29745 0.50762 0.0
H1146 H 0.87856 0.32668 0.50856 0.0
H1147 H 0.84863 0.38972 0.52895 0.0
H1148 H 0.94494 0.4729 0.53594 0.0
H1149 H 0.91945 0.4415 0.54076 0.0
C1150 C 0.29659 0.95361 0.25868 0.0
C1151 C 0.31123 0.97149 0.25522 0.0
C1152 C 0.31088 0.93297 0.26123 0.0
C1153 C 0.3864 0.9079 0.27466 0.0
H1154 H 0.35058 0.8546 0.25086 0.0
C1155 C 0.45853 0.83276 0.26892 0.0
C1156 C 0.44946 0.81202 0.27121 0.0
C1157 C 0.4394 0.85087 0.26751 0.0
C1158 C 0.36081 0.86928 0.25782 0.0
H1159 H 0.35206 0.98148 0.25134 0.0
H1160 H 0.37663 0.94608 0.25581 0.0
H1161 H 0.32099 0.88862 0.24766 0.0
H1162 H 0.41266 0.794 0.27347 0.0
H1163 H 0.3789 0.82591 0.27108 0.0
H1164 H 0.4261 0.88896 0.28478 0.0
C1165 C 0.35435 0.94781 0.25679 0.0
C1166 C 0.34382 0.8888 0.25598 0.0
C1167 C 0.34012 0.96817 0.25411 0.0
C1168 C 0.42032 0.80977 0.27168 0.0
C1169 C 0.40098 0.82806 0.27027 0.0
C1170 C 0.40323 0.88853 0.27655 0.0
C1171 C 0.34018 0.92991 0.26057 0.0
C1172 C 0.35665 0.90849 0.26401 0.0
C1173 C 0.41047 0.84897 0.26845 0.0
C1174 C 0.39102 0.86899 0.26778 0.0
H1175 H 0.27423 0.95557 0.25944 0.0
H1176 H 0.29925 0.91955 0.26409 0.0
H1177 H 0.3969 0.92259 0.28143 0.0
H1178 H 0.4807 0.83512 0.26834 0.0
H1179 H 0.44743 0.86648 0.26566 0.0
C1180 C 0.30074 0.45562 0.7749 0.0
C1181 C 0.2871 0.46258 0.75734 0.0
C1182 C 0.31586 0.43544 0.77761 0.0
C1183 C 0.34919 0.3924 0.7527 0.0
H1184 H 0.36148 0.36167 0.79667 0.0
C1185 C 0.41248 0.30912 0.76448 0.0
C1186 C 0.43612 0.30876 0.78053 0.0
C1187 C 0.39128 0.32619 0.76162 0.0
C1188 C 0.3582 0.37007 0.7843 0.0
H1189 H 0.27717 0.45335 0.7289 0.0
H1190 H 0.30174 0.4178 0.73348 0.0
H1191 H 0.32939 0.3941 0.79151 0.0
H1192 H 0.45517 0.3253 0.80655 0.0
H1193 H 0.41771 0.35463 0.80183 0.0
H1194 H 0.37761 0.36795 0.74543 0.0
C1195 C 0.30216 0.42814 0.74528 0.0
C1196 C 0.33993 0.38884 0.78136 0.0
C1197 C 0.28764 0.44849 0.7426 0.0
C1198 C 0.43724 0.32517 0.79402 0.0
C1199 C 0.41574 0.34194 0.79134 0.0
C1200 C 0.36694 0.37341 0.7555 0.0
C1201 C 0.31728 0.42145 0.76282 0.0
C1202 C 0.33538 0.40055 0.7656 0.0
C1203 C 0.39288 0.34297 0.77494 0.0
C1204 C 0.37199 0.36215 0.77142 0.0
H1205 H 0.30096 0.46621 0.78655 0.0
H1206 H 0.32738 0.43128 0.79134 0.0
H1207 H 0.3471 0.40097 0.74058 0.0
H1208 H 0.41106 0.29673 0.75382 0.0
H1209 H 0.37383 0.32645 0.74889 0.0
C1210 C 0.24702 0.77787 0.56454 0.0
C1211 C 0.22281 0.7715 0.54991 0.0
C1212 C 0.24536 0.77787 0.58226 0.0
C1213 C 0.20051 0.75763 0.60985 0.0
H1214 H 0.22966 0.80816 0.64109 0.0
C1215 C 0.18058 0.77046 0.67955 0.0
C1216 C 0.17185 0.79162 0.68382 0.0
C1217 C 0.19196 0.76642 0.66497 0.0
C1218 C 0.22133 0.79395 0.63252 0.0
H1219 H 0.17829 0.75952 0.54229 0.0
H1220 H 0.1751 0.75994 0.57294 0.0
H1221 H 0.23943 0.80343 0.61204 0.0
H1222 H 0.1683 0.82511 0.67618 0.0
H1223 H 0.18761 0.81808 0.65069 0.0
H1224 H 0.18092 0.74879 0.62982 0.0
C1225 C 0.19559 0.76461 0.57094 0.0
C1226 C 0.22729 0.79108 0.61595 0.0
C1227 C 0.1973 0.76455 0.55331 0.0
C1228 C 0.17529 0.80868 0.67344 0.0
C1229 C 0.18646 0.80464 0.65882 0.0
C1230 C 0.19438 0.76057 0.62635 0.0
C1231 C 0.21944 0.77149 0.58565 0.0
C1232 C 0.21636 0.77314 0.60421 0.0
C1233 C 0.19465 0.78342 0.65425 0.0
C1234 C 0.20414 0.77903 0.63773 0.0
H1235 H 0.26704 0.78318 0.56228 0.0
H1236 H 0.26428 0.78301 0.59329 0.0
H1237 H 0.1922 0.74341 0.6013 0.0
H1238 H 0.17847 0.75702 0.68743 0.0
H1239 H 0.19846 0.74993 0.66202 0.0
C1240 C 0.15074 0.96439 0.34272 0.0
C1241 C 0.17618 0.97454 0.34188 0.0
C1242 C 0.14437 0.96387 0.35911 0.0
C1243 C 0.13248 0.96677 0.39532 0.0
H1244 H 0.20235 0.94417 0.43048 0.0
C1245 C 0.17435 0.90865 0.46085 0.0
C1246 C 0.15491 0.89175 0.45321 0.0
C1247 C 0.17251 0.92784 0.45179 0.0
C1248 C 0.18263 0.95106 0.42121 0.0
H1249 H 0.21329 0.99393 0.35708 0.0
H1250 H 0.20222 0.99296 0.38578 0.0
H1251 H 0.20741 0.96242 0.40491 0.0
H1252 H 0.11674 0.88241 0.43094 0.0
H1253 H 0.11378 0.9155 0.41507 0.0
H1254 H 0.10761 0.954 0.41117 0.0
C1255 C 0.1875 0.98509 0.37384 0.0
C1256 C 0.18555 0.96156 0.40644 0.0
C1257 C 0.19391 0.98554 0.35745 0.0
C1258 C 0.13196 0.89517 0.43723 0.0
C1259 C 0.1302 0.91427 0.42815 0.0
C1260 C 0.12955 0.95629 0.41017 0.0
C1261 C 0.16328 0.97355 0.37498 0.0
C1262 C 0.16041 0.96842 0.39281 0.0
C1263 C 0.15133 0.93038 0.43488 0.0
C1264 C 0.1545 0.94721 0.4227 0.0
H1265 H 0.13673 0.95571 0.33095 0.0
H1266 H 0.12577 0.95458 0.35954 0.0
H1267 H 0.11275 0.97234 0.38522 0.0
H1268 H 0.19189 0.90661 0.47337 0.0
H1269 H 0.18876 0.94013 0.4575 0.0
C1270 C 0.97493 0.77286 0.66698 0.0
C1271 C 0.00392 0.77702 0.67775 0.0
C1272 C 0.96981 0.76065 0.65068 0.0
C1273 C 0.00579 0.73506 0.6176 0.0
H1274 H 0.95042 0.6895 0.61446 0.0
C1275 C 0.0092 0.65202 0.58 0.0
C1276 C 0.98245 0.6417 0.5714 0.0
C1277 C 0.00946 0.6718 0.58974 0.0
C1278 C 0.96553 0.70232 0.61486 0.0
H1279 H 0.05019 0.77303 0.67914 0.0
H1280 H 0.04127 0.75146 0.65094 0.0
H1281 H 0.9548 0.71907 0.63696 0.0
H1282 H 0.93487 0.64454 0.56572 0.0
H1283 H 0.93529 0.67922 0.58242 0.0
H1284 H 0.01723 0.71765 0.59585 0.0
C1285 C 0.02243 0.75778 0.65495 0.0
C1286 C 0.96802 0.71936 0.62778 0.0
C1287 C 0.02756 0.77012 0.6712 0.0
C1288 C 0.95586 0.6521 0.57209 0.0
C1289 C 0.95611 0.67187 0.58182 0.0
C1290 C 0.00333 0.71793 0.60467 0.0
C1291 C 0.99355 0.7522 0.64484 0.0
C1292 C 0.98854 0.73575 0.62954 0.0
C1293 C 0.98295 0.68171 0.5911 0.0
C1294 C 0.98352 0.70117 0.60337 0.0
H1295 H 0.9562 0.77817 0.67153 0.0
H1296 H 0.94725 0.75708 0.643 0.0
H1297 H 0.02155 0.74756 0.61845 0.0
H1298 H 0.03004 0.64457 0.57953 0.0
H1299 H 0.03054 0.67885 0.59683 0.0
C1300 C 0.3008 0.7811 0.46119 0.0
C1301 C 0.27654 0.77138 0.46413 0.0
C1302 C 0.30358 0.78144 0.44383 0.0
C1303 C 0.28145 0.75169 0.39984 0.0
H1304 H 0.31744 0.79994 0.3852 0.0
C1305 C 0.3107 0.74913 0.33241 0.0
C1306 C 0.33939 0.75574 0.33392 0.0
C1307 C 0.29871 0.75301 0.34675 0.0
C1308 C 0.30741 0.78632 0.3891 0.0
H1309 H 0.23554 0.75506 0.45118 0.0
H1310 H 0.24034 0.75567 0.42059 0.0
H1311 H 0.30318 0.80357 0.41293 0.0
H1312 H 0.37784 0.77175 0.3518 0.0
H1313 H 0.35682 0.77874 0.3766 0.0
H1314 H 0.28628 0.73431 0.37617 0.0
C1315 C 0.25738 0.76284 0.43181 0.0
C1316 C 0.29924 0.78839 0.40499 0.0
C1317 C 0.25454 0.76258 0.44927 0.0
C1318 C 0.35549 0.76678 0.34998 0.0
C1319 C 0.34345 0.77076 0.36424 0.0
C1320 C 0.28954 0.74965 0.38389 0.0
C1321 C 0.28215 0.77207 0.42894 0.0
C1322 C 0.28687 0.77091 0.4108 0.0
C1323 C 0.31505 0.76373 0.36288 0.0
C1324 C 0.30329 0.76676 0.3786 0.0
H1325 H 0.31807 0.78808 0.47239 0.0
H1326 H 0.32315 0.78839 0.44221 0.0
H1327 H 0.27226 0.73784 0.404 0.0
H1328 H 0.29748 0.74089 0.32014 0.0
H1329 H 0.27664 0.74761 0.34522 0.0
C1330 C 0.36317 0.07749 0.1779 0.0
C1331 C 0.33836 0.06606 0.17814 0.0
C1332 C 0.37003 0.07918 0.16178 0.0
C1333 C 0.38298 0.07966 0.12609 0.0
H1334 H 0.31187 0.10036 0.09082 0.0
C1335 C 0.33774 0.14063 0.06271 0.0
C1336 C 0.35443 0.15852 0.0715 0.0
C1337 C 0.34128 0.12076 0.071 0.0
C1338 C 0.332 0.09406 0.10013 0.0
H1339 H 0.30308 0.04557 0.16214 0.0
H1340 H 0.31506 0.04854 0.1339 0.0
H1341 H 0.30785 0.07956 0.11539 0.0
H1342 H 0.38969 0.16904 0.09514 0.0
H1343 H 0.39578 0.13465 0.10956 0.0
H1344 H 0.40704 0.09574 0.11142 0.0
C1345 C 0.32887 0.05653 0.14611 0.0
C1346 C 0.32968 0.08207 0.11431 0.0
C1347 C 0.32194 0.05491 0.16224 0.0
C1348 C 0.37658 0.15557 0.08794 0.0
C1349 C 0.38015 0.13575 0.0962 0.0
C1350 C 0.3853 0.0917 0.11188 0.0
C1351 C 0.35226 0.06942 0.14555 0.0
C1352 C 0.35512 0.07587 0.12803 0.0
C1353 C 0.36161 0.11844 0.08822 0.0
C1354 C 0.3598 0.10012 0.09939 0.0
H1355 H 0.37616 0.08632 0.18992 0.0
H1356 H 0.38796 0.08949 0.16183 0.0
H1357 H 0.40299 0.07464 0.13624 0.0
H1358 H 0.32096 0.14227 0.04982 0.0
H1359 H 0.32699 0.1076 0.06441 0.0
C1360 C 0.84374 0.73889 0.91406 0.0
C1361 C 0.85428 0.75011 0.93087 0.0
C1362 C 0.85548 0.74249 0.90011 0.0
C1363 C 0.89366 0.78257 0.88302 0.0
H1364 H 0.90209 0.73371 0.85107 0.0
C1365 C 0.93167 0.78517 0.81774 0.0
C1366 C 0.91159 0.77515 0.80247 0.0
C1367 C 0.9281 0.78387 0.83489 0.0
C1368 C 0.89995 0.74747 0.85994 0.0
H1369 H 0.88544 0.77391 0.9463 0.0
H1370 H 0.90609 0.78028 0.92168 0.0
H1371 H 0.8916 0.72722 0.87918 0.0
H1372 H 0.87101 0.75724 0.7931 0.0
H1373 H 0.86537 0.75448 0.82308 0.0
H1374 H 0.90183 0.80275 0.86344 0.0
C1375 C 0.88861 0.76876 0.91938 0.0
C1376 C 0.89389 0.74379 0.87597 0.0
C1377 C 0.8768 0.76513 0.93343 0.0
C1378 C 0.88722 0.76468 0.80462 0.0
C1379 C 0.88393 0.76315 0.82173 0.0
C1380 C 0.90007 0.78623 0.86698 0.0
C1381 C 0.87808 0.75739 0.9026 0.0
C1382 C 0.88957 0.76132 0.88734 0.0
C1383 C 0.90466 0.77231 0.837 0.0
C1384 C 0.90221 0.76871 0.85508 0.0
H1385 H 0.82591 0.72761 0.91153 0.0
H1386 H 0.84632 0.7339 0.88718 0.0
H1387 H 0.89037 0.79639 0.8915 0.0
H1388 H 0.95086 0.79316 0.81659 0.0
H1389 H 0.94431 0.79105 0.84655 0.0
C1390 C 0.32453 0.5446 0.66266 0.0
C1391 C 0.34331 0.55428 0.67857 0.0
C1392 C 0.32733 0.549 0.6458 0.0
C1393 C 0.32144 0.57894 0.61521 0.0
H1394 H 0.39507 0.59108 0.60613 0.0
C1395 C 0.36576 0.64965 0.58171 0.0
C1396 C 0.34168 0.65266 0.56621 0.0
C1397 C 0.3687 0.63079 0.59124 0.0
C1398 C 0.3743 0.58764 0.6084 0.0
H1399 H 0.38092 0.57504 0.68933 0.0
H1400 H 0.38583 0.58267 0.66 0.0
H1401 H 0.3957 0.56926 0.63156 0.0
H1402 H 0.30313 0.63755 0.54769 0.0
H1403 H 0.30828 0.60448 0.56441 0.0
H1404 H 0.30014 0.59848 0.59295 0.0
C1405 C 0.3691 0.57152 0.66052 0.0
C1406 C 0.37468 0.57513 0.62292 0.0
C1407 C 0.36624 0.5672 0.67735 0.0
C1408 C 0.32162 0.63582 0.55979 0.0
C1409 C 0.32461 0.61689 0.56933 0.0
C1410 C 0.32107 0.59152 0.60077 0.0
C1411 C 0.34906 0.56306 0.64455 0.0
C1412 C 0.34837 0.57148 0.62692 0.0
C1413 C 0.34766 0.61449 0.58549 0.0
C1414 C 0.34762 0.59685 0.59771 0.0
H1415 H 0.30707 0.53416 0.66319 0.0
H1416 H 0.31181 0.54205 0.63372 0.0
H1417 H 0.30081 0.57658 0.61802 0.0
H1418 H 0.38141 0.6624 0.58712 0.0
H1419 H 0.38644 0.6297 0.60379 0.0
C1420 C 0.31896 0.05113 0.32261 0.0
C1421 C 0.30524 0.03138 0.31573 0.0
C1422 C 0.33604 0.05356 0.34077 0.0
C1423 C 0.38002 0.02219 0.37882 0.0
H1424 H 0.36673 0.07097 0.40938 0.0
C1425 C 0.43133 0.02342 0.45627 0.0
C1426 C 0.43924 0.04337 0.46576 0.0
C1427 C 0.41618 0.02271 0.43778 0.0
C1428 C 0.37119 0.05742 0.40101 0.0
H1429 H 0.29887 0.99869 0.32264 0.0
H1430 H 0.32893 1.00288 0.35406 0.0
H1431 H 0.33838 0.06873 0.37742 0.0
H1432 H 0.43828 0.07818 0.4633 0.0
H1433 H 0.41274 0.07698 0.43088 0.0
H1434 H 0.41313 0.01097 0.40211 0.0
C1435 C 0.32642 0.01649 0.34544 0.0
C1436 C 0.3548 0.05614 0.38269 0.0
C1437 C 0.30902 0.01416 0.32743 0.0
C1438 C 0.43223 0.06258 0.45633 0.0
C1439 C 0.41739 0.06187 0.43776 0.0
C1440 C 0.39669 0.02361 0.39705 0.0
C1441 C 0.34016 0.03617 0.35231 0.0
C1442 C 0.35876 0.03835 0.37147 0.0
C1443 C 0.40893 0.04192 0.42822 0.0
C1444 C 0.39224 0.04108 0.40851 0.0
H1445 H 0.31646 0.06473 0.31399 0.0
H1446 H 0.34646 0.06891 0.3457 0.0
H1447 H 0.38384 0.00844 0.37042 0.0
H1448 H 0.43638 0.00834 0.46321 0.0
H1449 H 0.40966 0.00705 0.43109 0.0
C1450 C 0.84172 0.81774 0.01655 0.0
C1451 C 0.8204 0.81987 0.02584 0.0
C1452 C 0.86067 0.83465 0.0172 0.0
C1453 C 0.86371 0.89396 0.02446 0.0
H1454 H 0.94402 0.88473 0.02251 0.0
C1455 C 0.93965 0.96454 0.024 0.0
C1456 C 0.95618 0.96221 0.01167 0.0
C1457 C 0.92408 0.94712 0.02695 0.0
C1458 C 0.92155 0.88752 0.02292 0.0
H1459 H 0.80354 0.84098 0.04401 0.0
H1460 H 0.83706 0.87035 0.04541 0.0
H1461 H 0.91651 0.85405 0.02694 0.0
H1462 H 0.96914 0.93978 0.99268 0.0
H1463 H 0.94181 0.9094 0.99781 0.0
H1464 H 0.86872 0.92741 0.02035 0.0
C1465 C 0.83863 0.85575 0.03729 0.0
C1466 C 0.90581 0.86997 0.02548 0.0
C1467 C 0.81958 0.83884 0.0366 0.0
C1468 C 0.95661 0.94213 0.00226 0.0
C1469 C 0.94116 0.92467 0.0053 0.0
C1470 C 0.8795 0.91151 0.02199 0.0
C1471 C 0.85887 0.85407 0.02721 0.0
C1472 C 0.87658 0.87294 0.02607 0.0
C1473 C 0.92482 0.92697 0.01773 0.0
C1474 C 0.90846 0.90844 0.02099 0.0
H1475 H 0.84302 0.80338 0.0081 0.0
H1476 H 0.87577 0.83286 0.00913 0.0
H1477 H 0.84107 0.89678 0.02451 0.0
H1478 H 0.93887 0.97977 0.0315 0.0
H1479 H 0.91186 0.94934 0.03671 0.0
C1480 C 0.65379 0.23283 0.50359 0.0
C1481 C 0.67405 0.23067 0.49355 0.0
C1482 C 0.63517 0.21591 0.50356 0.0
C1483 C 0.60499 0.164 0.48061 0.0
H1484 H 0.60496 0.1502 0.52875 0.0
C1485 C 0.55981 0.08352 0.49532 0.0
C1486 C 0.54398 0.0845 0.50804 0.0
C1487 C 0.57454 0.10167 0.49275 0.0
C1488 C 0.60433 0.15397 0.51518 0.0
H1489 H 0.6892 0.20957 0.47464 0.0
H1490 H 0.65655 0.18 0.47458 0.0
H1491 H 0.63079 0.18184 0.52476 0.0
H1492 H 0.53103 0.10546 0.52792 0.0
H1493 H 0.55628 0.13709 0.52328 0.0
H1494 H 0.57851 0.13603 0.47105 0.0
C1495 C 0.65511 0.19482 0.48247 0.0
C1496 C 0.61915 0.17214 0.51288 0.0
C1497 C 0.67383 0.21178 0.48251 0.0
C1498 C 0.54321 0.10404 0.51812 0.0
C1499 C 0.55781 0.1222 0.5155 0.0
C1500 C 0.59001 0.14582 0.48289 0.0
C1501 C 0.63631 0.19643 0.49348 0.0
C1502 C 0.61965 0.1774 0.49559 0.0
C1503 C 0.57369 0.12125 0.5028 0.0
C1504 C 0.58951 0.14058 0.50022 0.0
H1505 H 0.6532 0.24722 0.51215 0.0
H1506 H 0.62047 0.21783 0.51189 0.0
H1507 H 0.60484 0.1677 0.46711 0.0
H1508 H 0.56089 0.06872 0.48733 0.0
H1509 H 0.58689 0.10026 0.48304 0.0
C1510 C 0.84922 0.48382 0.25945 0.0
C1511 C 0.81851 0.48184 0.25552 0.0
C1512 C 0.86732 0.46598 0.25735 0.0
C1513 C 0.87341 0.40591 0.25412 0.0
H1514 H 0.93291 0.41721 0.23103 0.0
C1515 C 0.95409 0.33773 0.23852 0.0
C1516 C 0.98307 0.34385 0.2403 0.0
C1517 C 0.93229 0.35344 0.2399 0.0
C1518 C 0.91678 0.41369 0.23775 0.0
H1519 H 0.78292 0.45909 0.24686 0.0
H1520 H 0.81479 0.42762 0.2434 0.0
H1521 H 0.8986 0.44609 0.23474 0.0
H1522 H 0.01186 0.37129 0.24521 0.0
H1523 H 0.97464 0.3983 0.24795 0.0
H1524 H 0.89213 0.37352 0.25745 0.0
C1525 C 0.82477 0.44317 0.24804 0.0
C1526 C 0.89692 0.43035 0.23982 0.0
C1527 C 0.80648 0.46121 0.24998 0.0
C1528 C 0.98973 0.36596 0.24361 0.0
C1529 C 0.96816 0.38155 0.24505 0.0
C1530 C 0.89357 0.38918 0.25219 0.0
C1531 C 0.85543 0.44543 0.25138 0.0
C1532 C 0.87519 0.42688 0.24827 0.0
C1533 C 0.93894 0.37569 0.24306 0.0
C1534 C 0.91594 0.3929 0.24422 0.0
H1535 H 0.85938 0.49937 0.26387 0.0
H1536 H 0.89082 0.46834 0.2604 0.0
H1537 H 0.85705 0.40262 0.26074 0.0
H1538 H 0.94819 0.32087 0.23587 0.0
H1539 H 0.91011 0.34816 0.23815 0.0
C1540 C 0.06282 0.58576 0.51349 0.0
C1541 C 0.06043 0.56733 0.5017 0.0
C1542 C 0.08067 0.60285 0.51258 0.0
C1543 C 0.13383 0.62998 0.51502 0.0
H1544 H 0.13522 0.64888 0.46846 0.0
C1545 C 0.21654 0.69277 0.50928 0.0
C1546 C 0.20501 0.70943 0.4973 0.0
C1547 C 0.19996 0.67452 0.50904 0.0
C1548 C 0.135 0.64385 0.48156 0.0
H1549 H 0.07486 0.55251 0.47962 0.0
H1550 H 0.1061 0.58217 0.47819 0.0
H1551 H 0.103 0.61965 0.46976 0.0
H1552 H 0.16741 0.71953 0.47518 0.0
H1553 H 0.13848 0.6878 0.47486 0.0
H1554 H 0.16526 0.65452 0.52683 0.0
C1555 C 0.09391 0.58355 0.48799 0.0
C1556 C 0.11674 0.62696 0.48231 0.0
C1557 C 0.07609 0.56648 0.48889 0.0
C1558 C 0.17701 0.70701 0.4846 0.0
C1559 C 0.16043 0.68876 0.48436 0.0
C1560 C 0.15209 0.64685 0.51427 0.0
C1561 C 0.09651 0.6019 0.49986 0.0
C1562 C 0.11588 0.61987 0.49905 0.0
C1563 C 0.17147 0.6725 0.49681 0.0
C1564 C 0.15284 0.65402 0.49753 0.0
H1565 H 0.051 0.58698 0.52349 0.0
H1566 H 0.08188 0.6169 0.52177 0.0
H1567 H 0.13395 0.62474 0.52813 0.0
H1568 H 0.23811 0.69402 0.51917 0.0
H1569 H 0.20932 0.66209 0.51859 0.0
C1570 C 0.6597 0.05713 0.76859 0.0
C1571 C 0.68984 0.05922 0.77041 0.0
C1572 C 0.64215 0.07514 0.77098 0.0
C1573 C 0.63439 0.13478 0.77001 0.0
H1574 H 0.58064 0.12662 0.79797 0.0
C1575 C 0.55275 0.20363 0.7833 0.0
C1576 C 0.5246 0.19695 0.78292 0.0
C1577 C 0.57524 0.1882 0.78266 0.0
C1578 C 0.5952 0.12922 0.78993 0.0
H1579 H 0.72501 0.08221 0.77578 0.0
H1580 H 0.694 0.11403 0.77976 0.0
H1581 H 0.61529 0.09757 0.79502 0.0
H1582 H 0.49798 0.1688 0.7813 0.0
H1583 H 0.53642 0.14224 0.77991 0.0
H1584 H 0.61363 0.16633 0.76455 0.0
C1585 C 0.6841 0.09824 0.77657 0.0
C1586 C 0.61524 0.1125 0.7883 0.0
C1587 C 0.7019 0.08003 0.77437 0.0
C1588 C 0.51945 0.17458 0.78179 0.0
C1589 C 0.54171 0.15926 0.78112 0.0
C1590 C 0.61407 0.15156 0.77153 0.0
C1591 C 0.65403 0.09595 0.77512 0.0
C1592 C 0.63476 0.11482 0.77805 0.0
C1593 C 0.57008 0.16572 0.78168 0.0
C1594 C 0.59371 0.14884 0.78122 0.0
H1595 H 0.64955 0.04142 0.76543 0.0
H1596 H 0.61904 0.07275 0.76945 0.0
H1597 H 0.64904 0.13713 0.76197 0.0
H1598 H 0.55742 0.22072 0.78415 0.0
H1599 H 0.59677 0.19389 0.78321 0.0
C1600 C 0.78551 0.63076 0.16674 0.0
C1601 C 0.76072 0.62857 0.17292 0.0
C1602 C 0.78477 0.64478 0.15287 0.0
C1603 C 0.73342 0.67575 0.11482 0.0
H1604 H 0.80464 0.70581 0.11739 0.0
C1605 C 0.7383 0.73711 0.05995 0.0
C1606 C 0.76444 0.73641 0.05487 0.0
C1607 C 0.73657 0.72574 0.07498 0.0
C1608 C 0.78452 0.69743 0.11622 0.0
H1609 H 0.71533 0.63978 0.16863 0.0
H1610 H 0.71415 0.66425 0.1447 0.0
H1611 H 0.80407 0.68251 0.14149 0.0
H1612 H 0.80903 0.72298 0.06168 0.0
H1613 H 0.80625 0.70361 0.08745 0.0
H1614 H 0.71401 0.69067 0.08939 0.0
C1615 C 0.73427 0.65496 0.15055 0.0
C1616 C 0.78421 0.68391 0.13019 0.0
C1617 C 0.73506 0.64098 0.16453 0.0
C1618 C 0.7887 0.7243 0.06534 0.0
C1619 C 0.78709 0.71314 0.08028 0.0
C1620 C 0.73375 0.6893 0.10077 0.0
C1621 C 0.75919 0.65725 0.1445 0.0
C1622 C 0.75881 0.67252 0.12971 0.0
C1623 C 0.76096 0.71338 0.08538 0.0
C1624 C 0.75947 0.70019 0.10106 0.0
H1625 H 0.80589 0.62186 0.17283 0.0
H1626 H 0.80439 0.64565 0.1486 0.0
H1627 H 0.7134 0.66728 0.11371 0.0
H1628 H 0.71882 0.74553 0.05181 0.0
H1629 H 0.71599 0.7265 0.07833 0.0
C1630 C 0.96081 0.53086 0.44969 0.0
C1631 C 0.9467 0.52447 0.46207 0.0
C1632 C 0.94486 0.53298 0.43144 0.0
C1633 C 0.87783 0.51413 0.39684 0.0
H1634 H 0.88327 0.56563 0.37168 0.0
C1635 C 0.79458 0.52935 0.32828 0.0
C1636 C 0.80473 0.53703 0.31458 0.0
C1637 C 0.81253 0.52972 0.34616 0.0
C1638 C 0.88175 0.55103 0.37843 0.0
H1639 H 0.90504 0.51501 0.46504 0.0
H1640 H 0.87735 0.51838 0.43323 0.0
H1641 H 0.91433 0.56164 0.40293 0.0
H1642 H 0.84119 0.55201 0.30893 0.0
H1643 H 0.87319 0.55231 0.34038 0.0
H1644 H 0.84579 0.50322 0.37253 0.0
C1645 C 0.90068 0.52181 0.43758 0.0
C1646 C 0.89954 0.54876 0.39633 0.0
C1647 C 0.91651 0.51995 0.45581 0.0
C1648 C 0.83277 0.54617 0.31928 0.0
C1649 C 0.85107 0.54626 0.33728 0.0
C1650 C 0.86033 0.51629 0.37899 0.0
C1651 C 0.9146 0.52844 0.42518 0.0
C1652 C 0.89738 0.53042 0.40582 0.0
C1653 C 0.84145 0.53739 0.35085 0.0
C1654 C 0.86156 0.53495 0.36962 0.0
H1655 H 0.98409 0.53447 0.45416 0.0
H1656 H 0.95624 0.53795 0.42218 0.0
H1657 H 0.87609 0.49961 0.40364 0.0
H1658 H 0.77292 0.5224 0.32506 0.0
H1659 H 0.80392 0.52343 0.35627 0.0
C1660 C 0.17462 0.50544 0.69662 0.0
C1661 C 0.2027 0.5146 0.70194 0.0
C1662 C 0.15786 0.5042 0.67836 0.0
C1663 C 0.15215 0.52788 0.63422 0.0
H1664 H 0.10243 0.47878 0.61427 0.0
C1665 C 0.09989 0.51118 0.55742 0.0
C1666 C 0.07018 0.50523 0.55148 0.0
C1667 C 0.11518 0.51268 0.57588 0.0
C1668 C 0.116 0.49269 0.6197 0.0
H1669 H 0.23558 0.52904 0.69218 0.0
H1670 H 0.20692 0.52629 0.66046 0.0
H1671 H 0.1312 0.48014 0.64616 0.0
H1672 H 0.03307 0.49628 0.56016 0.0
H1673 H 0.05996 0.49865 0.59249 0.0
H1674 H 0.1374 0.54013 0.60761 0.0
C1675 C 0.19731 0.52064 0.67035 0.0
C1676 C 0.13247 0.49352 0.63801 0.0
C1677 C 0.2139 0.52207 0.68858 0.0
C1678 C 0.056 0.50086 0.56436 0.0
C1679 C 0.07141 0.50212 0.58285 0.0
C1680 C 0.13593 0.52692 0.6159 0.0
C1681 C 0.1689 0.51192 0.66497 0.0
C1682 C 0.1509 0.51109 0.64552 0.0
C1683 C 0.10118 0.50805 0.58881 0.0
C1684 C 0.11776 0.50929 0.60841 0.0
H1685 H 0.16527 0.49965 0.70658 0.0
H1686 H 0.13597 0.49762 0.67482 0.0
H1687 H 0.16549 0.54192 0.63954 0.0
H1688 H 0.11135 0.51468 0.54779 0.0
H1689 H 0.13816 0.51711 0.58004 0.0
C1690 C 0.57326 0.75059 0.19817 0.0
C1691 C 0.57623 0.77028 0.2085 0.0
C1692 C 0.57104 0.75041 0.17982 0.0
C1693 C 0.55694 0.78559 0.1409 0.0
H1694 H 0.61521 0.74803 0.12749 0.0
C1695 C 0.61529 0.8083 0.09058 0.0
C1696 C 0.62572 0.79205 0.08048 0.0
C1697 C 0.60021 0.80282 0.10253 0.0
C1698 C 0.59821 0.75823 0.13074 0.0
H1699 H 0.57853 0.8052 0.20772 0.0
H1700 H 0.57498 0.80489 0.17573 0.0
H1701 H 0.60518 0.74336 0.15594 0.0
H1702 H 0.62664 0.75747 0.07387 0.0
H1703 H 0.60016 0.74784 0.09481 0.0
H1704 H 0.55091 0.80106 0.11601 0.0
C1705 C 0.5739 0.78963 0.18173 0.0
C1706 C 0.59252 0.75557 0.14709 0.0
C1707 C 0.57617 0.78981 0.20006 0.0
C1708 C 0.61931 0.77028 0.08177 0.0
C1709 C 0.60411 0.76479 0.0937 0.0
C1710 C 0.56252 0.78818 0.12449 0.0
C1711 C 0.57164 0.76993 0.17148 0.0
C1712 C 0.57277 0.76982 0.15266 0.0
C1713 C 0.59516 0.78096 0.10458 0.0
C1714 C 0.58415 0.77514 0.11962 0.0
H1715 H 0.57248 0.73534 0.20425 0.0
H1716 H 0.56906 0.73502 0.17217 0.0
H1717 H 0.54119 0.79652 0.14476 0.0
H1718 H 0.62015 0.82519 0.08998 0.0
H1719 H 0.59408 0.81565 0.11092 0.0
C1720 C 0.70573 0.51216 0.19139 0.0
C1721 C 0.69612 0.50469 0.20539 0.0
C1722 C 0.6869 0.51248 0.17377 0.0
C1723 C 0.61654 0.49284 0.1422 0.0
H1724 H 0.62235 0.54488 0.11777 0.0
C1725 C 0.53819 0.51376 0.07093 0.0
C1726 C 0.55257 0.52051 0.05881 0.0
C1727 C 0.55381 0.51153 0.08923 0.0
C1728 C 0.62054 0.5302 0.12435 0.0
H1729 H 0.6596 0.49066 0.21174 0.0
H1730 H 0.6261 0.49147 0.18067 0.0
H1731 H 0.65297 0.54049 0.14872 0.0
H1732 H 0.5943 0.53055 0.05633 0.0
H1733 H 0.6214 0.52694 0.08818 0.0
H1734 H 0.5838 0.48273 0.1176 0.0
C1735 C 0.64846 0.49693 0.18341 0.0
C1736 C 0.63818 0.52762 0.1421 0.0
C1737 C 0.66761 0.4964 0.20118 0.0
C1738 C 0.58263 0.52534 0.06536 0.0
C1739 C 0.59812 0.52334 0.08362 0.0
C1740 C 0.59866 0.49551 0.12437 0.0
C1741 C 0.65766 0.50564 0.16962 0.0
C1742 C 0.63696 0.5087 0.15115 0.0
C1743 C 0.58397 0.51632 0.09577 0.0
C1744 C 0.60092 0.51405 0.11514 0.0
H1745 H 0.72775 0.51836 0.19417 0.0
H1746 H 0.69512 0.51861 0.16343 0.0
H1747 H 0.61504 0.47807 0.14874 0.0
H1748 H 0.515 0.5099 0.06623 0.0
H1749 H 0.54225 0.50625 0.09828 0.0
C1750 C 0.42651 0.46333 0.99991 0.0
C1751 C 0.43839 0.47627 0.01567 0.0
C1752 C 0.40762 0.44657 0.99986 0.0
C1753 C 0.36123 0.42602 0.02636 0.0
H1754 H 0.36236 0.37368 0.99647 0.0
C1755 C 0.30907 0.34393 0.03185 0.0
C1756 C 0.29108 0.3348 0.01545 0.0
C1757 C 0.32494 0.36255 0.03199 0.0
C1758 C 0.36172 0.3883 0.00478 0.0
H1759 H 0.44057 0.48159 0.04387 0.0
H1760 H 0.40882 0.45172 0.0441 0.0
H1761 H 0.39564 0.40276 0.99683 0.0
H1762 H 0.27492 0.33831 0.98642 0.0
H1763 H 0.30326 0.3705 0.98672 0.0
H1764 H 0.32807 0.41081 0.03484 0.0
C1765 C 0.41307 0.45492 0.03154 0.0
C1766 C 0.38065 0.40504 0.00493 0.0
C1767 C 0.43149 0.47195 0.03148 0.0
C1768 C 0.28853 0.345 0.99929 0.0
C1769 C 0.30482 0.36333 0.99941 0.0
C1770 C 0.34271 0.40905 0.02647 0.0
C1771 C 0.40066 0.44211 0.01569 0.0
C1772 C 0.3806 0.42419 0.01566 0.0
C1773 C 0.32347 0.37203 0.01572 0.0
C1774 C 0.34272 0.39013 0.0156 0.0
H1775 H 0.43123 0.46647 0.98747 0.0
H1776 H 0.39809 0.4374 0.98729 0.0
H1777 H 0.36009 0.44064 0.03453 0.0
H1778 H 0.31138 0.33644 0.04451 0.0
H1779 H 0.33929 0.369 0.04472 0.0
C1780 C 0.05922 0.2111 0.22609 0.0
C1781 C 0.06435 0.22875 0.23879 0.0
C1782 C 0.07826 0.19283 0.22865 0.0
C1783 C 0.10723 0.15054 0.24341 0.0
H1784 H 0.19217 0.1514 0.2649 0.0
C1785 C 0.17316 0.07212 0.26791 0.0
C1786 C 0.20031 0.06798 0.26441 0.0
C1787 C 0.15888 0.09249 0.26513 0.0
C1788 C 0.16849 0.15086 0.25876 0.0
H1789 H 0.09452 0.24144 0.26379 0.0
H1790 H 0.12779 0.20929 0.26845 0.0
H1791 H 0.16367 0.18569 0.25879 0.0
H1792 H 0.23434 0.0825 0.25591 0.0
H1793 H 0.20917 0.11829 0.25076 0.0
H1794 H 0.11178 0.11594 0.24311 0.0
C1795 C 0.10903 0.20966 0.25638 0.0
C1796 C 0.15207 0.17056 0.25542 0.0
C1797 C 0.08993 0.22811 0.25374 0.0
C1798 C 0.21333 0.08508 0.25855 0.0
C1799 C 0.19895 0.10563 0.25573 0.0
C1800 C 0.12352 0.13098 0.24677 0.0
C1801 C 0.10301 0.19148 0.24409 0.0
C1802 C 0.12114 0.17069 0.24767 0.0
C1803 C 0.17119 0.1095 0.25868 0.0
C1804 C 0.15438 0.13075 0.25462 0.0
H1805 H 0.03993 0.21115 0.2143 0.0
H1806 H 0.07321 0.17953 0.21859 0.0
H1807 H 0.08348 0.14979 0.2377 0.0
H1808 H 0.16257 0.05943 0.27261 0.0
H1809 H 0.13799 0.09485 0.26801 0.0
C1810 C 0.12956 0.38899 0.93437 0.0
C1811 C 0.15898 0.3827 0.94307 0.0
C1812 C 0.1231 0.40837 0.92536 0.0
C1813 C 0.15662 0.45854 0.91597 0.0
H1814 H 0.10611 0.44641 0.86721 0.0
C1815 C 0.12306 0.49078 0.83822 0.0
C1816 C 0.15194 0.4931 0.83739 0.0
C1817 C 0.11828 0.48437 0.85407 0.0
C1818 C 0.11964 0.45047 0.88086 0.0
H1819 H 0.20442 0.39286 0.95058 0.0
H1820 H 0.19336 0.42607 0.9342 0.0
H1821 H 0.10779 0.42164 0.89056 0.0
H1822 H 0.19831 0.49187 0.85287 0.0
H1823 H 0.19003 0.48055 0.88034 0.0
H1824 H 0.16983 0.48673 0.90576 0.0
C1825 C 0.17516 0.41624 0.93449 0.0
C1826 C 0.12062 0.4362 0.89432 0.0
C1827 C 0.18159 0.39696 0.94363 0.0
C1828 C 0.17578 0.49041 0.85309 0.0
C1829 C 0.171 0.48398 0.86891 0.0
C1830 C 0.15571 0.47282 0.90244 0.0
C1831 C 0.14593 0.42179 0.9247 0.0
C1832 C 0.14005 0.43956 0.91185 0.0
C1833 C 0.14229 0.48009 0.86936 0.0
C1834 C 0.13813 0.46841 0.88457 0.0
H1835 H 0.11158 0.3784 0.93365 0.0
H1836 H 0.1003 0.41236 0.9182 0.0
H1837 H 0.17136 0.46182 0.92943 0.0
H1838 H 0.10423 0.49317 0.82642 0.0
H1839 H 0.09586 0.48181 0.85411 0.0
C1840 C 0.26745 0.25723 0.95594 0.0
C1841 C 0.28943 0.26556 0.97104 0.0
C1842 C 0.27082 0.25754 0.93863 0.0
C1843 C 0.31378 0.28357 0.91283 0.0
H1844 H 0.29521 0.23212 0.88094 0.0
C1845 C 0.36249 0.26548 0.85386 0.0
C1846 C 0.34421 0.25637 0.83752 0.0
C1847 C 0.35247 0.26838 0.86903 0.0
C1848 C 0.30009 0.24674 0.88957 0.0
H1849 H 0.33195 0.28087 0.97995 0.0
H1850 H 0.33809 0.28107 0.94999 0.0
H1851 H 0.28356 0.23376 0.90956 0.0
H1852 H 0.30061 0.24384 0.82424 0.0
H1853 H 0.28331 0.24865 0.85089 0.0
H1854 H 0.33107 0.29627 0.89308 0.0
C1855 C 0.31802 0.27463 0.95133 0.0
C1856 C 0.29338 0.2477 0.90597 0.0
C1857 C 0.31463 0.27434 0.96855 0.0
C1858 C 0.31544 0.2506 0.83667 0.0
C1859 C 0.30549 0.25338 0.85191 0.0
C1860 C 0.3206 0.28256 0.8965 0.0
C1861 C 0.29621 0.26621 0.93614 0.0
C1862 C 0.30066 0.26597 0.91795 0.0
C1863 C 0.324 0.26214 0.8683 0.0
C1864 C 0.31429 0.26399 0.88483 0.0
H1865 H 0.24774 0.25043 0.9575 0.0
H1866 H 0.25348 0.25109 0.92719 0.0
H1867 H 0.31911 0.29808 0.92156 0.0
H1868 H 0.38496 0.26972 0.85516 0.0
H1869 H 0.36744 0.27486 0.88154 0.0
C1870 C 0.44577 0.54124 0.95498 0.0
C1871 C 0.43112 0.53672 0.96759 0.0
C1872 C 0.43082 0.54015 0.93643 0.0
C1873 C 0.36617 0.51607 0.90269 0.0
H1874 H 0.37281 0.56297 0.87303 0.0
C1875 C 0.28851 0.52314 0.8302 0.0
C1876 C 0.30019 0.53013 0.81688 0.0
C1877 C 0.30513 0.52418 0.84843 0.0
C1878 C 0.371 0.54957 0.88103 0.0
H1879 H 0.38961 0.52715 0.97072 0.0
H1880 H 0.36358 0.52509 0.93838 0.0
H1881 H 0.40125 0.56368 0.90499 0.0
H1882 H 0.33848 0.54391 0.81234 0.0
H1883 H 0.36776 0.54533 0.84413 0.0
H1884 H 0.33626 0.50178 0.87884 0.0
C1885 C 0.38659 0.52947 0.94278 0.0
C1886 C 0.38729 0.55001 0.89937 0.0
C1887 C 0.40144 0.53076 0.96131 0.0
C1888 C 0.32877 0.53848 0.82227 0.0
C1889 C 0.34552 0.53937 0.84053 0.0
C1890 C 0.35008 0.51554 0.88436 0.0
C1891 C 0.40103 0.53428 0.93012 0.0
C1892 C 0.38483 0.53337 0.91045 0.0
C1893 C 0.33401 0.53206 0.85386 0.0
C1894 C 0.352 0.53239 0.87329 0.0
H1895 H 0.46869 0.54583 0.95946 0.0
H1896 H 0.44263 0.54374 0.927 0.0
H1897 H 0.36415 0.50282 0.91079 0.0
H1898 H 0.26646 0.5168 0.82657 0.0
H1899 H 0.29521 0.51886 0.85829 0.0
C1900 C 0.65585 0.73237 0.00634 0.0
C1901 C 0.67678 0.73045 0.99675 0.0
C1902 C 0.63686 0.71547 0.00565 0.0
C1903 C 0.63332 0.65628 0.99741 0.0
H1904 H 0.55322 0.66506 0.99986 0.0
C1905 C 0.55776 0.58497 0.99501 0.0
C1906 C 0.54119 0.58605 0.00733 0.0
C1907 C 0.57297 0.60294 0.99279 0.0
C1908 C 0.57565 0.6624 0.99933 0.0
H1909 H 0.69286 0.70973 0.97801 0.0
H1910 H 0.65926 0.68039 0.97652 0.0
H1911 H 0.58087 0.69612 0.99625 0.0
H1912 H 0.52755 0.60697 0.02696 0.0
H1913 H 0.55435 0.63844 0.02311 0.0
H1914 H 0.62817 0.62261 1.00056 0.0
C1915 C 0.65805 0.69481 0.98492 0.0
C1916 C 0.59147 0.68016 0.99722 0.0
C1917 C 0.67715 0.7117 0.98566 0.0
C1918 C 0.54013 0.60559 0.01737 0.0
C1919 C 0.5553 0.62365 0.01508 0.0
C1920 C 0.61748 0.63854 0.99943 0.0
C1921 C 0.63824 0.69626 0.99529 0.0
C1922 C 0.62056 0.67732 0.99633 0.0
C1923 C 0.57194 0.62248 0.0028 0.0
C1924 C 0.58854 0.64141 1.00051 0.0
H1925 H 0.65492 0.74655 0.01505 0.0
H1926 H 0.62209 0.71708 0.01394 0.0
H1927 H 0.65588 0.65354 0.99717 0.0
H1928 H 0.55902 0.57022 0.987 0.0
H1929 H 0.58531 0.60161 0.98307 0.0
C1930 C 0.98584 0.87239 0.73411 0.0
C1931 C 0.98142 0.84994 0.73308 0.0
C1932 C 0.96331 0.8873 0.73515 0.0
C1933 C 0.89188 0.89338 0.74613 0.0
H1934 H 0.88755 0.94776 0.72266 0.0
C1935 C 0.80232 0.96325 0.74502 0.0
C1936 C 0.81388 0.9842 0.74903 0.0
C1937 C 0.82037 0.94538 0.74238 0.0
C1938 C 0.88847 0.9327 0.72936 0.0
H1939 H 0.94967 0.82555 0.73245 0.0
H1940 H 0.90988 0.85163 0.73402 0.0
H1941 H 0.9228 0.9195 0.71901 0.0
H1942 H 0.85358 1.00263 0.75364 0.0
H1943 H 0.88448 0.97194 0.74883 0.0
H1944 H 0.85718 0.90689 0.75638 0.0
C1945 C 0.93101 0.85773 0.7342 0.0
C1946 C 0.90886 0.91645 0.72735 0.0
C1947 C 0.95375 0.84273 0.73318 0.0
C1948 C 0.84379 0.9868 0.75045 0.0
C1949 C 0.86157 0.96916 0.74761 0.0
C1950 C 0.8712 0.90968 0.74804 0.0
C1951 C 0.93542 0.8803 0.7351 0.0
C1952 C 0.91148 0.8967 0.73604 0.0
C1953 C 0.85018 0.94821 0.74341 0.0
C1954 C 0.86972 0.92977 0.74 0.0
H1955 H 0.00695 0.87854 0.73424 0.0
H1956 H 0.96803 0.90442 0.73627 0.0
H1957 H 0.8932 0.87849 0.75311 0.0
H1958 H 0.7794 0.96068 0.74391 0.0
H1959 H 0.81087 0.92947 0.73916 0.0
C1960 C 0.485 0.24434 0.71524 0.0
C1961 C 0.46486 0.2374 0.72377 0.0
C1962 C 0.48427 0.23602 0.69801 0.0
C1963 C 0.43907 0.204 0.6579 0.0
H1964 H 0.51542 0.18482 0.65329 0.0
C1965 C 0.44997 0.15361 0.59514 0.0
C1966 C 0.46836 0.13496 0.59915 0.0
C1967 C 0.45042 0.1698 0.60857 0.0
C1968 C 0.49393 0.19013 0.65434 0.0
H1969 H 0.42724 0.21709 0.72046 0.0
H1970 H 0.42619 0.20238 0.69054 0.0
H1971 H 0.51283 0.20672 0.67988 0.0
H1972 H 0.50267 0.11918 0.62006 0.0
H1973 H 0.50322 0.14721 0.64352 0.0
H1974 H 0.42017 0.18645 0.63277 0.0
C1975 C 0.44237 0.21444 0.69707 0.0
C1976 C 0.49244 0.2029 0.66949 0.0
C1977 C 0.44305 0.2228 0.7143 0.0
C1978 C 0.488 0.13325 0.61664 0.0
C1979 C 0.48854 0.14944 0.63002 0.0
C1980 C 0.44057 0.19122 0.64274 0.0
C1981 C 0.46339 0.22057 0.6889 0.0
C1982 C 0.46495 0.20953 0.67167 0.0
C1983 C 0.4694 0.16772 0.62623 0.0
C1984 C 0.468 0.18368 0.64102 0.0
H1985 H 0.5019 0.25579 0.72205 0.0
H1986 H 0.50046 0.24137 0.69198 0.0
H1987 H 0.41757 0.20911 0.65904 0.0
H1988 H 0.43448 0.15533 0.58181 0.0
H1989 H 0.43559 0.18378 0.60521 0.0
C1990 C 0.52697 0.28296 0.84663 0.0
C1991 C 0.50174 0.27099 0.83783 0.0
C1992 C 0.5285 0.29533 0.86251 0.0
C1993 C 0.5305 0.31754 0.89857 0.0
H1994 H 0.45727 0.34892 0.89674 0.0
C1995 C 0.52609 0.38719 0.95063 0.0
C1996 C 0.50967 0.40584 0.94353 0.0
C1997 C 0.5237 0.3678 0.94012 0.0
C1998 C 0.47794 0.34036 0.89745 0.0
H1999 H 0.4595 0.26103 0.83973 0.0
H2000 H 0.46261 0.28204 0.86771 0.0
H2001 H 0.45744 0.31959 0.87458 0.0
H2002 H 0.4776 0.41873 0.91995 0.0
H2003 H 0.47375 0.38516 0.90151 0.0
H2004 H 0.55132 0.33931 0.92072 0.0
C2005 C 0.48081 0.28247 0.86203 0.0
C2006 C 0.47797 0.32324 0.8849 0.0
C2007 C 0.47915 0.27025 0.84606 0.0
C2008 C 0.49023 0.40456 0.92588 0.0
C2009 C 0.488 0.38525 0.91533 0.0
C2010 C 0.53051 0.3348 0.91105 0.0
C2011 C 0.50498 0.29584 0.87007 0.0
C2012 C 0.50438 0.31192 0.88502 0.0
C2013 C 0.50498 0.36668 0.92222 0.0
C2014 C 0.50434 0.34675 0.91037 0.0
H2015 H 0.54476 0.28395 0.84067 0.0
H2016 H 0.54737 0.30553 0.86817 0.0
H2017 H 0.55116 0.30898 0.89927 0.0
H2018 H 0.54098 0.38763 0.96429 0.0
H2019 H 0.53672 0.35374 0.94598 0.0
C2020 C 0.52438 0.77542 0.34699 0.0
C2021 C 0.49614 0.77275 0.33466 0.0
C2022 C 0.52817 0.78843 0.36278 0.0
C2023 C 0.48849 0.81916 0.39167 0.0
H2024 H 0.55259 0.85894 0.39909 0.0
C2025 C 0.49403 0.9025 0.43044 0.0
C2026 C 0.52186 0.9097 0.44105 0.0
C2027 C 0.49155 0.88309 0.41998 0.0
C2028 C 0.5349 0.84775 0.39746 0.0
H2029 H 0.44945 0.78036 0.32987 0.0
H2030 H 0.45612 0.80342 0.35719 0.0
H2031 H 0.54717 0.8291 0.37674 0.0
H2032 H 0.56872 0.90155 0.44977 0.0
H2033 H 0.56441 0.86772 0.43148 0.0
H2034 H 0.47574 0.83849 0.41208 0.0
C2035 C 0.47536 0.79529 0.35481 0.0
C2036 C 0.53181 0.83056 0.38464 0.0
C2037 C 0.47154 0.78211 0.33907 0.0
C2038 C 0.54703 0.89667 0.44145 0.0
C2039 C 0.54455 0.87728 0.43101 0.0
C2040 C 0.49154 0.83647 0.40449 0.0
C2041 C 0.50383 0.79923 0.36652 0.0
C2042 C 0.5084 0.81617 0.38143 0.0
C2043 C 0.51685 0.87046 0.41991 0.0
C2044 C 0.51461 0.85109 0.40737 0.0
H2045 H 0.54376 0.76818 0.34411 0.0
H2046 H 0.55033 0.79066 0.37175 0.0
H2047 H 0.47039 0.80824 0.38967 0.0
H2048 H 0.47424 0.91227 0.4297 0.0
H2049 H 0.46994 0.87842 0.41141 0.0
C2050 C 0.48819 0.64457 0.1107 0.0
C2051 C 0.46765 0.64627 0.09348 0.0
C2052 C 0.48853 0.66021 0.12448 0.0
C2053 C 0.43922 0.70036 0.13849 0.0
H2054 H 0.51115 0.71475 0.17631 0.0
C2055 C 0.48412 0.74934 0.21312 0.0
C2056 C 0.46316 0.74239 0.221 0.0
C2057 C 0.48317 0.74231 0.19555 0.0
C2058 C 0.4908 0.71129 0.16576 0.0
H2059 H 0.43248 0.66642 0.07695 0.0
H2060 H 0.43324 0.69386 0.10101 0.0
H2061 H 0.51412 0.69438 0.14919 0.0
H2062 H 0.42388 0.72355 0.21631 0.0
H2063 H 0.42255 0.71079 0.18581 0.0
H2064 H 0.4159 0.71734 0.15505 0.0
C2065 C 0.44869 0.68018 0.10394 0.0
C2066 C 0.49253 0.69931 0.15028 0.0
C2067 C 0.44829 0.66449 0.09015 0.0
C2068 C 0.44022 0.72928 0.21057 0.0
C2069 C 0.43946 0.72201 0.19303 0.0
C2070 C 0.43749 0.71245 0.15395 0.0
C2071 C 0.46841 0.67799 0.12139 0.0
C2072 C 0.46675 0.69319 0.13667 0.0
C2073 C 0.46145 0.72792 0.18549 0.0
C2074 C 0.46322 0.7176 0.168 0.0
H2075 H 0.50309 0.63059 0.11381 0.0
H2076 H 0.50371 0.65777 0.1378 0.0
H2077 H 0.41888 0.69585 0.12835 0.0
H2078 H 0.50192 0.75967 0.22075 0.0
H2079 H 0.50004 0.74765 0.19006 0.0
loop_
_geom_bond_atom_site_label_1
_geom_bond_atom_site_label_2
_geom_bond_distance
_geom_bond_site_symmetry_2
_ccdc_geom_bond_type
Nd0 C2 2.836 . S
Nd0 O20 2.500 . S
Nd0 O21 2.492 . S
Nd0 O22 2.487 1_556 S
Nd0 O23 2.682 1_566 S
Nd0 O24 2.410 1_556 S
Nd0 O29 2.414 1_565 S
Nd0 O31 2.424 1_566 S
Nd1 C11 2.836 . S
Nd1 O23 2.414 . S
Nd1 O25 2.424 1_445 S
Nd1 O26 2.500 . S
Nd1 O27 2.492 1_455 S
Nd1 O28 2.487 1_454 S
Nd1 O29 2.682 1_554 S
Nd1 O30 2.410 . S
C2 Nd0 2.836 . S
C2 C3 1.498 . S
C2 O20 1.258 . S
C2 O21 1.239 . S
C3 C2 1.498 . S
C3 C4 1.366 . S
C3 C8 1.407 . S
C4 C3 1.366 . S
C4 C5 1.392 . S
C4 H32 0.930 . S
C5 C4 1.392 . S
C5 C6 1.398 . S
C5 H33 0.929 . S
C6 C5 1.398 . S
C6 C7 1.352 . S
C7 C6 1.352 . S
C7 C8 1.384 . S
C7 H34 0.930 . S
C8 C3 1.407 . S
C8 C7 1.384 . S
C8 H35 0.929 . S
C9 O22 1.241 . S
C9 O23 1.273 1_565 S
C10 O24 1.251 1_655 S
C10 O25 1.268 . S
C11 Nd1 2.836 . S
C11 C12 1.498 . S
C11 O26 1.258 . S
C11 O27 1.239 1_455 S
C12 C11 1.498 . S
C12 C13 1.366 . S
C12 C17 1.407 1_455 S
C13 C12 1.366 . S
C13 C14 1.392 . S
C13 H36 0.930 . S
C14 C13 1.392 . S
C14 C15 1.398 . S
C14 H37 0.929 . S
C15 C14 1.398 . S
C15 C16 1.352 1_455 S
C16 C15 1.352 1_655 S
C16 C17 1.384 . S
C16 H38 0.930 . S
C17 C12 1.407 1_655 S
C17 C16 1.384 . S
C17 H39 0.929 . S
C18 O28 1.241 . S
C18 O29 1.273 1_655 S
C19 O30 1.251 . S
C19 O31 1.268 . S
O20 Nd0 2.500 . S
O20 C2 1.258 . S
O21 Nd0 2.492 . S
O21 C2 1.239 . S
O22 Nd0 2.487 1_554 S
O22 C9 1.241 . S
O23 Nd0 2.682 1_544 S
O23 Nd1 2.414 . S
O23 C9 1.273 1_545 S
O24 Nd0 2.410 1_554 S
O24 C10 1.251 1_455 S
O25 Nd1 2.424 1_665 S
O25 C10 1.268 . S
O26 Nd1 2.500 . S
O26 C11 1.258 . S
O27 Nd1 2.492 1_655 S
O27 C11 1.239 1_655 S
O28 Nd1 2.487 1_656 S
O28 C18 1.241 . S
O29 Nd0 2.414 1_545 S
O29 Nd1 2.682 1_556 S
O29 C18 1.273 1_455 S
O30 Nd1 2.410 . S
O30 C19 1.251 . S
O31 Nd0 2.424 1_544 S
O31 C19 1.268 . S
H32 C4 0.930 . S
H33 C5 0.929 . S
H34 C7 0.930 . S
H35 C8 0.929 . S
H36 C13 0.930 . S
H37 C14 0.929 . S
H38 C16 0.930 . S
H39 C17 0.929 . S
Nd40 C42 2.836 . S
Nd40 O60 2.500 1_455 S
Nd40 O61 2.492 . S
Nd40 O62 2.487 . S
Nd40 O63 2.682 . S
Nd40 O64 2.410 . S
Nd40 O69 2.414 . S
Nd40 O71 2.424 . S
Nd41 C51 2.836 . S
Nd41 O63 2.414 . S
Nd41 O65 2.424 . S
Nd41 O66 2.500 . S
Nd41 O67 2.492 . S
Nd41 O68 2.487 . S
Nd41 O69 2.682 . S
Nd41 O70 2.410 . S
C42 Nd40 2.836 . S
C42 C43 1.498 1_455 S
C42 O60 1.258 1_455 S
C42 O61 1.239 . S
C43 C42 1.498 1_655 S
C43 C44 1.366 . S
C43 C48 1.407 . S
C44 C43 1.366 . S
C44 C45 1.392 . S
C44 H72 0.930 . S
C45 C44 1.392 . S
C45 C46 1.398 . S
C45 H73 0.929 . S
C46 C45 1.398 . S
C46 C47 1.352 . S
C47 C46 1.352 . S
C47 C48 1.384 . S
C47 H74 0.930 . S
C48 C43 1.407 . S
C48 C47 1.384 . S
C48 H75 0.929 1_655 S
C49 O62 1.241 . S
C49 O63 1.273 . S
C50 O64 1.251 . S
C50 O65 1.268 . S
C51 Nd41 2.836 . S
C51 C52 1.498 . S
C51 O66 1.258 . S
C51 O67 1.239 . S
C52 C51 1.498 . S
C52 C53 1.366 . S
C52 C57 1.407 . S
C53 C52 1.366 . S
C53 C54 1.392 . S
C53 H76 0.930 . S
C54 C53 1.392 . S
C54 C55 1.398 . S
C54 H77 0.929 . S
C55 C54 1.398 . S
C55 C56 1.352 . S
C56 C55 1.352 . S
C56 C57 1.384 . S
C56 H78 0.930 . S
C57 C52 1.407 . S
C57 C56 1.384 . S
C57 H79 0.929 . S
C58 O68 1.241 . S
C58 O69 1.273 . S
C59 O70 1.251 . S
C59 O71 1.268 . S
O60 Nd40 2.500 1_655 S
O60 C42 1.258 1_655 S
O61 Nd40 2.492 . S
O61 C42 1.239 . S
O62 Nd40 2.487 . S
O62 C49 1.241 . S
O63 Nd40 2.682 . S
O63 Nd41 2.414 . S
O63 C49 1.273 . S
O64 Nd40 2.410 . S
O64 C50 1.251 . S
O65 Nd41 2.424 . S
O65 C50 1.268 . S
O66 Nd41 2.500 . S
O66 C51 1.258 . S
O67 Nd41 2.492 . S
O67 C51 1.239 . S
O68 Nd41 2.487 . S
O68 C58 1.241 . S
O69 Nd40 2.414 . S
O69 Nd41 2.682 . S
O69 C58 1.273 . S
O70 Nd41 2.410 . S
O70 C59 1.251 . S
O71 Nd40 2.424 . S
O71 C59 1.268 . S
H72 C44 0.930 . S
H73 C45 0.929 . S
H74 C47 0.930 . S
H75 C48 0.929 1_455 S
H76 C53 0.930 . S
H77 C54 0.929 . S
H78 C56 0.930 . S
H79 C57 0.929 . S
Nd80 C82 2.836 . S
Nd80 O100 2.500 . S
Nd80 O101 2.492 . S
Nd80 O102 2.487 . S
Nd80 O103 2.682 . S
Nd80 O104 2.410 . S
Nd80 O109 2.414 . S
Nd80 O111 2.424 . S
Nd81 C91 2.836 . S
Nd81 O103 2.414 . S
Nd81 O105 2.424 . S
Nd81 O106 2.500 . S
Nd81 O107 2.492 . S
Nd81 O108 2.487 . S
Nd81 O109 2.682 . S
Nd81 O110 2.410 . S
C82 Nd80 2.836 . S
C82 C83 1.498 . S
C82 O100 1.258 . S
C82 O101 1.239 . S
C83 C82 1.498 . S
C83 C84 1.366 . S
C83 C88 1.407 . S
C84 C83 1.366 . S
C84 C85 1.392 . S
C84 H112 0.930 . S
C85 C84 1.392 . S
C85 C86 1.398 . S
C85 H113 0.929 . S
C86 C85 1.398 . S
C86 C87 1.352 . S
C87 C86 1.352 . S
C87 C88 1.384 . S
C87 H114 0.930 . S
C88 C83 1.407 . S
C88 C87 1.384 . S
C88 H115 0.929 . S
C89 O102 1.241 . S
C89 O103 1.273 . S
C90 O104 1.251 . S
C90 O105 1.268 . S
C91 Nd81 2.836 . S
C91 C92 1.498 . S
C91 O106 1.258 . S
C91 O107 1.239 . S
C92 C91 1.498 . S
C92 C93 1.366 . S
C92 C97 1.407 . S
C93 C92 1.366 . S
C93 C94 1.392 . S
C93 H116 0.930 . S
C94 C93 1.392 . S
C94 C95 1.398 . S
C94 H117 0.929 . S
C95 C94 1.398 . S
C95 C96 1.352 . S
C96 C95 1.352 . S
C96 C97 1.384 . S
C96 H118 0.930 . S
C97 C92 1.407 . S
C97 C96 1.384 . S
C97 H119 0.929 . S
C98 O108 1.241 . S
C98 O109 1.273 . S
C99 O110 1.251 . S
C99 O111 1.268 . S
O100 Nd80 2.500 . S
O100 C82 1.258 . S
O101 Nd80 2.492 . S
O101 C82 1.239 . S
O102 Nd80 2.487 . S
O102 C89 1.241 . S
O103 Nd80 2.682 . S
O103 Nd81 2.414 . S
O103 C89 1.273 . S
O104 Nd80 2.410 . S
O104 C90 1.251 . S
O105 Nd81 2.424 . S
O105 C90 1.268 . S
O106 Nd81 2.500 . S
O106 C91 1.258 . S
O107 Nd81 2.492 . S
O107 C91 1.239 . S
O108 Nd81 2.487 . S
O108 C98 1.241 . S
O109 Nd80 2.414 . S
O109 Nd81 2.682 . S
O109 C98 1.273 . S
O110 Nd81 2.410 . S
O110 C99 1.251 . S
O111 Nd80 2.424 . S
O111 C99 1.268 . S
H112 C84 0.930 . S
H113 C85 0.929 . S
H114 C87 0.930 . S
H115 C88 0.929 . S
H116 C93 0.930 . S
H117 C94 0.929 . S
H118 C96 0.930 . S
H119 C97 0.929 . S
Nd120 C122 2.836 . S
Nd120 O140 2.500 . S
Nd120 O141 2.492 . S
Nd120 O142 2.487 . S
Nd120 O143 2.682 1_545 S
Nd120 O144 2.410 . S
Nd120 O149 2.414 . S
Nd120 O151 2.424 . S
Nd121 C131 2.836 . S
Nd121 O143 2.414 . S
Nd121 O145 2.424 1_565 S
Nd121 O146 2.500 . S
Nd121 O147 2.492 . S
Nd121 O148 2.487 1_565 S
Nd121 O149 2.682 1_565 S
Nd121 O150 2.410 1_565 S
C122 Nd120 2.836 . S
C122 C123 1.498 . S
C122 O140 1.258 . S
C122 O141 1.239 . S
C123 C122 1.498 . S
C123 C124 1.366 . S
C123 C128 1.407 . S
C124 C123 1.366 . S
C124 C125 1.392 . S
C124 H152 0.930 . S
C125 C124 1.392 . S
C125 C126 1.398 . S
C125 H153 0.929 . S
C126 C125 1.398 . S
C126 C127 1.352 . S
C127 C126 1.352 . S
C127 C128 1.384 . S
C127 H154 0.930 . S
C128 C123 1.407 . S
C128 C127 1.384 . S
C128 H155 0.929 . S
C129 O142 1.241 1_565 S
C129 O143 1.273 . S
C130 O144 1.251 . S
C130 O145 1.268 . S
C131 Nd121 2.836 . S
C131 C132 1.498 . S
C131 O146 1.258 . S
C131 O147 1.239 . S
C132 C131 1.498 . S
C132 C133 1.366 . S
C132 C137 1.407 . S
C133 C132 1.366 . S
C133 C134 1.392 . S
C133 H156 0.930 . S
C134 C133 1.392 . S
C134 C135 1.398 . S
C134 H157 0.929 . S
C135 C134 1.398 . S
C135 C136 1.352 . S
C136 C135 1.352 . S
C136 C137 1.384 . S
C136 H158 0.930 . S
C137 C132 1.407 . S
C137 C136 1.384 . S
C137 H159 0.929 . S
C138 O148 1.241 . S
C138 O149 1.273 . S
C139 O150 1.251 . S
C139 O151 1.268 . S
O140 Nd120 2.500 . S
O140 C122 1.258 . S
O141 Nd120 2.492 . S
O141 C122 1.239 . S
O142 Nd120 2.487 . S
O142 C129 1.241 1_545 S
O143 Nd120 2.682 1_565 S
O143 Nd121 2.414 . S
O143 C129 1.273 . S
O144 Nd120 2.410 . S
O144 C130 1.251 . S
O145 Nd121 2.424 1_545 S
O145 C130 1.268 . S
O146 Nd121 2.500 . S
O146 C131 1.258 . S
O147 Nd121 2.492 . S
O147 C131 1.239 . S
O148 Nd121 2.487 1_545 S
O148 C138 1.241 . S
O149 Nd120 2.414 . S
O149 Nd121 2.682 1_545 S
O149 C138 1.273 . S
O150 Nd121 2.410 1_545 S
O150 C139 1.251 . S
O151 Nd120 2.424 . S
O151 C139 1.268 . S
H152 C124 0.930 . S
H153 C125 0.929 . S
H154 C127 0.930 . S
H155 C128 0.929 . S
H156 C133 0.930 . S
H157 C134 0.929 . S
H158 C136 0.930 . S
H159 C137 0.929 . S
Nd160 C162 2.836 . S
Nd160 O180 2.500 . S
Nd160 O181 2.492 . S
Nd160 O182 2.487 . S
Nd160 O183 2.682 . S
Nd160 O184 2.410 . S
Nd160 O189 2.414 . S
Nd160 O191 2.424 . S
Nd161 C171 2.836 . S
Nd161 O183 2.414 . S
Nd161 O185 2.424 . S
Nd161 O186 2.500 . S
Nd161 O187 2.492 . S
Nd161 O188 2.487 . S
Nd161 O189 2.682 . S
Nd161 O190 2.410 . S
C162 Nd160 2.836 . S
C162 C163 1.498 . S
C162 O180 1.258 . S
C162 O181 1.239 . S
C163 C162 1.498 . S
C163 C164 1.366 . S
C163 C168 1.407 . S
C164 C163 1.366 . S
C164 C165 1.392 . S
C164 H192 0.930 . S
C165 C164 1.392 . S
C165 C166 1.398 . S
C165 H193 0.929 . S
C166 C165 1.398 . S
C166 C167 1.352 . S
C167 C166 1.352 . S
C167 C168 1.384 . S
C167 H194 0.930 . S
C168 C163 1.407 . S
C168 C167 1.384 . S
C168 H195 0.929 . S
C169 O182 1.241 . S
C169 O183 1.273 . S
C170 O184 1.251 . S
C170 O185 1.268 . S
C171 Nd161 2.836 . S
C171 C172 1.498 . S
C171 O186 1.258 . S
C171 O187 1.239 . S
C172 C171 1.498 . S
C172 C173 1.366 . S
C172 C177 1.407 . S
C173 C172 1.366 . S
C173 C174 1.392 . S
C173 H196 0.930 . S
C174 C173 1.392 . S
C174 C175 1.398 . S
C174 H197 0.929 . S
C175 C174 1.398 . S
C175 C176 1.352 . S
C176 C175 1.352 . S
C176 C177 1.384 . S
C176 H198 0.930 . S
C177 C172 1.407 . S
C177 C176 1.384 . S
C177 H199 0.929 . S
C178 O188 1.241 . S
C178 O189 1.273 . S
C179 O190 1.251 . S
C179 O191 1.268 . S
O180 Nd160 2.500 . S
O180 C162 1.258 . S
O181 Nd160 2.492 . S
O181 C162 1.239 . S
O182 Nd160 2.487 . S
O182 C169 1.241 . S
O183 Nd160 2.682 . S
O183 Nd161 2.414 . S
O183 C169 1.273 . S
O184 Nd160 2.410 . S
O184 C170 1.251 . S
O185 Nd161 2.424 . S
O185 C170 1.268 . S
O186 Nd161 2.500 . S
O186 C171 1.258 . S
O187 Nd161 2.492 . S
O187 C171 1.239 . S
O188 Nd161 2.487 . S
O188 C178 1.241 . S
O189 Nd160 2.414 . S
O189 Nd161 2.682 . S
O189 C178 1.273 . S
O190 Nd161 2.410 . S
O190 C179 1.251 . S
O191 Nd160 2.424 . S
O191 C179 1.268 . S
H192 C164 0.930 . S
H193 C165 0.929 . S
H194 C167 0.930 . S
H195 C168 0.929 . S
H196 C173 0.930 . S
H197 C174 0.929 . S
H198 C176 0.930 . S
H199 C177 0.929 . S
Nd200 C202 2.836 . S
Nd200 O220 2.500 . S
Nd200 O221 2.492 . S
Nd200 O222 2.487 . S
Nd200 O223 2.682 . S
Nd200 O224 2.410 . S
Nd200 O229 2.414 . S
Nd200 O231 2.424 . S
Nd201 C211 2.836 . S
Nd201 O223 2.414 . S
Nd201 O225 2.424 . S
Nd201 O226 2.500 . S
Nd201 O227 2.492 . S
Nd201 O228 2.487 . S
Nd201 O229 2.682 . S
Nd201 O230 2.410 . S
C202 Nd200 2.836 . S
C202 C203 1.498 . S
C202 O220 1.258 . S
C202 O221 1.239 . S
C203 C202 1.498 . S
C203 C204 1.366 . S
C203 C208 1.407 . S
C204 C203 1.366 . S
C204 C205 1.392 . S
C204 H232 0.930 . S
C205 C204 1.392 . S
C205 C206 1.398 . S
C205 H233 0.929 . S
C206 C205 1.398 . S
C206 C207 1.352 . S
C207 C206 1.352 . S
C207 C208 1.384 . S
C207 H234 0.930 . S
C208 C203 1.407 . S
C208 C207 1.384 . S
C208 H235 0.929 . S
C209 O222 1.241 . S
C209 O223 1.273 . S
C210 O224 1.251 . S
C210 O225 1.268 . S
C211 Nd201 2.836 . S
C211 C212 1.498 . S
C211 O226 1.258 . S
C211 O227 1.239 . S
C212 C211 1.498 . S
C212 C213 1.366 . S
C212 C217 1.407 . S
C213 C212 1.366 . S
C213 C214 1.392 . S
C213 H236 0.930 . S
C214 C213 1.392 . S
C214 C215 1.398 . S
C214 H237 0.929 . S
C215 C214 1.398 . S
C215 C216 1.352 . S
C216 C215 1.352 . S
C216 C217 1.384 . S
C216 H238 0.930 . S
C217 C212 1.407 . S
C217 C216 1.384 . S
C217 H239 0.929 . S
C218 O228 1.241 . S
C218 O229 1.273 . S
C219 O230 1.251 . S
C219 O231 1.268 . S
O220 Nd200 2.500 . S
O220 C202 1.258 . S
O221 Nd200 2.492 . S
O221 C202 1.239 . S
O222 Nd200 2.487 . S
O222 C209 1.241 . S
O223 Nd200 2.682 . S
O223 Nd201 2.414 . S
O223 C209 1.273 . S
O224 Nd200 2.410 . S
O224 C210 1.251 . S
O225 Nd201 2.424 . S
O225 C210 1.268 . S
O226 Nd201 2.500 . S
O226 C211 1.258 . S
O227 Nd201 2.492 . S
O227 C211 1.239 . S
O228 Nd201 2.487 . S
O228 C218 1.241 . S
O229 Nd200 2.414 . S
O229 Nd201 2.682 . S
O229 C218 1.273 . S
O230 Nd201 2.410 . S
O230 C219 1.251 . S
O231 Nd200 2.424 . S
O231 C219 1.268 . S
H232 C204 0.930 . S
H233 C205 0.929 . S
H234 C207 0.930 . S
H235 C208 0.929 . S
H236 C213 0.930 . S
H237 C214 0.929 . S
H238 C216 0.930 . S
H239 C217 0.929 . S
Nd240 C242 2.836 . S
Nd240 O260 2.500 . S
Nd240 O261 2.492 . S
Nd240 O262 2.487 . S
Nd240 O263 2.682 . S
Nd240 O264 2.410 . S
Nd240 O269 2.414 . S
Nd240 O271 2.424 . S
Nd241 C251 2.836 . S
Nd241 O263 2.414 . S
Nd241 O265 2.424 . S
Nd241 O266 2.500 . S
Nd241 O267 2.492 . S
Nd241 O268 2.487 . S
Nd241 O269 2.682 . S
Nd241 O270 2.410 . S
C242 Nd240 2.836 . S
C242 C243 1.498 . S
C242 O260 1.258 . S
C242 O261 1.239 . S
C243 C242 1.498 . S
C243 C244 1.366 . S
C243 C248 1.407 . S
C244 C243 1.366 . S
C244 C245 1.392 . S
C244 H272 0.930 . S
C245 C244 1.392 . S
C245 C246 1.398 . S
C245 H273 0.929 . S
C246 C245 1.398 . S
C246 C247 1.352 . S
C247 C246 1.352 . S
C247 C248 1.384 . S
C247 H274 0.930 . S
C248 C243 1.407 . S
C248 C247 1.384 . S
C248 H275 0.929 . S
C249 O262 1.241 . S
C249 O263 1.273 . S
C250 O264 1.251 . S
C250 O265 1.268 . S
C251 Nd241 2.836 . S
C251 C252 1.498 . S
C251 O266 1.258 . S
C251 O267 1.239 . S
C252 C251 1.498 . S
C252 C253 1.366 . S
C252 C257 1.407 . S
C253 C252 1.366 . S
C253 C254 1.392 . S
C253 H276 0.930 . S
C254 C253 1.392 . S
C254 C255 1.398 . S
C254 H277 0.929 . S
C255 C254 1.398 . S
C255 C256 1.352 . S
C256 C255 1.352 . S
C256 C257 1.384 . S
C256 H278 0.930 . S
C257 C252 1.407 . S
C257 C256 1.384 . S
C257 H279 0.929 . S
C258 O268 1.241 . S
C258 O269 1.273 . S
C259 O270 1.251 . S
C259 O271 1.268 . S
O260 Nd240 2.500 . S
O260 C242 1.258 . S
O261 Nd240 2.492 . S
O261 C242 1.239 . S
O262 Nd240 2.487 . S
O262 C249 1.241 . S
O263 Nd240 2.682 . S
O263 Nd241 2.414 . S
O263 C249 1.273 . S
O264 Nd240 2.410 . S
O264 C250 1.251 . S
O265 Nd241 2.424 . S
O265 C250 1.268 . S
O266 Nd241 2.500 . S
O266 C251 1.258 . S
O267 Nd241 2.492 . S
O267 C251 1.239 . S
O268 Nd241 2.487 . S
O268 C258 1.241 . S
O269 Nd240 2.414 . S
O269 Nd241 2.682 . S
O269 C258 1.273 . S
O270 Nd241 2.410 . S
O270 C259 1.251 . S
O271 Nd240 2.424 . S
O271 C259 1.268 . S
H272 C244 0.930 . S
H273 C245 0.929 . S
H274 C247 0.930 . S
H275 C248 0.929 . S
H276 C253 0.930 . S
H277 C254 0.929 . S
H278 C256 0.930 . S
H279 C257 0.929 . S
Nd280 C282 2.836 . S
Nd280 O300 2.500 . S
Nd280 O301 2.492 . S
Nd280 O302 2.487 . S
Nd280 O303 2.682 . S
Nd280 O304 2.410 . S
Nd280 O309 2.414 . S
Nd280 O311 2.424 . S
Nd281 C291 2.836 . S
Nd281 O303 2.414 . S
Nd281 O305 2.424 1_455 S
Nd281 O306 2.500 . S
Nd281 O307 2.492 1_455 S
Nd281 O308 2.487 1_455 S
Nd281 O309 2.682 . S
Nd281 O310 2.410 . S
C282 Nd280 2.836 . S
C282 C283 1.498 . S
C282 O300 1.258 . S
C282 O301 1.239 . S
C283 C282 1.498 . S
C283 C284 1.366 . S
C283 C288 1.407 . S
C284 C283 1.366 . S
C284 C285 1.392 . S
C284 H312 0.930 . S
C285 C284 1.392 . S
C285 C286 1.398 . S
C285 H313 0.929 . S
C286 C285 1.398 . S
C286 C287 1.352 . S
C287 C286 1.352 . S
C287 C288 1.384 . S
C287 H314 0.930 . S
C288 C283 1.407 . S
C288 C287 1.384 . S
C288 H315 0.929 . S
C289 O302 1.241 . S
C289 O303 1.273 . S
C290 O304 1.251 1_655 S
C290 O305 1.268 . S
C291 Nd281 2.836 . S
C291 C292 1.498 . S
C291 O306 1.258 . S
C291 O307 1.239 1_455 S
C292 C291 1.498 . S
C292 C293 1.366 . S
C292 C297 1.407 1_455 S
C293 C292 1.366 . S
C293 C294 1.392 . S
C293 H316 0.930 . S
C294 C293 1.392 . S
C294 C295 1.398 . S
C294 H317 0.929 . S
C295 C294 1.398 . S
C295 C296 1.352 1_455 S
C296 C295 1.352 1_655 S
C296 C297 1.384 . S
C296 H318 0.930 . S
C297 C292 1.407 1_655 S
C297 C296 1.384 . S
C297 H319 0.929 . S
C298 O308 1.241 . S
C298 O309 1.273 1_655 S
C299 O310 1.251 . S
C299 O311 1.268 . S
O300 Nd280 2.500 . S
O300 C282 1.258 . S
O301 Nd280 2.492 . S
O301 C282 1.239 . S
O302 Nd280 2.487 . S
O302 C289 1.241 . S
O303 Nd280 2.682 . S
O303 Nd281 2.414 . S
O303 C289 1.273 . S
O304 Nd280 2.410 . S
O304 C290 1.251 1_455 S
O305 Nd281 2.424 1_655 S
O305 C290 1.268 . S
O306 Nd281 2.500 . S
O306 C291 1.258 . S
O307 Nd281 2.492 1_655 S
O307 C291 1.239 1_655 S
O308 Nd281 2.487 1_655 S
O308 C298 1.241 . S
O309 Nd280 2.414 . S
O309 Nd281 2.682 . S
O309 C298 1.273 1_455 S
O310 Nd281 2.410 . S
O310 C299 1.251 . S
O311 Nd280 2.424 . S
O311 C299 1.268 . S
H312 C284 0.930 . S
H313 C285 0.929 . S
H314 C287 0.930 . S
H315 C288 0.929 . S
H316 C293 0.930 . S
H317 C294 0.929 . S
H318 C296 0.930 . S
H319 C297 0.929 . S
Nd320 C322 2.836 . S
Nd320 O340 2.500 . S
Nd320 O341 2.492 . S
Nd320 O342 2.487 1_556 S
Nd320 O343 2.682 1_556 S
Nd320 O344 2.410 1_556 S
Nd320 O349 2.414 . S
Nd320 O351 2.424 . S
Nd321 C331 2.836 . S
Nd321 O343 2.414 . S
Nd321 O345 2.424 . S
Nd321 O346 2.500 . S
Nd321 O347 2.492 . S
Nd321 O348 2.487 . S
Nd321 O349 2.682 1_554 S
Nd321 O350 2.410 . S
C322 Nd320 2.836 . S
C322 C323 1.498 . S
C322 O340 1.258 . S
C322 O341 1.239 . S
C323 C322 1.498 . S
C323 C324 1.366 . S
C323 C328 1.407 . S
C324 C323 1.366 . S
C324 C325 1.392 . S
C324 H352 0.930 . S
C325 C324 1.392 . S
C325 C326 1.398 . S
C325 H353 0.929 . S
C326 C325 1.398 . S
C326 C327 1.352 . S
C327 C326 1.352 . S
C327 C328 1.384 . S
C327 H354 0.930 . S
C328 C323 1.407 . S
C328 C327 1.384 . S
C328 H355 0.929 . S
C329 O342 1.241 . S
C329 O343 1.273 . S
C330 O344 1.251 . S
C330 O345 1.268 . S
C331 Nd321 2.836 . S
C331 C332 1.498 . S
C331 O346 1.258 . S
C331 O347 1.239 . S
C332 C331 1.498 . S
C332 C333 1.366 . S
C332 C337 1.407 . S
C333 C332 1.366 . S
C333 C334 1.392 . S
C333 H356 0.930 . S
C334 C333 1.392 . S
C334 C335 1.398 . S
C334 H357 0.929 . S
C335 C334 1.398 . S
C335 C336 1.352 . S
C336 C335 1.352 . S
C336 C337 1.384 . S
C336 H358 0.930 . S
C337 C332 1.407 . S
C337 C336 1.384 . S
C337 H359 0.929 . S
C338 O348 1.241 1_556 S
C338 O349 1.273 . S
C339 O350 1.251 . S
C339 O351 1.268 1_554 S
O340 Nd320 2.500 . S
O340 C322 1.258 . S
O341 Nd320 2.492 . S
O341 C322 1.239 . S
O342 Nd320 2.487 1_554 S
O342 C329 1.241 . S
O343 Nd320 2.682 1_554 S
O343 Nd321 2.414 . S
O343 C329 1.273 . S
O344 Nd320 2.410 1_554 S
O344 C330 1.251 . S
O345 Nd321 2.424 . S
O345 C330 1.268 . S
O346 Nd321 2.500 . S
O346 C331 1.258 . S
O347 Nd321 2.492 . S
O347 C331 1.239 . S
O348 Nd321 2.487 . S
O348 C338 1.241 1_554 S
O349 Nd320 2.414 . S
O349 Nd321 2.682 1_556 S
O349 C338 1.273 . S
O350 Nd321 2.410 . S
O350 C339 1.251 . S
O351 Nd320 2.424 . S
O351 C339 1.268 1_556 S
H352 C324 0.930 . S
H353 C325 0.929 . S
H354 C327 0.930 . S
H355 C328 0.929 . S
H356 C333 0.930 . S
H357 C334 0.929 . S
H358 C336 0.930 . S
H359 C337 0.929 . S
Nd360 C362 2.836 . S
Nd360 O380 2.500 . S
Nd360 O381 2.492 . S
Nd360 O382 2.487 1_545 S
Nd360 O383 2.682 1_545 S
Nd360 O384 2.410 . S
Nd360 O389 2.414 . S
Nd360 O391 2.424 . S
Nd361 C371 2.835 1_545 S
Nd361 O383 2.414 1_545 S
Nd361 O385 2.425 . S
Nd361 O386 2.498 1_545 S
Nd361 O387 2.491 1_545 S
Nd361 O388 2.489 . S
Nd361 O389 2.684 . S
Nd361 O390 2.411 . S
C362 Nd360 2.836 . S
C362 C363 1.498 . S
C362 O380 1.258 . S
C362 O381 1.239 . S
C363 C362 1.498 . S
C363 C364 1.366 . S
C363 C368 1.407 . S
C364 C363 1.366 . S
C364 C365 1.392 . S
C364 H392 0.930 . S
C365 C364 1.392 . S
C365 C366 1.398 . S
C365 H393 0.929 . S
C366 C365 1.398 . S
C366 C367 1.352 . S
C367 C366 1.352 . S
C367 C368 1.384 . S
C367 H394 0.930 . S
C368 C363 1.407 . S
C368 C367 1.384 . S
C368 H395 0.929 . S
C369 O382 1.241 . S
C369 O383 1.273 . S
C370 O384 1.251 . S
C370 O385 1.268 . S
C371 Nd361 2.835 1_565 S
C371 C372 1.498 . S
C371 O386 1.258 . S
C371 O387 1.239 . S
C372 C371 1.498 . S
C372 C373 1.366 . S
C372 C377 1.407 . S
C373 C372 1.366 . S
C373 C374 1.392 . S
C373 H396 0.930 . S
C374 C373 1.392 . S
C374 C375 1.398 . S
C374 H397 0.929 . S
C375 C374 1.398 . S
C375 C376 1.352 . S
C376 C375 1.352 . S
C376 C377 1.384 . S
C376 H398 0.930 . S
C377 C372 1.407 . S
C377 C376 1.384 . S
C377 H399 0.929 . S
C378 O388 1.241 . S
C378 O389 1.273 . S
C379 O390 1.251 . S
C379 O391 1.268 . S
O380 Nd360 2.500 . S
O380 C362 1.258 . S
O381 Nd360 2.492 . S
O381 C362 1.239 . S
O382 Nd360 2.487 1_565 S
O382 C369 1.241 . S
O383 Nd360 2.682 1_565 S
O383 Nd361 2.414 1_565 S
O383 C369 1.273 . S
O384 Nd360 2.410 . S
O384 C370 1.251 . S
O385 Nd361 2.425 . S
O385 C370 1.268 . S
O386 Nd361 2.498 1_565 S
O386 C371 1.258 . S
O387 Nd361 2.491 1_565 S
O387 C371 1.239 . S
O388 Nd361 2.489 . S
O388 C378 1.241 . S
O389 Nd360 2.414 . S
O389 Nd361 2.684 . S
O389 C378 1.273 . S
O390 Nd361 2.411 . S
O390 C379 1.251 . S
O391 Nd360 2.424 . S
O391 C379 1.268 . S
H392 C364 0.930 . S
H393 C365 0.929 . S
H394 C367 0.930 . S
H395 C368 0.929 . S
H396 C373 0.930 . S
H397 C374 0.929 . S
H398 C376 0.930 . S
H399 C377 0.929 . S
Nd400 C402 2.836 . S
Nd400 O420 2.500 . S
Nd400 O421 2.492 . S
Nd400 O422 2.487 . S
Nd400 O423 2.682 . S
Nd400 O424 2.410 . S
Nd400 O429 2.414 . S
Nd400 O431 2.424 . S
Nd401 C411 2.836 . S
Nd401 O423 2.414 . S
Nd401 O425 2.424 . S
Nd401 O426 2.500 . S
Nd401 O427 2.492 . S
Nd401 O428 2.487 . S
Nd401 O429 2.682 . S
Nd401 O430 2.410 . S
C402 Nd400 2.836 . S
C402 C403 1.498 . S
C402 O420 1.258 . S
C402 O421 1.239 . S
C403 C402 1.498 . S
C403 C404 1.366 . S
C403 C408 1.407 . S
C404 C403 1.366 . S
C404 C405 1.392 . S
C404 H432 0.930 . S
C405 C404 1.392 . S
C405 C406 1.398 . S
C405 H433 0.929 . S
C406 C405 1.398 . S
C406 C407 1.352 . S
C407 C406 1.352 . S
C407 C408 1.384 . S
C407 H434 0.930 . S
C408 C403 1.407 . S
C408 C407 1.384 . S
C408 H435 0.929 . S
C409 O422 1.241 . S
C409 O423 1.273 . S
C410 O424 1.251 . S
C410 O425 1.268 . S
C411 Nd401 2.836 . S
C411 C412 1.498 . S
C411 O426 1.258 . S
C411 O427 1.239 . S
C412 C411 1.498 . S
C412 C413 1.366 . S
C412 C417 1.407 . S
C413 C412 1.366 . S
C413 C414 1.392 . S
C413 H436 0.930 . S
C414 C413 1.392 . S
C414 C415 1.398 . S
C414 H437 0.929 . S
C415 C414 1.398 . S
C415 C416 1.352 . S
C416 C415 1.352 . S
C416 C417 1.384 . S
C416 H438 0.930 . S
C417 C412 1.407 . S
C417 C416 1.384 . S
C417 H439 0.929 . S
C418 O428 1.241 . S
C418 O429 1.273 . S
C419 O430 1.251 . S
C419 O431 1.268 . S
O420 Nd400 2.500 . S
O420 C402 1.258 . S
O421 Nd400 2.492 . S
O421 C402 1.239 . S
O422 Nd400 2.487 . S
O422 C409 1.241 . S
O423 Nd400 2.682 . S
O423 Nd401 2.414 . S
O423 C409 1.273 . S
O424 Nd400 2.410 . S
O424 C410 1.251 . S
O425 Nd401 2.424 . S
O425 C410 1.268 . S
O426 Nd401 2.500 . S
O426 C411 1.258 . S
O427 Nd401 2.492 . S
O427 C411 1.239 . S
O428 Nd401 2.487 . S
O428 C418 1.241 . S
O429 Nd400 2.414 . S
O429 Nd401 2.682 . S
O429 C418 1.273 . S
O430 Nd401 2.410 . S
O430 C419 1.251 . S
O431 Nd400 2.424 . S
O431 C419 1.268 . S
H432 C404 0.930 . S
H433 C405 0.929 . S
H434 C407 0.930 . S
H435 C408 0.929 . S
H436 C413 0.930 . S
H437 C414 0.929 . S
H438 C416 0.930 . S
H439 C417 0.929 . S
Nd440 C442 2.836 . S
Nd440 O460 2.500 1_455 S
Nd440 O461 2.492 . S
Nd440 O462 2.487 . S
Nd440 O463 2.682 . S
Nd440 O464 2.410 . S
Nd440 O469 2.414 . S
Nd440 O471 2.424 . S
Nd441 C451 2.836 . S
Nd441 O463 2.414 . S
Nd441 O465 2.424 . S
Nd441 O466 2.500 . S
Nd441 O467 2.492 . S
Nd441 O468 2.487 . S
Nd441 O469 2.682 . S
Nd441 O470 2.410 . S
C442 Nd440 2.836 . S
C442 C443 1.498 1_455 S
C442 O460 1.258 1_455 S
C442 O461 1.239 . S
C443 C442 1.498 1_655 S
C443 C444 1.366 . S
C443 C448 1.407 . S
C444 C443 1.366 . S
C444 C445 1.392 . S
C444 H472 0.930 . S
C445 C444 1.392 . S
C445 C446 1.398 . S
C445 H473 0.929 . S
C446 C445 1.398 . S
C446 C447 1.352 . S
C447 C446 1.352 . S
C447 C448 1.384 . S
C447 H474 0.930 . S
C448 C443 1.407 . S
C448 C447 1.384 . S
C448 H475 0.929 1_655 S
C449 O462 1.241 . S
C449 O463 1.273 . S
C450 O464 1.251 . S
C450 O465 1.268 . S
C451 Nd441 2.836 . S
C451 C452 1.498 . S
C451 O466 1.258 . S
C451 O467 1.239 . S
C452 C451 1.498 . S
C452 C453 1.366 . S
C452 C457 1.407 . S
C453 C452 1.366 . S
C453 C454 1.392 . S
C453 H476 0.930 . S
C454 C453 1.392 . S
C454 C455 1.398 . S
C454 H477 0.929 . S
C455 C454 1.398 . S
C455 C456 1.352 . S
C456 C455 1.352 . S
C456 C457 1.384 . S
C456 H478 0.930 . S
C457 C452 1.407 . S
C457 C456 1.384 . S
C457 H479 0.929 . S
C458 O468 1.241 . S
C458 O469 1.273 . S
C459 O470 1.251 . S
C459 O471 1.268 . S
O460 Nd440 2.500 1_655 S
O460 C442 1.258 1_655 S
O461 Nd440 2.492 . S
O461 C442 1.239 . S
O462 Nd440 2.487 . S
O462 C449 1.241 . S
O463 Nd440 2.682 . S
O463 Nd441 2.414 . S
O463 C449 1.273 . S
O464 Nd440 2.410 . S
O464 C450 1.251 . S
O465 Nd441 2.424 . S
O465 C450 1.268 . S
O466 Nd441 2.500 . S
O466 C451 1.258 . S
O467 Nd441 2.492 . S
O467 C451 1.239 . S
O468 Nd441 2.487 . S
O468 C458 1.241 . S
O469 Nd440 2.414 . S
O469 Nd441 2.682 . S
O469 C458 1.273 . S
O470 Nd441 2.410 . S
O470 C459 1.251 . S
O471 Nd440 2.424 . S
O471 C459 1.268 . S
H472 C444 0.930 . S
H473 C445 0.929 . S
H474 C447 0.930 . S
H475 C448 0.929 1_455 S
H476 C453 0.930 . S
H477 C454 0.929 . S
H478 C456 0.930 . S
H479 C457 0.929 . S
Nd480 C482 2.836 . S
Nd480 O500 2.500 . S
Nd480 O501 2.492 . S
Nd480 O502 2.487 . S
Nd480 O503 2.682 . S
Nd480 O504 2.410 . S
Nd480 O509 2.414 . S
Nd480 O511 2.424 . S
Nd481 C491 2.836 . S
Nd481 O503 2.414 . S
Nd481 O505 2.424 . S
Nd481 O506 2.500 . S
Nd481 O507 2.492 . S
Nd481 O508 2.487 . S
Nd481 O509 2.682 . S
Nd481 O510 2.410 . S
C482 Nd480 2.836 . S
C482 C483 1.498 . S
C482 O500 1.258 . S
C482 O501 1.239 . S
C483 C482 1.498 . S
C483 C484 1.366 . S
C483 C488 1.407 . S
C484 C483 1.366 . S
C484 C485 1.392 . S
C484 H512 0.930 . S
C485 C484 1.392 . S
C485 C486 1.398 . S
C485 H513 0.929 . S
C486 C485 1.398 . S
C486 C487 1.352 . S
C487 C486 1.352 . S
C487 C488 1.384 . S
C487 H514 0.930 . S
C488 C483 1.407 . S
C488 C487 1.384 . S
C488 H515 0.929 . S
C489 O502 1.241 . S
C489 O503 1.273 . S
C490 O504 1.251 . S
C490 O505 1.268 . S
C491 Nd481 2.836 . S
C491 C492 1.498 . S
C491 O506 1.258 . S
C491 O507 1.239 . S
C492 C491 1.498 . S
C492 C493 1.366 . S
C492 C497 1.407 . S
C493 C492 1.366 . S
C493 C494 1.392 . S
C493 H516 0.930 . S
C494 C493 1.392 . S
C494 C495 1.398 . S
C494 H517 0.929 . S
C495 C494 1.398 . S
C495 C496 1.352 . S
C496 C495 1.352 . S
C496 C497 1.384 . S
C496 H518 0.930 . S
C497 C492 1.407 . S
C497 C496 1.384 . S
C497 H519 0.929 . S
C498 O508 1.241 . S
C498 O509 1.273 . S
C499 O510 1.251 . S
C499 O511 1.268 . S
O500 Nd480 2.500 . S
O500 C482 1.258 . S
O501 Nd480 2.492 . S
O501 C482 1.239 . S
O502 Nd480 2.487 . S
O502 C489 1.241 . S
O503 Nd480 2.682 . S
O503 Nd481 2.414 . S
O503 C489 1.273 . S
O504 Nd480 2.410 . S
O504 C490 1.251 . S
O505 Nd481 2.424 . S
O505 C490 1.268 . S
O506 Nd481 2.500 . S
O506 C491 1.258 . S
O507 Nd481 2.492 . S
O507 C491 1.239 . S
O508 Nd481 2.487 . S
O508 C498 1.241 . S
O509 Nd480 2.414 . S
O509 Nd481 2.682 . S
O509 C498 1.273 . S
O510 Nd481 2.410 . S
O510 C499 1.251 . S
O511 Nd480 2.424 . S
O511 C499 1.268 . S
H512 C484 0.930 . S
H513 C485 0.929 . S
H514 C487 0.930 . S
H515 C488 0.929 . S
H516 C493 0.930 . S
H517 C494 0.929 . S
H518 C496 0.930 . S
H519 C497 0.929 . S
Nd520 C522 2.836 . S
Nd520 O540 2.500 . S
Nd520 O541 2.492 . S
Nd520 O542 2.487 1_554 S
Nd520 O543 2.682 1_554 S
Nd520 O544 2.410 . S
Nd520 O549 2.414 . S
Nd520 O551 2.424 . S
Nd521 C531 2.836 . S
Nd521 O543 2.414 . S
Nd521 O545 2.424 . S
Nd521 O546 2.500 . S
Nd521 O547 2.492 . S
Nd521 O548 2.487 1_556 S
Nd521 O549 2.682 1_556 S
Nd521 O550 2.410 1_556 S
C522 Nd520 2.836 . S
C522 C523 1.498 . S
C522 O540 1.258 . S
C522 O541 1.239 . S
C523 C522 1.498 . S
C523 C524 1.366 . S
C523 C528 1.407 . S
C524 C523 1.366 . S
C524 C525 1.392 . S
C524 H552 0.930 . S
C525 C524 1.392 . S
C525 C526 1.398 . S
C525 H553 0.929 . S
C526 C525 1.398 . S
C526 C527 1.352 . S
C527 C526 1.352 . S
C527 C528 1.384 . S
C527 H554 0.930 . S
C528 C523 1.407 . S
C528 C527 1.384 . S
C528 H555 0.929 . S
C529 O542 1.241 . S
C529 O543 1.273 . S
C530 O544 1.251 . S
C530 O545 1.268 1_554 S
C531 Nd521 2.836 . S
C531 C532 1.498 . S
C531 O546 1.258 . S
C531 O547 1.239 . S
C532 C531 1.498 . S
C532 C533 1.366 . S
C532 C537 1.407 . S
C533 C532 1.366 . S
C533 C534 1.392 . S
C533 H556 0.930 . S
C534 C533 1.392 . S
C534 C535 1.398 . S
C534 H557 0.929 . S
C535 C534 1.398 . S
C535 C536 1.352 . S
C536 C535 1.352 . S
C536 C537 1.384 . S
C536 H558 0.930 . S
C537 C532 1.407 . S
C537 C536 1.384 . S
C537 H559 0.929 . S
C538 O548 1.241 . S
C538 O549 1.273 . S
C539 O550 1.251 . S
C539 O551 1.268 . S
O540 Nd520 2.500 . S
O540 C522 1.258 . S
O541 Nd520 2.492 . S
O541 C522 1.239 . S
O542 Nd520 2.487 1_556 S
O542 C529 1.241 . S
O543 Nd520 2.682 1_556 S
O543 Nd521 2.414 . S
O543 C529 1.273 . S
O544 Nd520 2.410 . S
O544 C530 1.251 . S
O545 Nd521 2.424 . S
O545 C530 1.268 1_556 S
O546 Nd521 2.500 . S
O546 C531 1.258 . S
O547 Nd521 2.492 . S
O547 C531 1.239 . S
O548 Nd521 2.487 1_554 S
O548 C538 1.241 . S
O549 Nd520 2.414 . S
O549 Nd521 2.682 1_554 S
O549 C538 1.273 . S
O550 Nd521 2.410 1_554 S
O550 C539 1.251 . S
O551 Nd520 2.424 . S
O551 C539 1.268 . S
H552 C524 0.930 . S
H553 C525 0.929 . S
H554 C527 0.930 . S
H555 C528 0.929 . S
H556 C533 0.930 . S
H557 C534 0.929 . S
H558 C536 0.930 . S
H559 C537 0.929 . S
Nd560 C562 2.836 1_545 S
Nd560 O580 2.500 1_545 S
Nd560 O581 2.492 1_545 S
Nd560 O582 2.487 . S
Nd560 O583 2.682 . S
Nd560 O584 2.410 1_545 S
Nd560 O589 2.414 . S
Nd560 O591 2.424 . S
Nd561 C571 2.836 . S
Nd561 O583 2.414 . S
Nd561 O585 2.424 . S
Nd561 O586 2.500 . S
Nd561 O587 2.492 . S
Nd561 O588 2.487 . S
Nd561 O589 2.682 . S
Nd561 O590 2.410 . S
C562 Nd560 2.836 1_565 S
C562 C563 1.498 . S
C562 O580 1.258 . S
C562 O581 1.239 . S
C563 C562 1.498 . S
C563 C564 1.366 . S
C563 C568 1.407 . S
C564 C563 1.366 . S
C564 C565 1.392 . S
C564 H592 0.930 . S
C565 C564 1.392 . S
C565 C566 1.398 . S
C565 H593 0.929 . S
C566 C565 1.398 . S
C566 C567 1.352 . S
C567 C566 1.352 . S
C567 C568 1.384 . S
C567 H594 0.930 . S
C568 C563 1.407 . S
C568 C567 1.384 . S
C568 H595 0.929 . S
C569 O582 1.241 . S
C569 O583 1.273 . S
C570 O584 1.251 . S
C570 O585 1.268 1_565 S
C571 Nd561 2.836 . S
C571 C572 1.498 . S
C571 O586 1.258 . S
C571 O587 1.239 . S
C572 C571 1.498 . S
C572 C573 1.366 . S
C572 C577 1.407 . S
C573 C572 1.366 . S
C573 C574 1.392 . S
C573 H596 0.930 . S
C574 C573 1.392 . S
C574 C575 1.398 . S
C574 H597 0.929 . S
C575 C574 1.398 . S
C575 C576 1.352 . S
C576 C575 1.352 . S
C576 C577 1.384 . S
C576 H598 0.930 . S
C577 C572 1.407 . S
C577 C576 1.384 . S
C577 H599 0.929 . S
C578 O588 1.241 . S
C578 O589 1.273 . S
C579 O590 1.251 . S
C579 O591 1.268 . S
O580 Nd560 2.500 1_565 S
O580 C562 1.258 . S
O581 Nd560 2.492 1_565 S
O581 C562 1.239 . S
O582 Nd560 2.487 . S
O582 C569 1.241 . S
O583 Nd560 2.682 . S
O583 Nd561 2.414 . S
O583 C569 1.273 . S
O584 Nd560 2.410 1_565 S
O584 C570 1.251 . S
O585 Nd561 2.424 . S
O585 C570 1.268 1_545 S
O586 Nd561 2.500 . S
O586 C571 1.258 . S
O587 Nd561 2.492 . S
O587 C571 1.239 . S
O588 Nd561 2.487 . S
O588 C578 1.241 . S
O589 Nd560 2.414 . S
O589 Nd561 2.682 . S
O589 C578 1.273 . S
O590 Nd561 2.410 . S
O590 C579 1.251 . S
O591 Nd560 2.424 . S
O591 C579 1.268 . S
H592 C564 0.930 . S
H593 C565 0.929 . S
H594 C567 0.930 . S
H595 C568 0.929 . S
H596 C573 0.930 . S
H597 C574 0.929 . S
H598 C576 0.930 . S
H599 C577 0.929 . S
Nd600 C602 2.836 . S
Nd600 O620 2.500 . S
Nd600 O621 2.492 . S
Nd600 O622 2.487 1_556 S
Nd600 O623 2.682 1_556 S
Nd600 O624 2.410 1_556 S
Nd600 O629 2.414 . S
Nd600 O631 2.424 1_556 S
Nd601 C611 2.836 . S
Nd601 O623 2.414 . S
Nd601 O625 2.424 . S
Nd601 O626 2.500 . S
Nd601 O627 2.492 . S
Nd601 O628 2.487 1_554 S
Nd601 O629 2.682 1_554 S
Nd601 O630 2.410 . S
C602 Nd600 2.836 . S
C602 C603 1.498 . S
C602 O620 1.258 . S
C602 O621 1.239 . S
C603 C602 1.498 . S
C603 C604 1.366 . S
C603 C608 1.407 . S
C604 C603 1.366 . S
C604 C605 1.392 . S
C604 H632 0.930 . S
C605 C604 1.392 . S
C605 C606 1.398 . S
C605 H633 0.929 . S
C606 C605 1.398 . S
C606 C607 1.352 . S
C607 C606 1.352 . S
C607 C608 1.384 . S
C607 H634 0.930 . S
C608 C603 1.407 . S
C608 C607 1.384 . S
C608 H635 0.929 . S
C609 O622 1.241 . S
C609 O623 1.273 . S
C610 O624 1.251 . S
C610 O625 1.268 . S
C611 Nd601 2.836 . S
C611 C612 1.498 . S
C611 O626 1.258 . S
C611 O627 1.239 . S
C612 C611 1.498 . S
C612 C613 1.366 . S
C612 C617 1.407 . S
C613 C612 1.366 . S
C613 C614 1.392 . S
C613 H636 0.930 . S
C614 C613 1.392 . S
C614 C615 1.398 . S
C614 H637 0.929 . S
C615 C614 1.398 . S
C615 C616 1.352 . S
C616 C615 1.352 . S
C616 C617 1.384 . S
C616 H638 0.930 . S
C617 C612 1.407 . S
C617 C616 1.384 . S
C617 H639 0.929 . S
C618 O628 1.241 . S
C618 O629 1.273 . S
C619 O630 1.251 . S
C619 O631 1.268 . S
O620 Nd600 2.500 . S
O620 C602 1.258 . S
O621 Nd600 2.492 . S
O621 C602 1.239 . S
O622 Nd600 2.487 1_554 S
O622 C609 1.241 . S
O623 Nd600 2.682 1_554 S
O623 Nd601 2.414 . S
O623 C609 1.273 . S
O624 Nd600 2.410 1_554 S
O624 C610 1.251 . S
O625 Nd601 2.424 . S
O625 C610 1.268 . S
O626 Nd601 2.500 . S
O626 C611 1.258 . S
O627 Nd601 2.492 . S
O627 C611 1.239 . S
O628 Nd601 2.487 1_556 S
O628 C618 1.241 . S
O629 Nd600 2.414 . S
O629 Nd601 2.682 1_556 S
O629 C618 1.273 . S
O630 Nd601 2.410 . S
O630 C619 1.251 . S
O631 Nd600 2.424 1_554 S
O631 C619 1.268 . S
H632 C604 0.930 . S
H633 C605 0.929 . S
H634 C607 0.930 . S
H635 C608 0.929 . S
H636 C613 0.930 . S
H637 C614 0.929 . S
H638 C616 0.930 . S
H639 C617 0.929 . S
C640 C641 1.349 1_655 S
C640 C642 1.327 . S
C640 H665 0.950 . S
C641 C640 1.349 1_455 S
C641 C657 1.349 . S
C642 C640 1.327 . S
C642 C661 1.429 1_655 S
C642 H666 0.950 . S
C643 C660 1.574 . S
C643 C662 1.368 . S
C643 H667 0.949 . S
H644 C648 0.949 . S
C645 C646 1.349 . S
C645 C647 1.327 . S
C645 H668 0.950 . S
C646 C645 1.349 . S
C646 C658 1.349 . S
C647 C645 1.327 . S
C647 C663 1.429 . S
C647 H669 0.950 . S
C648 H644 0.949 . S
C648 C656 1.574 . S
C648 C664 1.368 1_655 S
H649 C657 0.950 . S
H650 C655 0.950 . S
H651 C656 0.949 . S
H652 C658 0.950 1_655 S
H653 C659 0.950 1_655 S
H654 C660 0.949 . S
C655 H650 0.950 . S
C655 C657 1.327 . S
C655 C661 1.429 . S
C656 C648 1.574 . S
C656 H651 0.949 . S
C656 C662 1.368 1_655 S
C657 C641 1.349 . S
C657 H649 0.950 . S
C657 C655 1.327 . S
C658 C646 1.349 . S
C658 H652 0.950 1_455 S
C658 C659 1.327 . S
C659 H653 0.950 1_455 S
C659 C658 1.327 . S
C659 C663 1.429 . S
C660 C643 1.574 . S
C660 H654 0.949 . S
C660 C664 1.368 . S
C661 C642 1.429 1_455 S
C661 C655 1.429 . S
C661 C662 1.523 . S
C662 C643 1.368 . S
C662 C656 1.368 1_455 S
C662 C661 1.523 . S
C663 C647 1.429 . S
C663 C659 1.429 . S
C663 C664 1.523 . S
C664 C648 1.368 1_455 S
C664 C660 1.368 . S
C664 C663 1.523 . S
H665 C640 0.950 . S
H666 C642 0.950 . S
H667 C643 0.949 . S
H668 C645 0.950 . S
H669 C647 0.950 . S
C670 C671 1.349 . S
C670 C672 1.327 . S
C670 H695 0.950 . S
C671 C670 1.349 . S
C671 C687 1.349 . S
C672 C670 1.327 . S
C672 C691 1.429 . S
C672 H696 0.950 . S
C673 C690 1.574 . S
C673 C692 1.368 . S
C673 H697 0.949 . S
H674 C678 0.949 . S
C675 C676 1.349 . S
C675 C677 1.327 . S
C675 H698 0.950 . S
C676 C675 1.349 . S
C676 C688 1.349 . S
C677 C675 1.327 . S
C677 C693 1.429 . S
C677 H699 0.950 . S
C678 H674 0.949 . S
C678 C686 1.574 . S
C678 C694 1.368 . S
H679 C687 0.950 . S
H680 C685 0.950 . S
H681 C686 0.949 . S
H682 C688 0.950 . S
H683 C689 0.950 . S
H684 C690 0.949 . S
C685 H680 0.950 . S
C685 C687 1.327 . S
C685 C691 1.429 . S
C686 C678 1.574 . S
C686 H681 0.949 . S
C686 C692 1.368 . S
C687 C671 1.349 . S
C687 H679 0.950 . S
C687 C685 1.327 . S
C688 C676 1.349 . S
C688 H682 0.950 . S
C688 C689 1.327 . S
C689 H683 0.950 . S
C689 C688 1.327 . S
C689 C693 1.429 . S
C690 C673 1.574 . S
C690 H684 0.949 . S
C690 C694 1.368 . S
C691 C672 1.429 . S
C691 C685 1.429 . S
C691 C692 1.523 . S
C692 C673 1.368 . S
C692 C686 1.368 . S
C692 C691 1.523 . S
C693 C677 1.429 . S
C693 C689 1.429 . S
C693 C694 1.523 . S
C694 C678 1.368 . S
C694 C690 1.368 . S
C694 C693 1.523 . S
H695 C670 0.950 . S
H696 C672 0.950 . S
H697 C673 0.949 . S
H698 C675 0.950 . S
H699 C677 0.950 . S
C700 C701 1.349 . S
C700 C702 1.327 . S
C700 H725 0.950 . S
C701 C700 1.349 . S
C701 C717 1.349 . S
C702 C700 1.327 . S
C702 C721 1.429 . S
C702 H726 0.950 . S
C703 C720 1.574 . S
C703 C722 1.368 . S
C703 H727 0.949 . S
H704 C708 0.949 . S
C705 C706 1.349 . S
C705 C707 1.327 . S
C705 H728 0.950 . S
C706 C705 1.349 . S
C706 C718 1.349 . S
C707 C705 1.327 . S
C707 C723 1.429 . S
C707 H729 0.950 . S
C708 H704 0.949 . S
C708 C716 1.574 . S
C708 C724 1.368 . S
H709 C717 0.950 . S
H710 C715 0.950 . S
H711 C716 0.949 . S
H712 C718 0.950 . S
H713 C719 0.950 . S
H714 C720 0.949 . S
C715 H710 0.950 . S
C715 C717 1.327 . S
C715 C721 1.429 . S
C716 C708 1.574 . S
C716 H711 0.949 . S
C716 C722 1.368 . S
C717 C701 1.349 . S
C717 H709 0.950 . S
C717 C715 1.327 . S
C718 C706 1.349 . S
C718 H712 0.950 . S
C718 C719 1.327 . S
C719 H713 0.950 . S
C719 C718 1.327 . S
C719 C723 1.429 . S
C720 C703 1.574 . S
C720 H714 0.949 . S
C720 C724 1.368 . S
C721 C702 1.429 . S
C721 C715 1.429 . S
C721 C722 1.523 . S
C722 C703 1.368 . S
C722 C716 1.368 . S
C722 C721 1.523 . S
C723 C707 1.429 . S
C723 C719 1.429 . S
C723 C724 1.523 . S
C724 C708 1.368 . S
C724 C720 1.368 . S
C724 C723 1.523 . S
H725 C700 0.950 . S
H726 C702 0.950 . S
H727 C703 0.949 . S
H728 C705 0.950 . S
H729 C707 0.950 . S
C730 C731 1.345 1_565 S
C730 C732 1.328 . S
C730 H755 0.954 . S
C731 C730 1.345 1_545 S
C731 C747 1.349 . S
C732 C730 1.328 . S
C732 C751 1.417 1_565 S
C732 H756 0.960 . S
C733 C750 1.574 . S
C733 C752 1.368 . S
C733 H757 0.949 . S
H734 C738 0.956 . S
C735 C736 1.349 . S
C735 C737 1.327 . S
C735 H758 0.950 . S
C736 C735 1.349 . S
C736 C748 1.349 . S
C737 C735 1.327 . S
C737 C753 1.429 . S
C737 H759 0.950 . S
C738 H734 0.956 . S
C738 C746 1.572 . S
C738 C754 1.360 1_565 S
H739 C747 0.950 . S
H740 C745 0.950 . S
H741 C746 0.974 . S
H742 C748 0.950 1_565 S
H743 C749 0.950 1_565 S
H744 C750 0.949 . S
C745 H740 0.950 . S
C745 C747 1.327 . S
C745 C751 1.429 . S
C746 C738 1.572 . S
C746 H741 0.974 . S
C746 C752 1.344 1_565 S
C747 C731 1.349 . S
C747 H739 0.950 . S
C747 C745 1.327 . S
C748 C736 1.349 . S
C748 H742 0.950 1_545 S
C748 C749 1.327 . S
C749 H743 0.950 1_545 S
C749 C748 1.327 . S
C749 C753 1.429 . S
C750 C733 1.574 . S
C750 H744 0.949 . S
C750 C754 1.368 . S
C751 C732 1.417 1_545 S
C751 C745 1.429 . S
C751 C752 1.523 . S
C752 C733 1.368 . S
C752 C746 1.344 1_545 S
C752 C751 1.523 . S
C753 C737 1.429 . S
C753 C749 1.429 . S
C753 C754 1.523 . S
C754 C738 1.360 1_545 S
C754 C750 1.368 . S
C754 C753 1.523 . S
H755 C730 0.954 . S
H756 C732 0.960 . S
H757 C733 0.949 . S
H758 C735 0.950 . S
H759 C737 0.950 . S
C760 C761 1.349 1_545 S
C760 C762 1.327 . S
C760 H785 0.950 . S
C761 C760 1.349 1_565 S
C761 C777 1.349 . S
C762 C760 1.327 . S
C762 C781 1.398 1_545 S
C762 H786 0.950 . S
C763 C780 1.574 . S
C763 C782 1.368 1_565 S
C763 H787 0.949 . S
H764 C768 0.949 . S
C765 C766 1.349 1_565 S
C765 C767 1.327 . S
C765 H788 0.950 . S
C766 C765 1.349 1_545 S
C766 C778 1.349 . S
C767 C765 1.327 . S
C767 C783 1.429 1_565 S
C767 H789 0.950 . S
C768 H764 0.949 . S
C768 C776 1.574 . S
C768 C784 1.368 . S
H769 C777 0.950 . S
H770 C775 0.950 . S
H771 C776 0.949 . S
H772 C778 0.950 . S
H773 C779 0.950 . S
H774 C780 0.949 . S
C775 H770 0.950 . S
C775 C777 1.327 . S
C775 C781 1.462 . S
C776 C768 1.574 . S
C776 H771 0.949 . S
C776 C782 1.368 . S
C777 C761 1.349 . S
C777 H769 0.950 . S
C777 C775 1.327 . S
C778 C766 1.349 . S
C778 H772 0.950 . S
C778 C779 1.327 . S
C779 H773 0.950 . S
C779 C778 1.327 . S
C779 C783 1.429 . S
C780 C763 1.574 . S
C780 H774 0.949 . S
C780 C784 1.368 1_565 S
C781 C762 1.398 1_565 S
C781 C775 1.462 . S
C781 C782 1.522 1_565 S
C782 C763 1.368 1_545 S
C782 C776 1.368 . S
C782 C781 1.522 1_545 S
C783 C767 1.429 1_545 S
C783 C779 1.429 . S
C783 C784 1.523 . S
C784 C768 1.368 . S
C784 C780 1.368 1_545 S
C784 C783 1.523 . S
H785 C760 0.950 . S
H786 C762 0.950 . S
H787 C763 0.949 . S
H788 C765 0.950 . S
H789 C767 0.950 . S
C790 C791 1.349 . S
C790 C792 1.327 . S
C790 H815 0.950 . S
C791 C790 1.349 . S
C791 C807 1.349 . S
C792 C790 1.327 . S
C792 C811 1.429 . S
C792 H816 0.950 . S
C793 C810 1.574 . S
C793 C812 1.368 . S
C793 H817 0.949 . S
H794 C798 0.949 . S
C795 C796 1.349 . S
C795 C797 1.327 . S
C795 H818 0.950 . S
C796 C795 1.349 . S
C796 C808 1.349 . S
C797 C795 1.327 . S
C797 C813 1.429 . S
C797 H819 0.950 . S
C798 H794 0.949 . S
C798 C806 1.574 . S
C798 C814 1.368 . S
H799 C807 0.950 . S
H800 C805 0.950 . S
H801 C806 0.949 . S
H802 C808 0.950 . S
H803 C809 0.950 . S
H804 C810 0.949 . S
C805 H800 0.950 . S
C805 C807 1.327 . S
C805 C811 1.429 . S
C806 C798 1.574 . S
C806 H801 0.949 . S
C806 C812 1.368 . S
C807 C791 1.349 . S
C807 H799 0.950 . S
C807 C805 1.327 . S
C808 C796 1.349 . S
C808 H802 0.950 . S
C808 C809 1.327 . S
C809 H803 0.950 . S
C809 C808 1.327 . S
C809 C813 1.429 . S
C810 C793 1.574 . S
C810 H804 0.949 . S
C810 C814 1.368 . S
C811 C792 1.429 . S
C811 C805 1.429 . S
C811 C812 1.523 . S
C812 C793 1.368 . S
C812 C806 1.368 . S
C812 C811 1.523 . S
C813 C797 1.429 . S
C813 C809 1.429 . S
C813 C814 1.523 . S
C814 C798 1.368 . S
C814 C810 1.368 . S
C814 C813 1.523 . S
H815 C790 0.950 . S
H816 C792 0.950 . S
H817 C793 0.949 . S
H818 C795 0.950 . S
H819 C797 0.950 . S
C820 C821 1.349 . S
C820 C822 1.327 . S
C820 H845 0.950 . S
C821 C820 1.349 . S
C821 C837 1.349 . S
C822 C820 1.327 . S
C822 C841 1.429 . S
C822 H846 0.950 . S
C823 C840 1.574 . S
C823 C842 1.368 . S
C823 H847 0.949 . S
H824 C828 0.949 . S
C825 C826 1.349 . S
C825 C827 1.327 . S
C825 H848 0.950 . S
C826 C825 1.349 . S
C826 C838 1.349 . S
C827 C825 1.327 . S
C827 C843 1.429 . S
C827 H849 0.950 . S
C828 H824 0.949 . S
C828 C836 1.574 . S
C828 C844 1.368 . S
H829 C837 0.950 . S
H830 C835 0.950 . S
H831 C836 0.949 . S
H832 C838 0.950 . S
H833 C839 0.950 . S
H834 C840 0.949 . S
C835 H830 0.950 . S
C835 C837 1.327 . S
C835 C841 1.429 . S
C836 C828 1.574 . S
C836 H831 0.949 . S
C836 C842 1.368 . S
C837 C821 1.349 . S
C837 H829 0.950 . S
C837 C835 1.327 . S
C838 C826 1.349 . S
C838 H832 0.950 . S
C838 C839 1.327 . S
C839 H833 0.950 . S
C839 C838 1.327 . S
C839 C843 1.429 . S
C840 C823 1.574 . S
C840 H834 0.949 . S
C840 C844 1.368 . S
C841 C822 1.429 . S
C841 C835 1.429 . S
C841 C842 1.523 . S
C842 C823 1.368 . S
C842 C836 1.368 . S
C842 C841 1.523 . S
C843 C827 1.429 . S
C843 C839 1.429 . S
C843 C844 1.523 . S
C844 C828 1.368 . S
C844 C840 1.368 . S
C844 C843 1.523 . S
H845 C820 0.950 . S
H846 C822 0.950 . S
H847 C823 0.949 . S
H848 C825 0.950 . S
H849 C827 0.950 . S
C850 C851 1.349 . S
C850 C852 1.327 . S
C850 H875 0.950 . S
C851 C850 1.349 . S
C851 C867 1.349 . S
C852 C850 1.327 . S
C852 C871 1.429 . S
C852 H876 0.950 . S
C853 C870 1.574 . S
C853 C872 1.368 . S
C853 H877 0.949 . S
H854 C858 0.949 . S
C855 C856 1.349 . S
C855 C857 1.327 . S
C855 H878 0.950 . S
C856 C855 1.349 . S
C856 C868 1.349 . S
C857 C855 1.327 . S
C857 C873 1.429 . S
C857 H879 0.950 . S
C858 H854 0.949 . S
C858 C866 1.574 . S
C858 C874 1.368 . S
H859 C867 0.950 . S
H860 C865 0.950 . S
H861 C866 0.949 . S
H862 C868 0.950 . S
H863 C869 0.950 . S
H864 C870 0.949 . S
C865 H860 0.950 . S
C865 C867 1.327 . S
C865 C871 1.429 . S
C866 C858 1.574 . S
C866 H861 0.949 . S
C866 C872 1.368 . S
C867 C851 1.349 . S
C867 H859 0.950 . S
C867 C865 1.327 . S
C868 C856 1.349 . S
C868 H862 0.950 . S
C868 C869 1.327 . S
C869 H863 0.950 . S
C869 C868 1.327 . S
C869 C873 1.429 . S
C870 C853 1.574 . S
C870 H864 0.949 . S
C870 C874 1.368 . S
C871 C852 1.429 . S
C871 C865 1.429 . S
C871 C872 1.523 . S
C872 C853 1.368 . S
C872 C866 1.368 . S
C872 C871 1.523 . S
C873 C857 1.429 . S
C873 C869 1.429 . S
C873 C874 1.523 . S
C874 C858 1.368 . S
C874 C870 1.368 . S
C874 C873 1.523 . S
H875 C850 0.950 . S
H876 C852 0.950 . S
H877 C853 0.949 . S
H878 C855 0.950 . S
H879 C857 0.950 . S
C880 C881 1.349 . S
C880 C882 1.327 . S
C880 H905 0.950 . S
C881 C880 1.349 . S
C881 C897 1.349 . S
C882 C880 1.327 . S
C882 C901 1.429 . S
C882 H906 0.950 . S
C883 C900 1.574 . S
C883 C902 1.368 . S
C883 H907 0.949 . S
H884 C888 0.949 . S
C885 C886 1.349 . S
C885 C887 1.327 . S
C885 H908 0.950 . S
C886 C885 1.349 . S
C886 C898 1.349 . S
C887 C885 1.327 . S
C887 C903 1.429 . S
C887 H909 0.950 . S
C888 H884 0.949 . S
C888 C896 1.574 . S
C888 C904 1.368 . S
H889 C897 0.950 . S
H890 C895 0.950 . S
H891 C896 0.949 . S
H892 C898 0.950 . S
H893 C899 0.950 . S
H894 C900 0.949 . S
C895 H890 0.950 . S
C895 C897 1.327 . S
C895 C901 1.429 . S
C896 C888 1.574 . S
C896 H891 0.949 . S
C896 C902 1.368 . S
C897 C881 1.349 . S
C897 H889 0.950 . S
C897 C895 1.327 . S
C898 C886 1.349 . S
C898 H892 0.950 . S
C898 C899 1.327 . S
C899 H893 0.950 . S
C899 C898 1.327 . S
C899 C903 1.429 . S
C900 C883 1.574 . S
C900 H894 0.949 . S
C900 C904 1.368 . S
C901 C882 1.429 . S
C901 C895 1.429 . S
C901 C902 1.523 . S
C902 C883 1.368 . S
C902 C896 1.368 . S
C902 C901 1.523 . S
C903 C887 1.429 . S
C903 C899 1.429 . S
C903 C904 1.523 . S
C904 C888 1.368 . S
C904 C900 1.368 . S
C904 C903 1.523 . S
H905 C880 0.950 . S
H906 C882 0.950 . S
H907 C883 0.949 . S
H908 C885 0.950 . S
H909 C887 0.950 . S
C910 C911 1.349 . S
C910 C912 1.327 . S
C910 H935 0.950 . S
C911 C910 1.349 . S
C911 C927 1.349 . S
C912 C910 1.327 . S
C912 C931 1.429 . S
C912 H936 0.950 . S
C913 C930 1.574 . S
C913 C932 1.368 . S
C913 H937 0.949 . S
H914 C918 0.949 . S
C915 C916 1.349 . S
C915 C917 1.327 . S
C915 H938 0.950 . S
C916 C915 1.349 . S
C916 C928 1.349 . S
C917 C915 1.327 . S
C917 C933 1.429 . S
C917 H939 0.950 . S
C918 H914 0.949 . S
C918 C926 1.574 . S
C918 C934 1.368 . S
H919 C927 0.950 . S
H920 C925 0.950 . S
H921 C926 0.949 . S
H922 C928 0.950 . S
H923 C929 0.950 . S
H924 C930 0.949 . S
C925 H920 0.950 . S
C925 C927 1.327 . S
C925 C931 1.429 . S
C926 C918 1.574 . S
C926 H921 0.949 . S
C926 C932 1.368 . S
C927 C911 1.349 . S
C927 H919 0.950 . S
C927 C925 1.327 . S
C928 C916 1.349 . S
C928 H922 0.950 . S
C928 C929 1.327 . S
C929 H923 0.950 . S
C929 C928 1.327 . S
C929 C933 1.429 . S
C930 C913 1.574 . S
C930 H924 0.949 . S
C930 C934 1.368 . S
C931 C912 1.429 . S
C931 C925 1.429 . S
C931 C932 1.523 . S
C932 C913 1.368 . S
C932 C926 1.368 . S
C932 C931 1.523 . S
C933 C917 1.429 . S
C933 C929 1.429 . S
C933 C934 1.523 . S
C934 C918 1.368 . S
C934 C930 1.368 . S
C934 C933 1.523 . S
H935 C910 0.950 . S
H936 C912 0.950 . S
H937 C913 0.949 . S
H938 C915 0.950 . S
H939 C917 0.950 . S
C940 C941 1.349 . S
C940 C942 1.327 . S
C940 H965 0.950 1_545 S
C941 C940 1.349 . S
C941 C957 1.349 . S
C942 C940 1.327 . S
C942 C961 1.429 . S
C942 H966 0.950 1_545 S
C943 C960 1.574 . S
C943 C962 1.368 . S
C943 H967 0.949 . S
H944 C948 0.927 1_565 S
C945 C946 1.349 . S
C945 C947 1.327 . S
C945 H968 0.950 . S
C946 C945 1.349 . S
C946 C958 1.380 . S
C947 C945 1.327 . S
C947 C963 1.429 . S
C947 H969 0.950 . S
C948 H944 0.927 1_545 S
C948 C956 1.572 . S
C948 C964 1.391 . S
H949 C957 0.950 . S
H950 C955 0.950 . S
H951 C956 0.918 1_565 S
H952 C958 0.917 1_565 S
H953 C959 0.923 1_565 S
H954 C960 0.949 . S
C955 H950 0.950 . S
C955 C957 1.327 . S
C955 C961 1.429 . S
C956 C948 1.572 . S
C956 H951 0.918 1_545 S
C956 C962 1.409 . S
C957 C941 1.349 . S
C957 H949 0.950 . S
C957 C955 1.327 . S
C958 C946 1.380 . S
C958 H952 0.917 1_545 S
C958 C959 1.327 . S
C959 H953 0.923 1_545 S
C959 C958 1.327 . S
C959 C963 1.459 . S
C960 C943 1.574 . S
C960 H954 0.949 . S
C960 C964 1.368 . S
C961 C942 1.429 . S
C961 C955 1.429 . S
C961 C962 1.523 . S
C962 C943 1.368 . S
C962 C956 1.409 . S
C962 C961 1.523 . S
C963 C947 1.429 . S
C963 C959 1.459 . S
C963 C964 1.523 . S
C964 C948 1.391 . S
C964 C960 1.368 . S
C964 C963 1.523 . S
H965 C940 0.950 1_565 S
H966 C942 0.950 1_565 S
H967 C943 0.949 . S
H968 C945 0.950 . S
H969 C947 0.950 . S
C970 C971 1.349 . S
C970 C972 1.327 . S
C970 H995 0.950 . S
C971 C970 1.349 . S
C971 C987 1.349 . S
C972 C970 1.327 . S
C972 C991 1.429 . S
C972 H996 0.950 . S
C973 C990 1.574 . S
C973 C992 1.368 . S
C973 H997 0.949 . S
H974 C978 0.949 . S
C975 C976 1.349 . S
C975 C977 1.327 . S
C975 H998 0.950 . S
C976 C975 1.349 . S
C976 C988 1.349 . S
C977 C975 1.327 . S
C977 C993 1.429 . S
C977 H999 0.950 . S
C978 H974 0.949 . S
C978 C986 1.574 . S
C978 C994 1.368 . S
H979 C987 0.950 . S
H980 C985 0.950 . S
H981 C986 0.949 . S
H982 C988 0.950 . S
H983 C989 0.950 . S
H984 C990 0.949 . S
C985 H980 0.950 . S
C985 C987 1.327 . S
C985 C991 1.429 . S
C986 C978 1.574 . S
C986 H981 0.949 . S
C986 C992 1.368 . S
C987 C971 1.349 . S
C987 H979 0.950 . S
C987 C985 1.327 . S
C988 C976 1.349 . S
C988 H982 0.950 . S
C988 C989 1.327 . S
C989 H983 0.950 . S
C989 C988 1.327 . S
C989 C993 1.429 . S
C990 C973 1.574 . S
C990 H984 0.949 . S
C990 C994 1.368 . S
C991 C972 1.429 . S
C991 C985 1.429 . S
C991 C992 1.523 . S
C992 C973 1.368 . S
C992 C986 1.368 . S
C992 C991 1.523 . S
C993 C977 1.429 . S
C993 C989 1.429 . S
C993 C994 1.523 . S
C994 C978 1.368 . S
C994 C990 1.368 . S
C994 C993 1.523 . S
H995 C970 0.950 . S
H996 C972 0.950 . S
H997 C973 0.949 . S
H998 C975 0.950 . S
H999 C977 0.950 . S
C1000 C1001 1.349 1_556 S
C1000 C1002 1.327 . S
C1000 H1025 0.950 . S
C1001 C1000 1.349 1_554 S
C1001 C1017 1.349 . S
C1002 C1000 1.327 . S
C1002 C1021 1.429 1_556 S
C1002 H1026 0.950 . S
C1003 C1020 1.574 . S
C1003 C1022 1.368 . S
C1003 H1027 0.949 . S
H1004 C1008 0.949 . S
C1005 C1006 1.349 . S
C1005 C1007 1.327 . S
C1005 H1028 0.950 . S
C1006 C1005 1.349 . S
C1006 C1018 1.349 1_554 S
C1007 C1005 1.327 . S
C1007 C1023 1.429 . S
C1007 H1029 0.950 . S
C1008 H1004 0.949 . S
C1008 C1016 1.574 . S
C1008 C1024 1.368 1_556 S
H1009 C1017 0.950 . S
H1010 C1015 0.950 . S
H1011 C1016 0.949 . S
H1012 C1018 0.950 . S
H1013 C1019 0.950 . S
H1014 C1020 0.949 . S
C1015 H1010 0.950 . S
C1015 C1017 1.327 . S
C1015 C1021 1.429 . S
C1016 C1008 1.574 . S
C1016 H1011 0.949 . S
C1016 C1022 1.368 1_556 S
C1017 C1001 1.349 . S
C1017 H1009 0.950 . S
C1017 C1015 1.327 . S
C1018 C1006 1.349 1_556 S
C1018 H1012 0.950 . S
C1018 C1019 1.327 . S
C1019 H1013 0.950 . S
C1019 C1018 1.327 . S
C1019 C1023 1.429 1_556 S
C1020 C1003 1.574 . S
C1020 H1014 0.949 . S
C1020 C1024 1.368 . S
C1021 C1002 1.429 1_554 S
C1021 C1015 1.429 . S
C1021 C1022 1.523 . S
C1022 C1003 1.368 . S
C1022 C1016 1.368 1_554 S
C1022 C1021 1.523 . S
C1023 C1007 1.429 . S
C1023 C1019 1.429 1_554 S
C1023 C1024 1.523 . S
C1024 C1008 1.368 1_554 S
C1024 C1020 1.368 . S
C1024 C1023 1.523 . S
H1025 C1000 0.950 . S
H1026 C1002 0.950 . S
H1027 C1003 0.949 . S
H1028 C1005 0.950 . S
H1029 C1007 0.950 . S
C1030 C1031 1.349 . S
C1030 C1032 1.327 . S
C1030 H1055 0.950 . S
C1031 C1030 1.349 . S
C1031 C1047 1.349 . S
C1032 C1030 1.327 . S
C1032 C1051 1.429 . S
C1032 H1056 0.950 . S
C1033 C1050 1.574 . S
C1033 C1052 1.368 . S
C1033 H1057 0.949 . S
H1034 C1038 0.949 . S
C1035 C1036 1.349 . S
C1035 C1037 1.327 . S
C1035 H1058 0.950 . S
C1036 C1035 1.349 . S
C1036 C1048 1.349 . S
C1037 C1035 1.327 . S
C1037 C1053 1.429 . S
C1037 H1059 0.950 . S
C1038 H1034 0.949 . S
C1038 C1046 1.574 . S
C1038 C1054 1.368 . S
H1039 C1047 0.950 . S
H1040 C1045 0.950 . S
H1041 C1046 0.949 . S
H1042 C1048 0.950 . S
H1043 C1049 0.950 . S
H1044 C1050 0.949 . S
C1045 H1040 0.950 . S
C1045 C1047 1.327 . S
C1045 C1051 1.429 . S
C1046 C1038 1.574 . S
C1046 H1041 0.949 . S
C1046 C1052 1.368 . S
C1047 C1031 1.349 . S
C1047 H1039 0.950 . S
C1047 C1045 1.327 . S
C1048 C1036 1.349 . S
C1048 H1042 0.950 . S
C1048 C1049 1.327 . S
C1049 H1043 0.950 . S
C1049 C1048 1.327 . S
C1049 C1053 1.429 . S
C1050 C1033 1.574 . S
C1050 H1044 0.949 . S
C1050 C1054 1.368 . S
C1051 C1032 1.429 . S
C1051 C1045 1.429 . S
C1051 C1052 1.523 . S
C1052 C1033 1.368 . S
C1052 C1046 1.368 . S
C1052 C1051 1.523 . S
C1053 C1037 1.429 . S
C1053 C1049 1.429 . S
C1053 C1054 1.523 . S
C1054 C1038 1.368 . S
C1054 C1050 1.368 . S
C1054 C1053 1.523 . S
H1055 C1030 0.950 . S
H1056 C1032 0.950 . S
H1057 C1033 0.949 . S
H1058 C1035 0.950 . S
H1059 C1037 0.950 . S
C1060 C1061 1.349 . S
C1060 C1062 1.327 . S
C1060 H1085 0.950 . S
C1061 C1060 1.349 . S
C1061 C1077 1.349 . S
C1062 C1060 1.327 . S
C1062 C1081 1.429 . S
C1062 H1086 0.950 . S
C1063 C1080 1.574 . S
C1063 C1082 1.368 . S
C1063 H1087 0.949 . S
H1064 C1068 0.949 . S
C1065 C1066 1.349 . S
C1065 C1067 1.327 . S
C1065 H1088 0.950 . S
C1066 C1065 1.349 . S
C1066 C1078 1.349 . S
C1067 C1065 1.327 . S
C1067 C1083 1.429 . S
C1067 H1089 0.950 . S
C1068 H1064 0.949 . S
C1068 C1076 1.574 . S
C1068 C1084 1.368 . S
H1069 C1077 0.950 . S
H1070 C1075 0.950 . S
H1071 C1076 0.949 . S
H1072 C1078 0.950 . S
H1073 C1079 0.950 . S
H1074 C1080 0.949 . S
C1075 H1070 0.950 . S
C1075 C1077 1.327 . S
C1075 C1081 1.429 . S
C1076 C1068 1.574 . S
C1076 H1071 0.949 . S
C1076 C1082 1.368 . S
C1077 C1061 1.349 . S
C1077 H1069 0.950 . S
C1077 C1075 1.327 . S
C1078 C1066 1.349 . S
C1078 H1072 0.950 . S
C1078 C1079 1.327 . S
C1079 H1073 0.950 . S
C1079 C1078 1.327 . S
C1079 C1083 1.429 . S
C1080 C1063 1.574 . S
C1080 H1074 0.949 . S
C1080 C1084 1.368 . S
C1081 C1062 1.429 . S
C1081 C1075 1.429 . S
C1081 C1082 1.523 . S
C1082 C1063 1.368 . S
C1082 C1076 1.368 . S
C1082 C1081 1.523 . S
C1083 C1067 1.429 . S
C1083 C1079 1.429 . S
C1083 C1084 1.523 . S
C1084 C1068 1.368 . S
C1084 C1080 1.368 . S
C1084 C1083 1.523 . S
H1085 C1060 0.950 . S
H1086 C1062 0.950 . S
H1087 C1063 0.949 . S
H1088 C1065 0.950 . S
H1089 C1067 0.950 . S
C1090 C1091 1.349 . S
C1090 C1092 1.327 . S
C1090 H1115 0.950 . S
C1091 C1090 1.349 . S
C1091 C1107 1.349 . S
C1092 C1090 1.327 . S
C1092 C1111 1.429 . S
C1092 H1116 0.950 . S
C1093 C1110 1.574 . S
C1093 C1112 1.368 . S
C1093 H1117 0.949 . S
H1094 C1098 0.949 . S
C1095 C1096 1.349 . S
C1095 C1097 1.327 . S
C1095 H1118 0.950 . S
C1096 C1095 1.349 . S
C1096 C1108 1.349 . S
C1097 C1095 1.327 . S
C1097 C1113 1.429 . S
C1097 H1119 0.950 . S
C1098 H1094 0.949 . S
C1098 C1106 1.574 . S
C1098 C1114 1.368 . S
H1099 C1107 0.950 . S
H1100 C1105 0.950 . S
H1101 C1106 0.949 . S
H1102 C1108 0.950 . S
H1103 C1109 0.950 . S
H1104 C1110 0.949 . S
C1105 H1100 0.950 . S
C1105 C1107 1.327 . S
C1105 C1111 1.429 . S
C1106 C1098 1.574 . S
C1106 H1101 0.949 . S
C1106 C1112 1.368 . S
C1107 C1091 1.349 . S
C1107 H1099 0.950 . S
C1107 C1105 1.327 . S
C1108 C1096 1.349 . S
C1108 H1102 0.950 . S
C1108 C1109 1.327 . S
C1109 H1103 0.950 . S
C1109 C1108 1.327 . S
C1109 C1113 1.429 . S
C1110 C1093 1.574 . S
C1110 H1104 0.949 . S
C1110 C1114 1.368 . S
C1111 C1092 1.429 . S
C1111 C1105 1.429 . S
C1111 C1112 1.523 . S
C1112 C1093 1.368 . S
C1112 C1106 1.368 . S
C1112 C1111 1.523 . S
C1113 C1097 1.429 . S
C1113 C1109 1.429 . S
C1113 C1114 1.523 . S
C1114 C1098 1.368 . S
C1114 C1110 1.368 . S
C1114 C1113 1.523 . S
H1115 C1090 0.950 . S
H1116 C1092 0.950 . S
H1117 C1093 0.949 . S
H1118 C1095 0.950 . S
H1119 C1097 0.950 . S
C1120 C1121 1.349 . S
C1120 C1122 1.327 . S
C1120 H1145 0.950 . S
C1121 C1120 1.349 . S
C1121 C1137 1.349 . S
C1122 C1120 1.327 . S
C1122 C1141 1.429 . S
C1122 H1146 0.950 . S
C1123 C1140 1.574 . S
C1123 C1142 1.368 . S
C1123 H1147 0.949 . S
H1124 C1128 0.949 . S
C1125 C1126 1.349 . S
C1125 C1127 1.327 . S
C1125 H1148 0.950 . S
C1126 C1125 1.349 . S
C1126 C1138 1.349 . S
C1127 C1125 1.327 . S
C1127 C1143 1.429 . S
C1127 H1149 0.950 . S
C1128 H1124 0.949 . S
C1128 C1136 1.574 . S
C1128 C1144 1.368 . S
H1129 C1137 0.950 . S
H1130 C1135 0.950 . S
H1131 C1136 0.949 . S
H1132 C1138 0.950 1_455 S
H1133 C1139 0.950 . S
H1134 C1140 0.949 . S
C1135 H1130 0.950 . S
C1135 C1137 1.327 . S
C1135 C1141 1.429 . S
C1136 C1128 1.574 . S
C1136 H1131 0.949 . S
C1136 C1142 1.368 . S
C1137 C1121 1.349 . S
C1137 H1129 0.950 . S
C1137 C1135 1.327 . S
C1138 C1126 1.349 . S
C1138 H1132 0.950 1_655 S
C1138 C1139 1.327 . S
C1139 H1133 0.950 . S
C1139 C1138 1.327 . S
C1139 C1143 1.429 . S
C1140 C1123 1.574 . S
C1140 H1134 0.949 . S
C1140 C1144 1.368 . S
C1141 C1122 1.429 . S
C1141 C1135 1.429 . S
C1141 C1142 1.523 . S
C1142 C1123 1.368 . S
C1142 C1136 1.368 . S
C1142 C1141 1.523 . S
C1143 C1127 1.429 . S
C1143 C1139 1.429 . S
C1143 C1144 1.523 . S
C1144 C1128 1.368 . S
C1144 C1140 1.368 . S
C1144 C1143 1.523 . S
H1145 C1120 0.950 . S
H1146 C1122 0.950 . S
H1147 C1123 0.949 . S
H1148 C1125 0.950 . S
H1149 C1127 0.950 . S
C1150 C1151 1.349 . S
C1150 C1152 1.327 . S
C1150 H1175 0.950 . S
C1151 C1150 1.349 . S
C1151 C1167 1.349 . S
C1152 C1150 1.327 . S
C1152 C1171 1.429 . S
C1152 H1176 0.950 . S
C1153 C1170 1.574 . S
C1153 C1172 1.368 . S
C1153 H1177 0.949 . S
H1154 C1158 0.949 . S
C1155 C1156 1.349 . S
C1155 C1157 1.327 . S
C1155 H1178 0.950 . S
C1156 C1155 1.349 . S
C1156 C1168 1.349 . S
C1157 C1155 1.327 . S
C1157 C1173 1.429 . S
C1157 H1179 0.950 . S
C1158 H1154 0.949 . S
C1158 C1166 1.574 . S
C1158 C1174 1.368 . S
H1159 C1167 0.950 . S
H1160 C1165 0.950 . S
H1161 C1166 0.949 . S
H1162 C1168 0.950 . S
H1163 C1169 0.950 . S
H1164 C1170 0.949 . S
C1165 H1160 0.950 . S
C1165 C1167 1.327 . S
C1165 C1171 1.429 . S
C1166 C1158 1.574 . S
C1166 H1161 0.949 . S
C1166 C1172 1.368 . S
C1167 C1151 1.349 . S
C1167 H1159 0.950 . S
C1167 C1165 1.327 . S
C1168 C1156 1.349 . S
C1168 H1162 0.950 . S
C1168 C1169 1.327 . S
C1169 H1163 0.950 . S
C1169 C1168 1.327 . S
C1169 C1173 1.429 . S
C1170 C1153 1.574 . S
C1170 H1164 0.949 . S
C1170 C1174 1.368 . S
C1171 C1152 1.429 . S
C1171 C1165 1.429 . S
C1171 C1172 1.523 . S
C1172 C1153 1.368 . S
C1172 C1166 1.368 . S
C1172 C1171 1.523 . S
C1173 C1157 1.429 . S
C1173 C1169 1.429 . S
C1173 C1174 1.523 . S
C1174 C1158 1.368 . S
C1174 C1170 1.368 . S
C1174 C1173 1.523 . S
H1175 C1150 0.950 . S
H1176 C1152 0.950 . S
H1177 C1153 0.949 . S
H1178 C1155 0.950 . S
H1179 C1157 0.950 . S
C1180 C1181 1.349 . S
C1180 C1182 1.327 . S
C1180 H1205 0.950 . S
C1181 C1180 1.349 . S
C1181 C1197 1.349 . S
C1182 C1180 1.327 . S
C1182 C1201 1.429 . S
C1182 H1206 0.950 . S
C1183 C1200 1.574 . S
C1183 C1202 1.368 . S
C1183 H1207 0.949 . S
H1184 C1188 0.949 . S
C1185 C1186 1.349 . S
C1185 C1187 1.327 . S
C1185 H1208 0.950 . S
C1186 C1185 1.349 . S
C1186 C1198 1.349 . S
C1187 C1185 1.327 . S
C1187 C1203 1.429 . S
C1187 H1209 0.950 . S
C1188 H1184 0.949 . S
C1188 C1196 1.574 . S
C1188 C1204 1.368 . S
H1189 C1197 0.950 . S
H1190 C1195 0.950 . S
H1191 C1196 0.949 . S
H1192 C1198 0.950 . S
H1193 C1199 0.950 . S
H1194 C1200 0.949 . S
C1195 H1190 0.950 . S
C1195 C1197 1.327 . S
C1195 C1201 1.429 . S
C1196 C1188 1.574 . S
C1196 H1191 0.949 . S
C1196 C1202 1.368 . S
C1197 C1181 1.349 . S
C1197 H1189 0.950 . S
C1197 C1195 1.327 . S
C1198 C1186 1.349 . S
C1198 H1192 0.950 . S
C1198 C1199 1.327 . S
C1199 H1193 0.950 . S
C1199 C1198 1.327 . S
C1199 C1203 1.429 . S
C1200 C1183 1.574 . S
C1200 H1194 0.949 . S
C1200 C1204 1.368 . S
C1201 C1182 1.429 . S
C1201 C1195 1.429 . S
C1201 C1202 1.523 . S
C1202 C1183 1.368 . S
C1202 C1196 1.368 . S
C1202 C1201 1.523 . S
C1203 C1187 1.429 . S
C1203 C1199 1.429 . S
C1203 C1204 1.523 . S
C1204 C1188 1.368 . S
C1204 C1200 1.368 . S
C1204 C1203 1.523 . S
H1205 C1180 0.950 . S
H1206 C1182 0.950 . S
H1207 C1183 0.949 . S
H1208 C1185 0.950 . S
H1209 C1187 0.950 . S
C1210 C1211 1.349 . S
C1210 C1212 1.327 . S
C1210 H1235 0.950 . S
C1211 C1210 1.349 . S
C1211 C1227 1.349 . S
C1212 C1210 1.327 . S
C1212 C1231 1.429 . S
C1212 H1236 0.950 . S
C1213 C1230 1.574 . S
C1213 C1232 1.368 . S
C1213 H1237 0.949 . S
H1214 C1218 0.949 . S
C1215 C1216 1.349 . S
C1215 C1217 1.327 . S
C1215 H1238 0.950 . S
C1216 C1215 1.349 . S
C1216 C1228 1.349 . S
C1217 C1215 1.327 . S
C1217 C1233 1.429 . S
C1217 H1239 0.950 . S
C1218 H1214 0.949 . S
C1218 C1226 1.574 . S
C1218 C1234 1.368 . S
H1219 C1227 0.950 . S
H1220 C1225 0.950 . S
H1221 C1226 0.949 . S
H1222 C1228 0.950 . S
H1223 C1229 0.950 . S
H1224 C1230 0.949 . S
C1225 H1220 0.950 . S
C1225 C1227 1.327 . S
C1225 C1231 1.429 . S
C1226 C1218 1.574 . S
C1226 H1221 0.949 . S
C1226 C1232 1.368 . S
C1227 C1211 1.349 . S
C1227 H1219 0.950 . S
C1227 C1225 1.327 . S
C1228 C1216 1.349 . S
C1228 H1222 0.950 . S
C1228 C1229 1.327 . S
C1229 H1223 0.950 . S
C1229 C1228 1.327 . S
C1229 C1233 1.429 . S
C1230 C1213 1.574 . S
C1230 H1224 0.949 . S
C1230 C1234 1.368 . S
C1231 C1212 1.429 . S
C1231 C1225 1.429 . S
C1231 C1232 1.523 . S
C1232 C1213 1.368 . S
C1232 C1226 1.368 . S
C1232 C1231 1.523 . S
C1233 C1217 1.429 . S
C1233 C1229 1.429 . S
C1233 C1234 1.523 . S
C1234 C1218 1.368 . S
C1234 C1230 1.368 . S
C1234 C1233 1.523 . S
H1235 C1210 0.950 . S
H1236 C1212 0.950 . S
H1237 C1213 0.949 . S
H1238 C1215 0.950 . S
H1239 C1217 0.950 . S
C1240 C1241 1.349 . S
C1240 C1242 1.327 . S
C1240 H1265 0.950 . S
C1241 C1240 1.349 . S
C1241 C1257 1.349 . S
C1242 C1240 1.327 . S
C1242 C1261 1.429 . S
C1242 H1266 0.950 . S
C1243 C1260 1.574 . S
C1243 C1262 1.368 . S
C1243 H1267 0.949 . S
H1244 C1248 0.949 . S
C1245 C1246 1.349 . S
C1245 C1247 1.327 . S
C1245 H1268 0.950 . S
C1246 C1245 1.349 . S
C1246 C1258 1.349 . S
C1247 C1245 1.327 . S
C1247 C1263 1.429 . S
C1247 H1269 0.950 . S
C1248 H1244 0.949 . S
C1248 C1256 1.574 . S
C1248 C1264 1.368 . S
H1249 C1257 0.950 . S
H1250 C1255 0.950 . S
H1251 C1256 0.949 . S
H1252 C1258 0.950 . S
H1253 C1259 0.950 . S
H1254 C1260 0.949 . S
C1255 H1250 0.950 . S
C1255 C1257 1.327 . S
C1255 C1261 1.429 . S
C1256 C1248 1.574 . S
C1256 H1251 0.949 . S
C1256 C1262 1.368 . S
C1257 C1241 1.349 . S
C1257 H1249 0.950 . S
C1257 C1255 1.327 . S
C1258 C1246 1.349 . S
C1258 H1252 0.950 . S
C1258 C1259 1.327 . S
C1259 H1253 0.950 . S
C1259 C1258 1.327 . S
C1259 C1263 1.429 . S
C1260 C1243 1.574 . S
C1260 H1254 0.949 . S
C1260 C1264 1.368 . S
C1261 C1242 1.429 . S
C1261 C1255 1.429 . S
C1261 C1262 1.523 . S
C1262 C1243 1.368 . S
C1262 C1256 1.368 . S
C1262 C1261 1.523 . S
C1263 C1247 1.429 . S
C1263 C1259 1.429 . S
C1263 C1264 1.523 . S
C1264 C1248 1.368 . S
C1264 C1260 1.368 . S
C1264 C1263 1.523 . S
H1265 C1240 0.950 . S
H1266 C1242 0.950 . S
H1267 C1243 0.949 . S
H1268 C1245 0.950 . S
H1269 C1247 0.950 . S
C1270 C1271 1.349 . S
C1270 C1272 1.327 . S
C1270 H1295 0.950 . S
C1271 C1270 1.349 . S
C1271 C1287 1.349 . S
C1272 C1270 1.327 . S
C1272 C1291 1.429 . S
C1272 H1296 0.970 . S
C1273 C1290 1.574 . S
C1273 C1292 1.368 . S
C1273 H1297 0.949 . S
H1274 C1278 0.949 1_655 S
C1275 C1276 1.349 . S
C1275 C1277 1.327 . S
C1275 H1298 0.950 . S
C1276 C1275 1.349 . S
C1276 C1288 1.349 1_455 S
C1277 C1275 1.327 . S
C1277 C1293 1.429 . S
C1277 H1299 0.950 . S
C1278 H1274 0.949 1_455 S
C1278 C1286 1.574 . S
C1278 C1294 1.368 . S
H1279 C1287 0.950 . S
H1280 C1285 0.950 . S
H1281 C1286 0.949 1_655 S
H1282 C1288 0.950 . S
H1283 C1289 0.950 . S
H1284 C1290 0.949 . S
C1285 H1280 0.950 . S
C1285 C1287 1.327 . S
C1285 C1291 1.429 . S
C1286 C1278 1.574 . S
C1286 H1281 0.949 1_455 S
C1286 C1292 1.368 . S
C1287 C1271 1.349 . S
C1287 H1279 0.950 . S
C1287 C1285 1.327 . S
C1288 C1276 1.349 1_655 S
C1288 H1282 0.950 . S
C1288 C1289 1.327 . S
C1289 H1283 0.950 . S
C1289 C1288 1.327 . S
C1289 C1293 1.429 1_655 S
C1290 C1273 1.574 . S
C1290 H1284 0.949 . S
C1290 C1294 1.368 . S
C1291 C1272 1.429 . S
C1291 C1285 1.429 . S
C1291 C1292 1.523 . S
C1292 C1273 1.368 . S
C1292 C1286 1.368 . S
C1292 C1291 1.523 . S
C1293 C1277 1.429 . S
C1293 C1289 1.429 1_455 S
C1293 C1294 1.523 . S
C1294 C1278 1.368 . S
C1294 C1290 1.368 . S
C1294 C1293 1.523 . S
H1295 C1270 0.950 . S
H1296 C1272 0.970 . S
H1297 C1273 0.949 . S
H1298 C1275 0.950 . S
H1299 C1277 0.950 . S
C1300 C1301 1.349 . S
C1300 C1302 1.327 . S
C1300 H1325 0.950 . S
C1301 C1300 1.349 . S
C1301 C1317 1.349 . S
C1302 C1300 1.327 . S
C1302 C1321 1.429 . S
C1302 H1326 0.950 . S
C1303 C1320 1.574 . S
C1303 C1322 1.368 . S
C1303 H1327 0.949 . S
H1304 C1308 0.949 . S
C1305 C1306 1.349 . S
C1305 C1307 1.327 . S
C1305 H1328 0.950 . S
C1306 C1305 1.349 . S
C1306 C1318 1.349 . S
C1307 C1305 1.327 . S
C1307 C1323 1.429 . S
C1307 H1329 0.950 . S
C1308 H1304 0.949 . S
C1308 C1316 1.574 . S
C1308 C1324 1.368 . S
H1309 C1317 0.950 . S
H1310 C1315 0.950 . S
H1311 C1316 0.949 . S
H1312 C1318 0.950 . S
H1313 C1319 0.950 . S
H1314 C1320 0.949 . S
C1315 H1310 0.950 . S
C1315 C1317 1.327 . S
C1315 C1321 1.429 . S
C1316 C1308 1.574 . S
C1316 H1311 0.949 . S
C1316 C1322 1.368 . S
C1317 C1301 1.349 . S
C1317 H1309 0.950 . S
C1317 C1315 1.327 . S
C1318 C1306 1.349 . S
C1318 H1312 0.950 . S
C1318 C1319 1.327 . S
C1319 H1313 0.950 . S
C1319 C1318 1.327 . S
C1319 C1323 1.429 . S
C1320 C1303 1.574 . S
C1320 H1314 0.949 . S
C1320 C1324 1.368 . S
C1321 C1302 1.429 . S
C1321 C1315 1.429 . S
C1321 C1322 1.523 . S
C1322 C1303 1.368 . S
C1322 C1316 1.368 . S
C1322 C1321 1.523 . S
C1323 C1307 1.429 . S
C1323 C1319 1.429 . S
C1323 C1324 1.523 . S
C1324 C1308 1.368 . S
C1324 C1320 1.368 . S
C1324 C1323 1.523 . S
H1325 C1300 0.950 . S
H1326 C1302 0.950 . S
H1327 C1303 0.949 . S
H1328 C1305 0.950 . S
H1329 C1307 0.950 . S
C1330 C1331 1.349 . S
C1330 C1332 1.327 . S
C1330 H1355 0.950 . S
C1331 C1330 1.349 . S
C1331 C1347 1.349 . S
C1332 C1330 1.327 . S
C1332 C1351 1.429 . S
C1332 H1356 0.950 . S
C1333 C1350 1.574 . S
C1333 C1352 1.368 . S
C1333 H1357 0.949 . S
H1334 C1338 0.949 . S
C1335 C1336 1.349 . S
C1335 C1337 1.327 . S
C1335 H1358 0.950 . S
C1336 C1335 1.349 . S
C1336 C1348 1.349 . S
C1337 C1335 1.327 . S
C1337 C1353 1.429 . S
C1337 H1359 0.950 . S
C1338 H1334 0.949 . S
C1338 C1346 1.574 . S
C1338 C1354 1.368 . S
H1339 C1347 0.950 . S
H1340 C1345 0.950 . S
H1341 C1346 0.949 . S
H1342 C1348 0.950 . S
H1343 C1349 0.950 . S
H1344 C1350 0.949 . S
C1345 H1340 0.950 . S
C1345 C1347 1.327 . S
C1345 C1351 1.429 . S
C1346 C1338 1.574 . S
C1346 H1341 0.949 . S
C1346 C1352 1.368 . S
C1347 C1331 1.349 . S
C1347 H1339 0.950 . S
C1347 C1345 1.327 . S
C1348 C1336 1.349 . S
C1348 H1342 0.950 . S
C1348 C1349 1.327 . S
C1349 H1343 0.950 . S
C1349 C1348 1.327 . S
C1349 C1353 1.429 . S
C1350 C1333 1.574 . S
C1350 H1344 0.949 . S
C1350 C1354 1.368 . S
C1351 C1332 1.429 . S
C1351 C1345 1.429 . S
C1351 C1352 1.523 . S
C1352 C1333 1.368 . S
C1352 C1346 1.368 . S
C1352 C1351 1.523 . S
C1353 C1337 1.429 . S
C1353 C1349 1.429 . S
C1353 C1354 1.523 . S
C1354 C1338 1.368 . S
C1354 C1350 1.368 . S
C1354 C1353 1.523 . S
H1355 C1330 0.950 . S
H1356 C1332 0.950 . S
H1357 C1333 0.949 . S
H1358 C1335 0.950 . S
H1359 C1337 0.950 . S
C1360 C1361 1.349 . S
C1360 C1362 1.327 . S
C1360 H1385 0.950 . S
C1361 C1360 1.349 . S
C1361 C1377 1.349 . S
C1362 C1360 1.327 . S
C1362 C1381 1.429 . S
C1362 H1386 0.950 . S
C1363 C1380 1.574 . S
C1363 C1382 1.368 . S
C1363 H1387 0.949 . S
H1364 C1368 0.949 . S
C1365 C1366 1.349 . S
C1365 C1367 1.327 . S
C1365 H1388 0.950 . S
C1366 C1365 1.349 . S
C1366 C1378 1.349 . S
C1367 C1365 1.327 . S
C1367 C1383 1.429 . S
C1367 H1389 0.950 . S
C1368 H1364 0.949 . S
C1368 C1376 1.574 . S
C1368 C1384 1.368 . S
H1369 C1377 0.950 . S
H1370 C1375 0.950 . S
H1371 C1376 0.949 . S
H1372 C1378 0.950 . S
H1373 C1379 0.950 . S
H1374 C1380 0.949 . S
C1375 H1370 0.950 . S
C1375 C1377 1.327 . S
C1375 C1381 1.429 . S
C1376 C1368 1.574 . S
C1376 H1371 0.949 . S
C1376 C1382 1.368 . S
C1377 C1361 1.349 . S
C1377 H1369 0.950 . S
C1377 C1375 1.327 . S
C1378 C1366 1.349 . S
C1378 H1372 0.950 . S
C1378 C1379 1.327 . S
C1379 H1373 0.950 . S
C1379 C1378 1.327 . S
C1379 C1383 1.429 . S
C1380 C1363 1.574 . S
C1380 H1374 0.949 . S
C1380 C1384 1.368 . S
C1381 C1362 1.429 . S
C1381 C1375 1.429 . S
C1381 C1382 1.523 . S
C1382 C1363 1.368 . S
C1382 C1376 1.368 . S
C1382 C1381 1.523 . S
C1383 C1367 1.429 . S
C1383 C1379 1.429 . S
C1383 C1384 1.523 . S
C1384 C1368 1.368 . S
C1384 C1380 1.368 . S
C1384 C1383 1.523 . S
H1385 C1360 0.950 . S
H1386 C1362 0.950 . S
H1387 C1363 0.949 . S
H1388 C1365 0.950 . S
H1389 C1367 0.950 . S
C1390 C1391 1.349 . S
C1390 C1392 1.327 . S
C1390 H1415 0.950 . S
C1391 C1390 1.349 . S
C1391 C1407 1.349 . S
C1392 C1390 1.327 . S
C1392 C1411 1.429 . S
C1392 H1416 0.950 . S
C1393 C1410 1.574 . S
C1393 C1412 1.368 . S
C1393 H1417 0.949 . S
H1394 C1398 0.949 . S
C1395 C1396 1.349 . S
C1395 C1397 1.327 . S
C1395 H1418 0.950 . S
C1396 C1395 1.349 . S
C1396 C1408 1.349 . S
C1397 C1395 1.327 . S
C1397 C1413 1.429 . S
C1397 H1419 0.950 . S
C1398 H1394 0.949 . S
C1398 C1406 1.574 . S
C1398 C1414 1.368 . S
H1399 C1407 0.950 . S
H1400 C1405 0.950 . S
H1401 C1406 0.949 . S
H1402 C1408 0.950 . S
H1403 C1409 0.950 . S
H1404 C1410 0.949 . S
C1405 H1400 0.950 . S
C1405 C1407 1.327 . S
C1405 C1411 1.429 . S
C1406 C1398 1.574 . S
C1406 H1401 0.949 . S
C1406 C1412 1.368 . S
C1407 C1391 1.349 . S
C1407 H1399 0.950 . S
C1407 C1405 1.327 . S
C1408 C1396 1.349 . S
C1408 H1402 0.950 . S
C1408 C1409 1.327 . S
C1409 H1403 0.950 . S
C1409 C1408 1.327 . S
C1409 C1413 1.429 . S
C1410 C1393 1.574 . S
C1410 H1404 0.949 . S
C1410 C1414 1.368 . S
C1411 C1392 1.429 . S
C1411 C1405 1.429 . S
C1411 C1412 1.523 . S
C1412 C1393 1.368 . S
C1412 C1406 1.368 . S
C1412 C1411 1.523 . S
C1413 C1397 1.429 . S
C1413 C1409 1.429 . S
C1413 C1414 1.523 . S
C1414 C1398 1.368 . S
C1414 C1410 1.368 . S
C1414 C1413 1.523 . S
H1415 C1390 0.950 . S
H1416 C1392 0.950 . S
H1417 C1393 0.949 . S
H1418 C1395 0.950 . S
H1419 C1397 0.950 . S
C1420 C1421 1.349 . S
C1420 C1422 1.327 . S
C1420 H1445 0.950 . S
C1421 C1420 1.349 . S
C1421 C1437 1.349 . S
C1422 C1420 1.327 . S
C1422 C1441 1.429 . S
C1422 H1446 0.950 . S
C1423 C1440 1.574 . S
C1423 C1442 1.368 . S
C1423 H1447 0.949 . S
H1424 C1428 0.949 . S
C1425 C1426 1.349 . S
C1425 C1427 1.327 . S
C1425 H1448 0.950 . S
C1426 C1425 1.349 . S
C1426 C1438 1.349 . S
C1427 C1425 1.327 . S
C1427 C1443 1.429 . S
C1427 H1449 0.950 . S
C1428 H1424 0.949 . S
C1428 C1436 1.574 . S
C1428 C1444 1.368 . S
H1429 C1437 0.950 1_565 S
H1430 C1435 0.950 1_565 S
H1431 C1436 0.949 . S
H1432 C1438 0.950 . S
H1433 C1439 0.950 . S
H1434 C1440 0.949 . S
C1435 H1430 0.950 1_545 S
C1435 C1437 1.327 . S
C1435 C1441 1.429 . S
C1436 C1428 1.574 . S
C1436 H1431 0.949 . S
C1436 C1442 1.368 . S
C1437 C1421 1.349 . S
C1437 H1429 0.950 1_545 S
C1437 C1435 1.327 . S
C1438 C1426 1.349 . S
C1438 H1432 0.950 . S
C1438 C1439 1.327 . S
C1439 H1433 0.950 . S
C1439 C1438 1.327 . S
C1439 C1443 1.429 . S
C1440 C1423 1.574 . S
C1440 H1434 0.949 . S
C1440 C1444 1.368 . S
C1441 C1422 1.429 . S
C1441 C1435 1.429 . S
C1441 C1442 1.523 . S
C1442 C1423 1.368 . S
C1442 C1436 1.368 . S
C1442 C1441 1.523 . S
C1443 C1427 1.429 . S
C1443 C1439 1.429 . S
C1443 C1444 1.523 . S
C1444 C1428 1.368 . S
C1444 C1440 1.368 . S
C1444 C1443 1.523 . S
H1445 C1420 0.950 . S
H1446 C1422 0.950 . S
H1447 C1423 0.949 . S
H1448 C1425 0.950 . S
H1449 C1427 0.950 . S
C1450 C1451 1.349 . S
C1450 C1452 1.327 . S
C1450 H1475 0.950 . S
C1451 C1450 1.349 . S
C1451 C1467 1.334 1_554 S
C1452 C1450 1.327 . S
C1452 C1471 1.429 . S
C1452 H1476 0.950 . S
C1453 C1470 1.574 . S
C1453 C1472 1.368 1_556 S
C1453 H1477 0.949 . S
H1454 C1458 0.949 . S
C1455 C1456 1.349 1_556 S
C1455 C1457 1.327 . S
C1455 H1478 0.950 . S
C1456 C1455 1.349 1_554 S
C1456 C1468 1.349 . S
C1457 C1455 1.327 . S
C1457 C1473 1.429 1_556 S
C1457 H1479 0.950 . S
C1458 H1454 0.949 . S
C1458 C1466 1.574 . S
C1458 C1474 1.368 . S
H1459 C1467 0.958 . S
H1460 C1465 0.950 . S
H1461 C1466 0.949 . S
H1462 C1468 0.950 1_455 S
H1463 C1469 0.950 . S
H1464 C1470 0.949 . S
C1465 H1460 0.950 . S
C1465 C1467 1.334 . S
C1465 C1471 1.429 1_556 S
C1466 C1458 1.574 . S
C1466 H1461 0.949 . S
C1466 C1472 1.368 . S
C1467 C1451 1.334 1_556 S
C1467 H1459 0.958 . S
C1467 C1465 1.334 . S
C1468 C1456 1.349 . S
C1468 H1462 0.950 1_655 S
C1468 C1469 1.327 . S
C1469 H1463 0.950 . S
C1469 C1468 1.327 . S
C1469 C1473 1.429 . S
C1470 C1453 1.574 . S
C1470 H1464 0.949 . S
C1470 C1474 1.368 1_556 S
C1471 C1452 1.429 . S
C1471 C1465 1.429 1_554 S
C1471 C1472 1.523 . S
C1472 C1453 1.368 1_554 S
C1472 C1466 1.368 . S
C1472 C1471 1.523 . S
C1473 C1457 1.429 1_554 S
C1473 C1469 1.429 . S
C1473 C1474 1.523 . S
C1474 C1458 1.368 . S
C1474 C1470 1.368 1_554 S
C1474 C1473 1.523 . S
H1475 C1450 0.950 . S
H1476 C1452 0.950 . S
H1477 C1453 0.949 . S
H1478 C1455 0.950 . S
H1479 C1457 0.950 . S
C1480 C1481 1.349 . S
C1480 C1482 1.327 . S
C1480 H1505 0.950 . S
C1481 C1480 1.349 . S
C1481 C1497 1.349 . S
C1482 C1480 1.327 . S
C1482 C1501 1.429 . S
C1482 H1506 0.950 . S
C1483 C1500 1.574 . S
C1483 C1502 1.368 . S
C1483 H1507 0.949 . S
H1484 C1488 0.949 . S
C1485 C1486 1.349 . S
C1485 C1487 1.327 . S
C1485 H1508 0.950 . S
C1486 C1485 1.349 . S
C1486 C1498 1.349 . S
C1487 C1485 1.327 . S
C1487 C1503 1.429 . S
C1487 H1509 0.950 . S
C1488 H1484 0.949 . S
C1488 C1496 1.574 . S
C1488 C1504 1.368 . S
H1489 C1497 0.950 . S
H1490 C1495 0.950 . S
H1491 C1496 0.949 . S
H1492 C1498 0.950 . S
H1493 C1499 0.950 . S
H1494 C1500 0.949 . S
C1495 H1490 0.950 . S
C1495 C1497 1.327 . S
C1495 C1501 1.429 . S
C1496 C1488 1.574 . S
C1496 H1491 0.949 . S
C1496 C1502 1.368 . S
C1497 C1481 1.349 . S
C1497 H1489 0.950 . S
C1497 C1495 1.327 . S
C1498 C1486 1.349 . S
C1498 H1492 0.950 . S
C1498 C1499 1.327 . S
C1499 H1493 0.950 . S
C1499 C1498 1.327 . S
C1499 C1503 1.429 . S
C1500 C1483 1.574 . S
C1500 H1494 0.949 . S
C1500 C1504 1.368 . S
C1501 C1482 1.429 . S
C1501 C1495 1.429 . S
C1501 C1502 1.523 . S
C1502 C1483 1.368 . S
C1502 C1496 1.368 . S
C1502 C1501 1.523 . S
C1503 C1487 1.429 . S
C1503 C1499 1.429 . S
C1503 C1504 1.523 . S
C1504 C1488 1.368 . S
C1504 C1500 1.368 . S
C1504 C1503 1.523 . S
H1505 C1480 0.950 . S
H1506 C1482 0.950 . S
H1507 C1483 0.949 . S
H1508 C1485 0.950 . S
H1509 C1487 0.950 . S
C1510 C1511 1.349 . S
C1510 C1512 1.327 . S
C1510 H1535 0.950 . S
C1511 C1510 1.349 . S
C1511 C1527 1.349 . S
C1512 C1510 1.327 . S
C1512 C1531 1.429 . S
C1512 H1536 0.950 . S
C1513 C1530 1.574 . S
C1513 C1532 1.368 . S
C1513 H1537 0.949 . S
H1514 C1518 0.949 . S
C1515 C1516 1.349 . S
C1515 C1517 1.327 . S
C1515 H1538 0.950 . S
C1516 C1515 1.349 . S
C1516 C1528 1.349 . S
C1517 C1515 1.327 . S
C1517 C1533 1.429 . S
C1517 H1539 0.950 . S
C1518 H1514 0.949 . S
C1518 C1526 1.574 . S
C1518 C1534 1.368 . S
H1519 C1527 0.950 . S
H1520 C1525 0.950 . S
H1521 C1526 0.949 . S
H1522 C1528 0.950 . S
H1523 C1529 0.950 . S
H1524 C1530 0.949 . S
C1525 H1520 0.950 . S
C1525 C1527 1.327 . S
C1525 C1531 1.429 . S
C1526 C1518 1.574 . S
C1526 H1521 0.949 . S
C1526 C1532 1.368 . S
C1527 C1511 1.349 . S
C1527 H1519 0.950 . S
C1527 C1525 1.327 . S
C1528 C1516 1.349 . S
C1528 H1522 0.950 . S
C1528 C1529 1.327 . S
C1529 H1523 0.950 . S
C1529 C1528 1.327 . S
C1529 C1533 1.429 . S
C1530 C1513 1.574 . S
C1530 H1524 0.949 . S
C1530 C1534 1.368 . S
C1531 C1512 1.429 . S
C1531 C1525 1.429 . S
C1531 C1532 1.523 . S
C1532 C1513 1.368 . S
C1532 C1526 1.368 . S
C1532 C1531 1.523 . S
C1533 C1517 1.429 . S
C1533 C1529 1.429 . S
C1533 C1534 1.523 . S
C1534 C1518 1.368 . S
C1534 C1530 1.368 . S
C1534 C1533 1.523 . S
H1535 C1510 0.950 . S
H1536 C1512 0.950 . S
H1537 C1513 0.949 . S
H1538 C1515 0.950 . S
H1539 C1517 0.950 . S
C1540 C1541 1.349 . S
C1540 C1542 1.327 . S
C1540 H1565 0.950 . S
C1541 C1540 1.349 . S
C1541 C1557 1.349 . S
C1542 C1540 1.327 . S
C1542 C1561 1.429 . S
C1542 H1566 0.950 . S
C1543 C1560 1.574 . S
C1543 C1562 1.368 . S
C1543 H1567 0.949 . S
H1544 C1548 0.949 . S
C1545 C1546 1.349 . S
C1545 C1547 1.327 . S
C1545 H1568 0.950 . S
C1546 C1545 1.349 . S
C1546 C1558 1.349 . S
C1547 C1545 1.327 . S
C1547 C1563 1.429 . S
C1547 H1569 0.950 . S
C1548 H1544 0.949 . S
C1548 C1556 1.574 . S
C1548 C1564 1.368 . S
H1549 C1557 0.950 . S
H1550 C1555 0.950 . S
H1551 C1556 0.949 . S
H1552 C1558 0.950 . S
H1553 C1559 0.950 . S
H1554 C1560 0.949 . S
C1555 H1550 0.950 . S
C1555 C1557 1.327 . S
C1555 C1561 1.429 . S
C1556 C1548 1.574 . S
C1556 H1551 0.949 . S
C1556 C1562 1.368 . S
C1557 C1541 1.349 . S
C1557 H1549 0.950 . S
C1557 C1555 1.327 . S
C1558 C1546 1.349 . S
C1558 H1552 0.950 . S
C1558 C1559 1.327 . S
C1559 H1553 0.950 . S
C1559 C1558 1.327 . S
C1559 C1563 1.429 . S
C1560 C1543 1.574 . S
C1560 H1554 0.949 . S
C1560 C1564 1.368 . S
C1561 C1542 1.429 . S
C1561 C1555 1.429 . S
C1561 C1562 1.523 . S
C1562 C1543 1.368 . S
C1562 C1556 1.368 . S
C1562 C1561 1.523 . S
C1563 C1547 1.429 . S
C1563 C1559 1.429 . S
C1563 C1564 1.523 . S
C1564 C1548 1.368 . S
C1564 C1560 1.368 . S
C1564 C1563 1.523 . S
H1565 C1540 0.950 . S
H1566 C1542 0.950 . S
H1567 C1543 0.949 . S
H1568 C1545 0.950 . S
H1569 C1547 0.950 . S
C1570 C1571 1.349 . S
C1570 C1572 1.327 . S
C1570 H1595 0.950 . S
C1571 C1570 1.349 . S
C1571 C1587 1.349 . S
C1572 C1570 1.327 . S
C1572 C1591 1.429 . S
C1572 H1596 0.950 . S
C1573 C1590 1.574 . S
C1573 C1592 1.368 . S
C1573 H1597 0.949 . S
H1574 C1578 0.949 . S
C1575 C1576 1.349 . S
C1575 C1577 1.327 . S
C1575 H1598 0.950 . S
C1576 C1575 1.349 . S
C1576 C1588 1.349 . S
C1577 C1575 1.327 . S
C1577 C1593 1.429 . S
C1577 H1599 0.950 . S
C1578 H1574 0.949 . S
C1578 C1586 1.574 . S
C1578 C1594 1.368 . S
H1579 C1587 0.950 . S
H1580 C1585 0.950 . S
H1581 C1586 0.949 . S
H1582 C1588 0.950 . S
H1583 C1589 0.950 . S
H1584 C1590 0.949 . S
C1585 H1580 0.950 . S
C1585 C1587 1.327 . S
C1585 C1591 1.429 . S
C1586 C1578 1.574 . S
C1586 H1581 0.949 . S
C1586 C1592 1.368 . S
C1587 C1571 1.349 . S
C1587 H1579 0.950 . S
C1587 C1585 1.327 . S
C1588 C1576 1.349 . S
C1588 H1582 0.950 . S
C1588 C1589 1.327 . S
C1589 H1583 0.950 . S
C1589 C1588 1.327 . S
C1589 C1593 1.429 . S
C1590 C1573 1.574 . S
C1590 H1584 0.949 . S
C1590 C1594 1.368 . S
C1591 C1572 1.429 . S
C1591 C1585 1.429 . S
C1591 C1592 1.523 . S
C1592 C1573 1.368 . S
C1592 C1586 1.368 . S
C1592 C1591 1.523 . S
C1593 C1577 1.429 . S
C1593 C1589 1.429 . S
C1593 C1594 1.523 . S
C1594 C1578 1.368 . S
C1594 C1590 1.368 . S
C1594 C1593 1.523 . S
H1595 C1570 0.950 . S
H1596 C1572 0.950 . S
H1597 C1573 0.949 . S
H1598 C1575 0.950 . S
H1599 C1577 0.950 . S
C1600 C1601 1.349 . S
C1600 C1602 1.327 . S
C1600 H1625 0.950 . S
C1601 C1600 1.349 . S
C1601 C1617 1.349 . S
C1602 C1600 1.327 . S
C1602 C1621 1.429 . S
C1602 H1626 0.950 . S
C1603 C1620 1.574 . S
C1603 C1622 1.368 . S
C1603 H1627 0.949 . S
H1604 C1608 0.949 . S
C1605 C1606 1.349 . S
C1605 C1607 1.327 . S
C1605 H1628 0.950 . S
C1606 C1605 1.349 . S
C1606 C1618 1.349 . S
C1607 C1605 1.327 . S
C1607 C1623 1.429 . S
C1607 H1629 0.950 . S
C1608 H1604 0.949 . S
C1608 C1616 1.574 . S
C1608 C1624 1.368 . S
H1609 C1617 0.950 . S
H1610 C1615 0.950 . S
H1611 C1616 0.949 . S
H1612 C1618 0.950 . S
H1613 C1619 0.950 . S
H1614 C1620 0.949 . S
C1615 H1610 0.950 . S
C1615 C1617 1.327 . S
C1615 C1621 1.429 . S
C1616 C1608 1.574 . S
C1616 H1611 0.949 . S
C1616 C1622 1.368 . S
C1617 C1601 1.349 . S
C1617 H1609 0.950 . S
C1617 C1615 1.327 . S
C1618 C1606 1.349 . S
C1618 H1612 0.950 . S
C1618 C1619 1.327 . S
C1619 H1613 0.950 . S
C1619 C1618 1.327 . S
C1619 C1623 1.429 . S
C1620 C1603 1.574 . S
C1620 H1614 0.949 . S
C1620 C1624 1.368 . S
C1621 C1602 1.429 . S
C1621 C1615 1.429 . S
C1621 C1622 1.523 . S
C1622 C1603 1.368 . S
C1622 C1616 1.368 . S
C1622 C1621 1.523 . S
C1623 C1607 1.429 . S
C1623 C1619 1.429 . S
C1623 C1624 1.523 . S
C1624 C1608 1.368 . S
C1624 C1620 1.368 . S
C1624 C1623 1.523 . S
H1625 C1600 0.950 . S
H1626 C1602 0.950 . S
H1627 C1603 0.949 . S
H1628 C1605 0.950 . S
H1629 C1607 0.950 . S
C1630 C1631 1.349 . S
C1630 C1632 1.327 . S
C1630 H1655 0.950 . S
C1631 C1630 1.349 . S
C1631 C1647 1.349 . S
C1632 C1630 1.327 . S
C1632 C1651 1.429 . S
C1632 H1656 0.950 . S
C1633 C1650 1.574 . S
C1633 C1652 1.368 . S
C1633 H1657 0.949 . S
H1634 C1638 0.949 . S
C1635 C1636 1.349 . S
C1635 C1637 1.327 . S
C1635 H1658 0.950 . S
C1636 C1635 1.349 . S
C1636 C1648 1.349 . S
C1637 C1635 1.327 . S
C1637 C1653 1.429 . S
C1637 H1659 0.950 . S
C1638 H1634 0.949 . S
C1638 C1646 1.574 . S
C1638 C1654 1.368 . S
H1639 C1647 0.950 . S
H1640 C1645 0.950 . S
H1641 C1646 0.949 . S
H1642 C1648 0.950 . S
H1643 C1649 0.950 . S
H1644 C1650 0.949 . S
C1645 H1640 0.950 . S
C1645 C1647 1.327 . S
C1645 C1651 1.429 . S
C1646 C1638 1.574 . S
C1646 H1641 0.949 . S
C1646 C1652 1.368 . S
C1647 C1631 1.349 . S
C1647 H1639 0.950 . S
C1647 C1645 1.327 . S
C1648 C1636 1.349 . S
C1648 H1642 0.950 . S
C1648 C1649 1.327 . S
C1649 H1643 0.950 . S
C1649 C1648 1.327 . S
C1649 C1653 1.429 . S
C1650 C1633 1.574 . S
C1650 H1644 0.949 . S
C1650 C1654 1.368 . S
C1651 C1632 1.429 . S
C1651 C1645 1.429 . S
C1651 C1652 1.523 . S
C1652 C1633 1.368 . S
C1652 C1646 1.368 . S
C1652 C1651 1.523 . S
C1653 C1637 1.429 . S
C1653 C1649 1.429 . S
C1653 C1654 1.523 . S
C1654 C1638 1.368 . S
C1654 C1650 1.368 . S
C1654 C1653 1.523 . S
H1655 C1630 0.950 . S
H1656 C1632 0.950 . S
H1657 C1633 0.949 . S
H1658 C1635 0.950 . S
H1659 C1637 0.950 . S
C1660 C1661 1.349 . S
C1660 C1662 1.327 . S
C1660 H1685 0.950 . S
C1661 C1660 1.349 . S
C1661 C1677 1.349 . S
C1662 C1660 1.327 . S
C1662 C1681 1.429 . S
C1662 H1686 0.950 . S
C1663 C1680 1.574 . S
C1663 C1682 1.368 . S
C1663 H1687 0.949 . S
H1664 C1668 0.949 . S
C1665 C1666 1.349 . S
C1665 C1667 1.327 . S
C1665 H1688 0.950 . S
C1666 C1665 1.349 . S
C1666 C1678 1.349 . S
C1667 C1665 1.327 . S
C1667 C1683 1.429 . S
C1667 H1689 0.950 . S
C1668 H1664 0.949 . S
C1668 C1676 1.574 . S
C1668 C1684 1.368 . S
H1669 C1677 0.950 . S
H1670 C1675 0.950 . S
H1671 C1676 0.949 . S
H1672 C1678 0.950 . S
H1673 C1679 0.950 . S
H1674 C1680 0.949 . S
C1675 H1670 0.950 . S
C1675 C1677 1.327 . S
C1675 C1681 1.429 . S
C1676 C1668 1.574 . S
C1676 H1671 0.949 . S
C1676 C1682 1.368 . S
C1677 C1661 1.349 . S
C1677 H1669 0.950 . S
C1677 C1675 1.327 . S
C1678 C1666 1.349 . S
C1678 H1672 0.950 . S
C1678 C1679 1.327 . S
C1679 H1673 0.950 . S
C1679 C1678 1.327 . S
C1679 C1683 1.429 . S
C1680 C1663 1.574 . S
C1680 H1674 0.949 . S
C1680 C1684 1.368 . S
C1681 C1662 1.429 . S
C1681 C1675 1.429 . S
C1681 C1682 1.523 . S
C1682 C1663 1.368 . S
C1682 C1676 1.368 . S
C1682 C1681 1.523 . S
C1683 C1667 1.429 . S
C1683 C1679 1.429 . S
C1683 C1684 1.523 . S
C1684 C1668 1.368 . S
C1684 C1680 1.368 . S
C1684 C1683 1.523 . S
H1685 C1660 0.950 . S
H1686 C1662 0.950 . S
H1687 C1663 0.949 . S
H1688 C1665 0.950 . S
H1689 C1667 0.950 . S
C1690 C1691 1.349 . S
C1690 C1692 1.327 . S
C1690 H1715 0.950 . S
C1691 C1690 1.349 . S
C1691 C1707 1.349 . S
C1692 C1690 1.327 . S
C1692 C1711 1.429 . S
C1692 H1716 0.950 . S
C1693 C1710 1.574 . S
C1693 C1712 1.368 . S
C1693 H1717 0.949 . S
H1694 C1698 0.949 . S
C1695 C1696 1.349 . S
C1695 C1697 1.327 . S
C1695 H1718 0.950 . S
C1696 C1695 1.349 . S
C1696 C1708 1.349 . S
C1697 C1695 1.327 . S
C1697 C1713 1.429 . S
C1697 H1719 0.950 . S
C1698 H1694 0.949 . S
C1698 C1706 1.574 . S
C1698 C1714 1.368 . S
H1699 C1707 0.950 . S
H1700 C1705 0.950 . S
H1701 C1706 0.949 . S
H1702 C1708 0.950 . S
H1703 C1709 0.950 . S
H1704 C1710 0.949 . S
C1705 H1700 0.950 . S
C1705 C1707 1.327 . S
C1705 C1711 1.429 . S
C1706 C1698 1.574 . S
C1706 H1701 0.949 . S
C1706 C1712 1.368 . S
C1707 C1691 1.349 . S
C1707 H1699 0.950 . S
C1707 C1705 1.327 . S
C1708 C1696 1.349 . S
C1708 H1702 0.950 . S
C1708 C1709 1.327 . S
C1709 H1703 0.950 . S
C1709 C1708 1.327 . S
C1709 C1713 1.429 . S
C1710 C1693 1.574 . S
C1710 H1704 0.949 . S
C1710 C1714 1.368 . S
C1711 C1692 1.429 . S
C1711 C1705 1.429 . S
C1711 C1712 1.523 . S
C1712 C1693 1.368 . S
C1712 C1706 1.368 . S
C1712 C1711 1.523 . S
C1713 C1697 1.429 . S
C1713 C1709 1.429 . S
C1713 C1714 1.523 . S
C1714 C1698 1.368 . S
C1714 C1710 1.368 . S
C1714 C1713 1.523 . S
H1715 C1690 0.950 . S
H1716 C1692 0.950 . S
H1717 C1693 0.949 . S
H1718 C1695 0.950 . S
H1719 C1697 0.950 . S
C1720 C1721 1.349 . S
C1720 C1722 1.327 . S
C1720 H1745 0.950 . S
C1721 C1720 1.349 . S
C1721 C1737 1.349 . S
C1722 C1720 1.327 . S
C1722 C1741 1.429 . S
C1722 H1746 0.950 . S
C1723 C1740 1.574 . S
C1723 C1742 1.368 . S
C1723 H1747 0.949 . S
H1724 C1728 0.949 . S
C1725 C1726 1.349 . S
C1725 C1727 1.327 . S
C1725 H1748 0.950 . S
C1726 C1725 1.349 . S
C1726 C1738 1.349 . S
C1727 C1725 1.327 . S
C1727 C1743 1.429 . S
C1727 H1749 0.950 . S
C1728 H1724 0.949 . S
C1728 C1736 1.574 . S
C1728 C1744 1.368 . S
H1729 C1737 0.950 . S
H1730 C1735 0.950 . S
H1731 C1736 0.949 . S
H1732 C1738 0.950 . S
H1733 C1739 0.950 . S
H1734 C1740 0.949 . S
C1735 H1730 0.950 . S
C1735 C1737 1.327 . S
C1735 C1741 1.429 . S
C1736 C1728 1.574 . S
C1736 H1731 0.949 . S
C1736 C1742 1.368 . S
C1737 C1721 1.349 . S
C1737 H1729 0.950 . S
C1737 C1735 1.327 . S
C1738 C1726 1.349 . S
C1738 H1732 0.950 . S
C1738 C1739 1.327 . S
C1739 H1733 0.950 . S
C1739 C1738 1.327 . S
C1739 C1743 1.429 . S
C1740 C1723 1.574 . S
C1740 H1734 0.949 . S
C1740 C1744 1.368 . S
C1741 C1722 1.429 . S
C1741 C1735 1.429 . S
C1741 C1742 1.523 . S
C1742 C1723 1.368 . S
C1742 C1736 1.368 . S
C1742 C1741 1.523 . S
C1743 C1727 1.429 . S
C1743 C1739 1.429 . S
C1743 C1744 1.523 . S
C1744 C1728 1.368 . S
C1744 C1740 1.368 . S
C1744 C1743 1.523 . S
H1745 C1720 0.950 . S
H1746 C1722 0.950 . S
H1747 C1723 0.949 . S
H1748 C1725 0.950 . S
H1749 C1727 0.950 . S
C1750 C1751 1.349 1_556 S
C1750 C1752 1.327 . S
C1750 H1775 0.950 . S
C1751 C1750 1.349 1_554 S
C1751 C1767 1.349 . S
C1752 C1750 1.327 . S
C1752 C1771 1.429 1_556 S
C1752 H1776 0.950 . S
C1753 C1770 1.574 . S
C1753 C1772 1.368 . S
C1753 H1777 0.949 . S
H1754 C1758 0.949 . S
C1755 C1756 1.349 . S
C1755 C1757 1.327 . S
C1755 H1778 0.950 . S
C1756 C1755 1.349 . S
C1756 C1768 1.349 1_554 S
C1757 C1755 1.327 . S
C1757 C1773 1.429 . S
C1757 H1779 0.950 . S
C1758 H1754 0.949 . S
C1758 C1766 1.574 . S
C1758 C1774 1.368 1_556 S
H1759 C1767 0.950 . S
H1760 C1765 0.950 . S
H1761 C1766 0.949 . S
H1762 C1768 0.950 . S
H1763 C1769 0.950 . S
H1764 C1770 0.949 . S
C1765 H1760 0.950 . S
C1765 C1767 1.327 . S
C1765 C1771 1.429 . S
C1766 C1758 1.574 . S
C1766 H1761 0.949 . S
C1766 C1772 1.368 1_556 S
C1767 C1751 1.349 . S
C1767 H1759 0.950 . S
C1767 C1765 1.327 . S
C1768 C1756 1.349 1_556 S
C1768 H1762 0.950 . S
C1768 C1769 1.327 . S
C1769 H1763 0.950 . S
C1769 C1768 1.327 . S
C1769 C1773 1.429 1_556 S
C1770 C1753 1.574 . S
C1770 H1764 0.949 . S
C1770 C1774 1.368 . S
C1771 C1752 1.429 1_554 S
C1771 C1765 1.429 . S
C1771 C1772 1.523 . S
C1772 C1753 1.368 . S
C1772 C1766 1.368 1_554 S
C1772 C1771 1.523 . S
C1773 C1757 1.429 . S
C1773 C1769 1.429 1_554 S
C1773 C1774 1.523 . S
C1774 C1758 1.368 1_554 S
C1774 C1770 1.368 . S
C1774 C1773 1.523 . S
H1775 C1750 0.950 . S
H1776 C1752 0.950 . S
H1777 C1753 0.949 . S
H1778 C1755 0.950 . S
H1779 C1757 0.950 . S
C1780 C1781 1.349 . S
C1780 C1782 1.327 . S
C1780 H1805 0.950 . S
C1781 C1780 1.349 . S
C1781 C1797 1.349 . S
C1782 C1780 1.327 . S
C1782 C1801 1.429 . S
C1782 H1806 0.950 . S
C1783 C1800 1.574 . S
C1783 C1802 1.368 . S
C1783 H1807 0.949 . S
H1784 C1788 0.949 . S
C1785 C1786 1.349 . S
C1785 C1787 1.327 . S
C1785 H1808 0.950 . S
C1786 C1785 1.349 . S
C1786 C1798 1.349 . S
C1787 C1785 1.327 . S
C1787 C1803 1.429 . S
C1787 H1809 0.950 . S
C1788 H1784 0.949 . S
C1788 C1796 1.574 . S
C1788 C1804 1.368 . S
H1789 C1797 0.950 . S
H1790 C1795 0.950 . S
H1791 C1796 0.949 . S
H1792 C1798 0.950 . S
H1793 C1799 0.950 . S
H1794 C1800 0.949 . S
C1795 H1790 0.950 . S
C1795 C1797 1.327 . S
C1795 C1801 1.429 . S
C1796 C1788 1.574 . S
C1796 H1791 0.949 . S
C1796 C1802 1.368 . S
C1797 C1781 1.349 . S
C1797 H1789 0.950 . S
C1797 C1795 1.327 . S
C1798 C1786 1.349 . S
C1798 H1792 0.950 . S
C1798 C1799 1.327 . S
C1799 H1793 0.950 . S
C1799 C1798 1.327 . S
C1799 C1803 1.429 . S
C1800 C1783 1.574 . S
C1800 H1794 0.949 . S
C1800 C1804 1.368 . S
C1801 C1782 1.429 . S
C1801 C1795 1.429 . S
C1801 C1802 1.523 . S
C1802 C1783 1.368 . S
C1802 C1796 1.368 . S
C1802 C1801 1.523 . S
C1803 C1787 1.429 . S
C1803 C1799 1.429 . S
C1803 C1804 1.523 . S
C1804 C1788 1.368 . S
C1804 C1800 1.368 . S
C1804 C1803 1.523 . S
H1805 C1780 0.950 . S
H1806 C1782 0.950 . S
H1807 C1783 0.949 . S
H1808 C1785 0.950 . S
H1809 C1787 0.950 . S
C1810 C1811 1.349 . S
C1810 C1812 1.327 . S
C1810 H1835 0.950 . S
C1811 C1810 1.349 . S
C1811 C1827 1.349 . S
C1812 C1810 1.327 . S
C1812 C1831 1.429 . S
C1812 H1836 0.950 . S
C1813 C1830 1.574 . S
C1813 C1832 1.368 . S
C1813 H1837 0.949 . S
H1814 C1818 0.949 . S
C1815 C1816 1.349 . S
C1815 C1817 1.327 . S
C1815 H1838 0.950 . S
C1816 C1815 1.349 . S
C1816 C1828 1.349 . S
C1817 C1815 1.327 . S
C1817 C1833 1.429 . S
C1817 H1839 0.950 . S
C1818 H1814 0.949 . S
C1818 C1826 1.574 . S
C1818 C1834 1.368 . S
H1819 C1827 0.950 . S
H1820 C1825 0.950 . S
H1821 C1826 0.949 . S
H1822 C1828 0.950 . S
H1823 C1829 0.950 . S
H1824 C1830 0.949 . S
C1825 H1820 0.950 . S
C1825 C1827 1.327 . S
C1825 C1831 1.429 . S
C1826 C1818 1.574 . S
C1826 H1821 0.949 . S
C1826 C1832 1.368 . S
C1827 C1811 1.349 . S
C1827 H1819 0.950 . S
C1827 C1825 1.327 . S
C1828 C1816 1.349 . S
C1828 H1822 0.950 . S
C1828 C1829 1.327 . S
C1829 H1823 0.950 . S
C1829 C1828 1.327 . S
C1829 C1833 1.429 . S
C1830 C1813 1.574 . S
C1830 H1824 0.949 . S
C1830 C1834 1.368 . S
C1831 C1812 1.429 . S
C1831 C1825 1.429 . S
C1831 C1832 1.523 . S
C1832 C1813 1.368 . S
C1832 C1826 1.368 . S
C1832 C1831 1.523 . S
C1833 C1817 1.429 . S
C1833 C1829 1.429 . S
C1833 C1834 1.523 . S
C1834 C1818 1.368 . S
C1834 C1830 1.368 . S
C1834 C1833 1.523 . S
H1835 C1810 0.950 . S
H1836 C1812 0.950 . S
H1837 C1813 0.949 . S
H1838 C1815 0.950 . S
H1839 C1817 0.950 . S
C1840 C1841 1.349 . S
C1840 C1842 1.327 . S
C1840 H1865 0.950 . S
C1841 C1840 1.349 . S
C1841 C1857 1.349 . S
C1842 C1840 1.327 . S
C1842 C1861 1.429 . S
C1842 H1866 0.950 . S
C1843 C1860 1.574 . S
C1843 C1862 1.368 . S
C1843 H1867 0.949 . S
H1844 C1848 0.949 . S
C1845 C1846 1.349 . S
C1845 C1847 1.327 . S
C1845 H1868 0.950 . S
C1846 C1845 1.349 . S
C1846 C1858 1.349 . S
C1847 C1845 1.327 . S
C1847 C1863 1.429 . S
C1847 H1869 0.950 . S
C1848 H1844 0.949 . S
C1848 C1856 1.574 . S
C1848 C1864 1.368 . S
H1849 C1857 0.950 . S
H1850 C1855 0.950 . S
H1851 C1856 0.949 . S
H1852 C1858 0.950 . S
H1853 C1859 0.950 . S
H1854 C1860 0.949 . S
C1855 H1850 0.950 . S
C1855 C1857 1.327 . S
C1855 C1861 1.429 . S
C1856 C1848 1.574 . S
C1856 H1851 0.949 . S
C1856 C1862 1.368 . S
C1857 C1841 1.349 . S
C1857 H1849 0.950 . S
C1857 C1855 1.327 . S
C1858 C1846 1.349 . S
C1858 H1852 0.950 . S
C1858 C1859 1.327 . S
C1859 H1853 0.950 . S
C1859 C1858 1.327 . S
C1859 C1863 1.429 . S
C1860 C1843 1.574 . S
C1860 H1854 0.949 . S
C1860 C1864 1.368 . S
C1861 C1842 1.429 . S
C1861 C1855 1.429 . S
C1861 C1862 1.523 . S
C1862 C1843 1.368 . S
C1862 C1856 1.368 . S
C1862 C1861 1.523 . S
C1863 C1847 1.429 . S
C1863 C1859 1.429 . S
C1863 C1864 1.523 . S
C1864 C1848 1.368 . S
C1864 C1860 1.368 . S
C1864 C1863 1.523 . S
H1865 C1840 0.950 . S
H1866 C1842 0.950 . S
H1867 C1843 0.949 . S
H1868 C1845 0.950 . S
H1869 C1847 0.950 . S
C1870 C1871 1.349 . S
C1870 C1872 1.327 . S
C1870 H1895 0.950 . S
C1871 C1870 1.349 . S
C1871 C1887 1.349 . S
C1872 C1870 1.327 . S
C1872 C1891 1.429 . S
C1872 H1896 0.950 . S
C1873 C1890 1.574 . S
C1873 C1892 1.368 . S
C1873 H1897 0.949 . S
H1874 C1878 0.949 . S
C1875 C1876 1.349 . S
C1875 C1877 1.327 . S
C1875 H1898 0.950 . S
C1876 C1875 1.349 . S
C1876 C1888 1.349 . S
C1877 C1875 1.327 . S
C1877 C1893 1.429 . S
C1877 H1899 0.950 . S
C1878 H1874 0.949 . S
C1878 C1886 1.574 . S
C1878 C1894 1.368 . S
H1879 C1887 0.950 . S
H1880 C1885 0.950 . S
H1881 C1886 0.949 . S
H1882 C1888 0.950 . S
H1883 C1889 0.950 . S
H1884 C1890 0.949 . S
C1885 H1880 0.950 . S
C1885 C1887 1.327 . S
C1885 C1891 1.429 . S
C1886 C1878 1.574 . S
C1886 H1881 0.949 . S
C1886 C1892 1.368 . S
C1887 C1871 1.349 . S
C1887 H1879 0.950 . S
C1887 C1885 1.327 . S
C1888 C1876 1.349 . S
C1888 H1882 0.950 . S
C1888 C1889 1.327 . S
C1889 H1883 0.950 . S
C1889 C1888 1.327 . S
C1889 C1893 1.429 . S
C1890 C1873 1.574 . S
C1890 H1884 0.949 . S
C1890 C1894 1.368 . S
C1891 C1872 1.429 . S
C1891 C1885 1.429 . S
C1891 C1892 1.523 . S
C1892 C1873 1.368 . S
C1892 C1886 1.368 . S
C1892 C1891 1.523 . S
C1893 C1877 1.429 . S
C1893 C1889 1.429 . S
C1893 C1894 1.523 . S
C1894 C1878 1.368 . S
C1894 C1890 1.368 . S
C1894 C1893 1.523 . S
H1895 C1870 0.950 . S
H1896 C1872 0.950 . S
H1897 C1873 0.949 . S
H1898 C1875 0.950 . S
H1899 C1877 0.950 . S
C1900 C1901 1.350 1_556 S
C1900 C1902 1.309 1_556 S
C1900 H1925 0.964 . S
C1901 C1900 1.350 1_554 S
C1901 C1917 1.349 . S
C1902 C1900 1.309 1_554 S
C1902 C1921 1.435 . S
C1902 H1926 0.950 1_554 S
C1903 C1920 1.574 . S
C1903 C1922 1.368 . S
C1903 H1927 0.949 . S
H1904 C1908 0.949 . S
C1905 C1906 1.349 . S
C1905 C1907 1.327 . S
C1905 H1928 0.950 . S
C1906 C1905 1.349 . S
C1906 C1918 1.349 . S
C1907 C1905 1.327 . S
C1907 C1923 1.429 . S
C1907 H1929 0.950 . S
C1908 H1904 0.949 . S
C1908 C1916 1.574 . S
C1908 C1924 1.368 . S
H1909 C1917 0.950 . S
H1910 C1915 0.950 . S
H1911 C1916 0.949 1_556 S
H1912 C1918 0.950 . S
H1913 C1919 0.950 . S
H1914 C1920 0.949 . S
C1915 H1910 0.950 . S
C1915 C1917 1.327 . S
C1915 C1921 1.429 . S
C1916 C1908 1.574 . S
C1916 H1911 0.949 1_554 S
C1916 C1922 1.368 . S
C1917 C1901 1.349 . S
C1917 H1909 0.950 . S
C1917 C1915 1.327 . S
C1918 C1906 1.349 . S
C1918 H1912 0.950 . S
C1918 C1919 1.327 . S
C1919 H1913 0.950 . S
C1919 C1918 1.327 . S
C1919 C1923 1.429 . S
C1920 C1903 1.574 . S
C1920 H1914 0.949 . S
C1920 C1924 1.368 . S
C1921 C1902 1.435 . S
C1921 C1915 1.429 . S
C1921 C1922 1.523 . S
C1922 C1903 1.368 . S
C1922 C1916 1.368 . S
C1922 C1921 1.523 . S
C1923 C1907 1.429 . S
C1923 C1919 1.429 . S
C1923 C1924 1.523 . S
C1924 C1908 1.368 . S
C1924 C1920 1.368 . S
C1924 C1923 1.523 . S
H1925 C1900 0.964 . S
H1926 C1902 0.950 1_556 S
H1927 C1903 0.949 . S
H1928 C1905 0.950 . S
H1929 C1907 0.950 . S
C1930 C1931 1.349 . S
C1930 C1932 1.327 . S
C1930 H1955 0.950 . S
C1931 C1930 1.349 . S
C1931 C1947 1.349 . S
C1932 C1930 1.327 . S
C1932 C1951 1.429 . S
C1932 H1956 0.950 . S
C1933 C1950 1.574 . S
C1933 C1952 1.368 . S
C1933 H1957 0.949 . S
H1934 C1938 0.949 . S
C1935 C1936 1.349 . S
C1935 C1937 1.327 . S
C1935 H1958 0.950 . S
C1936 C1935 1.349 . S
C1936 C1948 1.349 . S
C1937 C1935 1.327 . S
C1937 C1953 1.429 . S
C1937 H1959 0.950 . S
C1938 H1934 0.949 . S
C1938 C1946 1.574 . S
C1938 C1954 1.368 . S
H1939 C1947 0.933 1_455 S
H1940 C1945 0.950 . S
H1941 C1946 0.949 . S
H1942 C1948 0.950 . S
H1943 C1949 0.950 . S
H1944 C1950 0.949 . S
C1945 H1940 0.950 . S
C1945 C1947 1.327 . S
C1945 C1951 1.429 . S
C1946 C1938 1.574 . S
C1946 H1941 0.949 . S
C1946 C1952 1.368 . S
C1947 C1931 1.349 . S
C1947 H1939 0.933 1_655 S
C1947 C1945 1.327 . S
C1948 C1936 1.349 . S
C1948 H1942 0.950 . S
C1948 C1949 1.327 . S
C1949 H1943 0.950 . S
C1949 C1948 1.327 . S
C1949 C1953 1.429 . S
C1950 C1933 1.574 . S
C1950 H1944 0.949 . S
C1950 C1954 1.368 . S
C1951 C1932 1.429 . S
C1951 C1945 1.429 . S
C1951 C1952 1.523 . S
C1952 C1933 1.368 . S
C1952 C1946 1.368 . S
C1952 C1951 1.523 . S
C1953 C1937 1.429 . S
C1953 C1949 1.429 . S
C1953 C1954 1.523 . S
C1954 C1938 1.368 . S
C1954 C1950 1.368 . S
C1954 C1953 1.523 . S
H1955 C1930 0.950 . S
H1956 C1932 0.950 . S
H1957 C1933 0.949 . S
H1958 C1935 0.950 . S
H1959 C1937 0.950 . S
C1960 C1961 1.349 . S
C1960 C1962 1.327 . S
C1960 H1985 0.950 . S
C1961 C1960 1.349 . S
C1961 C1977 1.349 . S
C1962 C1960 1.327 . S
C1962 C1981 1.429 . S
C1962 H1986 0.950 . S
C1963 C1980 1.574 . S
C1963 C1982 1.368 . S
C1963 H1987 0.949 . S
H1964 C1968 0.949 . S
C1965 C1966 1.349 . S
C1965 C1967 1.327 . S
C1965 H1988 0.950 . S
C1966 C1965 1.349 . S
C1966 C1978 1.349 . S
C1967 C1965 1.327 . S
C1967 C1983 1.429 . S
C1967 H1989 0.950 . S
C1968 H1964 0.949 . S
C1968 C1976 1.574 . S
C1968 C1984 1.368 . S
H1969 C1977 0.950 . S
H1970 C1975 0.950 . S
H1971 C1976 0.949 . S
H1972 C1978 0.950 . S
H1973 C1979 0.950 . S
H1974 C1980 0.949 . S
C1975 H1970 0.950 . S
C1975 C1977 1.327 . S
C1975 C1981 1.429 . S
C1976 C1968 1.574 . S
C1976 H1971 0.949 . S
C1976 C1982 1.368 . S
C1977 C1961 1.349 . S
C1977 H1969 0.950 . S
C1977 C1975 1.327 . S
C1978 C1966 1.349 . S
C1978 H1972 0.950 . S
C1978 C1979 1.327 . S
C1979 H1973 0.950 . S
C1979 C1978 1.327 . S
C1979 C1983 1.429 . S
C1980 C1963 1.574 . S
C1980 H1974 0.949 . S
C1980 C1984 1.368 . S
C1981 C1962 1.429 . S
C1981 C1975 1.429 . S
C1981 C1982 1.523 . S
C1982 C1963 1.368 . S
C1982 C1976 1.368 . S
C1982 C1981 1.523 . S
C1983 C1967 1.429 . S
C1983 C1979 1.429 . S
C1983 C1984 1.523 . S
C1984 C1968 1.368 . S
C1984 C1980 1.368 . S
C1984 C1983 1.523 . S
H1985 C1960 0.950 . S
H1986 C1962 0.950 . S
H1987 C1963 0.949 . S
H1988 C1965 0.950 . S
H1989 C1967 0.950 . S
C1990 C1991 1.349 . S
C1990 C1992 1.327 . S
C1990 H2015 0.950 . S
C1991 C1990 1.349 . S
C1991 C2007 1.349 . S
C1992 C1990 1.327 . S
C1992 C2011 1.429 . S
C1992 H2016 0.950 . S
C1993 C2010 1.574 . S
C1993 C2012 1.368 . S
C1993 H2017 0.949 . S
H1994 C1998 0.949 . S
C1995 C1996 1.349 . S
C1995 C1997 1.327 . S
C1995 H2018 0.950 . S
C1996 C1995 1.349 . S
C1996 C2008 1.349 . S
C1997 C1995 1.327 . S
C1997 C2013 1.429 . S
C1997 H2019 0.950 . S
C1998 H1994 0.949 . S
C1998 C2006 1.574 . S
C1998 C2014 1.368 . S
H1999 C2007 0.950 . S
H2000 C2005 0.950 . S
H2001 C2006 0.949 . S
H2002 C2008 0.950 . S
H2003 C2009 0.950 . S
H2004 C2010 0.949 . S
C2005 H2000 0.950 . S
C2005 C2007 1.327 . S
C2005 C2011 1.429 . S
C2006 C1998 1.574 . S
C2006 H2001 0.949 . S
C2006 C2012 1.368 . S
C2007 C1991 1.349 . S
C2007 H1999 0.950 . S
C2007 C2005 1.327 . S
C2008 C1996 1.349 . S
C2008 H2002 0.950 . S
C2008 C2009 1.327 . S
C2009 H2003 0.950 . S
C2009 C2008 1.327 . S
C2009 C2013 1.429 . S
C2010 C1993 1.574 . S
C2010 H2004 0.949 . S
C2010 C2014 1.368 . S
C2011 C1992 1.429 . S
C2011 C2005 1.429 . S
C2011 C2012 1.523 . S
C2012 C1993 1.368 . S
C2012 C2006 1.368 . S
C2012 C2011 1.523 . S
C2013 C1997 1.429 . S
C2013 C2009 1.429 . S
C2013 C2014 1.523 . S
C2014 C1998 1.368 . S
C2014 C2010 1.368 . S
C2014 C2013 1.523 . S
H2015 C1990 0.950 . S
H2016 C1992 0.950 . S
H2017 C1993 0.949 . S
H2018 C1995 0.950 . S
H2019 C1997 0.950 . S
C2020 C2021 1.349 . S
C2020 C2022 1.327 . S
C2020 H2045 0.950 . S
C2021 C2020 1.349 . S
C2021 C2037 1.349 . S
C2022 C2020 1.327 . S
C2022 C2041 1.429 . S
C2022 H2046 0.950 . S
C2023 C2040 1.574 . S
C2023 C2042 1.368 . S
C2023 H2047 0.949 . S
H2024 C2028 0.949 . S
C2025 C2026 1.349 . S
C2025 C2027 1.327 . S
C2025 H2048 0.950 . S
C2026 C2025 1.349 . S
C2026 C2038 1.349 . S
C2027 C2025 1.327 . S
C2027 C2043 1.429 . S
C2027 H2049 0.950 . S
C2028 H2024 0.949 . S
C2028 C2036 1.574 . S
C2028 C2044 1.368 . S
H2029 C2037 0.950 . S
H2030 C2035 0.950 . S
H2031 C2036 0.949 . S
H2032 C2038 0.950 . S
H2033 C2039 0.950 . S
H2034 C2040 0.949 . S
C2035 H2030 0.950 . S
C2035 C2037 1.327 . S
C2035 C2041 1.429 . S
C2036 C2028 1.574 . S
C2036 H2031 0.949 . S
C2036 C2042 1.368 . S
C2037 C2021 1.349 . S
C2037 H2029 0.950 . S
C2037 C2035 1.327 . S
C2038 C2026 1.349 . S
C2038 H2032 0.950 . S
C2038 C2039 1.327 . S
C2039 H2033 0.950 . S
C2039 C2038 1.327 . S
C2039 C2043 1.429 . S
C2040 C2023 1.574 . S
C2040 H2034 0.949 . S
C2040 C2044 1.368 . S
C2041 C2022 1.429 . S
C2041 C2035 1.429 . S
C2041 C2042 1.523 . S
C2042 C2023 1.368 . S
C2042 C2036 1.368 . S
C2042 C2041 1.523 . S
C2043 C2027 1.429 . S
C2043 C2039 1.429 . S
C2043 C2044 1.523 . S
C2044 C2028 1.368 . S
C2044 C2040 1.368 . S
C2044 C2043 1.523 . S
H2045 C2020 0.950 . S
H2046 C2022 0.950 . S
H2047 C2023 0.949 . S
H2048 C2025 0.950 . S
H2049 C2027 0.950 . S
C2050 C2051 1.349 . S
C2050 C2052 1.327 . S
C2050 H2075 0.950 . S
C2051 C2050 1.349 . S
C2051 C2067 1.349 . S
C2052 C2050 1.327 . S
C2052 C2071 1.429 . S
C2052 H2076 0.950 . S
C2053 C2070 1.574 . S
C2053 C2072 1.368 . S
C2053 H2077 0.949 . S
H2054 C2058 0.949 . S
C2055 C2056 1.349 . S
C2055 C2057 1.327 . S
C2055 H2078 0.950 . S
C2056 C2055 1.349 . S
C2056 C2068 1.349 . S
C2057 C2055 1.327 . S
C2057 C2073 1.429 . S
C2057 H2079 0.950 . S
C2058 H2054 0.949 . S
C2058 C2066 1.574 . S
C2058 C2074 1.368 . S
H2059 C2067 0.950 . S
H2060 C2065 0.950 . S
H2061 C2066 0.949 . S
H2062 C2068 0.950 . S
H2063 C2069 0.950 . S
H2064 C2070 0.949 . S
C2065 H2060 0.950 . S
C2065 C2067 1.327 . S
C2065 C2071 1.429 . S
C2066 C2058 1.574 . S
C2066 H2061 0.949 . S
C2066 C2072 1.368 . S
C2067 C2051 1.349 . S
C2067 H2059 0.950 . S
C2067 C2065 1.327 . S
C2068 C2056 1.349 . S
C2068 H2062 0.950 . S
C2068 C2069 1.327 . S
C2069 H2063 0.950 . S
C2069 C2068 1.327 . S
C2069 C2073 1.429 . S
C2070 C2053 1.574 . S
C2070 H2064 0.949 . S
C2070 C2074 1.368 . S
C2071 C2052 1.429 . S
C2071 C2065 1.429 . S
C2071 C2072 1.523 . S
C2072 C2053 1.368 . S
C2072 C2066 1.368 . S
C2072 C2071 1.523 . S
C2073 C2057 1.429 . S
C2073 C2069 1.429 . S
C2073 C2074 1.523 . S
C2074 C2058 1.368 . S
C2074 C2070 1.368 . S
C2074 C2073 1.523 . S
H2075 C2050 0.950 . S
H2076 C2052 0.950 . S
H2077 C2053 0.949 . S
H2078 C2055 0.950 . S
H2079 C2057 0.950 . S
C641 C15 1.131 . S
C646 C59 1.148 . S
C671 C95 0.365 . S
C676 C46 0.116 . S
C701 C126 1.800 . S
C706 C98 1.760 . S
C731 C18 1.887 . S
C736 C139 1.906 . S
C761 C9 1.526 . S
C766 C370 1.510 . S
C791 C286 1.218 . S
C796 C50 1.284 . S
C821 C86 0.365 . S
C826 C415 0.116 . S
C851 C135 1.800 . S
C856 C529 1.760 . S
C881 C329 0.419 . S
C886 C55 0.416 . S
C911 C495 1.800 . S
C916 C89 1.760 . S
C941 C569 1.887 . S
C946 C130 1.906 . S
C971 C6 1.218 . S
C976 C450 1.284 . S
C1001 C19 1.322 . S
C1006 C339 1.342 . S
C1031 C498 2.236 . S
C1036 C169 2.258 . S
C1061 C210 1.341 . S
C1066 C570 1.321 . S
C1091 C449 1.425 . S
C1096 C258 1.512 . S
C1121 C99 1.687 . S
C1126 C290 1.654 . S
C1151 C369 1.512 . S
C1156 C178 1.425 . S
C1181 C249 1.512 . S
C1186 C418 1.424 . S
C1211 C209 0.418 . S
C1216 C455 0.415 . S
C1241 C375 1.028 . S
C1246 C206 1.133 . S
C1271 C459 1.149 . S
C1276 C295 1.132 . S
C1301 C218 0.420 . S
C1306 C166 0.416 . S
C1331 C366 1.028 . S
C1336 C335 1.133 . S
C1361 C535 0.365 . S
C1366 C446 0.116 . S
C1391 C246 1.028 . S
C1396 C215 1.132 . S
C1421 C379 1.510 . S
C1426 C578 1.526 . S
C1451 C539 1.687 . S
C1456 C10 1.654 . S
C1481 C90 1.687 . S
C1486 C579 1.654 . S
C1511 C489 2.236 . S
C1516 C58 2.258 1_655 S
C1541 C299 1.320 . S
C1546 C219 1.340 . S
C1571 C138 2.235 . S
C1576 C409 2.258 . S
C1601 C486 1.800 . S
C1606 C538 1.760 . S
C1631 C298 1.886 . S
C1636 C499 1.905 . S
C1661 C250 1.510 . S
C1666 C289 1.526 . S
C1691 C175 0.116 . S
C1696 C526 0.365 . S
C1721 C490 1.905 . S
C1726 C609 1.886 . S
C1751 C610 1.320 . S
C1756 C330 1.340 . S
C1781 C49 1.424 . S
C1786 C378 1.512 . S
C1811 C326 1.132 . S
C1816 C255 1.028 . S
C1841 C338 0.419 . S
C1846 C406 0.415 . S
C1871 C618 1.526 . S
C1876 C259 1.510 . S
C1901 C530 1.687 . S
C1906 C619 1.653 . S
C1931 C458 2.258 1_655 S
C1936 C129 2.236 . S
C1961 C419 1.284 . S
C1966 C575 1.218 . S
C1991 C410 1.149 . S
C1996 C606 1.132 . S
C2021 C170 1.148 . S
C2026 C566 1.131 . S
C2051 C615 1.218 . S
C2056 C179 1.284 . S
