# Generated by pormake.
# Topology vmb, (5)-cn, num edge types: 1
# Building blocks:
#     Node 0, Type 0, BuildingBlock: XOMCOT_clean_sbu_0, # of connection points: 5
#     Node 1, Type 0, BuildingBlock: XOMCOT_clean_sbu_0, # of connection points: 5
#     Node 2, Type 0, BuildingBlock: XOMCOT_clean_sbu_0, # of connection points: 5
#     Node 3, Type 0, BuildingBlock: XOMCOT_clean_sbu_0, # of connection points: 5
#     Node 4, Type 0, BuildingBlock: XOMCOT_clean_sbu_0, # of connection points: 5
#     Node 5, Type 0, BuildingBlock: XOMCOT_clean_sbu_0, # of connection points: 5
#     Node 6, Type 0, BuildingBlock: XOMCOT_clean_sbu_0, # of connection points: 5
#     Node 7, Type 0, BuildingBlock: XOMCOT_clean_sbu_0, # of connection points: 5
#     Edge 8, Type (0, 0), BuildingBlock: UVAHIK_clean_linker_0, # of connection points: 2
#     Edge 9, Type (0, 0), BuildingBlock: UVAHIK_clean_linker_0, # of connection points: 2
#     Edge 10, Type (0, 0), BuildingBlock: UVAHIK_clean_linker_0, # of connection points: 2
#     Edge 11, Type (0, 0), BuildingBlock: UVAHIK_clean_linker_0, # of connection points: 2
#     Edge 12, Type (0, 0), BuildingBlock: UVAHIK_clean_linker_0, # of connection points: 2
#     Edge 13, Type (0, 0), BuildingBlock: UVAHIK_clean_linker_0, # of connection points: 2
#     Edge 14, Type (0, 0), BuildingBlock: UVAHIK_clean_linker_0, # of connection points: 2
#     Edge 15, Type (0, 0), BuildingBlock: UVAHIK_clean_linker_0, # of connection points: 2
#     Edge 16, Type (0, 0), BuildingBlock: UVAHIK_clean_linker_0, # of connection points: 2
#     Edge 17, Type (0, 0), BuildingBlock: UVAHIK_clean_linker_0, # of connection points: 2
#     Edge 18, Type (0, 0), BuildingBlock: UVAHIK_clean_linker_0, # of connection points: 2
#     Edge 19, Type (0, 0), BuildingBlock: UVAHIK_clean_linker_0, # of connection points: 2
#     Edge 20, Type (0, 0), BuildingBlock: UVAHIK_clean_linker_0, # of connection points: 2
#     Edge 21, Type (0, 0), BuildingBlock: UVAHIK_clean_linker_0, # of connection points: 2
#     Edge 22, Type (0, 0), BuildingBlock: UVAHIK_clean_linker_0, # of connection points: 2
#     Edge 23, Type (0, 0), BuildingBlock: UVAHIK_clean_linker_0, # of connection points: 2
#     Edge 24, Type (0, 0), BuildingBlock: UVAHIK_clean_linker_0, # of connection points: 2
#     Edge 25, Type (0, 0), BuildingBlock: UVAHIK_clean_linker_0, # of connection points: 2
#     Edge 26, Type (0, 0), BuildingBlock: UVAHIK_clean_linker_0, # of connection points: 2
#     Edge 27, Type (0, 0), BuildingBlock: UVAHIK_clean_linker_0, # of connection points: 2
# Relax obj value: 0.131
# Max RMSD: 0.193
# Mean RMSD: 0.193
data_MOF--net-vmb--node1-XOMCOT_clean_sbu_0--edge1-UVAHIK_clean_linker_0
_symmetry_space_group_name_H-M    P1
_symmetry_Int_Tables_number       1
_symmetry_cell_setting            triclinic
loop_
_symmetry_equiv_pos_as_xyz
'x, y, z'
_cell_length_a     47.219935
_cell_length_b     54.810247
_cell_length_c     37.356069
_cell_angle_alpha  90.015413
_cell_angle_beta   117.49343
_cell_angle_gamma 89.757423
loop_
_atom_site_label
_atom_site_type_symbol
_atom_site_fract_x
_atom_site_fract_y
_atom_site_fract_z
_atom_type_partial_charge
Co0 Co 0.27908 0.0896 0.41083 0.0
C1 C 0.34349 0.06929 0.43307 0.0
C2 C 0.34213 0.1083 0.42712 0.0
C3 C 0.37267 0.10028 0.43772 0.0
N4 N 0.32393 0.08889 0.42445 0.0
N5 N 0.37363 0.07572 0.44164 0.0
H6 H 0.33585 0.05079 0.43375 0.0
H7 H 0.33373 0.12698 0.42163 0.0
C8 C 0.27786 0.1261 0.47107 0.0
O9 O 0.26374 0.11034 0.48386 0.0
N10 N 0.23346 0.09044 0.39685 0.0
C11 C 0.21986 0.08232 0.41955 0.0
C12 C 0.18779 0.0873 0.40036 0.0
C13 C 0.20867 0.09994 0.36338 0.0
N14 N 0.18075 0.0983 0.36514 0.0
C15 C 0.27459 0.04458 0.44489 0.0
C16 C 0.31536 0.05544 0.52456 0.0
C17 C 0.29929 0.033 0.51507 0.0
C18 C 0.27961 0.02736 0.4745 0.0
C19 C 0.30986 0.07215 0.49372 0.0
N20 N 0.28819 0.06712 0.45484 0.0
H21 H 0.25847 0.04019 0.41389 0.0
H22 H 0.32265 0.08922 0.50112 0.0
H23 H 0.23207 0.07371 0.44876 0.0
H24 H 0.21085 0.10828 0.33854 0.0
O25 O 0.27073 0.06577 0.36952 0.0
O26 O 0.27032 0.1059 0.36091 0.0
O27 O 0.28662 0.11997 0.44466 0.0
C28 C 0.26743 0.08408 0.34582 0.0
H29 H 0.39252 0.11174 0.44174 0.0
H30 H 0.17077 0.08297 0.41127 0.0
H31 H 0.33119 0.06037 0.55551 0.0
H32 H 0.26756 0.00996 0.4657 0.0
Co33 Co 0.75108 0.07835 0.07691 0.0
C34 C 0.68231 0.06484 0.03725 0.0
C35 C 0.68837 0.10349 0.04328 0.0
C36 C 0.65645 0.09831 0.02933 0.0
N37 N 0.70467 0.08251 0.04724 0.0
N38 N 0.65271 0.07392 0.02584 0.0
H39 H 0.68769 0.04564 0.04116 0.0
H40 H 0.69914 0.12126 0.05256 0.0
C41 C 0.74302 0.12035 0.02262 0.0
O42 O 0.72106 0.10745 -0.00663 0.0
N43 N 0.79684 0.07354 0.1074 0.0
C44 C 0.81098 0.05143 0.11427 0.0
C45 C 0.84342 0.05442 0.13147 0.0
C46 C 0.82103 0.08984 0.12099 0.0
N47 N 0.84976 0.07849 0.13559 0.0
C48 C 0.73917 0.03996 0.01888 0.0
C49 C 0.77814 0.05857 0.98867 0.0
C50 C 0.7627 0.03635 0.97372 0.0
C51 C 0.74313 0.02696 0.98934 0.0
C52 C 0.77349 0.07093 0.01808 0.0
N53 N 0.7532 0.06215 0.03181 0.0
H54 H 0.72619 0.03145 0.03265 0.0
H55 H 0.78737 0.08714 0.03094 0.0
H56 H 0.79842 0.03425 0.10569 0.0
H57 H 0.81773 0.10943 0.1186 0.0
O58 O 0.74472 0.05036 0.10339 0.0
O59 O 0.74899 0.08861 0.12493 0.0
O60 O 0.75777 0.11142 0.05823 0.0
C61 C 0.74419 0.06572 0.12965 0.0
H62 H 0.63789 0.11139 0.02494 0.0
H63 H 0.86108 0.03999 0.13978 0.0
H64 H 0.79461 0.06598 0.97881 0.0
H65 H 0.73131 0.00955 0.97931 0.0
Co66 Co 0.74579 0.91895 0.56528 0.0
C67 C 0.68201 0.93484 0.55231 0.0
C68 C 0.68812 0.89619 0.56245 0.0
C69 C 0.65763 0.90254 0.55533 0.0
N70 N 0.70323 0.91645 0.56029 0.0
N71 N 0.6538 0.92688 0.54889 0.0
H72 H 0.68693 0.95356 0.54795 0.0
H73 H 0.69841 0.87805 0.56842 0.0
C74 C 0.74979 0.87897 0.51329 0.0
O75 O 0.76113 0.89481 0.49696 0.0
N76 N 0.78922 0.92162 0.57088 0.0
C77 C 0.79874 0.93252 0.54575 0.0
C78 C 0.8311 0.92975 0.5607 0.0
C79 C 0.81658 0.91244 0.6011 0.0
N80 N 0.84238 0.91715 0.59549 0.0
C81 C 0.73383 0.96037 0.5141 0.0
C82 C 0.69057 0.93834 0.44346 0.0
C83 C 0.69966 0.96252 0.44216 0.0
C84 C 0.72092 0.97373 0.47836 0.0
C85 C 0.70425 0.9256 0.47994 0.0
N86 N 0.72714 0.93618 0.51411 0.0
H87 H 0.75067 0.96915 0.54158 0.0
H88 H 0.69632 0.90725 0.48069 0.0
H89 H 0.78357 0.94104 0.51724 0.0
H90 H 0.81767 0.90214 0.62639 0.0
O91 O 0.75374 0.94654 0.60036 0.0
O92 O 0.76316 0.90792 0.62046 0.0
O93 O 0.74103 0.88587 0.53936 0.0
C94 C 0.76365 0.93085 0.6298 0.0
H95 H 0.63976 0.89017 0.55511 0.0
H96 H 0.84528 0.93662 0.54699 0.0
H97 H 0.67325 0.92928 0.41649 0.0
H98 H 0.72869 0.99236 0.47897 0.0
Co99 Co 0.27296 0.93001 0.90581 0.0
C100 C 0.33921 0.94495 0.92995 0.0
C101 C 0.33529 0.90594 0.92979 0.0
C102 C 0.36652 0.91193 0.94033 0.0
N103 N 0.3183 0.92669 0.92349 0.0
N104 N 0.36896 0.9365 0.94035 0.0
H105 H 0.33266 0.96405 0.92701 0.0
H106 H 0.32558 0.88775 0.92624 0.0
C107 C 0.2565 0.89245 0.95186 0.0
O108 O 0.23692 0.90807 0.95567 0.0
N109 N 0.22701 0.93369 0.88751 0.0
C110 C 0.21226 0.94962 0.90117 0.0
C111 C 0.18007 0.94546 0.882 0.0
C112 C 0.20296 0.92014 0.85956 0.0
N113 N 0.17414 0.92693 0.85595 0.0
C114 C 0.28008 0.97556 0.94572 0.0
C115 C 0.29937 0.95759 0.02256 0.0
C116 C 0.29229 0.98252 0.01499 0.0
C117 C 0.28414 0.9916 0.97649 0.0
C118 C 0.2953 0.94212 0.99077 0.0
N119 N 0.28318 0.95093 0.95227 0.0
H120 H 0.27217 0.98302 0.91593 0.0
H121 H 0.30148 0.92313 -0.0027 0.0
H122 H 0.2235 0.96295 0.92457 0.0
H123 H 0.2065 0.90523 0.84302 0.0
O124 O 0.27072 0.95463 0.86807 0.0
O125 O 0.26466 0.91504 0.85493 0.0
O126 O 0.27367 0.89895 0.93528 0.0
C127 C 0.26629 0.93701 0.84285 0.0
H128 H 0.38572 0.89912 0.94645 0.0
H129 H 0.16228 0.95537 0.8869 0.0
H130 H 0.3067 0.94993 0.05227 0.0
H131 H 0.27965 0.01088 0.96973 0.0
Co132 Co 0.77912 0.57823 0.41015 0.0
C133 C 0.84697 0.56528 0.44315 0.0
C134 C 0.83971 0.60331 0.42781 0.0
C135 C 0.87144 0.59754 0.44033 0.0
N136 N 0.82449 0.58303 0.42969 0.0
N137 N 0.8759 0.57353 0.44967 0.0
H138 H 0.84195 0.54652 0.4471 0.0
H139 H 0.82836 0.62079 0.41658 0.0
C140 C 0.75503 0.62222 0.43491 0.0
O141 O 0.73834 0.60742 0.44547 0.0
N142 N 0.73336 0.57253 0.38962 0.0
C143 C 0.71967 0.55218 0.39489 0.0
C144 C 0.68718 0.55509 0.37621 0.0
C145 C 0.70844 0.58711 0.36568 0.0
N146 N 0.68005 0.57707 0.35811 0.0
C147 C 0.78708 0.54353 0.47123 0.0
C148 C 0.79961 0.5765 0.53255 0.0
C149 C 0.79241 0.55231 0.53721 0.0
C150 C 0.7884 0.53542 0.50715 0.0
C151 C 0.79857 0.58369 0.49607 0.0
N152 N 0.78842 0.56782 0.46433 0.0
H153 H 0.78369 0.53021 0.44841 0.0
H154 H 0.80493 0.60219 0.4932 0.0
H155 H 0.73187 0.5358 0.4101 0.0
H156 H 0.71104 0.60489 0.355 0.0
O157 O 0.78254 0.54718 0.38875 0.0
O158 O 0.77253 0.58236 0.35548 0.0
O159 O 0.77352 0.61356 0.42148 0.0
C160 C 0.77729 0.55891 0.35611 0.0
H161 H 0.88942 0.60984 0.44065 0.0
H162 H 0.66996 0.5418 0.37529 0.0
H163 H 0.80458 0.58994 0.55593 0.0
H164 H 0.78515 0.51618 0.51074 0.0
Co165 Co 0.25001 0.59174 0.07691 0.0
C166 C 0.1864 0.57354 0.05937 0.0
C167 C 0.19025 0.61176 0.07322 0.0
C168 C 0.15983 0.60409 0.06412 0.0
N169 N 0.20677 0.59256 0.07008 0.0
N170 N 0.15736 0.57999 0.0553 0.0
H171 H 0.19293 0.55534 0.05465 0.0
H172 H 0.19946 0.63008 0.08105 0.0
C173 C 0.25659 0.63645 0.03584 0.0
O174 O 0.2686 0.6225 0.01765 0.0
N175 N 0.294 0.59047 0.08419 0.0
C176 C 0.30446 0.58176 0.05844 0.0
C177 C 0.33678 0.5851 0.07465 0.0
C178 C 0.3208 0.59878 0.11618 0.0
N179 N 0.3471 0.59575 0.1109 0.0
C180 C 0.23838 0.55498 0.01822 0.0
C181 C 0.19723 0.58163 0.95135 0.0
C182 C 0.20485 0.55756 0.94632 0.0
C183 C 0.2252 0.54408 0.98045 0.0
C184 C 0.21078 0.5918 0.98999 0.0
N185 N 0.23255 0.57893 0.02247 0.0
H186 H 0.25447 0.54437 0.04402 0.0
H187 H 0.20345 0.6099 -0.00627 0.0
H188 H 0.28995 0.57453 0.02873 0.0
H189 H 0.3211 0.60732 0.14247 0.0
O190 O 0.25686 0.56126 0.10512 0.0
O191 O 0.266 0.59769 0.13404 0.0
O192 O 0.24622 0.62695 0.05879 0.0
C193 C 0.26596 0.57407 0.13779 0.0
H194 H 0.1409 0.61562 0.0633 0.0
H195 H 0.35164 0.58003 0.06077 0.0
H196 H 0.18089 0.59239 0.92575 0.0
H197 H 0.23187 0.52546 0.97793 0.0
Co198 Co 0.25877 0.42523 0.59269 0.0
C199 C 0.19009 0.43974 0.55719 0.0
C200 C 0.19617 0.40132 0.56773 0.0
C201 C 0.1646 0.40719 0.55558 0.0
N202 N 0.2122 0.42164 0.56761 0.0
N203 N 0.16081 0.43146 0.54914 0.0
H204 H 0.19558 0.45884 0.55833 0.0
H205 H 0.20697 0.38364 0.57853 0.0
C206 C 0.24794 0.37945 0.54539 0.0
O207 O 0.22544 0.39128 0.51481 0.0
N208 N 0.3047 0.42953 0.61867 0.0
C209 C 0.319 0.45057 0.61769 0.0
C210 C 0.3514 0.44691 0.63547 0.0
C211 C 0.32875 0.41329 0.63778 0.0
N212 N 0.35751 0.42359 0.64811 0.0
C213 C 0.24241 0.45876 0.52675 0.0
C214 C 0.27876 0.43642 0.49552 0.0
C215 C 0.26218 0.45791 0.47759 0.0
C216 C 0.24381 0.46911 0.49355 0.0
C217 C 0.27648 0.42658 0.52849 0.0
N218 N 0.25762 0.43729 0.54301 0.0
H219 H 0.23063 0.4689 0.54062 0.0
H220 H 0.29093 0.41081 0.54328 0.0
H221 H 0.30655 0.4673 0.60378 0.0
H222 H 0.32531 0.39433 0.64279 0.0
O223 O 0.25468 0.45575 0.61531 0.0
O224 O 0.25988 0.41939 0.64409 0.0
O225 O 0.26396 0.39034 0.57907 0.0
C226 C 0.25566 0.44284 0.64508 0.0
H227 H 0.14641 0.39475 0.55428 0.0
H228 H 0.36923 0.46027 0.63863 0.0
H229 H 0.29371 0.42744 0.48452 0.0
H230 H 0.23177 0.48632 0.48162 0.0
Co231 Co 0.78735 0.41447 0.9185 0.0
C232 C 0.85358 0.43193 0.94067 0.0
C233 C 0.84062 0.40076 0.90198 0.0
C234 C 0.87016 0.40875 0.90799 0.0
N235 N 0.83031 0.41506 0.923 0.0
N236 N 0.87833 0.42847 0.93233 0.0
H237 H 0.85225 0.44697 0.9582 0.0
H238 H 0.82704 0.38603 0.88239 0.0
C239 C 0.81312 0.36449 0.9475 0.0
O240 O 0.84068 0.37451 0.97145 0.0
N241 N 0.74426 0.41428 0.91269 0.0
C242 C 0.73349 0.42744 0.93448 0.0
C243 C 0.70125 0.42368 0.91942 0.0
C244 C 0.71812 0.40309 0.884 0.0
N245 N 0.69152 0.40848 0.8876 0.0
C246 C 0.81409 0.4426 0.99089 0.0
C247 C 0.80945 0.40772 0.04119 0.0
C248 C 0.82074 0.43098 0.05666 0.0
C249 C 0.82306 0.44847 0.03084 0.0
C250 C 0.80035 0.40269 0.00072 0.0
N251 N 0.80385 0.41975 0.97631 0.0
H252 H 0.81359 0.4571 0.97116 0.0
H253 H 0.78872 0.38556 0.98882 0.0
H254 H 0.74771 0.43964 0.95885 0.0
H255 H 0.71846 0.39167 0.86055 0.0
O256 O 0.78162 0.44793 0.90087 0.0
O257 O 0.77012 0.41562 0.86073 0.0
O258 O 0.78934 0.37789 0.92477 0.0
C259 C 0.77138 0.43923 0.86467 0.0
H260 H 0.88381 0.40116 0.89401 0.0
H261 H 0.68584 0.43244 0.92987 0.0
H262 H 0.80639 0.3938 0.05967 0.0
H263 H 0.82982 0.46711 0.04055 0.0
C264 C 0.26441 0.01474 0.03412 0.0
C265 C 0.29047 0.99867 0.04561 0.0
C266 C 0.26085 0.02878 0.06284 0.0
C267 C 0.24732 0.0389 0.13309 0.0
H268 H 0.31703 0.07163 0.22202 0.0
C269 C 0.25135 0.05739 0.28603 0.0
C270 C 0.26309 0.0799 0.3048 0.0
C271 C 0.25135 0.05177 0.24969 0.0
C272 C 0.29725 0.0629 0.19697 0.0
H273 H 0.33379 0.9853 0.09598 0.0
H274 H 0.32737 0.00984 0.14659 0.0
H275 H 0.32575 0.05369 0.16783 0.0
H276 H 0.28294 0.11458 0.29995 0.0
H277 H 0.28349 0.10448 0.23629 0.0
H278 H 0.21913 0.04734 0.16285 0.0
C279 C 0.30989 0.01162 0.11517 0.0
C280 C 0.30233 0.05244 0.16631 0.0
C281 C 0.31339 0.99742 0.08636 0.0
C282 C 0.27362 0.09715 0.28586 0.0
C283 C 0.27413 0.09134 0.24972 0.0
C284 C 0.24235 0.04913 0.16389 0.0
C285 C 0.28326 0.02709 0.10369 0.0
C286 C 0.27752 0.04002 0.13445 0.0
C287 C 0.26351 0.06843 0.23178 0.0
C288 C 0.26741 0.06082 0.19643 0.0
H289 H 0.24609 0.01587 0.00302 0.0
H290 H 0.24021 0.04067 0.05318 0.0
H291 H 0.22784 0.02925 0.10903 0.0
H292 H 0.24305 0.04382 0.30006 0.0
H293 H 0.24329 0.0339 0.23663 0.0
C294 C 0.73021 0.07494 0.18512 0.0
C295 C 0.73514 0.05779 0.16059 0.0
C296 C 0.71903 0.06748 0.21207 0.0
C297 C 0.67821 0.01608 0.23315 0.0
H298 H 0.71993 0.04045 0.34287 0.0
C299 C 0.68919 0.9627 0.37021 0.0
C300 C 0.68958 0.97533 0.40318 0.0
C301 C 0.68574 0.97534 0.33606 0.0
C302 C 0.70747 0.03387 0.31211 0.0
H303 H 0.73269 0.01941 0.14528 0.0
H304 H 0.71399 0.00634 0.19289 0.0
H305 H 0.73317 0.0579 0.2926 0.0
H306 H 0.68357 0.01084 0.42455 0.0
H307 H 0.67811 0.033 0.36495 0.0
H308 H 0.65363 0.99126 0.2533 0.0
C309 C 0.71803 0.0256 0.19076 0.0
C310 C 0.71513 0.04384 0.28333 0.0
C311 C 0.72913 0.03305 0.16384 0.0
C312 C 0.68409 1.00067 0.4 0.0
C313 C 0.68086 0.01335 0.3659 0.0
C314 C 0.67064 0.00606 0.26198 0.0
C315 C 0.7126 0.04274 0.21492 0.0
C316 C 0.70131 0.03452 0.24388 0.0
C317 C 0.68276 1.00088 0.33424 0.0
C318 C 0.6859 0.01439 0.302 0.0
H319 H 0.73439 0.09418 0.18299 0.0
H320 H 0.71494 0.08112 0.23019 0.0
H321 H 0.66661 0.00893 0.20271 0.0
H322 H 0.69371 0.94325 0.37178 0.0
H323 H 0.68765 0.96526 0.31232 0.0
C324 C 0.77558 0.96376 0.68055 0.0
C325 C 0.77345 0.93878 0.6715 0.0
C326 C 0.78182 0.97155 0.71896 0.0
C327 C 0.76973 0.95246 0.804 0.0
H328 H 0.81934 0.01035 0.85369 0.0
C329 C 0.77262 0.99734 0.94595 0.0
C330 C 0.76812 0.02278 0.94313 0.0
C331 C 0.77845 0.98479 0.91744 0.0
C332 C 0.80541 0.99415 0.84015 0.0
H333 H 0.7775 0.90228 0.69586 0.0
H334 H 0.78834 0.91599 0.76332 0.0
H335 H 0.82213 0.99198 0.79589 0.0
H336 H 0.76563 0.05492 0.90789 0.0
H337 H 0.77579 0.03306 0.85828 0.0
H338 H 0.75216 0.95514 0.8474 0.0
C339 C 0.78499 0.92949 0.74051 0.0
C340 C 0.80706 0.98363 0.80717 0.0
C341 C 0.77891 0.92167 0.70202 0.0
C342 C 0.7695 0.03538 0.91124 0.0
C343 C 0.77543 0.02287 0.88291 0.0
C344 C 0.7681 0.96299 0.83703 0.0
C345 C 0.78596 0.95452 0.74911 0.0
C346 C 0.78849 0.96313 0.78802 0.0
C347 C 0.78003 0.99747 0.88575 0.0
C348 C 0.78518 0.98436 0.85461 0.0
H349 H 0.77157 0.97736 0.65764 0.0
H350 H 0.78199 0.99097 0.72449 0.0
H351 H 0.75491 0.9368 0.7896 0.0
H352 H 0.77217 0.98719 0.97054 0.0
H353 H 0.78208 0.96522 0.92044 0.0
C354 C 0.26716 0.96606 0.79256 0.0
C355 C 0.26735 0.94183 0.80477 0.0
C356 C 0.27349 0.97133 0.76056 0.0
C357 C 0.27537 0.94682 0.67093 0.0
H358 H 0.33153 1.00197 0.68842 0.0
C359 C 0.27283 0.00515 0.54315 0.0
C360 C 0.30089 0.01627 0.54707 0.0
C361 C 0.27325 0.99088 0.57417 0.0
C362 C 0.31638 0.98621 0.68322 0.0
H363 H 0.27268 0.90399 0.79192 0.0
H364 H 0.28363 0.91331 0.73531 0.0
H365 H 0.32248 0.98706 0.74353 0.0
H366 H 0.35171 0.02021 0.58588 0.0
H367 H 0.35241 0.99526 0.64061 0.0
H368 H 0.26887 0.94629 0.61028 0.0
C369 C 0.27867 0.92815 0.75077 0.0
C370 C 0.31083 0.97789 0.71463 0.0
C371 C 0.2723 0.92284 0.78299 0.0
C372 C 0.32965 0.01214 0.58226 0.0
C373 C 0.33006 0.9978 0.61345 0.0
C374 C 0.28095 0.95514 0.6394 0.0
C375 C 0.28023 0.95251 0.74011 0.0
C376 C 0.28939 0.95872 0.70837 0.0
C377 C 0.30171 0.98741 0.60998 0.0
C378 C 0.30067 0.97545 0.64489 0.0
H379 H 0.26314 0.98108 0.80856 0.0
H380 H 0.27365 0.99025 0.75223 0.0
H381 H 0.25888 0.93192 0.66539 0.0
H382 H 0.25015 0.00833 0.51675 0.0
H383 H 0.25086 0.98362 0.57086 0.0
C384 C 0.772 0.52145 0.31666 0.0
C385 C 0.77993 0.5462 0.32336 0.0
C386 C 0.77885 0.50813 0.28984 0.0
C387 C 0.80361 0.5146 0.20923 0.0
H388 H 0.82825 0.44676 0.23617 0.0
C389 C 0.84879 0.45603 0.11938 0.0
C390 C 0.82572 0.43838 0.09732 0.0
C391 C 0.84844 0.46738 0.15256 0.0
C392 C 0.82165 0.46573 0.22866 0.0
H393 H 0.80072 0.57677 0.30738 0.0
H394 H 0.81403 0.55336 0.26164 0.0
H395 H 0.81555 0.47164 0.28113 0.0
H396 H 0.78618 0.41721 0.09532 0.0
H397 H 0.78672 0.43634 0.15443 0.0
H398 H 0.81056 0.50859 0.1572 0.0
C399 C 0.80159 0.54427 0.27595 0.0
C400 C 0.81396 0.47993 0.25396 0.0
C401 C 0.79398 0.55773 0.30209 0.0
C402 C 0.80449 0.43054 0.1117 0.0
C403 C 0.80462 0.44155 0.14541 0.0
C404 C 0.812 0.50054 0.18448 0.0
C405 C 0.7946 0.51918 0.27006 0.0
C406 C 0.80425 0.50443 0.24414 0.0
C407 C 0.82564 0.46076 0.16484 0.0
C408 C 0.82063 0.47597 0.19377 0.0
H409 H 0.76098 0.51227 0.33273 0.0
H410 H 0.77217 0.48908 0.28512 0.0
H411 H 0.79579 0.53321 0.2003 0.0
H412 H 0.86598 0.46204 0.10968 0.0
H413 H 0.865 0.48207 0.16753 0.0
C414 C 0.27842 0.57591 0.21055 0.0
C415 C 0.27341 0.56213 0.17645 0.0
C416 C 0.28134 0.56428 0.24542 0.0
C417 C 0.25465 0.50872 0.27398 0.0
H418 H 0.31397 0.52657 0.38378 0.0
C419 C 0.29529 0.47168 0.445 0.0
C420 C 0.26521 0.46933 0.4437 0.0
C421 C 0.29818 0.48304 0.41341 0.0
C422 C 0.29742 0.52133 0.35324 0.0
H423 H 0.26954 0.52543 0.15281 0.0
H424 H 0.27478 0.50526 0.21356 0.0
H425 H 0.31765 0.54633 0.32724 0.0
H426 H 0.2146 0.47675 0.40843 0.0
H427 H 0.21963 0.49659 0.35314 0.0
H428 H 0.23433 0.48383 0.29971 0.0
C429 C 0.27591 0.52499 0.21318 0.0
C430 C 0.29938 0.53274 0.321 0.0
C431 C 0.27305 0.53656 0.17849 0.0
C432 C 0.23807 0.47843 0.41023 0.0
C433 C 0.24093 0.48961 0.37853 0.0
C434 C 0.25255 0.49749 0.3061 0.0
C435 C 0.27921 0.53875 0.24657 0.0
C436 C 0.278 0.5265 0.28108 0.0
C437 C 0.271 0.49204 0.37985 0.0
C438 C 0.27383 0.50373 0.34601 0.0
H439 H 0.27885 0.59565 0.20979 0.0
H440 H 0.28376 0.57531 0.27074 0.0
H441 H 0.23759 0.50379 0.2435 0.0
H442 H 0.31664 0.46507 0.47071 0.0
H443 H 0.3216 0.48455 0.415 0.0
C444 C 0.18493 0.52228 0.8989 0.0
C445 C 0.19417 0.54686 0.90584 0.0
C446 C 0.18284 0.51035 0.86482 0.0
C447 C 0.18477 0.51804 0.76761 0.0
H448 H 0.24056 0.46138 0.8038 0.0
C449 C 0.2452 0.47933 0.67699 0.0
C450 C 0.24803 0.4539 0.67546 0.0
C451 C 0.23449 0.48978 0.70261 0.0
C452 C 0.22444 0.47685 0.79287 0.0
H453 H 0.20533 0.57889 0.88079 0.0
H454 H 0.20153 0.55807 0.82109 0.0
H455 H 0.22437 0.4812 0.84961 0.0
H456 H 0.24208 0.41941 0.69957 0.0
H457 H 0.22299 0.43761 0.74396 0.0
H458 H 0.18524 0.51385 0.71095 0.0
C459 C 0.1959 0.54802 0.84194 0.0
C460 C 0.21509 0.48819 0.81912 0.0
C461 C 0.19805 0.55995 0.87611 0.0
C462 C 0.2405 0.4391 0.7005 0.0
C463 C 0.22952 0.44954 0.72589 0.0
C464 C 0.19392 0.50656 0.74116 0.0
C465 C 0.18984 0.52284 0.83708 0.0
C466 C 0.19563 0.50913 0.807 0.0
C467 C 0.22613 0.47499 0.72696 0.0
C468 C 0.21439 0.48613 0.75381 0.0
H469 H 0.18119 0.51191 0.92104 0.0
H470 H 0.17751 0.49102 0.86132 0.0
H471 H 0.16963 0.5341 0.75751 0.0
H472 H 0.25084 0.49118 0.65797 0.0
H473 H 0.23283 0.50947 0.70337 0.0
C474 C 0.74692 0.44682 0.79084 0.0
C475 C 0.76499 0.45526 0.83036 0.0
C476 C 0.74503 0.46049 0.75838 0.0
C477 C 0.76569 0.52027 0.72898 0.0
H478 H 0.77495 0.47992 0.64967 0.0
C479 C 0.8064 0.55298 0.61095 0.0
C480 C 0.78697 0.54469 0.57148 0.0
C481 C 0.80125 0.54468 0.64288 0.0
C482 C 0.77217 0.49139 0.67149 0.0
H483 H 0.79388 0.48501 0.86723 0.0
H484 H 0.79172 0.50846 0.8107 0.0
H485 H 0.7686 0.46068 0.70397 0.0
H486 H 0.74556 0.52273 0.53408 0.0
H487 H 0.73732 0.50784 0.58978 0.0
H488 H 0.77059 0.55101 0.69661 0.0
C489 C 0.77833 0.49165 0.80449 0.0
C490 C 0.76822 0.48041 0.70239 0.0
C491 C 0.77968 0.47817 0.83691 0.0
C492 C 0.76161 0.52882 0.56433 0.0
C493 C 0.75667 0.52045 0.59607 0.0
C494 C 0.77008 0.53129 0.69816 0.0
C495 C 0.76184 0.48255 0.76497 0.0
C496 C 0.76471 0.49468 0.73137 0.0
C497 C 0.77675 0.52796 0.63562 0.0
C498 C 0.77312 0.51686 0.6691 0.0
H499 H 0.73503 0.42932 0.7851 0.0
H500 H 0.73134 0.45332 0.72819 0.0
H501 H 0.7629 0.53177 0.75072 0.0
H502 H 0.82606 0.56526 0.61729 0.0
H503 H 0.81706 0.5506 0.67332 0.0
C504 C 0.59489 0.93044 0.52039 0.0
C505 C 0.62532 0.94122 0.53911 0.0
C506 C 0.56731 0.9444 0.51038 0.0
C507 C 0.53934 1.00249 0.53463 0.0
H508 H 0.46455 0.99256 0.43168 0.0
C509 C 0.43234 0.06942 0.47438 0.0
C510 C 0.40125 0.05998 0.45323 0.0
C511 C 0.45912 0.05441 0.4853 0.0
C512 C 0.48504 0.99537 0.4608 0.0
H513 H 0.65034 0.97525 0.56245 0.0
H514 H 0.60235 0.9996 0.54464 0.0
H515 H 0.5121 0.96753 0.44987 0.0
H516 H 0.37434 0.02702 0.42708 0.0
H517 H 0.42103 1.00075 0.44686 0.0
H518 H 0.51237 0.03028 0.54568 0.0
C519 C 0.59981 0.98027 0.5379 0.0
C520 C 0.51237 0.98101 0.47123 0.0
C521 C 0.62738 0.96634 0.54773 0.0
C522 C 0.39779 0.03498 0.44357 0.0
C523 C 0.42465 0.01993 0.45455 0.0
C524 C 0.51201 0.0168 0.52427 0.0
C525 C 0.56938 0.96952 0.51899 0.0
C526 C 0.53997 0.98446 0.50819 0.0
C527 C 0.45572 0.02945 0.47556 0.0
C528 C 0.48451 0.01357 0.48709 0.0
H529 H 0.59228 0.91124 0.51289 0.0
H530 H 0.54434 0.93544 0.4962 0.0
H531 H 0.55992 0.00539 0.56365 0.0
H532 H 0.43615 0.08844 0.48289 0.0
H533 H 0.48258 0.06253 0.50099 0.0
C534 C 0.42788 0.94092 0.97252 0.0
C535 C 0.39718 0.95064 0.94868 0.0
C536 C 0.45519 0.95447 0.98034 0.0
C537 C 0.48319 0.01776 0.98033 0.0
H538 H 0.55633 0.98503 0.98087 0.0
C539 C 0.59362 0.0706 0.99227 0.0
C540 C 0.6239 0.06033 0.01656 0.0
C541 C 0.56573 0.05748 0.9834 0.0
C542 C 0.53627 0.99444 0.98128 0.0
H543 H 0.37145 0.98234 0.91397 0.0
H544 H 0.41897 0.00592 0.92756 0.0
H545 H 0.50843 0.9618 0.96668 0.0
H546 H 0.64824 0.02825 0.05147 0.0
H547 H 0.5999 0.00551 0.03597 0.0
H548 H 0.51111 0.05041 -0.00504 0.0
C549 C 0.42193 0.98791 0.94077 0.0
C550 C 0.50874 0.98109 0.97315 0.0
C551 C 0.3946 0.97435 0.93297 0.0
C552 C 0.62549 0.03663 0.03191 0.0
C553 C 0.59765 0.02353 0.02304 0.0
C554 C 0.51074 0.03113 0.98845 0.0
C555 C 0.45263 0.97815 0.96451 0.0
C556 C 0.48184 0.99252 0.9727 0.0
C557 C 0.56737 0.03374 -0.00139 0.0
C558 C 0.53772 0.01963 0.9892 0.0
H559 H 0.43088 0.92291 0.98568 0.0
H560 H 0.47838 0.94648 -0.00068 0.0
H561 H 0.46315 0.02715 0.98081 0.0
H562 H 0.59146 0.08869 0.97962 0.0
H563 H 0.54287 0.06584 0.96408 0.0
C564 C 0.90296 0.53416 0.45193 0.0
C565 C 0.90467 0.55926 0.4607 0.0
C566 C 0.93068 0.52044 0.46177 0.0
C567 C 0.01837 0.52019 0.52764 0.0
H568 H 0.01842 0.47194 0.45178 0.0
C569 C 0.13421 0.47059 0.55014 0.0
C570 C 0.13225 0.44576 0.53951 0.0
C571 C 0.10659 0.48437 0.54074 0.0
C572 C 0.01877 0.48509 0.47361 0.0
H573 H 0.93728 0.58942 0.48722 0.0
H574 H 0.98562 0.56556 0.50406 0.0
H575 H 0.97041 0.49596 0.43527 0.0
H576 H 0.09923 0.41617 0.5104 0.0
H577 H 0.05122 0.43998 0.49482 0.0
H578 H 0.06667 0.50927 0.56608 0.0
C579 C 0.96275 0.55644 0.48979 0.0
C580 C 0.99116 0.49892 0.46409 0.0
C581 C 0.93498 0.5702 0.47977 0.0
C582 C 0.1018 0.43514 0.51935 0.0
C583 C 0.07416 0.44892 0.50997 0.0
C584 C 0.04596 0.50631 0.53722 0.0
C585 C 0.96099 0.53137 0.48078 0.0
C586 C 0.99054 0.51668 0.49096 0.0
C587 C 0.07612 0.47376 0.52049 0.0
C588 C 0.0466 0.48854 0.51034 0.0
H589 H 0.88013 0.5251 0.43681 0.0
H590 H 0.92834 0.50115 0.45472 0.0
H591 H 0.01868 0.53342 0.54936 0.0
H592 H 0.15709 0.47945 0.56619 0.0
H593 H 0.10916 0.50347 0.549 0.0
C594 C 0.1036 0.57188 0.04971 0.0
C595 C 0.1295 0.56455 0.04323 0.0
C596 C 0.07664 0.55705 0.03781 0.0
C597 C 0.03456 0.50431 0.97116 0.0
H598 H 0.9904 0.50199 0.03653 0.0
C599 C 0.93384 0.43467 0.94271 0.0
C600 C 0.90661 0.4435 0.9449 0.0
C601 C 0.96107 0.44922 0.95465 0.0
C602 C 1.00229 0.50258 0.01773 0.0
H603 H 0.14657 0.53548 0.01847 0.0
H604 H 0.10041 0.50948 -0.00077 0.0
H605 H 0.03761 0.52743 0.05759 0.0
H606 H 0.88718 0.47521 0.96113 0.0
H607 H 0.93459 0.50013 0.98244 0.0
H608 H 0.99936 0.47913 0.93164 0.0
C609 C 0.10065 0.52695 0.0129 0.0
C610 C 0.02939 0.51726 0.02975 0.0
C611 C 0.12752 0.54184 0.02455 0.0
C612 C 0.9076 0.46736 0.95954 0.0
C613 C 0.93491 0.4818 0.97178 0.0
C614 C 1.0076 0.48948 0.95933 0.0
C615 C 0.07473 0.53432 0.01926 0.0
C616 C 0.04591 0.51844 0.00659 0.0
C617 C 0.96201 0.47296 0.96946 0.0
C618 C 0.99103 0.48848 0.98237 0.0
H619 H 0.10407 0.58905 0.06422 0.0
H620 H 0.05709 0.56362 0.04279 0.0
H621 H 0.04616 0.50499 0.95205 0.0
H622 H 0.9344 0.41637 0.93221 0.0
H623 H 0.98165 0.4417 0.9529 0.0
C624 C 0.13019 0.11927 0.34873 0.0
C625 C 0.14925 0.10584 0.33602 0.0
C626 C 0.09771 0.12286 0.32299 0.0
C627 C 0.03313 0.11365 0.21681 0.0
H628 H 0.98026 0.1073 0.27068 0.0
C629 C 0.90345 0.07857 0.14018 0.0
C630 C 0.88109 0.089 0.15069 0.0
C631 C 0.93524 0.08614 0.15885 0.0
C632 C 0.9946 0.10957 0.25514 0.0
H633 H 0.14987 0.08633 0.28619 0.0
H634 H 0.09272 0.09171 0.24122 0.0
H635 H 0.03779 0.11001 0.31054 0.0
H636 H 0.87402 0.11624 0.18769 0.0
H637 H 0.93012 0.12939 0.22121 0.0
H638 H 0.98956 0.11177 0.16128 0.0
C639 C 0.10286 0.10016 0.27071 0.0
C640 C 0.02776 0.11118 0.27804 0.0
C641 C 0.13562 0.09701 0.29636 0.0
C642 C 0.89082 0.10801 0.17901 0.0
C643 C 0.92288 0.11536 0.19829 0.0
C644 C 0.99991 0.11172 0.19389 0.0
C645 C 0.08322 0.11253 0.28412 0.0
C646 C 0.04763 0.11293 0.25928 0.0
C647 C 0.94557 0.10414 0.18895 0.0
C648 C 0.98031 0.10932 0.21282 0.0
H649 H 0.14035 0.12633 0.37921 0.0
H650 H 0.08379 0.13313 0.33414 0.0
H651 H 0.04742 0.11541 0.20116 0.0
H652 H 0.89645 0.06399 0.1182 0.0
H653 H 0.95207 0.07699 0.15115 0.0
C654 C 0.13401 0.91092 0.7899 0.0
C655 C 0.14293 0.91723 0.83012 0.0
C656 C 0.10209 0.90534 0.76337 0.0
C657 C 0.02347 0.89023 0.75922 0.0
H658 H 0.9885 0.92475 0.65715 0.0
C659 C 0.88804 0.91029 0.66328 0.0
C660 C 0.87542 0.91084 0.62107 0.0
C661 C 0.9209 0.90688 0.68794 0.0
C662 C 0.99783 0.91459 0.68517 0.0
H663 H 0.12613 0.92087 0.87487 0.0
H664 H 0.07082 0.91126 0.82903 0.0
H665 H 0.04578 0.92508 0.70103 0.0
H666 H 0.88703 0.90653 0.57167 0.0
H667 H 0.94396 0.90026 0.61436 0.0
H668 H 0.97535 0.88018 0.74365 0.0
C669 C 0.08814 0.91062 0.81763 0.0
C670 C 0.03081 0.91476 0.71036 0.0
C671 C 0.11982 0.91636 0.84388 0.0
C672 C 0.89611 0.90674 0.60409 0.0
C673 C 0.9288 0.90319 0.62862 0.0
C674 C 0.99045 0.89002 0.73396 0.0
C675 C 0.07863 0.90567 0.77676 0.0
C676 C 0.04403 0.90292 0.74801 0.0
C677 C 0.94181 0.90379 0.67089 0.0
C678 C 0.97713 0.9025 0.69683 0.0
H679 H 0.15133 0.91153 0.77852 0.0
H680 H 0.09562 0.90133 0.73216 0.0
H681 H 0.03288 0.88065 0.78779 0.0
H682 H 0.87275 0.91356 0.67723 0.0
H683 H 0.93005 0.90765 0.72036 0.0
C684 C 0.39984 0.61023 0.12193 0.0
C685 C 0.3798 0.60192 0.13776 0.0
C686 C 0.43254 0.6132 0.1468 0.0
C687 C 0.4957 0.61492 0.25438 0.0
H688 H 0.54964 0.59192 0.20836 0.0
C689 C 0.62556 0.58237 0.34977 0.0
C690 C 0.64831 0.58709 0.3363 0.0
C691 C 0.59368 0.58921 0.32664 0.0
C692 C 0.53502 0.59885 0.22152 0.0
H693 H 0.37804 0.59109 0.19233 0.0
H694 H 0.43546 0.59568 0.23603 0.0
H695 H 0.49217 0.5941 0.1664 0.0
H696 H 0.6558 0.6036 0.28881 0.0
H697 H 0.5996 0.61554 0.24773 0.0
H698 H 0.53877 0.61869 0.31002 0.0
C699 C 0.42586 0.60036 0.2044 0.0
C700 C 0.50193 0.60012 0.19742 0.0
C701 C 0.39294 0.59768 0.17944 0.0
C702 C 0.63874 0.59981 0.29988 0.0
C703 C 0.60659 0.60644 0.27633 0.0
C704 C 0.52883 0.61349 0.27858 0.0
C705 C 0.44624 0.60761 0.18819 0.0
C706 C 0.48171 0.60789 0.21357 0.0
C707 C 0.58358 0.60081 0.28916 0.0
C708 C 0.54886 0.60511 0.26257 0.0
H709 H 0.39021 0.61404 0.08999 0.0
H710 H 0.44717 0.61948 0.13332 0.0
H711 H 0.48105 0.6214 0.26778 0.0
H712 H 0.63237 0.57282 0.37796 0.0
H713 H 0.57666 0.5844 0.33734 0.0
C714 C 0.63705 0.39904 0.8768 0.0
C715 C 0.65879 0.40201 0.86114 0.0
C716 C 0.60447 0.39584 0.85111 0.0
C717 C 0.54387 0.41209 0.74952 0.0
H718 H 0.48926 0.36883 0.77205 0.0
C719 C 0.40837 0.41427 0.64812 0.0
C720 C 0.38879 0.41269 0.66704 0.0
C721 C 0.44077 0.40821 0.66898 0.0
C722 C 0.50406 0.38119 0.76545 0.0
H723 H 0.66348 0.40315 0.80622 0.0
H724 H 0.60635 0.39772 0.76104 0.0
H725 H 0.54714 0.36684 0.81378 0.0
H726 H 0.38719 0.40292 0.72202 0.0
H727 H 0.4442 0.39297 0.75942 0.0
H728 H 0.50124 0.42733 0.70264 0.0
C729 C 0.61462 0.39787 0.79334 0.0
C730 C 0.5373 0.37995 0.78931 0.0
C731 C 0.64735 0.40075 0.81916 0.0
C732 C 0.40184 0.4039 0.70674 0.0
C733 C 0.43453 0.39824 0.72803 0.0
C734 C 0.51073 0.41353 0.72602 0.0
C735 C 0.59271 0.39582 0.80901 0.0
C736 C 0.55759 0.39553 0.7818 0.0
C737 C 0.45469 0.401 0.70978 0.0
C738 C 0.49022 0.39823 0.73371 0.0
H739 H 0.64522 0.39975 0.90904 0.0
H740 H 0.58831 0.39449 0.86421 0.0
H741 H 0.55872 0.42467 0.74336 0.0
H742 H 0.39868 0.42103 0.61746 0.0
H743 H 0.45508 0.4099 0.65333 0.0
C744 C 0.23616 0.34137 0.50409 0.0
C745 C 0.25476 0.3536 0.54053 0.0
C746 C 0.24231 0.31698 0.49926 0.0
C747 C 0.27104 0.26989 0.48844 0.0
H748 H 0.28989 0.22367 0.57519 0.0
C749 C 0.29707 0.16886 0.47229 0.0
C750 C 0.28171 0.1517 0.48528 0.0
C751 C 0.29789 0.19349 0.48245 0.0
C752 C 0.28457 0.23634 0.55063 0.0
H753 H 0.29459 0.34975 0.60051 0.0
H754 H 0.30552 0.30714 0.59191 0.0
H755 H 0.28239 0.26673 0.58533 0.0
H756 H 0.25615 0.14691 0.52038 0.0
H757 H 0.25719 0.18982 0.53758 0.0
H758 H 0.27199 0.23947 0.4532 0.0
C759 C 0.28591 0.31639 0.56722 0.0
C760 C 0.28062 0.26107 0.5566 0.0
C761 C 0.27973 0.34085 0.57207 0.0
C762 C 0.26822 0.15961 0.50989 0.0
C763 C 0.26896 0.18425 0.51995 0.0
C764 C 0.27495 0.2452 0.48247 0.0
C765 C 0.26727 0.30417 0.53072 0.0
C766 C 0.2734 0.2781 0.52538 0.0
C767 C 0.2833 0.20157 0.50576 0.0
C768 C 0.28142 0.22805 0.51332 0.0
H769 H 0.21664 0.35058 0.47922 0.0
H770 H 0.22712 0.30803 0.471 0.0
H771 H 0.26595 0.28255 0.46394 0.0
H772 H 0.30791 0.16337 0.45353 0.0
H773 H 0.30964 0.20627 0.47161 0.0
C774 C 0.8307 0.3246 0.98409 0.0
C775 C 0.80802 0.33823 0.95154 0.0
C776 C 0.82452 0.30043 0.99008 0.0
C777 C 0.75693 0.25802 0.96376 0.0
H778 H 0.82395 0.20907 0.0076 0.0
C779 C 0.73147 0.15647 0.97701 0.0
C780 C 0.7511 0.14494 0.01392 0.0
C781 C 0.7389 0.17972 0.96865 0.0
C782 C 0.80506 0.22262 -0.00439 0.0
H783 H 0.76167 0.33684 0.89871 0.0
H784 H 0.75129 0.29452 0.90844 0.0
H785 H 0.83626 0.24991 0.99281 0.0
H786 H 0.79415 0.14866 0.07085 0.0
H787 H 0.80721 0.1893 0.05603 0.0
H788 H 0.72571 0.2306 0.96617 0.0
C789 C 0.77348 0.30267 0.93006 0.0
C790 C 0.81209 0.24603 0.98719 0.0
C791 C 0.77954 0.3269 0.92429 0.0
C792 C 0.77849 0.15709 0.04218 0.0
C793 C 0.78609 0.18027 0.03362 0.0
C794 C 0.74987 0.23458 0.97184 0.0
C795 C 0.79564 0.28926 0.96345 0.0
C796 C 0.78812 0.26407 0.97128 0.0
C797 C 0.76628 0.19186 -0.00317 0.0
C798 C 0.77387 0.21666 0.98798 0.0
H799 H 0.85284 0.33282 0.00577 0.0
H800 H 0.84199 0.2908 0.01638 0.0
H801 H 0.738 0.27154 0.95236 0.0
H802 H 0.7102 0.14761 0.9546 0.0
H803 H 0.72335 0.18812 0.9399 0.0
C804 C 0.7365 0.65796 0.46027 0.0
C805 C 0.75367 0.6488 0.44086 0.0
C806 C 0.73519 0.683 0.46622 0.0
C807 C 0.77672 0.74081 0.47028 0.0
H808 H 0.69835 0.77 0.46013 0.0
C809 C 0.76116 0.84482 0.47727 0.0
C810 C 0.74772 0.85295 0.50182 0.0
C811 C 0.76085 0.8201 0.46809 0.0
C812 C 0.72046 0.76206 0.46336 0.0
H813 H 0.78272 0.65881 0.41209 0.0
H814 H 0.77994 0.70261 0.4218 0.0
H815 H 0.69985 0.72657 0.44681 0.0
H816 H 0.72279 0.84149 0.53529 0.0
H817 H 0.72216 0.79826 0.51906 0.0
H818 H 0.7972 0.7764 0.48657 0.0
C819 C 0.76794 0.69038 0.43309 0.0
C820 C 0.72137 0.73717 0.45581 0.0
C821 C 0.7694 0.66527 0.42733 0.0
C822 C 0.73336 0.83584 0.51631 0.0
C823 C 0.73286 0.8111 0.50687 0.0
C824 C 0.77573 0.76573 0.47758 0.0
C825 C 0.75084 0.69955 0.45267 0.0
C826 C 0.74957 0.7262 0.45942 0.0
C827 C 0.74691 0.80295 0.48301 0.0
C828 C 0.74764 0.77659 0.47439 0.0
H829 H 0.72423 0.64579 0.47126 0.0
H830 H 0.72227 0.68935 0.48203 0.0
H831 H 0.79898 0.73292 0.47401 0.0
H832 H 0.7724 0.85751 0.46558 0.0
H833 H 0.7715 0.8144 0.44922 0.0
C834 C 0.24082 0.8597 0.98623 0.0
C835 C 0.2585 0.86704 0.96644 0.0
C836 C 0.24139 0.83537 -0.00207 0.0
C837 C 0.28711 0.77739 0.01489 0.0
H838 H 0.20747 0.74731 -0.00288 0.0
C839 C 0.27121 0.67351 0.00925 0.0
C840 C 0.25566 0.66322 0.02986 0.0
C841 C 0.27174 0.69874 0.00469 0.0
C842 C 0.22996 0.75553 0.00273 0.0
H843 H 0.29091 0.85455 0.94383 0.0
H844 H 0.29149 0.81224 0.96354 0.0
H845 H 0.20863 0.79083 0.9839 0.0
H846 H 0.22802 0.67143 0.06138 0.0
H847 H 0.22872 0.71574 0.05299 0.0
H848 H 0.30822 0.74195 0.03269 0.0
C849 C 0.2776 0.82529 0.97073 0.0
C850 C 0.23068 0.78049 -0.00476 0.0
C851 C 0.27713 0.84959 0.9592 0.0
C852 C 0.24021 0.67879 0.04535 0.0
C853 C 0.24052 0.70413 0.04045 0.0
C854 C 0.28633 0.75246 0.02211 0.0
C855 C 0.25958 0.81781 0.99001 0.0
C856 C 0.25919 0.79166 0.00068 0.0
C857 C 0.25659 0.71435 0.0204 0.0
C858 C 0.25767 0.74118 0.01555 0.0
H859 H 0.22629 0.87268 0.9924 0.0
H860 H 0.22758 0.83033 0.01321 0.0
H861 H 0.30963 0.78545 0.02028 0.0
H862 H 0.28336 0.66211 -0.00309 0.0
H863 H 0.28388 0.70603 0.98854 0.0
loop_
_geom_bond_atom_site_label_1
_geom_bond_atom_site_label_2
_geom_bond_distance
_geom_bond_site_symmetry_2
_ccdc_geom_bond_type
Co0 N4 2.148 . S
Co0 N10 2.128 . S
Co0 N20 2.194 . S
Co0 O25 2.351 . S
Co0 O26 2.155 . S
Co0 O27 2.096 . S
C1 N4 1.301 . S
C1 N5 1.328 . S
C1 H6 0.930 . S
C2 C3 1.333 . S
C2 N4 1.317 . S
C2 H7 0.930 . S
C3 C2 1.333 . S
C3 N5 1.350 . S
C3 H29 0.931 . S
N4 Co0 2.148 . S
N4 C1 1.301 . S
N4 C2 1.317 . S
N5 C1 1.328 . S
N5 C3 1.350 . S
H6 C1 0.930 . S
H7 C2 0.930 . S
C8 O9 1.224 . S
C8 O27 1.247 . S
O9 C8 1.224 . S
N10 Co0 2.128 . S
N10 C11 1.355 . S
N10 C13 1.311 . S
C11 N10 1.355 . S
C11 C12 1.363 . S
C11 H23 0.929 . S
C12 C11 1.363 . S
C12 N14 1.375 . S
C12 H30 0.931 . S
C13 N10 1.311 . S
C13 N14 1.347 . S
C13 H24 0.929 . S
N14 C12 1.375 . S
N14 C13 1.347 . S
C15 C18 1.365 . S
C15 N20 1.328 . S
C15 H21 0.929 . S
C16 C17 1.362 . S
C16 C19 1.378 . S
C16 H31 0.929 . S
C17 C16 1.362 . S
C17 C18 1.366 . S
C18 C15 1.365 . S
C18 C17 1.366 . S
C18 H32 0.930 . S
C19 C16 1.378 . S
C19 N20 1.315 . S
C19 H22 0.930 . S
N20 Co0 2.194 . S
N20 C15 1.328 . S
N20 C19 1.315 . S
H21 C15 0.929 . S
H22 C19 0.930 . S
H23 C11 0.929 . S
H24 C13 0.929 . S
O25 Co0 2.351 . S
O25 C28 1.244 . S
O26 Co0 2.155 . S
O26 C28 1.240 . S
O27 Co0 2.096 . S
O27 C8 1.247 . S
C28 O25 1.244 . S
C28 O26 1.240 . S
H29 C3 0.931 . S
H30 C12 0.931 . S
H31 C16 0.929 . S
H32 C18 0.930 . S
Co33 N37 2.148 . S
Co33 N43 2.128 . S
Co33 N53 2.194 . S
Co33 O58 2.351 . S
Co33 O59 2.155 . S
Co33 O60 2.096 . S
C34 N37 1.301 . S
C34 N38 1.328 . S
C34 H39 0.930 . S
C35 C36 1.333 . S
C35 N37 1.317 . S
C35 H40 0.930 . S
C36 C35 1.333 . S
C36 N38 1.350 . S
C36 H62 0.931 . S
N37 Co33 2.148 . S
N37 C34 1.301 . S
N37 C35 1.317 . S
N38 C34 1.328 . S
N38 C36 1.350 . S
H39 C34 0.930 . S
H40 C35 0.930 . S
C41 O42 1.224 . S
C41 O60 1.247 . S
O42 C41 1.224 . S
N43 Co33 2.128 . S
N43 C44 1.355 . S
N43 C46 1.311 . S
C44 N43 1.355 . S
C44 C45 1.363 . S
C44 H56 0.929 . S
C45 C44 1.363 . S
C45 N47 1.375 . S
C45 H63 0.931 . S
C46 N43 1.311 . S
C46 N47 1.347 . S
C46 H57 0.929 . S
N47 C45 1.375 . S
N47 C46 1.347 . S
C48 C51 1.365 1_554 S
C48 N53 1.328 . S
C48 H54 0.929 . S
C49 C50 1.362 . S
C49 C52 1.378 . S
C49 H64 0.929 . S
C50 C49 1.362 . S
C50 C51 1.366 . S
C51 C48 1.365 1_556 S
C51 C50 1.366 . S
C51 H65 0.930 . S
C52 C49 1.378 . S
C52 N53 1.315 1_556 S
C52 H55 0.930 . S
N53 Co33 2.194 . S
N53 C48 1.328 . S
N53 C52 1.315 1_554 S
H54 C48 0.929 . S
H55 C52 0.930 . S
H56 C44 0.929 . S
H57 C46 0.929 . S
O58 Co33 2.351 . S
O58 C61 1.244 . S
O59 Co33 2.155 . S
O59 C61 1.240 . S
O60 Co33 2.096 . S
O60 C41 1.247 . S
C61 O58 1.244 . S
C61 O59 1.240 . S
H62 C36 0.931 . S
H63 C45 0.931 . S
H64 C49 0.929 . S
H65 C51 0.930 . S
Co66 N70 2.148 . S
Co66 N76 2.128 . S
Co66 N86 2.194 . S
Co66 O91 2.351 . S
Co66 O92 2.155 . S
Co66 O93 2.096 . S
C67 N70 1.301 . S
C67 N71 1.328 . S
C67 H72 0.930 . S
C68 C69 1.333 . S
C68 N70 1.317 . S
C68 H73 0.930 . S
C69 C68 1.333 . S
C69 N71 1.350 . S
C69 H95 0.931 . S
N70 Co66 2.148 . S
N70 C67 1.301 . S
N70 C68 1.317 . S
N71 C67 1.328 . S
N71 C69 1.350 . S
H72 C67 0.930 . S
H73 C68 0.930 . S
C74 O75 1.224 . S
C74 O93 1.247 . S
O75 C74 1.224 . S
N76 Co66 2.128 . S
N76 C77 1.355 . S
N76 C79 1.311 . S
C77 N76 1.355 . S
C77 C78 1.363 . S
C77 H89 0.929 . S
C78 C77 1.363 . S
C78 N80 1.375 . S
C78 H96 0.931 . S
C79 N76 1.311 . S
C79 N80 1.347 . S
C79 H90 0.929 . S
N80 C78 1.375 . S
N80 C79 1.347 . S
C81 C84 1.365 . S
C81 N86 1.328 . S
C81 H87 0.929 . S
C82 C83 1.362 . S
C82 C85 1.378 . S
C82 H97 0.929 . S
C83 C82 1.362 . S
C83 C84 1.366 . S
C84 C81 1.365 . S
C84 C83 1.366 . S
C84 H98 0.930 . S
C85 C82 1.378 . S
C85 N86 1.315 . S
C85 H88 0.930 . S
N86 Co66 2.194 . S
N86 C81 1.328 . S
N86 C85 1.315 . S
H87 C81 0.929 . S
H88 C85 0.930 . S
H89 C77 0.929 . S
H90 C79 0.929 . S
O91 Co66 2.351 . S
O91 C94 1.244 . S
O92 Co66 2.155 . S
O92 C94 1.240 . S
O93 Co66 2.096 . S
O93 C74 1.247 . S
C94 O91 1.244 . S
C94 O92 1.240 . S
H95 C69 0.931 . S
H96 C78 0.931 . S
H97 C82 0.929 . S
H98 C84 0.930 . S
Co99 N103 2.148 . S
Co99 N109 2.128 . S
Co99 N119 2.194 . S
Co99 O124 2.351 . S
Co99 O125 2.155 . S
Co99 O126 2.096 . S
C100 N103 1.301 . S
C100 N104 1.328 . S
C100 H105 0.930 . S
C101 C102 1.333 . S
C101 N103 1.317 . S
C101 H106 0.930 . S
C102 C101 1.333 . S
C102 N104 1.350 . S
C102 H128 0.931 . S
N103 Co99 2.148 . S
N103 C100 1.301 . S
N103 C101 1.317 . S
N104 C100 1.328 . S
N104 C102 1.350 . S
H105 C100 0.930 . S
H106 C101 0.930 . S
C107 O108 1.224 . S
C107 O126 1.247 . S
O108 C107 1.224 . S
N109 Co99 2.128 . S
N109 C110 1.355 . S
N109 C112 1.311 . S
C110 N109 1.355 . S
C110 C111 1.363 . S
C110 H122 0.929 . S
C111 C110 1.363 . S
C111 N113 1.375 . S
C111 H129 0.931 . S
C112 N109 1.311 . S
C112 N113 1.347 . S
C112 H123 0.929 . S
N113 C111 1.375 . S
N113 C112 1.347 . S
C114 C117 1.365 1_556 S
C114 N119 1.328 . S
C114 H120 0.929 . S
C115 C116 1.362 . S
C115 C118 1.378 . S
C115 H130 0.929 . S
C116 C115 1.362 . S
C116 C117 1.366 . S
C117 C114 1.365 1_554 S
C117 C116 1.366 . S
C117 H131 0.930 . S
C118 C115 1.378 . S
C118 N119 1.315 1_554 S
C118 H121 0.930 . S
N119 Co99 2.194 . S
N119 C114 1.328 . S
N119 C118 1.315 1_556 S
H120 C114 0.929 . S
H121 C118 0.930 . S
H122 C110 0.929 . S
H123 C112 0.929 . S
O124 Co99 2.351 . S
O124 C127 1.244 . S
O125 Co99 2.155 . S
O125 C127 1.240 . S
O126 Co99 2.096 . S
O126 C107 1.247 . S
C127 O124 1.244 . S
C127 O125 1.240 . S
H128 C102 0.931 . S
H129 C111 0.931 . S
H130 C115 0.929 . S
H131 C117 0.930 . S
Co132 N136 2.148 . S
Co132 N142 2.128 . S
Co132 N152 2.194 . S
Co132 O157 2.351 . S
Co132 O158 2.155 . S
Co132 O159 2.096 . S
C133 N136 1.301 . S
C133 N137 1.328 . S
C133 H138 0.930 . S
C134 C135 1.333 . S
C134 N136 1.317 . S
C134 H139 0.930 . S
C135 C134 1.333 . S
C135 N137 1.350 . S
C135 H161 0.931 . S
N136 Co132 2.148 . S
N136 C133 1.301 . S
N136 C134 1.317 . S
N137 C133 1.328 . S
N137 C135 1.350 . S
H138 C133 0.930 . S
H139 C134 0.930 . S
C140 O141 1.224 . S
C140 O159 1.247 . S
O141 C140 1.224 . S
N142 Co132 2.128 . S
N142 C143 1.355 . S
N142 C145 1.311 . S
C143 N142 1.355 . S
C143 C144 1.363 . S
C143 H155 0.929 . S
C144 C143 1.363 . S
C144 N146 1.375 . S
C144 H162 0.931 . S
C145 N142 1.311 . S
C145 N146 1.347 . S
C145 H156 0.929 . S
N146 C144 1.375 . S
N146 C145 1.347 . S
C147 C150 1.365 . S
C147 N152 1.328 . S
C147 H153 0.929 . S
C148 C149 1.362 . S
C148 C151 1.378 . S
C148 H163 0.929 . S
C149 C148 1.362 . S
C149 C150 1.366 . S
C150 C147 1.365 . S
C150 C149 1.366 . S
C150 H164 0.930 . S
C151 C148 1.378 . S
C151 N152 1.315 . S
C151 H154 0.930 . S
N152 Co132 2.194 . S
N152 C147 1.328 . S
N152 C151 1.315 . S
H153 C147 0.929 . S
H154 C151 0.930 . S
H155 C143 0.929 . S
H156 C145 0.929 . S
O157 Co132 2.351 . S
O157 C160 1.244 . S
O158 Co132 2.155 . S
O158 C160 1.240 . S
O159 Co132 2.096 . S
O159 C140 1.247 . S
C160 O157 1.244 . S
C160 O158 1.240 . S
H161 C135 0.931 . S
H162 C144 0.931 . S
H163 C148 0.929 . S
H164 C150 0.930 . S
Co165 N169 2.148 . S
Co165 N175 2.128 . S
Co165 N185 2.194 . S
Co165 O190 2.351 . S
Co165 O191 2.155 . S
Co165 O192 2.096 . S
C166 N169 1.301 . S
C166 N170 1.328 . S
C166 H171 0.930 . S
C167 C168 1.333 . S
C167 N169 1.317 . S
C167 H172 0.930 . S
C168 C167 1.333 . S
C168 N170 1.350 . S
C168 H194 0.931 . S
N169 Co165 2.148 . S
N169 C166 1.301 . S
N169 C167 1.317 . S
N170 C166 1.328 . S
N170 C168 1.350 . S
H171 C166 0.930 . S
H172 C167 0.930 . S
C173 O174 1.224 . S
C173 O192 1.247 . S
O174 C173 1.224 . S
N175 Co165 2.128 . S
N175 C176 1.355 . S
N175 C178 1.311 . S
C176 N175 1.355 . S
C176 C177 1.363 . S
C176 H188 0.929 . S
C177 C176 1.363 . S
C177 N179 1.375 . S
C177 H195 0.931 . S
C178 N175 1.311 . S
C178 N179 1.347 . S
C178 H189 0.929 . S
N179 C177 1.375 . S
N179 C178 1.347 . S
C180 C183 1.365 1_554 S
C180 N185 1.328 . S
C180 H186 0.929 . S
C181 C182 1.362 . S
C181 C184 1.378 . S
C181 H196 0.929 . S
C182 C181 1.362 . S
C182 C183 1.366 . S
C183 C180 1.365 1_556 S
C183 C182 1.366 . S
C183 H197 0.930 . S
C184 C181 1.378 . S
C184 N185 1.315 1_556 S
C184 H187 0.930 . S
N185 Co165 2.194 . S
N185 C180 1.328 . S
N185 C184 1.315 1_554 S
H186 C180 0.929 . S
H187 C184 0.930 . S
H188 C176 0.929 . S
H189 C178 0.929 . S
O190 Co165 2.351 . S
O190 C193 1.244 . S
O191 Co165 2.155 . S
O191 C193 1.240 . S
O192 Co165 2.096 . S
O192 C173 1.247 . S
C193 O190 1.244 . S
C193 O191 1.240 . S
H194 C168 0.931 . S
H195 C177 0.931 . S
H196 C181 0.929 . S
H197 C183 0.930 . S
Co198 N202 2.148 . S
Co198 N208 2.128 . S
Co198 N218 2.194 . S
Co198 O223 2.351 . S
Co198 O224 2.155 . S
Co198 O225 2.096 . S
C199 N202 1.301 . S
C199 N203 1.328 . S
C199 H204 0.930 . S
C200 C201 1.333 . S
C200 N202 1.317 . S
C200 H205 0.930 . S
C201 C200 1.333 . S
C201 N203 1.350 . S
C201 H227 0.931 . S
N202 Co198 2.148 . S
N202 C199 1.301 . S
N202 C200 1.317 . S
N203 C199 1.328 . S
N203 C201 1.350 . S
H204 C199 0.930 . S
H205 C200 0.930 . S
C206 O207 1.224 . S
C206 O225 1.247 . S
O207 C206 1.224 . S
N208 Co198 2.128 . S
N208 C209 1.355 . S
N208 C211 1.311 . S
C209 N208 1.355 . S
C209 C210 1.363 . S
C209 H221 0.929 . S
C210 C209 1.363 . S
C210 N212 1.375 . S
C210 H228 0.931 . S
C211 N208 1.311 . S
C211 N212 1.347 . S
C211 H222 0.929 . S
N212 C210 1.375 . S
N212 C211 1.347 . S
C213 C216 1.365 . S
C213 N218 1.328 . S
C213 H219 0.929 . S
C214 C215 1.362 . S
C214 C217 1.378 . S
C214 H229 0.929 . S
C215 C214 1.362 . S
C215 C216 1.366 . S
C216 C213 1.365 . S
C216 C215 1.366 . S
C216 H230 0.930 . S
C217 C214 1.378 . S
C217 N218 1.315 . S
C217 H220 0.930 . S
N218 Co198 2.194 . S
N218 C213 1.328 . S
N218 C217 1.315 . S
H219 C213 0.929 . S
H220 C217 0.930 . S
H221 C209 0.929 . S
H222 C211 0.929 . S
O223 Co198 2.351 . S
O223 C226 1.244 . S
O224 Co198 2.155 . S
O224 C226 1.240 . S
O225 Co198 2.096 . S
O225 C206 1.247 . S
C226 O223 1.244 . S
C226 O224 1.240 . S
H227 C201 0.931 . S
H228 C210 0.931 . S
H229 C214 0.929 . S
H230 C216 0.930 . S
Co231 N235 2.148 . S
Co231 N241 2.128 . S
Co231 N251 2.194 . S
Co231 O256 2.351 . S
Co231 O257 2.155 . S
Co231 O258 2.096 . S
C232 N235 1.301 . S
C232 N236 1.328 . S
C232 H237 0.930 . S
C233 C234 1.333 . S
C233 N235 1.317 . S
C233 H238 0.930 . S
C234 C233 1.333 . S
C234 N236 1.350 . S
C234 H260 0.931 . S
N235 Co231 2.148 . S
N235 C232 1.301 . S
N235 C233 1.317 . S
N236 C232 1.328 . S
N236 C234 1.350 . S
H237 C232 0.930 . S
H238 C233 0.930 . S
C239 O240 1.224 . S
C239 O258 1.247 . S
O240 C239 1.224 . S
N241 Co231 2.128 . S
N241 C242 1.355 . S
N241 C244 1.311 . S
C242 N241 1.355 . S
C242 C243 1.363 . S
C242 H254 0.929 . S
C243 C242 1.363 . S
C243 N245 1.375 . S
C243 H261 0.931 . S
C244 N241 1.311 . S
C244 N245 1.347 . S
C244 H255 0.929 . S
N245 C243 1.375 . S
N245 C244 1.347 . S
C246 C249 1.365 1_556 S
C246 N251 1.328 . S
C246 H252 0.929 . S
C247 C248 1.362 . S
C247 C250 1.378 . S
C247 H262 0.929 . S
C248 C247 1.362 . S
C248 C249 1.366 . S
C249 C246 1.365 1_554 S
C249 C248 1.366 . S
C249 H263 0.930 . S
C250 C247 1.378 . S
C250 N251 1.315 1_554 S
C250 H253 0.930 . S
N251 Co231 2.194 . S
N251 C246 1.328 . S
N251 C250 1.315 1_556 S
H252 C246 0.929 . S
H253 C250 0.930 . S
H254 C242 0.929 . S
H255 C244 0.929 . S
O256 Co231 2.351 . S
O256 C259 1.244 . S
O257 Co231 2.155 . S
O257 C259 1.240 . S
O258 Co231 2.096 . S
O258 C239 1.247 . S
C259 O256 1.244 . S
C259 O257 1.240 . S
H260 C234 0.931 . S
H261 C243 0.931 . S
H262 C247 0.929 . S
H263 C249 0.930 . S
C264 C265 1.349 . S
C264 C266 1.327 1_565 S
C264 H289 0.938 1_565 S
C265 C264 1.349 . S
C265 C281 1.349 . S
C266 C264 1.327 1_545 S
C266 C285 1.429 1_545 S
C266 H290 0.950 . S
C267 C284 1.569 1_565 S
C267 C286 1.368 1_565 S
C267 H291 0.949 . S
H268 C272 0.949 . S
C269 C270 1.349 . S
C269 C271 1.327 . S
C269 H292 0.950 . S
C270 C269 1.349 . S
C270 C282 1.349 . S
C271 C269 1.327 . S
C271 C287 1.429 . S
C271 H293 0.950 . S
C272 H268 0.949 . S
C272 C280 1.574 . S
C272 C288 1.368 . S
H273 C281 0.950 . S
H274 C279 0.950 . S
H275 C280 0.949 . S
H276 C282 0.950 . S
H277 C283 0.950 . S
H278 C284 0.944 1_565 S
C279 H274 0.950 . S
C279 C281 1.327 . S
C279 C285 1.429 . S
C280 C272 1.574 . S
C280 H275 0.949 . S
C280 C286 1.368 . S
C281 C265 1.349 . S
C281 H273 0.950 . S
C281 C279 1.327 . S
C282 C270 1.349 . S
C282 H276 0.950 . S
C282 C283 1.327 . S
C283 H277 0.950 . S
C283 C282 1.327 . S
C283 C287 1.429 . S
C284 C267 1.569 1_545 S
C284 H278 0.944 1_545 S
C284 C288 1.379 . S
C285 C266 1.429 1_565 S
C285 C279 1.429 . S
C285 C286 1.523 1_565 S
C286 C267 1.368 1_545 S
C286 C280 1.368 . S
C286 C285 1.523 1_545 S
C287 C271 1.429 . S
C287 C283 1.429 . S
C287 C288 1.523 . S
C288 C272 1.368 . S
C288 C284 1.379 . S
C288 C287 1.523 . S
H289 C264 0.938 1_545 S
H290 C266 0.950 . S
H291 C267 0.949 . S
H292 C269 0.950 . S
H293 C271 0.950 . S
C294 C295 1.349 . S
C294 C296 1.327 . S
C294 H319 0.950 . S
C295 C294 1.349 . S
C295 C311 1.349 . S
C296 C294 1.327 . S
C296 C315 1.429 . S
C296 H320 0.950 . S
C297 C314 1.574 . S
C297 C316 1.368 1_565 S
C297 H321 0.949 . S
H298 C302 0.949 . S
C299 C300 1.349 . S
C299 C301 1.327 . S
C299 H322 0.950 . S
C300 C299 1.349 . S
C300 C312 1.349 . S
C301 C299 1.327 . S
C301 C317 1.429 . S
C301 H323 0.950 . S
C302 H298 0.949 . S
C302 C310 1.574 . S
C302 C318 1.368 . S
H303 C311 0.950 . S
H304 C309 0.950 1_565 S
H305 C310 0.949 . S
H306 C312 0.950 1_545 S
H307 C313 0.950 . S
H308 C314 0.949 . S
C309 H304 0.950 1_545 S
C309 C311 1.327 . S
C309 C315 1.429 . S
C310 C302 1.574 . S
C310 H305 0.949 . S
C310 C316 1.368 . S
C311 C295 1.349 . S
C311 H303 0.950 . S
C311 C309 1.327 . S
C312 C300 1.349 . S
C312 H306 0.950 1_565 S
C312 C313 1.327 1_565 S
C313 H307 0.950 . S
C313 C312 1.327 1_545 S
C313 C317 1.429 1_545 S
C314 C297 1.574 . S
C314 H308 0.949 . S
C314 C318 1.368 1_565 S
C315 C296 1.429 . S
C315 C309 1.429 . S
C315 C316 1.523 . S
C316 C297 1.368 1_545 S
C316 C310 1.368 . S
C316 C315 1.523 . S
C317 C301 1.429 . S
C317 C313 1.429 1_565 S
C317 C318 1.523 1_565 S
C318 C302 1.368 . S
C318 C314 1.368 1_545 S
C318 C317 1.523 1_545 S
H319 C294 0.950 . S
H320 C296 0.950 . S
H321 C297 0.949 . S
H322 C299 0.950 . S
H323 C301 0.950 . S
C324 C325 1.349 . S
C324 C326 1.327 . S
C324 H349 0.950 . S
C325 C324 1.349 . S
C325 C341 1.349 . S
C326 C324 1.327 . S
C326 C345 1.429 . S
C326 H350 0.950 1_565 S
C327 C344 1.574 . S
C327 C346 1.368 . S
C327 H351 0.949 . S
H328 C332 0.949 . S
C329 C330 1.349 . S
C329 C331 1.327 1_545 S
C329 H352 0.950 1_545 S
C330 C329 1.349 . S
C330 C342 1.349 . S
C331 C329 1.327 1_565 S
C331 C347 1.429 1_565 S
C331 H353 0.950 . S
C332 H328 0.949 . S
C332 C340 1.574 . S
C332 C348 1.368 1_545 S
H333 C341 0.950 . S
H334 C339 0.950 . S
H335 C340 0.949 . S
H336 C342 0.950 . S
H337 C343 0.950 . S
H338 C344 0.949 . S
C339 H334 0.950 . S
C339 C341 1.327 . S
C339 C345 1.429 . S
C340 C332 1.574 . S
C340 H335 0.949 . S
C340 C346 1.368 1_545 S
C341 C325 1.349 . S
C341 H333 0.950 . S
C341 C339 1.327 . S
C342 C330 1.349 . S
C342 H336 0.950 . S
C342 C343 1.327 . S
C343 H337 0.950 . S
C343 C342 1.327 . S
C343 C347 1.429 . S
C344 C327 1.574 . S
C344 H338 0.949 . S
C344 C348 1.368 . S
C345 C326 1.429 . S
C345 C339 1.429 . S
C345 C346 1.523 . S
C346 C327 1.368 . S
C346 C340 1.368 1_565 S
C346 C345 1.523 . S
C347 C331 1.429 1_545 S
C347 C343 1.429 . S
C347 C348 1.523 1_545 S
C348 C332 1.368 1_565 S
C348 C344 1.368 . S
C348 C347 1.523 1_565 S
H349 C324 0.950 . S
H350 C326 0.950 1_545 S
H351 C327 0.949 . S
H352 C329 0.950 1_565 S
H353 C331 0.950 . S
C354 C355 1.349 . S
C354 C356 1.327 . S
C354 H379 0.950 . S
C355 C354 1.349 . S
C355 C371 1.349 . S
C356 C354 1.327 . S
C356 C375 1.429 . S
C356 H380 0.950 1_565 S
C357 C374 1.574 . S
C357 C376 1.368 . S
C357 H381 0.949 . S
H358 C362 0.949 . S
C359 C360 1.383 . S
C359 C361 1.314 1_545 S
C359 H382 0.928 1_545 S
C360 C359 1.383 . S
C360 C372 1.349 . S
C361 C359 1.314 1_565 S
C361 C377 1.429 1_565 S
C361 H383 0.950 . S
C362 H358 0.949 . S
C362 C370 1.574 . S
C362 C378 1.368 1_545 S
H363 C371 0.950 . S
H364 C369 0.950 . S
H365 C370 0.949 . S
H366 C372 0.950 . S
H367 C373 0.950 . S
H368 C374 0.949 . S
C369 H364 0.950 . S
C369 C371 1.327 . S
C369 C375 1.429 . S
C370 C362 1.574 . S
C370 H365 0.949 . S
C370 C376 1.368 1_545 S
C371 C355 1.349 . S
C371 H363 0.950 . S
C371 C369 1.327 . S
C372 C360 1.349 . S
C372 H366 0.950 . S
C372 C373 1.327 . S
C373 H367 0.950 . S
C373 C372 1.327 . S
C373 C377 1.429 . S
C374 C357 1.574 . S
C374 H368 0.949 . S
C374 C378 1.368 . S
C375 C356 1.429 . S
C375 C369 1.429 . S
C375 C376 1.523 . S
C376 C357 1.368 . S
C376 C370 1.368 1_565 S
C376 C375 1.523 . S
C377 C361 1.429 1_545 S
C377 C373 1.429 . S
C377 C378 1.523 1_545 S
C378 C362 1.368 1_565 S
C378 C374 1.368 . S
C378 C377 1.523 1_565 S
H379 C354 0.950 . S
H380 C356 0.950 1_545 S
H381 C357 0.949 . S
H382 C359 0.928 1_565 S
H383 C361 0.950 . S
C384 C385 1.349 . S
C384 C386 1.327 . S
C384 H409 0.950 . S
C385 C384 1.349 . S
C385 C401 1.349 . S
C386 C384 1.327 . S
C386 C405 1.429 . S
C386 H410 0.950 . S
C387 C404 1.574 . S
C387 C406 1.368 . S
C387 H411 0.949 . S
H388 C392 0.949 . S
C389 C390 1.349 . S
C389 C391 1.327 . S
C389 H412 0.950 . S
C390 C389 1.349 . S
C390 C402 1.349 . S
C391 C389 1.327 . S
C391 C407 1.429 . S
C391 H413 0.950 . S
C392 H388 0.949 . S
C392 C400 1.574 . S
C392 C408 1.368 . S
H393 C401 0.950 . S
H394 C399 0.950 . S
H395 C400 0.949 . S
H396 C402 0.950 . S
H397 C403 0.950 . S
H398 C404 0.949 . S
C399 H394 0.950 . S
C399 C401 1.327 . S
C399 C405 1.429 . S
C400 C392 1.574 . S
C400 H395 0.949 . S
C400 C406 1.368 . S
C401 C385 1.349 . S
C401 H393 0.950 . S
C401 C399 1.327 . S
C402 C390 1.349 . S
C402 H396 0.950 . S
C402 C403 1.327 . S
C403 H397 0.950 . S
C403 C402 1.327 . S
C403 C407 1.429 . S
C404 C387 1.574 . S
C404 H398 0.949 . S
C404 C408 1.368 . S
C405 C386 1.429 . S
C405 C399 1.429 . S
C405 C406 1.523 . S
C406 C387 1.368 . S
C406 C400 1.368 . S
C406 C405 1.523 . S
C407 C391 1.429 . S
C407 C403 1.429 . S
C407 C408 1.523 . S
C408 C392 1.368 . S
C408 C404 1.368 . S
C408 C407 1.523 . S
H409 C384 0.950 . S
H410 C386 0.950 . S
H411 C387 0.949 . S
H412 C389 0.950 . S
H413 C391 0.950 . S
C414 C415 1.349 . S
C414 C416 1.327 . S
C414 H439 0.950 . S
C415 C414 1.349 . S
C415 C431 1.349 . S
C416 C414 1.327 . S
C416 C435 1.429 . S
C416 H440 0.950 . S
C417 C434 1.574 . S
C417 C436 1.368 . S
C417 H441 0.949 . S
H418 C422 0.949 . S
C419 C420 1.349 . S
C419 C421 1.327 . S
C419 H442 0.950 . S
C420 C419 1.349 . S
C420 C432 1.349 . S
C421 C419 1.327 . S
C421 C437 1.429 . S
C421 H443 0.950 . S
C422 H418 0.949 . S
C422 C430 1.574 . S
C422 C438 1.368 . S
H423 C431 0.950 . S
H424 C429 0.950 . S
H425 C430 0.949 . S
H426 C432 0.950 . S
H427 C433 0.950 . S
H428 C434 0.949 . S
C429 H424 0.950 . S
C429 C431 1.327 . S
C429 C435 1.429 . S
C430 C422 1.574 . S
C430 H425 0.949 . S
C430 C436 1.368 . S
C431 C415 1.349 . S
C431 H423 0.950 . S
C431 C429 1.327 . S
C432 C420 1.349 . S
C432 H426 0.950 . S
C432 C433 1.327 . S
C433 H427 0.950 . S
C433 C432 1.327 . S
C433 C437 1.429 . S
C434 C417 1.574 . S
C434 H428 0.949 . S
C434 C438 1.368 . S
C435 C416 1.429 . S
C435 C429 1.429 . S
C435 C436 1.523 . S
C436 C417 1.368 . S
C436 C430 1.368 . S
C436 C435 1.523 . S
C437 C421 1.429 . S
C437 C433 1.429 . S
C437 C438 1.523 . S
C438 C422 1.368 . S
C438 C434 1.368 . S
C438 C437 1.523 . S
H439 C414 0.950 . S
H440 C416 0.950 . S
H441 C417 0.949 . S
H442 C419 0.950 . S
H443 C421 0.950 . S
C444 C445 1.349 . S
C444 C446 1.327 . S
C444 H469 0.950 . S
C445 C444 1.349 . S
C445 C461 1.349 . S
C446 C444 1.327 . S
C446 C465 1.429 . S
C446 H470 0.950 . S
C447 C464 1.574 . S
C447 C466 1.368 . S
C447 H471 0.949 . S
H448 C452 0.949 . S
C449 C450 1.349 . S
C449 C451 1.327 . S
C449 H472 0.950 . S
C450 C449 1.349 . S
C450 C462 1.349 . S
C451 C449 1.327 . S
C451 C467 1.429 . S
C451 H473 0.950 . S
C452 H448 0.949 . S
C452 C460 1.574 . S
C452 C468 1.368 . S
H453 C461 0.950 . S
H454 C459 0.950 . S
H455 C460 0.949 . S
H456 C462 0.950 . S
H457 C463 0.950 . S
H458 C464 0.949 . S
C459 H454 0.950 . S
C459 C461 1.327 . S
C459 C465 1.429 . S
C460 C452 1.574 . S
C460 H455 0.949 . S
C460 C466 1.368 . S
C461 C445 1.349 . S
C461 H453 0.950 . S
C461 C459 1.327 . S
C462 C450 1.349 . S
C462 H456 0.950 . S
C462 C463 1.327 . S
C463 H457 0.950 . S
C463 C462 1.327 . S
C463 C467 1.429 . S
C464 C447 1.574 . S
C464 H458 0.949 . S
C464 C468 1.368 . S
C465 C446 1.429 . S
C465 C459 1.429 . S
C465 C466 1.523 . S
C466 C447 1.368 . S
C466 C460 1.368 . S
C466 C465 1.523 . S
C467 C451 1.429 . S
C467 C463 1.429 . S
C467 C468 1.523 . S
C468 C452 1.368 . S
C468 C464 1.368 . S
C468 C467 1.523 . S
H469 C444 0.950 . S
H470 C446 0.950 . S
H471 C447 0.949 . S
H472 C449 0.950 . S
H473 C451 0.950 . S
C474 C475 1.349 . S
C474 C476 1.327 . S
C474 H499 0.950 . S
C475 C474 1.349 . S
C475 C491 1.349 . S
C476 C474 1.327 . S
C476 C495 1.429 . S
C476 H500 0.950 . S
C477 C494 1.574 . S
C477 C496 1.368 . S
C477 H501 0.949 . S
H478 C482 0.949 . S
C479 C480 1.349 . S
C479 C481 1.327 . S
C479 H502 0.950 . S
C480 C479 1.349 . S
C480 C492 1.349 . S
C481 C479 1.327 . S
C481 C497 1.429 . S
C481 H503 0.950 . S
C482 H478 0.949 . S
C482 C490 1.574 . S
C482 C498 1.368 . S
H483 C491 0.950 . S
H484 C489 0.950 . S
H485 C490 0.949 . S
H486 C492 0.950 . S
H487 C493 0.950 . S
H488 C494 0.949 . S
C489 H484 0.950 . S
C489 C491 1.327 . S
C489 C495 1.429 . S
C490 C482 1.574 . S
C490 H485 0.949 . S
C490 C496 1.368 . S
C491 C475 1.349 . S
C491 H483 0.950 . S
C491 C489 1.327 . S
C492 C480 1.349 . S
C492 H486 0.950 . S
C492 C493 1.327 . S
C493 H487 0.950 . S
C493 C492 1.327 . S
C493 C497 1.429 . S
C494 C477 1.574 . S
C494 H488 0.949 . S
C494 C498 1.368 . S
C495 C476 1.429 . S
C495 C489 1.429 . S
C495 C496 1.523 . S
C496 C477 1.368 . S
C496 C490 1.368 . S
C496 C495 1.523 . S
C497 C481 1.429 . S
C497 C493 1.429 . S
C497 C498 1.523 . S
C498 C482 1.368 . S
C498 C494 1.368 . S
C498 C497 1.523 . S
H499 C474 0.950 . S
H500 C476 0.950 . S
H501 C477 0.949 . S
H502 C479 0.950 . S
H503 C481 0.950 . S
C504 C505 1.349 . S
C504 C506 1.327 . S
C504 H529 0.950 . S
C505 C504 1.349 . S
C505 C521 1.349 . S
C506 C504 1.327 . S
C506 C525 1.429 . S
C506 H530 0.950 . S
C507 C524 1.574 1_565 S
C507 C526 1.368 . S
C507 H531 0.949 . S
H508 C512 0.949 . S
C509 C510 1.349 . S
C509 C511 1.327 . S
C509 H532 0.950 . S
C510 C509 1.349 . S
C510 C522 1.349 . S
C511 C509 1.327 . S
C511 C527 1.429 . S
C511 H533 0.950 . S
C512 H508 0.949 . S
C512 C520 1.574 1_545 S
C512 C528 1.368 . S
H513 C521 0.950 . S
H514 C519 0.950 . S
H515 C520 0.949 . S
H516 C522 0.950 . S
H517 C523 0.950 . S
H518 C524 0.949 . S
C519 H514 0.950 . S
C519 C521 1.327 . S
C519 C525 1.429 . S
C520 C512 1.574 1_565 S
C520 H515 0.949 . S
C520 C526 1.368 . S
C521 C505 1.349 . S
C521 H513 0.950 . S
C521 C519 1.327 . S
C522 C510 1.349 . S
C522 H516 0.950 . S
C522 C523 1.327 . S
C523 H517 0.950 . S
C523 C522 1.327 . S
C523 C527 1.429 . S
C524 C507 1.574 1_545 S
C524 H518 0.949 . S
C524 C528 1.368 . S
C525 C506 1.429 . S
C525 C519 1.429 . S
C525 C526 1.523 . S
C526 C507 1.368 . S
C526 C520 1.368 . S
C526 C525 1.523 . S
C527 C511 1.429 . S
C527 C523 1.429 . S
C527 C528 1.523 . S
C528 C512 1.368 . S
C528 C524 1.368 . S
C528 C527 1.523 . S
H529 C504 0.950 . S
H530 C506 0.950 . S
H531 C507 0.949 . S
H532 C509 0.950 . S
H533 C511 0.950 . S
C534 C535 1.350 1_554 S
C534 C536 1.325 . S
C534 H559 0.951 . S
C535 C534 1.350 1_556 S
C535 C551 1.349 . S
C536 C534 1.325 . S
C536 C555 1.429 1_554 S
C536 H560 0.950 . S
C537 C554 1.574 . S
C537 C556 1.368 1_545 S
C537 H561 0.949 . S
H538 C542 0.949 . S
C539 C540 1.350 1_556 S
C539 C541 1.325 . S
C539 H562 0.951 . S
C540 C539 1.350 1_554 S
C540 C552 1.349 . S
C541 C539 1.325 . S
C541 C557 1.429 1_556 S
C541 H563 0.950 . S
C542 H538 0.949 . S
C542 C550 1.574 . S
C542 C558 1.368 1_565 S
H543 C551 0.950 . S
H544 C549 0.908 1_545 S
H545 C550 0.949 . S
H546 C552 0.950 . S
H547 C553 0.908 1_565 S
H548 C554 0.949 . S
C549 H544 0.908 1_565 S
C549 C551 1.327 . S
C549 C555 1.429 . S
C550 C542 1.574 . S
C550 H545 0.949 . S
C550 C556 1.368 1_554 S
C551 C535 1.349 . S
C551 H543 0.950 . S
C551 C549 1.327 . S
C552 C540 1.349 . S
C552 H546 0.950 . S
C552 C553 1.327 . S
C553 H547 0.908 1_545 S
C553 C552 1.327 . S
C553 C557 1.429 . S
C554 C537 1.574 . S
C554 H548 0.949 . S
C554 C558 1.368 1_556 S
C555 C536 1.429 1_556 S
C555 C549 1.429 . S
C555 C556 1.523 . S
C556 C537 1.368 1_565 S
C556 C550 1.368 1_556 S
C556 C555 1.523 . S
C557 C541 1.429 1_554 S
C557 C553 1.429 . S
C557 C558 1.523 . S
C558 C542 1.368 1_545 S
C558 C554 1.368 1_554 S
C558 C557 1.523 . S
H559 C534 0.951 . S
H560 C536 0.950 . S
H561 C537 0.949 . S
H562 C539 0.951 . S
H563 C541 0.950 . S
C564 C565 1.349 . S
C564 C566 1.327 . S
C564 H589 0.950 . S
C565 C564 1.349 . S
C565 C581 1.349 . S
C566 C564 1.327 . S
C566 C585 1.429 . S
C566 H590 0.950 . S
C567 C584 1.574 1_655 S
C567 C586 1.368 . S
C567 H591 0.949 . S
H568 C572 0.949 . S
C569 C570 1.349 . S
C569 C571 1.327 . S
C569 H592 0.950 . S
C570 C569 1.349 . S
C570 C582 1.349 . S
C571 C569 1.327 . S
C571 C587 1.429 . S
C571 H593 0.950 . S
C572 H568 0.949 . S
C572 C580 1.574 1_455 S
C572 C588 1.368 . S
H573 C581 0.950 . S
H574 C579 0.950 . S
H575 C580 0.949 . S
H576 C582 0.950 . S
H577 C583 0.950 . S
H578 C584 0.949 . S
C579 H574 0.950 . S
C579 C581 1.327 . S
C579 C585 1.429 . S
C580 C572 1.574 1_655 S
C580 H575 0.949 . S
C580 C586 1.368 . S
C581 C565 1.349 . S
C581 H573 0.950 . S
C581 C579 1.327 . S
C582 C570 1.349 . S
C582 H576 0.950 . S
C582 C583 1.327 . S
C583 H577 0.950 . S
C583 C582 1.327 . S
C583 C587 1.429 . S
C584 C567 1.574 1_455 S
C584 H578 0.949 . S
C584 C588 1.368 . S
C585 C566 1.429 . S
C585 C579 1.429 . S
C585 C586 1.523 . S
C586 C567 1.368 . S
C586 C580 1.368 . S
C586 C585 1.523 . S
C587 C571 1.429 . S
C587 C583 1.429 . S
C587 C588 1.523 . S
C588 C572 1.368 . S
C588 C584 1.368 . S
C588 C587 1.523 . S
H589 C564 0.950 . S
H590 C566 0.950 . S
H591 C567 0.949 . S
H592 C569 0.950 . S
H593 C571 0.950 . S
C594 C595 1.349 . S
C594 C596 1.327 . S
C594 H619 0.950 . S
C595 C594 1.349 . S
C595 C611 1.349 1_554 S
C596 C594 1.327 . S
C596 C615 1.429 . S
C596 H620 0.950 . S
C597 C614 1.574 1_455 S
C597 C616 1.368 1_556 S
C597 H621 0.949 . S
H598 C602 0.949 . S
C599 C600 1.349 . S
C599 C601 1.327 . S
C599 H622 0.950 . S
C600 C599 1.349 . S
C600 C612 1.349 1_556 S
C601 C599 1.327 . S
C601 C617 1.429 . S
C601 H623 0.950 . S
C602 H598 0.949 . S
C602 C610 1.574 1_655 S
C602 C618 1.368 1_554 S
H603 C611 0.950 . S
H604 C609 0.950 . S
H605 C610 0.949 . S
H606 C612 0.950 . S
H607 C613 0.950 . S
H608 C614 0.949 . S
C609 H604 0.950 . S
C609 C611 1.327 . S
C609 C615 1.429 1_556 S
C610 C602 1.574 1_455 S
C610 H605 0.949 . S
C610 C616 1.368 . S
C611 C595 1.349 1_556 S
C611 H603 0.950 . S
C611 C609 1.327 . S
C612 C600 1.349 1_554 S
C612 H606 0.950 . S
C612 C613 1.327 . S
C613 H607 0.950 . S
C613 C612 1.327 . S
C613 C617 1.429 1_554 S
C614 C597 1.574 1_655 S
C614 H608 0.949 . S
C614 C618 1.368 . S
C615 C596 1.429 . S
C615 C609 1.429 1_554 S
C615 C616 1.523 . S
C616 C597 1.368 1_554 S
C616 C610 1.368 . S
C616 C615 1.523 . S
C617 C601 1.429 . S
C617 C613 1.429 1_556 S
C617 C618 1.523 . S
C618 C602 1.368 1_556 S
C618 C614 1.368 . S
C618 C617 1.523 . S
H619 C594 0.950 . S
H620 C596 0.950 . S
H621 C597 0.949 . S
H622 C599 0.950 . S
H623 C601 0.950 . S
C624 C625 1.349 . S
C624 C626 1.327 . S
C624 H649 0.950 . S
C625 C624 1.349 . S
C625 C641 1.349 . S
C626 C624 1.327 . S
C626 C645 1.429 . S
C626 H650 0.950 . S
C627 C644 1.574 1_455 S
C627 C646 1.368 . S
C627 H651 0.949 . S
H628 C632 0.949 . S
C629 C630 1.349 . S
C629 C631 1.327 . S
C629 H652 0.950 . S
C630 C629 1.349 . S
C630 C642 1.349 . S
C631 C629 1.327 . S
C631 C647 1.429 . S
C631 H653 0.950 . S
C632 H628 0.949 . S
C632 C640 1.574 1_655 S
C632 C648 1.368 . S
H633 C641 0.950 . S
H634 C639 0.950 . S
H635 C640 0.949 . S
H636 C642 0.950 . S
H637 C643 0.950 . S
H638 C644 0.949 . S
C639 H634 0.950 . S
C639 C641 1.327 . S
C639 C645 1.429 . S
C640 C632 1.574 1_455 S
C640 H635 0.949 . S
C640 C646 1.368 . S
C641 C625 1.349 . S
C641 H633 0.950 . S
C641 C639 1.327 . S
C642 C630 1.349 . S
C642 H636 0.950 . S
C642 C643 1.327 . S
C643 H637 0.950 . S
C643 C642 1.327 . S
C643 C647 1.429 . S
C644 C627 1.574 1_655 S
C644 H638 0.949 . S
C644 C648 1.368 . S
C645 C626 1.429 . S
C645 C639 1.429 . S
C645 C646 1.523 . S
C646 C627 1.368 . S
C646 C640 1.368 . S
C646 C645 1.523 . S
C647 C631 1.429 . S
C647 C643 1.429 . S
C647 C648 1.523 . S
C648 C632 1.368 . S
C648 C644 1.368 . S
C648 C647 1.523 . S
H649 C624 0.950 . S
H650 C626 0.950 . S
H651 C627 0.949 . S
H652 C629 0.950 . S
H653 C631 0.950 . S
C654 C655 1.349 . S
C654 C656 1.327 . S
C654 H679 0.950 . S
C655 C654 1.349 . S
C655 C671 1.349 . S
C656 C654 1.327 . S
C656 C675 1.429 . S
C656 H680 0.950 . S
C657 C674 1.574 1_455 S
C657 C676 1.368 . S
C657 H681 0.949 . S
H658 C662 0.949 . S
C659 C660 1.349 . S
C659 C661 1.327 . S
C659 H682 0.950 . S
C660 C659 1.349 . S
C660 C672 1.349 . S
C661 C659 1.327 . S
C661 C677 1.429 . S
C661 H683 0.950 . S
C662 H658 0.949 . S
C662 C670 1.574 1_655 S
C662 C678 1.368 . S
H663 C671 0.950 . S
H664 C669 0.950 . S
H665 C670 0.949 . S
H666 C672 0.950 . S
H667 C673 0.950 . S
H668 C674 0.949 . S
C669 H664 0.950 . S
C669 C671 1.327 . S
C669 C675 1.429 . S
C670 C662 1.574 1_455 S
C670 H665 0.949 . S
C670 C676 1.368 . S
C671 C655 1.349 . S
C671 H663 0.950 . S
C671 C669 1.327 . S
C672 C660 1.349 . S
C672 H666 0.950 . S
C672 C673 1.327 . S
C673 H667 0.950 . S
C673 C672 1.327 . S
C673 C677 1.429 . S
C674 C657 1.574 1_655 S
C674 H668 0.949 . S
C674 C678 1.368 . S
C675 C656 1.429 . S
C675 C669 1.429 . S
C675 C676 1.523 . S
C676 C657 1.368 . S
C676 C670 1.368 . S
C676 C675 1.523 . S
C677 C661 1.429 . S
C677 C673 1.429 . S
C677 C678 1.523 . S
C678 C662 1.368 . S
C678 C674 1.368 . S
C678 C677 1.523 . S
H679 C654 0.950 . S
H680 C656 0.950 . S
H681 C657 0.949 . S
H682 C659 0.950 . S
H683 C661 0.950 . S
C684 C685 1.349 . S
C684 C686 1.327 . S
C684 H709 0.950 . S
C685 C684 1.349 . S
C685 C701 1.349 . S
C686 C684 1.327 . S
C686 C705 1.429 . S
C686 H710 0.950 . S
C687 C704 1.574 . S
C687 C706 1.368 . S
C687 H711 0.949 . S
H688 C692 0.949 . S
C689 C690 1.349 . S
C689 C691 1.327 . S
C689 H712 0.950 . S
C690 C689 1.349 . S
C690 C702 1.349 . S
C691 C689 1.327 . S
C691 C707 1.429 . S
C691 H713 0.950 . S
C692 H688 0.949 . S
C692 C700 1.574 . S
C692 C708 1.368 . S
H693 C701 0.950 . S
H694 C699 0.950 . S
H695 C700 0.949 . S
H696 C702 0.950 . S
H697 C703 0.950 . S
H698 C704 0.949 . S
C699 H694 0.950 . S
C699 C701 1.327 . S
C699 C705 1.429 . S
C700 C692 1.574 . S
C700 H695 0.949 . S
C700 C706 1.368 . S
C701 C685 1.349 . S
C701 H693 0.950 . S
C701 C699 1.327 . S
C702 C690 1.349 . S
C702 H696 0.950 . S
C702 C703 1.327 . S
C703 H697 0.950 . S
C703 C702 1.327 . S
C703 C707 1.429 . S
C704 C687 1.574 . S
C704 H698 0.949 . S
C704 C708 1.368 . S
C705 C686 1.429 . S
C705 C699 1.429 . S
C705 C706 1.523 . S
C706 C687 1.368 . S
C706 C700 1.368 . S
C706 C705 1.523 . S
C707 C691 1.429 . S
C707 C703 1.429 . S
C707 C708 1.523 . S
C708 C692 1.368 . S
C708 C704 1.368 . S
C708 C707 1.523 . S
H709 C684 0.950 . S
H710 C686 0.950 . S
H711 C687 0.949 . S
H712 C689 0.950 . S
H713 C691 0.950 . S
C714 C715 1.349 . S
C714 C716 1.327 . S
C714 H739 0.950 . S
C715 C714 1.349 . S
C715 C731 1.349 . S
C716 C714 1.327 . S
C716 C735 1.429 . S
C716 H740 0.950 . S
C717 C734 1.574 . S
C717 C736 1.368 . S
C717 H741 0.949 . S
H718 C722 0.949 . S
C719 C720 1.349 . S
C719 C721 1.327 . S
C719 H742 0.950 . S
C720 C719 1.349 . S
C720 C732 1.349 . S
C721 C719 1.327 . S
C721 C737 1.429 . S
C721 H743 0.950 . S
C722 H718 0.949 . S
C722 C730 1.574 . S
C722 C738 1.368 . S
H723 C731 0.950 . S
H724 C729 0.950 . S
H725 C730 0.949 . S
H726 C732 0.950 . S
H727 C733 0.950 . S
H728 C734 0.949 . S
C729 H724 0.950 . S
C729 C731 1.327 . S
C729 C735 1.429 . S
C730 C722 1.574 . S
C730 H725 0.949 . S
C730 C736 1.368 . S
C731 C715 1.349 . S
C731 H723 0.950 . S
C731 C729 1.327 . S
C732 C720 1.349 . S
C732 H726 0.950 . S
C732 C733 1.327 . S
C733 H727 0.950 . S
C733 C732 1.327 . S
C733 C737 1.429 . S
C734 C717 1.574 . S
C734 H728 0.949 . S
C734 C738 1.368 . S
C735 C716 1.429 . S
C735 C729 1.429 . S
C735 C736 1.523 . S
C736 C717 1.368 . S
C736 C730 1.368 . S
C736 C735 1.523 . S
C737 C721 1.429 . S
C737 C733 1.429 . S
C737 C738 1.523 . S
C738 C722 1.368 . S
C738 C734 1.368 . S
C738 C737 1.523 . S
H739 C714 0.950 . S
H740 C716 0.950 . S
H741 C717 0.949 . S
H742 C719 0.950 . S
H743 C721 0.950 . S
C744 C745 1.349 . S
C744 C746 1.327 . S
C744 H769 0.950 . S
C745 C744 1.349 . S
C745 C761 1.349 . S
C746 C744 1.327 . S
C746 C765 1.429 . S
C746 H770 0.950 . S
C747 C764 1.574 . S
C747 C766 1.368 . S
C747 H771 0.949 . S
H748 C752 0.949 . S
C749 C750 1.349 . S
C749 C751 1.327 . S
C749 H772 0.950 . S
C750 C749 1.349 . S
C750 C762 1.349 . S
C751 C749 1.327 . S
C751 C767 1.429 . S
C751 H773 0.950 . S
C752 H748 0.949 . S
C752 C760 1.574 . S
C752 C768 1.368 . S
H753 C761 0.950 . S
H754 C759 0.950 . S
H755 C760 0.949 . S
H756 C762 0.950 . S
H757 C763 0.950 . S
H758 C764 0.949 . S
C759 H754 0.950 . S
C759 C761 1.327 . S
C759 C765 1.429 . S
C760 C752 1.574 . S
C760 H755 0.949 . S
C760 C766 1.368 . S
C761 C745 1.349 . S
C761 H753 0.950 . S
C761 C759 1.327 . S
C762 C750 1.349 . S
C762 H756 0.950 . S
C762 C763 1.327 . S
C763 H757 0.950 . S
C763 C762 1.327 . S
C763 C767 1.429 . S
C764 C747 1.574 . S
C764 H758 0.949 . S
C764 C768 1.368 . S
C765 C746 1.429 . S
C765 C759 1.429 . S
C765 C766 1.523 . S
C766 C747 1.368 . S
C766 C760 1.368 . S
C766 C765 1.523 . S
C767 C751 1.429 . S
C767 C763 1.429 . S
C767 C768 1.523 . S
C768 C752 1.368 . S
C768 C764 1.368 . S
C768 C767 1.523 . S
H769 C744 0.950 . S
H770 C746 0.950 . S
H771 C747 0.949 . S
H772 C749 0.950 . S
H773 C751 0.950 . S
C774 C775 1.349 . S
C774 C776 1.327 . S
C774 H799 0.950 . S
C775 C774 1.349 . S
C775 C791 1.349 . S
C776 C774 1.327 . S
C776 C795 1.429 . S
C776 H800 0.950 . S
C777 C794 1.574 1_556 S
C777 C796 1.368 . S
C777 H801 0.949 . S
H778 C782 0.949 . S
C779 C780 1.349 . S
C779 C781 1.327 . S
C779 H802 0.950 . S
C780 C779 1.349 . S
C780 C792 1.349 . S
C781 C779 1.327 . S
C781 C797 1.429 . S
C781 H803 0.950 . S
C782 H778 0.949 . S
C782 C790 1.574 1_554 S
C782 C798 1.368 . S
H783 C791 0.950 . S
H784 C789 0.950 . S
H785 C790 0.949 . S
H786 C792 0.950 . S
H787 C793 0.950 . S
H788 C794 0.949 . S
C789 H784 0.950 . S
C789 C791 1.327 . S
C789 C795 1.429 . S
C790 C782 1.574 1_556 S
C790 H785 0.949 . S
C790 C796 1.368 . S
C791 C775 1.349 . S
C791 H783 0.950 . S
C791 C789 1.327 . S
C792 C780 1.349 . S
C792 H786 0.950 . S
C792 C793 1.327 . S
C793 H787 0.950 . S
C793 C792 1.327 . S
C793 C797 1.429 . S
C794 C777 1.574 1_554 S
C794 H788 0.949 . S
C794 C798 1.368 . S
C795 C776 1.429 . S
C795 C789 1.429 . S
C795 C796 1.523 . S
C796 C777 1.368 . S
C796 C790 1.368 . S
C796 C795 1.523 . S
C797 C781 1.429 . S
C797 C793 1.429 . S
C797 C798 1.523 . S
C798 C782 1.368 . S
C798 C794 1.368 . S
C798 C797 1.523 . S
H799 C774 0.950 . S
H800 C776 0.950 . S
H801 C777 0.949 . S
H802 C779 0.950 . S
H803 C781 0.950 . S
C804 C805 1.349 . S
C804 C806 1.327 . S
C804 H829 0.950 . S
C805 C804 1.349 . S
C805 C821 1.349 . S
C806 C804 1.327 . S
C806 C825 1.429 . S
C806 H830 0.950 . S
C807 C824 1.574 . S
C807 C826 1.368 . S
C807 H831 0.949 . S
H808 C812 0.949 . S
C809 C810 1.349 . S
C809 C811 1.327 . S
C809 H832 0.950 . S
C810 C809 1.349 . S
C810 C822 1.349 . S
C811 C809 1.327 . S
C811 C827 1.429 . S
C811 H833 0.950 . S
C812 H808 0.949 . S
C812 C820 1.574 . S
C812 C828 1.368 . S
H813 C821 0.950 . S
H814 C819 0.950 . S
H815 C820 0.949 . S
H816 C822 0.950 . S
H817 C823 0.950 . S
H818 C824 0.949 . S
C819 H814 0.950 . S
C819 C821 1.327 . S
C819 C825 1.429 . S
C820 C812 1.574 . S
C820 H815 0.949 . S
C820 C826 1.368 . S
C821 C805 1.349 . S
C821 H813 0.950 . S
C821 C819 1.327 . S
C822 C810 1.349 . S
C822 H816 0.950 . S
C822 C823 1.327 . S
C823 H817 0.950 . S
C823 C822 1.327 . S
C823 C827 1.429 . S
C824 C807 1.574 . S
C824 H818 0.949 . S
C824 C828 1.368 . S
C825 C806 1.429 . S
C825 C819 1.429 . S
C825 C826 1.523 . S
C826 C807 1.368 . S
C826 C820 1.368 . S
C826 C825 1.523 . S
C827 C811 1.429 . S
C827 C823 1.429 . S
C827 C828 1.523 . S
C828 C812 1.368 . S
C828 C824 1.368 . S
C828 C827 1.523 . S
H829 C804 0.950 . S
H830 C806 0.950 . S
H831 C807 0.949 . S
H832 C809 0.950 . S
H833 C811 0.950 . S
C834 C835 1.349 . S
C834 C836 1.327 . S
C834 H859 0.950 . S
C835 C834 1.349 . S
C835 C851 1.349 . S
C836 C834 1.327 . S
C836 C855 1.429 . S
C836 H860 0.950 . S
C837 C854 1.574 . S
C837 C856 1.368 1_554 S
C837 H861 0.949 . S
H838 C842 0.949 . S
C839 C840 1.349 . S
C839 C841 1.327 . S
C839 H862 0.950 . S
C840 C839 1.349 . S
C840 C852 1.349 . S
C841 C839 1.327 . S
C841 C857 1.429 . S
C841 H863 0.950 . S
C842 H838 0.949 . S
C842 C850 1.574 . S
C842 C858 1.368 1_556 S
H843 C851 0.950 1_554 S
H844 C849 0.950 . S
H845 C850 0.949 . S
H846 C852 0.950 1_556 S
H847 C853 0.950 . S
H848 C854 0.949 . S
C849 H844 0.950 . S
C849 C851 1.327 1_554 S
C849 C855 1.429 1_554 S
C850 C842 1.574 . S
C850 H845 0.949 . S
C850 C856 1.368 . S
C851 C835 1.349 . S
C851 H843 0.950 1_556 S
C851 C849 1.327 1_556 S
C852 C840 1.349 . S
C852 H846 0.950 1_554 S
C852 C853 1.327 1_554 S
C853 H847 0.950 . S
C853 C852 1.327 1_556 S
C853 C857 1.429 1_556 S
C854 C837 1.574 . S
C854 H848 0.949 . S
C854 C858 1.368 . S
C855 C836 1.429 . S
C855 C849 1.429 1_556 S
C855 C856 1.523 . S
C856 C837 1.368 1_556 S
C856 C850 1.368 . S
C856 C855 1.523 . S
C857 C841 1.429 . S
C857 C853 1.429 1_554 S
C857 C858 1.523 . S
C858 C842 1.368 1_554 S
C858 C854 1.368 . S
C858 C857 1.523 . S
H859 C834 0.950 . S
H860 C836 0.950 . S
H861 C837 0.949 . S
H862 C839 0.950 . S
H863 C841 0.950 . S
C265 C116 0.792 . S
C270 C28 0.792 . S
C295 C61 0.792 . S
C300 C83 0.792 . S
C325 C94 0.792 . S
C330 C50 0.792 . S
C355 C127 0.792 . S
C360 C17 0.792 . S
C385 C160 0.792 . S
C390 C248 0.792 . S
C415 C193 0.792 . S
C420 C215 0.792 . S
C445 C182 0.792 . S
C450 C226 0.792 . S
C475 C259 0.792 . S
C480 C149 0.792 . S
C505 N71 2.047 . S
C510 N5 2.047 . S
C535 N104 2.047 . S
C540 N38 2.047 . S
C565 N137 2.047 . S
C570 N203 2.047 . S
C595 N170 2.047 . S
C600 N236 2.047 . S
C625 N14 1.801 . S
C630 N47 1.801 . S
C655 N113 1.801 . S
C660 N80 1.801 . S
C685 N179 1.801 . S
C690 N146 1.801 . S
C715 N245 1.801 . S
C720 N212 1.801 . S
C745 C206 1.488 . S
C750 C8 1.488 . S
C775 C239 1.488 . S
C780 C41 1.488 . S
C805 C140 1.488 . S
C810 C74 1.488 . S
C835 C107 1.488 . S
C840 C173 1.488 . S
