# Generated by pormake.
# Topology kag, (6)-cn, num edge types: 1
# Building blocks:
#     Node 0, Type 0, BuildingBlock: KUMBOL_clean_sbu_1, # of connection points: 6
#     Node 1, Type 0, BuildingBlock: KUMBOL_clean_sbu_1, # of connection points: 6
#     Node 2, Type 0, BuildingBlock: KUMBOL_clean_sbu_1, # of connection points: 6
#     Edge 3, Type (0, 0), BuildingBlock: EZIPEK_clean_linker_0, # of connection points: 2
#     Edge 4, Type (0, 0), BuildingBlock: EZIPEK_clean_linker_0, # of connection points: 2
#     Edge 5, Type (0, 0), BuildingBlock: EZIPEK_clean_linker_0, # of connection points: 2
#     Edge 6, Type (0, 0), BuildingBlock: EZIPEK_clean_linker_0, # of connection points: 2
#     Edge 7, Type (0, 0), BuildingBlock: EZIPEK_clean_linker_0, # of connection points: 2
#     Edge 8, Type (0, 0), BuildingBlock: EZIPEK_clean_linker_0, # of connection points: 2
#     Edge 9, Type (0, 0), BuildingBlock: EZIPEK_clean_linker_0, # of connection points: 2
#     Edge 10, Type (0, 0), BuildingBlock: EZIPEK_clean_linker_0, # of connection points: 2
#     Edge 11, Type (0, 0), BuildingBlock: EZIPEK_clean_linker_0, # of connection points: 2
# Relax obj value: 0.136
# Max RMSD: 0.202
# Mean RMSD: 0.148
data_MOF--net-kag--node1-KUMBOL_clean_sbu_1--edge1-EZIPEK_clean_linker_0
_symmetry_space_group_name_H-M    P1
_symmetry_Int_Tables_number       1
_symmetry_cell_setting            triclinic
loop_
_symmetry_equiv_pos_as_xyz
'x, y, z'
_cell_length_a     22.825812
_cell_length_b     32.652135
_cell_length_c     10.864801
_cell_angle_alpha  107.38948
_cell_angle_beta   96.763698
_cell_angle_gamma 93.660985
loop_
_atom_site_label
_atom_site_type_symbol
_atom_site_fract_x
_atom_site_fract_y
_atom_site_fract_z
_atom_type_partial_charge
C0 C 0.12593 0.36909 0.74239 0.0
C1 C 0.1805 0.34086 0.90007 0.0
C2 C 0.14204 0.36994 0.87098 0.0
C3 C 0.20214 0.3107 0.79849 0.0
C4 C 0.14968 0.33995 0.64091 0.0
C5 C 0.18735 0.3106 0.6695 0.0
N6 N 0.08538 0.39533 0.71598 0.0
C7 C 0.0669 0.39374 0.59004 0.0
C8 C 0.13343 0.34019 0.5129 0.0
C9 C 0.09198 0.36727 0.48751 0.0
Gd10 Gd 0.06426 0.56313 0.03359 0.0
Gd11 Gd 1.04139 0.43287 0.89648 0.0
N12 N 0.11833 0.39801 0.96713 0.0
C13 C 0.19497 0.34225 0.03028 0.0
C14 C 0.12953 0.39776 0.093 0.0
C15 C 0.16932 0.37084 0.12719 0.0
H16 H 0.10608 0.41719 0.16601 0.0
H17 H 0.17861 0.37111 0.22749 0.0
H18 H 1.01776 0.58385 0.74959 0.0
H19 H 1.03117 0.4113 0.56629 0.0
H20 H 0.94145 0.62362 0.67123 0.0
H21 H 0.22473 0.32069 0.05655 0.0
H22 H 0.23128 0.28788 0.81889 0.0
H23 H 1.05683 0.58273 0.34964 0.0
H24 H 0.15138 0.31875 0.43263 0.0
H25 H 0.0777 0.36663 0.38826 0.0
H26 H 0.84852 0.68796 0.04395 0.0
H27 H 0.20527 0.28765 0.59249 0.0
H28 H 0.91809 0.66326 0.4463 0.0
H29 H 0.99858 0.62328 0.51197 0.0
N30 N 1.0064 0.59549 0.19067 0.0
C31 C 0.96487 0.61908 0.15275 0.0
C32 C 1.01977 0.59781 0.31821 0.0
C33 C 0.94261 0.64441 0.37356 0.0
C34 C 0.98743 0.62158 0.41106 0.0
C35 C 0.93165 0.64409 0.24366 0.0
H36 H 0.86399 0.6883 0.27187 0.0
N37 N 0.9919 0.5969 0.93888 0.0
C38 C 0.95706 0.61951 0.02361 0.0
C39 C 0.90897 0.64528 0.85472 0.0
C40 C 0.91491 0.64446 0.98348 0.0
C41 C 0.98813 0.59935 0.81482 0.0
C42 C 0.9457 0.6227 0.77032 0.0
O43 O 0.1398 0.4624 0.96247 0.0
O44 O 0.14538 0.53294 0.95506 0.0
O45 O 0.09328 0.627 0.02787 0.0
O46 O 0.13041 0.60552 0.18731 0.0
O47 O 1.02396 0.46534 0.10038 0.0
O48 O 0.09201 0.52501 0.16795 0.0
O49 O 0.96906 0.53074 0.02467 0.0
O50 O 0.95663 0.46442 0.86371 0.0
O51 O 0.99839 0.38976 0.98466 0.0
O52 O 0.99077 0.37284 0.77462 0.0
O53 O 0.07677 0.53559 0.82439 0.0
O54 O 1.02111 0.46897 0.7518 0.0
C55 C 0.1707 0.49791 0.95898 0.0
C56 C 1.05716 0.49596 0.1929 0.0
C57 C 0.19065 0.65524 0.12246 0.0
C58 C 0.25287 0.71801 0.11734 0.0
C59 C 0.29099 0.64812 0.07105 0.0
C60 C 0.23683 0.62968 0.08814 0.0
C61 C 0.29897 0.69211 0.08477 0.0
C62 C 0.19907 0.69957 0.13816 0.0
C63 C 0.13202 0.63594 0.13227 0.0
C64 C 0.88102 0.66866 0.07341 0.0
C65 C 0.88988 0.6689 0.20331 0.0
H66 H 0.87674 0.66374 0.81995 0.0
C67 C 0.93442 0.49651 0.94461 0.0
C68 C 1.05208 0.50103 0.7308 0.0
C69 C 0.9147 0.34277 0.86341 0.0
C70 C 0.84764 0.29031 0.91169 0.0
C71 C 0.80849 0.33878 0.79853 0.0
C72 C 0.86601 0.35753 0.80393 0.0
C73 C 0.79923 0.30527 0.85204 0.0
C74 C 0.90524 0.30908 0.91659 0.0
C75 C 0.97585 0.36185 0.87332 0.0
H76 H 0.32638 0.6281 0.04454 0.0
H77 H 0.23054 0.59546 0.07223 0.0
H78 H 0.34066 0.70587 0.06814 0.0
H79 H 0.16316 0.71944 0.16175 0.0
H80 H 0.77099 0.35036 0.7532 0.0
H81 H 0.8724 0.38365 0.76296 0.0
H82 H 0.75451 0.29102 0.84695 0.0
H83 H 0.94268 0.29772 0.96336 0.0
C84 C 0.72215 0.91853 0.07542 0.0
C85 C 0.75456 0.88484 0.86749 0.0
C86 C 0.73134 0.9197 0.9523 0.0
C87 C 0.76566 0.84827 0.90588 0.0
C88 C 0.73453 0.88238 0.11566 0.0
C89 C 0.75555 0.847 0.0295 0.0
N90 N 0.7 0.95264 0.15536 0.0
C91 C 0.69504 0.95475 0.28112 0.0
C92 C 0.72559 0.88299 0.2416 0.0
C93 C 0.70642 0.91957 0.32517 0.0
Gd94 Gd 0.50182 0.99801 0.97051 0.0
Gd95 Gd 0.67782 0.00891 0.07051 0.0
N96 N 0.71908 0.95526 0.91685 0.0
C97 C 0.76675 0.88798 0.74726 0.0
C98 C 0.7345 0.95948 0.80305 0.0
C99 C 0.75766 0.92576 0.71605 0.0
H100 H 0.73042 0.98906 0.7793 0.0
H101 H 0.76928 0.92918 0.62565 0.0
H102 H 0.47056 0.05582 0.26407 0.0
H103 H 0.68098 0.98319 0.34604 0.0
H104 H 0.42555 0.12273 0.35858 0.0
H105 H 0.78472 0.86195 0.67953 0.0
H106 H 0.78282 0.82101 0.84129 0.0
H107 H 0.45772 0.96925 0.64703 0.0
H108 H 0.73428 0.85574 0.27593 0.0
H109 H 0.70027 0.92066 0.42327 0.0
H110 H 0.35741 0.16802 0.98968 0.0
H111 H 0.76485 0.81875 0.05815 0.0
H112 H 0.37024 0.07238 0.5653 0.0
H113 H 0.40642 1.00086 0.48854 0.0
N114 N 0.45186 0.02331 0.81097 0.0
C115 C 0.42842 0.06132 0.85603 0.0
C116 C 0.44308 1.00098 0.68112 0.0
C117 C 0.39293 0.05892 0.63522 0.0
C118 C 0.41381 0.01858 0.59135 0.0
C119 C 0.39904 0.08046 0.76909 0.0
H120 H 0.35279 0.13499 0.75301 0.0
N121 N 0.45698 0.05968 0.0708 0.0
C122 C 0.43089 0.07996 0.98965 0.0
C123 C 0.4037 0.13416 0.174 0.0
C124 C 0.40426 0.11816 0.03937 0.0
C125 C 0.45313 0.07351 0.20112 0.0
C126 C 0.42736 0.11132 0.2549 0.0
O127 O 0.6164 0.95063 0.06684 0.0
O128 O 0.55188 0.94082 0.88428 0.0
O129 O 0.46384 0.94759 0.03728 0.0
O130 O 0.40995 0.97085 0.90009 0.0
O131 O 0.64822 0.01808 0.8742 0.0
O132 O 0.55327 0.98335 0.79957 0.0
O133 O 0.55028 0.06573 0.06945 0.0
O134 O 0.64366 0.06459 0.00871 0.0
O135 O 0.77196 0.02535 0.07641 0.0
O136 O 0.72965 0.05367 0.24516 0.0
O137 O 0.53539 0.99779 0.17349 0.0
O138 O 0.62623 0.0379 0.23563 0.0
C139 C 0.58349 0.92423 0.96282 0.0
C140 C 0.60315 0.00176 0.78033 0.0
C141 C 0.36139 0.94092 0.04048 0.0
C142 C 0.29737 0.89424 0.11721 0.0
C143 C 0.28174 0.96976 0.1586 0.0
C144 C 0.32967 0.9758 0.0942 0.0
C145 C 0.26527 0.92906 0.16943 0.0
C146 C 0.34547 0.90046 0.05356 0.0
C147 C 0.41175 0.94516 0.97151 0.0
C148 C 0.37758 0.13841 0.9532 0.0
C149 C 0.37497 0.11961 0.8184 0.0
H150 H 0.38356 0.16337 0.21592 0.0
C151 C 0.59594 0.08426 0.03506 0.0
C152 C 0.57777 0.02097 0.26443 0.0
C153 C 0.81545 0.09303 0.21904 0.0
C154 C 0.84294 0.15933 0.17002 0.0
C155 C 0.90453 0.13918 0.33654 0.0
C156 C 0.86584 0.10208 0.31366 0.0
C157 C 0.89354 0.16744 0.26452 0.0
C158 C 0.8032 0.12213 0.14853 0.0
C159 C 0.77845 0.05211 0.19392 0.0
H160 H 0.25712 0.99661 0.19954 0.0
H161 H 0.34176 0.00741 0.08608 0.0
H162 H 0.22772 0.92467 0.21822 0.0
H163 H 0.37012 0.87348 0.01265 0.0
H164 H 0.94348 0.14584 0.40944 0.0
H165 H 0.87565 0.08009 0.36905 0.0
H166 H 0.92454 0.19586 0.28271 0.0
H167 H 0.76402 0.11551 0.07597 0.0
C168 C 0.61379 0.59793 0.35368 0.0
C169 C 0.72045 0.59777 0.38748 0.0
C170 C 0.66645 0.59191 0.30321 0.0
C171 C 0.71964 0.60508 0.52147 0.0
C172 C 0.61325 0.60915 0.48932 0.0
C173 C 0.666 0.61073 0.57238 0.0
N174 N 0.56384 0.59651 0.27068 0.0
C175 C 0.51384 0.6115 0.31817 0.0
C176 C 0.5603 0.62025 0.53756 0.0
C177 C 0.51081 0.62258 0.45193 0.0
Gd178 Gd 0.53954 0.43223 0.9143 0.0
Gd179 Gd 0.56974 0.56731 0.04608 0.0
N180 N 0.66554 0.58544 0.17363 0.0
C181 C 0.77357 0.59833 0.33527 0.0
C182 C 0.71706 0.5945 0.12904 0.0
C183 C 0.77179 0.59778 0.20588 0.0
H184 H 0.71596 0.5954 0.03019 0.0
H185 H 0.81226 0.59943 0.16458 0.0
H186 H 0.42878 0.41142 0.07397 0.0
H187 H 0.47605 0.61408 0.25211 0.0
H188 H 0.3196 0.3931 0.02463 0.0
H189 H 0.81604 0.60175 0.39559 0.0
H190 H 0.7605 0.60854 0.58724 0.0
H191 H 0.59322 0.39339 0.62745 0.0
H192 H 0.55807 0.62896 0.64102 0.0
H193 H 0.47043 0.63297 0.48883 0.0
H194 H 0.27844 0.35877 0.55975 0.0
H195 H 0.66623 0.61826 0.6766 0.0
H196 H 0.44407 0.35322 0.32447 0.0
H197 H 0.55269 0.36538 0.39298 0.0
N198 N 0.50829 0.39971 0.6895 0.0
C199 C 0.44869 0.39 0.65462 0.0
C200 C 0.54569 0.38859 0.59797 0.0
C201 C 0.46159 0.36582 0.4272 0.0
C202 C 0.52294 0.37258 0.46545 0.0
C203 C 0.42365 0.37335 0.52218 0.0
H204 H 0.34177 0.35125 0.38774 0.0
N205 N 0.4381 0.40826 0.87877 0.0
C206 C 0.41281 0.3938 0.75169 0.0
C207 C 0.31751 0.38379 0.81908 0.0
C208 C 0.35139 0.38147 0.71851 0.0
C209 C 0.40681 0.40358 0.97486 0.0
C210 C 0.34542 0.3931 0.94721 0.0
O211 O 0.6484 0.52769 0.99496 0.0
O212 O 0.63889 0.45247 0.92482 0.0
O213 O 0.54168 0.39148 0.04112 0.0
O214 O 0.56 0.36556 0.84471 0.0
O215 O 0.53884 0.53332 0.83038 0.0
O216 O 0.57183 0.46549 0.77633 0.0
O217 O 0.45861 0.47202 0.94593 0.0
O218 O 0.46864 0.54715 -0.00372 0.0
O219 O 0.59868 0.61089 0.94093 0.0
O220 O 0.54708 0.63367 0.09453 0.0
O221 O 0.57896 0.46969 0.12045 0.0
O222 O 0.52976 0.52984 0.16784 0.0
C223 C 0.67158 0.49041 0.95818 0.0
C224 C 0.55573 0.49956 0.74533 0.0
C225 C 0.59812 0.33145 -0.00286 0.0
C226 C 0.62307 0.26383 0.03704 0.0
C227 C 0.69896 0.32426 0.07938 0.0
C228 C 0.65742 0.34857 0.03796 0.0
C229 C 0.68216 0.28221 0.07801 0.0
C230 C 0.58075 0.28904 -0.00229 0.0
C231 C 0.55448 0.35759 0.95332 0.0
C232 C 0.32583 0.36751 0.5869 0.0
C233 C 0.3619 0.36337 0.48894 0.0
H234 H 0.26994 0.37863 0.79858 0.0
C235 C 0.43539 0.5095 0.96778 0.0
C236 C 0.55256 0.49814 0.20161 0.0
C237 C 0.54246 0.66939 0.93358 0.0
C238 C 0.53281 0.73858 0.88883 0.0
C239 C 0.45714 0.67762 0.79031 0.0
C240 C 0.48846 0.65231 0.85289 0.0
C241 C 0.47872 0.72043 0.80898 0.0
C242 C 0.56517 0.71237 0.94933 0.0
C243 C 0.57375 0.64348 0.00675 0.0
H244 H 0.7445 0.33809 0.11153 0.0
H245 H 0.67145 0.38074 0.03739 0.0
H246 H 0.71519 0.26381 0.10951 0.0
H247 H 0.53485 0.27556 0.96654 0.0
H248 H 0.41542 0.66416 0.7284 0.0
H249 H 0.47035 0.61949 0.83915 0.0
H250 H 0.45287 0.73965 0.76173 0.0
H251 H 0.60667 0.72597 0.01229 0.0
C252 C 0.10819 0.50608 0.54745 0.0
C253 C 1.05308 0.50115 0.59387 0.0
C254 C 1.00074 0.49845 0.38038 0.0
C255 C 1.05555 0.49723 0.33021 0.0
N256 N 0.16058 0.49081 0.36106 0.0
N257 N 0.94572 0.48919 0.54815 0.0
C258 C 0.10902 0.49864 0.4124 0.0
C259 C 0.99905 0.49582 0.50802 0.0
N260 N 0.16014 0.51851 0.63114 0.0
N261 N 0.95077 0.50534 0.31007 0.0
H262 H 0.9409 0.49177 0.6439 0.0
H263 H 0.90614 0.47888 0.48418 0.0
H264 H 0.95057 0.50969 0.21926 0.0
H265 H 0.91116 0.51169 0.3474 0.0
H266 H 0.19981 0.52778 0.60338 0.0
H267 H 0.16345 0.52316 0.73022 0.0
H268 H 0.19934 0.48624 0.4142 0.0
H269 H 0.1631 0.48405 0.26209 0.0
C270 C 0.54667 0.98646 0.43005 0.0
C271 C 0.57632 0.0215 0.40315 0.0
C272 C 0.63147 0.04425 0.62593 0.0
C273 C 0.60525 0.00617 0.6466 0.0
N274 N 0.55699 0.93399 0.54358 0.0
N275 N 0.62593 0.09291 0.49431 0.0
C276 C 0.56898 0.97512 0.54063 0.0
C277 C 0.61328 0.05299 0.50651 0.0
N278 N 0.49357 0.96667 0.35935 0.0
N279 N 0.67555 0.07109 0.71512 0.0
H280 H 0.60659 0.10108 0.4142 0.0
H281 H 0.64778 0.1193 0.56911 0.0
H282 H 0.69489 0.06539 0.79871 0.0
H283 H 0.69925 0.09675 0.69848 0.0
H284 H 0.46924 0.94228 0.38132 0.0
H285 H 0.46913 0.97948 0.29528 0.0
H286 H 0.53396 0.90946 0.46429 0.0
H287 H 0.57637 0.92349 0.61886 0.0
C288 C 0.60527 0.48762 0.5386 0.0
C289 C 0.55518 0.49898 0.60521 0.0
C290 C 0.50077 0.5002 0.39648 0.0
C291 C 0.5535 0.49719 0.33915 0.0
N292 N 0.65993 0.49731 0.37012 0.0
N293 N 0.45672 0.52369 0.59286 0.0
C294 C 0.60685 0.4934 0.41409 0.0
C295 C 0.50364 0.50802 0.53334 0.0
N296 N 0.65149 0.47062 0.59071 0.0
N297 N 0.44714 0.49249 0.31919 0.0
H298 H 0.45429 0.52927 0.69109 0.0
H299 H 0.42175 0.53479 0.54523 0.0
H300 H 0.44335 0.48353 0.21793 0.0
H301 H 0.40693 0.48989 0.35434 0.0
H302 H 0.68454 0.4573 0.53744 0.0
H303 H 0.65531 0.46628 0.6818 0.0
H304 H 0.70064 0.4995 0.42765 0.0
H305 H 0.66373 0.50361 0.28282 0.0
C306 C 0.26431 0.4813 0.84695 0.0
C307 C 0.23858 0.49974 0.96182 0.0
C308 C 0.34116 0.52628 0.08036 0.0
C309 C 0.3671 0.5082 0.96495 0.0
N310 N 0.35033 0.47638 0.7322 0.0
N311 N 0.25386 0.53652 0.19198 0.0
C312 C 0.32758 0.48781 0.84689 0.0
C313 C 0.27765 0.5215 0.07923 0.0
N314 N 0.22835 0.45575 0.73802 0.0
N315 N 0.37745 0.54947 0.19146 0.0
H316 H 0.20838 0.53669 0.19341 0.0
H317 H 0.27832 0.54731 0.28468 0.0
H318 H 0.42318 0.55067 0.19816 0.0
H319 H 0.36313 0.56875 0.27496 0.0
H320 H 0.24385 0.43726 0.65487 0.0
H321 H 0.18257 0.45064 0.73412 0.0
H322 H 0.32449 0.46731 0.64091 0.0
H323 H 0.39572 0.47814 0.72846 0.0
C324 C 0.82767 0.23429 0.16762 0.0
C325 C 0.83297 0.19086 0.09653 0.0
C326 C 0.83408 0.21178 0.89742 0.0
C327 C 0.83854 0.25586 0.97349 0.0
N328 N 0.84737 0.30961 0.18479 0.0
N329 N 0.84799 0.1386 0.89501 0.0
C330 C 0.83753 0.26729 0.10976 0.0
C331 C 0.83716 0.17946 0.96111 0.0
N332 N 0.8117 0.2438 0.28961 0.0
N333 N 0.82767 0.20084 0.76457 0.0
H334 H 0.85166 0.11412 0.9379 0.0
H335 H 0.85813 0.12976 0.80024 0.0
H336 H 0.8276 0.2237 0.71497 0.0
H337 H 0.81772 0.16919 0.7034 0.0
H338 H 0.80155 0.27428 0.34126 0.0
H339 H 0.80234 0.22008 0.33308 0.0
H340 H 0.85372 0.31933 0.28631 0.0
H341 H 0.85316 0.33497 0.14602 0.0
C342 C 0.55597 0.86156 0.04905 0.0
C343 C 0.57442 0.87634 0.94705 0.0
C344 C 0.57058 0.80014 0.80996 0.0
C345 C 0.55267 0.7857 0.9126 0.0
N346 N 0.53671 0.80267 0.13698 0.0
N347 N 0.61174 0.859 0.7415 0.0
C348 C 0.5484 0.81645 0.03433 0.0
C349 C 0.58494 0.84533 0.8303 0.0
N350 N 0.54186 0.89046 0.15805 0.0
N351 N 0.57358 0.77048 0.69214 0.0
H352 H 0.62465 0.89142 0.75545 0.0
H353 H 0.62655 0.83842 0.66073 0.0
H354 H 0.56843 0.73727 0.67679 0.0
H355 H 0.57843 0.77856 0.60793 0.0
H356 H 0.51879 0.8818 0.22505 0.0
H357 H 0.54902 0.92349 0.17725 0.0
H358 H 0.54233 0.82274 0.23303 0.0
H359 H 0.52491 0.77051 0.1286 0.0
C360 C 0.8304 0.51758 0.87908 0.0
C361 C 0.86654 0.49416 0.94456 0.0
C362 C 0.77577 0.47004 0.02264 0.0
C363 C 0.73895 0.49177 0.95254 0.0
N364 N 0.73255 0.5358 0.80899 0.0
N365 N 0.86943 0.44082 0.05688 0.0
C366 C 0.76692 0.51564 0.88007 0.0
C367 C 0.83779 0.46829 0.00959 0.0
N368 N 0.85707 0.54134 0.8133 0.0
N369 N 0.75245 0.45326 0.10954 0.0
H370 H 0.91437 0.43896 0.05137 0.0
H371 H 0.85023 0.41716 0.09045 0.0
H372 H 0.70836 0.4547 0.12484 0.0
H373 H 0.77783 0.44172 0.17559 0.0
H374 H 0.83671 0.56292 0.77333 0.0
H375 H 0.90131 0.53987 0.80065 0.0
H376 H 0.74737 0.54987 0.74274 0.0
H377 H 0.68722 0.53703 0.81057 0.0
C378 C 0.29212 0.79537 0.23449 0.0
C379 C 0.25998 0.76406 0.12229 0.0
C380 C 0.24799 0.81904 0.01137 0.0
C381 C 0.28 0.85038 0.12361 0.0
N382 N 0.32711 0.87087 0.34667 0.0
N383 N 0.20134 0.74574 0.90989 0.0
C384 C 0.30026 0.83927 0.23694 0.0
C385 C 0.23595 0.77588 0.0126 0.0
N386 N 0.31595 0.7827 0.33717 0.0
N387 N 0.23079 0.83046 0.90218 0.0
H388 H 0.19429 0.71326 0.90351 0.0
H389 H 0.17679 0.75292 0.8335 0.0
H390 H 0.23551 0.86223 0.90017 0.0
H391 H 0.21416 0.80857 0.81153 0.0
H392 H 0.34517 0.80245 0.41649 0.0
H393 H 0.30842 0.75129 0.34105 0.0
H394 H 0.33819 0.86623 0.43679 0.0
H395 H 0.33567 0.90299 0.35018 0.0
C396 C 0.61815 0.20813 0.15601 0.0
C397 C 0.60746 0.21823 0.03724 0.0
C398 C 0.57891 0.14084 0.92126 0.0
C399 C 0.59705 0.13054 0.03734 0.0
N400 N 0.64558 0.15454 0.25954 0.0
N401 N 0.58633 0.1927 0.80233 0.0
C402 C 0.61972 0.16427 0.15333 0.0
C403 C 0.58957 0.18419 0.91858 0.0
N404 N 0.62586 0.24054 0.27204 0.0
N405 N 0.55176 0.10911 0.81289 0.0
H406 H 0.59492 0.22359 0.79534 0.0
H407 H 0.58005 0.16874 0.71234 0.0
H408 H 0.54569 0.07696 0.80991 0.0
H409 H 0.53142 0.11504 0.72983 0.0
H410 H 0.62844 0.23495 0.36196 0.0
H411 H 0.62344 0.27287 0.27786 0.0
H412 H 0.66856 0.17767 0.34223 0.0
H413 H 0.64931 0.12291 0.25948 0.0
loop_
_geom_bond_atom_site_label_1
_geom_bond_atom_site_label_2
_geom_bond_distance
_geom_bond_site_symmetry_2
_ccdc_geom_bond_type
C0 C2 1.422 . S
C0 C4 1.415 . S
C0 N6 1.369 . S
C1 C2 1.421 . S
C1 C3 1.417 . S
C1 C13 1.422 1_556 S
C2 C0 1.422 . S
C2 C1 1.421 . S
C2 N12 1.359 . S
C3 C1 1.417 . S
C3 C5 1.329 . S
C3 H22 0.930 . S
C4 C0 1.415 . S
C4 C5 1.437 . S
C4 C8 1.413 . S
C5 C3 1.329 . S
C5 C4 1.437 . S
C5 H27 0.929 . S
N6 C0 1.369 . S
N6 C7 1.338 . S
N6 Gd11 2.622 1_455 S
C7 N6 1.338 . S
C7 C9 1.378 . S
C7 H19 0.929 1_455 S
C8 C4 1.413 . S
C8 C9 1.348 . S
C8 H24 0.931 . S
C9 C7 1.378 . S
C9 C8 1.348 . S
C9 H25 0.930 . S
Gd10 N30 2.622 1_455 S
Gd10 N37 2.570 1_455 S
Gd10 O44 2.353 . S
Gd10 O45 2.468 1_554 S
Gd10 O46 2.427 . S
Gd10 O48 2.388 . S
Gd10 O49 2.386 1_455 S
Gd10 O53 2.307 1_454 S
Gd10 C63 2.805 . S
Gd11 N6 2.622 1_655 S
Gd11 N12 2.570 1_655 S
Gd11 O43 2.386 1_655 S
Gd11 O47 2.307 1_656 S
Gd11 O50 2.353 . S
Gd11 O51 2.468 1_556 S
Gd11 O52 2.427 . S
Gd11 O54 2.388 . S
Gd11 C75 2.805 . S
N12 C2 1.359 . S
N12 Gd11 2.570 1_455 S
N12 C14 1.343 1_556 S
C13 C1 1.422 1_554 S
C13 C15 1.321 . S
C13 H21 0.931 . S
C14 N12 1.343 1_554 S
C14 C15 1.390 . S
C14 H16 0.931 . S
C15 C13 1.321 . S
C15 C14 1.390 . S
C15 H17 0.930 . S
H16 C14 0.931 . S
H17 C15 0.930 . S
H18 C41 0.931 . S
H19 C7 0.929 1_655 S
H20 C42 0.930 . S
H21 C13 0.931 . S
H22 C3 0.930 . S
H23 C32 0.929 1_455 S
H24 C8 0.931 . S
H25 C9 0.930 . S
H26 C64 0.930 . S
H27 C5 0.929 . S
H28 C33 0.931 . S
H29 C34 0.930 . S
N30 Gd10 2.622 1_655 S
N30 C31 1.369 . S
N30 C32 1.338 . S
C31 N30 1.369 . S
C31 C35 1.415 . S
C31 C38 1.422 . S
C32 H23 0.929 1_655 S
C32 N30 1.338 . S
C32 C34 1.378 . S
C33 H28 0.931 . S
C33 C34 1.348 . S
C33 C35 1.413 . S
C34 H29 0.930 . S
C34 C32 1.378 . S
C34 C33 1.348 . S
C35 C31 1.415 . S
C35 C33 1.413 . S
C35 C65 1.437 . S
H36 C65 0.929 . S
N37 Gd10 2.570 1_655 S
N37 C38 1.359 . S
N37 C41 1.343 1_554 S
C38 C31 1.422 . S
C38 N37 1.359 . S
C38 C40 1.421 . S
C39 C40 1.422 1_556 S
C39 C42 1.321 . S
C39 H66 0.931 . S
C40 C38 1.421 . S
C40 C39 1.422 1_554 S
C40 C64 1.417 . S
C41 H18 0.931 . S
C41 N37 1.343 1_556 S
C41 C42 1.390 . S
C42 H20 0.930 . S
C42 C39 1.321 . S
C42 C41 1.390 . S
O43 Gd11 2.386 1_455 S
O43 C55 1.265 1_556 S
O44 Gd10 2.353 . S
O44 C55 1.242 . S
O45 Gd10 2.468 1_556 S
O45 C63 1.263 1_556 S
O46 Gd10 2.427 . S
O46 C63 1.252 . S
O47 Gd11 2.307 1_454 S
O47 C56 1.261 . S
O48 Gd10 2.388 . S
O48 C56 1.252 . S
O49 Gd10 2.386 1_655 S
O49 C67 1.265 1_554 S
O50 Gd11 2.353 . S
O50 C67 1.242 . S
O51 Gd11 2.468 1_554 S
O51 C75 1.263 1_554 S
O52 Gd11 2.427 . S
O52 C75 1.252 . S
O53 Gd10 2.307 1_656 S
O53 C68 1.261 . S
O54 Gd11 2.388 . S
O54 C68 1.252 . S
C55 O43 1.265 1_554 S
C55 O44 1.242 . S
C56 O47 1.261 . S
C56 O48 1.252 . S
C57 C60 1.394 . S
C57 C62 1.370 . S
C57 C63 1.500 . S
C58 C61 1.383 . S
C58 C62 1.395 . S
C59 C60 1.396 . S
C59 C61 1.365 . S
C59 H76 0.929 . S
C60 C57 1.394 . S
C60 C59 1.396 . S
C60 H77 0.930 . S
C61 C58 1.383 . S
C61 C59 1.365 . S
C61 H78 0.931 . S
C62 C57 1.370 . S
C62 C58 1.395 . S
C62 H79 0.930 1_554 S
C63 Gd10 2.805 . S
C63 O45 1.263 1_554 S
C63 O46 1.252 . S
C63 C57 1.500 . S
C64 H26 0.930 . S
C64 C40 1.417 . S
C64 C65 1.329 . S
C65 C35 1.437 . S
C65 H36 0.929 . S
C65 C64 1.329 . S
H66 C39 0.931 . S
C67 O49 1.265 1_556 S
C67 O50 1.242 . S
C68 O53 1.261 . S
C68 O54 1.252 . S
C69 C72 1.394 . S
C69 C74 1.370 . S
C69 C75 1.500 . S
C70 C73 1.383 . S
C70 C74 1.395 . S
C71 C72 1.396 . S
C71 C73 1.365 . S
C71 H80 0.929 . S
C72 C69 1.394 . S
C72 C71 1.396 . S
C72 H81 0.930 . S
C73 C70 1.383 . S
C73 C71 1.365 . S
C73 H82 0.931 . S
C74 C69 1.370 . S
C74 C70 1.395 . S
C74 H83 0.930 1_556 S
C75 Gd11 2.805 . S
C75 O51 1.263 1_556 S
C75 O52 1.252 . S
C75 C69 1.500 . S
H76 C59 0.929 . S
H77 C60 0.930 . S
H78 C61 0.931 . S
H79 C62 0.930 1_556 S
H80 C71 0.929 . S
H81 C72 0.930 . S
H82 C73 0.931 . S
H83 C74 0.930 1_554 S
C84 C86 1.422 . S
C84 C88 1.415 . S
C84 N90 1.369 1_565 S
C85 C86 1.421 1_556 S
C85 C87 1.417 1_556 S
C85 C97 1.422 . S
C86 C84 1.422 . S
C86 C85 1.421 1_554 S
C86 N96 1.359 1_554 S
C87 C85 1.417 1_554 S
C87 C89 1.329 . S
C87 H106 0.930 . S
C88 C84 1.415 . S
C88 C89 1.437 . S
C88 C92 1.413 . S
C89 C87 1.329 . S
C89 C88 1.437 . S
C89 H111 0.929 . S
N90 C84 1.369 1_545 S
N90 C91 1.338 . S
N90 Gd95 2.622 . S
C91 N90 1.338 . S
C91 C93 1.378 . S
C91 H103 0.929 . S
C92 C88 1.413 . S
C92 C93 1.348 1_565 S
C92 H108 0.931 . S
C93 C91 1.378 . S
C93 C92 1.348 1_545 S
C93 H109 0.930 . S
Gd94 N114 2.622 . S
Gd94 N121 2.570 1_566 S
Gd94 O128 2.353 . S
Gd94 O129 2.468 1_556 S
Gd94 O130 2.427 . S
Gd94 O132 2.388 . S
Gd94 O133 2.386 1_565 S
Gd94 O137 2.307 1_566 S
Gd94 C147 2.805 . S
Gd95 N90 2.622 . S
Gd95 N96 2.570 1_544 S
Gd95 O127 2.386 1_545 S
Gd95 O131 2.307 1_544 S
Gd95 O134 2.353 . S
Gd95 O135 2.468 1_554 S
Gd95 O136 2.427 . S
Gd95 O138 2.388 . S
Gd95 C159 2.805 . S
N96 C86 1.359 1_556 S
N96 Gd95 2.570 1_566 S
N96 C98 1.343 . S
C97 C85 1.422 . S
C97 C99 1.321 . S
C97 H105 0.931 . S
C98 N96 1.343 . S
C98 C99 1.390 . S
C98 H100 0.931 . S
C99 C97 1.321 . S
C99 C98 1.390 . S
C99 H101 0.930 . S
H100 C98 0.931 . S
H101 C99 0.930 . S
H102 C125 0.931 . S
H103 C91 0.929 . S
H104 C126 0.930 . S
H105 C97 0.931 . S
H106 C87 0.930 . S
H107 C116 0.929 . S
H108 C92 0.931 . S
H109 C93 0.930 . S
H110 C148 0.930 . S
H111 C89 0.929 . S
H112 C117 0.931 . S
H113 C118 0.930 . S
N114 Gd94 2.622 . S
N114 C115 1.369 1_565 S
N114 C116 1.338 . S
C115 N114 1.369 1_545 S
C115 C119 1.415 . S
C115 C122 1.422 . S
C116 H107 0.929 . S
C116 N114 1.338 . S
C116 C118 1.378 . S
C117 H112 0.931 . S
C117 C118 1.348 1_545 S
C117 C119 1.413 . S
C118 H113 0.930 . S
C118 C116 1.378 . S
C118 C117 1.348 1_565 S
C119 C115 1.415 . S
C119 C117 1.413 . S
C119 C149 1.437 . S
H120 C149 0.929 . S
N121 Gd94 2.570 1_544 S
N121 C122 1.359 1_554 S
N121 C125 1.343 . S
C122 C115 1.422 . S
C122 N121 1.359 1_556 S
C122 C124 1.421 1_556 S
C123 C124 1.422 . S
C123 C126 1.321 . S
C123 H150 0.931 . S
C124 C122 1.421 1_554 S
C124 C123 1.422 . S
C124 C148 1.417 1_554 S
C125 H102 0.931 . S
C125 N121 1.343 . S
C125 C126 1.390 . S
C126 H104 0.930 . S
C126 C123 1.321 . S
C126 C125 1.390 . S
O127 Gd95 2.386 1_565 S
O127 C139 1.265 1_554 S
O128 Gd94 2.353 . S
O128 C139 1.242 . S
O129 Gd94 2.468 1_554 S
O129 C147 1.263 1_554 S
O130 Gd94 2.427 . S
O130 C147 1.252 . S
O131 Gd95 2.307 1_566 S
O131 C140 1.261 . S
O132 Gd94 2.388 . S
O132 C140 1.252 . S
O133 Gd94 2.386 1_545 S
O133 C151 1.265 1_556 S
O134 Gd95 2.353 . S
O134 C151 1.242 . S
O135 Gd95 2.468 1_556 S
O135 C159 1.263 1_556 S
O136 Gd95 2.427 . S
O136 C159 1.252 . S
O137 Gd94 2.307 1_544 S
O137 C152 1.261 . S
O138 Gd95 2.388 . S
O138 C152 1.252 . S
C139 O127 1.265 1_556 S
C139 O128 1.242 . S
C140 O131 1.261 . S
C140 O132 1.252 . S
C141 C144 1.394 . S
C141 C146 1.370 1_556 S
C141 C147 1.500 . S
C142 C145 1.383 1_554 S
C142 C146 1.395 . S
C143 C144 1.396 . S
C143 C145 1.365 . S
C143 H160 0.929 . S
C144 C141 1.394 . S
C144 C143 1.396 . S
C144 H161 0.930 . S
C145 C142 1.383 1_556 S
C145 C143 1.365 . S
C145 H162 0.931 . S
C146 C141 1.370 1_554 S
C146 C142 1.395 . S
C146 H163 0.930 . S
C147 Gd94 2.805 . S
C147 O129 1.263 1_556 S
C147 O130 1.252 . S
C147 C141 1.500 . S
C148 H110 0.930 . S
C148 C124 1.417 1_556 S
C148 C149 1.329 . S
C149 C119 1.437 . S
C149 H120 0.929 . S
C149 C148 1.329 . S
H150 C123 0.931 . S
C151 O133 1.265 1_554 S
C151 O134 1.242 . S
C152 O137 1.261 . S
C152 O138 1.252 . S
C153 C156 1.394 . S
C153 C158 1.370 1_554 S
C153 C159 1.500 . S
C154 C157 1.383 1_556 S
C154 C158 1.395 . S
C155 C156 1.396 . S
C155 C157 1.365 . S
C155 H164 0.929 . S
C156 C153 1.394 . S
C156 C155 1.396 . S
C156 H165 0.930 . S
C157 C154 1.383 1_554 S
C157 C155 1.365 . S
C157 H166 0.931 . S
C158 C153 1.370 1_556 S
C158 C154 1.395 . S
C158 H167 0.930 . S
C159 Gd95 2.805 . S
C159 O135 1.263 1_554 S
C159 O136 1.252 . S
C159 C153 1.500 . S
H160 C143 0.929 . S
H161 C144 0.930 . S
H162 C145 0.931 . S
H163 C146 0.930 . S
H164 C155 0.929 . S
H165 C156 0.930 . S
H166 C157 0.931 . S
H167 C158 0.930 . S
C168 C170 1.422 . S
C168 C172 1.415 . S
C168 N174 1.369 . S
C169 C170 1.421 . S
C169 C171 1.417 . S
C169 C181 1.422 1_554 S
C170 C168 1.422 . S
C170 C169 1.421 . S
C170 N180 1.359 . S
C171 C169 1.417 . S
C171 C173 1.329 . S
C171 H190 0.930 . S
C172 C168 1.415 . S
C172 C173 1.437 . S
C172 C176 1.413 . S
C173 C171 1.329 . S
C173 C172 1.437 . S
C173 H195 0.929 . S
N174 C168 1.369 . S
N174 C175 1.338 . S
N174 Gd179 2.622 . S
C175 N174 1.338 . S
C175 C177 1.378 . S
C175 H187 0.929 . S
C176 C172 1.413 . S
C176 C177 1.348 . S
C176 H192 0.931 . S
C177 C175 1.378 . S
C177 C176 1.348 . S
C177 H193 0.930 . S
Gd178 N198 2.622 . S
Gd178 N205 2.570 . S
Gd178 O212 2.353 . S
Gd178 O213 2.468 1_556 S
Gd178 O214 2.427 . S
Gd178 O216 2.388 . S
Gd178 O217 2.386 . S
Gd178 O221 2.307 1_556 S
Gd178 C231 2.805 . S
Gd179 N174 2.622 . S
Gd179 N180 2.570 . S
Gd179 O211 2.386 . S
Gd179 O215 2.307 1_554 S
Gd179 O218 2.353 . S
Gd179 O219 2.468 1_554 S
Gd179 O220 2.427 . S
Gd179 O222 2.388 . S
Gd179 C243 2.805 . S
N180 C170 1.359 . S
N180 Gd179 2.570 . S
N180 C182 1.343 1_554 S
C181 C169 1.422 1_556 S
C181 C183 1.321 . S
C181 H189 0.931 . S
C182 N180 1.343 1_556 S
C182 C183 1.390 . S
C182 H184 0.931 . S
C183 C181 1.321 . S
C183 C182 1.390 . S
C183 H185 0.930 . S
H184 C182 0.931 . S
H185 C183 0.930 . S
H186 C209 0.931 . S
H187 C175 0.929 . S
H188 C210 0.930 . S
H189 C181 0.931 . S
H190 C171 0.930 . S
H191 C200 0.929 . S
H192 C176 0.931 . S
H193 C177 0.930 . S
H194 C232 0.930 . S
H195 C173 0.929 . S
H196 C201 0.931 . S
H197 C202 0.930 . S
N198 Gd178 2.622 . S
N198 C199 1.369 . S
N198 C200 1.338 . S
C199 N198 1.369 . S
C199 C203 1.415 . S
C199 C206 1.422 . S
C200 H191 0.929 . S
C200 N198 1.338 . S
C200 C202 1.378 . S
C201 H196 0.931 . S
C201 C202 1.348 . S
C201 C203 1.413 . S
C202 H197 0.930 . S
C202 C200 1.378 . S
C202 C201 1.348 . S
C203 C199 1.415 . S
C203 C201 1.413 . S
C203 C233 1.437 . S
H204 C233 0.929 . S
N205 Gd178 2.570 . S
N205 C206 1.359 . S
N205 C209 1.343 1_556 S
C206 C199 1.422 . S
C206 N205 1.359 . S
C206 C208 1.421 . S
C207 C208 1.422 1_554 S
C207 C210 1.321 . S
C207 H234 0.931 . S
C208 C206 1.421 . S
C208 C207 1.422 1_556 S
C208 C232 1.417 . S
C209 H186 0.931 . S
C209 N205 1.343 1_554 S
C209 C210 1.390 . S
C210 H188 0.930 . S
C210 C207 1.321 . S
C210 C209 1.390 . S
O211 Gd179 2.386 . S
O211 C223 1.265 . S
O212 Gd178 2.353 . S
O212 C223 1.242 1_556 S
O213 Gd178 2.468 1_554 S
O213 C231 1.263 1_554 S
O214 Gd178 2.427 . S
O214 C231 1.252 . S
O215 Gd179 2.307 1_556 S
O215 C224 1.261 . S
O216 Gd178 2.388 . S
O216 C224 1.252 . S
O217 Gd178 2.386 . S
O217 C235 1.265 . S
O218 Gd179 2.353 . S
O218 C235 1.242 1_554 S
O219 Gd179 2.468 1_556 S
O219 C243 1.263 1_556 S
O220 Gd179 2.427 . S
O220 C243 1.252 . S
O221 Gd178 2.307 1_554 S
O221 C236 1.261 . S
O222 Gd179 2.388 . S
O222 C236 1.252 . S
C223 O211 1.265 . S
C223 O212 1.242 1_554 S
C224 O215 1.261 . S
C224 O216 1.252 . S
C225 C228 1.394 . S
C225 C230 1.368 1_556 S
C225 C231 1.500 . S
C226 C229 1.383 . S
C226 C230 1.396 1_556 S
C227 C228 1.396 . S
C227 C229 1.365 . S
C227 H244 0.929 . S
C228 C225 1.394 . S
C228 C227 1.396 . S
C228 H245 0.930 . S
C229 C226 1.383 . S
C229 C227 1.365 . S
C229 H246 0.931 . S
C230 C225 1.368 1_554 S
C230 C226 1.396 1_554 S
C230 H247 0.932 . S
C231 Gd178 2.805 . S
C231 O213 1.263 1_556 S
C231 O214 1.252 . S
C231 C225 1.500 . S
C232 H194 0.930 . S
C232 C208 1.417 . S
C232 C233 1.329 . S
C233 C203 1.437 . S
C233 H204 0.929 . S
C233 C232 1.329 . S
H234 C207 0.931 . S
C235 O217 1.265 . S
C235 O218 1.242 1_556 S
C236 O221 1.261 . S
C236 O222 1.252 . S
C237 C240 1.394 . S
C237 C242 1.370 1_554 S
C237 C243 1.500 . S
C238 C241 1.383 . S
C238 C242 1.395 1_554 S
C239 C240 1.396 . S
C239 C241 1.365 . S
C239 H248 0.929 . S
C240 C237 1.394 . S
C240 C239 1.396 . S
C240 H249 0.930 . S
C241 C238 1.383 . S
C241 C239 1.365 . S
C241 H250 0.931 . S
C242 C237 1.370 1_556 S
C242 C238 1.395 1_556 S
C242 H251 0.931 . S
C243 Gd179 2.805 . S
C243 O219 1.263 1_554 S
C243 O220 1.252 . S
C243 C237 1.500 . S
H244 C227 0.929 . S
H245 C228 0.930 . S
H246 C229 0.931 . S
H247 C230 0.932 . S
H248 C239 0.929 . S
H249 C240 0.930 . S
H250 C241 0.931 . S
H251 C242 0.931 . S
C252 C253 1.363 1_455 S
C252 C258 1.379 . S
C252 N260 1.356 . S
C253 C252 1.363 1_655 S
C253 C259 1.363 . S
C254 C255 1.363 1_655 S
C254 C259 1.379 . S
C254 N261 1.356 . S
C255 C254 1.363 1_455 S
C255 C258 1.363 . S
N256 C258 1.356 . S
N256 H268 0.984 . S
N256 H269 0.985 . S
N257 C259 1.356 . S
N257 H262 0.984 . S
N257 H263 0.985 . S
C258 C252 1.379 . S
C258 C255 1.363 . S
C258 N256 1.356 . S
C259 C253 1.363 . S
C259 C254 1.379 . S
C259 N257 1.356 . S
N260 C252 1.356 . S
N260 H266 0.984 . S
N260 H267 0.984 . S
N261 C254 1.356 . S
N261 H264 0.984 . S
N261 H265 0.985 . S
H262 N257 0.984 . S
H263 N257 0.985 . S
H264 N261 0.984 . S
H265 N261 0.985 . S
H266 N260 0.984 . S
H267 N260 0.984 . S
H268 N256 0.984 . S
H269 N256 0.985 . S
C270 C271 1.363 1_565 S
C270 C276 1.379 . S
C270 N278 1.356 . S
C271 C270 1.363 1_545 S
C271 C277 1.363 . S
C272 C273 1.363 1_545 S
C272 C277 1.379 . S
C272 N279 1.356 . S
C273 C272 1.363 1_565 S
C273 C276 1.363 . S
N274 C276 1.356 . S
N274 H286 0.984 . S
N274 H287 0.985 . S
N275 C277 1.356 . S
N275 H280 0.984 . S
N275 H281 0.985 . S
C276 C270 1.379 . S
C276 C273 1.363 . S
C276 N274 1.356 . S
C277 C271 1.363 . S
C277 C272 1.379 . S
C277 N275 1.356 . S
N278 C270 1.356 . S
N278 H284 0.984 . S
N278 H285 0.984 . S
N279 C272 1.356 . S
N279 H282 0.984 . S
N279 H283 0.985 . S
H280 N275 0.984 . S
H281 N275 0.985 . S
H282 N279 0.984 . S
H283 N279 0.985 . S
H284 N278 0.984 . S
H285 N278 0.984 . S
H286 N274 0.984 . S
H287 N274 0.985 . S
C288 C289 1.363 . S
C288 C294 1.379 . S
C288 N296 1.356 . S
C289 C288 1.363 . S
C289 C295 1.363 . S
C290 C291 1.363 . S
C290 C295 1.379 . S
C290 N297 1.356 . S
C291 C290 1.363 . S
C291 C294 1.363 . S
N292 C294 1.356 . S
N292 H304 0.984 . S
N292 H305 0.985 . S
N293 C295 1.356 . S
N293 H298 0.984 . S
N293 H299 0.985 . S
C294 C288 1.379 . S
C294 C291 1.363 . S
C294 N292 1.356 . S
C295 C289 1.363 . S
C295 C290 1.379 . S
C295 N293 1.356 . S
N296 C288 1.356 . S
N296 H302 0.984 . S
N296 H303 0.984 . S
N297 C290 1.356 . S
N297 H300 0.984 . S
N297 H301 0.985 . S
H298 N293 0.984 . S
H299 N293 0.985 . S
H300 N297 0.984 . S
H301 N297 0.985 . S
H302 N296 0.984 . S
H303 N296 0.984 . S
H304 N292 0.984 . S
H305 N292 0.985 . S
C306 C307 1.363 1_556 S
C306 C312 1.379 . S
C306 N314 1.356 . S
C307 C306 1.363 1_554 S
C307 C313 1.363 . S
C308 C309 1.363 1_554 S
C308 C313 1.379 . S
C308 N315 1.356 . S
C309 C308 1.363 1_556 S
C309 C312 1.363 . S
N310 C312 1.356 . S
N310 H322 0.984 . S
N310 H323 0.985 . S
N311 C313 1.356 . S
N311 H316 0.984 . S
N311 H317 0.985 . S
C312 C306 1.379 . S
C312 C309 1.363 . S
C312 N310 1.356 . S
C313 C307 1.363 . S
C313 C308 1.379 . S
C313 N311 1.356 . S
N314 C306 1.356 . S
N314 H320 0.984 . S
N314 H321 0.984 . S
N315 C308 1.356 . S
N315 H318 0.984 . S
N315 H319 0.985 . S
H316 N311 0.984 . S
H317 N311 0.985 . S
H318 N315 0.984 . S
H319 N315 0.985 . S
H320 N314 0.984 . S
H321 N314 0.984 . S
H322 N310 0.984 . S
H323 N310 0.985 . S
C324 C325 1.363 1_554 S
C324 C330 1.379 . S
C324 N332 1.356 . S
C325 C324 1.363 1_556 S
C325 C331 1.363 . S
C326 C327 1.363 1_556 S
C326 C331 1.379 . S
C326 N333 1.356 . S
C327 C326 1.363 1_554 S
C327 C330 1.363 . S
N328 C330 1.356 . S
N328 H340 0.984 . S
N328 H341 0.985 . S
N329 C331 1.356 . S
N329 H334 0.984 . S
N329 H335 0.985 . S
C330 C324 1.379 . S
C330 C327 1.363 . S
C330 N328 1.356 . S
C331 C325 1.363 . S
C331 C326 1.379 . S
C331 N329 1.356 . S
N332 C324 1.356 . S
N332 H338 0.984 . S
N332 H339 0.984 . S
N333 C326 1.356 . S
N333 H336 0.984 . S
N333 H337 0.985 . S
H334 N329 0.984 . S
H335 N329 0.985 . S
H336 N333 0.984 . S
H337 N333 0.985 . S
H338 N332 0.984 . S
H339 N332 0.984 . S
H340 N328 0.984 . S
H341 N328 0.985 . S
C342 C343 1.363 1_554 S
C342 C348 1.379 . S
C342 N350 1.356 . S
C343 C342 1.363 1_556 S
C343 C349 1.363 . S
C344 C345 1.363 . S
C344 C349 1.379 . S
C344 N351 1.356 . S
C345 C344 1.363 . S
C345 C348 1.363 1_556 S
N346 C348 1.356 . S
N346 H358 0.984 . S
N346 H359 0.985 . S
N347 C349 1.356 . S
N347 H352 0.984 . S
N347 H353 0.985 . S
C348 C342 1.379 . S
C348 C345 1.363 1_554 S
C348 N346 1.356 . S
C349 C343 1.363 . S
C349 C344 1.379 . S
C349 N347 1.356 . S
N350 C342 1.356 . S
N350 H356 0.984 . S
N350 H357 0.984 . S
N351 C344 1.356 . S
N351 H354 0.984 . S
N351 H355 0.985 . S
H352 N347 0.984 . S
H353 N347 0.985 . S
H354 N351 0.984 . S
H355 N351 0.985 . S
H356 N350 0.984 . S
H357 N350 0.984 . S
H358 N346 0.984 . S
H359 N346 0.985 . S
C360 C361 1.363 . S
C360 C366 1.379 . S
C360 N368 1.356 . S
C361 C360 1.363 . S
C361 C367 1.363 1_556 S
C362 C363 1.363 . S
C362 C367 1.379 . S
C362 N369 1.356 . S
C363 C362 1.363 . S
C363 C366 1.363 1_554 S
N364 C366 1.356 . S
N364 H376 0.984 . S
N364 H377 0.985 . S
N365 C367 1.356 . S
N365 H370 0.984 . S
N365 H371 0.985 . S
C366 C360 1.379 . S
C366 C363 1.363 1_556 S
C366 N364 1.356 . S
C367 C361 1.363 1_554 S
C367 C362 1.379 . S
C367 N365 1.356 . S
N368 C360 1.356 . S
N368 H374 0.984 . S
N368 H375 0.984 . S
N369 C362 1.356 . S
N369 H372 0.984 . S
N369 H373 0.985 . S
H370 N365 0.984 . S
H371 N365 0.985 . S
H372 N369 0.984 . S
H373 N369 0.985 . S
H374 N368 0.984 . S
H375 N368 0.984 . S
H376 N364 0.984 . S
H377 N364 0.985 . S
C378 C379 1.363 1_554 S
C378 C384 1.379 . S
C378 N386 1.356 . S
C379 C378 1.363 1_556 S
C379 C385 1.363 . S
C380 C381 1.363 1_556 S
C380 C385 1.379 . S
C380 N387 1.356 . S
C381 C380 1.363 1_554 S
C381 C384 1.363 . S
N382 C384 1.356 . S
N382 H394 0.984 . S
N382 H395 0.985 . S
N383 C385 1.356 . S
N383 H388 0.984 . S
N383 H389 0.985 . S
C384 C378 1.379 . S
C384 C381 1.363 . S
C384 N382 1.356 . S
C385 C379 1.363 . S
C385 C380 1.379 . S
C385 N383 1.356 . S
N386 C378 1.356 . S
N386 H392 0.984 . S
N386 H393 0.984 . S
N387 C380 1.356 . S
N387 H390 0.984 . S
N387 H391 0.985 . S
H388 N383 0.984 . S
H389 N383 0.985 . S
H390 N387 0.984 . S
H391 N387 0.985 . S
H392 N386 0.984 . S
H393 N386 0.984 . S
H394 N382 0.984 . S
H395 N382 0.985 . S
C396 C397 1.363 . S
C396 C402 1.379 . S
C396 N404 1.356 . S
C397 C396 1.363 . S
C397 C403 1.363 1_554 S
C398 C399 1.363 1_556 S
C398 C403 1.379 . S
C398 N405 1.356 . S
C399 C398 1.363 1_554 S
C399 C402 1.363 . S
N400 C402 1.356 . S
N400 H412 0.984 . S
N400 H413 0.985 . S
N401 C403 1.356 . S
N401 H406 0.984 . S
N401 H407 0.985 . S
C402 C396 1.379 . S
C402 C399 1.363 . S
C402 N400 1.356 . S
C403 C397 1.363 1_556 S
C403 C398 1.379 . S
C403 N401 1.356 . S
N404 C396 1.356 . S
N404 H410 0.984 . S
N404 H411 0.984 . S
N405 C398 1.356 . S
N405 H408 0.984 . S
N405 H409 0.985 . S
H406 N401 0.984 . S
H407 N401 0.985 . S
H408 N405 0.984 . S
H409 N405 0.985 . S
H410 N404 0.984 . S
H411 N404 0.984 . S
H412 N400 0.984 . S
H413 N400 0.985 . S
C253 C68 1.488 . S
C255 C56 1.488 . S
C271 C152 1.534 . S
C273 C140 1.534 . S
C289 C224 1.474 . S
C291 C236 1.474 . S
C307 C55 2.373 . S
C309 C235 2.388 . S
C325 C154 0.839 . S
C327 C70 0.841 1_554 S
C343 C139 1.793 . S
C345 C238 1.687 1_556 S
C361 C67 2.373 . S
C363 C223 2.394 . S
C379 C58 0.841 1_556 S
C381 C142 0.840 . S
C397 C226 1.684 1_554 S
C399 C151 1.791 . S
