# Generated by pormake.
# Topology rac, (4)-cn, num edge types: 1
# Building blocks:
#     Node 0, Type 0, BuildingBlock: QUQFOY_clean_sbu_1, # of connection points: 4
#     Node 1, Type 0, BuildingBlock: QUQFOY_clean_sbu_1, # of connection points: 4
#     Node 2, Type 0, BuildingBlock: QUQFOY_clean_sbu_1, # of connection points: 4
#     Node 3, Type 0, BuildingBlock: QUQFOY_clean_sbu_1, # of connection points: 4
#     Node 4, Type 0, BuildingBlock: QUQFOY_clean_sbu_1, # of connection points: 4
#     Node 5, Type 0, BuildingBlock: QUQFOY_clean_sbu_1, # of connection points: 4
#     Node 6, Type 0, BuildingBlock: QUQFOY_clean_sbu_1, # of connection points: 4
#     Node 7, Type 0, BuildingBlock: QUQFOY_clean_sbu_1, # of connection points: 4
#     Edge 8, Type (0, 0), BuildingBlock: KIFKEQ_clean_linker_1, # of connection points: 2
#     Edge 9, Type (0, 0), BuildingBlock: KIFKEQ_clean_linker_1, # of connection points: 2
#     Edge 10, Type (0, 0), BuildingBlock: KIFKEQ_clean_linker_1, # of connection points: 2
#     Edge 11, Type (0, 0), BuildingBlock: KIFKEQ_clean_linker_1, # of connection points: 2
#     Edge 12, Type (0, 0), BuildingBlock: KIFKEQ_clean_linker_1, # of connection points: 2
#     Edge 13, Type (0, 0), BuildingBlock: KIFKEQ_clean_linker_1, # of connection points: 2
#     Edge 14, Type (0, 0), BuildingBlock: KIFKEQ_clean_linker_1, # of connection points: 2
#     Edge 15, Type (0, 0), BuildingBlock: KIFKEQ_clean_linker_1, # of connection points: 2
#     Edge 16, Type (0, 0), BuildingBlock: KIFKEQ_clean_linker_1, # of connection points: 2
#     Edge 17, Type (0, 0), BuildingBlock: KIFKEQ_clean_linker_1, # of connection points: 2
#     Edge 18, Type (0, 0), BuildingBlock: KIFKEQ_clean_linker_1, # of connection points: 2
#     Edge 19, Type (0, 0), BuildingBlock: KIFKEQ_clean_linker_1, # of connection points: 2
#     Edge 20, Type (0, 0), BuildingBlock: KIFKEQ_clean_linker_1, # of connection points: 2
#     Edge 21, Type (0, 0), BuildingBlock: KIFKEQ_clean_linker_1, # of connection points: 2
#     Edge 22, Type (0, 0), BuildingBlock: KIFKEQ_clean_linker_1, # of connection points: 2
#     Edge 23, Type (0, 0), BuildingBlock: KIFKEQ_clean_linker_1, # of connection points: 2
# Relax obj value: 0.259
# Max RMSD: 0.150
# Mean RMSD: 0.150
data_MOF--net-rac--node1-QUQFOY_clean_sbu_1--edge1-KIFKEQ_clean_linker_1
_symmetry_space_group_name_H-M    P1
_symmetry_Int_Tables_number       1
_symmetry_cell_setting            triclinic
loop_
_symmetry_equiv_pos_as_xyz
'x, y, z'
_cell_length_a     41.678754
_cell_length_b     20.746575
_cell_length_c     47.38291
_cell_angle_alpha  90.570275
_cell_angle_beta   89.807485
_cell_angle_gamma 90.118597
loop_
_atom_site_label
_atom_site_type_symbol
_atom_site_fract_x
_atom_site_fract_y
_atom_site_fract_z
_atom_type_partial_charge
O0 O 0.36483 0.30759 0.0498 0.0
Cd1 Cd 0.4036 0.24925 0.04634 0.0
Cd2 Cd 0.39358 0.22755 0.10322 0.0
O3 O 0.3599 0.29729 0.09594 0.0
O4 O 0.43126 0.28731 0.01613 0.0
O5 O 0.44386 0.28956 0.06159 0.0
C6 C 0.44962 0.30875 0.03612 0.0
C7 C 0.40953 0.22874 0.15112 0.0
C8 C 0.35074 0.32126 0.0728 0.0
C9 C 0.37826 0.11928 0.06109 0.0
O10 O 0.38042 0.13952 0.08645 0.0
O11 O 0.38903 0.15337 0.04086 0.0
O12 O 0.38169 0.20976 0.14314 0.0
O13 O 0.42953 0.24552 0.13173 0.0
O14 O 0.16931 0.66176 0.04657 0.0
Cd15 Cd 0.13829 0.7362 0.04237 0.0
Cd16 Cd 0.14562 0.74076 0.10035 0.0
O17 O 0.15463 0.64586 0.09061 0.0
O18 O 0.10965 0.70938 0.01066 0.0
O19 O 0.0946 0.71051 0.0557 0.0
C20 C 0.08913 0.69263 0.02985 0.0
C21 C 0.13478 0.75198 0.14926 0.0
C22 C 0.1686 0.6266 0.06826 0.0
C23 C 0.18176 0.83598 0.06106 0.0
O24 O 0.17854 0.80622 0.08429 0.0
O25 O 0.16257 0.8243 0.0407 0.0
O26 O 0.16279 0.73907 0.13953 0.0
O27 O 0.11226 0.76098 0.13115 0.0
O28 O 0.37242 0.17085 0.45459 0.0
Cd29 Cd 0.40391 0.24309 0.46356 0.0
Cd30 Cd 0.39363 0.26849 0.40644 0.0
O31 O 0.3786 0.17452 0.40846 0.0
O32 O 0.42915 0.20814 0.49579 0.0
O33 O 0.44903 0.21962 0.45268 0.0
C34 C 0.45188 0.19642 0.47783 0.0
C35 C 0.40759 0.29315 0.3594 0.0
C36 C 0.36806 0.14651 0.43027 0.0
C37 C 0.36231 0.35362 0.45302 0.0
O38 O 0.36406 0.33338 0.42762 0.0
O39 O 0.38064 0.33039 0.47186 0.0
O40 O 0.37841 0.28641 0.36752 0.0
O41 O 0.4296 0.28895 0.37833 0.0
O42 O 0.17391 0.82734 0.45059 0.0
Cd43 Cd 0.13907 0.76499 0.46277 0.0
Cd44 Cd 0.14812 0.72174 0.40528 0.0
O45 O 0.18045 0.7963 0.4063 0.0
O46 O 0.12195 0.81006 0.4973 0.0
O47 O 0.09349 0.79684 0.45843 0.0
C48 C 0.09645 0.82329 0.48313 0.0
C49 C 0.12946 0.70581 0.35871 0.0
C50 C 0.18779 0.83274 0.42692 0.0
C51 C 0.16754 0.63304 0.45388 0.0
O52 O 0.16297 0.64226 0.42766 0.0
O53 O 0.15818 0.67454 0.47221 0.0
O54 O 0.15762 0.68877 0.36649 0.0
O55 O 0.11059 0.72944 0.37777 0.0
O56 O 0.6737 0.67119 0.97159 0.0
Cd57 Cd 0.6396 0.7396 0.97531 0.0
Cd58 Cd 0.64689 0.73907 0.91659 0.0
O59 O 0.65822 0.6465 0.92861 0.0
O60 O 0.6142 0.71168 0.0088 0.0
O61 O 0.59567 0.70754 0.96495 0.0
C62 C 0.59259 0.69158 0.99121 0.0
C63 C 0.63802 0.73855 0.86736 0.0
C64 C 0.6737 0.63276 0.95073 0.0
C65 C 0.67778 0.84607 0.95462 0.0
O66 O 0.67563 0.81464 0.93143 0.0
O67 O 0.66054 0.83029 0.97578 0.0
O68 O 0.66576 0.72919 0.87815 0.0
O69 O 0.61471 0.75156 0.88443 0.0
O70 O 0.86623 0.29948 0.96235 0.0
Cd71 Cd 0.90567 0.24375 0.96597 0.0
Cd72 Cd 0.89486 0.2241 0.90871 0.0
O73 O 0.86422 0.30018 0.9159 0.0
O74 O 0.92821 0.28365 0.99906 0.0
O75 O 0.94762 0.28617 0.95552 0.0
C76 C 0.94918 0.30593 0.9815 0.0
C77 C 0.91229 0.22195 0.86116 0.0
C78 C 0.85379 0.31926 0.93973 0.0
C79 C 0.87806 0.11691 0.95101 0.0
O80 O 0.87855 0.13855 0.92594 0.0
O81 O 0.89143 0.14842 0.97107 0.0
O82 O 0.88355 0.20724 0.86847 0.0
O83 O 0.93227 0.2355 0.88107 0.0
O84 O 0.67563 0.85264 0.55704 0.0
Cd85 Cd 0.64555 0.78002 0.54597 0.0
Cd86 Cd 0.65306 0.75398 0.60667 0.0
O87 O 0.67001 0.84659 0.60323 0.0
O88 O 0.62612 0.81543 0.51087 0.0
O89 O 0.59882 0.80278 0.55059 0.0
C90 C 0.60046 0.82663 0.52548 0.0
C91 C 0.64331 0.73396 0.65506 0.0
C92 C 0.68022 0.87556 0.58155 0.0
C93 C 0.68357 0.66424 0.56022 0.0
O94 O 0.67893 0.68258 0.58566 0.0
O95 O 0.66965 0.69286 0.53991 0.0
O96 O 0.67161 0.73973 0.64474 0.0
O97 O 0.61966 0.73649 0.63765 0.0
O98 O 0.87286 0.20048 0.55964 0.0
Cd99 Cd 0.90955 0.26178 0.55121 0.0
Cd100 Cd 0.90049 0.2981 0.60819 0.0
O101 O 0.86872 0.22269 0.60512 0.0
O102 O 0.93276 0.21994 0.51876 0.0
O103 O 0.953 0.22753 0.56182 0.0
C104 C 0.95485 0.20402 0.53645 0.0
C105 C 0.91842 0.3087 0.65529 0.0
C106 C 0.85991 0.19099 0.58347 0.0
C107 C 0.88173 0.39284 0.56174 0.0
O108 O 0.88503 0.3799 0.58778 0.0
O109 O 0.89237 0.35419 0.54278 0.0
O110 O 0.89009 0.32497 0.64768 0.0
O111 O 0.93786 0.28917 0.6358 0.0
H112 H 0.36006 0.0272 0.09826 0.0
H113 H 0.34438 0.08886 0.0127 0.0
H114 H 0.31343 0.95846 0.09552 0.0
H115 H 0.29792 0.01659 0.00928 0.0
H116 H 0.19299 0.94497 0.02843 0.0
H117 H 0.24353 0.00606 0.02483 0.0
H118 H 0.28952 0.86719 0.0787 0.0
H119 H 0.23938 0.8101 0.08362 0.0
C120 C 0.34729 0.02431 0.0784 0.0
C121 C 0.35621 0.06375 0.05573 0.0
C122 C 0.32029 0.98446 0.07675 0.0
C123 C 0.30135 0.98165 0.05217 0.0
C124 C 0.31142 0.01808 0.02875 0.0
C125 C 0.33853 0.05861 0.0305 0.0
C126 C 0.21397 0.92813 0.03956 0.0
C127 C 0.21186 0.87374 0.05694 0.0
C128 C 0.24309 0.96267 0.03732 0.0
C129 C 0.27085 0.94261 0.05192 0.0
C130 C 0.26874 0.8861 0.06796 0.0
C131 C 0.23977 0.85295 0.07073 0.0
H132 H 0.18037 0.52295 0.42428 0.0
H133 H 0.20781 0.62699 0.49976 0.0
H134 H 0.22668 0.45356 0.42899 0.0
H135 H 0.25434 0.55599 0.50495 0.0
H136 H 0.35643 0.47687 0.47588 0.0
H137 H 0.30627 0.5384 0.48157 0.0
H138 H 0.25223 0.37128 0.45416 0.0
H139 H 0.30195 0.31191 0.44754 0.0
C140 C 0.19575 0.52969 0.44247 0.0
C141 C 0.19014 0.58056 0.46166 0.0
C142 C 0.2225 0.48971 0.44522 0.0
C143 C 0.24466 0.49914 0.46729 0.0
C144 C 0.23812 0.54774 0.48747 0.0
C145 C 0.21108 0.58777 0.48478 0.0
C146 C 0.33371 0.45345 0.47154 0.0
C147 C 0.33301 0.38995 0.46104 0.0
C148 C 0.30492 0.48844 0.47486 0.0
C149 C 0.27501 0.46028 0.4679 0.0
C150 C 0.27464 0.39538 0.45905 0.0
C151 C 0.30317 0.36108 0.45543 0.0
H152 H 0.71096 0.88124 1.00257 0.0
H153 H 0.7065 0.91507 0.91298 0.0
H154 H 0.76216 0.93923 1.00483 0.0
H155 H 0.75669 0.97456 0.91526 0.0
H156 H 0.86034 0.01753 0.91632 0.0
H157 H 0.81171 0.95297 0.91977 0.0
H158 H 0.79145 0.03822 1.00145 0.0
H159 H 0.84101 0.10095 0.99835 0.0
C160 C 0.72041 0.90267 0.98351 0.0
C161 C 0.70459 0.89334 0.95758 0.0
C162 C 0.74994 0.93563 0.98475 0.0
C163 C 0.76427 0.96036 0.9601 0.0
C164 C 0.74724 0.95435 0.93457 0.0
C165 C 0.71805 0.92102 0.9333 0.0
C166 C 0.84608 0.0209 0.93544 0.0
C167 C 0.8547 0.06439 0.95705 0.0
C168 C 0.81775 0.98474 0.93723 0.0
C169 C 0.79682 0.99173 0.96049 0.0
C170 C 0.80674 0.03148 0.98315 0.0
C171 C 0.83541 0.06717 0.98149 0.0
H172 H 0.71854 0.64179 0.5113 0.0
H173 H 0.70905 0.58037 0.59775 0.0
H174 H 0.76921 0.58176 0.50725 0.0
H175 H 0.75911 0.52137 0.5937 0.0
H176 H 0.86451 0.49646 0.59412 0.0
H177 H 0.81581 0.56001 0.58985 0.0
H178 H 0.79559 0.46849 0.5097 0.0
H179 H 0.84475 0.40444 0.5139 0.0
C180 C 0.72673 0.61426 0.52917 0.0
C181 C 0.70972 0.61647 0.55493 0.0
C182 C 0.75591 0.58027 0.52691 0.0
C183 C 0.7687 0.5483 0.55041 0.0
C184 C 0.7505 0.54703 0.57543 0.0
C185 C 0.72151 0.58042 0.57765 0.0
C186 C 0.85027 0.49104 0.57515 0.0
C187 C 0.85857 0.4448 0.55449 0.0
C188 C 0.82208 0.52701 0.57286 0.0
C189 C 0.80127 0.51798 0.54983 0.0
C190 C 0.81096 0.47628 0.52781 0.0
C191 C 0.83933 0.43995 0.53013 0.0
H192 H 0.37458 0.17994 0.19412 0.0
H193 H 0.45981 0.2924 0.17732 0.0
H194 H 0.37966 0.20333 0.24415 0.0
H195 H 0.46492 0.31569 0.22824 0.0
H196 H 0.46385 0.26498 0.33109 0.0
H197 H 0.47003 0.25099 0.27968 0.0
H198 H 0.37314 0.31818 0.26798 0.0
H199 H 0.36691 0.33204 0.31867 0.0
C200 C 0.39469 0.20906 0.20113 0.0
C201 C 0.41653 0.23508 0.18166 0.0
C202 C 0.39752 0.22256 0.22983 0.0
C203 C 0.4223 0.26231 0.23993 0.0
C204 C 0.44551 0.28514 0.22087 0.0
C205 C 0.44259 0.27175 0.19183 0.0
C206 C 0.44427 0.27849 0.31741 0.0
C207 C 0.41473 0.29869 0.3289 0.0
C208 C 0.44781 0.27038 0.28807 0.0
C209 C 0.42182 0.28235 0.27004 0.0
C210 C 0.39334 0.30754 0.28148 0.0
C211 C 0.38983 0.3156 0.31053 0.0
H212 H 0.156 0.62961 0.31836 0.0
H213 H 0.08522 0.77917 0.33039 0.0
H214 H 0.15241 0.64208 0.26753 0.0
H215 H 0.08192 0.79232 0.27894 0.0
H216 H 0.07719 0.75144 0.17847 0.0
H217 H 0.06985 0.73666 0.22962 0.0
H218 H 0.17265 0.73749 0.24037 0.0
H219 H 0.17998 0.75181 0.19009 0.0
C220 C 0.13919 0.66438 0.31009 0.0
C221 C 0.12122 0.704 0.32836 0.0
C222 C 0.13725 0.67175 0.28097 0.0
C223 C 0.11748 0.71928 0.26931 0.0
C224 C 0.09745 0.75548 0.28738 0.0
C225 C 0.0993 0.74785 0.31678 0.0
C226 C 0.09811 0.74933 0.19191 0.0
C227 C 0.12916 0.75197 0.18018 0.0
C228 C 0.09391 0.74079 0.22111 0.0
C229 C 0.1207 0.73441 0.23884 0.0
C230 C 0.15155 0.74049 0.22716 0.0
C231 C 0.15572 0.74909 0.19829 0.0
H232 H 0.67391 0.6658 0.8321 0.0
H233 H 0.59239 0.79382 0.83305 0.0
H234 H 0.67107 0.65764 0.78117 0.0
H235 H 0.59032 0.78799 0.78119 0.0
H236 H 0.58699 0.72557 0.68599 0.0
H237 H 0.5818 0.72186 0.73769 0.0
H238 H 0.68504 0.7305 0.74504 0.0
H239 H 0.69017 0.73202 0.69437 0.0
C240 C 0.65539 0.69254 0.82133 0.0
C241 C 0.63376 0.73146 0.83651 0.0
C242 C 0.6538 0.688 0.79205 0.0
C243 C 0.63097 0.72338 0.77695 0.0
C244 C 0.60822 0.7601 0.79217 0.0
C245 C 0.60949 0.76378 0.8218 0.0
C246 C 0.60848 0.72586 0.69878 0.0
C247 C 0.63898 0.72846 0.68602 0.0
C248 C 0.60551 0.72428 0.72835 0.0
C249 C 0.63301 0.72515 0.74556 0.0
C250 C 0.66333 0.72808 0.73257 0.0
C251 C 0.66627 0.72932 0.70334 0.0
H252 H 0.88515 0.36367 0.69841 0.0
H253 H 0.96871 0.24657 0.68116 0.0
H254 H 0.88992 0.34097 0.74845 0.0
H255 H 0.97354 0.22434 0.73193 0.0
H256 H 0.96767 0.2702 0.8369 0.0
H257 H 0.97598 0.29525 0.78664 0.0
H258 H 0.88312 0.21459 0.76725 0.0
H259 H 0.87486 0.18894 0.81663 0.0
C260 C 0.90501 0.33425 0.70535 0.0
C261 C 0.92629 0.30618 0.68574 0.0
C262 C 0.9077 0.32132 0.73403 0.0
C263 C 0.93184 0.28038 0.74388 0.0
C264 C 0.95476 0.25617 0.72474 0.0
C265 C 0.95198 0.26895 0.69577 0.0
C266 C 0.94939 0.25663 0.82176 0.0
C267 C 0.92045 0.22824 0.83082 0.0
C268 C 0.95417 0.27097 0.7931 0.0
C269 C 0.92997 0.25751 0.77332 0.0
C270 C 0.90196 0.22604 0.7822 0.0
C271 C 0.89731 0.21135 0.81052 0.0
H272 H 0.47796 0.39059 0.07423 0.0
H273 H 0.47398 0.34698 0.98509 0.0
H274 H 0.50964 0.48647 0.06459 0.0
H275 H 0.50717 0.44102 0.97536 0.0
H276 H 0.54103 0.64471 0.96123 0.0
H277 H 0.50715 0.55262 0.97276 0.0
H278 H 0.55796 0.53098 0.0515 0.0
H279 H 0.59038 0.62479 0.04058 0.0
C280 C 0.48457 0.40054 0.05257 0.0
C281 C 0.47346 0.36076 0.03046 0.0
C282 C 0.50284 0.45587 0.04697 0.0
C283 C 0.51098 0.47269 0.01907 0.0
C284 C 0.50083 0.43122 0.99706 0.0
C285 C 0.48213 0.37645 1.00266 0.0
C286 C 0.54444 0.62111 0.98128 0.0
C287 C 0.56837 0.64264 1.0 0.0
C288 C 0.52532 0.5674 0.98776 0.0
C289 C 0.52989 0.53292 0.01296 0.0
C290 C 0.55318 0.55608 0.03205 0.0
C291 C 0.57193 0.61028 0.02576 0.0
H292 H 0.05618 0.61656 0.06674 0.0
H293 H 0.06629 0.65541 0.97787 0.0
H294 H 0.02404 0.52192 0.05587 0.0
H295 H 0.03251 0.56253 0.96681 0.0
H296 H 1.00065 0.35568 0.95234 0.0
H297 H 0.03243 0.45093 0.96429 0.0
H298 H 0.97697 0.47604 0.0409 0.0
H299 H 0.94674 0.37917 0.02965 0.0
C300 C 0.05067 0.60612 0.04484 0.0
C301 C 0.06381 0.64398 0.02321 0.0
C302 C 0.03214 0.55138 0.03852 0.0
C303 C 0.02569 0.53324 0.01033 0.0
C304 C 0.03752 0.57331 0.98875 0.0
C305 C 0.05652 0.62749 0.99509 0.0
C306 C 0.99569 0.38097 0.97198 0.0
C307 C 0.97128 0.35921 0.99011 0.0
C308 C 1.01362 0.43643 0.9787 0.0
C309 C 1.00729 0.4725 1.00353 0.0
C310 C 0.98316 0.44972 0.02183 0.0
C311 C 0.96565 0.39378 0.01533 0.0
H312 H 0.54241 0.8588 0.54949 0.0
H313 H 0.60496 0.90558 0.47983 0.0
H314 H 0.5078 0.94905 0.53746 0.0
H315 H 0.57156 -0.00256 0.46865 0.0
H316 H 0.49061 0.13042 0.44093 0.0
H317 H 0.52437 0.03795 0.45078 0.0
H318 H 0.50459 0.06101 0.53994 0.0
H319 H 0.46949 0.15156 0.52974 0.0
C320 C 0.54862 0.88791 0.53142 0.0
C321 C 0.57644 0.87448 0.51559 0.0
C322 C 0.52902 0.94054 0.52473 0.0
C323 C 0.53692 0.9819 0.50227 0.0
C324 C 0.56423 0.96686 0.48589 0.0
C325 C 0.58353 0.9138 0.49234 0.0
C326 C 0.49392 0.1165 0.4627 0.0
C327 C 0.47735 0.14874 0.48453 0.0
C328 C 0.51334 0.06307 0.46841 0.0
C329 C 0.51715 0.04074 0.49621 0.0
C330 C 0.5017 0.07513 0.51817 0.0
C331 C 0.4819 0.12797 0.51239 0.0
H332 H 0.99269 0.13417 0.57199 0.0
H333 H 0.97006 0.15678 0.48385 0.0
H334 H 0.02494 0.03979 0.56053 0.0
H335 H 1.00356 0.0642 0.47206 0.0
H336 H 0.03878 0.85961 0.46016 0.0
H337 H 1.00565 0.95191 0.47349 0.0
H338 H 0.07156 -0.00196 0.54103 0.0
H339 H 0.10355 0.9043 0.52852 0.0
C340 C 0.99525 0.11998 0.55004 0.0
C341 C 0.97878 0.15337 0.52886 0.0
C342 C 1.01383 0.06553 0.54339 0.0
C343 C 1.01684 0.04322 0.51529 0.0
C344 C 1.0013 0.07838 0.49402 0.0
C345 C 0.98239 0.13231 0.50073 0.0
C346 C 0.04584 0.88882 0.47817 0.0
C347 C 0.0738 0.8741 0.4933 0.0
C348 C 0.02706 0.94254 0.48563 0.0
C349 C 0.03592 0.98366 0.50822 0.0
C350 C 0.06349 0.96763 0.52376 0.0
C351 C 0.08199 0.91356 0.51652 0.0
H352 H 0.18905 0.55428 0.02351 0.0
H353 H 0.19248 0.56795 0.11453 0.0
H354 H 0.22982 0.47027 0.0243 0.0
H355 H 0.23424 0.48699 0.11532 0.0
H356 H 0.30144 0.31971 0.1103 0.0
H357 H 0.25172 0.38067 0.1081 0.0
H358 H 0.28573 0.47435 0.03243 0.0
H359 H 0.3346 0.4107 0.03389 0.0
C360 C 0.19826 0.53864 0.04367 0.0
C361 C 0.18805 0.56797 0.06891 0.0
C362 C 0.22175 0.49106 0.04413 0.0
C363 C 0.23578 0.47309 0.06981 0.0
C364 C 0.22383 0.49933 0.09518 0.0
C365 C 0.19993 0.54597 0.09474 0.0
C366 C 0.29822 0.35354 0.09327 0.0
C367 C 0.32182 0.3611 0.07236 0.0
C368 C 0.26976 0.3883 0.09197 0.0
C369 C 0.2647 0.43213 0.07004 0.0
C370 C 0.2885 0.4398 0.04922 0.0
C371 C 0.31668 0.4041 0.05023 0.0
H372 H 0.35039 0.06283 0.47127 0.0
H373 H 0.33906 0.10192 0.38236 0.0
H374 H 0.30853 0.9812 0.46824 0.0
H375 H 0.29655 0.02128 0.37957 0.0
H376 H 0.23294 0.83842 0.38498 0.0
H377 H 0.28093 0.90635 0.38422 0.0
H378 H 0.25065 -0.00247 0.46225 0.0
H379 H 0.20332 0.92943 0.46335 0.0
C380 C 0.33924 0.05337 0.45102 0.0
C381 C 0.34747 0.08945 0.42719 0.0
C382 C 0.31521 0.00695 0.44932 0.0
C383 C 0.29886 -0.00371 0.42384 0.0
C384 C 0.30879 0.02873 0.39948 0.0
C385 C 0.33305 0.07493 0.40112 0.0
C386 C 0.23646 0.87346 0.40179 0.0
C387 C 0.21458 0.87837 0.42435 0.0
C388 C 0.26391 0.91206 0.40138 0.0
C389 C 0.26974 0.95603 0.42348 0.0
C390 C 0.24719 0.9626 0.44538 0.0
C391 C 0.21993 0.92406 0.44585 0.0
H392 H 0.68102 0.54125 0.90931 0.0
H393 H 0.71458 0.59753 0.99231 0.0
H394 H 0.72217 0.45796 0.90692 0.0
H395 H 0.75612 0.51639 0.98946 0.0
H396 H 0.82766 0.39191 0.89793 0.0
H397 H 0.78008 0.45987 0.90132 0.0
H398 H 0.76733 0.40388 0.98833 0.0
H399 H 0.81537 0.33837 0.98529 0.0
C400 C 0.6969 0.53534 0.92716 0.0
C401 C 0.69485 0.57628 0.95088 0.0
C402 C 0.72058 0.48809 0.92567 0.0
C403 C 0.74255 0.4813 0.94783 0.0
C404 C 0.73934 0.52002 0.97214 0.0
C405 C 0.71561 0.56681 0.97372 0.0
C406 C 0.81468 0.3944 0.91774 0.0
C407 C 0.82541 0.36078 0.94143 0.0
C408 C 0.78728 0.43262 0.91962 0.0
C409 C 0.77003 0.43707 0.94511 0.0
C410 C 0.78044 0.40217 0.96856 0.0
C411 C 0.80798 0.36478 0.9668 0.0
H412 H 0.71303 0.914 0.62846 0.0
H413 H 0.69384 0.96521 0.54191 0.0
H414 H 0.7553 0.99521 0.63061 0.0
H415 H 0.73538 0.04762 0.54436 0.0
H416 H 0.84049 0.10363 0.54398 0.0
H417 H 0.79336 0.0349 0.5456 0.0
H418 H 0.77008 0.10948 0.62867 0.0
H419 H 0.8179 0.17747 0.6274 0.0
C420 C 0.71726 0.94383 0.61018 0.0
C421 C 0.70069 0.93266 0.58483 0.0
C422 C 0.7414 0.99034 0.61143 0.0
C423 C 0.74901 0.02655 0.58744 0.0
C424 C 0.73054 0.01899 0.5629 0.0
C425 C 0.70669 0.97217 0.56155 0.0
C426 C 0.82542 0.10522 0.56265 0.0
C427 C 0.83279 0.14599 0.58552 0.0
C428 C 0.79825 0.06638 0.56346 0.0
C429 C 0.77778 0.06787 0.58705 0.0
C430 C 0.78549 0.10749 0.61024 0.0
C431 C 0.81285 0.14622 0.6095 0.0
loop_
_geom_bond_atom_site_label_1
_geom_bond_atom_site_label_2
_geom_bond_distance
_geom_bond_site_symmetry_2
_ccdc_geom_bond_type
O0 Cd1 2.223 . S
O0 C8 1.315 . S
Cd1 O0 2.223 . S
Cd1 O4 2.297 . S
Cd1 O5 2.439 . S
Cd1 O11 2.240 . S
Cd2 O3 2.240 . S
Cd2 O10 2.223 . S
Cd2 O12 2.297 . S
Cd2 O13 2.439 . S
O3 Cd2 2.240 . S
O3 C8 1.279 . S
O4 Cd1 2.297 . S
O4 C6 1.247 . S
O5 Cd1 2.439 . S
O5 C6 1.208 . S
C6 O4 1.247 . S
C6 O5 1.208 . S
C7 O12 1.247 . S
C7 O13 1.208 . S
C8 O0 1.315 . S
C8 O3 1.279 . S
C9 O10 1.315 . S
C9 O11 1.279 . S
O10 Cd2 2.223 . S
O10 C9 1.315 . S
O11 Cd1 2.240 . S
O11 C9 1.279 . S
O12 Cd2 2.297 . S
O12 C7 1.247 . S
O13 Cd2 2.439 . S
O13 C7 1.208 . S
O14 Cd15 2.223 . S
O14 C22 1.315 . S
Cd15 O14 2.223 . S
Cd15 O18 2.297 . S
Cd15 O19 2.439 . S
Cd15 O25 2.240 . S
Cd16 O17 2.240 . S
Cd16 O24 2.223 . S
Cd16 O26 2.297 . S
Cd16 O27 2.439 . S
O17 Cd16 2.240 . S
O17 C22 1.279 . S
O18 Cd15 2.297 . S
O18 C20 1.247 . S
O19 Cd15 2.439 . S
O19 C20 1.208 . S
C20 O18 1.247 . S
C20 O19 1.208 . S
C21 O26 1.247 . S
C21 O27 1.208 . S
C22 O14 1.315 . S
C22 O17 1.279 . S
C23 O24 1.315 . S
C23 O25 1.279 . S
O24 Cd16 2.223 . S
O24 C23 1.315 . S
O25 Cd15 2.240 . S
O25 C23 1.279 . S
O26 Cd16 2.297 . S
O26 C21 1.247 . S
O27 Cd16 2.439 . S
O27 C21 1.208 . S
O28 Cd29 2.223 . S
O28 C36 1.315 . S
Cd29 O28 2.223 . S
Cd29 O32 2.297 . S
Cd29 O33 2.439 . S
Cd29 O39 2.240 . S
Cd30 O31 2.240 . S
Cd30 O38 2.223 . S
Cd30 O40 2.297 . S
Cd30 O41 2.439 . S
O31 Cd30 2.240 . S
O31 C36 1.279 . S
O32 Cd29 2.297 . S
O32 C34 1.247 . S
O33 Cd29 2.439 . S
O33 C34 1.208 . S
C34 O32 1.247 . S
C34 O33 1.208 . S
C35 O40 1.247 . S
C35 O41 1.208 . S
C36 O28 1.315 . S
C36 O31 1.279 . S
C37 O38 1.315 . S
C37 O39 1.279 . S
O38 Cd30 2.223 . S
O38 C37 1.315 . S
O39 Cd29 2.240 . S
O39 C37 1.279 . S
O40 Cd30 2.297 . S
O40 C35 1.247 . S
O41 Cd30 2.439 . S
O41 C35 1.208 . S
O42 Cd43 2.223 . S
O42 C50 1.315 . S
Cd43 O42 2.223 . S
Cd43 O46 2.297 . S
Cd43 O47 2.439 . S
Cd43 O53 2.240 . S
Cd44 O45 2.240 . S
Cd44 O52 2.223 . S
Cd44 O54 2.297 . S
Cd44 O55 2.439 . S
O45 Cd44 2.240 . S
O45 C50 1.279 . S
O46 Cd43 2.297 . S
O46 C48 1.247 . S
O47 Cd43 2.439 . S
O47 C48 1.208 . S
C48 O46 1.247 . S
C48 O47 1.208 . S
C49 O54 1.247 . S
C49 O55 1.208 . S
C50 O42 1.315 . S
C50 O45 1.279 . S
C51 O52 1.315 . S
C51 O53 1.279 . S
O52 Cd44 2.223 . S
O52 C51 1.315 . S
O53 Cd43 2.240 . S
O53 C51 1.279 . S
O54 Cd44 2.297 . S
O54 C49 1.247 . S
O55 Cd44 2.439 . S
O55 C49 1.208 . S
O56 Cd57 2.223 . S
O56 C64 1.315 . S
Cd57 O56 2.223 . S
Cd57 O60 2.297 . S
Cd57 O61 2.439 . S
Cd57 O67 2.240 . S
Cd58 O59 2.240 . S
Cd58 O66 2.223 . S
Cd58 O68 2.297 . S
Cd58 O69 2.439 . S
O59 Cd58 2.240 . S
O59 C64 1.279 . S
O60 Cd57 2.297 . S
O60 C62 1.247 . S
O61 Cd57 2.439 . S
O61 C62 1.208 . S
C62 O60 1.247 . S
C62 O61 1.208 . S
C63 O68 1.247 . S
C63 O69 1.208 . S
C64 O56 1.315 . S
C64 O59 1.279 . S
C65 O66 1.315 . S
C65 O67 1.279 . S
O66 Cd58 2.223 . S
O66 C65 1.315 . S
O67 Cd57 2.240 . S
O67 C65 1.279 . S
O68 Cd58 2.297 . S
O68 C63 1.247 . S
O69 Cd58 2.439 . S
O69 C63 1.208 . S
O70 Cd71 2.223 . S
O70 C78 1.315 . S
Cd71 O70 2.223 . S
Cd71 O74 2.297 . S
Cd71 O75 2.439 . S
Cd71 O81 2.240 . S
Cd72 O73 2.240 . S
Cd72 O80 2.223 . S
Cd72 O82 2.297 . S
Cd72 O83 2.439 . S
O73 Cd72 2.240 . S
O73 C78 1.279 . S
O74 Cd71 2.297 . S
O74 C76 1.247 . S
O75 Cd71 2.439 . S
O75 C76 1.208 . S
C76 O74 1.247 . S
C76 O75 1.208 . S
C77 O82 1.247 . S
C77 O83 1.208 . S
C78 O70 1.315 . S
C78 O73 1.279 . S
C79 O80 1.315 . S
C79 O81 1.279 . S
O80 Cd72 2.223 . S
O80 C79 1.315 . S
O81 Cd71 2.240 . S
O81 C79 1.279 . S
O82 Cd72 2.297 . S
O82 C77 1.247 . S
O83 Cd72 2.439 . S
O83 C77 1.208 . S
O84 Cd85 2.223 . S
O84 C92 1.315 . S
Cd85 O84 2.223 . S
Cd85 O88 2.297 . S
Cd85 O89 2.439 . S
Cd85 O95 2.240 . S
Cd86 O87 2.240 . S
Cd86 O94 2.223 . S
Cd86 O96 2.297 . S
Cd86 O97 2.439 . S
O87 Cd86 2.240 . S
O87 C92 1.279 . S
O88 Cd85 2.297 . S
O88 C90 1.247 . S
O89 Cd85 2.439 . S
O89 C90 1.208 . S
C90 O88 1.247 . S
C90 O89 1.208 . S
C91 O96 1.247 . S
C91 O97 1.208 . S
C92 O84 1.315 . S
C92 O87 1.279 . S
C93 O94 1.315 . S
C93 O95 1.279 . S
O94 Cd86 2.223 . S
O94 C93 1.315 . S
O95 Cd85 2.240 . S
O95 C93 1.279 . S
O96 Cd86 2.297 . S
O96 C91 1.247 . S
O97 Cd86 2.439 . S
O97 C91 1.208 . S
O98 Cd99 2.223 . S
O98 C106 1.315 . S
Cd99 O98 2.223 . S
Cd99 O102 2.297 . S
Cd99 O103 2.439 . S
Cd99 O109 2.240 . S
Cd100 O101 2.240 . S
Cd100 O108 2.223 . S
Cd100 O110 2.297 . S
Cd100 O111 2.439 . S
O101 Cd100 2.240 . S
O101 C106 1.279 . S
O102 Cd99 2.297 . S
O102 C104 1.247 . S
O103 Cd99 2.439 . S
O103 C104 1.208 . S
C104 O102 1.247 . S
C104 O103 1.208 . S
C105 O110 1.247 . S
C105 O111 1.208 . S
C106 O98 1.315 . S
C106 O101 1.279 . S
C107 O108 1.315 . S
C107 O109 1.279 . S
O108 Cd100 2.223 . S
O108 C107 1.315 . S
O109 Cd99 2.240 . S
O109 C107 1.279 . S
O110 Cd100 2.297 . S
O110 C105 1.247 . S
O111 Cd100 2.439 . S
O111 C105 1.208 . S
H112 C120 0.950 . S
H113 C125 0.950 . S
H114 C122 0.950 1_565 S
H115 C124 0.950 . S
H116 C126 0.950 . S
H117 C128 0.950 1_545 S
H118 C130 0.950 . S
H119 C131 0.950 . S
C120 H112 0.950 . S
C120 C121 1.386 . S
C120 C122 1.391 . S
C121 C120 1.386 . S
C121 C125 1.393 . S
C122 H114 0.950 1_545 S
C122 C120 1.391 . S
C122 C123 1.400 . S
C123 C122 1.400 . S
C123 C124 1.398 . S
C123 C129 1.491 1_545 S
C124 H115 0.950 . S
C124 C123 1.398 . S
C124 C125 1.391 . S
C125 H113 0.950 . S
C125 C121 1.393 . S
C125 C124 1.391 . S
C126 H116 0.950 . S
C126 C127 1.386 . S
C126 C128 1.391 . S
C127 C126 1.386 . S
C127 C131 1.393 . S
C128 H117 0.950 1_565 S
C128 C126 1.391 . S
C128 C129 1.400 . S
C129 C123 1.491 1_565 S
C129 C128 1.400 . S
C129 C130 1.398 . S
C130 H118 0.950 . S
C130 C129 1.398 . S
C130 C131 1.391 . S
C131 H119 0.950 . S
C131 C127 1.393 . S
C131 C130 1.391 . S
H132 C140 0.950 . S
H133 C145 0.950 . S
H134 C142 0.950 . S
H135 C144 0.950 . S
H136 C146 0.950 . S
H137 C148 0.950 . S
H138 C150 0.950 . S
H139 C151 0.950 . S
C140 H132 0.950 . S
C140 C141 1.386 . S
C140 C142 1.391 . S
C141 C140 1.386 . S
C141 C145 1.393 . S
C142 H134 0.950 . S
C142 C140 1.391 . S
C142 C143 1.400 . S
C143 C142 1.400 . S
C143 C144 1.398 . S
C143 C149 1.491 . S
C144 H135 0.950 . S
C144 C143 1.398 . S
C144 C145 1.391 . S
C145 H133 0.950 . S
C145 C141 1.393 . S
C145 C144 1.391 . S
C146 H136 0.950 . S
C146 C147 1.386 . S
C146 C148 1.391 . S
C147 C146 1.386 . S
C147 C151 1.393 . S
C148 H137 0.950 . S
C148 C146 1.391 . S
C148 C149 1.400 . S
C149 C143 1.491 . S
C149 C148 1.400 . S
C149 C150 1.398 . S
C150 H138 0.950 . S
C150 C149 1.398 . S
C150 C151 1.391 . S
C151 H139 0.950 . S
C151 C147 1.393 . S
C151 C150 1.391 . S
H152 C160 0.950 . S
H153 C165 0.950 . S
H154 C162 0.950 1_545 S
H155 C164 0.950 . S
H156 C166 0.950 . S
H157 C168 0.950 1_565 S
H158 C170 0.950 . S
H159 C171 0.950 . S
C160 H152 0.950 . S
C160 C161 1.386 . S
C160 C162 1.391 . S
C161 C160 1.386 . S
C161 C165 1.393 . S
C162 H154 0.950 1_565 S
C162 C160 1.391 . S
C162 C163 1.400 . S
C163 C162 1.400 . S
C163 C164 1.398 . S
C163 C169 1.491 1_565 S
C164 H155 0.950 . S
C164 C163 1.398 . S
C164 C165 1.391 . S
C165 H153 0.950 . S
C165 C161 1.393 . S
C165 C164 1.391 . S
C166 H156 0.950 . S
C166 C167 1.386 . S
C166 C168 1.391 . S
C167 C166 1.386 . S
C167 C171 1.393 . S
C168 H157 0.950 1_545 S
C168 C166 1.391 . S
C168 C169 1.400 . S
C169 C163 1.491 1_545 S
C169 C168 1.400 . S
C169 C170 1.398 . S
C170 H158 0.950 . S
C170 C169 1.398 . S
C170 C171 1.391 . S
C171 H159 0.950 . S
C171 C167 1.393 . S
C171 C170 1.391 . S
H172 C180 0.950 . S
H173 C185 0.950 . S
H174 C182 0.950 . S
H175 C184 0.950 . S
H176 C186 0.950 . S
H177 C188 0.950 . S
H178 C190 0.950 . S
H179 C191 0.950 . S
C180 H172 0.950 . S
C180 C181 1.386 . S
C180 C182 1.391 . S
C181 C180 1.386 . S
C181 C185 1.393 . S
C182 H174 0.950 . S
C182 C180 1.391 . S
C182 C183 1.400 . S
C183 C182 1.400 . S
C183 C184 1.398 . S
C183 C189 1.491 . S
C184 H175 0.950 . S
C184 C183 1.398 . S
C184 C185 1.391 . S
C185 H173 0.950 . S
C185 C181 1.393 . S
C185 C184 1.391 . S
C186 H176 0.950 . S
C186 C187 1.386 . S
C186 C188 1.391 . S
C187 C186 1.386 . S
C187 C191 1.393 . S
C188 H177 0.950 . S
C188 C186 1.391 . S
C188 C189 1.400 . S
C189 C183 1.491 . S
C189 C188 1.400 . S
C189 C190 1.398 . S
C190 H178 0.950 . S
C190 C189 1.398 . S
C190 C191 1.391 . S
C191 H179 0.950 . S
C191 C187 1.393 . S
C191 C190 1.391 . S
H192 C200 0.950 . S
H193 C205 0.950 . S
H194 C202 0.950 . S
H195 C204 0.950 . S
H196 C206 0.950 . S
H197 C208 0.950 . S
H198 C210 0.950 . S
H199 C211 0.950 . S
C200 H192 0.950 . S
C200 C201 1.386 . S
C200 C202 1.391 . S
C201 C200 1.386 . S
C201 C205 1.393 . S
C202 H194 0.950 . S
C202 C200 1.391 . S
C202 C203 1.400 . S
C203 C202 1.400 . S
C203 C204 1.398 . S
C203 C209 1.491 . S
C204 H195 0.950 . S
C204 C203 1.398 . S
C204 C205 1.391 . S
C205 H193 0.950 . S
C205 C201 1.393 . S
C205 C204 1.391 . S
C206 H196 0.950 . S
C206 C207 1.386 . S
C206 C208 1.391 . S
C207 C206 1.386 . S
C207 C211 1.393 . S
C208 H197 0.950 . S
C208 C206 1.391 . S
C208 C209 1.400 . S
C209 C203 1.491 . S
C209 C208 1.400 . S
C209 C210 1.398 . S
C210 H198 0.950 . S
C210 C209 1.398 . S
C210 C211 1.391 . S
C211 H199 0.950 . S
C211 C207 1.393 . S
C211 C210 1.391 . S
H212 C220 0.950 . S
H213 C225 0.950 . S
H214 C222 0.950 . S
H215 C224 0.950 . S
H216 C226 0.950 . S
H217 C228 0.950 . S
H218 C230 0.950 . S
H219 C231 0.950 . S
C220 H212 0.950 . S
C220 C221 1.386 . S
C220 C222 1.391 . S
C221 C220 1.386 . S
C221 C225 1.393 . S
C222 H214 0.950 . S
C222 C220 1.391 . S
C222 C223 1.400 . S
C223 C222 1.400 . S
C223 C224 1.398 . S
C223 C229 1.491 . S
C224 H215 0.950 . S
C224 C223 1.398 . S
C224 C225 1.391 . S
C225 H213 0.950 . S
C225 C221 1.393 . S
C225 C224 1.391 . S
C226 H216 0.950 . S
C226 C227 1.386 . S
C226 C228 1.391 . S
C227 C226 1.386 . S
C227 C231 1.393 . S
C228 H217 0.950 . S
C228 C226 1.391 . S
C228 C229 1.400 . S
C229 C223 1.491 . S
C229 C228 1.400 . S
C229 C230 1.398 . S
C230 H218 0.950 . S
C230 C229 1.398 . S
C230 C231 1.391 . S
C231 H219 0.950 . S
C231 C227 1.393 . S
C231 C230 1.391 . S
H232 C240 0.950 . S
H233 C245 0.950 . S
H234 C242 0.950 . S
H235 C244 0.950 . S
H236 C246 0.950 . S
H237 C248 0.950 . S
H238 C250 0.950 . S
H239 C251 0.950 . S
C240 H232 0.950 . S
C240 C241 1.386 . S
C240 C242 1.391 . S
C241 C240 1.386 . S
C241 C245 1.393 . S
C242 H234 0.950 . S
C242 C240 1.391 . S
C242 C243 1.400 . S
C243 C242 1.400 . S
C243 C244 1.398 . S
C243 C249 1.491 . S
C244 H235 0.950 . S
C244 C243 1.398 . S
C244 C245 1.391 . S
C245 H233 0.950 . S
C245 C241 1.393 . S
C245 C244 1.391 . S
C246 H236 0.950 . S
C246 C247 1.386 . S
C246 C248 1.391 . S
C247 C246 1.386 . S
C247 C251 1.393 . S
C248 H237 0.950 . S
C248 C246 1.391 . S
C248 C249 1.400 . S
C249 C243 1.491 . S
C249 C248 1.400 . S
C249 C250 1.398 . S
C250 H238 0.950 . S
C250 C249 1.398 . S
C250 C251 1.391 . S
C251 H239 0.950 . S
C251 C247 1.393 . S
C251 C250 1.391 . S
H252 C260 0.950 . S
H253 C265 0.950 . S
H254 C262 0.950 . S
H255 C264 0.950 . S
H256 C266 0.950 . S
H257 C268 0.950 . S
H258 C270 0.950 . S
H259 C271 0.950 . S
C260 H252 0.950 . S
C260 C261 1.386 . S
C260 C262 1.391 . S
C261 C260 1.386 . S
C261 C265 1.393 . S
C262 H254 0.950 . S
C262 C260 1.391 . S
C262 C263 1.400 . S
C263 C262 1.400 . S
C263 C264 1.398 . S
C263 C269 1.491 . S
C264 H255 0.950 . S
C264 C263 1.398 . S
C264 C265 1.391 . S
C265 H253 0.950 . S
C265 C261 1.393 . S
C265 C264 1.391 . S
C266 H256 0.950 . S
C266 C267 1.386 . S
C266 C268 1.391 . S
C267 C266 1.386 . S
C267 C271 1.393 . S
C268 H257 0.950 . S
C268 C266 1.391 . S
C268 C269 1.400 . S
C269 C263 1.491 . S
C269 C268 1.400 . S
C269 C270 1.398 . S
C270 H258 0.950 . S
C270 C269 1.398 . S
C270 C271 1.391 . S
C271 H259 0.950 . S
C271 C267 1.393 . S
C271 C270 1.391 . S
H272 C280 0.950 . S
H273 C285 0.950 . S
H274 C282 0.950 . S
H275 C284 0.950 . S
H276 C286 0.950 . S
H277 C288 0.950 . S
H278 C290 0.950 . S
H279 C291 0.950 . S
C280 H272 0.950 . S
C280 C281 1.386 . S
C280 C282 1.391 . S
C281 C280 1.386 . S
C281 C285 1.393 1_554 S
C282 H274 0.950 . S
C282 C280 1.391 . S
C282 C283 1.400 . S
C283 C282 1.400 . S
C283 C284 1.398 1_554 S
C283 C289 1.491 1_554 S
C284 H275 0.950 . S
C284 C283 1.398 1_556 S
C284 C285 1.391 . S
C285 H273 0.950 . S
C285 C281 1.393 1_556 S
C285 C284 1.391 . S
C286 H276 0.950 . S
C286 C287 1.386 . S
C286 C288 1.391 . S
C287 C286 1.386 . S
C287 C291 1.393 1_556 S
C288 H277 0.950 . S
C288 C286 1.391 . S
C288 C289 1.400 . S
C289 C283 1.491 1_556 S
C289 C288 1.400 . S
C289 C290 1.398 1_556 S
C290 H278 0.950 . S
C290 C289 1.398 1_554 S
C290 C291 1.391 . S
C291 H279 0.950 . S
C291 C287 1.393 1_554 S
C291 C290 1.391 . S
H292 C300 0.950 . S
H293 C305 0.950 . S
H294 C302 0.946 1_655 S
H295 C304 0.950 . S
H296 C306 0.950 . S
H297 C308 0.946 1_455 S
H298 C310 0.950 . S
H299 C311 0.950 . S
C300 H292 0.950 . S
C300 C301 1.386 . S
C300 C302 1.394 . S
C301 C300 1.386 . S
C301 C305 1.393 . S
C302 H294 0.946 1_455 S
C302 C300 1.394 . S
C302 C303 1.401 . S
C303 C302 1.401 . S
C303 C304 1.398 . S
C303 C309 1.491 1_454 S
C304 H295 0.950 . S
C304 C303 1.398 . S
C304 C305 1.391 . S
C305 H293 0.950 . S
C305 C301 1.393 . S
C305 C304 1.391 . S
C306 H296 0.950 . S
C306 C307 1.386 . S
C306 C308 1.394 . S
C307 C306 1.386 . S
C307 C311 1.393 . S
C308 H297 0.946 1_655 S
C308 C306 1.394 . S
C308 C309 1.401 . S
C309 C303 1.491 1_656 S
C309 C308 1.401 . S
C309 C310 1.398 . S
C310 H298 0.950 . S
C310 C309 1.398 . S
C310 C311 1.391 . S
C311 H299 0.950 . S
C311 C307 1.393 . S
C311 C310 1.391 . S
H312 C320 0.950 . S
H313 C325 0.950 . S
H314 C322 0.950 . S
H315 C324 0.950 1_545 S
H316 C326 0.950 . S
H317 C328 0.950 . S
H318 C330 0.950 1_565 S
H319 C331 0.950 . S
C320 H312 0.950 . S
C320 C321 1.386 . S
C320 C322 1.391 . S
C321 C320 1.386 . S
C321 C325 1.393 . S
C322 H314 0.950 . S
C322 C320 1.391 . S
C322 C323 1.400 . S
C323 C322 1.400 . S
C323 C324 1.398 . S
C323 C329 1.491 1_565 S
C324 H315 0.950 1_565 S
C324 C323 1.398 . S
C324 C325 1.391 . S
C325 H313 0.950 . S
C325 C321 1.393 . S
C325 C324 1.391 . S
C326 H316 0.950 . S
C326 C327 1.386 . S
C326 C328 1.391 . S
C327 C326 1.386 . S
C327 C331 1.393 . S
C328 H317 0.950 . S
C328 C326 1.391 . S
C328 C329 1.400 . S
C329 C323 1.491 1_545 S
C329 C328 1.400 . S
C329 C330 1.398 . S
C330 H318 0.950 1_545 S
C330 C329 1.398 . S
C330 C331 1.391 . S
C331 H319 0.950 . S
C331 C327 1.393 . S
C331 C330 1.391 . S
H332 C340 0.950 . S
H333 C345 0.950 . S
H334 C342 0.950 1_455 S
H335 C344 0.950 . S
H336 C346 0.950 . S
H337 C348 0.950 1_655 S
H338 C350 0.950 . S
H339 C351 0.950 . S
C340 H332 0.950 . S
C340 C341 1.386 . S
C340 C342 1.391 . S
C341 C340 1.386 . S
C341 C345 1.393 . S
C342 H334 0.950 1_655 S
C342 C340 1.391 . S
C342 C343 1.400 . S
C343 C342 1.400 . S
C343 C344 1.398 . S
C343 C349 1.491 1_645 S
C344 H335 0.950 . S
C344 C343 1.398 . S
C344 C345 1.391 . S
C345 H333 0.950 . S
C345 C341 1.393 . S
C345 C344 1.391 . S
C346 H336 0.950 . S
C346 C347 1.386 . S
C346 C348 1.391 . S
C347 C346 1.386 . S
C347 C351 1.393 . S
C348 H337 0.950 1_455 S
C348 C346 1.391 . S
C348 C349 1.400 . S
C349 C343 1.491 1_465 S
C349 C348 1.400 . S
C349 C350 1.398 . S
C350 H338 0.950 . S
C350 C349 1.398 . S
C350 C351 1.391 . S
C351 H339 0.950 . S
C351 C347 1.393 . S
C351 C350 1.391 . S
H352 C360 0.950 . S
H353 C365 0.950 . S
H354 C362 0.950 . S
H355 C364 0.950 . S
H356 C366 0.950 . S
H357 C368 0.950 . S
H358 C370 0.950 . S
H359 C371 0.950 . S
C360 H352 0.950 . S
C360 C361 1.386 . S
C360 C362 1.391 . S
C361 C360 1.386 . S
C361 C365 1.393 . S
C362 H354 0.950 . S
C362 C360 1.391 . S
C362 C363 1.400 . S
C363 C362 1.400 . S
C363 C364 1.398 . S
C363 C369 1.491 . S
C364 H355 0.950 . S
C364 C363 1.398 . S
C364 C365 1.391 . S
C365 H353 0.950 . S
C365 C361 1.393 . S
C365 C364 1.391 . S
C366 H356 0.950 . S
C366 C367 1.386 . S
C366 C368 1.391 . S
C367 C366 1.386 . S
C367 C371 1.393 . S
C368 H357 0.950 . S
C368 C366 1.391 . S
C368 C369 1.400 . S
C369 C363 1.491 . S
C369 C368 1.400 . S
C369 C370 1.398 . S
C370 H358 0.950 . S
C370 C369 1.398 . S
C370 C371 1.391 . S
C371 H359 0.950 . S
C371 C367 1.393 . S
C371 C370 1.391 . S
H372 C380 0.950 . S
H373 C385 0.950 . S
H374 C382 0.950 . S
H375 C384 0.950 1_565 S
H376 C386 0.950 . S
H377 C388 0.950 . S
H378 C390 0.950 1_545 S
H379 C391 0.950 . S
C380 H372 0.950 . S
C380 C381 1.386 . S
C380 C382 1.391 . S
C381 C380 1.386 . S
C381 C385 1.393 . S
C382 H374 0.950 . S
C382 C380 1.391 . S
C382 C383 1.400 . S
C383 C382 1.400 . S
C383 C384 1.398 . S
C383 C389 1.491 1_545 S
C384 H375 0.950 1_545 S
C384 C383 1.398 . S
C384 C385 1.391 . S
C385 H373 0.950 . S
C385 C381 1.393 . S
C385 C384 1.391 . S
C386 H376 0.950 . S
C386 C387 1.386 . S
C386 C388 1.391 . S
C387 C386 1.386 . S
C387 C391 1.393 . S
C388 H377 0.950 . S
C388 C386 1.391 . S
C388 C389 1.400 . S
C389 C383 1.491 1_565 S
C389 C388 1.400 . S
C389 C390 1.398 . S
C390 H378 0.950 1_565 S
C390 C389 1.398 . S
C390 C391 1.391 . S
C391 H379 0.950 . S
C391 C387 1.393 . S
C391 C390 1.391 . S
H392 C400 0.950 . S
H393 C405 0.950 . S
H394 C402 0.950 . S
H395 C404 0.950 . S
H396 C406 0.950 . S
H397 C408 0.950 . S
H398 C410 0.950 . S
H399 C411 0.950 . S
C400 H392 0.950 . S
C400 C401 1.386 . S
C400 C402 1.391 . S
C401 C400 1.386 . S
C401 C405 1.393 . S
C402 H394 0.950 . S
C402 C400 1.391 . S
C402 C403 1.400 . S
C403 C402 1.400 . S
C403 C404 1.398 . S
C403 C409 1.491 . S
C404 H395 0.950 . S
C404 C403 1.398 . S
C404 C405 1.391 . S
C405 H393 0.950 . S
C405 C401 1.393 . S
C405 C404 1.391 . S
C406 H396 0.950 . S
C406 C407 1.386 . S
C406 C408 1.391 . S
C407 C406 1.386 . S
C407 C411 1.393 . S
C408 H397 0.950 . S
C408 C406 1.391 . S
C408 C409 1.400 . S
C409 C403 1.491 . S
C409 C408 1.400 . S
C409 C410 1.398 . S
C410 H398 0.950 . S
C410 C409 1.398 . S
C410 C411 1.391 . S
C411 H399 0.950 . S
C411 C407 1.393 . S
C411 C410 1.391 . S
H412 C420 0.950 . S
H413 C425 0.950 . S
H414 C422 0.950 1_545 S
H415 C424 0.950 . S
H416 C426 0.950 . S
H417 C428 0.950 1_565 S
H418 C430 0.950 . S
H419 C431 0.950 . S
C420 H412 0.950 . S
C420 C421 1.386 . S
C420 C422 1.391 . S
C421 C420 1.386 . S
C421 C425 1.393 . S
C422 H414 0.950 1_565 S
C422 C420 1.391 . S
C422 C423 1.400 . S
C423 C422 1.400 . S
C423 C424 1.398 . S
C423 C429 1.491 1_565 S
C424 H415 0.950 . S
C424 C423 1.398 . S
C424 C425 1.391 . S
C425 H413 0.950 . S
C425 C421 1.393 . S
C425 C424 1.391 . S
C426 H416 0.950 . S
C426 C427 1.386 . S
C426 C428 1.391 . S
C427 C426 1.386 . S
C427 C431 1.393 . S
C428 H417 0.950 1_545 S
C428 C426 1.391 . S
C428 C429 1.400 . S
C429 C423 1.491 1_545 S
C429 C428 1.400 . S
C429 C430 1.398 . S
C430 H418 0.950 . S
C430 C429 1.398 . S
C430 C431 1.391 . S
C431 H419 0.950 . S
C431 C427 1.393 . S
C431 C430 1.391 . S
C121 C9 1.603 . S
C127 C23 1.619 . S
C141 C51 1.603 . S
C147 C37 1.618 . S
C161 C65 1.620 . S
C167 C79 1.603 . S
C181 C93 1.607 . S
C187 C107 1.610 . S
C201 C7 1.709 . S
C207 C35 1.710 . S
C221 C49 1.716 . S
C227 C21 1.694 . S
C241 C63 1.683 . S
C247 C91 1.703 . S
C261 C105 1.688 . S
C267 C77 1.690 . S
C281 C6 1.281 . S
C287 C62 1.281 . S
C301 C20 1.269 . S
C307 C76 1.269 . S
C321 C90 1.275 . S
C327 C34 1.275 . S
C341 C104 1.270 . S
C347 C48 1.270 . S
C361 C22 1.371 . S
C367 C8 1.370 . S
C381 C36 1.366 . S
C387 C50 1.369 . S
C401 C64 1.366 . S
C407 C78 1.369 . S
C421 C92 1.370 . S
C427 C106 1.371 . S
