# Generated by pormake.
# Topology zfs, (5)-cn, num edge types: 1
# Building blocks:
#     Node 0, Type 0, BuildingBlock: BEQFEK_clean_sbu_0, # of connection points: 5
#     Node 1, Type 0, BuildingBlock: BEQFEK_clean_sbu_0, # of connection points: 5
#     Node 2, Type 0, BuildingBlock: BEQFEK_clean_sbu_0, # of connection points: 5
#     Node 3, Type 0, BuildingBlock: BEQFEK_clean_sbu_0, # of connection points: 5
#     Node 4, Type 0, BuildingBlock: BEQFEK_clean_sbu_0, # of connection points: 5
#     Node 5, Type 0, BuildingBlock: BEQFEK_clean_sbu_0, # of connection points: 5
#     Node 6, Type 0, BuildingBlock: BEQFEK_clean_sbu_0, # of connection points: 5
#     Node 7, Type 0, BuildingBlock: BEQFEK_clean_sbu_0, # of connection points: 5
#     Edge 8, Type (0, 0), BuildingBlock: XUDNAN_clean_linker_2, # of connection points: 2
#     Edge 9, Type (0, 0), BuildingBlock: XUDNAN_clean_linker_2, # of connection points: 2
#     Edge 10, Type (0, 0), BuildingBlock: XUDNAN_clean_linker_2, # of connection points: 2
#     Edge 11, Type (0, 0), BuildingBlock: XUDNAN_clean_linker_2, # of connection points: 2
#     Edge 12, Type (0, 0), BuildingBlock: XUDNAN_clean_linker_2, # of connection points: 2
#     Edge 13, Type (0, 0), BuildingBlock: XUDNAN_clean_linker_2, # of connection points: 2
#     Edge 14, Type (0, 0), BuildingBlock: XUDNAN_clean_linker_2, # of connection points: 2
#     Edge 15, Type (0, 0), BuildingBlock: XUDNAN_clean_linker_2, # of connection points: 2
#     Edge 16, Type (0, 0), BuildingBlock: XUDNAN_clean_linker_2, # of connection points: 2
#     Edge 17, Type (0, 0), BuildingBlock: XUDNAN_clean_linker_2, # of connection points: 2
#     Edge 18, Type (0, 0), BuildingBlock: XUDNAN_clean_linker_2, # of connection points: 2
#     Edge 19, Type (0, 0), BuildingBlock: XUDNAN_clean_linker_2, # of connection points: 2
#     Edge 20, Type (0, 0), BuildingBlock: XUDNAN_clean_linker_2, # of connection points: 2
#     Edge 21, Type (0, 0), BuildingBlock: XUDNAN_clean_linker_2, # of connection points: 2
#     Edge 22, Type (0, 0), BuildingBlock: XUDNAN_clean_linker_2, # of connection points: 2
#     Edge 23, Type (0, 0), BuildingBlock: XUDNAN_clean_linker_2, # of connection points: 2
#     Edge 24, Type (0, 0), BuildingBlock: XUDNAN_clean_linker_2, # of connection points: 2
#     Edge 25, Type (0, 0), BuildingBlock: XUDNAN_clean_linker_2, # of connection points: 2
#     Edge 26, Type (0, 0), BuildingBlock: XUDNAN_clean_linker_2, # of connection points: 2
#     Edge 27, Type (0, 0), BuildingBlock: XUDNAN_clean_linker_2, # of connection points: 2
# Relax obj value: 0.292
# Max RMSD: 0.156
# Mean RMSD: 0.156
data_MOF--net-zfs--node1-BEQFEK_clean_sbu_0--edge1-XUDNAN_clean_linker_2
_symmetry_space_group_name_H-M    P1
_symmetry_Int_Tables_number       1
_symmetry_cell_setting            triclinic
loop_
_symmetry_equiv_pos_as_xyz
'x, y, z'
_cell_length_a     32.174776
_cell_length_b     32.214812
_cell_length_c     41.881456
_cell_angle_alpha  89.935577
_cell_angle_beta   89.990972
_cell_angle_gamma 89.957413
loop_
_atom_site_label
_atom_site_type_symbol
_atom_site_fract_x
_atom_site_fract_y
_atom_site_fract_z
_atom_type_partial_charge
Co0 Co 0.0509 0.26942 0.25248 0.0
Co1 Co 0.98687 0.29122 0.19896 0.0
C2 C 0.02942 0.35741 0.23837 0.0
O3 O 0.04977 0.33024 0.25388 0.0
O4 O 1.00386 0.34685 0.2166 0.0
C5 C 0.12714 0.27153 0.28772 0.0
O6 O 0.13344 0.30659 0.27243 0.0
C7 C 0.97394 0.32547 0.13603 0.0
C8 C 0.92126 0.28909 0.11733 0.0
C9 C 0.95167 0.31734 0.10842 0.0
N10 N 0.95795 0.30268 0.15998 0.0
N11 N 0.92554 0.282 0.14892 0.0
C12 C 0.01417 0.3487 0.13837 0.0
H13 H 0.03321 0.33679 0.15845 0.0
H14 H 0.03218 0.34634 0.11583 0.0
H15 H 1.00734 0.38197 0.14277 0.0
C16 C 0.09415 0.22851 0.19817 0.0
N17 N 0.06212 0.25007 0.2108 0.0
N18 N 0.0343 0.25739 0.18845 0.0
C19 C 0.04746 0.23954 0.16105 0.0
C20 C 0.08599 0.22153 0.16612 0.0
C21 C 0.13263 0.21691 0.21614 0.0
H22 H 0.12403 0.19852 0.23755 0.0
H23 H 0.1484 0.24557 0.22434 0.0
H24 H 0.15455 0.19879 0.20122 0.0
O25 O 0.99728 0.24719 0.26845 0.0
O26 O 0.95055 0.26137 0.23086 0.0
H27 H 0.98934 0.23319 0.13639 0.0
H28 H 0.03258 0.20891 0.11669 0.0
C29 C 0.02278 0.23632 0.13088 0.0
H30 H 0.02821 0.26426 0.11604 0.0
H31 H 0.90875 0.26029 0.16217 0.0
O32 O 0.09437 0.25074 0.28224 0.0
C33 C 0.96008 0.24581 0.25803 0.0
Co34 Co 0.74858 0.05538 0.5045 0.0
Co35 Co 0.72895 0.99199 0.45054 0.0
C36 C 0.66164 0.03024 0.49248 0.0
O37 O 0.68795 0.05196 0.5076 0.0
O38 O 0.67327 1.00576 0.47034 0.0
C39 C 0.74389 0.13038 0.53999 0.0
O40 O 0.70966 0.13633 0.52351 0.0
C41 C 0.69325 0.98823 0.38838 0.0
C42 C 0.73096 0.94156 0.36324 0.0
C43 C 0.70325 0.97402 0.35802 0.0
N44 N 0.7159 0.96733 0.41004 0.0
N45 N 0.73708 0.93811 0.39504 0.0
C46 C 0.66389 0.02257 0.397 0.0
H47 H 0.68161 0.04944 0.40643 0.0
H48 H 0.64447 0.03219 0.3764 0.0
H49 H 0.64267 0.01166 0.416 0.0
C50 C 0.78601 0.10248 0.44977 0.0
N51 N 0.76618 0.06945 0.46273 0.0
N52 N 0.76162 0.04062 0.44083 0.0
C53 C 0.78058 0.0536 0.41382 0.0
C54 C 0.79524 0.09358 0.4181 0.0
C55 C 0.79514 0.14188 0.46724 0.0
H56 H 0.81352 0.13479 0.48898 0.0
H57 H 0.76548 0.15631 0.4749 0.0
H58 H 0.81248 0.16421 0.45209 0.0
O59 O 0.77364 1.00142 0.51862 0.0
O60 O 0.76114 0.95506 0.4804 0.0
H61 H 0.79432 0.99382 0.39388 0.0
H62 H 0.82138 0.03633 0.37533 0.0
C63 C 0.79142 0.0265 0.38611 0.0
H64 H 0.76744 0.02962 0.36748 0.0
H65 H 0.75906 0.919 0.40596 0.0
O66 O 0.76578 0.0982 0.5349 0.0
C67 C 0.77672 0.9646 0.50756 0.0
Co68 Co 0.96447 0.75019 0.75362 0.0
Co69 Co 0.03306 0.73498 0.70311 0.0
C70 C 0.99145 0.66457 0.73861 0.0
O71 O 0.96793 0.68844 0.75462 0.0
O72 O 0.01707 0.6789 0.71835 0.0
C73 C 0.91401 0.7561 0.80879 0.0
O74 O 0.94587 0.73801 0.82267 0.0
C75 C 0.05666 0.70103 0.64246 0.0
C76 C 0.10812 0.74152 0.62689 0.0
C77 C 0.08134 0.71066 0.61638 0.0
N78 N 0.06702 0.72622 0.66666 0.0
N79 N 0.09874 0.74948 0.65765 0.0
C80 C 0.02277 0.66921 0.64446 0.0
H81 H 0.0291 0.64812 0.66478 0.0
H82 H 0.99256 0.68481 0.64893 0.0
H83 H 0.02094 0.64981 0.62267 0.0
C84 C 0.92273 0.78994 0.6971 0.0
N85 N 0.95514 0.77044 0.71126 0.0
N86 N 0.98525 0.76602 0.69032 0.0
C87 C 0.97339 0.7837 0.6625 0.0
C88 C 0.93315 0.79872 0.66553 0.0
C89 C 0.88199 0.79795 0.71314 0.0
H90 H 0.87083 0.76897 0.72462 0.0
H91 H 0.85824 0.80931 0.69602 0.0
H92 H 0.88646 0.8214 0.73222 0.0
O93 O 0.01551 0.776 0.77335 0.0
O94 O 0.06407 0.76512 0.73655 0.0
H95 H 0.03309 0.79542 0.64162 0.0
H96 H 0.98993 0.81515 0.61874 0.0
C97 C 1.0008 0.78911 0.63398 0.0
H98 H 1.00005 0.76044 0.61958 0.0
H99 H 0.11183 0.77286 0.67162 0.0
O100 O 0.91591 0.76498 0.77934 0.0
C101 C 0.05296 0.77957 0.76357 0.0
Co102 Co 0.27142 0.96156 0.00827 0.0
Co103 Co 0.29354 0.02736 0.95704 0.0
C104 C 0.35941 0.98601 0.997 0.0
O105 O 0.33248 0.96483 0.01207 0.0
O106 O 0.34875 0.01099 0.97491 0.0
C107 C 0.27432 0.88507 0.04322 0.0
O108 O 0.31088 0.88 0.0298 0.0
C109 C 0.32625 0.04834 0.89498 0.0
C110 C 0.29078 0.10475 0.8825 0.0
C111 C 0.31755 0.07519 0.8699 0.0
N112 N 0.30416 0.06041 0.92051 0.0
N113 N 0.28402 0.0949 0.9133 0.0
C114 C 0.35412 0.01104 0.89491 0.0
H115 H 0.33507 0.98237 0.89415 0.0
H116 H 0.37583 0.01162 0.87432 0.0
H117 H 0.37256 0.01018 0.9172 0.0
C118 C 0.23189 0.92027 0.95207 0.0
N119 N 0.25371 0.95134 0.96577 0.0
N120 N 0.26077 0.98048 0.94444 0.0
C121 C 0.24226 0.96944 0.91678 0.0
C122 C 0.2242 0.93064 0.9204 0.0
C123 C 0.21996 0.88105 0.96886 0.0
H124 H 0.24827 0.86614 0.97872 0.0
H125 H 0.20413 0.85894 0.95264 0.0
H126 H 0.19915 0.88858 0.98918 0.0
O127 O 0.2462 0.01365 0.02504 0.0
O128 O 0.26251 0.06104 0.98863 0.0
H129 H 0.20921 0.98877 0.87446 0.0
H130 H 0.26457 0.99288 0.87231 0.0
C131 C 0.23751 0.997 0.88823 0.0
H132 H 0.23521 0.02987 0.89567 0.0
H133 H 0.2634 0.10996 0.92863 0.0
O134 O 0.25268 0.91687 0.03645 0.0
C135 C 0.24522 0.05095 0.01489 0.0
Co136 Co 0.05563 0.74468 0.25348 0.0
Co137 Co 0.99161 0.72997 0.30799 0.0
C138 C 0.03096 0.65987 0.26935 0.0
O139 O 0.05414 0.68343 0.2529 0.0
O140 O 1.00621 0.67446 0.29014 0.0
C141 C 0.12948 0.74043 0.21559 0.0
O142 O 0.13583 0.70497 0.23031 0.0
C143 C 0.98425 0.69242 0.36916 0.0
C144 C 0.94157 0.73359 0.39528 0.0
C145 C 0.97104 0.70255 0.39964 0.0
N146 N 0.96587 0.71797 0.34812 0.0
N147 N 0.93878 0.74128 0.36365 0.0
C148 C 0.01562 0.6601 0.36006 0.0
H149 H 1.00155 0.63884 0.34232 0.0
H150 H 0.04308 0.67521 0.349 0.0
H151 H 0.02531 0.64089 0.38075 0.0
C152 C 0.10242 0.7858 0.30692 0.0
N153 N 0.06918 0.76556 0.29468 0.0
N154 N 0.04036 0.76242 0.31681 0.0
C155 C 0.05375 0.78216 0.34331 0.0
C156 C 0.09377 0.79659 0.33838 0.0
C157 C 0.142 0.79328 0.28913 0.0
H158 H 0.15479 0.76315 0.2809 0.0
H159 H 0.16541 0.80922 0.30421 0.0
H160 H 0.13542 0.81242 0.26767 0.0
O161 O 1.00121 0.76807 0.23845 0.0
O162 O 0.95516 0.76011 0.27763 0.0
H163 H 0.03921 0.81975 0.38443 0.0
H164 H 0.02855 0.76557 0.38861 0.0
C165 C 0.02747 0.79187 0.37175 0.0
H166 H 0.99507 0.79779 0.36419 0.0
H167 H 0.92193 0.76545 0.35327 0.0
O168 O 0.0978 0.76216 0.22257 0.0
C169 C 0.96461 0.77287 0.24968 0.0
Co170 Co 0.27504 0.05711 0.49828 0.0
Co171 Co 0.28186 0.99661 0.55597 0.0
C172 C 0.35747 0.03124 0.52004 0.0
O173 O 0.33637 0.05285 0.50051 0.0
O174 O 0.33991 1.00925 0.54141 0.0
C175 C 0.2836 0.12584 0.45413 0.0
O176 O 0.3214 0.13002 0.46553 0.0
C177 C 0.31082 0.99116 0.61992 0.0
C178 C 0.26738 0.94821 0.6436 0.0
C179 C 0.29795 0.97755 0.64964 0.0
N180 N 0.28776 0.97257 0.59745 0.0
N181 N 0.26279 0.94565 0.61159 0.0
C182 C 0.34382 0.02257 0.61269 0.0
H183 H 0.36738 1.00796 0.59703 0.0
H184 H 0.32999 0.04935 0.5998 0.0
H185 H 0.36021 0.03332 0.63443 0.0
C186 C 0.23146 0.10881 0.54766 0.0
N187 N 0.25167 0.07417 0.53818 0.0
N188 N 0.25067 0.04678 0.56141 0.0
C189 C 0.22792 0.06234 0.58581 0.0
C190 C 0.2156 0.10263 0.57837 0.0
C191 C 0.22857 0.14735 0.52781 0.0
H192 H 0.25852 0.15274 0.51542 0.0
H193 H 0.22111 0.17489 0.54262 0.0
H194 H 0.20409 0.14322 0.50942 0.0
O195 O 0.25059 1.00297 0.48374 0.0
O196 O 0.25386 0.95922 0.52472 0.0
H197 H 0.20832 1.00446 0.60606 0.0
H198 H 0.18253 0.04907 0.62247 0.0
C199 C 0.21266 0.03713 0.61344 0.0
H200 H 0.23554 0.03865 0.6331 0.0
H201 H 0.23996 0.92858 0.59977 0.0
O202 O 0.25998 0.09768 0.46516 0.0
C203 C 0.24376 0.96724 0.49586 0.0
Co204 Co 0.95277 0.27705 0.75107 0.0
Co205 Co 0.02395 0.28824 0.80051 0.0
C206 C 0.98055 0.36118 0.76702 0.0
O207 O 0.95547 0.33705 0.75286 0.0
O208 O 1.00862 0.34688 0.78563 0.0
C209 C 0.87881 0.28382 0.71207 0.0
O210 O 0.87606 0.32234 0.7221 0.0
C211 C 0.03979 0.31787 0.86397 0.0
C212 C 0.09301 0.28063 0.88079 0.0
C213 C 0.06332 0.30905 0.8908 0.0
N214 N 0.05465 0.29581 0.83924 0.0
N215 N 0.08716 0.27427 0.84922 0.0
C216 C 0.99963 0.34143 0.86313 0.0
H217 H 0.98027 0.33159 0.84262 0.0
H218 H 0.98193 0.33682 0.88561 0.0
H219 H 1.00648 0.37504 0.86065 0.0
C220 C 0.91421 0.22988 0.80318 0.0
N221 N 0.94505 0.25353 0.79139 0.0
N222 N 0.9756 0.25558 0.81212 0.0
C223 C 0.96517 0.23218 0.83785 0.0
C224 C 0.92581 0.21531 0.83307 0.0
C225 C 0.87455 0.22117 0.78575 0.0
H226 H 0.86241 0.25036 0.77523 0.0
H227 H 0.85063 0.2078 0.80183 0.0
H228 H 0.88084 0.19914 0.76598 0.0
O229 O 1.00416 0.25654 0.73122 0.0
O230 O 0.05734 0.25966 0.76486 0.0
H231 H 0.98469 0.19293 0.87702 0.0
H232 H 0.99241 0.24761 0.88278 0.0
C233 C 0.99379 0.22223 0.86496 0.0
H234 H 0.02607 0.21916 0.85611 0.0
H235 H 0.10328 0.2529 0.8352 0.0
O236 O 0.90793 0.26064 0.72218 0.0
C237 C 0.04243 0.25051 0.73737 0.0
Co238 Co 0.74202 0.95114 0.00567 0.0
Co239 Co 0.74158 0.02747 0.0513 0.0
C240 C 0.66262 0.98731 0.02457 0.0
O241 O 0.68163 0.95891 0.00952 0.0
O242 O 0.68214 0.01472 0.04049 0.0
C243 C 0.73081 0.89421 0.95533 0.0
O244 O 0.69907 0.91848 0.94885 0.0
C245 C 0.71581 0.054 0.11351 0.0
C246 C 0.76036 0.10316 0.12643 0.0
C247 C 0.72924 0.07806 0.13886 0.0
N248 N 0.73892 0.06306 0.08772 0.0
N249 N 0.76476 0.09338 0.09526 0.0
C250 C 0.68198 0.02205 0.11358 0.0
H251 H 0.65829 0.03105 0.09569 0.0
H252 H 0.6949 0.99141 0.10663 0.0
H253 H 0.66592 0.01978 0.13691 0.0
C254 C 0.78506 0.91223 0.06081 0.0
N255 N 0.76726 0.94493 0.04599 0.0
N256 N 0.76986 0.97784 0.06442 0.0
C257 C 0.79052 0.96717 0.09128 0.0
C258 C 0.80012 0.92528 0.09015 0.0
C259 C 0.78595 0.86917 0.04753 0.0
H260 H 0.80844 0.86802 0.02746 0.0
H261 H 0.75486 0.86112 0.03788 0.0
H262 H 0.79526 0.84613 0.06592 0.0
O263 O 0.76737 0.99838 0.98236 0.0
O264 O 0.77072 0.0537 0.01385 0.0
H265 H 0.81121 0.02721 0.10658 0.0
H266 H 0.83097 0.98454 0.13007 0.0
C267 C 0.80347 0.99658 0.11698 0.0
H268 H 0.77783 1.00002 0.13432 0.0
H269 H 0.78742 0.10517 0.07993 0.0
O270 O 0.75296 0.90178 0.97971 0.0
C271 C 0.77776 0.03608 0.98707 0.0
H272 H 1.0015 0.60496 0.22451 0.0
H273 H 0.07347 0.61372 0.31169 0.0
H274 H 0.08252 0.5375 0.31212 0.0
H275 H 0.94711 0.51195 0.2458 0.0
H276 H 0.9474 0.49027 0.20614 0.0
H277 H 0.9484 0.54573 0.21146 0.0
H278 H 0.01554 0.55028 0.17751 0.0
H279 H 0.01471 0.49481 0.17204 0.0
H280 H 0.06012 0.51951 0.18854 0.0
H281 H 0.08295 0.4614 0.30389 0.0
H282 H 0.07337 0.38843 0.28863 0.0
H283 H 0.99914 0.42704 0.2071 0.0
C284 C 0.01947 0.5906 0.2434 0.0
C285 C 0.0371 0.61476 0.26802 0.0
C286 C 0.05993 0.59538 0.29268 0.0
C287 C 0.06525 0.55226 0.29306 0.0
C288 C 0.04732 0.52905 0.26864 0.0
C289 C 0.0248 0.54734 0.24428 0.0
C290 C 1.00757 0.51474 0.2217 0.0
C291 C 0.95978 0.51574 0.22127 0.0
C292 C 0.02557 0.52017 0.18795 0.0
C293 C 0.02371 0.47537 0.23736 0.0
C294 C 0.04682 0.48456 0.26424 0.0
C295 C 0.06497 0.45374 0.28288 0.0
C296 C 0.05931 0.41231 0.27394 0.0
C297 C 0.0354 0.4018 0.24666 0.0
C298 C 0.01747 0.43395 0.22812 0.0
H299 H 0.59216 1.00468 0.45849 0.0
H300 H 0.63008 0.06336 0.54716 0.0
H301 H 0.55681 0.06989 0.56312 0.0
H302 H 0.50168 0.06976 0.4459 0.0
H303 H 0.4704 0.02856 0.42952 0.0
H304 H 0.52608 0.02734 0.42501 0.0
H305 H 0.5283 0.95458 0.45131 0.0
H306 H 0.47264 0.95557 0.4559 0.0
H307 H 0.50543 0.94721 0.4902 0.0
H308 H 0.48027 0.06886 0.57054 0.0
H309 H 0.40382 0.06302 0.56771 0.0
H310 H 0.41352 1.00848 0.47346 0.0
C311 C 0.58507 0.01887 0.48124 0.0
C312 C 0.61709 0.03346 0.50154 0.0
C313 C 0.60628 0.05201 0.5311 0.0
C314 C 0.56468 0.05583 0.54045 0.0
C315 C 0.53397 0.04139 0.5199 0.0
C316 C 0.54345 0.02356 0.49081 0.0
C317 C 0.5041 0.01153 0.47302 0.0
C318 C 0.50035 0.03575 0.44149 0.0
C319 C 0.50254 0.96442 0.46728 0.0
C320 C 0.47117 0.02509 0.49684 0.0
C321 C 0.48929 0.04198 0.52378 0.0
C322 C 0.46569 0.05579 0.54955 0.0
C323 C 0.42238 0.05214 0.54785 0.0
C324 C 0.40309 0.03514 0.52053 0.0
C325 C 0.42771 0.0218 0.49453 0.0
H326 H 0.01209 0.6086 0.78613 0.0
H327 H 0.95662 0.6193 0.69217 0.0
H328 H 0.94652 0.54335 0.69046 0.0
H329 H 0.06872 0.51463 0.76944 0.0
H330 H 0.06157 0.49226 0.80852 0.0
H331 H 0.06225 0.54784 0.8037 0.0
H332 H 0.99015 0.55298 0.83089 0.0
H333 H 0.9893 0.4974 0.83586 0.0
H334 H 0.94733 0.52315 0.81531 0.0
H335 H 0.94208 0.46797 0.69836 0.0
H336 H 0.9467 0.39472 0.71378 0.0
H337 H 1.00903 0.42927 0.80188 0.0
C338 C 0.99741 0.59472 0.76548 0.0
C339 C 0.98454 0.61945 0.73936 0.0
C340 C 0.96627 0.60061 0.71239 0.0
C341 C 0.96042 0.55762 0.71124 0.0
C342 C 0.97354 0.53387 0.73717 0.0
C343 C 0.99193 0.55145 0.76372 0.0
C344 C 1.00484 0.51804 0.78749 0.0
C345 C 0.05216 0.51821 0.79258 0.0
C346 C 0.9815 0.52321 0.81927 0.0
C347 C 0.99086 0.47912 0.77001 0.0
C348 C 0.97251 0.48936 0.74122 0.0
C349 C 0.95643 0.45947 0.72081 0.0
C350 C 0.95914 0.41784 0.72991 0.0
C351 C 0.97823 0.40606 0.75908 0.0
C352 C 0.99448 0.43725 0.77938 0.0
H353 H 0.42889 1.00128 0.96037 0.0
H354 H 0.38967 0.96378 0.05528 0.0
H355 H 0.46292 0.96115 0.07256 0.0
H356 H 0.51948 0.93399 0.95791 0.0
H357 H 0.55072 0.97062 0.93594 0.0
H358 H 0.49509 0.97043 0.9311 0.0
H359 H 0.49246 0.04832 0.94626 0.0
H360 H 0.54806 0.04872 0.95128 0.0
H361 H 0.51481 0.06513 0.98354 0.0
H362 H 0.53974 0.96586 0.08043 0.0
H363 H 0.61635 0.97074 0.07683 0.0
H364 H 0.60683 1.00017 0.97612 0.0
C365 C 0.43578 0.99252 0.98477 0.0
C366 C 0.40358 0.98296 0.00656 0.0
C367 C 0.41383 0.97113 0.03818 0.0
C368 C 0.45533 0.96971 0.04826 0.0
C369 C 0.4863 0.97953 0.02629 0.0
C370 C 0.47717 0.99008 0.99508 0.0
C371 C 0.51656 0.99777 0.97605 0.0
C372 C 0.5207 0.96632 0.94863 0.0
C373 C 0.51804 0.04266 0.96356 0.0
C374 C 0.54917 0.99041 1.00158 0.0
C375 C 0.53092 0.98037 0.03047 0.0
C376 C 0.55442 0.97344 0.05791 0.0
C377 C 0.59776 0.97654 0.05574 0.0
C378 C 0.61704 0.98599 0.02631 0.0
C379 C 0.59255 0.99281 0.99885 0.0
H380 H 0.20885 0.12115 0.42389 0.0
H381 H 0.32288 0.19305 0.42699 0.0
H382 H 0.29554 0.23884 0.38433 0.0
H383 H 0.19477 0.12495 0.3394 0.0
H384 H 0.13899 0.12884 0.34201 0.0
H385 H 0.16765 0.10242 0.37286 0.0
H386 H 0.1348 0.15068 0.41551 0.0
H387 H 0.10599 0.17722 0.3848 0.0
H388 H 0.13942 0.20617 0.41115 0.0
H389 H 0.25462 0.27699 0.34135 0.0
H390 H 0.2043 0.30342 0.30148 0.0
H391 H 0.11869 0.20475 0.32718 0.0
C392 C 0.2282 0.14652 0.41571 0.0
C393 C 0.26798 0.15359 0.42877 0.0
C394 C 0.29227 0.18709 0.41728 0.0
C395 C 0.27701 0.21323 0.3931 0.0
C396 C 0.23758 0.20526 0.38074 0.0
C397 C 0.21361 0.17263 0.39168 0.0
C398 C 0.17242 0.17027 0.37453 0.0
C399 C 0.16824 0.12919 0.35611 0.0
C400 C 0.13602 0.17647 0.39789 0.0
C401 C 0.17682 0.20672 0.35214 0.0
C402 C 0.21448 0.22668 0.35604 0.0
C403 C 0.22508 0.26154 0.33805 0.0
C404 C 0.19633 0.27632 0.31551 0.0
C405 C 0.15766 0.25608 0.31119 0.0
C406 C 0.14805 0.22084 0.32977 0.0
H407 H 0.80507 0.11975 0.58397 0.0
H408 H 0.71136 0.20767 0.55235 0.0
H409 H 0.73358 0.25659 0.59463 0.0
H410 H 0.79422 0.13936 0.66804 0.0
H411 H 0.849 0.13326 0.67574 0.0
H412 H 0.82506 0.10548 0.6433 0.0
H413 H 0.87828 0.13726 0.60369 0.0
H414 H 0.90247 0.16498 0.63599 0.0
H415 H 0.88389 0.19287 0.60149 0.0
H416 H 0.76854 0.29663 0.63976 0.0
H417 H 0.8128 0.32375 0.68344 0.0
H418 H 0.88097 0.20736 0.68484 0.0
C419 C 0.78913 0.14927 0.58583 0.0
C420 C 0.75661 0.16003 0.56486 0.0
C421 C 0.7364 0.19886 0.56825 0.0
C422 C 0.74876 0.22678 0.59217 0.0
C423 C 0.78102 0.21507 0.6125 0.0
C424 C 0.80075 0.17713 0.60955 0.0
C425 C 0.83471 0.17175 0.634 0.0
C426 C 0.82515 0.13531 0.65661 0.0
C427 C 0.87735 0.16643 0.61782 0.0
C428 C 0.83148 0.21283 0.65102 0.0
C429 C 0.80038 0.23751 0.63845 0.0
C430 C 0.79279 0.27744 0.64993 0.0
C431 C 0.81802 0.29255 0.6747 0.0
C432 C 0.85024 0.26765 0.68756 0.0
C433 C 0.8565 0.22718 0.67569 0.0
H434 H 0.79825 0.84317 0.96019 0.0
H435 H 0.69665 0.87667 0.897 0.0
H436 H 0.72832 0.83488 0.85411 0.0
H437 H 0.87503 0.85548 0.90663 0.0
H438 H 0.9071 0.81268 0.91942 0.0
H439 H 0.87235 0.83703 0.94725 0.0
H440 H 0.83731 0.76626 0.95904 0.0
H441 H 0.87244 0.74141 0.93147 0.0
H442 H 0.81708 0.73573 0.92652 0.0
H443 H 0.77699 0.80181 0.81581 0.0
H444 H 0.83743 0.77622 0.78544 0.0
H445 H 0.90718 0.76335 0.87358 0.0
C446 C 0.7819 0.8406 0.93768 0.0
C447 C 0.74502 0.86317 0.93189 0.0
C448 C 0.72486 0.8595 0.90199 0.0
C449 C 0.74257 0.83576 0.87751 0.0
C450 C 0.78003 0.81548 0.88353 0.0
C451 C 0.79915 0.8171 0.91305 0.0
C452 C 0.84148 0.7966 0.91236 0.0
C453 C 0.87599 0.82729 0.92196 0.0
C454 C 0.84209 0.75768 0.9336 0.0
C455 C 0.84418 0.78526 0.87741 0.0
C456 C 0.80815 0.79582 0.8613 0.0
C457 C 0.80493 0.7924 0.82826 0.0
C458 C 0.83952 0.77815 0.81121 0.0
C459 C 0.87681 0.76759 0.82726 0.0
C460 C 0.87878 0.77044 0.86081 0.0
H461 H 0.20334 0.89174 0.07802 0.0
H462 H 0.31072 0.81226 0.0634 0.0
H463 H 0.28535 0.76532 0.10606 0.0
H464 H 0.20093 0.88372 0.16225 0.0
H465 H 0.14499 0.88423 0.16456 0.0
H466 H 0.1709 0.91011 0.13208 0.0
H467 H 0.12839 0.86692 0.09131 0.0
H468 H 0.10216 0.84108 0.12368 0.0
H469 H 0.12908 0.81105 0.09383 0.0
H470 H 0.24798 0.72803 0.15144 0.0
H471 H 0.20186 0.70363 0.19495 0.0
H472 H 0.12106 0.80967 0.17895 0.0
C473 C 0.2215 0.86432 0.0835 0.0
C474 C 0.25895 0.85556 0.06737 0.0
C475 C 0.28185 0.81948 0.07548 0.0
C476 C 0.26772 0.79271 0.09964 0.0
C477 C 0.23081 0.80267 0.11533 0.0
C478 C 0.20808 0.83762 0.10748 0.0
C479 C 0.17 0.84223 0.12818 0.0
C480 C 0.17185 0.88245 0.14793 0.0
C481 C 0.13006 0.84017 0.10804 0.0
C482 C 0.17475 0.80437 0.14904 0.0
C483 C 0.20987 0.78177 0.14136 0.0
C484 C 0.22038 0.74548 0.15763 0.0
C485 C 0.19407 0.73191 0.18229 0.0
C486 C 0.15794 0.75478 0.19033 0.0
C487 C 0.14847 0.79148 0.17347 0.0
H488 H 0.97407 0.25978 0.06418 0.0
H489 H 0.96429 0.39234 0.07966 0.0
H490 H 0.99446 0.40517 0.02598 0.0
H491 H 0.0733 0.26402 0.02495 0.0
H492 H 0.06183 0.22227 0.99773 0.0
H493 H 0.03747 0.22373 0.03646 0.0
H494 H 0.9647 0.2206 0.0099 0.0
H495 H 0.98889 0.21872 0.97117 0.0
H496 H 0.95111 0.25844 0.97992 0.0
H497 H 0.02364 0.4029 0.96984 0.0
H498 H 0.05129 0.38594 0.91616 0.0
H499 H 0.04731 0.25495 0.93941 0.0
C500 C 0.97765 0.29146 0.05594 0.0
C501 C 0.96614 0.32521 0.07552 0.0
C502 C 0.97241 0.36625 0.0646 0.0
C503 C 0.98966 0.37373 0.03431 0.0
C504 C 1.00119 0.33975 0.01564 0.0
C505 C 0.99567 0.29942 0.02613 0.0
C506 C 0.01209 0.2684 1.00205 0.0
C507 C 0.04832 0.24312 0.01614 0.0
C508 C 0.97711 0.23988 0.99006 0.0
C509 C 0.02696 0.29749 0.976 0.0
C510 C 0.0203 0.33853 0.98426 0.0
C511 C 0.02948 0.37093 0.96331 0.0
C512 C 0.04523 0.36109 0.93297 0.0
C513 C 0.05208 0.31931 0.92408 0.0
C514 C 0.04338 0.28721 0.94604 0.0
H515 H 0.72263 1.00348 0.17014 0.0
H516 H 0.72042 0.13661 0.18551 0.0
H517 H 0.70925 0.12448 0.24339 0.0
H518 H 0.64252 0.97639 0.2275 0.0
H519 H 0.66849 0.92933 0.2396 0.0
H520 H 0.67492 0.94876 0.19954 0.0
H521 H 0.75487 0.94931 0.20694 0.0
H522 H 0.74872 0.92957 0.24687 0.0
H523 H 0.77715 0.97698 0.24016 0.0
H524 H 0.70257 0.09751 0.29914 0.0
H525 H 0.70132 0.05903 0.34921 0.0
H526 H 0.70327 0.94249 0.29721 0.0
C527 C 0.71866 0.03024 0.18537 0.0
C528 C 0.72098 0.07114 0.17319 0.0
C529 C 0.71791 0.10511 0.19437 0.0
C530 C 0.7115 0.09847 0.22715 0.0
C531 C 0.7085 0.05767 0.23818 0.0
C532 C 0.71204 0.02414 0.21793 0.0
C533 C 0.70944 0.98336 0.23588 0.0
C534 C 0.67158 0.95797 0.22498 0.0
C535 C 0.74995 0.95835 0.23225 0.0
C536 C 0.70397 0.99913 0.26963 0.0
C537 C 0.70352 0.04207 0.27033 0.0
C538 C 0.70149 0.06393 0.29881 0.0
C539 C 0.69991 0.04145 0.32734 0.0
C540 C 0.69968 0.99731 0.32743 0.0
C541 C 0.70192 0.97607 0.298 0.0
H542 H 1.00553 0.70343 0.58686 0.0
H543 H 0.13833 0.70008 0.56889 0.0
H544 H 0.12422 0.69203 0.51107 0.0
H545 H 0.97448 0.62786 0.52558 0.0
H546 H 0.92784 0.6564 0.51615 0.0
H547 H 0.94869 0.65779 0.55608 0.0
H548 H 0.95095 0.73811 0.55362 0.0
H549 H 0.93043 0.73707 0.51368 0.0
H550 H 0.97885 0.76319 0.52166 0.0
H551 H 0.09573 0.69252 0.45597 0.0
H552 H 0.05582 0.69867 0.40666 0.0
H553 H 0.94062 0.69741 0.46065 0.0
C554 C 0.03184 0.69932 0.57117 0.0
C555 C 0.07318 0.70093 0.58254 0.0
C556 C 0.10648 0.69801 0.56066 0.0
C557 C 0.09873 0.69342 0.5279 0.0
C558 C 0.05751 0.69194 0.51763 0.0
C559 C 0.02462 0.69459 0.53862 0.0
C560 C 0.98325 0.69517 0.52139 0.0
C561 C 0.95702 0.65702 0.53033 0.0
C562 C 0.9595 0.7358 0.52798 0.0
C563 C 0.998 0.69295 0.48717 0.0
C564 C 0.04093 0.69107 0.48565 0.0
C565 C 0.06211 0.69232 0.45682 0.0
C566 C 0.03887 0.69517 0.42877 0.0
C567 C 0.99472 0.69589 0.42953 0.0
C568 C 0.97416 0.69521 0.45925 0.0
H569 H 0.30706 0.9433 0.70928 0.0
H570 H 0.29907 0.06132 0.65956 0.0
H571 H 0.31091 0.09841 0.70981 0.0
H572 H 0.25001 0.9785 0.77782 0.0
H573 H 0.27966 0.94815 0.80592 0.0
H574 H 0.27389 0.93051 0.76542 0.0
H575 H 0.35412 0.92672 0.75986 0.0
H576 H 0.36001 0.94491 0.80028 0.0
H577 H 0.38491 0.97225 0.76795 0.0
H578 H 0.322 0.12332 0.76522 0.0
H579 H 0.32407 0.13413 0.82363 0.0
H580 H 0.32067 1.00057 0.83756 0.0
C581 C 0.3084 0.97689 0.70904 0.0
C582 C 0.30442 0.99929 0.68028 0.0
C583 C 0.30448 0.04332 0.68099 0.0
C584 C 0.31085 0.06481 0.70949 0.0
C585 C 0.31617 0.04189 0.73727 0.0
C586 C 0.31425 0.99897 0.73748 0.0
C587 C 0.3176 0.9822 0.77114 0.0
C588 C 0.27793 0.95846 0.78062 0.0
C589 C 0.35649 0.95491 0.77502 0.0
C590 C 0.32173 0.02241 0.78957 0.0
C591 C 0.32122 0.05643 0.76958 0.0
C592 C 0.32283 0.09692 0.7812 0.0
C593 C 0.3241 0.10276 0.81434 0.0
C594 C 0.3237 0.06833 0.83533 0.0
C595 C 0.32288 0.02771 0.82257 0.0
H596 H 0.12021 0.14338 0.16436 0.0
H597 H 0.11171 0.25899 0.11175 0.0
H598 H 0.15293 0.2285 0.06781 0.0
H599 H 0.22609 0.11626 0.13996 0.0
H600 H 0.21475 0.06163 0.13679 0.0
H601 H 0.1865 0.09334 0.16481 0.0
H602 H 0.11707 0.06974 0.13929 0.0
H603 H 0.14511 0.03818 0.11111 0.0
H604 H 0.10903 0.07693 0.09704 0.0
H605 H 0.19344 0.18527 0.02927 0.0
H606 H 0.22993 0.13171 0.99794 0.0
H607 H 0.21135 0.04324 0.07503 0.0
C608 C 0.12781 0.16233 0.1438 0.0
C609 C 0.11337 0.20358 0.14139 0.0
C610 C 0.12283 0.22736 0.11392 0.0
C611 C 0.1462 0.21035 0.08894 0.0
C612 C 0.15978 0.16946 0.09182 0.0
C613 C 0.15099 0.1457 0.11851 0.0
C614 C 0.16796 0.10203 0.11492 0.0
C615 C 0.20078 0.09278 0.14065 0.0
C616 C 0.13268 0.06983 0.11563 0.0
C617 C 0.18745 0.10498 0.08203 0.0
C618 C 0.18254 0.14421 0.06923 0.0
C619 C 0.19761 0.15444 0.03905 0.0
C620 C 0.2183 0.12376 0.02144 0.0
C621 C 0.22357 0.08318 0.03394 0.0
C622 C 0.20785 0.07388 0.06471 0.0
H623 H 0.96803 0.2184 0.31996 0.0
H624 H 0.87903 0.22733 0.24229 0.0
H625 H 0.82638 0.19249 0.27598 0.0
H626 H 0.93813 0.1182 0.34748 0.0
H627 H 0.94545 0.13016 0.38913 0.0
H628 H 0.97557 0.15687 0.35928 0.0
H629 H 0.9498 0.22748 0.38121 0.0
H630 H 0.91943 0.20099 0.41108 0.0
H631 H 0.89476 0.23724 0.38428 0.0
H632 H 0.78456 0.15346 0.31723 0.0
H633 H 0.75636 0.11432 0.36317 0.0
H634 H 0.8717 0.1323 0.41465 0.0
C635 C 0.93743 0.21324 0.30996 0.0
C636 C 0.92778 0.22568 0.27831 0.0
C637 C 0.88726 0.21826 0.26638 0.0
C638 C 0.85712 0.19847 0.28538 0.0
C639 C 0.8678 0.18657 0.31637 0.0
C640 C 0.90694 0.19382 0.32864 0.0
C641 C 0.91073 0.17742 0.36253 0.0
C642 C 0.94447 0.14366 0.36472 0.0
C643 C 0.91918 0.2129 0.38617 0.0
C644 C 0.8677 0.15932 0.36738 0.0
C645 C 0.84344 0.16497 0.34042 0.0
C646 C 0.80314 0.14937 0.33854 0.0
C647 C 0.78738 0.12721 0.36472 0.0
C648 C 0.81164 0.12096 0.39252 0.0
C649 C 0.85221 0.13754 0.39395 0.0
H650 H 0.80337 0.97104 0.56989 0.0
H651 H 0.79996 0.88561 0.48981 0.0
H652 H 0.83726 0.83329 0.52223 0.0
H653 H 0.90493 0.94455 0.59775 0.0
H654 H 0.89176 0.94912 0.63944 0.0
H655 H 0.8642 0.97946 0.61015 0.0
H656 H 0.79439 0.94938 0.6304 0.0
H657 H 0.82173 0.9188 0.65971 0.0
H658 H 0.78724 0.8939 0.63176 0.0
H659 H 0.87754 0.79118 0.5628 0.0
H660 H 0.91632 0.76212 0.60867 0.0
H661 H 0.892 0.87391 0.66299 0.0
C662 C 0.81035 0.94132 0.55908 0.0
C663 C 0.79869 0.9326 0.5271 0.0
C664 C 0.80841 0.89315 0.51414 0.0
C665 C 0.82963 0.8632 0.53241 0.0
C666 C 0.84067 0.87291 0.56376 0.0
C667 C 0.8312 0.91096 0.57705 0.0
C668 C 0.84674 0.91372 0.61124 0.0
C669 C 0.87881 0.94879 0.61484 0.0
C670 C 0.81035 0.91928 0.63466 0.0
C671 C 0.86685 0.87138 0.61508 0.0
C672 C 0.86302 0.84835 0.58736 0.0
C673 C 0.88035 0.80884 0.58466 0.0
C674 C 0.90234 0.7926 0.6108 0.0
C675 C 0.90678 0.81563 0.63938 0.0
C676 C 0.88844 0.8554 0.6416 0.0
H677 H 0.04518 0.80825 0.82574 0.0
H678 H 0.13251 0.79963 0.74685 0.0
H679 H 0.18547 0.8351 0.77913 0.0
H680 H 0.0764 0.90961 0.85253 0.0
H681 H 0.07073 0.89781 0.89439 0.0
H682 H 0.03931 0.87112 0.86535 0.0
H683 H 0.06565 0.80049 0.88693 0.0
H684 H 0.09731 0.82697 0.91596 0.0
H685 H 0.12075 0.79054 0.88872 0.0
H686 H 0.22863 0.873 0.81867 0.0
H687 H 0.25977 0.91075 0.864 0.0
H688 H 0.14622 0.8947 0.91837 0.0
C689 C 0.07545 0.81378 0.81527 0.0
C690 C 0.08451 0.80101 0.78363 0.0
C691 C 0.12463 0.80888 0.77096 0.0
C692 C 0.15505 0.82906 0.78912 0.0
C693 C 0.14516 0.84112 0.8201 0.0
C694 C 0.10644 0.83379 0.83321 0.0
C695 C 0.10414 0.85034 0.86714 0.0
C696 C 0.07066 0.88424 0.87 0.0
C697 C 0.09651 0.81497 0.8911 0.0
C698 C 0.1475 0.86833 0.87087 0.0
C699 C 0.17054 0.8626 0.84335 0.0
C700 C 0.21102 0.8774 0.84043 0.0
C701 C 0.22843 0.89882 0.86624 0.0
C702 C 0.20551 0.90522 0.89465 0.0
C703 C 0.1646 0.88954 0.89707 0.0
H704 H 0.13338 0.87274 0.33971 0.0
H705 H 0.11445 0.75989 0.39418 0.0
H706 H 0.15297 0.79006 0.43957 0.0
H707 H 0.23835 0.89673 0.37071 0.0
H708 H 0.22869 0.95183 0.37191 0.0
H709 H 0.20274 0.92003 0.34269 0.0
H710 H 0.13155 0.94719 0.36265 0.0
H711 H 0.15726 0.97877 0.39207 0.0
H712 H 0.11822 0.94191 0.40427 0.0
H713 H 0.18988 0.83367 0.4802 0.0
H714 H 0.22359 0.88746 0.51313 0.0
H715 H 0.21823 0.97308 0.43302 0.0
C716 C 0.13837 0.85418 0.36094 0.0
C717 C 0.12154 0.81379 0.36339 0.0
C718 C 0.12751 0.79074 0.39182 0.0
C719 C 0.14929 0.80763 0.41772 0.0
C720 C 0.16491 0.84779 0.4149 0.0
C721 C 0.15993 0.87079 0.38723 0.0
C722 C 0.17805 0.914 0.39121 0.0
C723 C 0.2141 0.92105 0.36774 0.0
C724 C 0.14425 0.94743 0.38733 0.0
C725 C 0.19351 0.91176 0.42545 0.0
C726 C 0.18578 0.87321 0.43859 0.0
C727 C 0.19636 0.86391 0.47009 0.0
C728 C 0.21547 0.89476 0.48867 0.0
C729 C 0.22375 0.93463 0.47583 0.0
C730 C 0.21254 0.94297 0.44368 0.0
H731 H 0.21796 0.1177 0.64359 0.0
H732 H 0.15017 0.14935 0.55734 0.0
H733 H 0.10348 0.19405 0.58873 0.0
H734 H 0.12742 0.10943 0.69334 0.0
H735 H 0.15176 0.13059 0.7285 0.0
H736 H 0.18266 0.10379 0.69914 0.0
H737 H 0.23021 0.16803 0.69375 0.0
H738 H 0.19943 0.19521 0.72301 0.0
H739 H 0.20769 0.21776 0.68412 0.0
H740 H 0.06274 0.23274 0.62842 0.0
H741 H 0.02674 0.26167 0.67475 0.0
H742 H 0.11685 0.20393 0.73812 0.0
C743 C 0.19336 0.13422 0.63133 0.0
C744 C 0.18833 0.13059 0.59772 0.0
C745 C 0.15562 0.15254 0.58271 0.0
C746 C 0.12867 0.1778 0.60045 0.0
C747 C 0.13441 0.18063 0.63337 0.0
C748 C 0.16569 0.15932 0.64885 0.0
C749 C 0.16316 0.16631 0.68485 0.0
C750 C 0.1558 0.12507 0.70249 0.0
C751 C 0.20247 0.18813 0.69715 0.0
C752 C 0.1253 0.19467 0.68711 0.0
C753 C 0.10972 0.20253 0.65691 0.0
C754 C 0.07463 0.22684 0.65217 0.0
C755 C 0.0543 0.24307 0.67886 0.0
C756 C 0.06863 0.23508 0.71036 0.0
C757 C 0.10522 0.21097 0.71447 0.0
H758 H 0.905 0.2178 0.89707 0.0
H759 H 0.89836 0.14048 0.81253 0.0
H760 H 0.8598 0.08739 0.84292 0.0
H761 H 0.91872 0.13295 0.95409 0.0
H762 H 0.88724 0.15706 0.98451 0.0
H763 H 0.91495 0.18869 0.95611 0.0
H764 H 0.84608 0.22488 0.94054 0.0
H765 H 0.81804 0.19285 0.96848 0.0
H766 H 0.80286 0.19392 0.92705 0.0
H767 H 0.82168 0.04351 0.88119 0.0
H768 H 0.78641 1.00929 0.92586 0.0
H769 H 0.81635 0.11368 0.98743 0.0
C770 C 0.89554 0.18952 0.88516 0.0
C771 C 0.90421 0.18327 0.85238 0.0
C772 C 0.89145 0.14603 0.83748 0.0
C773 C 0.86968 0.11568 0.85457 0.0
C774 C 0.861 0.12292 0.88666 0.0
C775 C 0.87354 0.15874 0.90197 0.0
C776 C 0.85966 0.15842 0.93671 0.0
C777 C 0.89739 0.1593 0.9592 0.0
C778 C 0.82988 0.19468 0.94359 0.0
C779 C 0.83724 0.11692 0.93836 0.0
C780 C 0.83863 0.09715 0.90912 0.0
C781 C 0.82042 0.05858 0.90424 0.0
C782 C 0.80041 0.03939 0.92993 0.0
C783 C 0.79848 0.05861 0.96039 0.0
C784 C 0.8171 0.09815 0.96452 0.0
H785 H 0.97042 0.79532 0.18641 0.0
H786 H 0.88677 0.79878 0.26779 0.0
H787 H 0.83473 0.83576 0.23504 0.0
H788 H 0.94613 0.89598 0.15612 0.0
H789 H 0.94934 0.88087 0.11477 0.0
H790 H 0.97965 0.85382 0.14435 0.0
H791 H 0.94712 0.78407 0.1265 0.0
H792 H 0.91661 0.81092 0.09689 0.0
H793 H 0.89137 0.77847 0.12611 0.0
H794 H 0.79339 0.87577 0.19446 0.0
H795 H 0.76462 0.9138 0.14804 0.0
H796 H 0.87341 0.88175 0.09231 0.0
C797 C 0.94111 0.80367 0.19739 0.0
C798 C 0.93278 0.79411 0.22979 0.0
C799 C 0.89393 0.80561 0.24307 0.0
C800 C 0.86415 0.82666 0.22465 0.0
C801 C 0.87348 0.8357 0.19289 0.0
C802 C 0.9109 0.82437 0.17928 0.0
C803 C 0.91334 0.83818 0.14468 0.0
C804 C 0.94924 0.86905 0.1397 0.0
C805 C 0.91734 0.80066 0.12222 0.0
C806 C 0.8715 0.85926 0.14098 0.0
C807 C 0.84908 0.85765 0.16916 0.0
C808 C 0.81041 0.87675 0.17218 0.0
C809 C 0.79433 0.89821 0.14578 0.0
C810 C 0.81665 0.89998 0.11672 0.0
C811 C 0.85553 0.88002 0.11418 0.0
loop_
_geom_bond_atom_site_label_1
_geom_bond_atom_site_label_2
_geom_bond_distance
_geom_bond_site_symmetry_2
_ccdc_geom_bond_type
Co0 O3 1.970 . S
Co0 N17 1.989 . S
Co0 O25 1.967 . S
Co0 O32 1.920 . S
Co1 O4 1.966 . S
Co1 N10 2.022 . S
Co1 N18 1.993 . S
Co1 O26 1.941 . S
C2 O3 1.258 . S
C2 O4 1.263 . S
O3 Co0 1.970 . S
O3 C2 1.258 . S
O4 Co1 1.966 . S
O4 C2 1.263 . S
C5 O6 1.235 . S
C5 O32 1.289 . S
O6 C5 1.235 . S
C7 C9 1.400 . S
C7 N10 1.351 . S
C7 C12 1.501 . S
C8 C9 1.387 . S
C8 N11 1.341 . S
C9 C7 1.400 . S
C9 C8 1.387 . S
N10 Co1 2.022 . S
N10 C7 1.351 . S
N10 N11 1.365 . S
N11 C8 1.341 . S
N11 N10 1.365 . S
N11 H31 0.862 . S
C12 C7 1.501 . S
C12 H13 0.961 . S
C12 H14 0.961 . S
C12 H15 0.960 . S
H13 C12 0.961 . S
H14 C12 0.961 . S
H15 C12 0.960 . S
C16 N17 1.342 . S
C16 C20 1.401 . S
C16 C21 1.499 . S
N17 Co0 1.989 . S
N17 C16 1.342 . S
N17 N18 1.388 . S
N18 Co1 1.993 . S
N18 N17 1.388 . S
N18 C19 1.346 . S
C19 N18 1.346 . S
C19 C20 1.396 . S
C19 C29 1.510 . S
C20 C16 1.401 . S
C20 C19 1.396 . S
C21 C16 1.499 . S
C21 H22 0.959 . S
C21 H23 0.960 . S
C21 H24 0.961 . S
H22 C21 0.959 . S
H23 C21 0.960 . S
H24 C21 0.961 . S
O25 Co0 1.967 . S
O25 C33 1.258 . S
O26 Co1 1.941 . S
O26 C33 1.266 . S
H27 C29 0.959 . S
H28 C29 0.961 . S
C29 C19 1.510 . S
C29 H27 0.959 . S
C29 H28 0.961 . S
C29 H30 0.960 . S
H30 C29 0.960 . S
H31 N11 0.862 . S
O32 Co0 1.920 . S
O32 C5 1.289 . S
C33 O25 1.258 . S
C33 O26 1.266 . S
Co34 O37 1.970 . S
Co34 N51 1.989 . S
Co34 O59 1.967 . S
Co34 O66 1.920 . S
Co35 O38 1.966 . S
Co35 N44 2.022 . S
Co35 N52 1.993 . S
Co35 O60 1.941 . S
C36 O37 1.258 . S
C36 O38 1.263 . S
O37 Co34 1.970 . S
O37 C36 1.258 . S
O38 Co35 1.966 . S
O38 C36 1.263 . S
C39 O40 1.235 . S
C39 O66 1.289 . S
O40 C39 1.235 . S
C41 C43 1.400 . S
C41 N44 1.351 . S
C41 C46 1.501 . S
C42 C43 1.387 . S
C42 N45 1.341 . S
C43 C41 1.400 . S
C43 C42 1.387 . S
N44 Co35 2.022 . S
N44 C41 1.351 . S
N44 N45 1.365 . S
N45 C42 1.341 . S
N45 N44 1.365 . S
N45 H65 0.862 . S
C46 C41 1.501 . S
C46 H47 0.961 . S
C46 H48 0.961 . S
C46 H49 0.960 . S
H47 C46 0.961 . S
H48 C46 0.961 . S
H49 C46 0.960 . S
C50 N51 1.342 . S
C50 C54 1.401 . S
C50 C55 1.499 . S
N51 Co34 1.989 . S
N51 C50 1.342 . S
N51 N52 1.388 . S
N52 Co35 1.993 . S
N52 N51 1.388 . S
N52 C53 1.346 . S
C53 N52 1.346 . S
C53 C54 1.396 . S
C53 C63 1.510 . S
C54 C50 1.401 . S
C54 C53 1.396 . S
C55 C50 1.499 . S
C55 H56 0.959 . S
C55 H57 0.960 . S
C55 H58 0.961 . S
H56 C55 0.959 . S
H57 C55 0.960 . S
H58 C55 0.961 . S
O59 Co34 1.967 . S
O59 C67 1.258 . S
O60 Co35 1.941 . S
O60 C67 1.266 . S
H61 C63 0.959 . S
H62 C63 0.961 . S
C63 C53 1.510 . S
C63 H61 0.959 . S
C63 H62 0.961 . S
C63 H64 0.960 . S
H64 C63 0.960 . S
H65 N45 0.862 . S
O66 Co34 1.920 . S
O66 C39 1.289 . S
C67 O59 1.258 . S
C67 O60 1.266 . S
Co68 O71 1.970 . S
Co68 N85 1.989 . S
Co68 O93 1.967 . S
Co68 O100 1.920 . S
Co69 O72 1.966 . S
Co69 N78 2.022 . S
Co69 N86 1.993 . S
Co69 O94 1.941 . S
C70 O71 1.258 . S
C70 O72 1.263 . S
O71 Co68 1.970 . S
O71 C70 1.258 . S
O72 Co69 1.966 . S
O72 C70 1.263 . S
C73 O74 1.235 . S
C73 O100 1.289 . S
O74 C73 1.235 . S
C75 C77 1.400 . S
C75 N78 1.351 . S
C75 C80 1.501 . S
C76 C77 1.387 . S
C76 N79 1.341 . S
C77 C75 1.400 . S
C77 C76 1.387 . S
N78 Co69 2.022 . S
N78 C75 1.351 . S
N78 N79 1.365 . S
N79 C76 1.341 . S
N79 N78 1.365 . S
N79 H99 0.862 . S
C80 C75 1.501 . S
C80 H81 0.961 . S
C80 H82 0.961 . S
C80 H83 0.960 . S
H81 C80 0.961 . S
H82 C80 0.961 . S
H83 C80 0.960 . S
C84 N85 1.342 . S
C84 C88 1.401 . S
C84 C89 1.499 . S
N85 Co68 1.989 . S
N85 C84 1.342 . S
N85 N86 1.388 . S
N86 Co69 1.993 . S
N86 N85 1.388 . S
N86 C87 1.346 . S
C87 N86 1.346 . S
C87 C88 1.396 . S
C87 C97 1.510 . S
C88 C84 1.401 . S
C88 C87 1.396 . S
C89 C84 1.499 . S
C89 H90 0.959 . S
C89 H91 0.960 . S
C89 H92 0.961 . S
H90 C89 0.959 . S
H91 C89 0.960 . S
H92 C89 0.961 . S
O93 Co68 1.967 . S
O93 C101 1.258 . S
O94 Co69 1.941 . S
O94 C101 1.266 . S
H95 C97 0.959 . S
H96 C97 0.961 . S
C97 C87 1.510 . S
C97 H95 0.959 . S
C97 H96 0.961 . S
C97 H98 0.960 . S
H98 C97 0.960 . S
H99 N79 0.862 . S
O100 Co68 1.920 . S
O100 C73 1.289 . S
C101 O93 1.258 . S
C101 O94 1.266 . S
Co102 O105 1.970 . S
Co102 N119 1.989 . S
Co102 O127 1.967 1_556 S
Co102 O134 1.920 1_556 S
Co103 O106 1.966 . S
Co103 N112 2.022 . S
Co103 N120 1.993 . S
Co103 O128 1.941 . S
C104 O105 1.258 . S
C104 O106 1.263 . S
O105 Co102 1.970 . S
O105 C104 1.258 . S
O106 Co103 1.966 . S
O106 C104 1.263 . S
C107 O108 1.235 . S
C107 O134 1.289 . S
O108 C107 1.235 . S
C109 C111 1.400 . S
C109 N112 1.351 . S
C109 C114 1.501 . S
C110 C111 1.387 . S
C110 N113 1.341 . S
C111 C109 1.400 . S
C111 C110 1.387 . S
N112 Co103 2.022 . S
N112 C109 1.351 . S
N112 N113 1.365 . S
N113 C110 1.341 . S
N113 N112 1.365 . S
N113 H133 0.862 . S
C114 C109 1.501 . S
C114 H115 0.961 . S
C114 H116 0.961 . S
C114 H117 0.960 . S
H115 C114 0.961 . S
H116 C114 0.961 . S
H117 C114 0.960 . S
C118 N119 1.342 . S
C118 C122 1.401 . S
C118 C123 1.499 . S
N119 Co102 1.989 . S
N119 C118 1.342 . S
N119 N120 1.388 . S
N120 Co103 1.993 . S
N120 N119 1.388 . S
N120 C121 1.346 . S
C121 N120 1.346 . S
C121 C122 1.396 . S
C121 C131 1.510 . S
C122 C118 1.401 . S
C122 C121 1.396 . S
C123 C118 1.499 . S
C123 H124 0.959 . S
C123 H125 0.960 . S
C123 H126 0.961 . S
H124 C123 0.959 . S
H125 C123 0.960 . S
H126 C123 0.961 . S
O127 Co102 1.967 1_554 S
O127 C135 1.258 1_554 S
O128 Co103 1.941 . S
O128 C135 1.266 . S
H129 C131 0.959 . S
H130 C131 0.961 . S
C131 C121 1.510 . S
C131 H129 0.959 . S
C131 H130 0.961 . S
C131 H132 0.960 . S
H132 C131 0.960 . S
H133 N113 0.862 . S
O134 Co102 1.920 1_554 S
O134 C107 1.289 . S
C135 O127 1.258 1_556 S
C135 O128 1.266 . S
Co136 O139 1.970 . S
Co136 N153 1.989 . S
Co136 O161 1.967 . S
Co136 O168 1.920 . S
Co137 O140 1.966 . S
Co137 N146 2.022 . S
Co137 N154 1.993 . S
Co137 O162 1.941 . S
C138 O139 1.258 . S
C138 O140 1.263 . S
O139 Co136 1.970 . S
O139 C138 1.258 . S
O140 Co137 1.966 . S
O140 C138 1.263 . S
C141 O142 1.235 . S
C141 O168 1.289 . S
O142 C141 1.235 . S
C143 C145 1.400 . S
C143 N146 1.351 . S
C143 C148 1.501 . S
C144 C145 1.387 . S
C144 N147 1.341 . S
C145 C143 1.400 . S
C145 C144 1.387 . S
N146 Co137 2.022 . S
N146 C143 1.351 . S
N146 N147 1.365 . S
N147 C144 1.341 . S
N147 N146 1.365 . S
N147 H167 0.862 . S
C148 C143 1.501 . S
C148 H149 0.961 . S
C148 H150 0.961 . S
C148 H151 0.960 . S
H149 C148 0.961 . S
H150 C148 0.961 . S
H151 C148 0.960 . S
C152 N153 1.342 . S
C152 C156 1.401 . S
C152 C157 1.499 . S
N153 Co136 1.989 . S
N153 C152 1.342 . S
N153 N154 1.388 . S
N154 Co137 1.993 . S
N154 N153 1.388 . S
N154 C155 1.346 . S
C155 N154 1.346 . S
C155 C156 1.396 . S
C155 C165 1.510 . S
C156 C152 1.401 . S
C156 C155 1.396 . S
C157 C152 1.499 . S
C157 H158 0.959 . S
C157 H159 0.960 . S
C157 H160 0.961 . S
H158 C157 0.959 . S
H159 C157 0.960 . S
H160 C157 0.961 . S
O161 Co136 1.967 . S
O161 C169 1.258 . S
O162 Co137 1.941 . S
O162 C169 1.266 . S
H163 C165 0.959 . S
H164 C165 0.961 . S
C165 C155 1.510 . S
C165 H163 0.959 . S
C165 H164 0.961 . S
C165 H166 0.960 . S
H166 C165 0.960 . S
H167 N147 0.862 . S
O168 Co136 1.920 . S
O168 C141 1.289 . S
C169 O161 1.258 . S
C169 O162 1.266 . S
Co170 O173 1.970 . S
Co170 N187 1.989 . S
Co170 O195 1.967 . S
Co170 O202 1.920 . S
Co171 O174 1.966 . S
Co171 N180 2.022 . S
Co171 N188 1.993 . S
Co171 O196 1.941 . S
C172 O173 1.258 . S
C172 O174 1.263 . S
O173 Co170 1.970 . S
O173 C172 1.258 . S
O174 Co171 1.966 . S
O174 C172 1.263 . S
C175 O176 1.235 . S
C175 O202 1.289 . S
O176 C175 1.235 . S
C177 C179 1.400 . S
C177 N180 1.351 . S
C177 C182 1.501 . S
C178 C179 1.387 . S
C178 N181 1.341 . S
C179 C177 1.400 . S
C179 C178 1.387 . S
N180 Co171 2.022 . S
N180 C177 1.351 . S
N180 N181 1.365 . S
N181 C178 1.341 . S
N181 N180 1.365 . S
N181 H201 0.862 . S
C182 C177 1.501 . S
C182 H183 0.961 . S
C182 H184 0.961 . S
C182 H185 0.960 . S
H183 C182 0.961 . S
H184 C182 0.961 . S
H185 C182 0.960 . S
C186 N187 1.342 . S
C186 C190 1.401 . S
C186 C191 1.499 . S
N187 Co170 1.989 . S
N187 C186 1.342 . S
N187 N188 1.388 . S
N188 Co171 1.993 . S
N188 N187 1.388 . S
N188 C189 1.346 . S
C189 N188 1.346 . S
C189 C190 1.396 . S
C189 C199 1.510 . S
C190 C186 1.401 . S
C190 C189 1.396 . S
C191 C186 1.499 . S
C191 H192 0.959 . S
C191 H193 0.960 . S
C191 H194 0.961 . S
H192 C191 0.959 . S
H193 C191 0.960 . S
H194 C191 0.961 . S
O195 Co170 1.967 . S
O195 C203 1.258 . S
O196 Co171 1.941 . S
O196 C203 1.266 . S
H197 C199 0.959 . S
H198 C199 0.961 . S
C199 C189 1.510 . S
C199 H197 0.959 . S
C199 H198 0.961 . S
C199 H200 0.960 . S
H200 C199 0.960 . S
H201 N181 0.862 . S
O202 Co170 1.920 . S
O202 C175 1.289 . S
C203 O195 1.258 . S
C203 O196 1.266 . S
Co204 O207 1.970 . S
Co204 N221 1.989 . S
Co204 O229 1.967 . S
Co204 O236 1.920 . S
Co205 O208 1.966 . S
Co205 N214 2.022 . S
Co205 N222 1.993 . S
Co205 O230 1.941 . S
C206 O207 1.258 . S
C206 O208 1.263 . S
O207 Co204 1.970 . S
O207 C206 1.258 . S
O208 Co205 1.966 . S
O208 C206 1.263 . S
C209 O210 1.235 . S
C209 O236 1.289 . S
O210 C209 1.235 . S
C211 C213 1.400 . S
C211 N214 1.351 . S
C211 C216 1.501 . S
C212 C213 1.387 . S
C212 N215 1.341 . S
C213 C211 1.400 . S
C213 C212 1.387 . S
N214 Co205 2.022 . S
N214 C211 1.351 . S
N214 N215 1.365 . S
N215 C212 1.341 . S
N215 N214 1.365 . S
N215 H235 0.862 . S
C216 C211 1.501 . S
C216 H217 0.961 . S
C216 H218 0.961 . S
C216 H219 0.960 . S
H217 C216 0.961 . S
H218 C216 0.961 . S
H219 C216 0.960 . S
C220 N221 1.342 . S
C220 C224 1.401 . S
C220 C225 1.499 . S
N221 Co204 1.989 . S
N221 C220 1.342 . S
N221 N222 1.388 . S
N222 Co205 1.993 . S
N222 N221 1.388 . S
N222 C223 1.346 . S
C223 N222 1.346 . S
C223 C224 1.396 . S
C223 C233 1.510 . S
C224 C220 1.401 . S
C224 C223 1.396 . S
C225 C220 1.499 . S
C225 H226 0.959 . S
C225 H227 0.960 . S
C225 H228 0.961 . S
H226 C225 0.959 . S
H227 C225 0.960 . S
H228 C225 0.961 . S
O229 Co204 1.967 . S
O229 C237 1.258 . S
O230 Co205 1.941 . S
O230 C237 1.266 . S
H231 C233 0.959 . S
H232 C233 0.961 . S
C233 C223 1.510 . S
C233 H231 0.959 . S
C233 H232 0.961 . S
C233 H234 0.960 . S
H234 C233 0.960 . S
H235 N215 0.862 . S
O236 Co204 1.920 . S
O236 C209 1.289 . S
C237 O229 1.258 . S
C237 O230 1.266 . S
Co238 O241 1.970 . S
Co238 N255 1.989 . S
Co238 O263 1.967 1_554 S
Co238 O270 1.920 1_554 S
Co239 O242 1.966 . S
Co239 N248 2.022 . S
Co239 N256 1.993 . S
Co239 O264 1.941 . S
C240 O241 1.258 . S
C240 O242 1.263 . S
O241 Co238 1.970 . S
O241 C240 1.258 . S
O242 Co239 1.966 . S
O242 C240 1.263 . S
C243 O244 1.235 . S
C243 O270 1.289 . S
O244 C243 1.235 . S
C245 C247 1.400 . S
C245 N248 1.351 . S
C245 C250 1.501 . S
C246 C247 1.387 . S
C246 N249 1.341 . S
C247 C245 1.400 . S
C247 C246 1.387 . S
N248 Co239 2.022 . S
N248 C245 1.351 . S
N248 N249 1.365 . S
N249 C246 1.341 . S
N249 N248 1.365 . S
N249 H269 0.862 . S
C250 C245 1.501 . S
C250 H251 0.961 . S
C250 H252 0.961 . S
C250 H253 0.960 . S
H251 C250 0.961 . S
H252 C250 0.961 . S
H253 C250 0.960 . S
C254 N255 1.342 . S
C254 C258 1.401 . S
C254 C259 1.499 . S
N255 Co238 1.989 . S
N255 C254 1.342 . S
N255 N256 1.388 . S
N256 Co239 1.993 . S
N256 N255 1.388 . S
N256 C257 1.346 . S
C257 N256 1.346 . S
C257 C258 1.396 . S
C257 C267 1.510 . S
C258 C254 1.401 . S
C258 C257 1.396 . S
C259 C254 1.499 . S
C259 H260 0.959 . S
C259 H261 0.960 . S
C259 H262 0.961 . S
H260 C259 0.959 . S
H261 C259 0.960 . S
H262 C259 0.961 . S
O263 Co238 1.967 1_556 S
O263 C271 1.258 1_556 S
O264 Co239 1.941 . S
O264 C271 1.266 . S
H265 C267 0.959 . S
H266 C267 0.961 . S
C267 C257 1.510 . S
C267 H265 0.959 . S
C267 H266 0.961 . S
C267 H268 0.960 . S
H268 C267 0.960 . S
H269 N249 0.862 . S
O270 Co238 1.920 1_556 S
O270 C243 1.289 . S
C271 O263 1.258 1_554 S
C271 O264 1.266 . S
H272 C284 0.930 . S
H273 C286 0.930 . S
H274 C287 0.930 . S
H275 C291 0.959 . S
H276 C291 0.959 . S
H277 C291 0.961 . S
H278 C292 0.960 . S
H279 C292 0.961 . S
H280 C292 0.959 . S
H281 C295 0.929 . S
H282 C296 0.931 . S
H283 C298 0.930 . S
C284 H272 0.930 . S
C284 C285 1.399 . S
C284 C289 1.399 . S
C285 C284 1.399 . S
C285 C286 1.376 . S
C286 H273 0.930 . S
C286 C285 1.376 . S
C286 C287 1.388 . S
C287 H274 0.930 . S
C287 C286 1.388 . S
C287 C288 1.390 . S
C288 C287 1.390 . S
C288 C289 1.394 . S
C288 C294 1.465 . S
C289 C284 1.399 . S
C289 C288 1.394 . S
C289 C290 1.516 . S
C290 C289 1.516 . S
C290 C291 1.502 . S
C290 C292 1.561 . S
C290 C293 1.526 . S
C291 H275 0.959 . S
C291 H276 0.959 . S
C291 H277 0.961 . S
C291 C290 1.502 . S
C292 H278 0.960 . S
C292 H279 0.961 . S
C292 H280 0.959 . S
C292 C290 1.561 . S
C293 C290 1.526 . S
C293 C294 1.396 . S
C293 C298 1.390 . S
C294 C288 1.465 . S
C294 C293 1.396 . S
C294 C295 1.399 . S
C295 H281 0.929 . S
C295 C294 1.399 . S
C295 C296 1.385 . S
C296 H282 0.931 . S
C296 C295 1.385 . S
C296 C297 1.389 . S
C297 C296 1.389 . S
C297 C298 1.387 . S
C298 H283 0.930 . S
C298 C293 1.390 . S
C298 C297 1.387 . S
H299 C311 0.930 . S
H300 C313 0.930 . S
H301 C314 0.930 . S
H302 C318 0.959 . S
H303 C318 0.959 . S
H304 C318 0.961 . S
H305 C319 0.960 . S
H306 C319 0.961 . S
H307 C319 0.959 . S
H308 C322 0.929 . S
H309 C323 0.931 . S
H310 C325 0.930 . S
C311 H299 0.930 . S
C311 C312 1.399 . S
C311 C316 1.399 . S
C312 C311 1.399 . S
C312 C313 1.376 . S
C313 H300 0.930 . S
C313 C312 1.376 . S
C313 C314 1.388 . S
C314 H301 0.930 . S
C314 C313 1.388 . S
C314 C315 1.390 . S
C315 C314 1.390 . S
C315 C316 1.394 . S
C315 C321 1.465 . S
C316 C311 1.399 . S
C316 C315 1.394 . S
C316 C317 1.516 . S
C317 C316 1.516 . S
C317 C318 1.502 . S
C317 C319 1.561 . S
C317 C320 1.526 . S
C318 H302 0.959 . S
C318 H303 0.959 . S
C318 H304 0.961 . S
C318 C317 1.502 . S
C319 H305 0.960 . S
C319 H306 0.961 . S
C319 H307 0.959 . S
C319 C317 1.561 . S
C320 C317 1.526 . S
C320 C321 1.396 . S
C320 C325 1.390 . S
C321 C315 1.465 . S
C321 C320 1.396 . S
C321 C322 1.399 . S
C322 H308 0.929 . S
C322 C321 1.399 . S
C322 C323 1.385 . S
C323 H309 0.931 . S
C323 C322 1.385 . S
C323 C324 1.389 . S
C324 C323 1.389 . S
C324 C325 1.387 . S
C325 H310 0.930 . S
C325 C320 1.390 . S
C325 C324 1.387 . S
H326 C338 0.930 . S
H327 C340 0.930 . S
H328 C341 0.930 . S
H329 C345 0.959 . S
H330 C345 0.959 . S
H331 C345 0.961 . S
H332 C346 0.960 . S
H333 C346 0.961 . S
H334 C346 0.959 . S
H335 C349 0.929 . S
H336 C350 0.931 . S
H337 C352 0.930 . S
C338 H326 0.930 . S
C338 C339 1.399 . S
C338 C343 1.399 . S
C339 C338 1.399 . S
C339 C340 1.376 . S
C340 H327 0.930 . S
C340 C339 1.376 . S
C340 C341 1.388 . S
C341 H328 0.930 . S
C341 C340 1.388 . S
C341 C342 1.390 . S
C342 C341 1.390 . S
C342 C343 1.394 . S
C342 C348 1.465 . S
C343 C338 1.399 . S
C343 C342 1.394 . S
C343 C344 1.516 . S
C344 C343 1.516 . S
C344 C345 1.502 . S
C344 C346 1.561 . S
C344 C347 1.526 . S
C345 H329 0.959 . S
C345 H330 0.959 . S
C345 H331 0.961 . S
C345 C344 1.502 . S
C346 H332 0.960 . S
C346 H333 0.961 . S
C346 H334 0.959 . S
C346 C344 1.561 . S
C347 C344 1.526 . S
C347 C348 1.396 . S
C347 C352 1.390 . S
C348 C342 1.465 . S
C348 C347 1.396 . S
C348 C349 1.399 . S
C349 H335 0.929 . S
C349 C348 1.399 . S
C349 C350 1.385 . S
C350 H336 0.931 . S
C350 C349 1.385 . S
C350 C351 1.389 . S
C351 C350 1.389 . S
C351 C352 1.387 . S
C352 H337 0.930 . S
C352 C347 1.390 . S
C352 C351 1.387 . S
H353 C365 0.930 . S
H354 C367 0.930 . S
H355 C368 0.930 . S
H356 C372 0.959 . S
H357 C372 0.959 . S
H358 C372 0.961 . S
H359 C373 0.960 . S
H360 C373 0.961 . S
H361 C373 0.959 . S
H362 C376 0.929 . S
H363 C377 0.931 . S
H364 C379 0.930 . S
C365 H353 0.930 . S
C365 C366 1.399 . S
C365 C370 1.399 . S
C366 C365 1.399 . S
C366 C367 1.376 1_556 S
C367 H354 0.930 . S
C367 C366 1.376 1_554 S
C367 C368 1.388 . S
C368 H355 0.930 . S
C368 C367 1.388 . S
C368 C369 1.390 . S
C369 C368 1.390 . S
C369 C370 1.394 1_554 S
C369 C375 1.465 . S
C370 C365 1.399 . S
C370 C369 1.394 1_556 S
C370 C371 1.516 . S
C371 C370 1.516 . S
C371 C372 1.502 . S
C371 C373 1.561 . S
C371 C374 1.526 . S
C372 H356 0.959 . S
C372 H357 0.959 . S
C372 H358 0.961 . S
C372 C371 1.502 . S
C373 H359 0.960 . S
C373 H360 0.961 . S
C373 H361 0.959 . S
C373 C371 1.561 . S
C374 C371 1.526 . S
C374 C375 1.396 1_556 S
C374 C379 1.390 . S
C375 C369 1.465 . S
C375 C374 1.396 1_554 S
C375 C376 1.399 . S
C376 H362 0.929 . S
C376 C375 1.399 . S
C376 C377 1.385 . S
C377 H363 0.931 . S
C377 C376 1.385 . S
C377 C378 1.389 . S
C378 C377 1.389 . S
C378 C379 1.387 1_554 S
C379 H364 0.930 . S
C379 C374 1.390 . S
C379 C378 1.387 1_556 S
H380 C392 0.930 . S
H381 C394 0.930 . S
H382 C395 0.930 . S
H383 C399 0.959 . S
H384 C399 0.959 . S
H385 C399 0.961 . S
H386 C400 0.960 . S
H387 C400 0.961 . S
H388 C400 0.959 . S
H389 C403 0.929 . S
H390 C404 0.931 . S
H391 C406 0.930 . S
C392 H380 0.930 . S
C392 C393 1.399 . S
C392 C397 1.399 . S
C393 C392 1.399 . S
C393 C394 1.376 . S
C394 H381 0.930 . S
C394 C393 1.376 . S
C394 C395 1.388 . S
C395 H382 0.930 . S
C395 C394 1.388 . S
C395 C396 1.390 . S
C396 C395 1.390 . S
C396 C397 1.394 . S
C396 C402 1.465 . S
C397 C392 1.399 . S
C397 C396 1.394 . S
C397 C398 1.516 . S
C398 C397 1.516 . S
C398 C399 1.502 . S
C398 C400 1.561 . S
C398 C401 1.526 . S
C399 H383 0.959 . S
C399 H384 0.959 . S
C399 H385 0.961 . S
C399 C398 1.502 . S
C400 H386 0.960 . S
C400 H387 0.961 . S
C400 H388 0.959 . S
C400 C398 1.561 . S
C401 C398 1.526 . S
C401 C402 1.396 . S
C401 C406 1.390 . S
C402 C396 1.465 . S
C402 C401 1.396 . S
C402 C403 1.399 . S
C403 H389 0.929 . S
C403 C402 1.399 . S
C403 C404 1.385 . S
C404 H390 0.931 . S
C404 C403 1.385 . S
C404 C405 1.389 . S
C405 C404 1.389 . S
C405 C406 1.387 . S
C406 H391 0.930 . S
C406 C401 1.390 . S
C406 C405 1.387 . S
H407 C419 0.930 . S
H408 C421 0.930 . S
H409 C422 0.930 . S
H410 C426 0.959 . S
H411 C426 0.959 . S
H412 C426 0.961 . S
H413 C427 0.960 . S
H414 C427 0.961 . S
H415 C427 0.959 . S
H416 C430 0.929 . S
H417 C431 0.931 . S
H418 C433 0.930 . S
C419 H407 0.930 . S
C419 C420 1.399 . S
C419 C424 1.399 . S
C420 C419 1.399 . S
C420 C421 1.376 . S
C421 H408 0.930 . S
C421 C420 1.376 . S
C421 C422 1.388 . S
C422 H409 0.930 . S
C422 C421 1.388 . S
C422 C423 1.390 . S
C423 C422 1.390 . S
C423 C424 1.394 . S
C423 C429 1.465 . S
C424 C419 1.399 . S
C424 C423 1.394 . S
C424 C425 1.516 . S
C425 C424 1.516 . S
C425 C426 1.502 . S
C425 C427 1.561 . S
C425 C428 1.526 . S
C426 H410 0.959 . S
C426 H411 0.959 . S
C426 H412 0.961 . S
C426 C425 1.502 . S
C427 H413 0.960 . S
C427 H414 0.961 . S
C427 H415 0.959 . S
C427 C425 1.561 . S
C428 C425 1.526 . S
C428 C429 1.396 . S
C428 C433 1.390 . S
C429 C423 1.465 . S
C429 C428 1.396 . S
C429 C430 1.399 . S
C430 H416 0.929 . S
C430 C429 1.399 . S
C430 C431 1.385 . S
C431 H417 0.931 . S
C431 C430 1.385 . S
C431 C432 1.389 . S
C432 C431 1.389 . S
C432 C433 1.387 . S
C433 H418 0.930 . S
C433 C428 1.390 . S
C433 C432 1.387 . S
H434 C446 0.930 . S
H435 C448 0.930 . S
H436 C449 0.930 . S
H437 C453 0.959 . S
H438 C453 0.959 . S
H439 C453 0.961 . S
H440 C454 0.960 . S
H441 C454 0.961 . S
H442 C454 0.959 . S
H443 C457 0.929 . S
H444 C458 0.931 . S
H445 C460 0.930 . S
C446 H434 0.930 . S
C446 C447 1.399 . S
C446 C451 1.399 . S
C447 C446 1.399 . S
C447 C448 1.376 . S
C448 H435 0.930 . S
C448 C447 1.376 . S
C448 C449 1.388 . S
C449 H436 0.930 . S
C449 C448 1.388 . S
C449 C450 1.390 . S
C450 C449 1.390 . S
C450 C451 1.394 . S
C450 C456 1.465 . S
C451 C446 1.399 . S
C451 C450 1.394 . S
C451 C452 1.516 . S
C452 C451 1.516 . S
C452 C453 1.502 . S
C452 C454 1.561 . S
C452 C455 1.526 . S
C453 H437 0.959 . S
C453 H438 0.959 . S
C453 H439 0.961 . S
C453 C452 1.502 . S
C454 H440 0.960 . S
C454 H441 0.961 . S
C454 H442 0.959 . S
C454 C452 1.561 . S
C455 C452 1.526 . S
C455 C456 1.396 . S
C455 C460 1.390 . S
C456 C450 1.465 . S
C456 C455 1.396 . S
C456 C457 1.399 . S
C457 H443 0.929 . S
C457 C456 1.399 . S
C457 C458 1.385 . S
C458 H444 0.931 . S
C458 C457 1.385 . S
C458 C459 1.389 . S
C459 C458 1.389 . S
C459 C460 1.387 . S
C460 H445 0.930 . S
C460 C455 1.390 . S
C460 C459 1.387 . S
H461 C473 0.930 . S
H462 C475 0.930 . S
H463 C476 0.930 . S
H464 C480 0.959 . S
H465 C480 0.959 . S
H466 C480 0.961 . S
H467 C481 0.960 . S
H468 C481 0.961 . S
H469 C481 0.959 . S
H470 C484 0.929 . S
H471 C485 0.931 . S
H472 C487 0.930 . S
C473 H461 0.930 . S
C473 C474 1.399 . S
C473 C478 1.399 . S
C474 C473 1.399 . S
C474 C475 1.376 . S
C475 H462 0.930 . S
C475 C474 1.376 . S
C475 C476 1.388 . S
C476 H463 0.930 . S
C476 C475 1.388 . S
C476 C477 1.390 . S
C477 C476 1.390 . S
C477 C478 1.394 . S
C477 C483 1.465 . S
C478 C473 1.399 . S
C478 C477 1.394 . S
C478 C479 1.516 . S
C479 C478 1.516 . S
C479 C480 1.502 . S
C479 C481 1.561 . S
C479 C482 1.526 . S
C480 H464 0.959 . S
C480 H465 0.959 . S
C480 H466 0.961 . S
C480 C479 1.502 . S
C481 H467 0.960 . S
C481 H468 0.961 . S
C481 H469 0.959 . S
C481 C479 1.561 . S
C482 C479 1.526 . S
C482 C483 1.396 . S
C482 C487 1.390 . S
C483 C477 1.465 . S
C483 C482 1.396 . S
C483 C484 1.399 . S
C484 H470 0.929 . S
C484 C483 1.399 . S
C484 C485 1.385 . S
C485 H471 0.931 . S
C485 C484 1.385 . S
C485 C486 1.389 . S
C486 C485 1.389 . S
C486 C487 1.387 . S
C487 H472 0.930 . S
C487 C482 1.390 . S
C487 C486 1.387 . S
H488 C500 0.930 . S
H489 C502 0.930 . S
H490 C503 0.930 1_655 S
H491 C507 0.959 . S
H492 C507 0.959 . S
H493 C507 0.961 1_554 S
H494 C508 0.960 . S
H495 C508 0.961 1_556 S
H496 C508 0.959 . S
H497 C511 0.929 . S
H498 C512 0.931 . S
H499 C514 0.930 . S
C500 H488 0.930 . S
C500 C501 1.399 . S
C500 C505 1.399 . S
C501 C500 1.399 . S
C501 C502 1.376 . S
C502 H489 0.930 . S
C502 C501 1.376 . S
C502 C503 1.388 . S
C503 H490 0.930 1_455 S
C503 C502 1.388 . S
C503 C504 1.390 1_455 S
C504 C503 1.390 1_655 S
C504 C505 1.394 1_655 S
C504 C510 1.465 1_554 S
C505 C500 1.399 . S
C505 C504 1.394 1_455 S
C505 C506 1.516 1_554 S
C506 C505 1.516 1_556 S
C506 C507 1.502 . S
C506 C508 1.561 1_456 S
C506 C509 1.526 1_455 S
C507 H491 0.959 . S
C507 H492 0.959 . S
C507 H493 0.961 1_556 S
C507 C506 1.502 . S
C508 H494 0.960 . S
C508 H495 0.961 1_554 S
C508 H496 0.959 . S
C508 C506 1.561 1_654 S
C509 C506 1.526 1_655 S
C509 C510 1.396 . S
C509 C514 1.390 . S
C510 C504 1.465 1_556 S
C510 C509 1.396 . S
C510 C511 1.399 . S
C511 H497 0.929 . S
C511 C510 1.399 . S
C511 C512 1.385 . S
C512 H498 0.931 . S
C512 C511 1.385 . S
C512 C513 1.389 . S
C513 C512 1.389 . S
C513 C514 1.387 . S
C514 H499 0.930 . S
C514 C509 1.390 . S
C514 C513 1.387 . S
H515 C527 0.930 . S
H516 C529 0.930 1_545 S
H517 C530 0.930 . S
H518 C534 0.959 . S
H519 C534 0.959 . S
H520 C534 0.961 . S
H521 C535 0.960 . S
H522 C535 0.961 . S
H523 C535 0.959 . S
H524 C538 0.929 . S
H525 C539 0.931 . S
H526 C541 0.930 1_565 S
C527 H515 0.930 . S
C527 C528 1.399 . S
C527 C532 1.399 . S
C528 C527 1.399 . S
C528 C529 1.376 . S
C529 H516 0.930 1_565 S
C529 C528 1.376 . S
C529 C530 1.388 1_565 S
C530 H517 0.930 . S
C530 C529 1.388 1_545 S
C530 C531 1.390 . S
C531 C530 1.390 . S
C531 C532 1.394 1_545 S
C531 C537 1.465 . S
C532 C527 1.399 . S
C532 C531 1.394 1_565 S
C532 C533 1.516 . S
C533 C532 1.516 . S
C533 C534 1.502 . S
C533 C535 1.561 . S
C533 C536 1.526 . S
C534 H518 0.959 . S
C534 H519 0.959 . S
C534 H520 0.961 . S
C534 C533 1.502 . S
C535 H521 0.960 . S
C535 H522 0.961 . S
C535 H523 0.959 . S
C535 C533 1.561 . S
C536 C533 1.526 . S
C536 C537 1.396 1_565 S
C536 C541 1.390 1_565 S
C537 C531 1.465 . S
C537 C536 1.396 1_545 S
C537 C538 1.399 . S
C538 H524 0.929 . S
C538 C537 1.399 . S
C538 C539 1.385 . S
C539 H525 0.931 . S
C539 C538 1.385 . S
C539 C540 1.389 . S
C540 C539 1.389 . S
C540 C541 1.387 . S
C541 H526 0.930 1_545 S
C541 C536 1.390 1_545 S
C541 C540 1.387 . S
H542 C554 0.930 . S
H543 C556 0.930 1_455 S
H544 C557 0.930 . S
H545 C561 0.959 . S
H546 C561 0.959 . S
H547 C561 0.961 . S
H548 C562 0.960 . S
H549 C562 0.961 . S
H550 C562 0.959 . S
H551 C565 0.929 . S
H552 C566 0.931 . S
H553 C568 0.930 1_655 S
C554 H542 0.930 . S
C554 C555 1.399 . S
C554 C559 1.399 . S
C555 C554 1.399 . S
C555 C556 1.376 . S
C556 H543 0.930 1_655 S
C556 C555 1.376 . S
C556 C557 1.388 1_655 S
C557 H544 0.930 . S
C557 C556 1.388 1_455 S
C557 C558 1.390 . S
C558 C557 1.390 . S
C558 C559 1.394 1_455 S
C558 C564 1.465 . S
C559 C554 1.399 . S
C559 C558 1.394 1_655 S
C559 C560 1.516 . S
C560 C559 1.516 . S
C560 C561 1.502 . S
C560 C562 1.561 . S
C560 C563 1.526 1_655 S
C561 H545 0.959 . S
C561 H546 0.959 . S
C561 H547 0.961 . S
C561 C560 1.502 . S
C562 H548 0.960 . S
C562 H549 0.961 . S
C562 H550 0.959 . S
C562 C560 1.561 . S
C563 C560 1.526 1_455 S
C563 C564 1.396 . S
C563 C568 1.390 . S
C564 C558 1.465 . S
C564 C563 1.396 . S
C564 C565 1.399 . S
C565 H551 0.929 . S
C565 C564 1.399 . S
C565 C566 1.385 . S
C566 H552 0.931 . S
C566 C565 1.385 . S
C566 C567 1.389 . S
C567 C566 1.389 . S
C567 C568 1.387 . S
C568 H553 0.930 1_455 S
C568 C563 1.390 . S
C568 C567 1.387 . S
H569 C581 0.930 1_565 S
H570 C583 0.930 . S
H571 C584 0.930 . S
H572 C588 0.959 . S
H573 C588 0.959 . S
H574 C588 0.961 . S
H575 C589 0.960 . S
H576 C589 0.961 . S
H577 C589 0.959 . S
H578 C592 0.929 . S
H579 C593 0.931 1_545 S
H580 C595 0.930 . S
C581 H569 0.930 1_545 S
C581 C582 1.399 . S
C581 C586 1.399 1_545 S
C582 C581 1.399 . S
C582 C583 1.376 . S
C583 H570 0.930 . S
C583 C582 1.376 . S
C583 C584 1.388 . S
C584 H571 0.930 . S
C584 C583 1.388 . S
C584 C585 1.390 . S
C585 C584 1.390 . S
C585 C586 1.394 1_545 S
C585 C591 1.465 . S
C586 C581 1.399 1_565 S
C586 C585 1.394 1_565 S
C586 C587 1.516 . S
C587 C586 1.516 . S
C587 C588 1.502 . S
C587 C589 1.561 . S
C587 C590 1.526 . S
C588 H572 0.959 . S
C588 H573 0.959 . S
C588 H574 0.961 . S
C588 C587 1.502 . S
C589 H575 0.960 . S
C589 H576 0.961 . S
C589 H577 0.959 . S
C589 C587 1.561 . S
C590 C587 1.526 . S
C590 C591 1.396 1_565 S
C590 C595 1.390 . S
C591 C585 1.465 . S
C591 C590 1.396 1_545 S
C591 C592 1.399 . S
C592 H578 0.929 . S
C592 C591 1.399 . S
C592 C593 1.385 1_545 S
C593 H579 0.931 1_565 S
C593 C592 1.385 1_565 S
C593 C594 1.389 . S
C594 C593 1.389 . S
C594 C595 1.387 . S
C595 H580 0.930 . S
C595 C590 1.390 . S
C595 C594 1.387 . S
H596 C608 0.930 . S
H597 C610 0.930 . S
H598 C611 0.930 . S
H599 C615 0.959 . S
H600 C615 0.959 . S
H601 C615 0.961 . S
H602 C616 0.960 . S
H603 C616 0.961 . S
H604 C616 0.959 . S
H605 C619 0.929 . S
H606 C620 0.931 1_565 S
H607 C622 0.930 . S
C608 H596 0.930 . S
C608 C609 1.399 . S
C608 C613 1.399 . S
C609 C608 1.399 . S
C609 C610 1.376 . S
C610 H597 0.930 . S
C610 C609 1.376 . S
C610 C611 1.388 . S
C611 H598 0.930 . S
C611 C610 1.388 . S
C611 C612 1.390 . S
C612 C611 1.390 . S
C612 C613 1.394 . S
C612 C618 1.465 . S
C613 C608 1.399 . S
C613 C612 1.394 . S
C613 C614 1.516 . S
C614 C613 1.516 . S
C614 C615 1.502 . S
C614 C616 1.561 . S
C614 C617 1.526 . S
C615 H599 0.959 . S
C615 H600 0.959 . S
C615 H601 0.961 . S
C615 C614 1.502 . S
C616 H602 0.960 . S
C616 H603 0.961 . S
C616 H604 0.959 . S
C616 C614 1.561 . S
C617 C614 1.526 . S
C617 C618 1.396 . S
C617 C622 1.390 . S
C618 C612 1.465 . S
C618 C617 1.396 . S
C618 C619 1.399 . S
C619 H605 0.929 . S
C619 C618 1.399 . S
C619 C620 1.385 . S
C620 H606 0.931 1_545 S
C620 C619 1.385 . S
C620 C621 1.389 . S
C621 C620 1.389 . S
C621 C622 1.387 . S
C622 H607 0.930 . S
C622 C617 1.390 . S
C622 C621 1.387 . S
H623 C635 0.930 . S
H624 C637 0.930 . S
H625 C638 0.930 . S
H626 C642 0.959 . S
H627 C642 0.959 . S
H628 C642 0.961 . S
H629 C643 0.960 . S
H630 C643 0.961 . S
H631 C643 0.959 . S
H632 C646 0.929 . S
H633 C647 0.931 . S
H634 C649 0.930 . S
C635 H623 0.930 . S
C635 C636 1.399 . S
C635 C640 1.399 . S
C636 C635 1.399 . S
C636 C637 1.376 . S
C637 H624 0.930 . S
C637 C636 1.376 . S
C637 C638 1.388 . S
C638 H625 0.930 . S
C638 C637 1.388 . S
C638 C639 1.390 . S
C639 C638 1.390 . S
C639 C640 1.394 . S
C639 C645 1.465 . S
C640 C635 1.399 . S
C640 C639 1.394 . S
C640 C641 1.516 . S
C641 C640 1.516 . S
C641 C642 1.502 . S
C641 C643 1.561 . S
C641 C644 1.526 . S
C642 H626 0.959 . S
C642 H627 0.959 . S
C642 H628 0.961 . S
C642 C641 1.502 . S
C643 H629 0.960 . S
C643 H630 0.961 . S
C643 H631 0.959 . S
C643 C641 1.561 . S
C644 C641 1.526 . S
C644 C645 1.396 . S
C644 C649 1.390 . S
C645 C639 1.465 . S
C645 C644 1.396 . S
C645 C646 1.399 . S
C646 H632 0.929 . S
C646 C645 1.399 . S
C646 C647 1.385 . S
C647 H633 0.931 . S
C647 C646 1.385 . S
C647 C648 1.389 . S
C648 C647 1.389 . S
C648 C649 1.387 . S
C649 H634 0.930 . S
C649 C644 1.390 . S
C649 C648 1.387 . S
H650 C662 0.930 1_545 S
H651 C664 0.930 . S
H652 C665 0.930 . S
H653 C669 0.959 . S
H654 C669 0.959 . S
H655 C669 0.961 . S
H656 C670 0.964 . S
H657 C670 0.961 . S
H658 C670 0.959 . S
H659 C673 0.929 . S
H660 C674 0.931 . S
H661 C676 0.930 . S
C662 H650 0.930 1_565 S
C662 C663 1.399 . S
C662 C667 1.399 . S
C663 C662 1.399 . S
C663 C664 1.376 . S
C664 H651 0.930 . S
C664 C663 1.376 . S
C664 C665 1.388 . S
C665 H652 0.930 . S
C665 C664 1.388 . S
C665 C666 1.390 . S
C666 C665 1.390 . S
C666 C667 1.394 . S
C666 C672 1.465 . S
C667 C662 1.399 . S
C667 C666 1.394 . S
C667 C668 1.516 . S
C668 C667 1.516 . S
C668 C669 1.502 . S
C668 C670 1.561 . S
C668 C671 1.526 . S
C669 H653 0.959 . S
C669 H654 0.959 . S
C669 H655 0.961 . S
C669 C668 1.502 . S
C670 H656 0.964 . S
C670 H657 0.961 . S
C670 H658 0.959 . S
C670 C668 1.561 . S
C671 C668 1.526 . S
C671 C672 1.396 . S
C671 C676 1.390 . S
C672 C666 1.465 . S
C672 C671 1.396 . S
C672 C673 1.399 . S
C673 H659 0.929 . S
C673 C672 1.399 . S
C673 C674 1.385 . S
C674 H660 0.931 . S
C674 C673 1.385 . S
C674 C675 1.389 . S
C675 C674 1.389 . S
C675 C676 1.387 . S
C676 H661 0.930 . S
C676 C671 1.390 . S
C676 C675 1.387 . S
H677 C689 0.930 1_655 S
H678 C691 0.930 . S
H679 C692 0.930 . S
H680 C696 0.959 . S
H681 C696 0.959 . S
H682 C696 0.961 . S
H683 C697 0.960 . S
H684 C697 0.961 . S
H685 C697 0.959 . S
H686 C700 0.929 . S
H687 C701 0.931 . S
H688 C703 0.930 . S
C689 H677 0.930 1_455 S
C689 C690 1.399 . S
C689 C694 1.399 . S
C690 C689 1.399 . S
C690 C691 1.376 . S
C691 H678 0.930 . S
C691 C690 1.376 . S
C691 C692 1.388 . S
C692 H679 0.930 . S
C692 C691 1.388 . S
C692 C693 1.390 . S
C693 C692 1.390 . S
C693 C694 1.394 . S
C693 C699 1.465 . S
C694 C689 1.399 . S
C694 C693 1.394 . S
C694 C695 1.516 . S
C695 C694 1.516 . S
C695 C696 1.502 . S
C695 C697 1.561 . S
C695 C698 1.526 . S
C696 H680 0.959 . S
C696 H681 0.959 . S
C696 H682 0.961 . S
C696 C695 1.502 . S
C697 H683 0.960 . S
C697 H684 0.961 . S
C697 H685 0.959 . S
C697 C695 1.561 . S
C698 C695 1.526 . S
C698 C699 1.396 . S
C698 C703 1.390 . S
C699 C693 1.465 . S
C699 C698 1.396 . S
C699 C700 1.399 . S
C700 H686 0.929 . S
C700 C699 1.399 . S
C700 C701 1.385 . S
C701 H687 0.931 . S
C701 C700 1.385 . S
C701 C702 1.389 . S
C702 C701 1.389 . S
C702 C703 1.387 . S
C703 H688 0.930 . S
C703 C698 1.390 . S
C703 C702 1.387 . S
H704 C716 0.930 . S
H705 C718 0.930 . S
H706 C719 0.930 . S
H707 C723 0.959 . S
H708 C723 0.959 . S
H709 C723 0.961 . S
H710 C724 0.960 . S
H711 C724 0.961 . S
H712 C724 0.959 . S
H713 C727 0.929 . S
H714 C728 0.931 . S
H715 C730 0.930 1_545 S
C716 H704 0.930 . S
C716 C717 1.399 . S
C716 C721 1.399 . S
C717 C716 1.399 . S
C717 C718 1.376 . S
C718 H705 0.930 . S
C718 C717 1.376 . S
C718 C719 1.388 . S
C719 H706 0.930 . S
C719 C718 1.388 . S
C719 C720 1.390 . S
C720 C719 1.390 . S
C720 C721 1.394 . S
C720 C726 1.465 . S
C721 C716 1.399 . S
C721 C720 1.394 . S
C721 C722 1.516 . S
C722 C721 1.516 . S
C722 C723 1.502 . S
C722 C724 1.561 . S
C722 C725 1.526 . S
C723 H707 0.959 . S
C723 H708 0.959 . S
C723 H709 0.961 . S
C723 C722 1.502 . S
C724 H710 0.960 . S
C724 H711 0.961 . S
C724 H712 0.959 . S
C724 C722 1.561 . S
C725 C722 1.526 . S
C725 C726 1.396 . S
C725 C730 1.390 . S
C726 C720 1.465 . S
C726 C725 1.396 . S
C726 C727 1.399 . S
C727 H713 0.929 . S
C727 C726 1.399 . S
C727 C728 1.385 . S
C728 H714 0.931 . S
C728 C727 1.385 . S
C728 C729 1.389 . S
C729 C728 1.389 . S
C729 C730 1.387 . S
C730 H715 0.930 1_565 S
C730 C725 1.390 . S
C730 C729 1.387 . S
H731 C743 0.930 . S
H732 C745 0.930 . S
H733 C746 0.930 . S
H734 C750 0.959 . S
H735 C750 0.959 . S
H736 C750 0.961 . S
H737 C751 0.960 . S
H738 C751 0.961 . S
H739 C751 0.959 . S
H740 C754 0.929 . S
H741 C755 0.931 . S
H742 C757 0.930 . S
C743 H731 0.930 . S
C743 C744 1.399 . S
C743 C748 1.399 . S
C744 C743 1.399 . S
C744 C745 1.376 . S
C745 H732 0.930 . S
C745 C744 1.376 . S
C745 C746 1.388 . S
C746 H733 0.930 . S
C746 C745 1.388 . S
C746 C747 1.390 . S
C747 C746 1.390 . S
C747 C748 1.394 . S
C747 C753 1.465 . S
C748 C743 1.399 . S
C748 C747 1.394 . S
C748 C749 1.516 . S
C749 C748 1.516 . S
C749 C750 1.502 . S
C749 C751 1.561 . S
C749 C752 1.526 . S
C750 H734 0.959 . S
C750 H735 0.959 . S
C750 H736 0.961 . S
C750 C749 1.502 . S
C751 H737 0.960 . S
C751 H738 0.961 . S
C751 H739 0.959 . S
C751 C749 1.561 . S
C752 C749 1.526 . S
C752 C753 1.396 . S
C752 C757 1.390 . S
C753 C747 1.465 . S
C753 C752 1.396 . S
C753 C754 1.399 . S
C754 H740 0.929 . S
C754 C753 1.399 . S
C754 C755 1.385 1_455 S
C755 H741 0.931 . S
C755 C754 1.385 1_655 S
C755 C756 1.389 1_655 S
C756 C755 1.389 1_455 S
C756 C757 1.387 . S
C757 H742 0.930 . S
C757 C752 1.390 . S
C757 C756 1.387 . S
H758 C770 0.930 . S
H759 C772 0.930 . S
H760 C773 0.930 . S
H761 C777 0.959 . S
H762 C777 0.959 . S
H763 C777 0.961 . S
H764 C778 0.960 . S
H765 C778 0.961 . S
H766 C778 0.959 . S
H767 C781 0.929 . S
H768 C782 0.931 1_565 S
H769 C784 0.930 . S
C770 H758 0.930 . S
C770 C771 1.399 . S
C770 C775 1.399 . S
C771 C770 1.399 . S
C771 C772 1.376 . S
C772 H759 0.930 . S
C772 C771 1.376 . S
C772 C773 1.388 . S
C773 H760 0.930 . S
C773 C772 1.388 . S
C773 C774 1.390 . S
C774 C773 1.390 . S
C774 C775 1.394 . S
C774 C780 1.465 . S
C775 C770 1.399 . S
C775 C774 1.394 . S
C775 C776 1.516 . S
C776 C775 1.516 . S
C776 C777 1.502 . S
C776 C778 1.561 . S
C776 C779 1.526 . S
C777 H761 0.959 . S
C777 H762 0.959 . S
C777 H763 0.961 . S
C777 C776 1.502 . S
C778 H764 0.960 . S
C778 H765 0.961 . S
C778 H766 0.959 . S
C778 C776 1.561 . S
C779 C776 1.526 . S
C779 C780 1.396 . S
C779 C784 1.390 . S
C780 C774 1.465 . S
C780 C779 1.396 . S
C780 C781 1.399 . S
C781 H767 0.929 . S
C781 C780 1.399 . S
C781 C782 1.385 . S
C782 H768 0.931 1_545 S
C782 C781 1.385 . S
C782 C783 1.389 . S
C783 C782 1.389 . S
C783 C784 1.387 . S
C784 H769 0.930 . S
C784 C779 1.390 . S
C784 C783 1.387 . S
H785 C797 0.930 . S
H786 C799 0.930 1_455 S
H787 C800 0.930 . S
H788 C804 0.959 . S
H789 C804 0.959 . S
H790 C804 0.961 . S
H791 C805 0.960 . S
H792 C805 0.961 . S
H793 C805 0.959 . S
H794 C808 0.929 . S
H795 C809 0.931 . S
H796 C811 0.930 . S
C797 H785 0.930 . S
C797 C798 1.399 . S
C797 C802 1.399 . S
C798 C797 1.399 . S
C798 C799 1.376 . S
C799 H786 0.930 1_655 S
C799 C798 1.376 . S
C799 C800 1.388 . S
C800 H787 0.930 . S
C800 C799 1.388 . S
C800 C801 1.390 . S
C801 C800 1.390 . S
C801 C802 1.394 . S
C801 C807 1.465 . S
C802 C797 1.399 . S
C802 C801 1.394 . S
C802 C803 1.516 . S
C803 C802 1.516 . S
C803 C804 1.502 . S
C803 C805 1.561 . S
C803 C806 1.526 . S
C804 H788 0.959 . S
C804 H789 0.959 . S
C804 H790 0.961 . S
C804 C803 1.502 . S
C805 H791 0.960 . S
C805 H792 0.961 . S
C805 H793 0.959 . S
C805 C803 1.561 . S
C806 C803 1.526 . S
C806 C807 1.396 . S
C806 C811 1.390 . S
C807 C801 1.465 . S
C807 C806 1.396 . S
C807 C808 1.399 . S
C808 H794 0.929 . S
C808 C807 1.399 . S
C808 C809 1.385 . S
C809 H795 0.931 . S
C809 C808 1.385 . S
C809 C810 1.389 . S
C810 C809 1.389 . S
C810 C811 1.387 . S
C811 H796 0.930 . S
C811 C806 1.390 . S
C811 C810 1.387 . S
C285 C138 1.078 . S
C297 C2 1.061 . S
C312 C36 1.062 . S
C324 C172 1.077 . S
C339 C70 1.077 . S
C351 C206 1.062 . S
C366 C104 1.060 . S
C378 C240 1.078 . S
C393 C175 0.719 . S
C405 C5 0.741 . S
C420 C39 0.741 . S
C432 C209 0.732 . S
C447 C243 0.716 . S
C459 C73 0.734 . S
C474 C107 0.740 . S
C486 C141 0.718 . S
C501 C9 0.801 . S
C513 C213 0.867 . S
C528 C247 0.678 . S
C540 C43 0.787 . S
C555 C77 0.732 . S
C567 C145 0.862 . S
C582 C179 0.870 . S
C594 C111 0.796 . S
C609 C20 2.378 . S
C621 C135 2.378 1_544 S
C636 C33 2.378 1_655 S
C648 C54 2.377 . S
C663 C67 2.380 1_565 S
C675 C88 2.375 . S
C690 C101 2.382 1_455 S
C702 C122 2.366 . S
C717 C156 2.366 . S
C729 C203 2.380 1_565 S
C744 C190 2.381 . S
C756 C237 2.373 1_455 S
C771 C224 2.381 . S
C783 C271 2.375 1_546 S
C798 C169 2.375 1_655 S
C810 C258 2.381 . S
