# Generated by pormake.
# Topology wme, (6)-cn, num edge types: 1
# Building blocks:
#     Node 0, Type 0, BuildingBlock: CUKXOW_clean_sbu_0, # of connection points: 6
#     Node 1, Type 0, BuildingBlock: CUKXOW_clean_sbu_0, # of connection points: 6
#     Node 2, Type 0, BuildingBlock: CUKXOW_clean_sbu_0, # of connection points: 6
#     Node 3, Type 0, BuildingBlock: CUKXOW_clean_sbu_0, # of connection points: 6
#     Node 4, Type 0, BuildingBlock: CUKXOW_clean_sbu_0, # of connection points: 6
#     Node 5, Type 0, BuildingBlock: CUKXOW_clean_sbu_0, # of connection points: 6
#     Node 6, Type 0, BuildingBlock: CUKXOW_clean_sbu_0, # of connection points: 6
#     Node 7, Type 0, BuildingBlock: CUKXOW_clean_sbu_0, # of connection points: 6
#     Node 8, Type 0, BuildingBlock: CUKXOW_clean_sbu_0, # of connection points: 6
#     Node 9, Type 0, BuildingBlock: CUKXOW_clean_sbu_0, # of connection points: 6
#     Node 10, Type 0, BuildingBlock: CUKXOW_clean_sbu_0, # of connection points: 6
#     Node 11, Type 0, BuildingBlock: CUKXOW_clean_sbu_0, # of connection points: 6
#     Edge 12, Type (0, 0), BuildingBlock: KIFKEQ_clean_linker_1, # of connection points: 2
#     Edge 13, Type (0, 0), BuildingBlock: KIFKEQ_clean_linker_1, # of connection points: 2
#     Edge 14, Type (0, 0), BuildingBlock: KIFKEQ_clean_linker_1, # of connection points: 2
#     Edge 15, Type (0, 0), BuildingBlock: KIFKEQ_clean_linker_1, # of connection points: 2
#     Edge 16, Type (0, 0), BuildingBlock: KIFKEQ_clean_linker_1, # of connection points: 2
#     Edge 17, Type (0, 0), BuildingBlock: KIFKEQ_clean_linker_1, # of connection points: 2
#     Edge 18, Type (0, 0), BuildingBlock: KIFKEQ_clean_linker_1, # of connection points: 2
#     Edge 19, Type (0, 0), BuildingBlock: KIFKEQ_clean_linker_1, # of connection points: 2
#     Edge 20, Type (0, 0), BuildingBlock: KIFKEQ_clean_linker_1, # of connection points: 2
#     Edge 21, Type (0, 0), BuildingBlock: KIFKEQ_clean_linker_1, # of connection points: 2
#     Edge 22, Type (0, 0), BuildingBlock: KIFKEQ_clean_linker_1, # of connection points: 2
#     Edge 23, Type (0, 0), BuildingBlock: KIFKEQ_clean_linker_1, # of connection points: 2
#     Edge 24, Type (0, 0), BuildingBlock: KIFKEQ_clean_linker_1, # of connection points: 2
#     Edge 25, Type (0, 0), BuildingBlock: KIFKEQ_clean_linker_1, # of connection points: 2
#     Edge 26, Type (0, 0), BuildingBlock: KIFKEQ_clean_linker_1, # of connection points: 2
#     Edge 27, Type (0, 0), BuildingBlock: KIFKEQ_clean_linker_1, # of connection points: 2
#     Edge 28, Type (0, 0), BuildingBlock: KIFKEQ_clean_linker_1, # of connection points: 2
#     Edge 29, Type (0, 0), BuildingBlock: KIFKEQ_clean_linker_1, # of connection points: 2
#     Edge 30, Type (0, 0), BuildingBlock: KIFKEQ_clean_linker_1, # of connection points: 2
#     Edge 31, Type (0, 0), BuildingBlock: KIFKEQ_clean_linker_1, # of connection points: 2
#     Edge 32, Type (0, 0), BuildingBlock: KIFKEQ_clean_linker_1, # of connection points: 2
#     Edge 33, Type (0, 0), BuildingBlock: KIFKEQ_clean_linker_1, # of connection points: 2
#     Edge 34, Type (0, 0), BuildingBlock: KIFKEQ_clean_linker_1, # of connection points: 2
#     Edge 35, Type (0, 0), BuildingBlock: KIFKEQ_clean_linker_1, # of connection points: 2
#     Edge 36, Type (0, 0), BuildingBlock: KIFKEQ_clean_linker_1, # of connection points: 2
#     Edge 37, Type (0, 0), BuildingBlock: KIFKEQ_clean_linker_1, # of connection points: 2
#     Edge 38, Type (0, 0), BuildingBlock: KIFKEQ_clean_linker_1, # of connection points: 2
#     Edge 39, Type (0, 0), BuildingBlock: KIFKEQ_clean_linker_1, # of connection points: 2
#     Edge 40, Type (0, 0), BuildingBlock: KIFKEQ_clean_linker_1, # of connection points: 2
#     Edge 41, Type (0, 0), BuildingBlock: KIFKEQ_clean_linker_1, # of connection points: 2
#     Edge 42, Type (0, 0), BuildingBlock: KIFKEQ_clean_linker_1, # of connection points: 2
#     Edge 43, Type (0, 0), BuildingBlock: KIFKEQ_clean_linker_1, # of connection points: 2
#     Edge 44, Type (0, 0), BuildingBlock: KIFKEQ_clean_linker_1, # of connection points: 2
#     Edge 45, Type (0, 0), BuildingBlock: KIFKEQ_clean_linker_1, # of connection points: 2
#     Edge 46, Type (0, 0), BuildingBlock: KIFKEQ_clean_linker_1, # of connection points: 2
#     Edge 47, Type (0, 0), BuildingBlock: KIFKEQ_clean_linker_1, # of connection points: 2
# Relax obj value: 0.055
# Max RMSD: 0.148
# Mean RMSD: 0.148
data_MOF--net-wme--node1-CUKXOW_clean_sbu_0--edge1-KIFKEQ_clean_linker_1
_symmetry_space_group_name_H-M    P1
_symmetry_Int_Tables_number       1
_symmetry_cell_setting            triclinic
loop_
_symmetry_equiv_pos_as_xyz
'x, y, z'
_cell_length_a     32.318817
_cell_length_b     32.387008
_cell_length_c     57.527127
_cell_angle_alpha  90.017094
_cell_angle_beta   89.776319
_cell_angle_gamma 119.86748
loop_
_atom_site_label
_atom_site_type_symbol
_atom_site_fract_x
_atom_site_fract_y
_atom_site_fract_z
_atom_type_partial_charge
Tb0 Tb 0.26418 0.385 0.12515 0.0
C1 C 0.22283 0.32021 0.08178 0.0
Tb2 Tb 0.16102 0.30266 0.12764 0.0
O3 O 0.2918 0.33581 0.12052 0.0
O4 O 0.22835 0.31509 0.1386 0.0
O5 O 0.25205 0.36456 0.0887 0.0
C6 C 0.07682 0.22257 0.12787 0.0
O7 O 0.18765 0.28857 0.09518 0.0
C8 C 0.17128 0.38775 0.12402 0.0
C9 C 0.20951 0.35652 0.17398 0.0
O10 O 0.09157 0.25529 0.11193 0.0
O11 O 0.10982 0.23448 0.14338 0.0
O12 O 0.1356 0.35239 0.13432 0.0
O13 O 0.1967 0.37336 0.11421 0.0
O14 O 0.17384 0.31773 0.16454 0.0
O15 O 0.24689 0.38856 0.1618 0.0
C16 C 0.3403 0.47219 0.12364 0.0
O17 O 0.34134 0.43298 0.12645 0.0
O18 O 0.29635 0.4624 0.12179 0.0
C19 C 0.25489 0.30046 0.13041 0.0
Tb20 Tb 0.8884 0.25556 0.62328 0.0
C21 C 0.91091 0.21835 0.57706 0.0
Tb22 Tb 0.86281 0.15009 0.61941 0.0
O23 O 0.96485 0.28137 0.61858 0.0
O24 O 0.91968 0.21413 0.63259 0.0
O25 O 0.89695 0.24722 0.58614 0.0
C26 C 0.84951 0.06215 0.62344 0.0
O27 O 0.90516 0.17982 0.58803 0.0
C28 C 0.79763 0.17078 0.60482 0.0
C29 C 0.85648 0.19208 0.66876 0.0
O30 O 0.81804 0.07473 0.62808 0.0
O31 O 0.8888 0.09923 0.61656 0.0
O32 O 0.80359 0.1371 0.59617 0.0
O33 O 0.82583 0.18849 0.62153 0.0
O34 O 0.8575 0.15705 0.65704 0.0
O35 O 0.86469 0.23265 0.65887 0.0
C36 C 0.87996 0.33332 0.62431 0.0
O37 O 0.90997 0.32679 0.63661 0.0
O38 O 0.85489 0.29613 0.61144 0.0
C39 C 0.96136 0.24137 0.62523 0.0
Tb40 Tb 0.65195 0.88371 0.12587 0.0
C41 C 0.70269 0.90255 0.07607 0.0
Tb42 Tb 0.72902 0.85622 0.11783 0.0
O43 O 0.7034 0.94993 0.14377 0.0
O44 O 0.72541 0.91887 0.11865 0.0
O45 O 0.66465 0.89592 0.0882 0.0
C46 C 0.80766 0.84853 0.11842 0.0
O47 O 0.73585 0.89462 0.08533 0.0
C48 C 0.64085 0.7882 0.11062 0.0
C49 C 0.68676 0.85122 0.1691 0.0
O50 O 0.77273 0.8276 0.10386 0.0
O51 O 0.79853 0.87415 0.13262 0.0
O52 O 0.67775 0.79062 0.10037 0.0
O53 O 0.65518 0.82 0.12592 0.0
O54 O 0.72197 0.85318 0.15608 0.0
O55 O 0.65128 0.85551 0.16013 0.0
C56 C 0.56718 0.87895 0.12342 0.0
O57 O 0.60501 0.91306 0.1332 0.0
O58 O 0.57724 0.84782 0.11501 0.0
C59 C 0.74005 0.95069 0.13381 0.0
Tb60 Tb 0.77828 0.64063 0.62693 0.0
C61 C 0.8141 0.70372 0.58223 0.0
Tb62 Tb 0.88039 0.7249 0.62646 0.0
O63 O 0.74818 0.68779 0.62285 0.0
O64 O 0.81366 0.71153 0.63922 0.0
O65 O 0.7851 0.66019 0.59038 0.0
C66 C 0.96388 0.80576 0.62546 0.0
O67 O 0.85126 0.7362 0.59421 0.0
C68 C 0.87236 0.64055 0.62368 0.0
C69 C 0.83771 0.67217 0.67394 0.0
O70 O 0.94923 0.77238 0.60992 0.0
O71 O 0.93105 0.79417 0.64116 0.0
O72 O 0.90821 0.6771 0.63303 0.0
O73 O 0.84528 0.6533 0.61435 0.0
O74 O 0.86998 0.71216 0.66367 0.0
O75 O 0.8011 0.63766 0.6625 0.0
C76 C 0.70274 0.55292 0.62701 0.0
O77 O 0.70251 0.59122 0.63343 0.0
O78 O 0.74558 0.56393 0.62065 0.0
C79 C 0.7854 0.72442 0.6316 0.0
Tb80 Tb 0.15646 0.77308 0.12325 0.0
C81 C 0.12354 0.80606 0.07943 0.0
Tb82 Tb 0.17381 0.87564 0.12198 0.0
O83 O 0.07873 0.7426 0.12103 0.0
O84 O 0.12169 0.80939 0.13561 0.0
O85 O 0.13867 0.77718 0.08712 0.0
C86 C 0.17377 0.95797 0.11986 0.0
O87 O 0.12973 0.84395 0.09127 0.0
C88 C 0.25097 0.86875 0.11834 0.0
C89 C 0.18839 0.83599 0.16914 0.0
O90 O 0.1884 0.94075 0.10345 0.0
O91 O 0.15852 0.92849 0.13723 0.0
O92 O 0.25061 0.90637 0.12557 0.0
O93 O 0.21038 0.83983 0.11026 0.0
O94 O 0.17783 0.8665 0.15911 0.0
O95 O 0.18807 0.8002 0.15757 0.0
C96 C 0.16611 0.69575 0.12354 0.0
O97 O 0.1369 0.70225 0.13652 0.0
O98 O 0.18989 0.73277 0.11035 0.0
C99 C 0.07984 0.78057 0.12921 0.0
Tb100 Tb 0.39108 0.14067 0.62459 0.0
C101 C 0.34215 0.12587 0.57478 0.0
Tb102 Tb 0.31381 0.16821 0.61757 0.0
O103 O 0.33928 0.07313 0.6416 0.0
O104 O 0.31799 0.10588 0.61705 0.0
O105 O 0.38023 0.13265 0.58673 0.0
C106 C 0.23465 0.17492 0.61791 0.0
O107 O 0.30823 0.13217 0.58448 0.0
C108 C 0.40212 0.23747 0.61153 0.0
C109 C 0.35361 0.16825 0.66879 0.0
O110 O 0.27011 0.1965 0.60355 0.0
O111 O 0.24362 0.14934 0.63217 0.0
O112 O 0.36549 0.23565 0.60144 0.0
O113 O 0.3873 0.20411 0.62606 0.0
O114 O 0.31934 0.16806 0.65581 0.0
O115 O 0.38927 0.16407 0.65974 0.0
C116 C 0.47649 0.1472 0.62044 0.0
O117 O 0.43789 0.10973 0.62772 0.0
O118 O 0.4669 0.18067 0.61579 0.0
C119 C 0.30294 0.0729 0.63167 0.0
Tb120 Tb 0.65728 0.77468 0.39177 0.0
C121 C 0.71335 0.81117 0.43821 0.0
Tb122 Tb 0.74096 0.8774 0.39299 0.0
O123 O 0.70561 0.74686 0.39901 0.0
O124 O 0.72937 0.81102 0.38127 0.0
O125 O 0.67163 0.78092 0.42877 0.0
C126 C 0.8194 0.9622 0.39822 0.0
O127 O 0.74656 0.84936 0.42696 0.0
C128 C 0.65561 0.8673 0.39211 0.0
C129 C 0.69557 0.83434 0.34451 0.0
O130 O 0.77738 0.95006 0.40631 0.0
O131 O 0.81766 0.92619 0.38731 0.0
O132 O 0.69275 0.90257 0.38259 0.0
O133 O 0.66779 0.84136 0.40308 0.0
O134 O 0.73453 0.86687 0.35543 0.0
O135 O 0.6593 0.79841 0.35572 0.0
C136 C 0.56988 0.69847 0.38985 0.0
O137 O 0.60889 0.7 0.38287 0.0
O138 O 0.58004 0.73999 0.39773 0.0
C139 C 0.74246 0.78411 0.39025 0.0
Tb140 Tb 0.87947 0.63569 0.8965 0.0
C141 C 0.90056 0.69527 0.94186 0.0
Tb142 Tb 0.85982 0.71887 0.89656 0.0
O143 O 0.95607 0.68414 0.90211 0.0
O144 O 0.91465 0.70697 0.88463 0.0
O145 O 0.88809 0.65255 0.93337 0.0
C146 C 0.85329 0.79762 0.90066 0.0
O147 O 0.89573 0.72762 0.92983 0.0
C148 C 0.78459 0.63382 0.8972 0.0
C149 C 0.85532 0.6699 0.84886 0.0
O150 O 0.82411 0.75644 0.90964 0.0
O151 O 0.88682 0.79482 0.88949 0.0
O152 O 0.78628 0.6704 0.88718 0.0
O153 O 0.82312 0.64647 0.90795 0.0
O154 O 0.86184 0.70939 0.85927 0.0
O155 O 0.85654 0.63479 0.8604 0.0
C156 C 0.86939 0.54852 0.8966 0.0
O157 O 0.90773 0.58743 0.89058 0.0
O158 O 0.83653 0.55861 0.9022 0.0
C159 C 0.95526 0.7205 0.89305 0.0
Tb160 Tb 0.27023 0.882 0.39034 0.0
C161 C 0.23571 0.90455 0.43665 0.0
Tb162 Tb 0.16756 0.86271 0.39255 0.0
O163 O 0.29805 0.95823 0.39653 0.0
O164 O 0.2332 0.91703 0.37959 0.0
O165 O 0.26555 0.89224 0.42726 0.0
C166 C 0.08304 0.85705 0.39849 0.0
O167 O 0.19703 0.89883 0.42571 0.0
C168 C 0.17784 0.78769 0.39277 0.0
C169 C 0.20812 0.85577 0.34404 0.0
O170 O 0.09558 0.82793 0.40703 0.0
O171 O 0.11844 0.8901 0.38669 0.0
O172 O 0.14201 0.78881 0.38348 0.0
O173 O 0.20429 0.82654 0.403 0.0
O174 O 0.17608 0.86326 0.35498 0.0
O175 O 0.24485 0.85678 0.35498 0.0
C176 C 0.34702 0.87163 0.3878 0.0
O177 O 0.34468 0.90829 0.38041 0.0
O178 O 0.30603 0.84067 0.39647 0.0
C179 C 0.26046 0.95746 0.388 0.0
Tb180 Tb 0.38077 0.25298 0.88936 0.0
C181 C 0.32538 0.21399 0.93788 0.0
Tb182 Tb 0.30268 0.14775 0.89387 0.0
O183 O 0.33379 0.27329 0.87138 0.0
O184 O 0.30614 0.21442 0.89351 0.0
O185 O 0.36341 0.24787 0.92671 0.0
C186 C 0.22851 0.05887 0.89199 0.0
O187 O 0.29476 0.17292 0.92789 0.0
C188 C 0.39042 0.16867 0.90365 0.0
C189 C 0.34517 0.19205 0.84409 0.0
O190 O 0.22616 0.09638 0.89777 0.0
O191 O 0.27244 0.07149 0.88716 0.0
O192 O 0.35295 0.13549 0.91413 0.0
O193 O 0.37711 0.18618 0.8879 0.0
O194 O 0.30764 0.15939 0.85603 0.0
O195 O 0.38211 0.2285 0.85434 0.0
C196 C 0.4666 0.33093 0.89357 0.0
O197 O 0.42876 0.3298 0.88519 0.0
O198 O 0.45604 0.28818 0.89963 0.0
C199 C 0.29518 0.23539 0.87841 0.0
Tb200 Tb 0.16279 0.38787 0.39506 0.0
C201 C 0.14108 0.33045 0.44101 0.0
Tb202 Tb 0.1834 0.30515 0.39631 0.0
O203 O 0.08653 0.33858 0.40124 0.0
O204 O 0.12874 0.31635 0.38377 0.0
O205 O 0.15367 0.37274 0.43192 0.0
C206 C 0.18858 0.22581 0.4008 0.0
O207 O 0.14686 0.29774 0.42973 0.0
C208 C 0.25805 0.3905 0.39673 0.0
C209 C 0.19023 0.35422 0.3482 0.0
O210 O 0.21759 0.26673 0.40998 0.0
O211 O 0.15589 0.22918 0.38925 0.0
O212 O 0.25754 0.35381 0.38748 0.0
O213 O 0.21892 0.37769 0.40703 0.0
O214 O 0.1849 0.31525 0.35874 0.0
O215 O 0.18688 0.38842 0.35938 0.0
C216 C 0.1722 0.4745 0.39296 0.0
O217 O 0.20448 0.46508 0.40033 0.0
O218 O 0.13475 0.43519 0.38666 0.0
C219 C 0.08803 0.30246 0.39228 0.0
Tb220 Tb 0.76688 0.13869 0.89024 0.0
C221 C 0.80834 0.12061 0.93607 0.0
Tb222 Tb 0.87242 0.16413 0.89205 0.0
O223 O 0.74138 0.06288 0.89684 0.0
O224 O 0.80709 0.10617 0.88088 0.0
O225 O 0.77926 0.13443 0.92725 0.0
C226 C 0.95928 0.1757 0.88558 0.0
O227 O 0.8457 0.12477 0.92441 0.0
C228 C 0.8534 0.23063 0.90632 0.0
C229 C 0.82566 0.16504 0.84335 0.0
O230 O 0.92371 0.13885 0.89534 0.0
O231 O 0.94588 0.20584 0.87956 0.0
O232 O 0.88814 0.22558 0.91426 0.0
O233 O 0.83408 0.20129 0.89015 0.0
O234 O 0.86127 0.16431 0.85458 0.0
O235 O 0.78645 0.15925 0.85398 0.0
C236 C 0.68987 0.14821 0.89238 0.0
O237 O 0.69616 0.12138 0.87755 0.0
O238 O 0.72685 0.1695 0.90579 0.0
C239 C 0.78075 0.06558 0.88945 0.0
H240 H 0.20115 0.02169 0.08411 0.0
H241 H 0.16148 1.00312 0.15667 0.0
H242 H 0.218 0.10403 0.08587 0.0
H243 H 0.18031 0.08566 0.15888 0.0
H244 H 0.18236 0.22509 0.1526 0.0
H245 H 0.15742 0.14113 0.1482 0.0
H246 H 0.27562 0.17869 0.10106 0.0
H247 H 0.29832 0.26247 0.10442 0.0
C248 C 0.19589 0.03527 0.1004 0.0
C249 C 0.18002 1.00621 0.12024 0.0
C250 C 0.20597 0.08254 0.1015 0.0
C251 C 0.2009 0.10179 0.12257 0.0
C252 C 0.18398 0.07206 0.14226 0.0
C253 C 0.17337 0.02473 0.14106 0.0
C254 C 0.20244 0.21519 0.14104 0.0
C255 C 0.24188 0.25005 0.12869 0.0
C256 C 0.1886 0.16712 0.13872 0.0
C257 C 0.21447 0.1529 0.12427 0.0
C258 C 0.2543 0.18811 0.11203 0.0
C259 C 0.26777 0.23619 0.11418 0.0
H260 H 0.16664 0.14662 0.65188 0.0
H261 H 0.20744 0.21661 0.58512 0.0
H262 H 0.09973 0.16166 0.65376 0.0
H263 H 0.13957 0.22975 0.58631 0.0
H264 H 0.04984 0.29562 0.60683 0.0
H265 H 0.11457 0.27777 0.60516 0.0
H266 H 0.02421 0.14227 0.63874 0.0
H267 H 0.96055 0.16188 0.64163 0.0
C268 C 0.16081 0.16465 0.63748 0.0
C269 C 0.19226 0.18077 0.61844 0.0
C270 C 0.12234 0.17306 0.63845 0.0
C271 C 0.11428 0.1973 0.62026 0.0
C272 C 0.14519 0.21204 0.60091 0.0
C273 C 0.18391 0.20418 0.60011 0.0
C274 C 0.04397 0.26212 0.61392 0.0
C275 C 1.00014 0.22993 0.62418 0.0
C276 C 0.0809 0.25158 0.61276 0.0
C277 C 0.07468 0.2083 0.62162 0.0
C278 C 0.03058 0.17611 0.63193 0.0
C279 C 0.99383 0.187 0.63333 0.0
H280 H 0.81293 0.96171 0.10636 0.0
H281 H 0.78039 0.0259 0.16426 0.0
H282 H 0.89468 0.02725 0.10585 0.0
H283 H 0.86364 0.09172 0.16403 0.0
H284 H 0.03449 0.16656 0.16569 0.0
H285 H 0.95221 0.10031 0.16893 0.0
H286 H 0.92831 0.11962 0.09698 0.0
H287 H 1.01003 0.18641 0.09385 0.0
C288 C 0.82331 0.9897 0.1191 0.0
C289 C 0.79017 0.98903 0.13521 0.0
C290 C 0.87013 0.02722 0.11875 0.0
C291 C 0.88511 0.0645 0.13475 0.0
C292 C 0.85267 0.06318 0.15151 0.0
C293 C 0.80526 0.02578 0.15162 0.0
C294 C 1.0116 0.15646 0.15058 0.0
C295 C 0.02842 0.18125 0.12948 0.0
C296 C 0.96461 0.11897 0.15251 0.0
C297 C 0.9342 0.1052 0.13322 0.0
C298 C 0.95127 0.12965 0.11206 0.0
C299 C 0.99788 0.16768 0.11027 0.0
H300 H 0.85789 0.80243 0.65239 0.0
H301 H 0.73388 0.75773 0.60925 0.0
H302 H 0.87486 0.88485 0.65013 0.0
H303 H 0.75022 0.83994 0.60729 0.0
H304 H 0.76553 0.98184 0.63255 0.0
H305 H 0.75036 0.90015 0.63466 0.0
H306 H 0.89911 0.94999 0.62014 0.0
H307 H 0.91426 0.03199 0.61802 0.0
C308 C 0.83456 0.81036 0.64227 0.0
C309 C 0.79487 0.7739 0.63083 0.0
C310 C 0.84419 0.85746 0.641 0.0
C311 C 0.8139 0.86884 0.62851 0.0
C312 C 0.77395 0.83218 0.61723 0.0
C313 C 0.76461 0.78518 0.61832 0.0
C314 C 0.79498 0.97533 0.62983 0.0
C315 C 0.84104 0.0131 0.62509 0.0
C316 C 0.78624 0.92857 0.63091 0.0
C317 C 0.8235 0.91867 0.62748 0.0
C318 C 0.86977 0.95661 0.62301 0.0
C319 C 0.87841 1.00342 0.6217 0.0
H320 H 0.99247 0.72601 0.10973 0.0
H321 H 0.07751 0.85757 0.14657 0.0
H322 H 0.92739 0.74334 0.10724 0.0
H323 H 1.01413 0.87702 0.14272 0.0
H324 H 0.87296 0.87477 0.15319 0.0
H325 H 0.93844 0.85802 0.15622 0.0
H326 H 0.90255 0.79123 0.08853 0.0
H327 H 0.83572 0.80594 0.08624 0.0
C328 C 0.99734 0.75889 0.11713 0.0
C329 C 0.04018 0.79075 0.12814 0.0
C330 C 0.96025 0.76918 0.11548 0.0
C331 C 0.96539 0.81188 0.12459 0.0
C332 C 1.00844 0.84358 0.1357 0.0
C333 C 0.04519 0.83287 0.13763 0.0
C334 C 0.87932 0.85665 0.13897 0.0
C335 C 0.84929 0.84147 0.11953 0.0
C336 C 0.91702 0.84724 0.14061 0.0
C337 C 0.92591 0.82301 0.12266 0.0
C338 C 0.89631 0.80896 0.10295 0.0
C339 C 0.85823 0.81777 0.1015 0.0
H340 H 0.03094 0.84124 0.59124 0.0
H341 H 1.00655 0.86131 0.66317 0.0
H342 H 0.11342 0.90655 0.59433 0.0
H343 H 0.08952 0.92596 0.66638 0.0
H344 H 0.26104 0.99646 0.66156 0.0
H345 H 0.17724 0.93172 0.66115 0.0
H346 H 0.14897 0.99935 0.60359 0.0
H347 H 0.23117 0.06378 0.60427 0.0
C348 C 0.04325 0.85975 0.60765 0.0
C349 C 1.01253 0.84667 0.62691 0.0
C350 C 0.0903 0.89688 0.60944 0.0
C351 C 0.10759 0.92084 0.63063 0.0
C352 C 0.07695 0.90763 0.64994 0.0
C353 C 0.02956 0.87109 0.64802 0.0
C354 C 0.23667 0.99746 0.649 0.0
C355 C 0.25264 0.03483 0.63285 0.0
C356 C 0.18896 0.96069 0.64879 0.0
C357 C 0.15712 0.96062 0.63217 0.0
C358 C 0.17304 0.99841 0.61637 0.0
C359 C 0.22013 0.0353 0.61683 0.0
H360 H 0.05318 0.91999 0.38724 0.0
H361 H 1.00337 0.77732 0.41241 0.0
H362 H 0.97127 0.90525 0.38754 0.0
H363 H 0.92165 0.76125 0.41138 0.0
H364 H 0.77994 0.7518 0.42302 0.0
H365 H 0.86344 0.77381 0.42769 0.0
H366 H 0.90034 0.86477 0.36704 0.0
H367 H 0.81736 0.84469 0.36347 0.0
C368 C 0.0246 0.8855 0.39281 0.0
C369 C 0.03439 0.8498 0.3998 0.0
C370 C 0.97761 0.87679 0.3928 0.0
C371 C 0.93945 0.83185 0.39935 0.0
C372 C 0.94983 0.79655 0.40665 0.0
C373 C 0.99676 0.8056 0.40709 0.0
C374 C 0.80612 0.77645 0.41075 0.0
C375 C 0.79248 0.79629 0.39279 0.0
C376 C 0.85397 0.78903 0.41333 0.0
C377 C 0.88896 0.82094 0.39765 0.0
C378 C 0.87486 0.84083 0.37973 0.0
C379 C 0.82721 0.82897 0.37748 0.0
H380 H 0.04046 0.75602 0.91537 0.0
H381 H 0.96066 0.79622 0.86979 0.0
H382 H 0.10658 0.83829 0.91515 0.0
H383 H 0.02621 0.87856 0.8699 0.0
H384 H 0.13385 0.02892 0.89768 0.0
H385 H 0.06738 0.94675 0.89804 0.0
H386 H 0.1663 0.89569 0.88637 0.0
H387 H 0.23255 0.9777 0.88597 0.0
C388 C 0.03709 0.78249 0.90533 0.0
C389 C 0.99533 0.76996 0.89278 0.0
C390 C 0.0749 0.8295 0.90517 0.0
C391 C 0.07149 0.8649 0.89257 0.0
C392 C 0.02961 0.85223 0.88003 0.0
C393 C 0.99206 0.80515 0.88001 0.0
C394 C 0.14125 1.00006 0.89515 0.0
C395 C 0.18822 1.00953 0.89179 0.0
C396 C 0.10327 0.95312 0.89527 0.0
C397 C 0.11168 0.91479 0.8923 0.0
C398 C 0.15877 0.92443 0.88896 0.0
C399 C 0.19663 0.97135 0.88859 0.0
H400 H 0.26824 0.22444 0.41373 0.0
H401 H 0.1254 0.13402 0.38833 0.0
H402 H 0.28397 0.15876 0.41128 0.0
H403 H 0.13973 0.0667 0.38724 0.0
H404 H 0.19881 0.97208 0.36214 0.0
H405 H 0.17911 0.0352 0.36649 0.0
H406 H 0.27142 0.0879 0.42653 0.0
H407 H 0.29315 0.02653 0.421 0.0
C408 C 0.23983 0.19005 0.40805 0.0
C409 C 0.19568 0.18424 0.40116 0.0
C410 C 0.24868 0.15211 0.4068 0.0
C411 C 0.21319 0.10699 0.39907 0.0
C412 C 0.16835 0.10099 0.39282 0.0
C413 C 0.15987 0.13938 0.39364 0.0
C414 C 0.21491 0.99744 0.37617 0.0
C415 C 0.24797 0.99507 0.39102 0.0
C416 C 0.20329 0.03339 0.37887 0.0
C417 C 0.22375 0.06718 0.39683 0.0
C418 C 0.25584 0.06357 0.4121 0.0
C419 C 0.26824 0.02827 0.40904 0.0
H420 H 0.2148 0.15101 0.87157 0.0
H421 H 0.26647 0.30129 0.8783 0.0
H422 H 0.13266 0.13523 0.87146 0.0
H423 H 0.18445 0.28614 0.8786 0.0
H424 H 0.03261 0.24725 0.86172 0.0
H425 H 0.11357 0.26111 0.85693 0.0
H426 H 0.07639 0.13555 0.8981 0.0
H427 H 0.99497 0.12093 0.90205 0.0
C428 C 0.20831 0.18052 0.87328 0.0
C429 C 0.2465 0.22706 0.87546 0.0
C430 C 0.16138 0.17166 0.87316 0.0
C431 C 0.15175 0.20932 0.87539 0.0
C432 C 0.19041 0.25625 0.87665 0.0
C433 C 0.2374 0.26504 0.87652 0.0
C434 C 0.04181 0.22252 0.86961 0.0
C435 C 1.00772 0.18309 0.88229 0.0
C436 C 0.08826 0.23059 0.867 0.0
C437 C 0.10171 0.19958 0.87719 0.0
C438 C 0.0672 0.15979 0.8897 0.0
C439 C 0.02062 0.15153 0.89212 0.0
H440 H 0.0759 0.22844 0.36533 0.0
H441 H 1.01594 0.26365 0.424 0.0
H442 H 1.01261 0.14556 0.36795 0.0
H443 H 0.95404 0.18039 0.42768 0.0
H444 H 0.81882 0.04217 0.41116 0.0
H445 H 0.88451 0.12355 0.41036 0.0
H446 H 0.97982 0.07346 0.38791 0.0
H447 H 0.91268 0.99184 0.38744 0.0
C448 C 0.0493 0.21815 0.37895 0.0
C449 C 0.05026 0.25229 0.39427 0.0
C450 C 1.01322 0.17054 0.38063 0.0
C451 C 0.97776 0.15589 0.39798 0.0
C452 C 0.97981 0.19026 0.41371 0.0
C453 C 1.01537 0.23801 0.41171 0.0
C454 C 0.8539 0.04858 0.40616 0.0
C455 C 0.86073 1.01082 0.39931 0.0
C456 C 0.89182 0.09533 0.40587 0.0
C457 C 0.93786 0.10552 0.39912 0.0
C458 C 0.94482 0.0673 0.3928 0.0
C459 C 0.90651 0.02045 0.39271 0.0
H460 H 0.91744 0.89016 0.88966 0.0
H461 H 0.77237 0.798 0.91231 0.0
H462 H 0.90333 0.95763 0.88912 0.0
H463 H 0.75693 0.86389 0.91034 0.0
H464 H 0.74612 0.99447 0.92143 0.0
H465 H 0.768 0.93319 0.92662 0.0
H466 H 0.86639 0.9916 0.86863 0.0
H467 H 0.84656 0.05471 0.86474 0.0
C468 C 0.88251 0.88444 0.89446 0.0
C469 C 0.84603 0.83907 0.90109 0.0
C470 C 0.87418 0.92295 0.89396 0.0
C471 C 0.82884 0.91657 0.89964 0.0
C472 C 0.79261 0.87086 0.90637 0.0
C473 C 0.80128 0.83279 0.90733 0.0
C474 C 0.77246 0.99405 0.90988 0.0
C475 C 0.79424 0.02872 0.89251 0.0
C476 C 0.78492 0.95879 0.91272 0.0
C477 C 0.81859 0.95665 0.89784 0.0
C478 C 0.84084 0.99214 0.88066 0.0
C479 C 0.82917 0.0281 0.87822 0.0
H480 H 0.23747 0.68446 0.10444 0.0
H481 H 0.10512 0.61012 0.14268 0.0
H482 H 0.24524 0.61303 0.10533 0.0
H483 H 0.11109 0.53832 0.14257 0.0
H484 H 0.14742 0.42732 0.15875 0.0
H485 H 0.15176 0.50428 0.15938 0.0
H486 H 0.21564 0.53491 0.09078 0.0
H487 H 0.21374 0.45821 0.091 0.0
C488 C 0.2099 0.65265 0.11288 0.0
C489 C 0.17083 0.65274 0.12362 0.0
C490 C 0.21416 0.61163 0.11329 0.0
C491 C 0.17908 0.56974 0.12422 0.0
C492 C 0.13963 0.57006 0.13458 0.0
C493 C 0.13586 0.61115 0.13449 0.0
C494 C 0.16293 0.45083 0.14393 0.0
C495 C 0.17977 0.43682 0.12472 0.0
C496 C 0.16502 0.49483 0.14415 0.0
C497 C 0.18279 0.52557 0.12486 0.0
C498 C 0.20175 0.51235 0.10598 0.0
C499 C 0.20059 0.46841 0.10602 0.0
H500 H 0.77418 0.22913 0.62828 0.0
H501 H 0.71786 0.11225 0.57963 0.0
H502 H 0.69667 0.22439 0.63036 0.0
H503 H 0.63948 0.10671 0.5822 0.0
H504 H 0.49878 0.07612 0.62156 0.0
H505 H 0.57733 0.08366 0.61508 0.0
H506 H 0.63865 0.23516 0.60501 0.0
H507 H 0.56032 0.22756 0.61129 0.0
C508 C 0.74553 0.20314 0.6176 0.0
C509 C 0.75229 0.17145 0.60356 0.0
C510 C 0.70102 0.20025 0.61891 0.0
C511 C 0.662 0.16504 0.60653 0.0
C512 C 0.6689 0.13394 0.59208 0.0
C513 C 0.71378 0.13735 0.59047 0.0
C514 C 0.52911 0.11094 0.61795 0.0
C515 C 0.52364 0.15126 0.61701 0.0
C516 C 0.57389 0.11522 0.61405 0.0
C517 C 0.61403 0.15999 0.60946 0.0
C518 C 0.6084 0.20027 0.6086 0.0
C519 C 0.5636 0.19589 0.61218 0.0
H520 H 0.56426 0.76785 0.13857 0.0
H521 H 0.61079 0.71109 0.08277 0.0
H522 H 0.48889 0.69228 0.14103 0.0
H523 H 0.53593 0.63569 0.0854 0.0
H524 H 0.43278 0.49402 0.12137 0.0
H525 H 0.50321 0.57265 0.11697 0.0
H526 H 0.4138 0.63682 0.11725 0.0
H527 H 0.34292 0.55768 0.12154 0.0
C528 C 0.55803 0.73952 0.1266 0.0
C529 C 0.59334 0.74513 0.11054 0.0
C530 C 0.51498 0.69636 0.12801 0.0
C531 C 0.50692 0.65807 0.11358 0.0
C532 C 0.54157 0.66444 0.09696 0.0
C533 C 0.58427 0.70761 0.09539 0.0
C534 C 0.42818 0.52491 0.12052 0.0
C535 C 0.38258 0.51994 0.12174 0.0
C536 C 0.46841 0.56983 0.11786 0.0
C537 C 0.46385 0.61071 0.11659 0.0
C538 C 0.41823 0.60585 0.11824 0.0
C539 C 0.37782 0.5607 0.12063 0.0
H540 H 0.82741 0.56755 0.59231 0.0
H541 H 0.90216 0.60476 0.65765 0.0
H542 H 0.82678 0.49154 0.59254 0.0
H543 H 0.89916 0.52843 0.65884 0.0
H544 H 0.94283 0.41995 0.64194 0.0
H545 H 0.93704 0.49194 0.6417 0.0
H546 H 0.79946 0.41524 0.60815 0.0
H547 H 0.80705 0.34382 0.60727 0.0
C548 C 0.84276 0.5589 0.60693 0.0
C549 C 0.86539 0.59204 0.62479 0.0
C550 C 0.84233 0.51533 0.60716 0.0
C551 C 0.86383 0.50393 0.6255 0.0
C552 C 0.88381 0.53636 0.64399 0.0
C553 C 0.88513 0.58003 0.64346 0.0
C554 C 0.91139 0.41858 0.63454 0.0
C555 C 0.87543 0.37645 0.62465 0.0
C556 C 0.90773 0.45977 0.63455 0.0
C557 C 0.86744 0.45964 0.62513 0.0
C558 C 0.83128 0.41711 0.6153 0.0
C559 C 0.83543 0.37605 0.61492 0.0
H560 H 0.48511 0.80653 0.10551 0.0
H561 H 0.54336 0.9444 0.13803 0.0
H562 H 0.40741 0.80191 0.10249 0.0
H563 H 0.46575 0.93968 0.13531 0.0
H564 H 0.33724 0.94046 0.10548 0.0
H565 H 0.41332 0.94174 0.1056 0.0
H566 H 0.34128 0.79445 0.12742 0.0
H567 H 0.26525 0.7938 0.1275 0.0
C568 C 0.48121 0.83579 0.11204 0.0
C569 C 0.52019 0.87593 0.12192 0.0
C570 C 0.4367 0.83304 0.11042 0.0
C571 C 0.43043 0.87053 0.11852 0.0
C572 C 0.46955 0.91053 0.12854 0.0
C573 C 0.51393 0.91315 0.13025 0.0
C574 C 0.33765 0.90815 0.10993 0.0
C575 C 0.29519 0.86652 0.11579 0.0
C576 C 0.38123 0.90898 0.11019 0.0
C577 C 0.38344 0.86826 0.1166 0.0
C578 C 0.3407 0.82619 0.122 0.0
C579 C 0.29698 0.82546 0.12173 0.0
H580 H 0.6999 0.46814 0.62016 0.0
H581 H 0.61013 0.53044 0.63035 0.0
H582 H 0.62857 0.38925 0.61598 0.0
H583 H 0.53923 0.45209 0.62573 0.0
H584 H 0.43208 0.31788 0.58605 0.0
H585 H 0.50655 0.39333 0.59007 0.0
H586 H 0.55331 0.33124 0.64288 0.0
H587 H 0.47792 0.2559 0.63944 0.0
C588 C 0.66494 0.46486 0.62157 0.0
C589 C 0.66032 0.50518 0.62554 0.0
C590 C 0.62431 0.41989 0.61923 0.0
C591 C 0.57861 0.41487 0.62037 0.0
C592 C 0.57414 0.45519 0.62456 0.0
C593 C 0.61462 0.49988 0.62731 0.0
C594 C 0.45838 0.32017 0.59839 0.0
C595 C 0.4493 0.28103 0.61239 0.0
C596 C 0.50085 0.36334 0.60072 0.0
C597 C 0.53538 0.36799 0.61686 0.0
C598 C 0.52725 0.32836 0.63024 0.0
C599 C 0.48428 0.28529 0.62819 0.0
H600 H 0.35474 0.79414 0.39977 0.0
H601 H 0.43647 0.93914 0.37535 0.0
H602 H 0.42707 0.78764 0.39967 0.0
H603 H 0.50873 0.93357 0.37604 0.0
H604 H 0.62356 0.90173 0.35846 0.0
H605 H 0.54671 0.89793 0.35611 0.0
H606 H 0.50187 0.81508 0.41954 0.0
H607 H 0.57889 0.81753 0.42125 0.0
C608 C 0.38824 0.82459 0.39442 0.0
C609 C 0.39015 0.86707 0.38744 0.0
C610 C 0.42968 0.82101 0.39451 0.0
C611 C 0.47377 0.85996 0.38771 0.0
C612 C 0.47533 0.90245 0.38087 0.0
C613 C 0.43397 0.90585 0.3806 0.0
C614 C 0.59707 0.88233 0.37178 0.0
C615 C 0.60712 0.86026 0.39014 0.0
C616 C 0.55312 0.8804 0.37054 0.0
C617 C 0.51834 0.85706 0.38789 0.0
C618 C 0.52773 0.83323 0.40582 0.0
C619 C 0.57178 0.83467 0.40688 0.0
H620 H 0.71565 0.60177 0.865 0.0
H621 H 0.75755 0.55802 0.92725 0.0
H622 H 0.6408 0.52706 0.86442 0.0
H623 H 0.68106 0.48273 0.92717 0.0
H624 H 0.55048 0.33609 0.90638 0.0
H625 H 0.62999 0.40711 0.90733 0.0
H626 H 0.56869 0.49318 0.88628 0.0
H627 H 0.4901 0.42234 0.88467 0.0
C628 C 0.70875 0.57594 0.8786 0.0
C629 C 0.74212 0.58581 0.8963 0.0
C630 C 0.6656 0.53319 0.87837 0.0
C631 C 0.65424 0.49923 0.89605 0.0
C632 C 0.68863 0.50813 0.91329 0.0
C633 C 0.73237 0.55113 0.91338 0.0
C634 C 0.55423 0.37032 0.90201 0.0
C635 C 0.51429 0.37378 0.89527 0.0
C636 C 0.59968 0.411 0.90266 0.0
C637 C 0.60595 0.45587 0.89662 0.0
C638 C 0.56551 0.45913 0.8905 0.0
C639 C 0.52033 0.41858 0.88972 0.0
H640 H 0.14022 0.71771 0.361 0.0
H641 H 0.22999 0.76357 0.42174 0.0
H642 H 0.1433 0.64434 0.36008 0.0
H643 H 0.23189 0.68874 0.42144 0.0
H644 H 0.25093 0.56028 0.40264 0.0
H645 H 0.25747 0.63897 0.40167 0.0
H646 H 0.1089 0.5733 0.38223 0.0
H647 H 0.10314 0.49554 0.38244 0.0
C648 C 0.16071 0.71197 0.37418 0.0
C649 C 0.18452 0.74596 0.39156 0.0
C650 C 0.16223 0.66975 0.37376 0.0
C651 C 0.18699 0.66006 0.39097 0.0
C652 C 0.21257 0.69509 0.40788 0.0
C653 C 0.21147 0.73785 0.40812 0.0
C654 C 0.21986 0.56296 0.39806 0.0
C655 C 0.1766 0.52202 0.39246 0.0
C656 C 0.2235 0.60792 0.39765 0.0
C657 C 0.18385 0.61261 0.39169 0.0
C658 C 0.14051 0.57129 0.38636 0.0
C659 C 0.13703 0.5266 0.38662 0.0
H660 H 0.66544 0.18603 0.92838 0.0
H661 H 0.61832 0.12191 0.86079 0.0
H662 H 0.59421 0.19395 0.93212 0.0
H663 H 0.54753 0.1309 0.86433 0.0
H664 H 0.46001 0.20896 0.87072 0.0
H665 H 0.53368 0.20537 0.8682 0.0
H666 H 0.50067 0.13126 0.93394 0.0
H667 H 0.42615 0.13384 0.93626 0.0
C668 C 0.6399 0.17382 0.9143 0.0
C669 C 0.64716 0.15328 0.89431 0.0
C670 C 0.59921 0.17824 0.91649 0.0
C671 C 0.56562 0.16312 0.8985 0.0
C672 C 0.57317 0.1431 0.87837 0.0
C673 C 0.61343 0.13778 0.87638 0.0
C674 C 0.46869 0.1923 0.88475 0.0
C675 C 0.43736 0.17145 0.90366 0.0
C676 C 0.51064 0.19002 0.88321 0.0
C677 C 0.52249 0.16772 0.90078 0.0
C678 C 0.49223 0.14868 0.92019 0.0
C679 C 0.44973 0.15014 0.92152 0.0
H680 H 0.28395 0.46768 0.42537 0.0
H681 H 0.32383 0.42285 0.36265 0.0
H682 H 0.35812 0.54482 0.42311 0.0
H683 H 0.39629 0.4996 0.35979 0.0
H684 H 0.54756 0.6086 0.37834 0.0
H685 H 0.46976 0.53688 0.37971 0.0
H686 H 0.40588 0.61972 0.40266 0.0
H687 H 0.48475 0.69166 0.402 0.0
C688 C 0.30814 0.47476 0.4109 0.0
C689 C 0.29869 0.43929 0.39437 0.0
C690 C 0.35052 0.51886 0.40954 0.0
C691 C 0.38376 0.52812 0.39151 0.0
C692 C 0.37242 0.4933 0.37431 0.0
C693 C 0.33069 0.44937 0.37585 0.0
C694 C 0.51688 0.61152 0.38358 0.0
C695 C 0.52209 0.6556 0.38997 0.0
C696 C 0.47212 0.57044 0.38425 0.0
C697 C 0.43126 0.57246 0.39107 0.0
C698 C 0.43656 0.61677 0.39749 0.0
C699 C 0.48161 0.65798 0.39696 0.0
H700 H 0.78891 0.46364 0.90518 0.0
H701 H 0.94031 0.5267 0.89288 0.0
H702 H 0.7824 0.3854 0.90978 0.0
H703 H 0.93392 0.44869 0.89763 0.0
H704 H 0.91225 0.31091 0.93091 0.0
H705 H 0.91464 0.38766 0.9296 0.0
H706 H 0.7925 0.32735 0.88412 0.0
H707 H 0.7906 0.2511 0.88511 0.0
C708 C 0.82073 0.46069 0.90342 0.0
C709 C 0.86509 0.50109 0.8986 0.0
C710 C 0.81701 0.41598 0.90604 0.0
C711 C 0.85771 0.411 0.90422 0.0
C712 C 0.90206 0.45154 0.89944 0.0
C713 C 0.90566 0.49609 0.89652 0.0
C714 C 0.88555 0.31393 0.92091 0.0
C715 C 0.85115 0.27499 0.90818 0.0
C716 C 0.8871 0.35789 0.92003 0.0
C717 C 0.85392 0.36355 0.90665 0.0
C718 C 0.8183 0.324 0.89472 0.0
C719 C 0.81716 0.28029 0.89535 0.0
H720 H 0.16427 0.40272 0.31858 0.0
H721 H 0.23042 0.31512 0.32034 0.0
H722 H 0.17109 0.40679 0.27619 0.0
H723 H 0.23836 0.32049 0.27782 0.0
H724 H 0.28585 0.39673 0.20329 0.0
H725 H 0.28391 0.39858 0.24595 0.0
H726 H 0.13033 0.33044 0.24448 0.0
H727 H 0.13197 0.32718 0.20198 0.0
C728 C 0.18081 0.38485 0.30994 0.0
C729 C 0.19674 0.35848 0.32273 0.0
C730 C 0.18455 0.38713 0.28573 0.0
C731 C 0.20533 0.36408 0.27394 0.0
C732 C 0.22246 0.33876 0.28667 0.0
C733 C 0.21769 0.3355 0.31089 0.0
C734 C 0.25176 0.38258 0.2121 0.0
C735 C 0.20903 0.36179 0.19942 0.0
C736 C 0.2507 0.38338 0.23642 0.0
C737 C 0.20698 0.36457 0.2483 0.0
C738 C 0.16442 0.3452 0.2356 0.0
C739 C 0.16539 0.3433 0.21137 0.0
H740 H 0.85564 0.12372 0.69695 0.0
H741 H 0.83897 0.24817 0.69821 0.0
H742 H 0.84636 0.11714 0.73906 0.0
H743 H 0.82986 0.24146 0.74043 0.0
H744 H 0.76826 0.18053 0.8138 0.0
H745 H 0.77327 0.18611 0.77137 0.0
H746 H 0.89571 0.1661 0.77265 0.0
H747 H 0.89088 0.16042 0.81482 0.0
C748 C 0.84972 0.14953 0.70615 0.0
C749 C 0.84829 0.18663 0.69419 0.0
C750 C 0.84469 0.14587 0.7303 0.0
C751 C 0.83768 0.17895 0.74301 0.0
C752 C 0.83497 0.21532 0.73104 0.0
C753 C 0.84046 0.21927 0.70688 0.0
C754 C 0.79628 0.17739 0.80503 0.0
C755 C 0.82911 0.16997 0.81772 0.0
C756 C 0.79922 0.18077 0.78076 0.0
C757 C 0.83469 0.17624 0.76873 0.0
C758 C 0.8676 0.16909 0.78144 0.0
C759 C 0.86499 0.16619 0.80564 0.0
H760 H 0.75838 0.85419 0.19587 0.0
H761 H 0.61611 0.83451 0.20031 0.0
H762 H 0.76025 0.84885 0.2382 0.0
H763 H 0.61837 0.82989 0.24242 0.0
H764 H 0.62099 0.77765 0.31592 0.0
H765 H 0.61892 0.77898 0.2736 0.0
H766 H 0.76367 0.89661 0.27232 0.0
H767 H 0.76611 0.89499 0.31466 0.0
C768 C 0.7274 0.84841 0.20581 0.0
C769 C 0.68712 0.8448 0.19463 0.0
C770 C 0.72865 0.84576 0.23009 0.0
C771 C 0.68952 0.83912 0.24371 0.0
C772 C 0.64892 0.83454 0.23247 0.0
C773 C 0.64776 0.83744 0.20827 0.0
C774 C 0.65242 0.80388 0.30666 0.0
C775 C 0.69372 0.83625 0.31877 0.0
C776 C 0.65114 0.80472 0.28237 0.0
C777 C 0.69117 0.83782 0.26956 0.0
C778 C 0.73244 0.87023 0.28165 0.0
C779 C 0.73367 0.86955 0.30595 0.0
H780 H 0.90382 0.73784 0.70328 0.0
H781 H 0.77921 0.59715 0.70244 0.0
H782 H 0.90669 0.73413 0.74534 0.0
H783 H 0.78213 0.5938 0.74488 0.0
H784 H 0.83806 0.59484 0.82033 0.0
H785 H 0.83356 0.59246 0.77783 0.0
H786 H 0.85538 0.73527 0.77719 0.0
H787 H 0.86021 0.738 0.8193 0.0
C788 C 0.87708 0.70597 0.71201 0.0
C789 C 0.84098 0.66795 0.69943 0.0
C790 C 0.87864 0.70401 0.73618 0.0
C791 C 0.84429 0.66393 0.74842 0.0
C792 C 0.80912 0.62511 0.73588 0.0
C793 C 0.80737 0.62715 0.7116 0.0
C794 C 0.84172 0.62565 0.81111 0.0
C795 C 0.84985 0.66673 0.82326 0.0
C796 C 0.83894 0.62416 0.7868 0.0
C797 C 0.84463 0.66386 0.77421 0.0
C798 C 0.8517 0.70442 0.7864 0.0
C799 C 0.85418 0.70583 0.81059 0.0
H800 H 0.20416 0.77726 0.19781 0.0
H801 H 0.18981 0.9031 0.19829 0.0
H802 H 0.20907 0.78001 0.24027 0.0
H803 H 0.19506 0.90581 0.24038 0.0
H804 H 0.14533 0.86232 0.31469 0.0
H805 H 0.14275 0.85669 0.27249 0.0
H806 H 0.26085 0.82977 0.27306 0.0
H807 H 0.26329 0.83488 0.31544 0.0
C808 C 0.20255 0.80574 0.20689 0.0
C809 C 0.1962 0.83971 0.1946 0.0
C810 C 0.20544 0.80732 0.23119 0.0
C811 C 0.20178 0.84275 0.24365 0.0
C812 C 0.19699 0.8775 0.2313 0.0
C813 C 0.19432 0.87608 0.20711 0.0
C814 C 0.17061 0.8549 0.3059 0.0
C815 C 0.20472 0.84937 0.31849 0.0
C816 C 0.16931 0.85199 0.28168 0.0
C817 C 0.20194 0.84329 0.26945 0.0
C818 C 0.23516 0.83635 0.28202 0.0
C819 C 0.23665 0.83951 0.30629 0.0
H820 H 0.27298 0.13014 0.81545 0.0
H821 H 0.41899 0.24571 0.81437 0.0
H822 H 0.27458 0.12514 0.77309 0.0
H823 H 0.42023 0.24098 0.7722 0.0
H824 H 0.4223 0.18153 0.70028 0.0
H825 H 0.41929 0.18661 0.74237 0.0
H826 H 0.27903 0.17141 0.73777 0.0
H827 H 0.28168 0.16573 0.69547 0.0
C828 C 0.30542 0.15445 0.80623 0.0
C829 C 0.34591 0.18822 0.81838 0.0
C830 C 0.30617 0.1518 0.78193 0.0
C831 C 0.34754 0.18264 0.76925 0.0
C832 C 0.38797 0.21632 0.78143 0.0
C833 C 0.38715 0.21916 0.80566 0.0
C834 C 0.39078 0.17938 0.70816 0.0
C835 C 0.35224 0.17329 0.69441 0.0
C836 C 0.38919 0.18253 0.73234 0.0
C837 C 0.34895 0.17946 0.74346 0.0
C838 C 0.31038 0.17344 0.72975 0.0
C839 C 0.31206 0.17057 0.70549 0.0
H840 H 0.37982 0.29058 0.966 0.0
H841 H 0.24051 0.1649 0.96126 0.0
H842 H 0.35435 0.31499 1.00078 0.0
H843 H 0.21452 0.19012 0.99536 0.0
H844 H 0.19369 0.22854 0.069 0.0
H845 H 0.22027 0.20127 0.03581 0.0
H846 H 0.30524 0.34664 0.01193 0.0
H847 H 0.27998 0.37402 0.04574 0.0
C848 C 0.34386 0.26795 0.97244 0.0
C849 C 0.3123 0.22574 0.96076 0.0
C850 C 0.32902 0.28225 0.99227 0.0
C851 C 0.28207 0.25495 1.00083 0.0
C852 C 0.25106 0.21194 0.98954 0.0
C853 C 0.26603 0.19743 0.96986 0.0
C854 C 0.2175 0.25469 0.0565 0.0
C855 C 0.23443 0.30351 0.05998 0.0
C856 C 0.23286 0.239 0.0374 0.0
C857 C 0.26521 0.27165 0.0211 0.0
C858 C 0.28116 0.32043 0.02432 0.0
C859 C 0.26621 0.33617 0.04358 0.0
H860 H 0.11954 0.25537 0.47047 0.0
H861 H 0.09381 0.37257 0.45949 0.0
H862 H 0.0637 0.2283 0.50318 0.0
H863 H 0.03625 0.34424 0.49081 0.0
H864 H 0.96504 0.30884 0.56099 0.0
H865 H 0.02353 0.33668 0.5299 0.0
H866 H 0.98362 0.19107 0.51365 0.0
H867 H 0.92704 0.16361 0.54601 0.0
C868 C 0.10223 0.27552 0.47513 0.0
C869 C 0.11176 0.31652 0.46255 0.0
C870 C 0.06959 0.25963 0.49369 0.0
C871 C 0.04494 0.28382 0.49979 0.0
C872 C 0.05502 0.32506 0.4872 0.0
C873 C 0.08824 0.34142 0.46907 0.0
C874 C 0.96819 0.28267 0.55056 0.0
C875 C 0.94099 0.23395 0.55583 0.0
C876 C 1.0019 0.29866 0.53261 0.0
C877 C 1.00869 0.26631 0.51901 0.0
C878 C 0.98038 0.21731 0.52393 0.0
C879 C 0.94734 0.2014 0.54229 0.0
H880 H 0.66456 0.95567 0.0602 0.0
H881 H 0.76752 0.91259 0.04252 0.0
H882 H 0.69128 1.01022 0.02759 0.0
H883 H 0.79263 0.96537 0.00881 0.0
H884 H 0.86289 0.09937 0.96469 0.0
H885 H 0.83596 0.04527 0.9979 0.0
H886 H 0.69245 0.01971 0.98801 0.0
H887 H 0.72002 0.07561 0.95593 0.0
C888 C 0.6921 0.95686 0.04895 0.0
C889 C 0.71385 0.92964 0.05398 0.0
C890 C 0.70749 0.98829 0.03011 0.0
C891 C 0.74447 0.99274 0.01543 0.0
C892 C 0.76491 0.96397 0.01996 0.0
C893 C 0.75007 0.93313 0.03912 0.0
C894 C 0.8258 0.0828 0.96995 0.0
C895 C 0.7938 0.09234 0.95784 0.0
C896 C 0.8101 0.05117 0.9888 0.0
C897 C 0.76179 0.02756 0.99573 0.0
C898 C 0.73005 0.03767 0.98365 0.0
C899 C 0.74592 0.06991 0.96514 0.0
H900 H 0.87126 0.77655 0.55245 0.0
H901 H 0.7255 0.66565 0.56351 0.0
H902 H 0.84683 0.8033 0.51813 0.0
H903 H 0.70044 0.69384 0.53045 0.0
H904 H 0.78413 0.86773 0.46897 0.0
H905 H 0.80854 0.84244 0.50382 0.0
H906 H 0.69846 0.69698 0.49102 0.0
H907 H 0.67259 0.72277 0.45745 0.0
C908 C 0.834 0.75788 0.54752 0.0
C909 C 0.8005 0.71848 0.56048 0.0
C910 C 0.81977 0.77357 0.52799 0.0
C911 C 0.77145 0.75089 0.52125 0.0
C912 C 0.7381 0.71167 0.53448 0.0
C913 C 0.75249 0.69542 0.55361 0.0
C914 C 0.7647 0.83052 0.47394 0.0
C915 C 0.72594 0.79747 0.4606 0.0
C916 C 0.77908 0.81579 0.49378 0.0
C917 C 0.75567 0.76744 0.50048 0.0
C918 C 0.71684 0.73464 0.48701 0.0
C919 C 0.70192 0.74949 0.46757 0.0
H920 H 0.91595 0.64015 0.97302 0.0
H921 H 0.94839 0.78477 0.96024 0.0
H922 H 0.96952 0.66725 1.00633 0.0
H923 H 1.00288 0.81192 0.99286 0.0
H924 H 0.066 0.84053 0.06536 0.0
H925 H 1.00892 0.81224 0.03378 0.0
H926 H 0.05314 0.71093 0.0146 0.0
H927 H 0.1094 0.73828 0.04687 0.0
C928 C 0.93411 0.67762 0.97742 0.0
C929 C 0.92763 0.71018 0.96395 0.0
C930 C 0.9653 0.69328 0.99636 0.0
C931 C 0.99101 0.7419 1.00221 0.0
C932 C 0.98337 0.77416 0.98912 0.0
C933 C 0.95198 0.7585 0.97033 0.0
C934 C 0.0641 0.81262 0.05426 0.0
C935 C 0.09265 0.79194 0.05858 0.0
C936 C 0.03121 0.79633 0.03609 0.0
C937 C 0.02619 0.75917 0.02159 0.0
C938 C 0.05537 0.73902 0.02566 0.0
C939 C 0.08805 0.75507 0.044 0.0
H940 H 0.32513 0.95283 0.45476 0.0
H941 H 0.18101 0.92391 0.4664 0.0
H942 H 0.35306 1.01005 0.48614 0.0
H943 H 0.2085 0.97941 0.49896 0.0
H944 H 0.27544 0.11355 0.54212 0.0
H945 H 0.25022 0.06003 0.50878 0.0
H946 H 0.35649 0.02085 0.52564 0.0
H947 H 0.38323 0.0761 0.55784 0.0
C948 C 0.29908 0.95766 0.46448 0.0
C949 C 0.25069 0.9334 0.45817 0.0
C950 C 0.31518 0.99069 0.48258 0.0
C951 C 0.28323 0.99977 0.49524 0.0
C952 C 0.23447 0.97432 0.48936 0.0
C953 C 0.21849 0.94188 0.4709 0.0
C954 C 0.294 0.09419 0.53834 0.0
C955 C 0.3315 0.09935 0.55258 0.0
C956 C 0.27909 0.0629 0.51941 0.0
C957 C 0.30079 0.03538 0.51452 0.0
C958 C 0.33922 0.04174 0.52847 0.0
C959 C 0.35465 0.0736 0.54707 0.0
loop_
_geom_bond_atom_site_label_1
_geom_bond_atom_site_label_2
_geom_bond_distance
_geom_bond_site_symmetry_2
_ccdc_geom_bond_type
Tb0 O3 2.453 . S
Tb0 O4 2.596 . S
Tb0 O5 2.374 . S
Tb0 O13 2.343 . S
Tb0 O15 2.353 . S
Tb0 O17 2.427 . S
Tb0 O18 2.513 . S
C1 O5 1.251 . S
C1 O7 1.263 . S
Tb2 O4 2.343 . S
Tb2 O7 2.353 . S
Tb2 O10 2.427 . S
Tb2 O11 2.513 . S
Tb2 O12 2.453 . S
Tb2 O13 2.596 . S
Tb2 O14 2.374 . S
O3 Tb0 2.453 . S
O3 C19 1.245 . S
O4 Tb0 2.596 . S
O4 Tb2 2.343 . S
O4 C19 1.259 . S
O5 Tb0 2.374 . S
O5 C1 1.251 . S
C6 O10 1.275 . S
C6 O11 1.246 . S
O7 C1 1.263 . S
O7 Tb2 2.353 . S
C8 O12 1.245 . S
C8 O13 1.259 . S
C9 O14 1.250 . S
C9 O15 1.263 . S
O10 Tb2 2.427 . S
O10 C6 1.275 . S
O11 Tb2 2.513 . S
O11 C6 1.246 . S
O12 Tb2 2.453 . S
O12 C8 1.245 . S
O13 Tb0 2.343 . S
O13 Tb2 2.596 . S
O13 C8 1.259 . S
O14 Tb2 2.374 . S
O14 C9 1.250 . S
O15 Tb0 2.353 . S
O15 C9 1.263 . S
C16 O17 1.275 . S
C16 O18 1.246 . S
O17 Tb0 2.427 . S
O17 C16 1.275 . S
O18 Tb0 2.513 . S
O18 C16 1.246 . S
C19 O3 1.245 . S
C19 O4 1.259 . S
Tb20 O23 2.453 . S
Tb20 O24 2.596 . S
Tb20 O25 2.374 . S
Tb20 O33 2.343 . S
Tb20 O35 2.353 . S
Tb20 O37 2.427 . S
Tb20 O38 2.513 . S
C21 O25 1.251 . S
C21 O27 1.263 . S
Tb22 O24 2.343 . S
Tb22 O27 2.353 . S
Tb22 O30 2.427 . S
Tb22 O31 2.513 . S
Tb22 O32 2.453 . S
Tb22 O33 2.596 . S
Tb22 O34 2.374 . S
O23 Tb20 2.453 . S
O23 C39 1.245 . S
O24 Tb20 2.596 . S
O24 Tb22 2.343 . S
O24 C39 1.259 . S
O25 Tb20 2.374 . S
O25 C21 1.251 . S
C26 O30 1.275 . S
C26 O31 1.246 . S
O27 C21 1.263 . S
O27 Tb22 2.353 . S
C28 O32 1.245 . S
C28 O33 1.259 . S
C29 O34 1.250 . S
C29 O35 1.263 . S
O30 Tb22 2.427 . S
O30 C26 1.275 . S
O31 Tb22 2.513 . S
O31 C26 1.246 . S
O32 Tb22 2.453 . S
O32 C28 1.245 . S
O33 Tb20 2.343 . S
O33 Tb22 2.596 . S
O33 C28 1.259 . S
O34 Tb22 2.374 . S
O34 C29 1.250 . S
O35 Tb20 2.353 . S
O35 C29 1.263 . S
C36 O37 1.275 . S
C36 O38 1.246 . S
O37 Tb20 2.427 . S
O37 C36 1.275 . S
O38 Tb20 2.513 . S
O38 C36 1.246 . S
C39 O23 1.245 . S
C39 O24 1.259 . S
Tb40 O43 2.453 . S
Tb40 O44 2.596 . S
Tb40 O45 2.374 . S
Tb40 O53 2.343 . S
Tb40 O55 2.353 . S
Tb40 O57 2.427 . S
Tb40 O58 2.513 . S
C41 O45 1.251 . S
C41 O47 1.263 . S
Tb42 O44 2.343 . S
Tb42 O47 2.353 . S
Tb42 O50 2.427 . S
Tb42 O51 2.513 . S
Tb42 O52 2.453 . S
Tb42 O53 2.596 . S
Tb42 O54 2.374 . S
O43 Tb40 2.453 . S
O43 C59 1.245 . S
O44 Tb40 2.596 . S
O44 Tb42 2.343 . S
O44 C59 1.259 . S
O45 Tb40 2.374 . S
O45 C41 1.251 . S
C46 O50 1.275 . S
C46 O51 1.246 . S
O47 C41 1.263 . S
O47 Tb42 2.353 . S
C48 O52 1.245 . S
C48 O53 1.259 . S
C49 O54 1.250 . S
C49 O55 1.263 . S
O50 Tb42 2.427 . S
O50 C46 1.275 . S
O51 Tb42 2.513 . S
O51 C46 1.246 . S
O52 Tb42 2.453 . S
O52 C48 1.245 . S
O53 Tb40 2.343 . S
O53 Tb42 2.596 . S
O53 C48 1.259 . S
O54 Tb42 2.374 . S
O54 C49 1.250 . S
O55 Tb40 2.353 . S
O55 C49 1.263 . S
C56 O57 1.275 . S
C56 O58 1.246 . S
O57 Tb40 2.427 . S
O57 C56 1.275 . S
O58 Tb40 2.513 . S
O58 C56 1.246 . S
C59 O43 1.245 . S
C59 O44 1.259 . S
Tb60 O63 2.453 . S
Tb60 O64 2.596 . S
Tb60 O65 2.374 . S
Tb60 O73 2.343 . S
Tb60 O75 2.353 . S
Tb60 O77 2.427 . S
Tb60 O78 2.513 . S
C61 O65 1.251 . S
C61 O67 1.263 . S
Tb62 O64 2.343 . S
Tb62 O67 2.353 . S
Tb62 O70 2.427 . S
Tb62 O71 2.513 . S
Tb62 O72 2.453 . S
Tb62 O73 2.596 . S
Tb62 O74 2.374 . S
O63 Tb60 2.453 . S
O63 C79 1.245 . S
O64 Tb60 2.596 . S
O64 Tb62 2.343 . S
O64 C79 1.259 . S
O65 Tb60 2.374 . S
O65 C61 1.251 . S
C66 O70 1.275 . S
C66 O71 1.246 . S
O67 C61 1.263 . S
O67 Tb62 2.353 . S
C68 O72 1.245 . S
C68 O73 1.259 . S
C69 O74 1.250 . S
C69 O75 1.263 . S
O70 Tb62 2.427 . S
O70 C66 1.275 . S
O71 Tb62 2.513 . S
O71 C66 1.246 . S
O72 Tb62 2.453 . S
O72 C68 1.245 . S
O73 Tb60 2.343 . S
O73 Tb62 2.596 . S
O73 C68 1.259 . S
O74 Tb62 2.374 . S
O74 C69 1.250 . S
O75 Tb60 2.353 . S
O75 C69 1.263 . S
C76 O77 1.275 . S
C76 O78 1.246 . S
O77 Tb60 2.427 . S
O77 C76 1.275 . S
O78 Tb60 2.513 . S
O78 C76 1.246 . S
C79 O63 1.245 . S
C79 O64 1.259 . S
Tb80 O83 2.453 . S
Tb80 O84 2.596 . S
Tb80 O85 2.374 . S
Tb80 O93 2.343 . S
Tb80 O95 2.353 . S
Tb80 O97 2.427 . S
Tb80 O98 2.513 . S
C81 O85 1.251 . S
C81 O87 1.263 . S
Tb82 O84 2.343 . S
Tb82 O87 2.353 . S
Tb82 O90 2.427 . S
Tb82 O91 2.513 . S
Tb82 O92 2.453 . S
Tb82 O93 2.596 . S
Tb82 O94 2.374 . S
O83 Tb80 2.453 . S
O83 C99 1.245 . S
O84 Tb80 2.596 . S
O84 Tb82 2.343 . S
O84 C99 1.259 . S
O85 Tb80 2.374 . S
O85 C81 1.251 . S
C86 O90 1.275 . S
C86 O91 1.246 . S
O87 C81 1.263 . S
O87 Tb82 2.353 . S
C88 O92 1.245 . S
C88 O93 1.259 . S
C89 O94 1.250 . S
C89 O95 1.263 . S
O90 Tb82 2.427 . S
O90 C86 1.275 . S
O91 Tb82 2.513 . S
O91 C86 1.246 . S
O92 Tb82 2.453 . S
O92 C88 1.245 . S
O93 Tb80 2.343 . S
O93 Tb82 2.596 . S
O93 C88 1.259 . S
O94 Tb82 2.374 . S
O94 C89 1.250 . S
O95 Tb80 2.353 . S
O95 C89 1.263 . S
C96 O97 1.275 . S
C96 O98 1.246 . S
O97 Tb80 2.427 . S
O97 C96 1.275 . S
O98 Tb80 2.513 . S
O98 C96 1.246 . S
C99 O83 1.245 . S
C99 O84 1.259 . S
Tb100 O103 2.453 . S
Tb100 O104 2.596 . S
Tb100 O105 2.374 . S
Tb100 O113 2.343 . S
Tb100 O115 2.353 . S
Tb100 O117 2.427 . S
Tb100 O118 2.513 . S
C101 O105 1.251 . S
C101 O107 1.263 . S
Tb102 O104 2.343 . S
Tb102 O107 2.353 . S
Tb102 O110 2.427 . S
Tb102 O111 2.513 . S
Tb102 O112 2.453 . S
Tb102 O113 2.596 . S
Tb102 O114 2.374 . S
O103 Tb100 2.453 . S
O103 C119 1.245 . S
O104 Tb100 2.596 . S
O104 Tb102 2.343 . S
O104 C119 1.259 . S
O105 Tb100 2.374 . S
O105 C101 1.251 . S
C106 O110 1.275 . S
C106 O111 1.246 . S
O107 C101 1.263 . S
O107 Tb102 2.353 . S
C108 O112 1.245 . S
C108 O113 1.259 . S
C109 O114 1.250 . S
C109 O115 1.263 . S
O110 Tb102 2.427 . S
O110 C106 1.275 . S
O111 Tb102 2.513 . S
O111 C106 1.246 . S
O112 Tb102 2.453 . S
O112 C108 1.245 . S
O113 Tb100 2.343 . S
O113 Tb102 2.596 . S
O113 C108 1.259 . S
O114 Tb102 2.374 . S
O114 C109 1.250 . S
O115 Tb100 2.353 . S
O115 C109 1.263 . S
C116 O117 1.275 . S
C116 O118 1.246 . S
O117 Tb100 2.427 . S
O117 C116 1.275 . S
O118 Tb100 2.513 . S
O118 C116 1.246 . S
C119 O103 1.245 . S
C119 O104 1.259 . S
Tb120 O123 2.453 . S
Tb120 O124 2.596 . S
Tb120 O125 2.374 . S
Tb120 O133 2.343 . S
Tb120 O135 2.353 . S
Tb120 O137 2.427 . S
Tb120 O138 2.513 . S
C121 O125 1.251 . S
C121 O127 1.263 . S
Tb122 O124 2.343 . S
Tb122 O127 2.353 . S
Tb122 O130 2.427 . S
Tb122 O131 2.513 . S
Tb122 O132 2.453 . S
Tb122 O133 2.596 . S
Tb122 O134 2.374 . S
O123 Tb120 2.453 . S
O123 C139 1.245 . S
O124 Tb120 2.596 . S
O124 Tb122 2.343 . S
O124 C139 1.259 . S
O125 Tb120 2.374 . S
O125 C121 1.251 . S
C126 O130 1.275 . S
C126 O131 1.246 . S
O127 C121 1.263 . S
O127 Tb122 2.353 . S
C128 O132 1.245 . S
C128 O133 1.259 . S
C129 O134 1.250 . S
C129 O135 1.263 . S
O130 Tb122 2.427 . S
O130 C126 1.275 . S
O131 Tb122 2.513 . S
O131 C126 1.246 . S
O132 Tb122 2.453 . S
O132 C128 1.245 . S
O133 Tb120 2.343 . S
O133 Tb122 2.596 . S
O133 C128 1.259 . S
O134 Tb122 2.374 . S
O134 C129 1.250 . S
O135 Tb120 2.353 . S
O135 C129 1.263 . S
C136 O137 1.275 . S
C136 O138 1.246 . S
O137 Tb120 2.427 . S
O137 C136 1.275 . S
O138 Tb120 2.513 . S
O138 C136 1.246 . S
C139 O123 1.245 . S
C139 O124 1.259 . S
Tb140 O143 2.453 . S
Tb140 O144 2.596 . S
Tb140 O145 2.374 . S
Tb140 O153 2.343 . S
Tb140 O155 2.353 . S
Tb140 O157 2.427 . S
Tb140 O158 2.513 . S
C141 O145 1.251 . S
C141 O147 1.263 . S
Tb142 O144 2.343 . S
Tb142 O147 2.353 . S
Tb142 O150 2.427 . S
Tb142 O151 2.513 . S
Tb142 O152 2.453 . S
Tb142 O153 2.596 . S
Tb142 O154 2.374 . S
O143 Tb140 2.453 . S
O143 C159 1.245 . S
O144 Tb140 2.596 . S
O144 Tb142 2.343 . S
O144 C159 1.259 . S
O145 Tb140 2.374 . S
O145 C141 1.251 . S
C146 O150 1.275 . S
C146 O151 1.246 . S
O147 C141 1.263 . S
O147 Tb142 2.353 . S
C148 O152 1.245 . S
C148 O153 1.259 . S
C149 O154 1.250 . S
C149 O155 1.263 . S
O150 Tb142 2.427 . S
O150 C146 1.275 . S
O151 Tb142 2.513 . S
O151 C146 1.246 . S
O152 Tb142 2.453 . S
O152 C148 1.245 . S
O153 Tb140 2.343 . S
O153 Tb142 2.596 . S
O153 C148 1.259 . S
O154 Tb142 2.374 . S
O154 C149 1.250 . S
O155 Tb140 2.353 . S
O155 C149 1.263 . S
C156 O157 1.275 . S
C156 O158 1.246 . S
O157 Tb140 2.427 . S
O157 C156 1.275 . S
O158 Tb140 2.513 . S
O158 C156 1.246 . S
C159 O143 1.245 . S
C159 O144 1.259 . S
Tb160 O163 2.453 . S
Tb160 O164 2.596 . S
Tb160 O165 2.374 . S
Tb160 O173 2.343 . S
Tb160 O175 2.353 . S
Tb160 O177 2.427 . S
Tb160 O178 2.513 . S
C161 O165 1.251 . S
C161 O167 1.263 . S
Tb162 O164 2.343 . S
Tb162 O167 2.353 . S
Tb162 O170 2.427 . S
Tb162 O171 2.513 . S
Tb162 O172 2.453 . S
Tb162 O173 2.596 . S
Tb162 O174 2.374 . S
O163 Tb160 2.453 . S
O163 C179 1.245 . S
O164 Tb160 2.596 . S
O164 Tb162 2.343 . S
O164 C179 1.259 . S
O165 Tb160 2.374 . S
O165 C161 1.251 . S
C166 O170 1.275 . S
C166 O171 1.246 . S
O167 C161 1.263 . S
O167 Tb162 2.353 . S
C168 O172 1.245 . S
C168 O173 1.259 . S
C169 O174 1.250 . S
C169 O175 1.263 . S
O170 Tb162 2.427 . S
O170 C166 1.275 . S
O171 Tb162 2.513 . S
O171 C166 1.246 . S
O172 Tb162 2.453 . S
O172 C168 1.245 . S
O173 Tb160 2.343 . S
O173 Tb162 2.596 . S
O173 C168 1.259 . S
O174 Tb162 2.374 . S
O174 C169 1.250 . S
O175 Tb160 2.353 . S
O175 C169 1.263 . S
C176 O177 1.275 . S
C176 O178 1.246 . S
O177 Tb160 2.427 . S
O177 C176 1.275 . S
O178 Tb160 2.513 . S
O178 C176 1.246 . S
C179 O163 1.245 . S
C179 O164 1.259 . S
Tb180 O183 2.453 . S
Tb180 O184 2.596 . S
Tb180 O185 2.374 . S
Tb180 O193 2.343 . S
Tb180 O195 2.353 . S
Tb180 O197 2.427 . S
Tb180 O198 2.513 . S
C181 O185 1.251 . S
C181 O187 1.263 . S
Tb182 O184 2.343 . S
Tb182 O187 2.353 . S
Tb182 O190 2.427 . S
Tb182 O191 2.513 . S
Tb182 O192 2.453 . S
Tb182 O193 2.596 . S
Tb182 O194 2.374 . S
O183 Tb180 2.453 . S
O183 C199 1.245 . S
O184 Tb180 2.596 . S
O184 Tb182 2.343 . S
O184 C199 1.259 . S
O185 Tb180 2.374 . S
O185 C181 1.251 . S
C186 O190 1.275 . S
C186 O191 1.246 . S
O187 C181 1.263 . S
O187 Tb182 2.353 . S
C188 O192 1.245 . S
C188 O193 1.259 . S
C189 O194 1.250 . S
C189 O195 1.263 . S
O190 Tb182 2.427 . S
O190 C186 1.275 . S
O191 Tb182 2.513 . S
O191 C186 1.246 . S
O192 Tb182 2.453 . S
O192 C188 1.245 . S
O193 Tb180 2.343 . S
O193 Tb182 2.596 . S
O193 C188 1.259 . S
O194 Tb182 2.374 . S
O194 C189 1.250 . S
O195 Tb180 2.353 . S
O195 C189 1.263 . S
C196 O197 1.275 . S
C196 O198 1.246 . S
O197 Tb180 2.427 . S
O197 C196 1.275 . S
O198 Tb180 2.513 . S
O198 C196 1.246 . S
C199 O183 1.245 . S
C199 O184 1.259 . S
Tb200 O203 2.453 . S
Tb200 O204 2.596 . S
Tb200 O205 2.374 . S
Tb200 O213 2.343 . S
Tb200 O215 2.353 . S
Tb200 O217 2.427 . S
Tb200 O218 2.513 . S
C201 O205 1.251 . S
C201 O207 1.263 . S
Tb202 O204 2.343 . S
Tb202 O207 2.353 . S
Tb202 O210 2.427 . S
Tb202 O211 2.513 . S
Tb202 O212 2.453 . S
Tb202 O213 2.596 . S
Tb202 O214 2.374 . S
O203 Tb200 2.453 . S
O203 C219 1.245 . S
O204 Tb200 2.596 . S
O204 Tb202 2.343 . S
O204 C219 1.259 . S
O205 Tb200 2.374 . S
O205 C201 1.251 . S
C206 O210 1.275 . S
C206 O211 1.246 . S
O207 C201 1.263 . S
O207 Tb202 2.353 . S
C208 O212 1.245 . S
C208 O213 1.259 . S
C209 O214 1.250 . S
C209 O215 1.263 . S
O210 Tb202 2.427 . S
O210 C206 1.275 . S
O211 Tb202 2.513 . S
O211 C206 1.246 . S
O212 Tb202 2.453 . S
O212 C208 1.245 . S
O213 Tb200 2.343 . S
O213 Tb202 2.596 . S
O213 C208 1.259 . S
O214 Tb202 2.374 . S
O214 C209 1.250 . S
O215 Tb200 2.353 . S
O215 C209 1.263 . S
C216 O217 1.275 . S
C216 O218 1.246 . S
O217 Tb200 2.427 . S
O217 C216 1.275 . S
O218 Tb200 2.513 . S
O218 C216 1.246 . S
C219 O203 1.245 . S
C219 O204 1.259 . S
Tb220 O223 2.453 . S
Tb220 O224 2.596 . S
Tb220 O225 2.374 . S
Tb220 O233 2.343 . S
Tb220 O235 2.353 . S
Tb220 O237 2.427 . S
Tb220 O238 2.513 . S
C221 O225 1.251 . S
C221 O227 1.263 . S
Tb222 O224 2.343 . S
Tb222 O227 2.353 . S
Tb222 O230 2.427 . S
Tb222 O231 2.513 . S
Tb222 O232 2.453 . S
Tb222 O233 2.596 . S
Tb222 O234 2.374 . S
O223 Tb220 2.453 . S
O223 C239 1.245 . S
O224 Tb220 2.596 . S
O224 Tb222 2.343 . S
O224 C239 1.259 . S
O225 Tb220 2.374 . S
O225 C221 1.251 . S
C226 O230 1.275 . S
C226 O231 1.246 . S
O227 C221 1.263 . S
O227 Tb222 2.353 . S
C228 O232 1.245 . S
C228 O233 1.259 . S
C229 O234 1.250 . S
C229 O235 1.263 . S
O230 Tb222 2.427 . S
O230 C226 1.275 . S
O231 Tb222 2.513 . S
O231 C226 1.246 . S
O232 Tb222 2.453 . S
O232 C228 1.245 . S
O233 Tb220 2.343 . S
O233 Tb222 2.596 . S
O233 C228 1.259 . S
O234 Tb222 2.374 . S
O234 C229 1.250 . S
O235 Tb220 2.353 . S
O235 C229 1.263 . S
C236 O237 1.275 . S
C236 O238 1.246 . S
O237 Tb220 2.427 . S
O237 C236 1.275 . S
O238 Tb220 2.513 . S
O238 C236 1.246 . S
C239 O223 1.245 . S
C239 O224 1.259 . S
H240 C248 0.950 . S
H241 C253 0.950 . S
H242 C250 0.950 . S
H243 C252 0.950 . S
H244 C254 0.950 . S
H245 C256 0.950 . S
H246 C258 0.950 . S
H247 C259 0.950 . S
C248 H240 0.950 . S
C248 C249 1.386 1_545 S
C248 C250 1.391 . S
C249 C248 1.386 1_565 S
C249 C253 1.393 . S
C250 H242 0.950 . S
C250 C248 1.391 . S
C250 C251 1.400 . S
C251 C250 1.400 . S
C251 C252 1.398 . S
C251 C257 1.491 . S
C252 H243 0.950 . S
C252 C251 1.398 . S
C252 C253 1.391 1_545 S
C253 H241 0.950 . S
C253 C249 1.393 . S
C253 C252 1.391 1_565 S
C254 H244 0.950 . S
C254 C255 1.386 . S
C254 C256 1.391 . S
C255 C254 1.386 . S
C255 C259 1.393 . S
C256 H245 0.950 . S
C256 C254 1.391 . S
C256 C257 1.400 . S
C257 C251 1.491 . S
C257 C256 1.400 . S
C257 C258 1.398 . S
C258 H246 0.950 . S
C258 C257 1.398 . S
C258 C259 1.391 . S
C259 H247 0.950 . S
C259 C255 1.393 . S
C259 C258 1.391 . S
H260 C268 0.950 . S
H261 C273 0.950 . S
H262 C270 0.950 . S
H263 C272 0.950 . S
H264 C274 0.950 . S
H265 C276 0.950 . S
H266 C278 0.946 . S
H267 C279 0.950 . S
C268 H260 0.950 . S
C268 C269 1.386 . S
C268 C270 1.391 . S
C269 C268 1.386 . S
C269 C273 1.393 . S
C270 H262 0.950 . S
C270 C268 1.391 . S
C270 C271 1.400 . S
C271 C270 1.400 . S
C271 C272 1.398 . S
C271 C277 1.491 . S
C272 H263 0.950 . S
C272 C271 1.398 . S
C272 C273 1.391 . S
C273 H261 0.950 . S
C273 C269 1.393 . S
C273 C272 1.391 . S
C274 H264 0.950 . S
C274 C275 1.386 1_455 S
C274 C276 1.391 . S
C275 C274 1.386 1_655 S
C275 C279 1.393 . S
C276 H265 0.950 . S
C276 C274 1.391 . S
C276 C277 1.400 . S
C277 C271 1.491 . S
C277 C276 1.400 . S
C277 C278 1.398 . S
C278 H266 0.946 . S
C278 C277 1.398 . S
C278 C279 1.391 1_455 S
C279 H267 0.950 . S
C279 C275 1.393 . S
C279 C278 1.391 1_655 S
H280 C288 0.950 . S
H281 C293 0.952 1_565 S
H282 C290 0.950 . S
H283 C292 0.950 . S
H284 C294 0.950 1_455 S
H285 C296 0.950 . S
H286 C298 0.950 . S
H287 C299 0.950 . S
C288 H280 0.950 . S
C288 C289 1.386 . S
C288 C290 1.391 1_565 S
C289 C288 1.386 . S
C289 C293 1.386 1_565 S
C290 H282 0.950 . S
C290 C288 1.391 1_545 S
C290 C291 1.400 . S
C291 C290 1.400 . S
C291 C292 1.398 . S
C291 C297 1.491 . S
C292 H283 0.950 . S
C292 C291 1.398 . S
C292 C293 1.395 . S
C293 H281 0.952 1_545 S
C293 C289 1.386 1_545 S
C293 C292 1.395 . S
C294 H284 0.950 1_655 S
C294 C295 1.386 1_655 S
C294 C296 1.391 . S
C295 C294 1.386 1_455 S
C295 C299 1.393 . S
C296 H285 0.950 . S
C296 C294 1.391 . S
C296 C297 1.400 . S
C297 C291 1.491 . S
C297 C296 1.400 . S
C297 C298 1.398 . S
C298 H286 0.950 . S
C298 C297 1.398 . S
C298 C299 1.391 1_655 S
C299 H287 0.950 . S
C299 C295 1.393 . S
C299 C298 1.391 1_455 S
H300 C308 0.950 . S
H301 C313 0.950 . S
H302 C310 0.950 . S
H303 C312 0.950 . S
H304 C314 0.950 1_545 S
H305 C316 0.950 . S
H306 C318 0.950 . S
H307 C319 0.950 . S
C308 H300 0.950 . S
C308 C309 1.386 . S
C308 C310 1.391 . S
C309 C308 1.386 . S
C309 C313 1.393 . S
C310 H302 0.950 . S
C310 C308 1.391 . S
C310 C311 1.400 . S
C311 C310 1.400 . S
C311 C312 1.398 . S
C311 C317 1.491 . S
C312 H303 0.950 . S
C312 C311 1.398 . S
C312 C313 1.391 . S
C313 H301 0.950 . S
C313 C309 1.393 . S
C313 C312 1.391 . S
C314 H304 0.950 1_565 S
C314 C315 1.386 1_565 S
C314 C316 1.391 . S
C315 C314 1.386 1_545 S
C315 C319 1.393 . S
C316 H305 0.950 . S
C316 C314 1.391 . S
C316 C317 1.400 . S
C317 C311 1.491 . S
C317 C316 1.400 . S
C317 C318 1.398 . S
C318 H306 0.950 . S
C318 C317 1.398 . S
C318 C319 1.391 1_565 S
C319 H307 0.950 . S
C319 C315 1.393 . S
C319 C318 1.391 1_545 S
H320 C328 0.950 . S
H321 C333 0.950 . S
H322 C330 0.950 . S
H323 C332 0.950 . S
H324 C334 0.950 . S
H325 C336 0.950 . S
H326 C338 0.950 . S
H327 C339 0.950 . S
C328 H320 0.950 . S
C328 C329 1.386 1_655 S
C328 C330 1.391 . S
C329 C328 1.386 1_455 S
C329 C333 1.393 . S
C330 H322 0.950 . S
C330 C328 1.391 . S
C330 C331 1.400 . S
C331 C330 1.400 . S
C331 C332 1.398 1_655 S
C331 C337 1.491 . S
C332 H323 0.950 . S
C332 C331 1.398 1_455 S
C332 C333 1.391 . S
C333 H321 0.950 . S
C333 C329 1.393 . S
C333 C332 1.391 . S
C334 H324 0.950 . S
C334 C335 1.386 . S
C334 C336 1.391 . S
C335 C334 1.386 . S
C335 C339 1.393 . S
C336 H325 0.950 . S
C336 C334 1.391 . S
C336 C337 1.400 . S
C337 C331 1.491 . S
C337 C336 1.400 . S
C337 C338 1.398 . S
C338 H326 0.950 . S
C338 C337 1.398 . S
C338 C339 1.391 . S
C339 H327 0.950 . S
C339 C335 1.393 . S
C339 C338 1.391 . S
H340 C348 0.950 . S
H341 C353 0.950 . S
H342 C350 0.950 . S
H343 C352 0.950 . S
H344 C354 0.950 . S
H345 C356 0.950 . S
H346 C358 0.950 1_545 S
H347 C359 0.950 . S
C348 H340 0.950 . S
C348 C349 1.386 . S
C348 C350 1.391 1_655 S
C349 C348 1.386 . S
C349 C353 1.393 1_655 S
C350 H342 0.950 . S
C350 C348 1.391 1_455 S
C350 C351 1.400 . S
C351 C350 1.400 . S
C351 C352 1.398 . S
C351 C357 1.491 . S
C352 H343 0.950 . S
C352 C351 1.398 . S
C352 C353 1.391 . S
C353 H341 0.950 . S
C353 C349 1.393 1_455 S
C353 C352 1.391 . S
C354 H344 0.950 . S
C354 C355 1.386 1_565 S
C354 C356 1.391 . S
C355 C354 1.386 1_545 S
C355 C359 1.393 . S
C356 H345 0.950 . S
C356 C354 1.391 . S
C356 C357 1.400 . S
C357 C351 1.491 . S
C357 C356 1.400 . S
C357 C358 1.398 . S
C358 H346 0.950 1_565 S
C358 C357 1.398 . S
C358 C359 1.391 1_565 S
C359 H347 0.950 . S
C359 C355 1.393 . S
C359 C358 1.391 1_545 S
H360 C368 0.950 . S
H361 C373 0.950 . S
H362 C370 0.950 . S
H363 C372 0.950 . S
H364 C374 0.950 . S
H365 C376 0.950 . S
H366 C378 0.950 . S
H367 C379 0.950 . S
C368 H360 0.950 . S
C368 C369 1.386 . S
C368 C370 1.391 1_455 S
C369 C368 1.386 . S
C369 C373 1.393 1_455 S
C370 H362 0.950 . S
C370 C368 1.391 1_655 S
C370 C371 1.400 . S
C371 C370 1.400 . S
C371 C372 1.398 . S
C371 C377 1.491 . S
C372 H363 0.950 . S
C372 C371 1.398 . S
C372 C373 1.391 . S
C373 H361 0.950 . S
C373 C369 1.393 1_655 S
C373 C372 1.391 . S
C374 H364 0.950 . S
C374 C375 1.386 . S
C374 C376 1.391 . S
C375 C374 1.386 . S
C375 C379 1.393 . S
C376 H365 0.950 . S
C376 C374 1.391 . S
C376 C377 1.400 . S
C377 C371 1.491 . S
C377 C376 1.400 . S
C377 C378 1.398 . S
C378 H366 0.950 . S
C378 C377 1.398 . S
C378 C379 1.391 . S
C379 H367 0.950 . S
C379 C375 1.393 . S
C379 C378 1.391 . S
H380 C388 0.953 1_655 S
H381 C393 0.950 . S
H382 C390 0.950 . S
H383 C392 0.950 . S
H384 C394 0.950 . S
H385 C396 0.950 . S
H386 C398 0.950 . S
H387 C399 0.950 1_545 S
C388 H380 0.953 1_455 S
C388 C389 1.378 1_455 S
C388 C390 1.396 . S
C389 C388 1.378 1_655 S
C389 C393 1.393 . S
C390 H382 0.950 . S
C390 C388 1.396 . S
C390 C391 1.400 . S
C391 C390 1.400 . S
C391 C392 1.398 . S
C391 C397 1.491 . S
C392 H383 0.950 . S
C392 C391 1.398 . S
C392 C393 1.391 1_455 S
C393 H381 0.950 . S
C393 C389 1.393 . S
C393 C392 1.391 1_655 S
C394 H384 0.950 . S
C394 C395 1.386 . S
C394 C396 1.391 1_545 S
C395 C394 1.386 . S
C395 C399 1.393 1_545 S
C396 H385 0.950 . S
C396 C394 1.391 1_565 S
C396 C397 1.400 . S
C397 C391 1.491 . S
C397 C396 1.400 . S
C397 C398 1.398 . S
C398 H386 0.950 . S
C398 C397 1.398 . S
C398 C399 1.391 . S
C399 H387 0.950 1_565 S
C399 C395 1.393 1_565 S
C399 C398 1.391 . S
H400 C408 0.950 . S
H401 C413 0.950 . S
H402 C410 0.950 . S
H403 C412 0.950 . S
H404 C414 0.950 . S
H405 C416 0.946 . S
H406 C418 0.950 . S
H407 C419 0.950 . S
C408 H400 0.950 . S
C408 C409 1.386 . S
C408 C410 1.391 . S
C409 C408 1.386 . S
C409 C413 1.393 . S
C410 H402 0.950 . S
C410 C408 1.391 . S
C410 C411 1.400 . S
C411 C410 1.400 . S
C411 C412 1.398 . S
C411 C417 1.491 . S
C412 H403 0.950 . S
C412 C411 1.398 . S
C412 C413 1.391 . S
C413 H401 0.950 . S
C413 C409 1.393 . S
C413 C412 1.391 . S
C414 H404 0.950 . S
C414 C415 1.386 . S
C414 C416 1.400 . S
C415 C414 1.386 . S
C415 C419 1.393 1_565 S
C416 H405 0.946 . S
C416 C414 1.400 . S
C416 C417 1.394 1_565 S
C417 C411 1.491 . S
C417 C416 1.394 1_545 S
C417 C418 1.398 . S
C418 H406 0.950 . S
C418 C417 1.398 . S
C418 C419 1.391 . S
C419 H407 0.950 . S
C419 C415 1.393 1_545 S
C419 C418 1.391 . S
H420 C428 0.950 . S
H421 C433 0.950 . S
H422 C430 0.950 . S
H423 C432 0.950 . S
H424 C434 0.950 1_655 S
H425 C436 0.950 . S
H426 C438 0.950 . S
H427 C439 0.950 . S
C428 H420 0.950 . S
C428 C429 1.386 . S
C428 C430 1.391 . S
C429 C428 1.386 . S
C429 C433 1.393 . S
C430 H422 0.950 . S
C430 C428 1.391 . S
C430 C431 1.400 . S
C431 C430 1.400 . S
C431 C432 1.398 . S
C431 C437 1.491 . S
C432 H423 0.950 . S
C432 C431 1.398 . S
C432 C433 1.391 . S
C433 H421 0.950 . S
C433 C429 1.393 . S
C433 C432 1.391 . S
C434 H424 0.950 1_455 S
C434 C435 1.386 1_455 S
C434 C436 1.391 . S
C435 C434 1.386 1_655 S
C435 C439 1.393 . S
C436 H425 0.950 . S
C436 C434 1.391 . S
C436 C437 1.400 . S
C437 C431 1.491 . S
C437 C436 1.400 . S
C437 C438 1.398 . S
C438 H426 0.950 . S
C438 C437 1.398 . S
C438 C439 1.391 1_455 S
C439 H427 0.950 . S
C439 C435 1.393 . S
C439 C438 1.391 1_655 S
H440 C448 0.950 . S
H441 C453 0.950 . S
H442 C450 0.956 . S
H443 C452 0.950 . S
H444 C454 0.950 . S
H445 C456 0.950 . S
H446 C458 0.950 . S
H447 C459 0.950 . S
C448 H440 0.950 . S
C448 C449 1.386 . S
C448 C450 1.395 . S
C449 C448 1.386 . S
C449 C453 1.393 1_455 S
C450 H442 0.956 . S
C450 C448 1.395 . S
C450 C451 1.391 1_455 S
C451 C450 1.391 1_655 S
C451 C452 1.398 . S
C451 C457 1.491 . S
C452 H443 0.950 . S
C452 C451 1.398 . S
C452 C453 1.391 . S
C453 H441 0.950 . S
C453 C449 1.393 1_655 S
C453 C452 1.391 . S
C454 H444 0.950 . S
C454 C455 1.386 1_545 S
C454 C456 1.391 . S
C455 C454 1.386 1_565 S
C455 C459 1.393 . S
C456 H445 0.950 . S
C456 C454 1.391 . S
C456 C457 1.400 . S
C457 C451 1.491 . S
C457 C456 1.400 . S
C457 C458 1.398 . S
C458 H446 0.950 . S
C458 C457 1.398 . S
C458 C459 1.391 1_545 S
C459 H447 0.950 . S
C459 C455 1.393 . S
C459 C458 1.391 1_565 S
H460 C468 0.950 . S
H461 C473 0.950 . S
H462 C470 0.950 . S
H463 C472 0.950 . S
H464 C474 0.950 . S
H465 C476 0.950 . S
H466 C478 0.954 1_545 S
H467 C479 0.950 . S
C468 H460 0.950 . S
C468 C469 1.386 . S
C468 C470 1.391 . S
C469 C468 1.386 . S
C469 C473 1.393 . S
C470 H462 0.950 . S
C470 C468 1.391 . S
C470 C471 1.400 . S
C471 C470 1.400 . S
C471 C472 1.398 . S
C471 C477 1.491 . S
C472 H463 0.950 . S
C472 C471 1.398 . S
C472 C473 1.391 . S
C473 H461 0.950 . S
C473 C469 1.393 . S
C473 C472 1.391 . S
C474 H464 0.950 . S
C474 C475 1.386 1_565 S
C474 C476 1.391 . S
C475 C474 1.386 1_545 S
C475 C479 1.393 . S
C476 H465 0.950 . S
C476 C474 1.391 . S
C476 C477 1.400 . S
C477 C471 1.491 . S
C477 C476 1.400 . S
C477 C478 1.405 . S
C478 H466 0.954 1_565 S
C478 C477 1.405 . S
C478 C479 1.380 1_565 S
C479 H467 0.950 . S
C479 C475 1.393 . S
C479 C478 1.380 1_545 S
H480 C488 0.950 . S
H481 C493 0.950 . S
H482 C490 0.950 . S
H483 C492 0.950 . S
H484 C494 0.950 . S
H485 C496 0.950 . S
H486 C498 0.950 . S
H487 C499 0.950 . S
C488 H480 0.950 . S
C488 C489 1.386 . S
C488 C490 1.391 . S
C489 C488 1.386 . S
C489 C493 1.393 . S
C490 H482 0.950 . S
C490 C488 1.391 . S
C490 C491 1.400 . S
C491 C490 1.400 . S
C491 C492 1.398 . S
C491 C497 1.491 . S
C492 H483 0.950 . S
C492 C491 1.398 . S
C492 C493 1.391 . S
C493 H481 0.950 . S
C493 C489 1.393 . S
C493 C492 1.391 . S
C494 H484 0.950 . S
C494 C495 1.386 . S
C494 C496 1.391 . S
C495 C494 1.386 . S
C495 C499 1.393 . S
C496 H485 0.950 . S
C496 C494 1.391 . S
C496 C497 1.400 . S
C497 C491 1.491 . S
C497 C496 1.400 . S
C497 C498 1.398 . S
C498 H486 0.950 . S
C498 C497 1.398 . S
C498 C499 1.391 . S
C499 H487 0.950 . S
C499 C495 1.393 . S
C499 C498 1.391 . S
H500 C508 0.950 . S
H501 C513 0.950 . S
H502 C510 0.950 . S
H503 C512 0.950 . S
H504 C514 0.950 . S
H505 C516 0.950 . S
H506 C518 0.950 . S
H507 C519 0.950 . S
C508 H500 0.950 . S
C508 C509 1.386 . S
C508 C510 1.391 . S
C509 C508 1.386 . S
C509 C513 1.393 . S
C510 H502 0.950 . S
C510 C508 1.391 . S
C510 C511 1.400 . S
C511 C510 1.400 . S
C511 C512 1.398 . S
C511 C517 1.491 . S
C512 H503 0.950 . S
C512 C511 1.398 . S
C512 C513 1.391 . S
C513 H501 0.950 . S
C513 C509 1.393 . S
C513 C512 1.391 . S
C514 H504 0.950 . S
C514 C515 1.386 . S
C514 C516 1.391 . S
C515 C514 1.386 . S
C515 C519 1.393 . S
C516 H505 0.950 . S
C516 C514 1.391 . S
C516 C517 1.400 . S
C517 C511 1.491 . S
C517 C516 1.400 . S
C517 C518 1.398 . S
C518 H506 0.950 . S
C518 C517 1.398 . S
C518 C519 1.391 . S
C519 H507 0.950 . S
C519 C515 1.393 . S
C519 C518 1.391 . S
H520 C528 0.950 . S
H521 C533 0.950 . S
H522 C530 0.950 . S
H523 C532 0.950 . S
H524 C534 0.950 . S
H525 C536 0.950 . S
H526 C538 0.950 . S
H527 C539 0.950 . S
C528 H520 0.950 . S
C528 C529 1.386 . S
C528 C530 1.391 . S
C529 C528 1.386 . S
C529 C533 1.393 . S
C530 H522 0.950 . S
C530 C528 1.391 . S
C530 C531 1.400 . S
C531 C530 1.400 . S
C531 C532 1.398 . S
C531 C537 1.491 . S
C532 H523 0.950 . S
C532 C531 1.398 . S
C532 C533 1.391 . S
C533 H521 0.950 . S
C533 C529 1.393 . S
C533 C532 1.391 . S
C534 H524 0.950 . S
C534 C535 1.386 . S
C534 C536 1.391 . S
C535 C534 1.386 . S
C535 C539 1.393 . S
C536 H525 0.950 . S
C536 C534 1.391 . S
C536 C537 1.400 . S
C537 C531 1.491 . S
C537 C536 1.400 . S
C537 C538 1.398 . S
C538 H526 0.950 . S
C538 C537 1.398 . S
C538 C539 1.391 . S
C539 H527 0.950 . S
C539 C535 1.393 . S
C539 C538 1.391 . S
H540 C548 0.950 . S
H541 C553 0.950 . S
H542 C550 0.950 . S
H543 C552 0.950 . S
H544 C554 0.950 . S
H545 C556 0.950 . S
H546 C558 0.950 . S
H547 C559 0.950 . S
C548 H540 0.950 . S
C548 C549 1.386 . S
C548 C550 1.391 . S
C549 C548 1.386 . S
C549 C553 1.393 . S
C550 H542 0.950 . S
C550 C548 1.391 . S
C550 C551 1.400 . S
C551 C550 1.400 . S
C551 C552 1.398 . S
C551 C557 1.491 . S
C552 H543 0.950 . S
C552 C551 1.398 . S
C552 C553 1.391 . S
C553 H541 0.950 . S
C553 C549 1.393 . S
C553 C552 1.391 . S
C554 H544 0.950 . S
C554 C555 1.386 . S
C554 C556 1.391 . S
C555 C554 1.386 . S
C555 C559 1.393 . S
C556 H545 0.950 . S
C556 C554 1.391 . S
C556 C557 1.400 . S
C557 C551 1.491 . S
C557 C556 1.400 . S
C557 C558 1.398 . S
C558 H546 0.950 . S
C558 C557 1.398 . S
C558 C559 1.391 . S
C559 H547 0.950 . S
C559 C555 1.393 . S
C559 C558 1.391 . S
H560 C568 0.950 . S
H561 C573 0.950 . S
H562 C570 0.950 . S
H563 C572 0.950 . S
H564 C574 0.950 . S
H565 C576 0.950 . S
H566 C578 0.950 . S
H567 C579 0.950 . S
C568 H560 0.950 . S
C568 C569 1.386 . S
C568 C570 1.391 . S
C569 C568 1.386 . S
C569 C573 1.393 . S
C570 H562 0.950 . S
C570 C568 1.391 . S
C570 C571 1.400 . S
C571 C570 1.400 . S
C571 C572 1.398 . S
C571 C577 1.491 . S
C572 H563 0.950 . S
C572 C571 1.398 . S
C572 C573 1.391 . S
C573 H561 0.950 . S
C573 C569 1.393 . S
C573 C572 1.391 . S
C574 H564 0.950 . S
C574 C575 1.386 . S
C574 C576 1.391 . S
C575 C574 1.386 . S
C575 C579 1.393 . S
C576 H565 0.950 . S
C576 C574 1.391 . S
C576 C577 1.400 . S
C577 C571 1.491 . S
C577 C576 1.400 . S
C577 C578 1.398 . S
C578 H566 0.950 . S
C578 C577 1.398 . S
C578 C579 1.391 . S
C579 H567 0.950 . S
C579 C575 1.393 . S
C579 C578 1.391 . S
H580 C588 0.950 . S
H581 C593 0.950 . S
H582 C590 0.950 . S
H583 C592 0.950 . S
H584 C594 0.950 . S
H585 C596 0.950 . S
H586 C598 0.950 . S
H587 C599 0.950 . S
C588 H580 0.950 . S
C588 C589 1.386 . S
C588 C590 1.391 . S
C589 C588 1.386 . S
C589 C593 1.393 . S
C590 H582 0.950 . S
C590 C588 1.391 . S
C590 C591 1.400 . S
C591 C590 1.400 . S
C591 C592 1.398 . S
C591 C597 1.491 . S
C592 H583 0.950 . S
C592 C591 1.398 . S
C592 C593 1.391 . S
C593 H581 0.950 . S
C593 C589 1.393 . S
C593 C592 1.391 . S
C594 H584 0.950 . S
C594 C595 1.386 . S
C594 C596 1.391 . S
C595 C594 1.386 . S
C595 C599 1.393 . S
C596 H585 0.950 . S
C596 C594 1.391 . S
C596 C597 1.400 . S
C597 C591 1.491 . S
C597 C596 1.400 . S
C597 C598 1.398 . S
C598 H586 0.950 . S
C598 C597 1.398 . S
C598 C599 1.391 . S
C599 H587 0.950 . S
C599 C595 1.393 . S
C599 C598 1.391 . S
H600 C608 0.950 . S
H601 C613 0.950 . S
H602 C610 0.950 . S
H603 C612 0.950 . S
H604 C614 0.950 . S
H605 C616 0.950 . S
H606 C618 0.950 . S
H607 C619 0.950 . S
C608 H600 0.950 . S
C608 C609 1.386 . S
C608 C610 1.391 . S
C609 C608 1.386 . S
C609 C613 1.393 . S
C610 H602 0.950 . S
C610 C608 1.391 . S
C610 C611 1.400 . S
C611 C610 1.400 . S
C611 C612 1.398 . S
C611 C617 1.491 . S
C612 H603 0.950 . S
C612 C611 1.398 . S
C612 C613 1.391 . S
C613 H601 0.950 . S
C613 C609 1.393 . S
C613 C612 1.391 . S
C614 H604 0.950 . S
C614 C615 1.386 . S
C614 C616 1.391 . S
C615 C614 1.386 . S
C615 C619 1.393 . S
C616 H605 0.950 . S
C616 C614 1.391 . S
C616 C617 1.400 . S
C617 C611 1.491 . S
C617 C616 1.400 . S
C617 C618 1.398 . S
C618 H606 0.950 . S
C618 C617 1.398 . S
C618 C619 1.391 . S
C619 H607 0.950 . S
C619 C615 1.393 . S
C619 C618 1.391 . S
H620 C628 0.950 . S
H621 C633 0.950 . S
H622 C630 0.950 . S
H623 C632 0.950 . S
H624 C634 0.950 . S
H625 C636 0.950 . S
H626 C638 0.950 . S
H627 C639 0.950 . S
C628 H620 0.950 . S
C628 C629 1.386 . S
C628 C630 1.391 . S
C629 C628 1.386 . S
C629 C633 1.393 . S
C630 H622 0.950 . S
C630 C628 1.391 . S
C630 C631 1.400 . S
C631 C630 1.400 . S
C631 C632 1.398 . S
C631 C637 1.491 . S
C632 H623 0.950 . S
C632 C631 1.398 . S
C632 C633 1.391 . S
C633 H621 0.950 . S
C633 C629 1.393 . S
C633 C632 1.391 . S
C634 H624 0.950 . S
C634 C635 1.386 . S
C634 C636 1.391 . S
C635 C634 1.386 . S
C635 C639 1.393 . S
C636 H625 0.950 . S
C636 C634 1.391 . S
C636 C637 1.400 . S
C637 C631 1.491 . S
C637 C636 1.400 . S
C637 C638 1.398 . S
C638 H626 0.950 . S
C638 C637 1.398 . S
C638 C639 1.391 . S
C639 H627 0.950 . S
C639 C635 1.393 . S
C639 C638 1.391 . S
H640 C648 0.950 . S
H641 C653 0.950 . S
H642 C650 0.950 . S
H643 C652 0.950 . S
H644 C654 0.950 . S
H645 C656 0.950 . S
H646 C658 0.950 . S
H647 C659 0.950 . S
C648 H640 0.950 . S
C648 C649 1.386 . S
C648 C650 1.391 . S
C649 C648 1.386 . S
C649 C653 1.393 . S
C650 H642 0.950 . S
C650 C648 1.391 . S
C650 C651 1.400 . S
C651 C650 1.400 . S
C651 C652 1.398 . S
C651 C657 1.491 . S
C652 H643 0.950 . S
C652 C651 1.398 . S
C652 C653 1.391 . S
C653 H641 0.950 . S
C653 C649 1.393 . S
C653 C652 1.391 . S
C654 H644 0.950 . S
C654 C655 1.386 . S
C654 C656 1.391 . S
C655 C654 1.386 . S
C655 C659 1.393 . S
C656 H645 0.950 . S
C656 C654 1.391 . S
C656 C657 1.400 . S
C657 C651 1.491 . S
C657 C656 1.400 . S
C657 C658 1.398 . S
C658 H646 0.950 . S
C658 C657 1.398 . S
C658 C659 1.391 . S
C659 H647 0.950 . S
C659 C655 1.393 . S
C659 C658 1.391 . S
H660 C668 0.950 . S
H661 C673 0.950 . S
H662 C670 0.950 . S
H663 C672 0.950 . S
H664 C674 0.950 . S
H665 C676 0.950 . S
H666 C678 0.950 . S
H667 C679 0.950 . S
C668 H660 0.950 . S
C668 C669 1.386 . S
C668 C670 1.391 . S
C669 C668 1.386 . S
C669 C673 1.393 . S
C670 H662 0.950 . S
C670 C668 1.391 . S
C670 C671 1.400 . S
C671 C670 1.400 . S
C671 C672 1.398 . S
C671 C677 1.491 . S
C672 H663 0.950 . S
C672 C671 1.398 . S
C672 C673 1.391 . S
C673 H661 0.950 . S
C673 C669 1.393 . S
C673 C672 1.391 . S
C674 H664 0.950 . S
C674 C675 1.386 . S
C674 C676 1.391 . S
C675 C674 1.386 . S
C675 C679 1.393 . S
C676 H665 0.950 . S
C676 C674 1.391 . S
C676 C677 1.400 . S
C677 C671 1.491 . S
C677 C676 1.400 . S
C677 C678 1.398 . S
C678 H666 0.950 . S
C678 C677 1.398 . S
C678 C679 1.391 . S
C679 H667 0.950 . S
C679 C675 1.393 . S
C679 C678 1.391 . S
H680 C688 0.950 . S
H681 C693 0.950 . S
H682 C690 0.950 . S
H683 C692 0.950 . S
H684 C694 0.950 . S
H685 C696 0.950 . S
H686 C698 0.950 . S
H687 C699 0.950 . S
C688 H680 0.950 . S
C688 C689 1.386 . S
C688 C690 1.391 . S
C689 C688 1.386 . S
C689 C693 1.393 . S
C690 H682 0.950 . S
C690 C688 1.391 . S
C690 C691 1.400 . S
C691 C690 1.400 . S
C691 C692 1.398 . S
C691 C697 1.491 . S
C692 H683 0.950 . S
C692 C691 1.398 . S
C692 C693 1.391 . S
C693 H681 0.950 . S
C693 C689 1.393 . S
C693 C692 1.391 . S
C694 H684 0.950 . S
C694 C695 1.386 . S
C694 C696 1.391 . S
C695 C694 1.386 . S
C695 C699 1.393 . S
C696 H685 0.950 . S
C696 C694 1.391 . S
C696 C697 1.400 . S
C697 C691 1.491 . S
C697 C696 1.400 . S
C697 C698 1.398 . S
C698 H686 0.950 . S
C698 C697 1.398 . S
C698 C699 1.391 . S
C699 H687 0.950 . S
C699 C695 1.393 . S
C699 C698 1.391 . S
H700 C708 0.950 . S
H701 C713 0.950 . S
H702 C710 0.950 . S
H703 C712 0.950 . S
H704 C714 0.950 . S
H705 C716 0.950 . S
H706 C718 0.950 . S
H707 C719 0.950 . S
C708 H700 0.950 . S
C708 C709 1.386 . S
C708 C710 1.391 . S
C709 C708 1.386 . S
C709 C713 1.393 . S
C710 H702 0.950 . S
C710 C708 1.391 . S
C710 C711 1.400 . S
C711 C710 1.400 . S
C711 C712 1.398 . S
C711 C717 1.491 . S
C712 H703 0.950 . S
C712 C711 1.398 . S
C712 C713 1.391 . S
C713 H701 0.950 . S
C713 C709 1.393 . S
C713 C712 1.391 . S
C714 H704 0.950 . S
C714 C715 1.386 . S
C714 C716 1.391 . S
C715 C714 1.386 . S
C715 C719 1.393 . S
C716 H705 0.950 . S
C716 C714 1.391 . S
C716 C717 1.400 . S
C717 C711 1.491 . S
C717 C716 1.400 . S
C717 C718 1.398 . S
C718 H706 0.950 . S
C718 C717 1.398 . S
C718 C719 1.391 . S
C719 H707 0.950 . S
C719 C715 1.393 . S
C719 C718 1.391 . S
H720 C728 0.950 . S
H721 C733 0.950 . S
H722 C730 0.950 . S
H723 C732 0.950 . S
H724 C734 0.950 . S
H725 C736 0.950 . S
H726 C738 0.950 . S
H727 C739 0.950 . S
C728 H720 0.950 . S
C728 C729 1.386 . S
C728 C730 1.391 . S
C729 C728 1.386 . S
C729 C733 1.393 . S
C730 H722 0.950 . S
C730 C728 1.391 . S
C730 C731 1.400 . S
C731 C730 1.400 . S
C731 C732 1.398 . S
C731 C737 1.491 . S
C732 H723 0.950 . S
C732 C731 1.398 . S
C732 C733 1.391 . S
C733 H721 0.950 . S
C733 C729 1.393 . S
C733 C732 1.391 . S
C734 H724 0.950 . S
C734 C735 1.386 . S
C734 C736 1.391 . S
C735 C734 1.386 . S
C735 C739 1.393 . S
C736 H725 0.950 . S
C736 C734 1.391 . S
C736 C737 1.400 . S
C737 C731 1.491 . S
C737 C736 1.400 . S
C737 C738 1.398 . S
C738 H726 0.950 . S
C738 C737 1.398 . S
C738 C739 1.391 . S
C739 H727 0.950 . S
C739 C735 1.393 . S
C739 C738 1.391 . S
H740 C748 0.950 . S
H741 C753 0.950 . S
H742 C750 0.950 . S
H743 C752 0.950 . S
H744 C754 0.950 . S
H745 C756 0.950 . S
H746 C758 0.950 . S
H747 C759 0.950 . S
C748 H740 0.950 . S
C748 C749 1.386 . S
C748 C750 1.391 . S
C749 C748 1.386 . S
C749 C753 1.393 . S
C750 H742 0.950 . S
C750 C748 1.391 . S
C750 C751 1.400 . S
C751 C750 1.400 . S
C751 C752 1.398 . S
C751 C757 1.491 . S
C752 H743 0.950 . S
C752 C751 1.398 . S
C752 C753 1.391 . S
C753 H741 0.950 . S
C753 C749 1.393 . S
C753 C752 1.391 . S
C754 H744 0.950 . S
C754 C755 1.386 . S
C754 C756 1.391 . S
C755 C754 1.386 . S
C755 C759 1.393 . S
C756 H745 0.950 . S
C756 C754 1.391 . S
C756 C757 1.400 . S
C757 C751 1.491 . S
C757 C756 1.400 . S
C757 C758 1.398 . S
C758 H746 0.950 . S
C758 C757 1.398 . S
C758 C759 1.391 . S
C759 H747 0.950 . S
C759 C755 1.393 . S
C759 C758 1.391 . S
H760 C768 0.950 . S
H761 C773 0.950 . S
H762 C770 0.950 . S
H763 C772 0.950 . S
H764 C774 0.950 . S
H765 C776 0.950 . S
H766 C778 0.950 . S
H767 C779 0.950 . S
C768 H760 0.950 . S
C768 C769 1.386 . S
C768 C770 1.391 . S
C769 C768 1.386 . S
C769 C773 1.393 . S
C770 H762 0.950 . S
C770 C768 1.391 . S
C770 C771 1.400 . S
C771 C770 1.400 . S
C771 C772 1.398 . S
C771 C777 1.491 . S
C772 H763 0.950 . S
C772 C771 1.398 . S
C772 C773 1.391 . S
C773 H761 0.950 . S
C773 C769 1.393 . S
C773 C772 1.391 . S
C774 H764 0.950 . S
C774 C775 1.386 . S
C774 C776 1.391 . S
C775 C774 1.386 . S
C775 C779 1.393 . S
C776 H765 0.950 . S
C776 C774 1.391 . S
C776 C777 1.400 . S
C777 C771 1.491 . S
C777 C776 1.400 . S
C777 C778 1.398 . S
C778 H766 0.950 . S
C778 C777 1.398 . S
C778 C779 1.391 . S
C779 H767 0.950 . S
C779 C775 1.393 . S
C779 C778 1.391 . S
H780 C788 0.950 . S
H781 C793 0.950 . S
H782 C790 0.950 . S
H783 C792 0.950 . S
H784 C794 0.950 . S
H785 C796 0.950 . S
H786 C798 0.950 . S
H787 C799 0.950 . S
C788 H780 0.950 . S
C788 C789 1.386 . S
C788 C790 1.391 . S
C789 C788 1.386 . S
C789 C793 1.393 . S
C790 H782 0.950 . S
C790 C788 1.391 . S
C790 C791 1.400 . S
C791 C790 1.400 . S
C791 C792 1.398 . S
C791 C797 1.491 . S
C792 H783 0.950 . S
C792 C791 1.398 . S
C792 C793 1.391 . S
C793 H781 0.950 . S
C793 C789 1.393 . S
C793 C792 1.391 . S
C794 H784 0.950 . S
C794 C795 1.386 . S
C794 C796 1.391 . S
C795 C794 1.386 . S
C795 C799 1.393 . S
C796 H785 0.950 . S
C796 C794 1.391 . S
C796 C797 1.400 . S
C797 C791 1.491 . S
C797 C796 1.400 . S
C797 C798 1.398 . S
C798 H786 0.950 . S
C798 C797 1.398 . S
C798 C799 1.391 . S
C799 H787 0.950 . S
C799 C795 1.393 . S
C799 C798 1.391 . S
H800 C808 0.950 . S
H801 C813 0.950 . S
H802 C810 0.950 . S
H803 C812 0.950 . S
H804 C814 0.950 . S
H805 C816 0.950 . S
H806 C818 0.950 . S
H807 C819 0.950 . S
C808 H800 0.950 . S
C808 C809 1.386 . S
C808 C810 1.391 . S
C809 C808 1.386 . S
C809 C813 1.393 . S
C810 H802 0.950 . S
C810 C808 1.391 . S
C810 C811 1.400 . S
C811 C810 1.400 . S
C811 C812 1.398 . S
C811 C817 1.491 . S
C812 H803 0.950 . S
C812 C811 1.398 . S
C812 C813 1.391 . S
C813 H801 0.950 . S
C813 C809 1.393 . S
C813 C812 1.391 . S
C814 H804 0.950 . S
C814 C815 1.386 . S
C814 C816 1.391 . S
C815 C814 1.386 . S
C815 C819 1.393 . S
C816 H805 0.950 . S
C816 C814 1.391 . S
C816 C817 1.400 . S
C817 C811 1.491 . S
C817 C816 1.400 . S
C817 C818 1.398 . S
C818 H806 0.950 . S
C818 C817 1.398 . S
C818 C819 1.391 . S
C819 H807 0.950 . S
C819 C815 1.393 . S
C819 C818 1.391 . S
H820 C828 0.950 . S
H821 C833 0.950 . S
H822 C830 0.950 . S
H823 C832 0.950 . S
H824 C834 0.950 . S
H825 C836 0.950 . S
H826 C838 0.950 . S
H827 C839 0.950 . S
C828 H820 0.950 . S
C828 C829 1.386 . S
C828 C830 1.391 . S
C829 C828 1.386 . S
C829 C833 1.393 . S
C830 H822 0.950 . S
C830 C828 1.391 . S
C830 C831 1.400 . S
C831 C830 1.400 . S
C831 C832 1.398 . S
C831 C837 1.491 . S
C832 H823 0.950 . S
C832 C831 1.398 . S
C832 C833 1.391 . S
C833 H821 0.950 . S
C833 C829 1.393 . S
C833 C832 1.391 . S
C834 H824 0.950 . S
C834 C835 1.386 . S
C834 C836 1.391 . S
C835 C834 1.386 . S
C835 C839 1.393 . S
C836 H825 0.950 . S
C836 C834 1.391 . S
C836 C837 1.400 . S
C837 C831 1.491 . S
C837 C836 1.400 . S
C837 C838 1.398 . S
C838 H826 0.950 . S
C838 C837 1.398 . S
C838 C839 1.391 . S
C839 H827 0.950 . S
C839 C835 1.393 . S
C839 C838 1.391 . S
H840 C848 0.950 . S
H841 C853 0.950 . S
H842 C850 0.950 . S
H843 C852 0.950 . S
H844 C854 0.950 . S
H845 C856 0.950 . S
H846 C858 0.950 . S
H847 C859 0.950 . S
C848 H840 0.950 . S
C848 C849 1.386 . S
C848 C850 1.391 . S
C849 C848 1.386 . S
C849 C853 1.393 . S
C850 H842 0.950 . S
C850 C848 1.391 . S
C850 C851 1.400 . S
C851 C850 1.400 . S
C851 C852 1.398 . S
C851 C857 1.491 1_556 S
C852 H843 0.950 . S
C852 C851 1.398 . S
C852 C853 1.391 . S
C853 H841 0.950 . S
C853 C849 1.393 . S
C853 C852 1.391 . S
C854 H844 0.950 . S
C854 C855 1.386 . S
C854 C856 1.391 . S
C855 C854 1.386 . S
C855 C859 1.393 . S
C856 H845 0.950 . S
C856 C854 1.391 . S
C856 C857 1.400 . S
C857 C851 1.491 1_554 S
C857 C856 1.400 . S
C857 C858 1.398 . S
C858 H846 0.950 . S
C858 C857 1.398 . S
C858 C859 1.391 . S
C859 H847 0.950 . S
C859 C855 1.393 . S
C859 C858 1.391 . S
H860 C868 0.950 . S
H861 C873 0.950 . S
H862 C870 0.950 . S
H863 C872 0.950 1_655 S
H864 C874 0.950 . S
H865 C876 0.950 . S
H866 C878 0.950 1_455 S
H867 C879 0.950 . S
C868 H860 0.950 . S
C868 C869 1.386 . S
C868 C870 1.391 . S
C869 C868 1.386 . S
C869 C873 1.393 . S
C870 H862 0.950 . S
C870 C868 1.391 . S
C870 C871 1.400 . S
C871 C870 1.400 . S
C871 C872 1.398 . S
C871 C877 1.491 1_455 S
C872 H863 0.950 1_455 S
C872 C871 1.398 . S
C872 C873 1.391 . S
C873 H861 0.950 . S
C873 C869 1.393 . S
C873 C872 1.391 . S
C874 H864 0.950 . S
C874 C875 1.386 . S
C874 C876 1.391 . S
C875 C874 1.386 . S
C875 C879 1.393 . S
C876 H865 0.950 . S
C876 C874 1.391 . S
C876 C877 1.400 . S
C877 C871 1.491 1_655 S
C877 C876 1.400 . S
C877 C878 1.398 . S
C878 H866 0.950 1_655 S
C878 C877 1.398 . S
C878 C879 1.391 . S
C879 H867 0.950 . S
C879 C875 1.393 . S
C879 C878 1.391 . S
H880 C888 0.950 . S
H881 C893 0.950 . S
H882 C890 0.950 1_545 S
H883 C892 0.950 1_556 S
H884 C894 0.950 . S
H885 C896 0.950 1_565 S
H886 C898 0.950 1_554 S
H887 C899 0.950 . S
C888 H880 0.950 . S
C888 C889 1.386 . S
C888 C890 1.391 . S
C889 C888 1.386 . S
C889 C893 1.393 . S
C890 H882 0.950 1_565 S
C890 C888 1.391 . S
C890 C891 1.400 . S
C891 C890 1.400 . S
C891 C892 1.398 . S
C891 C897 1.491 1_564 S
C892 H883 0.950 1_554 S
C892 C891 1.398 . S
C892 C893 1.391 . S
C893 H881 0.950 . S
C893 C889 1.393 . S
C893 C892 1.391 . S
C894 H884 0.950 . S
C894 C895 1.386 . S
C894 C896 1.391 . S
C895 C894 1.386 . S
C895 C899 1.393 . S
C896 H885 0.950 1_545 S
C896 C894 1.391 . S
C896 C897 1.400 . S
C897 C891 1.491 1_546 S
C897 C896 1.400 . S
C897 C898 1.398 . S
C898 H886 0.950 1_556 S
C898 C897 1.398 . S
C898 C899 1.391 . S
C899 H887 0.950 . S
C899 C895 1.393 . S
C899 C898 1.391 . S
H900 C908 0.950 . S
H901 C913 0.950 . S
H902 C910 0.950 . S
H903 C912 0.950 . S
H904 C914 0.950 . S
H905 C916 0.950 . S
H906 C918 0.950 . S
H907 C919 0.950 . S
C908 H900 0.950 . S
C908 C909 1.386 . S
C908 C910 1.391 . S
C909 C908 1.386 . S
C909 C913 1.393 . S
C910 H902 0.950 . S
C910 C908 1.391 . S
C910 C911 1.400 . S
C911 C910 1.400 . S
C911 C912 1.398 . S
C911 C917 1.491 . S
C912 H903 0.950 . S
C912 C911 1.398 . S
C912 C913 1.391 . S
C913 H901 0.950 . S
C913 C909 1.393 . S
C913 C912 1.391 . S
C914 H904 0.950 . S
C914 C915 1.386 . S
C914 C916 1.391 . S
C915 C914 1.386 . S
C915 C919 1.393 . S
C916 H905 0.950 . S
C916 C914 1.391 . S
C916 C917 1.400 . S
C917 C911 1.491 . S
C917 C916 1.400 . S
C917 C918 1.398 . S
C918 H906 0.950 . S
C918 C917 1.398 . S
C918 C919 1.391 . S
C919 H907 0.950 . S
C919 C915 1.393 . S
C919 C918 1.391 . S
H920 C928 0.950 . S
H921 C933 0.950 . S
H922 C930 0.950 1_554 S
H923 C932 0.950 1_455 S
H924 C934 0.950 . S
H925 C936 0.950 1_556 S
H926 C938 0.950 1_655 S
H927 C939 0.950 . S
C928 H920 0.950 . S
C928 C929 1.386 . S
C928 C930 1.391 . S
C929 C928 1.386 . S
C929 C933 1.393 . S
C930 H922 0.950 1_556 S
C930 C928 1.391 . S
C930 C931 1.400 . S
C931 C930 1.400 . S
C931 C932 1.398 . S
C931 C937 1.491 1_656 S
C932 H923 0.950 1_655 S
C932 C931 1.398 . S
C932 C933 1.391 . S
C933 H921 0.950 . S
C933 C929 1.393 . S
C933 C932 1.391 . S
C934 H924 0.950 . S
C934 C935 1.386 . S
C934 C936 1.391 . S
C935 C934 1.386 . S
C935 C939 1.393 . S
C936 H925 0.950 1_554 S
C936 C934 1.391 . S
C936 C937 1.400 . S
C937 C931 1.491 1_454 S
C937 C936 1.400 . S
C937 C938 1.398 . S
C938 H926 0.950 1_455 S
C938 C937 1.398 . S
C938 C939 1.391 . S
C939 H927 0.950 . S
C939 C935 1.393 . S
C939 C938 1.391 . S
H940 C948 0.950 . S
H941 C953 0.950 . S
H942 C950 0.950 . S
H943 C952 0.950 1_545 S
H944 C954 0.950 . S
H945 C956 0.950 . S
H946 C958 0.950 1_565 S
H947 C959 0.950 . S
C948 H940 0.950 . S
C948 C949 1.386 . S
C948 C950 1.391 . S
C949 C948 1.386 . S
C949 C953 1.393 . S
C950 H942 0.950 . S
C950 C948 1.391 . S
C950 C951 1.400 . S
C951 C950 1.400 . S
C951 C952 1.398 . S
C951 C957 1.491 1_565 S
C952 H943 0.950 1_565 S
C952 C951 1.398 . S
C952 C953 1.391 . S
C953 H941 0.950 . S
C953 C949 1.393 . S
C953 C952 1.391 . S
C954 H944 0.950 . S
C954 C955 1.386 . S
C954 C956 1.391 . S
C955 C954 1.386 . S
C955 C959 1.393 . S
C956 H945 0.950 . S
C956 C954 1.391 . S
C956 C957 1.400 . S
C957 C951 1.491 1_545 S
C957 C956 1.400 . S
C957 C958 1.398 . S
C958 H946 0.950 1_545 S
C958 C957 1.398 . S
C958 C959 1.391 . S
C959 H947 0.950 . S
C959 C955 1.393 . S
C959 C958 1.391 . S
C249 C86 1.397 . S
C255 C19 1.396 . S
C269 C106 1.374 . S
C275 C39 1.417 . S
C289 C59 1.400 . S
C295 C6 1.397 . S
C309 C79 1.418 . S
C315 C26 1.371 . S
C329 C99 1.404 . S
C335 C46 1.383 . S
C349 C66 1.388 . S
C355 C119 1.409 . S
C369 C166 1.379 . S
C375 C139 1.415 . S
C389 C159 1.413 . S
C395 C186 1.373 . S
C409 C206 1.391 . S
C415 C179 1.398 . S
C429 C199 1.400 . S
C435 C226 1.397 . S
C449 C219 1.414 . S
C455 C126 1.380 . S
C469 C146 1.386 . S
C475 C239 1.410 . S
C489 C96 1.584 . S
C495 C8 1.490 . S
C509 C28 1.495 . S
C515 C116 1.581 . S
C529 C48 1.496 . S
C535 C16 1.580 . S
C549 C68 1.493 . S
C555 C36 1.583 . S
C569 C56 1.573 . S
C575 C88 1.513 . S
C589 C76 1.578 . S
C595 C108 1.500 . S
C609 C176 1.583 . S
C615 C128 1.493 . S
C629 C148 1.518 . S
C635 C196 1.572 . S
C649 C168 1.504 . S
C655 C216 1.578 . S
C669 C236 1.583 . S
C675 C188 1.492 . S
C689 C208 1.491 . S
C695 C136 1.583 . S
C709 C156 1.578 . S
C715 C228 1.501 . S
C729 C209 1.707 . S
C735 C9 1.689 . S
C749 C29 1.694 . S
C755 C229 1.689 . S
C769 C49 1.690 . S
C775 C129 1.692 . S
C789 C69 1.688 . S
C795 C149 1.695 . S
C809 C89 1.710 . S
C815 C169 1.698 . S
C829 C189 1.701 . S
C835 C109 1.687 . S
C849 C181 1.828 . S
C855 C1 1.827 . S
C869 C201 1.832 . S
C875 C21 1.838 . S
C889 C41 1.833 . S
C895 C221 1.826 . S
C909 C61 1.826 . S
C915 C121 1.833 . S
C929 C141 1.827 . S
C935 C81 1.835 . S
C949 C161 1.826 . S
C955 C101 1.830 . S
