# Generated by pormake.
# Topology ecm, (8)-cn, num edge types: 1
# Building blocks:
#     Node 0, Type 0, BuildingBlock: TAGTUT_clean_sbu_1, # of connection points: 8
#     Node 1, Type 0, BuildingBlock: TAGTUT_clean_sbu_1, # of connection points: 8
#     Node 2, Type 0, BuildingBlock: TAGTUT_clean_sbu_1, # of connection points: 8
#     Node 3, Type 0, BuildingBlock: TAGTUT_clean_sbu_1, # of connection points: 8
#     Node 4, Type 0, BuildingBlock: TAGTUT_clean_sbu_1, # of connection points: 8
#     Node 5, Type 0, BuildingBlock: TAGTUT_clean_sbu_1, # of connection points: 8
#     Node 6, Type 0, BuildingBlock: TAGTUT_clean_sbu_1, # of connection points: 8
#     Node 7, Type 0, BuildingBlock: TAGTUT_clean_sbu_1, # of connection points: 8
#     Edge 8, Type (0, 0), BuildingBlock: XIVTED_clean_linker_0, # of connection points: 2
#     Edge 9, Type (0, 0), BuildingBlock: XIVTED_clean_linker_0, # of connection points: 2
#     Edge 10, Type (0, 0), BuildingBlock: XIVTED_clean_linker_0, # of connection points: 2
#     Edge 11, Type (0, 0), BuildingBlock: XIVTED_clean_linker_0, # of connection points: 2
#     Edge 12, Type (0, 0), BuildingBlock: XIVTED_clean_linker_0, # of connection points: 2
#     Edge 13, Type (0, 0), BuildingBlock: XIVTED_clean_linker_0, # of connection points: 2
#     Edge 14, Type (0, 0), BuildingBlock: XIVTED_clean_linker_0, # of connection points: 2
#     Edge 15, Type (0, 0), BuildingBlock: XIVTED_clean_linker_0, # of connection points: 2
#     Edge 16, Type (0, 0), BuildingBlock: XIVTED_clean_linker_0, # of connection points: 2
#     Edge 17, Type (0, 0), BuildingBlock: XIVTED_clean_linker_0, # of connection points: 2
#     Edge 18, Type (0, 0), BuildingBlock: XIVTED_clean_linker_0, # of connection points: 2
#     Edge 19, Type (0, 0), BuildingBlock: XIVTED_clean_linker_0, # of connection points: 2
#     Edge 20, Type (0, 0), BuildingBlock: XIVTED_clean_linker_0, # of connection points: 2
#     Edge 21, Type (0, 0), BuildingBlock: XIVTED_clean_linker_0, # of connection points: 2
#     Edge 22, Type (0, 0), BuildingBlock: XIVTED_clean_linker_0, # of connection points: 2
#     Edge 23, Type (0, 0), BuildingBlock: XIVTED_clean_linker_0, # of connection points: 2
#     Edge 24, Type (0, 0), BuildingBlock: XIVTED_clean_linker_0, # of connection points: 2
#     Edge 25, Type (0, 0), BuildingBlock: XIVTED_clean_linker_0, # of connection points: 2
#     Edge 26, Type (0, 0), BuildingBlock: XIVTED_clean_linker_0, # of connection points: 2
#     Edge 27, Type (0, 0), BuildingBlock: XIVTED_clean_linker_0, # of connection points: 2
#     Edge 28, Type (0, 0), BuildingBlock: XIVTED_clean_linker_0, # of connection points: 2
#     Edge 29, Type (0, 0), BuildingBlock: XIVTED_clean_linker_0, # of connection points: 2
#     Edge 30, Type (0, 0), BuildingBlock: XIVTED_clean_linker_0, # of connection points: 2
#     Edge 31, Type (0, 0), BuildingBlock: XIVTED_clean_linker_0, # of connection points: 2
#     Edge 32, Type (0, 0), BuildingBlock: XIVTED_clean_linker_0, # of connection points: 2
#     Edge 33, Type (0, 0), BuildingBlock: XIVTED_clean_linker_0, # of connection points: 2
#     Edge 34, Type (0, 0), BuildingBlock: XIVTED_clean_linker_0, # of connection points: 2
#     Edge 35, Type (0, 0), BuildingBlock: XIVTED_clean_linker_0, # of connection points: 2
#     Edge 36, Type (0, 0), BuildingBlock: XIVTED_clean_linker_0, # of connection points: 2
#     Edge 37, Type (0, 0), BuildingBlock: XIVTED_clean_linker_0, # of connection points: 2
#     Edge 38, Type (0, 0), BuildingBlock: XIVTED_clean_linker_0, # of connection points: 2
#     Edge 39, Type (0, 0), BuildingBlock: XIVTED_clean_linker_0, # of connection points: 2
# Relax obj value: 0.251
# Max RMSD: 0.266
# Mean RMSD: 0.266
data_MOF--net-ecm--node1-TAGTUT_clean_sbu_1--edge1-XIVTED_clean_linker_0
_symmetry_space_group_name_H-M    P1
_symmetry_Int_Tables_number       1
_symmetry_cell_setting            triclinic
loop_
_symmetry_equiv_pos_as_xyz
'x, y, z'
_cell_length_a     43.085382
_cell_length_b     43.304111
_cell_length_c     16.22414
_cell_angle_alpha  90.081101
_cell_angle_beta   90.078156
_cell_angle_gamma 90.063352
loop_
_atom_site_label
_atom_site_type_symbol
_atom_site_fract_x
_atom_site_fract_y
_atom_site_fract_z
_atom_type_partial_charge
C0 C 0.54645 0.27551 0.98374 0.0
C1 C 0.52352 0.20934 0.1767 0.0
C2 C 0.43791 0.16008 0.96245 0.0
Mg3 Mg 0.49241 0.26886 0.11011 0.0
O4 O 0.47669 0.24539 0.0212 0.0
Mg5 Mg 0.50139 0.21052 0.97539 0.0
Mg6 Mg 0.4356 0.22546 0.02817 0.0
O7 O 0.39256 0.20642 0.02971 0.0
Mg8 Mg 0.37766 0.19072 0.92567 0.0
Mg9 Mg 0.37008 0.24399 0.07229 0.0
C10 C 0.42318 0.29592 0.10404 0.0
C11 C 0.41482 0.22048 0.22124 0.0
O12 O 0.54119 0.24807 0.95551 0.0
O13 O 0.53004 0.28777 0.04085 0.0
O14 O 0.52125 0.19935 0.10283 0.0
O15 O 0.51234 0.23564 0.19753 0.0
O16 O 0.45131 0.2991 0.13004 0.0
O17 O 0.41484 0.2721 0.06226 0.0
C18 C 0.45373 0.22915 0.83049 0.0
O19 O 0.43256 0.23285 0.88523 0.0
O20 O 0.48124 0.22135 0.85031 0.0
O21 O 0.32817 0.21133 0.07129 0.0
O22 O 0.33428 0.17324 0.97692 0.0
O23 O 0.35548 0.26301 0.94724 0.0
C24 C 0.31887 0.1867 0.03446 0.0
O25 O 0.36506 0.22922 0.84794 0.0
O26 O 0.42406 0.17129 0.89964 0.0
C27 C 0.35608 0.25578 0.87129 0.0
O28 O 0.45742 0.17735 1.00182 0.0
O29 O 0.43731 0.2184 0.16952 0.0
O30 O 0.38733 0.22778 0.1981 0.0
C31 C 0.18922 0.6993 0.97583 0.0
C32 C 0.25269 0.66482 0.15378 0.0
C33 C 0.30033 0.5968 0.91835 0.0
Mg34 Mg 0.19041 0.64079 0.08525 0.0
O35 O 0.20993 0.62619 0.98581 0.0
Mg36 Mg 0.24826 0.64918 0.95005 0.0
Mg37 Mg 0.22915 0.58335 0.98706 0.0
O38 O 0.24904 0.54239 0.99173 0.0
Mg39 Mg 0.27204 0.52824 0.89991 0.0
Mg40 Mg 0.21352 0.51726 0.0327 0.0
C41 C 0.16247 0.58026 0.04343 0.0
C42 C 0.23085 0.56318 0.1835 0.0
O43 O 0.21524 0.69045 0.9454 0.0
O44 O 0.17372 0.68351 0.02881 0.0
O45 O 0.26282 0.66431 0.08002 0.0
O46 O 0.22557 0.65515 0.17135 0.0
O47 O 0.17269 0.59384 0.10781 0.0
O48 O 0.18029 0.56083 0.0061 0.0
C49 C 0.22794 0.60573 0.79451 0.0
O50 O 0.2239 0.5831 0.84459 0.0
O51 O 0.23565 0.63263 0.82048 0.0
O52 O 0.25151 0.47768 0.05155 0.0
O53 O 0.29078 0.48957 0.9651 0.0
O54 O 0.20307 0.49888 0.904 0.0
C55 C 0.27891 0.47274 0.02185 0.0
O56 O 0.23852 0.50988 0.80872 0.0
O57 O 0.30288 0.56945 0.88735 0.0
C58 C 0.21248 0.49784 0.82956 0.0
O59 O 0.27655 0.60461 0.9613 0.0
O60 O 0.2354 0.58493 0.13113 0.0
O61 O 0.22289 0.53623 0.15981 0.0
C62 C 0.48042 0.73903 1.00368 0.0
C63 C 0.50477 0.8079 0.18994 0.0
C64 C 0.58273 0.85818 0.96806 0.0
Mg65 Mg 0.53683 0.74905 0.12286 0.0
O66 O 0.55036 0.77164 0.03037 0.0
Mg67 Mg 0.52317 0.80509 0.9867 0.0
Mg68 Mg 0.59122 0.79313 0.03258 0.0
O69 O 0.63455 0.81352 0.02945 0.0
Mg70 Mg 0.64331 0.83354 0.91765 0.0
Mg71 Mg 0.66088 0.7757 0.08084 0.0
C72 C 0.60739 0.72457 0.10272 0.0
C73 C 0.61343 0.7953 0.22834 0.0
O74 O 0.48455 0.76612 0.9722 0.0
O75 O 0.49812 0.72815 0.06018 0.0
O76 O 0.50505 0.81642 0.11475 0.0
O77 O 0.5178 0.78265 0.21235 0.0
O78 O 0.58 0.72119 0.13374 0.0
O79 O 0.61491 0.74861 0.06047 0.0
C80 C 0.56961 0.78799 0.83712 0.0
O81 O 0.59197 0.78533 0.88914 0.0
O82 O 0.54224 0.79475 0.86073 0.0
O83 O 0.65983 0.82736 0.04873 0.0
O84 O 0.68204 0.86062 0.96771 0.0
O85 O 0.67787 0.7643 0.94971 0.0
C86 C 0.6834 0.84485 0.03383 0.0
O87 O 0.66346 0.79566 0.8466 0.0
O88 O 0.59504 0.84848 0.90136 0.0
C89 C 0.67724 0.7714 0.87317 0.0
O90 O 0.56562 0.83941 0.00912 0.0
O91 O 0.59132 0.79961 0.17612 0.0
O92 O 0.64061 0.78715 0.20537 0.0
C93 C 0.83233 0.31715 0.97205 0.0
C94 C 0.76617 0.35471 0.14348 0.0
C95 C 0.72255 0.42067 0.90747 0.0
Mg96 Mg 0.83011 0.376 0.0813 0.0
O97 O 0.81263 0.39045 0.97876 0.0
Mg98 Mg 0.7744 0.36797 0.93971 0.0
Mg99 Mg 0.79379 0.43339 0.97944 0.0
O100 O 0.77425 0.4744 0.98462 0.0
Mg101 Mg 0.7507 0.48904 0.89437 0.0
Mg102 Mg 0.81031 0.49892 0.02557 0.0
C103 C 0.86005 0.43556 0.03967 0.0
C104 C 0.79192 0.45357 0.1759 0.0
O105 O 0.80705 0.32628 0.93788 0.0
O106 O 0.84678 0.33267 0.02785 0.0
O107 O 0.75789 0.35406 0.06815 0.0
O108 O 0.79305 0.36408 0.16464 0.0
O109 O 0.84921 0.42245 0.10385 0.0
O110 O 0.84279 0.45506 1.00083 0.0
C111 C 0.79616 0.41145 0.78643 0.0
O112 O 0.79988 0.43387 0.83753 0.0
O113 O 0.78835 0.38441 0.81098 0.0
O114 O 0.77349 0.53899 0.04457 0.0
O115 O 0.73294 0.52791 0.96114 0.0
O116 O 0.8204 0.51667 0.89584 0.0
C117 C 0.74594 0.5445 0.01689 0.0
O118 O 0.78387 0.50631 0.80243 0.0
O119 O 0.71978 0.44828 0.87879 0.0
C120 C 0.81035 0.51771 0.82183 0.0
O121 O 0.74641 0.41268 0.94998 0.0
O122 O 0.78671 0.43203 0.1231 0.0
O123 O 0.80081 0.48029 0.15288 0.0
C124 C 0.04498 0.77369 0.50873 0.0
C125 C 0.01757 0.7053 0.68744 0.0
C126 C 0.939 0.65793 0.46484 0.0
Mg127 Mg 0.98696 0.76493 0.62303 0.0
O128 O 0.97329 0.74393 0.52794 0.0
Mg129 Mg 0.99968 0.70989 0.48376 0.0
Mg130 Mg 0.93194 0.72323 0.52987 0.0
O131 O 0.8882 0.70377 0.52646 0.0
Mg132 Mg 0.87848 0.68346 0.41532 0.0
Mg133 Mg 0.8627 0.742 0.57873 0.0
C134 C 0.91736 0.79187 0.60192 0.0
C135 C 0.9098 0.72129 0.7257 0.0
O136 O 0.03925 0.74797 0.47121 0.0
O137 O 0.02782 0.78404 0.56704 0.0
O138 O 0.01782 0.69742 0.61166 0.0
O139 O 1.0042 0.73022 0.71094 0.0
O140 O 0.94479 0.79431 0.63362 0.0
O141 O 0.90921 0.7682 0.55873 0.0
C142 C 0.95349 0.72821 0.33467 0.0
O143 O 0.93119 0.73112 0.38662 0.0
O144 O 0.98077 0.72105 0.35825 0.0
O145 O 0.86305 0.69027 0.5468 0.0
O146 O 0.83989 0.65684 0.46776 0.0
O147 O 0.8457 0.75363 0.44792 0.0
C148 C 0.83931 0.67275 0.53382 0.0
O149 O 0.85852 0.72161 0.34459 0.0
O150 O 0.92642 0.66769 0.39849 0.0
C151 C 0.84566 0.74635 0.37143 0.0
O152 O 0.95653 0.67655 0.50537 0.0
O153 O 0.9318 0.71652 0.67351 0.0
O154 O 0.88283 0.73012 0.70276 0.0
C155 C 0.6901 0.19939 0.47002 0.0
C156 C 0.75804 0.16248 0.6386 0.0
C157 C 0.79994 0.09535 0.40622 0.0
Mg158 Mg 0.69302 0.14114 0.57992 0.0
O159 O 0.7099 0.12594 0.47762 0.0
Mg160 Mg 0.74786 0.14834 0.43675 0.0
Mg161 Mg 0.72892 0.08297 0.47961 0.0
O162 O 0.74895 0.04203 0.48677 0.0
Mg163 Mg 0.77256 0.02635 0.39799 0.0
Mg164 Mg 0.71358 0.01749 0.53104 0.0
C165 C 0.6632 0.08125 0.53972 0.0
C166 C 0.73211 0.06449 0.67718 0.0
O167 O 0.71525 0.19011 0.43552 0.0
O168 O 0.6759 0.1841 0.52642 0.0
O169 O 0.76603 0.16283 0.56317 0.0
O170 O 0.73106 0.15373 0.6602 0.0
O171 O 0.67343 0.09496 0.604 0.0
O172 O 0.68052 0.06093 0.50424 0.0
C173 C 0.72468 0.10413 0.28641 0.0
O174 O 0.72233 0.08158 0.33754 0.0
O175 O 0.73213 0.13136 0.31036 0.0
O176 O 0.75056 0.97761 0.55062 0.0
O177 O 0.79095 0.98825 0.46676 0.0
O178 O 0.70259 0.99858 0.4033 0.0
C179 C 0.77806 0.97193 0.52299 0.0
O180 O 0.73898 1.00743 0.30877 0.0
O181 O 0.80307 0.06738 0.37998 0.0
C182 C 0.71241 0.99658 0.32933 0.0
O183 O 0.77591 0.10366 0.44739 0.0
O184 O 0.73582 0.08577 0.62299 0.0
O185 O 0.72435 0.03715 0.65659 0.0
C186 C 0.97501 0.24176 0.4929 0.0
C187 C 1.00186 0.30745 0.68541 0.0
C188 C 0.08402 0.35663 0.46959 0.0
Mg189 Mg 0.03094 0.24783 0.61497 0.0
O190 O 0.04532 0.27064 0.52327 0.0
Mg191 Mg 0.02054 0.30634 0.48209 0.0
Mg192 Mg 0.08663 0.2901 0.52795 0.0
O193 O 0.12969 0.30898 0.5281 0.0
Mg194 Mg 0.14376 0.32683 0.42573 0.0
Mg195 Mg 0.15242 0.27086 0.56524 0.0
C196 C 0.09949 0.21938 0.59872 0.0
C197 C 0.10949 0.29191 0.7207 0.0
O198 O 0.98028 0.26901 0.46348 0.0
O199 O 0.9918 0.2297 0.54962 0.0
O200 O 1.0028 0.31684 0.61101 0.0
O201 O 0.01343 0.28132 0.70606 0.0
O202 O 0.07192 0.2169 0.62894 0.0
O203 O 0.10747 0.24293 0.55556 0.0
C204 C 0.06592 0.28853 0.33118 0.0
O205 O 0.08773 0.28353 0.3836 0.0
O206 O 0.03904 0.29694 0.35484 0.0
O207 O 0.19427 0.30353 0.56683 0.0
O208 O 0.18744 0.34341 0.4785 0.0
O209 O 0.16565 0.25491 0.43599 0.0
C210 C 0.20326 0.32888 0.53338 0.0
O211 O 0.15538 0.29022 0.34078 0.0
O212 O 0.09722 0.34643 0.40466 0.0
C213 C 0.1647 0.26336 0.36093 0.0
O214 O 0.06492 0.33873 0.50796 0.0
O215 O 0.0867 0.29574 0.67048 0.0
O216 O 0.13653 0.28428 0.69487 0.0
C217 C 0.33843 0.83574 0.47721 0.0
C218 C 0.26552 0.85209 0.63768 0.0
C219 C 0.22263 0.91942 0.41239 0.0
Mg220 Mg 0.33175 0.87873 0.58723 0.0
O221 O 0.31106 0.88729 0.47619 0.0
Mg222 Mg 0.26943 0.86446 0.42945 0.0
Mg223 Mg 0.29368 0.93194 0.47405 0.0
O224 O 0.27428 0.97331 0.4765 0.0
Mg225 Mg 0.25053 0.98715 0.38552 0.0
Mg226 Mg 0.30939 0.99868 0.51842 0.0
C227 C 0.35999 0.93702 0.53492 0.0
C228 C 0.29122 0.95341 0.66958 0.0
O229 O 0.32092 0.85923 0.4622 0.0
O230 O 0.35718 0.83885 0.53743 0.0
O231 O 0.25694 0.85113 0.56218 0.0
O232 O 0.29207 0.8627 0.66015 0.0
O233 O 0.34961 0.92563 0.60184 0.0
O234 O 0.34216 0.955 0.49344 0.0
C235 C 0.2924 0.90957 0.27917 0.0
O236 O 0.29881 0.93107 0.33133 0.0
O237 O 0.28217 0.88313 0.30223 0.0
O238 O 0.27168 0.03837 0.53594 0.0
O239 O 0.23219 0.02634 0.4501 0.0
O240 O 0.31979 0.01617 0.38914 0.0
C241 C 0.24428 0.04337 0.50632 0.0
O242 O 0.28416 1.00481 0.29403 0.0
O243 O 0.2192 0.94599 0.37767 0.0
C244 C 0.31032 0.01677 0.31463 0.0
O245 O 0.24757 0.91197 0.45063 0.0
O246 O 0.28677 0.93163 0.61716 0.0
O247 O 0.29968 0.98024 0.64633 0.0
H248 H 0.40172 0.20732 0.75357 0.0
H249 H 0.47111 0.21915 0.30115 0.0
H250 H 0.49035 0.24924 0.7042 0.0
H251 H 0.37254 0.21623 0.34685 0.0
H252 H 0.48029 0.2223 0.44972 0.0
H253 H 0.39151 0.20461 0.60572 0.0
C254 C 0.41836 0.21731 0.71186 0.0
C255 C 0.44607 0.23014 0.74157 0.0
C256 C 0.45667 0.22089 0.42706 0.0
C257 C 0.43592 0.22456 0.57163 0.0
C258 C 0.45142 0.21888 0.34219 0.0
C259 C 0.42102 0.21779 0.31102 0.0
C260 C 0.43134 0.22129 0.4814 0.0
C261 C 0.39639 0.21727 0.36777 0.0
C262 C 0.41294 0.21496 0.62722 0.0
C263 C 0.46833 0.23982 0.68391 0.0
N264 N 0.40208 0.21904 0.45009 0.0
N265 N 0.46284 0.23673 0.60168 0.0
H266 H 0.21119 0.52521 0.30718 0.0
H267 H 0.24333 0.64604 0.67093 0.0
H268 H 0.25308 0.61446 0.26724 0.0
H269 H 0.20941 0.55341 0.71061 0.0
H270 H 0.24485 0.63596 0.52301 0.0
H271 H 0.20954 0.53576 0.45427 0.0
C272 C 0.22016 0.54711 0.32912 0.0
C273 C 0.23194 0.56922 0.27387 0.0
C274 C 0.23704 0.61784 0.564 0.0
C275 C 0.2298 0.58154 0.44386 0.0
C276 C 0.23597 0.6236 0.64872 0.0
C277 C 0.22634 0.60046 0.70393 0.0
C278 C 0.22832 0.58874 0.53364 0.0
C279 C 0.21721 0.57187 0.67086 0.0
C280 C 0.21907 0.55313 0.41353 0.0
C281 C 0.24316 0.59707 0.30687 0.0
N282 N 0.21848 0.56683 0.58806 0.0
N283 N 0.24172 0.60249 0.3896 0.0
H284 H 0.65405 0.78247 0.35323 0.0
H285 H 0.52965 0.80374 0.71332 0.0
H286 H 0.5594 0.811 0.3103 0.0
H287 H 0.62248 0.7696 0.75384 0.0
H288 H 0.54018 0.80666 0.5664 0.0
H289 H 0.64338 0.77956 0.50002 0.0
C290 C 0.63097 0.78832 0.37446 0.0
C291 C 0.60745 0.79671 0.31851 0.0
C292 C 0.5583 0.79854 0.60726 0.0
C293 C 0.59507 0.79312 0.48801 0.0
C294 C 0.55231 0.79669 0.69152 0.0
C295 C 0.57545 0.78682 0.74685 0.0
C296 C 0.58769 0.79048 0.57731 0.0
C297 C 0.60423 0.778 0.71412 0.0
C298 C 0.6249 0.78647 0.45866 0.0
C299 C 0.57813 0.80407 0.35059 0.0
N300 N 0.60959 0.78017 0.63158 0.0
N301 N 0.57275 0.80199 0.43314 0.0
H302 H 0.76282 0.40595 0.25825 0.0
H303 H 0.81781 0.46319 0.70617 0.0
H304 H 0.818 0.4876 0.29973 0.0
H305 H 0.77774 0.37336 0.66046 0.0
H306 H 0.81568 0.47381 0.55816 0.0
H307 H 0.76491 0.39499 0.40675 0.0
C308 C 0.77561 0.42132 0.2983 0.0
C309 C 0.79072 0.4473 0.26598 0.0
C310 C 0.80748 0.45171 0.58051 0.0
C311 C 0.79288 0.43535 0.43606 0.0
C312 C 0.80869 0.44564 0.66515 0.0
C313 C 0.79788 0.41737 0.69624 0.0
C314 C 0.79517 0.42943 0.52629 0.0
C315 C 0.78647 0.39545 0.63963 0.0
C316 C 0.7767 0.4152 0.38308 0.0
C317 C 0.80603 0.46719 0.32145 0.0
N318 N 0.78527 0.402 0.55771 0.0
N319 N 0.80678 0.46077 0.40339 0.0
H320 H 0.99362 0.71309 0.21088 0.0
H321 H 0.86946 0.73526 0.85004 0.0
H322 H 0.90041 0.74617 0.25143 0.0
H323 H 0.96321 0.70377 0.80841 0.0
H324 H 0.88008 0.73802 0.99687 0.0
H325 H 0.98305 0.71008 0.06395 0.0
C326 C 0.97087 0.7199 0.18909 0.0
C327 C 0.94765 0.72951 0.24442 0.0
C328 C 0.89838 0.7305 0.9558 0.0
C329 C 0.93537 0.72576 0.07485 0.0
C330 C 0.89234 0.72875 0.87154 0.0
C331 C 0.91568 0.71965 0.81591 0.0
C332 C 0.92798 0.72308 0.98553 0.0
C333 C 0.9447 0.7114 0.8484 0.0
C334 C 0.96485 0.71799 0.10482 0.0
C335 C 0.91876 0.73804 0.21169 0.0
N336 N 0.95007 0.71345 0.93101 0.0
N337 N 0.91339 0.73583 0.12912 0.0
H338 H 0.71828 0.14688 0.16327 0.0
H339 H 0.75275 0.02718 0.80078 0.0
H340 H 0.72564 0.04873 0.20343 0.0
H341 H 0.71166 0.11623 0.75732 0.0
H342 H 0.74906 0.03642 0.94956 0.0
H343 H 0.72087 0.13787 0.01471 0.0
C344 C 0.72017 0.12337 0.141 0.0
C345 C 0.72193 0.09848 0.19636 0.0
C346 C 0.74132 0.05417 0.90734 0.0
C347 C 0.72548 0.08812 0.02601 0.0
C348 C 0.74363 0.04902 0.82253 0.0
C349 C 0.73368 0.07159 0.76637 0.0
C350 C 0.72889 0.0821 0.93635 0.0
C351 C 0.72141 0.09914 0.79793 0.0
C352 C 0.72171 0.11828 0.05609 0.0
C353 C 0.72427 0.06857 0.16348 0.0
N354 N 0.71943 0.10369 0.88074 0.0
N355 N 0.72633 0.06424 0.08057 0.0
H356 H 0.03086 0.31426 0.20906 0.0
H357 H 0.14895 0.27413 0.84457 0.0
H358 H 0.11387 0.26064 0.2462 0.0
H359 H 0.05773 0.31243 0.80426 0.0
H360 H 0.13846 0.2724 0.99233 0.0
H361 H 0.04161 0.31587 0.06195 0.0
C362 C 0.05146 0.30273 0.18641 0.0
C363 C 0.07191 0.2877 0.24083 0.0
C364 C 0.12075 0.28122 0.95122 0.0
C365 C 0.08451 0.2898 0.07102 0.0
C366 C 0.12676 0.28244 0.86664 0.0
C367 C 0.10414 0.2934 0.81129 0.0
C368 C 0.09194 0.29121 0.98135 0.0
C369 C 0.07581 0.30364 0.84413 0.0
C370 C 0.05761 0.30379 0.10206 0.0
C371 C 0.09811 0.27327 0.20712 0.0
N372 N 0.07054 0.3023 0.92683 0.0
N373 N 0.10377 0.27477 0.1245 0.0
H374 H 0.31643 0.96072 0.20059 0.0
H375 H 0.26251 0.90521 0.74995 0.0
H376 H 0.27212 0.87307 0.15196 0.0
H377 H 0.31584 0.98787 0.79492 0.0
H378 H 0.26373 0.89408 0.89811 0.0
H379 H 0.31507 0.97196 0.05279 0.0
C380 C 0.30651 0.94379 0.15903 0.0
C381 C 0.29427 0.91596 0.18923 0.0
C382 C 0.27528 0.91459 0.87541 0.0
C383 C 0.29255 0.9287 0.01957 0.0
C384 C 0.27468 0.92083 0.79076 0.0
C385 C 0.28952 0.94716 0.75952 0.0
C386 C 0.29076 0.9349 0.92941 0.0
C387 C 0.30409 0.96722 0.8159 0.0
C388 C 0.30573 0.95022 0.07451 0.0
C389 C 0.28191 0.89482 0.13192 0.0
N390 N 0.30444 0.96063 0.89779 0.0
N391 N 0.28126 0.90168 0.05019 0.0
H392 H 0.38625 0.12756 0.91366 0.0
H393 H 0.37045 0.03431 0.33598 0.0
H394 H 0.44806 0.13909 0.12127 0.0
H395 H 0.29641 0.03781 0.15665 0.0
H396 H 0.4017 0.06746 0.24885 0.0
H397 H 0.3557 0.09079 0.99365 0.0
C398 C 0.39348 0.12246 0.97613 0.0
C399 C 0.41976 0.13695 0.01085 0.0
C400 C 0.37869 0.06099 0.22813 0.0
C401 C 0.38486 0.09406 0.1024 0.0
C402 C 0.3607 0.04187 0.27784 0.0
C403 C 0.33038 0.03342 0.25441 0.0
C404 C 0.36662 0.07191 0.1535 0.0
C405 C 0.31953 0.04375 0.17753 0.0
C406 C 0.37593 0.10136 0.02167 0.0
C407 C 0.42798 0.12884 0.09177 0.0
N408 N 0.33757 0.06263 0.13 0.0
N409 N 0.41063 0.10799 0.13457 0.0
H410 H 0.12706 0.62965 0.09176 0.0
H411 H 0.04137 0.64811 0.65722 0.0
H412 H 0.14483 0.57138 0.88085 0.0
H413 H 0.03431 0.71637 0.85052 0.0
H414 H 0.07516 0.61742 0.74433 0.0
H415 H 0.09015 0.65933 0.00975 0.0
C416 C 0.12333 0.62305 0.02809 0.0
C417 C 0.13955 0.59802 0.99317 0.0
C418 C 0.06622 0.63903 0.7681 0.0
C419 C 0.09655 0.63191 0.89904 0.0
C420 C 0.04673 0.65668 0.71837 0.0
C421 C 0.03505 0.68523 0.74597 0.0
C422 C 0.0743 0.64969 0.84683 0.0
C423 C 0.04276 0.69464 0.82637 0.0
C424 C 0.10212 0.64008 0.98138 0.0
C425 C 0.13317 0.59051 0.9106 0.0
N426 N 0.06204 0.67699 0.87381 0.0
N427 N 0.11223 0.60736 0.86655 0.0
H428 H 0.62729 0.89876 0.91327 0.0
H429 H 0.65469 0.97336 0.35722 0.0
H430 H 0.5799 0.87008 0.13476 0.0
H431 H 0.72364 0.98107 0.16521 0.0
H432 H 0.62304 0.94184 0.26708 0.0
H433 H 0.65885 0.93446 0.99607 0.0
C434 C 0.62346 0.89992 0.97917 0.0
C435 C 0.60113 0.88091 0.017 0.0
C436 C 0.64504 0.95038 0.2443 0.0
C437 C 0.63684 0.92216 0.11162 0.0
C438 C 0.66327 0.96859 0.29579 0.0
C439 C 0.69228 0.97976 0.26946 0.0
C440 C 0.65548 0.94318 0.16488 0.0
C441 C 0.7016 0.97285 0.18846 0.0
C442 C 0.64154 0.9203 0.02624 0.0
C443 C 0.59694 0.88389 0.10251 0.0
N444 N 0.68327 0.95488 0.13897 0.0
N445 N 0.61461 0.90401 0.14662 0.0
H446 H 0.89285 0.38443 0.08862 0.0
H447 H 0.98442 0.36725 0.66374 0.0
H448 H 0.87979 0.44469 0.87953 0.0
H449 H 0.98094 0.29384 0.84339 0.0
H450 H 0.95149 0.39856 0.75136 0.0
H451 H 0.92922 0.35363 0.00776 0.0
C452 C 0.89751 0.39123 0.02562 0.0
C453 C 0.88274 0.41714 0.99071 0.0
C454 C 0.95792 0.37567 0.77201 0.0
C455 C 0.92515 0.38206 0.89831 0.0
C456 C 0.97691 0.35766 0.72203 0.0
C457 C 0.98528 0.32752 0.7455 0.0
C458 C 0.9471 0.36378 0.84687 0.0
C459 C 0.97503 0.31683 0.82254 0.0
C460 C 0.91838 0.37356 0.97962 0.0
C461 C 0.89028 0.42489 0.90915 0.0
N462 N 0.9563 0.3349 0.87034 0.0
N463 N 0.91093 0.40746 0.86593 0.0
H464 H 0.34141 0.47373 0.03858 0.0
H465 H 0.35895 0.29359 0.10702 0.0
H466 H 0.26221 0.41468 0.07859 0.0
H467 H 0.43546 0.35741 0.12696 0.0
H468 H 0.32304 0.33683 0.10252 0.0
H469 H 0.37569 0.43143 0.07647 0.0
C470 C 0.33119 0.45182 0.05601 0.0
C471 C 0.29885 0.44767 0.05469 0.0
C472 C 0.34764 0.34139 0.1089 0.0
C473 C 0.33829 0.3987 0.09752 0.0
C474 C 0.36835 0.31657 0.11084 0.0
C475 C 0.40056 0.32159 0.11572 0.0
C476 C 0.35913 0.37169 0.111 0.0
C477 C 0.41092 0.35225 0.1229 0.0
C478 C 0.35085 0.42766 0.07797 0.0
C479 C 0.28699 0.41887 0.07879 0.0
N480 N 0.39035 0.37607 0.11909 0.0
N481 N 0.30674 0.39529 0.09801 0.0
H482 H 0.47962 0.67628 0.99964 0.0
H483 H 0.29912 0.66064 0.92522 0.0
H484 H 0.42293 0.75535 0.94135 0.0
H485 H 0.36197 0.58408 0.89456 0.0
H486 H 0.34318 0.6957 0.93217 0.0
H487 H 0.43652 0.64236 0.96319 0.0
C488 C 0.45809 0.68654 0.9787 0.0
C489 C 0.45484 0.71878 0.97412 0.0
C490 C 0.34733 0.67129 0.92286 0.0
C491 C 0.40505 0.67981 0.93292 0.0
C492 C 0.32204 0.65106 0.91934 0.0
C493 C 0.32656 0.61909 0.91021 0.0
C494 C 0.37759 0.65951 0.91871 0.0
C495 C 0.3572 0.60848 0.90158 0.0
C496 C 0.43351 0.66709 0.95749 0.0
C497 C 0.42646 0.73066 0.94575 0.0
N498 N 0.3815 0.62854 0.90732 0.0
N499 N 0.40248 0.71118 0.92739 0.0
H500 H 0.66976 0.72437 0.06295 0.0
H501 H 0.68409 0.54487 0.04675 0.0
H502 H 0.59778 0.66568 0.16074 0.0
H503 H 0.76545 0.60265 0.06306 0.0
H504 H 0.65195 0.58875 0.08722 0.0
H505 H 0.70505 0.68097 0.06194 0.0
C506 C 0.66134 0.7027 0.0859 0.0
C507 C 0.63047 0.69916 0.11223 0.0
C508 C 0.67686 0.59178 0.08319 0.0
C509 C 0.67107 0.64849 0.10885 0.0
C510 C 0.69521 0.56681 0.05968 0.0
C511 C 0.72745 0.57025 0.05098 0.0
C512 C 0.69067 0.62071 0.09614 0.0
C513 C 0.74069 0.59907 0.06912 0.0
C514 C 0.68172 0.6777 0.08515 0.0
C515 C 0.62128 0.66978 0.13995 0.0
N516 N 0.72215 0.62342 0.08938 0.0
N517 N 0.64131 0.64549 0.1362 0.0
H518 H 0.60454 0.25761 0.93013 0.0
H519 H 0.66194 0.43245 0.86603 0.0
H520 H 0.54593 0.33746 0.96098 0.0
H521 H 0.7236 0.35703 0.92308 0.0
H522 H 0.61846 0.39597 0.86576 0.0
H523 H 0.6478 0.29218 0.89291 0.0
C524 C 0.60065 0.2823 0.92756 0.0
C525 C 0.57178 0.29474 0.94955 0.0
C526 C 0.64168 0.38744 0.87737 0.0
C527 C 0.62076 0.33421 0.90674 0.0
C528 C 0.66657 0.40824 0.87717 0.0
C529 C 0.69675 0.39808 0.89565 0.0
C530 C 0.64696 0.35612 0.89515 0.0
C531 C 0.70106 0.36631 0.90972 0.0
C532 C 0.6253 0.302 0.90683 0.0
C533 C 0.56797 0.32694 0.94555 0.0
N534 N 0.67651 0.34655 0.90957 0.0
N535 N 0.59213 0.34551 0.92496 0.0
H536 H 0.94323 0.64623 0.63112 0.0
H537 H 0.79752 0.53243 0.65823 0.0
H538 H 0.89344 0.61772 0.4126 0.0
H539 H 0.86813 0.54147 0.84605 0.0
H540 H 0.82931 0.56519 0.56693 0.0
H541 H 0.91242 0.6103 0.7119 0.0
C542 C 0.92584 0.63243 0.59983 0.0
C543 C 0.92078 0.63541 0.51467 0.0
C544 C 0.83777 0.5597 0.62805 0.0
C545 C 0.88521 0.59376 0.60775 0.0
C546 C 0.81968 0.54099 0.68008 0.0
C547 C 0.82987 0.53438 0.76052 0.0
C548 C 0.86602 0.57198 0.65712 0.0
C549 C 0.85892 0.54608 0.7852 0.0
C550 C 0.90822 0.61178 0.6462 0.0
C551 C 0.89795 0.61649 0.47816 0.0
N552 N 0.87567 0.56441 0.73425 0.0
N553 N 0.88083 0.59665 0.52493 0.0
H554 H 0.6483 0.07212 0.37582 0.0
H555 H 0.53929 0.22189 0.3394 0.0
H556 H 0.62831 0.13176 0.58259 0.0
H557 H 0.54893 0.15256 0.14952 0.0
H558 H 0.57264 0.1905 0.42953 0.0
H559 H 0.61316 0.1029 0.29103 0.0
C560 C 0.63658 0.09165 0.40357 0.0
C561 C 0.64159 0.09938 0.48661 0.0
C562 C 0.56725 0.18219 0.36818 0.0
C563 C 0.60104 0.13487 0.38941 0.0
C564 C 0.54816 0.20008 0.31679 0.0
C565 C 0.54132 0.19008 0.23635 0.0
C566 C 0.57966 0.15418 0.3388 0.0
C567 C 0.55356 0.1615 0.21065 0.0
C568 C 0.61643 0.10926 0.35502 0.0
C569 C 0.62547 0.125 0.51877 0.0
N570 N 0.57215 0.14478 0.26129 0.0
N571 N 0.60609 0.14185 0.47017 0.0
H572 H 0.13528 0.39003 0.42229 0.0
H573 H 0.15344 0.47732 0.85394 0.0
H574 H 0.07522 0.37496 0.63133 0.0
H575 H 0.2255 0.47858 0.66924 0.0
H576 H 0.1223 0.44434 0.76572 0.0
H577 H 0.16626 0.42576 0.50506 0.0
C578 C 0.12854 0.39411 0.48565 0.0
C579 C 0.1026 0.37897 0.51986 0.0
C580 C 0.14486 0.4518 0.74407 0.0
C581 C 0.13799 0.42065 0.61473 0.0
C582 C 0.16279 0.47083 0.79446 0.0
C583 C 0.19252 0.48067 0.76971 0.0
C584 C 0.15635 0.44234 0.66738 0.0
C585 C 0.20285 0.47158 0.69119 0.0
C586 C 0.14634 0.41463 0.5328 0.0
C587 C 0.09501 0.38576 0.60209 0.0
N588 N 0.18485 0.45281 0.64295 0.0
N589 N 0.11258 0.40605 0.64645 0.0
H590 H 0.39756 0.8905 0.59271 0.0
H591 H 0.48314 0.86586 0.16157 0.0
H592 H 0.37548 0.94053 0.37029 0.0
H593 H 0.48629 0.79632 0.35193 0.0
H594 H 0.44951 0.89699 0.24733 0.0
H595 H 0.43463 0.85909 0.51448 0.0
C596 C 0.40039 0.89489 0.52745 0.0
C597 C 0.38289 0.91804 0.48804 0.0
C598 C 0.4575 0.87497 0.27076 0.0
C599 C 0.42594 0.88249 0.39864 0.0
C600 C 0.47692 0.85705 0.22179 0.0
C601 C 0.48741 0.828 0.24875 0.0
C602 C 0.44833 0.86419 0.34834 0.0
C603 C 0.47871 0.81842 0.32826 0.0
C604 C 0.42161 0.87691 0.48297 0.0
C605 C 0.38808 0.92288 0.40358 0.0
N606 N 0.45952 0.83643 0.37521 0.0
N607 N 0.40907 0.90533 0.36203 0.0
H608 H 0.75759 0.91436 0.57015 0.0
H609 H 0.92863 0.85025 0.66195 0.0
H610 H 0.84018 0.9702 0.55044 0.0
H611 H 0.85494 0.79378 0.56266 0.0
H612 H 0.89325 0.89452 0.66064 0.0
H613 H 0.79028 0.86982 0.60731 0.0
C614 C 0.78249 0.91736 0.57521 0.0
C615 C 0.79628 0.94584 0.55644 0.0
C616 C 0.88481 0.87218 0.64051 0.0
C617 C 0.83354 0.89545 0.59963 0.0
C618 C 0.90494 0.84682 0.64148 0.0
C619 C 0.89496 0.81785 0.61232 0.0
C620 C 0.8543 0.86852 0.61147 0.0
C621 C 0.86393 0.81519 0.58613 0.0
C622 C 0.80109 0.892 0.59593 0.0
C623 C 0.82868 0.94851 0.56348 0.0
N624 N 0.84479 0.84011 0.58617 0.0
N625 N 0.8462 0.92366 0.58438 0.0
H626 H 0.86147 0.083 0.38002 0.0
H627 H 0.9173 0.25907 0.43332 0.0
H628 H 0.79804 0.15928 0.40705 0.0
H629 H 0.97519 0.17953 0.47683 0.0
H630 H 0.87453 0.22408 0.39389 0.0
H631 H 0.90473 0.11962 0.38372 0.0
C632 C 0.85647 0.10742 0.38549 0.0
C633 C 0.82582 0.11783 0.39491 0.0
C634 C 0.89676 0.21441 0.41129 0.0
C635 C 0.87542 0.16 0.39953 0.0
C636 C 0.92114 0.23436 0.43338 0.0
C637 C 0.94968 0.22218 0.45937 0.0
C638 C 0.90127 0.1822 0.41391 0.0
C639 C 0.95342 0.18993 0.45844 0.0
C640 C 0.88124 0.12833 0.38814 0.0
C641 C 0.82102 0.14987 0.40182 0.0
N642 N 0.92956 0.17115 0.43645 0.0
N643 N 0.84548 0.16976 0.40457 0.0
H644 H 0.08649 0.15828 0.62542 0.0
H645 H 0.26227 0.10033 0.56779 0.0
H646 H 0.16365 0.22046 0.59154 0.0
H647 H 0.18149 0.04436 0.51807 0.0
H648 H 0.22773 0.14326 0.60719 0.0
H649 H 0.12265 0.11475 0.61859 0.0
C650 C 0.11103 0.16293 0.61789 0.0
C651 C 0.12181 0.19331 0.60771 0.0
C652 C 0.21769 0.12142 0.58835 0.0
C653 C 0.16341 0.14345 0.59971 0.0
C654 C 0.23737 0.09695 0.56623 0.0
C655 C 0.22475 0.06888 0.53868 0.0
C656 C 0.18527 0.11749 0.58434 0.0
C657 C 0.19226 0.06575 0.53776 0.0
C658 C 0.13165 0.13803 0.61343 0.0
C659 C 0.15396 0.1977 0.59787 0.0
N660 N 0.17373 0.08967 0.56003 0.0
N661 N 0.17356 0.17313 0.59371 0.0
H662 H 0.17842 0.9034 0.29366 0.0
H663 H 0.08274 0.80253 0.61661 0.0
H664 H 0.20686 0.88553 0.54386 0.0
H665 H 0.07037 0.78749 0.35588 0.0
H666 H 0.12583 0.83703 0.58761 0.0
H667 H 0.13586 0.86533 0.31088 0.0
C668 C 0.1758 0.89143 0.35178 0.0
C669 C 0.19649 0.89718 0.41706 0.0
C670 C 0.11394 0.82616 0.53634 0.0
C671 C 0.14815 0.85432 0.43736 0.0
C672 C 0.08928 0.80641 0.55297 0.0
C673 C 0.07301 0.79206 0.48861 0.0
C674 C 0.12232 0.83234 0.45437 0.0
C675 C 0.08256 0.79793 0.40725 0.0
C676 C 0.15174 0.86964 0.36141 0.0
C677 C 0.19203 0.88121 0.4912 0.0
N678 N 0.10647 0.81796 0.39221 0.0
N679 N 0.16842 0.86079 0.49932 0.0
H680 H 0.25717 0.31655 0.45601 0.0
H681 H 0.33205 0.3133 0.90036 0.0
H682 H 0.21895 0.36132 0.66994 0.0
H683 H 0.35318 0.24977 0.70276 0.0
H684 H 0.30448 0.34603 0.80241 0.0
H685 H 0.30614 0.30936 0.53006 0.0
C686 C 0.25976 0.32648 0.517 0.0
C687 C 0.2342 0.33945 0.55739 0.0
C688 C 0.31569 0.32524 0.78025 0.0
C689 C 0.2893 0.33016 0.64337 0.0
C690 C 0.33134 0.30641 0.83615 0.0
C691 C 0.34413 0.27818 0.8102 0.0
C692 C 0.31277 0.3158 0.69785 0.0
C693 C 0.34304 0.27092 0.72592 0.0
C694 C 0.28751 0.32192 0.55973 0.0
C695 C 0.23832 0.35128 0.63696 0.0
N696 N 0.32712 0.28935 0.67298 0.0
N697 N 0.26515 0.34569 0.67829 0.0
H698 H 0.28352 0.80643 0.49688 0.0
H699 H 0.31219 0.6871 0.14153 0.0
H700 H 0.37389 0.79543 0.38814 0.0
H701 H 0.23535 0.68003 0.31119 0.0
H702 H 0.33741 0.72353 0.23535 0.0
H703 H 0.2669 0.75815 0.43384 0.0
C704 C 0.2999 0.79364 0.46005 0.0
C705 C 0.32989 0.80493 0.44681 0.0
C706 C 0.31533 0.71352 0.25275 0.0
C707 C 0.31114 0.74966 0.37346 0.0
C708 C 0.30086 0.69271 0.1992 0.0
C709 C 0.27122 0.68101 0.21757 0.0
C710 C 0.29986 0.72296 0.32454 0.0
C711 C 0.25793 0.68883 0.29369 0.0
C712 C 0.29053 0.76592 0.42446 0.0
C713 C 0.35049 0.78732 0.39942 0.0
N714 N 0.27206 0.70978 0.34356 0.0
N715 N 0.34056 0.7607 0.36302 0.0
H716 H 0.83132 0.67 0.69763 0.0
H717 H 0.68448 0.77742 0.70449 0.0
H718 H 0.78322 0.69175 0.47219 0.0
H719 H 0.71069 0.71977 0.91031 0.0
H720 H 0.7197 0.74748 0.6162 0.0
H721 H 0.78702 0.68916 0.77632 0.0
C722 C 0.81098 0.67819 0.66493 0.0
C723 C 0.81047 0.67888 0.57882 0.0
C724 C 0.71728 0.74122 0.68048 0.0
C725 C 0.76025 0.70198 0.66787 0.0
C726 C 0.69728 0.75833 0.73096 0.0
C727 C 0.69495 0.75151 0.81541 0.0
C728 C 0.73529 0.71749 0.7151 0.0
C729 C 0.71195 0.7263 0.84601 0.0
C730 C 0.78576 0.68921 0.70965 0.0
C731 C 0.78402 0.69034 0.53879 0.0
N732 N 0.73166 0.71058 0.79626 0.0
N733 N 0.76002 0.70198 0.58378 0.0
H734 H 0.65753 0.21623 0.33453 0.0
H735 H 0.77591 0.34791 0.30979 0.0
H736 H 0.70365 0.25233 0.54952 0.0
H737 H 0.70704 0.33309 0.1201 0.0
H738 H 0.74301 0.32017 0.40688 0.0
H739 H 0.66576 0.26549 0.26471 0.0
C740 C 0.66787 0.23521 0.36849 0.0
C741 C 0.68002 0.23044 0.44746 0.0
C742 C 0.73474 0.32355 0.34449 0.0
C743 C 0.69131 0.28597 0.3669 0.0
C744 C 0.75363 0.33934 0.28887 0.0
C745 C 0.74458 0.34231 0.20619 0.0
C746 C 0.70698 0.30993 0.31673 0.0
C747 C 0.71532 0.33082 0.18283 0.0
C748 C 0.67299 0.26323 0.32836 0.0
C749 C 0.69388 0.25536 0.48851 0.0
N750 N 0.6979 0.31455 0.23731 0.0
N751 N 0.70009 0.28182 0.44682 0.0
H752 H 0.30099 0.15338 0.16729 0.0
H753 H 0.17107 0.27325 0.19436 0.0
H754 H 0.26622 0.2009 0.95355 0.0
H755 H 0.18507 0.20408 0.38232 0.0
H756 H 0.19803 0.24018 0.09604 0.0
H757 H 0.25136 0.16176 0.2361 0.0
C758 C 0.28219 0.16407 0.13327 0.0
C759 C 0.28749 0.1766 0.05513 0.0
C760 C 0.19464 0.23191 0.15835 0.0
C761 C 0.23158 0.18812 0.13471 0.0
C762 C 0.17935 0.25091 0.2147 0.0
C763 C 0.17649 0.24183 0.2973 0.0
C764 C 0.2078 0.20397 0.18528 0.0
C765 C 0.18738 0.21243 0.31974 0.0
C766 C 0.25396 0.16929 0.17286 0.0
C767 C 0.26279 0.19086 0.01399 0.0
N768 N 0.20315 0.19487 0.26457 0.0
N769 N 0.23616 0.1972 0.0553 0.0
H770 H 0.20344 0.75227 0.05401 0.0
H771 H 0.20714 0.82903 0.61226 0.0
H772 H 0.15707 0.71611 0.83945 0.0
H773 H 0.27443 0.8455 0.80502 0.0
H774 H 0.17457 0.80173 0.71046 0.0
H775 H 0.21304 0.8006 0.98028 0.0
C776 C 0.19363 0.75527 0.99299 0.0
C777 C 0.17949 0.73037 0.95236 0.0
C778 C 0.19617 0.81185 0.73164 0.0
C779 C 0.19143 0.78474 0.8669 0.0
C780 C 0.21492 0.82744 0.67556 0.0
C781 C 0.24396 0.8392 0.69992 0.0
C782 C 0.20651 0.80776 0.81279 0.0
C783 C 0.25247 0.8365 0.78312 0.0
C784 C 0.1996 0.78261 0.95045 0.0
C785 C 0.16792 0.73495 0.87272 0.0
N786 N 0.23403 0.82065 0.83634 0.0
N787 N 0.17477 0.76141 0.83169 0.0
H788 H 0.8151 0.79968 0.40926 0.0
H789 H 0.73805 0.82475 0.96631 0.0
H790 H 0.83605 0.73977 0.20349 0.0
H791 H 0.69435 0.84825 0.19664 0.0
H792 H 0.78314 0.80465 0.04338 0.0
H793 H 0.78046 0.82921 0.32134 0.0
C794 C 0.81274 0.79283 0.34531 0.0
C795 C 0.82814 0.76668 0.31432 0.0
C796 C 0.76391 0.8148 0.07667 0.0
C797 C 0.78835 0.80083 0.21304 0.0
C798 C 0.73847 0.82652 0.03291 0.0
C799 C 0.71289 0.83847 0.0757 0.0
C800 C 0.7637 0.81563 0.16325 0.0
C801 C 0.71389 0.8395 0.1618 0.0
C802 C 0.79286 0.80978 0.29521 0.0
C803 C 0.82434 0.75945 0.23037 0.0
N804 N 0.73889 0.82826 0.2028 0.0
N805 N 0.80455 0.77629 0.18265 0.0
H806 H 0.7513 0.16411 0.80704 0.0
H807 H 0.86621 0.30097 0.83837 0.0
H808 H 0.81518 0.1884 0.61266 0.0
H809 H 0.81789 0.26376 0.0479 0.0
H810 H 0.85887 0.25204 0.76588 0.0
H811 H 0.78387 0.19212 0.905 0.0
C812 C 0.77239 0.17493 0.7851 0.0
C813 C 0.77997 0.17467 0.70103 0.0
C814 C 0.85088 0.25399 0.82893 0.0
C815 C 0.81731 0.20703 0.81281 0.0
C816 C 0.85553 0.28182 0.87066 0.0
C817 C 0.84258 0.28619 0.94882 0.0
C818 C 0.83227 0.23098 0.86503 0.0
C819 C 0.8283 0.26105 0.9876 0.0
C820 C 0.79112 0.19083 0.84122 0.0
C821 C 0.80796 0.1886 0.67655 0.0
N822 N 0.82265 0.23476 0.94436 0.0
N823 N 0.82523 0.20477 0.73181 0.0
loop_
_geom_bond_atom_site_label_1
_geom_bond_atom_site_label_2
_geom_bond_distance
_geom_bond_site_symmetry_2
_ccdc_geom_bond_type
C0 O12 1.241 . S
C0 O13 1.280 . S
C1 O14 1.277 . S
C1 O15 1.245 . S
C2 O26 1.247 . S
C2 O28 1.289 . S
Mg3 O4 1.926 . S
Mg3 O13 1.984 . S
Mg3 O15 1.988 . S
Mg3 O16 2.061 . S
O4 Mg3 1.926 . S
O4 Mg5 1.986 . S
O4 Mg6 1.917 . S
Mg5 O4 1.986 . S
Mg5 O12 2.042 . S
Mg5 O14 2.041 . S
Mg5 O20 2.038 1_554 S
Mg5 O28 2.238 . S
Mg6 O4 1.917 . S
Mg6 O7 1.917 . S
Mg6 O17 2.106 . S
Mg6 O19 2.079 . S
Mg6 O28 2.106 . S
Mg6 O29 2.079 . S
O7 Mg6 1.917 . S
O7 Mg8 1.926 . S
O7 Mg9 1.986 . S
Mg8 O7 1.926 . S
Mg8 O22 1.984 . S
Mg8 O25 1.988 . S
Mg8 O26 2.061 . S
Mg9 O7 1.986 . S
Mg9 O17 2.238 . S
Mg9 O21 2.042 . S
Mg9 O23 2.041 . S
Mg9 O30 2.038 . S
C10 O16 1.247 . S
C10 O17 1.289 . S
C11 O29 1.245 . S
C11 O30 1.274 . S
O12 C0 1.241 . S
O12 Mg5 2.042 . S
O13 C0 1.280 . S
O13 Mg3 1.984 . S
O14 C1 1.277 . S
O14 Mg5 2.041 . S
O15 C1 1.245 . S
O15 Mg3 1.988 . S
O16 Mg3 2.061 . S
O16 C10 1.247 . S
O17 Mg6 2.106 . S
O17 Mg9 2.238 . S
O17 C10 1.289 . S
C18 O19 1.245 1_556 S
C18 O20 1.274 . S
O19 Mg6 2.079 . S
O19 C18 1.245 1_554 S
O20 Mg5 2.038 1_556 S
O20 C18 1.274 . S
O21 Mg9 2.042 . S
O21 C24 1.241 . S
O22 Mg8 1.984 . S
O22 C24 1.280 . S
O23 Mg9 2.041 . S
O23 C27 1.277 . S
C24 O21 1.241 . S
C24 O22 1.280 . S
O25 Mg8 1.988 . S
O25 C27 1.245 . S
O26 C2 1.247 . S
O26 Mg8 2.061 . S
C27 O23 1.277 . S
C27 O25 1.245 . S
O28 C2 1.289 . S
O28 Mg5 2.238 . S
O28 Mg6 2.106 . S
O29 Mg6 2.079 . S
O29 C11 1.245 . S
O30 Mg9 2.038 . S
O30 C11 1.274 . S
C31 O43 1.241 . S
C31 O44 1.280 . S
C32 O45 1.277 . S
C32 O46 1.245 . S
C33 O57 1.247 . S
C33 O59 1.289 . S
Mg34 O35 1.926 . S
Mg34 O44 1.984 . S
Mg34 O46 1.988 . S
Mg34 O47 2.061 . S
O35 Mg34 1.926 . S
O35 Mg36 1.986 . S
O35 Mg37 1.917 . S
Mg36 O35 1.986 . S
Mg36 O43 2.042 . S
Mg36 O45 2.041 . S
Mg36 O51 2.038 . S
Mg36 O59 2.238 . S
Mg37 O35 1.917 . S
Mg37 O38 1.917 . S
Mg37 O48 2.106 . S
Mg37 O50 2.079 . S
Mg37 O59 2.106 . S
Mg37 O60 2.079 . S
O38 Mg37 1.917 . S
O38 Mg39 1.926 . S
O38 Mg40 1.986 . S
Mg39 O38 1.926 . S
Mg39 O53 1.984 . S
Mg39 O56 1.988 . S
Mg39 O57 2.061 . S
Mg40 O38 1.986 . S
Mg40 O48 2.238 . S
Mg40 O52 2.042 . S
Mg40 O54 2.041 . S
Mg40 O61 2.038 1_556 S
C41 O47 1.247 . S
C41 O48 1.289 . S
C42 O60 1.245 1_554 S
C42 O61 1.274 . S
O43 C31 1.241 . S
O43 Mg36 2.042 . S
O44 C31 1.280 . S
O44 Mg34 1.984 . S
O45 C32 1.277 . S
O45 Mg36 2.041 . S
O46 C32 1.245 . S
O46 Mg34 1.988 . S
O47 Mg34 2.061 . S
O47 C41 1.247 . S
O48 Mg37 2.106 . S
O48 Mg40 2.238 . S
O48 C41 1.289 . S
C49 O50 1.245 . S
C49 O51 1.274 . S
O50 Mg37 2.079 . S
O50 C49 1.245 . S
O51 Mg36 2.038 . S
O51 C49 1.274 . S
O52 Mg40 2.042 . S
O52 C55 1.241 . S
O53 Mg39 1.984 . S
O53 C55 1.280 . S
O54 Mg40 2.041 . S
O54 C58 1.277 . S
C55 O52 1.241 . S
C55 O53 1.280 . S
O56 Mg39 1.988 . S
O56 C58 1.245 . S
O57 C33 1.247 . S
O57 Mg39 2.061 . S
C58 O54 1.277 . S
C58 O56 1.245 . S
O59 C33 1.289 . S
O59 Mg36 2.238 . S
O59 Mg37 2.106 . S
O60 Mg37 2.079 . S
O60 C42 1.245 1_556 S
O61 Mg40 2.038 1_554 S
O61 C42 1.274 . S
C62 O74 1.241 . S
C62 O75 1.280 . S
C63 O76 1.277 . S
C63 O77 1.245 . S
C64 O88 1.247 . S
C64 O90 1.289 . S
Mg65 O66 1.926 . S
Mg65 O75 1.984 . S
Mg65 O77 1.988 . S
Mg65 O78 2.061 . S
O66 Mg65 1.926 . S
O66 Mg67 1.986 . S
O66 Mg68 1.917 . S
Mg67 O66 1.986 . S
Mg67 O74 2.042 . S
Mg67 O76 2.041 . S
Mg67 O82 2.038 1_554 S
Mg67 O90 2.238 . S
Mg68 O66 1.917 . S
Mg68 O69 1.917 . S
Mg68 O79 2.106 . S
Mg68 O81 2.079 . S
Mg68 O90 2.106 . S
Mg68 O91 2.079 . S
O69 Mg68 1.917 . S
O69 Mg70 1.926 . S
O69 Mg71 1.986 . S
Mg70 O69 1.926 . S
Mg70 O84 1.984 . S
Mg70 O87 1.988 . S
Mg70 O88 2.061 . S
Mg71 O69 1.986 . S
Mg71 O79 2.238 . S
Mg71 O83 2.042 . S
Mg71 O85 2.041 . S
Mg71 O92 2.038 . S
C72 O78 1.247 . S
C72 O79 1.289 . S
C73 O91 1.245 . S
C73 O92 1.274 . S
O74 C62 1.241 . S
O74 Mg67 2.042 . S
O75 C62 1.280 . S
O75 Mg65 1.984 . S
O76 C63 1.277 . S
O76 Mg67 2.041 . S
O77 C63 1.245 . S
O77 Mg65 1.988 . S
O78 Mg65 2.061 . S
O78 C72 1.247 . S
O79 Mg68 2.106 . S
O79 Mg71 2.238 . S
O79 C72 1.289 . S
C80 O81 1.245 1_556 S
C80 O82 1.274 . S
O81 Mg68 2.079 . S
O81 C80 1.245 1_554 S
O82 Mg67 2.038 1_556 S
O82 C80 1.274 . S
O83 Mg71 2.042 . S
O83 C86 1.241 . S
O84 Mg70 1.984 . S
O84 C86 1.280 . S
O85 Mg71 2.041 . S
O85 C89 1.277 . S
C86 O83 1.241 . S
C86 O84 1.280 . S
O87 Mg70 1.988 . S
O87 C89 1.245 . S
O88 C64 1.247 . S
O88 Mg70 2.061 . S
C89 O85 1.277 . S
C89 O87 1.245 . S
O90 C64 1.289 . S
O90 Mg67 2.238 . S
O90 Mg68 2.106 . S
O91 Mg68 2.079 . S
O91 C73 1.245 . S
O92 Mg71 2.038 . S
O92 C73 1.274 . S
C93 O105 1.241 . S
C93 O106 1.280 . S
C94 O107 1.277 . S
C94 O108 1.245 . S
C95 O119 1.247 . S
C95 O121 1.289 . S
Mg96 O97 1.926 . S
Mg96 O106 1.984 . S
Mg96 O108 1.988 . S
Mg96 O109 2.061 . S
O97 Mg96 1.926 . S
O97 Mg98 1.986 . S
O97 Mg99 1.917 . S
Mg98 O97 1.986 . S
Mg98 O105 2.042 . S
Mg98 O107 2.041 . S
Mg98 O113 2.038 . S
Mg98 O121 2.238 . S
Mg99 O97 1.917 . S
Mg99 O100 1.917 . S
Mg99 O110 2.106 . S
Mg99 O112 2.079 . S
Mg99 O121 2.106 . S
Mg99 O122 2.079 . S
O100 Mg99 1.917 . S
O100 Mg101 1.926 . S
O100 Mg102 1.986 . S
Mg101 O100 1.926 . S
Mg101 O115 1.984 . S
Mg101 O118 1.988 . S
Mg101 O119 2.061 . S
Mg102 O100 1.986 . S
Mg102 O110 2.238 . S
Mg102 O114 2.042 . S
Mg102 O116 2.041 . S
Mg102 O123 2.038 1_556 S
C103 O109 1.247 . S
C103 O110 1.289 . S
C104 O122 1.245 1_554 S
C104 O123 1.274 . S
O105 C93 1.241 . S
O105 Mg98 2.042 . S
O106 C93 1.280 . S
O106 Mg96 1.984 . S
O107 C94 1.277 . S
O107 Mg98 2.041 . S
O108 C94 1.245 . S
O108 Mg96 1.988 . S
O109 Mg96 2.061 . S
O109 C103 1.247 . S
O110 Mg99 2.106 . S
O110 Mg102 2.238 . S
O110 C103 1.289 . S
C111 O112 1.245 . S
C111 O113 1.274 . S
O112 Mg99 2.079 . S
O112 C111 1.245 . S
O113 Mg98 2.038 . S
O113 C111 1.274 . S
O114 Mg102 2.042 . S
O114 C117 1.241 . S
O115 Mg101 1.984 . S
O115 C117 1.280 . S
O116 Mg102 2.041 . S
O116 C120 1.277 . S
C117 O114 1.241 . S
C117 O115 1.280 . S
O118 Mg101 1.988 . S
O118 C120 1.245 . S
O119 C95 1.247 . S
O119 Mg101 2.061 . S
C120 O116 1.277 . S
C120 O118 1.245 . S
O121 C95 1.289 . S
O121 Mg98 2.238 . S
O121 Mg99 2.106 . S
O122 Mg99 2.079 . S
O122 C104 1.245 1_556 S
O123 Mg102 2.038 1_554 S
O123 C104 1.274 . S
C124 O136 1.241 1_455 S
C124 O137 1.280 1_455 S
C125 O138 1.277 . S
C125 O139 1.245 . S
C126 O150 1.247 . S
C126 O152 1.289 . S
Mg127 O128 1.926 . S
Mg127 O137 1.984 . S
Mg127 O139 1.988 . S
Mg127 O140 2.061 . S
O128 Mg127 1.926 . S
O128 Mg129 1.986 . S
O128 Mg130 1.917 . S
Mg129 O128 1.986 . S
Mg129 O136 2.042 . S
Mg129 O138 2.041 . S
Mg129 O144 2.038 . S
Mg129 O152 2.238 . S
Mg130 O128 1.917 . S
Mg130 O131 1.917 . S
Mg130 O141 2.106 . S
Mg130 O143 2.079 . S
Mg130 O152 2.106 . S
Mg130 O153 2.079 . S
O131 Mg130 1.917 . S
O131 Mg132 1.926 . S
O131 Mg133 1.986 . S
Mg132 O131 1.926 . S
Mg132 O146 1.984 . S
Mg132 O149 1.988 . S
Mg132 O150 2.061 . S
Mg133 O131 1.986 . S
Mg133 O141 2.238 . S
Mg133 O145 2.042 . S
Mg133 O147 2.041 . S
Mg133 O154 2.038 . S
C134 O140 1.247 . S
C134 O141 1.289 . S
C135 O153 1.245 . S
C135 O154 1.274 . S
O136 C124 1.241 1_655 S
O136 Mg129 2.042 . S
O137 C124 1.280 1_655 S
O137 Mg127 1.984 . S
O138 C125 1.277 . S
O138 Mg129 2.041 . S
O139 C125 1.245 . S
O139 Mg127 1.988 . S
O140 Mg127 2.061 . S
O140 C134 1.247 . S
O141 Mg130 2.106 . S
O141 Mg133 2.238 . S
O141 C134 1.289 . S
C142 O143 1.245 . S
C142 O144 1.274 . S
O143 Mg130 2.079 . S
O143 C142 1.245 . S
O144 Mg129 2.038 . S
O144 C142 1.274 . S
O145 Mg133 2.042 . S
O145 C148 1.241 . S
O146 Mg132 1.984 . S
O146 C148 1.280 . S
O147 Mg133 2.041 . S
O147 C151 1.277 . S
C148 O145 1.241 . S
C148 O146 1.280 . S
O149 Mg132 1.988 . S
O149 C151 1.245 . S
O150 C126 1.247 . S
O150 Mg132 2.061 . S
C151 O147 1.277 . S
C151 O149 1.245 . S
O152 C126 1.289 . S
O152 Mg129 2.238 . S
O152 Mg130 2.106 . S
O153 Mg130 2.079 . S
O153 C135 1.245 . S
O154 Mg133 2.038 . S
O154 C135 1.274 . S
C155 O167 1.241 . S
C155 O168 1.280 . S
C156 O169 1.277 . S
C156 O170 1.245 . S
C157 O181 1.247 . S
C157 O183 1.289 . S
Mg158 O159 1.926 . S
Mg158 O168 1.984 . S
Mg158 O170 1.988 . S
Mg158 O171 2.061 . S
O159 Mg158 1.926 . S
O159 Mg160 1.986 . S
O159 Mg161 1.917 . S
Mg160 O159 1.986 . S
Mg160 O167 2.042 . S
Mg160 O169 2.041 . S
Mg160 O175 2.038 . S
Mg160 O183 2.238 . S
Mg161 O159 1.917 . S
Mg161 O162 1.917 . S
Mg161 O172 2.106 . S
Mg161 O174 2.079 . S
Mg161 O183 2.106 . S
Mg161 O184 2.079 . S
O162 Mg161 1.917 . S
O162 Mg163 1.926 . S
O162 Mg164 1.986 . S
Mg163 O162 1.926 . S
Mg163 O177 1.984 . S
Mg163 O180 1.988 . S
Mg163 O181 2.061 . S
Mg164 O162 1.986 . S
Mg164 O172 2.238 . S
Mg164 O176 2.042 . S
Mg164 O178 2.041 . S
Mg164 O185 2.038 . S
C165 O171 1.247 . S
C165 O172 1.289 . S
C166 O184 1.245 . S
C166 O185 1.274 . S
O167 C155 1.241 . S
O167 Mg160 2.042 . S
O168 C155 1.280 . S
O168 Mg158 1.984 . S
O169 C156 1.277 . S
O169 Mg160 2.041 . S
O170 C156 1.245 . S
O170 Mg158 1.988 . S
O171 Mg158 2.061 . S
O171 C165 1.247 . S
O172 Mg161 2.106 . S
O172 Mg164 2.238 . S
O172 C165 1.289 . S
C173 O174 1.245 . S
C173 O175 1.274 . S
O174 Mg161 2.079 . S
O174 C173 1.245 . S
O175 Mg160 2.038 . S
O175 C173 1.274 . S
O176 Mg164 2.042 . S
O176 C179 1.241 1_545 S
O177 Mg163 1.984 . S
O177 C179 1.280 1_545 S
O178 Mg164 2.041 . S
O178 C182 1.277 . S
C179 O176 1.241 1_565 S
C179 O177 1.280 1_565 S
O180 Mg163 1.988 . S
O180 C182 1.245 . S
O181 C157 1.247 . S
O181 Mg163 2.061 . S
C182 O178 1.277 . S
C182 O180 1.245 . S
O183 C157 1.289 . S
O183 Mg160 2.238 . S
O183 Mg161 2.106 . S
O184 Mg161 2.079 . S
O184 C166 1.245 . S
O185 Mg164 2.038 . S
O185 C166 1.274 . S
C186 O198 1.241 1_655 S
C186 O199 1.280 1_655 S
C187 O200 1.277 . S
C187 O201 1.245 . S
C188 O212 1.247 . S
C188 O214 1.289 . S
Mg189 O190 1.926 . S
Mg189 O199 1.984 . S
Mg189 O201 1.988 . S
Mg189 O202 2.061 . S
O190 Mg189 1.926 . S
O190 Mg191 1.986 . S
O190 Mg192 1.917 . S
Mg191 O190 1.986 . S
Mg191 O198 2.042 . S
Mg191 O200 2.041 . S
Mg191 O206 2.038 . S
Mg191 O214 2.238 . S
Mg192 O190 1.917 . S
Mg192 O193 1.917 . S
Mg192 O203 2.106 . S
Mg192 O205 2.079 . S
Mg192 O214 2.106 . S
Mg192 O215 2.079 . S
O193 Mg192 1.917 . S
O193 Mg194 1.926 . S
O193 Mg195 1.986 . S
Mg194 O193 1.926 . S
Mg194 O208 1.984 . S
Mg194 O211 1.988 . S
Mg194 O212 2.061 . S
Mg195 O193 1.986 . S
Mg195 O203 2.238 . S
Mg195 O207 2.042 . S
Mg195 O209 2.041 . S
Mg195 O216 2.038 . S
C196 O202 1.247 . S
C196 O203 1.289 . S
C197 O215 1.245 . S
C197 O216 1.274 . S
O198 C186 1.241 1_455 S
O198 Mg191 2.042 . S
O199 C186 1.280 1_455 S
O199 Mg189 1.984 . S
O200 C187 1.277 . S
O200 Mg191 2.041 . S
O201 C187 1.245 . S
O201 Mg189 1.988 . S
O202 Mg189 2.061 . S
O202 C196 1.247 . S
O203 Mg192 2.106 . S
O203 Mg195 2.238 . S
O203 C196 1.289 . S
C204 O205 1.245 . S
C204 O206 1.274 . S
O205 Mg192 2.079 . S
O205 C204 1.245 . S
O206 Mg191 2.038 . S
O206 C204 1.274 . S
O207 Mg195 2.042 . S
O207 C210 1.241 . S
O208 Mg194 1.984 . S
O208 C210 1.280 . S
O209 Mg195 2.041 . S
O209 C213 1.277 . S
C210 O207 1.241 . S
C210 O208 1.280 . S
O211 Mg194 1.988 . S
O211 C213 1.245 . S
O212 C188 1.247 . S
O212 Mg194 2.061 . S
C213 O209 1.277 . S
C213 O211 1.245 . S
O214 C188 1.289 . S
O214 Mg191 2.238 . S
O214 Mg192 2.106 . S
O215 Mg192 2.079 . S
O215 C197 1.245 . S
O216 Mg195 2.038 . S
O216 C197 1.274 . S
C217 O229 1.241 . S
C217 O230 1.280 . S
C218 O231 1.277 . S
C218 O232 1.245 . S
C219 O243 1.247 . S
C219 O245 1.289 . S
Mg220 O221 1.926 . S
Mg220 O230 1.984 . S
Mg220 O232 1.988 . S
Mg220 O233 2.061 . S
O221 Mg220 1.926 . S
O221 Mg222 1.986 . S
O221 Mg223 1.917 . S
Mg222 O221 1.986 . S
Mg222 O229 2.042 . S
Mg222 O231 2.041 . S
Mg222 O237 2.038 . S
Mg222 O245 2.238 . S
Mg223 O221 1.917 . S
Mg223 O224 1.917 . S
Mg223 O234 2.106 . S
Mg223 O236 2.079 . S
Mg223 O245 2.106 . S
Mg223 O246 2.079 . S
O224 Mg223 1.917 . S
O224 Mg225 1.926 . S
O224 Mg226 1.986 . S
Mg225 O224 1.926 . S
Mg225 O239 1.984 . S
Mg225 O242 1.988 . S
Mg225 O243 2.061 . S
Mg226 O224 1.986 . S
Mg226 O234 2.238 . S
Mg226 O238 2.042 . S
Mg226 O240 2.041 . S
Mg226 O247 2.038 . S
C227 O233 1.247 . S
C227 O234 1.289 . S
C228 O246 1.245 . S
C228 O247 1.274 . S
O229 C217 1.241 . S
O229 Mg222 2.042 . S
O230 C217 1.280 . S
O230 Mg220 1.984 . S
O231 C218 1.277 . S
O231 Mg222 2.041 . S
O232 C218 1.245 . S
O232 Mg220 1.988 . S
O233 Mg220 2.061 . S
O233 C227 1.247 . S
O234 Mg223 2.106 . S
O234 Mg226 2.238 . S
O234 C227 1.289 . S
C235 O236 1.245 . S
C235 O237 1.274 . S
O236 Mg223 2.079 . S
O236 C235 1.245 . S
O237 Mg222 2.038 . S
O237 C235 1.274 . S
O238 Mg226 2.042 . S
O238 C241 1.241 1_565 S
O239 Mg225 1.984 . S
O239 C241 1.280 1_565 S
O240 Mg226 2.041 . S
O240 C244 1.277 . S
C241 O238 1.241 1_545 S
C241 O239 1.280 1_545 S
O242 Mg225 1.988 . S
O242 C244 1.245 . S
O243 C219 1.247 . S
O243 Mg225 2.061 . S
C244 O240 1.277 . S
C244 O242 1.245 . S
O245 C219 1.289 . S
O245 Mg222 2.238 . S
O245 Mg223 2.106 . S
O246 Mg223 2.079 . S
O246 C228 1.245 . S
O247 Mg226 2.038 . S
O247 C228 1.274 . S
H248 C254 0.930 . S
H249 C258 0.930 . S
H250 C263 0.929 . S
H251 C261 0.929 . S
H252 C256 0.929 . S
H253 C262 0.929 . S
C254 H248 0.930 . S
C254 C255 1.367 . S
C254 C262 1.378 . S
C255 C254 1.367 . S
C255 C263 1.433 . S
C256 H252 0.929 . S
C256 C258 1.378 . S
C256 C260 1.350 . S
C257 C260 1.463 . S
C257 C262 1.350 . S
C257 N265 1.427 . S
C258 H249 0.930 . S
C258 C256 1.378 . S
C258 C259 1.367 . S
C259 C258 1.367 . S
C259 C261 1.433 . S
C260 C256 1.350 . S
C260 C257 1.463 . S
C260 N264 1.427 . S
C261 H251 0.929 . S
C261 C259 1.433 . S
C261 N264 1.384 . S
C262 H253 0.929 . S
C262 C254 1.378 . S
C262 C257 1.350 . S
C263 H250 0.929 . S
C263 C255 1.433 . S
C263 N265 1.384 . S
N264 C260 1.427 . S
N264 C261 1.384 . S
N265 C257 1.427 . S
N265 C263 1.384 . S
H266 C272 0.930 . S
H267 C276 0.930 . S
H268 C281 0.929 . S
H269 C279 0.929 . S
H270 C274 0.929 . S
H271 C280 0.929 . S
C272 H266 0.930 . S
C272 C273 1.367 . S
C272 C280 1.378 . S
C273 C272 1.367 . S
C273 C281 1.433 . S
C274 H270 0.929 . S
C274 C276 1.378 . S
C274 C278 1.350 . S
C275 C278 1.463 . S
C275 C280 1.350 . S
C275 N283 1.427 . S
C276 H267 0.930 . S
C276 C274 1.378 . S
C276 C277 1.367 . S
C277 C276 1.367 . S
C277 C279 1.433 . S
C278 C274 1.350 . S
C278 C275 1.463 . S
C278 N282 1.427 . S
C279 H269 0.929 . S
C279 C277 1.433 . S
C279 N282 1.384 . S
C280 H271 0.929 . S
C280 C272 1.378 . S
C280 C275 1.350 . S
C281 H268 0.929 . S
C281 C273 1.433 . S
C281 N283 1.384 . S
N282 C278 1.427 . S
N282 C279 1.384 . S
N283 C275 1.427 . S
N283 C281 1.384 . S
H284 C290 0.930 . S
H285 C294 0.930 . S
H286 C299 0.929 . S
H287 C297 0.929 . S
H288 C292 0.929 . S
H289 C298 0.929 . S
C290 H284 0.930 . S
C290 C291 1.367 . S
C290 C298 1.378 . S
C291 C290 1.367 . S
C291 C299 1.433 . S
C292 H288 0.929 . S
C292 C294 1.378 . S
C292 C296 1.350 . S
C293 C296 1.463 . S
C293 C298 1.350 . S
C293 N301 1.427 . S
C294 H285 0.930 . S
C294 C292 1.378 . S
C294 C295 1.367 . S
C295 C294 1.367 . S
C295 C297 1.433 . S
C296 C292 1.350 . S
C296 C293 1.463 . S
C296 N300 1.427 . S
C297 H287 0.929 . S
C297 C295 1.433 . S
C297 N300 1.384 . S
C298 H289 0.929 . S
C298 C290 1.378 . S
C298 C293 1.350 . S
C299 H286 0.929 . S
C299 C291 1.433 . S
C299 N301 1.384 . S
N300 C296 1.427 . S
N300 C297 1.384 . S
N301 C293 1.427 . S
N301 C299 1.384 . S
H302 C308 0.930 . S
H303 C312 0.930 . S
H304 C317 0.929 . S
H305 C315 0.929 . S
H306 C310 0.929 . S
H307 C316 0.929 . S
C308 H302 0.930 . S
C308 C309 1.367 . S
C308 C316 1.378 . S
C309 C308 1.367 . S
C309 C317 1.433 . S
C310 H306 0.929 . S
C310 C312 1.378 . S
C310 C314 1.350 . S
C311 C314 1.463 . S
C311 C316 1.350 . S
C311 N319 1.427 . S
C312 H303 0.930 . S
C312 C310 1.378 . S
C312 C313 1.367 . S
C313 C312 1.367 . S
C313 C315 1.433 . S
C314 C310 1.350 . S
C314 C311 1.463 . S
C314 N318 1.427 . S
C315 H305 0.929 . S
C315 C313 1.433 . S
C315 N318 1.384 . S
C316 H307 0.929 . S
C316 C308 1.378 . S
C316 C311 1.350 . S
C317 H304 0.929 . S
C317 C309 1.433 . S
C317 N319 1.384 . S
N318 C314 1.427 . S
N318 C315 1.384 . S
N319 C311 1.427 . S
N319 C317 1.384 . S
H320 C326 0.930 . S
H321 C330 0.930 . S
H322 C335 0.929 . S
H323 C333 0.929 . S
H324 C328 0.929 . S
H325 C334 0.929 . S
C326 H320 0.930 . S
C326 C327 1.367 . S
C326 C334 1.378 . S
C327 C326 1.367 . S
C327 C335 1.433 . S
C328 H324 0.929 . S
C328 C330 1.378 1_554 S
C328 C332 1.350 . S
C329 C332 1.463 . S
C329 C334 1.350 . S
C329 N337 1.427 . S
C330 H321 0.930 . S
C330 C328 1.378 1_556 S
C330 C331 1.367 . S
C331 C330 1.367 . S
C331 C333 1.433 . S
C332 C328 1.350 . S
C332 C329 1.463 . S
C332 N336 1.427 . S
C333 H323 0.929 . S
C333 C331 1.433 . S
C333 N336 1.384 1_556 S
C334 H325 0.929 . S
C334 C326 1.378 . S
C334 C329 1.350 . S
C335 H322 0.929 . S
C335 C327 1.433 . S
C335 N337 1.384 . S
N336 C332 1.427 . S
N336 C333 1.384 1_554 S
N337 C329 1.427 . S
N337 C335 1.384 . S
H338 C344 0.930 . S
H339 C348 0.930 . S
H340 C353 0.929 . S
H341 C351 0.929 . S
H342 C346 0.929 . S
H343 C352 0.929 . S
C344 H338 0.930 . S
C344 C345 1.367 . S
C344 C352 1.378 1_554 S
C345 C344 1.367 . S
C345 C353 1.433 . S
C346 H342 0.929 . S
C346 C348 1.378 . S
C346 C350 1.350 . S
C347 C350 1.463 . S
C347 C352 1.350 . S
C347 N355 1.427 . S
C348 H339 0.930 . S
C348 C346 1.378 . S
C348 C349 1.367 . S
C349 C348 1.367 . S
C349 C351 1.433 . S
C350 C346 1.350 . S
C350 C347 1.463 . S
C350 N354 1.427 . S
C351 H341 0.929 . S
C351 C349 1.433 . S
C351 N354 1.384 . S
C352 H343 0.929 . S
C352 C344 1.378 1_556 S
C352 C347 1.350 . S
C353 H340 0.929 . S
C353 C345 1.433 . S
C353 N355 1.384 1_554 S
N354 C350 1.427 . S
N354 C351 1.384 . S
N355 C347 1.427 . S
N355 C353 1.384 1_556 S
H356 C362 0.930 . S
H357 C366 0.930 . S
H358 C371 0.929 . S
H359 C369 0.929 . S
H360 C364 0.929 . S
H361 C370 0.929 . S
C362 H356 0.930 . S
C362 C363 1.367 . S
C362 C370 1.378 . S
C363 C362 1.367 . S
C363 C371 1.433 . S
C364 H360 0.929 . S
C364 C366 1.378 1_554 S
C364 C368 1.350 . S
C365 C368 1.463 . S
C365 C370 1.350 . S
C365 N373 1.427 . S
C366 H357 0.930 . S
C366 C364 1.378 1_556 S
C366 C367 1.367 . S
C367 C366 1.367 . S
C367 C369 1.433 . S
C368 C364 1.350 . S
C368 C365 1.463 . S
C368 N372 1.427 . S
C369 H359 0.929 . S
C369 C367 1.433 . S
C369 N372 1.384 1_556 S
C370 H361 0.929 . S
C370 C362 1.378 . S
C370 C365 1.350 . S
C371 H358 0.929 . S
C371 C363 1.433 . S
C371 N373 1.384 . S
N372 C368 1.427 . S
N372 C369 1.384 1_554 S
N373 C365 1.427 . S
N373 C371 1.384 . S
H374 C380 0.930 . S
H375 C384 0.930 . S
H376 C389 0.929 . S
H377 C387 0.929 . S
H378 C382 0.929 . S
H379 C388 0.929 . S
C380 H374 0.930 . S
C380 C381 1.367 . S
C380 C388 1.378 1_554 S
C381 C380 1.367 . S
C381 C389 1.433 . S
C382 H378 0.929 . S
C382 C384 1.378 . S
C382 C386 1.350 . S
C383 C386 1.463 . S
C383 C388 1.350 . S
C383 N391 1.427 . S
C384 H375 0.930 . S
C384 C382 1.378 . S
C384 C385 1.367 . S
C385 C384 1.367 . S
C385 C387 1.433 . S
C386 C382 1.350 . S
C386 C383 1.463 . S
C386 N390 1.427 . S
C387 H377 0.929 . S
C387 C385 1.433 . S
C387 N390 1.384 . S
C388 H379 0.929 . S
C388 C380 1.378 1_556 S
C388 C383 1.350 . S
C389 H376 0.929 . S
C389 C381 1.433 . S
C389 N391 1.384 1_554 S
N390 C386 1.427 . S
N390 C387 1.384 . S
N391 C383 1.427 . S
N391 C389 1.384 1_556 S
H392 C398 0.930 . S
H393 C402 0.930 . S
H394 C407 0.929 . S
H395 C405 0.929 . S
H396 C400 0.929 . S
H397 C406 0.929 . S
C398 H392 0.930 . S
C398 C399 1.367 . S
C398 C406 1.378 . S
C399 C398 1.367 . S
C399 C407 1.433 . S
C400 H396 0.929 . S
C400 C402 1.378 . S
C400 C404 1.350 . S
C401 C404 1.463 . S
C401 C406 1.350 . S
C401 N409 1.427 . S
C402 H393 0.930 . S
C402 C400 1.378 . S
C402 C403 1.367 . S
C403 C402 1.367 . S
C403 C405 1.433 . S
C404 C400 1.350 . S
C404 C401 1.463 . S
C404 N408 1.427 . S
C405 H395 0.929 . S
C405 C403 1.433 . S
C405 N408 1.384 . S
C406 H397 0.929 . S
C406 C398 1.378 . S
C406 C401 1.350 . S
C407 H394 0.929 . S
C407 C399 1.433 . S
C407 N409 1.384 . S
N408 C404 1.427 . S
N408 C405 1.384 . S
N409 C401 1.427 . S
N409 C407 1.384 . S
H410 C416 0.930 . S
H411 C420 0.930 1_655 S
H412 C425 0.929 . S
H413 C423 0.929 . S
H414 C418 0.929 . S
H415 C424 0.929 . S
C416 H410 0.930 . S
C416 C417 1.367 . S
C416 C424 1.378 . S
C417 C416 1.367 . S
C417 C425 1.433 . S
C418 H414 0.929 . S
C418 C420 1.378 . S
C418 C422 1.350 . S
C419 C422 1.463 . S
C419 C424 1.350 . S
C419 N427 1.427 . S
C420 H411 0.930 1_455 S
C420 C418 1.378 . S
C420 C421 1.367 . S
C421 C420 1.367 . S
C421 C423 1.433 . S
C422 C418 1.350 . S
C422 C419 1.463 . S
C422 N426 1.427 . S
C423 H413 0.929 . S
C423 C421 1.433 . S
C423 N426 1.384 . S
C424 H415 0.929 . S
C424 C416 1.378 . S
C424 C419 1.350 . S
C425 H412 0.929 . S
C425 C417 1.433 . S
C425 N427 1.384 . S
N426 C422 1.427 . S
N426 C423 1.384 . S
N427 C419 1.427 . S
N427 C425 1.384 . S
H428 C434 0.930 . S
H429 C438 0.930 . S
H430 C443 0.929 . S
H431 C441 0.929 1_545 S
H432 C436 0.929 . S
H433 C442 0.929 . S
C434 H428 0.930 . S
C434 C435 1.367 . S
C434 C442 1.378 . S
C435 C434 1.367 . S
C435 C443 1.433 . S
C436 H432 0.929 . S
C436 C438 1.378 . S
C436 C440 1.350 . S
C437 C440 1.463 . S
C437 C442 1.350 . S
C437 N445 1.427 . S
C438 H429 0.930 . S
C438 C436 1.378 . S
C438 C439 1.367 . S
C439 C438 1.367 . S
C439 C441 1.433 . S
C440 C436 1.350 . S
C440 C437 1.463 . S
C440 N444 1.427 . S
C441 H431 0.929 1_565 S
C441 C439 1.433 . S
C441 N444 1.384 . S
C442 H433 0.929 . S
C442 C434 1.378 . S
C442 C437 1.350 . S
C443 H430 0.929 . S
C443 C435 1.433 . S
C443 N445 1.384 . S
N444 C440 1.427 . S
N444 C441 1.384 . S
N445 C437 1.427 . S
N445 C443 1.384 . S
H446 C452 0.930 . S
H447 C456 0.930 . S
H448 C461 0.929 . S
H449 C459 0.929 . S
H450 C454 0.929 . S
H451 C460 0.929 . S
C452 H446 0.930 . S
C452 C453 1.367 . S
C452 C460 1.378 . S
C453 C452 1.367 . S
C453 C461 1.433 . S
C454 H450 0.929 . S
C454 C456 1.378 . S
C454 C458 1.350 . S
C455 C458 1.463 . S
C455 C460 1.350 . S
C455 N463 1.427 . S
C456 H447 0.930 . S
C456 C454 1.378 . S
C456 C457 1.367 . S
C457 C456 1.367 . S
C457 C459 1.433 . S
C458 C454 1.350 . S
C458 C455 1.463 . S
C458 N462 1.427 . S
C459 H449 0.929 . S
C459 C457 1.433 . S
C459 N462 1.384 . S
C460 H451 0.929 . S
C460 C452 1.378 . S
C460 C455 1.350 . S
C461 H448 0.929 . S
C461 C453 1.433 . S
C461 N463 1.384 . S
N462 C458 1.427 . S
N462 C459 1.384 . S
N463 C455 1.427 . S
N463 C461 1.384 . S
H464 C470 0.930 . S
H465 C474 0.930 . S
H466 C479 0.929 . S
H467 C477 0.929 . S
H468 C472 0.929 1_556 S
H469 C478 0.929 . S
C470 H464 0.930 . S
C470 C471 1.367 . S
C470 C478 1.378 . S
C471 C470 1.367 . S
C471 C479 1.433 1_554 S
C472 H468 0.929 1_554 S
C472 C474 1.378 . S
C472 C476 1.350 . S
C473 C476 1.463 . S
C473 C478 1.350 . S
C473 N481 1.427 . S
C474 H465 0.930 . S
C474 C472 1.378 . S
C474 C475 1.367 . S
C475 C474 1.367 . S
C475 C477 1.433 . S
C476 C472 1.350 . S
C476 C473 1.463 . S
C476 N480 1.427 . S
C477 H467 0.929 . S
C477 C475 1.433 . S
C477 N480 1.384 . S
C478 H469 0.929 . S
C478 C470 1.378 . S
C478 C473 1.350 . S
C479 H466 0.929 . S
C479 C471 1.433 1_556 S
C479 N481 1.384 1_556 S
N480 C476 1.427 . S
N480 C477 1.384 . S
N481 C473 1.427 . S
N481 C479 1.384 1_554 S
H482 C488 0.930 . S
H483 C492 0.930 . S
H484 C497 0.929 . S
H485 C495 0.929 . S
H486 C490 0.929 1_554 S
H487 C496 0.929 . S
C488 H482 0.930 . S
C488 C489 1.367 . S
C488 C496 1.378 . S
C489 C488 1.367 . S
C489 C497 1.433 1_556 S
C490 H486 0.929 1_556 S
C490 C492 1.378 . S
C490 C494 1.350 . S
C491 C494 1.463 . S
C491 C496 1.350 . S
C491 N499 1.427 . S
C492 H483 0.930 . S
C492 C490 1.378 . S
C492 C493 1.367 . S
C493 C492 1.367 . S
C493 C495 1.433 . S
C494 C490 1.350 . S
C494 C491 1.463 . S
C494 N498 1.427 . S
C495 H485 0.929 . S
C495 C493 1.433 . S
C495 N498 1.384 . S
C496 H487 0.929 . S
C496 C488 1.378 . S
C496 C491 1.350 . S
C497 H484 0.929 . S
C497 C489 1.433 1_554 S
C497 N499 1.384 1_554 S
N498 C494 1.427 . S
N498 C495 1.384 . S
N499 C491 1.427 . S
N499 C497 1.384 1_556 S
H500 C506 0.930 . S
H501 C510 0.930 . S
H502 C515 0.929 . S
H503 C513 0.929 . S
H504 C508 0.929 . S
H505 C514 0.929 . S
C506 H500 0.930 . S
C506 C507 1.367 . S
C506 C514 1.378 . S
C507 C506 1.367 . S
C507 C515 1.433 . S
C508 H504 0.929 . S
C508 C510 1.378 . S
C508 C512 1.350 . S
C509 C512 1.463 . S
C509 C514 1.350 . S
C509 N517 1.427 . S
C510 H501 0.930 . S
C510 C508 1.378 . S
C510 C511 1.367 . S
C511 C510 1.367 . S
C511 C513 1.433 . S
C512 C508 1.350 . S
C512 C509 1.463 . S
C512 N516 1.427 . S
C513 H503 0.929 . S
C513 C511 1.433 . S
C513 N516 1.384 . S
C514 H505 0.929 . S
C514 C506 1.378 . S
C514 C509 1.350 . S
C515 H502 0.929 . S
C515 C507 1.433 . S
C515 N517 1.384 . S
N516 C512 1.427 . S
N516 C513 1.384 . S
N517 C509 1.427 . S
N517 C515 1.384 . S
H518 C524 0.930 . S
H519 C528 0.930 . S
H520 C533 0.929 . S
H521 C531 0.929 . S
H522 C526 0.929 . S
H523 C532 0.929 1_554 S
C524 H518 0.930 . S
C524 C525 1.367 1_554 S
C524 C532 1.378 1_554 S
C525 C524 1.367 1_556 S
C525 C533 1.433 . S
C526 H522 0.929 . S
C526 C528 1.378 . S
C526 C530 1.350 . S
C527 C530 1.463 . S
C527 C532 1.350 . S
C527 N535 1.427 . S
C528 H519 0.930 . S
C528 C526 1.378 . S
C528 C529 1.367 . S
C529 C528 1.367 . S
C529 C531 1.433 . S
C530 C526 1.350 . S
C530 C527 1.463 . S
C530 N534 1.427 . S
C531 H521 0.929 . S
C531 C529 1.433 . S
C531 N534 1.384 . S
C532 H523 0.929 1_556 S
C532 C524 1.378 1_556 S
C532 C527 1.350 . S
C533 H520 0.929 . S
C533 C525 1.433 . S
C533 N535 1.384 . S
N534 C530 1.427 . S
N534 C531 1.384 . S
N535 C527 1.427 . S
N535 C533 1.384 . S
H536 C542 0.930 . S
H537 C546 0.930 . S
H538 C551 0.929 . S
H539 C549 0.929 . S
H540 C544 0.929 . S
H541 C550 0.929 . S
C542 H536 0.930 . S
C542 C543 1.367 . S
C542 C550 1.378 . S
C543 C542 1.367 . S
C543 C551 1.433 . S
C544 H540 0.929 . S
C544 C546 1.378 . S
C544 C548 1.350 . S
C545 C548 1.463 . S
C545 C550 1.350 . S
C545 N553 1.427 . S
C546 H537 0.930 . S
C546 C544 1.378 . S
C546 C547 1.367 . S
C547 C546 1.367 . S
C547 C549 1.433 . S
C548 C544 1.350 . S
C548 C545 1.463 . S
C548 N552 1.427 . S
C549 H539 0.929 . S
C549 C547 1.433 . S
C549 N552 1.384 . S
C550 H541 0.929 . S
C550 C542 1.378 . S
C550 C545 1.350 . S
C551 H538 0.929 . S
C551 C543 1.433 . S
C551 N553 1.384 . S
N552 C548 1.427 . S
N552 C549 1.384 . S
N553 C545 1.427 . S
N553 C551 1.384 . S
H554 C560 0.930 . S
H555 C564 0.930 . S
H556 C569 0.929 . S
H557 C567 0.929 . S
H558 C562 0.929 . S
H559 C568 0.929 . S
C560 H554 0.930 . S
C560 C561 1.367 . S
C560 C568 1.378 . S
C561 C560 1.367 . S
C561 C569 1.433 . S
C562 H558 0.929 . S
C562 C564 1.378 . S
C562 C566 1.350 . S
C563 C566 1.463 . S
C563 C568 1.350 . S
C563 N571 1.427 . S
C564 H555 0.930 . S
C564 C562 1.378 . S
C564 C565 1.367 . S
C565 C564 1.367 . S
C565 C567 1.433 . S
C566 C562 1.350 . S
C566 C563 1.463 . S
C566 N570 1.427 . S
C567 H557 0.929 . S
C567 C565 1.433 . S
C567 N570 1.384 . S
C568 H559 0.929 . S
C568 C560 1.378 . S
C568 C563 1.350 . S
C569 H556 0.929 . S
C569 C561 1.433 . S
C569 N571 1.384 . S
N570 C566 1.427 . S
N570 C567 1.384 . S
N571 C563 1.427 . S
N571 C569 1.384 . S
H572 C578 0.930 . S
H573 C582 0.930 . S
H574 C587 0.929 . S
H575 C585 0.929 . S
H576 C580 0.929 . S
H577 C586 0.929 . S
C578 H572 0.930 . S
C578 C579 1.367 . S
C578 C586 1.378 . S
C579 C578 1.367 . S
C579 C587 1.433 . S
C580 H576 0.929 . S
C580 C582 1.378 . S
C580 C584 1.350 . S
C581 C584 1.463 . S
C581 C586 1.350 . S
C581 N589 1.427 . S
C582 H573 0.930 . S
C582 C580 1.378 . S
C582 C583 1.367 . S
C583 C582 1.367 . S
C583 C585 1.433 . S
C584 C580 1.350 . S
C584 C581 1.463 . S
C584 N588 1.427 . S
C585 H575 0.929 . S
C585 C583 1.433 . S
C585 N588 1.384 . S
C586 H577 0.929 . S
C586 C578 1.378 . S
C586 C581 1.350 . S
C587 H574 0.929 . S
C587 C579 1.433 . S
C587 N589 1.384 . S
N588 C584 1.427 . S
N588 C585 1.384 . S
N589 C581 1.427 . S
N589 C587 1.384 . S
H590 C596 0.930 . S
H591 C600 0.930 . S
H592 C605 0.929 . S
H593 C603 0.929 . S
H594 C598 0.929 . S
H595 C604 0.929 . S
C596 H590 0.930 . S
C596 C597 1.367 . S
C596 C604 1.378 . S
C597 C596 1.367 . S
C597 C605 1.433 . S
C598 H594 0.929 . S
C598 C600 1.378 . S
C598 C602 1.350 . S
C599 C602 1.463 . S
C599 C604 1.350 . S
C599 N607 1.427 . S
C600 H591 0.930 . S
C600 C598 1.378 . S
C600 C601 1.367 . S
C601 C600 1.367 . S
C601 C603 1.433 . S
C602 C598 1.350 . S
C602 C599 1.463 . S
C602 N606 1.427 . S
C603 H593 0.929 . S
C603 C601 1.433 . S
C603 N606 1.384 . S
C604 H595 0.929 . S
C604 C596 1.378 . S
C604 C599 1.350 . S
C605 H592 0.929 . S
C605 C597 1.433 . S
C605 N607 1.384 . S
N606 C602 1.427 . S
N606 C603 1.384 . S
N607 C599 1.427 . S
N607 C605 1.384 . S
H608 C614 0.930 . S
H609 C618 0.930 . S
H610 C623 0.929 . S
H611 C621 0.929 . S
H612 C616 0.929 . S
H613 C622 0.929 . S
C614 H608 0.930 . S
C614 C615 1.367 . S
C614 C622 1.378 . S
C615 C614 1.367 . S
C615 C623 1.433 . S
C616 H612 0.929 . S
C616 C618 1.378 . S
C616 C620 1.350 . S
C617 C620 1.463 . S
C617 C622 1.350 . S
C617 N625 1.427 . S
C618 H609 0.930 . S
C618 C616 1.378 . S
C618 C619 1.367 . S
C619 C618 1.367 . S
C619 C621 1.433 . S
C620 C616 1.350 . S
C620 C617 1.463 . S
C620 N624 1.427 . S
C621 H611 0.929 . S
C621 C619 1.433 . S
C621 N624 1.384 . S
C622 H613 0.929 . S
C622 C614 1.378 . S
C622 C617 1.350 . S
C623 H610 0.929 . S
C623 C615 1.433 . S
C623 N625 1.384 . S
N624 C620 1.427 . S
N624 C621 1.384 . S
N625 C617 1.427 . S
N625 C623 1.384 . S
H626 C632 0.930 . S
H627 C636 0.930 . S
H628 C641 0.929 . S
H629 C639 0.929 . S
H630 C634 0.929 . S
H631 C640 0.929 . S
C632 H626 0.930 . S
C632 C633 1.367 . S
C632 C640 1.378 . S
C633 C632 1.367 . S
C633 C641 1.433 . S
C634 H630 0.929 . S
C634 C636 1.378 . S
C634 C638 1.350 . S
C635 C638 1.463 . S
C635 C640 1.350 . S
C635 N643 1.427 . S
C636 H627 0.930 . S
C636 C634 1.378 . S
C636 C637 1.367 . S
C637 C636 1.367 . S
C637 C639 1.433 . S
C638 C634 1.350 . S
C638 C635 1.463 . S
C638 N642 1.427 . S
C639 H629 0.929 . S
C639 C637 1.433 . S
C639 N642 1.384 . S
C640 H631 0.929 . S
C640 C632 1.378 . S
C640 C635 1.350 . S
C641 H628 0.929 . S
C641 C633 1.433 . S
C641 N643 1.384 . S
N642 C638 1.427 . S
N642 C639 1.384 . S
N643 C635 1.427 . S
N643 C641 1.384 . S
H644 C650 0.930 . S
H645 C654 0.930 . S
H646 C659 0.929 . S
H647 C657 0.929 . S
H648 C652 0.929 . S
H649 C658 0.929 . S
C650 H644 0.930 . S
C650 C651 1.367 . S
C650 C658 1.378 . S
C651 C650 1.367 . S
C651 C659 1.433 . S
C652 H648 0.929 . S
C652 C654 1.378 . S
C652 C656 1.350 . S
C653 C656 1.463 . S
C653 C658 1.350 . S
C653 N661 1.427 . S
C654 H645 0.930 . S
C654 C652 1.378 . S
C654 C655 1.367 . S
C655 C654 1.367 . S
C655 C657 1.433 . S
C656 C652 1.350 . S
C656 C653 1.463 . S
C656 N660 1.427 . S
C657 H647 0.929 . S
C657 C655 1.433 . S
C657 N660 1.384 . S
C658 H649 0.929 . S
C658 C650 1.378 . S
C658 C653 1.350 . S
C659 H646 0.929 . S
C659 C651 1.433 . S
C659 N661 1.384 . S
N660 C656 1.427 . S
N660 C657 1.384 . S
N661 C653 1.427 . S
N661 C659 1.384 . S
H662 C668 0.930 . S
H663 C672 0.930 . S
H664 C677 0.929 . S
H665 C675 0.929 . S
H666 C670 0.929 . S
H667 C676 0.929 . S
C668 H662 0.930 . S
C668 C669 1.367 . S
C668 C676 1.378 . S
C669 C668 1.367 . S
C669 C677 1.433 . S
C670 H666 0.929 . S
C670 C672 1.378 . S
C670 C674 1.350 . S
C671 C674 1.463 . S
C671 C676 1.350 . S
C671 N679 1.427 . S
C672 H663 0.930 . S
C672 C670 1.378 . S
C672 C673 1.367 . S
C673 C672 1.367 . S
C673 C675 1.433 . S
C674 C670 1.350 . S
C674 C671 1.463 . S
C674 N678 1.427 . S
C675 H665 0.929 . S
C675 C673 1.433 . S
C675 N678 1.384 . S
C676 H667 0.929 . S
C676 C668 1.378 . S
C676 C671 1.350 . S
C677 H664 0.929 . S
C677 C669 1.433 . S
C677 N679 1.384 . S
N678 C674 1.427 . S
N678 C675 1.384 . S
N679 C671 1.427 . S
N679 C677 1.384 . S
H680 C686 0.930 . S
H681 C690 0.930 . S
H682 C695 0.929 . S
H683 C693 0.929 . S
H684 C688 0.929 . S
H685 C694 0.929 . S
C686 H680 0.930 . S
C686 C687 1.367 . S
C686 C694 1.378 . S
C687 C686 1.367 . S
C687 C695 1.433 . S
C688 H684 0.929 . S
C688 C690 1.378 . S
C688 C692 1.350 1_554 S
C689 C692 1.463 . S
C689 C694 1.350 . S
C689 N697 1.427 . S
C690 H681 0.930 . S
C690 C688 1.378 . S
C690 C691 1.367 . S
C691 C690 1.367 . S
C691 C693 1.433 1_554 S
C692 C688 1.350 1_556 S
C692 C689 1.463 . S
C692 N696 1.427 . S
C693 H683 0.929 . S
C693 C691 1.433 1_556 S
C693 N696 1.384 . S
C694 H685 0.929 . S
C694 C686 1.378 . S
C694 C689 1.350 . S
C695 H682 0.929 . S
C695 C687 1.433 . S
C695 N697 1.384 . S
N696 C692 1.427 . S
N696 C693 1.384 . S
N697 C689 1.427 . S
N697 C695 1.384 . S
H698 C704 0.930 . S
H699 C708 0.930 . S
H700 C713 0.929 . S
H701 C711 0.929 . S
H702 C706 0.929 . S
H703 C712 0.929 . S
C704 H698 0.930 . S
C704 C705 1.367 . S
C704 C712 1.378 . S
C705 C704 1.367 . S
C705 C713 1.433 . S
C706 H702 0.929 . S
C706 C708 1.378 1_554 S
C706 C710 1.350 . S
C707 C710 1.463 . S
C707 C712 1.350 . S
C707 N715 1.427 . S
C708 H699 0.930 . S
C708 C706 1.378 1_556 S
C708 C709 1.367 . S
C709 C708 1.367 . S
C709 C711 1.433 1_556 S
C710 C706 1.350 . S
C710 C707 1.463 . S
C710 N714 1.427 . S
C711 H701 0.929 . S
C711 C709 1.433 1_554 S
C711 N714 1.384 . S
C712 H703 0.929 . S
C712 C704 1.378 . S
C712 C707 1.350 . S
C713 H700 0.929 . S
C713 C705 1.433 . S
C713 N715 1.384 . S
N714 C710 1.427 . S
N714 C711 1.384 . S
N715 C707 1.427 . S
N715 C713 1.384 . S
H716 C722 0.930 . S
H717 C726 0.930 . S
H718 C731 0.929 . S
H719 C729 0.929 . S
H720 C724 0.929 . S
H721 C730 0.929 . S
C722 H716 0.930 . S
C722 C723 1.367 . S
C722 C730 1.378 . S
C723 C722 1.367 . S
C723 C731 1.433 . S
C724 H720 0.929 . S
C724 C726 1.378 . S
C724 C728 1.350 . S
C725 C728 1.463 . S
C725 C730 1.350 . S
C725 N733 1.427 . S
C726 H717 0.930 . S
C726 C724 1.378 . S
C726 C727 1.367 1_556 S
C727 C726 1.367 1_554 S
C727 C729 1.433 . S
C728 C724 1.350 . S
C728 C725 1.463 . S
C728 N732 1.427 . S
C729 H719 0.929 . S
C729 C727 1.433 . S
C729 N732 1.384 1_554 S
C730 H721 0.929 . S
C730 C722 1.378 . S
C730 C725 1.350 . S
C731 H718 0.929 . S
C731 C723 1.433 . S
C731 N733 1.384 . S
N732 C728 1.427 . S
N732 C729 1.384 1_556 S
N733 C725 1.427 . S
N733 C731 1.384 . S
H734 C740 0.930 . S
H735 C744 0.930 . S
H736 C749 0.929 . S
H737 C747 0.929 . S
H738 C742 0.929 . S
H739 C748 0.929 . S
C740 H734 0.930 . S
C740 C741 1.367 . S
C740 C748 1.378 . S
C741 C740 1.367 . S
C741 C749 1.433 . S
C742 H738 0.929 . S
C742 C744 1.378 . S
C742 C746 1.350 . S
C743 C746 1.463 . S
C743 C748 1.350 . S
C743 N751 1.427 . S
C744 H735 0.930 . S
C744 C742 1.378 . S
C744 C745 1.367 1_554 S
C745 C744 1.367 1_556 S
C745 C747 1.433 . S
C746 C742 1.350 . S
C746 C743 1.463 . S
C746 N750 1.428 1_554 S
C747 H737 0.929 . S
C747 C745 1.433 . S
C747 N750 1.383 . S
C748 H739 0.929 . S
C748 C740 1.378 . S
C748 C743 1.350 . S
C749 H736 0.929 . S
C749 C741 1.433 . S
C749 N751 1.384 . S
N750 C746 1.428 1_556 S
N750 C747 1.383 . S
N751 C743 1.427 . S
N751 C749 1.384 . S
H752 C758 0.930 . S
H753 C762 0.930 . S
H754 C767 0.929 . S
H755 C765 0.929 . S
H756 C760 0.929 . S
H757 C766 0.929 . S
C758 H752 0.930 . S
C758 C759 1.367 . S
C758 C766 1.378 . S
C759 C758 1.367 . S
C759 C767 1.433 . S
C760 H756 0.929 . S
C760 C762 1.378 . S
C760 C764 1.350 . S
C761 C764 1.463 . S
C761 C766 1.350 . S
C761 N769 1.427 . S
C762 H753 0.930 . S
C762 C760 1.378 . S
C762 C763 1.367 . S
C763 C762 1.367 . S
C763 C765 1.433 . S
C764 C760 1.350 . S
C764 C761 1.463 . S
C764 N768 1.427 . S
C765 H755 0.929 . S
C765 C763 1.433 . S
C765 N768 1.384 . S
C766 H757 0.929 . S
C766 C758 1.378 . S
C766 C761 1.350 . S
C767 H754 0.929 . S
C767 C759 1.433 . S
C767 N769 1.384 . S
N768 C764 1.427 . S
N768 C765 1.384 . S
N769 C761 1.427 . S
N769 C767 1.384 . S
H770 C776 0.930 . S
H771 C780 0.930 . S
H772 C785 0.929 . S
H773 C783 0.929 . S
H774 C778 0.929 . S
H775 C784 0.929 . S
C776 H770 0.930 . S
C776 C777 1.367 . S
C776 C784 1.378 . S
C777 C776 1.367 . S
C777 C785 1.433 . S
C778 H774 0.929 . S
C778 C780 1.378 . S
C778 C782 1.350 . S
C779 C782 1.463 . S
C779 C784 1.350 . S
C779 N787 1.427 . S
C780 H771 0.930 . S
C780 C778 1.378 . S
C780 C781 1.367 . S
C781 C780 1.367 . S
C781 C783 1.433 . S
C782 C778 1.350 . S
C782 C779 1.463 . S
C782 N786 1.427 . S
C783 H773 0.929 . S
C783 C781 1.433 . S
C783 N786 1.384 . S
C784 H775 0.929 . S
C784 C776 1.378 . S
C784 C779 1.350 . S
C785 H772 0.929 . S
C785 C777 1.433 . S
C785 N787 1.384 . S
N786 C782 1.427 . S
N786 C783 1.384 . S
N787 C779 1.427 . S
N787 C785 1.384 . S
H788 C794 0.930 . S
H789 C798 0.930 . S
H790 C803 0.929 . S
H791 C801 0.929 . S
H792 C796 0.929 . S
H793 C802 0.929 . S
C794 H788 0.930 . S
C794 C795 1.367 . S
C794 C802 1.378 . S
C795 C794 1.367 . S
C795 C803 1.433 . S
C796 H792 0.929 . S
C796 C798 1.378 . S
C796 C800 1.350 . S
C797 C800 1.463 . S
C797 C802 1.350 . S
C797 N805 1.427 . S
C798 H789 0.930 . S
C798 C796 1.378 . S
C798 C799 1.367 . S
C799 C798 1.367 . S
C799 C801 1.433 . S
C800 C796 1.350 . S
C800 C797 1.463 . S
C800 N804 1.427 . S
C801 H791 0.929 . S
C801 C799 1.433 . S
C801 N804 1.384 . S
C802 H793 0.929 . S
C802 C794 1.378 . S
C802 C797 1.350 . S
C803 H790 0.929 . S
C803 C795 1.433 . S
C803 N805 1.384 . S
N804 C800 1.427 . S
N804 C801 1.384 . S
N805 C797 1.427 . S
N805 C803 1.384 . S
H806 C812 0.930 . S
H807 C816 0.930 . S
H808 C821 0.929 . S
H809 C819 0.929 . S
H810 C814 0.929 . S
H811 C820 0.929 . S
C812 H806 0.930 . S
C812 C813 1.367 . S
C812 C820 1.378 . S
C813 C812 1.367 . S
C813 C821 1.433 . S
C814 H810 0.929 . S
C814 C816 1.378 . S
C814 C818 1.350 . S
C815 C818 1.463 . S
C815 C820 1.350 . S
C815 N823 1.427 . S
C816 H807 0.930 . S
C816 C814 1.378 . S
C816 C817 1.367 . S
C817 C816 1.367 . S
C817 C819 1.433 . S
C818 C814 1.350 . S
C818 C815 1.463 . S
C818 N822 1.427 . S
C819 H809 0.929 . S
C819 C817 1.433 . S
C819 N822 1.384 . S
C820 H811 0.929 . S
C820 C812 1.378 . S
C820 C815 1.350 . S
C821 H808 0.929 . S
C821 C813 1.433 . S
C821 N823 1.384 . S
N822 C818 1.427 . S
N822 C819 1.384 . S
N823 C815 1.427 . S
N823 C821 1.384 . S
C255 C18 1.889 . S
C259 C11 1.889 . S
C273 C42 1.886 . S
C277 C49 1.886 . S
C291 C73 1.885 . S
C295 C80 1.885 . S
C309 C104 1.890 . S
C313 C111 1.890 . S
C327 C142 1.887 . S
C331 C135 1.887 . S
C345 C173 1.886 . S
C349 C166 1.886 . S
C363 C204 1.884 . S
C367 C197 1.884 . S
C381 C235 1.891 . S
C385 C228 1.891 . S
C399 C2 1.562 . S
C403 C244 1.684 1_545 S
C417 C41 1.554 . S
C421 C125 1.690 1_455 S
C435 C64 1.572 . S
C439 C182 1.687 1_565 S
C453 C103 1.556 . S
C457 C187 1.685 1_655 S
C471 C55 1.879 1_554 S
C475 C10 2.005 . S
C489 C62 1.879 1_556 S
C493 C33 2.004 . S
C507 C72 2.001 . S
C511 C117 1.872 1_554 S
C525 C0 1.867 1_556 S
C529 C95 2.003 . S
C543 C126 1.556 . S
C547 C120 1.694 . S
C561 C165 1.556 . S
C565 C1 1.694 . S
C579 C188 1.564 . S
C583 C58 1.684 . S
C597 C227 1.554 . S
C601 C63 1.688 . S
C615 C179 1.877 . S
C619 C134 2.007 . S
C633 C157 2.008 . S
C637 C186 1.880 . S
C651 C196 2.007 . S
C655 C241 1.882 . S
C669 C219 2.001 . S
C673 C124 1.865 . S
C687 C210 0.403 . S
C691 C27 0.343 . S
C705 C217 0.397 . S
C709 C32 0.378 . S
C723 C148 0.444 . S
C727 C89 0.343 . S
C741 C155 0.449 . S
C745 C94 0.364 . S
C759 C24 0.449 . S
C763 C213 0.355 . S
C777 C31 0.411 . S
C781 C218 0.337 . S
C795 C151 0.375 . S
C799 C86 0.395 . S
C813 C156 0.365 . S
C817 C93 0.448 . S
