# Generated by pormake.
# Topology noz, (5)-cn, num edge types: 1
# Building blocks:
#     Node 0, Type 0, BuildingBlock: BEQFEK_clean_sbu_0, # of connection points: 5
#     Node 1, Type 0, BuildingBlock: BEQFEK_clean_sbu_0, # of connection points: 5
#     Node 2, Type 0, BuildingBlock: BEQFEK_clean_sbu_0, # of connection points: 5
#     Node 3, Type 0, BuildingBlock: BEQFEK_clean_sbu_0, # of connection points: 5
#     Node 4, Type 0, BuildingBlock: BEQFEK_clean_sbu_0, # of connection points: 5
#     Node 5, Type 0, BuildingBlock: BEQFEK_clean_sbu_0, # of connection points: 5
#     Node 6, Type 0, BuildingBlock: BEQFEK_clean_sbu_0, # of connection points: 5
#     Node 7, Type 0, BuildingBlock: BEQFEK_clean_sbu_0, # of connection points: 5
#     Edge 8, Type (0, 0), BuildingBlock: CIFDUS_clean_linker_0, # of connection points: 2
#     Edge 9, Type (0, 0), BuildingBlock: CIFDUS_clean_linker_0, # of connection points: 2
#     Edge 10, Type (0, 0), BuildingBlock: CIFDUS_clean_linker_0, # of connection points: 2
#     Edge 11, Type (0, 0), BuildingBlock: CIFDUS_clean_linker_0, # of connection points: 2
#     Edge 12, Type (0, 0), BuildingBlock: CIFDUS_clean_linker_0, # of connection points: 2
#     Edge 13, Type (0, 0), BuildingBlock: CIFDUS_clean_linker_0, # of connection points: 2
#     Edge 14, Type (0, 0), BuildingBlock: CIFDUS_clean_linker_0, # of connection points: 2
#     Edge 15, Type (0, 0), BuildingBlock: CIFDUS_clean_linker_0, # of connection points: 2
#     Edge 16, Type (0, 0), BuildingBlock: CIFDUS_clean_linker_0, # of connection points: 2
#     Edge 17, Type (0, 0), BuildingBlock: CIFDUS_clean_linker_0, # of connection points: 2
#     Edge 18, Type (0, 0), BuildingBlock: CIFDUS_clean_linker_0, # of connection points: 2
#     Edge 19, Type (0, 0), BuildingBlock: CIFDUS_clean_linker_0, # of connection points: 2
#     Edge 20, Type (0, 0), BuildingBlock: CIFDUS_clean_linker_0, # of connection points: 2
#     Edge 21, Type (0, 0), BuildingBlock: CIFDUS_clean_linker_0, # of connection points: 2
#     Edge 22, Type (0, 0), BuildingBlock: CIFDUS_clean_linker_0, # of connection points: 2
#     Edge 23, Type (0, 0), BuildingBlock: CIFDUS_clean_linker_0, # of connection points: 2
#     Edge 24, Type (0, 0), BuildingBlock: CIFDUS_clean_linker_0, # of connection points: 2
#     Edge 25, Type (0, 0), BuildingBlock: CIFDUS_clean_linker_0, # of connection points: 2
#     Edge 26, Type (0, 0), BuildingBlock: CIFDUS_clean_linker_0, # of connection points: 2
#     Edge 27, Type (0, 0), BuildingBlock: CIFDUS_clean_linker_0, # of connection points: 2
# Relax obj value: 0.093
# Max RMSD: 0.176
# Mean RMSD: 0.118
data_MOF--net-noz--node1-BEQFEK_clean_sbu_0--edge1-CIFDUS_clean_linker_0
_symmetry_space_group_name_H-M    P1
_symmetry_Int_Tables_number       1
_symmetry_cell_setting            triclinic
loop_
_symmetry_equiv_pos_as_xyz
'x, y, z'
_cell_length_a     21.826212
_cell_length_b     38.763882
_cell_length_c     38.071648
_cell_angle_alpha  89.050226
_cell_angle_beta   96.789095
_cell_angle_gamma 82.432997
loop_
_atom_site_label
_atom_site_type_symbol
_atom_site_fract_x
_atom_site_fract_y
_atom_site_fract_z
_atom_type_partial_charge
Co0 Co 0.13282 0.36962 0.38872 0.0
Co1 Co 0.04429 0.33483 0.43443 0.0
C2 C 0.17584 0.30723 0.44148 0.0
O3 O 0.18405 0.33076 0.41924 0.0
O4 O 0.12195 0.30435 0.44994 0.0
C5 C 0.20998 0.35589 0.33548 0.0
O6 O 0.19874 0.32456 0.3441 0.0
C7 C 0.95852 0.29415 0.46918 0.0
C8 C 0.87869 0.33573 0.4688 0.0
C9 C 0.89805 0.30101 0.47818 0.0
N10 N 0.97323 0.32351 0.45477 0.0
N11 N 0.92537 0.34818 0.45492 0.0
C12 C 1.0024 0.26098 0.47517 0.0
H13 H 0.05128 0.2664 0.478 0.0
H14 H 0.99525 0.24432 0.45201 0.0
H15 H 0.99392 0.24664 0.49922 0.0
C16 C 0.02866 0.36006 0.33301 0.0
N17 N 0.05836 0.35505 0.36617 0.0
N18 N 0.02638 0.3368 0.38483 0.0
C19 C 0.97735 0.32784 0.36389 0.0
C20 C 0.97583 0.34298 0.33032 0.0
C21 C 0.04736 0.38382 0.30598 0.0
H22 H 0.07406 0.40346 0.31914 0.0
H23 H 0.07751 0.36829 0.28885 0.0
H24 H 1.0059 0.39738 0.28918 0.0
O25 O 0.11181 0.40938 0.41951 0.0
O26 O 0.05334 0.38188 0.45143 0.0
H27 H 0.89744 0.31815 0.38821 0.0
H28 H 0.91496 0.2894 0.35282 0.0
C29 C 0.93552 0.30335 0.37557 0.0
H30 H 0.96229 0.28394 0.3952 0.0
H31 H 0.92433 0.37355 0.44503 0.0
O32 O 0.18543 0.38168 0.35163 0.0
C33 C 0.07831 0.40872 0.44474 0.0
Co34 Co 0.50339 0.61625 0.88897 0.0
Co35 Co 0.6208 0.63523 0.93839 0.0
C36 C 0.49666 0.67763 0.93692 0.0
O37 O 0.4726 0.65791 0.91434 0.0
O38 O 0.55447 0.6725 0.94829 0.0
C39 C 0.40371 0.63521 0.83436 0.0
O40 O 0.4185 0.66623 0.84197 0.0
C41 C 0.71913 0.67437 0.97132 0.0
C42 C 0.79466 0.63175 0.9889 0.0
C43 C 0.77995 0.66766 0.98789 0.0
N44 N 0.69902 0.64381 0.96296 0.0
N45 N 0.74426 0.61847 0.97387 0.0
C46 C 0.68243 0.70911 0.96086 0.0
H47 H 0.64953 0.70705 0.93667 0.0
H48 H 0.7137 0.72864 0.95614 0.0
H49 H 0.65507 0.71805 0.98257 0.0
C50 C 0.59435 0.6148 0.83651 0.0
N51 N 0.57749 0.62205 0.86884 0.0
N52 N 0.62558 0.63101 0.88919 0.0
C53 C 0.67426 0.63 0.87035 0.0
C54 C 0.65637 0.61945 0.83648 0.0
C55 C 0.55394 0.59984 0.80778 0.0
H56 H 0.53087 0.57912 0.81912 0.0
H57 H 0.51704 0.62063 0.796 0.0
H58 H 0.581 0.58898 0.78665 0.0
O59 O 0.51941 0.57647 0.92391 0.0
O60 O 0.60272 0.59034 0.95765 0.0
H61 H 0.76064 0.61553 0.90307 0.0
H62 H 0.76725 0.64045 0.86354 0.0
C63 C 0.73779 0.63736 0.88493 0.0
H64 H 0.73385 0.66157 0.90002 0.0
H65 H 0.7411 0.59208 0.97046 0.0
O66 O 0.43504 0.60871 0.85115 0.0
C67 C 0.56184 0.5701 0.9501 0.0
Co68 Co 0.06834 0.65784 0.56796 0.0
Co69 Co 0.98261 0.61835 0.60981 0.0
C70 C 0.93055 0.67872 0.55956 0.0
O71 O 0.98442 0.68303 0.55221 0.0
O72 O 0.92356 0.65493 0.58158 0.0
C73 C 0.12372 0.71701 0.55331 0.0
O74 O 0.07906 0.73185 0.57053 0.0
C75 C 0.89066 0.61551 0.65855 0.0
C76 C 0.89856 0.55966 0.67331 0.0
C77 C 0.86622 0.59197 0.67895 0.0
N78 N 0.93476 0.59799 0.64142 0.0
N79 N 0.93914 0.56454 0.65018 0.0
C80 C 0.87672 0.6544 0.65765 0.0
H81 H 0.91729 0.66629 0.65047 0.0
H82 H 0.86479 0.66382 0.68369 0.0
H83 H 0.83642 0.66276 0.63738 0.0
C84 C 0.1349 0.66128 0.64031 0.0
N85 N 0.08651 0.65324 0.61799 0.0
N86 N 0.0507 0.63665 0.63589 0.0
C87 C 0.07531 0.6337 0.67028 0.0
C88 C 0.12921 0.64948 0.67418 0.0
C89 C 0.18937 0.67648 0.62899 0.0
H90 H 0.2018 0.66512 0.60385 0.0
H91 H 0.17681 0.70504 0.62486 0.0
H92 H 0.23067 0.67149 0.64928 0.0
O93 O 0.07547 0.61149 0.54721 0.0
O94 O 0.01481 0.58277 0.57669 0.0
H95 H 0.04406 0.58838 0.69101 0.0
H96 H 0.07742 0.61536 0.72458 0.0
C97 C 0.04839 0.61553 0.6986 0.0
H98 H 1.00113 0.62894 0.70115 0.0
H99 H 0.97019 0.54514 0.64066 0.0
O100 O 0.12811 0.68448 0.54858 0.0
C101 C 0.05149 0.58404 0.55304 0.0
Co102 Co 0.50037 0.363 0.13065 0.0
Co103 Co 0.60905 0.3357 0.08602 0.0
C104 C 0.49692 0.30104 0.08196 0.0
O105 O 0.4721 0.32294 0.10252 0.0
O106 O 0.55125 0.3025 0.07382 0.0
C107 C 0.44073 0.34214 0.1857 0.0
O108 O 0.47616 0.31383 0.17803 0.0
C109 C 0.69289 0.30097 0.03859 0.0
C110 C 0.78006 0.32297 0.05404 0.0
C111 C 0.7548 0.29883 0.03221 0.0
N112 N 0.68328 0.32398 0.06406 0.0
N113 N 0.73505 0.33779 0.0724 0.0
C114 C 0.64151 0.28506 0.01803 0.0
H115 H 0.59725 0.30301 0.01646 0.0
H116 H 0.63543 0.26044 0.03163 0.0
H117 H 0.6519 0.27961 0.99068 0.0
C118 C 0.61035 0.35625 0.18666 0.0
N119 N 0.58412 0.35179 0.15344 0.0
N120 N 0.62687 0.33597 0.13551 0.0
C121 C 0.68012 0.32732 0.15722 0.0
C122 C 0.67249 0.34089 0.19028 0.0
C123 C 0.57775 0.37766 0.21298 0.0
H124 H 0.53917 0.39637 0.19925 0.0
H125 H 0.55797 0.36022 0.23074 0.0
H126 H 0.61063 0.39222 0.22927 0.0
O127 O 0.49537 0.40425 0.09792 0.0
O128 O 0.57302 0.38299 0.06806 0.0
H129 H 0.77031 0.31674 0.1393 0.0
H130 H 0.75484 0.28553 0.17123 0.0
C131 C 0.7338 0.30235 0.14786 0.0
H132 H 0.7181 0.28576 0.126 0.0
H133 H 0.73978 0.35719 0.09083 0.0
O134 O 0.44257 0.37015 0.16811 0.0
C135 C 0.53048 0.40731 0.07381 0.0
Co136 Co 0.62753 0.86435 0.3807 0.0
Co137 Co 0.53681 0.8335 0.42741 0.0
C138 C 0.66769 0.80419 0.4363 0.0
O139 O 0.67659 0.82701 0.41361 0.0
O140 O 0.61329 0.80171 0.44411 0.0
C141 C 0.70428 0.8426 0.33097 0.0
O142 O 0.68561 0.81392 0.34212 0.0
C143 C 0.44926 0.79514 0.46227 0.0
C144 C 0.37713 0.8393 0.46942 0.0
C145 C 0.39159 0.80357 0.4745 0.0
N146 N 0.46695 0.82461 0.45003 0.0
N147 N 0.42386 0.85084 0.45475 0.0
C148 C 0.48785 0.76019 0.46294 0.0
H149 H 0.53788 0.763 0.46424 0.0
H150 H 0.47448 0.74674 0.43827 0.0
H151 H 0.48035 0.744 0.48596 0.0
C152 C 0.52315 0.85496 0.32499 0.0
N153 N 0.55216 0.84999 0.35835 0.0
N154 N 0.51656 0.83482 0.37766 0.0
C155 C 0.46448 0.829 0.35711 0.0
C156 C 0.46659 0.84174 0.32303 0.0
C157 C 0.54839 0.87327 0.29606 0.0
H158 H 0.56788 0.89662 0.3065 0.0
H159 H 0.5868 0.85554 0.28668 0.0
H160 H 0.51244 0.88083 0.2732 0.0
O161 O 0.60829 0.90655 0.40931 0.0
O162 O 0.54963 0.88043 0.44224 0.0
H163 H 0.38651 0.83633 0.38646 0.0
H164 H 0.37569 0.80877 0.3495 0.0
C165 C 0.4102 0.8158 0.37097 0.0
H166 H 0.42691 0.7926 0.38856 0.0
H167 H 0.42573 0.87664 0.44721 0.0
O168 O 0.68335 0.87133 0.34376 0.0
C169 C 0.57508 0.90685 0.43479 0.0
Co170 Co 1.00627 0.1211 0.88149 0.0
Co171 Co 0.12194 0.14007 0.93073 0.0
C172 C 0.99692 0.18285 0.9276 0.0
O173 O 0.97246 0.16302 0.90534 0.0
O174 O 0.05451 0.17741 0.93926 0.0
C175 C 0.88542 0.1237 0.8411 0.0
O176 O 0.86541 0.14078 0.86795 0.0
C177 C 0.21092 0.18168 0.96673 0.0
C178 C 0.2863 0.1414 0.9903 0.0
C179 C 0.26707 0.177 0.98867 0.0
N180 N 0.19719 0.15031 0.95647 0.0
N181 N 0.24254 0.12633 0.97051 0.0
C182 C 0.17213 0.21529 0.9541 0.0
H183 H 0.14699 0.21242 0.92744 0.0
H184 H 0.20145 0.23652 0.95303 0.0
H185 H 0.13721 0.22239 0.9726 0.0
C186 C 0.09445 0.12438 0.82819 0.0
N187 N 0.08005 0.12786 0.86152 0.0
N188 N 0.12881 0.13579 0.88195 0.0
C189 C 0.17603 0.13726 0.86234 0.0
C190 C 0.15572 0.13021 0.82756 0.0
C191 C 0.05164 0.11309 0.7982 0.0
H192 H 0.03476 0.08869 0.80616 0.0
H193 H 1.01061 0.13336 0.79229 0.0
H194 H 0.07489 0.10859 0.77399 0.0
O195 O 0.02145 0.08165 0.91684 0.0
O196 O 0.10468 0.09534 0.95063 0.0
H197 H 0.26211 0.1235 0.89546 0.0
H198 H 0.26893 0.14794 0.85548 0.0
C199 C 0.23934 0.14497 0.87682 0.0
H200 H 0.23483 0.16925 0.89186 0.0
H201 H 0.24296 0.09964 0.96715 0.0
O202 O 0.94284 0.11199 0.84241 0.0
C203 C 0.0635 0.07531 0.94319 0.0
Co204 Co 0.57308 0.15204 0.56729 0.0
Co205 Co 0.48229 0.11122 0.60481 0.0
C206 C 0.43534 0.17468 0.55838 0.0
O207 O 0.48987 0.17862 0.55176 0.0
O208 O 0.42637 0.14997 0.57875 0.0
C209 C 0.6301 0.2116 0.55415 0.0
O210 O 0.58171 0.22688 0.5681 0.0
C211 C 0.39577 0.10555 0.65666 0.0
C212 C 0.40183 0.04878 0.66608 0.0
C213 C 0.3752 0.08057 0.67731 0.0
N214 N 0.43307 0.08929 0.63461 0.0
N215 N 0.43566 0.05533 0.63991 0.0
C216 C 0.38652 0.1442 0.66048 0.0
H217 H 0.42424 0.15611 0.64976 0.0
H218 H 0.38532 0.15084 0.68866 0.0
H219 H 0.34144 0.15528 0.64533 0.0
C220 C 0.63431 0.15174 0.64143 0.0
N221 N 0.58766 0.14466 0.61725 0.0
N222 N 0.54999 0.12735 0.633 0.0
C223 C 0.57166 0.12284 0.6677 0.0
C224 C 0.62528 0.1384 0.67415 0.0
C225 C 0.68671 0.17066 0.63324 0.0
H226 H 0.66813 0.19817 0.62597 0.0
H227 H 0.72313 0.17033 0.6562 0.0
H228 H 0.70774 0.15879 0.61041 0.0
O229 O 0.57927 0.10683 0.54369 0.0
O230 O 0.51465 0.0779 0.56989 0.0
H231 H 0.57989 0.09366 0.71745 0.0
H232 H 0.50345 0.11559 0.70207 0.0
C233 C 0.54593 0.10086 0.69358 0.0
H234 H 0.5338 0.0767 0.68105 0.0
H235 H 0.46265 0.03668 0.62678 0.0
O236 O 0.63635 0.17879 0.55102 0.0
C237 C 0.55295 0.07973 0.54721 0.0
Co238 Co 0.99752 0.8708 0.12632 0.0
Co239 Co 0.09276 0.84102 0.07497 0.0
C240 C 0.97368 0.81282 0.0748 0.0
O241 O 0.95806 0.83445 0.09811 0.0
O242 O 0.02636 0.81152 0.06327 0.0
C243 C 0.93136 0.85581 0.18213 0.0
O244 O 0.95386 0.82439 0.17348 0.0
C245 C 0.18189 0.79815 0.03542 0.0
C246 C 0.24177 0.83718 0.02239 0.0
C247 C 0.23346 0.8026 0.01843 0.0
N248 N 0.16091 0.82877 0.04869 0.0
N249 N 0.19665 0.852 0.0406 0.0
C250 C 0.15549 0.76512 0.04137 0.0
H251 H 0.13249 0.76639 0.06589 0.0
H252 H 0.1925 0.74237 0.04331 0.0
H253 H 0.11999 0.76168 0.01878 0.0
C254 C 0.1129 0.85332 0.17835 0.0
N255 N 0.08159 0.85354 0.14552 0.0
N256 N 0.11991 0.83919 0.12399 0.0
C257 C 0.17599 0.82868 0.14246 0.0
C258 C 0.17355 0.83731 0.17747 0.0
C259 C 0.08542 0.8684 0.2098 0.0
H260 H 0.05376 0.89276 0.20182 0.0
H261 H 0.05775 0.84953 0.22052 0.0
H262 H 0.12216 0.87368 0.23098 0.0
O263 O 0.99542 0.91303 0.09507 0.0
O264 O 0.06255 0.88953 0.05984 0.0
H265 H 0.2466 0.83279 0.10888 0.0
H266 H 0.27186 0.80383 0.14672 0.0
C267 C 0.23214 0.81299 0.12636 0.0
H268 H 0.22032 0.7908 0.1101 0.0
H269 H 0.19064 0.87794 0.0479 0.0
O270 O 0.9452 0.88184 0.16542 0.0
C271 C 0.02613 0.91531 0.06884 0.0
H272 H 0.28026 0.30511 0.30478 0.0
H273 H 0.23141 0.41665 0.30323 0.0
H274 H 0.29798 0.42273 0.25647 0.0
H275 H 0.3704 0.39579 0.21561 0.0
H276 H 0.41848 0.28393 0.21957 0.0
H277 H 0.35203 0.27874 0.26561 0.0
C278 C 0.28394 0.33083 0.29427 0.0
C279 C 0.25066 0.36035 0.3075 0.0
C280 C 0.32236 0.3341 0.26768 0.0
C281 C 0.25656 0.39345 0.29361 0.0
C282 C 0.29458 0.39693 0.26681 0.0
C283 C 0.3662 0.37033 0.22655 0.0
C284 C 0.39953 0.34032 0.21393 0.0
C285 C 0.32775 0.36738 0.25355 0.0
C286 C 0.39369 0.30754 0.22863 0.0
C287 C 0.35552 0.30445 0.25504 0.0
H288 H 0.32704 0.68703 0.79647 0.0
H289 H 0.36291 0.5751 0.80949 0.0
H290 H 0.27805 0.56952 0.76268 0.0
H291 H 0.19597 0.59666 0.71612 0.0
H292 H 0.16298 0.70839 0.70279 0.0
H293 H 0.24403 0.71393 0.75178 0.0
C294 C 0.31634 0.66136 0.7892 0.0
C295 C 0.35158 0.63153 0.80645 0.0
C296 C 0.26773 0.65836 0.76223 0.0
C297 C 0.3367 0.59852 0.79665 0.0
C298 C 0.28812 0.5953 0.76987 0.0
C299 C 0.20603 0.62214 0.72449 0.0
C300 C 0.17346 0.65214 0.7063 0.0
C301 C 0.25352 0.62504 0.75231 0.0
C302 C 0.18742 0.68504 0.71671 0.0
C303 C 0.23383 0.68818 0.74456 0.0
H304 H 0.86648 0.56274 0.7439 0.0
H305 H 0.75774 0.63704 0.66801 0.0
H306 H 0.68152 0.65123 0.70951 0.0
H307 H 0.64765 0.64397 0.76864 0.0
H308 H 0.75792 0.57053 0.84467 0.0
H309 H 0.83128 0.55423 0.80199 0.0
C310 C 0.82586 0.58187 0.73643 0.0
C311 C 0.81835 0.59932 0.70328 0.0
C312 C 0.78251 0.59003 0.76052 0.0
C313 C 0.76546 0.62397 0.6938 0.0
C314 C 0.7216 0.6319 0.71742 0.0
C315 C 0.68757 0.62425 0.77556 0.0
C316 C 0.69792 0.60855 0.80959 0.0
C317 C 0.73 0.6154 0.75103 0.0
C318 C 0.74964 0.58308 0.81859 0.0
C319 C 0.79145 0.57376 0.79424 0.0
H320 H 0.79455 0.34754 0.18795 0.0
H321 H 0.66163 0.33671 0.26146 0.0
H322 H 0.7424 0.34029 0.31091 0.0
H323 H 0.85076 0.34595 0.33284 0.0
H324 H 0.98773 0.3416 0.2594 0.0
H325 H 0.90512 0.34435 0.20992 0.0
C326 C 0.78326 0.34465 0.21464 0.0
C327 C 0.72171 0.34175 0.22072 0.0
C328 C 0.83074 0.34427 0.2429 0.0
C329 C 0.70803 0.33981 0.25579 0.0
C330 C 0.75443 0.34145 0.28414 0.0
C331 C 0.86318 0.34444 0.30617 0.0
C332 C 0.9258 0.34357 0.30007 0.0
C333 C 0.816 0.3435 0.27794 0.0
C334 C 0.94004 0.34315 0.26503 0.0
C335 C 0.89283 0.34429 0.23669 0.0
H336 H 0.74554 0.89612 0.29581 0.0
H337 H 0.76337 0.78396 0.30588 0.0
H338 H 0.83548 0.77853 0.2618 0.0
H339 H 0.89251 0.80486 0.21977 0.0
H340 H 0.87601 0.91668 0.20778 0.0
H341 H 0.8048 0.92292 0.25317 0.0
C342 C 0.76535 0.87055 0.28837 0.0
C343 C 0.74872 0.84053 0.30418 0.0
C344 C 0.80711 0.86746 0.26261 0.0
C345 C 0.77486 0.80757 0.29415 0.0
C346 C 0.81634 0.80435 0.2689 0.0
C347 C 0.87359 0.83068 0.22705 0.0
C348 C 0.88961 0.86023 0.21029 0.0
C349 C 0.83259 0.83404 0.25288 0.0
C350 C 0.86447 0.89344 0.22021 0.0
C351 C 0.82368 0.89702 0.24616 0.0
H352 H 0.74555 0.10977 0.68814 0.0
H353 H 0.59413 0.16555 0.7357 0.0
H354 H 0.66055 0.16475 0.79244 0.0
H355 H 0.76243 0.14926 0.82782 0.0
H356 H 0.91375 0.09283 0.78002 0.0
H357 H 0.84668 0.09266 0.7241 0.0
C358 C 0.72757 0.12193 0.71097 0.0
C359 C 0.6658 0.13819 0.70798 0.0
C360 C 0.76583 0.1211 0.74337 0.0
C361 C 0.64198 0.15321 0.73765 0.0
C362 C 0.67982 0.15269 0.76996 0.0
C363 C 0.78067 0.13672 0.80526 0.0
C364 C 0.84314 0.12123 0.80813 0.0
C365 C 0.74192 0.13682 0.77308 0.0
C366 C 0.86591 0.10504 0.77859 0.0
C367 C 0.82765 0.10498 0.74653 0.0
H368 H 0.25805 0.08417 0.8216 0.0
H369 H 0.13315 0.16762 0.76545 0.0
H370 H 0.19014 0.16004 0.71371 0.0
H371 H 0.27417 0.12852 0.6841 0.0
H372 H 0.39693 0.04367 0.73973 0.0
H373 H 0.34172 0.0524 0.79179 0.0
C374 C 0.24391 0.10081 0.79807 0.0
C375 C 0.19211 0.12657 0.79716 0.0
C376 C 0.27614 0.09579 0.76831 0.0
C377 C 0.17323 0.14773 0.76654 0.0
C378 C 0.20565 0.14333 0.73703 0.0
C379 C 0.28928 0.11227 0.70777 0.0
C380 C 0.34011 0.08582 0.70825 0.0
C381 C 0.25704 0.11733 0.73755 0.0
C382 C 0.35791 0.06421 0.73873 0.0
C383 C 0.32656 0.06928 0.76856 0.0
H384 H 0.2324 0.88752 0.20995 0.0
H385 H 0.23308 0.77648 0.20762 0.0
H386 H 0.3261 0.7677 0.25138 0.0
H387 H 0.40797 0.79183 0.28987 0.0
H388 H 0.40687 0.90291 0.29277 0.0
H389 H 0.31431 0.9117 0.24874 0.0
C390 C 0.25272 0.86152 0.21949 0.0
C391 C 0.226 0.83265 0.20617 0.0
C392 C 0.30662 0.85675 0.2442 0.0
C393 C 0.2529 0.79898 0.21799 0.0
C394 C 0.30614 0.794 0.24276 0.0
C395 C 0.38745 0.81789 0.2806 0.0
C396 C 0.41422 0.84668 0.29412 0.0
C397 C 0.33364 0.82267 0.25588 0.0
C398 C 0.38745 0.88038 0.28218 0.0
C399 C 0.33426 0.8854 0.25733 0.0
H400 H 1.00166 0.52329 0.55297 0.0
H401 H 0.13197 0.57633 0.50289 0.0
H402 H 0.15168 0.52718 0.46476 0.0
H403 H 0.13114 0.4691 0.44505 0.0
H404 H 1.00011 0.4168 0.49549 0.0
H405 H 0.98166 0.46563 0.53371 0.0
C406 C 0.03458 0.5241 0.53385 0.0
C407 C 0.06515 0.55353 0.5309 0.0
C408 C 0.04554 0.49585 0.51182 0.0
C409 C 0.10759 0.55406 0.50581 0.0
C410 C 0.11892 0.52594 0.48389 0.0
C411 C 0.09849 0.46843 0.46434 0.0
C412 C 0.06725 0.43922 0.46726 0.0
C413 C 0.08793 0.49673 0.48653 0.0
C414 C 0.02513 0.43882 0.49257 0.0
C415 C 0.01441 0.46678 0.51456 0.0
H416 H 0.46569 0.54352 0.97538 0.0
H417 H 0.66502 0.52668 0.97552 0.0
H418 H 0.67242 0.4748 1.01388 0.0
H419 H 0.62274 0.43453 0.04728 0.0
H420 H 0.42474 0.45279 0.05193 0.0
H421 H 0.41606 0.50426 1.01218 0.0
C422 C 0.51052 0.52824 0.98372 0.0
C423 C 0.56472 0.53845 0.97243 0.0
C424 C 0.51462 0.49907 1.0068 0.0
C425 C 0.6228 0.51909 0.98387 0.0
C426 C 0.62703 0.48953 1.00579 0.0
C427 C 0.57761 0.44979 0.03961 0.0
C428 C 0.52434 0.43981 0.05217 0.0
C429 C 0.57334 0.47936 0.01743 0.0
C430 C 0.46638 0.46009 0.04259 0.0
C431 C 0.46143 0.48934 0.01975 0.0
H432 H 0.49899 0.02061 0.54345 0.0
H433 H 0.63535 0.07252 0.49769 0.0
H434 H 0.65393 0.02423 0.4581 0.0
H435 H 0.63125 0.96665 0.43646 0.0
H436 H 0.49381 0.91636 0.48348 0.0
H437 H 0.47606 0.96457 0.5221 0.0
C438 C 0.53295 0.02144 0.52493 0.0
C439 C 0.56569 0.05017 0.5237 0.0
C440 C 0.54321 0.99379 0.50217 0.0
C441 C 0.60938 0.05071 0.49931 0.0
C442 C 0.62003 0.0231 0.47658 0.0
C443 C 0.59729 0.96638 0.45504 0.0
C444 C 0.56421 0.93772 0.45689 0.0
C445 C 0.5871 0.99444 0.4777 0.0
C446 C 0.52037 0.93785 0.48131 0.0
C447 C 0.51 0.96548 0.5036 0.0
H448 H 0.11908 0.93961 0.04031 0.0
H449 H 0.92396 0.96451 0.05105 0.0
H450 H 0.91721 0.01585 1.01128 0.0
H451 H 0.96732 0.05262 0.97207 0.0
H452 H 0.16439 0.02914 0.96605 0.0
H453 H 0.16999 0.97781 1.00507 0.0
C454 C 0.07508 0.95637 0.03404 0.0
C455 C 0.02194 0.94827 0.04823 0.0
C456 C 0.07195 0.98576 1.01174 0.0
C457 C 0.96547 0.97041 0.04046 0.0
C458 C 0.96159 -0.00046 0.01757 0.0
C459 C 1.01122 0.03602 0.97924 0.0
C460 C 0.06526 0.04408 0.96594 0.0
C461 C 0.01445 0.00723 1.00273 0.0
C462 C 0.12229 0.0231 0.97589 0.0
C463 C 0.1255 0.99389 0.99821 0.0
H464 H 0.17811 0.25941 0.49496 0.0
H465 H 0.297 0.30298 0.428 0.0
H466 H 0.38777 0.26665 0.45892 0.0
H467 H 0.43355 0.22269 0.50505 0.0
H468 H 0.31435 0.17905 0.57176 0.0
H469 H 0.22373 0.2155 0.54093 0.0
C470 C 0.22378 0.2609 0.48695 0.0
C471 C 0.23053 0.28394 0.45913 0.0
C472 C 0.27589 0.24008 0.50495 0.0
C473 C 0.29027 0.28553 0.4493 0.0
C474 C 0.34231 0.26479 0.46702 0.0
C475 C 0.38783 0.22126 0.51302 0.0
C476 C 0.38093 0.19814 0.54073 0.0
C477 C 0.33571 0.24209 0.49498 0.0
C478 C 0.32116 0.19654 0.55051 0.0
C479 C 0.2692 0.21735 0.53285 0.0
H480 H 0.37066 0.68489 0.93251 0.0
H481 H 0.53019 0.73204 0.97634 0.0
H482 H 0.46222 0.77511 1.00503 0.0
H483 H 0.35792 0.79815 0.01913 0.0
H484 H 0.19906 0.75027 0.97608 0.0
H485 H 0.26658 0.70833 0.94593 0.0
C486 C 0.39064 0.70476 0.94807 0.0
C487 C 0.45546 0.70527 0.95221 0.0
C488 C 0.35152 0.72896 0.96502 0.0
C489 C 0.48049 0.73103 0.97275 0.0
C490 C 0.44169 0.75562 0.98921 0.0
C491 C 0.33816 0.7785 1.00311 0.0
C492 C 0.27384 0.7768 1.00042 0.0
C493 C 0.37725 0.75459 0.9858 0.0
C494 C 0.24866 0.75141 0.9795 0.0
C495 C 0.28717 0.72768 0.96192 0.0
H496 H 0.21343 0.69608 0.51152 0.0
H497 H 0.14085 0.78333 0.57038 0.0
H498 H 0.22031 0.81663 0.55291 0.0
H499 H 0.30882 0.82136 0.52026 0.0
H500 H 0.37666 0.73584 0.45782 0.0
H501 H 0.30175 0.70115 0.47818 0.0
C502 C 0.21504 0.72237 0.52056 0.0
C503 C 0.17121 0.73724 0.54214 0.0
C504 C 0.26054 0.74149 0.5102 0.0
C505 C 0.17379 0.77135 0.55356 0.0
C506 C 0.21934 0.79037 0.54371 0.0
C507 C 0.30754 0.79503 0.51124 0.0
C508 C 0.3497 0.78096 0.48834 0.0
C509 C 0.26274 0.77572 0.52196 0.0
C510 C 0.34692 0.74694 0.47664 0.0
C511 C 0.30319 0.72723 0.4878 0.0
H512 H 0.39116 0.17669 1.00155 0.0
H513 H 0.21692 0.23527 0.02073 0.0
H514 H 0.27248 0.27835 0.0523 0.0
H515 H 0.37117 0.29997 0.0737 0.0
H516 H 0.545 0.24057 0.05458 0.0
H517 H 0.48919 0.19711 0.02432 0.0
C518 C 0.3654 0.19891 1.01265 0.0
C519 C 0.30008 0.2033 1.0079 0.0
C520 C 0.39765 0.22338 0.03102 0.0
C521 C 0.26721 0.23198 0.02276 0.0
C522 C 0.29899 0.25642 0.04125 0.0
C523 C 0.39675 0.27736 0.06316 0.0
C524 C 0.46212 0.2737 0.06616 0.0
C525 C 0.36427 0.25251 0.04537 0.0
C526 C 0.49464 0.2443 0.05224 0.0
C527 C 0.46279 0.21934 0.03497 0.0
H528 H 0.92671 0.72454 0.50419 0.0
H529 H 0.80887 0.68141 0.57203 0.0
H530 H 0.7171 0.71558 0.53943 0.0
H531 H 0.67016 0.75778 0.49155 0.0
H532 H 0.78883 0.80002 0.42349 0.0
H533 H 0.88004 0.76584 0.45612 0.0
C534 C 0.88104 0.72268 0.51203 0.0
C535 C 0.87495 0.70051 0.54071 0.0
C536 C 0.82837 0.74208 0.49294 0.0
C537 C 0.81516 0.69832 0.55019 0.0
C538 C 0.76253 0.7178 0.53148 0.0
C539 C 0.7159 0.75938 0.4837 0.0
C540 C 0.72236 0.78156 0.45506 0.0
C541 C 0.76854 0.7397 0.50272 0.0
C542 C 0.7822 0.78328 0.44541 0.0
C543 C 0.83458 0.76377 0.46412 0.0
H544 H 0.86179 0.30773 1.00544 0.0
H545 H 0.73091 0.23386 1.01044 0.0
H546 H 0.78963 0.19455 0.97412 0.0
H547 H 0.88196 0.17878 0.94429 0.0
H548 H 0.02227 0.24751 0.94701 0.0
H549 H 0.95683 0.29091 0.97729 0.0
C550 C 0.84578 0.28316 0.99835 0.0
C551 C 0.78991 0.27482 1.00933 0.0
C552 C 0.88207 0.25947 0.97912 0.0
C553 C 0.77106 0.24236 1.00065 0.0
C554 C 0.80551 0.21933 0.98037 0.0
C555 C 0.89771 0.20351 0.95106 0.0
C556 C 0.95628 0.21026 0.94319 0.0
C557 C 0.86122 0.2275 0.96968 0.0
C558 C 0.97711 0.24193 0.95281 0.0
C559 C 0.93979 0.26664 0.97012 0.0
H560 H 0.80748 0.3197 0.51896 0.0
H561 H 0.89584 0.23054 0.46894 0.0
H562 H 0.82291 0.19466 0.48986 0.0
H563 H 0.72989 0.18946 0.5195 0.0
H564 H 0.63813 0.28002 0.56596 0.0
H565 H 0.71589 0.31456 0.54872 0.0
C566 C 0.81116 0.29233 0.51281 0.0
C567 C 0.85813 0.27776 0.49307 0.0
C568 C 0.76776 0.27219 0.52385 0.0
C569 C 0.86189 0.2423 0.48518 0.0
C570 C 0.81942 0.22183 0.49667 0.0
C571 C 0.72702 0.21673 0.52595 0.0
C572 C 0.67804 0.23215 0.54387 0.0
C573 C 0.77169 0.23661 0.51567 0.0
C574 C 0.67504 0.26751 0.55201 0.0
C575 C 0.7196 0.2873 0.54224 0.0
H576 H 0.75426 0.72611 0.02532 0.0
H577 H 0.9026 0.66399 0.98051 0.0
H578 H 0.97559 0.70355 1.00284 0.0
H579 H 0.99747 0.75552 0.03549 0.0
H580 H 0.84999 0.81648 0.08247 0.0
H581 H 0.77656 0.77784 0.05879 0.0
C582 C 0.80234 0.72159 0.02003 0.0
C583 C 0.82285 0.69254 1.0008 0.0
C584 C 0.8443 0.74415 0.03348 0.0
C585 C 0.88573 0.6863 0.99512 0.0
C586 C 0.92745 0.70891 1.00786 0.0
C587 C 0.94924 0.76045 0.04049 0.0
C588 C 0.92938 0.789 0.06065 0.0
C589 C 0.9073 0.73788 0.02715 0.0
C590 C 0.86673 0.79471 0.06711 0.0
C591 C 0.82457 0.77264 0.05351 0.0
loop_
_geom_bond_atom_site_label_1
_geom_bond_atom_site_label_2
_geom_bond_distance
_geom_bond_site_symmetry_2
_ccdc_geom_bond_type
Co0 O3 1.970 . S
Co0 N17 1.989 . S
Co0 O25 1.967 . S
Co0 O32 1.920 . S
Co1 O4 1.966 . S
Co1 N10 2.022 1_455 S
Co1 N18 1.993 1_455 S
Co1 O26 1.941 . S
C2 O3 1.258 . S
C2 O4 1.263 . S
O3 Co0 1.970 . S
O3 C2 1.258 . S
O4 Co1 1.966 . S
O4 C2 1.263 . S
C5 O6 1.235 . S
C5 O32 1.289 . S
O6 C5 1.235 . S
C7 C9 1.400 . S
C7 N10 1.351 . S
C7 C12 1.501 . S
C8 C9 1.387 . S
C8 N11 1.341 . S
C9 C7 1.400 . S
C9 C8 1.387 . S
N10 Co1 2.022 1_655 S
N10 C7 1.351 . S
N10 N11 1.365 . S
N11 C8 1.341 . S
N11 N10 1.365 . S
N11 H31 0.862 . S
C12 C7 1.501 . S
C12 H13 0.961 1_655 S
C12 H14 0.961 . S
C12 H15 0.960 . S
H13 C12 0.961 1_455 S
H14 C12 0.961 . S
H15 C12 0.960 . S
C16 N17 1.342 1_655 S
C16 C20 1.401 . S
C16 C21 1.499 1_655 S
N17 Co0 1.989 . S
N17 C16 1.342 1_455 S
N17 N18 1.388 1_455 S
N18 Co1 1.993 1_655 S
N18 N17 1.388 1_655 S
N18 C19 1.346 . S
C19 N18 1.346 . S
C19 C20 1.396 . S
C19 C29 1.510 . S
C20 C16 1.401 . S
C20 C19 1.396 . S
C21 C16 1.499 1_455 S
C21 H22 0.959 . S
C21 H23 0.960 . S
C21 H24 0.961 . S
H22 C21 0.959 . S
H23 C21 0.960 . S
H24 C21 0.961 . S
O25 Co0 1.967 . S
O25 C33 1.258 . S
O26 Co1 1.941 . S
O26 C33 1.266 . S
H27 C29 0.959 . S
H28 C29 0.961 . S
C29 C19 1.510 . S
C29 H27 0.959 . S
C29 H28 0.961 . S
C29 H30 0.960 . S
H30 C29 0.960 . S
H31 N11 0.862 . S
O32 Co0 1.920 . S
O32 C5 1.289 . S
C33 O25 1.258 . S
C33 O26 1.266 . S
Co34 O37 1.970 . S
Co34 N51 1.989 . S
Co34 O59 1.967 . S
Co34 O66 1.920 . S
Co35 O38 1.966 . S
Co35 N44 2.022 . S
Co35 N52 1.993 . S
Co35 O60 1.941 . S
C36 O37 1.258 . S
C36 O38 1.263 . S
O37 Co34 1.970 . S
O37 C36 1.258 . S
O38 Co35 1.966 . S
O38 C36 1.263 . S
C39 O40 1.235 . S
C39 O66 1.289 . S
O40 C39 1.235 . S
C41 C43 1.400 . S
C41 N44 1.351 . S
C41 C46 1.501 . S
C42 C43 1.387 . S
C42 N45 1.341 . S
C43 C41 1.400 . S
C43 C42 1.387 . S
N44 Co35 2.022 . S
N44 C41 1.351 . S
N44 N45 1.365 . S
N45 C42 1.341 . S
N45 N44 1.365 . S
N45 H65 0.862 . S
C46 C41 1.501 . S
C46 H47 0.961 . S
C46 H48 0.961 . S
C46 H49 0.960 . S
H47 C46 0.961 . S
H48 C46 0.961 . S
H49 C46 0.960 . S
C50 N51 1.342 . S
C50 C54 1.401 . S
C50 C55 1.499 . S
N51 Co34 1.989 . S
N51 C50 1.342 . S
N51 N52 1.388 . S
N52 Co35 1.993 . S
N52 N51 1.388 . S
N52 C53 1.346 . S
C53 N52 1.346 . S
C53 C54 1.396 . S
C53 C63 1.510 . S
C54 C50 1.401 . S
C54 C53 1.396 . S
C55 C50 1.499 . S
C55 H56 0.959 . S
C55 H57 0.960 . S
C55 H58 0.961 . S
H56 C55 0.959 . S
H57 C55 0.960 . S
H58 C55 0.961 . S
O59 Co34 1.967 . S
O59 C67 1.258 . S
O60 Co35 1.941 . S
O60 C67 1.266 . S
H61 C63 0.959 . S
H62 C63 0.961 . S
C63 C53 1.510 . S
C63 H61 0.959 . S
C63 H62 0.961 . S
C63 H64 0.960 . S
H64 C63 0.960 . S
H65 N45 0.862 . S
O66 Co34 1.920 . S
O66 C39 1.289 . S
C67 O59 1.258 . S
C67 O60 1.266 . S
Co68 O71 1.970 1_455 S
Co68 N85 1.989 . S
Co68 O93 1.967 . S
Co68 O100 1.920 . S
Co69 O72 1.966 . S
Co69 N78 2.022 . S
Co69 N86 1.993 1_655 S
Co69 O94 1.941 . S
C70 O71 1.258 . S
C70 O72 1.263 . S
O71 Co68 1.970 1_655 S
O71 C70 1.258 . S
O72 Co69 1.966 . S
O72 C70 1.263 . S
C73 O74 1.235 . S
C73 O100 1.289 . S
O74 C73 1.235 . S
C75 C77 1.400 . S
C75 N78 1.351 . S
C75 C80 1.501 . S
C76 C77 1.387 . S
C76 N79 1.341 . S
C77 C75 1.400 . S
C77 C76 1.387 . S
N78 Co69 2.022 . S
N78 C75 1.351 . S
N78 N79 1.365 . S
N79 C76 1.341 . S
N79 N78 1.365 . S
N79 H99 0.862 . S
C80 C75 1.501 . S
C80 H81 0.961 . S
C80 H82 0.961 . S
C80 H83 0.960 . S
H81 C80 0.961 . S
H82 C80 0.961 . S
H83 C80 0.960 . S
C84 N85 1.342 . S
C84 C88 1.401 . S
C84 C89 1.499 . S
N85 Co68 1.989 . S
N85 C84 1.342 . S
N85 N86 1.388 . S
N86 Co69 1.993 1_455 S
N86 N85 1.388 . S
N86 C87 1.346 . S
C87 N86 1.346 . S
C87 C88 1.396 . S
C87 C97 1.510 . S
C88 C84 1.401 . S
C88 C87 1.396 . S
C89 C84 1.499 . S
C89 H90 0.959 . S
C89 H91 0.960 . S
C89 H92 0.961 . S
H90 C89 0.959 . S
H91 C89 0.960 . S
H92 C89 0.961 . S
O93 Co68 1.967 . S
O93 C101 1.258 . S
O94 Co69 1.941 . S
O94 C101 1.266 1_655 S
H95 C97 0.959 . S
H96 C97 0.961 . S
C97 C87 1.510 . S
C97 H95 0.959 . S
C97 H96 0.961 . S
C97 H98 0.960 . S
H98 C97 0.960 . S
H99 N79 0.862 . S
O100 Co68 1.920 . S
O100 C73 1.289 . S
C101 O93 1.258 . S
C101 O94 1.266 1_455 S
Co102 O105 1.970 . S
Co102 N119 1.989 . S
Co102 O127 1.967 . S
Co102 O134 1.920 . S
Co103 O106 1.966 . S
Co103 N112 2.022 . S
Co103 N120 1.993 . S
Co103 O128 1.941 . S
C104 O105 1.258 . S
C104 O106 1.263 . S
O105 Co102 1.970 . S
O105 C104 1.258 . S
O106 Co103 1.966 . S
O106 C104 1.263 . S
C107 O108 1.235 . S
C107 O134 1.289 . S
O108 C107 1.235 . S
C109 C111 1.400 . S
C109 N112 1.351 . S
C109 C114 1.501 . S
C110 C111 1.387 . S
C110 N113 1.341 . S
C111 C109 1.400 . S
C111 C110 1.387 . S
N112 Co103 2.022 . S
N112 C109 1.351 . S
N112 N113 1.365 . S
N113 C110 1.341 . S
N113 N112 1.365 . S
N113 H133 0.862 . S
C114 C109 1.501 . S
C114 H115 0.961 . S
C114 H116 0.961 . S
C114 H117 0.960 1_554 S
H115 C114 0.961 . S
H116 C114 0.961 . S
H117 C114 0.960 1_556 S
C118 N119 1.342 . S
C118 C122 1.401 . S
C118 C123 1.499 . S
N119 Co102 1.989 . S
N119 C118 1.342 . S
N119 N120 1.388 . S
N120 Co103 1.993 . S
N120 N119 1.388 . S
N120 C121 1.346 . S
C121 N120 1.346 . S
C121 C122 1.396 . S
C121 C131 1.510 . S
C122 C118 1.401 . S
C122 C121 1.396 . S
C123 C118 1.499 . S
C123 H124 0.959 . S
C123 H125 0.960 . S
C123 H126 0.961 . S
H124 C123 0.959 . S
H125 C123 0.960 . S
H126 C123 0.961 . S
O127 Co102 1.967 . S
O127 C135 1.258 . S
O128 Co103 1.941 . S
O128 C135 1.266 . S
H129 C131 0.959 . S
H130 C131 0.961 . S
C131 C121 1.510 . S
C131 H129 0.959 . S
C131 H130 0.961 . S
C131 H132 0.960 . S
H132 C131 0.960 . S
H133 N113 0.862 . S
O134 Co102 1.920 . S
O134 C107 1.289 . S
C135 O127 1.258 . S
C135 O128 1.266 . S
Co136 O139 1.970 . S
Co136 N153 1.989 . S
Co136 O161 1.967 . S
Co136 O168 1.920 . S
Co137 O140 1.966 . S
Co137 N146 2.022 . S
Co137 N154 1.993 . S
Co137 O162 1.941 . S
C138 O139 1.258 . S
C138 O140 1.263 . S
O139 Co136 1.970 . S
O139 C138 1.258 . S
O140 Co137 1.966 . S
O140 C138 1.263 . S
C141 O142 1.235 . S
C141 O168 1.289 . S
O142 C141 1.235 . S
C143 C145 1.400 . S
C143 N146 1.351 . S
C143 C148 1.501 . S
C144 C145 1.387 . S
C144 N147 1.341 . S
C145 C143 1.400 . S
C145 C144 1.387 . S
N146 Co137 2.022 . S
N146 C143 1.351 . S
N146 N147 1.365 . S
N147 C144 1.341 . S
N147 N146 1.365 . S
N147 H167 0.862 . S
C148 C143 1.501 . S
C148 H149 0.961 . S
C148 H150 0.961 . S
C148 H151 0.960 . S
H149 C148 0.961 . S
H150 C148 0.961 . S
H151 C148 0.960 . S
C152 N153 1.342 . S
C152 C156 1.401 . S
C152 C157 1.499 . S
N153 Co136 1.989 . S
N153 C152 1.342 . S
N153 N154 1.388 . S
N154 Co137 1.993 . S
N154 N153 1.388 . S
N154 C155 1.346 . S
C155 N154 1.346 . S
C155 C156 1.396 . S
C155 C165 1.510 . S
C156 C152 1.401 . S
C156 C155 1.396 . S
C157 C152 1.499 . S
C157 H158 0.959 . S
C157 H159 0.960 . S
C157 H160 0.961 . S
H158 C157 0.959 . S
H159 C157 0.960 . S
H160 C157 0.961 . S
O161 Co136 1.967 . S
O161 C169 1.258 . S
O162 Co137 1.941 . S
O162 C169 1.266 . S
H163 C165 0.959 . S
H164 C165 0.961 . S
C165 C155 1.510 . S
C165 H163 0.959 . S
C165 H164 0.961 . S
C165 H166 0.960 . S
H166 C165 0.960 . S
H167 N147 0.862 . S
O168 Co136 1.920 . S
O168 C141 1.289 . S
C169 O161 1.258 . S
C169 O162 1.266 . S
Co170 O173 1.970 . S
Co170 N187 1.989 1_655 S
Co170 O195 1.967 1_655 S
Co170 O202 1.920 . S
Co171 O174 1.966 . S
Co171 N180 2.022 . S
Co171 N188 1.993 . S
Co171 O196 1.941 . S
C172 O173 1.258 . S
C172 O174 1.263 1_655 S
O173 Co170 1.970 . S
O173 C172 1.258 . S
O174 Co171 1.966 . S
O174 C172 1.263 1_455 S
C175 O176 1.235 . S
C175 O202 1.289 . S
O176 C175 1.235 . S
C177 C179 1.400 . S
C177 N180 1.351 . S
C177 C182 1.501 . S
C178 C179 1.387 . S
C178 N181 1.341 . S
C179 C177 1.400 . S
C179 C178 1.387 . S
N180 Co171 2.022 . S
N180 C177 1.351 . S
N180 N181 1.365 . S
N181 C178 1.341 . S
N181 N180 1.365 . S
N181 H201 0.862 . S
C182 C177 1.501 . S
C182 H183 0.961 . S
C182 H184 0.961 . S
C182 H185 0.960 . S
H183 C182 0.961 . S
H184 C182 0.961 . S
H185 C182 0.960 . S
C186 N187 1.342 . S
C186 C190 1.401 . S
C186 C191 1.499 . S
N187 Co170 1.989 1_455 S
N187 C186 1.342 . S
N187 N188 1.388 . S
N188 Co171 1.993 . S
N188 N187 1.388 . S
N188 C189 1.346 . S
C189 N188 1.346 . S
C189 C190 1.396 . S
C189 C199 1.510 . S
C190 C186 1.401 . S
C190 C189 1.396 . S
C191 C186 1.499 . S
C191 H192 0.959 . S
C191 H193 0.960 . S
C191 H194 0.961 . S
H192 C191 0.959 . S
H193 C191 0.960 . S
H194 C191 0.961 . S
O195 Co170 1.967 1_455 S
O195 C203 1.258 . S
O196 Co171 1.941 . S
O196 C203 1.266 . S
H197 C199 0.959 . S
H198 C199 0.961 . S
C199 C189 1.510 . S
C199 H197 0.959 . S
C199 H198 0.961 . S
C199 H200 0.960 . S
H200 C199 0.960 . S
H201 N181 0.862 . S
O202 Co170 1.920 . S
O202 C175 1.289 . S
C203 O195 1.258 . S
C203 O196 1.266 . S
Co204 O207 1.970 . S
Co204 N221 1.989 . S
Co204 O229 1.967 . S
Co204 O236 1.920 . S
Co205 O208 1.966 . S
Co205 N214 2.022 . S
Co205 N222 1.993 . S
Co205 O230 1.941 . S
C206 O207 1.258 . S
C206 O208 1.263 . S
O207 Co204 1.970 . S
O207 C206 1.258 . S
O208 Co205 1.966 . S
O208 C206 1.263 . S
C209 O210 1.235 . S
C209 O236 1.289 . S
O210 C209 1.235 . S
C211 C213 1.400 . S
C211 N214 1.351 . S
C211 C216 1.501 . S
C212 C213 1.387 . S
C212 N215 1.341 . S
C213 C211 1.400 . S
C213 C212 1.387 . S
N214 Co205 2.022 . S
N214 C211 1.351 . S
N214 N215 1.365 . S
N215 C212 1.341 . S
N215 N214 1.365 . S
N215 H235 0.862 . S
C216 C211 1.501 . S
C216 H217 0.961 . S
C216 H218 0.961 . S
C216 H219 0.960 . S
H217 C216 0.961 . S
H218 C216 0.961 . S
H219 C216 0.960 . S
C220 N221 1.342 . S
C220 C224 1.401 . S
C220 C225 1.499 . S
N221 Co204 1.989 . S
N221 C220 1.342 . S
N221 N222 1.388 . S
N222 Co205 1.993 . S
N222 N221 1.388 . S
N222 C223 1.346 . S
C223 N222 1.346 . S
C223 C224 1.396 . S
C223 C233 1.510 . S
C224 C220 1.401 . S
C224 C223 1.396 . S
C225 C220 1.499 . S
C225 H226 0.959 . S
C225 H227 0.960 . S
C225 H228 0.961 . S
H226 C225 0.959 . S
H227 C225 0.960 . S
H228 C225 0.961 . S
O229 Co204 1.967 . S
O229 C237 1.258 . S
O230 Co205 1.941 . S
O230 C237 1.266 . S
H231 C233 0.959 . S
H232 C233 0.961 . S
C233 C223 1.510 . S
C233 H231 0.959 . S
C233 H232 0.961 . S
C233 H234 0.960 . S
H234 C233 0.960 . S
H235 N215 0.862 . S
O236 Co204 1.920 . S
O236 C209 1.289 . S
C237 O229 1.258 . S
C237 O230 1.266 . S
Co238 O241 1.970 . S
Co238 N255 1.989 1_655 S
Co238 O263 1.967 . S
Co238 O270 1.920 . S
Co239 O242 1.966 . S
Co239 N248 2.022 . S
Co239 N256 1.993 . S
Co239 O264 1.941 . S
C240 O241 1.258 . S
C240 O242 1.263 1_655 S
O241 Co238 1.970 . S
O241 C240 1.258 . S
O242 Co239 1.966 . S
O242 C240 1.263 1_455 S
C243 O244 1.235 . S
C243 O270 1.289 . S
O244 C243 1.235 . S
C245 C247 1.400 . S
C245 N248 1.351 . S
C245 C250 1.501 . S
C246 C247 1.387 . S
C246 N249 1.341 . S
C247 C245 1.400 . S
C247 C246 1.387 . S
N248 Co239 2.022 . S
N248 C245 1.351 . S
N248 N249 1.365 . S
N249 C246 1.341 . S
N249 N248 1.365 . S
N249 H269 0.862 . S
C250 C245 1.501 . S
C250 H251 0.961 . S
C250 H252 0.961 . S
C250 H253 0.960 1_554 S
H251 C250 0.961 . S
H252 C250 0.961 . S
H253 C250 0.960 1_556 S
C254 N255 1.342 . S
C254 C258 1.401 . S
C254 C259 1.499 . S
N255 Co238 1.989 1_455 S
N255 C254 1.342 . S
N255 N256 1.388 . S
N256 Co239 1.993 . S
N256 N255 1.388 . S
N256 C257 1.346 . S
C257 N256 1.346 . S
C257 C258 1.396 . S
C257 C267 1.510 . S
C258 C254 1.401 . S
C258 C257 1.396 . S
C259 C254 1.499 . S
C259 H260 0.959 . S
C259 H261 0.960 . S
C259 H262 0.961 . S
H260 C259 0.959 . S
H261 C259 0.960 . S
H262 C259 0.961 . S
O263 Co238 1.967 . S
O263 C271 1.258 1_655 S
O264 Co239 1.941 . S
O264 C271 1.266 . S
H265 C267 0.959 . S
H266 C267 0.961 . S
C267 C257 1.510 . S
C267 H265 0.959 . S
C267 H266 0.961 . S
C267 H268 0.960 . S
H268 C267 0.960 . S
H269 N249 0.862 . S
O270 Co238 1.920 . S
O270 C243 1.289 . S
C271 O263 1.258 1_455 S
C271 O264 1.266 . S
H272 C278 0.930 . S
H273 C281 0.930 . S
H274 C282 0.930 . S
H275 C283 0.930 . S
H276 C286 0.930 . S
H277 C287 0.930 . S
C278 H272 0.930 . S
C278 C279 1.355 . S
C278 C280 1.415 . S
C279 C278 1.355 . S
C279 C281 1.419 . S
C280 C278 1.415 . S
C280 C285 1.425 . S
C280 C287 1.409 . S
C281 H273 0.930 . S
C281 C279 1.419 . S
C281 C282 1.362 . S
C282 H274 0.930 . S
C282 C281 1.362 . S
C282 C285 1.409 . S
C283 H275 0.930 . S
C283 C284 1.355 . S
C283 C285 1.415 . S
C284 C283 1.355 . S
C284 C286 1.419 . S
C285 C280 1.425 . S
C285 C282 1.409 . S
C285 C283 1.415 . S
C286 H276 0.930 . S
C286 C284 1.419 . S
C286 C287 1.362 . S
C287 H277 0.930 . S
C287 C280 1.409 . S
C287 C286 1.362 . S
H288 C294 0.930 . S
H289 C297 0.930 . S
H290 C298 0.930 . S
H291 C299 0.930 . S
H292 C302 0.930 . S
H293 C303 0.930 . S
C294 H288 0.930 . S
C294 C295 1.355 . S
C294 C296 1.415 . S
C295 C294 1.355 . S
C295 C297 1.419 . S
C296 C294 1.415 . S
C296 C301 1.425 . S
C296 C303 1.409 . S
C297 H289 0.930 . S
C297 C295 1.419 . S
C297 C298 1.362 . S
C298 H290 0.930 . S
C298 C297 1.362 . S
C298 C301 1.409 . S
C299 H291 0.930 . S
C299 C300 1.355 . S
C299 C301 1.415 . S
C300 C299 1.355 . S
C300 C302 1.419 . S
C301 C296 1.425 . S
C301 C298 1.409 . S
C301 C299 1.415 . S
C302 H292 0.930 . S
C302 C300 1.419 . S
C302 C303 1.362 . S
C303 H293 0.930 . S
C303 C296 1.409 . S
C303 C302 1.362 . S
H304 C310 0.930 . S
H305 C313 0.930 . S
H306 C314 0.930 . S
H307 C315 0.930 . S
H308 C318 0.930 . S
H309 C319 0.930 . S
C310 H304 0.930 . S
C310 C311 1.355 . S
C310 C312 1.415 . S
C311 C310 1.355 . S
C311 C313 1.419 . S
C312 C310 1.415 . S
C312 C317 1.425 . S
C312 C319 1.409 . S
C313 H305 0.930 . S
C313 C311 1.419 . S
C313 C314 1.362 . S
C314 H306 0.930 . S
C314 C313 1.362 . S
C314 C317 1.409 . S
C315 H307 0.930 . S
C315 C316 1.355 . S
C315 C317 1.415 . S
C316 C315 1.355 . S
C316 C318 1.419 . S
C317 C312 1.425 . S
C317 C314 1.409 . S
C317 C315 1.415 . S
C318 H308 0.930 . S
C318 C316 1.419 . S
C318 C319 1.362 . S
C319 H309 0.930 . S
C319 C312 1.409 . S
C319 C318 1.362 . S
H320 C326 0.930 . S
H321 C329 0.930 . S
H322 C330 0.930 . S
H323 C331 0.930 . S
H324 C334 0.930 . S
H325 C335 0.930 . S
C326 H320 0.930 . S
C326 C327 1.355 . S
C326 C328 1.415 . S
C327 C326 1.355 . S
C327 C329 1.419 . S
C328 C326 1.415 . S
C328 C333 1.425 . S
C328 C335 1.409 . S
C329 H321 0.930 . S
C329 C327 1.419 . S
C329 C330 1.362 . S
C330 H322 0.930 . S
C330 C329 1.362 . S
C330 C333 1.409 . S
C331 H323 0.930 . S
C331 C332 1.355 . S
C331 C333 1.415 . S
C332 C331 1.355 . S
C332 C334 1.419 . S
C333 C328 1.425 . S
C333 C330 1.409 . S
C333 C331 1.415 . S
C334 H324 0.930 . S
C334 C332 1.419 . S
C334 C335 1.362 . S
C335 H325 0.930 . S
C335 C328 1.409 . S
C335 C334 1.362 . S
H336 C342 0.930 . S
H337 C345 0.930 . S
H338 C346 0.930 . S
H339 C347 0.930 . S
H340 C350 0.930 . S
H341 C351 0.930 . S
C342 H336 0.930 . S
C342 C343 1.355 . S
C342 C344 1.415 . S
C343 C342 1.355 . S
C343 C345 1.419 . S
C344 C342 1.415 . S
C344 C349 1.425 . S
C344 C351 1.409 . S
C345 H337 0.930 . S
C345 C343 1.419 . S
C345 C346 1.362 . S
C346 H338 0.930 . S
C346 C345 1.362 . S
C346 C349 1.409 . S
C347 H339 0.930 . S
C347 C348 1.355 . S
C347 C349 1.415 . S
C348 C347 1.355 . S
C348 C350 1.419 . S
C349 C344 1.425 . S
C349 C346 1.409 . S
C349 C347 1.415 . S
C350 H340 0.930 . S
C350 C348 1.419 . S
C350 C351 1.362 . S
C351 H341 0.930 . S
C351 C344 1.409 . S
C351 C350 1.362 . S
H352 C358 0.930 . S
H353 C361 0.930 . S
H354 C362 0.930 . S
H355 C363 0.930 . S
H356 C366 0.930 . S
H357 C367 0.930 . S
C358 H352 0.930 . S
C358 C359 1.355 . S
C358 C360 1.415 . S
C359 C358 1.355 . S
C359 C361 1.419 . S
C360 C358 1.415 . S
C360 C365 1.425 . S
C360 C367 1.409 . S
C361 H353 0.930 . S
C361 C359 1.419 . S
C361 C362 1.362 . S
C362 H354 0.930 . S
C362 C361 1.362 . S
C362 C365 1.409 . S
C363 H355 0.930 . S
C363 C364 1.355 . S
C363 C365 1.415 . S
C364 C363 1.355 . S
C364 C366 1.419 . S
C365 C360 1.425 . S
C365 C362 1.409 . S
C365 C363 1.415 . S
C366 H356 0.930 . S
C366 C364 1.419 . S
C366 C367 1.362 . S
C367 H357 0.930 . S
C367 C360 1.409 . S
C367 C366 1.362 . S
H368 C374 0.930 . S
H369 C377 0.930 . S
H370 C378 0.930 . S
H371 C379 0.930 . S
H372 C382 0.930 . S
H373 C383 0.930 . S
C374 H368 0.930 . S
C374 C375 1.355 . S
C374 C376 1.415 . S
C375 C374 1.355 . S
C375 C377 1.419 . S
C376 C374 1.415 . S
C376 C381 1.425 . S
C376 C383 1.409 . S
C377 H369 0.930 . S
C377 C375 1.419 . S
C377 C378 1.362 . S
C378 H370 0.930 . S
C378 C377 1.362 . S
C378 C381 1.409 . S
C379 H371 0.930 . S
C379 C380 1.355 . S
C379 C381 1.415 . S
C380 C379 1.355 . S
C380 C382 1.419 . S
C381 C376 1.425 . S
C381 C378 1.409 . S
C381 C379 1.415 . S
C382 H372 0.930 . S
C382 C380 1.419 . S
C382 C383 1.362 . S
C383 H373 0.930 . S
C383 C376 1.409 . S
C383 C382 1.362 . S
H384 C390 0.930 . S
H385 C393 0.930 . S
H386 C394 0.930 . S
H387 C395 0.930 . S
H388 C398 0.930 . S
H389 C399 0.930 . S
C390 H384 0.930 . S
C390 C391 1.355 . S
C390 C392 1.415 . S
C391 C390 1.355 . S
C391 C393 1.419 . S
C392 C390 1.415 . S
C392 C397 1.425 . S
C392 C399 1.409 . S
C393 H385 0.930 . S
C393 C391 1.419 . S
C393 C394 1.362 . S
C394 H386 0.930 . S
C394 C393 1.362 . S
C394 C397 1.409 . S
C395 H387 0.930 . S
C395 C396 1.355 . S
C395 C397 1.415 . S
C396 C395 1.355 . S
C396 C398 1.419 . S
C397 C392 1.425 . S
C397 C394 1.409 . S
C397 C395 1.415 . S
C398 H388 0.930 . S
C398 C396 1.419 . S
C398 C399 1.362 . S
C399 H389 0.930 . S
C399 C392 1.409 . S
C399 C398 1.362 . S
H400 C406 0.930 . S
H401 C409 0.930 . S
H402 C410 0.930 . S
H403 C411 0.930 . S
H404 C414 0.930 . S
H405 C415 0.930 . S
C406 H400 0.930 . S
C406 C407 1.355 1_655 S
C406 C408 1.415 1_655 S
C407 C406 1.355 1_455 S
C407 C409 1.419 . S
C408 C406 1.415 1_455 S
C408 C413 1.425 . S
C408 C415 1.409 1_455 S
C409 H401 0.930 . S
C409 C407 1.419 . S
C409 C410 1.362 . S
C410 H402 0.930 . S
C410 C409 1.362 . S
C410 C413 1.409 . S
C411 H403 0.930 . S
C411 C412 1.355 . S
C411 C413 1.415 . S
C412 C411 1.355 . S
C412 C414 1.419 1_455 S
C413 C408 1.425 . S
C413 C410 1.409 . S
C413 C411 1.415 . S
C414 H404 0.930 . S
C414 C412 1.419 1_655 S
C414 C415 1.362 . S
C415 H405 0.930 . S
C415 C408 1.409 1_655 S
C415 C414 1.362 . S
H416 C422 0.930 . S
H417 C425 0.930 . S
H418 C426 0.930 . S
H419 C427 0.930 . S
H420 C430 0.930 . S
H421 C431 0.930 1_556 S
C422 H416 0.930 . S
C422 C423 1.355 . S
C422 C424 1.415 . S
C423 C422 1.355 . S
C423 C425 1.419 . S
C424 C422 1.415 . S
C424 C429 1.425 . S
C424 C431 1.409 1_556 S
C425 H417 0.930 . S
C425 C423 1.419 . S
C425 C426 1.362 . S
C426 H418 0.930 . S
C426 C425 1.362 . S
C426 C429 1.409 . S
C427 H419 0.930 . S
C427 C428 1.355 . S
C427 C429 1.415 1_554 S
C428 C427 1.355 . S
C428 C430 1.419 . S
C429 C424 1.425 . S
C429 C426 1.409 . S
C429 C427 1.415 1_556 S
C430 H420 0.930 . S
C430 C428 1.419 . S
C430 C431 1.362 . S
C431 H421 0.930 1_554 S
C431 C424 1.409 1_554 S
C431 C430 1.362 . S
H432 C438 0.930 . S
H433 C441 0.930 . S
H434 C442 0.930 . S
H435 C443 0.930 . S
H436 C446 0.930 . S
H437 C447 0.930 . S
C438 H432 0.930 . S
C438 C439 1.355 . S
C438 C440 1.415 1_545 S
C439 C438 1.355 . S
C439 C441 1.419 . S
C440 C438 1.415 1_565 S
C440 C445 1.425 . S
C440 C447 1.409 . S
C441 H433 0.930 . S
C441 C439 1.419 . S
C441 C442 1.362 . S
C442 H434 0.930 . S
C442 C441 1.362 . S
C442 C445 1.409 1_545 S
C443 H435 0.930 . S
C443 C444 1.355 . S
C443 C445 1.415 . S
C444 C443 1.355 . S
C444 C446 1.419 . S
C445 C440 1.425 . S
C445 C442 1.409 1_565 S
C445 C443 1.415 . S
C446 H436 0.930 . S
C446 C444 1.419 . S
C446 C447 1.362 . S
C447 H437 0.930 . S
C447 C440 1.409 . S
C447 C446 1.362 . S
H448 C454 0.930 . S
H449 C457 0.930 . S
H450 C458 0.930 . S
H451 C459 0.930 1_655 S
H452 C462 0.930 . S
H453 C463 0.930 . S
C454 H448 0.930 . S
C454 C455 1.355 . S
C454 C456 1.415 . S
C455 C454 1.355 . S
C455 C457 1.419 1_455 S
C456 C454 1.415 . S
C456 C461 1.425 1_554 S
C456 C463 1.409 1_565 S
C457 H449 0.930 . S
C457 C455 1.419 1_655 S
C457 C458 1.362 1_554 S
C458 H450 0.930 . S
C458 C457 1.362 1_556 S
C458 C461 1.409 1_655 S
C459 H451 0.930 1_455 S
C459 C460 1.355 . S
C459 C461 1.415 1_545 S
C460 C459 1.355 . S
C460 C462 1.419 . S
C461 C456 1.425 1_556 S
C461 C458 1.409 1_455 S
C461 C459 1.415 1_565 S
C462 H452 0.930 . S
C462 C460 1.419 . S
C462 C463 1.362 1_556 S
C463 H453 0.930 . S
C463 C456 1.409 1_545 S
C463 C462 1.362 1_554 S
H464 C470 0.930 . S
H465 C473 0.930 . S
H466 C474 0.930 . S
H467 C475 0.930 . S
H468 C478 0.930 . S
H469 C479 0.930 . S
C470 H464 0.930 . S
C470 C471 1.355 . S
C470 C472 1.415 . S
C471 C470 1.355 . S
C471 C473 1.419 . S
C472 C470 1.415 . S
C472 C477 1.425 . S
C472 C479 1.409 . S
C473 H465 0.930 . S
C473 C471 1.419 . S
C473 C474 1.362 . S
C474 H466 0.930 . S
C474 C473 1.362 . S
C474 C477 1.409 . S
C475 H467 0.930 . S
C475 C476 1.355 . S
C475 C477 1.415 . S
C476 C475 1.355 . S
C476 C478 1.419 . S
C477 C472 1.425 . S
C477 C474 1.409 . S
C477 C475 1.415 . S
C478 H468 0.930 . S
C478 C476 1.419 . S
C478 C479 1.362 . S
C479 H469 0.930 . S
C479 C472 1.409 . S
C479 C478 1.362 . S
H480 C486 0.930 . S
H481 C489 0.930 . S
H482 C490 0.930 1_554 S
H483 C491 0.930 . S
H484 C494 0.930 . S
H485 C495 0.930 . S
C486 H480 0.930 . S
C486 C487 1.355 . S
C486 C488 1.415 . S
C487 C486 1.355 . S
C487 C489 1.419 . S
C488 C486 1.415 . S
C488 C493 1.425 . S
C488 C495 1.409 . S
C489 H481 0.930 . S
C489 C487 1.419 . S
C489 C490 1.362 . S
C490 H482 0.930 1_556 S
C490 C489 1.362 . S
C490 C493 1.409 . S
C491 H483 0.930 . S
C491 C492 1.355 . S
C491 C493 1.415 1_554 S
C492 C491 1.355 . S
C492 C494 1.419 1_554 S
C493 C488 1.425 . S
C493 C490 1.409 . S
C493 C491 1.415 1_556 S
C494 H484 0.930 . S
C494 C492 1.419 1_556 S
C494 C495 1.362 . S
C495 H485 0.930 . S
C495 C488 1.409 . S
C495 C494 1.362 . S
H496 C502 0.930 . S
H497 C505 0.930 . S
H498 C506 0.930 . S
H499 C507 0.930 . S
H500 C510 0.930 . S
H501 C511 0.930 . S
C502 H496 0.930 . S
C502 C503 1.355 . S
C502 C504 1.415 . S
C503 C502 1.355 . S
C503 C505 1.419 . S
C504 C502 1.415 . S
C504 C509 1.425 . S
C504 C511 1.409 . S
C505 H497 0.930 . S
C505 C503 1.419 . S
C505 C506 1.362 . S
C506 H498 0.930 . S
C506 C505 1.362 . S
C506 C509 1.409 . S
C507 H499 0.930 . S
C507 C508 1.355 . S
C507 C509 1.415 . S
C508 C507 1.355 . S
C508 C510 1.419 . S
C509 C504 1.425 . S
C509 C506 1.409 . S
C509 C507 1.415 . S
C510 H500 0.930 . S
C510 C508 1.419 . S
C510 C511 1.362 . S
C511 H501 0.930 . S
C511 C504 1.409 . S
C511 C510 1.362 . S
H512 C518 0.930 . S
H513 C521 0.930 . S
H514 C522 0.930 . S
H515 C523 0.930 . S
H516 C526 0.930 . S
H517 C527 0.950 . S
C518 H512 0.930 . S
C518 C519 1.355 . S
C518 C520 1.415 1_556 S
C519 C518 1.355 . S
C519 C521 1.419 1_556 S
C520 C518 1.415 1_554 S
C520 C525 1.425 . S
C520 C527 1.403 1_554 S
C521 H513 0.930 . S
C521 C519 1.419 1_554 S
C521 C522 1.362 . S
C522 H514 0.930 . S
C522 C521 1.362 . S
C522 C525 1.409 . S
C523 H515 0.930 . S
C523 C524 1.355 . S
C523 C525 1.415 . S
C524 C523 1.355 . S
C524 C526 1.419 . S
C525 C520 1.425 . S
C525 C522 1.409 . S
C525 C523 1.415 . S
C526 H516 0.930 . S
C526 C524 1.419 . S
C526 C527 1.350 1_554 S
C527 H517 0.950 . S
C527 C520 1.403 1_556 S
C527 C526 1.350 1_556 S
H528 C534 0.930 . S
H529 C537 0.930 . S
H530 C538 0.930 . S
H531 C539 0.930 . S
H532 C542 0.930 . S
H533 C543 0.930 . S
C534 H528 0.930 . S
C534 C535 1.355 . S
C534 C536 1.415 . S
C535 C534 1.355 . S
C535 C537 1.419 . S
C536 C534 1.415 . S
C536 C541 1.425 . S
C536 C543 1.409 . S
C537 H529 0.930 . S
C537 C535 1.419 . S
C537 C538 1.362 . S
C538 H530 0.930 . S
C538 C537 1.362 . S
C538 C541 1.409 . S
C539 H531 0.930 . S
C539 C540 1.355 . S
C539 C541 1.415 . S
C540 C539 1.355 . S
C540 C542 1.419 . S
C541 C536 1.425 . S
C541 C538 1.409 . S
C541 C539 1.415 . S
C542 H532 0.930 . S
C542 C540 1.419 . S
C542 C543 1.362 . S
C543 H533 0.930 . S
C543 C536 1.409 . S
C543 C542 1.362 . S
H544 C550 0.930 . S
H545 C553 0.930 . S
H546 C554 0.930 . S
H547 C555 0.930 . S
H548 C558 0.930 . S
H549 C559 0.930 . S
C550 H544 0.930 . S
C550 C551 1.355 1_556 S
C550 C552 1.415 . S
C551 C550 1.355 1_554 S
C551 C553 1.419 . S
C552 C550 1.415 . S
C552 C557 1.425 . S
C552 C559 1.409 . S
C553 H545 0.930 . S
C553 C551 1.419 . S
C553 C554 1.362 1_554 S
C554 H546 0.930 . S
C554 C553 1.362 1_556 S
C554 C557 1.409 . S
C555 H547 0.930 . S
C555 C556 1.355 . S
C555 C557 1.415 . S
C556 C555 1.355 . S
C556 C558 1.419 . S
C557 C552 1.425 . S
C557 C554 1.409 . S
C557 C555 1.415 . S
C558 H548 0.930 . S
C558 C556 1.419 . S
C558 C559 1.362 . S
C559 H549 0.930 . S
C559 C552 1.409 . S
C559 C558 1.362 . S
H560 C566 0.930 . S
H561 C569 0.930 . S
H562 C570 0.930 . S
H563 C571 0.930 . S
H564 C574 0.930 . S
H565 C575 0.930 . S
C566 H560 0.930 . S
C566 C567 1.355 . S
C566 C568 1.415 . S
C567 C566 1.355 . S
C567 C569 1.419 . S
C568 C566 1.415 . S
C568 C573 1.425 . S
C568 C575 1.409 . S
C569 H561 0.930 . S
C569 C567 1.419 . S
C569 C570 1.362 . S
C570 H562 0.930 . S
C570 C569 1.362 . S
C570 C573 1.409 . S
C571 H563 0.930 . S
C571 C572 1.355 . S
C571 C573 1.415 . S
C572 C571 1.355 . S
C572 C574 1.419 . S
C573 C568 1.425 . S
C573 C570 1.409 . S
C573 C571 1.415 . S
C574 H564 0.930 . S
C574 C572 1.419 . S
C574 C575 1.362 . S
C575 H565 0.930 . S
C575 C568 1.409 . S
C575 C574 1.362 . S
H576 C582 0.930 . S
H577 C585 0.930 . S
H578 C586 0.930 . S
H579 C587 0.930 . S
H580 C590 0.930 . S
H581 C591 0.930 . S
C582 H576 0.930 . S
C582 C583 1.355 1_554 S
C582 C584 1.415 . S
C583 C582 1.355 1_556 S
C583 C585 1.419 . S
C584 C582 1.415 . S
C584 C589 1.425 . S
C584 C591 1.409 . S
C585 H577 0.930 . S
C585 C583 1.419 . S
C585 C586 1.362 . S
C586 H578 0.930 . S
C586 C585 1.362 . S
C586 C589 1.409 1_556 S
C587 H579 0.930 . S
C587 C588 1.355 . S
C587 C589 1.415 . S
C588 C587 1.355 . S
C588 C590 1.419 . S
C589 C584 1.425 . S
C589 C586 1.409 1_554 S
C589 C587 1.415 . S
C590 H580 0.930 . S
C590 C588 1.419 . S
C590 C591 1.362 . S
C591 H581 0.930 . S
C591 C584 1.409 . S
C591 C590 1.362 . S
C279 C5 1.696 . S
C284 C107 1.639 . S
C295 C39 1.505 . S
C300 C88 1.534 . S
C311 C77 1.520 . S
C316 C54 1.540 . S
C327 C122 1.367 . S
C332 C20 1.367 . S
C343 C141 1.690 . S
C348 C243 1.681 . S
C359 C224 1.533 . S
C364 C175 1.462 . S
C375 C190 1.535 . S
C380 C213 1.510 . S
C391 C258 1.366 . S
C396 C156 1.366 . S
C407 C101 1.662 . S
C412 C33 1.633 . S
C423 C67 1.501 . S
C428 C135 1.498 . S
C439 C237 1.657 . S
C444 C169 1.619 . S
C455 C271 1.493 . S
C460 C203 1.497 . S
C471 C2 1.954 . S
C476 C206 1.956 . S
C487 C36 1.232 . S
C492 C247 1.206 . S
C503 C73 1.314 . S
C508 C145 1.356 . S
C519 C179 1.617 . S
C524 C104 1.638 . S
C535 C70 1.958 . S
C540 C138 1.952 . S
C551 C111 1.224 . S
C556 C172 1.234 . S
C567 C9 1.385 . S
C572 C209 1.302 . S
C583 C43 1.591 . S
C588 C240 1.614 . S
