# Generated by pormake.
# Topology umo, (4)-cn, num edge types: 1
# Building blocks:
#     Node 0, Type 0, BuildingBlock: KUFVIS_clean_sbu_0, # of connection points: 4
#     Node 1, Type 0, BuildingBlock: KUFVIS_clean_sbu_0, # of connection points: 4
#     Node 2, Type 0, BuildingBlock: KUFVIS_clean_sbu_0, # of connection points: 4
#     Node 3, Type 0, BuildingBlock: KUFVIS_clean_sbu_0, # of connection points: 4
#     Node 4, Type 0, BuildingBlock: KUFVIS_clean_sbu_0, # of connection points: 4
#     Node 5, Type 0, BuildingBlock: KUFVIS_clean_sbu_0, # of connection points: 4
#     Node 6, Type 0, BuildingBlock: KUFVIS_clean_sbu_0, # of connection points: 4
#     Node 7, Type 0, BuildingBlock: KUFVIS_clean_sbu_0, # of connection points: 4
#     Node 8, Type 0, BuildingBlock: KUFVIS_clean_sbu_0, # of connection points: 4
#     Node 9, Type 0, BuildingBlock: KUFVIS_clean_sbu_0, # of connection points: 4
#     Node 10, Type 0, BuildingBlock: KUFVIS_clean_sbu_0, # of connection points: 4
#     Node 11, Type 0, BuildingBlock: KUFVIS_clean_sbu_0, # of connection points: 4
#     Edge 12, Type (0, 0), BuildingBlock: CIFDUS_clean_linker_0, # of connection points: 2
#     Edge 13, Type (0, 0), BuildingBlock: CIFDUS_clean_linker_0, # of connection points: 2
#     Edge 14, Type (0, 0), BuildingBlock: CIFDUS_clean_linker_0, # of connection points: 2
#     Edge 15, Type (0, 0), BuildingBlock: CIFDUS_clean_linker_0, # of connection points: 2
#     Edge 16, Type (0, 0), BuildingBlock: CIFDUS_clean_linker_0, # of connection points: 2
#     Edge 17, Type (0, 0), BuildingBlock: CIFDUS_clean_linker_0, # of connection points: 2
#     Edge 18, Type (0, 0), BuildingBlock: CIFDUS_clean_linker_0, # of connection points: 2
#     Edge 19, Type (0, 0), BuildingBlock: CIFDUS_clean_linker_0, # of connection points: 2
#     Edge 20, Type (0, 0), BuildingBlock: CIFDUS_clean_linker_0, # of connection points: 2
#     Edge 21, Type (0, 0), BuildingBlock: CIFDUS_clean_linker_0, # of connection points: 2
#     Edge 22, Type (0, 0), BuildingBlock: CIFDUS_clean_linker_0, # of connection points: 2
#     Edge 23, Type (0, 0), BuildingBlock: CIFDUS_clean_linker_0, # of connection points: 2
#     Edge 24, Type (0, 0), BuildingBlock: CIFDUS_clean_linker_0, # of connection points: 2
#     Edge 25, Type (0, 0), BuildingBlock: CIFDUS_clean_linker_0, # of connection points: 2
#     Edge 26, Type (0, 0), BuildingBlock: CIFDUS_clean_linker_0, # of connection points: 2
#     Edge 27, Type (0, 0), BuildingBlock: CIFDUS_clean_linker_0, # of connection points: 2
#     Edge 28, Type (0, 0), BuildingBlock: CIFDUS_clean_linker_0, # of connection points: 2
#     Edge 29, Type (0, 0), BuildingBlock: CIFDUS_clean_linker_0, # of connection points: 2
#     Edge 30, Type (0, 0), BuildingBlock: CIFDUS_clean_linker_0, # of connection points: 2
#     Edge 31, Type (0, 0), BuildingBlock: CIFDUS_clean_linker_0, # of connection points: 2
#     Edge 32, Type (0, 0), BuildingBlock: CIFDUS_clean_linker_0, # of connection points: 2
#     Edge 33, Type (0, 0), BuildingBlock: CIFDUS_clean_linker_0, # of connection points: 2
#     Edge 34, Type (0, 0), BuildingBlock: CIFDUS_clean_linker_0, # of connection points: 2
#     Edge 35, Type (0, 0), BuildingBlock: CIFDUS_clean_linker_0, # of connection points: 2
# Relax obj value: 0.191
# Max RMSD: 0.243
# Mean RMSD: 0.243
data_MOF--net-umo--node1-KUFVIS_clean_sbu_0--edge1-CIFDUS_clean_linker_0
_symmetry_space_group_name_H-M    P1
_symmetry_Int_Tables_number       1
_symmetry_cell_setting            triclinic
loop_
_symmetry_equiv_pos_as_xyz
'x, y, z'
_cell_length_a     41.337166
_cell_length_b     41.253607
_cell_length_c     33.840097
_cell_angle_alpha  89.986946
_cell_angle_beta   89.647728
_cell_angle_gamma 120.01866
loop_
_atom_site_label
_atom_site_type_symbol
_atom_site_fract_x
_atom_site_fract_y
_atom_site_fract_z
_atom_type_partial_charge
Mn0 Mn 0.16787 0.53972 0.38966 0.0
Mn1 Mn 0.11449 0.57758 0.41498 0.0
C2 C 0.1941 0.60333 0.39387 0.0
C3 C 0.1899 0.51735 0.33808 0.0
C4 C 0.14909 0.55094 0.47577 0.0
O5 O 0.1159 0.49541 0.38472 0.0
O6 O 0.08386 0.52288 0.40594 0.0
C7 C 0.08002 0.56523 0.33584 0.0
N8 N 0.10043 0.58903 0.36538 0.0
C9 C 0.11007 0.64252 0.32737 0.0
C10 C 0.08914 0.61857 0.29659 0.0
C11 C 0.07407 0.57976 0.30085 0.0
C12 C 0.11553 0.62646 0.36131 0.0
H13 H 0.06844 0.5354 0.33883 0.0
C14 C 0.08576 0.49432 0.39465 0.0
O15 O 0.19079 0.50802 0.37466 0.0
O16 O 0.17583 0.53863 0.33191 0.0
N17 N 0.13878 0.63026 0.42457 0.0
C18 C 0.15088 0.64822 0.45979 0.0
C19 C 0.1649 0.68698 0.46181 0.0
C20 C 0.16434 0.70648 0.42809 0.0
C21 C 0.1488 0.68687 0.39303 0.0
C22 C 0.13543 0.64826 0.39286 0.0
H23 H 0.14992 0.63302 0.48606 0.0
O24 O 0.21486 0.58807 0.39342 0.0
O25 O 0.15841 0.58116 0.38922 0.0
O26 O 0.16281 0.53683 0.45136 0.0
O27 O 0.13115 0.56749 0.46548 0.0
C28 C 0.14433 0.70377 0.35891 0.0
C29 C 0.12522 0.68163 0.32596 0.0
H30 H 0.08423 0.62964 0.26969 0.0
H31 H 0.05786 0.56108 0.27725 0.0
H32 H 0.17552 0.70165 0.48942 0.0
H33 H 0.17416 0.73613 0.43006 0.0
H34 H 0.15477 0.73365 0.35802 0.0
H35 H 0.12153 0.69486 0.30007 0.0
Mn36 Mn 0.58876 0.16861 0.55414 0.0
Mn37 Mn 0.49602 0.11987 0.57466 0.0
C38 C 0.5552 0.19879 0.55453 0.0
C39 C 0.6358 0.18781 0.50527 0.0
C40 C 0.55362 0.15227 0.63906 0.0
O41 O 0.57772 0.11532 0.55116 0.0
O42 O 0.5175 0.08646 0.56994 0.0
C43 C 0.47784 0.08452 0.49557 0.0
N44 N 0.47404 0.10634 0.52334 0.0
C45 C 0.43619 0.11942 0.4797 0.0
C46 C 0.43969 0.09707 0.4507 0.0
C47 C 0.46062 0.07956 0.45869 0.0
C48 C 0.45439 0.12372 0.51573 0.0
H49 H 0.494 0.07109 0.50136 0.0
C50 C 0.54737 0.08623 0.5606 0.0
O51 O 0.64359 0.18814 0.54256 0.0
O52 O 0.60118 0.17551 0.49688 0.0
N53 N 0.46967 0.14684 0.57971 0.0
C54 C 0.46199 0.15993 0.61337 0.0
C55 C 0.43985 0.17689 0.61139 0.0
C56 C 0.42383 0.17797 0.57529 0.0
C57 C 0.42904 0.16093 0.54195 0.0
C58 C 0.45176 0.14487 0.54572 0.0
H59 H 0.47353 0.15825 0.64131 0.0
O60 O 0.5913 0.21747 0.55523 0.0
O61 O 0.53944 0.1626 0.55064 0.0
O62 O 0.58252 0.16435 0.61594 0.0
O63 O 0.51972 0.13594 0.62678 0.0
C64 C 0.41112 0.15768 0.50567 0.0
C65 C 0.41489 0.13712 0.47447 0.0
H66 H 0.42622 0.09296 0.42231 0.0
H67 H 0.46346 0.06226 0.43648 0.0
H68 H 0.43482 0.18872 0.63767 0.0
H69 H 0.40622 0.19042 0.57387 0.0
H70 H 0.39369 0.17015 0.50178 0.0
H71 H 0.40058 0.13437 0.44689 0.0
Mn72 Mn 0.43588 0.62293 0.7237 0.0
Mn73 Mn 0.40063 0.52958 0.73556 0.0
C74 C 0.37276 0.58383 0.72839 0.0
C75 C 0.4575 0.6734 0.67944 0.0
C76 C 0.4282 0.58385 0.8043 0.0
O77 O 0.48056 0.61731 0.71148 0.0
O78 O 0.4542 0.55509 0.71994 0.0
C79 C 0.40654 0.51472 0.65087 0.0
N80 N 0.38528 0.50844 0.684 0.0
C81 C 0.32908 0.46748 0.64858 0.0
C82 C 0.35043 0.47349 0.61416 0.0
C83 C 0.38933 0.49723 0.61533 0.0
C84 C 0.34777 0.48592 0.68308 0.0
H85 H 0.4364 0.53302 0.65146 0.0
C86 C 0.48192 0.58731 0.71146 0.0
O87 O 0.46668 0.67882 0.71658 0.0
O88 O 0.43644 0.63913 0.66836 0.0
N89 N 0.34889 0.50019 0.74975 0.0
C90 C 0.33318 0.49293 0.78655 0.0
C91 C 0.29461 0.46836 0.79101 0.0
C92 C 0.27285 0.45045 0.75775 0.0
C93 C 0.29 0.45646 0.72054 0.0
C94 C 0.32858 0.48117 0.71799 0.0
H95 H 0.34978 0.50642 0.81221 0.0
O96 O 0.38713 0.61958 0.73293 0.0
O97 O 0.39545 0.57193 0.71854 0.0
O98 O 0.43924 0.61393 0.78371 0.0
O99 O 0.41439 0.5511 0.78913 0.0
C100 C 0.27052 0.43801 0.6861 0.0
C101 C 0.29003 0.44367 0.65009 0.0
H102 H 0.33726 0.45993 0.58671 0.0
H103 H 0.40602 0.50204 0.58888 0.0
H104 H 0.28172 0.4632 0.81999 0.0
H105 H 0.24323 0.43126 0.76129 0.0
H106 H 0.24062 0.41901 0.68711 0.0
H107 H 0.27481 0.4291 0.62386 0.0
Mn108 Mn 0.81268 0.4363 0.91252 0.0
Mn109 Mn 0.86238 0.39425 0.93539 0.0
C110 C 0.78204 0.37472 0.93176 0.0
C111 C 0.78878 0.45421 0.85922 0.0
C112 C 0.84957 0.44374 0.99245 0.0
O113 O 0.86507 0.47386 0.89469 0.0
O114 O 0.89208 0.43843 0.90088 0.0
C115 C 0.86623 0.36836 0.85472 0.0
N116 N 0.85594 0.36046 0.89341 0.0
C117 C 0.82742 0.29425 0.88152 0.0
C118 C 0.83779 0.30174 0.84159 0.0
C119 C 0.8573 0.33897 0.82815 0.0
C120 C 0.83695 0.3247 0.90657 0.0
H121 H 0.88102 0.39685 0.84415 0.0
C122 C 0.89184 0.4677 0.88889 0.0
O123 O 0.79403 0.47054 0.89342 0.0
O124 O 0.79676 0.42779 0.85662 0.0
N125 N 0.83701 0.35033 0.96783 0.0
C126 C 0.83302 0.34808 1.00792 0.0
C127 C 0.81529 0.31283 0.02646 0.0
C128 C 0.80285 0.2803 1.00371 0.0
C129 C 0.80937 0.28344 0.96282 0.0
C130 C 0.82745 0.31937 0.94608 0.0
H131 H 0.84329 0.37295 0.02566 0.0
O132 O 0.76417 0.39302 0.9296 0.0
O133 O 0.81635 0.39206 0.91939 0.0
O134 O 0.82717 0.44939 0.97116 0.0
O135 O 0.86714 0.42725 0.9803 0.0
C136 C 0.79932 0.2524 0.93813 0.0
C137 C 0.80811 0.25777 0.89745 0.0
H138 H 0.83099 0.27914 0.82101 0.0
H139 H 0.86537 0.345 0.79736 0.0
H140 H 0.81127 0.31076 0.05819 0.0
H141 H 0.78903 0.25313 0.01805 0.0
H142 H 0.78521 0.2243 0.95022 0.0
H143 H 0.80031 0.23367 0.87879 0.0
Mn144 Mn 0.36222 0.81027 0.05792 0.0
Mn145 Mn 0.45598 0.86485 0.06708 0.0
C146 C 0.39882 0.78352 0.06592 0.0
C147 C 0.31165 0.78079 0.01477 0.0
C148 C 0.402 0.84638 0.13583 0.0
O149 O 0.37077 0.86083 0.04116 0.0
O150 O 0.43331 0.8943 0.04724 0.0
C151 C 0.47152 0.87825 0.98118 0.0
N152 N 0.47661 0.86513 0.01617 0.0
C153 C 0.51432 0.84306 0.98463 0.0
C154 C 0.50954 0.85644 0.94831 0.0
C155 C 0.48804 0.8741 0.9466 0.0
C156 C 0.49693 0.84773 0.01804 0.0
H157 H 0.45487 0.89164 0.97959 0.0
C158 C 0.40177 0.89109 0.03855 0.0
O159 O 0.30669 0.78747 0.05124 0.0
O160 O 0.34548 0.79128 1.00378 0.0
N161 N 0.48255 0.84082 0.08514 0.0
C162 C 0.48944 0.83521 0.1231 0.0
C163 C 0.51191 0.81928 0.13047 0.0
C164 C 0.52836 0.81075 0.09874 0.0
C165 C 0.52314 0.81935 0.06004 0.0
C166 C 0.5005 0.83531 0.05465 0.0
H167 H 0.47822 0.84322 0.14754 0.0
O168 O 0.36307 0.76407 0.07178 0.0
O169 O 0.41202 0.81755 0.05323 0.0
O170 O 0.3716 0.82687 0.11652 0.0
O171 O 0.43479 0.8624 0.12029 0.0
C172 C 0.5405 0.81391 0.02677 0.0
C173 C 0.5359 0.82554 0.98904 0.0
H174 H 0.52235 0.85342 0.92159 0.0
H175 H 0.48417 0.88447 0.91868 0.0
H176 H 0.51687 0.81399 0.16052 0.0
H177 H 0.54605 0.79898 0.10468 0.0
H178 H 0.55794 0.80137 0.02991 0.0
H179 H 0.54961 0.82147 0.96371 0.0
Mn180 Mn 0.5619 0.38579 0.23435 0.0
Mn181 Mn 0.60154 0.47743 0.25914 0.0
C182 C 0.62531 0.4213 0.24001 0.0
C183 C 0.53866 0.34185 0.18241 0.0
C184 C 0.57194 0.41583 0.32049 0.0
O185 O 0.51923 0.39555 0.22787 0.0
O186 O 0.54734 0.45527 0.24822 0.0
C187 C 0.59261 0.50034 0.17874 0.0
N188 N 0.61515 0.50285 0.20922 0.0
C189 C 0.67029 0.54413 0.17159 0.0
C190 C 0.64764 0.54202 0.1399 0.0
C191 C 0.60863 0.52002 0.14351 0.0
C192 C 0.65274 0.52356 0.20582 0.0
H193 H 0.56262 0.48333 0.18115 0.0
C194 C 0.51881 0.42523 0.23631 0.0
O195 O 0.5286 0.33144 0.2189 0.0
O196 O 0.56161 0.37702 0.1766 0.0
N197 N 0.65388 0.5043 0.27012 0.0
C198 C 0.67078 0.51008 0.30592 0.0
C199 C 0.70974 0.53299 0.30844 0.0
C200 C 0.7306 0.55145 0.27452 0.0
C201 C 0.7121 0.54809 0.23887 0.0
C202 C 0.67324 0.52467 0.23824 0.0
H203 H 0.65463 0.49681 0.33217 0.0
O204 O 0.60909 0.38514 0.23933 0.0
O205 O 0.60423 0.43602 0.23469 0.0
O206 O 0.55794 0.38805 0.29606 0.0
O207 O 0.58924 0.45045 0.31008 0.0
C208 C 0.73046 0.5684 0.20448 0.0
C209 C 0.70957 0.56624 0.17076 0.0
H210 H 0.65988 0.55734 0.11275 0.0
H211 H 0.59094 0.51822 0.11917 0.0
H212 H 0.72358 0.53665 0.33648 0.0
H213 H 0.76055 0.56944 0.2766 0.0
H214 H 0.76053 0.5864 0.20394 0.0
H215 H 0.72393 0.58236 0.14466 0.0
Mn216 Mn 0.42992 0.81385 0.45078 0.0
Mn217 Mn 0.38403 0.86179 0.43796 0.0
C218 C 0.36606 0.78207 0.44603 0.0
C219 C 0.4559 0.79051 0.49624 0.0
C220 C 0.42085 0.84344 0.37038 0.0
O221 O 0.47007 0.8671 0.46171 0.0
O222 O 0.43559 0.89531 0.45691 0.0
C223 C 0.38049 0.87791 0.52268 0.0
N224 N 0.36275 0.86238 0.48814 0.0
C225 C 0.30244 0.83855 0.51909 0.0
C226 C 0.32009 0.85439 0.55496 0.0
C227 C 0.35929 0.87412 0.55674 0.0
C228 C 0.32504 0.84298 0.48621 0.0
H229 H 0.41057 0.89296 0.52426 0.0
C230 C 0.46614 0.89564 0.46377 0.0
O231 O 0.46606 0.79523 0.45922 0.0
O232 O 0.43168 0.80004 0.50656 0.0
N233 N 0.33355 0.83345 0.42011 0.0
C234 C 0.32112 0.82429 0.38229 0.0
C235 C 0.28261 0.80591 0.37485 0.0
C236 C 0.25734 0.79818 0.40618 0.0
C237 C 0.27086 0.80968 0.44454 0.0
C238 C 0.30959 0.82813 0.45006 0.0
H239 H 0.34039 0.83045 0.35803 0.0
O240 O 0.38464 0.76465 0.44209 0.0
O241 O 0.38515 0.81731 0.4551 0.0
O242 O 0.43294 0.8254 0.39081 0.0
O243 O 0.40399 0.8595 0.3855 0.0
C244 C 0.24755 0.80459 0.4773 0.0
C245 C 0.26333 0.81881 0.5146 0.0
H246 H 0.30384 0.85167 0.58126 0.0
H247 H 0.37314 0.8864 0.58432 0.0
H248 H 0.27244 0.79782 0.34504 0.0
H249 H 0.22775 0.78439 0.40013 0.0
H250 H 0.21749 0.79022 0.47404 0.0
H251 H 0.24513 0.8149 0.53952 0.0
Mn252 Mn 0.61285 0.43605 0.64148 0.0
Mn253 Mn 0.52171 0.40419 0.62094 0.0
C254 C 0.57257 0.37316 0.63734 0.0
C255 C 0.65803 0.45698 0.69153 0.0
C256 C 0.58068 0.42742 0.55658 0.0
O257 O 0.60884 0.48225 0.64825 0.0
O258 O 0.54867 0.4588 0.63213 0.0
C259 C 0.50368 0.41656 0.70253 0.0
N260 N 0.49797 0.39289 0.67187 0.0
C261 C 0.45429 0.33969 0.71056 0.0
C262 C 0.45971 0.36353 0.74245 0.0
C263 C 0.48452 0.40213 0.73839 0.0
C264 C 0.47448 0.35564 0.67565 0.0
H265 H 0.5228 0.44623 0.6998 0.0
C266 C 0.58049 0.48569 0.64263 0.0
O267 O 0.66789 0.46547 0.65466 0.0
O268 O 0.62272 0.43674 0.69877 0.0
N269 N 0.49043 0.35184 0.61046 0.0
C270 C 0.48232 0.33413 0.57487 0.0
C271 C 0.45655 0.29559 0.573 0.0
C272 C 0.43783 0.27609 0.60743 0.0
C273 C 0.44398 0.29559 0.64302 0.0
C274 C 0.47017 0.33395 0.64302 0.0
H275 H 0.49619 0.34912 0.54833 0.0
O276 O 0.6083 0.38633 0.63692 0.0
O277 O 0.56114 0.39701 0.64312 0.0
O278 O 0.60903 0.43872 0.57989 0.0
O279 O 0.54681 0.4141 0.56878 0.0
C280 C 0.42396 0.27878 0.67804 0.0
C281 C 0.42926 0.3008 0.71188 0.0
H282 H 0.44481 0.35253 0.7701 0.0
H283 H 0.48887 0.42074 0.76287 0.0
H284 H 0.45101 0.28102 0.54508 0.0
H285 H 0.41765 0.24651 0.60594 0.0
H286 H 0.40382 0.24909 0.67901 0.0
H287 H 0.41336 0.28767 0.7385 0.0
Mn288 Mn 0.16905 0.60793 0.79173 0.0
Mn289 Mn 0.11637 0.51423 0.77867 0.0
C290 C 0.19664 0.57194 0.79135 0.0
C291 C 0.1932 0.65861 0.83538 0.0
C292 C 0.14601 0.5687 0.71012 0.0
O293 O 0.11701 0.59925 0.79923 0.0
O294 O 0.08492 0.53752 0.78721 0.0
C295 C 0.08746 0.49941 0.861 0.0
N296 N 0.10637 0.49384 0.83109 0.0
C297 C 0.12028 0.45516 0.87277 0.0
C298 C 0.10092 0.46046 0.90394 0.0
C299 C 0.08447 0.4827 0.89801 0.0
C300 C 0.12271 0.47287 0.83665 0.0
H301 H 0.07483 0.51656 0.8568 0.0
C302 C 0.08664 0.5686 0.79543 0.0
O303 O 0.19087 0.66345 0.79772 0.0
O304 O 0.18073 0.62462 0.84741 0.0
N305 N 0.14176 0.48657 0.77096 0.0
C306 C 0.15346 0.47886 0.73631 0.0
C307 C 0.16915 0.45551 0.73647 0.0
C308 C 0.17094 0.43888 0.77196 0.0
C309 C 0.1562 0.44499 0.80671 0.0
C310 C 0.14107 0.46866 0.8047 0.0
H311 H 0.15157 0.49107 0.7089 0.0
O312 O 0.21647 0.60789 0.78707 0.0
O313 O 0.16115 0.55792 0.79859 0.0
O314 O 0.16081 0.59869 0.73121 0.0
O315 O 0.12861 0.53549 0.72473 0.0
C316 C 0.15463 0.42736 0.8429 0.0
C317 C 0.13688 0.43263 0.87599 0.0
H318 H 0.09836 0.44743 0.93246 0.0
H319 H 0.06948 0.48694 0.92192 0.0
H320 H 0.17953 0.45012 0.70928 0.0
H321 H 0.18235 0.42032 0.77191 0.0
H322 H 0.16641 0.40917 0.84542 0.0
H323 H 0.13551 0.41864 0.90357 0.0
Mn324 Mn 0.53903 0.17468 0.96123 0.0
Mn325 Mn 0.57328 0.11834 0.93508 0.0
C326 C 0.60117 0.19957 0.94853 0.0
C327 C 0.52218 0.20047 0.01433 0.0
C328 C 0.54251 0.15004 0.87513 0.0
O329 O 0.49561 0.12354 0.97348 0.0
O330 O 0.51971 0.08901 0.95053 0.0
C331 C 0.5675 0.08955 0.0167 0.0
N332 N 0.58873 0.10779 0.9844 0.0
C333 C 0.64518 0.12152 0.01839 0.0
C334 C 0.62389 0.1029 0.05194 0.0
C335 C 0.58488 0.08682 0.05106 0.0
C336 C 0.62634 0.12369 0.98512 0.0
H337 H 0.53755 0.07727 0.01643 0.0
C338 C 0.49308 0.09235 0.96553 0.0
O339 O 0.50933 0.19919 0.97896 0.0
O340 O 0.54401 0.1868 0.01841 0.0
N341 N 0.62486 0.14124 0.92019 0.0
C342 C 0.63993 0.15003 0.88315 0.0
C343 C 0.67853 0.16475 0.8779 0.0
C344 C 0.70085 0.1682 0.91051 0.0
C345 C 0.68404 0.15524 0.94765 0.0
C346 C 0.64545 0.14107 0.95097 0.0
H347 H 0.62257 0.14594 0.85794 0.0
O348 O 0.58657 0.22092 0.95014 0.0
O349 O 0.5797 0.1645 0.95774 0.0
O350 O 0.53033 0.1652 0.90022 0.0
O351 O 0.5593 0.13208 0.88472 0.0
C352 C 0.7037 0.15418 0.98102 0.0
C353 C 0.68431 0.13754 0.01646 0.0
H354 H 0.63717 0.10055 0.07843 0.0
H355 H 0.56823 0.07236 0.07683 0.0
H356 H 0.69094 0.17301 0.84875 0.0
H357 H 0.73052 0.17917 0.9063 0.0
H358 H 0.73358 0.1652 0.97948 0.0
H359 H 0.69964 0.1364 0.04176 0.0
Mn360 Mn 0.37627 0.54999 0.12395 0.0
Mn361 Mn 0.46863 0.59346 0.10154 0.0
C362 C 0.40975 0.6138 0.11793 0.0
C363 C 0.33105 0.52545 0.17483 0.0
C364 C 0.4087 0.56054 0.03906 0.0
O365 O 0.38818 0.50879 0.13218 0.0
O366 O 0.44892 0.5399 0.11493 0.0
C367 C 0.49148 0.58833 0.18309 0.0
N368 N 0.49321 0.60952 0.15138 0.0
C369 C 0.53288 0.66649 0.18651 0.0
C370 C 0.53157 0.64526 0.21947 0.0
C371 C 0.51075 0.606 0.21775 0.0
C372 C 0.51273 0.64732 0.15296 0.0
H373 H 0.47544 0.55817 0.18207 0.0
C374 C 0.41919 0.51035 0.12605 0.0
O375 O 0.32194 0.51504 0.13833 0.0
O376 O 0.36572 0.54936 0.18128 0.0
N377 N 0.49291 0.64554 0.08842 0.0
C378 C 0.49711 0.66133 0.05202 0.0
C379 C 0.51885 0.70034 0.04768 0.0
C380 C 0.53757 0.72252 0.08046 0.0
C381 C 0.53514 0.70541 0.117 0.0
C382 C 0.51298 0.66639 0.11944 0.0
H383 H 0.48405 0.64423 0.02652 0.0
O384 O 0.3736 0.59616 0.11737 0.0
O385 O 0.42553 0.59388 0.12451 0.0
O386 O 0.38019 0.54611 0.06265 0.0
O387 O 0.44281 0.57871 0.05035 0.0
C388 C 0.55515 0.72536 0.15059 0.0
C389 C 0.5538 0.70592 0.18544 0.0
H390 H 0.54659 0.65878 0.24616 0.0
H391 H 0.50957 0.58939 0.24306 0.0
H392 H 0.52165 0.71321 0.01904 0.0
H393 H 0.55508 0.75245 0.07676 0.0
H394 H 0.57221 0.7556 0.14971 0.0
H395 H 0.56961 0.72151 0.21096 0.0
Mn396 Mn 0.81412 0.37782 0.30787 0.0
Mn397 Mn 0.87437 0.47048 0.29373 0.0
C398 C 0.79225 0.41893 0.30987 0.0
C399 C 0.78826 0.32877 0.35469 0.0
C400 C 0.83954 0.4164 0.22572 0.0
O401 O 0.86423 0.38071 0.31069 0.0
O402 O 0.90141 0.44278 0.30249 0.0
C403 C 0.90227 0.48374 0.3759 0.0
N404 N 0.88536 0.4913 0.34571 0.0
C405 C 0.8754 0.53338 0.38644 0.0
C406 C 0.89282 0.52615 0.41791 0.0
C407 C 0.90629 0.50119 0.4126 0.0
C408 C 0.87185 0.51487 0.35067 0.0
H409 H 0.91247 0.46443 0.37208 0.0
C410 C 0.89614 0.40981 0.30761 0.0
O411 O 0.78712 0.32171 0.31704 0.0
O412 O 0.80494 0.3636 0.36454 0.0
N413 N 0.85341 0.50199 0.28506 0.0
C414 C 0.84412 0.51129 0.24997 0.0
C415 C 0.8315 0.5372 0.2494 0.0
C416 C 0.83049 0.55473 0.28459 0.0
C417 C 0.84326 0.54709 0.31973 0.0
C418 C 0.8553 0.52085 0.31842 0.0
H419 H 0.84559 0.49838 0.22275 0.0
O420 O 0.76945 0.38329 0.30731 0.0
O421 O 0.82745 0.42959 0.31411 0.0
O422 O 0.82014 0.38636 0.24658 0.0
O423 O 0.86113 0.44884 0.24049 0.0
C424 C 0.84593 0.56558 0.35559 0.0
C425 C 0.8618 0.55856 0.38901 0.0
H426 H 0.89616 0.53971 0.4462 0.0
H427 H 0.91974 0.49542 0.43676 0.0
H428 H 0.82284 0.54384 0.2219 0.0
H429 H 0.82127 0.57508 0.28401 0.0
H430 H 0.83651 0.58575 0.3576 0.0
H431 H 0.86407 0.57324 0.41631 0.0
H432 H 0.21532 0.64151 0.46143 0.0
H433 H 0.21735 0.65389 0.33501 0.0
H434 H 0.27113 0.71725 0.34002 0.0
H435 H 0.32576 0.75973 0.38006 0.0
H436 H 0.31782 0.75282 0.50696 0.0
H437 H 0.25645 0.69604 0.50262 0.0
C438 C 0.2259 0.65912 0.4353 0.0
C439 C 0.2124 0.64374 0.39801 0.0
C440 C 0.25566 0.69574 0.43859 0.0
C441 C 0.2271 0.66584 0.36401 0.0
C442 C 0.25799 0.70176 0.36686 0.0
C443 C 0.30937 0.74732 0.40668 0.0
C444 C 0.32556 0.76036 0.44371 0.0
C445 C 0.27375 0.71589 0.40389 0.0
C446 C 0.30519 0.74332 0.47821 0.0
C447 C 0.27041 0.71079 0.47571 0.0
H448 H 0.5376 0.21313 0.62555 0.0
H449 H 0.53655 0.23489 0.50134 0.0
H450 H 0.5367 0.29298 0.51653 0.0
H451 H 0.55428 0.34316 0.56565 0.0
H452 H 0.54325 0.31638 0.68971 0.0
H453 H 0.52927 0.25265 0.67432 0.0
C454 C 0.53432 0.22897 0.60189 0.0
C455 C 0.53603 0.21951 0.56248 0.0
C456 C 0.53286 0.2612 0.61089 0.0
C457 C 0.53408 0.24131 0.53188 0.0
C458 C 0.5347 0.27467 0.54056 0.0
C459 C 0.54615 0.32254 0.58913 0.0
C460 C 0.54878 0.33372 0.6286 0.0
C461 C 0.53645 0.28581 0.57999 0.0
C462 C 0.54023 0.30767 0.6591 0.0
C463 C 0.53263 0.27152 0.65032 0.0
H464 H 0.21426 0.5523 0.72328 0.0
H465 H 0.2249 0.54924 0.84946 0.0
H466 H 0.2819 0.54574 0.84086 0.0
H467 H 0.33592 0.56269 0.79694 0.0
H468 H 0.32135 0.55677 0.6708 0.0
H469 H 0.25692 0.54332 0.67952 0.0
C470 C 0.22753 0.54801 0.74876 0.0
C471 C 0.2156 0.55057 0.78686 0.0
C472 C 0.25948 0.54512 0.74349 0.0
C473 C 0.23353 0.54657 0.81991 0.0
C474 C 0.26628 0.54509 0.81497 0.0
C475 C 0.31776 0.55597 0.77155 0.0
C476 C 0.33267 0.56025 0.7334 0.0
C477 C 0.28072 0.54709 0.77688 0.0
C478 C 0.30979 0.55289 0.7004 0.0
C479 C 0.27323 0.54554 0.70539 0.0
H480 H 0.751 0.31866 0.88121 0.0
H481 H 0.76358 0.34504 1.00501 0.0
H482 H 0.7141 0.28172 0.02138 0.0
H483 H 0.65688 0.22703 0.99933 0.0
H484 H 0.6311 0.21485 0.8755 0.0
H485 H 0.69523 0.26243 0.85917 0.0
C486 C 0.74366 0.30966 0.91172 0.0
C487 C 0.76148 0.33532 0.94211 0.0
C488 C 0.71195 0.27528 0.92032 0.0
C489 C 0.75096 0.32483 0.98151 0.0
C490 C 0.72235 0.28889 0.99071 0.0
C491 C 0.66619 0.23384 0.96882 0.0
C492 C 0.64047 0.21666 0.93843 0.0
C493 C 0.70111 0.26481 0.96023 0.0
C494 C 0.65135 0.22685 0.89901 0.0
C495 C 0.68774 0.25442 0.88983 0.0
H496 H 0.42176 0.76506 0.13159 0.0
H497 H 0.42019 0.757 1.00472 0.0
H498 H 0.43169 0.70436 1.00896 0.0
H499 H 0.42432 0.65188 0.05027 0.0
H500 H 0.43436 0.66437 0.17657 0.0
H501 H 0.43861 0.72561 0.17142 0.0
C502 C 0.42622 0.75316 0.10493 0.0
C503 C 0.42035 0.76448 0.06796 0.0
C504 C 0.43383 0.72384 0.10763 0.0
C505 C 0.42507 0.74861 0.03339 0.0
C506 C 0.43133 0.71846 0.03584 0.0
C507 C 0.43002 0.66921 0.07632 0.0
C508 C 0.42945 0.6543 0.11364 0.0
C509 C 0.43331 0.70447 0.07296 0.0
C510 C 0.4354 0.67598 0.14755 0.0
C511 C 0.43738 0.71066 0.14462 0.0
H512 H 0.7805 0.44286 0.24152 0.0
H513 H 0.76423 0.443 0.36719 0.0
H514 H 0.70928 0.44955 0.35658 0.0
H515 H 0.65817 0.43644 0.3104 0.0
H516 H 0.68 0.44772 0.18518 0.0
H517 H 0.74247 0.45678 0.19645 0.0
C518 C 0.76698 0.44772 0.26658 0.0
C519 C 0.77662 0.44331 0.30502 0.0
C520 C 0.73638 0.45261 0.26021 0.0
C521 C 0.7576 0.44727 0.33739 0.0
C522 C 0.72592 0.45039 0.33131 0.0
C523 C 0.67763 0.44353 0.28587 0.0
C524 C 0.66525 0.44221 0.24718 0.0
C525 C 0.71379 0.45041 0.29272 0.0
C526 C 0.68968 0.44958 0.21524 0.0
C527 C 0.72512 0.45445 0.22167 0.0
H528 H 0.13049 0.51292 0.65696 0.0
H529 H 0.17289 0.63205 0.66425 0.0
H530 H 0.18133 0.63728 0.59255 0.0
H531 H 0.17452 0.60771 0.52779 0.0
H532 H 0.13264 0.48908 0.5202 0.0
H533 H 0.12788 0.48416 0.5926 0.0
C534 C 0.14182 0.54016 0.64313 0.0
C535 C 0.15079 0.57204 0.66633 0.0
C536 C 0.14722 0.54308 0.60194 0.0
C537 C 0.16548 0.60699 0.6474 0.0
C538 C 0.17047 0.61004 0.60635 0.0
C539 C 0.16446 0.58082 0.54203 0.0
C540 C 0.15351 0.5487 0.51881 0.0
C541 C 0.16117 0.57824 0.58337 0.0
C542 C 0.14149 0.51417 0.53753 0.0
C543 C 0.13834 0.51135 0.57883 0.0
H544 H 0.50134 0.14242 0.69493 0.0
H545 H 0.61747 0.17379 0.682 0.0
H546 H 0.62446 0.17869 0.75384 0.0
H547 H 0.59689 0.1712 0.82001 0.0
H548 H 0.48109 0.13944 0.83349 0.0
H549 H 0.47484 0.13871 0.76123 0.0
C550 C 0.52833 0.15051 0.70758 0.0
C551 C 0.5588 0.15733 0.68271 0.0
C552 C 0.53216 0.15337 0.74893 0.0
C553 C 0.59351 0.16818 0.70011 0.0
C554 C 0.59751 0.17097 0.74125 0.0
C555 C 0.57022 0.16385 0.8072 0.0
C556 C 0.53926 0.15456 0.83207 0.0
C557 C 0.56691 0.16311 0.76588 0.0
C558 C 0.50526 0.14663 0.81501 0.0
C559 C 0.50169 0.14595 0.77373 0.0
H560 H 0.43245 0.61781 0.98746 0.0
H561 H 0.37379 0.49742 0.99384 0.0
H562 H 0.3761 0.49416 0.92144 0.0
H563 H 0.39871 0.5258 0.85737 0.0
H564 H 0.45661 0.64662 0.85105 0.0
H565 H 0.45236 0.64954 0.92291 0.0
C566 C 0.42018 0.59089 0.97294 0.0
C567 C 0.40324 0.55787 0.99581 0.0
C568 C 0.4223 0.58941 0.93157 0.0
C569 C 0.38659 0.52312 0.97675 0.0
C570 C 0.38838 0.52135 0.93546 0.0
C571 C 0.41028 0.5529 0.87142 0.0
C572 C 0.42804 0.58601 0.84836 0.0
C573 C 0.40685 0.55435 0.91268 0.0
C574 C 0.443 0.62069 0.86771 0.0
C575 C 0.44034 0.62237 0.90886 0.0
H576 H 0.88843 0.46669 0.17265 0.0
H577 H 0.78164 0.36481 0.18024 0.0
H578 H 0.77313 0.36801 0.10898 0.0
H579 H 0.79659 0.39953 0.04444 0.0
H580 H 0.90568 0.49769 0.0364 0.0
H581 H 0.91215 0.49737 0.10845 0.0
C582 C 0.86324 0.44503 0.15883 0.0
C583 C 0.83571 0.41542 0.18195 0.0
C584 C 0.8586 0.44709 0.11799 0.0
C585 C 0.80347 0.3876 0.16325 0.0
C586 C 0.79841 0.38969 0.12257 0.0
C587 C 0.82132 0.42132 0.05873 0.0
C588 C 0.8502 0.44928 0.03551 0.0
C589 C 0.82569 0.41943 0.09973 0.0
C590 C 0.88275 0.47663 0.05392 0.0
C591 C 0.88661 0.47603 0.09495 0.0
H592 H 0.42755 0.81526 0.18758 0.0
H593 H 0.37208 0.87987 0.18107 0.0
H594 H 0.37502 0.88647 0.25338 0.0
H595 H 0.39486 0.87504 0.31759 0.0
H596 H 0.45051 0.81008 0.32371 0.0
H597 H 0.44776 0.80405 0.25182 0.0
C598 C 0.4167 0.8313 0.202 0.0
C599 C 0.40023 0.84766 0.17926 0.0
C600 C 0.41907 0.83535 0.24324 0.0
C601 C 0.3848 0.86705 0.19819 0.0
C602 C 0.3868 0.87103 0.23937 0.0
C603 C 0.40657 0.85961 0.30341 0.0
C604 C 0.42289 0.843 0.32641 0.0
C605 C 0.4042 0.85559 0.26212 0.0
C606 C 0.43794 0.82331 0.30705 0.0
C607 C 0.43614 0.81961 0.26589 0.0
H608 H 0.62691 0.44613 0.37506 0.0
H609 H 0.50869 0.37037 0.36282 0.0
H610 H 0.50119 0.36779 0.43495 0.0
H611 H 0.52752 0.39104 0.50033 0.0
H612 H 0.64634 0.46437 0.51357 0.0
H613 H 0.65429 0.4649 0.44169 0.0
C614 C 0.59955 0.42891 0.38824 0.0
C615 C 0.56827 0.40874 0.36368 0.0
C616 C 0.59556 0.42771 0.42965 0.0
C617 C 0.53313 0.38589 0.3811 0.0
C618 C 0.52886 0.38477 0.42228 0.0
C619 C 0.55533 0.40684 0.48791 0.0
C620 C 0.58628 0.42777 0.51282 0.0
C621 C 0.55976 0.40618 0.44674 0.0
C622 C 0.62196 0.44813 0.49544 0.0
C623 C 0.62652 0.44835 0.45428 0.0
H624 H 0.91676 0.39817 0.37798 0.0
H625 H 0.94996 0.41867 0.25561 0.0
H626 H 0.01417 0.43679 0.27324 0.0
H627 H 0.0622 0.46249 0.32429 0.0
H628 H 0.02979 0.45379 0.44669 0.0
H629 H 0.96405 0.41438 0.42901 0.0
C630 C 0.93787 0.40496 0.35525 0.0
C631 C 0.92922 0.40703 0.31574 0.0
C632 C 0.975 0.41806 0.36598 0.0
C633 C 0.95644 0.4167 0.28619 0.0
C634 C -0.00692 0.42739 0.29635 0.0
C635 C 0.04072 0.45034 0.34705 0.0
C636 C 0.05025 0.46058 0.38656 0.0
C637 C 0.00305 0.43047 0.33629 0.0
C638 C 0.02262 0.44581 0.41609 0.0
C639 C 0.98514 0.4237 0.40592 0.0
H640 H 0.47716 0.91591 0.53916 0.0
H641 H 0.52119 0.95295 0.42191 0.0
H642 H 0.55964 0.0173 0.44572 0.0
H643 H 0.56889 0.06374 0.49635 0.0
H644 H 0.51608 0.0268 0.61047 0.0
H645 H 0.49342 0.96159 0.59223 0.0
C646 C 0.49619 0.93804 0.51931 0.0
C647 C 0.49676 0.93037 0.47913 0.0
C648 C 0.51617 0.97493 0.53275 0.0
C649 C 0.5209 0.95871 0.45311 0.0
C650 C 0.54249 -0.00462 0.46666 0.0
C651 C 0.55368 0.04138 0.51762 0.0
C652 C 0.54397 0.04957 0.55455 0.0
C653 C 0.53876 0.00405 0.50594 0.0
C654 C 0.52369 0.02072 0.58186 0.0
C655 C 0.51057 0.98357 0.57133 0.0
H656 H 0.53383 0.57613 0.74691 0.0
H657 H 0.49945 0.59699 0.63444 0.0
H658 H 0.53487 0.57258 0.60001 0.0
H659 H 0.56179 0.53116 0.6038 0.0
H660 H 0.599 0.51319 0.71604 0.0
H661 H 0.57734 0.55162 0.74892 0.0
C662 C 0.53575 0.57695 0.71489 0.0
C663 C 0.51404 0.58768 0.69298 0.0
C664 C 0.55614 0.56292 0.69541 0.0
C665 C 0.51626 0.58877 0.65159 0.0
C666 C 0.53612 0.57447 0.63196 0.0
C667 C 0.56664 0.53722 0.63511 0.0
C668 C 0.58127 0.51924 0.65774 0.0
C669 C 0.55418 0.55934 0.65372 0.0
C670 C 0.58775 0.52703 0.69822 0.0
C671 C 0.57501 0.54861 0.71708 0.0
H672 H 0.01832 0.52606 0.7645 0.0
H673 H 0.07732 0.60549 0.85693 0.0
H674 H 0.01874 0.5848 0.89294 0.0
H675 H 0.95353 0.53425 0.9045 0.0
H676 H 0.89543 0.45461 0.81206 0.0
H677 H 0.95063 0.48524 0.76938 0.0
C678 C 0.01802 0.53971 0.79181 0.0
C679 C 0.0518 0.56659 0.80852 0.0
C680 C 0.98454 0.527 0.81271 0.0
C681 C 0.05143 0.58461 0.84361 0.0
C682 C 0.01804 0.57245 0.86446 0.0
C683 C 0.95288 0.52455 0.87456 0.0
C684 C 0.92134 0.49199 0.86138 0.0
C685 C 0.98483 0.54216 0.85037 0.0
C686 C 0.9201 0.47933 0.8227 0.0
C687 C 0.9515 0.49682 0.79836 0.0
H688 H 0.45302 0.02655 0.92804 0.0
H689 H 0.46414 0.08185 0.03926 0.0
H690 H 0.42963 0.02135 0.07284 0.0
H691 H 0.40976 0.95404 0.07198 0.0
H692 H 0.39752 0.89886 0.96051 0.0
H693 H 0.41846 0.95786 0.92519 0.0
C694 C 0.4464 0.02514 0.9593 0.0
C695 C 0.46128 0.05816 0.98139 0.0
C696 C 0.42703 0.99038 0.97835 0.0
C697 C 0.45268 0.05651 0.0218 0.0
C698 C 0.43342 0.02198 0.04107 0.0
C699 C 0.41036 0.95492 0.03993 0.0
C700 C 0.40271 0.92284 0.01858 0.0
C701 C 0.42244 0.98888 0.01996 0.0
C702 C 0.40346 0.92366 0.97718 0.0
C703 C 0.41561 0.95731 0.95708 0.0
H704 H 0.41426 0.4882 0.20056 0.0
H705 H 0.43703 0.46628 0.08228 0.0
H706 H 0.46212 0.42789 0.10826 0.0
H707 H 0.48946 0.41279 0.16432 0.0
H708 H 0.47836 0.44664 0.28165 0.0
H709 H 0.43618 0.46761 0.25707 0.0
C710 C 0.42344 0.47372 0.18066 0.0
C711 C 0.42364 0.47934 0.13981 0.0
C712 C 0.44042 0.45442 0.19591 0.0
C713 C 0.43645 0.4617 0.11387 0.0
C714 C 0.45103 0.44015 0.12874 0.0
C715 C 0.47656 0.42348 0.18456 0.0
C716 C 0.48637 0.42804 0.22458 0.0
C717 C 0.45489 0.43799 0.16969 0.0
C718 C 0.47069 0.44281 0.25073 0.0
C719 C 0.44691 0.45497 0.23662 0.0
H720 H 0.25047 0.50735 0.33833 0.0
H721 H 0.16731 0.507 0.26189 0.0
H722 H 0.2008 0.50356 0.20382 0.0
H723 H 0.25832 0.50949 0.17423 0.0
H724 H 0.34398 0.51535 0.25081 0.0
H725 H 0.30514 0.50729 0.30875 0.0
C726 C 0.23923 0.50548 0.30901 0.0
C727 C 0.20648 0.50743 0.30446 0.0
C728 C 0.25947 0.50496 0.27548 0.0
C729 C 0.19256 0.50563 0.26619 0.0
C730 C 0.21178 0.50381 0.23288 0.0
C731 C 0.26796 0.50799 0.20355 0.0
C732 C 0.30396 0.51303 0.2082 0.0
C733 C 0.24596 0.50475 0.23704 0.0
C734 C 0.31638 0.51166 0.24645 0.0
C735 C 0.29423 0.50717 0.27968 0.0
H736 H 0.72519 0.26 0.34791 0.0
H737 H 0.8074 0.33331 0.4317 0.0
H738 H 0.76991 0.29298 0.48618 0.0
H739 H 0.70962 0.24163 0.51092 0.0
H740 H 0.62564 0.1707 0.4273 0.0
H741 H 0.6677 0.2046 0.37243 0.0
C742 C 0.7353 0.26651 0.37799 0.0
C743 C 0.76899 0.29967 0.38568 0.0
C744 C 0.7129 0.24373 0.40952 0.0
C745 C 0.78147 0.30801 0.42495 0.0
C746 C 0.75995 0.28501 0.45622 0.0
C747 C 0.70094 0.23303 0.48072 0.0
C748 C 0.66446 0.20378 0.47331 0.0
C749 C 0.72498 0.25348 0.44905 0.0
C750 C 0.65351 0.19327 0.4339 0.0
C751 C 0.67753 0.21274 0.4024 0.0
H752 H 0.4708 0.67342 0.60104 0.0
H753 H 0.46537 0.74204 0.69396 0.0
H754 H 0.46849 0.78719 0.64481 0.0
H755 H 0.4643 0.8024 0.57512 0.0
H756 H 0.47241 0.73523 0.48228 0.0
H757 H 0.47738 0.6945 0.53164 0.0
C758 C 0.47109 0.69869 0.61051 0.0
C759 C 0.46742 0.70427 0.65098 0.0
C760 C 0.47313 0.72455 0.58209 0.0
C761 C 0.46825 0.73722 0.66299 0.0
C762 C 0.46975 0.76287 0.63487 0.0
C763 C 0.46801 0.77932 0.56575 0.0
C764 C 0.46761 0.77153 0.52516 0.0
C765 C 0.47096 0.75616 0.5943 0.0
C766 C 0.47278 0.74182 0.51332 0.0
C767 C 0.47529 0.71836 0.54156 0.0
H768 H 0.73517 0.47458 0.856 0.0
H769 H 0.80903 0.4542 0.78327 0.0
H770 H 0.77881 0.45913 0.72365 0.0
H771 H 0.72603 0.46105 0.69238 0.0
H772 H 0.64856 0.47551 0.76555 0.0
H773 H 0.68539 0.48164 0.82416 0.0
C774 C 0.74513 0.47215 0.82703 0.0
C775 C 0.77422 0.46401 0.82403 0.0
C776 C 0.7266 0.4736 0.79273 0.0
C777 C 0.78652 0.46032 0.78632 0.0
C778 C 0.7692 0.46305 0.75216 0.0
C779 C 0.71788 0.46654 0.72102 0.0
C780 C 0.68473 0.4679 0.72465 0.0
C781 C 0.73843 0.46851 0.75498 0.0
C782 C 0.67402 0.47431 0.76206 0.0
C783 C 0.69499 0.47767 0.79565 0.0
H784 H 0.31258 0.79172 0.93604 0.0
H785 H 0.24177 0.72263 0.03111 0.0
H786 H 0.196 0.68003 0.98314 0.0
H787 H 0.18074 0.65836 0.91414 0.0
H788 H 0.25054 0.72886 0.81919 0.0
H789 H 0.2919 0.77547 0.86708 0.0
C790 C 0.28671 0.76773 0.9462 0.0
C791 C 0.28062 0.75996 0.98694 0.0
C792 C 0.2606 0.7436 0.91848 0.0
C793 C 0.24694 0.72914 0.99989 0.0
C794 C 0.22096 0.70468 0.97245 0.0
C795 C 0.20458 0.68434 0.90396 0.0
C796 C 0.21291 0.69004 0.86325 0.0
C797 C 0.22813 0.71099 0.93168 0.0
C798 C 0.24356 0.7239 0.85034 0.0
C799 C 0.26736 0.7504 0.87775 0.0
H800 H 0.52113 0.26833 0.18081 0.0
H801 H 0.53017 0.35759 0.10683 0.0
H802 H 0.52022 0.31961 0.04798 0.0
H803 H 0.51648 0.26379 0.01652 0.0
H804 H 0.51293 0.17689 0.09022 0.0
H805 H 0.51258 0.21044 0.14953 0.0
C806 C 0.52006 0.27905 0.15187 0.0
C807 C 0.52643 0.31575 0.14828 0.0
C808 C 0.51558 0.25743 0.11778 0.0
C809 C 0.52552 0.32947 0.11045 0.0
C810 C 0.51988 0.30777 0.07667 0.0
C811 C 0.51463 0.25183 0.04557 0.0
C812 C 0.51456 0.21783 0.04894 0.0
C813 C 0.51594 0.27209 0.07978 0.0
C814 C 0.51297 0.20303 0.08684 0.0
C815 C 0.51293 0.22229 0.12084 0.0
loop_
_geom_bond_atom_site_label_1
_geom_bond_atom_site_label_2
_geom_bond_distance
_geom_bond_site_symmetry_2
_ccdc_geom_bond_type
Mn0 O5 2.095 . S
Mn0 O15 2.162 . S
Mn0 O16 2.297 . S
Mn0 O24 2.385 . S
Mn0 O25 2.209 . S
Mn0 O26 2.094 . S
Mn1 O6 2.121 . S
Mn1 N8 2.257 . S
Mn1 N17 2.282 . S
Mn1 O25 2.215 . S
Mn1 O27 2.117 . S
C2 O24 1.234 . S
C2 O25 1.283 . S
C3 O15 1.281 . S
C3 O16 1.236 . S
C4 O26 1.240 . S
C4 O27 1.264 . S
O5 Mn0 2.095 . S
O5 C14 1.250 . S
O6 Mn1 2.121 . S
O6 C14 1.258 . S
C7 N8 1.326 . S
C7 C11 1.460 . S
C7 H13 0.929 . S
N8 Mn1 2.257 . S
N8 C7 1.326 . S
N8 C12 1.362 . S
C9 C10 1.258 . S
C9 C12 1.431 . S
C9 C29 1.449 . S
C10 C9 1.258 . S
C10 C11 1.477 . S
C10 H30 0.931 . S
C11 C7 1.460 . S
C11 C10 1.477 . S
C11 H31 0.930 . S
C12 N8 1.362 . S
C12 C9 1.431 . S
C12 C22 1.476 . S
H13 C7 0.929 . S
C14 O5 1.250 . S
C14 O6 1.258 . S
O15 Mn0 2.162 . S
O15 C3 1.281 . S
O16 Mn0 2.297 . S
O16 C3 1.236 . S
N17 Mn1 2.282 . S
N17 C18 1.328 . S
N17 C22 1.318 . S
C18 N17 1.328 . S
C18 C19 1.457 . S
C18 H23 0.929 . S
C19 C18 1.457 . S
C19 C20 1.291 . S
C19 H32 0.931 . S
C20 C19 1.291 . S
C20 C21 1.373 . S
C20 H33 0.929 . S
C21 C20 1.373 . S
C21 C22 1.396 . S
C21 C28 1.403 . S
C22 C12 1.476 . S
C22 N17 1.318 . S
C22 C21 1.396 . S
H23 C18 0.929 . S
O24 Mn0 2.385 . S
O24 C2 1.234 . S
O25 Mn0 2.209 . S
O25 Mn1 2.215 . S
O25 C2 1.283 . S
O26 Mn0 2.094 . S
O26 C4 1.240 . S
O27 Mn1 2.117 . S
O27 C4 1.264 . S
C28 C21 1.403 . S
C28 C29 1.399 . S
C28 H34 0.929 . S
C29 C9 1.449 . S
C29 C28 1.399 . S
C29 H35 0.930 . S
H30 C10 0.931 . S
H31 C11 0.930 . S
H32 C19 0.931 . S
H33 C20 0.929 . S
H34 C28 0.929 . S
H35 C29 0.930 . S
Mn36 O41 2.095 . S
Mn36 O51 2.162 . S
Mn36 O52 2.297 . S
Mn36 O60 2.385 . S
Mn36 O61 2.209 . S
Mn36 O62 2.094 . S
Mn37 O42 2.121 . S
Mn37 N44 2.257 . S
Mn37 N53 2.282 . S
Mn37 O61 2.215 . S
Mn37 O63 2.117 . S
C38 O60 1.234 . S
C38 O61 1.283 . S
C39 O51 1.281 . S
C39 O52 1.236 . S
C40 O62 1.240 . S
C40 O63 1.264 . S
O41 Mn36 2.095 . S
O41 C50 1.250 . S
O42 Mn37 2.121 . S
O42 C50 1.258 . S
C43 N44 1.326 . S
C43 C47 1.460 . S
C43 H49 0.929 . S
N44 Mn37 2.257 . S
N44 C43 1.326 . S
N44 C48 1.362 . S
C45 C46 1.258 . S
C45 C48 1.431 . S
C45 C65 1.449 . S
C46 C45 1.258 . S
C46 C47 1.477 . S
C46 H66 0.931 . S
C47 C43 1.460 . S
C47 C46 1.477 . S
C47 H67 0.930 . S
C48 N44 1.362 . S
C48 C45 1.431 . S
C48 C58 1.476 . S
H49 C43 0.929 . S
C50 O41 1.250 . S
C50 O42 1.258 . S
O51 Mn36 2.162 . S
O51 C39 1.281 . S
O52 Mn36 2.297 . S
O52 C39 1.236 . S
N53 Mn37 2.282 . S
N53 C54 1.328 . S
N53 C58 1.318 . S
C54 N53 1.328 . S
C54 C55 1.457 . S
C54 H59 0.929 . S
C55 C54 1.457 . S
C55 C56 1.291 . S
C55 H68 0.931 . S
C56 C55 1.291 . S
C56 C57 1.373 . S
C56 H69 0.929 . S
C57 C56 1.373 . S
C57 C58 1.396 . S
C57 C64 1.403 . S
C58 C48 1.476 . S
C58 N53 1.318 . S
C58 C57 1.396 . S
H59 C54 0.929 . S
O60 Mn36 2.385 . S
O60 C38 1.234 . S
O61 Mn36 2.209 . S
O61 Mn37 2.215 . S
O61 C38 1.283 . S
O62 Mn36 2.094 . S
O62 C40 1.240 . S
O63 Mn37 2.117 . S
O63 C40 1.264 . S
C64 C57 1.403 . S
C64 C65 1.399 . S
C64 H70 0.929 . S
C65 C45 1.449 . S
C65 C64 1.399 . S
C65 H71 0.930 . S
H66 C46 0.931 . S
H67 C47 0.930 . S
H68 C55 0.931 . S
H69 C56 0.929 . S
H70 C64 0.929 . S
H71 C65 0.930 . S
Mn72 O77 2.095 . S
Mn72 O87 2.162 . S
Mn72 O88 2.297 . S
Mn72 O96 2.385 . S
Mn72 O97 2.209 . S
Mn72 O98 2.094 . S
Mn73 O78 2.121 . S
Mn73 N80 2.257 . S
Mn73 N89 2.282 . S
Mn73 O97 2.215 . S
Mn73 O99 2.117 . S
C74 O96 1.234 . S
C74 O97 1.283 . S
C75 O87 1.281 . S
C75 O88 1.236 . S
C76 O98 1.240 . S
C76 O99 1.264 . S
O77 Mn72 2.095 . S
O77 C86 1.250 . S
O78 Mn73 2.121 . S
O78 C86 1.258 . S
C79 N80 1.326 . S
C79 C83 1.460 . S
C79 H85 0.929 . S
N80 Mn73 2.257 . S
N80 C79 1.326 . S
N80 C84 1.362 . S
C81 C82 1.258 . S
C81 C84 1.431 . S
C81 C101 1.449 . S
C82 C81 1.258 . S
C82 C83 1.477 . S
C82 H102 0.931 . S
C83 C79 1.460 . S
C83 C82 1.477 . S
C83 H103 0.930 . S
C84 N80 1.362 . S
C84 C81 1.431 . S
C84 C94 1.476 . S
H85 C79 0.929 . S
C86 O77 1.250 . S
C86 O78 1.258 . S
O87 Mn72 2.162 . S
O87 C75 1.281 . S
O88 Mn72 2.297 . S
O88 C75 1.236 . S
N89 Mn73 2.282 . S
N89 C90 1.328 . S
N89 C94 1.318 . S
C90 N89 1.328 . S
C90 C91 1.457 . S
C90 H95 0.929 . S
C91 C90 1.457 . S
C91 C92 1.291 . S
C91 H104 0.931 . S
C92 C91 1.291 . S
C92 C93 1.373 . S
C92 H105 0.929 . S
C93 C92 1.373 . S
C93 C94 1.396 . S
C93 C100 1.403 . S
C94 C84 1.476 . S
C94 N89 1.318 . S
C94 C93 1.396 . S
H95 C90 0.929 . S
O96 Mn72 2.385 . S
O96 C74 1.234 . S
O97 Mn72 2.209 . S
O97 Mn73 2.215 . S
O97 C74 1.283 . S
O98 Mn72 2.094 . S
O98 C76 1.240 . S
O99 Mn73 2.117 . S
O99 C76 1.264 . S
C100 C93 1.403 . S
C100 C101 1.399 . S
C100 H106 0.929 . S
C101 C81 1.449 . S
C101 C100 1.399 . S
C101 H107 0.930 . S
H102 C82 0.931 . S
H103 C83 0.930 . S
H104 C91 0.931 . S
H105 C92 0.929 . S
H106 C100 0.929 . S
H107 C101 0.930 . S
Mn108 O113 2.095 . S
Mn108 O123 2.162 . S
Mn108 O124 2.297 . S
Mn108 O132 2.385 . S
Mn108 O133 2.209 . S
Mn108 O134 2.094 . S
Mn109 O114 2.121 . S
Mn109 N116 2.257 . S
Mn109 N125 2.282 . S
Mn109 O133 2.215 . S
Mn109 O135 2.117 . S
C110 O132 1.234 . S
C110 O133 1.283 . S
C111 O123 1.281 . S
C111 O124 1.236 . S
C112 O134 1.240 . S
C112 O135 1.264 . S
O113 Mn108 2.095 . S
O113 C122 1.250 . S
O114 Mn109 2.121 . S
O114 C122 1.258 . S
C115 N116 1.326 . S
C115 C119 1.460 . S
C115 H121 0.929 . S
N116 Mn109 2.257 . S
N116 C115 1.326 . S
N116 C120 1.362 . S
C117 C118 1.258 . S
C117 C120 1.431 . S
C117 C137 1.449 . S
C118 C117 1.258 . S
C118 C119 1.477 . S
C118 H138 0.931 . S
C119 C115 1.460 . S
C119 C118 1.477 . S
C119 H139 0.930 . S
C120 N116 1.362 . S
C120 C117 1.431 . S
C120 C130 1.476 . S
H121 C115 0.929 . S
C122 O113 1.250 . S
C122 O114 1.258 . S
O123 Mn108 2.162 . S
O123 C111 1.281 . S
O124 Mn108 2.297 . S
O124 C111 1.236 . S
N125 Mn109 2.282 . S
N125 C126 1.328 . S
N125 C130 1.318 . S
C126 N125 1.328 . S
C126 C127 1.457 1_556 S
C126 H131 0.929 1_556 S
C127 C126 1.457 1_554 S
C127 C128 1.291 . S
C127 H140 0.931 . S
C128 C127 1.291 . S
C128 C129 1.373 1_554 S
C128 H141 0.929 . S
C129 C128 1.373 1_556 S
C129 C130 1.396 . S
C129 C136 1.403 . S
C130 C120 1.476 . S
C130 N125 1.318 . S
C130 C129 1.396 . S
H131 C126 0.929 1_554 S
O132 Mn108 2.385 . S
O132 C110 1.234 . S
O133 Mn108 2.209 . S
O133 Mn109 2.215 . S
O133 C110 1.283 . S
O134 Mn108 2.094 . S
O134 C112 1.240 . S
O135 Mn109 2.117 . S
O135 C112 1.264 . S
C136 C129 1.403 . S
C136 C137 1.399 . S
C136 H142 0.929 . S
C137 C117 1.449 . S
C137 C136 1.399 . S
C137 H143 0.930 . S
H138 C118 0.931 . S
H139 C119 0.930 . S
H140 C127 0.931 . S
H141 C128 0.929 . S
H142 C136 0.929 . S
H143 C137 0.930 . S
Mn144 O149 2.095 . S
Mn144 O159 2.162 . S
Mn144 O160 2.297 1_554 S
Mn144 O168 2.385 . S
Mn144 O169 2.209 . S
Mn144 O170 2.094 . S
Mn145 O150 2.121 . S
Mn145 N152 2.257 . S
Mn145 N161 2.282 . S
Mn145 O169 2.215 . S
Mn145 O171 2.117 . S
C146 O168 1.234 . S
C146 O169 1.283 . S
C147 O159 1.281 . S
C147 O160 1.236 1_554 S
C148 O170 1.240 . S
C148 O171 1.264 . S
O149 Mn144 2.095 . S
O149 C158 1.250 . S
O150 Mn145 2.121 . S
O150 C158 1.258 . S
C151 N152 1.326 . S
C151 C155 1.460 . S
C151 H157 0.929 . S
N152 Mn145 2.257 . S
N152 C151 1.326 . S
N152 C156 1.362 . S
C153 C154 1.258 . S
C153 C156 1.431 . S
C153 C173 1.449 . S
C154 C153 1.258 . S
C154 C155 1.477 . S
C154 H174 0.931 . S
C155 C151 1.460 . S
C155 C154 1.477 . S
C155 H175 0.930 . S
C156 N152 1.362 . S
C156 C153 1.431 . S
C156 C166 1.476 . S
H157 C151 0.929 . S
C158 O149 1.250 . S
C158 O150 1.258 . S
O159 Mn144 2.162 . S
O159 C147 1.281 . S
O160 Mn144 2.297 1_556 S
O160 C147 1.236 1_556 S
N161 Mn145 2.282 . S
N161 C162 1.328 . S
N161 C166 1.318 . S
C162 N161 1.328 . S
C162 C163 1.457 . S
C162 H167 0.929 . S
C163 C162 1.457 . S
C163 C164 1.291 . S
C163 H176 0.931 . S
C164 C163 1.291 . S
C164 C165 1.373 . S
C164 H177 0.929 . S
C165 C164 1.373 . S
C165 C166 1.396 . S
C165 C172 1.403 . S
C166 C156 1.476 . S
C166 N161 1.318 . S
C166 C165 1.396 . S
H167 C162 0.929 . S
O168 Mn144 2.385 . S
O168 C146 1.234 . S
O169 Mn144 2.209 . S
O169 Mn145 2.215 . S
O169 C146 1.283 . S
O170 Mn144 2.094 . S
O170 C148 1.240 . S
O171 Mn145 2.117 . S
O171 C148 1.264 . S
C172 C165 1.403 . S
C172 C173 1.399 . S
C172 H178 0.929 . S
C173 C153 1.449 . S
C173 C172 1.399 . S
C173 H179 0.930 . S
H174 C154 0.931 . S
H175 C155 0.930 . S
H176 C163 0.931 . S
H177 C164 0.929 . S
H178 C172 0.929 . S
H179 C173 0.930 . S
Mn180 O185 2.095 . S
Mn180 O195 2.162 . S
Mn180 O196 2.297 . S
Mn180 O204 2.385 . S
Mn180 O205 2.209 . S
Mn180 O206 2.094 . S
Mn181 O186 2.121 . S
Mn181 N188 2.257 . S
Mn181 N197 2.282 . S
Mn181 O205 2.215 . S
Mn181 O207 2.117 . S
C182 O204 1.234 . S
C182 O205 1.283 . S
C183 O195 1.281 . S
C183 O196 1.236 . S
C184 O206 1.240 . S
C184 O207 1.264 . S
O185 Mn180 2.095 . S
O185 C194 1.250 . S
O186 Mn181 2.121 . S
O186 C194 1.258 . S
C187 N188 1.326 . S
C187 C191 1.460 . S
C187 H193 0.929 . S
N188 Mn181 2.257 . S
N188 C187 1.326 . S
N188 C192 1.362 . S
C189 C190 1.258 . S
C189 C192 1.431 . S
C189 C209 1.449 . S
C190 C189 1.258 . S
C190 C191 1.477 . S
C190 H210 0.931 . S
C191 C187 1.460 . S
C191 C190 1.477 . S
C191 H211 0.930 . S
C192 N188 1.362 . S
C192 C189 1.431 . S
C192 C202 1.476 . S
H193 C187 0.929 . S
C194 O185 1.250 . S
C194 O186 1.258 . S
O195 Mn180 2.162 . S
O195 C183 1.281 . S
O196 Mn180 2.297 . S
O196 C183 1.236 . S
N197 Mn181 2.282 . S
N197 C198 1.328 . S
N197 C202 1.318 . S
C198 N197 1.328 . S
C198 C199 1.457 . S
C198 H203 0.929 . S
C199 C198 1.457 . S
C199 C200 1.291 . S
C199 H212 0.931 . S
C200 C199 1.291 . S
C200 C201 1.373 . S
C200 H213 0.929 . S
C201 C200 1.373 . S
C201 C202 1.396 . S
C201 C208 1.403 . S
C202 C192 1.476 . S
C202 N197 1.318 . S
C202 C201 1.396 . S
H203 C198 0.929 . S
O204 Mn180 2.385 . S
O204 C182 1.234 . S
O205 Mn180 2.209 . S
O205 Mn181 2.215 . S
O205 C182 1.283 . S
O206 Mn180 2.094 . S
O206 C184 1.240 . S
O207 Mn181 2.117 . S
O207 C184 1.264 . S
C208 C201 1.403 . S
C208 C209 1.399 . S
C208 H214 0.929 . S
C209 C189 1.449 . S
C209 C208 1.399 . S
C209 H215 0.930 . S
H210 C190 0.931 . S
H211 C191 0.930 . S
H212 C199 0.931 . S
H213 C200 0.929 . S
H214 C208 0.929 . S
H215 C209 0.930 . S
Mn216 O221 2.095 . S
Mn216 O231 2.162 . S
Mn216 O232 2.297 . S
Mn216 O240 2.385 . S
Mn216 O241 2.209 . S
Mn216 O242 2.094 . S
Mn217 O222 2.121 . S
Mn217 N224 2.257 . S
Mn217 N233 2.282 . S
Mn217 O241 2.215 . S
Mn217 O243 2.117 . S
C218 O240 1.234 . S
C218 O241 1.283 . S
C219 O231 1.281 . S
C219 O232 1.236 . S
C220 O242 1.240 . S
C220 O243 1.264 . S
O221 Mn216 2.095 . S
O221 C230 1.250 . S
O222 Mn217 2.121 . S
O222 C230 1.258 . S
C223 N224 1.326 . S
C223 C227 1.460 . S
C223 H229 0.929 . S
N224 Mn217 2.257 . S
N224 C223 1.326 . S
N224 C228 1.362 . S
C225 C226 1.258 . S
C225 C228 1.431 . S
C225 C245 1.449 . S
C226 C225 1.258 . S
C226 C227 1.477 . S
C226 H246 0.931 . S
C227 C223 1.460 . S
C227 C226 1.477 . S
C227 H247 0.930 . S
C228 N224 1.362 . S
C228 C225 1.431 . S
C228 C238 1.476 . S
H229 C223 0.929 . S
C230 O221 1.250 . S
C230 O222 1.258 . S
O231 Mn216 2.162 . S
O231 C219 1.281 . S
O232 Mn216 2.297 . S
O232 C219 1.236 . S
N233 Mn217 2.282 . S
N233 C234 1.328 . S
N233 C238 1.318 . S
C234 N233 1.328 . S
C234 C235 1.457 . S
C234 H239 0.929 . S
C235 C234 1.457 . S
C235 C236 1.291 . S
C235 H248 0.931 . S
C236 C235 1.291 . S
C236 C237 1.373 . S
C236 H249 0.929 . S
C237 C236 1.373 . S
C237 C238 1.396 . S
C237 C244 1.403 . S
C238 C228 1.476 . S
C238 N233 1.318 . S
C238 C237 1.396 . S
H239 C234 0.929 . S
O240 Mn216 2.385 . S
O240 C218 1.234 . S
O241 Mn216 2.209 . S
O241 Mn217 2.215 . S
O241 C218 1.283 . S
O242 Mn216 2.094 . S
O242 C220 1.240 . S
O243 Mn217 2.117 . S
O243 C220 1.264 . S
C244 C237 1.403 . S
C244 C245 1.399 . S
C244 H250 0.929 . S
C245 C225 1.449 . S
C245 C244 1.399 . S
C245 H251 0.930 . S
H246 C226 0.931 . S
H247 C227 0.930 . S
H248 C235 0.931 . S
H249 C236 0.929 . S
H250 C244 0.929 . S
H251 C245 0.930 . S
Mn252 O257 2.095 . S
Mn252 O267 2.162 . S
Mn252 O268 2.297 . S
Mn252 O276 2.385 . S
Mn252 O277 2.209 . S
Mn252 O278 2.094 . S
Mn253 O258 2.121 . S
Mn253 N260 2.257 . S
Mn253 N269 2.282 . S
Mn253 O277 2.215 . S
Mn253 O279 2.117 . S
C254 O276 1.234 . S
C254 O277 1.283 . S
C255 O267 1.281 . S
C255 O268 1.236 . S
C256 O278 1.240 . S
C256 O279 1.264 . S
O257 Mn252 2.095 . S
O257 C266 1.250 . S
O258 Mn253 2.121 . S
O258 C266 1.258 . S
C259 N260 1.326 . S
C259 C263 1.460 . S
C259 H265 0.929 . S
N260 Mn253 2.257 . S
N260 C259 1.326 . S
N260 C264 1.362 . S
C261 C262 1.258 . S
C261 C264 1.431 . S
C261 C281 1.449 . S
C262 C261 1.258 . S
C262 C263 1.477 . S
C262 H282 0.931 . S
C263 C259 1.460 . S
C263 C262 1.477 . S
C263 H283 0.930 . S
C264 N260 1.362 . S
C264 C261 1.431 . S
C264 C274 1.476 . S
H265 C259 0.929 . S
C266 O257 1.250 . S
C266 O258 1.258 . S
O267 Mn252 2.162 . S
O267 C255 1.281 . S
O268 Mn252 2.297 . S
O268 C255 1.236 . S
N269 Mn253 2.282 . S
N269 C270 1.328 . S
N269 C274 1.318 . S
C270 N269 1.328 . S
C270 C271 1.457 . S
C270 H275 0.929 . S
C271 C270 1.457 . S
C271 C272 1.291 . S
C271 H284 0.931 . S
C272 C271 1.291 . S
C272 C273 1.373 . S
C272 H285 0.929 . S
C273 C272 1.373 . S
C273 C274 1.396 . S
C273 C280 1.403 . S
C274 C264 1.476 . S
C274 N269 1.318 . S
C274 C273 1.396 . S
H275 C270 0.929 . S
O276 Mn252 2.385 . S
O276 C254 1.234 . S
O277 Mn252 2.209 . S
O277 Mn253 2.215 . S
O277 C254 1.283 . S
O278 Mn252 2.094 . S
O278 C256 1.240 . S
O279 Mn253 2.117 . S
O279 C256 1.264 . S
C280 C273 1.403 . S
C280 C281 1.399 . S
C280 H286 0.929 . S
C281 C261 1.449 . S
C281 C280 1.399 . S
C281 H287 0.930 . S
H282 C262 0.931 . S
H283 C263 0.930 . S
H284 C271 0.931 . S
H285 C272 0.929 . S
H286 C280 0.929 . S
H287 C281 0.930 . S
Mn288 O293 2.095 . S
Mn288 O303 2.162 . S
Mn288 O304 2.297 . S
Mn288 O312 2.385 . S
Mn288 O313 2.209 . S
Mn288 O314 2.094 . S
Mn289 O294 2.121 . S
Mn289 N296 2.257 . S
Mn289 N305 2.282 . S
Mn289 O313 2.215 . S
Mn289 O315 2.117 . S
C290 O312 1.234 . S
C290 O313 1.283 . S
C291 O303 1.281 . S
C291 O304 1.236 . S
C292 O314 1.240 . S
C292 O315 1.264 . S
O293 Mn288 2.095 . S
O293 C302 1.250 . S
O294 Mn289 2.121 . S
O294 C302 1.258 . S
C295 N296 1.326 . S
C295 C299 1.460 . S
C295 H301 0.929 . S
N296 Mn289 2.257 . S
N296 C295 1.326 . S
N296 C300 1.362 . S
C297 C298 1.258 . S
C297 C300 1.431 . S
C297 C317 1.449 . S
C298 C297 1.258 . S
C298 C299 1.477 . S
C298 H318 0.931 . S
C299 C295 1.460 . S
C299 C298 1.477 . S
C299 H319 0.930 . S
C300 N296 1.362 . S
C300 C297 1.431 . S
C300 C310 1.476 . S
H301 C295 0.929 . S
C302 O293 1.250 . S
C302 O294 1.258 . S
O303 Mn288 2.162 . S
O303 C291 1.281 . S
O304 Mn288 2.297 . S
O304 C291 1.236 . S
N305 Mn289 2.282 . S
N305 C306 1.328 . S
N305 C310 1.318 . S
C306 N305 1.328 . S
C306 C307 1.457 . S
C306 H311 0.929 . S
C307 C306 1.457 . S
C307 C308 1.291 . S
C307 H320 0.931 . S
C308 C307 1.291 . S
C308 C309 1.373 . S
C308 H321 0.929 . S
C309 C308 1.373 . S
C309 C310 1.396 . S
C309 C316 1.403 . S
C310 C300 1.476 . S
C310 N305 1.318 . S
C310 C309 1.396 . S
H311 C306 0.929 . S
O312 Mn288 2.385 . S
O312 C290 1.234 . S
O313 Mn288 2.209 . S
O313 Mn289 2.215 . S
O313 C290 1.283 . S
O314 Mn288 2.094 . S
O314 C292 1.240 . S
O315 Mn289 2.117 . S
O315 C292 1.264 . S
C316 C309 1.403 . S
C316 C317 1.399 . S
C316 H322 0.929 . S
C317 C297 1.449 . S
C317 C316 1.399 . S
C317 H323 0.930 . S
H318 C298 0.931 . S
H319 C299 0.930 . S
H320 C307 0.931 . S
H321 C308 0.929 . S
H322 C316 0.929 . S
H323 C317 0.930 . S
Mn324 O329 2.095 . S
Mn324 O339 2.162 . S
Mn324 O340 2.297 1_556 S
Mn324 O348 2.385 . S
Mn324 O349 2.209 . S
Mn324 O350 2.094 . S
Mn325 O330 2.121 . S
Mn325 N332 2.257 . S
Mn325 N341 2.282 . S
Mn325 O349 2.215 . S
Mn325 O351 2.117 . S
C326 O348 1.234 . S
C326 O349 1.283 . S
C327 O339 1.281 . S
C327 O340 1.236 1_556 S
C328 O350 1.240 . S
C328 O351 1.264 . S
O329 Mn324 2.095 . S
O329 C338 1.250 . S
O330 Mn325 2.121 . S
O330 C338 1.258 . S
C331 N332 1.326 . S
C331 C335 1.460 . S
C331 H337 0.929 . S
N332 Mn325 2.257 . S
N332 C331 1.326 . S
N332 C336 1.362 . S
C333 C334 1.258 . S
C333 C336 1.431 . S
C333 C353 1.449 . S
C334 C333 1.258 . S
C334 C335 1.477 . S
C334 H354 0.931 . S
C335 C331 1.460 . S
C335 C334 1.477 . S
C335 H355 0.930 . S
C336 N332 1.362 . S
C336 C333 1.431 . S
C336 C346 1.476 . S
H337 C331 0.929 . S
C338 O329 1.250 . S
C338 O330 1.258 . S
O339 Mn324 2.162 . S
O339 C327 1.281 . S
O340 Mn324 2.297 1_554 S
O340 C327 1.236 1_554 S
N341 Mn325 2.282 . S
N341 C342 1.328 . S
N341 C346 1.318 . S
C342 N341 1.328 . S
C342 C343 1.457 . S
C342 H347 0.929 . S
C343 C342 1.457 . S
C343 C344 1.291 . S
C343 H356 0.931 . S
C344 C343 1.291 . S
C344 C345 1.373 . S
C344 H357 0.929 . S
C345 C344 1.373 . S
C345 C346 1.396 . S
C345 C352 1.403 . S
C346 C336 1.476 . S
C346 N341 1.318 . S
C346 C345 1.396 . S
H347 C342 0.929 . S
O348 Mn324 2.385 . S
O348 C326 1.234 . S
O349 Mn324 2.209 . S
O349 Mn325 2.215 . S
O349 C326 1.283 . S
O350 Mn324 2.094 . S
O350 C328 1.240 . S
O351 Mn325 2.117 . S
O351 C328 1.264 . S
C352 C345 1.403 . S
C352 C353 1.399 . S
C352 H358 0.929 . S
C353 C333 1.449 . S
C353 C352 1.399 . S
C353 H359 0.930 . S
H354 C334 0.931 . S
H355 C335 0.930 . S
H356 C343 0.931 . S
H357 C344 0.929 . S
H358 C352 0.929 . S
H359 C353 0.930 . S
Mn360 O365 2.095 . S
Mn360 O375 2.162 . S
Mn360 O376 2.297 . S
Mn360 O384 2.385 . S
Mn360 O385 2.209 . S
Mn360 O386 2.094 . S
Mn361 O366 2.121 . S
Mn361 N368 2.257 . S
Mn361 N377 2.282 . S
Mn361 O385 2.215 . S
Mn361 O387 2.117 . S
C362 O384 1.234 . S
C362 O385 1.283 . S
C363 O375 1.281 . S
C363 O376 1.236 . S
C364 O386 1.240 . S
C364 O387 1.264 . S
O365 Mn360 2.095 . S
O365 C374 1.250 . S
O366 Mn361 2.121 . S
O366 C374 1.258 . S
C367 N368 1.326 . S
C367 C371 1.460 . S
C367 H373 0.929 . S
N368 Mn361 2.257 . S
N368 C367 1.326 . S
N368 C372 1.362 . S
C369 C370 1.258 . S
C369 C372 1.431 . S
C369 C389 1.449 . S
C370 C369 1.258 . S
C370 C371 1.477 . S
C370 H390 0.931 . S
C371 C367 1.460 . S
C371 C370 1.477 . S
C371 H391 0.930 . S
C372 N368 1.362 . S
C372 C369 1.431 . S
C372 C382 1.476 . S
H373 C367 0.929 . S
C374 O365 1.250 . S
C374 O366 1.258 . S
O375 Mn360 2.162 . S
O375 C363 1.281 . S
O376 Mn360 2.297 . S
O376 C363 1.236 . S
N377 Mn361 2.282 . S
N377 C378 1.328 . S
N377 C382 1.318 . S
C378 N377 1.328 . S
C378 C379 1.457 1_554 S
C378 H383 0.929 1_554 S
C379 C378 1.457 1_556 S
C379 C380 1.291 . S
C379 H392 0.931 . S
C380 C379 1.291 . S
C380 C381 1.373 1_556 S
C380 H393 0.929 . S
C381 C380 1.373 1_554 S
C381 C382 1.396 . S
C381 C388 1.403 . S
C382 C372 1.476 . S
C382 N377 1.318 . S
C382 C381 1.396 . S
H383 C378 0.929 1_556 S
O384 Mn360 2.385 . S
O384 C362 1.234 . S
O385 Mn360 2.209 . S
O385 Mn361 2.215 . S
O385 C362 1.283 . S
O386 Mn360 2.094 . S
O386 C364 1.240 . S
O387 Mn361 2.117 . S
O387 C364 1.264 . S
C388 C381 1.403 . S
C388 C389 1.399 . S
C388 H394 0.929 . S
C389 C369 1.449 . S
C389 C388 1.399 . S
C389 H395 0.930 . S
H390 C370 0.931 . S
H391 C371 0.930 . S
H392 C379 0.931 . S
H393 C380 0.929 . S
H394 C388 0.929 . S
H395 C389 0.930 . S
Mn396 O401 2.095 . S
Mn396 O411 2.162 . S
Mn396 O412 2.297 . S
Mn396 O420 2.385 . S
Mn396 O421 2.209 . S
Mn396 O422 2.094 . S
Mn397 O402 2.121 . S
Mn397 N404 2.257 . S
Mn397 N413 2.282 . S
Mn397 O421 2.215 . S
Mn397 O423 2.117 . S
C398 O420 1.234 . S
C398 O421 1.283 . S
C399 O411 1.281 . S
C399 O412 1.236 . S
C400 O422 1.240 . S
C400 O423 1.264 . S
O401 Mn396 2.095 . S
O401 C410 1.250 . S
O402 Mn397 2.121 . S
O402 C410 1.258 . S
C403 N404 1.326 . S
C403 C407 1.460 . S
C403 H409 0.929 . S
N404 Mn397 2.257 . S
N404 C403 1.326 . S
N404 C408 1.362 . S
C405 C406 1.258 . S
C405 C408 1.431 . S
C405 C425 1.449 . S
C406 C405 1.258 . S
C406 C407 1.477 . S
C406 H426 0.931 . S
C407 C403 1.460 . S
C407 C406 1.477 . S
C407 H427 0.930 . S
C408 N404 1.362 . S
C408 C405 1.431 . S
C408 C418 1.476 . S
H409 C403 0.929 . S
C410 O401 1.250 . S
C410 O402 1.258 . S
O411 Mn396 2.162 . S
O411 C399 1.281 . S
O412 Mn396 2.297 . S
O412 C399 1.236 . S
N413 Mn397 2.282 . S
N413 C414 1.328 . S
N413 C418 1.318 . S
C414 N413 1.328 . S
C414 C415 1.457 . S
C414 H419 0.929 . S
C415 C414 1.457 . S
C415 C416 1.291 . S
C415 H428 0.931 . S
C416 C415 1.291 . S
C416 C417 1.373 . S
C416 H429 0.929 . S
C417 C416 1.373 . S
C417 C418 1.396 . S
C417 C424 1.403 . S
C418 C408 1.476 . S
C418 N413 1.318 . S
C418 C417 1.396 . S
H419 C414 0.929 . S
O420 Mn396 2.385 . S
O420 C398 1.234 . S
O421 Mn396 2.209 . S
O421 Mn397 2.215 . S
O421 C398 1.283 . S
O422 Mn396 2.094 . S
O422 C400 1.240 . S
O423 Mn397 2.117 . S
O423 C400 1.264 . S
C424 C417 1.403 . S
C424 C425 1.399 . S
C424 H430 0.929 . S
C425 C405 1.449 . S
C425 C424 1.399 . S
C425 H431 0.930 . S
H426 C406 0.931 . S
H427 C407 0.930 . S
H428 C415 0.931 . S
H429 C416 0.929 . S
H430 C424 0.929 . S
H431 C425 0.930 . S
H432 C438 0.930 . S
H433 C441 0.930 . S
H434 C442 0.930 . S
H435 C443 0.930 . S
H436 C446 0.930 . S
H437 C447 0.930 . S
C438 H432 0.930 . S
C438 C439 1.355 . S
C438 C440 1.415 . S
C439 C438 1.355 . S
C439 C441 1.419 . S
C440 C438 1.415 . S
C440 C445 1.425 . S
C440 C447 1.409 . S
C441 H433 0.930 . S
C441 C439 1.419 . S
C441 C442 1.362 . S
C442 H434 0.930 . S
C442 C441 1.362 . S
C442 C445 1.409 . S
C443 H435 0.930 . S
C443 C444 1.355 . S
C443 C445 1.415 . S
C444 C443 1.355 . S
C444 C446 1.419 . S
C445 C440 1.425 . S
C445 C442 1.409 . S
C445 C443 1.415 . S
C446 H436 0.930 . S
C446 C444 1.419 . S
C446 C447 1.362 . S
C447 H437 0.930 . S
C447 C440 1.409 . S
C447 C446 1.362 . S
H448 C454 0.930 . S
H449 C457 0.930 . S
H450 C458 0.930 . S
H451 C459 0.930 . S
H452 C462 0.930 . S
H453 C463 0.930 . S
C454 H448 0.930 . S
C454 C455 1.355 . S
C454 C456 1.415 . S
C455 C454 1.355 . S
C455 C457 1.419 . S
C456 C454 1.415 . S
C456 C461 1.425 . S
C456 C463 1.409 . S
C457 H449 0.930 . S
C457 C455 1.419 . S
C457 C458 1.362 . S
C458 H450 0.930 . S
C458 C457 1.362 . S
C458 C461 1.409 . S
C459 H451 0.930 . S
C459 C460 1.355 . S
C459 C461 1.415 . S
C460 C459 1.355 . S
C460 C462 1.419 . S
C461 C456 1.425 . S
C461 C458 1.409 . S
C461 C459 1.415 . S
C462 H452 0.930 . S
C462 C460 1.419 . S
C462 C463 1.362 . S
C463 H453 0.930 . S
C463 C456 1.409 . S
C463 C462 1.362 . S
H464 C470 0.930 . S
H465 C473 0.930 . S
H466 C474 0.930 . S
H467 C475 0.930 . S
H468 C478 0.930 . S
H469 C479 0.930 . S
C470 H464 0.930 . S
C470 C471 1.355 . S
C470 C472 1.415 . S
C471 C470 1.355 . S
C471 C473 1.419 . S
C472 C470 1.415 . S
C472 C477 1.425 . S
C472 C479 1.409 . S
C473 H465 0.930 . S
C473 C471 1.419 . S
C473 C474 1.362 . S
C474 H466 0.930 . S
C474 C473 1.362 . S
C474 C477 1.409 . S
C475 H467 0.930 . S
C475 C476 1.355 . S
C475 C477 1.415 . S
C476 C475 1.355 . S
C476 C478 1.419 . S
C477 C472 1.425 . S
C477 C474 1.409 . S
C477 C475 1.415 . S
C478 H468 0.930 . S
C478 C476 1.419 . S
C478 C479 1.362 . S
C479 H469 0.930 . S
C479 C472 1.409 . S
C479 C478 1.362 . S
H480 C486 0.930 . S
H481 C489 0.930 . S
H482 C490 0.930 . S
H483 C491 0.930 . S
H484 C494 0.930 . S
H485 C495 0.930 . S
C486 H480 0.930 . S
C486 C487 1.355 . S
C486 C488 1.415 . S
C487 C486 1.355 . S
C487 C489 1.419 . S
C488 C486 1.415 . S
C488 C493 1.425 . S
C488 C495 1.409 . S
C489 H481 0.930 . S
C489 C487 1.419 . S
C489 C490 1.362 . S
C490 H482 0.930 . S
C490 C489 1.362 . S
C490 C493 1.409 . S
C491 H483 0.930 . S
C491 C492 1.355 . S
C491 C493 1.415 . S
C492 C491 1.355 . S
C492 C494 1.419 . S
C493 C488 1.425 . S
C493 C490 1.409 . S
C493 C491 1.415 . S
C494 H484 0.930 . S
C494 C492 1.419 . S
C494 C495 1.362 . S
C495 H485 0.930 . S
C495 C488 1.409 . S
C495 C494 1.362 . S
H496 C502 0.930 . S
H497 C505 0.930 . S
H498 C506 0.930 . S
H499 C507 0.930 . S
H500 C510 0.930 . S
H501 C511 0.930 . S
C502 H496 0.930 . S
C502 C503 1.355 . S
C502 C504 1.415 . S
C503 C502 1.355 . S
C503 C505 1.419 . S
C504 C502 1.415 . S
C504 C509 1.425 . S
C504 C511 1.409 . S
C505 H497 0.930 . S
C505 C503 1.419 . S
C505 C506 1.362 . S
C506 H498 0.930 . S
C506 C505 1.362 . S
C506 C509 1.409 . S
C507 H499 0.930 . S
C507 C508 1.355 . S
C507 C509 1.415 . S
C508 C507 1.355 . S
C508 C510 1.419 . S
C509 C504 1.425 . S
C509 C506 1.409 . S
C509 C507 1.415 . S
C510 H500 0.930 . S
C510 C508 1.419 . S
C510 C511 1.362 . S
C511 H501 0.930 . S
C511 C504 1.409 . S
C511 C510 1.362 . S
H512 C518 0.930 . S
H513 C521 0.930 . S
H514 C522 0.930 . S
H515 C523 0.930 . S
H516 C526 0.930 . S
H517 C527 0.930 . S
C518 H512 0.930 . S
C518 C519 1.355 . S
C518 C520 1.415 . S
C519 C518 1.355 . S
C519 C521 1.419 . S
C520 C518 1.415 . S
C520 C525 1.425 . S
C520 C527 1.409 . S
C521 H513 0.930 . S
C521 C519 1.419 . S
C521 C522 1.362 . S
C522 H514 0.930 . S
C522 C521 1.362 . S
C522 C525 1.409 . S
C523 H515 0.930 . S
C523 C524 1.355 . S
C523 C525 1.415 . S
C524 C523 1.355 . S
C524 C526 1.419 . S
C525 C520 1.425 . S
C525 C522 1.409 . S
C525 C523 1.415 . S
C526 H516 0.930 . S
C526 C524 1.419 . S
C526 C527 1.362 . S
C527 H517 0.930 . S
C527 C520 1.409 . S
C527 C526 1.362 . S
H528 C534 0.930 . S
H529 C537 0.930 . S
H530 C538 0.930 . S
H531 C539 0.930 . S
H532 C542 0.930 . S
H533 C543 0.930 . S
C534 H528 0.930 . S
C534 C535 1.355 . S
C534 C536 1.415 . S
C535 C534 1.355 . S
C535 C537 1.419 . S
C536 C534 1.415 . S
C536 C541 1.425 . S
C536 C543 1.409 . S
C537 H529 0.930 . S
C537 C535 1.419 . S
C537 C538 1.362 . S
C538 H530 0.930 . S
C538 C537 1.362 . S
C538 C541 1.409 . S
C539 H531 0.930 . S
C539 C540 1.355 . S
C539 C541 1.415 . S
C540 C539 1.355 . S
C540 C542 1.419 . S
C541 C536 1.425 . S
C541 C538 1.409 . S
C541 C539 1.415 . S
C542 H532 0.930 . S
C542 C540 1.419 . S
C542 C543 1.362 . S
C543 H533 0.930 . S
C543 C536 1.409 . S
C543 C542 1.362 . S
H544 C550 0.930 . S
H545 C553 0.930 . S
H546 C554 0.930 . S
H547 C555 0.930 . S
H548 C558 0.930 . S
H549 C559 0.930 . S
C550 H544 0.930 . S
C550 C551 1.355 . S
C550 C552 1.415 . S
C551 C550 1.355 . S
C551 C553 1.419 . S
C552 C550 1.415 . S
C552 C557 1.425 . S
C552 C559 1.409 . S
C553 H545 0.930 . S
C553 C551 1.419 . S
C553 C554 1.362 . S
C554 H546 0.930 . S
C554 C553 1.362 . S
C554 C557 1.409 . S
C555 H547 0.930 . S
C555 C556 1.355 . S
C555 C557 1.415 . S
C556 C555 1.355 . S
C556 C558 1.419 . S
C557 C552 1.425 . S
C557 C554 1.409 . S
C557 C555 1.415 . S
C558 H548 0.930 . S
C558 C556 1.419 . S
C558 C559 1.362 . S
C559 H549 0.930 . S
C559 C552 1.409 . S
C559 C558 1.362 . S
H560 C566 0.930 . S
H561 C569 0.930 . S
H562 C570 0.930 . S
H563 C571 0.930 . S
H564 C574 0.930 . S
H565 C575 0.930 . S
C566 H560 0.930 . S
C566 C567 1.355 . S
C566 C568 1.415 . S
C567 C566 1.355 . S
C567 C569 1.419 . S
C568 C566 1.415 . S
C568 C573 1.425 . S
C568 C575 1.409 . S
C569 H561 0.930 . S
C569 C567 1.419 . S
C569 C570 1.362 . S
C570 H562 0.930 . S
C570 C569 1.362 . S
C570 C573 1.409 . S
C571 H563 0.930 . S
C571 C572 1.355 . S
C571 C573 1.415 . S
C572 C571 1.355 . S
C572 C574 1.419 . S
C573 C568 1.425 . S
C573 C570 1.409 . S
C573 C571 1.415 . S
C574 H564 0.930 . S
C574 C572 1.419 . S
C574 C575 1.362 . S
C575 H565 0.930 . S
C575 C568 1.409 . S
C575 C574 1.362 . S
H576 C582 0.930 . S
H577 C585 0.930 . S
H578 C586 0.930 . S
H579 C587 0.930 . S
H580 C590 0.930 . S
H581 C591 0.930 . S
C582 H576 0.930 . S
C582 C583 1.355 . S
C582 C584 1.415 . S
C583 C582 1.355 . S
C583 C585 1.419 . S
C584 C582 1.415 . S
C584 C589 1.425 . S
C584 C591 1.409 . S
C585 H577 0.930 . S
C585 C583 1.419 . S
C585 C586 1.362 . S
C586 H578 0.930 . S
C586 C585 1.362 . S
C586 C589 1.409 . S
C587 H579 0.930 . S
C587 C588 1.355 . S
C587 C589 1.415 . S
C588 C587 1.355 . S
C588 C590 1.419 . S
C589 C584 1.425 . S
C589 C586 1.409 . S
C589 C587 1.415 . S
C590 H580 0.930 . S
C590 C588 1.419 . S
C590 C591 1.362 . S
C591 H581 0.930 . S
C591 C584 1.409 . S
C591 C590 1.362 . S
H592 C598 0.930 . S
H593 C601 0.930 . S
H594 C602 0.930 . S
H595 C603 0.930 . S
H596 C606 0.930 . S
H597 C607 0.930 . S
C598 H592 0.930 . S
C598 C599 1.355 . S
C598 C600 1.415 . S
C599 C598 1.355 . S
C599 C601 1.419 . S
C600 C598 1.415 . S
C600 C605 1.425 . S
C600 C607 1.409 . S
C601 H593 0.930 . S
C601 C599 1.419 . S
C601 C602 1.362 . S
C602 H594 0.930 . S
C602 C601 1.362 . S
C602 C605 1.409 . S
C603 H595 0.930 . S
C603 C604 1.355 . S
C603 C605 1.415 . S
C604 C603 1.355 . S
C604 C606 1.419 . S
C605 C600 1.425 . S
C605 C602 1.409 . S
C605 C603 1.415 . S
C606 H596 0.930 . S
C606 C604 1.419 . S
C606 C607 1.362 . S
C607 H597 0.930 . S
C607 C600 1.409 . S
C607 C606 1.362 . S
H608 C614 0.930 . S
H609 C617 0.930 . S
H610 C618 0.930 . S
H611 C619 0.930 . S
H612 C622 0.930 . S
H613 C623 0.930 . S
C614 H608 0.930 . S
C614 C615 1.355 . S
C614 C616 1.415 . S
C615 C614 1.355 . S
C615 C617 1.419 . S
C616 C614 1.415 . S
C616 C621 1.425 . S
C616 C623 1.409 . S
C617 H609 0.930 . S
C617 C615 1.419 . S
C617 C618 1.362 . S
C618 H610 0.930 . S
C618 C617 1.362 . S
C618 C621 1.409 . S
C619 H611 0.930 . S
C619 C620 1.355 . S
C619 C621 1.415 . S
C620 C619 1.355 . S
C620 C622 1.419 . S
C621 C616 1.425 . S
C621 C618 1.409 . S
C621 C619 1.415 . S
C622 H612 0.930 . S
C622 C620 1.419 . S
C622 C623 1.362 . S
C623 H613 0.930 . S
C623 C616 1.409 . S
C623 C622 1.362 . S
H624 C630 0.930 . S
H625 C633 0.930 . S
H626 C634 0.930 1_455 S
H627 C635 0.930 . S
H628 C638 0.930 . S
H629 C639 0.930 1_655 S
C630 H624 0.930 . S
C630 C631 1.355 . S
C630 C632 1.415 . S
C631 C630 1.355 . S
C631 C633 1.419 . S
C632 C630 1.415 . S
C632 C637 1.425 1_655 S
C632 C639 1.409 1_655 S
C633 H625 0.930 . S
C633 C631 1.419 . S
C633 C634 1.362 . S
C634 H626 0.930 1_655 S
C634 C633 1.362 . S
C634 C637 1.409 1_655 S
C635 H627 0.930 . S
C635 C636 1.355 . S
C635 C637 1.415 . S
C636 C635 1.355 . S
C636 C638 1.419 . S
C637 C632 1.425 1_455 S
C637 C634 1.409 1_455 S
C637 C635 1.415 . S
C638 H628 0.930 . S
C638 C636 1.419 . S
C638 C639 1.362 . S
C639 H629 0.930 1_455 S
C639 C632 1.409 1_455 S
C639 C638 1.362 . S
H640 C646 0.930 . S
H641 C649 0.930 . S
H642 C650 0.930 . S
H643 C651 0.930 . S
H644 C654 0.930 . S
H645 C655 0.930 . S
C646 H640 0.930 . S
C646 C647 1.355 . S
C646 C648 1.415 . S
C647 C646 1.355 . S
C647 C649 1.419 . S
C648 C646 1.415 . S
C648 C653 1.425 1_565 S
C648 C655 1.409 1_565 S
C649 H641 0.930 . S
C649 C647 1.419 . S
C649 C650 1.362 . S
C650 H642 0.930 . S
C650 C649 1.362 . S
C650 C653 1.409 1_565 S
C651 H643 0.930 . S
C651 C652 1.355 . S
C651 C653 1.415 . S
C652 C651 1.355 . S
C652 C654 1.419 . S
C653 C648 1.425 1_545 S
C653 C650 1.409 1_545 S
C653 C651 1.415 . S
C654 H644 0.930 . S
C654 C652 1.419 . S
C654 C655 1.362 . S
C655 H645 0.930 . S
C655 C648 1.409 1_545 S
C655 C654 1.362 . S
H656 C662 0.930 . S
H657 C665 0.930 . S
H658 C666 0.930 . S
H659 C667 0.930 . S
H660 C670 0.930 . S
H661 C671 0.930 . S
C662 H656 0.930 . S
C662 C663 1.355 . S
C662 C664 1.415 . S
C663 C662 1.355 . S
C663 C665 1.419 . S
C664 C662 1.415 . S
C664 C669 1.425 . S
C664 C671 1.409 . S
C665 H657 0.930 . S
C665 C663 1.419 . S
C665 C666 1.362 . S
C666 H658 0.930 . S
C666 C665 1.362 . S
C666 C669 1.409 . S
C667 H659 0.930 . S
C667 C668 1.355 . S
C667 C669 1.415 . S
C668 C667 1.355 . S
C668 C670 1.419 . S
C669 C664 1.425 . S
C669 C666 1.409 . S
C669 C667 1.415 . S
C670 H660 0.930 . S
C670 C668 1.419 . S
C670 C671 1.362 . S
C671 H661 0.930 . S
C671 C664 1.409 . S
C671 C670 1.362 . S
H672 C678 0.930 . S
H673 C681 0.930 . S
H674 C682 0.930 . S
H675 C683 0.930 . S
H676 C686 0.930 . S
H677 C687 0.930 . S
C678 H672 0.930 . S
C678 C679 1.355 . S
C678 C680 1.415 . S
C679 C678 1.355 . S
C679 C681 1.419 . S
C680 C678 1.415 . S
C680 C685 1.425 1_455 S
C680 C687 1.409 1_455 S
C681 H673 0.930 . S
C681 C679 1.419 . S
C681 C682 1.362 . S
C682 H674 0.930 . S
C682 C681 1.362 . S
C682 C685 1.409 1_455 S
C683 H675 0.930 . S
C683 C684 1.355 . S
C683 C685 1.415 . S
C684 C683 1.355 . S
C684 C686 1.419 . S
C685 C680 1.425 1_655 S
C685 C682 1.409 1_655 S
C685 C683 1.415 . S
C686 H676 0.930 . S
C686 C684 1.419 . S
C686 C687 1.362 . S
C687 H677 0.930 . S
C687 C680 1.409 1_655 S
C687 C686 1.362 . S
H688 C694 0.930 . S
H689 C697 0.930 . S
H690 C698 0.930 . S
H691 C699 0.930 . S
H692 C702 0.930 . S
H693 C703 0.930 . S
C694 H688 0.930 . S
C694 C695 1.355 . S
C694 C696 1.415 . S
C695 C694 1.355 . S
C695 C697 1.419 1_556 S
C696 C694 1.415 . S
C696 C701 1.425 1_546 S
C696 C703 1.409 1_545 S
C697 H689 0.930 . S
C697 C695 1.419 1_554 S
C697 C698 1.362 . S
C698 H690 0.930 . S
C698 C697 1.362 . S
C698 C701 1.409 1_545 S
C699 H691 0.930 . S
C699 C700 1.355 . S
C699 C701 1.415 . S
C700 C699 1.355 . S
C700 C702 1.419 1_554 S
C701 C696 1.425 1_564 S
C701 C698 1.409 1_565 S
C701 C699 1.415 . S
C702 H692 0.930 . S
C702 C700 1.419 1_556 S
C702 C703 1.362 . S
C703 H693 0.930 . S
C703 C696 1.409 1_565 S
C703 C702 1.362 . S
H704 C710 0.930 . S
H705 C713 0.930 . S
H706 C714 0.930 . S
H707 C715 0.930 . S
H708 C718 0.930 . S
H709 C719 0.930 . S
C710 H704 0.930 . S
C710 C711 1.355 . S
C710 C712 1.415 . S
C711 C710 1.355 . S
C711 C713 1.419 . S
C712 C710 1.415 . S
C712 C717 1.425 . S
C712 C719 1.409 . S
C713 H705 0.930 . S
C713 C711 1.419 . S
C713 C714 1.362 . S
C714 H706 0.930 . S
C714 C713 1.362 . S
C714 C717 1.409 . S
C715 H707 0.930 . S
C715 C716 1.355 . S
C715 C717 1.415 . S
C716 C715 1.355 . S
C716 C718 1.419 . S
C717 C712 1.425 . S
C717 C714 1.409 . S
C717 C715 1.415 . S
C718 H708 0.930 . S
C718 C716 1.419 . S
C718 C719 1.362 . S
C719 H709 0.930 . S
C719 C712 1.409 . S
C719 C718 1.362 . S
H720 C726 0.930 . S
H721 C729 0.930 . S
H722 C730 0.930 . S
H723 C731 0.930 . S
H724 C734 0.930 . S
H725 C735 0.930 . S
C726 H720 0.930 . S
C726 C727 1.355 . S
C726 C728 1.415 . S
C727 C726 1.355 . S
C727 C729 1.419 . S
C728 C726 1.415 . S
C728 C733 1.425 . S
C728 C735 1.409 . S
C729 H721 0.930 . S
C729 C727 1.419 . S
C729 C730 1.362 . S
C730 H722 0.930 . S
C730 C729 1.362 . S
C730 C733 1.409 . S
C731 H723 0.930 . S
C731 C732 1.355 . S
C731 C733 1.415 . S
C732 C731 1.355 . S
C732 C734 1.419 . S
C733 C728 1.425 . S
C733 C730 1.409 . S
C733 C731 1.415 . S
C734 H724 0.930 . S
C734 C732 1.419 . S
C734 C735 1.362 . S
C735 H725 0.930 . S
C735 C728 1.409 . S
C735 C734 1.362 . S
H736 C742 0.930 . S
H737 C745 0.930 . S
H738 C746 0.930 . S
H739 C747 0.930 . S
H740 C750 0.930 . S
H741 C751 0.930 . S
C742 H736 0.930 . S
C742 C743 1.355 . S
C742 C744 1.415 . S
C743 C742 1.355 . S
C743 C745 1.419 . S
C744 C742 1.415 . S
C744 C749 1.425 . S
C744 C751 1.409 . S
C745 H737 0.930 . S
C745 C743 1.419 . S
C745 C746 1.362 . S
C746 H738 0.930 . S
C746 C745 1.362 . S
C746 C749 1.409 . S
C747 H739 0.930 . S
C747 C748 1.355 . S
C747 C749 1.415 . S
C748 C747 1.355 . S
C748 C750 1.419 . S
C749 C744 1.425 . S
C749 C746 1.409 . S
C749 C747 1.415 . S
C750 H740 0.930 . S
C750 C748 1.419 . S
C750 C751 1.362 . S
C751 H741 0.930 . S
C751 C744 1.409 . S
C751 C750 1.362 . S
H752 C758 0.930 . S
H753 C761 0.930 . S
H754 C762 0.930 . S
H755 C763 0.930 . S
H756 C766 0.930 . S
H757 C767 0.930 . S
C758 H752 0.930 . S
C758 C759 1.355 . S
C758 C760 1.415 . S
C759 C758 1.355 . S
C759 C761 1.419 . S
C760 C758 1.415 . S
C760 C765 1.425 . S
C760 C767 1.409 . S
C761 H753 0.930 . S
C761 C759 1.419 . S
C761 C762 1.362 . S
C762 H754 0.930 . S
C762 C761 1.362 . S
C762 C765 1.409 . S
C763 H755 0.930 . S
C763 C764 1.355 . S
C763 C765 1.415 . S
C764 C763 1.355 . S
C764 C766 1.419 . S
C765 C760 1.425 . S
C765 C762 1.409 . S
C765 C763 1.415 . S
C766 H756 0.930 . S
C766 C764 1.419 . S
C766 C767 1.362 . S
C767 H757 0.930 . S
C767 C760 1.409 . S
C767 C766 1.362 . S
H768 C774 0.930 . S
H769 C777 0.930 . S
H770 C778 0.930 . S
H771 C779 0.930 . S
H772 C782 0.930 . S
H773 C783 0.930 . S
C774 H768 0.930 . S
C774 C775 1.355 . S
C774 C776 1.415 . S
C775 C774 1.355 . S
C775 C777 1.419 . S
C776 C774 1.415 . S
C776 C781 1.425 . S
C776 C783 1.409 . S
C777 H769 0.930 . S
C777 C775 1.419 . S
C777 C778 1.362 . S
C778 H770 0.930 . S
C778 C777 1.362 . S
C778 C781 1.409 . S
C779 H771 0.930 . S
C779 C780 1.355 . S
C779 C781 1.415 . S
C780 C779 1.355 . S
C780 C782 1.419 . S
C781 C776 1.425 . S
C781 C778 1.409 . S
C781 C779 1.415 . S
C782 H772 0.930 . S
C782 C780 1.419 . S
C782 C783 1.362 . S
C783 H773 0.930 . S
C783 C776 1.409 . S
C783 C782 1.362 . S
H784 C790 0.930 . S
H785 C793 0.930 1_554 S
H786 C794 0.930 . S
H787 C795 0.930 . S
H788 C798 0.930 . S
H789 C799 0.930 . S
C790 H784 0.930 . S
C790 C791 1.355 . S
C790 C792 1.415 . S
C791 C790 1.355 . S
C791 C793 1.419 . S
C792 C790 1.415 . S
C792 C797 1.425 . S
C792 C799 1.409 . S
C793 H785 0.930 1_556 S
C793 C791 1.419 . S
C793 C794 1.362 . S
C794 H786 0.930 . S
C794 C793 1.362 . S
C794 C797 1.409 . S
C795 H787 0.930 . S
C795 C796 1.355 . S
C795 C797 1.415 . S
C796 C795 1.355 . S
C796 C798 1.419 . S
C797 C792 1.425 . S
C797 C794 1.409 . S
C797 C795 1.415 . S
C798 H788 0.930 . S
C798 C796 1.419 . S
C798 C799 1.362 . S
C799 H789 0.930 . S
C799 C792 1.409 . S
C799 C798 1.362 . S
H800 C806 0.930 . S
H801 C809 0.930 . S
H802 C810 0.930 . S
H803 C811 0.930 . S
H804 C814 0.930 . S
H805 C815 0.930 . S
C806 H800 0.930 . S
C806 C807 1.355 . S
C806 C808 1.415 . S
C807 C806 1.355 . S
C807 C809 1.419 . S
C808 C806 1.415 . S
C808 C813 1.425 . S
C808 C815 1.409 . S
C809 H801 0.930 . S
C809 C807 1.419 . S
C809 C810 1.362 . S
C810 H802 0.930 . S
C810 C809 1.362 . S
C810 C813 1.409 . S
C811 H803 0.930 . S
C811 C812 1.355 . S
C811 C813 1.415 . S
C812 C811 1.355 . S
C812 C814 1.419 . S
C813 C808 1.425 . S
C813 C810 1.409 . S
C813 C811 1.415 . S
C814 H804 0.930 . S
C814 C812 1.419 . S
C814 C815 1.362 . S
C815 H805 0.930 . S
C815 C808 1.409 . S
C815 C814 1.362 . S
C439 C2 0.802 . S
C444 C218 0.712 . S
C455 C38 0.800 . S
C460 C254 0.674 . S
C471 C290 0.789 . S
C476 C74 0.655 . S
C487 C110 0.643 . S
C492 C326 0.763 . S
C503 C146 0.786 . S
C508 C362 0.652 . S
C519 C398 0.752 . S
C524 C182 0.785 . S
C535 C292 1.404 . S
C540 C4 1.425 . S
C551 C40 1.370 . S
C556 C328 1.376 . S
C567 C364 1.454 1_556 S
C572 C76 1.435 . S
C583 C400 1.378 . S
C588 C112 1.394 1_554 S
C599 C148 1.371 . S
C604 C220 1.370 . S
C615 C184 1.401 . S
C620 C256 1.383 . S
C631 C410 1.225 . S
C636 C14 1.205 . S
C647 C230 1.241 . S
C652 C50 1.212 . S
C663 C86 1.276 . S
C668 C266 1.265 . S
C679 C302 1.253 . S
C684 C122 1.221 . S
C695 C338 1.276 . S
C700 C158 1.263 . S
C711 C374 1.238 . S
C716 C194 1.210 . S
C727 C3 1.592 . S
C732 C363 1.582 . S
C743 C399 1.580 . S
C748 C39 1.595 . S
C759 C75 1.601 . S
C764 C219 1.584 . S
C775 C111 1.579 . S
C780 C255 1.595 . S
C791 C147 1.605 1_556 S
C796 C291 1.578 . S
C807 C183 1.574 . S
C812 C327 1.605 1_554 S
