# Generated by pormake.
# Topology ukk, (4)-cn, num edge types: 1
# Building blocks:
#     Node 0, Type 0, BuildingBlock: KOZSID_clean_sbu_0, # of connection points: 4
#     Node 1, Type 0, BuildingBlock: KOZSID_clean_sbu_0, # of connection points: 4
#     Node 2, Type 0, BuildingBlock: KOZSID_clean_sbu_0, # of connection points: 4
#     Node 3, Type 0, BuildingBlock: KOZSID_clean_sbu_0, # of connection points: 4
#     Node 4, Type 0, BuildingBlock: KOZSID_clean_sbu_0, # of connection points: 4
#     Node 5, Type 0, BuildingBlock: KOZSID_clean_sbu_0, # of connection points: 4
#     Node 6, Type 0, BuildingBlock: KOZSID_clean_sbu_0, # of connection points: 4
#     Node 7, Type 0, BuildingBlock: KOZSID_clean_sbu_0, # of connection points: 4
#     Node 8, Type 0, BuildingBlock: KOZSID_clean_sbu_0, # of connection points: 4
#     Node 9, Type 0, BuildingBlock: KOZSID_clean_sbu_0, # of connection points: 4
#     Node 10, Type 0, BuildingBlock: KOZSID_clean_sbu_0, # of connection points: 4
#     Node 11, Type 0, BuildingBlock: KOZSID_clean_sbu_0, # of connection points: 4
#     Node 12, Type 0, BuildingBlock: KOZSID_clean_sbu_0, # of connection points: 4
#     Node 13, Type 0, BuildingBlock: KOZSID_clean_sbu_0, # of connection points: 4
#     Node 14, Type 0, BuildingBlock: KOZSID_clean_sbu_0, # of connection points: 4
#     Node 15, Type 0, BuildingBlock: KOZSID_clean_sbu_0, # of connection points: 4
#     Edge 16, Type (0, 0), BuildingBlock: OJICUG_clean_linker_0, # of connection points: 2
#     Edge 17, Type (0, 0), BuildingBlock: OJICUG_clean_linker_0, # of connection points: 2
#     Edge 18, Type (0, 0), BuildingBlock: OJICUG_clean_linker_0, # of connection points: 2
#     Edge 19, Type (0, 0), BuildingBlock: OJICUG_clean_linker_0, # of connection points: 2
#     Edge 20, Type (0, 0), BuildingBlock: OJICUG_clean_linker_0, # of connection points: 2
#     Edge 21, Type (0, 0), BuildingBlock: OJICUG_clean_linker_0, # of connection points: 2
#     Edge 22, Type (0, 0), BuildingBlock: OJICUG_clean_linker_0, # of connection points: 2
#     Edge 23, Type (0, 0), BuildingBlock: OJICUG_clean_linker_0, # of connection points: 2
#     Edge 24, Type (0, 0), BuildingBlock: OJICUG_clean_linker_0, # of connection points: 2
#     Edge 25, Type (0, 0), BuildingBlock: OJICUG_clean_linker_0, # of connection points: 2
#     Edge 26, Type (0, 0), BuildingBlock: OJICUG_clean_linker_0, # of connection points: 2
#     Edge 27, Type (0, 0), BuildingBlock: OJICUG_clean_linker_0, # of connection points: 2
#     Edge 28, Type (0, 0), BuildingBlock: OJICUG_clean_linker_0, # of connection points: 2
#     Edge 29, Type (0, 0), BuildingBlock: OJICUG_clean_linker_0, # of connection points: 2
#     Edge 30, Type (0, 0), BuildingBlock: OJICUG_clean_linker_0, # of connection points: 2
#     Edge 31, Type (0, 0), BuildingBlock: OJICUG_clean_linker_0, # of connection points: 2
#     Edge 32, Type (0, 0), BuildingBlock: OJICUG_clean_linker_0, # of connection points: 2
#     Edge 33, Type (0, 0), BuildingBlock: OJICUG_clean_linker_0, # of connection points: 2
#     Edge 34, Type (0, 0), BuildingBlock: OJICUG_clean_linker_0, # of connection points: 2
#     Edge 35, Type (0, 0), BuildingBlock: OJICUG_clean_linker_0, # of connection points: 2
#     Edge 36, Type (0, 0), BuildingBlock: OJICUG_clean_linker_0, # of connection points: 2
#     Edge 37, Type (0, 0), BuildingBlock: OJICUG_clean_linker_0, # of connection points: 2
#     Edge 38, Type (0, 0), BuildingBlock: OJICUG_clean_linker_0, # of connection points: 2
#     Edge 39, Type (0, 0), BuildingBlock: OJICUG_clean_linker_0, # of connection points: 2
#     Edge 40, Type (0, 0), BuildingBlock: OJICUG_clean_linker_0, # of connection points: 2
#     Edge 41, Type (0, 0), BuildingBlock: OJICUG_clean_linker_0, # of connection points: 2
#     Edge 42, Type (0, 0), BuildingBlock: OJICUG_clean_linker_0, # of connection points: 2
#     Edge 43, Type (0, 0), BuildingBlock: OJICUG_clean_linker_0, # of connection points: 2
#     Edge 44, Type (0, 0), BuildingBlock: OJICUG_clean_linker_0, # of connection points: 2
#     Edge 45, Type (0, 0), BuildingBlock: OJICUG_clean_linker_0, # of connection points: 2
#     Edge 46, Type (0, 0), BuildingBlock: OJICUG_clean_linker_0, # of connection points: 2
#     Edge 47, Type (0, 0), BuildingBlock: OJICUG_clean_linker_0, # of connection points: 2
# Relax obj value: 0.055
# Max RMSD: 0.206
# Mean RMSD: 0.206
data_MOF--net-ukk--node1-KOZSID_clean_sbu_0--edge1-OJICUG_clean_linker_0
_symmetry_space_group_name_H-M    P1
_symmetry_Int_Tables_number       1
_symmetry_cell_setting            triclinic
loop_
_symmetry_equiv_pos_as_xyz
'x, y, z'
_cell_length_a     50.031889
_cell_length_b     50.032328
_cell_length_c     21.273589
_cell_angle_alpha  89.99892
_cell_angle_beta   89.999658
_cell_angle_gamma 89.999838
loop_
_atom_site_label
_atom_site_type_symbol
_atom_site_fract_x
_atom_site_fract_y
_atom_site_fract_z
_atom_type_partial_charge
C0 C 0.36535 0.08003 0.1948 0.0
C1 C 0.3489 0.06858 0.23994 0.0
C2 C 0.3328 0.08859 0.26216 0.0
C3 C 0.34024 0.11101 0.22938 0.0
N4 N 0.36 0.10644 0.18787 0.0
Co5 Co 0.37629 0.13339 0.1308 0.0
N6 N 0.36222 0.16372 0.18163 0.0
C7 C 0.3434 0.16189 0.22676 0.0
C8 C 0.33917 0.18545 0.25802 0.0
C9 C 0.35605 0.20342 0.23035 0.0
C10 C 0.36927 0.18996 0.18234 0.0
N11 N 0.39227 0.1605 0.07348 0.0
C12 C 0.39539 0.18743 0.08038 0.0
C13 C 0.40593 0.19856 0.02596 0.0
C14 C 0.40936 0.17804 0.98391 0.0
C15 C 0.40067 0.1555 0.01447 0.0
N16 N 0.39039 0.1028 0.08098 0.0
C17 C 0.39916 0.10414 0.02136 0.0
C18 C 0.40793 0.07985 0.99919 0.0
C19 C 0.4043 0.06215 0.04794 0.0
C20 C 0.39347 0.07665 0.09725 0.0
N21 N 0.3434 0.13349 0.07794 0.0
C22 C 0.30218 0.13338 0.98535 0.0
C23 C 0.31196 0.10948 0.01178 0.0
C24 C 0.33226 0.10997 0.05779 0.0
C25 C 0.31284 0.15736 0.00932 0.0
C26 C 0.33315 0.15699 0.05521 0.0
N27 N 0.40957 0.13316 0.18119 0.0
C28 C 0.45785 0.131 0.18318 0.0
C29 C 0.45834 0.13133 0.24912 0.0
C30 C 0.43353 0.13298 0.28028 0.0
C31 C 0.40945 0.13379 0.24557 0.0
C32 C 0.43359 0.13189 0.15057 0.0
H33 H 0.39077 0.13476 0.2708 0.0
H34 H 0.43441 0.13146 0.10006 0.0
H35 H 0.33959 0.09112 0.0754 0.0
H36 H 0.3411 0.17587 0.07083 0.0
C37 C 0.33313 0.13712 0.24489 0.0
C38 C 0.38482 0.06493 0.15747 0.0
C39 C 0.38598 0.20341 0.1346 0.0
C40 C 0.40281 0.1291 0.99238 0.0
H41 H 0.34864 0.04797 0.25538 0.0
H42 H 0.31835 0.0872 0.29988 0.0
H43 H 0.32612 0.18894 0.29776 0.0
H44 H 0.35805 0.22417 0.24377 0.0
H45 H 0.41015 0.21942 0.01694 0.0
H46 H 0.41756 0.17939 0.93693 0.0
H47 H 0.41684 0.07567 0.95388 0.0
H48 H 0.40898 0.04104 0.04725 0.0
H49 H 0.30474 0.09029 0.99559 0.0
H50 H 0.30572 0.1765 0.99254 0.0
H51 H 0.47622 0.13043 0.1563 0.0
H52 H 0.43263 0.13325 0.33112 0.0
C53 C 0.07661 0.63093 0.91801 0.0
C54 C 0.0621 0.62012 0.96735 0.0
C55 C 0.07981 0.61649 0.01609 0.0
C56 C 0.1041 0.62524 0.99389 0.0
N57 N 0.10276 0.63401 0.93427 0.0
Co58 Co 0.13335 0.64808 0.88442 0.0
N59 N 0.16046 0.63211 0.94175 0.0
C60 C 0.15545 0.62373 1.00078 0.0
C61 C 0.178 0.61504 0.03136 0.0
C62 C 0.19852 0.61845 0.98929 0.0
C63 C 0.18738 0.62898 0.93486 0.0
N64 N 0.16368 0.66213 0.83356 0.0
C65 C 0.18992 0.65507 0.83286 0.0
C66 C 0.20338 0.66827 0.78482 0.0
C67 C 0.18541 0.68515 0.75713 0.0
C68 C 0.16185 0.68094 0.78841 0.0
N69 N 0.1064 0.66437 0.82734 0.0
C70 C 0.11098 0.68412 0.78581 0.0
C71 C 0.08855 0.69155 0.75301 0.0
C72 C 0.06855 0.67546 0.77526 0.0
C73 C 0.07999 0.65902 0.82042 0.0
N74 N 0.13346 0.68098 0.93724 0.0
C75 C 0.13337 0.72221 0.02982 0.0
C76 C 0.15734 0.71154 1.00584 0.0
C77 C 0.15697 0.69122 0.95995 0.0
C78 C 0.10947 0.71244 1.0034 0.0
C79 C 0.10995 0.69214 0.95739 0.0
N80 N 0.13311 0.6148 0.83408 0.0
C81 C 0.13292 0.5908 0.73502 0.0
C82 C 0.13127 0.566 0.76622 0.0
C83 C 0.13094 0.56651 0.83216 0.0
C84 C 0.13183 0.59078 0.86473 0.0
C85 C 0.13373 0.61489 0.76969 0.0
H86 H 0.13141 0.58997 0.91524 0.0
H87 H 0.13471 0.63357 0.74443 0.0
H88 H 0.17585 0.68327 0.94433 0.0
H89 H 0.0911 0.68481 0.9398 0.0
C90 C 0.12905 0.6216 0.02289 0.0
C91 C 0.06488 0.63958 0.85778 0.0
C92 C 0.20336 0.63836 0.88061 0.0
C93 C 0.13709 0.69121 0.77027 0.0
H94 H 0.04099 0.61546 0.96805 0.0
H95 H 0.07562 0.6076 0.06141 0.0
H96 H 0.17935 0.60687 0.07835 0.0
H97 H 0.21937 0.61424 0.99832 0.0
H98 H 0.22413 0.66626 0.77139 0.0
H99 H 0.1889 0.69819 0.71737 0.0
H100 H 0.08717 0.70599 0.71526 0.0
H101 H 0.04794 0.67573 0.75981 0.0
H102 H 0.17649 0.71865 0.02261 0.0
H103 H 0.09028 0.71966 0.01959 0.0
H104 H 0.13319 0.59169 0.68418 0.0
H105 H 0.13037 0.54815 0.85906 0.0
C106 C 0.65905 0.94426 0.195 0.0
C107 C 0.67549 0.95568 0.24019 0.0
C108 C 0.69159 0.93567 0.26237 0.0
C109 C 0.68415 0.91326 0.22952 0.0
N110 N 0.6644 0.91786 0.188 0.0
Co111 Co 0.64813 0.89094 0.13082 0.0
N112 N 0.66219 0.86059 0.18157 0.0
C113 C 0.68101 0.86239 0.22671 0.0
C114 C 0.68523 0.83881 0.25789 0.0
C115 C 0.66836 0.82086 0.23017 0.0
C116 C 0.65513 0.83434 0.1822 0.0
N117 N 0.63216 0.86386 0.07341 0.0
C118 C 0.62902 0.83694 0.08025 0.0
C119 C 0.61847 0.82583 0.02581 0.0
C120 C 0.61506 0.84637 0.98379 0.0
C121 C 0.62377 0.86889 0.01441 0.0
N122 N 0.63404 0.92155 0.08107 0.0
C123 C 0.62528 0.92025 0.02144 0.0
C124 C 0.61653 0.94455 0.99931 0.0
C125 C 0.62016 0.96223 0.04811 0.0
C126 C 0.63096 0.9477 0.09741 0.0
N127 N 0.68103 0.89088 0.078 0.0
C128 C 0.72233 0.89108 0.98571 0.0
C129 C 0.71246 0.91495 0.01197 0.0
C130 C 0.69215 0.91442 0.05793 0.0
C131 C 0.7117 0.86707 0.0095 0.0
C132 C 0.69132 0.86739 0.05526 0.0
N133 N 0.61484 0.89114 0.18118 0.0
C134 C 0.56655 0.89331 0.18313 0.0
C135 C 0.56605 0.89294 0.24907 0.0
C136 C 0.59086 0.89127 0.28025 0.0
C137 C 0.61494 0.89048 0.24556 0.0
C138 C 0.59082 0.89243 0.15054 0.0
H139 H 0.63362 0.88948 0.2708 0.0
H140 H 0.59001 0.89289 0.10004 0.0
H141 H 0.68488 0.93325 0.07579 0.0
H142 H 0.68326 0.8485 0.0705 0.0
C143 C 0.69127 0.88714 0.24494 0.0
C144 C 0.63961 0.95939 0.15767 0.0
C145 C 0.63841 0.82093 0.13444 0.0
C146 C 0.62164 0.89531 0.99238 0.0
H147 H 0.67575 0.97629 0.2557 0.0
H148 H 0.70603 0.93704 0.30011 0.0
H149 H 0.69828 0.8353 0.29763 0.0
H150 H 0.66635 0.8001 0.24355 0.0
H151 H 0.61424 0.80498 0.01674 0.0
H152 H 0.60687 0.84505 0.93681 0.0
H153 H 0.60764 0.94876 0.95401 0.0
H154 H 0.61549 0.98334 0.04747 0.0
H155 H 0.72025 0.9341 0.99697 0.0
H156 H 0.71833 0.84798 0.99133 0.0
H157 H 0.54819 0.8939 0.15624 0.0
H158 H 0.59175 0.89097 0.33109 0.0
C159 C 0.94763 0.39338 0.91822 0.0
C160 C 0.96215 0.4042 0.96752 0.0
C161 C 0.94446 0.40784 0.01629 0.0
C162 C 0.92016 0.39909 0.99413 0.0
N163 N 0.92148 0.39031 0.93452 0.0
Co164 Co 0.89087 0.37622 0.88474 0.0
N165 N 0.86379 0.39221 0.9421 0.0
C166 C 0.86881 0.40059 1.0011 0.0
C167 C 0.84627 0.40929 0.03171 0.0
C168 C 0.82574 0.40587 0.98967 0.0
C169 C 0.83686 0.39534 0.93524 0.0
N170 N 0.86053 0.36217 0.83394 0.0
C171 C 0.83429 0.36923 0.83327 0.0
C172 C 0.82082 0.35601 0.78528 0.0
C173 C 0.83877 0.33913 0.75758 0.0
C174 C 0.86234 0.34334 0.78881 0.0
N175 N 0.91781 0.35992 0.82762 0.0
C176 C 0.91322 0.34017 0.78612 0.0
C177 C 0.93563 0.33273 0.7533 0.0
C178 C 0.95565 0.34882 0.77549 0.0
C179 C 0.94422 0.36527 0.82066 0.0
N180 N 0.89078 0.34333 0.93759 0.0
C181 C 0.8909 0.30211 0.03019 0.0
C182 C 0.86692 0.31278 1.00624 0.0
C183 C 0.86728 0.33309 0.96034 0.0
C184 C 0.91479 0.31188 1.00373 0.0
C185 C 0.9143 0.33218 0.95771 0.0
N186 N 0.8911 0.4095 0.83436 0.0
C187 C 0.89126 0.43348 0.73527 0.0
C188 C 0.89291 0.45828 0.76644 0.0
C189 C 0.89326 0.45779 0.83238 0.0
C190 C 0.89238 0.43352 0.86499 0.0
C191 C 0.89046 0.40939 0.76997 0.0
H192 H 0.89282 0.43434 0.91549 0.0
H193 H 0.88948 0.39071 0.74474 0.0
H194 H 0.8484 0.34105 0.94475 0.0
H195 H 0.93315 0.3395 0.94009 0.0
C196 C 0.89521 0.40273 0.02317 0.0
C197 C 0.95934 0.38472 0.85798 0.0
C198 C 0.82086 0.38594 0.88103 0.0
C199 C 0.8871 0.33307 0.77064 0.0
H200 H 0.98326 0.40886 0.96818 0.0
H201 H 0.94865 0.41674 0.06159 0.0
H202 H 0.84494 0.41748 0.0787 0.0
H203 H 0.80489 0.41009 0.99874 0.0
H204 H 0.80006 0.35802 0.77189 0.0
H205 H 0.83527 0.32608 0.71785 0.0
H206 H 0.93701 0.31828 0.71557 0.0
H207 H 0.97625 0.34855 0.76002 0.0
H208 H 0.84778 0.30567 0.02304 0.0
H209 H 0.93399 0.30466 0.01989 0.0
H210 H 0.89098 0.43258 0.68444 0.0
H211 H 0.89384 0.47615 0.85927 0.0
C212 C 0.36522 0.44428 0.07052 0.0
C213 C 0.34876 0.45571 0.02536 0.0
C214 C 0.33268 0.43569 1.00317 0.0
C215 C 0.34012 0.41328 0.03598 0.0
N216 N 0.35988 0.41787 0.07749 0.0
Co217 Co 0.37618 0.39095 0.13461 0.0
N218 N 0.36213 0.3606 0.08382 0.0
C219 C 0.34331 0.36241 0.03869 0.0
C220 C 0.3391 0.33883 1.00746 0.0
C221 C 0.35599 0.32089 0.03515 0.0
C222 C 0.3692 0.33436 0.08315 0.0
N223 N 0.39217 0.36386 0.19198 0.0
C224 C 0.39531 0.33694 0.18511 0.0
C225 C 0.40586 0.32582 0.23954 0.0
C226 C 0.40927 0.34636 0.28158 0.0
C227 C 0.40056 0.36889 0.25098 0.0
N228 N 0.39025 0.42156 0.18439 0.0
C229 C 0.39903 0.42024 0.24401 0.0
C230 C 0.40778 0.44454 0.26615 0.0
C231 C 0.40414 0.46223 0.21737 0.0
C232 C 0.39332 0.44771 0.16808 0.0
N233 N 0.34329 0.39084 0.18746 0.0
C234 C 0.30206 0.39095 0.28005 0.0
C235 C 0.31183 0.41485 0.25359 0.0
C236 C 0.33213 0.41436 0.20758 0.0
C237 C 0.31274 0.36697 0.2561 0.0
C238 C 0.33305 0.36734 0.21021 0.0
N239 N 0.40946 0.39118 0.08424 0.0
C240 C 0.45775 0.39335 0.08227 0.0
C241 C 0.45825 0.39298 0.01633 0.0
C242 C 0.43344 0.39132 0.98516 0.0
C243 C 0.40936 0.39053 0.01986 0.0
C244 C 0.43348 0.39247 0.11487 0.0
H245 H 0.39068 0.38953 0.99461 0.0
H246 H 0.4343 0.39292 0.16537 0.0
H247 H 0.33944 0.43321 0.18996 0.0
H248 H 0.34102 0.34846 0.19462 0.0
C249 C 0.33303 0.38716 0.02051 0.0
C250 C 0.38467 0.4594 0.10783 0.0
C251 C 0.38593 0.32094 0.1309 0.0
C252 C 0.40268 0.3953 0.27304 0.0
H253 H 0.34849 0.47632 0.00988 0.0
H254 H 0.31822 0.43706 0.96544 0.0
H255 H 0.32605 0.33533 0.96772 0.0
H256 H 0.35801 0.30013 0.02175 0.0
H257 H 0.41009 0.30497 0.2486 0.0
H258 H 0.41746 0.34502 0.32856 0.0
H259 H 0.41668 0.44874 0.31146 0.0
H260 H 0.4088 0.48334 0.21803 0.0
H261 H 0.30459 0.43403 0.26975 0.0
H262 H 0.30563 0.34783 0.2729 0.0
H263 H 0.47611 0.39393 0.10916 0.0
H264 H 0.43255 0.39103 0.93432 0.0
C265 C 0.44767 0.63087 0.84727 0.0
C266 C 0.46219 0.62005 0.79797 0.0
C267 C 0.4445 0.61642 0.74919 0.0
C268 C 0.4202 0.62518 0.77133 0.0
N269 N 0.42152 0.63395 0.83095 0.0
Co270 Co 0.39091 0.64806 0.88068 0.0
N271 N 0.36383 0.6321 0.82328 0.0
C272 C 0.36885 0.62371 0.76429 0.0
C273 C 0.34632 0.61501 0.73367 0.0
C274 C 0.32578 0.61843 0.77568 0.0
C275 C 0.3369 0.62897 0.83012 0.0
N276 N 0.36057 0.66214 0.93143 0.0
C277 C 0.33432 0.6551 0.93206 0.0
C278 C 0.32084 0.66833 0.98003 0.0
C279 C 0.3388 0.6852 0.00774 0.0
C280 C 0.36238 0.68097 0.97656 0.0
N281 N 0.41784 0.66433 0.93785 0.0
C282 C 0.41326 0.68409 0.97935 0.0
C283 C 0.43567 0.69151 0.01222 0.0
C284 C 0.45568 0.6754 0.99004 0.0
C285 C 0.44425 0.65896 0.94485 0.0
N286 N 0.39087 0.68096 0.82784 0.0
C287 C 0.39109 0.72225 0.73554 0.0
C288 C 0.36707 0.71163 0.75933 0.0
C289 C 0.36739 0.69125 0.80509 0.0
C290 C 0.41496 0.71237 0.76181 0.0
C291 C 0.41442 0.69206 0.80776 0.0
N292 N 0.3911 0.61478 0.93106 0.0
C293 C 0.39122 0.5908 0.03015 0.0
C294 C 0.39288 0.566 0.99899 0.0
C295 C 0.39324 0.56649 0.93306 0.0
C296 C 0.39237 0.59076 0.90044 0.0
C297 C 0.39044 0.61489 0.99545 0.0
H298 H 0.39282 0.58993 0.84994 0.0
H299 H 0.38946 0.63357 0.02068 0.0
H300 H 0.34849 0.68321 0.82034 0.0
H301 H 0.43324 0.68479 0.82563 0.0
C302 C 0.39526 0.62155 0.74226 0.0
C303 C 0.45937 0.63952 0.90752 0.0
C304 C 0.32089 0.63838 0.88432 0.0
C305 C 0.38714 0.69121 0.99478 0.0
H306 H 0.4833 0.61538 0.79732 0.0
H307 H 0.4487 0.60753 0.70388 0.0
H308 H 0.34499 0.60682 0.68669 0.0
H309 H 0.30493 0.61422 0.76661 0.0
H310 H 0.30008 0.66634 0.9934 0.0
H311 H 0.3353 0.69826 0.04748 0.0
H312 H 0.43704 0.70596 0.04995 0.0
H313 H 0.47628 0.67566 1.00554 0.0
H314 H 0.34799 0.71827 0.74116 0.0
H315 H 0.43411 0.72015 0.7468 0.0
H316 H 0.39093 0.5917 0.08099 0.0
H317 H 0.39381 0.54812 0.90617 0.0
C318 C 0.65895 0.58002 0.07056 0.0
C319 C 0.6754 0.56857 0.02542 0.0
C320 C 0.6915 0.58857 1.00319 0.0
C321 C 0.68407 0.61099 0.03597 0.0
N322 N 0.66431 0.60642 0.07748 0.0
Co323 Co 0.64803 0.63338 0.13456 0.0
N324 N 0.66209 0.6637 0.08371 0.0
C325 C 0.68092 0.66187 0.03858 0.0
C326 C 0.68514 0.68543 1.00731 0.0
C327 C 0.66826 0.7034 0.03498 0.0
C328 C 0.65504 0.68994 0.083 0.0
N329 N 0.63205 0.66049 0.19188 0.0
C330 C 0.62893 0.68741 0.18497 0.0
C331 C 0.61839 0.69855 0.23939 0.0
C332 C 0.61496 0.67803 0.28145 0.0
C333 C 0.62366 0.65549 0.25089 0.0
N334 N 0.63393 0.60279 0.18439 0.0
C335 C 0.62516 0.60413 0.24401 0.0
C336 C 0.61639 0.57985 0.26619 0.0
C337 C 0.62002 0.56214 0.21744 0.0
C338 C 0.63084 0.57664 0.16812 0.0
N339 N 0.68092 0.63347 0.18741 0.0
C340 C 0.72215 0.63336 0.28 0.0
C341 C 0.71236 0.60946 0.25357 0.0
C342 C 0.69206 0.60995 0.20755 0.0
C343 C 0.71148 0.65733 0.25602 0.0
C344 C 0.69117 0.65697 0.21013 0.0
N345 N 0.61475 0.63315 0.08418 0.0
C346 C 0.56646 0.631 0.08221 0.0
C347 C 0.56596 0.63133 0.01627 0.0
C348 C 0.59077 0.63298 0.9851 0.0
C349 C 0.61485 0.63378 0.0198 0.0
C350 C 0.59073 0.63188 0.11481 0.0
H351 H 0.63354 0.63475 0.99456 0.0
H352 H 0.5899 0.63146 0.16532 0.0
H353 H 0.68473 0.59111 0.18995 0.0
H354 H 0.68322 0.67586 0.19452 0.0
C355 C 0.69118 0.6371 0.02045 0.0
C356 C 0.63949 0.56492 0.1079 0.0
C357 C 0.63834 0.7034 0.13074 0.0
C358 C 0.62152 0.62909 0.27299 0.0
H359 H 0.67566 0.54795 0.00998 0.0
H360 H 0.70595 0.58717 0.96546 0.0
H361 H 0.69819 0.68891 0.96756 0.0
H362 H 0.66626 0.72415 0.02155 0.0
H363 H 0.61418 0.71941 0.24841 0.0
H364 H 0.60678 0.67938 0.32844 0.0
H365 H 0.60748 0.57566 0.3115 0.0
H366 H 0.61534 0.54103 0.21813 0.0
H367 H 0.71958 0.59027 0.26975 0.0
H368 H 0.7186 0.67647 0.2728 0.0
H369 H 0.54809 0.63044 0.1091 0.0
H370 H 0.59167 0.63324 0.93426 0.0
C371 C 0.57657 0.39339 0.84741 0.0
C372 C 0.56207 0.4042 0.79809 0.0
C373 C 0.57977 0.40784 0.74933 0.0
C374 C 0.60406 0.39909 0.77153 0.0
N375 N 0.60272 0.39032 0.83114 0.0
Co376 Co 0.63332 0.37623 0.88097 0.0
N377 N 0.66042 0.39221 0.82364 0.0
C378 C 0.65542 0.40059 0.76462 0.0
C379 C 0.67796 0.40929 0.73403 0.0
C380 C 0.69848 0.40587 0.77609 0.0
C381 C 0.68735 0.39534 0.83052 0.0
N382 N 0.66365 0.36218 0.93182 0.0
C383 C 0.68989 0.36924 0.93251 0.0
C384 C 0.70335 0.35603 0.98053 0.0
C385 C 0.68539 0.33915 0.00821 0.0
C386 C 0.66183 0.34336 0.97696 0.0
N387 N 0.60637 0.35994 0.93806 0.0
C388 C 0.61095 0.34019 0.97958 0.0
C389 C 0.58853 0.33276 0.01239 0.0
C390 C 0.56852 0.34885 0.99015 0.0
C391 C 0.57996 0.36529 0.94499 0.0
N392 N 0.63343 0.34334 0.82813 0.0
C393 C 0.63333 0.30211 0.73555 0.0
C394 C 0.6573 0.31278 0.75953 0.0
C395 C 0.65693 0.3331 0.80542 0.0
C396 C 0.60943 0.31188 0.76198 0.0
C397 C 0.60991 0.33218 0.80799 0.0
N398 N 0.63308 0.40952 0.93133 0.0
C399 C 0.63292 0.4335 0.03041 0.0
C400 C 0.63127 0.45831 0.99922 0.0
C401 C 0.63093 0.45781 0.93329 0.0
C402 C 0.63181 0.43353 0.90069 0.0
C403 C 0.63371 0.40942 0.99572 0.0
H404 H 0.63138 0.43435 0.85019 0.0
H405 H 0.63469 0.39074 0.02097 0.0
H406 H 0.67581 0.34105 0.82103 0.0
H407 H 0.59106 0.33951 0.82558 0.0
C408 C 0.62901 0.40273 0.74252 0.0
C409 C 0.56485 0.38474 0.90764 0.0
C410 C 0.70333 0.38595 0.88476 0.0
C411 C 0.63707 0.3331 0.9951 0.0
H412 H 0.54095 0.40887 0.79739 0.0
H413 H 0.57558 0.41673 0.70402 0.0
H414 H 0.6793 0.41747 0.68704 0.0
H415 H 0.71934 0.41008 0.76705 0.0
H416 H 0.72411 0.35803 0.99394 0.0
H417 H 0.68888 0.3261 0.04796 0.0
H418 H 0.58714 0.31831 0.05013 0.0
H419 H 0.54791 0.34858 1.0056 0.0
H420 H 0.67645 0.30567 0.74276 0.0
H421 H 0.59024 0.30466 0.74579 0.0
H422 H 0.63319 0.43261 0.08124 0.0
H423 H 0.63036 0.47617 0.90639 0.0
C424 C 0.86529 0.58001 0.695 0.0
C425 C 0.84884 0.56859 0.7402 0.0
C426 C 0.83275 0.5886 0.76237 0.0
C427 C 0.84018 0.61101 0.72952 0.0
N428 N 0.85993 0.60641 0.688 0.0
Co429 Co 0.87621 0.63333 0.63082 0.0
N430 N 0.86214 0.66369 0.68157 0.0
C431 C 0.84332 0.66188 0.7267 0.0
C432 C 0.8391 0.68546 0.75789 0.0
C433 C 0.85597 0.70341 0.73017 0.0
C434 C 0.8692 0.68993 0.6822 0.0
N435 N 0.89218 0.66041 0.57341 0.0
C436 C 0.89532 0.68734 0.58025 0.0
C437 C 0.90586 0.69844 0.52582 0.0
C438 C 0.90928 0.6779 0.4838 0.0
C439 C 0.90056 0.65538 0.51441 0.0
N440 N 0.8903 0.60272 0.58108 0.0
C441 C 0.89906 0.60403 0.52145 0.0
C442 C 0.90781 0.57973 0.49932 0.0
C443 C 0.90418 0.56205 0.54812 0.0
C444 C 0.89337 0.57657 0.59741 0.0
N445 N 0.84331 0.63339 0.578 0.0
C446 C 0.80201 0.63319 0.48571 0.0
C447 C 0.81187 0.60931 0.51198 0.0
C448 C 0.83219 0.60984 0.55793 0.0
C449 C 0.81264 0.6572 0.5095 0.0
C450 C 0.83302 0.65687 0.55525 0.0
N451 N 0.90949 0.63314 0.68118 0.0
C452 C 0.95778 0.63097 0.68315 0.0
C453 C 0.95828 0.63135 0.74908 0.0
C454 C 0.93347 0.63302 0.78026 0.0
C455 C 0.90939 0.6338 0.74556 0.0
C456 C 0.93351 0.63184 0.65055 0.0
H457 H 0.89071 0.6348 0.77081 0.0
H458 H 0.93433 0.63138 0.60005 0.0
H459 H 0.83946 0.59102 0.57579 0.0
H460 H 0.84107 0.67577 0.57049 0.0
C461 C 0.83306 0.63713 0.74493 0.0
C462 C 0.88473 0.56488 0.65768 0.0
C463 C 0.88593 0.70334 0.63445 0.0
C464 C 0.9027 0.62897 0.49239 0.0
H465 H 0.84858 0.54798 0.7557 0.0
H466 H 0.8183 0.58723 0.80011 0.0
H467 H 0.82605 0.68897 0.79763 0.0
H468 H 0.85798 0.72417 0.74355 0.0
H469 H 0.91009 0.7193 0.51675 0.0
H470 H 0.91747 0.67923 0.43682 0.0
H471 H 0.9167 0.57552 0.45401 0.0
H472 H 0.90885 0.54093 0.54748 0.0
H473 H 0.80408 0.59016 0.49698 0.0
H474 H 0.80601 0.67629 0.49133 0.0
H475 H 0.97614 0.63039 0.65626 0.0
H476 H 0.93258 0.63332 0.83109 0.0
C477 C 0.57663 0.13087 0.41815 0.0
C478 C 0.56211 0.12005 0.46744 0.0
C479 C 0.5798 0.11642 0.51623 0.0
C480 C 0.6041 0.12518 0.49408 0.0
N481 N 0.60278 0.13395 0.43446 0.0
Co482 Co 0.63339 0.14806 0.38471 0.0
N483 N 0.66047 0.1321 0.44211 0.0
C484 C 0.65545 0.12371 0.50111 0.0
C485 C 0.67798 0.11501 0.53172 0.0
C486 C 0.69852 0.11843 0.4897 0.0
C487 C 0.6874 0.12897 0.43526 0.0
N488 N 0.66373 0.16213 0.33395 0.0
C489 C 0.68997 0.15509 0.33331 0.0
C490 C 0.70345 0.16832 0.28533 0.0
C491 C 0.68549 0.18519 0.25761 0.0
C492 C 0.66191 0.18096 0.28882 0.0
N493 N 0.60645 0.16432 0.32754 0.0
C494 C 0.61104 0.18408 0.28604 0.0
C495 C 0.58862 0.1915 0.25318 0.0
C496 C 0.56862 0.17539 0.27536 0.0
C497 C 0.58005 0.15896 0.32055 0.0
N498 N 0.63343 0.18095 0.43754 0.0
C499 C 0.63321 0.22225 0.52984 0.0
C500 C 0.65722 0.21163 0.50605 0.0
C501 C 0.65691 0.19125 0.46029 0.0
C502 C 0.60934 0.21237 0.50358 0.0
C503 C 0.60988 0.19206 0.45762 0.0
N504 N 0.6332 0.11477 0.33434 0.0
C505 C 0.63307 0.09079 0.23526 0.0
C506 C 0.63141 0.06599 0.26644 0.0
C507 C 0.63105 0.06648 0.33238 0.0
C508 C 0.63192 0.09075 0.36498 0.0
C509 C 0.63385 0.11488 0.26996 0.0
H510 H 0.63147 0.08993 0.41548 0.0
H511 H 0.63483 0.13356 0.24472 0.0
H512 H 0.67581 0.18321 0.44504 0.0
H513 H 0.59106 0.18478 0.43976 0.0
C514 C 0.62904 0.12156 0.52315 0.0
C515 C 0.56493 0.13951 0.35789 0.0
C516 C 0.7034 0.13837 0.38106 0.0
C517 C 0.63715 0.1912 0.2706 0.0
H518 H 0.541 0.11538 0.4681 0.0
H519 H 0.5756 0.10753 0.56154 0.0
H520 H 0.67932 0.10682 0.57871 0.0
H521 H 0.71937 0.11422 0.49877 0.0
H522 H 0.7242 0.16632 0.27194 0.0
H523 H 0.68899 0.19824 0.21787 0.0
H524 H 0.58725 0.20595 0.21544 0.0
H525 H 0.54801 0.17565 0.25987 0.0
H526 H 0.67631 0.21827 0.52422 0.0
H527 H 0.59019 0.22015 0.51859 0.0
H528 H 0.63336 0.09169 0.18443 0.0
H529 H 0.63048 0.04812 0.35927 0.0
C530 C 0.15889 0.44427 0.69498 0.0
C531 C 0.17533 0.45572 0.74015 0.0
C532 C 0.19143 0.43572 0.76236 0.0
C533 C 0.18401 0.4133 0.72954 0.0
N534 N 0.16426 0.41787 0.68802 0.0
Co535 Co 0.148 0.39092 0.63089 0.0
N536 N 0.16208 0.36059 0.68168 0.0
C537 C 0.1809 0.36242 0.72682 0.0
C538 C 0.18514 0.33885 0.75804 0.0
C539 C 0.16827 0.32089 0.73035 0.0
C540 C 0.15504 0.33435 0.68235 0.0
N541 N 0.13204 0.36382 0.57352 0.0
C542 C 0.12892 0.33689 0.5804 0.0
C543 C 0.11838 0.32576 0.52598 0.0
C544 C 0.11495 0.34629 0.48394 0.0
C545 C 0.12364 0.36883 0.51452 0.0
N546 N 0.13388 0.42152 0.5811 0.0
C547 C 0.12512 0.42019 0.52148 0.0
C548 C 0.11635 0.44448 0.49931 0.0
C549 C 0.11997 0.46217 0.54808 0.0
C550 C 0.1308 0.44767 0.59739 0.0
N551 N 0.18089 0.39087 0.57806 0.0
C552 C 0.22219 0.39109 0.48576 0.0
C553 C 0.21231 0.41496 0.512 0.0
C554 C 0.19199 0.41443 0.55796 0.0
C555 C 0.21158 0.36708 0.50958 0.0
C556 C 0.1912 0.36739 0.55533 0.0
N557 N 0.11471 0.39111 0.68126 0.0
C558 C 0.06642 0.39326 0.68324 0.0
C559 C 0.06593 0.39292 0.74918 0.0
C560 C 0.09074 0.39126 0.78035 0.0
C561 C 0.11482 0.39047 0.74564 0.0
C562 C 0.09069 0.39239 0.65063 0.0
H563 H 0.1335 0.3895 0.77088 0.0
H564 H 0.08987 0.39282 0.60013 0.0
H565 H 0.18472 0.43325 0.5758 0.0
H566 H 0.18316 0.34849 0.57059 0.0
C567 C 0.19114 0.38719 0.74501 0.0
C568 C 0.13944 0.45938 0.65763 0.0
C569 C 0.13833 0.3209 0.63461 0.0
C570 C 0.12149 0.39524 0.49246 0.0
H571 H 0.17558 0.47633 0.75562 0.0
H572 H 0.20588 0.43711 0.80009 0.0
H573 H 0.19819 0.33537 0.79779 0.0
H574 H 0.16628 0.30013 0.74376 0.0
H575 H 0.11417 0.30491 0.51694 0.0
H576 H 0.10675 0.34495 0.43696 0.0
H577 H 0.10745 0.44866 0.454 0.0
H578 H 0.11529 0.48329 0.5474 0.0
H579 H 0.22009 0.43411 0.49698 0.0
H580 H 0.21822 0.34799 0.49142 0.0
H581 H 0.04806 0.39383 0.65636 0.0
H582 H 0.09163 0.39099 0.83118 0.0
C583 C 0.44772 0.8934 0.41798 0.0
C584 C 0.46222 0.90421 0.46731 0.0
C585 C 0.44452 0.90785 0.51605 0.0
C586 C 0.42023 0.8991 0.49385 0.0
N587 N 0.42157 0.89033 0.43424 0.0
Co588 Co 0.39098 0.87624 0.3844 0.0
N589 N 0.36387 0.89223 0.44173 0.0
C590 C 0.36887 0.90061 0.50074 0.0
C591 C 0.34633 0.9093 0.53132 0.0
C592 C 0.32581 0.90589 0.48925 0.0
C593 C 0.33695 0.89535 0.43483 0.0
N594 N 0.36065 0.86219 0.33355 0.0
C595 C 0.33441 0.86926 0.33284 0.0
C596 C 0.32095 0.85604 0.28481 0.0
C597 C 0.33891 0.83917 0.25713 0.0
C598 C 0.36247 0.84338 0.28841 0.0
N599 N 0.41793 0.85995 0.32732 0.0
C600 C 0.41335 0.8402 0.2858 0.0
C601 C 0.43577 0.83276 0.25301 0.0
C602 C 0.45578 0.84885 0.27525 0.0
C603 C 0.44434 0.8653 0.3204 0.0
N604 N 0.39087 0.84335 0.43724 0.0
C605 C 0.39096 0.80212 0.52983 0.0
C606 C 0.36699 0.81279 0.50585 0.0
C607 C 0.36737 0.83311 0.45996 0.0
C608 C 0.41486 0.81189 0.5034 0.0
C609 C 0.41438 0.83219 0.45739 0.0
N610 N 0.39122 0.90953 0.33404 0.0
C611 C 0.39139 0.93351 0.23496 0.0
C612 C 0.39304 0.95832 0.26615 0.0
C613 C 0.39338 0.95782 0.33208 0.0
C614 C 0.39249 0.93355 0.36468 0.0
C615 C 0.39059 0.90943 0.26965 0.0
H616 H 0.39292 0.93436 0.41518 0.0
H617 H 0.38961 0.89075 0.2444 0.0
H618 H 0.34848 0.84106 0.44434 0.0
H619 H 0.43323 0.83952 0.4398 0.0
C620 C 0.39527 0.90274 0.52285 0.0
C621 C 0.45944 0.88474 0.35776 0.0
C622 C 0.32096 0.88596 0.38059 0.0
C623 C 0.38724 0.83311 0.27027 0.0
H624 H 0.48334 0.90887 0.46801 0.0
H625 H 0.4487 0.91674 0.56136 0.0
H626 H 0.34498 0.91748 0.57831 0.0
H627 H 0.30495 0.9101 0.49829 0.0
H628 H 0.3002 0.85806 0.27138 0.0
H629 H 0.33542 0.82612 0.21738 0.0
H630 H 0.43716 0.81832 0.21527 0.0
H631 H 0.47639 0.84859 0.2598 0.0
H632 H 0.34785 0.80568 0.52262 0.0
H633 H 0.43405 0.80467 0.51959 0.0
H634 H 0.39112 0.93263 0.18413 0.0
H635 H 0.39394 0.97618 0.35898 0.0
C636 C 0.86536 0.94425 0.57055 0.0
C637 C 0.84891 0.9557 0.52541 0.0
C638 C 0.83282 0.93569 0.50317 0.0
C639 C 0.84026 0.91327 0.53595 0.0
N640 N 0.86001 0.91784 0.57747 0.0
Co641 Co 0.8763 0.89089 0.63455 0.0
N642 N 0.86224 0.86057 0.58371 0.0
C643 C 0.84342 0.86239 0.53857 0.0
C644 C 0.8392 0.83883 0.5073 0.0
C645 C 0.85608 0.82087 0.53498 0.0
C646 C 0.86929 0.83432 0.583 0.0
N647 N 0.89228 0.86378 0.69188 0.0
C648 C 0.8954 0.83686 0.68497 0.0
C649 C 0.90594 0.82572 0.73939 0.0
C650 C 0.90937 0.84624 0.78145 0.0
C651 C 0.90067 0.86878 0.75088 0.0
N652 N 0.89039 0.92148 0.68438 0.0
C653 C 0.89917 0.92014 0.744 0.0
C654 C 0.90793 0.94443 0.76618 0.0
C655 C 0.9043 0.96213 0.71743 0.0
C656 C 0.89347 0.94763 0.66811 0.0
N657 N 0.84341 0.89079 0.6874 0.0
C658 C 0.80218 0.89091 0.77999 0.0
C659 C 0.81197 0.9148 0.75355 0.0
C660 C 0.83226 0.91431 0.70754 0.0
C661 C 0.81285 0.86693 0.75602 0.0
C662 C 0.83316 0.86729 0.71013 0.0
N663 N 0.90958 0.89112 0.58418 0.0
C664 C 0.95787 0.89328 0.5822 0.0
C665 C 0.95836 0.89295 0.51626 0.0
C666 C 0.93356 0.8913 0.48509 0.0
C667 C 0.90947 0.8905 0.51979 0.0
C668 C 0.9336 0.8924 0.6148 0.0
H669 H 0.89079 0.88952 0.49455 0.0
H670 H 0.93442 0.89282 0.66531 0.0
H671 H 0.83959 0.93316 0.68993 0.0
H672 H 0.84111 0.84841 0.69452 0.0
C673 C 0.83315 0.88716 0.52044 0.0
C674 C 0.88482 0.95935 0.60789 0.0
C675 C 0.886 0.82087 0.63075 0.0
C676 C 0.90281 0.89519 0.77298 0.0
H677 H 0.84865 0.97631 0.50996 0.0
H678 H 0.81837 0.93708 0.46545 0.0
H679 H 0.82615 0.83535 0.46755 0.0
H680 H 0.85809 0.80012 0.52155 0.0
H681 H 0.91016 0.80486 0.74842 0.0
H682 H 0.91756 0.84489 0.82843 0.0
H683 H 0.91684 0.94861 0.81148 0.0
H684 H 0.90897 0.98325 0.71812 0.0
H685 H 0.80475 0.93399 0.76973 0.0
H686 H 0.80573 0.84779 0.77281 0.0
H687 H 0.97623 0.89385 0.60909 0.0
H688 H 0.93266 0.89104 0.43425 0.0
C689 C 0.9477 0.13088 0.3475 0.0
C690 C 0.96221 0.12008 0.29818 0.0
C691 C 0.94451 0.11645 0.24941 0.0
C692 C 0.92021 0.1252 0.2716 0.0
N693 N 0.92155 0.13396 0.33122 0.0
Co694 Co 0.89095 0.14806 0.38102 0.0
N695 N 0.86385 0.1321 0.32365 0.0
C696 C 0.86886 0.12372 0.26464 0.0
C697 C 0.84633 0.11502 0.23404 0.0
C698 C 0.8258 0.11844 0.27609 0.0
C699 C 0.83692 0.12897 0.33053 0.0
N700 N 0.86062 0.16212 0.43183 0.0
C701 C 0.83437 0.15507 0.4325 0.0
C702 C 0.82091 0.16829 0.48051 0.0
C703 C 0.83887 0.18516 0.50822 0.0
C704 C 0.86244 0.18094 0.47698 0.0
N705 N 0.91789 0.16432 0.43817 0.0
C706 C 0.91331 0.18407 0.4797 0.0
C707 C 0.93573 0.19149 0.51253 0.0
C708 C 0.95574 0.17539 0.49031 0.0
C709 C 0.9443 0.15896 0.44512 0.0
N710 N 0.89089 0.18096 0.32822 0.0
C711 C 0.89108 0.22226 0.23592 0.0
C712 C 0.86707 0.21163 0.25975 0.0
C713 C 0.8674 0.19125 0.3055 0.0
C714 C 0.91496 0.21238 0.26216 0.0
C715 C 0.91443 0.19207 0.30811 0.0
N716 N 0.89116 0.11476 0.43137 0.0
C717 C 0.89132 0.09077 0.53044 0.0
C718 C 0.89298 0.06597 0.49924 0.0
C719 C 0.89332 0.06648 0.43331 0.0
C720 C 0.89243 0.09075 0.40072 0.0
C721 C 0.89052 0.11486 0.49575 0.0
H722 H 0.89287 0.08994 0.35022 0.0
H723 H 0.88954 0.13354 0.52101 0.0
H724 H 0.8485 0.1832 0.32077 0.0
H725 H 0.93326 0.1848 0.32595 0.0
C726 C 0.89527 0.12157 0.24257 0.0
C727 C 0.95941 0.13953 0.40774 0.0
C728 C 0.82093 0.13836 0.38475 0.0
C729 C 0.8872 0.19118 0.49517 0.0
H730 H 0.98332 0.11541 0.29749 0.0
H731 H 0.9487 0.10756 0.20409 0.0
H732 H 0.84498 0.10684 0.18705 0.0
H733 H 0.80494 0.11423 0.26704 0.0
H734 H 0.80015 0.16628 0.49392 0.0
H735 H 0.83538 0.1982 0.54797 0.0
H736 H 0.93712 0.20593 0.55028 0.0
H737 H 0.97634 0.17565 0.50578 0.0
H738 H 0.84798 0.21827 0.2416 0.0
H739 H 0.9341 0.22017 0.24712 0.0
H740 H 0.89105 0.09166 0.58127 0.0
H741 H 0.89389 0.04812 0.40641 0.0
C742 C 0.15903 0.08004 0.57037 0.0
C743 C 0.17547 0.06861 0.52517 0.0
C744 C 0.19156 0.08863 0.50298 0.0
C745 C 0.18413 0.11104 0.53584 0.0
N746 N 0.16439 0.10644 0.57736 0.0
Co747 Co 0.14812 0.13336 0.63455 0.0
N748 N 0.16217 0.16371 0.58378 0.0
C749 C 0.18099 0.16191 0.53864 0.0
C750 C 0.1852 0.18549 0.50743 0.0
C751 C 0.16833 0.20344 0.53516 0.0
C752 C 0.15511 0.18995 0.58315 0.0
N753 N 0.13215 0.16044 0.69196 0.0
C754 C 0.12901 0.18737 0.68512 0.0
C755 C 0.11847 0.19847 0.73956 0.0
C756 C 0.11506 0.17793 0.78158 0.0
C757 C 0.12377 0.15541 0.75097 0.0
N758 N 0.13403 0.10275 0.68431 0.0
C759 C 0.12528 0.10406 0.74394 0.0
C760 C 0.11653 0.07976 0.76608 0.0
C761 C 0.12015 0.06208 0.71728 0.0
C762 C 0.13096 0.0766 0.66798 0.0
N763 N 0.18102 0.13342 0.68735 0.0
C764 C 0.22232 0.13322 0.77963 0.0
C765 C 0.21245 0.10935 0.75336 0.0
C766 C 0.19214 0.10988 0.70742 0.0
C767 C 0.21169 0.15723 0.75584 0.0
C768 C 0.19131 0.15691 0.7101 0.0
N769 N 0.11482 0.13316 0.58421 0.0
C770 C 0.06654 0.13098 0.58228 0.0
C771 C 0.06603 0.13135 0.51635 0.0
C772 C 0.09083 0.13303 0.48515 0.0
C773 C 0.11492 0.13382 0.51983 0.0
C774 C 0.09081 0.13186 0.61486 0.0
H775 H 0.1336 0.13482 0.49457 0.0
H776 H 0.09 0.13141 0.66537 0.0
H777 H 0.18487 0.09105 0.68955 0.0
H778 H 0.18325 0.1758 0.69486 0.0
C779 C 0.19125 0.13715 0.52041 0.0
C780 C 0.13959 0.06491 0.60771 0.0
C781 C 0.13839 0.20337 0.63091 0.0
C782 C 0.12164 0.129 0.773 0.0
H783 H 0.17573 0.04801 0.50967 0.0
H784 H 0.20601 0.08726 0.46524 0.0
H785 H 0.19825 0.18899 0.46769 0.0
H786 H 0.16631 0.22419 0.52177 0.0
H787 H 0.11424 0.21932 0.74863 0.0
H788 H 0.10687 0.17926 0.82857 0.0
H789 H 0.10764 0.07555 0.81139 0.0
H790 H 0.11549 0.04096 0.71793 0.0
H791 H 0.22025 0.0902 0.76837 0.0
H792 H 0.21832 0.17632 0.77402 0.0
H793 H 0.04818 0.13039 0.60919 0.0
H794 H 0.09172 0.13332 0.43432 0.0
C795 C 0.07666 0.89343 0.34726 0.0
C796 C 0.06214 0.90424 0.29797 0.0
C797 C 0.07982 0.90787 0.24918 0.0
C798 C 0.10412 0.89912 0.27132 0.0
N799 N 0.10281 0.89035 0.33094 0.0
Co800 Co 0.13342 0.87625 0.38068 0.0
N801 N 0.1605 0.89221 0.32327 0.0
C802 C 0.15547 0.9006 0.26427 0.0
C803 C 0.178 0.9093 0.23365 0.0
C804 C 0.19854 0.90588 0.27567 0.0
C805 C 0.18743 0.89534 0.33011 0.0
N806 N 0.16376 0.86217 0.43143 0.0
C807 C 0.19001 0.86922 0.43206 0.0
C808 C 0.20349 0.85599 0.48003 0.0
C809 C 0.18553 0.83912 0.50775 0.0
C810 C 0.16195 0.84335 0.47656 0.0
N811 N 0.10649 0.85998 0.43786 0.0
C812 C 0.11108 0.84022 0.47936 0.0
C813 C 0.08867 0.8328 0.51223 0.0
C814 C 0.06866 0.8489 0.49005 0.0
C815 C 0.08009 0.86534 0.44485 0.0
N816 N 0.13346 0.84335 0.32785 0.0
C817 C 0.13325 0.80206 0.23555 0.0
C818 C 0.15726 0.81268 0.25934 0.0
C819 C 0.15694 0.83306 0.3051 0.0
C820 C 0.10938 0.81193 0.26182 0.0
C821 C 0.10991 0.83224 0.30778 0.0
N822 N 0.13323 0.90953 0.43105 0.0
C823 C 0.13309 0.93351 0.53013 0.0
C824 C 0.13143 0.95831 0.49896 0.0
C825 C 0.13107 0.95782 0.43302 0.0
C826 C 0.13194 0.93355 0.40042 0.0
C827 C 0.13388 0.90942 0.49543 0.0
H828 H 0.1315 0.93437 0.34991 0.0
H829 H 0.13487 0.89074 0.52067 0.0
H830 H 0.17584 0.8411 0.32034 0.0
H831 H 0.09109 0.83951 0.32565 0.0
C832 C 0.12906 0.90275 0.24225 0.0
C833 C 0.06496 0.88478 0.40751 0.0
C834 C 0.20343 0.88594 0.38431 0.0
C835 C 0.1372 0.8331 0.49479 0.0
H836 H 0.04102 0.90891 0.29732 0.0
H837 H 0.07562 0.91677 0.20387 0.0
H838 H 0.17933 0.91749 0.18667 0.0
H839 H 0.21939 0.91009 0.26659 0.0
H840 H 0.22425 0.85799 0.4934 0.0
H841 H 0.18904 0.82607 0.54749 0.0
H842 H 0.0873 0.81835 0.54997 0.0
H843 H 0.04806 0.84864 0.50555 0.0
H844 H 0.17635 0.80604 0.24116 0.0
H845 H 0.09022 0.80415 0.24682 0.0
H846 H 0.13338 0.93261 0.58097 0.0
H847 H 0.13049 0.97618 0.40613 0.0
C848 C 0.40892 1.0063 0.25568 0.0
C849 C 0.39391 0.98469 0.23161 0.0
H850 H 0.418 0.04825 0.25056 0.0
C851 C 0.37847 0.98929 0.17716 0.0
H852 H 0.42151 1.00366 0.2966 0.0
C853 C 0.37693 0.01498 0.15004 0.0
C854 C 0.39095 0.03665 0.17634 0.0
H855 H 0.36644 0.9734 0.15733 0.0
H856 H 0.36369 0.01821 0.11048 0.0
C857 C 0.40728 0.03188 0.22877 0.0
C858 C 0.03183 0.6171 0.78654 0.0
C859 C 0.03661 0.63344 0.83894 0.0
H860 H 1.00362 0.60285 0.71873 0.0
C861 C 0.01493 0.64748 0.86518 0.0
H862 H 0.04821 0.60636 0.76478 0.0
C863 C 0.98925 0.64595 0.83805 0.0
C864 C 0.98465 0.63048 0.78363 0.0
H865 H 0.01817 0.66074 0.90471 0.0
H866 H 0.97336 0.65799 0.85784 0.0
C867 C 1.00626 0.61545 0.75962 0.0
C868 C 0.64753 1.00934 0.15032 0.0
C869 C 0.63349 0.98766 0.17657 0.0
H870 H 0.65803 0.05091 0.15766 0.0
C871 C 0.61715 0.99244 0.229 0.0
H872 H 0.66077 1.0061 0.11077 0.0
C873 C 0.61552 0.01801 0.25592 0.0
C874 C 0.63054 0.03962 0.23189 0.0
H875 H 0.60642 0.97606 0.25075 0.0
H876 H 0.60292 0.02065 0.29683 0.0
C877 C 0.646 0.03502 0.17745 0.0
C878 C 0.01795 0.4088 0.7597 0.0
C879 C 0.03956 0.39379 0.78374 0.0
H880 H 0.976 0.4179 0.76487 0.0
C881 C 0.03497 0.37835 0.8382 0.0
H882 H 0.02058 0.42139 0.71877 0.0
C883 C 1.00929 0.37682 0.86535 0.0
C884 C 0.98761 0.39085 0.83908 0.0
H885 H 0.05086 0.36632 0.85801 0.0
H886 H 1.00606 0.36359 0.90492 0.0
C887 C 0.99238 0.40717 0.78664 0.0
C888 C 0.40712 0.49244 0.03648 0.0
C889 C 0.39079 0.48768 0.08892 0.0
H890 H 0.42135 0.52064 0.96861 0.0
C891 C 0.37677 0.50936 0.11517 0.0
H892 H 0.41785 0.47606 0.01472 0.0
C893 C 0.3783 0.53504 0.08801 0.0
C894 C 0.39375 0.53963 0.03355 0.0
H895 H 0.36353 0.50613 0.15473 0.0
H896 H 0.36627 0.55093 0.10781 0.0
C897 C 0.40876 0.51801 0.00953 0.0
C898 C 0.49241 0.61707 0.97885 0.0
C899 C 0.48764 0.63339 0.9264 0.0
H900 H 0.52062 0.60286 0.04671 0.0
C901 C 0.50932 0.64742 0.90012 0.0
H902 H 0.47603 0.60635 1.00063 0.0
C903 C 0.535 0.64589 0.92726 0.0
C904 C 0.53959 0.63045 0.98172 0.0
H905 H 0.50609 0.66065 0.86055 0.0
H906 H 0.55089 0.65792 0.90744 0.0
C907 C 0.51799 0.61544 1.00578 0.0
C908 C 0.64584 0.48928 0.08821 0.0
C909 C 0.63039 0.48468 0.03376 0.0
H910 H 0.66062 0.5182 0.15489 0.0
C911 C 0.61539 0.50629 0.0097 0.0
H912 H 0.65786 0.47339 0.10804 0.0
C913 C 0.61703 0.53186 0.0366 0.0
C914 C 0.63336 0.53664 0.08904 0.0
H915 H 0.6028 0.50365 0.96877 0.0
H916 H 0.60631 0.54824 0.01482 0.0
C917 C 0.64737 0.51496 0.11534 0.0
C918 C 0.50623 0.40887 1.00581 0.0
C919 C 0.48462 0.39385 0.98179 0.0
H920 H 0.54818 0.41795 1.00066 0.0
C921 C 0.48922 0.37838 0.92736 0.0
H922 H 0.50359 0.42147 0.04671 0.0
C923 C 0.5149 0.37684 0.90024 0.0
C924 C 0.53658 0.39088 0.9265 0.0
H925 H 0.47333 0.36635 0.90757 0.0
H926 H 0.51814 0.36359 0.86071 0.0
C927 C 0.5318 0.40722 0.9789 0.0
C928 C 0.87834 0.48925 0.67745 0.0
C929 C 0.89379 0.48465 0.7319 0.0
H930 H 0.86357 0.51817 0.61076 0.0
C931 C 0.90881 0.50626 0.75593 0.0
H932 H 0.86631 0.47336 0.65764 0.0
C933 C 0.90717 0.53183 0.72901 0.0
C934 C 0.89085 0.53661 0.67657 0.0
H935 H 0.9214 0.50362 0.79685 0.0
H936 H 0.91791 0.54821 0.75077 0.0
C937 C 0.87681 0.51493 0.65031 0.0
C938 C 0.51498 0.14741 0.36529 0.0
C939 C 0.53666 0.13338 0.33901 0.0
H940 H 0.47341 0.15792 0.35795 0.0
C941 C 0.53188 0.11706 0.28657 0.0
H942 H 0.51822 0.16065 0.40484 0.0
C943 C 0.50631 0.11543 0.25964 0.0
C944 C 0.48471 0.13045 0.28368 0.0
H945 H 0.54826 0.10633 0.2648 0.0
H946 H 0.50368 0.10284 0.21871 0.0
C947 C 0.4893 0.14589 0.33814 0.0
C948 C 0.14583 0.53501 0.67725 0.0
C949 C 0.13038 0.53963 0.73171 0.0
H950 H 0.16059 0.50608 0.61061 0.0
C951 C 0.11536 0.51803 0.75578 0.0
H952 H 0.15786 0.5509 0.65742 0.0
C953 C 0.11699 0.49245 0.7289 0.0
C954 C 0.13332 0.48766 0.67646 0.0
H955 H 0.10278 0.52068 0.7967 0.0
H956 H 0.10626 0.47608 0.75069 0.0
C957 C 0.14735 0.50933 0.65015 0.0
C958 C 0.49251 0.90721 0.2865 0.0
C959 C 0.48772 0.89087 0.33891 0.0
H960 H 0.52072 0.92145 0.21869 0.0
C961 C 0.50939 0.87683 0.36517 0.0
H962 H 0.47613 0.91795 0.26474 0.0
C963 C 0.53508 0.87836 0.33804 0.0
C964 C 0.53968 0.89382 0.28361 0.0
H965 H 0.50615 0.86358 0.4047 0.0
H966 H 0.55096 0.86632 0.35784 0.0
C967 C 0.51808 0.90885 0.25959 0.0
C968 C 0.87691 1.0093 0.61534 0.0
C969 C 0.89094 0.98763 0.58904 0.0
H970 H 0.86639 0.05087 0.60805 0.0
C971 C 0.90727 0.99242 0.53661 0.0
H972 H 0.86367 1.00605 0.65489 0.0
C973 C 0.90889 0.018 0.50971 0.0
C974 C 0.89387 0.0396 0.53377 0.0
H975 H 0.918 0.97605 0.51483 0.0
H976 H 0.92148 0.02065 0.46879 0.0
C977 C 0.87843 0.03499 0.58823 0.0
C978 C 1.00935 0.14746 0.40031 0.0
C979 C 0.98769 0.1334 0.42657 0.0
H980 H 0.05092 0.15798 0.40761 0.0
C981 C 0.99249 0.11705 0.47896 0.0
H982 H 1.0061 0.16071 0.36079 0.0
C983 C 0.01807 0.11543 0.50585 0.0
C984 C 0.03966 0.13046 0.48182 0.0
H985 H 0.97612 0.10631 0.50072 0.0
H986 H 0.02072 0.10282 0.54674 0.0
C987 C 0.03504 0.14593 0.42741 0.0
C988 C 0.11552 1.00628 0.50949 0.0
C989 C 0.13055 0.98468 0.53351 0.0
H990 H 0.1064 0.04823 0.51466 0.0
C991 C 0.146 0.98928 0.58794 0.0
H992 H 0.10292 1.00364 0.46858 0.0
C993 C 0.14753 0.01496 0.61508 0.0
C994 C 0.13348 0.03663 0.58883 0.0
H995 H 0.15805 0.9734 0.60773 0.0
H996 H 0.16077 0.0182 0.65462 0.0
C997 C 0.11714 0.03185 0.53641 0.0
C998 C 1.00634 0.90885 0.50576 0.0
C999 C 0.98473 0.89384 0.48171 0.0
H1000 H 0.04829 0.91795 0.50062 0.0
C1001 C 0.98933 0.8784 0.42725 0.0
H1002 H 1.0037 0.92144 0.54669 0.0
C1003 C 0.01501 0.87687 0.40012 0.0
C1004 C 0.03669 0.8909 0.4264 0.0
H1005 H 0.97344 0.86637 0.40744 0.0
H1006 H 0.01825 0.86364 0.36056 0.0
C1007 C 0.03191 0.90722 0.47884 0.0
C1008 C 0.36248 0.27615 0.13403 0.0
C1009 C 0.38654 0.29073 0.1332 0.0
H1010 H 0.34349 0.23782 0.13006 0.0
C1011 C 0.41073 0.27631 0.13274 0.0
H1012 H 0.34347 0.28648 0.13549 0.0
C1013 C 0.41075 0.24807 0.13278 0.0
C1014 C 0.38657 0.23362 0.13233 0.0
H1015 H 0.42961 0.28689 0.1322 0.0
H1016 H 0.42964 0.2375 0.13332 0.0
C1017 C 0.3625 0.24818 0.13151 0.0
C1018 C 0.24814 0.66183 0.88366 0.0
C1019 C 0.23358 0.63777 0.88288 0.0
H1020 H 0.28646 0.68085 0.87964 0.0
C1021 C 0.24801 0.61358 0.88246 0.0
H1022 H 0.2378 0.68084 0.88508 0.0
C1023 C 0.27625 0.61358 0.88249 0.0
C1024 C 0.29068 0.63778 0.88199 0.0
H1025 H 0.23744 0.5947 0.88196 0.0
H1026 H 0.28683 0.5947 0.88307 0.0
C1027 C 0.27611 0.66184 0.88112 0.0
C1028 C 0.61359 0.7763 0.13261 0.0
C1029 C 0.63779 0.79072 0.13213 0.0
H1030 H 0.59469 0.73749 0.13205 0.0
C1031 C 0.66185 0.77613 0.13127 0.0
H1032 H 0.59472 0.78688 0.13316 0.0
C1033 C 0.66183 0.74816 0.13381 0.0
C1034 C 0.63776 0.73361 0.13301 0.0
H1035 H 0.68086 0.78647 0.12981 0.0
H1036 H 0.68083 0.73781 0.13524 0.0
C1037 C 0.61358 0.74806 0.13257 0.0
C1038 C 0.74811 0.36248 0.88166 0.0
C1039 C 0.73354 0.38654 0.88247 0.0
H1040 H 0.78643 0.34347 0.88564 0.0
C1041 C 0.74798 0.41073 0.88292 0.0
H1042 H 0.73776 0.34347 0.88023 0.0
C1043 C 0.77622 0.41073 0.88287 0.0
C1044 C 0.79065 0.38654 0.88334 0.0
H1045 H 0.7374 0.42962 0.88344 0.0
H1046 H 0.7868 0.42961 0.88232 0.0
C1047 C 0.77608 0.36248 0.88419 0.0
C1048 C 0.86249 0.74814 0.63128 0.0
C1049 C 0.88654 0.73356 0.63214 0.0
H1050 H 0.8435 0.78647 0.63525 0.0
C1051 C 0.91074 0.74797 0.63262 0.0
H1052 H 0.84347 0.73781 0.62981 0.0
C1053 C 0.91076 0.77621 0.63258 0.0
C1054 C 0.88658 0.79066 0.63302 0.0
H1055 H 0.92962 0.73739 0.63318 0.0
H1056 H 0.92965 0.78678 0.63206 0.0
C1057 C 0.86251 0.77611 0.63382 0.0
C1058 C 0.77629 0.11358 0.38291 0.0
C1059 C 0.79072 0.13777 0.38246 0.0
H1060 H 0.73747 0.09469 0.38234 0.0
C1061 C 0.77616 0.16183 0.38166 0.0
H1062 H 0.78686 0.09469 0.38344 0.0
C1063 C 0.74818 0.16183 0.3842 0.0
C1064 C 0.73361 0.13777 0.38337 0.0
H1065 H 0.7865 0.18084 0.38022 0.0
H1066 H 0.73784 0.18084 0.38567 0.0
C1067 C 0.74804 0.11358 0.38289 0.0
C1068 C 0.16182 0.27614 0.6315 0.0
C1069 C 0.13775 0.29069 0.63233 0.0
H1070 H 0.18085 0.23783 0.63549 0.0
C1071 C 0.11356 0.27625 0.6328 0.0
H1072 H 0.18082 0.28649 0.63005 0.0
C1073 C 0.11358 0.248 0.63276 0.0
C1074 C 0.13778 0.23358 0.63322 0.0
H1075 H 0.09468 0.28681 0.63334 0.0
H1076 H 0.0947 0.23742 0.63223 0.0
C1077 C 0.16183 0.24816 0.63404 0.0
C1078 C 0.24807 0.91074 0.38247 0.0
C1079 C 0.23364 0.88654 0.38198 0.0
H1080 H 0.28689 0.92963 0.38192 0.0
C1081 C 0.24821 0.86248 0.38112 0.0
H1082 H 0.23749 0.92962 0.38303 0.0
C1083 C 0.27619 0.86249 0.38365 0.0
C1084 C 0.29075 0.88655 0.38287 0.0
H1085 H 0.23787 0.84347 0.37965 0.0
H1086 H 0.28654 0.84348 0.38508 0.0
C1087 C 0.27631 0.91074 0.38243 0.0
C1088 C 0.24301 0.11309 0.87878 0.0
C1089 C 0.24298 0.13309 0.83196 0.0
H1090 H 0.26062 0.09767 0.96334 0.0
C1091 C 0.26268 0.15319 0.8365 0.0
H1092 H 0.22805 0.09747 0.8782 0.0
C1093 C 0.28159 0.15328 0.88569 0.0
C1094 C 0.28159 0.13333 0.93271 0.0
H1095 H 0.26384 0.16878 0.80131 0.0
H1096 H 0.29658 0.16888 0.88598 0.0
C1097 C 0.26188 0.11322 0.92811 0.0
C1098 C 0.1131 0.78138 0.1364 0.0
C1099 C 0.13311 0.7814 0.18322 0.0
H1100 H 0.09767 0.76378 0.05184 0.0
C1101 C 0.15321 0.7617 0.17867 0.0
H1102 H 0.09749 0.79635 0.13699 0.0
C1103 C 0.15328 0.74279 0.12948 0.0
C1104 C 0.13333 0.7428 0.08246 0.0
H1105 H 0.16879 0.76053 0.21385 0.0
H1106 H 0.16888 0.7278 0.12917 0.0
C1107 C 0.11323 0.76252 0.08707 0.0
C1108 C 0.76268 0.8711 0.92884 0.0
C1109 C 0.74299 0.8912 0.93338 0.0
H1110 H 0.79658 0.85541 0.87936 0.0
C1111 C 0.74302 0.91121 0.88656 0.0
H1112 H 0.76384 0.85552 0.96404 0.0
C1113 C 0.76188 0.91107 0.83722 0.0
C1114 C 0.78159 0.89096 0.83263 0.0
H1115 H 0.72806 0.92683 0.88713 0.0
H1116 H 0.76063 0.92662 0.80199 0.0
C1117 C 0.7816 0.87101 0.87966 0.0
C1118 C 0.91119 0.24294 0.13675 0.0
C1119 C 0.8912 0.24292 0.18359 0.0
H1120 H 0.9266 0.26054 0.05217 0.0
C1121 C 0.8711 0.26262 0.17906 0.0
H1122 H 0.92681 0.22797 0.13731 0.0
C1123 C 0.87101 0.28153 0.12987 0.0
C1124 C 0.89095 0.28152 0.08283 0.0
H1125 H 0.85552 0.26378 0.21427 0.0
H1126 H 0.85542 0.29652 0.12959 0.0
C1127 C 0.91106 0.2618 0.08741 0.0
C1128 C 0.26256 0.37113 0.42891 0.0
C1129 C 0.24286 0.39122 0.43343 0.0
H1130 H 0.29647 0.35546 0.37944 0.0
C1131 C 0.24288 0.41122 0.3866 0.0
H1132 H 0.26373 0.35555 0.4641 0.0
C1133 C 0.26174 0.41109 0.33727 0.0
C1134 C 0.28147 0.39099 0.33269 0.0
H1135 H 0.2279 0.42683 0.38716 0.0
H1136 H 0.26048 0.42664 0.30203 0.0
C1137 C 0.28148 0.37105 0.37972 0.0
C1138 C 0.37105 0.78153 0.62948 0.0
C1139 C 0.391 0.78153 0.58246 0.0
H1140 H 0.35554 0.76378 0.71384 0.0
C1141 C 0.41111 0.76181 0.58707 0.0
H1142 H 0.35545 0.79652 0.62918 0.0
C1143 C 0.41123 0.74295 0.6364 0.0
C1144 C 0.39122 0.74292 0.68321 0.0
H1145 H 0.42667 0.76055 0.55185 0.0
H1146 H 0.42685 0.72797 0.63698 0.0
C1147 C 0.37113 0.76261 0.67866 0.0
C1148 C 0.76244 0.61319 0.33724 0.0
C1149 C 0.74274 0.63331 0.33264 0.0
H1150 H 0.79627 0.59743 0.38715 0.0
C1151 C 0.74274 0.65326 0.37966 0.0
H1152 H 0.7637 0.59764 0.30201 0.0
C1153 C 0.76165 0.65317 0.42884 0.0
C1154 C 0.78134 0.63306 0.43338 0.0
H1155 H 0.72775 0.66886 0.37936 0.0
H1156 H 0.7605 0.66875 0.46402 0.0
C1157 C 0.78131 0.61306 0.38657 0.0
C1158 C 0.65317 0.26261 0.58672 0.0
C1159 C 0.63308 0.24291 0.58217 0.0
H1160 H 0.66884 0.29651 0.6362 0.0
C1161 C 0.61307 0.24294 0.62898 0.0
H1162 H 0.66876 0.26377 0.55154 0.0
C1163 C 0.61319 0.2618 0.67832 0.0
C1164 C 0.63329 0.28152 0.68292 0.0
H1165 H 0.59745 0.22796 0.62841 0.0
H1166 H 0.59763 0.26054 0.71354 0.0
C1167 C 0.65325 0.28152 0.63591 0.0
loop_
_geom_bond_atom_site_label_1
_geom_bond_atom_site_label_2
_geom_bond_distance
_geom_bond_site_symmetry_2
_ccdc_geom_bond_type
C0 C1 1.443 . S
C0 N4 1.376 . S
C0 C38 1.389 . S
C1 C0 1.443 . S
C1 C2 1.340 . S
C1 H41 0.951 . S
C2 C1 1.340 . S
C2 C3 1.439 . S
C2 H42 0.950 . S
C3 C2 1.439 . S
C3 N4 1.374 . S
C3 C37 1.395 . S
N4 C0 1.376 . S
N4 C3 1.374 . S
N4 Co5 2.008 . S
Co5 N4 2.008 . S
Co5 N6 1.995 . S
Co5 N11 2.008 . S
Co5 N16 1.995 . S
Co5 N21 2.282 . S
Co5 N27 2.282 . S
N6 Co5 1.995 . S
N6 C7 1.376 . S
N6 C10 1.383 . S
C7 N6 1.376 . S
C7 C8 1.446 . S
C7 C37 1.391 . S
C8 C7 1.446 . S
C8 C9 1.339 . S
C8 H43 0.949 . S
C9 C8 1.339 . S
C9 C10 1.439 . S
C9 H44 0.950 . S
C10 N6 1.383 . S
C10 C9 1.439 . S
C10 C39 1.392 . S
N11 Co5 2.008 . S
N11 C12 1.376 . S
N11 C15 1.374 . S
C12 N11 1.376 . S
C12 C13 1.443 . S
C12 C39 1.389 . S
C13 C12 1.443 . S
C13 C14 1.340 1_554 S
C13 H45 0.951 1_554 S
C14 C13 1.340 1_556 S
C14 C15 1.439 1_556 S
C14 H46 0.950 . S
C15 N11 1.374 . S
C15 C14 1.439 1_554 S
C15 C40 1.395 . S
N16 Co5 1.995 . S
N16 C17 1.376 . S
N16 C20 1.383 . S
C17 N16 1.376 . S
C17 C18 1.446 . S
C17 C40 1.391 . S
C18 C17 1.446 . S
C18 C19 1.339 . S
C18 H47 0.949 1_554 S
C19 C18 1.339 . S
C19 C20 1.439 . S
C19 H48 0.950 . S
C20 N16 1.383 . S
C20 C19 1.439 . S
C20 C38 1.392 . S
N21 Co5 2.282 . S
N21 C24 1.332 . S
N21 C26 1.332 . S
C22 C23 1.386 1_554 S
C22 C25 1.388 . S
C23 C22 1.386 1_556 S
C23 C24 1.382 1_556 S
C23 H49 0.950 . S
C24 N21 1.332 . S
C24 C23 1.382 1_554 S
C24 H35 0.952 . S
C25 C22 1.388 . S
C25 C26 1.382 . S
C25 H50 0.950 . S
C26 N21 1.332 . S
C26 C25 1.382 . S
C26 H36 0.948 . S
N27 Co5 2.282 . S
N27 C31 1.332 . S
N27 C32 1.332 . S
C28 C29 1.388 . S
C28 C32 1.382 . S
C28 H51 0.950 . S
C29 C28 1.388 . S
C29 C30 1.386 . S
C30 C29 1.386 . S
C30 C31 1.382 . S
C30 H52 0.950 . S
C31 N27 1.332 . S
C31 C30 1.382 . S
C31 H33 0.952 . S
C32 N27 1.332 . S
C32 C28 1.382 . S
C32 H34 0.948 . S
H33 C31 0.952 . S
H34 C32 0.948 . S
H35 C24 0.952 . S
H36 C26 0.948 . S
C37 C3 1.395 . S
C37 C7 1.391 . S
C38 C0 1.389 . S
C38 C20 1.392 . S
C39 C10 1.392 . S
C39 C12 1.389 . S
C40 C15 1.395 . S
C40 C17 1.391 . S
H41 C1 0.951 . S
H42 C2 0.950 . S
H43 C8 0.949 . S
H44 C9 0.950 . S
H45 C13 0.951 1_556 S
H46 C14 0.950 . S
H47 C18 0.949 1_556 S
H48 C19 0.950 . S
H49 C23 0.950 . S
H50 C25 0.950 . S
H51 C28 0.950 . S
H52 C30 0.950 . S
C53 C54 1.443 . S
C53 N57 1.376 . S
C53 C91 1.389 . S
C54 C53 1.443 . S
C54 C55 1.340 . S
C54 H94 0.951 . S
C55 C54 1.340 . S
C55 C56 1.439 . S
C55 H95 0.950 . S
C56 C55 1.439 . S
C56 N57 1.374 . S
C56 C90 1.395 . S
N57 C53 1.376 . S
N57 C56 1.374 . S
N57 Co58 2.008 . S
Co58 N57 2.008 . S
Co58 N59 1.995 . S
Co58 N64 2.008 . S
Co58 N69 1.995 . S
Co58 N74 2.282 . S
Co58 N80 2.282 . S
N59 Co58 1.995 . S
N59 C60 1.376 . S
N59 C63 1.383 . S
C60 N59 1.376 . S
C60 C61 1.446 1_556 S
C60 C90 1.391 . S
C61 C60 1.446 1_554 S
C61 C62 1.339 1_554 S
C61 H96 0.949 . S
C62 C61 1.339 1_556 S
C62 C63 1.439 . S
C62 H97 0.946 1_556 S
C63 N59 1.383 . S
C63 C62 1.439 . S
C63 C92 1.392 . S
N64 Co58 2.008 . S
N64 C65 1.376 . S
N64 C68 1.374 . S
C65 N64 1.376 . S
C65 C66 1.443 . S
C65 C92 1.389 . S
C66 C65 1.443 . S
C66 C67 1.340 . S
C66 H98 0.951 . S
C67 C66 1.340 . S
C67 C68 1.439 . S
C67 H99 0.950 . S
C68 N64 1.374 . S
C68 C67 1.439 . S
C68 C93 1.395 . S
N69 Co58 1.995 . S
N69 C70 1.376 . S
N69 C73 1.383 . S
C70 N69 1.376 . S
C70 C71 1.446 . S
C70 C93 1.391 . S
C71 C70 1.446 . S
C71 C72 1.339 . S
C71 H100 0.949 . S
C72 C71 1.339 . S
C72 C73 1.439 . S
C72 H101 0.950 . S
C73 N69 1.383 . S
C73 C72 1.439 . S
C73 C91 1.392 . S
N74 Co58 2.282 . S
N74 C77 1.332 . S
N74 C79 1.332 . S
C75 C76 1.386 . S
C75 C78 1.388 1_556 S
C76 C75 1.386 . S
C76 C77 1.382 . S
C76 H102 0.950 . S
C77 N74 1.332 . S
C77 C76 1.382 . S
C77 H88 0.952 . S
C78 C75 1.388 1_554 S
C78 C79 1.382 1_554 S
C78 H103 0.950 . S
C79 N74 1.332 . S
C79 C78 1.382 1_556 S
C79 H89 0.948 . S
N80 Co58 2.282 . S
N80 C84 1.332 . S
N80 C85 1.332 . S
C81 C82 1.388 . S
C81 C85 1.382 . S
C81 H104 0.950 . S
C82 C81 1.388 . S
C82 C83 1.386 . S
C83 C82 1.386 . S
C83 C84 1.382 . S
C83 H105 0.950 . S
C84 N80 1.332 . S
C84 C83 1.382 . S
C84 H86 0.952 . S
C85 N80 1.332 . S
C85 C81 1.382 . S
C85 H87 0.948 . S
H86 C84 0.952 . S
H87 C85 0.948 . S
H88 C77 0.952 . S
H89 C79 0.948 . S
C90 C56 1.395 . S
C90 C60 1.391 . S
C91 C53 1.389 . S
C91 C73 1.392 . S
C92 C63 1.392 . S
C92 C65 1.389 . S
C93 C68 1.395 . S
C93 C70 1.391 . S
H94 C54 0.951 . S
H95 C55 0.950 . S
H96 C61 0.949 . S
H97 C62 0.946 1_554 S
H98 C66 0.951 . S
H99 C67 0.950 . S
H100 C71 0.949 . S
H101 C72 0.950 . S
H102 C76 0.950 . S
H103 C78 0.950 . S
H104 C81 0.950 . S
H105 C83 0.950 . S
C106 C107 1.443 . S
C106 N110 1.376 . S
C106 C144 1.389 . S
C107 C106 1.443 . S
C107 C108 1.340 . S
C107 H147 0.951 . S
C108 C107 1.340 . S
C108 C109 1.439 . S
C108 H148 0.950 . S
C109 C108 1.439 . S
C109 N110 1.374 . S
C109 C143 1.395 . S
N110 C106 1.376 . S
N110 C109 1.374 . S
N110 Co111 2.008 . S
Co111 N110 2.008 . S
Co111 N112 1.995 . S
Co111 N117 2.008 . S
Co111 N122 1.995 . S
Co111 N127 2.282 . S
Co111 N133 2.282 . S
N112 Co111 1.995 . S
N112 C113 1.376 . S
N112 C116 1.383 . S
C113 N112 1.376 . S
C113 C114 1.446 . S
C113 C143 1.391 . S
C114 C113 1.446 . S
C114 C115 1.339 . S
C114 H149 0.949 . S
C115 C114 1.339 . S
C115 C116 1.439 . S
C115 H150 0.950 . S
C116 N112 1.383 . S
C116 C115 1.439 . S
C116 C145 1.392 . S
N117 Co111 2.008 . S
N117 C118 1.376 . S
N117 C121 1.374 . S
C118 N117 1.376 . S
C118 C119 1.443 . S
C118 C145 1.389 . S
C119 C118 1.443 . S
C119 C120 1.340 1_554 S
C119 H151 0.951 1_554 S
C120 C119 1.340 1_556 S
C120 C121 1.439 1_556 S
C120 H152 0.950 . S
C121 N117 1.374 . S
C121 C120 1.439 1_554 S
C121 C146 1.395 . S
N122 Co111 1.995 . S
N122 C123 1.376 . S
N122 C126 1.383 . S
C123 N122 1.376 . S
C123 C124 1.446 . S
C123 C146 1.391 . S
C124 C123 1.446 . S
C124 C125 1.339 . S
C124 H153 0.949 1_554 S
C125 C124 1.339 . S
C125 C126 1.439 . S
C125 H154 0.950 . S
C126 N122 1.383 . S
C126 C125 1.439 . S
C126 C144 1.392 . S
N127 Co111 2.282 . S
N127 C130 1.332 . S
N127 C132 1.332 . S
C128 C129 1.386 1_554 S
C128 C131 1.388 . S
C129 C128 1.386 1_556 S
C129 C130 1.382 1_556 S
C129 H155 0.950 . S
C130 N127 1.332 . S
C130 C129 1.382 1_554 S
C130 H141 0.952 . S
C131 C128 1.388 . S
C131 C132 1.382 . S
C131 H156 0.950 . S
C132 N127 1.332 . S
C132 C131 1.382 . S
C132 H142 0.948 . S
N133 Co111 2.282 . S
N133 C137 1.332 . S
N133 C138 1.332 . S
C134 C135 1.388 . S
C134 C138 1.382 . S
C134 H157 0.950 . S
C135 C134 1.388 . S
C135 C136 1.386 . S
C136 C135 1.386 . S
C136 C137 1.382 . S
C136 H158 0.950 . S
C137 N133 1.332 . S
C137 C136 1.382 . S
C137 H139 0.952 . S
C138 N133 1.332 . S
C138 C134 1.382 . S
C138 H140 0.948 . S
H139 C137 0.952 . S
H140 C138 0.948 . S
H141 C130 0.952 . S
H142 C132 0.948 . S
C143 C109 1.395 . S
C143 C113 1.391 . S
C144 C106 1.389 . S
C144 C126 1.392 . S
C145 C116 1.392 . S
C145 C118 1.389 . S
C146 C121 1.395 . S
C146 C123 1.391 . S
H147 C107 0.951 . S
H148 C108 0.950 . S
H149 C114 0.949 . S
H150 C115 0.950 . S
H151 C119 0.951 1_556 S
H152 C120 0.950 . S
H153 C124 0.949 1_556 S
H154 C125 0.950 . S
H155 C129 0.950 . S
H156 C131 0.950 . S
H157 C134 0.950 . S
H158 C136 0.950 . S
C159 C160 1.443 . S
C159 N163 1.376 . S
C159 C197 1.389 . S
C160 C159 1.443 . S
C160 C161 1.340 . S
C160 H200 0.951 . S
C161 C160 1.340 . S
C161 C162 1.439 . S
C161 H201 0.950 . S
C162 C161 1.439 . S
C162 N163 1.374 . S
C162 C196 1.395 . S
N163 C159 1.376 . S
N163 C162 1.374 . S
N163 Co164 2.008 . S
Co164 N163 2.008 . S
Co164 N165 1.995 . S
Co164 N170 2.008 . S
Co164 N175 1.995 . S
Co164 N180 2.282 . S
Co164 N186 2.282 . S
N165 Co164 1.995 . S
N165 C166 1.376 . S
N165 C169 1.383 . S
C166 N165 1.376 . S
C166 C167 1.446 1_556 S
C166 C196 1.391 . S
C167 C166 1.446 1_554 S
C167 C168 1.339 1_554 S
C167 H202 0.949 . S
C168 C167 1.339 1_556 S
C168 C169 1.439 . S
C168 H203 0.946 1_556 S
C169 N165 1.383 . S
C169 C168 1.439 . S
C169 C198 1.392 . S
N170 Co164 2.008 . S
N170 C171 1.376 . S
N170 C174 1.374 . S
C171 N170 1.376 . S
C171 C172 1.443 . S
C171 C198 1.389 . S
C172 C171 1.443 . S
C172 C173 1.340 . S
C172 H204 0.951 . S
C173 C172 1.340 . S
C173 C174 1.439 . S
C173 H205 0.950 . S
C174 N170 1.374 . S
C174 C173 1.439 . S
C174 C199 1.395 . S
N175 Co164 1.995 . S
N175 C176 1.376 . S
N175 C179 1.383 . S
C176 N175 1.376 . S
C176 C177 1.446 . S
C176 C199 1.391 . S
C177 C176 1.446 . S
C177 C178 1.339 . S
C177 H206 0.949 . S
C178 C177 1.339 . S
C178 C179 1.439 . S
C178 H207 0.950 . S
C179 N175 1.383 . S
C179 C178 1.439 . S
C179 C197 1.392 . S
N180 Co164 2.282 . S
N180 C183 1.332 . S
N180 C185 1.332 . S
C181 C182 1.386 . S
C181 C184 1.388 1_556 S
C182 C181 1.386 . S
C182 C183 1.382 . S
C182 H208 0.950 . S
C183 N180 1.332 . S
C183 C182 1.382 . S
C183 H194 0.952 . S
C184 C181 1.388 1_554 S
C184 C185 1.382 1_554 S
C184 H209 0.950 . S
C185 N180 1.332 . S
C185 C184 1.382 1_556 S
C185 H195 0.948 . S
N186 Co164 2.282 . S
N186 C190 1.332 . S
N186 C191 1.332 . S
C187 C188 1.388 . S
C187 C191 1.382 . S
C187 H210 0.950 . S
C188 C187 1.388 . S
C188 C189 1.386 . S
C189 C188 1.386 . S
C189 C190 1.382 . S
C189 H211 0.950 . S
C190 N186 1.332 . S
C190 C189 1.382 . S
C190 H192 0.952 . S
C191 N186 1.332 . S
C191 C187 1.382 . S
C191 H193 0.948 . S
H192 C190 0.952 . S
H193 C191 0.948 . S
H194 C183 0.952 . S
H195 C185 0.948 . S
C196 C162 1.395 . S
C196 C166 1.391 . S
C197 C159 1.389 . S
C197 C179 1.392 . S
C198 C169 1.392 . S
C198 C171 1.389 . S
C199 C174 1.395 . S
C199 C176 1.391 . S
H200 C160 0.951 . S
H201 C161 0.950 . S
H202 C167 0.949 . S
H203 C168 0.946 1_554 S
H204 C172 0.951 . S
H205 C173 0.950 . S
H206 C177 0.949 . S
H207 C178 0.950 . S
H208 C182 0.950 . S
H209 C184 0.950 . S
H210 C187 0.950 . S
H211 C189 0.950 . S
C212 C213 1.443 1_554 S
C212 N216 1.376 . S
C212 C250 1.389 . S
C213 C212 1.443 1_556 S
C213 C214 1.340 . S
C213 H253 0.951 . S
C214 C213 1.340 . S
C214 C215 1.439 . S
C214 H254 0.950 . S
C215 C214 1.439 . S
C215 N216 1.374 1_556 S
C215 C249 1.395 . S
N216 C212 1.376 . S
N216 C215 1.374 1_554 S
N216 Co217 2.008 . S
Co217 N216 2.008 . S
Co217 N218 1.995 . S
Co217 N223 2.008 . S
Co217 N228 1.995 . S
Co217 N233 2.282 . S
Co217 N239 2.282 . S
N218 Co217 1.995 . S
N218 C219 1.376 . S
N218 C222 1.383 . S
C219 N218 1.376 . S
C219 C220 1.446 1_554 S
C219 C249 1.391 1_554 S
C220 C219 1.446 1_556 S
C220 C221 1.339 1_556 S
C220 H255 0.949 . S
C221 C220 1.339 1_554 S
C221 C222 1.439 . S
C221 H256 0.950 . S
C222 N218 1.383 . S
C222 C221 1.439 . S
C222 C251 1.392 . S
N223 Co217 2.008 . S
N223 C224 1.376 . S
N223 C227 1.374 . S
C224 N223 1.376 . S
C224 C225 1.443 . S
C224 C251 1.389 . S
C225 C224 1.443 . S
C225 C226 1.340 . S
C225 H257 0.951 . S
C226 C225 1.340 . S
C226 C227 1.439 . S
C226 H258 0.950 . S
C227 N223 1.374 . S
C227 C226 1.439 . S
C227 C252 1.395 . S
N228 Co217 1.995 . S
N228 C229 1.376 . S
N228 C232 1.383 . S
C229 N228 1.376 . S
C229 C230 1.446 . S
C229 C252 1.391 . S
C230 C229 1.446 . S
C230 C231 1.339 . S
C230 H259 0.949 . S
C231 C230 1.339 . S
C231 C232 1.439 . S
C231 H260 0.950 . S
C232 N228 1.383 . S
C232 C231 1.439 . S
C232 C250 1.392 . S
N233 Co217 2.282 . S
N233 C236 1.332 . S
N233 C238 1.332 . S
C234 C235 1.386 . S
C234 C237 1.388 . S
C235 C234 1.386 . S
C235 C236 1.382 . S
C235 H261 0.950 . S
C236 N233 1.332 . S
C236 C235 1.382 . S
C236 H247 0.952 . S
C237 C234 1.388 . S
C237 C238 1.382 . S
C237 H262 0.950 . S
C238 N233 1.332 . S
C238 C237 1.382 . S
C238 H248 0.948 . S
N239 Co217 2.282 . S
N239 C243 1.332 1_554 S
N239 C244 1.332 . S
C240 C241 1.388 1_554 S
C240 C244 1.382 . S
C240 H263 0.950 . S
C241 C240 1.388 1_556 S
C241 C242 1.386 . S
C242 C241 1.386 . S
C242 C243 1.382 . S
C242 H264 0.950 . S
C243 N239 1.332 1_556 S
C243 C242 1.382 . S
C243 H245 0.952 . S
C244 N239 1.332 . S
C244 C240 1.382 . S
C244 H246 0.948 . S
H245 C243 0.952 . S
H246 C244 0.948 . S
H247 C236 0.952 . S
H248 C238 0.948 . S
C249 C215 1.395 . S
C249 C219 1.391 1_556 S
C250 C212 1.389 . S
C250 C232 1.392 . S
C251 C222 1.392 . S
C251 C224 1.389 . S
C252 C227 1.395 . S
C252 C229 1.391 . S
H253 C213 0.951 . S
H254 C214 0.950 . S
H255 C220 0.949 . S
H256 C221 0.950 . S
H257 C225 0.951 . S
H258 C226 0.950 . S
H259 C230 0.949 . S
H260 C231 0.950 . S
H261 C235 0.950 . S
H262 C237 0.950 . S
H263 C240 0.950 . S
H264 C242 0.950 . S
C265 C266 1.443 . S
C265 N269 1.376 . S
C265 C303 1.389 . S
C266 C265 1.443 . S
C266 C267 1.340 . S
C266 H306 0.951 . S
C267 C266 1.340 . S
C267 C268 1.439 . S
C267 H307 0.950 . S
C268 C267 1.439 . S
C268 N269 1.374 . S
C268 C302 1.395 . S
N269 C265 1.376 . S
N269 C268 1.374 . S
N269 Co270 2.008 . S
Co270 N269 2.008 . S
Co270 N271 1.995 . S
Co270 N276 2.008 . S
Co270 N281 1.995 . S
Co270 N286 2.282 . S
Co270 N292 2.282 . S
N271 Co270 1.995 . S
N271 C272 1.376 . S
N271 C275 1.383 . S
C272 N271 1.376 . S
C272 C273 1.446 . S
C272 C302 1.391 . S
C273 C272 1.446 . S
C273 C274 1.339 . S
C273 H308 0.949 . S
C274 C273 1.339 . S
C274 C275 1.439 . S
C274 H309 0.950 . S
C275 N271 1.383 . S
C275 C274 1.439 . S
C275 C304 1.392 . S
N276 Co270 2.008 . S
N276 C277 1.376 . S
N276 C280 1.374 . S
C277 N276 1.376 . S
C277 C278 1.443 . S
C277 C304 1.389 . S
C278 C277 1.443 . S
C278 C279 1.340 . S
C278 H310 0.951 . S
C279 C278 1.340 . S
C279 C280 1.439 . S
C279 H311 0.950 1_556 S
C280 N276 1.374 . S
C280 C279 1.439 . S
C280 C305 1.395 1_556 S
N281 Co270 1.995 . S
N281 C282 1.376 1_556 S
N281 C285 1.383 . S
C282 N281 1.376 1_554 S
C282 C283 1.446 . S
C282 C305 1.391 . S
C283 C282 1.446 . S
C283 C284 1.339 . S
C283 H312 0.949 . S
C284 C283 1.339 . S
C284 C285 1.439 1_554 S
C284 H313 0.950 . S
C285 N281 1.383 . S
C285 C284 1.439 1_556 S
C285 C303 1.392 . S
N286 Co270 2.282 . S
N286 C289 1.332 . S
N286 C291 1.332 . S
C287 C288 1.386 . S
C287 C290 1.388 . S
C288 C287 1.386 . S
C288 C289 1.382 . S
C288 H314 0.950 . S
C289 N286 1.332 . S
C289 C288 1.382 . S
C289 H300 0.952 . S
C290 C287 1.388 . S
C290 C291 1.382 . S
C290 H315 0.950 . S
C291 N286 1.332 . S
C291 C290 1.382 . S
C291 H301 0.948 . S
N292 Co270 2.282 . S
N292 C296 1.332 . S
N292 C297 1.332 1_556 S
C293 C294 1.388 . S
C293 C297 1.382 . S
C293 H316 0.950 . S
C294 C293 1.388 . S
C294 C295 1.386 1_554 S
C295 C294 1.386 1_556 S
C295 C296 1.382 . S
C295 H317 0.950 . S
C296 N292 1.332 . S
C296 C295 1.382 . S
C296 H298 0.952 . S
C297 N292 1.332 1_554 S
C297 C293 1.382 . S
C297 H299 0.948 . S
H298 C296 0.952 . S
H299 C297 0.948 . S
H300 C289 0.952 . S
H301 C291 0.948 . S
C302 C268 1.395 . S
C302 C272 1.391 . S
C303 C265 1.389 . S
C303 C285 1.392 . S
C304 C275 1.392 . S
C304 C277 1.389 . S
C305 C280 1.395 1_554 S
C305 C282 1.391 . S
H306 C266 0.951 . S
H307 C267 0.950 . S
H308 C273 0.949 . S
H309 C274 0.950 . S
H310 C278 0.951 . S
H311 C279 0.950 1_554 S
H312 C283 0.949 . S
H313 C284 0.950 . S
H314 C288 0.950 . S
H315 C290 0.950 . S
H316 C293 0.950 . S
H317 C295 0.950 . S
C318 C319 1.443 1_554 S
C318 N322 1.376 . S
C318 C356 1.389 . S
C319 C318 1.443 1_556 S
C319 C320 1.340 . S
C319 H359 0.951 . S
C320 C319 1.340 . S
C320 C321 1.439 . S
C320 H360 0.950 . S
C321 C320 1.439 . S
C321 N322 1.374 1_556 S
C321 C355 1.395 . S
N322 C318 1.376 . S
N322 C321 1.374 1_554 S
N322 Co323 2.008 . S
Co323 N322 2.008 . S
Co323 N324 1.995 . S
Co323 N329 2.008 . S
Co323 N334 1.995 . S
Co323 N339 2.282 . S
Co323 N345 2.282 . S
N324 Co323 1.995 . S
N324 C325 1.376 . S
N324 C328 1.383 . S
C325 N324 1.376 . S
C325 C326 1.446 1_554 S
C325 C355 1.391 1_554 S
C326 C325 1.446 1_556 S
C326 C327 1.339 1_556 S
C326 H361 0.949 . S
C327 C326 1.339 1_554 S
C327 C328 1.439 . S
C327 H362 0.950 . S
C328 N324 1.383 . S
C328 C327 1.439 . S
C328 C357 1.392 . S
N329 Co323 2.008 . S
N329 C330 1.376 . S
N329 C333 1.374 . S
C330 N329 1.376 . S
C330 C331 1.443 . S
C330 C357 1.389 . S
C331 C330 1.443 . S
C331 C332 1.340 . S
C331 H363 0.951 . S
C332 C331 1.340 . S
C332 C333 1.439 . S
C332 H364 0.950 . S
C333 N329 1.374 . S
C333 C332 1.439 . S
C333 C358 1.395 . S
N334 Co323 1.995 . S
N334 C335 1.376 . S
N334 C338 1.383 . S
C335 N334 1.376 . S
C335 C336 1.446 . S
C335 C358 1.391 . S
C336 C335 1.446 . S
C336 C337 1.339 . S
C336 H365 0.949 . S
C337 C336 1.339 . S
C337 C338 1.439 . S
C337 H366 0.950 . S
C338 N334 1.383 . S
C338 C337 1.439 . S
C338 C356 1.392 . S
N339 Co323 2.282 . S
N339 C342 1.332 . S
N339 C344 1.332 . S
C340 C341 1.386 . S
C340 C343 1.388 . S
C341 C340 1.386 . S
C341 C342 1.382 . S
C341 H367 0.950 . S
C342 N339 1.332 . S
C342 C341 1.382 . S
C342 H353 0.952 . S
C343 C340 1.388 . S
C343 C344 1.382 . S
C343 H368 0.950 . S
C344 N339 1.332 . S
C344 C343 1.382 . S
C344 H354 0.948 . S
N345 Co323 2.282 . S
N345 C349 1.332 1_554 S
N345 C350 1.332 . S
C346 C347 1.388 1_554 S
C346 C350 1.382 . S
C346 H369 0.950 . S
C347 C346 1.388 1_556 S
C347 C348 1.386 . S
C348 C347 1.386 . S
C348 C349 1.382 . S
C348 H370 0.950 . S
C349 N345 1.332 1_556 S
C349 C348 1.382 . S
C349 H351 0.952 . S
C350 N345 1.332 . S
C350 C346 1.382 . S
C350 H352 0.948 . S
H351 C349 0.952 . S
H352 C350 0.948 . S
H353 C342 0.952 . S
H354 C344 0.948 . S
C355 C321 1.395 . S
C355 C325 1.391 1_556 S
C356 C318 1.389 . S
C356 C338 1.392 . S
C357 C328 1.392 . S
C357 C330 1.389 . S
C358 C333 1.395 . S
C358 C335 1.391 . S
H359 C319 0.951 . S
H360 C320 0.950 . S
H361 C326 0.949 . S
H362 C327 0.950 . S
H363 C331 0.951 . S
H364 C332 0.950 . S
H365 C336 0.949 . S
H366 C337 0.950 . S
H367 C341 0.950 . S
H368 C343 0.950 . S
H369 C346 0.950 . S
H370 C348 0.950 . S
C371 C372 1.443 . S
C371 N375 1.376 . S
C371 C409 1.389 . S
C372 C371 1.443 . S
C372 C373 1.340 . S
C372 H412 0.951 . S
C373 C372 1.340 . S
C373 C374 1.439 . S
C373 H413 0.950 . S
C374 C373 1.439 . S
C374 N375 1.374 . S
C374 C408 1.395 . S
N375 C371 1.376 . S
N375 C374 1.374 . S
N375 Co376 2.008 . S
Co376 N375 2.008 . S
Co376 N377 1.995 . S
Co376 N382 2.008 . S
Co376 N387 1.995 . S
Co376 N392 2.282 . S
Co376 N398 2.282 . S
N377 Co376 1.995 . S
N377 C378 1.376 . S
N377 C381 1.383 . S
C378 N377 1.376 . S
C378 C379 1.446 . S
C378 C408 1.391 . S
C379 C378 1.446 . S
C379 C380 1.339 . S
C379 H414 0.949 . S
C380 C379 1.339 . S
C380 C381 1.439 . S
C380 H415 0.950 . S
C381 N377 1.383 . S
C381 C380 1.439 . S
C381 C410 1.392 . S
N382 Co376 2.008 . S
N382 C383 1.376 . S
N382 C386 1.374 . S
C383 N382 1.376 . S
C383 C384 1.443 . S
C383 C410 1.389 . S
C384 C383 1.443 . S
C384 C385 1.340 . S
C384 H416 0.951 . S
C385 C384 1.340 . S
C385 C386 1.439 . S
C385 H417 0.950 1_556 S
C386 N382 1.374 . S
C386 C385 1.439 . S
C386 C411 1.395 1_556 S
N387 Co376 1.995 . S
N387 C388 1.376 1_556 S
N387 C391 1.383 . S
C388 N387 1.376 1_554 S
C388 C389 1.446 . S
C388 C411 1.391 . S
C389 C388 1.446 . S
C389 C390 1.339 . S
C389 H418 0.949 . S
C390 C389 1.339 . S
C390 C391 1.439 1_554 S
C390 H419 0.950 . S
C391 N387 1.383 . S
C391 C390 1.439 1_556 S
C391 C409 1.392 . S
N392 Co376 2.282 . S
N392 C395 1.332 . S
N392 C397 1.332 . S
C393 C394 1.386 . S
C393 C396 1.388 . S
C394 C393 1.386 . S
C394 C395 1.382 . S
C394 H420 0.950 . S
C395 N392 1.332 . S
C395 C394 1.382 . S
C395 H406 0.952 . S
C396 C393 1.388 . S
C396 C397 1.382 . S
C396 H421 0.950 . S
C397 N392 1.332 . S
C397 C396 1.382 . S
C397 H407 0.948 . S
N398 Co376 2.282 . S
N398 C402 1.332 . S
N398 C403 1.332 1_556 S
C399 C400 1.388 . S
C399 C403 1.382 . S
C399 H422 0.950 . S
C400 C399 1.388 . S
C400 C401 1.386 1_554 S
C401 C400 1.386 1_556 S
C401 C402 1.382 . S
C401 H423 0.950 . S
C402 N398 1.332 . S
C402 C401 1.382 . S
C402 H404 0.952 . S
C403 N398 1.332 1_554 S
C403 C399 1.382 . S
C403 H405 0.948 . S
H404 C402 0.952 . S
H405 C403 0.948 . S
H406 C395 0.952 . S
H407 C397 0.948 . S
C408 C374 1.395 . S
C408 C378 1.391 . S
C409 C371 1.389 . S
C409 C391 1.392 . S
C410 C381 1.392 . S
C410 C383 1.389 . S
C411 C386 1.395 1_554 S
C411 C388 1.391 . S
H412 C372 0.951 . S
H413 C373 0.950 . S
H414 C379 0.949 . S
H415 C380 0.950 . S
H416 C384 0.951 . S
H417 C385 0.950 1_554 S
H418 C389 0.949 . S
H419 C390 0.950 . S
H420 C394 0.950 . S
H421 C396 0.950 . S
H422 C399 0.950 . S
H423 C401 0.950 . S
C424 C425 1.443 . S
C424 N428 1.376 . S
C424 C462 1.389 . S
C425 C424 1.443 . S
C425 C426 1.340 . S
C425 H465 0.951 . S
C426 C425 1.340 . S
C426 C427 1.439 . S
C426 H466 0.950 . S
C427 C426 1.439 . S
C427 N428 1.374 . S
C427 C461 1.395 . S
N428 C424 1.376 . S
N428 C427 1.374 . S
N428 Co429 2.008 . S
Co429 N428 2.008 . S
Co429 N430 1.995 . S
Co429 N435 2.008 . S
Co429 N440 1.995 . S
Co429 N445 2.282 . S
Co429 N451 2.282 . S
N430 Co429 1.995 . S
N430 C431 1.376 . S
N430 C434 1.383 . S
C431 N430 1.376 . S
C431 C432 1.446 . S
C431 C461 1.391 . S
C432 C431 1.446 . S
C432 C433 1.339 . S
C432 H467 0.949 . S
C433 C432 1.339 . S
C433 C434 1.439 . S
C433 H468 0.950 . S
C434 N430 1.383 . S
C434 C433 1.439 . S
C434 C463 1.392 . S
N435 Co429 2.008 . S
N435 C436 1.376 . S
N435 C439 1.374 . S
C436 N435 1.376 . S
C436 C437 1.443 . S
C436 C463 1.389 . S
C437 C436 1.443 . S
C437 C438 1.340 . S
C437 H469 0.951 . S
C438 C437 1.340 . S
C438 C439 1.439 . S
C438 H470 0.950 . S
C439 N435 1.374 . S
C439 C438 1.439 . S
C439 C464 1.395 . S
N440 Co429 1.995 . S
N440 C441 1.376 . S
N440 C444 1.383 . S
C441 N440 1.376 . S
C441 C442 1.446 . S
C441 C464 1.391 . S
C442 C441 1.446 . S
C442 C443 1.339 . S
C442 H471 0.949 . S
C443 C442 1.339 . S
C443 C444 1.439 . S
C443 H472 0.950 . S
C444 N440 1.383 . S
C444 C443 1.439 . S
C444 C462 1.392 . S
N445 Co429 2.282 . S
N445 C448 1.332 . S
N445 C450 1.332 . S
C446 C447 1.386 . S
C446 C449 1.388 . S
C447 C446 1.386 . S
C447 C448 1.382 . S
C447 H473 0.950 . S
C448 N445 1.332 . S
C448 C447 1.382 . S
C448 H459 0.952 . S
C449 C446 1.388 . S
C449 C450 1.382 . S
C449 H474 0.950 . S
C450 N445 1.332 . S
C450 C449 1.382 . S
C450 H460 0.948 . S
N451 Co429 2.282 . S
N451 C455 1.332 . S
N451 C456 1.332 . S
C452 C453 1.388 . S
C452 C456 1.382 . S
C452 H475 0.950 . S
C453 C452 1.388 . S
C453 C454 1.386 . S
C454 C453 1.386 . S
C454 C455 1.382 . S
C454 H476 0.950 . S
C455 N451 1.332 . S
C455 C454 1.382 . S
C455 H457 0.952 . S
C456 N451 1.332 . S
C456 C452 1.382 . S
C456 H458 0.948 . S
H457 C455 0.952 . S
H458 C456 0.948 . S
H459 C448 0.952 . S
H460 C450 0.948 . S
C461 C427 1.395 . S
C461 C431 1.391 . S
C462 C424 1.389 . S
C462 C444 1.392 . S
C463 C434 1.392 . S
C463 C436 1.389 . S
C464 C439 1.395 . S
C464 C441 1.391 . S
H465 C425 0.951 . S
H466 C426 0.950 . S
H467 C432 0.949 . S
H468 C433 0.950 . S
H469 C437 0.951 . S
H470 C438 0.950 . S
H471 C442 0.949 . S
H472 C443 0.950 . S
H473 C447 0.950 . S
H474 C449 0.950 . S
H475 C452 0.950 . S
H476 C454 0.950 . S
C477 C478 1.443 . S
C477 N481 1.376 . S
C477 C515 1.389 . S
C478 C477 1.443 . S
C478 C479 1.340 . S
C478 H518 0.951 . S
C479 C478 1.340 . S
C479 C480 1.439 . S
C479 H519 0.950 . S
C480 C479 1.439 . S
C480 N481 1.374 . S
C480 C514 1.395 . S
N481 C477 1.376 . S
N481 C480 1.374 . S
N481 Co482 2.008 . S
Co482 N481 2.008 . S
Co482 N483 1.995 . S
Co482 N488 2.008 . S
Co482 N493 1.995 . S
Co482 N498 2.282 . S
Co482 N504 2.282 . S
N483 Co482 1.995 . S
N483 C484 1.376 . S
N483 C487 1.383 . S
C484 N483 1.376 . S
C484 C485 1.446 . S
C484 C514 1.391 . S
C485 C484 1.446 . S
C485 C486 1.339 . S
C485 H520 0.949 . S
C486 C485 1.339 . S
C486 C487 1.439 . S
C486 H521 0.950 . S
C487 N483 1.383 . S
C487 C486 1.439 . S
C487 C516 1.392 . S
N488 Co482 2.008 . S
N488 C489 1.376 . S
N488 C492 1.374 . S
C489 N488 1.376 . S
C489 C490 1.443 . S
C489 C516 1.389 . S
C490 C489 1.443 . S
C490 C491 1.340 . S
C490 H522 0.951 . S
C491 C490 1.340 . S
C491 C492 1.439 . S
C491 H523 0.950 . S
C492 N488 1.374 . S
C492 C491 1.439 . S
C492 C517 1.395 . S
N493 Co482 1.995 . S
N493 C494 1.376 . S
N493 C497 1.383 . S
C494 N493 1.376 . S
C494 C495 1.446 . S
C494 C517 1.391 . S
C495 C494 1.446 . S
C495 C496 1.339 . S
C495 H524 0.949 . S
C496 C495 1.339 . S
C496 C497 1.439 . S
C496 H525 0.950 . S
C497 N493 1.383 . S
C497 C496 1.439 . S
C497 C515 1.392 . S
N498 Co482 2.282 . S
N498 C501 1.332 . S
N498 C503 1.332 . S
C499 C500 1.386 . S
C499 C502 1.388 . S
C500 C499 1.386 . S
C500 C501 1.382 . S
C500 H526 0.950 . S
C501 N498 1.332 . S
C501 C500 1.382 . S
C501 H512 0.952 . S
C502 C499 1.388 . S
C502 C503 1.382 . S
C502 H527 0.950 . S
C503 N498 1.332 . S
C503 C502 1.382 . S
C503 H513 0.948 . S
N504 Co482 2.282 . S
N504 C508 1.332 . S
N504 C509 1.332 . S
C505 C506 1.388 . S
C505 C509 1.382 . S
C505 H528 0.950 . S
C506 C505 1.388 . S
C506 C507 1.386 . S
C507 C506 1.386 . S
C507 C508 1.382 . S
C507 H529 0.950 . S
C508 N504 1.332 . S
C508 C507 1.382 . S
C508 H510 0.952 . S
C509 N504 1.332 . S
C509 C505 1.382 . S
C509 H511 0.948 . S
H510 C508 0.952 . S
H511 C509 0.948 . S
H512 C501 0.952 . S
H513 C503 0.948 . S
C514 C480 1.395 . S
C514 C484 1.391 . S
C515 C477 1.389 . S
C515 C497 1.392 . S
C516 C487 1.392 . S
C516 C489 1.389 . S
C517 C492 1.395 . S
C517 C494 1.391 . S
H518 C478 0.951 . S
H519 C479 0.950 . S
H520 C485 0.949 . S
H521 C486 0.950 . S
H522 C490 0.951 . S
H523 C491 0.950 . S
H524 C495 0.949 . S
H525 C496 0.950 . S
H526 C500 0.950 . S
H527 C502 0.950 . S
H528 C505 0.950 . S
H529 C507 0.950 . S
C530 C531 1.443 . S
C530 N534 1.376 . S
C530 C568 1.389 . S
C531 C530 1.443 . S
C531 C532 1.340 . S
C531 H571 0.951 . S
C532 C531 1.340 . S
C532 C533 1.439 . S
C532 H572 0.950 . S
C533 C532 1.439 . S
C533 N534 1.374 . S
C533 C567 1.395 . S
N534 C530 1.376 . S
N534 C533 1.374 . S
N534 Co535 2.008 . S
Co535 N534 2.008 . S
Co535 N536 1.995 . S
Co535 N541 2.008 . S
Co535 N546 1.995 . S
Co535 N551 2.282 . S
Co535 N557 2.282 . S
N536 Co535 1.995 . S
N536 C537 1.376 . S
N536 C540 1.383 . S
C537 N536 1.376 . S
C537 C538 1.446 . S
C537 C567 1.391 . S
C538 C537 1.446 . S
C538 C539 1.339 . S
C538 H573 0.949 . S
C539 C538 1.339 . S
C539 C540 1.439 . S
C539 H574 0.950 . S
C540 N536 1.383 . S
C540 C539 1.439 . S
C540 C569 1.392 . S
N541 Co535 2.008 . S
N541 C542 1.376 . S
N541 C545 1.374 . S
C542 N541 1.376 . S
C542 C543 1.443 . S
C542 C569 1.389 . S
C543 C542 1.443 . S
C543 C544 1.340 . S
C543 H575 0.951 . S
C544 C543 1.340 . S
C544 C545 1.439 . S
C544 H576 0.950 . S
C545 N541 1.374 . S
C545 C544 1.439 . S
C545 C570 1.395 . S
N546 Co535 1.995 . S
N546 C547 1.376 . S
N546 C550 1.383 . S
C547 N546 1.376 . S
C547 C548 1.446 . S
C547 C570 1.391 . S
C548 C547 1.446 . S
C548 C549 1.339 . S
C548 H577 0.949 . S
C549 C548 1.339 . S
C549 C550 1.439 . S
C549 H578 0.950 . S
C550 N546 1.383 . S
C550 C549 1.439 . S
C550 C568 1.392 . S
N551 Co535 2.282 . S
N551 C554 1.332 . S
N551 C556 1.332 . S
C552 C553 1.386 . S
C552 C555 1.388 . S
C553 C552 1.386 . S
C553 C554 1.382 . S
C553 H579 0.950 . S
C554 N551 1.332 . S
C554 C553 1.382 . S
C554 H565 0.952 . S
C555 C552 1.388 . S
C555 C556 1.382 . S
C555 H580 0.950 . S
C556 N551 1.332 . S
C556 C555 1.382 . S
C556 H566 0.948 . S
N557 Co535 2.282 . S
N557 C561 1.332 . S
N557 C562 1.332 . S
C558 C559 1.388 . S
C558 C562 1.382 . S
C558 H581 0.950 . S
C559 C558 1.388 . S
C559 C560 1.386 . S
C560 C559 1.386 . S
C560 C561 1.382 . S
C560 H582 0.950 . S
C561 N557 1.332 . S
C561 C560 1.382 . S
C561 H563 0.952 . S
C562 N557 1.332 . S
C562 C558 1.382 . S
C562 H564 0.948 . S
H563 C561 0.952 . S
H564 C562 0.948 . S
H565 C554 0.952 . S
H566 C556 0.948 . S
C567 C533 1.395 . S
C567 C537 1.391 . S
C568 C530 1.389 . S
C568 C550 1.392 . S
C569 C540 1.392 . S
C569 C542 1.389 . S
C570 C545 1.395 . S
C570 C547 1.391 . S
H571 C531 0.951 . S
H572 C532 0.950 . S
H573 C538 0.949 . S
H574 C539 0.950 . S
H575 C543 0.951 . S
H576 C544 0.950 . S
H577 C548 0.949 . S
H578 C549 0.950 . S
H579 C553 0.950 . S
H580 C555 0.950 . S
H581 C558 0.950 . S
H582 C560 0.950 . S
C583 C584 1.443 . S
C583 N587 1.376 . S
C583 C621 1.389 . S
C584 C583 1.443 . S
C584 C585 1.340 . S
C584 H624 0.951 . S
C585 C584 1.340 . S
C585 C586 1.439 . S
C585 H625 0.950 . S
C586 C585 1.439 . S
C586 N587 1.374 . S
C586 C620 1.395 . S
N587 C583 1.376 . S
N587 C586 1.374 . S
N587 Co588 2.008 . S
Co588 N587 2.008 . S
Co588 N589 1.995 . S
Co588 N594 2.008 . S
Co588 N599 1.995 . S
Co588 N604 2.282 . S
Co588 N610 2.282 . S
N589 Co588 1.995 . S
N589 C590 1.376 . S
N589 C593 1.383 . S
C590 N589 1.376 . S
C590 C591 1.446 . S
C590 C620 1.391 . S
C591 C590 1.446 . S
C591 C592 1.339 . S
C591 H626 0.949 . S
C592 C591 1.339 . S
C592 C593 1.439 . S
C592 H627 0.950 . S
C593 N589 1.383 . S
C593 C592 1.439 . S
C593 C622 1.392 . S
N594 Co588 2.008 . S
N594 C595 1.376 . S
N594 C598 1.374 . S
C595 N594 1.376 . S
C595 C596 1.443 . S
C595 C622 1.389 . S
C596 C595 1.443 . S
C596 C597 1.340 . S
C596 H628 0.951 . S
C597 C596 1.340 . S
C597 C598 1.439 . S
C597 H629 0.950 . S
C598 N594 1.374 . S
C598 C597 1.439 . S
C598 C623 1.395 . S
N599 Co588 1.995 . S
N599 C600 1.376 . S
N599 C603 1.383 . S
C600 N599 1.376 . S
C600 C601 1.446 . S
C600 C623 1.391 . S
C601 C600 1.446 . S
C601 C602 1.339 . S
C601 H630 0.949 . S
C602 C601 1.339 . S
C602 C603 1.439 . S
C602 H631 0.950 . S
C603 N599 1.383 . S
C603 C602 1.439 . S
C603 C621 1.392 . S
N604 Co588 2.282 . S
N604 C607 1.332 . S
N604 C609 1.332 . S
C605 C606 1.386 . S
C605 C608 1.388 . S
C606 C605 1.386 . S
C606 C607 1.382 . S
C606 H632 0.950 . S
C607 N604 1.332 . S
C607 C606 1.382 . S
C607 H618 0.952 . S
C608 C605 1.388 . S
C608 C609 1.382 . S
C608 H633 0.950 . S
C609 N604 1.332 . S
C609 C608 1.382 . S
C609 H619 0.948 . S
N610 Co588 2.282 . S
N610 C614 1.332 . S
N610 C615 1.332 . S
C611 C612 1.388 . S
C611 C615 1.382 . S
C611 H634 0.950 . S
C612 C611 1.388 . S
C612 C613 1.386 . S
C613 C612 1.386 . S
C613 C614 1.382 . S
C613 H635 0.950 . S
C614 N610 1.332 . S
C614 C613 1.382 . S
C614 H616 0.952 . S
C615 N610 1.332 . S
C615 C611 1.382 . S
C615 H617 0.948 . S
H616 C614 0.952 . S
H617 C615 0.948 . S
H618 C607 0.952 . S
H619 C609 0.948 . S
C620 C586 1.395 . S
C620 C590 1.391 . S
C621 C583 1.389 . S
C621 C603 1.392 . S
C622 C593 1.392 . S
C622 C595 1.389 . S
C623 C598 1.395 . S
C623 C600 1.391 . S
H624 C584 0.951 . S
H625 C585 0.950 . S
H626 C591 0.949 . S
H627 C592 0.950 . S
H628 C596 0.951 . S
H629 C597 0.950 . S
H630 C601 0.949 . S
H631 C602 0.950 . S
H632 C606 0.950 . S
H633 C608 0.950 . S
H634 C611 0.950 . S
H635 C613 0.950 . S
C636 C637 1.443 . S
C636 N640 1.376 . S
C636 C674 1.389 . S
C637 C636 1.443 . S
C637 C638 1.340 . S
C637 H677 0.951 . S
C638 C637 1.340 . S
C638 C639 1.439 . S
C638 H678 0.950 . S
C639 C638 1.439 . S
C639 N640 1.374 . S
C639 C673 1.395 . S
N640 C636 1.376 . S
N640 C639 1.374 . S
N640 Co641 2.008 . S
Co641 N640 2.008 . S
Co641 N642 1.995 . S
Co641 N647 2.008 . S
Co641 N652 1.995 . S
Co641 N657 2.282 . S
Co641 N663 2.282 . S
N642 Co641 1.995 . S
N642 C643 1.376 . S
N642 C646 1.383 . S
C643 N642 1.376 . S
C643 C644 1.446 . S
C643 C673 1.391 . S
C644 C643 1.446 . S
C644 C645 1.339 . S
C644 H679 0.949 . S
C645 C644 1.339 . S
C645 C646 1.439 . S
C645 H680 0.950 . S
C646 N642 1.383 . S
C646 C645 1.439 . S
C646 C675 1.392 . S
N647 Co641 2.008 . S
N647 C648 1.376 . S
N647 C651 1.374 . S
C648 N647 1.376 . S
C648 C649 1.443 . S
C648 C675 1.389 . S
C649 C648 1.443 . S
C649 C650 1.340 . S
C649 H681 0.951 . S
C650 C649 1.340 . S
C650 C651 1.439 . S
C650 H682 0.950 . S
C651 N647 1.374 . S
C651 C650 1.439 . S
C651 C676 1.395 . S
N652 Co641 1.995 . S
N652 C653 1.376 . S
N652 C656 1.383 . S
C653 N652 1.376 . S
C653 C654 1.446 . S
C653 C676 1.391 . S
C654 C653 1.446 . S
C654 C655 1.339 . S
C654 H683 0.949 . S
C655 C654 1.339 . S
C655 C656 1.439 . S
C655 H684 0.950 . S
C656 N652 1.383 . S
C656 C655 1.439 . S
C656 C674 1.392 . S
N657 Co641 2.282 . S
N657 C660 1.332 . S
N657 C662 1.332 . S
C658 C659 1.386 . S
C658 C661 1.388 . S
C659 C658 1.386 . S
C659 C660 1.382 . S
C659 H685 0.950 . S
C660 N657 1.332 . S
C660 C659 1.382 . S
C660 H671 0.952 . S
C661 C658 1.388 . S
C661 C662 1.382 . S
C661 H686 0.950 . S
C662 N657 1.332 . S
C662 C661 1.382 . S
C662 H672 0.948 . S
N663 Co641 2.282 . S
N663 C667 1.332 . S
N663 C668 1.332 . S
C664 C665 1.388 . S
C664 C668 1.382 . S
C664 H687 0.950 . S
C665 C664 1.388 . S
C665 C666 1.386 . S
C666 C665 1.386 . S
C666 C667 1.382 . S
C666 H688 0.950 . S
C667 N663 1.332 . S
C667 C666 1.382 . S
C667 H669 0.952 . S
C668 N663 1.332 . S
C668 C664 1.382 . S
C668 H670 0.948 . S
H669 C667 0.952 . S
H670 C668 0.948 . S
H671 C660 0.952 . S
H672 C662 0.948 . S
C673 C639 1.395 . S
C673 C643 1.391 . S
C674 C636 1.389 . S
C674 C656 1.392 . S
C675 C646 1.392 . S
C675 C648 1.389 . S
C676 C651 1.395 . S
C676 C653 1.391 . S
H677 C637 0.951 . S
H678 C638 0.950 . S
H679 C644 0.949 . S
H680 C645 0.950 . S
H681 C649 0.951 . S
H682 C650 0.950 . S
H683 C654 0.949 . S
H684 C655 0.950 . S
H685 C659 0.950 . S
H686 C661 0.950 . S
H687 C664 0.950 . S
H688 C666 0.950 . S
C689 C690 1.443 . S
C689 N693 1.376 . S
C689 C727 1.389 . S
C690 C689 1.443 . S
C690 C691 1.340 . S
C690 H730 0.951 . S
C691 C690 1.340 . S
C691 C692 1.439 . S
C691 H731 0.950 . S
C692 C691 1.439 . S
C692 N693 1.374 . S
C692 C726 1.395 . S
N693 C689 1.376 . S
N693 C692 1.374 . S
N693 Co694 2.008 . S
Co694 N693 2.008 . S
Co694 N695 1.995 . S
Co694 N700 2.008 . S
Co694 N705 1.995 . S
Co694 N710 2.282 . S
Co694 N716 2.282 . S
N695 Co694 1.995 . S
N695 C696 1.376 . S
N695 C699 1.383 . S
C696 N695 1.376 . S
C696 C697 1.446 . S
C696 C726 1.391 . S
C697 C696 1.446 . S
C697 C698 1.339 . S
C697 H732 0.949 . S
C698 C697 1.339 . S
C698 C699 1.439 . S
C698 H733 0.950 . S
C699 N695 1.383 . S
C699 C698 1.439 . S
C699 C728 1.392 . S
N700 Co694 2.008 . S
N700 C701 1.376 . S
N700 C704 1.374 . S
C701 N700 1.376 . S
C701 C702 1.443 . S
C701 C728 1.389 . S
C702 C701 1.443 . S
C702 C703 1.340 . S
C702 H734 0.951 . S
C703 C702 1.340 . S
C703 C704 1.439 . S
C703 H735 0.950 . S
C704 N700 1.374 . S
C704 C703 1.439 . S
C704 C729 1.395 . S
N705 Co694 1.995 . S
N705 C706 1.376 . S
N705 C709 1.383 . S
C706 N705 1.376 . S
C706 C707 1.446 . S
C706 C729 1.391 . S
C707 C706 1.446 . S
C707 C708 1.339 . S
C707 H736 0.949 . S
C708 C707 1.339 . S
C708 C709 1.439 . S
C708 H737 0.950 . S
C709 N705 1.383 . S
C709 C708 1.439 . S
C709 C727 1.392 . S
N710 Co694 2.282 . S
N710 C713 1.332 . S
N710 C715 1.332 . S
C711 C712 1.386 . S
C711 C714 1.388 . S
C712 C711 1.386 . S
C712 C713 1.382 . S
C712 H738 0.950 . S
C713 N710 1.332 . S
C713 C712 1.382 . S
C713 H724 0.952 . S
C714 C711 1.388 . S
C714 C715 1.382 . S
C714 H739 0.950 . S
C715 N710 1.332 . S
C715 C714 1.382 . S
C715 H725 0.948 . S
N716 Co694 2.282 . S
N716 C720 1.332 . S
N716 C721 1.332 . S
C717 C718 1.388 . S
C717 C721 1.382 . S
C717 H740 0.950 . S
C718 C717 1.388 . S
C718 C719 1.386 . S
C719 C718 1.386 . S
C719 C720 1.382 . S
C719 H741 0.950 . S
C720 N716 1.332 . S
C720 C719 1.382 . S
C720 H722 0.952 . S
C721 N716 1.332 . S
C721 C717 1.382 . S
C721 H723 0.948 . S
H722 C720 0.952 . S
H723 C721 0.948 . S
H724 C713 0.952 . S
H725 C715 0.948 . S
C726 C692 1.395 . S
C726 C696 1.391 . S
C727 C689 1.389 . S
C727 C709 1.392 . S
C728 C699 1.392 . S
C728 C701 1.389 . S
C729 C704 1.395 . S
C729 C706 1.391 . S
H730 C690 0.951 . S
H731 C691 0.950 . S
H732 C697 0.949 . S
H733 C698 0.950 . S
H734 C702 0.951 . S
H735 C703 0.950 . S
H736 C707 0.949 . S
H737 C708 0.950 . S
H738 C712 0.950 . S
H739 C714 0.950 . S
H740 C717 0.950 . S
H741 C719 0.950 . S
C742 C743 1.443 . S
C742 N746 1.376 . S
C742 C780 1.389 . S
C743 C742 1.443 . S
C743 C744 1.340 . S
C743 H783 0.951 . S
C744 C743 1.340 . S
C744 C745 1.439 . S
C744 H784 0.950 . S
C745 C744 1.439 . S
C745 N746 1.374 . S
C745 C779 1.395 . S
N746 C742 1.376 . S
N746 C745 1.374 . S
N746 Co747 2.008 . S
Co747 N746 2.008 . S
Co747 N748 1.995 . S
Co747 N753 2.008 . S
Co747 N758 1.995 . S
Co747 N763 2.282 . S
Co747 N769 2.282 . S
N748 Co747 1.995 . S
N748 C749 1.376 . S
N748 C752 1.383 . S
C749 N748 1.376 . S
C749 C750 1.446 . S
C749 C779 1.391 . S
C750 C749 1.446 . S
C750 C751 1.339 . S
C750 H785 0.949 . S
C751 C750 1.339 . S
C751 C752 1.439 . S
C751 H786 0.950 . S
C752 N748 1.383 . S
C752 C751 1.439 . S
C752 C781 1.392 . S
N753 Co747 2.008 . S
N753 C754 1.376 . S
N753 C757 1.374 . S
C754 N753 1.376 . S
C754 C755 1.443 . S
C754 C781 1.389 . S
C755 C754 1.443 . S
C755 C756 1.340 . S
C755 H787 0.951 . S
C756 C755 1.340 . S
C756 C757 1.439 . S
C756 H788 0.950 . S
C757 N753 1.374 . S
C757 C756 1.439 . S
C757 C782 1.395 . S
N758 Co747 1.995 . S
N758 C759 1.376 . S
N758 C762 1.383 . S
C759 N758 1.376 . S
C759 C760 1.446 . S
C759 C782 1.391 . S
C760 C759 1.446 . S
C760 C761 1.339 . S
C760 H789 0.949 . S
C761 C760 1.339 . S
C761 C762 1.439 . S
C761 H790 0.950 . S
C762 N758 1.383 . S
C762 C761 1.439 . S
C762 C780 1.392 . S
N763 Co747 2.282 . S
N763 C766 1.332 . S
N763 C768 1.332 . S
C764 C765 1.386 . S
C764 C767 1.388 . S
C765 C764 1.386 . S
C765 C766 1.382 . S
C765 H791 0.950 . S
C766 N763 1.332 . S
C766 C765 1.382 . S
C766 H777 0.952 . S
C767 C764 1.388 . S
C767 C768 1.382 . S
C767 H792 0.950 . S
C768 N763 1.332 . S
C768 C767 1.382 . S
C768 H778 0.948 . S
N769 Co747 2.282 . S
N769 C773 1.332 . S
N769 C774 1.332 . S
C770 C771 1.388 . S
C770 C774 1.382 . S
C770 H793 0.950 . S
C771 C770 1.388 . S
C771 C772 1.386 . S
C772 C771 1.386 . S
C772 C773 1.382 . S
C772 H794 0.950 . S
C773 N769 1.332 . S
C773 C772 1.382 . S
C773 H775 0.952 . S
C774 N769 1.332 . S
C774 C770 1.382 . S
C774 H776 0.948 . S
H775 C773 0.952 . S
H776 C774 0.948 . S
H777 C766 0.952 . S
H778 C768 0.948 . S
C779 C745 1.395 . S
C779 C749 1.391 . S
C780 C742 1.389 . S
C780 C762 1.392 . S
C781 C752 1.392 . S
C781 C754 1.389 . S
C782 C757 1.395 . S
C782 C759 1.391 . S
H783 C743 0.951 . S
H784 C744 0.950 . S
H785 C750 0.949 . S
H786 C751 0.950 . S
H787 C755 0.951 . S
H788 C756 0.950 . S
H789 C760 0.949 . S
H790 C761 0.950 . S
H791 C765 0.950 . S
H792 C767 0.950 . S
H793 C770 0.950 . S
H794 C772 0.950 . S
C795 C796 1.443 . S
C795 N799 1.376 . S
C795 C833 1.389 . S
C796 C795 1.443 . S
C796 C797 1.340 . S
C796 H836 0.951 . S
C797 C796 1.340 . S
C797 C798 1.439 . S
C797 H837 0.950 . S
C798 C797 1.439 . S
C798 N799 1.374 . S
C798 C832 1.395 . S
N799 C795 1.376 . S
N799 C798 1.374 . S
N799 Co800 2.008 . S
Co800 N799 2.008 . S
Co800 N801 1.995 . S
Co800 N806 2.008 . S
Co800 N811 1.995 . S
Co800 N816 2.282 . S
Co800 N822 2.282 . S
N801 Co800 1.995 . S
N801 C802 1.376 . S
N801 C805 1.383 . S
C802 N801 1.376 . S
C802 C803 1.446 . S
C802 C832 1.391 . S
C803 C802 1.446 . S
C803 C804 1.339 . S
C803 H838 0.949 . S
C804 C803 1.339 . S
C804 C805 1.439 . S
C804 H839 0.950 . S
C805 N801 1.383 . S
C805 C804 1.439 . S
C805 C834 1.392 . S
N806 Co800 2.008 . S
N806 C807 1.376 . S
N806 C810 1.374 . S
C807 N806 1.376 . S
C807 C808 1.443 . S
C807 C834 1.389 . S
C808 C807 1.443 . S
C808 C809 1.340 . S
C808 H840 0.951 . S
C809 C808 1.340 . S
C809 C810 1.439 . S
C809 H841 0.950 . S
C810 N806 1.374 . S
C810 C809 1.439 . S
C810 C835 1.395 . S
N811 Co800 1.995 . S
N811 C812 1.376 . S
N811 C815 1.383 . S
C812 N811 1.376 . S
C812 C813 1.446 . S
C812 C835 1.391 . S
C813 C812 1.446 . S
C813 C814 1.339 . S
C813 H842 0.949 . S
C814 C813 1.339 . S
C814 C815 1.439 . S
C814 H843 0.950 . S
C815 N811 1.383 . S
C815 C814 1.439 . S
C815 C833 1.392 . S
N816 Co800 2.282 . S
N816 C819 1.332 . S
N816 C821 1.332 . S
C817 C818 1.386 . S
C817 C820 1.388 . S
C818 C817 1.386 . S
C818 C819 1.382 . S
C818 H844 0.950 . S
C819 N816 1.332 . S
C819 C818 1.382 . S
C819 H830 0.952 . S
C820 C817 1.388 . S
C820 C821 1.382 . S
C820 H845 0.950 . S
C821 N816 1.332 . S
C821 C820 1.382 . S
C821 H831 0.948 . S
N822 Co800 2.282 . S
N822 C826 1.332 . S
N822 C827 1.332 . S
C823 C824 1.388 . S
C823 C827 1.382 . S
C823 H846 0.950 . S
C824 C823 1.388 . S
C824 C825 1.386 . S
C825 C824 1.386 . S
C825 C826 1.382 . S
C825 H847 0.950 . S
C826 N822 1.332 . S
C826 C825 1.382 . S
C826 H828 0.952 . S
C827 N822 1.332 . S
C827 C823 1.382 . S
C827 H829 0.948 . S
H828 C826 0.952 . S
H829 C827 0.948 . S
H830 C819 0.952 . S
H831 C821 0.948 . S
C832 C798 1.395 . S
C832 C802 1.391 . S
C833 C795 1.389 . S
C833 C815 1.392 . S
C834 C805 1.392 . S
C834 C807 1.389 . S
C835 C810 1.395 . S
C835 C812 1.391 . S
H836 C796 0.951 . S
H837 C797 0.950 . S
H838 C803 0.949 . S
H839 C804 0.950 . S
H840 C808 0.951 . S
H841 C809 0.950 . S
H842 C813 0.949 . S
H843 C814 0.950 . S
H844 C818 0.950 . S
H845 C820 0.950 . S
H846 C823 0.950 . S
H847 C825 0.950 . S
C848 C849 1.387 . S
C848 H852 0.950 . S
C848 C857 1.390 1_565 S
C849 C848 1.387 . S
C849 C851 1.387 . S
H850 C857 0.950 . S
C851 C849 1.387 . S
C851 C853 1.390 1_565 S
C851 H855 0.950 . S
H852 C848 0.950 . S
C853 C851 1.390 1_545 S
C853 C854 1.387 . S
C853 H856 0.950 . S
C854 C853 1.387 . S
C854 C857 1.387 . S
H855 C851 0.950 . S
H856 C853 0.950 . S
C857 C848 1.390 1_545 S
C857 H850 0.950 . S
C857 C854 1.387 . S
C858 C859 1.387 . S
C858 H862 0.950 . S
C858 C867 1.390 1_455 S
C859 C858 1.387 . S
C859 C861 1.387 . S
H860 C867 0.950 . S
C861 C859 1.387 . S
C861 C863 1.390 1_455 S
C861 H865 0.950 . S
H862 C858 0.950 . S
C863 C861 1.390 1_655 S
C863 C864 1.387 . S
C863 H866 0.950 . S
C864 C863 1.387 . S
C864 C867 1.387 . S
H865 C861 0.950 . S
H866 C863 0.950 . S
C867 C858 1.390 1_655 S
C867 H860 0.950 . S
C867 C864 1.387 . S
C868 C869 1.387 . S
C868 H872 0.950 . S
C868 C877 1.390 1_565 S
C869 C868 1.387 . S
C869 C871 1.387 . S
H870 C877 0.950 . S
C871 C869 1.387 . S
C871 C873 1.390 1_565 S
C871 H875 0.950 . S
H872 C868 0.950 . S
C873 C871 1.390 1_545 S
C873 C874 1.387 . S
C873 H876 0.950 . S
C874 C873 1.387 . S
C874 C877 1.387 . S
H875 C871 0.950 . S
H876 C873 0.950 . S
C877 C868 1.390 1_545 S
C877 H870 0.950 . S
C877 C874 1.387 . S
C878 C879 1.387 . S
C878 H882 0.950 . S
C878 C887 1.390 1_455 S
C879 C878 1.387 . S
C879 C881 1.387 . S
H880 C887 0.950 . S
C881 C879 1.387 . S
C881 C883 1.390 1_455 S
C881 H885 0.950 . S
H882 C878 0.950 . S
C883 C881 1.390 1_655 S
C883 C884 1.387 . S
C883 H886 0.950 . S
C884 C883 1.387 . S
C884 C887 1.387 . S
H885 C881 0.950 . S
H886 C883 0.950 . S
C887 C878 1.390 1_655 S
C887 H880 0.950 . S
C887 C884 1.387 . S
C888 C889 1.387 1_556 S
C888 H892 0.950 . S
C888 C897 1.390 . S
C889 C888 1.387 1_554 S
C889 C891 1.387 . S
H890 C897 0.950 . S
C891 C889 1.387 . S
C891 C893 1.390 . S
C891 H895 0.950 . S
H892 C888 0.950 . S
C893 C891 1.390 . S
C893 C894 1.387 . S
C893 H896 0.950 . S
C894 C893 1.387 . S
C894 C897 1.387 1_554 S
H895 C891 0.950 . S
H896 C893 0.950 . S
C897 C888 1.390 . S
C897 H890 0.950 . S
C897 C894 1.387 1_556 S
C898 C899 1.387 1_554 S
C898 H902 0.950 . S
C898 C907 1.390 . S
C899 C898 1.387 1_556 S
C899 C901 1.387 . S
H900 C907 0.950 . S
C901 C899 1.387 . S
C901 C903 1.390 . S
C901 H905 0.950 . S
H902 C898 0.950 . S
C903 C901 1.390 . S
C903 C904 1.387 . S
C903 H906 0.950 . S
C904 C903 1.387 . S
C904 C907 1.387 1_556 S
H905 C901 0.950 . S
H906 C903 0.950 . S
C907 C898 1.390 . S
C907 H900 0.950 . S
C907 C904 1.387 1_554 S
C908 C909 1.387 . S
C908 H912 0.950 . S
C908 C917 1.390 . S
C909 C908 1.387 . S
C909 C911 1.387 1_554 S
H910 C917 0.950 . S
C911 C909 1.387 1_556 S
C911 C913 1.390 . S
C911 H915 0.950 . S
H912 C908 0.950 . S
C913 C911 1.390 . S
C913 C914 1.387 1_556 S
C913 H916 0.950 . S
C914 C913 1.387 1_554 S
C914 C917 1.387 . S
H915 C911 0.950 . S
H916 C913 0.950 . S
C917 C908 1.390 . S
C917 H910 0.950 . S
C917 C914 1.387 . S
C918 C919 1.387 . S
C918 H922 0.950 . S
C918 C927 1.390 . S
C919 C918 1.387 . S
C919 C921 1.387 . S
H920 C927 0.950 . S
C921 C919 1.387 . S
C921 C923 1.390 . S
C921 H925 0.950 1_556 S
H922 C918 0.950 . S
C923 C921 1.390 . S
C923 C924 1.387 . S
C923 H926 0.950 1_556 S
C924 C923 1.387 . S
C924 C927 1.387 . S
H925 C921 0.950 1_554 S
H926 C923 0.950 1_554 S
C927 C918 1.390 . S
C927 H920 0.950 . S
C927 C924 1.387 . S
C928 C929 1.387 . S
C928 H932 0.950 . S
C928 C937 1.390 . S
C929 C928 1.387 . S
C929 C931 1.387 . S
H930 C937 0.950 . S
C931 C929 1.387 . S
C931 C933 1.390 . S
C931 H935 0.950 . S
H932 C928 0.950 . S
C933 C931 1.390 . S
C933 C934 1.387 . S
C933 H936 0.950 . S
C934 C933 1.387 . S
C934 C937 1.387 . S
H935 C931 0.950 . S
H936 C933 0.950 . S
C937 C928 1.390 . S
C937 H930 0.950 . S
C937 C934 1.387 . S
C938 C939 1.387 . S
C938 H942 0.950 . S
C938 C947 1.390 . S
C939 C938 1.387 . S
C939 C941 1.387 . S
H940 C947 0.950 . S
C941 C939 1.387 . S
C941 C943 1.390 . S
C941 H945 0.950 . S
H942 C938 0.950 . S
C943 C941 1.390 . S
C943 C944 1.387 . S
C943 H946 0.950 . S
C944 C943 1.387 . S
C944 C947 1.387 . S
H945 C941 0.950 . S
H946 C943 0.950 . S
C947 C938 1.390 . S
C947 H940 0.950 . S
C947 C944 1.387 . S
C948 C949 1.387 . S
C948 H952 0.950 . S
C948 C957 1.390 . S
C949 C948 1.387 . S
C949 C951 1.387 . S
H950 C957 0.950 . S
C951 C949 1.387 . S
C951 C953 1.390 . S
C951 H955 0.950 . S
H952 C948 0.950 . S
C953 C951 1.390 . S
C953 C954 1.387 . S
C953 H956 0.950 . S
C954 C953 1.387 . S
C954 C957 1.387 . S
H955 C951 0.950 . S
H956 C953 0.950 . S
C957 C948 1.390 . S
C957 H950 0.950 . S
C957 C954 1.387 . S
C958 C959 1.387 . S
C958 H962 0.950 . S
C958 C967 1.390 . S
C959 C958 1.387 . S
C959 C961 1.387 . S
H960 C967 0.950 . S
C961 C959 1.387 . S
C961 C963 1.390 . S
C961 H965 0.950 . S
H962 C958 0.950 . S
C963 C961 1.390 . S
C963 C964 1.387 . S
C963 H966 0.950 . S
C964 C963 1.387 . S
C964 C967 1.387 . S
H965 C961 0.950 . S
H966 C963 0.950 . S
C967 C958 1.390 . S
C967 H960 0.950 . S
C967 C964 1.387 . S
C968 C969 1.387 . S
C968 H972 0.950 . S
C968 C977 1.390 1_565 S
C969 C968 1.387 . S
C969 C971 1.387 . S
H970 C977 0.950 . S
C971 C969 1.387 . S
C971 C973 1.390 1_565 S
C971 H975 0.950 . S
H972 C968 0.950 . S
C973 C971 1.390 1_545 S
C973 C974 1.387 . S
C973 H976 0.950 . S
C974 C973 1.387 . S
C974 C977 1.387 . S
H975 C971 0.950 . S
H976 C973 0.950 . S
C977 C968 1.390 1_545 S
C977 H970 0.950 . S
C977 C974 1.387 . S
C978 C979 1.387 . S
C978 H982 0.950 . S
C978 C987 1.390 1_655 S
C979 C978 1.387 . S
C979 C981 1.387 . S
H980 C987 0.950 . S
C981 C979 1.387 . S
C981 C983 1.390 1_655 S
C981 H985 0.950 . S
H982 C978 0.950 . S
C983 C981 1.390 1_455 S
C983 C984 1.387 . S
C983 H986 0.950 . S
C984 C983 1.387 . S
C984 C987 1.387 . S
H985 C981 0.950 . S
H986 C983 0.950 . S
C987 C978 1.390 1_455 S
C987 H980 0.950 . S
C987 C984 1.387 . S
C988 C989 1.387 . S
C988 H992 0.950 . S
C988 C997 1.390 1_565 S
C989 C988 1.387 . S
C989 C991 1.387 . S
H990 C997 0.950 . S
C991 C989 1.387 . S
C991 C993 1.390 1_565 S
C991 H995 0.950 . S
H992 C988 0.950 . S
C993 C991 1.390 1_545 S
C993 C994 1.387 . S
C993 H996 0.950 . S
C994 C993 1.387 . S
C994 C997 1.387 . S
H995 C991 0.950 . S
H996 C993 0.950 . S
C997 C988 1.390 1_545 S
C997 H990 0.950 . S
C997 C994 1.387 . S
C998 C999 1.387 . S
C998 H1002 0.950 . S
C998 C1007 1.390 1_655 S
C999 C998 1.387 . S
C999 C1001 1.387 . S
H1000 C1007 0.950 . S
C1001 C999 1.387 . S
C1001 C1003 1.390 1_655 S
C1001 H1005 0.950 . S
H1002 C998 0.950 . S
C1003 C1001 1.390 1_455 S
C1003 C1004 1.387 . S
C1003 H1006 0.950 . S
C1004 C1003 1.387 . S
C1004 C1007 1.387 . S
H1005 C1001 0.950 . S
H1006 C1003 0.950 . S
C1007 C998 1.390 1_455 S
C1007 H1000 0.950 . S
C1007 C1004 1.387 . S
C1008 C1009 1.387 . S
C1008 H1012 0.950 . S
C1008 C1017 1.390 . S
C1009 C1008 1.387 . S
C1009 C1011 1.387 . S
H1010 C1017 0.950 . S
C1011 C1009 1.387 . S
C1011 C1013 1.390 . S
C1011 H1015 0.950 . S
H1012 C1008 0.950 . S
C1013 C1011 1.390 . S
C1013 C1014 1.387 . S
C1013 H1016 0.950 . S
C1014 C1013 1.387 . S
C1014 C1017 1.387 . S
H1015 C1011 0.950 . S
H1016 C1013 0.950 . S
C1017 C1008 1.390 . S
C1017 H1010 0.950 . S
C1017 C1014 1.387 . S
C1018 C1019 1.387 . S
C1018 H1022 0.950 . S
C1018 C1027 1.390 . S
C1019 C1018 1.387 . S
C1019 C1021 1.387 . S
H1020 C1027 0.950 . S
C1021 C1019 1.387 . S
C1021 C1023 1.390 . S
C1021 H1025 0.950 . S
H1022 C1018 0.950 . S
C1023 C1021 1.390 . S
C1023 C1024 1.387 . S
C1023 H1026 0.950 . S
C1024 C1023 1.387 . S
C1024 C1027 1.387 . S
H1025 C1021 0.950 . S
H1026 C1023 0.950 . S
C1027 C1018 1.390 . S
C1027 H1020 0.950 . S
C1027 C1024 1.387 . S
C1028 C1029 1.387 . S
C1028 H1032 0.950 . S
C1028 C1037 1.390 . S
C1029 C1028 1.387 . S
C1029 C1031 1.387 . S
H1030 C1037 0.950 . S
C1031 C1029 1.387 . S
C1031 C1033 1.390 . S
C1031 H1035 0.950 . S
H1032 C1028 0.950 . S
C1033 C1031 1.390 . S
C1033 C1034 1.387 . S
C1033 H1036 0.950 . S
C1034 C1033 1.387 . S
C1034 C1037 1.387 . S
H1035 C1031 0.950 . S
H1036 C1033 0.950 . S
C1037 C1028 1.390 . S
C1037 H1030 0.950 . S
C1037 C1034 1.387 . S
C1038 C1039 1.387 . S
C1038 H1042 0.950 . S
C1038 C1047 1.390 . S
C1039 C1038 1.387 . S
C1039 C1041 1.387 . S
H1040 C1047 0.950 . S
C1041 C1039 1.387 . S
C1041 C1043 1.390 . S
C1041 H1045 0.950 . S
H1042 C1038 0.950 . S
C1043 C1041 1.390 . S
C1043 C1044 1.387 . S
C1043 H1046 0.950 . S
C1044 C1043 1.387 . S
C1044 C1047 1.387 . S
H1045 C1041 0.950 . S
H1046 C1043 0.950 . S
C1047 C1038 1.390 . S
C1047 H1040 0.950 . S
C1047 C1044 1.387 . S
C1048 C1049 1.387 . S
C1048 H1052 0.950 . S
C1048 C1057 1.390 . S
C1049 C1048 1.387 . S
C1049 C1051 1.387 . S
H1050 C1057 0.950 . S
C1051 C1049 1.387 . S
C1051 C1053 1.390 . S
C1051 H1055 0.950 . S
H1052 C1048 0.950 . S
C1053 C1051 1.390 . S
C1053 C1054 1.387 . S
C1053 H1056 0.950 . S
C1054 C1053 1.387 . S
C1054 C1057 1.387 . S
H1055 C1051 0.950 . S
H1056 C1053 0.950 . S
C1057 C1048 1.390 . S
C1057 H1050 0.950 . S
C1057 C1054 1.387 . S
C1058 C1059 1.387 . S
C1058 H1062 0.950 . S
C1058 C1067 1.390 . S
C1059 C1058 1.387 . S
C1059 C1061 1.387 . S
H1060 C1067 0.950 . S
C1061 C1059 1.387 . S
C1061 C1063 1.390 . S
C1061 H1065 0.950 . S
H1062 C1058 0.950 . S
C1063 C1061 1.390 . S
C1063 C1064 1.387 . S
C1063 H1066 0.950 . S
C1064 C1063 1.387 . S
C1064 C1067 1.387 . S
H1065 C1061 0.950 . S
H1066 C1063 0.950 . S
C1067 C1058 1.390 . S
C1067 H1060 0.950 . S
C1067 C1064 1.387 . S
C1068 C1069 1.387 . S
C1068 H1072 0.950 . S
C1068 C1077 1.390 . S
C1069 C1068 1.387 . S
C1069 C1071 1.387 . S
H1070 C1077 0.950 . S
C1071 C1069 1.387 . S
C1071 C1073 1.390 . S
C1071 H1075 0.950 . S
H1072 C1068 0.950 . S
C1073 C1071 1.390 . S
C1073 C1074 1.387 . S
C1073 H1076 0.950 . S
C1074 C1073 1.387 . S
C1074 C1077 1.387 . S
H1075 C1071 0.950 . S
H1076 C1073 0.950 . S
C1077 C1068 1.390 . S
C1077 H1070 0.950 . S
C1077 C1074 1.387 . S
C1078 C1079 1.387 . S
C1078 H1082 0.950 . S
C1078 C1087 1.390 . S
C1079 C1078 1.387 . S
C1079 C1081 1.387 . S
H1080 C1087 0.950 . S
C1081 C1079 1.387 . S
C1081 C1083 1.390 . S
C1081 H1085 0.950 . S
H1082 C1078 0.950 . S
C1083 C1081 1.390 . S
C1083 C1084 1.387 . S
C1083 H1086 0.950 . S
C1084 C1083 1.387 . S
C1084 C1087 1.387 . S
H1085 C1081 0.950 . S
H1086 C1083 0.950 . S
C1087 C1078 1.390 . S
C1087 H1080 0.950 . S
C1087 C1084 1.387 . S
C1088 C1089 1.387 . S
C1088 H1092 0.950 . S
C1088 C1097 1.390 . S
C1089 C1088 1.387 . S
C1089 C1091 1.387 . S
H1090 C1097 0.950 . S
C1091 C1089 1.387 . S
C1091 C1093 1.390 . S
C1091 H1095 0.950 . S
H1092 C1088 0.950 . S
C1093 C1091 1.390 . S
C1093 C1094 1.387 . S
C1093 H1096 0.950 . S
C1094 C1093 1.387 . S
C1094 C1097 1.387 . S
H1095 C1091 0.950 . S
H1096 C1093 0.950 . S
C1097 C1088 1.390 . S
C1097 H1090 0.950 . S
C1097 C1094 1.387 . S
C1098 C1099 1.387 . S
C1098 H1102 0.950 . S
C1098 C1107 1.390 . S
C1099 C1098 1.387 . S
C1099 C1101 1.387 . S
H1100 C1107 0.950 . S
C1101 C1099 1.387 . S
C1101 C1103 1.390 . S
C1101 H1105 0.950 . S
H1102 C1098 0.950 . S
C1103 C1101 1.390 . S
C1103 C1104 1.387 . S
C1103 H1106 0.950 . S
C1104 C1103 1.387 . S
C1104 C1107 1.387 . S
H1105 C1101 0.950 . S
H1106 C1103 0.950 . S
C1107 C1098 1.390 . S
C1107 H1100 0.950 . S
C1107 C1104 1.387 . S
C1108 C1109 1.387 . S
C1108 H1112 0.950 . S
C1108 C1117 1.390 . S
C1109 C1108 1.387 . S
C1109 C1111 1.387 . S
H1110 C1117 0.950 . S
C1111 C1109 1.387 . S
C1111 C1113 1.390 . S
C1111 H1115 0.950 . S
H1112 C1108 0.950 . S
C1113 C1111 1.390 . S
C1113 C1114 1.387 . S
C1113 H1116 0.950 . S
C1114 C1113 1.387 . S
C1114 C1117 1.387 . S
H1115 C1111 0.950 . S
H1116 C1113 0.950 . S
C1117 C1108 1.390 . S
C1117 H1110 0.950 . S
C1117 C1114 1.387 . S
C1118 C1119 1.387 . S
C1118 H1122 0.950 . S
C1118 C1127 1.390 . S
C1119 C1118 1.387 . S
C1119 C1121 1.387 . S
H1120 C1127 0.950 . S
C1121 C1119 1.387 . S
C1121 C1123 1.390 . S
C1121 H1125 0.950 . S
H1122 C1118 0.950 . S
C1123 C1121 1.390 . S
C1123 C1124 1.387 . S
C1123 H1126 0.950 . S
C1124 C1123 1.387 . S
C1124 C1127 1.387 . S
H1125 C1121 0.950 . S
H1126 C1123 0.950 . S
C1127 C1118 1.390 . S
C1127 H1120 0.950 . S
C1127 C1124 1.387 . S
C1128 C1129 1.387 . S
C1128 H1132 0.950 . S
C1128 C1137 1.390 . S
C1129 C1128 1.387 . S
C1129 C1131 1.387 . S
H1130 C1137 0.950 . S
C1131 C1129 1.387 . S
C1131 C1133 1.390 . S
C1131 H1135 0.950 . S
H1132 C1128 0.950 . S
C1133 C1131 1.390 . S
C1133 C1134 1.387 . S
C1133 H1136 0.950 . S
C1134 C1133 1.387 . S
C1134 C1137 1.387 . S
H1135 C1131 0.950 . S
H1136 C1133 0.950 . S
C1137 C1128 1.390 . S
C1137 H1130 0.950 . S
C1137 C1134 1.387 . S
C1138 C1139 1.387 . S
C1138 H1142 0.950 . S
C1138 C1147 1.390 . S
C1139 C1138 1.387 . S
C1139 C1141 1.387 . S
H1140 C1147 0.950 . S
C1141 C1139 1.387 . S
C1141 C1143 1.390 . S
C1141 H1145 0.950 . S
H1142 C1138 0.950 . S
C1143 C1141 1.390 . S
C1143 C1144 1.387 . S
C1143 H1146 0.950 . S
C1144 C1143 1.387 . S
C1144 C1147 1.387 . S
H1145 C1141 0.950 . S
H1146 C1143 0.950 . S
C1147 C1138 1.390 . S
C1147 H1140 0.950 . S
C1147 C1144 1.387 . S
C1148 C1149 1.387 . S
C1148 H1152 0.950 . S
C1148 C1157 1.390 . S
C1149 C1148 1.387 . S
C1149 C1151 1.387 . S
H1150 C1157 0.950 . S
C1151 C1149 1.387 . S
C1151 C1153 1.390 . S
C1151 H1155 0.950 . S
H1152 C1148 0.950 . S
C1153 C1151 1.390 . S
C1153 C1154 1.387 . S
C1153 H1156 0.950 . S
C1154 C1153 1.387 . S
C1154 C1157 1.387 . S
H1155 C1151 0.950 . S
H1156 C1153 0.950 . S
C1157 C1148 1.390 . S
C1157 H1150 0.950 . S
C1157 C1154 1.387 . S
C1158 C1159 1.387 . S
C1158 H1162 0.950 . S
C1158 C1167 1.390 . S
C1159 C1158 1.387 . S
C1159 C1161 1.387 . S
H1160 C1167 0.950 . S
C1161 C1159 1.387 . S
C1161 C1163 1.390 . S
C1161 H1165 0.950 . S
H1162 C1158 0.950 . S
C1163 C1161 1.390 . S
C1163 C1164 1.387 . S
C1163 H1166 0.950 . S
C1164 C1163 1.387 . S
C1164 C1167 1.387 . S
H1165 C1161 0.950 . S
H1166 C1163 0.950 . S
C1167 C1158 1.390 . S
C1167 H1160 0.950 . S
C1167 C1164 1.387 . S
C849 C612 1.705 . S
C854 C38 1.753 . S
C859 C91 1.751 . S
C864 C453 1.700 . S
C869 C144 1.753 . S
C874 C506 1.707 . S
C879 C559 1.700 . S
C884 C197 1.751 . S
C889 C250 1.753 . S
C894 C294 1.705 . S
C899 C303 1.751 . S
C904 C347 1.699 . S
C909 C400 1.706 . S
C914 C356 1.753 . S
C919 C241 1.699 . S
C924 C409 1.751 . S
C929 C188 1.706 . S
C934 C462 1.753 . S
C939 C515 1.751 . S
C944 C29 1.698 . S
C949 C82 1.706 . S
C954 C568 1.753 . S
C959 C621 1.751 . S
C964 C135 1.700 . S
C969 C674 1.753 . S
C974 C718 1.707 . S
C979 C727 1.750 . S
C984 C771 1.698 . S
C989 C824 1.705 . S
C994 C780 1.753 . S
C999 C665 1.700 . S
C1004 C833 1.751 . S
C1009 C251 1.521 . S
C1014 C39 1.521 . S
C1019 C92 1.511 . S
C1024 C304 1.511 . S
C1029 C145 1.518 . S
C1034 C357 1.518 . S
C1039 C410 1.511 . S
C1044 C198 1.511 . S
C1049 C463 1.521 . S
C1054 C675 1.521 . S
C1059 C728 1.514 . S
C1064 C516 1.514 . S
C1069 C569 1.521 . S
C1074 C781 1.521 . S
C1079 C834 1.514 . S
C1084 C622 1.514 . S
C1089 C764 2.098 . S
C1094 C22 2.098 1_556 S
C1099 C817 2.089 . S
C1104 C75 2.089 1_554 S
C1109 C128 2.101 1_556 S
C1114 C658 2.101 . S
C1119 C711 2.090 . S
C1124 C181 2.090 1_554 S
C1129 C552 2.101 . S
C1134 C234 2.101 . S
C1139 C605 2.087 . S
C1144 C287 2.087 . S
C1149 C340 2.098 . S
C1154 C446 2.098 . S
C1159 C499 2.087 . S
C1164 C393 2.087 . S
