# Generated by pormake.
# Topology qdl, (4)-cn, num edge types: 1
# Building blocks:
#     Node 0, Type 0, BuildingBlock: ESEHIV_clean_sbu_0, # of connection points: 4
#     Node 1, Type 0, BuildingBlock: ESEHIV_clean_sbu_0, # of connection points: 4
#     Node 2, Type 0, BuildingBlock: ESEHIV_clean_sbu_0, # of connection points: 4
#     Node 3, Type 0, BuildingBlock: ESEHIV_clean_sbu_0, # of connection points: 4
#     Node 4, Type 0, BuildingBlock: ESEHIV_clean_sbu_0, # of connection points: 4
#     Node 5, Type 0, BuildingBlock: ESEHIV_clean_sbu_0, # of connection points: 4
#     Edge 6, Type (0, 0), BuildingBlock: KIFKEQ_clean_linker_1, # of connection points: 2
#     Edge 7, Type (0, 0), BuildingBlock: KIFKEQ_clean_linker_1, # of connection points: 2
#     Edge 8, Type (0, 0), BuildingBlock: KIFKEQ_clean_linker_1, # of connection points: 2
#     Edge 9, Type (0, 0), BuildingBlock: KIFKEQ_clean_linker_1, # of connection points: 2
#     Edge 10, Type (0, 0), BuildingBlock: KIFKEQ_clean_linker_1, # of connection points: 2
#     Edge 11, Type (0, 0), BuildingBlock: KIFKEQ_clean_linker_1, # of connection points: 2
#     Edge 12, Type (0, 0), BuildingBlock: KIFKEQ_clean_linker_1, # of connection points: 2
#     Edge 13, Type (0, 0), BuildingBlock: KIFKEQ_clean_linker_1, # of connection points: 2
#     Edge 14, Type (0, 0), BuildingBlock: KIFKEQ_clean_linker_1, # of connection points: 2
#     Edge 15, Type (0, 0), BuildingBlock: KIFKEQ_clean_linker_1, # of connection points: 2
#     Edge 16, Type (0, 0), BuildingBlock: KIFKEQ_clean_linker_1, # of connection points: 2
#     Edge 17, Type (0, 0), BuildingBlock: KIFKEQ_clean_linker_1, # of connection points: 2
# Relax obj value: 0.000
# Max RMSD: 0.128
# Mean RMSD: 0.084
data_MOF--net-qdl--node1-ESEHIV_clean_sbu_0--edge1-KIFKEQ_clean_linker_1
_symmetry_space_group_name_H-M    P1
_symmetry_Int_Tables_number       1
_symmetry_cell_setting            triclinic
loop_
_symmetry_equiv_pos_as_xyz
'x, y, z'
_cell_length_a     14.95251
_cell_length_b     17.362133
_cell_length_c     93.85991
_cell_angle_alpha  99.648591
_cell_angle_beta   99.308642
_cell_angle_gamma 115.69678
loop_
_atom_site_label
_atom_site_type_symbol
_atom_site_fract_x
_atom_site_fract_y
_atom_site_fract_z
_atom_type_partial_charge
Cu0 Cu 0.18776 0.13187 0.09319 0.0
N1 N 0.10275 1.00866 0.08778 0.0
N2 N 1.05296 0.86464 0.08552 0.0
C3 C 0.13312 0.94759 0.08973 0.0
C4 C 0.96906 0.87387 0.08068 0.0
C5 C 1.00001 0.96261 0.08202 0.0
O6 O 0.27268 0.15929 0.11338 0.0
C7 C 0.20314 0.13349 0.06448 0.0
O8 O 0.10329 0.08738 0.06243 0.0
H9 H 0.21211 0.964 0.09453 0.0
H10 H 0.95081 0.99141 0.07906 0.0
N11 N 0.10888 0.19128 0.09381 0.0
N12 N 0.06032 0.29565 0.09264 0.0
C13 C 0.1317 0.26976 0.0907 0.0
C14 C 1.02065 0.16721 0.09797 0.0
C15 C 0.99008 0.23108 0.09714 0.0
C16 C 0.29047 0.22381 0.12417 0.0
O17 O 0.26849 0.28598 0.12127 0.0
H18 H 0.19957 0.30725 0.08717 0.0
H19 H 0.98224 0.10817 0.10162 0.0
O20 O 0.26101 0.16183 0.0778 0.0
H21 H 0.89096 0.82023 0.07641 0.0
H22 H 0.92306 0.23135 0.10006 0.0
Cu23 Cu 0.34308 0.23287 0.42843 0.0
N24 N 0.27655 0.15848 0.40889 0.0
N25 N 0.23077 0.11001 0.38382 0.0
C26 C 0.28772 0.1806 0.39592 0.0
C27 C 0.18076 1.04145 0.38948 0.0
C28 C 0.20896 0.07152 0.40488 0.0
O29 O 0.48993 0.30423 0.43029 0.0
C30 C 0.18193 0.25936 0.43431 0.0
O31 O 0.14598 0.17501 0.43387 0.0
H32 H 0.33899 0.24665 0.39544 0.0
H33 H 0.18226 1.03263 0.41263 0.0
N34 N 0.33462 0.16625 0.44247 0.0
N35 N 0.32297 0.12446 0.46372 0.0
C36 C 0.3202 0.18382 0.45623 0.0
C37 C 0.34816 0.09396 0.44129 0.0
C38 C 0.3409 0.06796 0.45435 0.0
C39 C 0.53373 0.27032 0.4227 0.0
O40 O 0.47837 0.19079 0.41343 0.0
H41 H 0.30969 0.23998 0.46076 0.0
H42 H 0.3631 0.06279 0.43164 0.0
O43 O 0.2709 0.30148 0.43229 0.0
H44 H 0.1267 0.97425 0.38299 0.0
H45 H 0.34737 1.01137 0.4567 0.0
Cu46 Cu 0.07331 0.16298 0.77564 0.0
N47 N 0.92954 0.09604 0.77176 0.0
N48 N 0.7743 0.98491 0.76992 0.0
C49 C 0.87684 1.01365 0.77336 0.0
C50 C 0.76195 0.05148 0.76591 0.0
C51 C 0.85776 0.12006 0.76714 0.0
O52 O 0.13881 0.1466 0.79395 0.0
C53 C 0.07008 0.14319 0.74592 0.0
O54 O 1.00495 0.17429 0.74716 0.0
H55 H 0.91316 0.97592 0.77711 0.0
H56 H 0.8741 0.18346 0.76498 0.0
N57 N 0.1155 0.28464 0.77942 0.0
N58 N 0.21279 0.42793 0.78085 0.0
C59 C 0.19007 0.34347 0.77462 0.0
C60 C 0.08994 0.3335 0.789 0.0
C61 C 0.14997 0.42198 0.78992 0.0
C62 C 0.09482 0.14164 0.8046 0.0
O63 O 1.00771 0.14488 0.80265 0.0
H64 H 0.2305 0.32498 0.76728 0.0
H65 H 1.03423 0.30686 0.79527 0.0
O66 O 0.11269 0.1303 0.75756 0.0
H67 H 0.6891 0.05157 0.76273 0.0
H68 H 0.14871 0.47765 0.79691 0.0
Cu69 Cu 0.29618 0.20287 0.61091 0.0
N70 N 0.26276 0.13235 0.62431 0.0
N71 N 0.23051 0.0961 0.64544 0.0
C72 C 0.26309 0.16193 0.63855 0.0
C73 C 0.20913 1.02207 0.63507 0.0
C74 C 0.22864 1.04456 0.62204 0.0
O75 O 0.23077 0.2779 0.61474 0.0
C76 C 0.49289 0.21935 0.61601 0.0
O77 O 0.43883 0.1361 0.61592 0.0
H78 H 0.28613 0.23064 0.64366 0.0
H79 H 0.21715 0.99986 0.61158 0.0
N80 N 0.23991 0.13365 0.591 0.0
N81 N 0.21675 0.0953 0.56617 0.0
C82 C 0.28166 0.15127 0.57946 0.0
C83 C 0.14572 0.0638 0.58483 0.0
C84 C 0.13116 1.04002 0.56952 0.0
C85 C 0.17192 0.28802 0.60461 0.0
O86 O 0.1695 0.26221 0.59051 0.0
H87 H 0.35607 0.20694 0.58075 0.0
H88 H 0.09022 1.03438 0.59099 0.0
O89 O 0.44633 0.26516 0.61428 0.0
H90 H 0.1783 0.95585 0.63659 0.0
H91 H 0.06227 0.98706 0.56147 0.0
Cu92 Cu 0.25727 0.3046 0.94296 0.0
N93 N 0.30806 0.42831 0.94753 0.0
N94 N 0.40847 0.57231 0.94969 0.0
C95 C 0.39374 0.48873 0.94492 0.0
C96 C 0.32935 0.56414 0.95561 0.0
C97 C 0.26743 0.47534 0.95421 0.0
O98 O 0.28543 0.26468 0.92418 0.0
C99 C 0.36142 0.32531 0.97292 0.0
O100 O 0.39455 0.41047 0.97443 0.0
H101 H 0.44441 0.47163 0.93967 0.0
H102 H 0.19763 0.44691 0.95781 0.0
N103 N 0.11416 0.24494 0.93972 0.0
N104 N 0.95849 0.13711 0.93868 0.0
C105 C 0.06114 0.17351 0.94453 0.0
C106 C 1.04266 0.25447 0.93058 0.0
C107 C 0.94657 0.18798 0.9299 0.0
C108 C 0.27467 0.30062 0.91367 0.0
O109 O 0.24795 0.36345 0.91599 0.0
H110 H 0.09747 0.14599 0.95154 0.0
H111 H 0.05941 0.30421 0.92442 0.0
O112 O 0.31076 0.27102 0.96002 0.0
H113 H 0.3161 0.61831 0.96036 0.0
H114 H 0.87374 0.177 0.92325 0.0
Cu115 Cu 0.08519 0.07522 0.24443 0.0
N116 N 1.00185 0.13026 0.24273 0.0
N117 N 0.95572 0.23586 0.24131 0.0
C118 C 1.02925 0.21118 0.24043 0.0
C119 C 0.87898 0.16773 0.24419 0.0
C120 C 0.90743 0.10256 0.245 0.0
O121 O 0.17924 0.11579 0.23176 0.0
C122 C 0.08873 0.06262 0.27333 0.0
O123 O 0.99121 1.01048 0.2663 0.0
H124 H 0.10327 0.25258 0.23874 0.0
H125 H 0.86322 1.04021 0.2474 0.0
N126 N 1.00675 0.95112 0.23733 0.0
N127 N 0.96334 0.80735 0.23363 0.0
C128 C 1.03541 0.89153 0.24088 0.0
C129 C 0.91284 0.90281 0.22762 0.0
C130 C 0.88624 0.81412 0.22523 0.0
C131 C 0.13581 0.08771 0.21773 0.0
O132 O 1.03567 1.03713 0.21321 0.0
H133 H 0.10826 0.90966 0.2485 0.0
H134 H 0.86725 0.93021 0.22255 0.0
O135 O 0.14998 0.10195 0.26581 0.0
H136 H 0.80773 0.16551 0.24571 0.0
H137 H 0.81521 0.75884 0.21803 0.0
H138 H 0.91021 0.72429 0.09209 0.0
H139 H 0.2017 0.82139 0.08108 0.0
H140 H 0.91384 0.58734 0.09379 0.0
H141 H 0.20407 0.68265 0.08205 0.0
H142 H 0.22596 0.45783 0.09904 0.0
H143 H 0.22579 0.59658 0.09745 0.0
H144 H 0.89449 0.45451 0.08016 0.0
H145 H 0.89549 0.31726 0.08249 0.0
C146 C 0.9745 0.71564 0.08983 0.0
C147 C 0.05555 0.78346 0.08643 0.0
C148 C 0.97655 0.63678 0.09072 0.0
C149 C 0.05896 0.62279 0.08796 0.0
C150 C 0.14005 0.691 0.08451 0.0
C151 C 0.13871 0.77058 0.08388 0.0
C152 C 0.15338 0.45656 0.09483 0.0
C153 C 0.06071 0.37685 0.09095 0.0
C154 C 0.15306 0.5361 0.09385 0.0
C155 C 0.06003 0.53767 0.08873 0.0
C156 C 0.96758 0.45703 0.08452 0.0
C157 C 0.96792 0.37796 0.08575 0.0
H158 H 0.67905 0.36193 0.44956 0.0
H159 H 0.64197 0.2668 0.40237 0.0
H160 H 0.85933 0.39268 0.45476 0.0
H161 H 0.82153 0.29892 0.40747 0.0
H162 H 0.15587 0.37551 0.41978 0.0
H163 H 1.01441 0.41291 0.41846 0.0
H164 H 0.91347 0.26977 0.4511 0.0
H165 H 1.05245 0.23118 0.45214 0.0
C166 C 0.71059 0.35105 0.44027 0.0
C167 C 0.64677 0.31159 0.42558 0.0
C168 C 0.81343 0.36817 0.44324 0.0
C169 C 0.85435 0.34785 0.43152 0.0
C170 C 0.7927 0.31611 0.41672 0.0
C171 C 0.68971 0.29731 0.4138 0.0
C172 C 0.10524 0.35463 0.42699 0.0
C173 C 0.11435 0.30007 0.43599 0.0
C174 C 1.02423 0.37567 0.4262 0.0
C175 C 0.95287 0.34418 0.43467 0.0
C176 C 0.96772 0.29588 0.44458 0.0
C177 C 1.0469 0.27329 0.4451 0.0
H178 H 0.7871 0.89761 0.79086 0.0
H179 H 0.58126 0.88677 0.75174 0.0
H180 H 0.65006 0.76112 0.79341 0.0
H181 H 0.44442 0.74975 0.75417 0.0
H182 H 0.27354 0.45284 0.75562 0.0
H183 H 0.41123 0.58767 0.75267 0.0
H184 H 0.4724 0.71766 0.79921 0.0
H185 H 0.33419 0.58331 0.80209 0.0
C186 C 0.71287 0.86551 0.78273 0.0
C187 C 0.69484 0.90277 0.7711 0.0
C188 C 0.63428 0.78788 0.78425 0.0
C189 C 0.53654 0.74488 0.77399 0.0
C190 C 0.51909 0.78121 0.76219 0.0
C191 C 0.59709 0.85979 0.76085 0.0
C192 C 0.31654 0.51027 0.76519 0.0
C193 C 0.29293 0.50765 0.77907 0.0
C194 C 0.39485 0.58747 0.76349 0.0
C195 C 0.45266 0.66308 0.77572 0.0
C196 C 0.42955 0.66022 0.78962 0.0
C197 C 0.34994 0.58365 0.79124 0.0
H198 H 0.619 0.16241 0.62911 0.0
H199 H 0.61823 0.35338 0.60506 0.0
H200 H 0.79417 0.20147 0.62808 0.0
H201 H 0.79574 0.39313 0.604 0.0
H202 H 1.02998 0.31053 0.58577 0.0
H203 H 0.87637 0.31481 0.59053 0.0
H204 H 0.97423 0.31694 0.63652 0.0
H205 H 0.12735 0.31163 0.63176 0.0
C206 C 0.65708 0.21403 0.62381 0.0
C207 C 0.6045 0.25458 0.61713 0.0
C208 C 0.75809 0.23693 0.62331 0.0
C209 C 0.80945 0.30051 0.61596 0.0
C210 C 0.75823 0.34355 0.60969 0.0
C211 C 0.65694 0.32135 0.61039 0.0
C212 C 1.02007 0.31389 0.597 0.0
C213 C 0.09075 0.3096 0.60832 0.0
C214 C 0.93197 0.31678 0.59974 0.0
C215 C 0.91206 0.31504 0.61386 0.0
C216 C 0.98631 0.31694 0.62545 0.0
C217 C 0.07461 0.31447 0.62273 0.0
H218 H 0.50271 0.5925 0.92721 0.0
H219 H 0.49778 0.73556 0.96909 0.0
H220 H 0.63716 0.73025 0.92464 0.0
H221 H 0.63248 0.87329 0.96657 0.0
H222 H 0.95541 0.07623 0.96344 0.0
H223 H 0.82263 0.93842 0.96631 0.0
H224 H 0.65017 0.87707 0.92071 0.0
H225 H 0.78254 1.01487 0.91788 0.0
C226 C 0.53095 0.65324 0.93592 0.0
C227 C 0.48962 0.65314 0.94836 0.0
C228 C 0.60728 0.73221 0.93439 0.0
C229 C 0.64536 0.81268 0.9454 0.0
C230 C 0.60515 0.81232 0.95795 0.0
C231 C 0.52757 0.73363 0.95934 0.0
C232 C 0.88916 1.03321 0.95404 0.0
C233 C 0.87937 0.05659 0.94045 0.0
C234 C 0.8129 0.95463 0.95571 0.0
C235 C 0.726 0.89679 0.94372 0.0
C236 C 0.71653 0.91994 0.93011 0.0
C237 C 0.79186 0.99923 0.92854 0.0
H238 H 1.03753 0.33213 0.22252 0.0
H239 H 0.88479 0.3286 0.25783 0.0
H240 H 1.04285 0.4733 0.22054 0.0
H241 H 0.89177 0.47022 0.25606 0.0
H242 H 1.04065 0.77362 0.25851 0.0
H243 H 1.04196 0.6349 0.26048 0.0
H244 H 0.89721 0.52103 0.21307 0.0
H245 H 0.89423 0.65915 0.21118 0.0
C246 C 1.00579 0.36192 0.2299 0.0
C247 C 0.9604 0.31939 0.24028 0.0
C248 C 1.00836 0.44224 0.22873 0.0
C249 C 0.96784 0.48258 0.23817 0.0
C250 C 0.92399 0.44075 0.24871 0.0
C251 C 0.91934 0.35955 0.24964 0.0
C252 C 1.00972 0.71904 0.24853 0.0
C253 C 0.96714 0.72691 0.2347 0.0
C254 C 1.00994 0.6397 0.24966 0.0
C255 C 0.96973 0.5674 0.23692 0.0
C256 C 0.92912 0.57591 0.22304 0.0
C257 C 0.92681 0.65454 0.22198 0.0
H258 H 0.30525 0.24415 0.21906 0.0
H259 H 0.09182 0.98302 0.19022 0.0
H260 H 0.3758 0.28601 0.19793 0.0
H261 H 0.16116 1.0238 0.16939 0.0
H262 H 0.31479 0.09255 0.13416 0.0
H263 H 0.30873 0.06526 0.15872 0.0
H264 H 0.30305 0.3112 0.17426 0.0
H265 H 0.3108 0.33941 0.14979 0.0
C266 C 0.27541 0.19518 0.20834 0.0
C267 C 0.19285 0.1105 0.20624 0.0
C268 C 0.31512 0.21919 0.19623 0.0
C269 C 0.27417 0.15826 0.18194 0.0
C270 C 0.19574 0.07214 0.18022 0.0
C271 C 0.15534 1.04887 0.19217 0.0
C272 C 0.31503 0.14207 0.14291 0.0
C273 C 0.31137 0.21743 0.13987 0.0
C274 C 0.31108 0.12617 0.15699 0.0
C275 C 0.30346 0.18522 0.1684 0.0
C276 C 0.30912 0.26441 0.16578 0.0
C277 C 0.313 0.28032 0.15168 0.0
H278 H 0.3976 0.15015 0.55856 0.0
H279 H 0.0717 1.04868 0.54033 0.0
H280 H 0.42468 0.15866 0.53373 0.0
H281 H 0.09849 0.05625 0.51551 0.0
H282 H 0.20609 0.1789 0.47742 0.0
H283 H 0.18129 0.17235 0.5024 0.0
H284 H 0.38293 0.05585 0.50861 0.0
H285 H 0.40854 0.06332 0.48371 0.0
C286 C 0.33181 0.12978 0.54926 0.0
C287 C 0.23251 0.09862 0.55144 0.0
C288 C 0.34718 0.134 0.53501 0.0
C289 C 0.26375 0.10823 0.52263 0.0
C290 C 0.1645 0.07731 0.52482 0.0
C291 C 0.149 0.07209 0.53903 0.0
C292 C 0.24574 0.15255 0.48416 0.0
C293 C 0.30931 0.12164 0.47856 0.0
C294 C 0.23078 0.14802 0.49842 0.0
C295 C 0.28002 0.11345 0.50749 0.0
C296 C 0.34445 0.08341 0.50195 0.0
C297 C 0.35842 0.08697 0.48763 0.0
H298 H 0.29858 0.23549 0.82016 0.0
H299 H 0.99918 0.05313 0.82331 0.0
H300 H 0.36775 0.26458 0.84721 0.0
H301 H 0.06789 0.0807 0.85009 0.0
H302 H 0.34412 0.39898 0.89453 0.0
H303 H 0.32301 0.34598 0.86785 0.0
H304 H 0.19449 0.07636 0.87137 0.0
H305 H 0.21743 0.13012 0.89833 0.0
C306 C 0.24865 0.19917 0.82652 0.0
C307 C 0.14353 0.14236 0.81969 0.0
C308 C 0.28794 0.21618 0.842 0.0
C309 C 0.22314 0.17521 0.8508 0.0
C310 C 0.12011 0.11269 0.84365 0.0
C311 C 0.0806 0.09717 0.8283 0.0
C312 C 0.31413 0.32856 0.8897 0.0
C313 C 0.28191 0.26861 0.89847 0.0
C314 C 0.30263 0.29821 0.87442 0.0
C315 C 0.25673 0.20693 0.86747 0.0
C316 C 0.22998 0.1471 0.87642 0.0
C317 C 0.24352 0.1778 0.89184 0.0
H318 H 0.39878 0.25234 0.06404 0.0
H319 H 0.09824 0.06189 0.03512 0.0
H320 H 0.45646 0.29306 0.04209 0.0
H321 H 0.15429 0.10331 1.01351 0.0
H322 H 0.28013 0.15275 0.97467 0.0
H323 H 0.25971 0.10066 0.99709 0.0
H324 H 0.42568 0.37168 0.02448 0.0
H325 H 0.44881 0.42349 1.00216 0.0
C326 C 0.34545 0.21859 0.05303 0.0
C327 C 0.24373 0.1543 0.05138 0.0
C328 C 0.37822 0.24218 0.04045 0.0
C329 C 0.31013 0.2015 0.02596 0.0
C330 C 0.20967 0.13517 0.02438 0.0
C331 C 0.17708 0.11198 0.03687 0.0
C332 C 0.31434 0.20115 0.98549 0.0
C333 C 0.36503 0.29241 0.98655 0.0
C334 C 0.30192 0.17133 0.99837 0.0
C335 C 0.33944 0.23197 1.01263 0.0
C336 C 0.39615 0.32289 1.01375 0.0
C337 C 0.4089 0.35269 1.00088 0.0
H338 H 0.26839 0.19161 0.29422 0.0
H339 H 0.98519 0.95506 0.2893 0.0
H340 H 0.3151 0.20697 0.32133 0.0
H341 H 1.03102 0.97048 0.31595 0.0
H342 H 0.17825 0.96671 0.36104 0.0
H343 H 0.15715 0.95868 0.33453 0.0
H344 H 0.25131 0.23877 0.34419 0.0
H345 H 0.27182 0.24697 0.37089 0.0
C346 C 0.21667 0.14273 0.29887 0.0
C347 C 0.12307 0.07222 0.28959 0.0
C348 C 0.24301 0.15179 0.31438 0.0
C349 C 0.17696 0.08965 0.32079 0.0
C350 C 0.08442 1.01882 0.3114 0.0
C351 C 0.05783 1.01039 0.29607 0.0
C352 C 0.19406 1.0267 0.35759 0.0
C353 C 0.22504 0.10718 0.36817 0.0
C354 C 0.18243 1.02213 0.34235 0.0
C355 C 0.20154 0.0979 0.3372 0.0
C356 C 0.23665 0.17931 0.34779 0.0
C357 C 0.24813 0.18389 0.36311 0.0
H358 H 0.19658 0.22086 0.66167 0.0
H359 H 0.22802 0.98629 0.66318 0.0
H360 H 0.16462 0.23001 0.68628 0.0
H361 H 0.19241 0.99401 0.6878 0.0
H362 H 0.21679 0.09741 0.73887 0.0
H363 H 0.26119 0.08493 0.71477 0.0
H364 H 1.02251 0.14403 0.696 0.0
H365 H 0.97933 0.15722 0.71973 0.0
C366 C 0.19759 0.17151 0.66727 0.0
C367 C 0.21476 0.10267 0.66033 0.0
C368 C 0.17804 0.17621 0.68136 0.0
C369 C 0.17487 0.11221 0.68898 0.0
C370 C 0.19463 1.04453 0.68227 0.0
C371 C 0.21394 1.03961 0.66808 0.0
C372 C 0.17368 0.10721 0.72955 0.0
C373 C 0.09514 0.1291 0.73131 0.0
C374 C 0.19891 0.0999 0.71575 0.0
C375 C 0.1464 0.11482 0.70351 0.0
C376 C 0.06621 0.13416 0.70525 0.0
C377 C 1.04106 0.14121 0.71891 0.0
loop_
_geom_bond_atom_site_label_1
_geom_bond_atom_site_label_2
_geom_bond_distance
_geom_bond_site_symmetry_2
_ccdc_geom_bond_type
Cu0 N1 1.999 . S
Cu0 O6 1.974 . S
Cu0 N11 1.985 . S
Cu0 O20 1.959 . S
N1 Cu0 1.999 . S
N1 C3 1.263 . S
N1 C5 1.389 . S
N2 C3 1.359 . S
N2 C4 1.401 . S
C3 N1 1.263 . S
C3 N2 1.359 . S
C3 H9 0.930 . S
C4 N2 1.401 . S
C4 C5 1.351 . S
C4 H21 0.930 1_545 S
C5 N1 1.389 . S
C5 C4 1.351 . S
C5 H10 0.930 . S
O6 Cu0 1.974 . S
O6 C16 1.282 . S
C7 O8 1.261 . S
C7 O20 1.251 . S
O8 C7 1.261 . S
H9 C3 0.930 . S
H10 C5 0.930 . S
N11 Cu0 1.985 . S
N11 C13 1.335 . S
N11 C14 1.390 . S
N12 C13 1.345 . S
N12 C15 1.336 . S
C13 N11 1.335 . S
C13 N12 1.345 . S
C13 H18 0.930 . S
C14 N11 1.390 . S
C14 C15 1.346 . S
C14 H19 0.930 . S
C15 N12 1.336 . S
C15 C14 1.346 . S
C15 H22 0.929 . S
C16 O6 1.282 . S
C16 O17 1.216 . S
O17 C16 1.216 . S
H18 C13 0.930 . S
H19 C14 0.930 . S
O20 Cu0 1.959 . S
O20 C7 1.251 . S
H21 C4 0.930 1_565 S
H22 C15 0.929 . S
Cu23 N24 1.999 . S
Cu23 O29 1.974 . S
Cu23 N34 1.985 . S
Cu23 O43 1.959 . S
N24 Cu23 1.999 . S
N24 C26 1.263 . S
N24 C28 1.389 . S
N25 C26 1.358 . S
N25 C27 1.400 . S
C26 N24 1.263 . S
C26 N25 1.358 . S
C26 H32 0.930 . S
C27 N25 1.400 . S
C27 C28 1.351 . S
C27 H44 0.930 . S
C28 N24 1.389 . S
C28 C27 1.351 . S
C28 H33 0.930 . S
O29 Cu23 1.974 . S
O29 C39 1.282 1_545 S
C30 O31 1.261 . S
C30 O43 1.251 1_665 S
O31 C30 1.261 . S
H32 C26 0.930 . S
H33 C28 0.930 . S
N34 Cu23 1.985 . S
N34 C36 1.335 . S
N34 C37 1.390 1_545 S
N35 C36 1.345 . S
N35 C38 1.336 1_545 S
C36 N34 1.335 . S
C36 N35 1.345 . S
C36 H41 0.930 . S
C37 N34 1.390 1_565 S
C37 C38 1.346 . S
C37 H42 0.930 . S
C38 N35 1.336 1_565 S
C38 C37 1.346 . S
C38 H45 0.929 . S
C39 O29 1.282 1_565 S
C39 O40 1.216 . S
O40 C39 1.216 . S
H41 C36 0.930 . S
H42 C37 0.930 . S
O43 Cu23 1.959 . S
O43 C30 1.251 1_445 S
H44 C27 0.930 . S
H45 C38 0.929 . S
Cu46 N47 1.999 1_455 S
Cu46 O52 1.974 . S
Cu46 N57 1.985 . S
Cu46 O66 1.959 . S
N47 Cu46 1.999 1_655 S
N47 C49 1.263 1_545 S
N47 C51 1.389 1_545 S
N48 C49 1.358 . S
N48 C50 1.400 . S
C49 N47 1.263 1_565 S
C49 N48 1.358 . S
C49 H55 0.930 1_565 S
C50 N48 1.400 . S
C50 C51 1.351 . S
C50 H67 0.930 . S
C51 N47 1.389 1_565 S
C51 C50 1.351 . S
C51 H56 0.930 . S
O52 Cu46 1.974 . S
O52 C62 1.282 1_455 S
C53 O54 1.261 . S
C53 O66 1.251 1_655 S
O54 C53 1.261 . S
H55 C49 0.930 1_545 S
H56 C51 0.930 . S
N57 Cu46 1.985 . S
N57 C59 1.335 . S
N57 C60 1.390 . S
N58 C59 1.345 . S
N58 C61 1.336 . S
C59 N57 1.335 . S
C59 N58 1.345 . S
C59 H64 0.930 . S
C60 N57 1.390 . S
C60 C61 1.346 . S
C60 H65 0.930 . S
C61 N58 1.336 . S
C61 C60 1.346 . S
C61 H68 0.929 . S
C62 O52 1.282 1_655 S
C62 O63 1.216 . S
O63 C62 1.216 . S
H64 C59 0.930 . S
H65 C60 0.930 . S
O66 Cu46 1.959 . S
O66 C53 1.251 1_455 S
H67 C50 0.930 . S
H68 C61 0.929 . S
Cu69 N70 1.999 . S
Cu69 O75 1.974 1_455 S
Cu69 N80 1.985 1_455 S
Cu69 O89 1.959 . S
N70 Cu69 1.999 . S
N70 C72 1.263 1_455 S
N70 C74 1.389 . S
N71 C72 1.358 1_455 S
N71 C73 1.400 . S
C72 N70 1.263 1_655 S
C72 N71 1.358 1_655 S
C72 H78 0.930 . S
C73 N71 1.400 . S
C73 C74 1.351 . S
C73 H90 0.930 . S
C74 N70 1.389 . S
C74 C73 1.351 . S
C74 H79 0.930 . S
O75 Cu69 1.974 1_655 S
O75 C85 1.282 1_545 S
C76 O77 1.261 . S
C76 O89 1.251 1_565 S
O77 C76 1.261 . S
H78 C72 0.930 . S
H79 C74 0.930 . S
N80 Cu69 1.985 1_655 S
N80 C82 1.335 1_655 S
N80 C83 1.390 1_545 S
N81 C82 1.345 . S
N81 C84 1.336 1_445 S
C82 N80 1.335 1_455 S
C82 N81 1.345 . S
C82 H87 0.930 . S
C83 N80 1.390 1_565 S
C83 C84 1.346 . S
C83 H88 0.930 . S
C84 N81 1.336 1_665 S
C84 C83 1.346 . S
C84 H91 0.929 . S
C85 O75 1.282 1_565 S
C85 O86 1.216 . S
O86 C85 1.216 . S
H87 C82 0.930 . S
H88 C83 0.930 . S
O89 Cu69 1.959 . S
O89 C76 1.251 1_545 S
H90 C73 0.930 . S
H91 C84 0.929 . S
Cu92 N93 1.999 . S
Cu92 O98 1.974 . S
Cu92 N103 1.985 1_455 S
Cu92 O112 1.959 . S
N93 Cu92 1.999 . S
N93 C95 1.263 . S
N93 C97 1.389 . S
N94 C95 1.358 . S
N94 C96 1.400 . S
C95 N93 1.263 . S
C95 N94 1.358 . S
C95 H101 0.930 . S
C96 N94 1.400 . S
C96 C97 1.351 . S
C96 H113 0.930 . S
C97 N93 1.389 . S
C97 C96 1.351 . S
C97 H102 0.930 . S
O98 Cu92 1.974 . S
O98 C108 1.282 . S
C99 O100 1.261 . S
C99 O112 1.251 . S
O100 C99 1.261 . S
H101 C95 0.930 . S
H102 C97 0.930 . S
N103 Cu92 1.985 1_655 S
N103 C105 1.335 . S
N103 C106 1.390 . S
N104 C105 1.345 1_565 S
N104 C107 1.336 . S
C105 N103 1.335 . S
C105 N104 1.345 1_545 S
C105 H110 0.930 . S
C106 N103 1.390 . S
C106 C107 1.346 1_545 S
C106 H111 0.930 . S
C107 N104 1.336 . S
C107 C106 1.346 1_565 S
C107 H114 0.929 . S
C108 O98 1.282 . S
C108 O109 1.216 1_455 S
O109 C108 1.216 1_655 S
H110 C105 0.930 . S
H111 C106 0.930 . S
O112 Cu92 1.959 . S
O112 C99 1.251 . S
H113 C96 0.930 . S
H114 C107 0.929 . S
Cu115 N116 1.999 . S
Cu115 O121 1.974 . S
Cu115 N126 1.985 . S
Cu115 O135 1.959 . S
N116 Cu115 1.999 . S
N116 C118 1.263 . S
N116 C120 1.389 . S
N117 C118 1.358 . S
N117 C119 1.400 . S
C118 N116 1.263 . S
C118 N117 1.358 . S
C118 H124 0.930 . S
C119 N117 1.400 . S
C119 C120 1.351 . S
C119 H136 0.930 . S
C120 N116 1.389 . S
C120 C119 1.351 . S
C120 H125 0.930 . S
O121 Cu115 1.974 . S
O121 C131 1.282 . S
C122 O123 1.261 . S
C122 O135 1.251 . S
O123 C122 1.261 . S
H124 C118 0.930 . S
H125 C120 0.930 . S
N126 Cu115 1.985 . S
N126 C128 1.343 . S
N126 C129 1.390 1_545 S
N127 C128 1.336 1_565 S
N127 C130 1.336 . S
C128 N126 1.343 . S
C128 N127 1.336 1_545 S
C128 H133 0.931 . S
C129 N126 1.390 1_565 S
C129 C130 1.346 . S
C129 H134 0.930 . S
C130 N127 1.336 . S
C130 C129 1.346 . S
C130 H137 0.929 . S
C131 O121 1.282 . S
C131 O132 1.216 . S
O132 C131 1.216 . S
H133 C128 0.931 . S
H134 C129 0.930 . S
O135 Cu115 1.959 . S
O135 C122 1.251 . S
H136 C119 0.930 . S
H137 C130 0.929 . S
H138 C146 0.950 . S
H139 C151 0.950 . S
H140 C148 0.950 . S
H141 C150 0.950 . S
H142 C152 0.950 . S
H143 C154 0.950 . S
H144 C156 0.950 . S
H145 C157 0.950 . S
C146 H138 0.950 . S
C146 C147 1.386 . S
C146 C148 1.391 . S
C147 C146 1.386 . S
C147 C151 1.393 . S
C148 H140 0.950 . S
C148 C146 1.391 . S
C148 C149 1.400 . S
C149 C148 1.400 . S
C149 C150 1.398 . S
C149 C155 1.491 . S
C150 H141 0.950 . S
C150 C149 1.398 . S
C150 C151 1.391 . S
C151 H139 0.950 . S
C151 C147 1.393 . S
C151 C150 1.391 . S
C152 H142 0.950 . S
C152 C153 1.386 . S
C152 C154 1.391 . S
C153 C152 1.386 . S
C153 C157 1.393 . S
C154 H143 0.950 . S
C154 C152 1.391 . S
C154 C155 1.400 . S
C155 C149 1.491 . S
C155 C154 1.400 . S
C155 C156 1.398 . S
C156 H144 0.950 . S
C156 C155 1.398 . S
C156 C157 1.391 . S
C157 H145 0.950 . S
C157 C153 1.393 . S
C157 C156 1.391 . S
H158 C166 0.950 . S
H159 C171 0.950 . S
H160 C168 0.950 . S
H161 C170 0.950 . S
H162 C172 0.950 . S
H163 C174 0.950 . S
H164 C176 0.950 . S
H165 C177 0.947 . S
C166 H158 0.950 . S
C166 C167 1.386 . S
C166 C168 1.391 . S
C167 C166 1.386 . S
C167 C171 1.393 . S
C168 H160 0.950 . S
C168 C166 1.391 . S
C168 C169 1.400 . S
C169 C168 1.400 . S
C169 C170 1.398 . S
C169 C175 1.491 . S
C170 H161 0.950 . S
C170 C169 1.398 . S
C170 C171 1.391 . S
C171 H159 0.950 . S
C171 C167 1.393 . S
C171 C170 1.391 . S
C172 H162 0.950 . S
C172 C173 1.380 . S
C172 C174 1.391 . S
C173 C172 1.380 . S
C173 C177 1.393 1_565 S
C174 H163 0.950 . S
C174 C172 1.391 . S
C174 C175 1.400 . S
C175 C169 1.491 . S
C175 C174 1.400 . S
C175 C176 1.398 1_565 S
C176 H164 0.950 . S
C176 C175 1.398 1_545 S
C176 C177 1.394 . S
C177 H165 0.947 . S
C177 C173 1.393 1_545 S
C177 C176 1.394 . S
H178 C186 0.950 . S
H179 C191 0.950 . S
H180 C188 0.950 . S
H181 C190 0.950 . S
H182 C192 0.950 . S
H183 C194 0.950 . S
H184 C196 0.950 . S
H185 C197 0.950 . S
C186 H178 0.950 . S
C186 C187 1.386 . S
C186 C188 1.391 . S
C187 C186 1.386 . S
C187 C191 1.393 . S
C188 H180 0.950 . S
C188 C186 1.391 . S
C188 C189 1.400 . S
C189 C188 1.400 . S
C189 C190 1.398 . S
C189 C195 1.491 . S
C190 H181 0.950 . S
C190 C189 1.398 . S
C190 C191 1.391 . S
C191 H179 0.950 . S
C191 C187 1.393 . S
C191 C190 1.391 . S
C192 H182 0.950 . S
C192 C193 1.386 . S
C192 C194 1.391 . S
C193 C192 1.386 . S
C193 C197 1.393 . S
C194 H183 0.950 . S
C194 C192 1.391 . S
C194 C195 1.400 . S
C195 C189 1.491 . S
C195 C194 1.400 . S
C195 C196 1.398 . S
C196 H184 0.950 . S
C196 C195 1.398 . S
C196 C197 1.391 . S
C197 H185 0.950 . S
C197 C193 1.393 . S
C197 C196 1.391 . S
H198 C206 0.950 . S
H199 C211 0.950 . S
H200 C208 0.950 . S
H201 C210 0.950 . S
H202 C212 0.950 . S
H203 C214 0.950 . S
H204 C216 0.950 . S
H205 C217 0.950 . S
C206 H198 0.950 . S
C206 C207 1.386 . S
C206 C208 1.391 . S
C207 C206 1.386 . S
C207 C211 1.393 1_565 S
C208 H200 0.950 . S
C208 C206 1.391 . S
C208 C209 1.400 . S
C209 C208 1.400 . S
C209 C210 1.398 1_565 S
C209 C215 1.491 . S
C210 H201 0.950 . S
C210 C209 1.398 1_545 S
C210 C211 1.391 . S
C211 H199 0.950 . S
C211 C207 1.393 1_545 S
C211 C210 1.391 . S
C212 H202 0.950 . S
C212 C213 1.386 1_545 S
C212 C214 1.391 . S
C213 C212 1.386 1_565 S
C213 C217 1.393 . S
C214 H203 0.950 . S
C214 C212 1.391 . S
C214 C215 1.400 1_545 S
C215 C209 1.491 . S
C215 C214 1.400 1_565 S
C215 C216 1.398 . S
C216 H204 0.950 . S
C216 C215 1.398 . S
C216 C217 1.391 . S
C217 H205 0.950 . S
C217 C213 1.393 . S
C217 C216 1.391 . S
H218 C226 0.950 . S
H219 C231 0.950 . S
H220 C228 0.950 . S
H221 C230 0.950 . S
H222 C232 0.950 . S
H223 C234 0.950 . S
H224 C236 0.950 . S
H225 C237 0.950 . S
C226 H218 0.950 . S
C226 C227 1.386 . S
C226 C228 1.391 . S
C227 C226 1.386 . S
C227 C231 1.393 . S
C228 H220 0.950 . S
C228 C226 1.391 . S
C228 C229 1.400 . S
C229 C228 1.400 . S
C229 C230 1.398 . S
C229 C235 1.491 . S
C230 H221 0.950 . S
C230 C229 1.398 . S
C230 C231 1.391 . S
C231 H219 0.950 . S
C231 C227 1.393 . S
C231 C230 1.391 . S
C232 H222 0.950 . S
C232 C233 1.386 . S
C232 C234 1.391 . S
C233 C232 1.386 . S
C233 C237 1.393 . S
C234 H223 0.950 . S
C234 C232 1.391 . S
C234 C235 1.400 . S
C235 C229 1.491 . S
C235 C234 1.400 . S
C235 C236 1.398 . S
C236 H224 0.950 . S
C236 C235 1.398 . S
C236 C237 1.391 . S
C237 H225 0.950 . S
C237 C233 1.393 . S
C237 C236 1.391 . S
H238 C246 0.950 . S
H239 C251 0.950 . S
H240 C248 0.950 . S
H241 C250 0.950 . S
H242 C252 0.950 . S
H243 C254 0.950 . S
H244 C256 0.950 . S
H245 C257 0.950 . S
C246 H238 0.950 . S
C246 C247 1.386 . S
C246 C248 1.391 . S
C247 C246 1.386 . S
C247 C251 1.393 . S
C248 H240 0.950 . S
C248 C246 1.391 . S
C248 C249 1.400 . S
C249 C248 1.400 . S
C249 C250 1.398 . S
C249 C255 1.491 . S
C250 H241 0.950 . S
C250 C249 1.398 . S
C250 C251 1.391 . S
C251 H239 0.950 . S
C251 C247 1.393 . S
C251 C250 1.391 . S
C252 H242 0.950 . S
C252 C253 1.386 . S
C252 C254 1.391 . S
C253 C252 1.386 . S
C253 C257 1.393 . S
C254 H243 0.950 . S
C254 C252 1.391 . S
C254 C255 1.400 . S
C255 C249 1.491 . S
C255 C254 1.400 . S
C255 C256 1.398 . S
C256 H244 0.950 . S
C256 C255 1.398 . S
C256 C257 1.391 . S
C257 H245 0.950 . S
C257 C253 1.393 . S
C257 C256 1.391 . S
H258 C266 0.950 . S
H259 C271 0.950 . S
H260 C268 0.950 . S
H261 C270 0.950 . S
H262 C272 0.950 . S
H263 C274 0.950 . S
H264 C276 0.950 . S
H265 C277 0.950 . S
C266 H258 0.950 . S
C266 C267 1.386 . S
C266 C268 1.391 . S
C267 C266 1.386 . S
C267 C271 1.393 . S
C268 H260 0.950 . S
C268 C266 1.391 . S
C268 C269 1.400 . S
C269 C268 1.400 . S
C269 C270 1.398 . S
C269 C275 1.491 . S
C270 H261 0.950 . S
C270 C269 1.398 . S
C270 C271 1.391 . S
C271 H259 0.950 . S
C271 C267 1.393 . S
C271 C270 1.391 . S
C272 H262 0.950 . S
C272 C273 1.386 . S
C272 C274 1.391 . S
C273 C272 1.386 . S
C273 C277 1.393 . S
C274 H263 0.950 . S
C274 C272 1.391 . S
C274 C275 1.400 . S
C275 C269 1.491 . S
C275 C274 1.400 . S
C275 C276 1.398 . S
C276 H264 0.950 . S
C276 C275 1.398 . S
C276 C277 1.391 . S
C277 H265 0.950 . S
C277 C273 1.393 . S
C277 C276 1.391 . S
H278 C286 0.950 . S
H279 C291 0.950 . S
H280 C288 0.950 . S
H281 C290 0.950 . S
H282 C292 0.950 1_655 S
H283 C294 0.950 1_655 S
H284 C296 0.950 . S
H285 C297 0.950 . S
C286 H278 0.950 . S
C286 C287 1.386 . S
C286 C288 1.391 . S
C287 C286 1.386 . S
C287 C291 1.393 1_455 S
C288 H280 0.950 . S
C288 C286 1.391 . S
C288 C289 1.400 . S
C289 C288 1.400 . S
C289 C290 1.398 1_455 S
C289 C295 1.491 . S
C290 H281 0.950 . S
C290 C289 1.398 1_655 S
C290 C291 1.391 . S
C291 H279 0.950 . S
C291 C287 1.393 1_655 S
C291 C290 1.391 . S
C292 H282 0.950 1_455 S
C292 C293 1.386 . S
C292 C294 1.391 . S
C293 C292 1.386 . S
C293 C297 1.393 . S
C294 H283 0.950 1_455 S
C294 C292 1.391 . S
C294 C295 1.400 . S
C295 C289 1.491 . S
C295 C294 1.400 . S
C295 C296 1.398 . S
C296 H284 0.950 . S
C296 C295 1.398 . S
C296 C297 1.391 . S
C297 H285 0.950 . S
C297 C293 1.393 . S
C297 C296 1.391 . S
H298 C306 0.950 . S
H299 C311 0.950 . S
H300 C308 0.950 . S
H301 C310 0.950 . S
H302 C312 0.950 . S
H303 C314 0.950 . S
H304 C316 0.950 . S
H305 C317 0.950 . S
C306 H298 0.950 . S
C306 C307 1.386 1_455 S
C306 C308 1.391 . S
C307 C306 1.386 1_655 S
C307 C311 1.393 . S
C308 H300 0.950 . S
C308 C306 1.391 . S
C308 C309 1.400 . S
C309 C308 1.400 . S
C309 C310 1.398 1_455 S
C309 C315 1.491 . S
C310 H301 0.950 . S
C310 C309 1.398 1_655 S
C310 C311 1.391 . S
C311 H299 0.950 . S
C311 C307 1.393 . S
C311 C310 1.391 . S
C312 H302 0.950 . S
C312 C313 1.386 1_655 S
C312 C314 1.391 . S
C313 C312 1.386 1_455 S
C313 C317 1.393 . S
C314 H303 0.950 . S
C314 C312 1.391 . S
C314 C315 1.400 1_655 S
C315 C309 1.491 . S
C315 C314 1.400 1_455 S
C315 C316 1.398 . S
C316 H304 0.950 . S
C316 C315 1.398 . S
C316 C317 1.391 . S
C317 H305 0.950 . S
C317 C313 1.393 . S
C317 C316 1.391 . S
H318 C326 0.950 . S
H319 C331 0.950 . S
H320 C328 0.950 . S
H321 C330 0.950 . S
H322 C332 0.950 . S
H323 C334 0.950 . S
H324 C336 0.970 . S
H325 C337 0.950 . S
C326 H318 0.950 . S
C326 C327 1.386 . S
C326 C328 1.391 . S
C327 C326 1.386 . S
C327 C331 1.393 . S
C328 H320 0.950 . S
C328 C326 1.391 . S
C328 C329 1.400 . S
C329 C328 1.400 . S
C329 C330 1.398 . S
C329 C335 1.491 1_554 S
C330 H321 0.950 . S
C330 C329 1.398 . S
C330 C331 1.391 . S
C331 H319 0.950 . S
C331 C327 1.393 . S
C331 C330 1.391 . S
C332 H322 0.950 . S
C332 C333 1.386 . S
C332 C334 1.391 . S
C333 C332 1.386 . S
C333 C337 1.393 . S
C334 H323 0.950 . S
C334 C332 1.391 . S
C334 C335 1.400 . S
C335 C329 1.491 1_556 S
C335 C334 1.400 . S
C335 C336 1.398 . S
C336 H324 0.970 . S
C336 C335 1.398 . S
C336 C337 1.391 . S
C337 H325 0.950 . S
C337 C333 1.393 . S
C337 C336 1.391 . S
H338 C346 0.950 . S
H339 C351 0.950 . S
H340 C348 0.950 . S
H341 C350 0.950 1_565 S
H342 C352 0.950 1_565 S
H343 C354 0.950 1_565 S
H344 C356 0.950 . S
H345 C357 0.950 . S
C346 H338 0.950 . S
C346 C347 1.386 . S
C346 C348 1.391 . S
C347 C346 1.386 . S
C347 C351 1.393 . S
C348 H340 0.950 . S
C348 C346 1.391 . S
C348 C349 1.400 . S
C349 C348 1.400 . S
C349 C350 1.398 . S
C349 C355 1.491 . S
C350 H341 0.950 1_545 S
C350 C349 1.398 . S
C350 C351 1.391 . S
C351 H339 0.950 . S
C351 C347 1.393 . S
C351 C350 1.391 . S
C352 H342 0.950 1_545 S
C352 C353 1.386 . S
C352 C354 1.391 . S
C353 C352 1.386 . S
C353 C357 1.393 . S
C354 H343 0.950 1_545 S
C354 C352 1.391 . S
C354 C355 1.400 . S
C355 C349 1.491 . S
C355 C354 1.400 . S
C355 C356 1.398 . S
C356 H344 0.950 . S
C356 C355 1.398 . S
C356 C357 1.391 . S
C357 H345 0.950 . S
C357 C353 1.393 . S
C357 C356 1.391 . S
H358 C366 0.950 . S
H359 C371 0.950 . S
H360 C368 0.950 . S
H361 C370 0.950 . S
H362 C372 0.950 . S
H363 C374 0.950 . S
H364 C376 0.950 . S
H365 C377 0.950 . S
C366 H358 0.950 . S
C366 C367 1.386 1_655 S
C366 C368 1.391 . S
C367 C366 1.386 1_455 S
C367 C371 1.393 . S
C368 H360 0.950 . S
C368 C366 1.391 . S
C368 C369 1.400 . S
C369 C368 1.400 . S
C369 C370 1.398 1_655 S
C369 C375 1.491 . S
C370 H361 0.950 . S
C370 C369 1.398 1_455 S
C370 C371 1.391 . S
C371 H359 0.950 . S
C371 C367 1.393 . S
C371 C370 1.391 . S
C372 H362 0.950 . S
C372 C373 1.386 1_455 S
C372 C374 1.391 . S
C373 C372 1.386 1_655 S
C373 C377 1.393 . S
C374 H363 0.950 . S
C374 C372 1.391 . S
C374 C375 1.400 1_455 S
C375 C369 1.491 . S
C375 C374 1.400 1_655 S
C375 C376 1.398 . S
C376 H364 0.950 . S
C376 C375 1.398 . S
C376 C377 1.391 . S
C377 H365 0.950 . S
C377 C373 1.393 . S
C377 C376 1.391 . S
C147 N2 1.446 1_565 S
C153 N12 1.450 . S
C167 C39 1.477 . S
C173 C30 1.494 . S
C187 N48 1.464 . S
C193 N58 1.461 . S
C207 C76 1.489 . S
C213 C85 1.486 . S
C227 N94 1.468 . S
C233 N104 1.468 . S
C247 N117 1.468 . S
C253 N127 1.468 . S
C267 C131 1.471 . S
C273 C16 1.462 . S
C287 N81 1.459 . S
C293 N35 1.463 . S
C307 C62 1.526 . S
C313 C108 1.527 . S
C327 C7 1.521 . S
C333 C99 1.519 . S
C347 C122 1.484 . S
C353 N25 1.455 . S
C367 N71 1.481 . S
C373 C53 1.517 . S
