# Generated by pormake.
# Topology unv, (4)-cn, num edge types: 1
# Building blocks:
#     Node 0, Type 0, BuildingBlock: ICAMEG_clean_sbu_1, # of connection points: 4
#     Node 1, Type 0, BuildingBlock: ICAMEG_clean_sbu_1, # of connection points: 4
#     Node 2, Type 0, BuildingBlock: ICAMEG_clean_sbu_1, # of connection points: 4
#     Node 3, Type 0, BuildingBlock: ICAMEG_clean_sbu_1, # of connection points: 4
#     Node 4, Type 0, BuildingBlock: ICAMEG_clean_sbu_1, # of connection points: 4
#     Node 5, Type 0, BuildingBlock: ICAMEG_clean_sbu_1, # of connection points: 4
#     Node 6, Type 0, BuildingBlock: ICAMEG_clean_sbu_1, # of connection points: 4
#     Node 7, Type 0, BuildingBlock: ICAMEG_clean_sbu_1, # of connection points: 4
#     Node 8, Type 0, BuildingBlock: ICAMEG_clean_sbu_1, # of connection points: 4
#     Node 9, Type 0, BuildingBlock: ICAMEG_clean_sbu_1, # of connection points: 4
#     Node 10, Type 0, BuildingBlock: ICAMEG_clean_sbu_1, # of connection points: 4
#     Node 11, Type 0, BuildingBlock: ICAMEG_clean_sbu_1, # of connection points: 4
#     Node 12, Type 0, BuildingBlock: ICAMEG_clean_sbu_1, # of connection points: 4
#     Node 13, Type 0, BuildingBlock: ICAMEG_clean_sbu_1, # of connection points: 4
#     Node 14, Type 0, BuildingBlock: ICAMEG_clean_sbu_1, # of connection points: 4
#     Node 15, Type 0, BuildingBlock: ICAMEG_clean_sbu_1, # of connection points: 4
#     Node 16, Type 0, BuildingBlock: ICAMEG_clean_sbu_1, # of connection points: 4
#     Node 17, Type 0, BuildingBlock: ICAMEG_clean_sbu_1, # of connection points: 4
#     Node 18, Type 0, BuildingBlock: ICAMEG_clean_sbu_1, # of connection points: 4
#     Node 19, Type 0, BuildingBlock: ICAMEG_clean_sbu_1, # of connection points: 4
#     Node 20, Type 0, BuildingBlock: ICAMEG_clean_sbu_1, # of connection points: 4
#     Node 21, Type 0, BuildingBlock: ICAMEG_clean_sbu_1, # of connection points: 4
#     Node 22, Type 0, BuildingBlock: ICAMEG_clean_sbu_1, # of connection points: 4
#     Node 23, Type 0, BuildingBlock: ICAMEG_clean_sbu_1, # of connection points: 4
#     Edge 24, Type (0, 0), None
#     Edge 25, Type (0, 0), None
#     Edge 26, Type (0, 0), None
#     Edge 27, Type (0, 0), None
#     Edge 28, Type (0, 0), None
#     Edge 29, Type (0, 0), None
#     Edge 30, Type (0, 0), None
#     Edge 31, Type (0, 0), None
#     Edge 32, Type (0, 0), None
#     Edge 33, Type (0, 0), None
#     Edge 34, Type (0, 0), None
#     Edge 35, Type (0, 0), None
#     Edge 36, Type (0, 0), None
#     Edge 37, Type (0, 0), None
#     Edge 38, Type (0, 0), None
#     Edge 39, Type (0, 0), None
#     Edge 40, Type (0, 0), None
#     Edge 41, Type (0, 0), None
#     Edge 42, Type (0, 0), None
#     Edge 43, Type (0, 0), None
#     Edge 44, Type (0, 0), None
#     Edge 45, Type (0, 0), None
#     Edge 46, Type (0, 0), None
#     Edge 47, Type (0, 0), None
#     Edge 48, Type (0, 0), None
#     Edge 49, Type (0, 0), None
#     Edge 50, Type (0, 0), None
#     Edge 51, Type (0, 0), None
#     Edge 52, Type (0, 0), None
#     Edge 53, Type (0, 0), None
#     Edge 54, Type (0, 0), None
#     Edge 55, Type (0, 0), None
#     Edge 56, Type (0, 0), None
#     Edge 57, Type (0, 0), None
#     Edge 58, Type (0, 0), None
#     Edge 59, Type (0, 0), None
#     Edge 60, Type (0, 0), None
#     Edge 61, Type (0, 0), None
#     Edge 62, Type (0, 0), None
#     Edge 63, Type (0, 0), None
#     Edge 64, Type (0, 0), None
#     Edge 65, Type (0, 0), None
#     Edge 66, Type (0, 0), None
#     Edge 67, Type (0, 0), None
#     Edge 68, Type (0, 0), None
#     Edge 69, Type (0, 0), None
#     Edge 70, Type (0, 0), None
#     Edge 71, Type (0, 0), None
# Relax obj value: 0.158
# Max RMSD: 0.153
# Mean RMSD: 0.137
data_MOF--net-unv--node1-ICAMEG_clean_sbu_1--edge1-none
_symmetry_space_group_name_H-M    P1
_symmetry_Int_Tables_number       1
_symmetry_cell_setting            triclinic
loop_
_symmetry_equiv_pos_as_xyz
'x, y, z'
_cell_length_a     26.417142
_cell_length_b     26.41758
_cell_length_c     26.41727
_cell_angle_alpha  89.927564
_cell_angle_beta   89.92853
_cell_angle_gamma 89.927706
loop_
_atom_site_label
_atom_site_type_symbol
_atom_site_fract_x
_atom_site_fract_y
_atom_site_fract_z
_atom_type_partial_charge
Co0 Co -0.00132 0.05091 0.33708 0.0
Co1 Co 0.91212 0.11648 0.41036 0.0
O2 O 0.94915 0.10269 0.34903 0.0
C3 C 0.93563 -0.00328 0.25445 0.0
O4 O 0.91695 0.96388 0.28676 0.0
C5 C 0.97661 0.20978 0.4068 0.0
O6 O 0.01696 0.18094 0.40776 0.0
O7 O 0.97278 0.09884 0.45547 0.0
O8 O 0.0319 0.06475 0.40364 0.0
H9 H 0.80103 0.07302 0.55947 0.0
H10 H -0.01558 0.11102 0.24077 0.0
O11 O 0.96442 0.03277 0.26974 0.0
H12 H 0.13647 0.18456 0.31787 0.0
H13 H 0.18138 5e-05 0.32108 0.0
H14 H 0.00781 0.94741 0.28394 0.0
H15 H 0.0902 0.11845 0.36197 0.0
H16 H 0.11025 0.04036 0.36379 0.0
O17 O 0.93263 0.19016 0.40651 0.0
H18 H 0.87298 0.05858 0.50161 0.0
H19 H 0.85493 0.20783 0.44361 0.0
H20 H 0.07741 0.90653 0.24044 0.0
H21 H 0.02842 0.17882 0.19754 0.0
H22 H 0.16523 0.9343 0.25574 0.0
H23 H 0.10646 0.215 0.23409 0.0
O24 O 0.95619 -0.00072 0.37644 0.0
H25 H 0.8246 0.19855 0.26244 0.0
H26 H 0.80494 0.08052 0.40591 0.0
H27 H 0.73288 0.09651 0.34913 0.0
H28 H 0.74211 0.15582 0.27692 0.0
H29 H 0.89597 0.18166 0.31997 0.0
H30 H 0.78904 0.22516 0.50573 0.0
H31 H 0.76009 0.15715 0.56311 0.0
O32 O 0.89313 0.04363 0.41532 0.0
C33 C 0.01655 0.07804 0.44748 0.0
C34 C 0.81451 0.10312 0.53543 0.0
C35 C 0.80752 0.18857 0.50527 0.0
N36 N 0.86982 0.13231 0.46915 0.0
C37 C 0.85491 0.09512 0.50196 0.0
C38 C 0.8464 0.1787 0.47088 0.0
C39 C 0.79108 0.15027 0.53728 0.0
C40 C 0.01919 0.12403 0.25734 0.0
N41 N 0.03735 0.10462 0.30206 0.0
C42 C 0.04357 0.16384 0.23254 0.0
C43 C 0.08696 0.18463 0.25343 0.0
C44 C 0.10397 0.16718 0.30005 0.0
C45 C 0.07793 0.12806 0.32442 0.0
C46 C 0.14301 -0.01035 0.31124 0.0
C47 C 0.04472 0.9623 0.28969 0.0
C48 C 0.1019 0.01305 0.33507 0.0
N49 N 0.05295 0.0019 0.32184 0.0
C50 C 0.08475 0.93785 0.2653 0.0
C51 C 0.13414 0.95275 0.27492 0.0
C52 C 0.91689 0.00251 0.40614 0.0
C53 C 0.81986 0.17289 0.29406 0.0
C54 C 0.80949 0.10654 0.37465 0.0
C55 C 0.7685 0.11526 0.34246 0.0
C56 C 0.7737 0.14875 0.30203 0.0
N57 N 0.85457 0.13061 0.36682 0.0
C58 C 0.8601 0.16331 0.32698 0.0
Co59 Co 0.97313 0.43183 0.35233 0.0
Co60 Co 0.04807 0.35607 0.42625 0.0
O61 O 0.01385 0.37327 0.36443 0.0
C62 C 0.01859 0.47916 0.26144 0.0
O63 O 0.01921 0.52154 0.28709 0.0
C64 C 0.98227 0.26524 0.40934 0.0
O65 O 0.94246 0.2949 0.40672 0.0
O66 O -0.01553 0.37204 0.46864 0.0
O67 O 0.94085 0.42624 0.419 0.0
H68 H 0.15621 0.38755 0.57902 0.0
H69 H 0.97436 0.34798 0.27691 0.0
O70 O 0.00481 0.43823 0.28308 0.0
H71 H 0.79754 0.35819 0.33627 0.0
H72 H 0.84182 0.52575 0.25384 0.0
H73 H 0.94291 0.52282 0.41075 0.0
H74 H 0.862 0.41622 0.36991 0.0
H75 H 0.90867 0.46069 0.26839 0.0
O76 O 0.02614 0.28372 0.41652 0.0
H77 H 0.08627 0.40736 0.52161 0.0
H78 H 0.10123 0.26127 0.45534 0.0
H79 H 0.87816 0.58705 0.39847 0.0
H80 H 0.91087 0.28878 0.24301 0.0
H81 H 0.82622 0.58978 0.32043 0.0
H82 H 0.82165 0.29428 0.27183 0.0
O83 O 0.02619 0.4782 0.38414 0.0
H84 H 0.14298 0.28475 0.277 0.0
H85 H 0.15448 0.39336 0.42792 0.0
H86 H 0.22659 0.38711 0.37055 0.0
H87 H 0.22239 0.3312 0.29503 0.0
H88 H 0.06946 0.29461 0.33379 0.0
H89 H 0.1666 0.23908 0.51612 0.0
H90 H 0.19543 0.30236 0.57854 0.0
O91 O 0.06936 0.42789 0.43761 0.0
C92 C 0.94655 0.40234 0.46007 0.0
C93 C 0.14283 0.35928 0.55319 0.0
C94 C 0.14875 0.27594 0.51786 0.0
N95 N 0.08746 0.33539 0.48527 0.0
C96 C 0.10323 0.37033 0.51993 0.0
C97 C 0.11002 0.28853 0.4843 0.0
C98 C 0.16524 0.31164 0.55254 0.0
C99 C 0.93561 0.35068 0.2898 0.0
N100 N 0.92205 0.38608 0.325 0.0
C101 C 0.89984 0.31699 0.27042 0.0
C102 C 0.84982 0.31984 0.2869 0.0
C103 C 0.83627 0.35568 0.32306 0.0
C104 C 0.87312 0.38834 0.34212 0.0
C105 C 0.86453 0.52592 0.28789 0.0
C106 C 0.92161 0.52378 0.37583 0.0
C107 C 0.9025 0.48995 0.29558 0.0
N108 N 0.92993 0.48895 0.33911 0.0
C109 C 0.88418 0.55998 0.36941 0.0
C110 C 0.85536 0.56136 0.32539 0.0
C111 C 0.0587 0.47142 0.42007 0.0
C112 C 0.14573 0.30831 0.31028 0.0
C113 C 0.15146 0.36934 0.39504 0.0
C114 C 0.19297 0.36555 0.36274 0.0
C115 C 0.19027 0.33455 0.32028 0.0
N116 N 0.10759 0.34408 0.38472 0.0
C117 C 0.10439 0.31376 0.3429 0.0
Co118 Co -0.01693 0.92197 0.11564 0.0
Co119 Co 0.90488 0.8433 0.04358 0.0
O120 O 0.94076 0.86276 0.10706 0.0
C121 C 0.9372 -0.01578 0.19964 0.0
O122 O 0.93465 0.02173 0.16741 0.0
C123 C 0.97134 0.75227 0.05929 0.0
O124 O 0.01106 0.78194 0.06127 0.0
O125 O 0.96653 0.85717 -0.0028 0.0
O126 O 0.02102 0.8966 0.04897 0.0
H127 H 0.7967 0.86955 0.88872 0.0
H128 H 0.97919 0.83355 0.18419 0.0
O129 O 0.95247 0.94035 0.18473 0.0
H130 H 0.16048 0.85854 0.14795 0.0
H131 H 0.12884 0.10551 0.17915 0.0
H132 H -0.01339 0.96704 0.03364 0.0
H133 H 0.09747 0.91919 0.11721 0.0
H134 H 0.08622 0.04891 0.1675 0.0
O135 O 0.9272 0.77091 0.05438 0.0
H136 H 0.86812 0.89034 0.94479 0.0
H137 H 0.85008 0.74804 0.01857 0.0
H138 H 0.05993 0.09812 0.97695 0.0
H139 H 0.04062 0.76912 0.21131 0.0
H140 H 0.10258 0.14076 0.01914 0.0
H141 H 0.13231 0.78204 0.19475 0.0
O142 O 0.92278 0.9654 0.08255 0.0
H143 H 0.81669 0.76906 0.19493 0.0
H144 H 0.79674 0.87765 0.04422 0.0
H145 H 0.72475 0.86471 0.10175 0.0
H146 H 0.73381 0.81009 0.17746 0.0
H147 H 0.88858 0.78432 0.13788 0.0
H148 H 0.78589 0.72349 0.95724 0.0
H149 H 0.75701 0.78521 0.89272 0.0
O150 O 0.88216 0.91526 0.02843 0.0
C151 C 0.01003 0.87828 0.00511 0.0
C152 C 0.81031 0.84217 0.91571 0.0
C153 C 0.80386 0.76019 0.95426 0.0
N154 N 0.86459 0.82068 -0.0144 0.0
C155 C 0.85025 0.85387 0.94846 0.0
C156 C 0.84181 0.77406 -0.01177 0.0
C157 C 0.7875 0.79485 0.91827 0.0
C158 C 0.0188 0.83928 0.17581 0.0
N159 N 0.03426 0.88078 0.14902 0.0
C160 C 0.05355 0.80267 0.19165 0.0
C161 C 0.1049 0.80976 0.18209 0.0
C162 C 0.12071 0.85271 0.15596 0.0
C163 C 0.08465 0.88759 0.1391 0.0
C164 C 0.10446 0.08243 0.15243 0.0
C165 C 0.01064 -0.0107 0.05733 0.0
C166 C 0.06314 0.01762 0.16229 0.0
N167 N 0.02632 -0.0163 0.11899 0.0
C168 C 0.06375 0.08502 0.01717 0.0
C169 C 0.08558 0.10678 0.0392 0.0
C170 C 0.8923 0.95951 0.04459 0.0
C171 C 0.81197 0.79304 0.16205 0.0
C172 C 0.80151 0.85409 0.07733 0.0
C173 C 0.76043 0.84687 0.10978 0.0
C174 C 0.7656 0.81606 0.15226 0.0
N175 N 0.84692 0.83154 0.08726 0.0
C176 C 0.85249 0.80152 0.12918 0.0
Co177 Co 0.97283 0.52804 0.11485 0.0
Co178 Co 0.0457 0.60688 0.0414 0.0
O179 O 0.01193 0.58809 0.1032 0.0
C180 C 0.0183 0.48122 0.20579 0.0
O181 O 0.0199 0.4388 0.18003 0.0
C182 C 0.97798 0.69681 0.05791 0.0
O183 O 0.93848 0.66675 0.05904 0.0
O184 O 0.98229 0.58991 -0.0007 0.0
O185 O 0.94135 0.53296 0.04822 0.0
H186 H 0.15851 0.57717 0.89116 0.0
H187 H 0.97137 0.61464 0.1866 0.0
O188 O 0.00366 0.52206 0.18436 0.0
H189 H 0.79577 0.59949 0.12533 0.0
H190 H 0.84863 0.42378 0.21401 0.0
H191 H 0.95222 0.43252 0.05885 0.0
H192 H 0.86102 0.53891 0.09766 0.0
H193 H 0.90234 0.4986 0.19521 0.0
O194 O 0.0222 0.6788 0.05163 0.0
H195 H 0.08561 0.55675 0.94573 0.0
H196 H 0.09557 0.70346 0.0115 0.0
H197 H 0.90087 0.35784 0.07649 0.0
H198 H 0.90784 0.6781 0.2122 0.0
H199 H 0.85006 0.35119 0.1549 0.0
H200 H 0.81898 0.66979 0.18309 0.0
O201 O 0.02778 0.48363 0.08358 0.0
H202 H 0.13815 0.6845 0.18848 0.0
H203 H 0.1543 0.575 0.03831 0.0
H204 H 0.22845 0.59094 0.09133 0.0
H205 H 0.22145 0.64637 0.16684 0.0
H206 H 0.06407 0.66699 0.1348 0.0
H207 H 0.16264 0.72625 0.95297 0.0
H208 H 0.19583 0.66266 0.89282 0.0
O209 O 0.06882 0.53553 0.02984 0.0
C210 C 0.94546 0.5584 0.00788 0.0
C211 C 0.14268 0.60547 0.91585 0.0
C212 C 0.14557 0.68908 0.95085 0.0
N213 N 0.0845 0.6287 0.98205 0.0
C214 C 0.10177 0.59407 0.94763 0.0
C215 C 0.10581 0.6761 -0.01691 0.0
C216 C 0.16435 0.65332 0.9173 0.0
C217 C 0.9328 0.61073 0.1736 0.0
N218 N 0.92 0.57251 0.14124 0.0
C219 C 0.89692 0.64665 0.1885 0.0
C220 C 0.8472 0.64238 0.17156 0.0
C221 C 0.83418 0.60301 0.1391 0.0
C222 C 0.87138 0.56871 0.12367 0.0
C223 C 0.87218 0.42496 0.18049 0.0
C224 C 0.93069 0.4304 0.0936 0.0
C225 C 0.9024 0.46699 0.16994 0.0
N226 N 0.93168 0.46898 0.12754 0.0
C227 C 0.90161 0.38772 0.10337 0.0
C228 C 0.87275 0.38444 0.1473 0.0
C229 C 0.0595 0.49154 0.04721 0.0
C230 C 0.14204 0.66067 0.15541 0.0
C231 C 0.15038 0.59913 0.07104 0.0
C232 C 0.19278 0.60809 0.10103 0.0
C233 C 0.18868 0.63918 0.14337 0.0
N234 N 0.10482 0.62062 0.08278 0.0
C235 C 0.10025 0.65079 0.12462 0.0
Co236 Co 0.33713 -0.00134 0.05089 0.0
Co237 Co 0.41041 0.91209 0.11646 0.0
O238 O 0.34907 0.94913 0.10268 0.0
C239 C 0.2545 0.93561 -0.0033 0.0
O240 O 0.28681 0.91692 0.96386 0.0
C241 C 0.40685 0.97658 0.20977 0.0
O242 O 0.4078 0.01693 0.18092 0.0
O243 O 0.45552 0.97275 0.09883 0.0
O244 O 0.40368 0.03188 0.06473 0.0
H245 H 0.55951 0.801 0.07301 0.0
H246 H 0.24082 -0.01561 0.111 0.0
O247 O 0.26979 0.9644 0.03276 0.0
H248 H 0.31791 0.13644 0.18454 0.0
H249 H 0.32113 0.18135 3e-05 0.0
H250 H 0.28399 0.00778 0.9474 0.0
H251 H 0.36202 0.09018 0.11843 0.0
H252 H 0.36385 0.11022 0.04034 0.0
O253 O 0.40656 0.93261 0.19014 0.0
H254 H 0.50166 0.87295 0.05856 0.0
H255 H 0.44366 0.8549 0.20782 0.0
H256 H 0.24048 0.07738 0.90652 0.0
H257 H 0.19759 0.02839 0.17881 0.0
H258 H 0.25579 0.1652 0.93428 0.0
H259 H 0.23414 0.10643 0.21498 0.0
O260 O 0.37649 0.95617 -0.00073 0.0
H261 H 0.26249 0.82457 0.19853 0.0
H262 H 0.40595 0.80492 0.0805 0.0
H263 H 0.34918 0.73286 0.09648 0.0
H264 H 0.27696 0.74209 0.15579 0.0
H265 H 0.32002 0.89595 0.18164 0.0
H266 H 0.50578 0.78902 0.22515 0.0
H267 H 0.56316 0.76007 0.15713 0.0
O268 O 0.41536 0.8931 0.04362 0.0
C269 C 0.44753 0.01652 0.07803 0.0
C270 C 0.53548 0.81448 0.10311 0.0
C271 C 0.50532 0.80749 0.18855 0.0
N272 N 0.4692 0.86979 0.13229 0.0
C273 C 0.50201 0.85488 0.0951 0.0
C274 C 0.47093 0.84637 0.17868 0.0
C275 C 0.53733 0.79106 0.15025 0.0
C276 C 0.25739 0.01916 0.12402 0.0
N277 N 0.30211 0.03732 0.1046 0.0
C278 C 0.23259 0.04354 0.16382 0.0
C279 C 0.25348 0.08694 0.18461 0.0
C280 C 0.3001 0.10394 0.16716 0.0
C281 C 0.32447 0.07791 0.12804 0.0
C282 C 0.31129 0.14298 -0.01036 0.0
C283 C 0.28973 0.04469 0.96229 0.0
C284 C 0.33512 0.10187 0.01303 0.0
N285 N 0.32188 0.05292 0.00188 0.0
C286 C 0.26534 0.08473 0.93784 0.0
C287 C 0.27496 0.13411 0.95273 0.0
C288 C 0.40619 0.91686 0.0025 0.0
C289 C 0.29411 0.81983 0.17287 0.0
C290 C 0.3747 0.80947 0.10652 0.0
C291 C 0.34251 0.76848 0.11524 0.0
C292 C 0.30208 0.77368 0.14872 0.0
N293 N 0.36686 0.85455 0.13059 0.0
C294 C 0.32703 0.86007 0.16329 0.0
Co295 Co 0.62523 0.46255 0.04499 0.0
Co296 Co 0.55942 0.55195 0.11411 0.0
O297 O 0.61914 0.51362 0.09619 0.0
C298 C 0.70942 0.52275 -0.01133 0.0
O299 O 0.67762 0.55659 0.97097 0.0
C300 C 0.56852 0.4851 0.20541 0.0
O301 O 0.56802 0.44573 0.17539 0.0
O302 O 0.51063 0.49361 0.09776 0.0
O303 O 0.55931 0.43222 0.06443 0.0
H304 H 0.41037 0.66512 0.07894 0.0
H305 H 0.71447 0.48468 0.10667 0.0
O306 O 0.69436 0.48903 0.0203 0.0
H307 H 0.65054 0.32634 0.1804 0.0
H308 H 0.6176 0.28131 -0.01671 0.0
H309 H 0.66534 0.45517 0.93881 0.0
H310 H 0.60625 0.36622 0.11071 0.0
H311 H 0.5917 0.35185 0.03608 0.0
O312 O 0.56595 0.52969 0.18715 0.0
H313 H 0.46541 0.59159 0.06227 0.0
H314 H 0.53429 0.61075 0.20639 0.0
H315 H 0.68884 0.38574 0.88264 0.0
H316 H 0.75638 0.44885 0.18067 0.0
H317 H 0.66621 0.29796 0.90516 0.0
H318 H 0.72632 0.36782 0.21703 0.0
O319 O 0.58463 0.50746 -0.00425 0.0
H320 H 0.71641 0.63212 0.18579 0.0
H321 H 0.56512 0.65969 0.08012 0.0
H322 H 0.62604 0.7291 0.09203 0.0
H323 H 0.70238 0.71565 0.14502 0.0
H324 H 0.65422 0.5637 0.17367 0.0
H325 H 0.47632 0.68003 0.22602 0.0
H326 H 0.415 0.70903 0.16177 0.0
O327 O 0.55178 0.57253 0.04231 0.0
C328 C 0.51637 0.44946 0.07732 0.0
C329 C 0.43656 0.65218 0.10746 0.0
C330 C 0.47347 0.66059 0.19009 0.0
N331 N 0.50305 0.59567 0.13333 0.0
C332 C 0.46812 0.6106 0.09822 0.0
C333 C 0.50538 0.61999 0.17909 0.0
C334 C 0.4392 0.67703 0.15381 0.0
C335 C 0.70148 0.44846 0.12032 0.0
N336 N 0.66147 0.42415 0.09777 0.0
C337 C 0.725 0.42896 0.16352 0.0
C338 C 0.70798 0.38366 0.18403 0.0
C339 C 0.66603 0.36004 0.16293 0.0
C340 C 0.64223 0.38175 0.12087 0.0
C341 C 0.63019 0.31925 0.97448 0.0
C342 C 0.65737 0.41727 0.95072 0.0
C343 C 0.6166 0.35985 0.00533 0.0
N344 N 0.63265 0.4081 -0.00487 0.0
C345 C 0.67093 0.37778 0.91849 0.0
C346 C 0.65814 0.32838 0.93105 0.0
C347 C 0.55717 0.54841 0.00087 0.0
C348 C 0.68297 0.63864 0.16308 0.0
C349 C 0.59797 0.6535 0.10368 0.0
C350 C 0.63247 0.69297 0.1101 0.0
C351 C 0.67523 0.68543 0.13998 0.0
N352 N 0.60565 0.60774 0.12666 0.0
C353 C 0.64749 0.60009 0.15616 0.0
Co354 Co 0.35238 0.9731 0.43181 0.0
Co355 Co 0.42629 0.04804 0.35605 0.0
O356 O 0.36448 0.01382 0.37326 0.0
C357 C 0.26148 0.01856 0.47915 0.0
O358 O 0.28714 0.01918 0.52153 0.0
C359 C 0.40939 0.98224 0.26523 0.0
O360 O 0.40676 0.94243 0.29488 0.0
O361 O 0.46869 -0.01556 0.37202 0.0
O362 O 0.41904 0.94082 0.42622 0.0
H363 H 0.57906 0.15619 0.38753 0.0
H364 H 0.27696 0.97434 0.34797 0.0
O365 O 0.28312 0.00479 0.43822 0.0
H366 H 0.33632 0.79752 0.35818 0.0
H367 H 0.25389 0.84179 0.52574 0.0
H368 H 0.4108 0.94288 0.5228 0.0
H369 H 0.36996 0.86198 0.41621 0.0
H370 H 0.26843 0.90865 0.46068 0.0
O371 O 0.41656 0.02611 0.28371 0.0
H372 H 0.52165 0.08624 0.40734 0.0
H373 H 0.45538 0.1012 0.26125 0.0
H374 H 0.39852 0.87814 0.58704 0.0
H375 H 0.24306 0.91085 0.28876 0.0
H376 H 0.32049 0.8262 0.58977 0.0
H377 H 0.27187 0.82162 0.29427 0.0
O378 O 0.38419 0.02616 0.47818 0.0
H379 H 0.27704 0.14296 0.28474 0.0
H380 H 0.42797 0.15445 0.39334 0.0
H381 H 0.3706 0.22656 0.38709 0.0
H382 H 0.29507 0.22237 0.33118 0.0
H383 H 0.33383 0.06943 0.29459 0.0
H384 H 0.51616 0.16657 0.23906 0.0
H385 H 0.57858 0.1954 0.30235 0.0
O386 O 0.43765 0.06933 0.42787 0.0
C387 C 0.46011 0.94652 0.40232 0.0
C388 C 0.55323 0.1428 0.35926 0.0
C389 C 0.51789 0.14872 0.27593 0.0
N390 N 0.48531 0.08744 0.33537 0.0
C391 C 0.51997 0.1032 0.37032 0.0
C392 C 0.48434 0.11 0.28851 0.0
C393 C 0.55258 0.16521 0.31162 0.0
C394 C 0.28985 0.93559 0.35067 0.0
N395 N 0.32505 0.92202 0.38607 0.0
C396 C 0.27046 0.89981 0.31698 0.0
C397 C 0.28694 0.84979 0.31982 0.0
C398 C 0.32311 0.83625 0.35567 0.0
C399 C 0.34217 0.87309 0.38833 0.0
C400 C 0.28794 0.86451 0.52591 0.0
C401 C 0.37588 0.92158 0.52377 0.0
C402 C 0.29562 0.90248 0.48994 0.0
N403 N 0.33915 0.92991 0.48893 0.0
C404 C 0.36946 0.88415 0.55996 0.0
C405 C 0.32544 0.85533 0.56135 0.0
C406 C 0.42011 0.05867 0.4714 0.0
C407 C 0.31032 0.1457 0.30829 0.0
C408 C 0.39509 0.15143 0.36932 0.0
C409 C 0.36279 0.19294 0.36553 0.0
C410 C 0.32032 0.19024 0.33453 0.0
N411 N 0.38476 0.10756 0.34407 0.0
C412 C 0.34294 0.10436 0.31374 0.0
Co413 Co 0.61813 0.48755 0.43024 0.0
Co414 Co 0.54893 0.41111 0.35056 0.0
O415 O 0.60927 0.44596 0.37178 0.0
C416 C 0.70721 0.44142 0.48573 0.0
O417 O 0.67706 0.42539 0.52172 0.0
C418 C 0.56719 0.47763 0.26073 0.0
O419 O 0.56579 0.51697 0.29093 0.0
O420 O 0.50455 0.47369 0.36231 0.0
O421 O 0.54939 0.51832 0.42021 0.0
H422 H 0.39235 0.30588 0.37049 0.0
H423 H 0.59247 0.5947 0.39744 0.0
O424 O 0.68904 0.45851 0.44374 0.0
H425 H 0.73339 0.53974 0.28809 0.0
H426 H 0.69855 0.63245 0.52629 0.0
H427 H 0.59779 0.47886 0.54282 0.0
H428 H 0.70205 0.48412 0.3559 0.0
H429 H 0.67464 0.58776 0.45124 0.0
O430 O 0.56323 0.43295 0.27859 0.0
H431 H 0.44864 0.37597 0.3935 0.0
H432 H 0.52939 0.35474 0.25573 0.0
H433 H 0.65295 0.50345 0.6102 0.0
H434 H 0.62278 0.65112 0.33008 0.0
H435 H 0.68728 0.58995 0.61051 0.0
H436 H 0.69428 0.62434 0.27542 0.0
O437 O 0.58363 0.43451 0.4737 0.0
H438 H 0.70438 0.31814 0.29087 0.0
H439 H 0.54749 0.30582 0.39128 0.0
H440 H 0.60812 0.23569 0.39207 0.0
H441 H 0.68656 0.24038 0.34048 0.0
H442 H 0.64469 0.38992 0.29432 0.0
H443 H 0.47012 0.28912 0.22985 0.0
H444 H 0.4016 0.26269 0.28818 0.0
O445 O 0.53167 0.39135 0.42209 0.0
C446 C 0.50997 0.51179 0.39275 0.0
C447 C 0.42147 0.31759 0.34483 0.0
C448 C 0.46495 0.30824 0.2657 0.0
N449 N 0.4922 0.37111 0.3259 0.0
C450 C 0.4537 0.35749 0.35753 0.0
C451 C 0.49764 0.347 0.2802 0.0
C452 C 0.4268 0.2932 0.29854 0.0
C453 C 0.6234 0.58218 0.37385 0.0
N454 N 0.64678 0.53659 0.38263 0.0
C455 C 0.6406 0.61463 0.33577 0.0
C456 C 0.68063 0.59953 0.30498 0.0
C457 C 0.70279 0.55225 0.31236 0.0
C458 C 0.68534 0.5212 0.35154 0.0
C459 C 0.67887 0.59667 0.52954 0.0
C460 C 0.62082 0.51143 0.53656 0.0
C461 C 0.66178 0.57216 0.48618 0.0
N462 N 0.63073 0.53061 0.48943 0.0
C463 C 0.64816 0.52777 0.57806 0.0
C464 C 0.67217 0.57381 0.57625 0.0
C465 C 0.54621 0.4043 0.46617 0.0
C466 C 0.66987 0.31519 0.31274 0.0
C467 C 0.58176 0.30899 0.36919 0.0
C468 C 0.61585 0.26869 0.36942 0.0
C469 C 0.65998 0.27161 0.34071 0.0
N470 N 0.59217 0.35212 0.3426 0.0
C471 C 0.63556 0.35549 0.31444 0.0
Co472 Co 0.05093 0.3371 -0.00136 0.0
Co473 Co 0.11651 0.41038 0.91208 0.0
O474 O 0.10272 0.34905 0.94911 0.0
C475 C -0.00325 0.25447 0.93559 0.0
O476 O 0.96391 0.28678 0.9169 0.0
C477 C 0.20982 0.40682 0.97657 0.0
O478 O 0.18098 0.40776 0.01692 0.0
O479 O 0.09888 0.45549 0.97274 0.0
O480 O 0.06478 0.40366 0.03186 0.0
H481 H 0.07306 0.55949 0.80098 0.0
H482 H 0.11104 0.24079 -0.01562 0.0
O483 O 0.0328 0.26976 0.96438 0.0
H484 H 0.18458 0.31789 0.13643 0.0
H485 H 6e-05 0.3211 0.18133 0.0
H486 H 0.94743 0.28397 0.00776 0.0
H487 H 0.11847 0.36199 0.09016 0.0
H488 H 0.04038 0.36381 0.11021 0.0
O489 O 0.19019 0.40652 0.93259 0.0
H490 H 0.05861 0.50163 0.87293 0.0
H491 H 0.20787 0.44363 0.85489 0.0
H492 H 0.90655 0.24046 0.07735 0.0
H493 H 0.17885 0.19756 0.02838 0.0
H494 H 0.93431 0.25576 0.16518 0.0
H495 H 0.21502 0.23412 0.10643 0.0
O496 O -0.00069 0.37646 0.95615 0.0
H497 H 0.19858 0.26246 0.82456 0.0
H498 H 0.08055 0.40593 0.8049 0.0
H499 H 0.09654 0.34915 0.73284 0.0
H500 H 0.15585 0.27694 0.74207 0.0
H501 H 0.18169 0.31999 0.89593 0.0
H502 H 0.2252 0.50575 0.78901 0.0
H503 H 0.15719 0.56313 0.76006 0.0
O504 O 0.04366 0.41534 0.89308 0.0
C505 C 0.07809 0.4475 0.01651 0.0
C506 C 0.10316 0.53545 0.81447 0.0
C507 C 0.1886 0.50529 0.80748 0.0
N508 N 0.13234 0.46917 0.86978 0.0
C509 C 0.09515 0.50198 0.85486 0.0
C510 C 0.17873 0.4709 0.84636 0.0
C511 C 0.15031 0.5373 0.79105 0.0
C512 C 0.12406 0.25736 0.01915 0.0
N513 N 0.10464 0.30208 0.03731 0.0
C514 C 0.16386 0.23256 0.04354 0.0
C515 C 0.18466 0.25346 0.08693 0.0
C516 C 0.1672 0.30007 0.10393 0.0
C517 C 0.12808 0.32444 0.07789 0.0
C518 C -0.01033 0.31126 0.14297 0.0
C519 C 0.96232 0.28971 0.04467 0.0
C520 C 0.01307 0.33509 0.10185 0.0
N521 N 0.00193 0.32186 0.0529 0.0
C522 C 0.93787 0.26532 0.0847 0.0
C523 C 0.95276 0.27494 0.13409 0.0
C524 C 0.00254 0.40616 0.91684 0.0
C525 C 0.17292 0.29408 0.81982 0.0
C526 C 0.10657 0.37467 0.80945 0.0
C527 C 0.11529 0.34248 0.76847 0.0
C528 C 0.14878 0.30205 0.77366 0.0
N529 N 0.13064 0.36684 0.85453 0.0
C530 C 0.16334 0.327 0.86006 0.0
Co531 Co 0.04502 0.6252 0.46253 0.0
Co532 Co 0.11416 0.55939 0.55193 0.0
O533 O 0.09623 0.6191 0.51359 0.0
C534 C -0.01127 0.7094 0.52273 0.0
O535 O 0.97103 0.6776 0.55657 0.0
C536 C 0.20546 0.56849 0.48508 0.0
O537 O 0.17543 0.568 0.44571 0.0
O538 O 0.0978 0.5106 0.49359 0.0
O539 O 0.06446 0.55927 0.4322 0.0
H540 H 0.07899 0.41034 0.66511 0.0
H541 H 0.10672 0.71443 0.48465 0.0
O542 O 0.02035 0.69433 0.48901 0.0
H543 H 0.18043 0.65049 0.3263 0.0
H544 H -0.0167 0.61755 0.28129 0.0
H545 H 0.93885 0.66532 0.45516 0.0
H546 H 0.11073 0.6062 0.36618 0.0
H547 H 0.0361 0.59166 0.35183 0.0
O548 O 0.18719 0.56592 0.52967 0.0
H549 H 0.06231 0.46538 0.59158 0.0
H550 H 0.20644 0.53426 0.61073 0.0
H551 H 0.88267 0.68882 0.38572 0.0
H552 H 0.18072 0.75633 0.44881 0.0
H553 H 0.90518 0.66616 0.29794 0.0
H554 H 0.21707 0.72625 0.36777 0.0
O555 O -0.00421 0.58461 0.50744 0.0
H556 H 0.18583 0.71638 0.63209 0.0
H557 H 0.08016 0.56509 0.65967 0.0
H558 H 0.09208 0.62601 0.72908 0.0
H559 H 0.14506 0.70235 0.71563 0.0
H560 H 0.17371 0.65419 0.56368 0.0
H561 H 0.22607 0.4763 0.68001 0.0
H562 H 0.16182 0.41498 0.70901 0.0
O563 O 0.04235 0.55175 0.5725 0.0
C564 C 0.07737 0.51634 0.44943 0.0
C565 C 0.1075 0.43654 0.65216 0.0
C566 C 0.19014 0.47344 0.66057 0.0
N567 N 0.13338 0.50302 0.59565 0.0
C568 C 0.09827 0.46809 0.61058 0.0
C569 C 0.17914 0.50536 0.61997 0.0
C570 C 0.15386 0.43917 0.67702 0.0
C571 C 0.12037 0.70143 0.44843 0.0
N572 N 0.09781 0.66143 0.42411 0.0
C573 C 0.16356 0.72495 0.42892 0.0
C574 C 0.18407 0.70792 0.38361 0.0
C575 C 0.16296 0.66597 0.36 0.0
C576 C 0.1209 0.64218 0.38171 0.0
C577 C 0.9745 0.63015 0.31923 0.0
C578 C 0.95075 0.65735 0.41725 0.0
C579 C 0.00536 0.61656 0.35983 0.0
N580 N -0.00484 0.63262 0.40808 0.0
C581 C 0.91852 0.6709 0.37776 0.0
C582 C 0.93108 0.6581 0.32836 0.0
C583 C 0.00091 0.55714 0.54839 0.0
C584 C 0.16312 0.68294 0.63862 0.0
C585 C 0.10372 0.59793 0.65348 0.0
C586 C 0.11015 0.63244 0.69295 0.0
C587 C 0.14002 0.6752 0.68541 0.0
N588 N 0.1267 0.60561 0.60772 0.0
C589 C 0.15619 0.64746 0.60007 0.0
Co590 Co 0.93228 0.84803 0.4488 0.0
Co591 Co 0.85461 0.91074 0.53341 0.0
O592 O 0.87478 0.85257 0.49345 0.0
C593 C 0.96597 0.76117 0.51798 0.0
O594 O 0.96589 0.79163 0.55716 0.0
C595 C 0.76211 0.94879 0.48736 0.0
O596 O 0.78567 -0.00761 0.48967 0.0
O597 O 0.87726 0.96136 0.47845 0.0
O598 O 0.92027 0.91591 0.42102 0.0
H599 H 0.88194 0.05406 0.65483 0.0
H600 H 0.93714 0.76779 0.36632 0.0
O601 O 0.94887 0.77652 0.47498 0.0
H602 H 0.77164 0.8521 0.34878 0.0
H603 H 0.00331 0.85296 0.27509 0.0
H604 H 0.03555 0.79885 0.45049 0.0
H605 H 0.82872 0.87448 0.41789 0.0
H606 H 0.95015 0.88358 0.34332 0.0
O607 O 0.78439 0.90846 0.50242 0.0
H608 H 0.90301 0.00317 0.57941 0.0
H609 H 0.75974 0.93129 0.58923 0.0
H610 H 0.08839 0.76577 0.38065 0.0
H611 H 0.88248 0.74825 0.29282 0.0
H612 H 0.07293 0.79164 0.2935 0.0
H613 H 0.79824 0.78832 0.28532 0.0
O614 O 0.97637 0.88262 0.50166 0.0
H615 H 0.7665 0.75524 0.59917 0.0
H616 H 0.87831 0.89771 0.64335 0.0
H617 H 0.85483 0.83568 0.70896 0.0
H618 H 0.79836 0.76395 0.6872 0.0
H619 H 0.79067 0.81828 0.53465 0.0
H620 H 0.73506 -0.01353 0.65927 0.0
H621 H 0.79666 0.04746 0.69369 0.0
O622 O 0.924 0.91566 0.56171 0.0
C623 C 0.90173 0.95716 0.43622 0.0
C624 C 0.8543 0.02889 0.63892 0.0
C625 C 0.77191 -0.00933 0.6418 0.0
N626 N 0.83254 0.96472 0.57873 0.0
C627 C 0.86621 -0.00056 0.59658 0.0
C628 C 0.78578 0.96037 0.60098 0.0
C629 C 0.80671 0.02473 0.66125 0.0
C630 C 0.90041 0.7854 0.36339 0.0
N631 N 0.88594 0.82105 0.39782 0.0
C632 C 0.86964 0.77399 0.32179 0.0
C633 C 0.82256 0.79713 0.31703 0.0
C634 C 0.80748 0.83262 0.35273 0.0
C635 C 0.83995 0.84455 0.39253 0.0
C636 C 0.01097 0.84085 0.31326 0.0
C637 C 0.02814 0.81082 0.41215 0.0
C638 C 0.98178 0.85961 0.35295 0.0
N639 N -0.01152 0.84221 0.40143 0.0
C640 C 0.05816 0.79157 0.37308 0.0
C641 C 0.04926 0.80626 0.32345 0.0
C642 C 0.96747 0.9103 0.54145 0.0
C643 C 0.79106 0.78638 0.60919 0.0
C644 C 0.85382 0.86654 0.6334 0.0
C645 C 0.84065 0.83152 0.67079 0.0
C646 C 0.80898 0.79125 0.65854 0.0
N647 N 0.83545 0.862 0.58522 0.0
C648 C 0.80469 0.82235 0.57285 0.0
Co649 Co 0.43028 0.6181 0.48754 0.0
Co650 Co 0.3506 0.5489 0.41109 0.0
O651 O 0.37182 0.60923 0.44595 0.0
C652 C 0.48578 0.70717 0.44142 0.0
O653 O 0.52179 0.67702 0.42542 0.0
C654 C 0.26077 0.56716 0.47761 0.0
O655 O 0.29097 0.56575 0.51695 0.0
O656 O 0.36236 0.50452 0.47367 0.0
O657 O 0.42024 0.54936 0.51832 0.0
H658 H 0.37053 0.39232 0.30587 0.0
H659 H 0.39746 0.59245 0.59469 0.0
O660 O 0.44378 0.689 0.45851 0.0
H661 H 0.28813 0.73337 0.53971 0.0
H662 H 0.52629 0.69855 0.63246 0.0
H663 H 0.54285 0.59773 0.47891 0.0
H664 H 0.35594 0.70202 0.4841 0.0
H665 H 0.45125 0.67463 0.58774 0.0
O666 O 0.27863 0.5632 0.43293 0.0
H667 H 0.39355 0.44862 0.37596 0.0
H668 H 0.25578 0.52937 0.35472 0.0
H669 H 0.61023 0.65289 0.5035 0.0
H670 H 0.3301 0.62277 0.6511 0.0
H671 H 0.61053 0.68723 0.58999 0.0
H672 H 0.27545 0.69428 0.62431 0.0
O673 O 0.47375 0.58359 0.43452 0.0
H674 H 0.29092 0.70435 0.31813 0.0
H675 H 0.39132 0.54746 0.30581 0.0
H676 H 0.39212 0.60808 0.23568 0.0
H677 H 0.34054 0.68653 0.24036 0.0
H678 H 0.29437 0.64466 0.38991 0.0
H679 H 0.22989 0.47009 0.2891 0.0
H680 H 0.28822 0.40157 0.26268 0.0
O681 O 0.42213 0.53164 0.39133 0.0
C682 C 0.39279 0.50994 0.51178 0.0
C683 C 0.34488 0.42144 0.31758 0.0
C684 C 0.26575 0.46492 0.30823 0.0
N685 N 0.32595 0.49217 0.3711 0.0
C686 C 0.35758 0.45367 0.35747 0.0
C687 C 0.28024 0.49761 0.34698 0.0
C688 C 0.29859 0.42677 0.29318 0.0
C689 C 0.37387 0.62338 0.58216 0.0
N690 N 0.38265 0.64675 0.53658 0.0
C691 C 0.3358 0.64058 0.61461 0.0
C692 C 0.30501 0.68062 0.5995 0.0
C693 C 0.31239 0.70278 0.55222 0.0
C694 C 0.35157 0.68532 0.52118 0.0
C695 C 0.52955 0.67885 0.59669 0.0
C696 C 0.53659 0.62077 0.51147 0.0
C697 C 0.4862 0.66176 0.57216 0.0
N698 N 0.48945 0.6307 0.53063 0.0
C699 C 0.57809 0.6481 0.52782 0.0
C700 C 0.57627 0.67213 0.57384 0.0
C701 C 0.46622 0.5462 0.40429 0.0
C702 C 0.3128 0.66984 0.31518 0.0
C703 C 0.36923 0.58173 0.30898 0.0
C704 C 0.36947 0.61582 0.26867 0.0
C705 C 0.34077 0.65995 0.27159 0.0
N706 N 0.34264 0.59214 0.3521 0.0
C707 C 0.31449 0.63553 0.35547 0.0
Co708 Co 0.51028 0.54019 0.84822 0.0
Co709 Co 0.42723 0.61494 0.91519 0.0
O710 O 0.46475 0.5958 0.85622 0.0
C711 C 0.44685 0.497 0.76195 0.0
O712 O 0.42473 0.46676 0.79455 0.0
C713 C 0.47422 0.70824 0.94979 0.0
O714 O 0.47438 0.68522 -0.00616 0.0
O715 O 0.48461 0.59221 0.9636 0.0
O716 O 0.53907 0.54801 0.91551 0.0
H717 H 0.30856 0.58636 0.06046 0.0
H718 H 0.59184 0.54312 0.76997 0.0
O719 O 0.48059 0.52909 0.77689 0.0
H720 H 0.6054 0.70422 0.86035 0.0
H721 H 0.68833 0.47824 0.84586 0.0
H722 H 0.51563 0.4392 0.78919 0.0
H723 H 0.53869 0.64349 0.88106 0.0
H724 H 0.61672 0.52308 0.88228 0.0
O725 O 0.45708 0.6854 0.91088 0.0
H726 H 0.38327 0.56569 0.00806 0.0
H727 H 0.37184 0.70968 0.93754 0.0
H728 H 0.58755 0.39584 0.75056 0.0
H729 H 0.66198 0.60166 0.74849 0.0
H730 H 0.67462 0.41535 0.77766 0.0
H731 H 0.66815 0.68369 0.79353 0.0
O732 O 0.45879 0.49341 0.88292 0.0
H733 H 0.35459 0.7021 0.76191 0.0
H734 H 0.31793 0.58757 0.90481 0.0
H735 H 0.25095 0.60662 0.84284 0.0
H736 H 0.26875 0.66494 0.77123 0.0
H737 H 0.42109 0.68079 0.8238 0.0
H738 H 0.30341 0.73394 -0.00509 0.0
H739 H 0.27025 0.67151 0.05645 0.0
O740 O 0.40051 0.545 0.92078 0.0
C741 C 0.52576 0.56602 0.95745 0.0
C742 C 0.32457 0.61434 0.03577 0.0
C743 C 0.32099 0.69707 -0.00154 0.0
N744 N 0.3836 0.6367 0.97064 0.0
C745 C 0.36638 0.6027 0.00542 0.0
C746 C 0.36111 0.68345 0.96701 0.0
C747 C 0.30227 0.66195 0.03275 0.0
C748 C 0.59363 0.57927 0.78747 0.0
N749 N 0.55914 0.59045 0.82382 0.0
C750 C 0.63388 0.61194 0.77648 0.0
C751 C 0.63756 0.65779 0.80191 0.0
C752 C 0.60217 0.66948 0.83906 0.0
C753 C 0.56357 0.63506 0.84991 0.0
C754 C 0.65035 0.4695 0.83329 0.0
C755 C 0.55281 0.44963 0.8011 0.0
C756 C 0.60868 0.49374 0.85514 0.0
N757 N 0.5604 0.48608 0.8371 0.0
C758 C 0.59372 0.42399 0.77921 0.0
C759 C 0.64275 0.43467 0.79475 0.0
C760 C 0.41974 0.50151 0.91234 0.0
C761 C 0.34621 0.67702 0.79324 0.0
C762 C 0.32626 0.61269 0.8736 0.0
C763 C 0.288 0.62356 0.83875 0.0
C764 C 0.29807 0.65613 0.79846 0.0
N765 N 0.37341 0.63342 0.86836 0.0
C766 C 0.38364 0.66509 0.82867 0.0
Co767 Co 0.44885 0.93225 0.84802 0.0
Co768 Co 0.53345 0.85458 0.91072 0.0
O769 O 0.49349 0.87475 0.85256 0.0
C770 C 0.51803 0.96594 0.76116 0.0
O771 O 0.55721 0.96584 0.79162 0.0
C772 C 0.48741 0.76208 0.94878 0.0
O773 O 0.48972 0.78564 -0.00762 0.0
O774 O 0.47849 0.87723 0.96134 0.0
O775 O 0.42106 0.92024 0.91589 0.0
H776 H 0.65487 0.88191 0.05405 0.0
H777 H 0.36636 0.93711 0.76778 0.0
O778 O 0.47503 0.94884 0.7765 0.0
H779 H 0.34883 0.77162 0.85208 0.0
H780 H 0.27514 0.00329 0.85295 0.0
H781 H 0.45053 0.03552 0.79883 0.0
H782 H 0.41794 0.82869 0.87446 0.0
H783 H 0.34337 0.95013 0.88356 0.0
O784 O 0.50247 0.78436 0.90844 0.0
H785 H 0.57945 0.90298 0.00315 0.0
H786 H 0.58928 0.75971 0.93127 0.0
H787 H 0.3807 0.08836 0.76575 0.0
H788 H 0.29285 0.88246 0.74823 0.0
H789 H 0.29355 0.0729 0.79162 0.0
H790 H 0.28536 0.79822 0.78831 0.0
O791 O 0.5017 0.97634 0.8826 0.0
H792 H 0.59922 0.76646 0.75522 0.0
H793 H 0.64339 0.87828 0.89769 0.0
H794 H 0.709 0.8548 0.83566 0.0
H795 H 0.68725 0.79833 0.76393 0.0
H796 H 0.53469 0.79064 0.81826 0.0
H797 H 0.65931 0.73503 -0.01354 0.0
H798 H 0.69373 0.79663 0.04745 0.0
O799 O 0.56175 0.92397 0.91565 0.0
C800 C 0.43626 0.9017 0.95714 0.0
C801 C 0.63896 0.85426 0.02887 0.0
C802 C 0.64185 0.77188 -0.00934 0.0
N803 N 0.57877 0.83251 0.9647 0.0
C804 C 0.59662 0.86618 -0.00057 0.0
C805 C 0.60103 0.78575 0.96036 0.0
C806 C 0.66129 0.80668 0.02472 0.0
C807 C 0.36342 0.90039 0.78539 0.0
N808 N 0.39786 0.88591 0.82103 0.0
C809 C 0.32182 0.86961 0.77398 0.0
C810 C 0.31707 0.82253 0.79711 0.0
C811 C 0.35277 0.80745 0.83261 0.0
C812 C 0.39258 0.83992 0.84453 0.0
C813 C 0.3133 0.01095 0.84084 0.0
C814 C 0.4122 0.02811 0.81081 0.0
C815 C 0.353 0.98175 0.85959 0.0
N816 N 0.40148 -0.01155 0.8422 0.0
C817 C 0.37312 0.05813 0.79155 0.0
C818 C 0.3235 0.04923 0.80624 0.0
C819 C 0.54149 0.96744 0.91029 0.0
C820 C 0.60923 0.79103 0.78636 0.0
C821 C 0.63344 0.85379 0.86653 0.0
C822 C 0.67084 0.84062 0.8315 0.0
C823 C 0.65858 0.80895 0.79123 0.0
N824 N 0.58527 0.83542 0.86198 0.0
C825 C 0.57289 0.80466 0.82234 0.0
Co826 Co 0.48759 0.43024 0.61809 0.0
Co827 Co 0.41113 0.35057 0.54889 0.0
O828 O 0.44599 0.37179 0.60922 0.0
C829 C 0.44146 0.48574 0.70715 0.0
O830 O 0.42547 0.52176 0.67701 0.0
C831 C 0.47766 0.26074 0.56715 0.0
O832 O 0.51699 0.29094 0.56575 0.0
O833 O 0.47371 0.36232 0.5045 0.0
O834 O 0.51836 0.4202 0.54935 0.0
H835 H 0.30591 0.3705 0.3923 0.0
H836 H 0.59474 0.39741 0.59245 0.0
O837 O 0.45855 0.44375 0.68899 0.0
H838 H 0.53974 0.2881 0.73338 0.0
H839 H 0.63251 0.52624 0.69853 0.0
H840 H 0.47894 0.54281 0.59773 0.0
H841 H 0.48414 0.35591 0.70202 0.0
H842 H 0.58779 0.45121 0.67462 0.0
O843 O 0.43297 0.2786 0.56318 0.0
H844 H 0.376 0.39352 0.4486 0.0
H845 H 0.35476 0.25575 0.52935 0.0
H846 H 0.50355 0.61019 0.65288 0.0
H847 H 0.65114 0.33005 0.62277 0.0
H848 H 0.59005 0.61048 0.68721 0.0
H849 H 0.62434 0.27541 0.69429 0.0
O850 O 0.43456 0.47371 0.58358 0.0
H851 H 0.31817 0.29089 0.70434 0.0
H852 H 0.30585 0.39129 0.54745 0.0
H853 H 0.23572 0.39209 0.60807 0.0
H854 H 0.2404 0.3405 0.68652 0.0
H855 H 0.38995 0.29434 0.64465 0.0
H856 H 0.28914 0.22986 0.47007 0.0
H857 H 0.26272 0.28819 0.40155 0.0
O858 O 0.39137 0.4221 0.53163 0.0
C859 C 0.51182 0.39274 0.50994 0.0
C860 C 0.31762 0.34485 0.42142 0.0
C861 C 0.30827 0.26572 0.4649 0.0
N862 N 0.37114 0.32591 0.49216 0.0
C863 C 0.35751 0.35754 0.45365 0.0
C864 C 0.34702 0.28021 0.49759 0.0
C865 C 0.29322 0.29855 0.42675 0.0
C866 C 0.5822 0.37382 0.62338 0.0
N867 N 0.53662 0.38262 0.64675 0.0
C868 C 0.61465 0.33575 0.64058 0.0
C869 C 0.59954 0.30497 0.68063 0.0
C870 C 0.55225 0.31236 0.70278 0.0
C871 C 0.52121 0.35154 0.68532 0.0
C872 C 0.59674 0.52951 0.67883 0.0
C873 C 0.51151 0.53655 0.62076 0.0
C874 C 0.57221 0.48616 0.66174 0.0
N875 N 0.53067 0.48941 0.63069 0.0
C876 C 0.52787 0.57805 0.64809 0.0
C877 C 0.5739 0.57622 0.6721 0.0
C878 C 0.40433 0.46618 0.54618 0.0
C879 C 0.31522 0.31276 0.66983 0.0
C880 C 0.30902 0.3692 0.58172 0.0
C881 C 0.26871 0.36944 0.61581 0.0
C882 C 0.27163 0.34073 0.65994 0.0
N883 N 0.35214 0.34261 0.59212 0.0
C884 C 0.35551 0.31445 0.63551 0.0
Co885 Co 0.46258 0.04499 0.62519 0.0
Co886 Co 0.55198 0.11413 0.55937 0.0
O887 O 0.51364 0.0962 0.61909 0.0
C888 C 0.52278 -0.01131 0.70938 0.0
O889 O 0.55662 0.97098 0.67759 0.0
C890 C 0.48512 0.20542 0.56848 0.0
O891 O 0.44575 0.1754 0.56798 0.0
O892 O 0.49363 0.09777 0.51058 0.0
O893 O 0.43225 0.06442 0.55925 0.0
H894 H 0.66515 0.07897 0.41032 0.0
H895 H 0.4847 0.10669 0.71442 0.0
O896 O 0.48906 0.02031 0.69432 0.0
H897 H 0.32635 0.18039 0.65047 0.0
H898 H 0.28135 -0.01674 0.61754 0.0
H899 H 0.45521 0.93882 0.66531 0.0
H900 H 0.36623 0.1107 0.60619 0.0
H901 H 0.35187 0.03607 0.59164 0.0
O902 O 0.52972 0.18716 0.5659 0.0
H903 H 0.59162 0.06229 0.46536 0.0
H904 H 0.61077 0.20641 0.53424 0.0
H905 H 0.38578 0.88264 0.68881 0.0
H906 H 0.44887 0.18069 0.75631 0.0
H907 H 0.298 0.90515 0.66615 0.0
H908 H 0.36783 0.21703 0.72624 0.0
O909 O 0.50749 -0.00424 0.58459 0.0
H910 H 0.63214 0.18579 0.71637 0.0
H911 H 0.65972 0.08013 0.56507 0.0
H912 H 0.72913 0.09204 0.62599 0.0
H913 H 0.71568 0.14501 0.70234 0.0
H914 H 0.56372 0.17367 0.65418 0.0
H915 H 0.68005 0.22604 0.47628 0.0
H916 H 0.70905 0.16179 0.41496 0.0
O917 O 0.57255 0.04232 0.55173 0.0
C918 C 0.44948 0.07734 0.51632 0.0
C919 C 0.65221 0.10748 0.43652 0.0
C920 C 0.66061 0.19011 0.47342 0.0
N921 N 0.59569 0.13335 0.503 0.0
C922 C 0.61062 0.09824 0.46807 0.0
C923 C 0.62001 0.17911 0.50534 0.0
C924 C 0.67706 0.15384 0.43915 0.0
C925 C 0.44848 0.12033 0.70142 0.0
N926 N 0.42416 0.09777 0.66141 0.0
C927 C 0.42897 0.16353 0.72493 0.0
C928 C 0.38366 0.18403 0.70791 0.0
C929 C 0.36005 0.16292 0.66596 0.0
C930 C 0.38176 0.12087 0.64217 0.0
C931 C 0.31928 0.97447 0.63014 0.0
C932 C 0.41731 0.95072 0.65733 0.0
C933 C 0.35988 0.00532 0.61655 0.0
N934 N 0.40813 -0.00487 0.63261 0.0
C935 C 0.37782 0.91849 0.67089 0.0
C936 C 0.32841 0.93104 0.65809 0.0
C937 C 0.54844 0.00088 0.55712 0.0
C938 C 0.63867 0.16308 0.68293 0.0
C939 C 0.65353 0.10369 0.59792 0.0
C940 C 0.693 0.11011 0.63243 0.0
C941 C 0.68546 0.13998 0.67519 0.0
N942 N 0.60777 0.12667 0.6056 0.0
C943 C 0.60012 0.15616 0.64745 0.0
Co944 Co 0.84826 0.51025 0.54017 0.0
Co945 Co 0.91523 0.4272 0.61492 0.0
O946 O 0.85626 0.46472 0.59578 0.0
C947 C 0.762 0.44681 0.49699 0.0
O948 O 0.7946 0.4247 0.46673 0.0
C949 C 0.94984 0.4742 0.70822 0.0
O950 O -0.00612 0.47436 0.6852 0.0
O951 O 0.96365 0.48458 0.5922 0.0
O952 O 0.91555 0.53903 0.54799 0.0
H953 H 0.06051 0.30853 0.58635 0.0
H954 H 0.77002 0.59182 0.5431 0.0
O955 O 0.77694 0.48056 0.52907 0.0
H956 H 0.86039 0.60536 0.70421 0.0
H957 H 0.84591 0.6883 0.47822 0.0
H958 H 0.78922 0.5156 0.43919 0.0
H959 H 0.88111 0.53866 0.64347 0.0
H960 H 0.88233 0.61669 0.52305 0.0
O961 O 0.91093 0.45705 0.68538 0.0
H962 H 0.00811 0.38324 0.56568 0.0
H963 H 0.93759 0.37181 0.70966 0.0
H964 H 0.75058 0.58753 0.39584 0.0
H965 H 0.74853 0.66195 0.60164 0.0
H966 H 0.7777 0.6746 0.41534 0.0
H967 H 0.79357 0.66811 0.68367 0.0
O968 O 0.88296 0.45876 0.49339 0.0
H969 H 0.76195 0.35457 0.70209 0.0
H970 H 0.90486 0.3179 0.58756 0.0
H971 H 0.84289 0.25093 0.6066 0.0
H972 H 0.77127 0.26873 0.66492 0.0
H973 H 0.82384 0.42106 0.68077 0.0
H974 H -0.00504 0.30339 0.73393 0.0
H975 H 0.0565 0.27023 0.6715 0.0
O976 O 0.92083 0.40048 0.54499 0.0
C977 C 0.9575 0.52573 0.566 0.0
C978 C 0.03582 0.32454 0.61433 0.0
C979 C -0.00149 0.32097 0.69706 0.0
N980 N 0.97069 0.38358 0.63669 0.0
C981 C 0.00546 0.36635 0.60269 0.0
C982 C 0.96706 0.36109 0.68344 0.0
C983 C 0.0328 0.30224 0.66194 0.0
C984 C 0.78752 0.59361 0.57924 0.0
N985 N 0.82387 0.55912 0.59043 0.0
C986 C 0.77653 0.63385 0.61192 0.0
C987 C 0.80195 0.63753 0.65777 0.0
C988 C 0.8391 0.60214 0.66946 0.0
C989 C 0.84996 0.56354 0.63504 0.0
C990 C 0.83333 0.65031 0.46948 0.0
C991 C 0.80113 0.55278 0.44962 0.0
C992 C 0.85519 0.60864 0.49371 0.0
N993 N 0.83714 0.56037 0.48606 0.0
C994 C 0.77924 0.59369 0.42398 0.0
C995 C 0.79479 0.64272 0.43466 0.0
C996 C 0.91235 0.41969 0.50149 0.0
C997 C 0.79329 0.34619 0.677 0.0
C998 C 0.87364 0.32623 0.61268 0.0
C999 C 0.83879 0.28798 0.62355 0.0
C1000 C 0.79851 0.29805 0.65612 0.0
N1001 N 0.86841 0.37338 0.6334 0.0
C1002 C 0.82872 0.38361 0.66507 0.0
Co1003 Co 0.11489 0.9728 0.52802 0.0
Co1004 Co 0.04144 0.04567 0.60686 0.0
O1005 O 0.10325 0.01191 0.58807 0.0
C1006 C 0.20583 0.01828 0.48121 0.0
O1007 O 0.18007 0.01988 0.43878 0.0
C1008 C 0.05795 0.97795 0.69679 0.0
O1009 O 0.05909 0.93845 0.66673 0.0
O1010 O -0.00066 0.98227 0.58989 0.0
O1011 O 0.04827 0.94133 0.53294 0.0
H1012 H 0.8912 0.15848 0.57715 0.0
H1013 H 0.18664 0.97134 0.61463 0.0
O1014 O 0.18441 0.00363 0.52204 0.0
H1015 H 0.12538 0.79575 0.59948 0.0
H1016 H 0.21406 0.8486 0.42377 0.0
H1017 H 0.0589 0.9522 0.4325 0.0
H1018 H 0.09771 0.861 0.5389 0.0
H1019 H 0.19526 0.90232 0.49859 0.0
O1020 O 0.05167 0.02217 0.67878 0.0
H1021 H 0.94577 0.08558 0.55673 0.0
H1022 H 0.01154 0.09554 0.70344 0.0
H1023 H 0.07654 0.90085 0.35782 0.0
H1024 H 0.21226 0.90782 0.67809 0.0
H1025 H 0.15495 0.85004 0.35117 0.0
H1026 H 0.18315 0.81896 0.66977 0.0
O1027 O 0.08363 0.02775 0.48361 0.0
H1028 H 0.18852 0.13812 0.68449 0.0
H1029 H 0.03835 0.15427 0.57498 0.0
H1030 H 0.09137 0.22842 0.59093 0.0
H1031 H 0.16688 0.22142 0.64636 0.0
H1032 H 0.13484 0.06404 0.66698 0.0
H1033 H 0.95301 0.16261 0.72623 0.0
H1034 H 0.89286 0.19579 0.66265 0.0
O1035 O 0.02988 0.0688 0.53551 0.0
C1036 C 0.00794 0.94543 0.55839 0.0
C1037 C 0.91589 0.14265 0.60545 0.0
C1038 C 0.95089 0.14553 0.68906 0.0
N1039 N 0.98209 0.08447 0.62869 0.0
C1040 C 0.94767 0.10174 0.59405 0.0
C1041 C -0.01687 0.10578 0.67609 0.0
C1042 C 0.91734 0.16432 0.65331 0.0
C1043 C 0.17364 0.93278 0.61071 0.0
N1044 N 0.14129 0.91998 0.5725 0.0
C1045 C 0.18856 0.8969 0.64664 0.0
C1046 C 0.17162 0.84718 0.64237 0.0
C1047 C 0.13915 0.83416 0.603 0.0
C1048 C 0.12372 0.87136 0.5687 0.0
C1049 C 0.18054 0.87215 0.42495 0.0
C1050 C 0.09365 0.93066 0.43039 0.0
C1051 C 0.16999 0.90237 0.46698 0.0
N1052 N 0.12759 0.93166 0.46896 0.0
C1053 C 0.10343 0.90159 0.3877 0.0
C1054 C 0.14735 0.87273 0.38443 0.0
C1055 C 0.04727 0.05948 0.49153 0.0
C1056 C 0.15545 0.14201 0.66065 0.0
C1057 C 0.07108 0.15035 0.59911 0.0
C1058 C 0.10107 0.19275 0.60807 0.0
C1059 C 0.1434 0.18865 0.63917 0.0
N1060 N 0.08282 0.10479 0.62061 0.0
C1061 C 0.12466 0.10022 0.65077 0.0
Co1062 Co 0.84806 0.44883 0.93223 0.0
Co1063 Co 0.91077 0.53343 0.85456 0.0
O1064 O 0.85261 0.49347 0.87473 0.0
C1065 C 0.7612 0.51801 0.96591 0.0
O1066 O 0.79165 0.55718 0.96583 0.0
C1067 C 0.94882 0.48739 0.76206 0.0
O1068 O -0.00757 0.4897 0.78562 0.0
O1069 O 0.96139 0.47847 0.87721 0.0
O1070 O 0.91594 0.42105 0.92023 0.0
H1071 H 0.0541 0.65485 0.88189 0.0
H1072 H 0.76782 0.36635 0.93708 0.0
O1073 O 0.77654 0.47501 0.94881 0.0
H1074 H 0.85215 0.34882 0.77159 0.0
H1075 H 0.85298 0.27512 0.00325 0.0
H1076 H 0.79887 0.45051 0.0355 0.0
H1077 H 0.87453 0.41792 0.82867 0.0
H1078 H 0.8836 0.34335 0.9501 0.0
O1079 O 0.90849 0.50245 0.78435 0.0
H1080 H 0.00321 0.57943 0.90297 0.0
H1081 H 0.93133 0.58926 0.75969 0.0
H1082 H 0.76578 0.38067 0.08833 0.0
H1083 H 0.74827 0.29285 0.88241 0.0
H1084 H 0.79165 0.29352 0.07286 0.0
H1085 H 0.78836 0.28536 0.79818 0.0
O1086 O 0.88264 0.50169 0.97632 0.0
H1087 H 0.75527 0.59921 0.76646 0.0
H1088 H 0.89775 0.64337 0.87827 0.0
H1089 H 0.83573 0.70899 0.8548 0.0
H1090 H 0.76399 0.68724 0.79832 0.0
H1091 H 0.81831 0.53468 0.79063 0.0
H1092 H -0.01349 0.65929 0.73501 0.0
H1093 H 0.04751 0.69371 0.79661 0.0
O1094 O 0.9157 0.56172 0.92396 0.0
C1095 C 0.95719 0.43624 0.90169 0.0
C1096 C 0.02893 0.63893 0.85425 0.0
C1097 C -0.00929 0.64182 0.77186 0.0
N1098 N 0.96475 0.57875 0.83249 0.0
C1099 C -0.00052 0.5966 0.86616 0.0
C1100 C 0.96041 0.60101 0.78573 0.0
C1101 C 0.02477 0.66127 0.80666 0.0
C1102 C 0.78543 0.36341 0.90035 0.0
N1103 N 0.82108 0.39785 0.88588 0.0
C1104 C 0.77402 0.32182 0.86957 0.0
C1105 C 0.79716 0.31706 0.8225 0.0
C1106 C 0.83267 0.35276 0.80742 0.0
C1107 C 0.84459 0.39256 0.8399 0.0
C1108 C 0.84087 0.31328 0.01091 0.0
C1109 C 0.81084 0.41217 0.02809 0.0
C1110 C 0.85963 0.35298 0.98172 0.0
N1111 N 0.84224 0.40145 -0.01157 0.0
C1112 C 0.79159 0.3731 0.0581 0.0
C1113 C 0.80627 0.32347 0.0492 0.0
C1114 C 0.9103 0.54149 0.96742 0.0
C1115 C 0.78641 0.60922 0.79102 0.0
C1116 C 0.86659 0.63342 0.85378 0.0
C1117 C 0.83156 0.67082 0.84061 0.0
C1118 C 0.79129 0.65857 0.80894 0.0
N1119 N 0.86203 0.58525 0.8354 0.0
C1120 C 0.82239 0.57288 0.80465 0.0
Co1121 Co 0.11569 -0.01696 0.92196 0.0
Co1122 Co 0.04363 0.90485 0.84328 0.0
O1123 O 0.1071 0.94073 0.86274 0.0
C1124 C 0.19969 0.93717 -0.0158 0.0
O1125 O 0.16745 0.93462 0.02172 0.0
C1126 C 0.05934 0.97131 0.75225 0.0
O1127 O 0.06131 0.01103 0.78193 0.0
O1128 O -0.00275 0.9665 0.85715 0.0
O1129 O 0.04901 0.02099 0.89658 0.0
H1130 H 0.88876 0.79667 0.86952 0.0
H1131 H 0.18424 0.97916 0.83353 0.0
O1132 O 0.18478 0.95244 0.94034 0.0
H1133 H 0.148 0.16045 0.85852 0.0
H1134 H 0.17919 0.12881 0.1055 0.0
H1135 H 0.03369 -0.01342 0.96703 0.0
H1136 H 0.11725 0.09744 0.91917 0.0
H1137 H 0.16755 0.08619 0.0489 0.0
O1138 O 0.05443 0.92718 0.77089 0.0
H1139 H 0.94484 0.86809 0.89031 0.0
H1140 H 0.01862 0.85005 0.74802 0.0
H1141 H 0.977 0.0599 0.0981 0.0
H1142 H 0.21136 0.04059 0.76911 0.0
H1143 H 0.01918 0.10255 0.14075 0.0
H1144 H 0.1948 0.13227 0.78202 0.0
O1145 O 0.08259 0.92275 0.96538 0.0
H1146 H 0.19498 0.81666 0.76904 0.0
H1147 H 0.04426 0.79671 0.87763 0.0
H1148 H 0.1018 0.72472 0.8647 0.0
H1149 H 0.17751 0.73379 0.81008 0.0
H1150 H 0.13793 0.88855 0.7843 0.0
H1151 H 0.95728 0.78587 0.72347 0.0
H1152 H 0.89276 0.75699 0.78518 0.0
O1153 O 0.02848 0.88213 0.91524 0.0
C1154 C 0.00515 0.01 0.87826 0.0
C1155 C 0.91575 0.81028 0.84215 0.0
C1156 C 0.95431 0.80383 0.76017 0.0
N1157 N -0.01436 0.86456 0.82066 0.0
C1158 C 0.9485 0.85023 0.85385 0.0
C1159 C -0.01173 0.84178 0.77404 0.0
C1160 C 0.91831 0.78748 0.79482 0.0
C1161 C 0.17585 0.01877 0.83927 0.0
N1162 N 0.14906 0.03423 0.88076 0.0
C1163 C 0.19169 0.05352 0.80266 0.0
C1164 C 0.18214 0.10487 0.80974 0.0
C1165 C 0.15601 0.12068 0.85269 0.0
C1166 C 0.13915 0.08462 0.88757 0.0
C1167 C 0.15248 0.10443 0.08241 0.0
C1168 C 0.05738 0.01061 -0.01071 0.0
C1169 C 0.16233 0.0631 0.0176 0.0
N1170 N 0.11904 0.02629 -0.01632 0.0
C1171 C 0.01722 0.06372 0.085 0.0
C1172 C 0.03924 0.08555 0.10676 0.0
C1173 C 0.04465 0.89227 0.95948 0.0
C1174 C 0.1621 0.81194 0.79303 0.0
C1175 C 0.07738 0.80148 0.85408 0.0
C1176 C 0.10983 0.7604 0.84686 0.0
C1177 C 0.15231 0.76558 0.81604 0.0
N1178 N 0.08731 0.84689 0.83152 0.0
C1179 C 0.12922 0.85247 0.8015 0.0
Co1180 Co 0.54022 0.84823 0.51023 0.0
Co1181 Co 0.61497 0.91521 0.42718 0.0
O1182 O 0.59583 0.85624 0.4647 0.0
C1183 C 0.49704 0.76196 0.44681 0.0
O1184 O 0.46678 0.79455 0.42469 0.0
C1185 C 0.70827 0.94981 0.47417 0.0
O1186 O 0.68525 -0.00614 0.47434 0.0
O1187 O 0.59224 0.96362 0.48456 0.0
O1188 O 0.54804 0.91552 0.53901 0.0
H1189 H 0.58639 0.06049 0.30851 0.0
H1190 H 0.54316 0.76999 0.59179 0.0
O1191 O 0.52912 0.7769 0.48055 0.0
H1192 H 0.70425 0.86038 0.60535 0.0
H1193 H 0.47828 0.84587 0.68828 0.0
H1194 H 0.43924 0.7892 0.51558 0.0
H1195 H 0.64352 0.88109 0.53864 0.0
H1196 H 0.52311 0.88229 0.61667 0.0
O1197 O 0.68543 0.9109 0.45703 0.0
H1198 H 0.56572 0.00809 0.38323 0.0
H1199 H 0.70971 0.93756 0.37179 0.0
H1200 H 0.39588 0.75056 0.5875 0.0
H1201 H 0.6017 0.74851 0.66193 0.0
H1202 H 0.41539 0.77767 0.67457 0.0
H1203 H 0.68373 0.79356 0.6681 0.0
O1204 O 0.49344 0.88293 0.45874 0.0
H1205 H 0.70213 0.76193 0.35454 0.0
H1206 H 0.5876 0.90483 0.31788 0.0
H1207 H 0.60664 0.84286 0.2509 0.0
H1208 H 0.66496 0.77125 0.2687 0.0
H1209 H 0.68082 0.82382 0.42103 0.0
H1210 H 0.73397 -0.00507 0.30337 0.0
H1211 H 0.67154 0.05647 0.27021 0.0
O1212 O 0.54503 0.92081 0.40046 0.0
C1213 C 0.56605 0.95747 0.52571 0.0
C1214 C 0.61437 0.0358 0.32452 0.0
C1215 C 0.6971 -0.00152 0.32094 0.0
N1216 N 0.63673 0.97066 0.38356 0.0
C1217 C 0.60273 0.00544 0.36633 0.0
C1218 C 0.68348 0.96704 0.36106 0.0
C1219 C 0.66198 0.03277 0.30222 0.0
C1220 C 0.5793 0.78749 0.59359 0.0
N1221 N 0.59048 0.82384 0.55909 0.0
C1222 C 0.61198 0.7765 0.63383 0.0
C1223 C 0.65782 0.80194 0.63751 0.0
C1224 C 0.66951 0.83908 0.60212 0.0
C1225 C 0.63509 0.84994 0.56352 0.0
C1226 C 0.46953 0.8333 0.65029 0.0
C1227 C 0.44966 0.80111 0.55276 0.0
C1228 C 0.49377 0.85516 0.60863 0.0
N1229 N 0.48611 0.83711 0.56035 0.0
C1230 C 0.42403 0.77922 0.59367 0.0
C1231 C 0.43471 0.79476 0.6427 0.0
C1232 C 0.50154 0.91233 0.41967 0.0
C1233 C 0.67704 0.79327 0.34616 0.0
C1234 C 0.61272 0.87362 0.32621 0.0
C1235 C 0.62359 0.83877 0.28796 0.0
C1236 C 0.65616 0.79848 0.29802 0.0
N1237 N 0.63345 0.86838 0.37336 0.0
C1238 C 0.66512 0.8287 0.38359 0.0
Co1239 Co 0.52807 0.11486 0.97279 0.0
Co1240 Co 0.60691 0.04141 0.04565 0.0
O1241 O 0.58812 0.10322 0.01189 0.0
C1242 C 0.48126 0.20581 0.01825 0.0
O1243 O 0.43884 0.18004 0.01985 0.0
C1244 C 0.69684 0.05792 0.97793 0.0
O1245 O 0.66677 0.05906 0.93843 0.0
O1246 O 0.58993 -0.00069 0.98225 0.0
O1247 O 0.53298 0.04824 0.94131 0.0
H1248 H 0.5772 0.89117 0.15846 0.0
H1249 H 0.61468 0.18661 0.97132 0.0
O1250 O 0.52209 0.18438 0.00361 0.0
H1251 H 0.59952 0.12534 0.79573 0.0
H1252 H 0.42381 0.21404 0.84858 0.0
H1253 H 0.43254 0.05887 0.95218 0.0
H1254 H 0.53894 0.09768 0.86098 0.0
H1255 H 0.49864 0.19523 0.9023 0.0
O1256 O 0.67883 0.05164 0.02215 0.0
H1257 H 0.55678 0.94574 0.08557 0.0
H1258 H 0.70349 0.01151 0.09553 0.0
H1259 H 0.35786 0.07652 0.90083 0.0
H1260 H 0.67814 0.21222 0.9078 0.0
H1261 H 0.35122 0.15493 0.85002 0.0
H1262 H 0.66982 0.1831 0.81894 0.0
O1263 O 0.48366 0.0836 0.02774 0.0
H1264 H 0.68453 0.18849 0.1381 0.0
H1265 H 0.57503 0.03832 0.15425 0.0
H1266 H 0.59097 0.09135 0.2284 0.0
H1267 H 0.6464 0.16685 0.2214 0.0
H1268 H 0.66703 0.13481 0.06403 0.0
H1269 H 0.72628 0.95298 0.1626 0.0
H1270 H 0.6627 0.89283 0.19578 0.0
O1271 O 0.53556 0.02985 0.06878 0.0
C1272 C 0.55844 0.00791 0.94542 0.0
C1273 C 0.6055 0.91586 0.14263 0.0
C1274 C 0.68911 0.95086 0.14552 0.0
N1275 N 0.62874 0.98206 0.08446 0.0
C1276 C 0.5941 0.94764 0.10173 0.0
C1277 C 0.67614 -0.0169 0.10576 0.0
C1278 C 0.65336 0.91731 0.16431 0.0
C1279 C 0.61076 0.17361 0.93276 0.0
N1280 N 0.57254 0.14125 0.91996 0.0
C1281 C 0.64669 0.18852 0.89688 0.0
C1282 C 0.64241 0.17157 0.84716 0.0
C1283 C 0.60305 0.13911 0.83414 0.0
C1284 C 0.56875 0.12368 0.87134 0.0
C1285 C 0.425 0.18051 0.87213 0.0
C1286 C 0.43043 0.09363 0.93064 0.0
C1287 C 0.46702 0.16996 0.90235 0.0
N1288 N 0.46901 0.12756 0.93164 0.0
C1289 C 0.38774 0.1034 0.90157 0.0
C1290 C 0.38447 0.14733 0.87271 0.0
C1291 C 0.49158 0.04724 0.05946 0.0
C1292 C 0.6607 0.15542 0.14199 0.0
C1293 C 0.59916 0.07105 0.15033 0.0
C1294 C 0.60812 0.10104 0.19274 0.0
C1295 C 0.63921 0.14338 0.18863 0.0
N1296 N 0.62066 0.08279 0.10478 0.0
C1297 C 0.65082 0.12463 0.10021 0.0
Co1298 Co 0.43186 0.35235 0.9731 0.0
Co1299 Co 0.3561 0.42627 0.04803 0.0
O1300 O 0.37331 0.36445 0.01381 0.0
C1301 C 0.4792 0.26146 0.01856 0.0
O1302 O 0.52159 0.2871 0.01919 0.0
C1303 C 0.26528 0.40935 0.98223 0.0
O1304 O 0.29493 0.40673 0.94242 0.0
O1305 O 0.37207 0.46866 -0.01557 0.0
O1306 O 0.42628 0.41901 0.94081 0.0
H1307 H 0.38758 0.57904 0.15616 0.0
H1308 H 0.34802 0.27693 0.97433 0.0
O1309 O 0.43827 0.28309 0.00478 0.0
H1310 H 0.35823 0.33628 0.7975 0.0
H1311 H 0.5258 0.25386 0.84179 0.0
H1312 H 0.52285 0.41077 0.94288 0.0
H1313 H 0.41627 0.36992 0.86197 0.0
H1314 H 0.46073 0.2684 0.90864 0.0
O1315 O 0.28376 0.41654 0.0261 0.0
H1316 H 0.40739 0.52163 0.08623 0.0
H1317 H 0.2613 0.45535 0.10119 0.0
H1318 H 0.58708 0.39849 0.87813 0.0
H1319 H 0.28881 0.24303 0.91084 0.0
H1320 H 0.58982 0.32046 0.82619 0.0
H1321 H 0.29432 0.27184 0.82161 0.0
O1322 O 0.47823 0.38416 0.02615 0.0
H1323 H 0.28479 0.27701 0.14294 0.0
H1324 H 0.39339 0.42794 0.15445 0.0
H1325 H 0.38714 0.37057 0.22655 0.0
H1326 H 0.33123 0.29505 0.22236 0.0
H1327 H 0.29464 0.3338 0.06942 0.0
H1328 H 0.23911 0.51613 0.16656 0.0
H1329 H 0.30239 0.57856 0.19538 0.0
O1330 O 0.42792 0.43763 0.06932 0.0
C1331 C 0.40236 0.46007 0.94651 0.0
C1332 C 0.35931 0.55321 0.14278 0.0
C1333 C 0.27598 0.51787 0.14871 0.0
N1334 N 0.33542 0.48529 0.08742 0.0
C1335 C 0.37036 0.51995 0.10319 0.0
C1336 C 0.28856 0.48431 0.10999 0.0
C1337 C 0.31167 0.55256 0.1652 0.0
C1338 C 0.35072 0.28982 0.93558 0.0
N1339 N 0.38612 0.32502 0.92201 0.0
C1340 C 0.31703 0.27043 0.89981 0.0
C1341 C 0.31988 0.28691 0.84978 0.0
C1342 C 0.35572 0.32307 0.83624 0.0
C1343 C 0.38838 0.34213 0.87308 0.0
C1344 C 0.52597 0.28791 0.86451 0.0
C1345 C 0.52382 0.37585 0.92158 0.0
C1346 C 0.48999 0.29559 0.90247 0.0
N1347 N 0.48898 0.33912 0.9299 0.0
C1348 C 0.56001 0.36943 0.88415 0.0
C1349 C 0.5614 0.32541 0.85533 0.0
C1350 C 0.47145 0.42007 0.05868 0.0
C1351 C 0.30834 0.31029 0.14569 0.0
C1352 C 0.36937 0.39506 0.15142 0.0
C1353 C 0.36558 0.36276 0.19293 0.0
C1354 C 0.33458 0.3203 0.19023 0.0
N1355 N 0.34412 0.38473 0.10755 0.0
C1356 C 0.31379 0.34292 0.10435 0.0
Co1357 Co 0.922 0.11566 -0.01698 0.0
Co1358 Co 0.84332 0.0436 0.90483 0.0
O1359 O 0.86279 0.10708 0.94071 0.0
C1360 C -0.01575 0.19966 0.93716 0.0
O1361 O 0.02176 0.16743 0.93461 0.0
C1362 C 0.7523 0.05931 0.97129 0.0
O1363 O 0.78197 0.06128 0.01101 0.0
O1364 O 0.8572 -0.00278 0.96648 0.0
O1365 O 0.89663 0.04899 0.02097 0.0
H1366 H 0.86957 0.88874 0.79665 0.0
H1367 H 0.83358 0.18421 0.97914 0.0
O1368 O 0.94038 0.18475 0.95242 0.0
H1369 H 0.85857 0.14797 0.16043 0.0
H1370 H 0.10555 0.17916 0.1288 0.0
H1371 H 0.96707 0.03366 -0.01344 0.0
H1372 H 0.91922 0.11723 0.09742 0.0
H1373 H 0.04894 0.16751 0.08617 0.0
O1374 O 0.77093 0.0544 0.92716 0.0
H1375 H 0.89036 0.94481 0.86807 0.0
H1376 H 0.74806 0.0186 0.85003 0.0
H1377 H 0.09815 0.97697 0.05988 0.0
H1378 H 0.76915 0.21133 0.04057 0.0
H1379 H 0.14079 0.01915 0.10254 0.0
H1380 H 0.78207 0.19477 0.13226 0.0
O1381 O 0.96543 0.08257 0.92273 0.0
H1382 H 0.76909 0.19496 0.81665 0.0
H1383 H 0.87767 0.04423 0.79669 0.0
H1384 H 0.86473 0.10177 0.7247 0.0
H1385 H 0.81012 0.17749 0.73377 0.0
H1386 H 0.78435 0.1379 0.88853 0.0
H1387 H 0.72351 0.95726 0.78584 0.0
H1388 H 0.78523 0.89274 0.75696 0.0
O1389 O 0.91529 0.02845 0.88211 0.0
C1390 C 0.8783 0.00513 0.00998 0.0
C1391 C 0.84219 0.91573 0.81026 0.0
C1392 C 0.76021 0.95429 0.80381 0.0
N1393 N 0.8207 -0.01438 0.86454 0.0
C1394 C 0.85389 0.94848 0.8502 0.0
C1395 C 0.77408 -0.01175 0.84176 0.0
C1396 C 0.79487 0.91829 0.78746 0.0
C1397 C 0.83931 0.17583 0.01876 0.0
N1398 N 0.88081 0.14904 0.03422 0.0
C1399 C 0.8027 0.19167 0.0535 0.0
C1400 C 0.80979 0.18211 0.10485 0.0
C1401 C 0.85274 0.15598 0.12066 0.0
C1402 C 0.88762 0.13912 0.0846 0.0
C1403 C 0.08246 0.15244 0.10442 0.0
C1404 C -0.01067 0.05735 0.0106 0.0
C1405 C 0.01765 0.1623 0.06309 0.0
N1406 N -0.01627 0.11901 0.02627 0.0
C1407 C 0.08505 0.01719 0.06371 0.0
C1408 C 0.10681 0.03921 0.08553 0.0
C1409 C 0.95953 0.04462 0.89225 0.0
C1410 C 0.79307 0.16208 0.81193 0.0
C1411 C 0.85411 0.07735 0.80146 0.0
C1412 C 0.8469 0.1098 0.76038 0.0
C1413 C 0.81609 0.15228 0.76556 0.0
N1414 N 0.83156 0.08728 0.84687 0.0
C1415 C 0.80154 0.1292 0.85245 0.0
loop_
_geom_bond_atom_site_label_1
_geom_bond_atom_site_label_2
_geom_bond_distance
_geom_bond_site_symmetry_2
_ccdc_geom_bond_type
Co0 O2 2.143 . S
Co0 O8 2.074 . S
Co0 O11 2.093 1_545 S
Co0 O24 2.097 1_445 S
Co0 N41 2.151 . S
Co0 N49 2.214 1_545 S
Co1 O2 2.160 1_655 S
Co1 O7 2.058 1_655 S
Co1 O17 2.057 . S
Co1 O32 2.037 . S
Co1 N36 2.145 . S
Co1 N57 2.257 . S
O2 Co0 2.143 . S
O2 Co1 2.160 1_455 S
C3 O4 1.278 . S
C3 O11 1.224 1_645 S
O4 C3 1.278 . S
C5 O6 1.239 1_655 S
C5 O17 1.237 . S
O6 C5 1.239 1_455 S
O7 Co1 2.058 1_455 S
O7 C33 1.269 . S
O8 Co0 2.074 . S
O8 C33 1.257 . S
H9 C34 0.930 . S
H10 C40 0.930 . S
O11 Co0 2.093 1_565 S
O11 C3 1.224 1_465 S
H12 C44 0.929 . S
H13 C46 0.930 . S
H14 C47 0.930 . S
H15 C45 0.929 . S
H16 C48 0.928 . S
O17 Co1 2.057 . S
O17 C5 1.237 . S
H18 C37 0.929 . S
H19 C38 0.929 . S
H20 C50 0.931 . S
H21 C42 0.929 . S
H22 C51 0.930 . S
H23 C43 0.931 . S
O24 Co0 2.097 1_665 S
O24 C52 1.214 . S
H25 C53 0.929 . S
H26 C54 0.929 . S
H27 C55 0.930 . S
H28 C56 0.929 . S
H29 C58 0.930 . S
H30 C35 0.930 . S
H31 C39 0.930 . S
O32 Co1 2.037 . S
O32 C52 1.234 1_545 S
C33 O7 1.269 . S
C33 O8 1.257 . S
C34 H9 0.930 . S
C34 C37 1.388 . S
C34 C39 1.418 . S
C35 H30 0.930 . S
C35 C38 1.404 . S
C35 C39 1.353 . S
N36 Co1 2.145 . S
N36 C37 1.397 . S
N36 C38 1.334 . S
C37 H18 0.929 . S
C37 C34 1.388 . S
C37 N36 1.397 . S
C38 H19 0.929 . S
C38 C35 1.404 . S
C38 N36 1.334 . S
C39 H31 0.930 . S
C39 C34 1.418 . S
C39 C35 1.353 . S
C40 H10 0.930 . S
C40 N41 1.330 . S
C40 C42 1.446 . S
N41 Co0 2.151 . S
N41 C40 1.330 . S
N41 C45 1.418 . S
C42 H21 0.929 . S
C42 C40 1.446 . S
C42 C43 1.332 . S
C43 H23 0.931 . S
C43 C42 1.332 . S
C43 C44 1.267 . S
C44 H12 0.929 . S
C44 C43 1.267 . S
C44 C45 1.251 . S
C45 H15 0.929 . S
C45 N41 1.418 . S
C45 C44 1.251 . S
C46 H13 0.930 . S
C46 C48 1.406 . S
C46 C51 1.261 . S
C47 H14 0.930 . S
C47 N49 1.325 . S
C47 C50 1.357 . S
C48 H16 0.928 . S
C48 C46 1.406 . S
C48 N49 1.261 . S
N49 Co0 2.214 1_565 S
N49 C47 1.325 . S
N49 C48 1.261 . S
C50 H20 0.931 . S
C50 C47 1.357 . S
C50 C51 1.312 . S
C51 H22 0.930 . S
C51 C46 1.261 . S
C51 C50 1.312 . S
C52 O24 1.214 . S
C52 O32 1.234 1_565 S
C53 H25 0.929 . S
C53 C56 1.391 . S
C53 C58 1.391 . S
C54 H26 0.929 . S
C54 C55 1.390 . S
C54 N57 1.391 . S
C55 H27 0.930 . S
C55 C54 1.390 . S
C55 C56 1.392 . S
C56 H28 0.929 . S
C56 C53 1.391 . S
C56 C55 1.392 . S
N57 Co1 2.257 . S
N57 C54 1.391 . S
N57 C58 1.388 . S
C58 H29 0.930 . S
C58 C53 1.391 . S
C58 N57 1.388 . S
Co59 O61 2.143 . S
Co59 O67 2.074 . S
Co59 O70 2.093 . S
Co59 O83 2.097 1_655 S
Co59 N100 2.151 . S
Co59 N108 2.214 . S
Co60 O61 2.160 1_455 S
Co60 O66 2.058 1_455 S
Co60 O76 2.057 . S
Co60 O91 2.037 . S
Co60 N95 2.145 . S
Co60 N116 2.257 . S
O61 Co59 2.143 . S
O61 Co60 2.160 1_655 S
C62 O63 1.278 . S
C62 O70 1.224 1_455 S
O63 C62 1.278 . S
C64 O65 1.245 1_455 S
C64 O76 1.232 . S
O65 C64 1.245 1_655 S
O66 Co60 2.058 1_655 S
O66 C92 1.269 . S
O67 Co59 2.074 . S
O67 C92 1.257 . S
H68 C93 0.930 . S
H69 C99 0.930 . S
O70 Co59 2.093 . S
O70 C62 1.224 1_655 S
H71 C103 0.929 . S
H72 C105 0.930 . S
H73 C106 0.930 . S
H74 C104 0.929 . S
H75 C107 0.928 . S
O76 Co60 2.057 . S
O76 C64 1.232 . S
H77 C96 0.929 . S
H78 C97 0.929 . S
H79 C109 0.931 . S
H80 C101 0.929 . S
H81 C110 0.930 . S
H82 C102 0.931 . S
O83 Co59 2.097 1_455 S
O83 C111 1.214 . S
H84 C112 0.929 . S
H85 C113 0.929 . S
H86 C114 0.930 . S
H87 C115 0.929 . S
H88 C117 0.930 . S
H89 C94 0.930 . S
H90 C98 0.930 . S
O91 Co60 2.037 . S
O91 C111 1.234 . S
C92 O66 1.269 . S
C92 O67 1.257 . S
C93 H68 0.930 . S
C93 C96 1.388 . S
C93 C98 1.418 . S
C94 H89 0.930 . S
C94 C97 1.404 . S
C94 C98 1.353 . S
N95 Co60 2.145 . S
N95 C96 1.397 . S
N95 C97 1.334 . S
C96 H77 0.929 . S
C96 C93 1.388 . S
C96 N95 1.397 . S
C97 H78 0.929 . S
C97 C94 1.404 . S
C97 N95 1.334 . S
C98 H90 0.930 . S
C98 C93 1.418 . S
C98 C94 1.353 . S
C99 H69 0.930 . S
C99 N100 1.330 . S
C99 C101 1.446 . S
N100 Co59 2.151 . S
N100 C99 1.330 . S
N100 C104 1.418 . S
C101 H80 0.929 . S
C101 C99 1.446 . S
C101 C102 1.332 . S
C102 H82 0.931 . S
C102 C101 1.332 . S
C102 C103 1.267 . S
C103 H71 0.929 . S
C103 C102 1.267 . S
C103 C104 1.251 . S
C104 H74 0.929 . S
C104 N100 1.418 . S
C104 C103 1.251 . S
C105 H72 0.930 . S
C105 C107 1.406 . S
C105 C110 1.261 . S
C106 H73 0.930 . S
C106 N108 1.325 . S
C106 C109 1.357 . S
C107 H75 0.928 . S
C107 C105 1.406 . S
C107 N108 1.261 . S
N108 Co59 2.214 . S
N108 C106 1.325 . S
N108 C107 1.261 . S
C109 H79 0.931 . S
C109 C106 1.357 . S
C109 C110 1.312 . S
C110 H81 0.930 . S
C110 C105 1.261 . S
C110 C109 1.312 . S
C111 O83 1.214 . S
C111 O91 1.234 . S
C112 H84 0.929 . S
C112 C115 1.391 . S
C112 C117 1.391 . S
C113 H85 0.929 . S
C113 C114 1.390 . S
C113 N116 1.391 . S
C114 H86 0.930 . S
C114 C113 1.390 . S
C114 C115 1.392 . S
C115 H87 0.929 . S
C115 C112 1.391 . S
C115 C114 1.392 . S
N116 Co60 2.257 . S
N116 C113 1.391 . S
N116 C117 1.388 . S
C117 H88 0.930 . S
C117 C112 1.391 . S
C117 N116 1.388 . S
Co118 O120 2.143 . S
Co118 O126 2.074 . S
Co118 O129 2.093 . S
Co118 O142 2.097 1_465 S
Co118 N159 2.151 . S
Co118 N167 2.214 1_565 S
Co119 O120 2.160 1_655 S
Co119 O125 2.058 1_655 S
Co119 O135 2.057 . S
Co119 O150 2.037 . S
Co119 N154 2.145 . S
Co119 N175 2.257 . S
O120 Co118 2.143 . S
O120 Co119 2.160 1_455 S
C121 O122 1.278 . S
C121 O129 1.224 1_655 S
O122 C121 1.278 . S
C123 O124 1.245 1_655 S
C123 O135 1.232 . S
O124 C123 1.245 1_455 S
O125 Co119 2.058 1_455 S
O125 C151 1.269 . S
O126 Co118 2.074 . S
O126 C151 1.257 . S
H127 C152 0.930 . S
H128 C158 0.930 . S
O129 Co118 2.093 . S
O129 C121 1.224 1_455 S
H130 C162 0.929 . S
H131 C164 0.930 . S
H132 C165 0.930 . S
H133 C163 0.929 . S
H134 C166 0.928 . S
O135 Co119 2.057 . S
O135 C123 1.232 . S
H136 C155 0.929 . S
H137 C156 0.929 . S
H138 C168 0.931 . S
H139 C160 0.929 . S
H140 C169 0.930 . S
H141 C161 0.931 . S
O142 Co118 2.097 1_645 S
O142 C170 1.214 . S
H143 C171 0.929 . S
H144 C172 0.929 . S
H145 C173 0.930 . S
H146 C174 0.929 . S
H147 C176 0.930 . S
H148 C153 0.930 . S
H149 C157 0.930 . S
O150 Co119 2.037 . S
O150 C170 1.234 1_565 S
C151 O125 1.269 . S
C151 O126 1.257 . S
C152 H127 0.930 . S
C152 C155 1.388 . S
C152 C157 1.418 . S
C153 H148 0.930 . S
C153 C156 1.404 1_556 S
C153 C157 1.353 . S
N154 Co119 2.145 . S
N154 C155 1.397 1_554 S
N154 C156 1.334 . S
C155 H136 0.929 . S
C155 C152 1.388 . S
C155 N154 1.397 1_556 S
C156 H137 0.929 . S
C156 C153 1.404 1_554 S
C156 N154 1.334 . S
C157 H149 0.930 . S
C157 C152 1.418 . S
C157 C153 1.353 . S
C158 H128 0.930 . S
C158 N159 1.330 . S
C158 C160 1.446 . S
N159 Co118 2.151 . S
N159 C158 1.330 . S
N159 C163 1.418 . S
C160 H139 0.929 . S
C160 C158 1.446 . S
C160 C161 1.332 . S
C161 H141 0.931 . S
C161 C160 1.332 . S
C161 C162 1.267 . S
C162 H130 0.929 . S
C162 C161 1.267 . S
C162 C163 1.251 . S
C163 H133 0.929 . S
C163 N159 1.418 . S
C163 C162 1.251 . S
C164 H131 0.930 . S
C164 C166 1.406 . S
C164 C169 1.261 . S
C165 H132 0.930 . S
C165 N167 1.325 . S
C165 C168 1.357 . S
C166 H134 0.928 . S
C166 C164 1.406 . S
C166 N167 1.261 . S
N167 Co118 2.214 1_545 S
N167 C165 1.325 . S
N167 C166 1.261 . S
C168 H138 0.931 . S
C168 C165 1.357 . S
C168 C169 1.312 . S
C169 H140 0.930 . S
C169 C164 1.261 . S
C169 C168 1.312 . S
C170 O142 1.214 . S
C170 O150 1.234 1_545 S
C171 H143 0.929 . S
C171 C174 1.391 . S
C171 C176 1.391 . S
C172 H144 0.929 . S
C172 C173 1.390 . S
C172 N175 1.391 . S
C173 H145 0.930 . S
C173 C172 1.390 . S
C173 C174 1.392 . S
C174 H146 0.929 . S
C174 C171 1.391 . S
C174 C173 1.392 . S
N175 Co119 2.257 . S
N175 C172 1.391 . S
N175 C176 1.388 . S
C176 H147 0.930 . S
C176 C171 1.391 . S
C176 N175 1.388 . S
Co177 O179 2.143 . S
Co177 O185 2.074 . S
Co177 O188 2.093 . S
Co177 O201 2.097 1_655 S
Co177 N218 2.151 . S
Co177 N226 2.214 . S
Co178 O179 2.160 1_455 S
Co178 O184 2.058 1_455 S
Co178 O194 2.057 . S
Co178 O209 2.037 . S
Co178 N213 2.145 . S
Co178 N234 2.257 . S
O179 Co177 2.143 . S
O179 Co178 2.160 1_655 S
C180 O181 1.278 . S
C180 O188 1.224 1_455 S
O181 C180 1.278 . S
C182 O183 1.245 1_455 S
C182 O194 1.232 . S
O183 C182 1.245 1_655 S
O184 Co178 2.058 1_655 S
O184 C210 1.269 . S
O185 Co177 2.074 . S
O185 C210 1.257 . S
H186 C211 0.930 . S
H187 C217 0.930 . S
O188 Co177 2.093 . S
O188 C180 1.224 1_655 S
H189 C221 0.929 . S
H190 C223 0.930 . S
H191 C224 0.930 . S
H192 C222 0.929 . S
H193 C225 0.928 . S
O194 Co178 2.057 . S
O194 C182 1.232 . S
H195 C214 0.929 . S
H196 C215 0.929 . S
H197 C227 0.931 . S
H198 C219 0.929 . S
H199 C228 0.930 . S
H200 C220 0.931 . S
O201 Co177 2.097 1_455 S
O201 C229 1.214 . S
H202 C230 0.929 . S
H203 C231 0.929 . S
H204 C232 0.930 . S
H205 C233 0.929 . S
H206 C235 0.930 . S
H207 C212 0.930 . S
H208 C216 0.930 . S
O209 Co178 2.037 . S
O209 C229 1.234 . S
C210 O184 1.269 . S
C210 O185 1.257 . S
C211 H186 0.930 . S
C211 C214 1.388 . S
C211 C216 1.418 . S
C212 H207 0.930 . S
C212 C215 1.404 1_556 S
C212 C216 1.353 . S
N213 Co178 2.145 . S
N213 C214 1.397 1_554 S
N213 C215 1.334 . S
C214 H195 0.929 . S
C214 C211 1.388 . S
C214 N213 1.397 1_556 S
C215 H196 0.929 . S
C215 C212 1.404 1_554 S
C215 N213 1.334 . S
C216 H208 0.930 . S
C216 C211 1.418 . S
C216 C212 1.353 . S
C217 H187 0.930 . S
C217 N218 1.330 . S
C217 C219 1.446 . S
N218 Co177 2.151 . S
N218 C217 1.330 . S
N218 C222 1.418 . S
C219 H198 0.929 . S
C219 C217 1.446 . S
C219 C220 1.332 . S
C220 H200 0.931 . S
C220 C219 1.332 . S
C220 C221 1.267 . S
C221 H189 0.929 . S
C221 C220 1.267 . S
C221 C222 1.251 . S
C222 H192 0.929 . S
C222 N218 1.418 . S
C222 C221 1.251 . S
C223 H190 0.930 . S
C223 C225 1.406 . S
C223 C228 1.261 . S
C224 H191 0.930 . S
C224 N226 1.325 . S
C224 C227 1.357 . S
C225 H193 0.928 . S
C225 C223 1.406 . S
C225 N226 1.261 . S
N226 Co177 2.214 . S
N226 C224 1.325 . S
N226 C225 1.261 . S
C227 H197 0.931 . S
C227 C224 1.357 . S
C227 C228 1.312 . S
C228 H199 0.930 . S
C228 C223 1.261 . S
C228 C227 1.312 . S
C229 O201 1.214 . S
C229 O209 1.234 . S
C230 H202 0.929 . S
C230 C233 1.391 . S
C230 C235 1.391 . S
C231 H203 0.929 . S
C231 C232 1.390 . S
C231 N234 1.391 . S
C232 H204 0.930 . S
C232 C231 1.390 . S
C232 C233 1.392 . S
C233 H205 0.929 . S
C233 C230 1.391 . S
C233 C232 1.392 . S
N234 Co178 2.257 . S
N234 C231 1.391 . S
N234 C235 1.388 . S
C235 H206 0.930 . S
C235 C230 1.391 . S
C235 N234 1.388 . S
Co236 O238 2.143 . S
Co236 O244 2.074 . S
Co236 O247 2.093 1_554 S
Co236 O260 2.097 1_544 S
Co236 N277 2.151 . S
Co236 N285 2.214 1_554 S
Co237 O238 2.160 1_565 S
Co237 O243 2.058 1_565 S
Co237 O253 2.057 . S
Co237 O268 2.037 . S
Co237 N272 2.145 . S
Co237 N293 2.257 . S
O238 Co236 2.143 . S
O238 Co237 2.160 1_545 S
C239 O240 1.278 . S
C239 O247 1.224 1_564 S
O240 C239 1.278 . S
C241 O242 1.239 1_565 S
C241 O253 1.237 . S
O242 C241 1.239 1_545 S
O243 Co237 2.058 1_545 S
O243 C269 1.269 . S
O244 Co236 2.074 . S
O244 C269 1.257 . S
H245 C270 0.930 . S
H246 C276 0.930 . S
O247 Co236 2.093 1_556 S
O247 C239 1.224 1_546 S
H248 C280 0.929 . S
H249 C282 0.930 . S
H250 C283 0.930 . S
H251 C281 0.929 . S
H252 C284 0.928 . S
O253 Co237 2.057 . S
O253 C241 1.237 . S
H254 C273 0.929 . S
H255 C274 0.929 . S
H256 C286 0.931 . S
H257 C278 0.929 . S
H258 C287 0.930 . S
H259 C279 0.931 . S
O260 Co236 2.097 1_566 S
O260 C288 1.214 . S
H261 C289 0.929 . S
H262 C290 0.929 . S
H263 C291 0.930 . S
H264 C292 0.929 . S
H265 C294 0.930 . S
H266 C271 0.930 . S
H267 C275 0.930 . S
O268 Co237 2.037 . S
O268 C288 1.234 1_554 S
C269 O243 1.269 . S
C269 O244 1.257 . S
C270 H245 0.930 . S
C270 C273 1.388 . S
C270 C275 1.418 . S
C271 H266 0.930 . S
C271 C274 1.404 . S
C271 C275 1.353 . S
N272 Co237 2.145 . S
N272 C273 1.397 . S
N272 C274 1.334 . S
C273 H254 0.929 . S
C273 C270 1.388 . S
C273 N272 1.397 . S
C274 H255 0.929 . S
C274 C271 1.404 . S
C274 N272 1.334 . S
C275 H267 0.930 . S
C275 C270 1.418 . S
C275 C271 1.353 . S
C276 H246 0.930 . S
C276 N277 1.330 . S
C276 C278 1.446 . S
N277 Co236 2.151 . S
N277 C276 1.330 . S
N277 C281 1.418 . S
C278 H257 0.929 . S
C278 C276 1.446 . S
C278 C279 1.332 . S
C279 H259 0.931 . S
C279 C278 1.332 . S
C279 C280 1.267 . S
C280 H248 0.929 . S
C280 C279 1.267 . S
C280 C281 1.251 . S
C281 H251 0.929 . S
C281 N277 1.418 . S
C281 C280 1.251 . S
C282 H249 0.930 . S
C282 C284 1.406 . S
C282 C287 1.261 . S
C283 H250 0.930 . S
C283 N285 1.325 . S
C283 C286 1.357 . S
C284 H252 0.928 . S
C284 C282 1.406 . S
C284 N285 1.261 . S
N285 Co236 2.214 1_556 S
N285 C283 1.325 . S
N285 C284 1.261 . S
C286 H256 0.931 . S
C286 C283 1.357 . S
C286 C287 1.312 . S
C287 H258 0.930 . S
C287 C282 1.261 . S
C287 C286 1.312 . S
C288 O260 1.214 . S
C288 O268 1.234 1_556 S
C289 H261 0.929 . S
C289 C292 1.391 . S
C289 C294 1.391 . S
C290 H262 0.929 . S
C290 C291 1.390 . S
C290 N293 1.391 . S
C291 H263 0.930 . S
C291 C290 1.390 . S
C291 C292 1.392 . S
C292 H264 0.929 . S
C292 C289 1.391 . S
C292 C291 1.392 . S
N293 Co237 2.257 . S
N293 C290 1.391 . S
N293 C294 1.388 . S
C294 H265 0.930 . S
C294 C289 1.391 . S
C294 N293 1.388 . S
Co295 O297 2.143 . S
Co295 O303 2.074 . S
Co295 O306 2.094 . S
Co295 O319 2.097 1_554 S
Co295 N336 2.151 . S
Co295 N344 2.214 1_554 S
Co296 O297 2.160 . S
Co296 O302 2.058 . S
Co296 O312 2.057 . S
Co296 O327 2.037 . S
Co296 N331 2.145 . S
Co296 N352 2.257 . S
O297 Co295 2.143 . S
O297 Co296 2.160 . S
C298 O299 1.278 . S
C298 O306 1.231 . S
O299 C298 1.278 . S
C300 O301 1.245 . S
C300 O312 1.232 . S
O301 C300 1.245 . S
O302 Co296 2.058 . S
O302 C328 1.269 . S
O303 Co295 2.074 . S
O303 C328 1.257 . S
H304 C329 0.930 . S
H305 C335 0.930 . S
O306 Co295 2.094 . S
O306 C298 1.231 . S
H307 C339 0.929 . S
H308 C341 0.930 . S
H309 C342 0.930 . S
H310 C340 0.929 1_556 S
H311 C343 0.928 . S
O312 Co296 2.057 . S
O312 C300 1.232 . S
H313 C332 0.929 . S
H314 C333 0.929 . S
H315 C345 0.931 . S
H316 C337 0.929 . S
H317 C346 0.930 . S
H318 C338 0.931 . S
O319 Co295 2.097 1_556 S
O319 C347 1.214 1_556 S
H320 C348 0.929 . S
H321 C349 0.929 . S
H322 C350 0.930 . S
H323 C351 0.929 . S
H324 C353 0.930 . S
H325 C330 0.930 . S
H326 C334 0.930 . S
O327 Co296 2.037 . S
O327 C347 1.234 . S
C328 O302 1.269 . S
C328 O303 1.257 . S
C329 H304 0.930 . S
C329 C332 1.388 . S
C329 C334 1.418 . S
C330 H325 0.930 . S
C330 C333 1.404 . S
C330 C334 1.353 . S
N331 Co296 2.145 . S
N331 C332 1.397 . S
N331 C333 1.334 . S
C332 H313 0.929 . S
C332 C329 1.388 . S
C332 N331 1.397 . S
C333 H314 0.929 . S
C333 C330 1.404 . S
C333 N331 1.334 . S
C334 H326 0.930 . S
C334 C329 1.418 . S
C334 C330 1.353 . S
C335 H305 0.930 . S
C335 N336 1.330 . S
C335 C337 1.446 . S
N336 Co295 2.151 . S
N336 C335 1.330 . S
N336 C340 1.418 . S
C337 H316 0.929 . S
C337 C335 1.446 . S
C337 C338 1.332 . S
C338 H318 0.931 . S
C338 C337 1.332 . S
C338 C339 1.267 . S
C339 H307 0.929 . S
C339 C338 1.267 . S
C339 C340 1.251 . S
C340 H310 0.929 1_554 S
C340 N336 1.418 . S
C340 C339 1.251 . S
C341 H308 0.930 . S
C341 C343 1.406 . S
C341 C346 1.261 . S
C342 H309 0.930 . S
C342 N344 1.325 . S
C342 C345 1.357 . S
C343 H311 0.928 . S
C343 C341 1.406 . S
C343 N344 1.261 . S
N344 Co295 2.214 1_556 S
N344 C342 1.325 . S
N344 C343 1.261 . S
C345 H315 0.931 . S
C345 C342 1.357 . S
C345 C346 1.312 . S
C346 H317 0.930 . S
C346 C341 1.261 . S
C346 C345 1.312 . S
C347 O319 1.214 1_554 S
C347 O327 1.234 . S
C348 H320 0.929 . S
C348 C351 1.391 . S
C348 C353 1.391 . S
C349 H321 0.929 . S
C349 C350 1.390 . S
C349 N352 1.391 . S
C350 H322 0.930 . S
C350 C349 1.390 . S
C350 C351 1.392 . S
C351 H323 0.929 . S
C351 C348 1.391 . S
C351 C350 1.392 . S
N352 Co296 2.257 . S
N352 C349 1.391 . S
N352 C353 1.388 . S
C353 H324 0.930 . S
C353 C348 1.391 . S
C353 N352 1.388 . S
Co354 O356 2.143 . S
Co354 O362 2.074 . S
Co354 O365 2.093 . S
Co354 O378 2.097 1_565 S
Co354 N395 2.151 . S
Co354 N403 2.214 . S
Co355 O356 2.160 1_545 S
Co355 O361 2.058 1_545 S
Co355 O371 2.057 . S
Co355 O386 2.037 . S
Co355 N390 2.145 . S
Co355 N411 2.257 . S
O356 Co354 2.143 . S
O356 Co355 2.160 1_565 S
C357 O358 1.278 . S
C357 O365 1.224 1_545 S
O358 C357 1.278 . S
C359 O360 1.245 1_545 S
C359 O371 1.232 . S
O360 C359 1.245 1_565 S
O361 Co355 2.058 1_565 S
O361 C387 1.269 . S
O362 Co354 2.074 . S
O362 C387 1.257 . S
H363 C388 0.930 . S
H364 C394 0.930 . S
O365 Co354 2.093 . S
O365 C357 1.224 1_565 S
H366 C398 0.929 . S
H367 C400 0.930 . S
H368 C401 0.930 . S
H369 C399 0.929 . S
H370 C402 0.928 . S
O371 Co355 2.057 . S
O371 C359 1.232 . S
H372 C391 0.929 . S
H373 C392 0.929 . S
H374 C404 0.931 . S
H375 C396 0.929 . S
H376 C405 0.930 . S
H377 C397 0.931 . S
O378 Co354 2.097 1_545 S
O378 C406 1.214 . S
H379 C407 0.929 . S
H380 C408 0.929 . S
H381 C409 0.930 . S
H382 C410 0.929 . S
H383 C412 0.930 . S
H384 C389 0.930 . S
H385 C393 0.930 . S
O386 Co355 2.037 . S
O386 C406 1.234 . S
C387 O361 1.269 . S
C387 O362 1.257 . S
C388 H363 0.930 . S
C388 C391 1.388 . S
C388 C393 1.418 . S
C389 H384 0.930 . S
C389 C392 1.404 . S
C389 C393 1.353 . S
N390 Co355 2.145 . S
N390 C391 1.397 . S
N390 C392 1.334 . S
C391 H372 0.929 . S
C391 C388 1.388 . S
C391 N390 1.397 . S
C392 H373 0.929 . S
C392 C389 1.404 . S
C392 N390 1.334 . S
C393 H385 0.930 . S
C393 C388 1.418 . S
C393 C389 1.353 . S
C394 H364 0.930 . S
C394 N395 1.330 . S
C394 C396 1.446 . S
N395 Co354 2.151 . S
N395 C394 1.330 . S
N395 C399 1.418 . S
C396 H375 0.929 . S
C396 C394 1.446 . S
C396 C397 1.332 . S
C397 H377 0.931 . S
C397 C396 1.332 . S
C397 C398 1.267 . S
C398 H366 0.929 . S
C398 C397 1.267 . S
C398 C399 1.251 . S
C399 H369 0.929 . S
C399 N395 1.418 . S
C399 C398 1.251 . S
C400 H367 0.930 . S
C400 C402 1.406 . S
C400 C405 1.261 . S
C401 H368 0.930 . S
C401 N403 1.325 . S
C401 C404 1.357 . S
C402 H370 0.928 . S
C402 C400 1.406 . S
C402 N403 1.261 . S
N403 Co354 2.214 . S
N403 C401 1.325 . S
N403 C402 1.261 . S
C404 H374 0.931 . S
C404 C401 1.357 . S
C404 C405 1.312 . S
C405 H376 0.930 . S
C405 C400 1.261 . S
C405 C404 1.312 . S
C406 O378 1.214 . S
C406 O386 1.234 . S
C407 H379 0.929 . S
C407 C410 1.391 . S
C407 C412 1.391 . S
C408 H380 0.929 . S
C408 C409 1.390 . S
C408 N411 1.391 . S
C409 H381 0.930 . S
C409 C408 1.390 . S
C409 C410 1.392 . S
C410 H382 0.929 . S
C410 C407 1.391 . S
C410 C409 1.392 . S
N411 Co355 2.257 . S
N411 C408 1.391 . S
N411 C412 1.388 . S
C412 H383 0.930 . S
C412 C407 1.391 . S
C412 N411 1.388 . S
Co413 O415 2.143 . S
Co413 O421 2.074 . S
Co413 O424 2.093 . S
Co413 O437 2.097 . S
Co413 N454 2.151 . S
Co413 N462 2.214 . S
Co414 O415 2.160 . S
Co414 O420 2.058 . S
Co414 O430 2.057 . S
Co414 O445 2.037 . S
Co414 N449 2.145 . S
Co414 N470 2.257 . S
O415 Co413 2.143 . S
O415 Co414 2.160 . S
C416 O417 1.278 . S
C416 O424 1.224 . S
O417 C416 1.278 . S
C418 O419 1.245 . S
C418 O430 1.232 . S
O419 C418 1.245 . S
O420 Co414 2.058 . S
O420 C446 1.269 . S
O421 Co413 2.074 . S
O421 C446 1.257 . S
H422 C447 0.930 . S
H423 C453 0.930 . S
O424 Co413 2.093 . S
O424 C416 1.224 . S
H425 C457 0.929 . S
H426 C459 0.930 . S
H427 C460 0.930 . S
H428 C458 0.929 . S
H429 C461 0.928 . S
O430 Co414 2.057 . S
O430 C418 1.232 . S
H431 C450 0.929 . S
H432 C451 0.929 . S
H433 C463 0.931 . S
H434 C455 0.929 . S
H435 C464 0.930 . S
H436 C456 0.931 . S
O437 Co413 2.097 . S
O437 C465 1.214 . S
H438 C466 0.929 . S
H439 C467 0.929 . S
H440 C468 0.930 . S
H441 C469 0.929 . S
H442 C471 0.930 . S
H443 C448 0.930 . S
H444 C452 0.930 . S
O445 Co414 2.037 . S
O445 C465 1.234 . S
C446 O420 1.269 . S
C446 O421 1.257 . S
C447 H422 0.930 . S
C447 C450 1.388 . S
C447 C452 1.418 . S
C448 H443 0.930 . S
C448 C451 1.404 . S
C448 C452 1.353 . S
N449 Co414 2.145 . S
N449 C450 1.397 . S
N449 C451 1.334 . S
C450 H431 0.929 . S
C450 C447 1.388 . S
C450 N449 1.397 . S
C451 H432 0.929 . S
C451 C448 1.404 . S
C451 N449 1.334 . S
C452 H444 0.930 . S
C452 C447 1.418 . S
C452 C448 1.353 . S
C453 H423 0.930 . S
C453 N454 1.330 . S
C453 C455 1.446 . S
N454 Co413 2.151 . S
N454 C453 1.330 . S
N454 C458 1.418 . S
C455 H434 0.929 . S
C455 C453 1.446 . S
C455 C456 1.332 . S
C456 H436 0.931 . S
C456 C455 1.332 . S
C456 C457 1.267 . S
C457 H425 0.929 . S
C457 C456 1.267 . S
C457 C458 1.251 . S
C458 H428 0.929 . S
C458 N454 1.418 . S
C458 C457 1.251 . S
C459 H426 0.930 . S
C459 C461 1.406 . S
C459 C464 1.261 . S
C460 H427 0.930 . S
C460 N462 1.325 . S
C460 C463 1.357 . S
C461 H429 0.928 . S
C461 C459 1.406 . S
C461 N462 1.261 . S
N462 Co413 2.214 . S
N462 C460 1.325 . S
N462 C461 1.261 . S
C463 H433 0.931 . S
C463 C460 1.357 . S
C463 C464 1.312 . S
C464 H435 0.930 . S
C464 C459 1.261 . S
C464 C463 1.312 . S
C465 O437 1.214 . S
C465 O445 1.234 . S
C466 H438 0.929 . S
C466 C469 1.391 . S
C466 C471 1.391 . S
C467 H439 0.929 . S
C467 C468 1.390 . S
C467 N470 1.391 . S
C468 H440 0.930 . S
C468 C467 1.390 . S
C468 C469 1.392 . S
C469 H441 0.929 . S
C469 C466 1.391 . S
C469 C468 1.392 . S
N470 Co414 2.257 . S
N470 C467 1.391 . S
N470 C471 1.388 . S
C471 H442 0.930 . S
C471 C466 1.391 . S
C471 N470 1.388 . S
Co472 O474 2.143 . S
Co472 O480 2.074 . S
Co472 O483 2.093 1_455 S
Co472 O496 2.097 1_454 S
Co472 N513 2.151 . S
Co472 N521 2.214 1_455 S
Co473 O474 2.160 1_556 S
Co473 O479 2.058 1_556 S
Co473 O489 2.057 . S
Co473 O504 2.037 . S
Co473 N508 2.145 . S
Co473 N529 2.257 . S
O474 Co472 2.143 . S
O474 Co473 2.160 1_554 S
C475 O476 1.278 . S
C475 O483 1.224 1_456 S
O476 C475 1.278 . S
C477 O478 1.239 1_556 S
C477 O489 1.237 . S
O478 C477 1.239 1_554 S
O479 Co473 2.058 1_554 S
O479 C505 1.269 . S
O480 Co472 2.074 . S
O480 C505 1.257 . S
H481 C506 0.930 . S
H482 C512 0.930 . S
O483 Co472 2.093 1_655 S
O483 C475 1.224 1_654 S
H484 C516 0.929 . S
H485 C518 0.930 . S
H486 C519 0.930 . S
H487 C517 0.929 . S
H488 C520 0.928 . S
O489 Co473 2.057 . S
O489 C477 1.237 . S
H490 C509 0.929 . S
H491 C510 0.929 . S
H492 C522 0.931 . S
H493 C514 0.929 . S
H494 C523 0.930 . S
H495 C515 0.931 . S
O496 Co472 2.097 1_656 S
O496 C524 1.214 . S
H497 C525 0.929 . S
H498 C526 0.929 . S
H499 C527 0.930 . S
H500 C528 0.929 . S
H501 C530 0.930 . S
H502 C507 0.930 . S
H503 C511 0.930 . S
O504 Co473 2.037 . S
O504 C524 1.234 1_455 S
C505 O479 1.269 . S
C505 O480 1.257 . S
C506 H481 0.930 . S
C506 C509 1.388 . S
C506 C511 1.418 . S
C507 H502 0.930 . S
C507 C510 1.404 . S
C507 C511 1.353 . S
N508 Co473 2.145 . S
N508 C509 1.397 . S
N508 C510 1.334 . S
C509 H490 0.929 . S
C509 C506 1.388 . S
C509 N508 1.397 . S
C510 H491 0.929 . S
C510 C507 1.404 . S
C510 N508 1.334 . S
C511 H503 0.930 . S
C511 C506 1.418 . S
C511 C507 1.353 . S
C512 H482 0.930 . S
C512 N513 1.330 . S
C512 C514 1.446 . S
N513 Co472 2.151 . S
N513 C512 1.330 . S
N513 C517 1.418 . S
C514 H493 0.929 . S
C514 C512 1.446 . S
C514 C515 1.332 . S
C515 H495 0.931 . S
C515 C514 1.332 . S
C515 C516 1.267 . S
C516 H484 0.929 . S
C516 C515 1.267 . S
C516 C517 1.251 . S
C517 H487 0.929 . S
C517 N513 1.418 . S
C517 C516 1.251 . S
C518 H485 0.930 . S
C518 C520 1.406 . S
C518 C523 1.261 . S
C519 H486 0.930 . S
C519 N521 1.325 . S
C519 C522 1.357 . S
C520 H488 0.928 . S
C520 C518 1.406 . S
C520 N521 1.261 . S
N521 Co472 2.214 1_655 S
N521 C519 1.325 . S
N521 C520 1.261 . S
C522 H492 0.931 . S
C522 C519 1.357 . S
C522 C523 1.312 . S
C523 H494 0.930 . S
C523 C518 1.261 . S
C523 C522 1.312 . S
C524 O496 1.214 . S
C524 O504 1.234 1_655 S
C525 H497 0.929 . S
C525 C528 1.391 . S
C525 C530 1.391 . S
C526 H498 0.929 . S
C526 C527 1.390 . S
C526 N529 1.391 . S
C527 H499 0.930 . S
C527 C526 1.390 . S
C527 C528 1.392 . S
C528 H500 0.929 . S
C528 C525 1.391 . S
C528 C527 1.392 . S
N529 Co473 2.257 . S
N529 C526 1.391 . S
N529 C530 1.388 . S
C530 H501 0.930 . S
C530 C525 1.391 . S
C530 N529 1.388 . S
Co531 O533 2.143 . S
Co531 O539 2.074 . S
Co531 O542 2.094 . S
Co531 O555 2.097 1_455 S
Co531 N572 2.151 . S
Co531 N580 2.214 1_455 S
Co532 O533 2.160 . S
Co532 O538 2.058 . S
Co532 O548 2.057 . S
Co532 O563 2.037 . S
Co532 N567 2.145 . S
Co532 N588 2.257 . S
O533 Co531 2.143 . S
O533 Co532 2.160 . S
C534 O535 1.278 . S
C534 O542 1.231 . S
O535 C534 1.278 . S
C536 O537 1.245 . S
C536 O548 1.232 . S
O537 C536 1.245 . S
O538 Co532 2.058 . S
O538 C564 1.269 . S
O539 Co531 2.074 . S
O539 C564 1.257 . S
H540 C565 0.930 . S
H541 C571 0.930 . S
O542 Co531 2.094 . S
O542 C534 1.231 . S
H543 C575 0.929 . S
H544 C577 0.930 . S
H545 C578 0.930 . S
H546 C576 0.929 1_655 S
H547 C579 0.928 . S
O548 Co532 2.057 . S
O548 C536 1.232 . S
H549 C568 0.929 . S
H550 C569 0.929 . S
H551 C581 0.931 . S
H552 C573 0.929 . S
H553 C582 0.930 . S
H554 C574 0.931 . S
O555 Co531 2.097 1_655 S
O555 C583 1.214 1_655 S
H556 C584 0.929 . S
H557 C585 0.929 . S
H558 C586 0.930 . S
H559 C587 0.929 . S
H560 C589 0.930 . S
H561 C566 0.930 . S
H562 C570 0.930 . S
O563 Co532 2.037 . S
O563 C583 1.234 . S
C564 O538 1.269 . S
C564 O539 1.257 . S
C565 H540 0.930 . S
C565 C568 1.388 . S
C565 C570 1.418 . S
C566 H561 0.930 . S
C566 C569 1.404 . S
C566 C570 1.353 . S
N567 Co532 2.145 . S
N567 C568 1.397 . S
N567 C569 1.334 . S
C568 H549 0.929 . S
C568 C565 1.388 . S
C568 N567 1.397 . S
C569 H550 0.929 . S
C569 C566 1.404 . S
C569 N567 1.334 . S
C570 H562 0.930 . S
C570 C565 1.418 . S
C570 C566 1.353 . S
C571 H541 0.930 . S
C571 N572 1.330 . S
C571 C573 1.446 . S
N572 Co531 2.151 . S
N572 C571 1.330 . S
N572 C576 1.418 . S
C573 H552 0.929 . S
C573 C571 1.446 . S
C573 C574 1.332 . S
C574 H554 0.931 . S
C574 C573 1.332 . S
C574 C575 1.267 . S
C575 H543 0.929 . S
C575 C574 1.267 . S
C575 C576 1.251 . S
C576 H546 0.929 1_455 S
C576 N572 1.418 . S
C576 C575 1.251 . S
C577 H544 0.930 . S
C577 C579 1.406 . S
C577 C582 1.261 . S
C578 H545 0.930 . S
C578 N580 1.325 . S
C578 C581 1.357 . S
C579 H547 0.928 . S
C579 C577 1.406 . S
C579 N580 1.261 . S
N580 Co531 2.214 1_655 S
N580 C578 1.325 . S
N580 C579 1.261 . S
C581 H551 0.931 . S
C581 C578 1.357 . S
C581 C582 1.312 . S
C582 H553 0.930 . S
C582 C577 1.261 . S
C582 C581 1.312 . S
C583 O555 1.214 1_455 S
C583 O563 1.234 . S
C584 H556 0.929 . S
C584 C587 1.391 . S
C584 C589 1.391 . S
C585 H557 0.929 . S
C585 C586 1.390 . S
C585 N588 1.391 . S
C586 H558 0.930 . S
C586 C585 1.390 . S
C586 C587 1.392 . S
C587 H559 0.929 . S
C587 C584 1.391 . S
C587 C586 1.392 . S
N588 Co532 2.257 . S
N588 C585 1.391 . S
N588 C589 1.388 . S
C589 H560 0.930 . S
C589 C584 1.391 . S
C589 N588 1.388 . S
Co590 O592 2.143 . S
Co590 O598 2.074 . S
Co590 O601 2.093 . S
Co590 O614 2.097 1_655 S
Co590 N631 2.151 . S
Co590 N639 2.214 1_655 S
Co591 O592 2.160 . S
Co591 O597 2.058 . S
Co591 O607 2.057 . S
Co591 O622 2.037 . S
Co591 N626 2.145 . S
Co591 N647 2.257 . S
O592 Co590 2.143 . S
O592 Co591 2.160 . S
C593 O594 1.278 . S
C593 O601 1.224 . S
O594 C593 1.278 . S
C595 O596 1.245 . S
C595 O607 1.232 . S
O596 C595 1.245 . S
O597 Co591 2.058 . S
O597 C623 1.269 . S
O598 Co590 2.074 . S
O598 C623 1.257 . S
H599 C624 0.930 . S
H600 C630 0.930 . S
O601 Co590 2.093 . S
O601 C593 1.224 . S
H602 C634 0.929 . S
H603 C636 0.930 . S
H604 C637 0.930 . S
H605 C635 0.929 . S
H606 C638 0.928 . S
O607 Co591 2.057 . S
O607 C595 1.232 . S
H608 C627 0.929 . S
H609 C628 0.929 . S
H610 C640 0.931 . S
H611 C632 0.929 . S
H612 C641 0.930 . S
H613 C633 0.931 . S
O614 Co590 2.097 1_455 S
O614 C642 1.214 1_455 S
H615 C643 0.929 . S
H616 C644 0.929 . S
H617 C645 0.930 . S
H618 C646 0.929 . S
H619 C648 0.930 . S
H620 C625 0.930 . S
H621 C629 0.930 . S
O622 Co591 2.037 . S
O622 C642 1.234 . S
C623 O597 1.269 . S
C623 O598 1.257 . S
C624 H599 0.930 . S
C624 C627 1.388 . S
C624 C629 1.418 . S
C625 H620 0.930 . S
C625 C628 1.404 1_545 S
C625 C629 1.353 . S
N626 Co591 2.145 . S
N626 C627 1.397 1_565 S
N626 C628 1.334 . S
C627 H608 0.929 . S
C627 C624 1.388 . S
C627 N626 1.397 1_545 S
C628 H609 0.929 . S
C628 C625 1.404 1_565 S
C628 N626 1.334 . S
C629 H621 0.930 . S
C629 C624 1.418 . S
C629 C625 1.353 . S
C630 H600 0.930 . S
C630 N631 1.330 . S
C630 C632 1.446 . S
N631 Co590 2.151 . S
N631 C630 1.330 . S
N631 C635 1.418 . S
C632 H611 0.929 . S
C632 C630 1.446 . S
C632 C633 1.332 . S
C633 H613 0.931 . S
C633 C632 1.332 . S
C633 C634 1.267 . S
C634 H602 0.929 . S
C634 C633 1.267 . S
C634 C635 1.251 . S
C635 H605 0.929 . S
C635 N631 1.418 . S
C635 C634 1.251 . S
C636 H603 0.930 . S
C636 C638 1.406 . S
C636 C641 1.261 . S
C637 H604 0.930 . S
C637 N639 1.325 . S
C637 C640 1.357 . S
C638 H606 0.928 . S
C638 C636 1.406 . S
C638 N639 1.261 . S
N639 Co590 2.214 1_455 S
N639 C637 1.325 . S
N639 C638 1.261 . S
C640 H610 0.931 . S
C640 C637 1.357 . S
C640 C641 1.312 . S
C641 H612 0.930 . S
C641 C636 1.261 . S
C641 C640 1.312 . S
C642 O614 1.214 1_655 S
C642 O622 1.234 . S
C643 H615 0.929 . S
C643 C646 1.391 . S
C643 C648 1.391 . S
C644 H616 0.929 . S
C644 C645 1.390 . S
C644 N647 1.391 . S
C645 H617 0.930 . S
C645 C644 1.390 . S
C645 C646 1.392 . S
C646 H618 0.929 . S
C646 C643 1.391 . S
C646 C645 1.392 . S
N647 Co591 2.257 . S
N647 C644 1.391 . S
N647 C648 1.388 . S
C648 H619 0.930 . S
C648 C643 1.391 . S
C648 N647 1.388 . S
Co649 O651 2.143 . S
Co649 O657 2.074 . S
Co649 O660 2.093 . S
Co649 O673 2.097 . S
Co649 N690 2.151 . S
Co649 N698 2.214 . S
Co650 O651 2.160 . S
Co650 O656 2.058 . S
Co650 O666 2.057 . S
Co650 O681 2.037 . S
Co650 N685 2.145 . S
Co650 N706 2.257 . S
O651 Co649 2.143 . S
O651 Co650 2.160 . S
C652 O653 1.278 . S
C652 O660 1.224 . S
O653 C652 1.278 . S
C654 O655 1.245 . S
C654 O666 1.232 . S
O655 C654 1.245 . S
O656 Co650 2.058 . S
O656 C682 1.269 . S
O657 Co649 2.074 . S
O657 C682 1.257 . S
H658 C683 0.930 . S
H659 C689 0.930 . S
O660 Co649 2.093 . S
O660 C652 1.224 . S
H661 C693 0.929 . S
H662 C695 0.930 . S
H663 C696 0.930 . S
H664 C694 0.929 . S
H665 C697 0.928 . S
O666 Co650 2.057 . S
O666 C654 1.232 . S
H667 C686 0.929 . S
H668 C687 0.929 . S
H669 C699 0.931 . S
H670 C691 0.929 . S
H671 C700 0.930 . S
H672 C692 0.931 . S
O673 Co649 2.097 . S
O673 C701 1.214 . S
H674 C702 0.929 . S
H675 C703 0.929 . S
H676 C704 0.930 . S
H677 C705 0.929 . S
H678 C707 0.930 . S
H679 C684 0.930 . S
H680 C688 0.930 . S
O681 Co650 2.037 . S
O681 C701 1.234 . S
C682 O656 1.269 . S
C682 O657 1.257 . S
C683 H658 0.930 . S
C683 C686 1.388 . S
C683 C688 1.418 . S
C684 H679 0.930 . S
C684 C687 1.404 . S
C684 C688 1.353 . S
N685 Co650 2.145 . S
N685 C686 1.397 . S
N685 C687 1.334 . S
C686 H667 0.929 . S
C686 C683 1.388 . S
C686 N685 1.397 . S
C687 H668 0.929 . S
C687 C684 1.404 . S
C687 N685 1.334 . S
C688 H680 0.930 . S
C688 C683 1.418 . S
C688 C684 1.353 . S
C689 H659 0.930 . S
C689 N690 1.330 . S
C689 C691 1.446 . S
N690 Co649 2.151 . S
N690 C689 1.330 . S
N690 C694 1.418 . S
C691 H670 0.929 . S
C691 C689 1.446 . S
C691 C692 1.332 . S
C692 H672 0.931 . S
C692 C691 1.332 . S
C692 C693 1.267 . S
C693 H661 0.929 . S
C693 C692 1.267 . S
C693 C694 1.251 . S
C694 H664 0.929 . S
C694 N690 1.418 . S
C694 C693 1.251 . S
C695 H662 0.930 . S
C695 C697 1.406 . S
C695 C700 1.261 . S
C696 H663 0.930 . S
C696 N698 1.325 . S
C696 C699 1.357 . S
C697 H665 0.928 . S
C697 C695 1.406 . S
C697 N698 1.261 . S
N698 Co649 2.214 . S
N698 C696 1.325 . S
N698 C697 1.261 . S
C699 H669 0.931 . S
C699 C696 1.357 . S
C699 C700 1.312 . S
C700 H671 0.930 . S
C700 C695 1.261 . S
C700 C699 1.312 . S
C701 O673 1.214 . S
C701 O681 1.234 . S
C702 H674 0.929 . S
C702 C705 1.391 . S
C702 C707 1.391 . S
C703 H675 0.929 . S
C703 C704 1.390 . S
C703 N706 1.391 . S
C704 H676 0.930 . S
C704 C703 1.390 . S
C704 C705 1.392 . S
C705 H677 0.929 . S
C705 C702 1.391 . S
C705 C704 1.392 . S
N706 Co650 2.257 . S
N706 C703 1.391 . S
N706 C707 1.388 . S
C707 H678 0.930 . S
C707 C702 1.391 . S
C707 N706 1.388 . S
Co708 O710 2.143 . S
Co708 O716 2.074 . S
Co708 O719 2.093 . S
Co708 O732 2.097 . S
Co708 N749 2.151 . S
Co708 N757 2.214 . S
Co709 O710 2.160 . S
Co709 O715 2.058 . S
Co709 O725 2.057 . S
Co709 O740 2.037 . S
Co709 N744 2.145 . S
Co709 N765 2.257 . S
O710 Co708 2.143 . S
O710 Co709 2.160 . S
C711 O712 1.278 . S
C711 O719 1.224 . S
O712 C711 1.278 . S
C713 O714 1.245 . S
C713 O725 1.232 . S
O714 C713 1.245 . S
O715 Co709 2.058 . S
O715 C741 1.269 . S
O716 Co708 2.074 . S
O716 C741 1.257 . S
H717 C742 0.930 . S
H718 C748 0.930 . S
O719 Co708 2.093 . S
O719 C711 1.224 . S
H720 C752 0.929 . S
H721 C754 0.930 . S
H722 C755 0.930 . S
H723 C753 0.929 . S
H724 C756 0.928 . S
O725 Co709 2.057 . S
O725 C713 1.232 . S
H726 C745 0.929 . S
H727 C746 0.929 . S
H728 C758 0.931 . S
H729 C750 0.929 . S
H730 C759 0.930 . S
H731 C751 0.931 . S
O732 Co708 2.097 . S
O732 C760 1.214 . S
H733 C761 0.929 . S
H734 C762 0.929 . S
H735 C763 0.930 . S
H736 C764 0.929 . S
H737 C766 0.930 . S
H738 C743 0.930 . S
H739 C747 0.930 . S
O740 Co709 2.037 . S
O740 C760 1.234 . S
C741 O715 1.269 . S
C741 O716 1.257 . S
C742 H717 0.930 . S
C742 C745 1.388 . S
C742 C747 1.418 . S
C743 H738 0.930 . S
C743 C746 1.404 1_554 S
C743 C747 1.353 . S
N744 Co709 2.145 . S
N744 C745 1.397 1_556 S
N744 C746 1.334 . S
C745 H726 0.929 . S
C745 C742 1.388 . S
C745 N744 1.397 1_554 S
C746 H727 0.929 . S
C746 C743 1.404 1_556 S
C746 N744 1.334 . S
C747 H739 0.930 . S
C747 C742 1.418 . S
C747 C743 1.353 . S
C748 H718 0.930 . S
C748 N749 1.330 . S
C748 C750 1.446 . S
N749 Co708 2.151 . S
N749 C748 1.330 . S
N749 C753 1.418 . S
C750 H729 0.929 . S
C750 C748 1.446 . S
C750 C751 1.332 . S
C751 H731 0.931 . S
C751 C750 1.332 . S
C751 C752 1.267 . S
C752 H720 0.929 . S
C752 C751 1.267 . S
C752 C753 1.251 . S
C753 H723 0.929 . S
C753 N749 1.418 . S
C753 C752 1.251 . S
C754 H721 0.930 . S
C754 C756 1.406 . S
C754 C759 1.261 . S
C755 H722 0.930 . S
C755 N757 1.325 . S
C755 C758 1.357 . S
C756 H724 0.928 . S
C756 C754 1.406 . S
C756 N757 1.261 . S
N757 Co708 2.214 . S
N757 C755 1.325 . S
N757 C756 1.261 . S
C758 H728 0.931 . S
C758 C755 1.357 . S
C758 C759 1.312 . S
C759 H730 0.930 . S
C759 C754 1.261 . S
C759 C758 1.312 . S
C760 O732 1.214 . S
C760 O740 1.234 . S
C761 H733 0.929 . S
C761 C764 1.391 . S
C761 C766 1.391 . S
C762 H734 0.929 . S
C762 C763 1.390 . S
C762 N765 1.391 . S
C763 H735 0.930 . S
C763 C762 1.390 . S
C763 C764 1.392 . S
C764 H736 0.929 . S
C764 C761 1.391 . S
C764 C763 1.392 . S
N765 Co709 2.257 . S
N765 C762 1.391 . S
N765 C766 1.388 . S
C766 H737 0.930 . S
C766 C761 1.391 . S
C766 N765 1.388 . S
Co767 O769 2.143 . S
Co767 O775 2.074 . S
Co767 O778 2.093 . S
Co767 O791 2.097 1_565 S
Co767 N808 2.151 . S
Co767 N816 2.214 1_565 S
Co768 O769 2.160 . S
Co768 O774 2.058 . S
Co768 O784 2.057 . S
Co768 O799 2.037 . S
Co768 N803 2.145 . S
Co768 N824 2.257 . S
O769 Co767 2.143 . S
O769 Co768 2.160 . S
C770 O771 1.278 . S
C770 O778 1.224 . S
O771 C770 1.278 . S
C772 O773 1.245 . S
C772 O784 1.232 . S
O773 C772 1.245 . S
O774 Co768 2.058 . S
O774 C800 1.269 . S
O775 Co767 2.074 . S
O775 C800 1.257 . S
H776 C801 0.930 . S
H777 C807 0.930 . S
O778 Co767 2.093 . S
O778 C770 1.224 . S
H779 C811 0.929 . S
H780 C813 0.930 . S
H781 C814 0.930 . S
H782 C812 0.929 . S
H783 C815 0.928 . S
O784 Co768 2.057 . S
O784 C772 1.232 . S
H785 C804 0.929 . S
H786 C805 0.929 . S
H787 C817 0.931 . S
H788 C809 0.929 . S
H789 C818 0.930 . S
H790 C810 0.931 . S
O791 Co767 2.097 1_545 S
O791 C819 1.214 1_545 S
H792 C820 0.929 . S
H793 C821 0.929 . S
H794 C822 0.930 . S
H795 C823 0.929 . S
H796 C825 0.930 . S
H797 C802 0.930 . S
H798 C806 0.930 . S
O799 Co768 2.037 . S
O799 C819 1.234 . S
C800 O774 1.269 . S
C800 O775 1.257 . S
C801 H776 0.930 . S
C801 C804 1.388 . S
C801 C806 1.418 . S
C802 H797 0.930 . S
C802 C805 1.404 1_554 S
C802 C806 1.353 . S
N803 Co768 2.145 . S
N803 C804 1.397 1_556 S
N803 C805 1.334 . S
C804 H785 0.929 . S
C804 C801 1.388 . S
C804 N803 1.397 1_554 S
C805 H786 0.929 . S
C805 C802 1.404 1_556 S
C805 N803 1.334 . S
C806 H798 0.930 . S
C806 C801 1.418 . S
C806 C802 1.353 . S
C807 H777 0.930 . S
C807 N808 1.330 . S
C807 C809 1.446 . S
N808 Co767 2.151 . S
N808 C807 1.330 . S
N808 C812 1.418 . S
C809 H788 0.929 . S
C809 C807 1.446 . S
C809 C810 1.332 . S
C810 H790 0.931 . S
C810 C809 1.332 . S
C810 C811 1.267 . S
C811 H779 0.929 . S
C811 C810 1.267 . S
C811 C812 1.251 . S
C812 H782 0.929 . S
C812 N808 1.418 . S
C812 C811 1.251 . S
C813 H780 0.930 . S
C813 C815 1.406 . S
C813 C818 1.261 . S
C814 H781 0.930 . S
C814 N816 1.325 . S
C814 C817 1.357 . S
C815 H783 0.928 . S
C815 C813 1.406 . S
C815 N816 1.261 . S
N816 Co767 2.214 1_545 S
N816 C814 1.325 . S
N816 C815 1.261 . S
C817 H787 0.931 . S
C817 C814 1.357 . S
C817 C818 1.312 . S
C818 H789 0.930 . S
C818 C813 1.261 . S
C818 C817 1.312 . S
C819 O791 1.214 1_565 S
C819 O799 1.234 . S
C820 H792 0.929 . S
C820 C823 1.391 . S
C820 C825 1.391 . S
C821 H793 0.929 . S
C821 C822 1.390 . S
C821 N824 1.391 . S
C822 H794 0.930 . S
C822 C821 1.390 . S
C822 C823 1.392 . S
C823 H795 0.929 . S
C823 C820 1.391 . S
C823 C822 1.392 . S
N824 Co768 2.257 . S
N824 C821 1.391 . S
N824 C825 1.388 . S
C825 H796 0.930 . S
C825 C820 1.391 . S
C825 N824 1.388 . S
Co826 O828 2.143 . S
Co826 O834 2.074 . S
Co826 O837 2.093 . S
Co826 O850 2.097 . S
Co826 N867 2.151 . S
Co826 N875 2.214 . S
Co827 O828 2.160 . S
Co827 O833 2.058 . S
Co827 O843 2.057 . S
Co827 O858 2.037 . S
Co827 N862 2.145 . S
Co827 N883 2.257 . S
O828 Co826 2.143 . S
O828 Co827 2.160 . S
C829 O830 1.278 . S
C829 O837 1.224 . S
O830 C829 1.278 . S
C831 O832 1.245 . S
C831 O843 1.232 . S
O832 C831 1.245 . S
O833 Co827 2.058 . S
O833 C859 1.269 . S
O834 Co826 2.074 . S
O834 C859 1.257 . S
H835 C860 0.930 . S
H836 C866 0.930 . S
O837 Co826 2.093 . S
O837 C829 1.224 . S
H838 C870 0.929 . S
H839 C872 0.930 . S
H840 C873 0.930 . S
H841 C871 0.929 . S
H842 C874 0.928 . S
O843 Co827 2.057 . S
O843 C831 1.232 . S
H844 C863 0.929 . S
H845 C864 0.929 . S
H846 C876 0.931 . S
H847 C868 0.929 . S
H848 C877 0.930 . S
H849 C869 0.931 . S
O850 Co826 2.097 . S
O850 C878 1.214 . S
H851 C879 0.929 . S
H852 C880 0.929 . S
H853 C881 0.930 . S
H854 C882 0.929 . S
H855 C884 0.930 . S
H856 C861 0.930 . S
H857 C865 0.930 . S
O858 Co827 2.037 . S
O858 C878 1.234 . S
C859 O833 1.269 . S
C859 O834 1.257 . S
C860 H835 0.930 . S
C860 C863 1.388 . S
C860 C865 1.418 . S
C861 H856 0.930 . S
C861 C864 1.404 . S
C861 C865 1.353 . S
N862 Co827 2.145 . S
N862 C863 1.397 . S
N862 C864 1.334 . S
C863 H844 0.929 . S
C863 C860 1.388 . S
C863 N862 1.397 . S
C864 H845 0.929 . S
C864 C861 1.404 . S
C864 N862 1.334 . S
C865 H857 0.930 . S
C865 C860 1.418 . S
C865 C861 1.353 . S
C866 H836 0.930 . S
C866 N867 1.330 . S
C866 C868 1.446 . S
N867 Co826 2.151 . S
N867 C866 1.330 . S
N867 C871 1.418 . S
C868 H847 0.929 . S
C868 C866 1.446 . S
C868 C869 1.332 . S
C869 H849 0.931 . S
C869 C868 1.332 . S
C869 C870 1.267 . S
C870 H838 0.929 . S
C870 C869 1.267 . S
C870 C871 1.251 . S
C871 H841 0.929 . S
C871 N867 1.418 . S
C871 C870 1.251 . S
C872 H839 0.930 . S
C872 C874 1.406 . S
C872 C877 1.261 . S
C873 H840 0.930 . S
C873 N875 1.325 . S
C873 C876 1.357 . S
C874 H842 0.928 . S
C874 C872 1.406 . S
C874 N875 1.261 . S
N875 Co826 2.214 . S
N875 C873 1.325 . S
N875 C874 1.261 . S
C876 H846 0.931 . S
C876 C873 1.357 . S
C876 C877 1.312 . S
C877 H848 0.930 . S
C877 C872 1.261 . S
C877 C876 1.312 . S
C878 O850 1.214 . S
C878 O858 1.234 . S
C879 H851 0.929 . S
C879 C882 1.391 . S
C879 C884 1.391 . S
C880 H852 0.929 . S
C880 C881 1.390 . S
C880 N883 1.391 . S
C881 H853 0.930 . S
C881 C880 1.390 . S
C881 C882 1.392 . S
C882 H854 0.929 . S
C882 C879 1.391 . S
C882 C881 1.392 . S
N883 Co827 2.257 . S
N883 C880 1.391 . S
N883 C884 1.388 . S
C884 H855 0.930 . S
C884 C879 1.391 . S
C884 N883 1.388 . S
Co885 O887 2.143 . S
Co885 O893 2.074 . S
Co885 O896 2.094 . S
Co885 O909 2.097 1_545 S
Co885 N926 2.151 . S
Co885 N934 2.214 1_545 S
Co886 O887 2.160 . S
Co886 O892 2.058 . S
Co886 O902 2.057 . S
Co886 O917 2.037 . S
Co886 N921 2.145 . S
Co886 N942 2.257 . S
O887 Co885 2.143 . S
O887 Co886 2.160 . S
C888 O889 1.278 . S
C888 O896 1.231 . S
O889 C888 1.278 . S
C890 O891 1.245 . S
C890 O902 1.232 . S
O891 C890 1.245 . S
O892 Co886 2.058 . S
O892 C918 1.269 . S
O893 Co885 2.074 . S
O893 C918 1.257 . S
H894 C919 0.930 . S
H895 C925 0.930 . S
O896 Co885 2.094 . S
O896 C888 1.231 . S
H897 C929 0.929 . S
H898 C931 0.930 . S
H899 C932 0.930 . S
H900 C930 0.929 1_565 S
H901 C933 0.928 . S
O902 Co886 2.057 . S
O902 C890 1.232 . S
H903 C922 0.929 . S
H904 C923 0.929 . S
H905 C935 0.931 . S
H906 C927 0.929 . S
H907 C936 0.930 . S
H908 C928 0.931 . S
O909 Co885 2.097 1_565 S
O909 C937 1.214 1_565 S
H910 C938 0.929 . S
H911 C939 0.929 . S
H912 C940 0.930 . S
H913 C941 0.929 . S
H914 C943 0.930 . S
H915 C920 0.930 . S
H916 C924 0.930 . S
O917 Co886 2.037 . S
O917 C937 1.234 . S
C918 O892 1.269 . S
C918 O893 1.257 . S
C919 H894 0.930 . S
C919 C922 1.388 . S
C919 C924 1.418 . S
C920 H915 0.930 . S
C920 C923 1.404 . S
C920 C924 1.353 . S
N921 Co886 2.145 . S
N921 C922 1.397 . S
N921 C923 1.334 . S
C922 H903 0.929 . S
C922 C919 1.388 . S
C922 N921 1.397 . S
C923 H904 0.929 . S
C923 C920 1.404 . S
C923 N921 1.334 . S
C924 H916 0.930 . S
C924 C919 1.418 . S
C924 C920 1.353 . S
C925 H895 0.930 . S
C925 N926 1.330 . S
C925 C927 1.446 . S
N926 Co885 2.151 . S
N926 C925 1.330 . S
N926 C930 1.418 . S
C927 H906 0.929 . S
C927 C925 1.446 . S
C927 C928 1.332 . S
C928 H908 0.931 . S
C928 C927 1.332 . S
C928 C929 1.267 . S
C929 H897 0.929 . S
C929 C928 1.267 . S
C929 C930 1.251 . S
C930 H900 0.929 1_545 S
C930 N926 1.418 . S
C930 C929 1.251 . S
C931 H898 0.930 . S
C931 C933 1.406 . S
C931 C936 1.261 . S
C932 H899 0.930 . S
C932 N934 1.325 . S
C932 C935 1.357 . S
C933 H901 0.928 . S
C933 C931 1.406 . S
C933 N934 1.261 . S
N934 Co885 2.214 1_565 S
N934 C932 1.325 . S
N934 C933 1.261 . S
C935 H905 0.931 . S
C935 C932 1.357 . S
C935 C936 1.312 . S
C936 H907 0.930 . S
C936 C931 1.261 . S
C936 C935 1.312 . S
C937 O909 1.214 1_545 S
C937 O917 1.234 . S
C938 H910 0.929 . S
C938 C941 1.391 . S
C938 C943 1.391 . S
C939 H911 0.929 . S
C939 C940 1.390 . S
C939 N942 1.391 . S
C940 H912 0.930 . S
C940 C939 1.390 . S
C940 C941 1.392 . S
C941 H913 0.929 . S
C941 C938 1.391 . S
C941 C940 1.392 . S
N942 Co886 2.257 . S
N942 C939 1.391 . S
N942 C943 1.388 . S
C943 H914 0.930 . S
C943 C938 1.391 . S
C943 N942 1.388 . S
Co944 O946 2.143 . S
Co944 O952 2.074 . S
Co944 O955 2.093 . S
Co944 O968 2.097 . S
Co944 N985 2.151 . S
Co944 N993 2.214 . S
Co945 O946 2.160 . S
Co945 O951 2.058 . S
Co945 O961 2.057 . S
Co945 O976 2.037 . S
Co945 N980 2.145 . S
Co945 N1001 2.257 . S
O946 Co944 2.143 . S
O946 Co945 2.160 . S
C947 O948 1.278 . S
C947 O955 1.224 . S
O948 C947 1.278 . S
C949 O950 1.245 . S
C949 O961 1.232 . S
O950 C949 1.245 . S
O951 Co945 2.058 . S
O951 C977 1.269 . S
O952 Co944 2.074 . S
O952 C977 1.257 . S
H953 C978 0.930 . S
H954 C984 0.930 . S
O955 Co944 2.093 . S
O955 C947 1.224 . S
H956 C988 0.929 . S
H957 C990 0.930 . S
H958 C991 0.930 . S
H959 C989 0.929 . S
H960 C992 0.928 . S
O961 Co945 2.057 . S
O961 C949 1.232 . S
H962 C981 0.929 . S
H963 C982 0.929 . S
H964 C994 0.931 . S
H965 C986 0.929 . S
H966 C995 0.930 . S
H967 C987 0.931 . S
O968 Co944 2.097 . S
O968 C996 1.214 . S
H969 C997 0.929 . S
H970 C998 0.929 . S
H971 C999 0.930 . S
H972 C1000 0.929 . S
H973 C1002 0.930 . S
H974 C979 0.930 . S
H975 C983 0.930 . S
O976 Co945 2.037 . S
O976 C996 1.234 . S
C977 O951 1.269 . S
C977 O952 1.257 . S
C978 H953 0.930 . S
C978 C981 1.388 . S
C978 C983 1.418 . S
C979 H974 0.930 . S
C979 C982 1.404 1_455 S
C979 C983 1.353 . S
N980 Co945 2.145 . S
N980 C981 1.397 1_655 S
N980 C982 1.334 . S
C981 H962 0.929 . S
C981 C978 1.388 . S
C981 N980 1.397 1_455 S
C982 H963 0.929 . S
C982 C979 1.404 1_655 S
C982 N980 1.334 . S
C983 H975 0.930 . S
C983 C978 1.418 . S
C983 C979 1.353 . S
C984 H954 0.930 . S
C984 N985 1.330 . S
C984 C986 1.446 . S
N985 Co944 2.151 . S
N985 C984 1.330 . S
N985 C989 1.418 . S
C986 H965 0.929 . S
C986 C984 1.446 . S
C986 C987 1.332 . S
C987 H967 0.931 . S
C987 C986 1.332 . S
C987 C988 1.267 . S
C988 H956 0.929 . S
C988 C987 1.267 . S
C988 C989 1.251 . S
C989 H959 0.929 . S
C989 N985 1.418 . S
C989 C988 1.251 . S
C990 H957 0.930 . S
C990 C992 1.406 . S
C990 C995 1.261 . S
C991 H958 0.930 . S
C991 N993 1.325 . S
C991 C994 1.357 . S
C992 H960 0.928 . S
C992 C990 1.406 . S
C992 N993 1.261 . S
N993 Co944 2.214 . S
N993 C991 1.325 . S
N993 C992 1.261 . S
C994 H964 0.931 . S
C994 C991 1.357 . S
C994 C995 1.312 . S
C995 H966 0.930 . S
C995 C990 1.261 . S
C995 C994 1.312 . S
C996 O968 1.214 . S
C996 O976 1.234 . S
C997 H969 0.929 . S
C997 C1000 1.391 . S
C997 C1002 1.391 . S
C998 H970 0.929 . S
C998 C999 1.390 . S
C998 N1001 1.391 . S
C999 H971 0.930 . S
C999 C998 1.390 . S
C999 C1000 1.392 . S
C1000 H972 0.929 . S
C1000 C997 1.391 . S
C1000 C999 1.392 . S
N1001 Co945 2.257 . S
N1001 C998 1.391 . S
N1001 C1002 1.388 . S
C1002 H973 0.930 . S
C1002 C997 1.391 . S
C1002 N1001 1.388 . S
Co1003 O1005 2.143 . S
Co1003 O1011 2.074 . S
Co1003 O1014 2.093 . S
Co1003 O1027 2.097 1_565 S
Co1003 N1044 2.151 . S
Co1003 N1052 2.214 . S
Co1004 O1005 2.160 1_545 S
Co1004 O1010 2.058 1_545 S
Co1004 O1020 2.057 . S
Co1004 O1035 2.037 . S
Co1004 N1039 2.145 . S
Co1004 N1060 2.257 . S
O1005 Co1003 2.143 . S
O1005 Co1004 2.160 1_565 S
C1006 O1007 1.278 . S
C1006 O1014 1.224 1_545 S
O1007 C1006 1.278 . S
C1008 O1009 1.245 1_545 S
C1008 O1020 1.232 . S
O1009 C1008 1.245 1_565 S
O1010 Co1004 2.058 1_565 S
O1010 C1036 1.269 . S
O1011 Co1003 2.074 . S
O1011 C1036 1.257 . S
H1012 C1037 0.930 . S
H1013 C1043 0.930 . S
O1014 Co1003 2.093 . S
O1014 C1006 1.224 1_565 S
H1015 C1047 0.929 . S
H1016 C1049 0.930 . S
H1017 C1050 0.930 . S
H1018 C1048 0.929 . S
H1019 C1051 0.928 . S
O1020 Co1004 2.057 . S
O1020 C1008 1.232 . S
H1021 C1040 0.929 . S
H1022 C1041 0.929 . S
H1023 C1053 0.931 . S
H1024 C1045 0.929 . S
H1025 C1054 0.930 . S
H1026 C1046 0.931 . S
O1027 Co1003 2.097 1_545 S
O1027 C1055 1.214 . S
H1028 C1056 0.929 . S
H1029 C1057 0.929 . S
H1030 C1058 0.930 . S
H1031 C1059 0.929 . S
H1032 C1061 0.930 . S
H1033 C1038 0.930 . S
H1034 C1042 0.930 . S
O1035 Co1004 2.037 . S
O1035 C1055 1.234 . S
C1036 O1010 1.269 . S
C1036 O1011 1.257 . S
C1037 H1012 0.930 . S
C1037 C1040 1.388 . S
C1037 C1042 1.418 . S
C1038 H1033 0.930 . S
C1038 C1041 1.404 1_655 S
C1038 C1042 1.353 . S
N1039 Co1004 2.145 . S
N1039 C1040 1.397 1_455 S
N1039 C1041 1.334 . S
C1040 H1021 0.929 . S
C1040 C1037 1.388 . S
C1040 N1039 1.397 1_655 S
C1041 H1022 0.929 . S
C1041 C1038 1.404 1_455 S
C1041 N1039 1.334 . S
C1042 H1034 0.930 . S
C1042 C1037 1.418 . S
C1042 C1038 1.353 . S
C1043 H1013 0.930 . S
C1043 N1044 1.330 . S
C1043 C1045 1.446 . S
N1044 Co1003 2.151 . S
N1044 C1043 1.330 . S
N1044 C1048 1.418 . S
C1045 H1024 0.929 . S
C1045 C1043 1.446 . S
C1045 C1046 1.332 . S
C1046 H1026 0.931 . S
C1046 C1045 1.332 . S
C1046 C1047 1.267 . S
C1047 H1015 0.929 . S
C1047 C1046 1.267 . S
C1047 C1048 1.251 . S
C1048 H1018 0.929 . S
C1048 N1044 1.418 . S
C1048 C1047 1.251 . S
C1049 H1016 0.930 . S
C1049 C1051 1.406 . S
C1049 C1054 1.261 . S
C1050 H1017 0.930 . S
C1050 N1052 1.325 . S
C1050 C1053 1.357 . S
C1051 H1019 0.928 . S
C1051 C1049 1.406 . S
C1051 N1052 1.261 . S
N1052 Co1003 2.214 . S
N1052 C1050 1.325 . S
N1052 C1051 1.261 . S
C1053 H1023 0.931 . S
C1053 C1050 1.357 . S
C1053 C1054 1.312 . S
C1054 H1025 0.930 . S
C1054 C1049 1.261 . S
C1054 C1053 1.312 . S
C1055 O1027 1.214 . S
C1055 O1035 1.234 . S
C1056 H1028 0.929 . S
C1056 C1059 1.391 . S
C1056 C1061 1.391 . S
C1057 H1029 0.929 . S
C1057 C1058 1.390 . S
C1057 N1060 1.391 . S
C1058 H1030 0.930 . S
C1058 C1057 1.390 . S
C1058 C1059 1.392 . S
C1059 H1031 0.929 . S
C1059 C1056 1.391 . S
C1059 C1058 1.392 . S
N1060 Co1004 2.257 . S
N1060 C1057 1.391 . S
N1060 C1061 1.388 . S
C1061 H1032 0.930 . S
C1061 C1056 1.391 . S
C1061 N1060 1.388 . S
Co1062 O1064 2.143 . S
Co1062 O1070 2.074 . S
Co1062 O1073 2.093 . S
Co1062 O1086 2.097 1_556 S
Co1062 N1103 2.151 . S
Co1062 N1111 2.214 1_556 S
Co1063 O1064 2.160 . S
Co1063 O1069 2.058 . S
Co1063 O1079 2.057 . S
Co1063 O1094 2.037 . S
Co1063 N1098 2.145 . S
Co1063 N1119 2.257 . S
O1064 Co1062 2.143 . S
O1064 Co1063 2.160 . S
C1065 O1066 1.278 . S
C1065 O1073 1.224 . S
O1066 C1065 1.278 . S
C1067 O1068 1.245 . S
C1067 O1079 1.232 . S
O1068 C1067 1.245 . S
O1069 Co1063 2.058 . S
O1069 C1095 1.269 . S
O1070 Co1062 2.074 . S
O1070 C1095 1.257 . S
H1071 C1096 0.930 . S
H1072 C1102 0.930 . S
O1073 Co1062 2.093 . S
O1073 C1065 1.224 . S
H1074 C1106 0.929 . S
H1075 C1108 0.930 . S
H1076 C1109 0.930 . S
H1077 C1107 0.929 . S
H1078 C1110 0.928 . S
O1079 Co1063 2.057 . S
O1079 C1067 1.232 . S
H1080 C1099 0.929 . S
H1081 C1100 0.929 . S
H1082 C1112 0.931 . S
H1083 C1104 0.929 . S
H1084 C1113 0.930 . S
H1085 C1105 0.931 . S
O1086 Co1062 2.097 1_554 S
O1086 C1114 1.214 1_554 S
H1087 C1115 0.929 . S
H1088 C1116 0.929 . S
H1089 C1117 0.930 . S
H1090 C1118 0.929 . S
H1091 C1120 0.930 . S
H1092 C1097 0.930 . S
H1093 C1101 0.930 . S
O1094 Co1063 2.037 . S
O1094 C1114 1.234 . S
C1095 O1069 1.269 . S
C1095 O1070 1.257 . S
C1096 H1071 0.930 . S
C1096 C1099 1.388 . S
C1096 C1101 1.418 . S
C1097 H1092 0.930 . S
C1097 C1100 1.404 1_455 S
C1097 C1101 1.353 . S
N1098 Co1063 2.145 . S
N1098 C1099 1.397 1_655 S
N1098 C1100 1.334 . S
C1099 H1080 0.929 . S
C1099 C1096 1.388 . S
C1099 N1098 1.397 1_455 S
C1100 H1081 0.929 . S
C1100 C1097 1.404 1_655 S
C1100 N1098 1.334 . S
C1101 H1093 0.930 . S
C1101 C1096 1.418 . S
C1101 C1097 1.353 . S
C1102 H1072 0.930 . S
C1102 N1103 1.330 . S
C1102 C1104 1.446 . S
N1103 Co1062 2.151 . S
N1103 C1102 1.330 . S
N1103 C1107 1.418 . S
C1104 H1083 0.929 . S
C1104 C1102 1.446 . S
C1104 C1105 1.332 . S
C1105 H1085 0.931 . S
C1105 C1104 1.332 . S
C1105 C1106 1.267 . S
C1106 H1074 0.929 . S
C1106 C1105 1.267 . S
C1106 C1107 1.251 . S
C1107 H1077 0.929 . S
C1107 N1103 1.418 . S
C1107 C1106 1.251 . S
C1108 H1075 0.930 . S
C1108 C1110 1.406 . S
C1108 C1113 1.261 . S
C1109 H1076 0.930 . S
C1109 N1111 1.325 . S
C1109 C1112 1.357 . S
C1110 H1078 0.928 . S
C1110 C1108 1.406 . S
C1110 N1111 1.261 . S
N1111 Co1062 2.214 1_554 S
N1111 C1109 1.325 . S
N1111 C1110 1.261 . S
C1112 H1082 0.931 . S
C1112 C1109 1.357 . S
C1112 C1113 1.312 . S
C1113 H1084 0.930 . S
C1113 C1108 1.261 . S
C1113 C1112 1.312 . S
C1114 O1086 1.214 1_556 S
C1114 O1094 1.234 . S
C1115 H1087 0.929 . S
C1115 C1118 1.391 . S
C1115 C1120 1.391 . S
C1116 H1088 0.929 . S
C1116 C1117 1.390 . S
C1116 N1119 1.391 . S
C1117 H1089 0.930 . S
C1117 C1116 1.390 . S
C1117 C1118 1.392 . S
C1118 H1090 0.929 . S
C1118 C1115 1.391 . S
C1118 C1117 1.392 . S
N1119 Co1063 2.257 . S
N1119 C1116 1.391 . S
N1119 C1120 1.388 . S
C1120 H1091 0.930 . S
C1120 C1115 1.391 . S
C1120 N1119 1.388 . S
Co1121 O1123 2.143 . S
Co1121 O1129 2.074 . S
Co1121 O1132 2.093 . S
Co1121 O1145 2.097 1_546 S
Co1121 N1162 2.151 . S
Co1121 N1170 2.214 1_556 S
Co1122 O1123 2.160 1_565 S
Co1122 O1128 2.058 1_565 S
Co1122 O1138 2.057 . S
Co1122 O1153 2.037 . S
Co1122 N1157 2.145 . S
Co1122 N1178 2.257 . S
O1123 Co1121 2.143 . S
O1123 Co1122 2.160 1_545 S
C1124 O1125 1.278 . S
C1124 O1132 1.224 1_565 S
O1125 C1124 1.278 . S
C1126 O1127 1.245 1_565 S
C1126 O1138 1.232 . S
O1127 C1126 1.245 1_545 S
O1128 Co1122 2.058 1_545 S
O1128 C1154 1.269 . S
O1129 Co1121 2.074 . S
O1129 C1154 1.257 . S
H1130 C1155 0.930 . S
H1131 C1161 0.930 . S
O1132 Co1121 2.093 . S
O1132 C1124 1.224 1_545 S
H1133 C1165 0.929 . S
H1134 C1167 0.930 . S
H1135 C1168 0.930 . S
H1136 C1166 0.929 . S
H1137 C1169 0.928 . S
O1138 Co1122 2.057 . S
O1138 C1126 1.232 . S
H1139 C1158 0.929 . S
H1140 C1159 0.929 . S
H1141 C1171 0.931 . S
H1142 C1163 0.929 . S
H1143 C1172 0.930 . S
H1144 C1164 0.931 . S
O1145 Co1121 2.097 1_564 S
O1145 C1173 1.214 . S
H1146 C1174 0.929 . S
H1147 C1175 0.929 . S
H1148 C1176 0.930 . S
H1149 C1177 0.929 . S
H1150 C1179 0.930 . S
H1151 C1156 0.930 . S
H1152 C1160 0.930 . S
O1153 Co1122 2.037 . S
O1153 C1173 1.234 1_556 S
C1154 O1128 1.269 . S
C1154 O1129 1.257 . S
C1155 H1130 0.930 . S
C1155 C1158 1.388 . S
C1155 C1160 1.418 . S
C1156 H1151 0.930 . S
C1156 C1159 1.404 1_655 S
C1156 C1160 1.353 . S
N1157 Co1122 2.145 . S
N1157 C1158 1.397 1_455 S
N1157 C1159 1.334 . S
C1158 H1139 0.929 . S
C1158 C1155 1.388 . S
C1158 N1157 1.397 1_655 S
C1159 H1140 0.929 . S
C1159 C1156 1.404 1_455 S
C1159 N1157 1.334 . S
C1160 H1152 0.930 . S
C1160 C1155 1.418 . S
C1160 C1156 1.353 . S
C1161 H1131 0.930 . S
C1161 N1162 1.330 . S
C1161 C1163 1.446 . S
N1162 Co1121 2.151 . S
N1162 C1161 1.330 . S
N1162 C1166 1.418 . S
C1163 H1142 0.929 . S
C1163 C1161 1.446 . S
C1163 C1164 1.332 . S
C1164 H1144 0.931 . S
C1164 C1163 1.332 . S
C1164 C1165 1.267 . S
C1165 H1133 0.929 . S
C1165 C1164 1.267 . S
C1165 C1166 1.251 . S
C1166 H1136 0.929 . S
C1166 N1162 1.418 . S
C1166 C1165 1.251 . S
C1167 H1134 0.930 . S
C1167 C1169 1.406 . S
C1167 C1172 1.261 . S
C1168 H1135 0.930 . S
C1168 N1170 1.325 . S
C1168 C1171 1.357 . S
C1169 H1137 0.928 . S
C1169 C1167 1.406 . S
C1169 N1170 1.261 . S
N1170 Co1121 2.214 1_554 S
N1170 C1168 1.325 . S
N1170 C1169 1.261 . S
C1171 H1141 0.931 . S
C1171 C1168 1.357 . S
C1171 C1172 1.312 . S
C1172 H1143 0.930 . S
C1172 C1167 1.261 . S
C1172 C1171 1.312 . S
C1173 O1145 1.214 . S
C1173 O1153 1.234 1_554 S
C1174 H1146 0.929 . S
C1174 C1177 1.391 . S
C1174 C1179 1.391 . S
C1175 H1147 0.929 . S
C1175 C1176 1.390 . S
C1175 N1178 1.391 . S
C1176 H1148 0.930 . S
C1176 C1175 1.390 . S
C1176 C1177 1.392 . S
C1177 H1149 0.929 . S
C1177 C1174 1.391 . S
C1177 C1176 1.392 . S
N1178 Co1122 2.257 . S
N1178 C1175 1.391 . S
N1178 C1179 1.388 . S
C1179 H1150 0.930 . S
C1179 C1174 1.391 . S
C1179 N1178 1.388 . S
Co1180 O1182 2.143 . S
Co1180 O1188 2.074 . S
Co1180 O1191 2.093 . S
Co1180 O1204 2.097 . S
Co1180 N1221 2.151 . S
Co1180 N1229 2.214 . S
Co1181 O1182 2.160 . S
Co1181 O1187 2.058 . S
Co1181 O1197 2.057 . S
Co1181 O1212 2.037 . S
Co1181 N1216 2.145 . S
Co1181 N1237 2.257 . S
O1182 Co1180 2.143 . S
O1182 Co1181 2.160 . S
C1183 O1184 1.278 . S
C1183 O1191 1.224 . S
O1184 C1183 1.278 . S
C1185 O1186 1.245 . S
C1185 O1197 1.232 . S
O1186 C1185 1.245 . S
O1187 Co1181 2.058 . S
O1187 C1213 1.269 . S
O1188 Co1180 2.074 . S
O1188 C1213 1.257 . S
H1189 C1214 0.930 . S
H1190 C1220 0.930 . S
O1191 Co1180 2.093 . S
O1191 C1183 1.224 . S
H1192 C1224 0.929 . S
H1193 C1226 0.930 . S
H1194 C1227 0.930 . S
H1195 C1225 0.929 . S
H1196 C1228 0.928 . S
O1197 Co1181 2.057 . S
O1197 C1185 1.232 . S
H1198 C1217 0.929 . S
H1199 C1218 0.929 . S
H1200 C1230 0.931 . S
H1201 C1222 0.929 . S
H1202 C1231 0.930 . S
H1203 C1223 0.931 . S
O1204 Co1180 2.097 . S
O1204 C1232 1.214 . S
H1205 C1233 0.929 . S
H1206 C1234 0.929 . S
H1207 C1235 0.930 . S
H1208 C1236 0.929 . S
H1209 C1238 0.930 . S
H1210 C1215 0.930 . S
H1211 C1219 0.930 . S
O1212 Co1181 2.037 . S
O1212 C1232 1.234 . S
C1213 O1187 1.269 . S
C1213 O1188 1.257 . S
C1214 H1189 0.930 . S
C1214 C1217 1.388 . S
C1214 C1219 1.418 . S
C1215 H1210 0.930 . S
C1215 C1218 1.404 1_545 S
C1215 C1219 1.353 . S
N1216 Co1181 2.145 . S
N1216 C1217 1.397 1_565 S
N1216 C1218 1.334 . S
C1217 H1198 0.929 . S
C1217 C1214 1.388 . S
C1217 N1216 1.397 1_545 S
C1218 H1199 0.929 . S
C1218 C1215 1.404 1_565 S
C1218 N1216 1.334 . S
C1219 H1211 0.930 . S
C1219 C1214 1.418 . S
C1219 C1215 1.353 . S
C1220 H1190 0.930 . S
C1220 N1221 1.330 . S
C1220 C1222 1.446 . S
N1221 Co1180 2.151 . S
N1221 C1220 1.330 . S
N1221 C1225 1.418 . S
C1222 H1201 0.929 . S
C1222 C1220 1.446 . S
C1222 C1223 1.332 . S
C1223 H1203 0.931 . S
C1223 C1222 1.332 . S
C1223 C1224 1.267 . S
C1224 H1192 0.929 . S
C1224 C1223 1.267 . S
C1224 C1225 1.251 . S
C1225 H1195 0.929 . S
C1225 N1221 1.418 . S
C1225 C1224 1.251 . S
C1226 H1193 0.930 . S
C1226 C1228 1.406 . S
C1226 C1231 1.261 . S
C1227 H1194 0.930 . S
C1227 N1229 1.325 . S
C1227 C1230 1.357 . S
C1228 H1196 0.928 . S
C1228 C1226 1.406 . S
C1228 N1229 1.261 . S
N1229 Co1180 2.214 . S
N1229 C1227 1.325 . S
N1229 C1228 1.261 . S
C1230 H1200 0.931 . S
C1230 C1227 1.357 . S
C1230 C1231 1.312 . S
C1231 H1202 0.930 . S
C1231 C1226 1.261 . S
C1231 C1230 1.312 . S
C1232 O1204 1.214 . S
C1232 O1212 1.234 . S
C1233 H1205 0.929 . S
C1233 C1236 1.391 . S
C1233 C1238 1.391 . S
C1234 H1206 0.929 . S
C1234 C1235 1.390 . S
C1234 N1237 1.391 . S
C1235 H1207 0.930 . S
C1235 C1234 1.390 . S
C1235 C1236 1.392 . S
C1236 H1208 0.929 . S
C1236 C1233 1.391 . S
C1236 C1235 1.392 . S
N1237 Co1181 2.257 . S
N1237 C1234 1.391 . S
N1237 C1238 1.388 . S
C1238 H1209 0.930 . S
C1238 C1233 1.391 . S
C1238 N1237 1.388 . S
Co1239 O1241 2.143 . S
Co1239 O1247 2.074 . S
Co1239 O1250 2.093 . S
Co1239 O1263 2.097 1_556 S
Co1239 N1280 2.151 . S
Co1239 N1288 2.214 . S
Co1240 O1241 2.160 1_554 S
Co1240 O1246 2.058 1_554 S
Co1240 O1256 2.057 . S
Co1240 O1271 2.037 . S
Co1240 N1275 2.145 . S
Co1240 N1296 2.257 . S
O1241 Co1239 2.143 . S
O1241 Co1240 2.160 1_556 S
C1242 O1243 1.278 . S
C1242 O1250 1.224 1_554 S
O1243 C1242 1.278 . S
C1244 O1245 1.245 1_554 S
C1244 O1256 1.232 . S
O1245 C1244 1.245 1_556 S
O1246 Co1240 2.058 1_556 S
O1246 C1272 1.269 . S
O1247 Co1239 2.074 . S
O1247 C1272 1.257 . S
H1248 C1273 0.930 . S
H1249 C1279 0.930 . S
O1250 Co1239 2.093 . S
O1250 C1242 1.224 1_556 S
H1251 C1283 0.929 . S
H1252 C1285 0.930 . S
H1253 C1286 0.930 . S
H1254 C1284 0.929 . S
H1255 C1287 0.928 . S
O1256 Co1240 2.057 . S
O1256 C1244 1.232 . S
H1257 C1276 0.929 . S
H1258 C1277 0.929 . S
H1259 C1289 0.931 . S
H1260 C1281 0.929 . S
H1261 C1290 0.930 . S
H1262 C1282 0.931 . S
O1263 Co1239 2.097 1_554 S
O1263 C1291 1.214 . S
H1264 C1292 0.929 . S
H1265 C1293 0.929 . S
H1266 C1294 0.930 . S
H1267 C1295 0.929 . S
H1268 C1297 0.930 . S
H1269 C1274 0.930 . S
H1270 C1278 0.930 . S
O1271 Co1240 2.037 . S
O1271 C1291 1.234 . S
C1272 O1246 1.269 . S
C1272 O1247 1.257 . S
C1273 H1248 0.930 . S
C1273 C1276 1.388 . S
C1273 C1278 1.418 . S
C1274 H1269 0.930 . S
C1274 C1277 1.404 1_565 S
C1274 C1278 1.353 . S
N1275 Co1240 2.145 . S
N1275 C1276 1.397 1_545 S
N1275 C1277 1.334 . S
C1276 H1257 0.929 . S
C1276 C1273 1.388 . S
C1276 N1275 1.397 1_565 S
C1277 H1258 0.929 . S
C1277 C1274 1.404 1_545 S
C1277 N1275 1.334 . S
C1278 H1270 0.930 . S
C1278 C1273 1.418 . S
C1278 C1274 1.353 . S
C1279 H1249 0.930 . S
C1279 N1280 1.330 . S
C1279 C1281 1.446 . S
N1280 Co1239 2.151 . S
N1280 C1279 1.330 . S
N1280 C1284 1.418 . S
C1281 H1260 0.929 . S
C1281 C1279 1.446 . S
C1281 C1282 1.332 . S
C1282 H1262 0.931 . S
C1282 C1281 1.332 . S
C1282 C1283 1.267 . S
C1283 H1251 0.929 . S
C1283 C1282 1.267 . S
C1283 C1284 1.251 . S
C1284 H1254 0.929 . S
C1284 N1280 1.418 . S
C1284 C1283 1.251 . S
C1285 H1252 0.930 . S
C1285 C1287 1.406 . S
C1285 C1290 1.261 . S
C1286 H1253 0.930 . S
C1286 N1288 1.325 . S
C1286 C1289 1.357 . S
C1287 H1255 0.928 . S
C1287 C1285 1.406 . S
C1287 N1288 1.261 . S
N1288 Co1239 2.214 . S
N1288 C1286 1.325 . S
N1288 C1287 1.261 . S
C1289 H1259 0.931 . S
C1289 C1286 1.357 . S
C1289 C1290 1.312 . S
C1290 H1261 0.930 . S
C1290 C1285 1.261 . S
C1290 C1289 1.312 . S
C1291 O1263 1.214 . S
C1291 O1271 1.234 . S
C1292 H1264 0.929 . S
C1292 C1295 1.391 . S
C1292 C1297 1.391 . S
C1293 H1265 0.929 . S
C1293 C1294 1.390 . S
C1293 N1296 1.391 . S
C1294 H1266 0.930 . S
C1294 C1293 1.390 . S
C1294 C1295 1.392 . S
C1295 H1267 0.929 . S
C1295 C1292 1.391 . S
C1295 C1294 1.392 . S
N1296 Co1240 2.257 . S
N1296 C1293 1.391 . S
N1296 C1297 1.388 . S
C1297 H1268 0.930 . S
C1297 C1292 1.391 . S
C1297 N1296 1.388 . S
Co1298 O1300 2.143 . S
Co1298 O1306 2.074 . S
Co1298 O1309 2.093 . S
Co1298 O1322 2.097 1_556 S
Co1298 N1339 2.151 . S
Co1298 N1347 2.214 . S
Co1299 O1300 2.160 1_554 S
Co1299 O1305 2.058 1_554 S
Co1299 O1315 2.057 . S
Co1299 O1330 2.037 . S
Co1299 N1334 2.145 . S
Co1299 N1355 2.257 . S
O1300 Co1298 2.143 . S
O1300 Co1299 2.160 1_556 S
C1301 O1302 1.278 . S
C1301 O1309 1.224 1_554 S
O1302 C1301 1.278 . S
C1303 O1304 1.245 1_554 S
C1303 O1315 1.232 . S
O1304 C1303 1.245 1_556 S
O1305 Co1299 2.058 1_556 S
O1305 C1331 1.269 . S
O1306 Co1298 2.074 . S
O1306 C1331 1.257 . S
H1307 C1332 0.930 . S
H1308 C1338 0.930 . S
O1309 Co1298 2.093 . S
O1309 C1301 1.224 1_556 S
H1310 C1342 0.929 . S
H1311 C1344 0.930 . S
H1312 C1345 0.930 . S
H1313 C1343 0.929 . S
H1314 C1346 0.928 . S
O1315 Co1299 2.057 . S
O1315 C1303 1.232 . S
H1316 C1335 0.929 . S
H1317 C1336 0.929 . S
H1318 C1348 0.931 . S
H1319 C1340 0.929 . S
H1320 C1349 0.930 . S
H1321 C1341 0.931 . S
O1322 Co1298 2.097 1_554 S
O1322 C1350 1.214 . S
H1323 C1351 0.929 . S
H1324 C1352 0.929 . S
H1325 C1353 0.930 . S
H1326 C1354 0.929 . S
H1327 C1356 0.930 . S
H1328 C1333 0.930 . S
H1329 C1337 0.930 . S
O1330 Co1299 2.037 . S
O1330 C1350 1.234 . S
C1331 O1305 1.269 . S
C1331 O1306 1.257 . S
C1332 H1307 0.930 . S
C1332 C1335 1.388 . S
C1332 C1337 1.418 . S
C1333 H1328 0.930 . S
C1333 C1336 1.404 . S
C1333 C1337 1.353 . S
N1334 Co1299 2.145 . S
N1334 C1335 1.397 . S
N1334 C1336 1.334 . S
C1335 H1316 0.929 . S
C1335 C1332 1.388 . S
C1335 N1334 1.397 . S
C1336 H1317 0.929 . S
C1336 C1333 1.404 . S
C1336 N1334 1.334 . S
C1337 H1329 0.930 . S
C1337 C1332 1.418 . S
C1337 C1333 1.353 . S
C1338 H1308 0.930 . S
C1338 N1339 1.330 . S
C1338 C1340 1.446 . S
N1339 Co1298 2.151 . S
N1339 C1338 1.330 . S
N1339 C1343 1.418 . S
C1340 H1319 0.929 . S
C1340 C1338 1.446 . S
C1340 C1341 1.332 . S
C1341 H1321 0.931 . S
C1341 C1340 1.332 . S
C1341 C1342 1.267 . S
C1342 H1310 0.929 . S
C1342 C1341 1.267 . S
C1342 C1343 1.251 . S
C1343 H1313 0.929 . S
C1343 N1339 1.418 . S
C1343 C1342 1.251 . S
C1344 H1311 0.930 . S
C1344 C1346 1.406 . S
C1344 C1349 1.261 . S
C1345 H1312 0.930 . S
C1345 N1347 1.325 . S
C1345 C1348 1.357 . S
C1346 H1314 0.928 . S
C1346 C1344 1.406 . S
C1346 N1347 1.261 . S
N1347 Co1298 2.214 . S
N1347 C1345 1.325 . S
N1347 C1346 1.261 . S
C1348 H1318 0.931 . S
C1348 C1345 1.357 . S
C1348 C1349 1.312 . S
C1349 H1320 0.930 . S
C1349 C1344 1.261 . S
C1349 C1348 1.312 . S
C1350 O1322 1.214 . S
C1350 O1330 1.234 . S
C1351 H1323 0.929 . S
C1351 C1354 1.391 . S
C1351 C1356 1.391 . S
C1352 H1324 0.929 . S
C1352 C1353 1.390 . S
C1352 N1355 1.391 . S
C1353 H1325 0.930 . S
C1353 C1352 1.390 . S
C1353 C1354 1.392 . S
C1354 H1326 0.929 . S
C1354 C1351 1.391 . S
C1354 C1353 1.392 . S
N1355 Co1299 2.257 . S
N1355 C1352 1.391 . S
N1355 C1356 1.388 . S
C1356 H1327 0.930 . S
C1356 C1351 1.391 . S
C1356 N1355 1.388 . S
Co1357 O1359 2.143 . S
Co1357 O1365 2.074 . S
Co1357 O1368 2.093 . S
Co1357 O1381 2.097 1_654 S
Co1357 N1398 2.151 . S
Co1357 N1406 2.214 1_655 S
Co1358 O1359 2.160 1_556 S
Co1358 O1364 2.058 1_556 S
Co1358 O1374 2.057 . S
Co1358 O1389 2.037 . S
Co1358 N1393 2.145 . S
Co1358 N1414 2.257 . S
O1359 Co1357 2.143 . S
O1359 Co1358 2.160 1_554 S
C1360 O1361 1.278 . S
C1360 O1368 1.224 1_556 S
O1361 C1360 1.278 . S
C1362 O1363 1.245 1_556 S
C1362 O1374 1.232 . S
O1363 C1362 1.245 1_554 S
O1364 Co1358 2.058 1_554 S
O1364 C1390 1.269 . S
O1365 Co1357 2.074 . S
O1365 C1390 1.257 . S
H1366 C1391 0.930 . S
H1367 C1397 0.930 . S
O1368 Co1357 2.093 . S
O1368 C1360 1.224 1_554 S
H1369 C1401 0.929 . S
H1370 C1403 0.930 . S
H1371 C1404 0.930 . S
H1372 C1402 0.929 . S
H1373 C1405 0.928 . S
O1374 Co1358 2.057 . S
O1374 C1362 1.232 . S
H1375 C1394 0.929 . S
H1376 C1395 0.929 . S
H1377 C1407 0.931 . S
H1378 C1399 0.929 . S
H1379 C1408 0.930 . S
H1380 C1400 0.931 . S
O1381 Co1357 2.097 1_456 S
O1381 C1409 1.214 . S
H1382 C1410 0.929 . S
H1383 C1411 0.929 . S
H1384 C1412 0.930 . S
H1385 C1413 0.929 . S
H1386 C1415 0.930 . S
H1387 C1392 0.930 . S
H1388 C1396 0.930 . S
O1389 Co1358 2.037 . S
O1389 C1409 1.234 1_655 S
C1390 O1364 1.269 . S
C1390 O1365 1.257 . S
C1391 H1366 0.930 . S
C1391 C1394 1.388 . S
C1391 C1396 1.418 . S
C1392 H1387 0.930 . S
C1392 C1395 1.404 1_565 S
C1392 C1396 1.353 . S
N1393 Co1358 2.145 . S
N1393 C1394 1.397 1_545 S
N1393 C1395 1.334 . S
C1394 H1375 0.929 . S
C1394 C1391 1.388 . S
C1394 N1393 1.397 1_565 S
C1395 H1376 0.929 . S
C1395 C1392 1.404 1_545 S
C1395 N1393 1.334 . S
C1396 H1388 0.930 . S
C1396 C1391 1.418 . S
C1396 C1392 1.353 . S
C1397 H1367 0.930 . S
C1397 N1398 1.330 . S
C1397 C1399 1.446 . S
N1398 Co1357 2.151 . S
N1398 C1397 1.330 . S
N1398 C1402 1.418 . S
C1399 H1378 0.929 . S
C1399 C1397 1.446 . S
C1399 C1400 1.332 . S
C1400 H1380 0.931 . S
C1400 C1399 1.332 . S
C1400 C1401 1.267 . S
C1401 H1369 0.929 . S
C1401 C1400 1.267 . S
C1401 C1402 1.251 . S
C1402 H1372 0.929 . S
C1402 N1398 1.418 . S
C1402 C1401 1.251 . S
C1403 H1370 0.930 . S
C1403 C1405 1.406 . S
C1403 C1408 1.261 . S
C1404 H1371 0.930 . S
C1404 N1406 1.325 . S
C1404 C1407 1.357 . S
C1405 H1373 0.928 . S
C1405 C1403 1.406 . S
C1405 N1406 1.261 . S
N1406 Co1357 2.214 1_455 S
N1406 C1404 1.325 . S
N1406 C1405 1.261 . S
C1407 H1377 0.931 . S
C1407 C1404 1.357 . S
C1407 C1408 1.312 . S
C1408 H1379 0.930 . S
C1408 C1403 1.261 . S
C1408 C1407 1.312 . S
C1409 O1381 1.214 . S
C1409 O1389 1.234 1_455 S
C1410 H1382 0.929 . S
C1410 C1413 1.391 . S
C1410 C1415 1.391 . S
C1411 H1383 0.929 . S
C1411 C1412 1.390 . S
C1411 N1414 1.391 . S
C1412 H1384 0.930 . S
C1412 C1411 1.390 . S
C1412 C1413 1.392 . S
C1413 H1385 0.929 . S
C1413 C1410 1.391 . S
C1413 C1412 1.392 . S
N1414 Co1358 2.257 . S
N1414 C1411 1.391 . S
N1414 C1415 1.388 . S
C1415 H1386 0.930 . S
C1415 C1410 1.391 . S
C1415 N1414 1.388 . S
C1055 C33 0.819 . S
C92 C996 1.092 . S
C151 C1173 1.043 . S
C210 C1114 1.299 1_554 S
C269 C1291 0.819 . S
C328 C1350 1.104 . S
C1232 C387 1.092 . S
C701 C446 1.301 . S
C505 C229 0.819 . S
C111 C564 1.104 . S
C623 C52 1.318 . S
C682 C878 1.301 . S
C347 C741 1.513 1_554 S
C288 C800 1.318 . S
C859 C465 1.301 . S
C918 C406 1.104 . S
C583 C977 1.513 1_455 S
C642 C1036 1.299 1_655 S
C524 C1095 1.318 . S
C1154 C1409 1.043 . S
C937 C1213 1.513 1_545 S
C1272 C819 1.299 1_545 S
C760 C1331 1.092 . S
C1390 C170 1.043 . S
C5 C64 1.743 1_655 S
C182 C123 1.647 1_455 S
C241 C359 1.743 1_565 S
C300 C418 2.375 . S
C1303 C477 1.743 1_554 S
C536 C654 2.375 . S
C1185 C595 2.376 . S
C772 C713 2.376 . S
C831 C890 2.375 . S
C1067 C949 2.376 . S
C1008 C1126 1.647 1_545 S
C1362 C1244 1.647 1_556 S
C121 C3 1.527 1_565 S
C62 C180 1.831 . S
C1124 C239 1.527 1_556 S
C298 C1065 1.778 1_554 S
C357 C1006 1.831 . S
C947 C416 2.064 . S
C475 C1360 1.527 1_455 S
C534 C593 1.778 1_455 S
C1183 C652 2.064 . S
C711 C829 2.064 . S
C770 C888 1.778 1_565 S
C1301 C1242 1.831 . S
