# Generated by pormake.
# Topology bcu, (8)-cn, num edge types: 1
# Building blocks:
#     Node 0, Type 0, BuildingBlock: VETTIZ_charged_sbu_0, # of connection points: 8
#     Node 1, Type 0, BuildingBlock: VETTIZ_charged_sbu_0, # of connection points: 8
#     Edge 2, Type (0, 0), BuildingBlock: XUDNAN_clean_linker_2, # of connection points: 2
#     Edge 3, Type (0, 0), BuildingBlock: XUDNAN_clean_linker_2, # of connection points: 2
#     Edge 4, Type (0, 0), BuildingBlock: XUDNAN_clean_linker_2, # of connection points: 2
#     Edge 5, Type (0, 0), BuildingBlock: XUDNAN_clean_linker_2, # of connection points: 2
#     Edge 6, Type (0, 0), BuildingBlock: XUDNAN_clean_linker_2, # of connection points: 2
#     Edge 7, Type (0, 0), BuildingBlock: XUDNAN_clean_linker_2, # of connection points: 2
#     Edge 8, Type (0, 0), BuildingBlock: XUDNAN_clean_linker_2, # of connection points: 2
#     Edge 9, Type (0, 0), BuildingBlock: XUDNAN_clean_linker_2, # of connection points: 2
# Relax obj value: 0.000
# Max RMSD: 0.009
# Mean RMSD: 0.009
data_MOF--net-bcu--node1-VETTIZ_charged_sbu_0--edge1-XUDNAN_clean_linker_2
_symmetry_space_group_name_H-M    P1
_symmetry_Int_Tables_number       1
_symmetry_cell_setting            triclinic
loop_
_symmetry_equiv_pos_as_xyz
'x, y, z'
_cell_length_a     18.460408
_cell_length_b     19.431376
_cell_length_c     20.953787
_cell_angle_alpha  90.051089
_cell_angle_beta   89.980791
_cell_angle_gamma 87.223186
loop_
_atom_site_label
_atom_site_type_symbol
_atom_site_fract_x
_atom_site_fract_y
_atom_site_fract_z
_atom_type_partial_charge
Fe0 Fe 1.01003 0.86216 0.9717 0.0
O1 O 1.00183 0.96331 0.97476 0.0
Fe2 Fe 1.0432 1.0181 0.89793 0.0
Fe3 Fe 0.04423 1.01764 0.04525 0.0
O4 O 1.00172 0.96332 0.96858 0.0
O5 O 0.08549 0.07256 0.96848 0.0
O6 O 0.08554 0.0725 0.97465 0.0
Fe7 Fe 0.07724 0.17367 0.97246 0.0
C8 C 0.94521 0.90458 0.09932 0.0
O9 O 0.08826 0.85343 0.0425 0.0
O10 O 0.13676 0.95567 0.04548 0.0
O11 O 0.14728 0.16304 0.8962 0.0
O12 O 0.09394 0.08184 0.83316 0.0
O13 O 0.13706 0.95492 0.89431 0.0
O14 O 0.08938 0.85243 0.90293 0.0
O15 O 0.09815 0.08242 0.11021 0.0
O16 O 0.15096 0.1623 0.04513 0.0
C17 C 0.13997 0.89005 0.88488 0.0
O18 O 0.99685 0.18386 0.90477 0.0
O19 O 0.94931 0.08134 0.89533 0.0
O20 O 0.93744 0.87302 0.04538 0.0
O21 O 0.99127 0.95243 0.11038 0.0
C22 C 0.1387 0.89218 0.05923 0.0
C23 C 0.14394 0.13046 0.09898 0.0
C24 C 0.95009 0.14294 0.06147 0.0
O25 O 0.9517 0.07961 0.04701 0.0
O26 O 1.00022 0.18184 0.04438 0.0
C27 C 0.13947 0.12989 0.84289 0.0
O28 O 0.99175 0.95459 0.83328 0.0
O29 O 0.93877 0.87345 0.89644 0.0
C30 C 0.94627 0.14632 0.88653 0.0
C31 C 0.94601 0.90677 0.84319 0.0
Fe32 Fe 0.54314 0.6037 0.46813 0.0
O33 O 0.47845 0.52486 0.45753 0.0
Fe34 Fe 0.71427 0.51351 0.47407 0.0
Fe35 Fe 0.37474 0.52208 0.47219 0.0
O36 O 0.61017 0.5214 0.48324 0.0
O37 O 0.61079 0.51029 0.4583 0.0
O38 O 0.47869 0.51423 0.48263 0.0
Fe39 Fe 0.54595 0.43165 0.46942 0.0
C40 C 0.43131 0.6142 0.58054 0.0
O41 O 0.46569 0.67664 0.43742 0.0
O42 O 0.37259 0.60822 0.41475 0.0
O43 O 0.62396 0.35826 0.44059 0.0
O44 O 0.71738 0.42631 0.41775 0.0
O45 O 0.7107 0.57731 0.39537 0.0
O46 O 0.59076 0.60519 0.3765 0.0
O47 O 0.37948 0.45708 0.39432 0.0
O48 O 0.49966 0.42828 0.37732 0.0
C49 C 0.65912 0.60677 0.36217 0.0
O50 O 0.59001 0.42385 0.56235 0.0
O51 O 0.70879 0.45045 0.55311 0.0
O52 O 0.49775 0.61328 0.5605 0.0
O53 O 0.37913 0.58636 0.55058 0.0
C54 C 0.40559 0.66471 0.40919 0.0
C55 C 0.43153 0.42694 0.3621 0.0
C56 C 0.41287 0.37573 0.52718 0.0
O57 O 0.3794 0.43535 0.52917 0.0
O58 O 0.47099 0.3617 0.49504 0.0
C59 C 0.68451 0.36964 0.41283 0.0
O60 O 0.70853 0.60122 0.53003 0.0
O61 O 0.61768 0.67414 0.49339 0.0
C62 C 0.65624 0.42303 0.58289 0.0
C63 C 0.67508 0.66079 0.5266 0.0
H64 H 0.13019 0.25584 0.15355 0.0
H65 H 0.26339 0.06636 0.15426 0.0
H66 H 0.3578 0.12431 0.2162 0.0
H67 H 0.26918 0.36783 0.12969 0.0
H68 H 0.23238 0.43548 0.18085 0.0
H69 H 0.17265 0.37767 0.14253 0.0
H70 H 0.11912 0.34407 0.2517 0.0
H71 H 0.17683 0.40341 0.29037 0.0
H72 H 0.17921 0.31439 0.31478 0.0
H73 H 0.44239 0.20851 0.26991 0.0
H74 H 0.499 0.30353 0.32739 0.0
H75 H 0.30862 0.43678 0.28968 0.0
C76 C 0.17813 0.22598 0.16894 0.0
C77 C 0.18912 0.15634 0.15077 0.0
C78 C 0.25334 0.1192 0.16955 0.0
C79 C 0.30755 0.15209 0.20381 0.0
C80 C 0.29635 0.22196 0.21868 0.0
C81 C 0.23229 0.25788 0.20308 0.0
C82 C 0.23336 0.33256 0.22348 0.0
C83 C 0.22649 0.38122 0.16568 0.0
C84 C 0.17362 0.34958 0.27306 0.0
C85 C 0.30818 0.33351 0.25281 0.0
C86 C 0.34426 0.26961 0.24906 0.0
C87 C 0.41435 0.2586 0.27328 0.0
C88 C 0.44664 0.31324 0.30499 0.0
C89 C 0.40854 0.37783 0.31266 0.0
C90 C 0.33944 0.38825 0.28422 0.0
H91 H 0.95836 0.2553 0.13834 0.0
H92 H 0.82169 0.08615 0.0939 0.0
H93 H 0.73975 0.12154 0.18288 0.0
H94 H 0.94588 0.24042 0.30633 0.0
H95 H 0.9461 0.332 0.32003 0.0
H96 H 0.99078 0.29494 0.25083 0.0
H97 H 0.91365 0.37729 0.17741 0.0
H98 H 0.86933 0.41488 0.2465 0.0
H99 H 0.81613 0.37951 0.18342 0.0
H100 H 0.6728 0.17726 0.27851 0.0
H101 H 0.62607 0.25004 0.36816 0.0
H102 H 0.81341 0.37576 0.3505 0.0
C103 C 0.91047 0.22638 0.14635 0.0
C104 C 0.89598 0.16842 0.10885 0.0
C105 C 0.83356 0.13105 0.12197 0.0
C106 C 0.78689 0.15059 0.17248 0.0
C107 C 0.8039 0.20715 0.20958 0.0
C108 C 0.86418 0.24448 0.19682 0.0
C109 C 0.87211 0.30195 0.24432 0.0
C110 C 0.9429 0.29167 0.28265 0.0
C111 C 0.86748 0.37256 0.21092 0.0
C112 C 0.80651 0.29169 0.28562 0.0
C113 C 0.7675 0.237 0.26515 0.0
C114 C 0.7032 0.22 0.29515 0.0
C115 C 0.67728 0.26134 0.34626 0.0
C116 C 0.71591 0.31869 0.36665 0.0
C117 C 0.78226 0.33237 0.33661 0.0
H118 H 0.96179 0.78103 0.15709 0.0
H119 H 0.82323 0.96703 0.15142 0.0
H120 H 0.72917 0.90824 0.21291 0.0
H121 H 0.82727 0.66483 0.13295 0.0
H122 H 0.86426 0.59933 0.18618 0.0
H123 H 0.92348 0.65775 0.14812 0.0
H124 H 0.97253 0.69555 0.25776 0.0
H125 H 0.91545 0.63555 0.29621 0.0
H126 H 0.90975 0.72515 0.31892 0.0
H127 H 0.64567 0.82329 0.26642 0.0
H128 H 0.58984 0.72809 0.32409 0.0
H129 H 0.78469 0.5986 0.29302 0.0
C130 C 0.91275 0.81007 0.17113 0.0
C131 C 0.90018 0.87897 0.15129 0.0
C132 C 0.83449 0.91488 0.16812 0.0
C133 C 0.78049 0.88148 0.2021 0.0
C134 C 0.79333 0.8123 0.21867 0.0
C135 C 0.85872 0.77763 0.20502 0.0
C136 C 0.8591 0.70335 0.22681 0.0
C137 C 0.86912 0.65341 0.17012 0.0
C138 C 0.91764 0.68909 0.27799 0.0
C139 C 0.78355 0.70118 0.25454 0.0
C140 C 0.74594 0.76414 0.24891 0.0
C141 C 0.67492 0.77396 0.27131 0.0
C142 C 0.64312 0.71918 0.30315 0.0
C143 C 0.68261 0.65563 0.31275 0.0
C144 C 0.75281 0.6463 0.28612 0.0
H145 H 0.13436 0.77634 0.13194 0.0
H146 H 0.26562 0.95092 0.09321 0.0
H147 H 0.34831 0.91477 0.18127 0.0
H148 H 0.14466 0.7862 0.29923 0.0
H149 H 0.14757 0.69417 0.31071 0.0
H150 H 0.10277 0.73158 0.24183 0.0
H151 H 0.18387 0.65368 0.16746 0.0
H152 H 0.22838 0.61567 0.23621 0.0
H153 H 0.28114 0.65446 0.17473 0.0
H154 H 0.41564 0.85861 0.27654 0.0
H155 H 0.46214 0.78601 0.36632 0.0
H156 H 0.27984 0.6549 0.3428 0.0
C157 C 0.1813 0.80629 0.14088 0.0
C158 C 0.19385 0.86613 0.10542 0.0
C159 C 0.25515 0.90464 0.11974 0.0
C160 C 0.30229 0.88464 0.16972 0.0
C161 C 0.28703 0.82629 0.20496 0.0
C162 C 0.2281 0.78764 0.19078 0.0
C163 C 0.22151 0.72865 0.23675 0.0
C164 C 0.14989 0.73562 0.27436 0.0
C165 C 0.22923 0.65902 0.2017 0.0
C166 C 0.28595 0.73991 0.27912 0.0
C167 C 0.32356 0.79611 0.26026 0.0
C168 C 0.38637 0.8146 0.29184 0.0
C169 C 0.41215 0.77336 0.34301 0.0
C170 C 0.37475 0.71474 0.36199 0.0
C171 C 0.31002 0.69931 0.33011 0.0
H172 H 0.14547 0.7609 0.83334 0.0
H173 H 0.27077 0.94337 0.84967 0.0
H174 H 0.3677 0.88641 0.78333 0.0
H175 H 0.29608 0.63195 0.83367 0.0
H176 H 0.25339 0.57915 0.77524 0.0
H177 H 0.19857 0.63159 0.82941 0.0
H178 H 0.13145 0.69019 0.73368 0.0
H179 H 0.18556 0.63762 0.67943 0.0
H180 H 0.18331 0.73014 0.67223 0.0
H181 H 0.44889 0.80897 0.70993 0.0
H182 H 0.49838 0.72636 0.62903 0.0
H183 H 0.31537 0.5985 0.65955 0.0
C184 C 0.19378 0.78879 0.8242 0.0
C185 C 0.20075 0.85648 0.84767 0.0
C186 C 0.26433 0.89132 0.83282 0.0
C187 C 0.31978 0.85919 0.79535 0.0
C188 C 0.31074 0.79236 0.77287 0.0
C189 C 0.24882 0.75799 0.78655 0.0
C190 C 0.24844 0.68925 0.75254 0.0
C191 C 0.24918 0.62946 0.80059 0.0
C192 C 0.18337 0.68671 0.70676 0.0
C193 C 0.31936 0.69036 0.71652 0.0
C194 C 0.35544 0.74951 0.72958 0.0
C195 C 0.42112 0.7624 0.69982 0.0
C196 C 0.44916 0.71487 0.65421 0.0
C197 C 0.41089 0.65576 0.63797 0.0
C198 C 0.34616 0.64294 0.67099 0.0
H199 H 0.3537 0.39642 0.64293 0.0
H200 H 0.40658 0.23648 0.50384 0.0
H201 H 0.34452 0.15201 0.57141 0.0
H202 H 0.37707 0.28934 0.78431 0.0
H203 H 0.3032 0.33452 0.82529 0.0
H204 H 0.35581 0.37903 0.76745 0.0
H205 H 0.23804 0.4141 0.70569 0.0
H206 H 0.18508 0.36908 0.76273 0.0
H207 H 0.17951 0.34818 0.67911 0.0
H208 H 0.26524 0.08919 0.65144 0.0
H209 H 0.18712 0.05169 0.74013 0.0
H210 H 0.19256 0.25548 0.82428 0.0
C211 C 0.35283 0.34343 0.62686 0.0
C212 C 0.38402 0.32261 0.5683 0.0
C213 C 0.38285 0.25292 0.54896 0.0
C214 C 0.34762 0.20497 0.5868 0.0
C215 C 0.31543 0.22793 0.6438 0.0
C216 C 0.31899 0.29544 0.66396 0.0
C217 C 0.27945 0.30858 0.72596 0.0
C218 C 0.33204 0.32903 0.77887 0.0
C219 C 0.21683 0.36318 0.71783 0.0
C220 C 0.25165 0.23814 0.73742 0.0
C221 C 0.27242 0.19205 0.68974 0.0
C222 C 0.24953 0.12466 0.68939 0.0
C223 C 0.20491 0.10399 0.73954 0.0
C224 C 0.18454 0.15065 0.7891 0.0
C225 C 0.2083 0.21833 0.78763 0.0
H226 H 0.94076 0.27578 0.83594 0.0
H227 H 0.81532 0.09331 0.85113 0.0
H228 H 0.71847 0.15069 0.78512 0.0
H229 H 0.79019 0.40495 0.83679 0.0
H230 H 0.83309 0.45788 0.77866 0.0
H231 H 0.88772 0.40522 0.83267 0.0
H232 H 0.95504 0.34686 0.7368 0.0
H233 H 0.90113 0.39965 0.6827 0.0
H234 H 0.90329 0.30717 0.67508 0.0
H235 H 0.63757 0.22844 0.71193 0.0
H236 H 0.58858 0.31115 0.63108 0.0
H237 H 0.77154 0.43883 0.66259 0.0
C238 C 0.89242 0.24798 0.82666 0.0
C239 C 0.8854 0.18016 0.84969 0.0
C240 C 0.8218 0.14545 0.83464 0.0
C241 C 0.76639 0.17782 0.79735 0.0
C242 C 0.77551 0.24476 0.77527 0.0
C243 C 0.83744 0.27902 0.78918 0.0
C244 C 0.83798 0.34786 0.75547 0.0
C245 C 0.83718 0.4075 0.8038 0.0
C246 C 0.90319 0.35048 0.70981 0.0
C247 C 0.76715 0.34694 0.71934 0.0
C248 C 0.73096 0.2878 0.73209 0.0
C249 C 0.6654 0.27502 0.70208 0.0
C250 C 0.63765 0.32262 0.6565 0.0
C251 C 0.67605 0.3817 0.64054 0.0
C252 C 0.74061 0.39445 0.67385 0.0
H253 H 0.72398 0.64337 0.64612 0.0
H254 H 0.68864 0.7981 0.49913 0.0
H255 H 0.74982 0.88304 0.56694 0.0
H256 H 0.69718 0.75934 0.78312 0.0
H257 H 0.76599 0.71266 0.82896 0.0
H258 H 0.71387 0.66812 0.7707 0.0
H259 H 0.83297 0.62364 0.7156 0.0
H260 H 0.88547 0.66862 0.77299 0.0
H261 H 0.897 0.68468 0.68899 0.0
H262 H 0.82803 0.94553 0.64771 0.0
H263 H 0.9056 0.98262 0.73682 0.0
H264 H 0.88346 0.78454 0.82856 0.0
C265 C 0.72827 0.69546 0.62854 0.0
C266 C 0.70249 0.71462 0.56768 0.0
C267 C 0.70814 0.78307 0.54608 0.0
C268 C 0.74285 0.83126 0.58408 0.0
C269 C 0.76981 0.80987 0.64349 0.0
C270 C 0.76155 0.74376 0.6658 0.0
C271 C 0.79687 0.7319 0.72986 0.0
C272 C 0.74007 0.71717 0.78119 0.0
C273 C 0.85661 0.67381 0.7266 0.0
C274 C 0.8283 0.80112 0.73977 0.0
C275 C 0.8124 0.84574 0.68979 0.0
C276 C 0.83981 0.91134 0.68752 0.0
C277 C 0.88413 0.93175 0.73797 0.0
C278 C 0.89997 0.88656 0.7897 0.0
C279 C 0.87136 0.82073 0.79028 0.0
loop_
_geom_bond_atom_site_label_1
_geom_bond_atom_site_label_2
_geom_bond_distance
_geom_bond_site_symmetry_2
_ccdc_geom_bond_type
Fe0 O1 1.886 . S
Fe0 O4 1.715 1_554 S
Fe0 O9 2.077 . S
Fe0 O14 1.935 1_554 S
Fe0 O20 2.077 1_455 S
Fe0 O29 1.935 1_454 S
O1 Fe0 1.886 . S
O1 Fe3 1.715 1_565 S
Fe2 O4 1.886 . S
Fe2 O5 1.715 1_565 S
Fe2 O12 1.935 1_565 S
Fe2 O13 2.077 . S
Fe2 O19 1.935 1_465 S
Fe2 O28 2.077 1_455 S
Fe3 O1 1.715 1_545 S
Fe3 O6 1.886 . S
Fe3 O10 1.935 1_545 S
Fe3 O15 2.077 . S
Fe3 O21 1.935 1_445 S
Fe3 O25 2.077 1_455 S
O4 Fe0 1.715 1_556 S
O4 Fe2 1.886 . S
O5 Fe2 1.715 1_545 S
O5 Fe7 1.886 . S
O6 Fe3 1.886 . S
O6 Fe7 1.715 1_554 S
Fe7 O5 1.886 . S
Fe7 O6 1.715 1_556 S
Fe7 O11 2.077 . S
Fe7 O16 1.935 1_556 S
Fe7 O18 2.077 1_455 S
Fe7 O26 1.935 1_456 S
C8 O20 1.381 . S
C8 O21 1.421 . S
O9 Fe0 2.077 . S
O9 C22 1.381 . S
O10 Fe3 1.935 1_565 S
O10 C22 1.421 . S
O11 Fe7 2.077 . S
O11 C27 1.381 . S
O12 Fe2 1.935 1_545 S
O12 C27 1.421 . S
O13 Fe2 2.077 . S
O13 C17 1.381 . S
O14 Fe0 1.935 1_556 S
O14 C17 1.421 . S
O15 Fe3 2.077 . S
O15 C23 1.381 . S
O16 Fe7 1.935 1_554 S
O16 C23 1.421 . S
C17 O13 1.381 . S
C17 O14 1.421 . S
O18 Fe7 2.077 1_655 S
O18 C30 1.381 . S
O19 Fe2 1.935 1_645 S
O19 C30 1.421 . S
O20 Fe0 2.077 1_655 S
O20 C8 1.381 . S
O21 Fe3 1.935 1_665 S
O21 C8 1.421 . S
C22 O9 1.381 . S
C22 O10 1.421 . S
C23 O15 1.381 . S
C23 O16 1.421 . S
C24 O25 1.381 . S
C24 O26 1.421 . S
O25 Fe3 2.077 1_655 S
O25 C24 1.381 . S
O26 Fe7 1.935 1_654 S
O26 C24 1.421 . S
C27 O11 1.381 . S
C27 O12 1.421 . S
O28 Fe2 2.077 1_655 S
O28 C31 1.381 . S
O29 Fe0 1.935 1_656 S
O29 C31 1.421 . S
C30 O18 1.381 . S
C30 O19 1.421 . S
C31 O28 1.381 . S
C31 O29 1.421 . S
Fe32 O33 1.886 . S
Fe32 O36 1.715 . S
Fe32 O41 2.077 . S
Fe32 O46 1.935 . S
Fe32 O52 2.077 . S
Fe32 O61 1.935 . S
O33 Fe32 1.886 . S
O33 Fe35 1.715 . S
Fe34 O36 1.886 . S
Fe34 O37 1.715 . S
Fe34 O44 1.935 . S
Fe34 O45 2.077 . S
Fe34 O51 1.935 . S
Fe34 O60 2.077 . S
Fe35 O33 1.715 . S
Fe35 O38 1.886 . S
Fe35 O42 1.935 . S
Fe35 O47 2.077 . S
Fe35 O53 1.935 . S
Fe35 O57 2.077 . S
O36 Fe32 1.715 . S
O36 Fe34 1.886 . S
O37 Fe34 1.715 . S
O37 Fe39 1.886 . S
O38 Fe35 1.886 . S
O38 Fe39 1.715 . S
Fe39 O37 1.886 . S
Fe39 O38 1.715 . S
Fe39 O43 2.077 . S
Fe39 O48 1.935 . S
Fe39 O50 2.077 . S
Fe39 O58 1.935 . S
C40 O52 1.381 . S
C40 O53 1.421 . S
O41 Fe32 2.077 . S
O41 C54 1.381 . S
O42 Fe35 1.935 . S
O42 C54 1.421 . S
O43 Fe39 2.077 . S
O43 C59 1.381 . S
O44 Fe34 1.935 . S
O44 C59 1.421 . S
O45 Fe34 2.077 . S
O45 C49 1.381 . S
O46 Fe32 1.935 . S
O46 C49 1.421 . S
O47 Fe35 2.077 . S
O47 C55 1.381 . S
O48 Fe39 1.935 . S
O48 C55 1.421 . S
C49 O45 1.381 . S
C49 O46 1.421 . S
O50 Fe39 2.077 . S
O50 C62 1.381 . S
O51 Fe34 1.935 . S
O51 C62 1.421 . S
O52 Fe32 2.077 . S
O52 C40 1.381 . S
O53 Fe35 1.935 . S
O53 C40 1.421 . S
C54 O41 1.381 . S
C54 O42 1.421 . S
C55 O47 1.381 . S
C55 O48 1.421 . S
C56 O57 1.381 . S
C56 O58 1.421 . S
O57 Fe35 2.077 . S
O57 C56 1.381 . S
O58 Fe39 1.935 . S
O58 C56 1.421 . S
C59 O43 1.381 . S
C59 O44 1.421 . S
O60 Fe34 2.077 . S
O60 C63 1.381 . S
O61 Fe32 1.935 . S
O61 C63 1.421 . S
C62 O50 1.381 . S
C62 O51 1.421 . S
C63 O60 1.381 . S
C63 O61 1.421 . S
H64 C76 0.930 . S
H65 C78 0.930 . S
H66 C79 0.930 . S
H67 C83 0.959 . S
H68 C83 0.959 . S
H69 C83 0.961 . S
H70 C84 0.960 . S
H71 C84 0.961 . S
H72 C84 0.959 . S
H73 C87 0.929 . S
H74 C88 0.931 . S
H75 C90 0.930 . S
C76 H64 0.930 . S
C76 C77 1.399 . S
C76 C81 1.399 . S
C77 C76 1.399 . S
C77 C78 1.376 . S
C78 H65 0.930 . S
C78 C77 1.376 . S
C78 C79 1.388 . S
C79 H66 0.930 . S
C79 C78 1.388 . S
C79 C80 1.390 . S
C80 C79 1.390 . S
C80 C81 1.394 . S
C80 C86 1.465 . S
C81 C76 1.399 . S
C81 C80 1.394 . S
C81 C82 1.516 . S
C82 C81 1.516 . S
C82 C83 1.502 . S
C82 C84 1.561 . S
C82 C85 1.526 . S
C83 H67 0.959 . S
C83 H68 0.959 . S
C83 H69 0.961 . S
C83 C82 1.502 . S
C84 H70 0.960 . S
C84 H71 0.961 . S
C84 H72 0.959 . S
C84 C82 1.561 . S
C85 C82 1.526 . S
C85 C86 1.396 . S
C85 C90 1.390 . S
C86 C80 1.465 . S
C86 C85 1.396 . S
C86 C87 1.399 . S
C87 H73 0.929 . S
C87 C86 1.399 . S
C87 C88 1.385 . S
C88 H74 0.931 . S
C88 C87 1.385 . S
C88 C89 1.389 . S
C89 C88 1.389 . S
C89 C90 1.387 . S
C90 H75 0.930 . S
C90 C85 1.390 . S
C90 C89 1.387 . S
H91 C103 0.930 . S
H92 C105 0.930 . S
H93 C106 0.930 . S
H94 C110 0.959 . S
H95 C110 0.959 . S
H96 C110 0.961 . S
H97 C111 0.960 . S
H98 C111 0.961 . S
H99 C111 0.959 . S
H100 C114 0.929 . S
H101 C115 0.931 . S
H102 C117 0.930 . S
C103 H91 0.930 . S
C103 C104 1.399 . S
C103 C108 1.399 . S
C104 C103 1.399 . S
C104 C105 1.376 . S
C105 H92 0.930 . S
C105 C104 1.376 . S
C105 C106 1.388 . S
C106 H93 0.930 . S
C106 C105 1.388 . S
C106 C107 1.390 . S
C107 C106 1.390 . S
C107 C108 1.394 . S
C107 C113 1.465 . S
C108 C103 1.399 . S
C108 C107 1.394 . S
C108 C109 1.516 . S
C109 C108 1.516 . S
C109 C110 1.502 . S
C109 C111 1.561 . S
C109 C112 1.526 . S
C110 H94 0.959 . S
C110 H95 0.959 . S
C110 H96 0.961 . S
C110 C109 1.502 . S
C111 H97 0.960 . S
C111 H98 0.961 . S
C111 H99 0.959 . S
C111 C109 1.561 . S
C112 C109 1.526 . S
C112 C113 1.396 . S
C112 C117 1.390 . S
C113 C107 1.465 . S
C113 C112 1.396 . S
C113 C114 1.399 . S
C114 H100 0.929 . S
C114 C113 1.399 . S
C114 C115 1.385 . S
C115 H101 0.931 . S
C115 C114 1.385 . S
C115 C116 1.389 . S
C116 C115 1.389 . S
C116 C117 1.387 . S
C117 H102 0.930 . S
C117 C112 1.390 . S
C117 C116 1.387 . S
H118 C130 0.930 . S
H119 C132 0.930 . S
H120 C133 0.930 . S
H121 C137 0.959 . S
H122 C137 0.959 . S
H123 C137 0.961 . S
H124 C138 0.960 . S
H125 C138 0.961 . S
H126 C138 0.959 . S
H127 C141 0.929 . S
H128 C142 0.931 . S
H129 C144 0.930 . S
C130 H118 0.930 . S
C130 C131 1.399 . S
C130 C135 1.399 . S
C131 C130 1.399 . S
C131 C132 1.376 . S
C132 H119 0.930 . S
C132 C131 1.376 . S
C132 C133 1.388 . S
C133 H120 0.930 . S
C133 C132 1.388 . S
C133 C134 1.390 . S
C134 C133 1.390 . S
C134 C135 1.394 . S
C134 C140 1.465 . S
C135 C130 1.399 . S
C135 C134 1.394 . S
C135 C136 1.516 . S
C136 C135 1.516 . S
C136 C137 1.502 . S
C136 C138 1.561 . S
C136 C139 1.526 . S
C137 H121 0.959 . S
C137 H122 0.959 . S
C137 H123 0.961 . S
C137 C136 1.502 . S
C138 H124 0.960 . S
C138 H125 0.961 . S
C138 H126 0.959 . S
C138 C136 1.561 . S
C139 C136 1.526 . S
C139 C140 1.396 . S
C139 C144 1.390 . S
C140 C134 1.465 . S
C140 C139 1.396 . S
C140 C141 1.399 . S
C141 H127 0.929 . S
C141 C140 1.399 . S
C141 C142 1.385 . S
C142 H128 0.931 . S
C142 C141 1.385 . S
C142 C143 1.389 . S
C143 C142 1.389 . S
C143 C144 1.387 . S
C144 H129 0.930 . S
C144 C139 1.390 . S
C144 C143 1.387 . S
H145 C157 0.930 . S
H146 C159 0.930 . S
H147 C160 0.930 . S
H148 C164 0.959 . S
H149 C164 0.959 . S
H150 C164 0.961 . S
H151 C165 0.960 . S
H152 C165 0.961 . S
H153 C165 0.959 . S
H154 C168 0.929 . S
H155 C169 0.931 . S
H156 C171 0.930 . S
C157 H145 0.930 . S
C157 C158 1.399 . S
C157 C162 1.399 . S
C158 C157 1.399 . S
C158 C159 1.376 . S
C159 H146 0.930 . S
C159 C158 1.376 . S
C159 C160 1.388 . S
C160 H147 0.930 . S
C160 C159 1.388 . S
C160 C161 1.390 . S
C161 C160 1.390 . S
C161 C162 1.394 . S
C161 C167 1.465 . S
C162 C157 1.399 . S
C162 C161 1.394 . S
C162 C163 1.516 . S
C163 C162 1.516 . S
C163 C164 1.502 . S
C163 C165 1.561 . S
C163 C166 1.526 . S
C164 H148 0.959 . S
C164 H149 0.959 . S
C164 H150 0.961 . S
C164 C163 1.502 . S
C165 H151 0.960 . S
C165 H152 0.961 . S
C165 H153 0.959 . S
C165 C163 1.561 . S
C166 C163 1.526 . S
C166 C167 1.396 . S
C166 C171 1.390 . S
C167 C161 1.465 . S
C167 C166 1.396 . S
C167 C168 1.399 . S
C168 H154 0.929 . S
C168 C167 1.399 . S
C168 C169 1.385 . S
C169 H155 0.931 . S
C169 C168 1.385 . S
C169 C170 1.389 . S
C170 C169 1.389 . S
C170 C171 1.387 . S
C171 H156 0.930 . S
C171 C166 1.390 . S
C171 C170 1.387 . S
H172 C184 0.930 . S
H173 C186 0.930 . S
H174 C187 0.930 . S
H175 C191 0.959 . S
H176 C191 0.959 . S
H177 C191 0.961 . S
H178 C192 0.960 . S
H179 C192 0.961 . S
H180 C192 0.959 . S
H181 C195 0.929 . S
H182 C196 0.931 . S
H183 C198 0.930 . S
C184 H172 0.930 . S
C184 C185 1.399 . S
C184 C189 1.399 . S
C185 C184 1.399 . S
C185 C186 1.376 . S
C186 H173 0.930 . S
C186 C185 1.376 . S
C186 C187 1.388 . S
C187 H174 0.930 . S
C187 C186 1.388 . S
C187 C188 1.390 . S
C188 C187 1.390 . S
C188 C189 1.394 . S
C188 C194 1.465 . S
C189 C184 1.399 . S
C189 C188 1.394 . S
C189 C190 1.516 . S
C190 C189 1.516 . S
C190 C191 1.502 . S
C190 C192 1.561 . S
C190 C193 1.526 . S
C191 H175 0.959 . S
C191 H176 0.959 . S
C191 H177 0.961 . S
C191 C190 1.502 . S
C192 H178 0.960 . S
C192 H179 0.961 . S
C192 H180 0.959 . S
C192 C190 1.561 . S
C193 C190 1.526 . S
C193 C194 1.396 . S
C193 C198 1.390 . S
C194 C188 1.465 . S
C194 C193 1.396 . S
C194 C195 1.399 . S
C195 H181 0.929 . S
C195 C194 1.399 . S
C195 C196 1.385 . S
C196 H182 0.931 . S
C196 C195 1.385 . S
C196 C197 1.389 . S
C197 C196 1.389 . S
C197 C198 1.387 . S
C198 H183 0.930 . S
C198 C193 1.390 . S
C198 C197 1.387 . S
H199 C211 0.930 . S
H200 C213 0.930 . S
H201 C214 0.930 . S
H202 C218 0.959 . S
H203 C218 0.959 . S
H204 C218 0.961 . S
H205 C219 0.960 . S
H206 C219 0.961 . S
H207 C219 0.959 . S
H208 C222 0.929 . S
H209 C223 0.931 . S
H210 C225 0.930 . S
C211 H199 0.930 . S
C211 C212 1.399 . S
C211 C216 1.399 . S
C212 C211 1.399 . S
C212 C213 1.376 . S
C213 H200 0.930 . S
C213 C212 1.376 . S
C213 C214 1.388 . S
C214 H201 0.930 . S
C214 C213 1.388 . S
C214 C215 1.390 . S
C215 C214 1.390 . S
C215 C216 1.394 . S
C215 C221 1.465 . S
C216 C211 1.399 . S
C216 C215 1.394 . S
C216 C217 1.516 . S
C217 C216 1.516 . S
C217 C218 1.502 . S
C217 C219 1.561 . S
C217 C220 1.526 . S
C218 H202 0.959 . S
C218 H203 0.959 . S
C218 H204 0.961 . S
C218 C217 1.502 . S
C219 H205 0.960 . S
C219 H206 0.961 . S
C219 H207 0.959 . S
C219 C217 1.561 . S
C220 C217 1.526 . S
C220 C221 1.396 . S
C220 C225 1.390 . S
C221 C215 1.465 . S
C221 C220 1.396 . S
C221 C222 1.399 . S
C222 H208 0.929 . S
C222 C221 1.399 . S
C222 C223 1.385 . S
C223 H209 0.931 . S
C223 C222 1.385 . S
C223 C224 1.389 . S
C224 C223 1.389 . S
C224 C225 1.387 . S
C225 H210 0.930 . S
C225 C220 1.390 . S
C225 C224 1.387 . S
H226 C238 0.930 . S
H227 C240 0.930 . S
H228 C241 0.930 . S
H229 C245 0.959 . S
H230 C245 0.959 . S
H231 C245 0.961 . S
H232 C246 0.960 . S
H233 C246 0.961 . S
H234 C246 0.959 . S
H235 C249 0.929 . S
H236 C250 0.931 . S
H237 C252 0.930 . S
C238 H226 0.930 . S
C238 C239 1.399 . S
C238 C243 1.399 . S
C239 C238 1.399 . S
C239 C240 1.376 . S
C240 H227 0.930 . S
C240 C239 1.376 . S
C240 C241 1.388 . S
C241 H228 0.930 . S
C241 C240 1.388 . S
C241 C242 1.390 . S
C242 C241 1.390 . S
C242 C243 1.394 . S
C242 C248 1.465 . S
C243 C238 1.399 . S
C243 C242 1.394 . S
C243 C244 1.516 . S
C244 C243 1.516 . S
C244 C245 1.502 . S
C244 C246 1.561 . S
C244 C247 1.526 . S
C245 H229 0.959 . S
C245 H230 0.959 . S
C245 H231 0.961 . S
C245 C244 1.502 . S
C246 H232 0.960 . S
C246 H233 0.961 . S
C246 H234 0.959 . S
C246 C244 1.561 . S
C247 C244 1.526 . S
C247 C248 1.396 . S
C247 C252 1.390 . S
C248 C242 1.465 . S
C248 C247 1.396 . S
C248 C249 1.399 . S
C249 H235 0.929 . S
C249 C248 1.399 . S
C249 C250 1.385 . S
C250 H236 0.931 . S
C250 C249 1.385 . S
C250 C251 1.389 . S
C251 C250 1.389 . S
C251 C252 1.387 . S
C252 H237 0.930 . S
C252 C247 1.390 . S
C252 C251 1.387 . S
H253 C265 0.930 . S
H254 C267 0.930 . S
H255 C268 0.930 . S
H256 C272 0.959 . S
H257 C272 0.959 . S
H258 C272 0.961 . S
H259 C273 0.960 . S
H260 C273 0.961 . S
H261 C273 0.959 . S
H262 C276 0.929 . S
H263 C277 0.931 . S
H264 C279 0.930 . S
C265 H253 0.930 . S
C265 C266 1.399 . S
C265 C270 1.399 . S
C266 C265 1.399 . S
C266 C267 1.376 . S
C267 H254 0.930 . S
C267 C266 1.376 . S
C267 C268 1.388 . S
C268 H255 0.930 . S
C268 C267 1.388 . S
C268 C269 1.390 . S
C269 C268 1.390 . S
C269 C270 1.394 . S
C269 C275 1.465 . S
C270 C265 1.399 . S
C270 C269 1.394 . S
C270 C271 1.516 . S
C271 C270 1.516 . S
C271 C272 1.502 . S
C271 C273 1.561 . S
C271 C274 1.526 . S
C272 H256 0.959 . S
C272 H257 0.959 . S
C272 H258 0.961 . S
C272 C271 1.502 . S
C273 H259 0.960 . S
C273 H260 0.961 . S
C273 H261 0.959 . S
C273 C271 1.561 . S
C274 C271 1.526 . S
C274 C275 1.396 . S
C274 C279 1.390 . S
C275 C269 1.465 . S
C275 C274 1.396 . S
C275 C276 1.399 . S
C276 H262 0.929 . S
C276 C275 1.399 . S
C276 C277 1.385 . S
C277 H263 0.931 . S
C277 C276 1.385 . S
C277 C278 1.389 . S
C278 C277 1.389 . S
C278 C279 1.387 . S
C279 H264 0.930 . S
C279 C274 1.390 . S
C279 C278 1.387 . S
C77 C23 1.417 . S
C89 C55 1.409 . S
C104 C24 1.433 . S
C116 C59 1.475 . S
C131 C8 1.420 . S
C143 C49 1.409 . S
C158 C22 1.480 . S
C170 C54 1.453 . S
C185 C17 1.454 . S
C197 C40 1.429 . S
C212 C56 1.429 . S
C224 C27 1.473 . S
C239 C30 1.479 . S
C251 C62 1.472 . S
C266 C63 1.409 . S
C278 C31 1.466 . S
