# Generated by pormake.
# Topology ums, (4)-cn, num edge types: 1
# Building blocks:
#     Node 0, Type 0, BuildingBlock: QUQFOY_clean_sbu_1, # of connection points: 4
#     Node 1, Type 0, BuildingBlock: QUQFOY_clean_sbu_1, # of connection points: 4
#     Node 2, Type 0, BuildingBlock: QUQFOY_clean_sbu_1, # of connection points: 4
#     Node 3, Type 0, BuildingBlock: QUQFOY_clean_sbu_1, # of connection points: 4
#     Node 4, Type 0, BuildingBlock: QUQFOY_clean_sbu_1, # of connection points: 4
#     Node 5, Type 0, BuildingBlock: QUQFOY_clean_sbu_1, # of connection points: 4
#     Node 6, Type 0, BuildingBlock: QUQFOY_clean_sbu_1, # of connection points: 4
#     Node 7, Type 0, BuildingBlock: QUQFOY_clean_sbu_1, # of connection points: 4
#     Node 8, Type 0, BuildingBlock: QUQFOY_clean_sbu_1, # of connection points: 4
#     Node 9, Type 0, BuildingBlock: QUQFOY_clean_sbu_1, # of connection points: 4
#     Node 10, Type 0, BuildingBlock: QUQFOY_clean_sbu_1, # of connection points: 4
#     Node 11, Type 0, BuildingBlock: QUQFOY_clean_sbu_1, # of connection points: 4
#     Node 12, Type 0, BuildingBlock: QUQFOY_clean_sbu_1, # of connection points: 4
#     Node 13, Type 0, BuildingBlock: QUQFOY_clean_sbu_1, # of connection points: 4
#     Node 14, Type 0, BuildingBlock: QUQFOY_clean_sbu_1, # of connection points: 4
#     Node 15, Type 0, BuildingBlock: QUQFOY_clean_sbu_1, # of connection points: 4
#     Node 16, Type 0, BuildingBlock: QUQFOY_clean_sbu_1, # of connection points: 4
#     Node 17, Type 0, BuildingBlock: QUQFOY_clean_sbu_1, # of connection points: 4
#     Node 18, Type 0, BuildingBlock: QUQFOY_clean_sbu_1, # of connection points: 4
#     Node 19, Type 0, BuildingBlock: QUQFOY_clean_sbu_1, # of connection points: 4
#     Node 20, Type 0, BuildingBlock: QUQFOY_clean_sbu_1, # of connection points: 4
#     Node 21, Type 0, BuildingBlock: QUQFOY_clean_sbu_1, # of connection points: 4
#     Node 22, Type 0, BuildingBlock: QUQFOY_clean_sbu_1, # of connection points: 4
#     Node 23, Type 0, BuildingBlock: QUQFOY_clean_sbu_1, # of connection points: 4
#     Node 24, Type 0, BuildingBlock: QUQFOY_clean_sbu_1, # of connection points: 4
#     Node 25, Type 0, BuildingBlock: QUQFOY_clean_sbu_1, # of connection points: 4
#     Node 26, Type 0, BuildingBlock: QUQFOY_clean_sbu_1, # of connection points: 4
#     Node 27, Type 0, BuildingBlock: QUQFOY_clean_sbu_1, # of connection points: 4
#     Node 28, Type 0, BuildingBlock: QUQFOY_clean_sbu_1, # of connection points: 4
#     Node 29, Type 0, BuildingBlock: QUQFOY_clean_sbu_1, # of connection points: 4
#     Node 30, Type 0, BuildingBlock: QUQFOY_clean_sbu_1, # of connection points: 4
#     Node 31, Type 0, BuildingBlock: QUQFOY_clean_sbu_1, # of connection points: 4
#     Node 32, Type 0, BuildingBlock: QUQFOY_clean_sbu_1, # of connection points: 4
#     Node 33, Type 0, BuildingBlock: QUQFOY_clean_sbu_1, # of connection points: 4
#     Node 34, Type 0, BuildingBlock: QUQFOY_clean_sbu_1, # of connection points: 4
#     Node 35, Type 0, BuildingBlock: QUQFOY_clean_sbu_1, # of connection points: 4
#     Edge 36, Type (0, 0), BuildingBlock: XIVTED_clean_linker_0, # of connection points: 2
#     Edge 37, Type (0, 0), BuildingBlock: XIVTED_clean_linker_0, # of connection points: 2
#     Edge 38, Type (0, 0), BuildingBlock: XIVTED_clean_linker_0, # of connection points: 2
#     Edge 39, Type (0, 0), BuildingBlock: XIVTED_clean_linker_0, # of connection points: 2
#     Edge 40, Type (0, 0), BuildingBlock: XIVTED_clean_linker_0, # of connection points: 2
#     Edge 41, Type (0, 0), BuildingBlock: XIVTED_clean_linker_0, # of connection points: 2
#     Edge 42, Type (0, 0), BuildingBlock: XIVTED_clean_linker_0, # of connection points: 2
#     Edge 43, Type (0, 0), BuildingBlock: XIVTED_clean_linker_0, # of connection points: 2
#     Edge 44, Type (0, 0), BuildingBlock: XIVTED_clean_linker_0, # of connection points: 2
#     Edge 45, Type (0, 0), BuildingBlock: XIVTED_clean_linker_0, # of connection points: 2
#     Edge 46, Type (0, 0), BuildingBlock: XIVTED_clean_linker_0, # of connection points: 2
#     Edge 47, Type (0, 0), BuildingBlock: XIVTED_clean_linker_0, # of connection points: 2
#     Edge 48, Type (0, 0), BuildingBlock: XIVTED_clean_linker_0, # of connection points: 2
#     Edge 49, Type (0, 0), BuildingBlock: XIVTED_clean_linker_0, # of connection points: 2
#     Edge 50, Type (0, 0), BuildingBlock: XIVTED_clean_linker_0, # of connection points: 2
#     Edge 51, Type (0, 0), BuildingBlock: XIVTED_clean_linker_0, # of connection points: 2
#     Edge 52, Type (0, 0), BuildingBlock: XIVTED_clean_linker_0, # of connection points: 2
#     Edge 53, Type (0, 0), BuildingBlock: XIVTED_clean_linker_0, # of connection points: 2
#     Edge 54, Type (0, 0), BuildingBlock: XIVTED_clean_linker_0, # of connection points: 2
#     Edge 55, Type (0, 0), BuildingBlock: XIVTED_clean_linker_0, # of connection points: 2
#     Edge 56, Type (0, 0), BuildingBlock: XIVTED_clean_linker_0, # of connection points: 2
#     Edge 57, Type (0, 0), BuildingBlock: XIVTED_clean_linker_0, # of connection points: 2
#     Edge 58, Type (0, 0), BuildingBlock: XIVTED_clean_linker_0, # of connection points: 2
#     Edge 59, Type (0, 0), BuildingBlock: XIVTED_clean_linker_0, # of connection points: 2
#     Edge 60, Type (0, 0), BuildingBlock: XIVTED_clean_linker_0, # of connection points: 2
#     Edge 61, Type (0, 0), BuildingBlock: XIVTED_clean_linker_0, # of connection points: 2
#     Edge 62, Type (0, 0), BuildingBlock: XIVTED_clean_linker_0, # of connection points: 2
#     Edge 63, Type (0, 0), BuildingBlock: XIVTED_clean_linker_0, # of connection points: 2
#     Edge 64, Type (0, 0), BuildingBlock: XIVTED_clean_linker_0, # of connection points: 2
#     Edge 65, Type (0, 0), BuildingBlock: XIVTED_clean_linker_0, # of connection points: 2
#     Edge 66, Type (0, 0), BuildingBlock: XIVTED_clean_linker_0, # of connection points: 2
#     Edge 67, Type (0, 0), BuildingBlock: XIVTED_clean_linker_0, # of connection points: 2
#     Edge 68, Type (0, 0), BuildingBlock: XIVTED_clean_linker_0, # of connection points: 2
#     Edge 69, Type (0, 0), BuildingBlock: XIVTED_clean_linker_0, # of connection points: 2
#     Edge 70, Type (0, 0), BuildingBlock: XIVTED_clean_linker_0, # of connection points: 2
#     Edge 71, Type (0, 0), BuildingBlock: XIVTED_clean_linker_0, # of connection points: 2
#     Edge 72, Type (0, 0), BuildingBlock: XIVTED_clean_linker_0, # of connection points: 2
#     Edge 73, Type (0, 0), BuildingBlock: XIVTED_clean_linker_0, # of connection points: 2
#     Edge 74, Type (0, 0), BuildingBlock: XIVTED_clean_linker_0, # of connection points: 2
#     Edge 75, Type (0, 0), BuildingBlock: XIVTED_clean_linker_0, # of connection points: 2
#     Edge 76, Type (0, 0), BuildingBlock: XIVTED_clean_linker_0, # of connection points: 2
#     Edge 77, Type (0, 0), BuildingBlock: XIVTED_clean_linker_0, # of connection points: 2
#     Edge 78, Type (0, 0), BuildingBlock: XIVTED_clean_linker_0, # of connection points: 2
#     Edge 79, Type (0, 0), BuildingBlock: XIVTED_clean_linker_0, # of connection points: 2
#     Edge 80, Type (0, 0), BuildingBlock: XIVTED_clean_linker_0, # of connection points: 2
#     Edge 81, Type (0, 0), BuildingBlock: XIVTED_clean_linker_0, # of connection points: 2
#     Edge 82, Type (0, 0), BuildingBlock: XIVTED_clean_linker_0, # of connection points: 2
#     Edge 83, Type (0, 0), BuildingBlock: XIVTED_clean_linker_0, # of connection points: 2
#     Edge 84, Type (0, 0), BuildingBlock: XIVTED_clean_linker_0, # of connection points: 2
#     Edge 85, Type (0, 0), BuildingBlock: XIVTED_clean_linker_0, # of connection points: 2
#     Edge 86, Type (0, 0), BuildingBlock: XIVTED_clean_linker_0, # of connection points: 2
#     Edge 87, Type (0, 0), BuildingBlock: XIVTED_clean_linker_0, # of connection points: 2
#     Edge 88, Type (0, 0), BuildingBlock: XIVTED_clean_linker_0, # of connection points: 2
#     Edge 89, Type (0, 0), BuildingBlock: XIVTED_clean_linker_0, # of connection points: 2
#     Edge 90, Type (0, 0), BuildingBlock: XIVTED_clean_linker_0, # of connection points: 2
#     Edge 91, Type (0, 0), BuildingBlock: XIVTED_clean_linker_0, # of connection points: 2
#     Edge 92, Type (0, 0), BuildingBlock: XIVTED_clean_linker_0, # of connection points: 2
#     Edge 93, Type (0, 0), BuildingBlock: XIVTED_clean_linker_0, # of connection points: 2
#     Edge 94, Type (0, 0), BuildingBlock: XIVTED_clean_linker_0, # of connection points: 2
#     Edge 95, Type (0, 0), BuildingBlock: XIVTED_clean_linker_0, # of connection points: 2
#     Edge 96, Type (0, 0), BuildingBlock: XIVTED_clean_linker_0, # of connection points: 2
#     Edge 97, Type (0, 0), BuildingBlock: XIVTED_clean_linker_0, # of connection points: 2
#     Edge 98, Type (0, 0), BuildingBlock: XIVTED_clean_linker_0, # of connection points: 2
#     Edge 99, Type (0, 0), BuildingBlock: XIVTED_clean_linker_0, # of connection points: 2
#     Edge 100, Type (0, 0), BuildingBlock: XIVTED_clean_linker_0, # of connection points: 2
#     Edge 101, Type (0, 0), BuildingBlock: XIVTED_clean_linker_0, # of connection points: 2
#     Edge 102, Type (0, 0), BuildingBlock: XIVTED_clean_linker_0, # of connection points: 2
#     Edge 103, Type (0, 0), BuildingBlock: XIVTED_clean_linker_0, # of connection points: 2
#     Edge 104, Type (0, 0), BuildingBlock: XIVTED_clean_linker_0, # of connection points: 2
#     Edge 105, Type (0, 0), BuildingBlock: XIVTED_clean_linker_0, # of connection points: 2
#     Edge 106, Type (0, 0), BuildingBlock: XIVTED_clean_linker_0, # of connection points: 2
#     Edge 107, Type (0, 0), BuildingBlock: XIVTED_clean_linker_0, # of connection points: 2
# Relax obj value: 0.177
# Max RMSD: 0.144
# Mean RMSD: 0.144
data_MOF--net-ums--node1-QUQFOY_clean_sbu_1--edge1-XIVTED_clean_linker_0
_symmetry_space_group_name_H-M    P1
_symmetry_Int_Tables_number       1
_symmetry_cell_setting            triclinic
loop_
_symmetry_equiv_pos_as_xyz
'x, y, z'
_cell_length_a     107.79847
_cell_length_b     107.89333
_cell_length_c     23.752867
_cell_angle_alpha  90.017588
_cell_angle_beta   90.000602
_cell_angle_gamma 119.96553
loop_
_atom_site_label
_atom_site_type_symbol
_atom_site_fract_x
_atom_site_fract_y
_atom_site_fract_z
_atom_type_partial_charge
O0 O 0.19834 0.27256 0.11742 0.0
Cd1 Cd 0.1815 0.25242 0.13624 0.0
Cd2 Cd 0.17552 0.26643 0.21208 0.0
O3 O 0.19621 0.28244 0.1952 0.0
O4 O 0.18729 0.23781 0.12141 0.0
O5 O 0.18291 0.24308 0.20671 0.0
C6 C 0.1869 0.23592 0.17526 0.0
C7 C 0.16663 0.26271 0.30395 0.0
C8 C 0.20297 0.28328 0.15021 0.0
C9 C 0.15578 0.25425 0.11191 0.0
O10 O 0.16029 0.26315 0.15237 0.0
O11 O 0.16198 0.24716 0.10032 0.0
O12 O 0.17002 0.27433 0.27704 0.0
O13 O 0.16883 0.25328 0.27965 0.0
O14 O 0.73265 0.92598 0.10654 0.0
Cd15 Cd 0.75281 0.9295 0.12676 0.0
Cd16 Cd 0.73877 0.90969 0.20303 0.0
O17 O 0.72277 0.91433 0.18495 0.0
O18 O 0.76735 0.94983 0.11082 0.0
O19 O 0.76203 0.94059 0.19676 0.0
C20 C 0.76921 0.95158 0.16462 0.0
C21 C 0.74228 0.90474 0.29553 0.0
C22 C 0.72192 0.92004 0.13937 0.0
C23 C 0.75139 0.9021 0.10447 0.0
O24 O 0.74231 0.89768 0.14433 0.0
O25 O 0.7584 0.91535 0.09264 0.0
O26 O 0.73074 0.89643 0.26826 0.0
O27 O 0.75176 0.91631 0.27116 0.0
O28 O 0.07584 0.80141 0.10401 0.0
Cd29 Cd 0.06948 0.81653 0.10508 0.0
Cd30 Cd 0.09308 0.83132 0.1718 0.0
O31 O 0.09292 0.81204 0.16757 0.0
O32 O 0.04838 0.80684 0.09464 0.0
O33 O 0.05936 0.81806 0.17325 0.0
C34 C 0.04757 0.81062 0.14552 0.0
C35 C 0.10316 0.84584 0.25097 0.0
C36 C 0.08555 0.80155 0.13478 0.0
C37 C 0.0922 0.84328 0.05601 0.0
O38 O 0.0989 0.84395 0.10084 0.0
O39 O 0.07951 0.83306 0.04833 0.0
O40 O 0.11075 0.84345 0.21566 0.0
O41 O 0.08947 0.83921 0.24368 0.0
O42 O 0.27267 0.1969 0.39851 0.0
Cd43 Cd 0.25221 0.18064 0.37961 0.0
Cd44 Cd 0.26555 0.17418 0.30287 0.0
O45 O 0.28194 0.19473 0.31906 0.0
O46 O 0.23804 0.18701 0.39472 0.0
O47 O 0.24303 0.18241 0.3093 0.0
C48 C 0.23608 0.18663 0.3409 0.0
C49 C 0.2614 0.16517 0.21112 0.0
C50 C 0.28321 0.20137 0.36485 0.0
C51 C 0.25327 0.15457 0.40317 0.0
O52 O 0.26217 0.15895 0.36271 0.0
O53 O 0.24637 0.16097 0.41483 0.0
O54 O 0.27306 0.16839 0.23746 0.0
O55 O 0.25217 0.16758 0.23592 0.0
O56 O 0.80689 0.07552 0.38692 0.0
Cd57 Cd 0.82355 0.0718 0.36943 0.0
Cd58 Cd 0.83019 0.09182 0.29325 0.0
O59 O 0.80951 0.08744 0.30844 0.0
O60 O 0.81742 0.05142 0.38592 0.0
O61 O 0.8221 0.06069 0.29998 0.0
C62 C 0.81793 0.04967 0.33231 0.0
C63 C 0.83931 0.09668 0.2017 0.0
C64 C 0.80252 0.08166 0.35316 0.0
C65 C 0.84956 0.09902 0.39427 0.0
O66 O 0.84533 0.10362 0.35358 0.0
O67 O 0.84306 0.08573 0.40574 0.0
O68 O 0.83606 0.10511 0.2279 0.0
O69 O 0.83689 0.08505 0.22659 0.0
O70 O 0.92542 0.72789 0.38181 0.0
Cd71 Cd 0.92894 0.74816 0.36451 0.0
Cd72 Cd 0.90903 0.73474 0.28741 0.0
O73 O 0.9137 0.71866 0.30283 0.0
O74 O 0.94949 0.7627 0.37708 0.0
O75 O 0.93916 0.75717 0.29299 0.0
C76 C 0.95058 0.76435 0.32305 0.0
C77 C 0.90379 0.73864 0.19585 0.0
C78 C 0.91945 0.71744 0.34767 0.0
C79 C 0.90155 0.74666 0.38874 0.0
O80 O 0.89713 0.73793 0.34769 0.0
O81 O 0.91482 0.75354 0.40078 0.0
O82 O 0.89556 0.72699 0.22256 0.0
O83 O 0.91543 0.74801 0.22019 0.0
O84 O 0.80412 0.72818 0.88052 0.0
Cd85 Cd 0.82115 0.7483 0.86264 0.0
Cd86 Cd 0.82709 0.73431 0.78677 0.0
O87 O 0.8063 0.71838 0.80258 0.0
O88 O 0.81567 0.76303 0.87957 0.0
O89 O 0.81997 0.75819 0.79341 0.0
C90 C 0.81618 0.76533 0.82599 0.0
C91 C 0.83626 0.73859 0.69533 0.0
C92 C 0.79947 0.71752 0.84741 0.0
C93 C 0.84667 0.7461 0.88723 0.0
O94 O 0.84213 0.73721 0.84677 0.0
O95 O 0.84056 0.75329 0.89865 0.0
O96 O 0.83269 0.72676 0.72096 0.0
O97 O 0.83406 0.7479 0.72063 0.0
O98 O 0.27432 0.07845 0.8997 0.0
Cd99 Cd 0.25378 0.07397 0.8805 0.0
Cd100 Cd 0.2669 0.09373 0.8029 0.0
O101 O 0.28329 0.08957 0.81943 0.0
O102 O 0.2397 0.05318 0.89121 0.0
O103 O 0.24558 0.0639 0.80793 0.0
C104 C 0.23846 0.05231 0.83699 0.0
C105 C 0.26303 0.09878 0.71097 0.0
C106 C 0.28474 0.0844 0.86544 0.0
C107 C 0.2543 0.10087 0.90311 0.0
O108 O 0.26321 0.10541 0.86264 0.0
O109 O 0.24758 0.08761 0.91516 0.0
O110 O 0.27458 0.10718 0.73798 0.0
O111 O 0.25375 0.08709 0.7352 0.0
O112 O 0.92745 0.1958 0.88905 0.0
Cd113 Cd 0.93134 0.17929 0.87112 0.0
Cd114 Cd 0.91176 0.17297 0.79322 0.0
O115 O 0.9163 0.19366 0.80889 0.0
O116 O 0.95171 0.18544 0.88835 0.0
O117 O 0.94268 0.18107 0.80195 0.0
C118 C 0.95364 0.1852 0.83474 0.0
C119 C 0.90671 0.16409 0.7013 0.0
C120 C 0.92166 0.20039 0.85451 0.0
C121 C 0.90401 0.15332 0.89366 0.0
O122 O 0.89966 0.15776 0.85282 0.0
O123 O 0.91726 0.15966 0.90601 0.0
O124 O 0.89845 0.16747 0.72803 0.0
O125 O 0.91829 0.16623 0.72588 0.0
O126 O 0.73286 0.80636 0.60827 0.0
Cd127 Cd 0.75326 0.82298 0.62478 0.0
Cd128 Cd 0.74034 0.82938 0.70414 0.0
O129 O 0.724 0.80878 0.68834 0.0
O130 O 0.76753 0.81688 0.60761 0.0
O131 O 0.76299 0.82146 0.69385 0.0
C132 C 0.76978 0.81726 0.66121 0.0
C133 C 0.74453 0.83812 0.79631 0.0
C134 C 0.72255 0.80191 0.64302 0.0
C135 C 0.75188 0.84902 0.60329 0.0
O136 O 0.74347 0.84476 0.64534 0.0
O137 O 0.7585 0.84249 0.5894 0.0
O138 O 0.73284 0.83491 0.77027 0.0
O139 O 0.7538 0.83588 0.77088 0.0
O140 O 0.20208 0.92848 0.59745 0.0
Cd141 Cd 0.18707 0.93492 0.60422 0.0
Cd142 Cd 0.17286 0.91092 0.66895 0.0
O143 O 0.1921 0.91112 0.66021 0.0
O144 O 0.19674 0.95609 0.59655 0.0
O145 O 0.18616 0.94454 0.67512 0.0
C146 C 0.19338 0.95652 0.64843 0.0
C147 C 0.15894 0.9003 0.74908 0.0
C148 C 0.20223 0.91861 0.62612 0.0
C149 C 0.15992 0.91257 0.55645 0.0
O150 O 0.15967 0.90555 0.59969 0.0
O151 O 0.17002 0.92533 0.54939 0.0
O152 O 0.16112 0.89298 0.71176 0.0
O153 O 0.16547 0.91402 0.74316 0.0
O154 O 0.07762 0.27376 0.61962 0.0
Cd155 Cd 0.07448 0.25361 0.63702 0.0
Cd156 Cd 0.09441 0.26748 0.71305 0.0
O157 O 0.08958 0.28345 0.69769 0.0
O158 O 0.05426 0.239 0.61935 0.0
O159 O 0.06323 0.2436 0.7058 0.0
C160 C 0.05235 0.2366 0.67284 0.0
C161 C 0.0992 0.26301 0.80439 0.0
C162 C 0.08361 0.28438 0.65296 0.0
C163 C 0.10217 0.25575 0.61234 0.0
O164 O 0.10655 0.26462 0.6529 0.0
O165 O 0.08888 0.2486 0.60092 0.0
O166 O 0.10751 0.27487 0.77908 0.0
O167 O 0.08769 0.25377 0.77883 0.0
O168 O 0.86588 0.60804 0.4498 0.0
Cd169 Cd 0.84906 0.58792 0.46876 0.0
Cd170 Cd 0.84261 0.60203 0.54288 0.0
O171 O 0.86321 0.61818 0.52573 0.0
O172 O 0.85505 0.5734 0.45553 0.0
O173 O 0.85051 0.57893 0.54008 0.0
C174 C 0.85468 0.57177 0.50953 0.0
C175 C 0.83361 0.5986 0.63454 0.0
C176 C 0.87023 0.6189 0.48166 0.0
C177 C 0.82315 0.58931 0.44229 0.0
O178 O 0.82741 0.59828 0.48247 0.0
O179 O 0.82959 0.58239 0.43167 0.0
O180 O 0.83688 0.61006 0.60666 0.0
O181 O 0.83598 0.58917 0.61134 0.0
O182 O 0.3952 0.26173 0.43893 0.0
Cd183 Cd 0.41661 0.26783 0.4434 0.0
Cd184 Cd 0.40678 0.24373 0.50706 0.0
O185 O 0.38773 0.244 0.49999 0.0
O186 O 0.42814 0.28893 0.4333 0.0
O187 O 0.42781 0.27792 0.51255 0.0
C188 C 0.43239 0.28971 0.48468 0.0
C189 C 0.41103 0.23399 0.58768 0.0
C190 C 0.38516 0.25178 0.46726 0.0
C191 C 0.4208 0.24519 0.39373 0.0
O192 O 0.41413 0.23812 0.43703 0.0
O193 O 0.42358 0.25801 0.38745 0.0
O194 O 0.40121 0.22622 0.55204 0.0
O195 O 0.41799 0.24765 0.57977 0.0
O196 O 0.74414 0.13391 0.43864 0.0
Cd197 Cd 0.7395 0.15023 0.44909 0.0
Cd198 Cd 0.76093 0.15946 0.52322 0.0
O199 O 0.75791 0.13912 0.51367 0.0
O200 O 0.71878 0.14271 0.43415 0.0
O201 O 0.72877 0.15009 0.51818 0.0
C202 C 0.71741 0.1446 0.48702 0.0
C203 C 0.76959 0.17173 0.60818 0.0
C204 C 0.75148 0.13094 0.47223 0.0
C205 C 0.76532 0.17618 0.41438 0.0
O206 O 0.77051 0.17334 0.4571 0.0
O207 O 0.75201 0.16878 0.40401 0.0
O208 O 0.77729 0.16864 0.57629 0.0
O209 O 0.7564 0.16692 0.59419 0.0
O210 O 0.94342 0.5354 0.7321 0.0
Cd211 Cd 0.922 0.52015 0.72852 0.0
Cd212 Cd 0.93171 0.50579 0.66371 0.0
O213 O 0.95076 0.52505 0.67077 0.0
O214 O 0.91055 0.52977 0.74035 0.0
O215 O 0.91049 0.51912 0.66043 0.0
C216 C 0.90606 0.52634 0.68921 0.0
C217 C 0.92769 0.49182 0.5831 0.0
C218 C 0.9534 0.53543 0.70349 0.0
C219 C 0.91796 0.49331 0.77757 0.0
O220 O 0.92443 0.49284 0.73374 0.0
O221 O 0.91525 0.50339 0.7844 0.0
O222 O 0.93743 0.49388 0.61913 0.0
O223 O 0.92064 0.49846 0.59067 0.0
O224 O 0.47443 0.41178 0.73412 0.0
Cd225 Cd 0.49052 0.40744 0.71381 0.0
Cd226 Cd 0.49725 0.42764 0.63814 0.0
O227 O 0.47688 0.42385 0.65617 0.0
O228 O 0.48387 0.38673 0.72589 0.0
O229 O 0.48843 0.39704 0.64183 0.0
C230 C 0.48405 0.38559 0.67175 0.0
C231 C 0.50593 0.43259 0.54591 0.0
C232 C 0.47014 0.41822 0.70153 0.0
C233 C 0.51707 0.43421 0.73745 0.0
O234 O 0.51281 0.43901 0.69752 0.0
O235 O 0.51036 0.42091 0.74879 0.0
O236 O 0.50307 0.44114 0.5734 0.0
O237 O 0.50334 0.42081 0.56985 0.0
O238 O 0.59455 0.06101 0.71592 0.0
Cd239 Cd 0.59781 0.08116 0.6979 0.0
Cd240 Cd 0.57765 0.06729 0.62236 0.0
O241 O 0.58208 0.05112 0.63902 0.0
O242 O 0.61821 0.09569 0.71312 0.0
O243 O 0.60863 0.09061 0.62769 0.0
C244 C 0.61977 0.09766 0.65932 0.0
C245 C 0.57245 0.07105 0.53059 0.0
C246 C 0.58821 0.05026 0.68339 0.0
C247 C 0.57031 0.07946 0.72305 0.0
O248 O 0.56583 0.07065 0.68231 0.0
O249 O 0.58361 0.08642 0.73456 0.0
O250 O 0.56419 0.05946 0.55757 0.0
O251 O 0.58412 0.08044 0.55477 0.0
O252 O 0.47297 0.06099 0.21656 0.0
Cd253 Cd 0.4897 0.08119 0.19798 0.0
Cd254 Cd 0.49608 0.0673 0.12296 0.0
O255 O 0.47535 0.05122 0.1389 0.0
O256 O 0.4837 0.09569 0.21184 0.0
O257 O 0.4882 0.09026 0.12702 0.0
C258 C 0.48408 0.09741 0.15789 0.0
C259 C 0.50536 0.07138 0.03164 0.0
C260 C 0.46846 0.0503 0.18362 0.0
C261 C 0.51553 0.07967 0.22364 0.0
O262 O 0.51114 0.07066 0.18356 0.0
O263 O 0.50923 0.08671 0.23433 0.0
O264 O 0.50194 0.05969 0.05805 0.0
O265 O 0.50297 0.08066 0.05606 0.0
O266 O 0.9447 0.40919 0.231 0.0
Cd267 Cd 0.92325 0.40291 0.22747 0.0
Cd268 Cd 0.93258 0.42678 0.16298 0.0
O269 O 0.95173 0.42668 0.16904 0.0
O270 O 0.91177 0.38176 0.23605 0.0
O271 O 0.91219 0.39316 0.15776 0.0
C272 C 0.90763 0.38123 0.18463 0.0
C273 C 0.92815 0.43646 0.08261 0.0
C274 C 0.95455 0.41908 0.20179 0.0
C275 C 0.91894 0.42544 0.27719 0.0
O276 O 0.92538 0.43241 0.2334 0.0
O277 O 0.9163 0.41267 0.2838 0.0
O278 O 0.93798 0.44426 0.11812 0.0
O279 O 0.92125 0.4228 0.09053 0.0
O280 O 0.59419 0.53036 0.23333 0.0
Cd281 Cd 0.59852 0.51419 0.21459 0.0
Cd282 Cd 0.57889 0.50769 0.13715 0.0
O283 O 0.58312 0.52827 0.15298 0.0
O284 O 0.61911 0.5207 0.22936 0.0
O285 O 0.60942 0.51606 0.14408 0.0
C286 C 0.62064 0.52039 0.17548 0.0
C287 C 0.57397 0.49878 0.04524 0.0
C288 C 0.58829 0.53487 0.19899 0.0
C289 C 0.57144 0.48808 0.23762 0.0
O290 O 0.56697 0.49247 0.19698 0.0
O291 O 0.58471 0.49448 0.24953 0.0
O292 O 0.56558 0.50201 0.07187 0.0
O293 O 0.58558 0.50105 0.06993 0.0
O294 O 0.39648 0.13543 0.93932 0.0
Cd295 Cd 0.41794 0.15057 0.94144 0.0
Cd296 Cd 0.40869 0.16523 0.00709 0.0
O297 O 0.38957 0.146 0.00134 0.0
O298 O 0.42921 0.14078 0.92909 0.0
O299 O 0.42963 0.15163 0.00895 0.0
C300 C 0.43386 0.14425 0.98004 0.0
C301 C 0.41293 0.17936 0.08733 0.0
C302 C 0.38669 0.13553 0.9688 0.0
C303 C 0.42197 0.17738 0.8922 0.0
O304 O 0.41575 0.17801 0.93655 0.0
O305 O 0.42455 0.16722 0.8851 0.0
O306 O 0.40314 0.17728 0.05152 0.0
O307 O 0.41994 0.17268 0.07973 0.0
O308 O 0.86992 0.25963 0.94246 0.0
Cd309 Cd 0.85357 0.26406 0.95348 0.0
Cd310 Cd 0.84227 0.24114 0.0205 0.0
O311 O 0.86224 0.24313 0.00861 0.0
O312 O 0.86132 0.28499 0.94373 0.0
O313 O 0.85316 0.27366 0.02496 0.0
C314 C 0.85903 0.28551 0.99684 0.0
C315 C 0.83142 0.23412 0.10868 0.0
C316 C 0.87155 0.25072 0.97189 0.0
C317 C 0.8267 0.23919 0.91231 0.0
O318 O 0.82785 0.23274 0.95497 0.0
O319 O 0.83562 0.25238 0.90437 0.0
O320 O 0.8338 0.22571 0.07795 0.0
O321 O 0.8356 0.24687 0.09036 0.0
O322 O 0.74395 0.60841 0.95123 0.0
Cd323 Cd 0.74073 0.58825 0.96925 0.0
Cd324 Cd 0.76102 0.6022 0.04389 0.0
O325 O 0.75624 0.61822 0.02855 0.0
O326 O 0.72032 0.57364 0.95461 0.0
O327 O 0.73009 0.57871 0.0397 0.0
C328 C 0.7189 0.57158 0.00839 0.0
C329 C 0.76639 0.59824 0.13509 0.0
C330 C 0.75015 0.6191 0.98412 0.0
C331 C 0.76819 0.59011 0.94253 0.0
O332 O 0.77278 0.59905 0.98288 0.0
O333 O 0.75484 0.58301 0.93199 0.0
O334 O 0.77455 0.60994 0.10851 0.0
O335 O 0.75473 0.58886 0.11085 0.0
O336 O 0.53303 0.94112 0.78005 0.0
Cd337 Cd 0.51618 0.92087 0.79712 0.0
Cd338 Cd 0.50976 0.93429 0.87429 0.0
O339 O 0.53055 0.95029 0.8592 0.0
O340 O 0.52217 0.90639 0.78291 0.0
O341 O 0.51743 0.91156 0.86781 0.0
C342 C 0.52164 0.9045 0.83681 0.0
C343 C 0.50067 0.93051 0.96591 0.0
C344 C 0.53754 0.95152 0.81443 0.0
C345 C 0.49037 0.9225 0.77295 0.0
O346 O 0.49471 0.93123 0.814 0.0
O347 O 0.49671 0.91558 0.7609 0.0
O348 O 0.50415 0.94214 0.93904 0.0
O349 O 0.50281 0.92104 0.94163 0.0
O350 O 0.06596 0.59217 0.7718 0.0
Cd351 Cd 0.08646 0.59659 0.79126 0.0
Cd352 Cd 0.07319 0.57684 0.86848 0.0
O353 O 0.05673 0.58088 0.85153 0.0
O354 O 0.10055 0.61725 0.77809 0.0
O355 O 0.09505 0.6072 0.86263 0.0
C356 C 0.10208 0.61855 0.83215 0.0
C357 C 0.07743 0.57219 0.96045 0.0
C358 C 0.05542 0.58614 0.8055 0.0
C359 C 0.08581 0.5696 0.76889 0.0
O360 O 0.07685 0.56507 0.80916 0.0
O361 O 0.09259 0.58286 0.75689 0.0
O362 O 0.06579 0.56365 0.93422 0.0
O363 O 0.08656 0.58383 0.93545 0.0
O364 O 0.40847 0.46798 0.7752 0.0
Cd365 Cd 0.40188 0.48291 0.77634 0.0
Cd366 Cd 0.42565 0.49795 0.84348 0.0
O367 O 0.42569 0.47878 0.8381 0.0
O368 O 0.38082 0.47294 0.76406 0.0
O369 O 0.39122 0.48399 0.84368 0.0
C370 C 0.37962 0.47648 0.81488 0.0
C371 C 0.43616 0.51236 0.92266 0.0
C372 C 0.41833 0.46826 0.80547 0.0
C373 C 0.42447 0.5099 0.7279 0.0
O374 O 0.43117 0.51067 0.77284 0.0
O375 O 0.41187 0.49954 0.71994 0.0
O376 O 0.44356 0.51006 0.88608 0.0
O377 O 0.42244 0.50573 0.91653 0.0
O378 O 0.61096 0.8698 0.05553 0.0
Cd379 Cd 0.59016 0.85341 0.04598 0.0
Cd380 Cd 0.6015 0.84217 0.97721 0.0
O381 O 0.61943 0.86221 0.98762 0.0
O382 O 0.57698 0.86103 0.05933 0.0
O383 O 0.5793 0.85285 0.97667 0.0
C384 C 0.57351 0.8586 0.00678 0.0
C385 C 0.59736 0.83127 0.88905 0.0
C386 C 0.62133 0.87148 0.02481 0.0
C387 C 0.58867 0.82674 0.08637 0.0
O388 O 0.59604 0.82787 0.04293 0.0
O389 O 0.58433 0.83558 0.09501 0.0
O390 O 0.60833 0.83378 0.91889 0.0
O391 O 0.58876 0.83532 0.9083 0.0
O392 O 0.13881 0.74168 0.07368 0.0
Cd393 Cd 0.15468 0.73657 0.05943 0.0
Cd394 Cd 0.16344 0.75757 0.98425 0.0
O395 O 0.14346 0.75515 0.99806 0.0
O396 O 0.14701 0.71572 0.07125 0.0
O397 O 0.15391 0.72634 0.98804 0.0
C398 C 0.14853 0.71474 0.01772 0.0
C399 C 0.1748 0.76591 0.89747 0.0
C400 C 0.13572 0.74909 0.04096 0.0
C401 C 0.18135 0.76205 0.09001 0.0
O402 O 0.17822 0.76713 0.04769 0.0
O403 O 0.17375 0.74885 0.10185 0.0
O404 O 0.17223 0.77378 0.93055 0.0
O405 O 0.16993 0.75272 0.91137 0.0
O406 O 0.25756 0.39283 0.05222 0.0
Cd407 Cd 0.26083 0.41295 0.03337 0.0
Cd408 Cd 0.24074 0.39888 0.95787 0.0
O409 O 0.24555 0.38294 0.9744 0.0
O410 O 0.28128 0.42762 0.04715 0.0
O411 O 0.27137 0.422 0.96234 0.0
C412 C 0.28262 0.42928 0.99316 0.0
C413 C 0.23561 0.40289 0.86632 0.0
C414 C 0.25152 0.38212 0.01933 0.0
C415 C 0.23331 0.41114 0.05801 0.0
O416 O 0.22884 0.40212 0.01794 0.0
O417 O 0.24662 0.41828 0.06912 0.0
O418 O 0.22738 0.39117 0.89265 0.0
O419 O 0.24723 0.41223 0.89094 0.0
O420 O 0.13639 0.39356 0.551 0.0
Cd421 Cd 0.15341 0.41369 0.5333 0.0
Cd422 Cd 0.15942 0.39977 0.45725 0.0
O423 O 0.13863 0.38383 0.47297 0.0
O424 O 0.14787 0.42848 0.54848 0.0
O425 O 0.15241 0.42339 0.46315 0.0
C426 C 0.14853 0.43062 0.49474 0.0
C427 C 0.16859 0.40383 0.36576 0.0
C428 C 0.13178 0.38292 0.51779 0.0
C429 C 0.17889 0.41147 0.55827 0.0
O430 O 0.17442 0.40267 0.51746 0.0
O431 O 0.17277 0.41863 0.56985 0.0
O432 O 0.16501 0.39207 0.3919 0.0
O433 O 0.16642 0.41322 0.3906 0.0
O434 O 0.61165 0.7445 0.56184 0.0
Cd435 Cd 0.59073 0.73985 0.55026 0.0
Cd436 Cd 0.60288 0.76124 0.4763 0.0
O437 O 0.62019 0.75822 0.48669 0.0
O438 O 0.57737 0.71898 0.56052 0.0
O439 O 0.58105 0.73015 0.47854 0.0
C440 C 0.57483 0.71837 0.5071 0.0
C441 C 0.59957 0.76997 0.39095 0.0
C442 C 0.62195 0.75181 0.5282 0.0
C443 C 0.59007 0.76541 0.5845 0.0
O444 O 0.59818 0.77066 0.54199 0.0
O445 O 0.58433 0.75213 0.59502 0.0
O446 O 0.61022 0.77765 0.4235 0.0
O447 O 0.59116 0.75678 0.40459 0.0
O448 O 0.26182 0.86496 0.56566 0.0
Cd449 Cd 0.26705 0.8492 0.55389 0.0
Cd450 Cd 0.24494 0.83805 0.48394 0.0
O451 O 0.24669 0.85795 0.49452 0.0
O452 O 0.28794 0.85737 0.56744 0.0
O453 O 0.27768 0.8496 0.48411 0.0
C454 C 0.28918 0.85545 0.5145 0.0
C455 C 0.23911 0.82729 0.3954 0.0
C456 C 0.25341 0.8668 0.53381 0.0
C457 C 0.24213 0.82214 0.59183 0.0
O458 O 0.23589 0.82357 0.549 0.0
O459 O 0.25532 0.83089 0.60062 0.0
O460 O 0.23026 0.82956 0.42362 0.0
O461 O 0.25164 0.83155 0.41643 0.0
O462 O 0.06681 0.47395 0.27195 0.0
Cd463 Cd 0.08735 0.49004 0.29064 0.0
Cd464 Cd 0.07431 0.49642 0.36885 0.0
O465 O 0.05793 0.47585 0.35286 0.0
O466 O 0.10135 0.48345 0.2755 0.0
O467 O 0.09631 0.48798 0.36098 0.0
C468 C 0.10315 0.48363 0.32938 0.0
C469 C 0.07857 0.50536 0.46072 0.0
C470 C 0.05645 0.46935 0.30651 0.0
C471 C 0.08636 0.51618 0.26878 0.0
O472 O 0.07752 0.51169 0.30945 0.0
O473 O 0.09327 0.50984 0.25639 0.0
O474 O 0.06686 0.50211 0.43474 0.0
O475 O 0.0878 0.50302 0.43548 0.0
O476 O 0.53609 0.59439 0.27453 0.0
Cd477 Cd 0.52092 0.60066 0.2786 0.0
Cd478 Cd 0.5065 0.57668 0.3437 0.0
O479 O 0.52586 0.57703 0.33711 0.0
O480 O 0.53058 0.62179 0.26958 0.0
O481 O 0.51979 0.61051 0.34832 0.0
C482 C 0.52711 0.6224 0.32114 0.0
C483 C 0.49225 0.5663 0.42329 0.0
C484 C 0.53619 0.5846 0.30394 0.0
C485 C 0.49398 0.57811 0.22991 0.0
O486 O 0.49359 0.57116 0.27355 0.0
O487 O 0.50408 0.59088 0.22293 0.0
O488 O 0.49461 0.55886 0.38707 0.0
O489 O 0.4988 0.58 0.41666 0.0
O490 O 0.41156 0.9404 0.27845 0.0
Cd491 Cd 0.40802 0.92015 0.29638 0.0
Cd492 Cd 0.42788 0.93368 0.37375 0.0
O493 O 0.42367 0.95 0.35638 0.0
O494 O 0.38755 0.90564 0.2821 0.0
O495 O 0.3974 0.9109 0.36708 0.0
C496 C 0.38617 0.90377 0.336 0.0
C497 C 0.43288 0.92987 0.46582 0.0
C498 C 0.41781 0.95104 0.31151 0.0
C499 C 0.43538 0.92142 0.27339 0.0
O500 O 0.43974 0.93004 0.31478 0.0
O501 O 0.42217 0.9148 0.26035 0.0
O502 O 0.44125 0.94143 0.43888 0.0
O503 O 0.42119 0.92057 0.4415 0.0
H504 H 0.23007 0.18763 0.22939 0.0
H505 H 0.18808 0.23015 0.28693 0.0
H506 H 0.22097 0.19723 0.39558 0.0
H507 H 0.19704 0.22038 0.12079 0.0
H508 H 0.19831 0.21641 0.32754 0.0
H509 H 0.2163 0.19784 0.18895 0.0
C510 C 0.22508 0.19178 0.25743 0.0
C511 C 0.22676 0.19164 0.31599 0.0
C512 C 0.19794 0.21717 0.28219 0.0
C513 C 0.21102 0.20345 0.2699 0.0
C514 C 0.19207 0.22501 0.25895 0.0
C515 C 0.19177 0.2265 0.20033 0.0
C516 C 0.2036 0.21081 0.24661 0.0
C517 C 0.19709 0.21957 0.1662 0.0
C518 C 0.21722 0.19763 0.23429 0.0
C519 C 0.22002 0.19715 0.3502 0.0
N520 N 0.20287 0.21212 0.18983 0.0
N521 N 0.21254 0.20291 0.32665 0.0
H522 H 0.80791 0.02434 0.38897 0.0
H523 H 0.78509 0.97688 0.10836 0.0
H524 H 0.81664 0.04212 0.22128 0.0
H525 H 0.77469 0.95912 0.27594 0.0
H526 H 0.7988 1.0008 0.14908 0.0
H527 H 0.79786 1.00041 0.34851 0.0
C528 C 0.80783 0.02323 0.34363 0.0
C529 C 0.81305 0.03527 0.30847 0.0
C530 C 0.79361 0.99167 0.17699 0.0
C531 C 0.80146 0.00784 0.26179 0.0
C532 C 0.78579 0.97799 0.15375 0.0
C533 C 0.77864 0.96597 0.18878 0.0
C534 C 0.79428 0.99338 0.23574 0.0
C535 C 0.77997 0.96808 0.2473 0.0
C536 C 0.80206 0.00955 0.32054 0.0
C537 C 0.81269 0.03316 0.25002 0.0
N538 N 0.78755 0.98152 0.26891 0.0
N539 N 0.80691 0.01971 0.22853 0.0
H540 H 0.95664 0.76871 0.21045 0.0
H541 H 0.04166 0.8137 0.25546 0.0
H542 H 0.97669 0.78057 0.37401 0.0
H543 H 0.02125 0.79687 0.0952 0.0
H544 H 0.01799 0.80427 0.2986 0.0
H545 H 0.98025 0.78172 0.16663 0.0
C546 C 0.96599 0.77417 0.23719 0.0
C547 C 0.96467 0.77345 0.29604 0.0
C548 C 0.01871 0.80273 0.25393 0.0
C549 C 0.9918 0.78833 0.24605 0.0
C550 C 0.03222 0.80813 0.22925 0.0
C551 C 0.03345 0.80599 0.17169 0.0
C552 C 0.00634 0.79518 0.22077 0.0
C553 C 0.02084 0.7987 0.13979 0.0
C554 C 0.97949 0.78157 0.21211 0.0
C555 C 0.97719 0.78078 0.32848 0.0
N556 N 0.00784 0.79352 0.16478 0.0
N557 N 0.99023 0.78783 0.30308 0.0
H558 H 0.80717 0.78144 0.88326 0.0
H559 H 0.78489 0.80706 0.60397 0.0
H560 H 0.81495 0.77172 0.7151 0.0
H561 H 0.77576 0.81546 0.77212 0.0
H562 H 0.79815 0.79626 0.6439 0.0
H563 H 0.79786 0.79604 0.84339 0.0
C564 C 0.80704 0.78247 0.83793 0.0
C565 C 0.81176 0.77525 0.80247 0.0
C566 C 0.79335 0.80057 0.67209 0.0
C567 C 0.80102 0.79192 0.75647 0.0
C568 C 0.78579 0.80677 0.6493 0.0
C569 C 0.7791 0.81209 0.68474 0.0
C570 C 0.79422 0.79963 0.73081 0.0
C571 C 0.78068 0.81144 0.74317 0.0
C572 C 0.8017 0.7908 0.81518 0.0
C573 C 0.81137 0.77703 0.74407 0.0
N574 N 0.78798 0.80523 0.76435 0.0
N575 N 0.806 0.7851 0.72291 0.0
H576 H 0.23468 0.04687 0.72387 0.0
H577 H 0.19074 0.9616 0.75995 0.0
H578 H 0.22271 0.0258 0.88541 0.0
H579 H 0.20697 0.98319 0.60124 0.0
H580 H 0.20013 0.98491 0.80606 0.0
H581 H 0.22222 0.02355 0.67774 0.0
C582 C 0.22933 0.03735 0.74969 0.0
C583 C 0.22982 0.03831 0.80866 0.0
C584 C 0.20156 0.98453 0.7611 0.0
C585 C 0.21558 0.01149 0.75598 0.0
C586 C 0.19618 0.97123 0.73473 0.0
C587 C 0.19814 0.97043 0.67667 0.0
C588 C 0.20891 0.99713 0.72915 0.0
C589 C 0.20527 0.98326 0.64613 0.0
C590 C 0.22224 0.02401 0.72329 0.0
C591 C 0.22266 0.02557 0.83985 0.0
N592 N 0.21042 0.99605 0.67273 0.0
N593 N 0.2159 0.01269 0.81315 0.0
H594 H 0.0273 0.22087 0.61469 0.0
H595 H 0.97883 0.19508 0.89251 0.0
H596 H 0.04446 0.23003 0.78341 0.0
H597 H 0.9616 0.18733 0.7239 0.0
H598 H 0.00294 0.20576 0.8532 0.0
H599 H 0.00326 0.20646 0.65375 0.0
C600 C 0.02604 0.21976 0.65997 0.0
C601 C 0.03793 0.22676 0.69583 0.0
C602 C 0.99389 0.20163 0.82477 0.0
C603 C 0.01037 0.21031 0.7409 0.0
C604 C 0.9801 0.1955 0.84719 0.0
C605 C 0.96816 0.19038 0.81145 0.0
C606 C 0.99581 0.2027 0.76611 0.0
C607 C 0.97049 0.19119 0.75307 0.0
C608 C 0.01229 0.21153 0.68225 0.0
C609 C 0.03562 0.22488 0.75415 0.0
N610 N 0.98403 0.19733 0.73225 0.0
N611 N 0.02211 0.21692 0.77485 0.0
H612 H 0.864 0.55527 0.45709 0.0
H613 H 0.89335 0.53968 0.74177 0.0
H614 H 0.85744 0.56789 0.62185 0.0
H615 H 0.89714 0.52393 0.57933 0.0
H616 H 0.87905 0.54893 0.69889 0.0
H617 H 0.87489 0.54252 0.50116 0.0
C618 C 0.86471 0.55524 0.50257 0.0
C619 C 0.85987 0.56274 0.5358 0.0
C620 C 0.88292 0.54337 0.6726 0.0
C621 C 0.87245 0.54826 0.58652 0.0
C622 C 0.89111 0.53808 0.69708 0.0
C623 C 0.89654 0.53108 0.66404 0.0
C624 C 0.88018 0.54175 0.61447 0.0
C625 C 0.89321 0.52929 0.60639 0.0
C626 C 0.87096 0.54797 0.52771 0.0
C627 C 0.86106 0.5623 0.59452 0.0
N628 N 0.88534 0.53469 0.58336 0.0
N629 N 0.86733 0.5553 0.61794 0.0
H630 H 0.44535 0.31598 0.43427 0.0
H631 H 0.47406 0.35947 0.72249 0.0
H632 H 0.44082 0.29561 0.59528 0.0
H633 H 0.48131 0.37941 0.55907 0.0
H634 H 0.46297 0.33603 0.67676 0.0
H635 H 0.45954 0.33927 0.47911 0.0
C636 C 0.44741 0.3164 0.47906 0.0
C637 C 0.44181 0.30381 0.5111 0.0
C638 C 0.46709 0.34554 0.65088 0.0
C639 C 0.45804 0.33053 0.56294 0.0
C640 C 0.47344 0.35894 0.67697 0.0
C641 C 0.47856 0.37144 0.64459 0.0
C642 C 0.46576 0.34461 0.59197 0.0
C643 C 0.47747 0.37007 0.58576 0.0
C644 C 0.45554 0.32972 0.50467 0.0
C645 C 0.44489 0.30503 0.56895 0.0
N646 N 0.47111 0.35691 0.56142 0.0
N647 N 0.45271 0.31816 0.5931 0.0
H648 H 0.69178 0.13348 0.43173 0.0
H649 H 0.64532 0.11356 0.71431 0.0
H650 H 0.71033 0.14484 0.59791 0.0
H651 H 0.62698 0.10278 0.54766 0.0
H652 H 0.66916 0.12681 0.67236 0.0
H653 H 0.66801 0.12394 0.47318 0.0
C654 C 0.69087 0.13407 0.47695 0.0
C655 C 0.70308 0.1399 0.51142 0.0
C656 C 0.65992 0.12165 0.64493 0.0
C657 C 0.67582 0.12888 0.5593 0.0
C658 C 0.64628 0.11409 0.66887 0.0
C659 C 0.63411 0.10696 0.63447 0.0
C660 C 0.66143 0.12205 0.58611 0.0
C661 C 0.63604 0.10806 0.57585 0.0
C662 C 0.67727 0.1286 0.50061 0.0
C663 C 0.70122 0.14041 0.56972 0.0
N664 N 0.64944 0.11536 0.55358 0.0
N665 N 0.68785 0.13487 0.59184 0.0
H666 H 0.47491 0.11397 0.21098 0.0
H667 H 0.44625 0.13069 0.92698 0.0
H668 H 0.48145 0.10156 0.04575 0.0
H669 H 0.4428 0.14649 0.08979 0.0
H670 H 0.46026 0.12105 0.9695 0.0
H671 H 0.46434 0.12707 0.16738 0.0
C672 C 0.47425 0.11411 0.1655 0.0
C673 C 0.47901 0.10658 0.13199 0.0
C674 C 0.45654 0.12671 0.99595 0.0
C675 C 0.46679 0.12147 0.08181 0.0
C676 C 0.44851 0.13222 0.97168 0.0
C677 C 0.44326 0.13935 0.00492 0.0
C678 C 0.45927 0.12823 0.05409 0.0
C679 C 0.4466 0.14104 0.06257 0.0
C680 C 0.4682 0.12159 0.14063 0.0
C681 C 0.47789 0.10717 0.07329 0.0
N682 N 0.4543 0.13543 0.0854 0.0
N683 N 0.4718 0.11438 0.05013 0.0
H684 H 0.85881 0.29072 0.1097 0.0
H685 H 0.89987 0.37599 0.07332 0.0
H686 H 0.87035 0.31201 0.94852 0.0
H687 H 0.89453 0.35463 0.23259 0.0
H688 H 0.88621 0.35262 0.02754 0.0
H689 H 0.86891 0.31404 0.15593 0.0
C690 C 0.86333 0.30029 0.08398 0.0
C691 C 0.86382 0.29941 0.02514 0.0
C692 C 0.88796 0.35306 0.07257 0.0
C693 C 0.87546 0.32615 0.07783 0.0
C694 C 0.89573 0.3664 0.09875 0.0
C695 C 0.89844 0.36727 0.15683 0.0
C696 C 0.8828 0.34051 0.10472 0.0
C697 C 0.89279 0.35448 0.18766 0.0
C698 C 0.86915 0.3136 0.11042 0.0
C699 C 0.86982 0.31217 0.994 0.0
N700 N 0.88529 0.34165 0.16121 0.0
N701 N 0.87546 0.32501 0.02071 0.0
H702 H 0.62758 0.52167 0.06378 0.0
H703 H 0.71212 0.56546 0.12003 0.0
H704 H 0.64644 0.53126 0.22969 0.0
H705 H 0.69321 0.55589 0.9542 0.0
H706 H 0.68824 0.55124 0.16091 0.0
H707 H 0.65156 0.53239 0.02289 0.0
C708 C 0.63675 0.52591 0.09166 0.0
C709 C 0.63499 0.52564 0.15028 0.0
C710 C 0.68932 0.55216 0.11556 0.0
C711 C 0.66251 0.53803 0.10368 0.0
C712 C 0.70297 0.56027 0.09216 0.0
C713 C 0.70468 0.56195 0.03357 0.0
C714 C 0.67727 0.54571 0.08016 0.0
C715 C 0.69241 0.55495 -0.00041 0.0
C716 C 0.65046 0.53206 0.06826 0.0
C717 C 0.64728 0.53129 0.18428 0.0
N718 N 0.67924 0.54723 0.02338 0.0
N719 N 0.66051 0.53733 0.16049 0.0
H720 H 0.52306 0.89928 0.9488 0.0
H721 H 0.5657 0.85717 0.8959 0.0
H722 H 0.53198 0.88897 0.78355 0.0
H723 H 0.55911 0.87014 0.05994 0.0
H724 H 0.5511 0.86637 0.85446 0.0
H725 H 0.53384 0.8862 0.99061 0.0
C726 C 0.52715 0.89414 0.92126 0.0
C727 C 0.5267 0.89532 0.86255 0.0
C728 C 0.55277 0.86711 0.89958 0.0
C729 C 0.53917 0.88038 0.91021 0.0
C730 C 0.56108 0.86183 0.92328 0.0
C731 C 0.56372 0.86297 0.98146 0.0
C732 C 0.54704 0.87357 0.93428 0.0
C733 C 0.55744 0.8691 0.01485 0.0
C734 C 0.53335 0.88669 0.94519 0.0
C735 C 0.53215 0.8884 0.82902 0.0
N736 N 0.54947 0.87423 0.99077 0.0
N737 N 0.53825 0.88132 0.85332 0.0
H738 H 0.11753 0.6446 0.78018 0.0
H739 H 0.13734 0.68865 0.06918 0.0
H740 H 0.10676 0.62493 0.94452 0.0
H741 H 0.14834 0.70861 0.90541 0.0
H742 H 0.12765 0.66528 0.02423 0.0
H743 H 0.13041 0.66811 0.8251 0.0
C744 C 0.11797 0.6452 0.82571 0.0
C745 C 0.11098 0.63276 0.85861 0.0
C746 C 0.13226 0.67476 0.99807 0.0
C747 C 0.12566 0.65968 0.91035 0.0
C748 C 0.13781 0.68813 0.02374 0.0
C749 C 0.1436 0.70062 0.99102 0.0
C750 C 0.13243 0.67381 0.93911 0.0
C751 C 0.14395 0.69927 0.93231 0.0
C752 C 0.12532 0.65865 0.85134 0.0
C753 C 0.11194 0.63422 0.91743 0.0
N754 N 0.13835 0.6861 0.90823 0.0
N755 N 0.11905 0.64743 0.94137 0.0
H756 H 0.30833 0.44606 0.04606 0.0
H757 H 0.35365 0.46267 0.762 0.0
H758 H 0.28936 0.43334 0.88099 0.0
H759 H 0.37291 0.47884 0.9245 0.0
H760 H 0.33001 0.45295 0.80459 0.0
H761 H 0.33198 0.45926 0.00232 0.0
C762 C 0.30911 0.44615 0.00059 0.0
C763 C 0.29683 0.4385 0.96717 0.0
C764 C 0.33939 0.4587 0.83095 0.0
C765 C 0.32391 0.4535 0.91682 0.0
C766 C 0.35292 0.46426 0.80664 0.0
C767 C 0.3653 0.47152 0.83978 0.0
C768 C 0.33817 0.4603 0.88903 0.0
C769 C 0.36366 0.47329 0.89736 0.0
C770 C 0.32263 0.45368 0.97564 0.0
C771 C 0.29852 0.43903 0.90846 0.0
N772 N 0.35034 0.46762 0.92024 0.0
N773 N 0.3118 0.44629 0.88523 0.0
H774 H 0.10866 0.48204 0.44101 0.0
H775 H 0.14807 0.43702 0.3833 0.0
H776 H 0.11781 0.47251 0.27478 0.0
H777 H 0.13887 0.44654 0.54946 0.0
H778 H 0.13887 0.45168 0.3429 0.0
H779 H 0.12151 0.47085 0.48154 0.0
C780 C 0.11348 0.47771 0.41298 0.0
C781 C 0.11207 0.47814 0.35437 0.0
C782 C 0.13896 0.45065 0.38822 0.0
C783 C 0.12674 0.46521 0.40057 0.0
C784 C 0.14423 0.44229 0.41135 0.0
C785 C 0.14417 0.44046 0.46988 0.0
C786 C 0.13352 0.45722 0.42383 0.0
C787 C 0.13908 0.44758 0.5041 0.0
C788 C 0.12081 0.4713 0.43618 0.0
C789 C 0.11857 0.47238 0.32019 0.0
N790 N 0.13388 0.45556 0.48057 0.0
N791 N 0.12553 0.46607 0.34378 0.0
H792 H 0.52479 0.62782 0.43242 0.0
H793 H 0.56959 0.713 0.39424 0.0
H794 H 0.54068 0.64893 0.27265 0.0
H795 H 0.55941 0.69195 0.55596 0.0
H796 H 0.55626 0.68964 0.34849 0.0
H797 H 0.53468 0.65125 0.47776 0.0
C798 C 0.53024 0.63737 0.40679 0.0
C799 C 0.53199 0.6364 0.34869 0.0
C800 C 0.55687 0.69014 0.39401 0.0
C801 C 0.54335 0.66325 0.40031 0.0
C802 C 0.56444 0.70348 0.42018 0.0
C803 C 0.56571 0.70444 0.47903 0.0
C804 C 0.55047 0.67764 0.42688 0.0
C805 C 0.55879 0.69173 0.51046 0.0
C806 C 0.53592 0.65075 0.43272 0.0
C807 C 0.53916 0.64915 0.3176 0.0
N808 N 0.55153 0.67886 0.484 0.0
N809 N 0.54461 0.66202 0.34381 0.0
H810 H 0.36043 0.88768 0.28245 0.0
H811 H 0.31508 0.86728 0.56804 0.0
H812 H 0.37941 0.89874 0.448 0.0
H813 H 0.29587 0.85525 0.40311 0.0
H814 H 0.33872 0.87728 0.52498 0.0
H815 H 0.33678 0.87419 0.32585 0.0
C816 C 0.35965 0.88717 0.32794 0.0
C817 C 0.37194 0.89443 0.36162 0.0
C818 C 0.32935 0.87237 0.49817 0.0
C819 C 0.34484 0.87907 0.41163 0.0
C820 C 0.31582 0.86664 0.52276 0.0
C821 C 0.30346 0.86048 0.48912 0.0
C822 C 0.33057 0.87202 0.43939 0.0
C823 C 0.30511 0.85993 0.43069 0.0
C824 C 0.34612 0.87947 0.3527 0.0
C825 C 0.37025 0.89335 0.42034 0.0
N826 N 0.31841 0.86572 0.40765 0.0
N827 N 0.35696 0.88591 0.44343 0.0
H828 H 0.09411 0.23707 0.84403 0.0
H829 H 0.14367 0.27121 0.11465 0.0
H830 H 0.11473 0.28186 0.88692 0.0
H831 H 0.14143 0.23519 0.02597 0.0
H832 H 0.12684 0.27167 0.0473 0.0
H833 H 0.10539 0.23299 0.9267 0.0
C834 C 0.10072 0.24595 0.87164 0.0
C835 C 0.10359 0.25983 0.85875 0.0
C836 C 0.12991 0.26356 0.04305 0.0
C837 C 0.11633 0.25525 0.95273 0.0
C838 C 0.13949 0.26325 0.08152 0.0
C839 C 0.14415 0.25326 0.07553 0.0
C840 C 0.12477 0.25373 -0.00149 0.0
C841 C 0.13826 0.24317 0.03181 0.0
C842 C 0.10721 0.24364 0.91835 0.0
C843 C 0.11233 0.27102 0.89533 0.0
N844 N 0.12892 0.24372 0.99465 0.0
N845 N 0.11842 0.26849 0.94064 0.0
H846 H 0.73456 0.87302 0.10664 0.0
H847 H 0.77031 0.8587 0.83839 0.0
H848 H 0.77106 0.90699 0.02097 0.0
H849 H 0.72533 0.83417 0.87818 0.0
H850 H 0.77398 0.87358 0.92221 0.0
H851 H 0.73464 0.85588 0.03986 0.0
C852 C 0.74274 0.87688 0.07433 0.0
C853 C 0.75269 0.89153 0.0689 0.0
C854 C 0.76338 0.86476 0.91296 0.0
C855 C 0.75284 0.87188 0.99261 0.0
C856 C 0.7613 0.85622 0.86559 0.0
C857 C 0.74748 0.84528 0.85146 0.0
C858 C 0.7516 0.86207 0.9467 0.0
C859 C 0.73612 0.84258 0.88755 0.0
C860 C 0.74273 0.86707 0.0362 0.0
C861 C 0.76308 0.89583 0.02629 0.0
N862 N 0.73842 0.85095 0.93346 0.0
N863 N 0.76283 0.88605 0.98943 0.0
H864 H 0.11544 0.87004 0.06653 0.0
H865 H 0.13793 0.87249 0.75055 0.0
H866 H 0.08703 0.84 0.94265 0.0
H867 H 0.15573 0.91117 0.84965 0.0
H868 H 0.12008 0.86003 0.82345 0.0
H869 H 0.13087 0.88527 0.99055 0.0
C870 C 0.11233 0.86677 0.02328 0.0
C871 C 0.1 0.85368 0.01079 0.0
C872 C 0.12783 0.87126 0.82919 0.0
C873 C 0.11773 0.87088 0.9241 0.0
C874 C 0.13813 0.87837 0.78788 0.0
C875 C 0.14841 0.89287 0.79433 0.0
C876 C 0.12793 0.87861 0.878 0.0
C877 C 0.14801 0.89997 0.84322 0.0
C878 C 0.12113 0.87547 0.98005 0.0
C879 C 0.09643 0.84999 0.95413 0.0
N880 N 0.13802 0.89271 0.88369 0.0
N881 N 0.1054 0.85842 0.91285 0.0
H882 H 0.28244 0.11463 0.63065 0.0
H883 H 0.2339 0.14028 0.48808 0.0
H884 H 0.2373 0.09356 0.66821 0.0
H885 H 0.2703 0.14253 0.40236 0.0
H886 H 0.23464 0.12346 0.55568 0.0
H887 H 0.27828 0.12538 0.54745 0.0
C888 C 0.27161 0.11209 0.62073 0.0
C889 C 0.2602 0.10323 0.65612 0.0
C890 C 0.24229 0.12748 0.52142 0.0
C891 C 0.25541 0.11578 0.56213 0.0
C892 C 0.24191 0.13711 0.483 0.0
C893 C 0.25216 0.14296 0.43986 0.0
C894 C 0.25315 0.12394 0.5172 0.0
C895 C 0.26225 0.1384 0.43513 0.0
C896 C 0.26924 0.1182 0.57329 0.0
C897 C 0.24637 0.10029 0.64161 0.0
N898 N 0.26264 0.12936 0.47388 0.0
N899 N 0.24437 0.1068 0.59621 0.0
H900 H 0.86377 0.09365 0.47866 0.0
H901 H 0.89148 0.16838 0.62039 0.0
H902 H 0.86189 0.12811 0.39408 0.0
H903 H 0.91112 0.14302 0.6589 0.0
H904 H 0.88034 0.15354 0.53739 0.0
H905 H 0.88094 0.11104 0.54584 0.0
C906 C 0.86708 0.10487 0.47377 0.0
C907 C 0.86124 0.1094 0.43104 0.0
C908 C 0.88729 0.15136 0.56336 0.0
C909 C 0.8807 0.12923 0.50789 0.0
C910 C 0.89363 0.15981 0.61068 0.0
C911 C 0.9022 0.15688 0.64633 0.0
C912 C 0.88918 0.13961 0.55255 0.0
C913 C 0.90464 0.14565 0.63211 0.0
C914 C 0.87692 0.11478 0.51195 0.0
C915 C 0.86601 0.12408 0.42653 0.0
N916 N 0.89791 0.1372 0.58681 0.0
N917 N 0.87526 0.13343 0.46501 0.0
H918 H 0.8572 0.76443 0.65532 0.0
H919 H 0.87246 0.72983 0.38583 0.0
H920 H 0.83283 0.7196 0.61322 0.0
H921 H 0.90634 0.76572 0.47472 0.0
H922 H 0.8552 0.72954 0.45287 0.0
H923 H 0.87257 0.76831 0.57285 0.0
C924 C 0.85487 0.75549 0.62791 0.0
C925 C 0.84381 0.74166 0.64098 0.0
C926 C 0.86639 0.73758 0.45723 0.0
C927 C 0.86115 0.74603 0.54725 0.0
C928 C 0.87628 0.7378 0.41895 0.0
C929 C 0.89094 0.7477 0.42509 0.0
C930 C 0.87112 0.74743 0.5017 0.0
C931 C 0.89517 0.75779 0.46879 0.0
C932 C 0.86369 0.7577 0.58133 0.0
C933 C 0.84132 0.73041 0.60467 0.0
N934 N 0.8853 0.75736 0.50574 0.0
N935 N 0.84994 0.73283 0.55947 0.0
H936 H 0.85814 0.72856 0.88695 0.0
H937 H 0.9091 0.76436 0.15277 0.0
H938 H 0.86156 0.76567 0.97087 0.0
H939 H 0.88762 0.71918 0.11609 0.0
H940 H 0.89763 0.76795 0.06962 0.0
H941 H 0.87504 0.72827 0.95444 0.0
C942 C 0.86258 0.73679 0.91905 0.0
C943 C 0.85825 0.74705 0.92371 0.0
C944 C 0.89565 0.75732 0.07944 0.0
C945 C 0.87771 0.74678 0.00079 0.0
C946 C 0.90225 0.75527 0.12643 0.0
C947 C 0.8992 0.74144 0.14122 0.0
C948 C 0.88624 0.74548 0.04669 0.0
C949 C 0.89016 0.73 0.10621 0.0
C950 C 0.87221 0.73657 0.9576 0.0
C951 C 0.86447 0.75746 0.96613 0.0
N952 N 0.88397 0.73226 0.06059 0.0
N953 N 0.87384 0.75702 0.00335 0.0
H954 H 0.27072 0.12997 0.90016 0.0
H955 H 0.2356 0.14442 0.16992 0.0
H956 H 0.23499 0.09576 0.98845 0.0
H957 H 0.28055 0.16882 0.1294 0.0
H958 H 0.23184 0.12931 0.08671 0.0
H959 H 0.2707 0.14703 0.9674 0.0
C960 C 0.26271 0.12604 0.93315 0.0
C961 C 0.25296 0.11134 0.93913 0.0
C962 C 0.24245 0.13815 0.09568 0.0
C963 C 0.25288 0.13094 0.01594 0.0
C964 C 0.24458 0.14681 0.14269 0.0
C965 C 0.25841 0.1578 0.1564 0.0
C966 C 0.25419 0.14077 0.06183 0.0
C967 C 0.26974 0.16039 0.12032 0.0
C968 C 0.26275 0.13581 0.97154 0.0
C969 C 0.2428 0.10696 0.98265 0.0
N970 N 0.26739 0.15192 0.0747 0.0
N971 N 0.24308 0.11672 0.01974 0.0
H972 H 0.85984 0.09131 0.16009 0.0
H973 H 0.87494 0.14132 0.89134 0.0
H974 H 0.83588 0.11238 0.12031 0.0
H975 H 0.90875 0.13873 0.97836 0.0
H976 H 0.8577 0.12439 0.95855 0.0
H977 H 0.87495 0.10253 0.07681 0.0
C978 C 0.85754 0.098 0.13302 0.0
C979 C 0.84668 0.10102 0.14698 0.0
C980 C 0.86887 0.1274 0.96242 0.0
C981 C 0.86372 0.11369 0.05232 0.0
C982 C 0.87874 0.13704 0.92404 0.0
C983 C 0.89338 0.14163 0.92969 0.0
C984 C 0.8736 0.12215 0.00644 0.0
C985 C 0.8976 0.13562 0.97285 0.0
C986 C 0.86621 0.10446 0.08597 0.0
C987 C 0.84421 0.10987 0.11107 0.0
N988 N 0.88776 0.12623 0.0099 0.0
N989 N 0.85269 0.11591 0.06541 0.0
H990 H 0.72245 0.88888 0.37454 0.0
H991 H 0.73716 0.86339 0.61612 0.0
H992 H 0.76777 0.90985 0.34061 0.0
H993 H 0.76854 0.86137 0.5093 0.0
H994 H 0.73599 0.88008 0.55011 0.0
H995 H 0.72613 0.87806 0.45848 0.0
C996 C 0.73323 0.89145 0.38559 0.0
C997 C 0.74484 0.9003 0.35094 0.0
C998 C 0.74315 0.87601 0.54128 0.0
C999 C 0.74913 0.88786 0.44649 0.0
C1000 C 0.74392 0.86654 0.57907 0.0
C1001 C 0.75275 0.86071 0.56768 0.0
C1002 C 0.75129 0.87972 0.4917 0.0
C1003 C 0.76141 0.86541 0.51933 0.0
C1004 C 0.73534 0.88534 0.43365 0.0
C1005 C 0.75858 0.90319 0.36672 0.0
N1006 N 0.76038 0.87458 0.48281 0.0
N1007 N 0.76032 0.89671 0.41282 0.0
H1008 H 0.13059 0.86764 0.25127 0.0
H1009 H 0.13327 0.88917 0.56754 0.0
H1010 H 0.09197 0.84889 0.351 0.0
H1011 H 0.16247 0.91846 0.44365 0.0
H1012 H 0.11783 0.87396 0.49152 0.0
H1013 H 0.14271 0.88571 0.32375 0.0
C1014 C 0.12466 0.86731 0.28863 0.0
C1015 C 0.11029 0.85667 0.29548 0.0
C1016 C 0.12747 0.88386 0.48106 0.0
C1017 C 0.12415 0.87738 0.3787 0.0
C1018 C 0.13629 0.89253 0.52432 0.0
C1019 C 0.14924 0.90502 0.51177 0.0
C1020 C 0.1318 0.88755 0.425 0.0
C1021 C 0.1526 0.90892 0.45517 0.0
C1022 C 0.13155 0.87773 0.32969 0.0
C1023 C 0.10308 0.85688 0.34433 0.0
N1024 N 0.14407 0.90005 0.4138 0.0
N1025 N 0.11016 0.86699 0.38465 0.0
H1026 H 0.13118 0.27328 0.61235 0.0
H1027 H 0.14619 0.23707 0.34747 0.0
H1028 H 0.09745 0.23611 0.52894 0.0
H1029 H 0.17005 0.28227 0.38349 0.0
H1030 H 0.13115 0.23362 0.43055 0.0
H1031 H 0.14835 0.27346 0.545 0.0
C1032 C 0.12739 0.26502 0.58038 0.0
C1033 C 0.11279 0.25477 0.57585 0.0
C1034 C 0.13985 0.24423 0.42061 0.0
C1035 C 0.13249 0.25491 0.49893 0.0
C1036 C 0.14848 0.24619 0.37367 0.0
C1037 C 0.1593 0.25999 0.3587 0.0
C1038 C 0.14232 0.25612 0.45313 0.0
C1039 C 0.16175 0.27148 0.39352 0.0
C1040 C 0.13722 0.26517 0.54192 0.0
C1041 C 0.10857 0.24431 0.53358 0.0
N1042 N 0.15331 0.2693 0.43909 0.0
N1043 N 0.11838 0.24469 0.49646 0.0
H1044 H 0.80934 0.57007 0.35633 0.0
H1045 H 0.78193 0.61757 0.21608 0.0
H1046 H 0.81065 0.60592 0.44285 0.0
H1047 H 0.76203 0.57267 0.17606 0.0
H1048 H 0.79307 0.6136 0.2985 0.0
H1049 H 0.79241 0.57056 0.28842 0.0
C1050 C 0.80595 0.57791 0.3615 0.0
C1051 C 0.81156 0.58807 0.40501 0.0
C1052 C 0.78607 0.60455 0.27229 0.0
C1053 C 0.79241 0.58877 0.32735 0.0
C1054 C 0.77974 0.60682 0.2253 0.0
C1055 C 0.77107 0.59542 0.18946 0.0
C1056 C 0.78408 0.59086 0.28258 0.0
C1057 C 0.76858 0.58171 0.20304 0.0
C1058 C 0.79626 0.57814 0.32289 0.0
C1059 C 0.80672 0.59794 0.40982 0.0
N1060 N 0.7753 0.57983 0.24805 0.0
N1061 N 0.79762 0.59819 0.37097 0.0
H1062 H 0.42618 0.18125 0.18878 0.0
H1063 H 0.42495 0.25192 0.28165 0.0
H1064 H 0.40793 0.20158 0.08887 0.0
H1065 H 0.42328 0.22128 0.40262 0.0
H1066 H 0.42558 0.23688 0.2057 0.0
H1067 H 0.43133 0.19901 0.26368 0.0
C1068 C 0.42334 0.18947 0.18257 0.0
C1069 C 0.41646 0.18986 0.13305 0.0
C1070 C 0.42528 0.23359 0.24898 0.0
C1071 C 0.42262 0.21025 0.2171 0.0
C1072 C 0.42503 0.2422 0.29228 0.0
C1073 C 0.42387 0.23774 0.3484 0.0
C1074 C 0.42457 0.22055 0.26201 0.0
C1075 C 0.42398 0.22501 0.35979 0.0
C1076 C 0.42628 0.19956 0.22509 0.0
C1077 C 0.41305 0.20075 0.12679 0.0
N1078 N 0.42422 0.21679 0.31691 0.0
N1079 N 0.4162 0.21053 0.16822 0.0
H1080 H 0.83434 0.21741 0.18628 0.0
H1081 H 0.75898 0.18798 0.32324 0.0
H1082 H 0.80987 0.23807 0.14898 0.0
H1083 H 0.79443 0.18989 0.41551 0.0
H1084 H 0.77613 0.20484 0.25413 0.0
H1085 H 0.81866 0.2055 0.2666 0.0
C1086 C 0.82577 0.21958 0.19569 0.0
C1087 C 0.8234 0.22876 0.16153 0.0
C1088 C 0.78007 0.20168 0.2901 0.0
C1089 C 0.80518 0.21485 0.25184 0.0
C1090 C 0.77033 0.19203 0.32931 0.0
C1091 C 0.77525 0.1874 0.37495 0.0
C1092 C 0.79474 0.20641 0.29618 0.0
C1093 C 0.79009 0.19306 0.3809 0.0
C1094 C 0.81684 0.2128 0.24138 0.0
C1095 C 0.81209 0.23116 0.17498 0.0
N1096 N 0.79926 0.20206 0.34153 0.0
N1097 N 0.80317 0.22401 0.21866 0.0
H1098 H 0.91442 0.49612 0.89004 0.0
H1099 H 0.91438 0.42479 0.98227 0.0
H1100 H 0.91549 0.46693 0.76846 0.0
H1101 H 0.93313 0.46366 0.08032 0.0
H1102 H 0.90865 0.43709 0.90796 0.0
H1103 H 0.91444 0.48073 0.96577 0.0
C1104 C 0.91433 0.48632 0.87926 0.0
C1105 C 0.91514 0.48288 0.82298 0.0
C1106 C 0.91395 0.44283 0.946 0.0
C1107 C 0.9152 0.46531 0.90914 0.0
C1108 C 0.91723 0.43585 0.98819 0.0
C1109 C 0.9244 0.44329 0.03703 0.0
C1110 C 0.91757 0.45717 0.95369 0.0
C1111 C 0.92779 0.45759 0.04293 0.0
C1112 C 0.91446 0.47762 0.92243 0.0
C1113 C 0.91505 0.47006 0.8114 0.0
N1114 N 0.92431 0.46404 0.00187 0.0
N1115 N 0.91519 0.46176 0.85416 0.0
H1116 H 0.55906 0.50321 0.96344 0.0
H1117 H 0.53082 0.42847 0.82269 0.0
H1118 H 0.57835 0.47763 0.00363 0.0
H1119 H 0.53028 0.46335 0.73578 0.0
H1120 H 0.54806 0.44572 0.89011 0.0
H1121 H 0.54815 0.48846 0.88 0.0
C1122 C 0.56118 0.49462 0.95401 0.0
C1123 C 0.56958 0.49159 0.99022 0.0
C1124 C 0.54432 0.44957 0.85562 0.0
C1125 C 0.55683 0.47443 0.89598 0.0
C1126 C 0.53445 0.43974 0.81728 0.0
C1127 C 0.52894 0.44444 0.77391 0.0
C1128 C 0.54845 0.46411 0.85103 0.0
C1129 C 0.53411 0.4592 0.76877 0.0
C1130 C 0.55498 0.48621 0.90644 0.0
C1131 C 0.572 0.48033 0.97637 0.0
N1132 N 0.54337 0.46846 0.80742 0.0
N1133 N 0.56539 0.47192 0.93083 0.0
H1134 H 0.54125 0.06243 0.72144 0.0
H1135 H 0.52604 0.0972 0.99038 0.0
H1136 H 0.57519 0.09862 0.80878 0.0
H1137 H 0.50221 0.05219 0.95084 0.0
H1138 H 0.54133 0.10104 0.9077 0.0
H1139 H 0.5241 0.06205 0.7893 0.0
C1140 C 0.5451 0.07045 0.75438 0.0
C1141 C 0.55975 0.08047 0.75983 0.0
C1142 C 0.53259 0.09039 0.91681 0.0
C1143 C 0.54005 0.08009 0.83739 0.0
C1144 C 0.52382 0.08821 0.96351 0.0
C1145 C 0.51292 0.07435 0.97733 0.0
C1146 C 0.53017 0.07866 0.88332 0.0
C1147 C 0.51056 0.06303 0.94169 0.0
C1148 C 0.53528 0.07018 0.79314 0.0
C1149 C 0.56403 0.09061 0.80336 0.0
N1150 N 0.51913 0.06543 0.89633 0.0
N1151 N 0.55422 0.09012 0.84078 0.0
H1152 H 0.52977 0.09916 0.30832 0.0
H1153 H 0.55684 0.05156 0.4502 0.0
H1154 H 0.52765 0.06271 0.22371 0.0
H1155 H 0.57704 0.09658 0.48827 0.0
H1156 H 0.54569 0.05539 0.36753 0.0
H1157 H 0.5468 0.09871 0.37579 0.0
C1158 C 0.533 0.09119 0.30348 0.0
C1159 C 0.52714 0.08086 0.26065 0.0
C1160 C 0.55276 0.0645 0.39334 0.0
C1161 C 0.54642 0.08021 0.3378 0.0
C1162 C 0.5591 0.0623 0.44048 0.0
C1163 C 0.56784 0.07378 0.47588 0.0
C1164 C 0.55482 0.07819 0.38248 0.0
C1165 C 0.57042 0.08749 0.46165 0.0
C1166 C 0.54275 0.09098 0.34182 0.0
C1167 C 0.53179 0.07083 0.25622 0.0
N1168 N 0.56369 0.08929 0.41653 0.0
N1169 N 0.54096 0.07062 0.29483 0.0
H1170 H 0.91545 0.41906 0.38964 0.0
H1171 H 0.91411 0.48969 0.48221 0.0
H1172 H 0.9162 0.4492 0.26829 0.0
H1173 H 0.93309 0.46987 0.58088 0.0
H1174 H 0.90882 0.47183 0.40762 0.0
H1175 H 0.91517 0.43431 0.46549 0.0
C1176 C 0.91524 0.42871 0.37893 0.0
C1177 C 0.91603 0.43297 0.32269 0.0
C1178 C 0.91408 0.47142 0.44586 0.0
C1179 C 0.91575 0.45041 0.40897 0.0
C1180 C 0.91711 0.48158 0.48821 0.0
C1181 C 0.92421 0.48135 0.53732 0.0
C1182 C 0.91788 0.46083 0.45363 0.0
C1183 C 0.92779 0.47057 0.54329 0.0
C1184 C 0.91519 0.43745 0.42217 0.0
C1185 C 0.91577 0.44562 0.3112 0.0
N1186 N 0.92455 0.46073 0.50206 0.0
N1187 N 0.91575 0.45396 0.35401 0.0
H1188 H 0.50251 0.44864 0.46609 0.0
H1189 H 0.5764 0.47364 0.32227 0.0
H1190 H 0.52612 0.42703 0.50227 0.0
H1191 H 0.54239 0.47625 0.23703 0.0
H1192 H 0.55879 0.45688 0.38991 0.0
H1193 H 0.51737 0.45931 0.38268 0.0
C1194 C 0.51068 0.44597 0.45581 0.0
C1195 C 0.51313 0.43697 0.49088 0.0
C1196 C 0.5552 0.46097 0.35574 0.0
C1197 C 0.53042 0.44944 0.39668 0.0
C1198 C 0.56523 0.47056 0.31729 0.0
C1199 C 0.5609 0.4765 0.27427 0.0
C1200 C 0.54084 0.45755 0.35167 0.0
C1201 C 0.54627 0.47205 0.26968 0.0
C1202 C 0.51914 0.45204 0.40825 0.0
C1203 C 0.52387 0.43386 0.47593 0.0
N1204 N 0.53682 0.46305 0.30847 0.0
N1205 N 0.53236 0.44033 0.43045 0.0
H1206 H 0.42513 0.24572 0.6874 0.0
H1207 H 0.4248 0.17423 0.77941 0.0
H1208 H 0.40561 0.20663 0.5906 0.0
H1209 H 0.42471 0.20388 0.9012 0.0
H1210 H 0.42447 0.18948 0.70377 0.0
H1211 H 0.43096 0.23342 0.76139 0.0
C1212 C 0.42212 0.2346 0.68171 0.0
C1213 C 0.41472 0.22711 0.63328 0.0
C1214 C 0.42473 0.19273 0.74712 0.0
C1215 C 0.42166 0.21323 0.71624 0.0
C1216 C 0.42504 0.1841 0.79023 0.0
C1217 C 0.4246 0.18772 0.84659 0.0
C1218 C 0.42417 0.20512 0.76055 0.0
C1219 C 0.42487 0.20062 0.85822 0.0
C1220 C 0.42546 0.22763 0.7237 0.0
C1221 C 0.41113 0.21275 0.62766 0.0
N1222 N 0.42454 0.20884 0.81552 0.0
N1223 N 0.41468 0.2063 0.66851 0.0
H1224 H 0.75736 0.17385 0.70722 0.0
H1225 H 0.82732 0.24553 0.80074 0.0
H1226 H 0.79717 0.19277 0.61512 0.0
H1227 H 0.80178 0.21364 0.92472 0.0
H1228 H 0.81173 0.22954 0.72677 0.0
H1229 H 0.76961 0.19146 0.78336 0.0
C1230 C 0.76862 0.1817 0.70305 0.0
C1231 C 0.77634 0.18179 0.65535 0.0
C1232 C 0.80943 0.22618 0.77033 0.0
C1233 C 0.79008 0.20203 0.74022 0.0
C1234 C 0.81825 0.23531 0.81253 0.0
C1235 C 0.81593 0.23082 0.86884 0.0
C1236 C 0.79808 0.2126 0.78463 0.0
C1237 C 0.80402 0.21742 0.88167 0.0
C1238 C 0.77555 0.19169 0.74621 0.0
C1239 C 0.79088 0.1922 0.6516 0.0
N1240 N 0.79554 0.20871 0.83977 0.0
N1241 N 0.79725 0.20196 0.69323 0.0
H1242 H 0.76303 0.57048 0.85856 0.0
H1243 H 0.83717 0.61842 0.71299 0.0
H1244 H 0.79719 0.60754 0.94077 0.0
H1245 H 0.81297 0.57315 0.67864 0.0
H1246 H 0.82221 0.61475 0.79564 0.0
H1247 H 0.78047 0.57104 0.79063 0.0
C1248 C 0.77419 0.57862 0.86275 0.0
C1249 C 0.77862 0.58907 0.9051 0.0
C1250 C 0.82031 0.60557 0.77063 0.0
C1251 C 0.7985 0.58984 0.8274 0.0
C1252 C 0.82883 0.60767 0.7235 0.0
C1253 C 0.82627 0.59607 0.68917 0.0
C1254 C 0.80887 0.59184 0.78256 0.0
C1255 C 0.81532 0.58235 0.70442 0.0
C1256 C 0.78413 0.57889 0.82416 0.0
C1257 C 0.79324 0.59932 0.90869 0.0
N1258 N 0.8068 0.58063 0.7495 0.0
N1259 N 0.8026 0.59958 0.86984 0.0
H1260 H 0.42763 0.90414 0.5084 0.0
H1261 H 0.47851 0.9397 0.77455 0.0
H1262 H 0.4489 0.94926 0.54606 0.0
H1263 H 0.47573 0.90314 0.68835 0.0
H1264 H 0.46148 0.93991 0.70755 0.0
H1265 H 0.43921 0.90052 0.59116 0.0
C1266 C 0.43443 0.9132 0.53493 0.0
C1267 C 0.4374 0.92703 0.5205 0.0
C1268 C 0.46448 0.93175 0.70379 0.0
C1269 C 0.45049 0.92296 0.61456 0.0
C1270 C 0.47418 0.93157 0.74205 0.0
C1271 C 0.47873 0.92149 0.73663 0.0
C1272 C 0.45911 0.92167 0.66012 0.0
C1273 C 0.47265 0.9112 0.69369 0.0
C1274 C 0.4411 0.91115 0.58167 0.0
C1275 C 0.44641 0.93845 0.55569 0.0
N1276 N 0.46319 0.9116 0.65679 0.0
N1277 N 0.45266 0.93617 0.60107 0.0
H1278 H 0.06942 0.54049 0.77202 0.0
H1279 H 0.10441 0.52612 0.50161 0.0
H1280 H 0.10514 0.57468 0.68364 0.0
H1281 H 0.05952 0.5016 0.54299 0.0
H1282 H 0.10823 0.54119 0.585 0.0
H1283 H 0.06943 0.52341 0.70485 0.0
C1284 C 0.07742 0.54442 0.73903 0.0
C1285 C 0.08717 0.55911 0.73299 0.0
C1286 C 0.09762 0.53233 0.57618 0.0
C1287 C 0.08725 0.5395 0.65625 0.0
C1288 C 0.09545 0.52369 0.52907 0.0
C1289 C 0.08162 0.51269 0.51554 0.0
C1290 C 0.08591 0.52967 0.61031 0.0
C1291 C 0.07033 0.51005 0.55192 0.0
C1292 C 0.07738 0.53463 0.70067 0.0
C1293 C 0.09733 0.56349 0.68948 0.0
N1294 N 0.07272 0.5185 0.59762 0.0
N1295 N 0.09705 0.55372 0.65242 0.0
H1296 H 0.44745 0.53684 0.73849 0.0
H1297 H 0.47121 0.5385 0.42508 0.0
H1298 H 0.41957 0.50644 0.61442 0.0
H1299 H 0.48857 0.57746 0.52224 0.0
H1300 H 0.45302 0.52626 0.49701 0.0
H1301 H 0.46308 0.55196 0.66274 0.0
C1302 C 0.44448 0.53347 0.69523 0.0
C1303 C 0.43226 0.5203 0.68265 0.0
C1304 C 0.46074 0.5375 0.50253 0.0
C1305 C 0.45023 0.53738 0.59624 0.0
C1306 C 0.47124 0.54448 0.46178 0.0
C1307 C 0.48151 0.559 0.46798 0.0
C1308 C 0.46062 0.54499 0.55055 0.0
C1309 C 0.48088 0.56624 0.51604 0.0
C1310 C 0.4534 0.54211 0.65212 0.0
C1311 C 0.42888 0.51649 0.62597 0.0
N1312 N 0.47069 0.5591 0.556 0.0
N1313 N 0.43798 0.52487 0.58486 0.0
H1314 H 0.5832 0.82738 0.19815 0.0
H1315 H 0.58527 0.75771 0.29188 0.0
H1316 H 0.58975 0.80203 0.07371 0.0
H1317 H 0.60641 0.79762 0.38314 0.0
H1318 H 0.57999 0.76994 0.21543 0.0
H1319 H 0.58393 0.81194 0.27193 0.0
C1320 C 0.58448 0.81839 0.18622 0.0
C1321 C 0.58659 0.81608 0.12982 0.0
C1322 C 0.58575 0.77591 0.25243 0.0
C1323 C 0.58734 0.7984 0.21384 0.0
C1324 C 0.58876 0.76899 0.29577 0.0
C1325 C 0.59642 0.77674 0.34339 0.0
C1326 C 0.59001 0.79045 0.25816 0.0
C1327 C 0.60066 0.7913 0.34677 0.0
C1328 C 0.58498 0.80966 0.22832 0.0
C1329 C 0.58825 0.80427 0.11682 0.0
N1330 N 0.5973 0.79765 0.30498 0.0
N1331 N 0.58865 0.79586 0.15864 0.0
H1332 H 0.24324 0.80549 0.36024 0.0
H1333 H 0.19664 0.7911 0.08262 0.0
H1334 H 0.2238 0.83043 0.31203 0.0
H1335 H 0.19281 0.75597 0.18305 0.0
H1336 H 0.21364 0.80785 0.15059 0.0
H1337 H 0.23144 0.7895 0.27934 0.0
C1338 C 0.23681 0.80779 0.33174 0.0
C1339 C 0.23444 0.81924 0.34236 0.0
C1340 C 0.20921 0.79647 0.15728 0.0
C1341 C 0.2212 0.80128 0.25064 0.0
C1342 C 0.19951 0.78686 0.11853 0.0
C1343 C 0.19308 0.77205 0.12755 0.0
C1344 C 0.21272 0.79131 0.20516 0.0
C1345 C 0.19737 0.76729 0.17479 0.0
C1346 C 0.23002 0.79864 0.28618 0.0
C1347 C 0.22585 0.8217 0.30506 0.0
N1348 N 0.2069 0.77692 0.21221 0.0
N1349 N 0.21955 0.8128 0.26072 0.0
H1350 H 0.20425 0.39406 0.05669 0.0
H1351 H 0.18938 0.42956 0.32425 0.0
H1352 H 0.23818 0.43057 0.14254 0.0
H1353 H 0.16511 0.38457 0.2848 0.0
H1354 H 0.20457 0.43321 0.24142 0.0
H1355 H 0.1871 0.39391 0.12398 0.0
C1356 C 0.20809 0.40219 0.08919 0.0
C1357 C 0.22274 0.41223 0.09442 0.0
C1358 C 0.19575 0.42261 0.25056 0.0
C1359 C 0.20305 0.41212 0.17134 0.0
C1360 C 0.18704 0.42054 0.29736 0.0
C1361 C 0.17606 0.40673 0.31128 0.0
C1362 C 0.19319 0.41083 0.21712 0.0
C1363 C 0.17353 0.39536 0.2756 0.0
C1364 C 0.19827 0.40205 0.12763 0.0
C1365 C 0.22702 0.42254 0.13733 0.0
N1366 N 0.18205 0.39766 0.23019 0.0
N1367 N 0.21722 0.42217 0.17446 0.0
H1368 H 0.24099 0.42873 0.82444 0.0
H1369 H 0.1903 0.39389 0.55725 0.0
H1370 H 0.21936 0.38364 0.78596 0.0
H1371 H 0.1936 0.4307 0.64318 0.0
H1372 H 0.20703 0.3933 0.62486 0.0
H1373 H 0.22955 0.43259 0.74182 0.0
C1374 C 0.23412 0.41972 0.79781 0.0
C1375 C 0.23103 0.40584 0.81194 0.0
C1376 C 0.20421 0.4016 0.62845 0.0
C1377 C 0.2181 0.41018 0.71799 0.0
C1378 C 0.19469 0.40199 0.58983 0.0
C1379 C 0.19038 0.41226 0.59496 0.0
C1380 C 0.20963 0.41165 0.67221 0.0
C1381 C 0.1965 0.42251 0.63803 0.0
C1382 C 0.22753 0.42192 0.75114 0.0
C1383 C 0.22194 0.3945 0.77659 0.0
N1384 N 0.20579 0.4219 0.67529 0.0
N1385 N 0.21578 0.39691 0.73126 0.0
H1386 H 0.6167 0.83484 0.80902 0.0
H1387 H 0.5721 0.75887 0.67631 0.0
H1388 H 0.57196 0.80916 0.85094 0.0
H1389 H 0.6046 0.79451 0.58164 0.0
H1390 H 0.57199 0.77594 0.74487 0.0
H1391 H 0.61299 0.8192 0.72865 0.0
C1392 C 0.60604 0.82601 0.80057 0.0
C1393 C 0.59459 0.82328 0.83607 0.0
C1394 C 0.57895 0.77993 0.70849 0.0
C1395 C 0.59036 0.8051 0.74572 0.0
C1396 C 0.57907 0.77024 0.66959 0.0
C1397 C 0.58848 0.77524 0.62347 0.0
C1398 C 0.5885 0.79465 0.7016 0.0
C1399 C 0.59724 0.7901 0.61668 0.0
C1400 C 0.60392 0.8171 0.75485 0.0
C1401 C 0.581 0.81165 0.82388 0.0
N1402 N 0.59719 0.79924 0.65574 0.0
N1403 N 0.57928 0.80276 0.78015 0.0
H1404 H 0.17617 0.7534 0.7979 0.0
H1405 H 0.24853 0.82204 0.70286 0.0
H1406 H 0.19587 0.7934 0.88868 0.0
H1407 H 0.21599 0.79784 0.57885 0.0
H1408 H 0.23234 0.80657 0.77648 0.0
H1409 H 0.19353 0.76533 0.72065 0.0
C1410 C 0.18411 0.76463 0.8015 0.0
C1411 C 0.18452 0.7725 0.84924 0.0
C1412 C 0.22888 0.80454 0.73297 0.0
C1413 C 0.20448 0.78585 0.7632 0.0
C1414 C 0.23812 0.81328 0.69094 0.0
C1415 C 0.23352 0.81132 0.63477 0.0
C1416 C 0.21507 0.79362 0.71864 0.0
C1417 C 0.21987 0.7998 0.62181 0.0
C1418 C 0.19396 0.77138 0.75773 0.0
C1419 C 0.19505 0.787 0.85225 0.0
N1420 N 0.21105 0.79139 0.66358 0.0
N1421 N 0.20468 0.79317 0.81009 0.0
H1422 H 0.10344 0.57791 0.00185 0.0
H1423 H 0.06934 0.52823 0.27179 0.0
H1424 H 0.05842 0.55635 0.04205 0.0
H1425 H 0.10552 0.53069 0.1834 0.0
H1426 H 0.06881 0.545 0.2044 0.0
H1427 H 0.10758 0.56688 0.08513 0.0
C1428 C 0.09451 0.57116 0.02901 0.0
C1429 C 0.08056 0.56794 0.01518 0.0
C1430 C 0.07697 0.542 0.20028 0.0
C1431 C 0.08522 0.55549 0.10986 0.0
C1432 C 0.07733 0.53245 0.23877 0.0
C1433 C 0.08737 0.52786 0.23279 0.0
C1434 C 0.08682 0.54717 0.15582 0.0
C1435 C 0.09749 0.5338 0.1892 0.0
C1436 C 0.09686 0.56481 0.07606 0.0
C1437 C 0.06932 0.55901 0.0512 0.0
N1438 N 0.09691 0.54311 0.15204 0.0
N1439 N 0.07189 0.55308 0.09688 0.0
H1440 H 0.46367 0.53401 0.92226 0.0
H1441 H 0.46733 0.55469 0.24069 0.0
H1442 H 0.42543 0.51519 0.02425 0.0
H1443 H 0.49659 0.58404 0.11709 0.0
H1444 H 0.45175 0.5397 0.16455 0.0
H1445 H 0.4762 0.55176 0.99546 0.0
C1446 C 0.45791 0.53359 0.96025 0.0
C1447 C 0.44353 0.52303 0.96751 0.0
C1448 C 0.46145 0.54955 0.15419 0.0
C1449 C 0.45786 0.54336 0.05157 0.0
C1450 C 0.47036 0.5581 0.19751 0.0
C1451 C 0.48334 0.57055 0.18507 0.0
C1452 C 0.46573 0.55334 0.09813 0.0
C1453 C 0.4867 0.57452 0.12852 0.0
C1454 C 0.46504 0.54382 0.00175 0.0
C1455 C 0.43655 0.52313 0.01721 0.0
N1456 N 0.47807 0.56578 0.08705 0.0
N1457 N 0.44385 0.53305 0.05788 0.0
H1458 H 0.50467 0.95019 0.04552 0.0
H1459 H 0.46444 0.93545 0.28662 0.0
H1460 H 0.47986 0.90505 0.00945 0.0
H1461 H 0.43077 0.90492 0.17858 0.0
H1462 H 0.48215 0.93637 0.22039 0.0
H1463 H 0.49006 0.94651 0.12911 0.0
C1464 C 0.49632 0.93945 0.056 0.0
C1465 C 0.49348 0.92789 0.0209 0.0
C1466 C 0.47088 0.92944 0.21133 0.0
C1467 C 0.47663 0.9236 0.11608 0.0
C1468 C 0.46074 0.92883 0.24923 0.0
C1469 C 0.44605 0.92032 0.23758 0.0
C1470 C 0.46635 0.92149 0.16134 0.0
C1471 C 0.44197 0.9118 0.18883 0.0
C1472 C 0.48804 0.93733 0.10387 0.0
C1473 C 0.48245 0.9142 0.03595 0.0
N1474 N 0.45209 0.91269 0.15216 0.0
N1475 N 0.47418 0.91246 0.08191 0.0
H1476 H 0.2563 0.37433 0.1234 0.0
H1477 H 0.21516 0.29118 0.04555 0.0
H1478 H 0.24201 0.3578 0.95588 0.0
H1479 H 0.21781 0.3076 0.21355 0.0
H1480 H 0.23121 0.31555 0.01253 0.0
H1481 H 0.24848 0.35003 0.15607 0.0
C1482 C 0.25181 0.36566 0.09318 0.0
C1483 C 0.24959 0.36809 0.03695 0.0
C1484 C 0.22846 0.31377 0.05679 0.0
C1485 C 0.2406 0.34026 0.07423 0.0
C1486 C 0.21936 0.29985 0.07579 0.0
C1487 C 0.21493 0.29736 0.13228 0.0
C1488 C 0.23326 0.32527 0.09461 0.0
C1489 C 0.22077 0.30904 0.16948 0.0
C1490 C 0.24728 0.35177 0.11198 0.0
C1491 C 0.24374 0.3564 -0.00024 0.0
N1492 N 0.2295 0.32251 0.14988 0.0
N1493 N 0.23931 0.34298 0.01918 0.0
H1494 H 0.71339 0.92203 0.03279 0.0
H1495 H 0.63111 0.88778 0.12037 0.0
H1496 H 0.69828 0.91284 0.20436 0.0
H1497 H 0.64517 0.88156 0.95802 0.0
H1498 H 0.65614 0.90363 0.14695 0.0
H1499 H 0.68886 0.9139 0.00144 0.0
C1500 C 0.70499 0.91862 0.06402 0.0
C1501 C 0.70786 0.91793 0.12126 0.0
C1502 C 0.6537 0.89898 0.10518 0.0
C1503 C 0.67983 0.90865 0.08557 0.0
C1504 C 0.63943 0.88999 0.08981 0.0
C1505 C 0.63605 0.88317 0.03712 0.0
C1506 C 0.66466 0.9013 0.06737 0.0
C1507 C 0.64729 0.88644 -0.00068 0.0
C1508 C 0.69099 0.91391 0.04601 0.0
C1509 C 0.69652 0.91339 0.15977 0.0
N1510 N 0.66111 0.89518 0.01535 0.0
N1511 N 0.68299 0.90882 0.14119 0.0
H1512 H 0.123 0.74586 0.14397 0.0
H1513 H 0.1006 0.79433 0.20769 0.0
H1514 H 0.12282 0.7601 0.97432 0.0
H1515 H 0.07963 0.78333 0.04578 0.0
H1516 H 0.10982 0.77811 0.18935 0.0
H1517 H 0.10773 0.75552 0.17314 0.0
C1518 C 0.11957 0.7508 0.11264 0.0
C1519 C 0.12439 0.75238 0.05676 0.0
C1520 C 0.10288 0.77893 0.1585 0.0
C1521 C 0.10714 0.76365 0.0901 0.0
C1522 C 0.09771 0.78828 0.16877 0.0
C1523 C 0.08936 0.79021 0.12816 0.0
C1524 C 0.09988 0.77164 0.10684 0.0
C1525 C 0.08598 0.78214 0.07835 0.0
C1526 C 0.11099 0.75646 0.12951 0.0
C1527 C 0.11953 0.75884 0.01799 0.0
N1528 N 0.0915 0.77343 0.06859 0.0
N1529 N 0.11124 0.7643 0.03546 0.0
H1530 H 0.29278 0.21066 0.47176 0.0
H1531 H 0.37442 0.25943 0.37784 0.0
H1532 H 0.30644 0.21792 0.29821 0.0
H1533 H 0.36168 0.23577 0.53382 0.0
H1534 H 0.34917 0.25035 0.35528 0.0
H1535 H 0.31769 0.2261 0.50107 0.0
C1536 C 0.30095 0.21578 0.43976 0.0
C1537 C 0.29756 0.21288 0.38242 0.0
C1538 C 0.35194 0.24734 0.3948 0.0
C1539 C 0.326 0.23053 0.41577 0.0
C1540 C 0.36634 0.25256 0.40789 0.0
C1541 C 0.37016 0.24822 0.45755 0.0
C1542 C 0.3413 0.2379 0.432 0.0
C1543 C 0.35921 0.23926 0.4948 0.0
C1544 C 0.31516 0.22449 0.45659 0.0
C1545 C 0.30861 0.21975 0.34286 0.0
N1546 N 0.34526 0.23434 0.48114 0.0
N1547 N 0.32236 0.22819 0.36028 0.0
H1548 H 0.76274 0.11866 0.54106 0.0
H1549 H 0.78718 0.08973 0.28568 0.0
H1550 H 0.74692 0.11658 0.37239 0.0
H1551 H 0.79084 0.07918 0.45785 0.0
H1552 H 0.77082 0.09789 0.31639 0.0
H1553 H 0.77146 0.10258 0.51269 0.0
C1554 C 0.76087 0.11462 0.49831 0.0
C1555 C 0.75425 0.11912 0.45887 0.0
C1556 C 0.77498 0.09354 0.34734 0.0
C1557 C 0.76443 0.10091 0.42584 0.0
C1558 C 0.78434 0.08889 0.32982 0.0
C1559 C 0.79053 0.08393 0.36933 0.0
C1560 C 0.772 0.0935 0.40494 0.0
C1561 C 0.78638 0.083 0.42594 0.0
C1562 C 0.76584 0.10542 0.48214 0.0
C1563 C 0.75203 0.11346 0.40415 0.0
N1564 N 0.7776 0.08801 0.44221 0.0
N1565 N 0.75736 0.10487 0.38897 0.0
H1566 H 0.91035 0.69382 0.28066 0.0
H1567 H 0.88529 0.62563 0.38239 0.0
H1568 H 0.92315 0.70851 0.45115 0.0
H1569 H 0.88253 0.64431 0.53933 0.0
H1570 H 0.90164 0.64958 0.34653 0.0
H1571 H 0.90218 0.66944 0.31145 0.0
C1572 C 0.91179 0.69196 0.32437 0.0
C1573 C 0.91732 0.70323 0.36345 0.0
C1574 C 0.89745 0.64846 0.38876 0.0
C1575 C 0.90805 0.67522 0.39927 0.0
C1576 C 0.88824 0.63474 0.40958 0.0
C1577 C 0.88224 0.63295 0.46354 0.0
C1578 C 0.90062 0.66046 0.42205 0.0
C1579 C 0.88666 0.64517 0.4971 0.0
C1580 C 0.9072 0.67799 0.34197 0.0
C1581 C 0.91891 0.70016 0.41956 0.0
N1582 N 0.89544 0.6584 0.47556 0.0
N1583 N 0.91402 0.68641 0.43599 0.0
H1584 H 0.78436 0.69344 0.78299 0.0
H1585 H 0.75939 0.6432 0.04859 0.0
H1586 H 0.78735 0.70938 0.95205 0.0
H1587 H 0.74605 0.62728 0.87977 0.0
H1588 H 0.7674 0.66742 0.01481 0.0
H1589 H 0.76812 0.66925 0.81691 0.0
C1590 C 0.78139 0.69189 0.82707 0.0
C1591 C 0.7874 0.70345 0.86485 0.0
C1592 C 0.76247 0.65861 0.9853 0.0
C1593 C 0.76899 0.67571 0.9042 0.0
C1594 C 0.7579 0.64476 0.0046 0.0
C1595 C 0.75222 0.63321 0.96683 0.0
C1596 C 0.76161 0.66097 0.92763 0.0
C1597 C 0.75045 0.63587 0.91036 0.0
C1598 C 0.7721 0.67806 0.84645 0.0
C1599 C 0.78307 0.7008 0.92144 0.0
N1600 N 0.75538 0.6495 0.89227 0.0
N1601 N 0.77435 0.68718 0.93959 0.0
H1602 H 0.3637 0.12865 0.03748 0.0
H1603 H 0.30752 0.09038 0.79732 0.0
H1604 H 0.37523 0.11687 0.88053 0.0
H1605 H 0.29489 0.08548 0.97194 0.0
H1606 H 0.33235 0.09955 0.82676 0.0
H1607 H 0.33842 0.11252 0.01551 0.0
C1608 C 0.36093 0.12252 -0.0012 0.0
C1609 C 0.37159 0.12422 0.96056 0.0
C1610 C 0.3241 0.09621 0.85863 0.0
C1611 C 0.3427 0.10594 0.93478 0.0
C1612 C 0.30994 0.09099 0.84185 0.0
C1613 C 0.29915 0.08726 0.88224 0.0
C1614 C 0.32755 0.09805 0.91619 0.0
C1615 C 0.30288 0.08823 0.93938 0.0
C1616 C 0.3465 0.11328 0.98637 0.0
C1617 C 0.36737 0.11594 0.91118 0.0
N1618 N 0.31682 0.09381 0.9547 0.0
N1619 N 0.35325 0.10736 0.89921 0.0
H1620 H 0.91466 0.21632 0.78582 0.0
H1621 H 0.89019 0.26062 0.8826 0.0
H1622 H 0.9226 0.21112 0.95989 0.0
H1623 H 0.87969 0.23411 0.0309 0.0
H1624 H 0.90656 0.25234 0.85322 0.0
H1625 H 0.90608 0.23238 0.81498 0.0
C1626 C 0.91494 0.21885 0.83011 0.0
C1627 C 0.91928 0.2123 0.87048 0.0
C1628 C 0.90068 0.24835 0.89219 0.0
C1629 C 0.90947 0.23074 0.90437 0.0
C1630 C 0.89144 0.25319 0.90937 0.0
C1631 C 0.88331 0.24782 0.95876 0.0
C1632 C 0.90179 0.23806 0.92465 0.0
C1633 C 0.88554 0.23834 0.99201 0.0
C1634 C 0.91012 0.22813 0.84677 0.0
C1635 C 0.91937 0.21594 0.92731 0.0
N1636 N 0.89447 0.23368 0.9741 0.0
N1637 N 0.91422 0.22467 0.94267 0.0
H1638 H 0.69936 0.78671 0.71166 0.0
H1639 H 0.6453 0.76266 0.45853 0.0
H1640 H 0.71295 0.79023 0.53863 0.0
H1641 H 0.63189 0.74737 0.62797 0.0
H1642 H 0.6701 0.77107 0.48585 0.0
H1643 H 0.6747 0.77055 0.68209 0.0
C1644 C 0.6972 0.78388 0.66756 0.0
C1645 C 0.70822 0.78999 0.62748 0.0
C1646 C 0.66171 0.76564 0.51682 0.0
C1647 C 0.67997 0.77169 0.59319 0.0
C1648 C 0.64754 0.76085 0.50125 0.0
C1649 C 0.63651 0.75447 0.5412 0.0
C1650 C 0.66492 0.76428 0.57302 0.0
C1651 C 0.64005 0.75231 0.59584 0.0
C1652 C 0.68311 0.77464 0.65069 0.0
C1653 C 0.70479 0.78585 0.57096 0.0
N1654 N 0.65398 0.75746 0.61043 0.0
N1655 N 0.69093 0.77718 0.55535 0.0
H1656 H 0.21831 0.92358 0.53098 0.0
H1657 H 0.2559 0.87996 0.63489 0.0
H1658 H 0.21121 0.90443 0.69589 0.0
H1659 H 0.24259 0.8791 0.46289 0.0
H1660 H 0.24621 0.89554 0.65947 0.0
H1661 H 0.2339 0.91378 0.50824 0.0
C1662 C 0.22027 0.91758 0.56283 0.0
C1663 C 0.21336 0.91471 0.61529 0.0
C1664 C 0.24565 0.89211 0.61622 0.0
C1665 C 0.23124 0.90363 0.5896 0.0
C1666 C 0.25125 0.88331 0.60202 0.0
C1667 C 0.24994 0.87814 0.54681 0.0
C1668 C 0.23897 0.89598 0.57469 0.0
C1669 C 0.24371 0.88275 0.50604 0.0
C1670 C 0.22909 0.91194 0.54965 0.0
C1671 C 0.21623 0.90679 0.6548 0.0
N1672 N 0.23841 0.89139 0.52082 0.0
N1673 N 0.22493 0.90149 0.64111 0.0
H1674 H 0.1167 0.3589 0.45306 0.0
H1675 H 0.09268 0.30839 0.71791 0.0
H1676 H 0.11984 0.3746 0.62264 0.0
H1677 H 0.07934 0.29259 0.54893 0.0
H1678 H 0.10034 0.33258 0.68469 0.0
H1679 H 0.10072 0.33462 0.48677 0.0
C1680 C 0.11381 0.35728 0.49723 0.0
C1681 C 0.11979 0.3688 0.53519 0.0
C1682 C 0.09549 0.3238 0.65503 0.0
C1683 C 0.1017 0.34096 0.5743 0.0
C1684 C 0.09111 0.30996 0.674 0.0
C1685 C 0.08554 0.29846 0.63601 0.0
C1686 C 0.09453 0.3262 0.59746 0.0
C1687 C 0.08368 0.30114 0.57968 0.0
C1688 C 0.10468 0.3434 0.51648 0.0
C1689 C 0.11557 0.36605 0.59188 0.0
N1690 N 0.08841 0.31476 0.56191 0.0
N1691 N 0.10701 0.35239 0.6099 0.0
H1692 H 0.04583 0.58581 0.69855 0.0
H1693 H 0.9643 0.5538 0.79288 0.0
H1694 H 0.0322 0.57957 0.87215 0.0
H1695 H 0.9768 0.5427 0.6366 0.0
H1696 H 0.98961 0.56973 0.81532 0.0
H1697 H 0.02094 0.57656 0.66932 0.0
C1698 C 0.03767 0.58282 0.73057 0.0
C1699 C 0.04107 0.58332 0.78791 0.0
C1700 C 0.98676 0.56396 0.77576 0.0
C1701 C 0.01265 0.57279 0.75465 0.0
C1702 C 0.97234 0.55492 0.76273 0.0
C1703 C 0.96843 0.54678 0.71303 0.0
C1704 C 0.99735 0.56503 0.73846 0.0
C1705 C 0.97933 0.54866 0.67565 0.0
C1706 C 0.02347 0.57746 0.71379 0.0
C1707 C 0.03003 0.57923 0.82751 0.0
N1708 N 0.99331 0.55754 0.68926 0.0
N1709 N 0.0163 0.57406 0.81013 0.0
H1710 H 0.43435 0.46175 0.87615 0.0
H1711 H 0.45874 0.41523 0.80719 0.0
H1712 H 0.41193 0.4497 0.71729 0.0
H1713 H 0.45542 0.42775 0.63775 0.0
H1714 H 0.44305 0.4241 0.83957 0.0
H1715 H 0.44402 0.44602 0.8561 0.0
C1716 C 0.43122 0.45556 0.83758 0.0
C1717 C 0.42236 0.45709 0.79826 0.0
C1718 C 0.44572 0.42485 0.7953 0.0
C1719 C 0.43337 0.43902 0.77499 0.0
C1720 C 0.45454 0.41964 0.77662 0.0
C1721 C 0.45861 0.42098 0.71977 0.0
C1722 C 0.44089 0.43138 0.75677 0.0
C1723 C 0.45275 0.4267 0.68208 0.0
C1724 C 0.43665 0.44648 0.82634 0.0
C1725 C 0.41869 0.44883 0.74887 0.0
N1726 N 0.44426 0.43178 0.70132 0.0
N1727 N 0.42446 0.44038 0.73811 0.0
H1728 H 0.55214 0.97499 0.88212 0.0
H1729 H 0.59615 0.04321 0.78286 0.0
H1730 H 0.55045 0.96052 0.71139 0.0
H1731 H 0.5752 0.025 0.62468 0.0
H1732 H 0.58821 0.01914 0.81813 0.0
H1733 H 0.56869 0.99934 0.85218 0.0
C1734 C 0.55554 0.97689 0.83853 0.0
C1735 C 0.54977 0.96569 0.79914 0.0
C1736 C 0.58533 0.02039 0.77574 0.0
C1737 C 0.56892 0.99368 0.76429 0.0
C1738 C 0.59002 0.03417 0.75527 0.0
C1739 C 0.58605 0.03614 0.70114 0.0
C1740 C 0.57651 0.00849 0.74195 0.0
C1741 C 0.57829 0.02401 0.66706 0.0
C1742 C 0.56513 0.99085 0.82143 0.0
C1743 C 0.55458 0.96881 0.74322 0.0
N1744 N 0.57363 0.01071 0.68828 0.0
N1745 N 0.56364 0.98256 0.72726 0.0
H1746 H 0.45589 0.04229 0.28759 0.0
H1747 H 0.41365 0.95926 0.2073 0.0
H1748 H 0.45378 0.02607 0.11958 0.0
H1749 H 0.42765 0.97531 0.37558 0.0
H1750 H 0.42217 0.98374 0.17513 0.0
H1751 H 0.43945 0.01791 0.31963 0.0
C1752 C 0.45174 0.03366 0.25713 0.0
C1753 C 0.45641 0.03621 0.20093 0.0
C1754 C 0.42314 0.98186 0.21927 0.0
C1755 C 0.43762 0.0083 0.23749 0.0
C1756 C 0.41822 0.96787 0.23778 0.0
C1757 C 0.42014 0.96524 0.29411 0.0
C1758 C 0.42993 0.99327 0.25741 0.0
C1759 C 0.42612 0.97685 0.33164 0.0
C1760 C 0.44241 0.01974 0.27558 0.0
C1761 C 0.45063 0.02459 0.16344 0.0
N1762 N 0.43094 0.99037 0.3125 0.0
N1763 N 0.44166 0.01112 0.1825 0.0
H1764 H 0.0336 0.4526 0.37448 0.0
H1765 H 0.97764 0.43512 0.13354 0.0
H1766 H 0.04632 0.46033 0.19995 0.0
H1767 H 0.96588 0.41187 0.29051 0.0
H1768 H 0.00288 0.44411 0.15593 0.0
H1769 H 0.00877 0.4371 0.34482 0.0
C1770 C 0.03121 0.45082 0.32993 0.0
C1771 C 0.04203 0.45785 0.28964 0.0
C1772 C 0.99476 0.43684 0.185 0.0
C1773 C 0.01362 0.44041 0.25544 0.0
C1774 C 0.98035 0.43174 0.17233 0.0
C1775 C 0.96964 0.42283 0.21044 0.0
C1776 C 0.99848 0.43326 0.23669 0.0
C1777 C 0.97378 0.41874 0.25996 0.0
C1778 C 0.01704 0.44197 0.31302 0.0
C1779 C 0.03832 0.45514 0.23245 0.0
N1780 N 0.98788 0.4242 0.27215 0.0
N1781 N 0.02438 0.44686 0.21703 0.0
H1782 H 0.5821 0.55155 0.13103 0.0
H1783 H 0.5435 0.56877 0.37223 0.0
H1784 H 0.58728 0.54396 0.30553 0.0
H1785 H 0.55465 0.59187 0.21492 0.0
H1786 H 0.5599 0.55997 0.34978 0.0
H1787 H 0.57266 0.56695 0.16071 0.0
C1788 C 0.58151 0.55335 0.17558 0.0
C1789 C 0.58538 0.54638 0.21586 0.0
C1790 C 0.55894 0.56716 0.32064 0.0
C1791 C 0.57428 0.5637 0.25009 0.0
C1792 C 0.54954 0.57215 0.33335 0.0
C1793 C 0.5476 0.58096 0.29516 0.0
C1794 C 0.5662 0.57076 0.26886 0.0
C1795 C 0.55578 0.58507 0.24553 0.0
C1796 C 0.57613 0.56214 0.1925 0.0
C1797 C 0.58441 0.54911 0.27304 0.0
N1798 N 0.56452 0.57972 0.23332 0.0
N1799 N 0.57868 0.55733 0.28849 0.0
loop_
_geom_bond_atom_site_label_1
_geom_bond_atom_site_label_2
_geom_bond_distance
_geom_bond_site_symmetry_2
_ccdc_geom_bond_type
O0 Cd1 2.223 . S
O0 C8 1.315 . S
Cd1 O0 2.223 . S
Cd1 O4 2.297 . S
Cd1 O5 2.439 . S
Cd1 O11 2.240 . S
Cd2 O3 2.240 . S
Cd2 O10 2.223 . S
Cd2 O12 2.297 . S
Cd2 O13 2.439 . S
O3 Cd2 2.240 . S
O3 C8 1.279 . S
O4 Cd1 2.297 . S
O4 C6 1.247 . S
O5 Cd1 2.439 . S
O5 C6 1.208 . S
C6 O4 1.247 . S
C6 O5 1.208 . S
C7 O12 1.247 . S
C7 O13 1.208 . S
C8 O0 1.315 . S
C8 O3 1.279 . S
C9 O10 1.315 . S
C9 O11 1.279 . S
O10 Cd2 2.223 . S
O10 C9 1.315 . S
O11 Cd1 2.240 . S
O11 C9 1.279 . S
O12 Cd2 2.297 . S
O12 C7 1.247 . S
O13 Cd2 2.439 . S
O13 C7 1.208 . S
O14 Cd15 2.223 . S
O14 C22 1.315 . S
Cd15 O14 2.223 . S
Cd15 O18 2.297 . S
Cd15 O19 2.439 . S
Cd15 O25 2.240 . S
Cd16 O17 2.240 . S
Cd16 O24 2.223 . S
Cd16 O26 2.297 . S
Cd16 O27 2.439 . S
O17 Cd16 2.240 . S
O17 C22 1.279 . S
O18 Cd15 2.297 . S
O18 C20 1.247 . S
O19 Cd15 2.439 . S
O19 C20 1.208 . S
C20 O18 1.247 . S
C20 O19 1.208 . S
C21 O26 1.247 . S
C21 O27 1.208 . S
C22 O14 1.315 . S
C22 O17 1.279 . S
C23 O24 1.315 . S
C23 O25 1.279 . S
O24 Cd16 2.223 . S
O24 C23 1.315 . S
O25 Cd15 2.240 . S
O25 C23 1.279 . S
O26 Cd16 2.297 . S
O26 C21 1.247 . S
O27 Cd16 2.439 . S
O27 C21 1.208 . S
O28 Cd29 2.223 . S
O28 C36 1.315 . S
Cd29 O28 2.223 . S
Cd29 O32 2.297 . S
Cd29 O33 2.439 . S
Cd29 O39 2.240 . S
Cd30 O31 2.240 . S
Cd30 O38 2.223 . S
Cd30 O40 2.297 . S
Cd30 O41 2.439 . S
O31 Cd30 2.240 . S
O31 C36 1.279 . S
O32 Cd29 2.297 . S
O32 C34 1.247 . S
O33 Cd29 2.439 . S
O33 C34 1.208 . S
C34 O32 1.247 . S
C34 O33 1.208 . S
C35 O40 1.247 . S
C35 O41 1.208 . S
C36 O28 1.315 . S
C36 O31 1.279 . S
C37 O38 1.315 . S
C37 O39 1.279 . S
O38 Cd30 2.223 . S
O38 C37 1.315 . S
O39 Cd29 2.240 . S
O39 C37 1.279 . S
O40 Cd30 2.297 . S
O40 C35 1.247 . S
O41 Cd30 2.439 . S
O41 C35 1.208 . S
O42 Cd43 2.223 . S
O42 C50 1.315 . S
Cd43 O42 2.223 . S
Cd43 O46 2.297 . S
Cd43 O47 2.439 . S
Cd43 O53 2.240 . S
Cd44 O45 2.240 . S
Cd44 O52 2.223 . S
Cd44 O54 2.297 . S
Cd44 O55 2.439 . S
O45 Cd44 2.240 . S
O45 C50 1.279 . S
O46 Cd43 2.297 . S
O46 C48 1.247 . S
O47 Cd43 2.439 . S
O47 C48 1.208 . S
C48 O46 1.247 . S
C48 O47 1.208 . S
C49 O54 1.247 . S
C49 O55 1.208 . S
C50 O42 1.315 . S
C50 O45 1.279 . S
C51 O52 1.315 . S
C51 O53 1.279 . S
O52 Cd44 2.223 . S
O52 C51 1.315 . S
O53 Cd43 2.240 . S
O53 C51 1.279 . S
O54 Cd44 2.297 . S
O54 C49 1.247 . S
O55 Cd44 2.439 . S
O55 C49 1.208 . S
O56 Cd57 2.223 . S
O56 C64 1.315 . S
Cd57 O56 2.223 . S
Cd57 O60 2.297 . S
Cd57 O61 2.439 . S
Cd57 O67 2.240 . S
Cd58 O59 2.240 . S
Cd58 O66 2.223 . S
Cd58 O68 2.297 . S
Cd58 O69 2.439 . S
O59 Cd58 2.240 . S
O59 C64 1.279 . S
O60 Cd57 2.297 . S
O60 C62 1.247 . S
O61 Cd57 2.439 . S
O61 C62 1.208 . S
C62 O60 1.247 . S
C62 O61 1.208 . S
C63 O68 1.247 . S
C63 O69 1.208 . S
C64 O56 1.315 . S
C64 O59 1.279 . S
C65 O66 1.315 . S
C65 O67 1.279 . S
O66 Cd58 2.223 . S
O66 C65 1.315 . S
O67 Cd57 2.240 . S
O67 C65 1.279 . S
O68 Cd58 2.297 . S
O68 C63 1.247 . S
O69 Cd58 2.439 . S
O69 C63 1.208 . S
O70 Cd71 2.223 . S
O70 C78 1.315 . S
Cd71 O70 2.223 . S
Cd71 O74 2.297 . S
Cd71 O75 2.439 . S
Cd71 O81 2.240 . S
Cd72 O73 2.240 . S
Cd72 O80 2.223 . S
Cd72 O82 2.297 . S
Cd72 O83 2.439 . S
O73 Cd72 2.240 . S
O73 C78 1.279 . S
O74 Cd71 2.297 . S
O74 C76 1.247 . S
O75 Cd71 2.439 . S
O75 C76 1.208 . S
C76 O74 1.247 . S
C76 O75 1.208 . S
C77 O82 1.247 . S
C77 O83 1.208 . S
C78 O70 1.315 . S
C78 O73 1.279 . S
C79 O80 1.315 . S
C79 O81 1.279 . S
O80 Cd72 2.223 . S
O80 C79 1.315 . S
O81 Cd71 2.240 . S
O81 C79 1.279 . S
O82 Cd72 2.297 . S
O82 C77 1.247 . S
O83 Cd72 2.439 . S
O83 C77 1.208 . S
O84 Cd85 2.223 . S
O84 C92 1.315 . S
Cd85 O84 2.223 . S
Cd85 O88 2.297 . S
Cd85 O89 2.439 . S
Cd85 O95 2.240 . S
Cd86 O87 2.240 . S
Cd86 O94 2.223 . S
Cd86 O96 2.297 . S
Cd86 O97 2.439 . S
O87 Cd86 2.240 . S
O87 C92 1.279 . S
O88 Cd85 2.297 . S
O88 C90 1.247 . S
O89 Cd85 2.439 . S
O89 C90 1.208 . S
C90 O88 1.247 . S
C90 O89 1.208 . S
C91 O96 1.247 . S
C91 O97 1.208 . S
C92 O84 1.315 . S
C92 O87 1.279 . S
C93 O94 1.315 . S
C93 O95 1.279 . S
O94 Cd86 2.223 . S
O94 C93 1.315 . S
O95 Cd85 2.240 . S
O95 C93 1.279 . S
O96 Cd86 2.297 . S
O96 C91 1.247 . S
O97 Cd86 2.439 . S
O97 C91 1.208 . S
O98 Cd99 2.223 . S
O98 C106 1.315 . S
Cd99 O98 2.223 . S
Cd99 O102 2.297 . S
Cd99 O103 2.439 . S
Cd99 O109 2.240 . S
Cd100 O101 2.240 . S
Cd100 O108 2.223 . S
Cd100 O110 2.297 . S
Cd100 O111 2.439 . S
O101 Cd100 2.240 . S
O101 C106 1.279 . S
O102 Cd99 2.297 . S
O102 C104 1.247 . S
O103 Cd99 2.439 . S
O103 C104 1.208 . S
C104 O102 1.247 . S
C104 O103 1.208 . S
C105 O110 1.247 . S
C105 O111 1.208 . S
C106 O98 1.315 . S
C106 O101 1.279 . S
C107 O108 1.315 . S
C107 O109 1.279 . S
O108 Cd100 2.223 . S
O108 C107 1.315 . S
O109 Cd99 2.240 . S
O109 C107 1.279 . S
O110 Cd100 2.297 . S
O110 C105 1.247 . S
O111 Cd100 2.439 . S
O111 C105 1.208 . S
O112 Cd113 2.223 . S
O112 C120 1.315 . S
Cd113 O112 2.223 . S
Cd113 O116 2.297 . S
Cd113 O117 2.439 . S
Cd113 O123 2.240 . S
Cd114 O115 2.240 . S
Cd114 O122 2.223 . S
Cd114 O124 2.297 . S
Cd114 O125 2.439 . S
O115 Cd114 2.240 . S
O115 C120 1.279 . S
O116 Cd113 2.297 . S
O116 C118 1.247 . S
O117 Cd113 2.439 . S
O117 C118 1.208 . S
C118 O116 1.247 . S
C118 O117 1.208 . S
C119 O124 1.247 . S
C119 O125 1.208 . S
C120 O112 1.315 . S
C120 O115 1.279 . S
C121 O122 1.315 . S
C121 O123 1.279 . S
O122 Cd114 2.223 . S
O122 C121 1.315 . S
O123 Cd113 2.240 . S
O123 C121 1.279 . S
O124 Cd114 2.297 . S
O124 C119 1.247 . S
O125 Cd114 2.439 . S
O125 C119 1.208 . S
O126 Cd127 2.223 . S
O126 C134 1.315 . S
Cd127 O126 2.223 . S
Cd127 O130 2.297 . S
Cd127 O131 2.439 . S
Cd127 O137 2.240 . S
Cd128 O129 2.240 . S
Cd128 O136 2.223 . S
Cd128 O138 2.297 . S
Cd128 O139 2.439 . S
O129 Cd128 2.240 . S
O129 C134 1.279 . S
O130 Cd127 2.297 . S
O130 C132 1.247 . S
O131 Cd127 2.439 . S
O131 C132 1.208 . S
C132 O130 1.247 . S
C132 O131 1.208 . S
C133 O138 1.247 . S
C133 O139 1.208 . S
C134 O126 1.315 . S
C134 O129 1.279 . S
C135 O136 1.315 . S
C135 O137 1.279 . S
O136 Cd128 2.223 . S
O136 C135 1.315 . S
O137 Cd127 2.240 . S
O137 C135 1.279 . S
O138 Cd128 2.297 . S
O138 C133 1.247 . S
O139 Cd128 2.439 . S
O139 C133 1.208 . S
O140 Cd141 2.223 . S
O140 C148 1.315 . S
Cd141 O140 2.223 . S
Cd141 O144 2.297 . S
Cd141 O145 2.439 . S
Cd141 O151 2.240 . S
Cd142 O143 2.240 . S
Cd142 O150 2.223 . S
Cd142 O152 2.297 . S
Cd142 O153 2.439 . S
O143 Cd142 2.240 . S
O143 C148 1.279 . S
O144 Cd141 2.297 . S
O144 C146 1.247 . S
O145 Cd141 2.439 . S
O145 C146 1.208 . S
C146 O144 1.247 . S
C146 O145 1.208 . S
C147 O152 1.247 . S
C147 O153 1.208 . S
C148 O140 1.315 . S
C148 O143 1.279 . S
C149 O150 1.315 . S
C149 O151 1.279 . S
O150 Cd142 2.223 . S
O150 C149 1.315 . S
O151 Cd141 2.240 . S
O151 C149 1.279 . S
O152 Cd142 2.297 . S
O152 C147 1.247 . S
O153 Cd142 2.439 . S
O153 C147 1.208 . S
O154 Cd155 2.223 . S
O154 C162 1.315 . S
Cd155 O154 2.223 . S
Cd155 O158 2.297 . S
Cd155 O159 2.439 . S
Cd155 O165 2.240 . S
Cd156 O157 2.240 . S
Cd156 O164 2.223 . S
Cd156 O166 2.297 . S
Cd156 O167 2.439 . S
O157 Cd156 2.240 . S
O157 C162 1.279 . S
O158 Cd155 2.297 . S
O158 C160 1.247 . S
O159 Cd155 2.439 . S
O159 C160 1.208 . S
C160 O158 1.247 . S
C160 O159 1.208 . S
C161 O166 1.247 . S
C161 O167 1.208 . S
C162 O154 1.315 . S
C162 O157 1.279 . S
C163 O164 1.315 . S
C163 O165 1.279 . S
O164 Cd156 2.223 . S
O164 C163 1.315 . S
O165 Cd155 2.240 . S
O165 C163 1.279 . S
O166 Cd156 2.297 . S
O166 C161 1.247 . S
O167 Cd156 2.439 . S
O167 C161 1.208 . S
O168 Cd169 2.223 . S
O168 C176 1.315 . S
Cd169 O168 2.223 . S
Cd169 O172 2.297 . S
Cd169 O173 2.439 . S
Cd169 O179 2.240 . S
Cd170 O171 2.240 . S
Cd170 O178 2.223 . S
Cd170 O180 2.297 . S
Cd170 O181 2.439 . S
O171 Cd170 2.240 . S
O171 C176 1.279 . S
O172 Cd169 2.297 . S
O172 C174 1.247 . S
O173 Cd169 2.439 . S
O173 C174 1.208 . S
C174 O172 1.247 . S
C174 O173 1.208 . S
C175 O180 1.247 . S
C175 O181 1.208 . S
C176 O168 1.315 . S
C176 O171 1.279 . S
C177 O178 1.315 . S
C177 O179 1.279 . S
O178 Cd170 2.223 . S
O178 C177 1.315 . S
O179 Cd169 2.240 . S
O179 C177 1.279 . S
O180 Cd170 2.297 . S
O180 C175 1.247 . S
O181 Cd170 2.439 . S
O181 C175 1.208 . S
O182 Cd183 2.223 . S
O182 C190 1.315 . S
Cd183 O182 2.223 . S
Cd183 O186 2.297 . S
Cd183 O187 2.439 . S
Cd183 O193 2.240 . S
Cd184 O185 2.240 . S
Cd184 O192 2.223 . S
Cd184 O194 2.297 . S
Cd184 O195 2.439 . S
O185 Cd184 2.240 . S
O185 C190 1.279 . S
O186 Cd183 2.297 . S
O186 C188 1.247 . S
O187 Cd183 2.439 . S
O187 C188 1.208 . S
C188 O186 1.247 . S
C188 O187 1.208 . S
C189 O194 1.247 . S
C189 O195 1.208 . S
C190 O182 1.315 . S
C190 O185 1.279 . S
C191 O192 1.315 . S
C191 O193 1.279 . S
O192 Cd184 2.223 . S
O192 C191 1.315 . S
O193 Cd183 2.240 . S
O193 C191 1.279 . S
O194 Cd184 2.297 . S
O194 C189 1.247 . S
O195 Cd184 2.439 . S
O195 C189 1.208 . S
O196 Cd197 2.223 . S
O196 C204 1.315 . S
Cd197 O196 2.223 . S
Cd197 O200 2.297 . S
Cd197 O201 2.439 . S
Cd197 O207 2.240 . S
Cd198 O199 2.240 . S
Cd198 O206 2.223 . S
Cd198 O208 2.297 . S
Cd198 O209 2.439 . S
O199 Cd198 2.240 . S
O199 C204 1.279 . S
O200 Cd197 2.297 . S
O200 C202 1.247 . S
O201 Cd197 2.439 . S
O201 C202 1.208 . S
C202 O200 1.247 . S
C202 O201 1.208 . S
C203 O208 1.247 . S
C203 O209 1.208 . S
C204 O196 1.315 . S
C204 O199 1.279 . S
C205 O206 1.315 . S
C205 O207 1.279 . S
O206 Cd198 2.223 . S
O206 C205 1.315 . S
O207 Cd197 2.240 . S
O207 C205 1.279 . S
O208 Cd198 2.297 . S
O208 C203 1.247 . S
O209 Cd198 2.439 . S
O209 C203 1.208 . S
O210 Cd211 2.223 . S
O210 C218 1.315 . S
Cd211 O210 2.223 . S
Cd211 O214 2.297 . S
Cd211 O215 2.439 . S
Cd211 O221 2.240 . S
Cd212 O213 2.240 . S
Cd212 O220 2.223 . S
Cd212 O222 2.297 . S
Cd212 O223 2.439 . S
O213 Cd212 2.240 . S
O213 C218 1.279 . S
O214 Cd211 2.297 . S
O214 C216 1.247 . S
O215 Cd211 2.439 . S
O215 C216 1.208 . S
C216 O214 1.247 . S
C216 O215 1.208 . S
C217 O222 1.247 . S
C217 O223 1.208 . S
C218 O210 1.315 . S
C218 O213 1.279 . S
C219 O220 1.315 . S
C219 O221 1.279 . S
O220 Cd212 2.223 . S
O220 C219 1.315 . S
O221 Cd211 2.240 . S
O221 C219 1.279 . S
O222 Cd212 2.297 . S
O222 C217 1.247 . S
O223 Cd212 2.439 . S
O223 C217 1.208 . S
O224 Cd225 2.223 . S
O224 C232 1.315 . S
Cd225 O224 2.223 . S
Cd225 O228 2.297 . S
Cd225 O229 2.439 . S
Cd225 O235 2.240 . S
Cd226 O227 2.240 . S
Cd226 O234 2.223 . S
Cd226 O236 2.297 . S
Cd226 O237 2.439 . S
O227 Cd226 2.240 . S
O227 C232 1.279 . S
O228 Cd225 2.297 . S
O228 C230 1.247 . S
O229 Cd225 2.439 . S
O229 C230 1.208 . S
C230 O228 1.247 . S
C230 O229 1.208 . S
C231 O236 1.247 . S
C231 O237 1.208 . S
C232 O224 1.315 . S
C232 O227 1.279 . S
C233 O234 1.315 . S
C233 O235 1.279 . S
O234 Cd226 2.223 . S
O234 C233 1.315 . S
O235 Cd225 2.240 . S
O235 C233 1.279 . S
O236 Cd226 2.297 . S
O236 C231 1.247 . S
O237 Cd226 2.439 . S
O237 C231 1.208 . S
O238 Cd239 2.223 . S
O238 C246 1.315 . S
Cd239 O238 2.223 . S
Cd239 O242 2.297 . S
Cd239 O243 2.439 . S
Cd239 O249 2.240 . S
Cd240 O241 2.240 . S
Cd240 O248 2.223 . S
Cd240 O250 2.297 . S
Cd240 O251 2.439 . S
O241 Cd240 2.240 . S
O241 C246 1.279 . S
O242 Cd239 2.297 . S
O242 C244 1.247 . S
O243 Cd239 2.439 . S
O243 C244 1.208 . S
C244 O242 1.247 . S
C244 O243 1.208 . S
C245 O250 1.247 . S
C245 O251 1.208 . S
C246 O238 1.315 . S
C246 O241 1.279 . S
C247 O248 1.315 . S
C247 O249 1.279 . S
O248 Cd240 2.223 . S
O248 C247 1.315 . S
O249 Cd239 2.240 . S
O249 C247 1.279 . S
O250 Cd240 2.297 . S
O250 C245 1.247 . S
O251 Cd240 2.439 . S
O251 C245 1.208 . S
O252 Cd253 2.223 . S
O252 C260 1.315 . S
Cd253 O252 2.223 . S
Cd253 O256 2.297 . S
Cd253 O257 2.439 . S
Cd253 O263 2.240 . S
Cd254 O255 2.240 . S
Cd254 O262 2.223 . S
Cd254 O264 2.297 1_554 S
Cd254 O265 2.439 1_554 S
O255 Cd254 2.240 . S
O255 C260 1.279 . S
O256 Cd253 2.297 . S
O256 C258 1.247 . S
O257 Cd253 2.439 . S
O257 C258 1.208 . S
C258 O256 1.247 . S
C258 O257 1.208 . S
C259 O264 1.247 . S
C259 O265 1.208 . S
C260 O252 1.315 . S
C260 O255 1.279 . S
C261 O262 1.315 . S
C261 O263 1.279 . S
O262 Cd254 2.223 . S
O262 C261 1.315 . S
O263 Cd253 2.240 . S
O263 C261 1.279 . S
O264 Cd254 2.297 1_556 S
O264 C259 1.247 . S
O265 Cd254 2.439 1_556 S
O265 C259 1.208 . S
O266 Cd267 2.223 . S
O266 C274 1.315 . S
Cd267 O266 2.223 . S
Cd267 O270 2.297 . S
Cd267 O271 2.439 . S
Cd267 O277 2.240 . S
Cd268 O269 2.240 . S
Cd268 O276 2.223 . S
Cd268 O278 2.297 1_554 S
Cd268 O279 2.439 1_554 S
O269 Cd268 2.240 . S
O269 C274 1.279 . S
O270 Cd267 2.297 . S
O270 C272 1.247 . S
O271 Cd267 2.439 . S
O271 C272 1.208 . S
C272 O270 1.247 . S
C272 O271 1.208 . S
C273 O278 1.247 . S
C273 O279 1.208 . S
C274 O266 1.315 . S
C274 O269 1.279 . S
C275 O276 1.315 . S
C275 O277 1.279 . S
O276 Cd268 2.223 . S
O276 C275 1.315 . S
O277 Cd267 2.240 . S
O277 C275 1.279 . S
O278 Cd268 2.297 1_556 S
O278 C273 1.247 . S
O279 Cd268 2.439 1_556 S
O279 C273 1.208 . S
O280 Cd281 2.223 . S
O280 C288 1.315 . S
Cd281 O280 2.223 . S
Cd281 O284 2.297 . S
Cd281 O285 2.439 . S
Cd281 O291 2.240 . S
Cd282 O283 2.240 . S
Cd282 O290 2.223 . S
Cd282 O292 2.297 1_554 S
Cd282 O293 2.439 1_554 S
O283 Cd282 2.240 . S
O283 C288 1.279 . S
O284 Cd281 2.297 . S
O284 C286 1.247 . S
O285 Cd281 2.439 . S
O285 C286 1.208 . S
C286 O284 1.247 . S
C286 O285 1.208 . S
C287 O292 1.247 . S
C287 O293 1.208 . S
C288 O280 1.315 . S
C288 O283 1.279 . S
C289 O290 1.315 . S
C289 O291 1.279 . S
O290 Cd282 2.223 . S
O290 C289 1.315 . S
O291 Cd281 2.240 . S
O291 C289 1.279 . S
O292 Cd282 2.297 1_556 S
O292 C287 1.247 . S
O293 Cd282 2.439 1_556 S
O293 C287 1.208 . S
O294 Cd295 2.223 1_556 S
O294 C302 1.315 1_556 S
Cd295 O294 2.223 1_554 S
Cd295 O298 2.297 . S
Cd295 O299 2.439 . S
Cd295 O305 2.240 . S
Cd296 O297 2.240 . S
Cd296 O304 2.223 . S
Cd296 O306 2.297 . S
Cd296 O307 2.439 . S
O297 Cd296 2.240 . S
O297 C302 1.279 . S
O298 Cd295 2.297 . S
O298 C300 1.247 . S
O299 Cd295 2.439 . S
O299 C300 1.208 . S
C300 O298 1.247 . S
C300 O299 1.208 . S
C301 O306 1.247 . S
C301 O307 1.208 . S
C302 O294 1.315 1_554 S
C302 O297 1.279 . S
C303 O304 1.315 . S
C303 O305 1.279 . S
O304 Cd296 2.223 . S
O304 C303 1.315 . S
O305 Cd295 2.240 . S
O305 C303 1.279 . S
O306 Cd296 2.297 . S
O306 C301 1.247 . S
O307 Cd296 2.439 . S
O307 C301 1.208 . S
O308 Cd309 2.223 1_556 S
O308 C316 1.315 1_556 S
Cd309 O308 2.223 1_554 S
Cd309 O312 2.297 . S
Cd309 O313 2.439 . S
Cd309 O319 2.240 . S
Cd310 O311 2.240 . S
Cd310 O318 2.223 . S
Cd310 O320 2.297 . S
Cd310 O321 2.439 . S
O311 Cd310 2.240 . S
O311 C316 1.279 . S
O312 Cd309 2.297 . S
O312 C314 1.247 . S
O313 Cd309 2.439 . S
O313 C314 1.208 . S
C314 O312 1.247 . S
C314 O313 1.208 . S
C315 O320 1.247 . S
C315 O321 1.208 . S
C316 O308 1.315 1_554 S
C316 O311 1.279 . S
C317 O318 1.315 . S
C317 O319 1.279 . S
O318 Cd310 2.223 . S
O318 C317 1.315 . S
O319 Cd309 2.240 . S
O319 C317 1.279 . S
O320 Cd310 2.297 . S
O320 C315 1.247 . S
O321 Cd310 2.439 . S
O321 C315 1.208 . S
O322 Cd323 2.223 1_556 S
O322 C330 1.315 1_556 S
Cd323 O322 2.223 1_554 S
Cd323 O326 2.297 . S
Cd323 O327 2.439 . S
Cd323 O333 2.240 . S
Cd324 O325 2.240 . S
Cd324 O332 2.223 . S
Cd324 O334 2.297 . S
Cd324 O335 2.439 . S
O325 Cd324 2.240 . S
O325 C330 1.279 . S
O326 Cd323 2.297 . S
O326 C328 1.247 . S
O327 Cd323 2.439 . S
O327 C328 1.208 . S
C328 O326 1.247 . S
C328 O327 1.208 . S
C329 O334 1.247 . S
C329 O335 1.208 . S
C330 O322 1.315 1_554 S
C330 O325 1.279 . S
C331 O332 1.315 . S
C331 O333 1.279 . S
O332 Cd324 2.223 . S
O332 C331 1.315 . S
O333 Cd323 2.240 . S
O333 C331 1.279 . S
O334 Cd324 2.297 . S
O334 C329 1.247 . S
O335 Cd324 2.439 . S
O335 C329 1.208 . S
O336 Cd337 2.223 . S
O336 C344 1.315 . S
Cd337 O336 2.223 . S
Cd337 O340 2.297 . S
Cd337 O341 2.439 . S
Cd337 O347 2.240 . S
Cd338 O339 2.240 . S
Cd338 O346 2.223 . S
Cd338 O348 2.297 1_556 S
Cd338 O349 2.439 1_556 S
O339 Cd338 2.240 . S
O339 C344 1.279 . S
O340 Cd337 2.297 . S
O340 C342 1.247 . S
O341 Cd337 2.439 . S
O341 C342 1.208 . S
C342 O340 1.247 . S
C342 O341 1.208 . S
C343 O348 1.247 . S
C343 O349 1.208 . S
C344 O336 1.315 . S
C344 O339 1.279 . S
C345 O346 1.315 . S
C345 O347 1.279 . S
O346 Cd338 2.223 . S
O346 C345 1.315 . S
O347 Cd337 2.240 . S
O347 C345 1.279 . S
O348 Cd338 2.297 1_554 S
O348 C343 1.247 . S
O349 Cd338 2.439 1_554 S
O349 C343 1.208 . S
O350 Cd351 2.223 . S
O350 C358 1.315 . S
Cd351 O350 2.223 . S
Cd351 O354 2.297 . S
Cd351 O355 2.439 . S
Cd351 O361 2.240 . S
Cd352 O353 2.240 . S
Cd352 O360 2.223 . S
Cd352 O362 2.297 1_556 S
Cd352 O363 2.439 1_556 S
O353 Cd352 2.240 . S
O353 C358 1.279 . S
O354 Cd351 2.297 . S
O354 C356 1.247 . S
O355 Cd351 2.439 . S
O355 C356 1.208 . S
C356 O354 1.247 . S
C356 O355 1.208 . S
C357 O362 1.247 . S
C357 O363 1.208 . S
C358 O350 1.315 . S
C358 O353 1.279 . S
C359 O360 1.315 . S
C359 O361 1.279 . S
O360 Cd352 2.223 . S
O360 C359 1.315 . S
O361 Cd351 2.240 . S
O361 C359 1.279 . S
O362 Cd352 2.297 1_554 S
O362 C357 1.247 . S
O363 Cd352 2.439 1_554 S
O363 C357 1.208 . S
O364 Cd365 2.223 . S
O364 C372 1.315 . S
Cd365 O364 2.223 . S
Cd365 O368 2.297 . S
Cd365 O369 2.439 . S
Cd365 O375 2.240 . S
Cd366 O367 2.240 . S
Cd366 O374 2.223 . S
Cd366 O376 2.297 1_556 S
Cd366 O377 2.439 1_556 S
O367 Cd366 2.240 . S
O367 C372 1.279 . S
O368 Cd365 2.297 . S
O368 C370 1.247 . S
O369 Cd365 2.439 . S
O369 C370 1.208 . S
C370 O368 1.247 . S
C370 O369 1.208 . S
C371 O376 1.247 . S
C371 O377 1.208 . S
C372 O364 1.315 . S
C372 O367 1.279 . S
C373 O374 1.315 . S
C373 O375 1.279 . S
O374 Cd366 2.223 . S
O374 C373 1.315 . S
O375 Cd365 2.240 . S
O375 C373 1.279 . S
O376 Cd366 2.297 1_554 S
O376 C371 1.247 . S
O377 Cd366 2.439 1_554 S
O377 C371 1.208 . S
O378 Cd379 2.223 1_554 S
O378 C386 1.315 1_554 S
Cd379 O378 2.223 1_556 S
Cd379 O382 2.297 . S
Cd379 O383 2.439 . S
Cd379 O389 2.240 . S
Cd380 O381 2.240 . S
Cd380 O388 2.223 . S
Cd380 O390 2.297 . S
Cd380 O391 2.439 . S
O381 Cd380 2.240 . S
O381 C386 1.279 . S
O382 Cd379 2.297 . S
O382 C384 1.247 . S
O383 Cd379 2.439 . S
O383 C384 1.208 . S
C384 O382 1.247 . S
C384 O383 1.208 . S
C385 O390 1.247 . S
C385 O391 1.208 . S
C386 O378 1.315 1_556 S
C386 O381 1.279 . S
C387 O388 1.315 . S
C387 O389 1.279 . S
O388 Cd380 2.223 . S
O388 C387 1.315 . S
O389 Cd379 2.240 . S
O389 C387 1.279 . S
O390 Cd380 2.297 . S
O390 C385 1.247 . S
O391 Cd380 2.439 . S
O391 C385 1.208 . S
O392 Cd393 2.223 1_554 S
O392 C400 1.315 1_554 S
Cd393 O392 2.223 1_556 S
Cd393 O396 2.297 . S
Cd393 O397 2.439 . S
Cd393 O403 2.240 . S
Cd394 O395 2.240 . S
Cd394 O402 2.223 . S
Cd394 O404 2.297 . S
Cd394 O405 2.439 . S
O395 Cd394 2.240 . S
O395 C400 1.279 . S
O396 Cd393 2.297 . S
O396 C398 1.247 . S
O397 Cd393 2.439 . S
O397 C398 1.208 . S
C398 O396 1.247 . S
C398 O397 1.208 . S
C399 O404 1.247 . S
C399 O405 1.208 . S
C400 O392 1.315 1_556 S
C400 O395 1.279 . S
C401 O402 1.315 . S
C401 O403 1.279 . S
O402 Cd394 2.223 . S
O402 C401 1.315 . S
O403 Cd393 2.240 . S
O403 C401 1.279 . S
O404 Cd394 2.297 . S
O404 C399 1.247 . S
O405 Cd394 2.439 . S
O405 C399 1.208 . S
O406 Cd407 2.223 1_554 S
O406 C414 1.315 1_554 S
Cd407 O406 2.223 1_556 S
Cd407 O410 2.297 . S
Cd407 O411 2.439 . S
Cd407 O417 2.240 . S
Cd408 O409 2.240 . S
Cd408 O416 2.223 . S
Cd408 O418 2.297 . S
Cd408 O419 2.439 . S
O409 Cd408 2.240 . S
O409 C414 1.279 . S
O410 Cd407 2.297 . S
O410 C412 1.247 . S
O411 Cd407 2.439 . S
O411 C412 1.208 . S
C412 O410 1.247 . S
C412 O411 1.208 . S
C413 O418 1.247 . S
C413 O419 1.208 . S
C414 O406 1.315 1_556 S
C414 O409 1.279 . S
C415 O416 1.315 . S
C415 O417 1.279 . S
O416 Cd408 2.223 . S
O416 C415 1.315 . S
O417 Cd407 2.240 . S
O417 C415 1.279 . S
O418 Cd408 2.297 . S
O418 C413 1.247 . S
O419 Cd408 2.439 . S
O419 C413 1.208 . S
O420 Cd421 2.223 . S
O420 C428 1.315 . S
Cd421 O420 2.223 . S
Cd421 O424 2.297 . S
Cd421 O425 2.439 . S
Cd421 O431 2.240 . S
Cd422 O423 2.240 . S
Cd422 O430 2.223 . S
Cd422 O432 2.297 . S
Cd422 O433 2.439 . S
O423 Cd422 2.240 . S
O423 C428 1.279 . S
O424 Cd421 2.297 . S
O424 C426 1.247 . S
O425 Cd421 2.439 . S
O425 C426 1.208 . S
C426 O424 1.247 . S
C426 O425 1.208 . S
C427 O432 1.247 . S
C427 O433 1.208 . S
C428 O420 1.315 . S
C428 O423 1.279 . S
C429 O430 1.315 . S
C429 O431 1.279 . S
O430 Cd422 2.223 . S
O430 C429 1.315 . S
O431 Cd421 2.240 . S
O431 C429 1.279 . S
O432 Cd422 2.297 . S
O432 C427 1.247 . S
O433 Cd422 2.439 . S
O433 C427 1.208 . S
O434 Cd435 2.223 . S
O434 C442 1.315 . S
Cd435 O434 2.223 . S
Cd435 O438 2.297 . S
Cd435 O439 2.439 . S
Cd435 O445 2.240 . S
Cd436 O437 2.240 . S
Cd436 O444 2.223 . S
Cd436 O446 2.297 . S
Cd436 O447 2.439 . S
O437 Cd436 2.240 . S
O437 C442 1.279 . S
O438 Cd435 2.297 . S
O438 C440 1.247 . S
O439 Cd435 2.439 . S
O439 C440 1.208 . S
C440 O438 1.247 . S
C440 O439 1.208 . S
C441 O446 1.247 . S
C441 O447 1.208 . S
C442 O434 1.315 . S
C442 O437 1.279 . S
C443 O444 1.315 . S
C443 O445 1.279 . S
O444 Cd436 2.223 . S
O444 C443 1.315 . S
O445 Cd435 2.240 . S
O445 C443 1.279 . S
O446 Cd436 2.297 . S
O446 C441 1.247 . S
O447 Cd436 2.439 . S
O447 C441 1.208 . S
O448 Cd449 2.223 . S
O448 C456 1.315 . S
Cd449 O448 2.223 . S
Cd449 O452 2.297 . S
Cd449 O453 2.439 . S
Cd449 O459 2.240 . S
Cd450 O451 2.240 . S
Cd450 O458 2.223 . S
Cd450 O460 2.297 . S
Cd450 O461 2.439 . S
O451 Cd450 2.240 . S
O451 C456 1.279 . S
O452 Cd449 2.297 . S
O452 C454 1.247 . S
O453 Cd449 2.439 . S
O453 C454 1.208 . S
C454 O452 1.247 . S
C454 O453 1.208 . S
C455 O460 1.247 . S
C455 O461 1.208 . S
C456 O448 1.315 . S
C456 O451 1.279 . S
C457 O458 1.315 . S
C457 O459 1.279 . S
O458 Cd450 2.223 . S
O458 C457 1.315 . S
O459 Cd449 2.240 . S
O459 C457 1.279 . S
O460 Cd450 2.297 . S
O460 C455 1.247 . S
O461 Cd450 2.439 . S
O461 C455 1.208 . S
O462 Cd463 2.223 . S
O462 C470 1.315 . S
Cd463 O462 2.223 . S
Cd463 O466 2.297 . S
Cd463 O467 2.439 . S
Cd463 O473 2.240 . S
Cd464 O465 2.240 . S
Cd464 O472 2.223 . S
Cd464 O474 2.297 . S
Cd464 O475 2.439 . S
O465 Cd464 2.240 . S
O465 C470 1.279 . S
O466 Cd463 2.297 . S
O466 C468 1.247 . S
O467 Cd463 2.439 . S
O467 C468 1.208 . S
C468 O466 1.247 . S
C468 O467 1.208 . S
C469 O474 1.247 . S
C469 O475 1.208 . S
C470 O462 1.315 . S
C470 O465 1.279 . S
C471 O472 1.315 . S
C471 O473 1.279 . S
O472 Cd464 2.223 . S
O472 C471 1.315 . S
O473 Cd463 2.240 . S
O473 C471 1.279 . S
O474 Cd464 2.297 . S
O474 C469 1.247 . S
O475 Cd464 2.439 . S
O475 C469 1.208 . S
O476 Cd477 2.223 . S
O476 C484 1.315 . S
Cd477 O476 2.223 . S
Cd477 O480 2.297 . S
Cd477 O481 2.439 . S
Cd477 O487 2.240 . S
Cd478 O479 2.240 . S
Cd478 O486 2.223 . S
Cd478 O488 2.297 . S
Cd478 O489 2.439 . S
O479 Cd478 2.240 . S
O479 C484 1.279 . S
O480 Cd477 2.297 . S
O480 C482 1.247 . S
O481 Cd477 2.439 . S
O481 C482 1.208 . S
C482 O480 1.247 . S
C482 O481 1.208 . S
C483 O488 1.247 . S
C483 O489 1.208 . S
C484 O476 1.315 . S
C484 O479 1.279 . S
C485 O486 1.315 . S
C485 O487 1.279 . S
O486 Cd478 2.223 . S
O486 C485 1.315 . S
O487 Cd477 2.240 . S
O487 C485 1.279 . S
O488 Cd478 2.297 . S
O488 C483 1.247 . S
O489 Cd478 2.439 . S
O489 C483 1.208 . S
O490 Cd491 2.223 . S
O490 C498 1.315 . S
Cd491 O490 2.223 . S
Cd491 O494 2.297 . S
Cd491 O495 2.439 . S
Cd491 O501 2.240 . S
Cd492 O493 2.240 . S
Cd492 O500 2.223 . S
Cd492 O502 2.297 . S
Cd492 O503 2.439 . S
O493 Cd492 2.240 . S
O493 C498 1.279 . S
O494 Cd491 2.297 . S
O494 C496 1.247 . S
O495 Cd491 2.439 . S
O495 C496 1.208 . S
C496 O494 1.247 . S
C496 O495 1.208 . S
C497 O502 1.247 . S
C497 O503 1.208 . S
C498 O490 1.315 . S
C498 O493 1.279 . S
C499 O500 1.315 . S
C499 O501 1.279 . S
O500 Cd492 2.223 . S
O500 C499 1.315 . S
O501 Cd491 2.240 . S
O501 C499 1.279 . S
O502 Cd492 2.297 . S
O502 C497 1.247 . S
O503 Cd492 2.439 . S
O503 C497 1.208 . S
H504 C510 0.930 . S
H505 C514 0.930 . S
H506 C519 0.929 . S
H507 C517 0.929 . S
H508 C512 0.929 . S
H509 C518 0.929 . S
C510 H504 0.930 . S
C510 C511 1.367 . S
C510 C518 1.378 . S
C511 C510 1.367 . S
C511 C519 1.433 . S
C512 H508 0.929 . S
C512 C514 1.378 . S
C512 C516 1.350 . S
C513 C516 1.463 . S
C513 C518 1.350 . S
C513 N521 1.427 . S
C514 H505 0.930 . S
C514 C512 1.378 . S
C514 C515 1.367 . S
C515 C514 1.367 . S
C515 C517 1.433 . S
C516 C512 1.350 . S
C516 C513 1.463 . S
C516 N520 1.427 . S
C517 H507 0.929 . S
C517 C515 1.433 . S
C517 N520 1.384 . S
C518 H509 0.929 . S
C518 C510 1.378 . S
C518 C513 1.350 . S
C519 H506 0.929 . S
C519 C511 1.433 . S
C519 N521 1.384 . S
N520 C516 1.427 . S
N520 C517 1.384 . S
N521 C513 1.427 . S
N521 C519 1.384 . S
H522 C528 0.930 . S
H523 C532 0.930 . S
H524 C537 0.929 . S
H525 C535 0.929 . S
H526 C530 0.929 . S
H527 C536 0.929 . S
C528 H522 0.930 . S
C528 C529 1.367 . S
C528 C536 1.378 . S
C529 C528 1.367 . S
C529 C537 1.433 . S
C530 H526 0.929 . S
C530 C532 1.378 . S
C530 C534 1.350 . S
C531 C534 1.463 1_545 S
C531 C536 1.350 . S
C531 N539 1.427 . S
C532 H523 0.930 . S
C532 C530 1.378 . S
C532 C533 1.367 . S
C533 C532 1.367 . S
C533 C535 1.433 . S
C534 C530 1.350 . S
C534 C531 1.463 1_565 S
C534 N538 1.427 . S
C535 H525 0.929 . S
C535 C533 1.433 . S
C535 N538 1.384 . S
C536 H527 0.929 . S
C536 C528 1.378 . S
C536 C531 1.350 . S
C537 H524 0.929 . S
C537 C529 1.433 . S
C537 N539 1.384 . S
N538 C534 1.427 . S
N538 C535 1.384 . S
N539 C531 1.427 . S
N539 C537 1.384 . S
H540 C546 0.930 . S
H541 C550 0.930 . S
H542 C555 0.929 . S
H543 C553 0.929 . S
H544 C548 0.929 . S
H545 C554 0.929 . S
C546 H540 0.930 . S
C546 C547 1.367 . S
C546 C554 1.378 . S
C547 C546 1.367 . S
C547 C555 1.433 . S
C548 H544 0.929 . S
C548 C550 1.378 . S
C548 C552 1.350 . S
C549 C552 1.463 1_655 S
C549 C554 1.350 . S
C549 N557 1.427 . S
C550 H541 0.930 . S
C550 C548 1.378 . S
C550 C551 1.367 . S
C551 C550 1.367 . S
C551 C553 1.433 . S
C552 C548 1.350 . S
C552 C549 1.463 1_455 S
C552 N556 1.427 . S
C553 H543 0.929 . S
C553 C551 1.433 . S
C553 N556 1.384 . S
C554 H545 0.929 . S
C554 C546 1.378 . S
C554 C549 1.350 . S
C555 H542 0.929 . S
C555 C547 1.433 . S
C555 N557 1.384 . S
N556 C552 1.427 . S
N556 C553 1.384 . S
N557 C549 1.427 . S
N557 C555 1.384 . S
H558 C564 0.930 . S
H559 C568 0.930 . S
H560 C573 0.929 . S
H561 C571 0.929 . S
H562 C566 0.929 . S
H563 C572 0.929 . S
C564 H558 0.930 . S
C564 C565 1.367 . S
C564 C572 1.378 . S
C565 C564 1.367 . S
C565 C573 1.433 . S
C566 H562 0.929 . S
C566 C568 1.378 . S
C566 C570 1.350 . S
C567 C570 1.463 . S
C567 C572 1.350 . S
C567 N575 1.427 . S
C568 H559 0.930 . S
C568 C566 1.378 . S
C568 C569 1.367 . S
C569 C568 1.367 . S
C569 C571 1.433 . S
C570 C566 1.350 . S
C570 C567 1.463 . S
C570 N574 1.427 . S
C571 H561 0.929 . S
C571 C569 1.433 . S
C571 N574 1.384 . S
C572 H563 0.929 . S
C572 C564 1.378 . S
C572 C567 1.350 . S
C573 H560 0.929 . S
C573 C565 1.433 . S
C573 N575 1.384 . S
N574 C570 1.427 . S
N574 C571 1.384 . S
N575 C567 1.427 . S
N575 C573 1.384 . S
H576 C582 0.930 . S
H577 C586 0.930 . S
H578 C591 0.929 . S
H579 C589 0.929 . S
H580 C584 0.929 . S
H581 C590 0.929 . S
C582 H576 0.930 . S
C582 C583 1.367 . S
C582 C590 1.378 . S
C583 C582 1.367 . S
C583 C591 1.433 . S
C584 H580 0.929 . S
C584 C586 1.378 . S
C584 C588 1.350 . S
C585 C588 1.463 1_545 S
C585 C590 1.350 . S
C585 N593 1.427 . S
C586 H577 0.930 . S
C586 C584 1.378 . S
C586 C587 1.367 . S
C587 C586 1.367 . S
C587 C589 1.433 . S
C588 C584 1.350 . S
C588 C585 1.463 1_565 S
C588 N592 1.427 . S
C589 H579 0.929 . S
C589 C587 1.433 . S
C589 N592 1.384 . S
C590 H581 0.929 . S
C590 C582 1.378 . S
C590 C585 1.350 . S
C591 H578 0.929 . S
C591 C583 1.433 . S
C591 N593 1.384 . S
N592 C588 1.427 . S
N592 C589 1.384 . S
N593 C585 1.427 . S
N593 C591 1.384 . S
H594 C600 0.930 . S
H595 C604 0.930 . S
H596 C609 0.929 . S
H597 C607 0.929 . S
H598 C602 0.929 . S
H599 C608 0.929 . S
C600 H594 0.930 . S
C600 C601 1.367 . S
C600 C608 1.378 . S
C601 C600 1.367 . S
C601 C609 1.433 . S
C602 H598 0.929 . S
C602 C604 1.378 . S
C602 C606 1.350 . S
C603 C606 1.463 1_455 S
C603 C608 1.350 . S
C603 N611 1.427 . S
C604 H595 0.930 . S
C604 C602 1.378 . S
C604 C605 1.367 . S
C605 C604 1.367 . S
C605 C607 1.433 . S
C606 C602 1.350 . S
C606 C603 1.463 1_655 S
C606 N610 1.427 . S
C607 H597 0.929 . S
C607 C605 1.433 . S
C607 N610 1.384 . S
C608 H599 0.929 . S
C608 C600 1.378 . S
C608 C603 1.350 . S
C609 H596 0.929 . S
C609 C601 1.433 . S
C609 N611 1.384 . S
N610 C606 1.427 . S
N610 C607 1.384 . S
N611 C603 1.427 . S
N611 C609 1.384 . S
H612 C618 0.930 . S
H613 C622 0.930 . S
H614 C627 0.929 . S
H615 C625 0.929 . S
H616 C620 0.929 . S
H617 C626 0.929 . S
C618 H612 0.930 . S
C618 C619 1.367 . S
C618 C626 1.378 . S
C619 C618 1.367 . S
C619 C627 1.433 . S
C620 H616 0.929 . S
C620 C622 1.378 . S
C620 C624 1.350 . S
C621 C624 1.463 . S
C621 C626 1.350 . S
C621 N629 1.427 . S
C622 H613 0.930 . S
C622 C620 1.378 . S
C622 C623 1.367 . S
C623 C622 1.367 . S
C623 C625 1.433 . S
C624 C620 1.350 . S
C624 C621 1.463 . S
C624 N628 1.427 . S
C625 H615 0.929 . S
C625 C623 1.433 . S
C625 N628 1.384 . S
C626 H617 0.929 . S
C626 C618 1.378 . S
C626 C621 1.350 . S
C627 H614 0.929 . S
C627 C619 1.433 . S
C627 N629 1.384 . S
N628 C624 1.427 . S
N628 C625 1.384 . S
N629 C621 1.427 . S
N629 C627 1.384 . S
H630 C636 0.930 . S
H631 C640 0.930 . S
H632 C645 0.929 . S
H633 C643 0.929 . S
H634 C638 0.929 . S
H635 C644 0.929 . S
C636 H630 0.930 . S
C636 C637 1.367 . S
C636 C644 1.378 . S
C637 C636 1.367 . S
C637 C645 1.433 . S
C638 H634 0.929 . S
C638 C640 1.378 . S
C638 C642 1.350 . S
C639 C642 1.463 . S
C639 C644 1.350 . S
C639 N647 1.427 . S
C640 H631 0.930 . S
C640 C638 1.378 . S
C640 C641 1.367 . S
C641 C640 1.367 . S
C641 C643 1.433 . S
C642 C638 1.350 . S
C642 C639 1.463 . S
C642 N646 1.427 . S
C643 H633 0.929 . S
C643 C641 1.433 . S
C643 N646 1.384 . S
C644 H635 0.929 . S
C644 C636 1.378 . S
C644 C639 1.350 . S
C645 H632 0.929 . S
C645 C637 1.433 . S
C645 N647 1.384 . S
N646 C642 1.427 . S
N646 C643 1.384 . S
N647 C639 1.427 . S
N647 C645 1.384 . S
H648 C654 0.930 . S
H649 C658 0.930 . S
H650 C663 0.929 . S
H651 C661 0.929 . S
H652 C656 0.929 . S
H653 C662 0.929 . S
C654 H648 0.930 . S
C654 C655 1.367 . S
C654 C662 1.378 . S
C655 C654 1.367 . S
C655 C663 1.433 . S
C656 H652 0.929 . S
C656 C658 1.378 . S
C656 C660 1.350 . S
C657 C660 1.463 . S
C657 C662 1.350 . S
C657 N665 1.427 . S
C658 H649 0.930 . S
C658 C656 1.378 . S
C658 C659 1.367 . S
C659 C658 1.367 . S
C659 C661 1.433 . S
C660 C656 1.350 . S
C660 C657 1.463 . S
C660 N664 1.427 . S
C661 H651 0.929 . S
C661 C659 1.433 . S
C661 N664 1.384 . S
C662 H653 0.929 . S
C662 C654 1.378 . S
C662 C657 1.350 . S
C663 H650 0.929 . S
C663 C655 1.433 . S
C663 N665 1.384 . S
N664 C660 1.427 . S
N664 C661 1.384 . S
N665 C657 1.427 . S
N665 C663 1.384 . S
H666 C672 0.930 . S
H667 C676 0.930 . S
H668 C681 0.929 . S
H669 C679 0.929 . S
H670 C674 0.929 . S
H671 C680 0.929 . S
C672 H666 0.930 . S
C672 C673 1.367 . S
C672 C680 1.378 . S
C673 C672 1.367 . S
C673 C681 1.433 . S
C674 H670 0.929 . S
C674 C676 1.378 . S
C674 C678 1.350 . S
C675 C678 1.463 . S
C675 C680 1.350 . S
C675 N683 1.427 . S
C676 H667 0.930 . S
C676 C674 1.378 . S
C676 C677 1.367 . S
C677 C676 1.367 . S
C677 C679 1.433 . S
C678 C674 1.350 . S
C678 C675 1.463 . S
C678 N682 1.427 . S
C679 H669 0.929 . S
C679 C677 1.433 . S
C679 N682 1.384 . S
C680 H671 0.929 . S
C680 C672 1.378 . S
C680 C675 1.350 . S
C681 H668 0.929 . S
C681 C673 1.433 . S
C681 N683 1.384 . S
N682 C678 1.427 . S
N682 C679 1.384 . S
N683 C675 1.427 . S
N683 C681 1.384 . S
H684 C690 0.930 . S
H685 C694 0.930 1_556 S
H686 C699 0.929 . S
H687 C697 0.929 . S
H688 C692 0.929 . S
H689 C698 0.929 . S
C690 H684 0.930 . S
C690 C691 1.367 . S
C690 C698 1.378 . S
C691 C690 1.367 . S
C691 C699 1.433 . S
C692 H688 0.929 . S
C692 C694 1.378 . S
C692 C696 1.350 . S
C693 C696 1.463 . S
C693 C698 1.350 . S
C693 N701 1.427 . S
C694 H685 0.930 1_554 S
C694 C692 1.378 . S
C694 C695 1.367 . S
C695 C694 1.367 . S
C695 C697 1.433 . S
C696 C692 1.350 . S
C696 C693 1.463 . S
C696 N700 1.427 . S
C697 H687 0.929 . S
C697 C695 1.433 . S
C697 N700 1.384 . S
C698 H689 0.929 . S
C698 C690 1.378 . S
C698 C693 1.350 . S
C699 H686 0.929 . S
C699 C691 1.433 . S
C699 N701 1.384 . S
N700 C696 1.427 . S
N700 C697 1.384 . S
N701 C693 1.427 . S
N701 C699 1.384 . S
H702 C708 0.930 1_556 S
H703 C712 0.930 . S
H704 C717 0.929 . S
H705 C715 0.929 . S
H706 C710 0.929 . S
H707 C716 0.929 1_556 S
C708 H702 0.930 1_554 S
C708 C709 1.367 . S
C708 C716 1.378 . S
C709 C708 1.367 . S
C709 C717 1.433 . S
C710 H706 0.929 . S
C710 C712 1.378 . S
C710 C714 1.350 . S
C711 C714 1.463 . S
C711 C716 1.350 . S
C711 N719 1.427 . S
C712 H703 0.930 . S
C712 C710 1.378 . S
C712 C713 1.367 . S
C713 C712 1.367 . S
C713 C715 1.433 . S
C714 C710 1.350 . S
C714 C711 1.463 . S
C714 N718 1.427 . S
C715 H705 0.929 . S
C715 C713 1.433 . S
C715 N718 1.384 . S
C716 H707 0.929 1_554 S
C716 C708 1.378 . S
C716 C711 1.350 . S
C717 H704 0.929 . S
C717 C709 1.433 . S
C717 N719 1.384 . S
N718 C714 1.427 . S
N718 C715 1.384 . S
N719 C711 1.427 . S
N719 C717 1.384 . S
H720 C726 0.930 . S
H721 C730 0.930 . S
H722 C735 0.929 . S
H723 C733 0.929 . S
H724 C728 0.929 . S
H725 C734 0.929 . S
C726 H720 0.930 . S
C726 C727 1.367 . S
C726 C734 1.378 . S
C727 C726 1.367 . S
C727 C735 1.433 . S
C728 H724 0.929 . S
C728 C730 1.378 . S
C728 C732 1.350 . S
C729 C732 1.463 . S
C729 C734 1.350 . S
C729 N737 1.427 . S
C730 H721 0.930 . S
C730 C728 1.378 . S
C730 C731 1.367 . S
C731 C730 1.367 . S
C731 C733 1.433 . S
C732 C728 1.350 . S
C732 C729 1.463 . S
C732 N736 1.427 . S
C733 H723 0.929 . S
C733 C731 1.433 . S
C733 N736 1.384 . S
C734 H725 0.929 . S
C734 C726 1.378 . S
C734 C729 1.350 . S
C735 H722 0.929 . S
C735 C727 1.433 . S
C735 N737 1.384 . S
N736 C732 1.427 . S
N736 C733 1.384 . S
N737 C729 1.427 . S
N737 C735 1.384 . S
H738 C744 0.930 . S
H739 C748 0.930 . S
H740 C753 0.929 1_554 S
H741 C751 0.929 . S
H742 C746 0.929 . S
H743 C752 0.929 . S
C744 H738 0.930 . S
C744 C745 1.367 . S
C744 C752 1.378 . S
C745 C744 1.367 . S
C745 C753 1.433 . S
C746 H742 0.929 . S
C746 C748 1.378 . S
C746 C750 1.350 . S
C747 C750 1.463 . S
C747 C752 1.350 . S
C747 N755 1.427 . S
C748 H739 0.930 . S
C748 C746 1.378 . S
C748 C749 1.367 . S
C749 C748 1.367 . S
C749 C751 1.433 . S
C750 C746 1.350 . S
C750 C747 1.463 . S
C750 N754 1.427 . S
C751 H741 0.929 . S
C751 C749 1.433 . S
C751 N754 1.384 . S
C752 H743 0.929 . S
C752 C744 1.378 . S
C752 C747 1.350 . S
C753 H740 0.929 1_556 S
C753 C745 1.433 . S
C753 N755 1.384 . S
N754 C750 1.427 . S
N754 C751 1.384 . S
N755 C747 1.427 . S
N755 C753 1.384 . S
H756 C762 0.930 . S
H757 C766 0.930 . S
H758 C771 0.929 . S
H759 C769 0.929 1_554 S
H760 C764 0.929 . S
H761 C770 0.929 . S
C762 H756 0.930 . S
C762 C763 1.367 . S
C762 C770 1.378 . S
C763 C762 1.367 . S
C763 C771 1.433 . S
C764 H760 0.929 . S
C764 C766 1.378 . S
C764 C768 1.350 . S
C765 C768 1.463 . S
C765 C770 1.350 . S
C765 N773 1.427 . S
C766 H757 0.930 . S
C766 C764 1.378 . S
C766 C767 1.367 . S
C767 C766 1.367 . S
C767 C769 1.433 . S
C768 C764 1.350 . S
C768 C765 1.463 . S
C768 N772 1.427 . S
C769 H759 0.929 1_556 S
C769 C767 1.433 . S
C769 N772 1.384 . S
C770 H761 0.929 . S
C770 C762 1.378 . S
C770 C765 1.350 . S
C771 H758 0.929 . S
C771 C763 1.433 . S
C771 N773 1.384 . S
N772 C768 1.427 . S
N772 C769 1.384 . S
N773 C765 1.427 . S
N773 C771 1.384 . S
H774 C780 0.930 . S
H775 C784 0.930 . S
H776 C789 0.929 . S
H777 C787 0.929 . S
H778 C782 0.929 . S
H779 C788 0.929 . S
C780 H774 0.930 . S
C780 C781 1.367 . S
C780 C788 1.378 . S
C781 C780 1.367 . S
C781 C789 1.433 . S
C782 H778 0.929 . S
C782 C784 1.378 . S
C782 C786 1.350 . S
C783 C786 1.463 . S
C783 C788 1.350 . S
C783 N791 1.427 . S
C784 H775 0.930 . S
C784 C782 1.378 . S
C784 C785 1.367 . S
C785 C784 1.367 . S
C785 C787 1.433 . S
C786 C782 1.350 . S
C786 C783 1.463 . S
C786 N790 1.427 . S
C787 H777 0.929 . S
C787 C785 1.433 . S
C787 N790 1.384 . S
C788 H779 0.929 . S
C788 C780 1.378 . S
C788 C783 1.350 . S
C789 H776 0.929 . S
C789 C781 1.433 . S
C789 N791 1.384 . S
N790 C786 1.427 . S
N790 C787 1.384 . S
N791 C783 1.427 . S
N791 C789 1.384 . S
H792 C798 0.930 . S
H793 C802 0.930 . S
H794 C807 0.929 . S
H795 C805 0.929 . S
H796 C800 0.929 . S
H797 C806 0.929 . S
C798 H792 0.930 . S
C798 C799 1.367 . S
C798 C806 1.378 . S
C799 C798 1.367 . S
C799 C807 1.433 . S
C800 H796 0.929 . S
C800 C802 1.378 . S
C800 C804 1.350 . S
C801 C804 1.463 . S
C801 C806 1.350 . S
C801 N809 1.427 . S
C802 H793 0.930 . S
C802 C800 1.378 . S
C802 C803 1.367 . S
C803 C802 1.367 . S
C803 C805 1.433 . S
C804 C800 1.350 . S
C804 C801 1.463 . S
C804 N808 1.427 . S
C805 H795 0.929 . S
C805 C803 1.433 . S
C805 N808 1.384 . S
C806 H797 0.929 . S
C806 C798 1.378 . S
C806 C801 1.350 . S
C807 H794 0.929 . S
C807 C799 1.433 . S
C807 N809 1.384 . S
N808 C804 1.427 . S
N808 C805 1.384 . S
N809 C801 1.427 . S
N809 C807 1.384 . S
H810 C816 0.930 . S
H811 C820 0.930 . S
H812 C825 0.929 . S
H813 C823 0.929 . S
H814 C818 0.929 . S
H815 C824 0.929 . S
C816 H810 0.930 . S
C816 C817 1.367 . S
C816 C824 1.378 . S
C817 C816 1.367 . S
C817 C825 1.433 . S
C818 H814 0.929 . S
C818 C820 1.378 . S
C818 C822 1.350 . S
C819 C822 1.463 . S
C819 C824 1.350 . S
C819 N827 1.427 . S
C820 H811 0.930 . S
C820 C818 1.378 . S
C820 C821 1.367 . S
C821 C820 1.367 . S
C821 C823 1.433 . S
C822 C818 1.350 . S
C822 C819 1.463 . S
C822 N826 1.427 . S
C823 H813 0.929 . S
C823 C821 1.433 . S
C823 N826 1.384 . S
C824 H815 0.929 . S
C824 C816 1.378 . S
C824 C819 1.350 . S
C825 H812 0.929 . S
C825 C817 1.433 . S
C825 N827 1.384 . S
N826 C822 1.427 . S
N826 C823 1.384 . S
N827 C819 1.427 . S
N827 C825 1.384 . S
H828 C834 0.930 . S
H829 C838 0.930 . S
H830 C843 0.929 . S
H831 C841 0.929 . S
H832 C836 0.929 . S
H833 C842 0.929 . S
C834 H828 0.930 . S
C834 C835 1.367 . S
C834 C842 1.378 . S
C835 C834 1.367 . S
C835 C843 1.433 . S
C836 H832 0.929 . S
C836 C838 1.378 . S
C836 C840 1.350 . S
C837 C840 1.463 1_556 S
C837 C842 1.350 . S
C837 N845 1.427 . S
C838 H829 0.930 . S
C838 C836 1.378 . S
C838 C839 1.367 . S
C839 C838 1.367 . S
C839 C841 1.433 . S
C840 C836 1.350 . S
C840 C837 1.463 1_554 S
C840 N844 1.427 . S
C841 H831 0.929 . S
C841 C839 1.433 . S
C841 N844 1.384 . S
C842 H833 0.929 . S
C842 C834 1.378 . S
C842 C837 1.350 . S
C843 H830 0.929 . S
C843 C835 1.433 . S
C843 N845 1.384 . S
N844 C840 1.427 . S
N844 C841 1.384 . S
N845 C837 1.427 . S
N845 C843 1.384 . S
H846 C852 0.930 . S
H847 C856 0.930 . S
H848 C861 0.929 . S
H849 C859 0.929 . S
H850 C854 0.929 . S
H851 C860 0.929 . S
C852 H846 0.930 . S
C852 C853 1.367 . S
C852 C860 1.378 . S
C853 C852 1.367 . S
C853 C861 1.433 . S
C854 H850 0.929 . S
C854 C856 1.378 . S
C854 C858 1.350 . S
C855 C858 1.463 1_554 S
C855 C860 1.350 . S
C855 N863 1.427 . S
C856 H847 0.930 . S
C856 C854 1.378 . S
C856 C857 1.367 . S
C857 C856 1.367 . S
C857 C859 1.433 . S
C858 C854 1.350 . S
C858 C855 1.463 1_556 S
C858 N862 1.427 . S
C859 H849 0.929 . S
C859 C857 1.433 . S
C859 N862 1.384 . S
C860 H851 0.929 . S
C860 C852 1.378 . S
C860 C855 1.350 . S
C861 H848 0.929 . S
C861 C853 1.433 . S
C861 N863 1.384 . S
N862 C858 1.427 . S
N862 C859 1.384 . S
N863 C855 1.427 . S
N863 C861 1.384 . S
H864 C870 0.930 . S
H865 C874 0.930 . S
H866 C879 0.929 . S
H867 C877 0.929 . S
H868 C872 0.929 . S
H869 C878 0.929 . S
C870 H864 0.930 . S
C870 C871 1.367 . S
C870 C878 1.378 . S
C871 C870 1.367 . S
C871 C879 1.433 . S
C872 H868 0.929 . S
C872 C874 1.378 . S
C872 C876 1.350 . S
C873 C876 1.463 1_554 S
C873 C878 1.350 . S
C873 N881 1.427 . S
C874 H865 0.930 . S
C874 C872 1.378 . S
C874 C875 1.367 . S
C875 C874 1.367 . S
C875 C877 1.433 . S
C876 C872 1.350 . S
C876 C873 1.463 1_556 S
C876 N880 1.427 1_556 S
C877 H867 0.929 . S
C877 C875 1.433 . S
C877 N880 1.384 1_556 S
C878 H869 0.929 . S
C878 C870 1.378 . S
C878 C873 1.350 . S
C879 H866 0.929 . S
C879 C871 1.433 . S
C879 N881 1.384 . S
N880 C876 1.427 1_554 S
N880 C877 1.384 1_554 S
N881 C873 1.427 . S
N881 C879 1.384 . S
H882 C888 0.930 . S
H883 C892 0.930 . S
H884 C897 0.929 . S
H885 C895 0.929 . S
H886 C890 0.929 . S
H887 C896 0.929 . S
C888 H882 0.930 . S
C888 C889 1.367 . S
C888 C896 1.378 . S
C889 C888 1.367 . S
C889 C897 1.433 . S
C890 H886 0.929 . S
C890 C892 1.378 . S
C890 C894 1.350 . S
C891 C894 1.463 . S
C891 C896 1.350 . S
C891 N899 1.427 . S
C892 H883 0.930 . S
C892 C890 1.378 . S
C892 C893 1.367 . S
C893 C892 1.367 . S
C893 C895 1.433 . S
C894 C890 1.350 . S
C894 C891 1.463 . S
C894 N898 1.427 . S
C895 H885 0.929 . S
C895 C893 1.433 . S
C895 N898 1.384 . S
C896 H887 0.929 . S
C896 C888 1.378 . S
C896 C891 1.350 . S
C897 H884 0.929 . S
C897 C889 1.433 . S
C897 N899 1.384 . S
N898 C894 1.427 . S
N898 C895 1.384 . S
N899 C891 1.427 . S
N899 C897 1.384 . S
H900 C906 0.930 . S
H901 C910 0.930 . S
H902 C915 0.929 . S
H903 C913 0.929 . S
H904 C908 0.929 . S
H905 C914 0.929 . S
C906 H900 0.930 . S
C906 C907 1.367 . S
C906 C914 1.378 . S
C907 C906 1.367 . S
C907 C915 1.433 . S
C908 H904 0.929 . S
C908 C910 1.378 . S
C908 C912 1.350 . S
C909 C912 1.463 . S
C909 C914 1.350 . S
C909 N917 1.427 . S
C910 H901 0.930 . S
C910 C908 1.378 . S
C910 C911 1.367 . S
C911 C910 1.367 . S
C911 C913 1.433 . S
C912 C908 1.350 . S
C912 C909 1.463 . S
C912 N916 1.427 . S
C913 H903 0.929 . S
C913 C911 1.433 . S
C913 N916 1.384 . S
C914 H905 0.929 . S
C914 C906 1.378 . S
C914 C909 1.350 . S
C915 H902 0.929 . S
C915 C907 1.433 . S
C915 N917 1.384 . S
N916 C912 1.427 . S
N916 C913 1.384 . S
N917 C909 1.427 . S
N917 C915 1.384 . S
H918 C924 0.930 . S
H919 C928 0.930 . S
H920 C933 0.929 . S
H921 C931 0.929 . S
H922 C926 0.929 . S
H923 C932 0.929 . S
C924 H918 0.930 . S
C924 C925 1.367 . S
C924 C932 1.378 . S
C925 C924 1.367 . S
C925 C933 1.433 . S
C926 H922 0.929 . S
C926 C928 1.378 . S
C926 C930 1.350 . S
C927 C930 1.463 . S
C927 C932 1.350 . S
C927 N935 1.427 . S
C928 H919 0.930 . S
C928 C926 1.378 . S
C928 C929 1.367 . S
C929 C928 1.367 . S
C929 C931 1.433 . S
C930 C926 1.350 . S
C930 C927 1.463 . S
C930 N934 1.427 . S
C931 H921 0.929 . S
C931 C929 1.433 . S
C931 N934 1.384 . S
C932 H923 0.929 . S
C932 C924 1.378 . S
C932 C927 1.350 . S
C933 H920 0.929 . S
C933 C925 1.433 . S
C933 N935 1.384 . S
N934 C930 1.427 . S
N934 C931 1.384 . S
N935 C927 1.427 . S
N935 C933 1.384 . S
H936 C942 0.930 . S
H937 C946 0.930 . S
H938 C951 0.929 . S
H939 C949 0.929 . S
H940 C944 0.929 . S
H941 C950 0.929 . S
C942 H936 0.930 . S
C942 C943 1.367 . S
C942 C950 1.378 . S
C943 C942 1.367 . S
C943 C951 1.433 . S
C944 H940 0.929 . S
C944 C946 1.378 . S
C944 C948 1.350 . S
C945 C948 1.463 1_556 S
C945 C950 1.350 . S
C945 N953 1.427 . S
C946 H937 0.930 . S
C946 C944 1.378 . S
C946 C947 1.367 . S
C947 C946 1.367 . S
C947 C949 1.433 . S
C948 C944 1.350 . S
C948 C945 1.463 1_554 S
C948 N952 1.427 . S
C949 H939 0.929 . S
C949 C947 1.433 . S
C949 N952 1.384 . S
C950 H941 0.929 . S
C950 C942 1.378 . S
C950 C945 1.350 . S
C951 H938 0.929 . S
C951 C943 1.433 . S
C951 N953 1.384 . S
N952 C948 1.427 . S
N952 C949 1.384 . S
N953 C945 1.427 . S
N953 C951 1.384 . S
H954 C960 0.930 . S
H955 C964 0.930 . S
H956 C969 0.929 . S
H957 C967 0.929 . S
H958 C962 0.929 1_556 S
H959 C968 0.929 . S
C960 H954 0.930 . S
C960 C961 1.367 . S
C960 C968 1.378 . S
C961 C960 1.367 . S
C961 C969 1.433 . S
C962 H958 0.929 1_554 S
C962 C964 1.378 . S
C962 C966 1.350 . S
C963 C966 1.463 1_556 S
C963 C968 1.350 . S
C963 N971 1.427 . S
C964 H955 0.930 . S
C964 C962 1.378 . S
C964 C965 1.367 . S
C965 C964 1.367 . S
C965 C967 1.433 . S
C966 C962 1.350 . S
C966 C963 1.463 1_554 S
C966 N970 1.427 . S
C967 H957 0.929 . S
C967 C965 1.433 . S
C967 N970 1.384 . S
C968 H959 0.929 . S
C968 C960 1.378 . S
C968 C963 1.350 . S
C969 H956 0.929 . S
C969 C961 1.433 . S
C969 N971 1.384 . S
N970 C966 1.427 . S
N970 C967 1.384 . S
N971 C963 1.427 . S
N971 C969 1.384 . S
H972 C978 0.930 . S
H973 C982 0.930 . S
H974 C987 0.929 . S
H975 C985 0.929 . S
H976 C980 0.929 . S
H977 C986 0.929 . S
C978 H972 0.930 . S
C978 C979 1.367 . S
C978 C986 1.378 . S
C979 C978 1.367 . S
C979 C987 1.433 . S
C980 H976 0.929 . S
C980 C982 1.378 . S
C980 C984 1.350 . S
C981 C984 1.463 1_554 S
C981 C986 1.350 . S
C981 N989 1.427 . S
C982 H973 0.930 . S
C982 C980 1.378 . S
C982 C983 1.367 . S
C983 C982 1.367 . S
C983 C985 1.433 . S
C984 C980 1.350 . S
C984 C981 1.463 1_556 S
C984 N988 1.427 . S
C985 H975 0.929 . S
C985 C983 1.433 . S
C985 N988 1.384 . S
C986 H977 0.929 . S
C986 C978 1.378 . S
C986 C981 1.350 . S
C987 H974 0.929 . S
C987 C979 1.433 . S
C987 N989 1.384 . S
N988 C984 1.427 . S
N988 C985 1.384 . S
N989 C981 1.427 . S
N989 C987 1.384 . S
H990 C996 0.930 . S
H991 C1000 0.930 . S
H992 C1005 0.929 . S
H993 C1003 0.929 . S
H994 C998 0.929 . S
H995 C1004 0.929 . S
C996 H990 0.930 . S
C996 C997 1.367 . S
C996 C1004 1.378 . S
C997 C996 1.367 . S
C997 C1005 1.433 . S
C998 H994 0.929 . S
C998 C1000 1.378 . S
C998 C1002 1.350 . S
C999 C1002 1.463 . S
C999 C1004 1.350 . S
C999 N1007 1.427 . S
C1000 H991 0.930 . S
C1000 C998 1.378 . S
C1000 C1001 1.367 . S
C1001 C1000 1.367 . S
C1001 C1003 1.433 . S
C1002 C998 1.350 . S
C1002 C999 1.463 . S
C1002 N1006 1.427 . S
C1003 H993 0.929 . S
C1003 C1001 1.433 . S
C1003 N1006 1.384 . S
C1004 H995 0.929 . S
C1004 C996 1.378 . S
C1004 C999 1.350 . S
C1005 H992 0.929 . S
C1005 C997 1.433 . S
C1005 N1007 1.384 . S
N1006 C1002 1.427 . S
N1006 C1003 1.384 . S
N1007 C999 1.427 . S
N1007 C1005 1.384 . S
H1008 C1014 0.930 . S
H1009 C1018 0.930 . S
H1010 C1023 0.929 . S
H1011 C1021 0.929 . S
H1012 C1016 0.929 . S
H1013 C1022 0.929 . S
C1014 H1008 0.930 . S
C1014 C1015 1.367 . S
C1014 C1022 1.378 . S
C1015 C1014 1.367 . S
C1015 C1023 1.433 . S
C1016 H1012 0.929 . S
C1016 C1018 1.378 . S
C1016 C1020 1.350 . S
C1017 C1020 1.463 . S
C1017 C1022 1.350 . S
C1017 N1025 1.427 . S
C1018 H1009 0.930 . S
C1018 C1016 1.378 . S
C1018 C1019 1.367 . S
C1019 C1018 1.367 . S
C1019 C1021 1.433 . S
C1020 C1016 1.350 . S
C1020 C1017 1.463 . S
C1020 N1024 1.427 . S
C1021 H1011 0.929 . S
C1021 C1019 1.433 . S
C1021 N1024 1.384 . S
C1022 H1013 0.929 . S
C1022 C1014 1.378 . S
C1022 C1017 1.350 . S
C1023 H1010 0.929 . S
C1023 C1015 1.433 . S
C1023 N1025 1.384 . S
N1024 C1020 1.427 . S
N1024 C1021 1.384 . S
N1025 C1017 1.427 . S
N1025 C1023 1.384 . S
H1026 C1032 0.930 . S
H1027 C1036 0.930 . S
H1028 C1041 0.929 . S
H1029 C1039 0.929 . S
H1030 C1034 0.929 . S
H1031 C1040 0.929 . S
C1032 H1026 0.930 . S
C1032 C1033 1.367 . S
C1032 C1040 1.378 . S
C1033 C1032 1.367 . S
C1033 C1041 1.433 . S
C1034 H1030 0.929 . S
C1034 C1036 1.378 . S
C1034 C1038 1.350 . S
C1035 C1038 1.463 . S
C1035 C1040 1.350 . S
C1035 N1043 1.427 . S
C1036 H1027 0.930 . S
C1036 C1034 1.378 . S
C1036 C1037 1.367 . S
C1037 C1036 1.367 . S
C1037 C1039 1.433 . S
C1038 C1034 1.350 . S
C1038 C1035 1.463 . S
C1038 N1042 1.427 . S
C1039 H1029 0.929 . S
C1039 C1037 1.433 . S
C1039 N1042 1.384 . S
C1040 H1031 0.929 . S
C1040 C1032 1.378 . S
C1040 C1035 1.350 . S
C1041 H1028 0.929 . S
C1041 C1033 1.433 . S
C1041 N1043 1.384 . S
N1042 C1038 1.427 . S
N1042 C1039 1.384 . S
N1043 C1035 1.427 . S
N1043 C1041 1.384 . S
H1044 C1050 0.930 . S
H1045 C1054 0.930 . S
H1046 C1059 0.929 . S
H1047 C1057 0.929 . S
H1048 C1052 0.929 . S
H1049 C1058 0.929 . S
C1050 H1044 0.930 . S
C1050 C1051 1.367 . S
C1050 C1058 1.378 . S
C1051 C1050 1.367 . S
C1051 C1059 1.433 . S
C1052 H1048 0.929 . S
C1052 C1054 1.378 . S
C1052 C1056 1.350 . S
C1053 C1056 1.463 . S
C1053 C1058 1.350 . S
C1053 N1061 1.427 . S
C1054 H1045 0.930 . S
C1054 C1052 1.378 . S
C1054 C1055 1.367 . S
C1055 C1054 1.367 . S
C1055 C1057 1.433 . S
C1056 C1052 1.350 . S
C1056 C1053 1.463 . S
C1056 N1060 1.427 . S
C1057 H1047 0.929 . S
C1057 C1055 1.433 . S
C1057 N1060 1.384 . S
C1058 H1049 0.929 . S
C1058 C1050 1.378 . S
C1058 C1053 1.350 . S
C1059 H1046 0.929 . S
C1059 C1051 1.433 . S
C1059 N1061 1.384 . S
N1060 C1056 1.427 . S
N1060 C1057 1.384 . S
N1061 C1053 1.427 . S
N1061 C1059 1.384 . S
H1062 C1068 0.930 . S
H1063 C1072 0.930 . S
H1064 C1077 0.929 . S
H1065 C1075 0.929 . S
H1066 C1070 0.929 . S
H1067 C1076 0.929 . S
C1068 H1062 0.930 . S
C1068 C1069 1.367 . S
C1068 C1076 1.378 . S
C1069 C1068 1.367 . S
C1069 C1077 1.433 . S
C1070 H1066 0.929 . S
C1070 C1072 1.378 . S
C1070 C1074 1.350 . S
C1071 C1074 1.463 . S
C1071 C1076 1.350 . S
C1071 N1079 1.427 . S
C1072 H1063 0.930 . S
C1072 C1070 1.378 . S
C1072 C1073 1.367 . S
C1073 C1072 1.367 . S
C1073 C1075 1.433 . S
C1074 C1070 1.350 . S
C1074 C1071 1.463 . S
C1074 N1078 1.427 . S
C1075 H1065 0.929 . S
C1075 C1073 1.433 . S
C1075 N1078 1.384 . S
C1076 H1067 0.929 . S
C1076 C1068 1.378 . S
C1076 C1071 1.350 . S
C1077 H1064 0.929 . S
C1077 C1069 1.433 . S
C1077 N1079 1.384 . S
N1078 C1074 1.427 . S
N1078 C1075 1.384 . S
N1079 C1071 1.427 . S
N1079 C1077 1.384 . S
H1080 C1086 0.930 . S
H1081 C1090 0.930 . S
H1082 C1095 0.929 . S
H1083 C1093 0.929 . S
H1084 C1088 0.929 . S
H1085 C1094 0.929 . S
C1086 H1080 0.930 . S
C1086 C1087 1.367 . S
C1086 C1094 1.378 . S
C1087 C1086 1.367 . S
C1087 C1095 1.433 . S
C1088 H1084 0.929 . S
C1088 C1090 1.378 . S
C1088 C1092 1.350 . S
C1089 C1092 1.463 . S
C1089 C1094 1.350 . S
C1089 N1097 1.427 . S
C1090 H1081 0.930 . S
C1090 C1088 1.378 . S
C1090 C1091 1.367 . S
C1091 C1090 1.367 . S
C1091 C1093 1.433 . S
C1092 C1088 1.350 . S
C1092 C1089 1.463 . S
C1092 N1096 1.427 . S
C1093 H1083 0.929 . S
C1093 C1091 1.433 . S
C1093 N1096 1.384 . S
C1094 H1085 0.929 . S
C1094 C1086 1.378 . S
C1094 C1089 1.350 . S
C1095 H1082 0.929 . S
C1095 C1087 1.433 . S
C1095 N1097 1.384 . S
N1096 C1092 1.427 . S
N1096 C1093 1.384 . S
N1097 C1089 1.427 . S
N1097 C1095 1.384 . S
H1098 C1104 0.930 . S
H1099 C1108 0.930 . S
H1100 C1113 0.929 . S
H1101 C1111 0.929 . S
H1102 C1106 0.929 . S
H1103 C1112 0.929 . S
C1104 H1098 0.930 . S
C1104 C1105 1.367 . S
C1104 C1112 1.378 . S
C1105 C1104 1.367 . S
C1105 C1113 1.433 . S
C1106 H1102 0.929 . S
C1106 C1108 1.378 . S
C1106 C1110 1.350 . S
C1107 C1110 1.463 . S
C1107 C1112 1.350 . S
C1107 N1115 1.427 . S
C1108 H1099 0.930 . S
C1108 C1106 1.378 . S
C1108 C1109 1.367 . S
C1109 C1108 1.367 . S
C1109 C1111 1.433 . S
C1110 C1106 1.350 . S
C1110 C1107 1.463 . S
C1110 N1114 1.427 . S
C1111 H1101 0.929 . S
C1111 C1109 1.433 . S
C1111 N1114 1.384 . S
C1112 H1103 0.929 . S
C1112 C1104 1.378 . S
C1112 C1107 1.350 . S
C1113 H1100 0.929 . S
C1113 C1105 1.433 . S
C1113 N1115 1.384 . S
N1114 C1110 1.427 . S
N1114 C1111 1.384 . S
N1115 C1107 1.427 . S
N1115 C1113 1.384 . S
H1116 C1122 0.930 . S
H1117 C1126 0.930 . S
H1118 C1131 0.929 . S
H1119 C1129 0.929 . S
H1120 C1124 0.929 . S
H1121 C1130 0.929 . S
C1122 H1116 0.930 . S
C1122 C1123 1.367 . S
C1122 C1130 1.378 . S
C1123 C1122 1.367 . S
C1123 C1131 1.433 . S
C1124 H1120 0.929 . S
C1124 C1126 1.378 . S
C1124 C1128 1.350 . S
C1125 C1128 1.463 . S
C1125 C1130 1.350 . S
C1125 N1133 1.427 . S
C1126 H1117 0.930 . S
C1126 C1124 1.378 . S
C1126 C1127 1.367 . S
C1127 C1126 1.367 . S
C1127 C1129 1.433 . S
C1128 C1124 1.350 . S
C1128 C1125 1.463 . S
C1128 N1132 1.427 . S
C1129 H1119 0.929 . S
C1129 C1127 1.433 . S
C1129 N1132 1.384 . S
C1130 H1121 0.929 . S
C1130 C1122 1.378 . S
C1130 C1125 1.350 . S
C1131 H1118 0.929 . S
C1131 C1123 1.433 . S
C1131 N1133 1.384 . S
N1132 C1128 1.427 . S
N1132 C1129 1.384 . S
N1133 C1125 1.427 . S
N1133 C1131 1.384 . S
H1134 C1140 0.930 . S
H1135 C1144 0.930 . S
H1136 C1149 0.929 . S
H1137 C1147 0.929 . S
H1138 C1142 0.929 . S
H1139 C1148 0.929 . S
C1140 H1134 0.930 . S
C1140 C1141 1.367 . S
C1140 C1148 1.378 . S
C1141 C1140 1.367 . S
C1141 C1149 1.433 . S
C1142 H1138 0.929 . S
C1142 C1144 1.378 . S
C1142 C1146 1.350 . S
C1143 C1146 1.463 . S
C1143 C1148 1.350 . S
C1143 N1151 1.427 . S
C1144 H1135 0.930 . S
C1144 C1142 1.378 . S
C1144 C1145 1.367 . S
C1145 C1144 1.367 . S
C1145 C1147 1.433 . S
C1146 C1142 1.350 . S
C1146 C1143 1.463 . S
C1146 N1150 1.427 . S
C1147 H1137 0.929 . S
C1147 C1145 1.433 . S
C1147 N1150 1.384 . S
C1148 H1139 0.929 . S
C1148 C1140 1.378 . S
C1148 C1143 1.350 . S
C1149 H1136 0.929 . S
C1149 C1141 1.433 . S
C1149 N1151 1.384 . S
N1150 C1146 1.427 . S
N1150 C1147 1.384 . S
N1151 C1143 1.427 . S
N1151 C1149 1.384 . S
H1152 C1158 0.930 . S
H1153 C1162 0.930 . S
H1154 C1167 0.929 . S
H1155 C1165 0.929 . S
H1156 C1160 0.929 . S
H1157 C1166 0.929 . S
C1158 H1152 0.930 . S
C1158 C1159 1.367 . S
C1158 C1166 1.378 . S
C1159 C1158 1.367 . S
C1159 C1167 1.433 . S
C1160 H1156 0.929 . S
C1160 C1162 1.378 . S
C1160 C1164 1.350 . S
C1161 C1164 1.463 . S
C1161 C1166 1.350 . S
C1161 N1169 1.427 . S
C1162 H1153 0.930 . S
C1162 C1160 1.378 . S
C1162 C1163 1.367 . S
C1163 C1162 1.367 . S
C1163 C1165 1.433 . S
C1164 C1160 1.350 . S
C1164 C1161 1.463 . S
C1164 N1168 1.427 . S
C1165 H1155 0.929 . S
C1165 C1163 1.433 . S
C1165 N1168 1.384 . S
C1166 H1157 0.929 . S
C1166 C1158 1.378 . S
C1166 C1161 1.350 . S
C1167 H1154 0.929 . S
C1167 C1159 1.433 . S
C1167 N1169 1.384 . S
N1168 C1164 1.427 . S
N1168 C1165 1.384 . S
N1169 C1161 1.427 . S
N1169 C1167 1.384 . S
H1170 C1176 0.930 . S
H1171 C1180 0.930 . S
H1172 C1185 0.929 . S
H1173 C1183 0.929 . S
H1174 C1178 0.929 . S
H1175 C1184 0.929 . S
C1176 H1170 0.930 . S
C1176 C1177 1.367 . S
C1176 C1184 1.378 . S
C1177 C1176 1.367 . S
C1177 C1185 1.433 . S
C1178 H1174 0.929 . S
C1178 C1180 1.378 . S
C1178 C1182 1.350 . S
C1179 C1182 1.463 . S
C1179 C1184 1.350 . S
C1179 N1187 1.427 . S
C1180 H1171 0.930 . S
C1180 C1178 1.378 . S
C1180 C1181 1.367 . S
C1181 C1180 1.367 . S
C1181 C1183 1.433 . S
C1182 C1178 1.350 . S
C1182 C1179 1.463 . S
C1182 N1186 1.427 . S
C1183 H1173 0.929 . S
C1183 C1181 1.433 . S
C1183 N1186 1.384 . S
C1184 H1175 0.929 . S
C1184 C1176 1.378 . S
C1184 C1179 1.350 . S
C1185 H1172 0.929 . S
C1185 C1177 1.433 . S
C1185 N1187 1.384 . S
N1186 C1182 1.427 . S
N1186 C1183 1.384 . S
N1187 C1179 1.427 . S
N1187 C1185 1.384 . S
H1188 C1194 0.930 . S
H1189 C1198 0.930 . S
H1190 C1203 0.929 . S
H1191 C1201 0.929 . S
H1192 C1196 0.929 . S
H1193 C1202 0.929 . S
C1194 H1188 0.930 . S
C1194 C1195 1.367 . S
C1194 C1202 1.378 . S
C1195 C1194 1.367 . S
C1195 C1203 1.433 . S
C1196 H1192 0.929 . S
C1196 C1198 1.378 . S
C1196 C1200 1.350 . S
C1197 C1200 1.463 . S
C1197 C1202 1.350 . S
C1197 N1205 1.427 . S
C1198 H1189 0.930 . S
C1198 C1196 1.378 . S
C1198 C1199 1.367 . S
C1199 C1198 1.367 . S
C1199 C1201 1.433 . S
C1200 C1196 1.350 . S
C1200 C1197 1.463 . S
C1200 N1204 1.427 . S
C1201 H1191 0.929 . S
C1201 C1199 1.433 . S
C1201 N1204 1.384 . S
C1202 H1193 0.929 . S
C1202 C1194 1.378 . S
C1202 C1197 1.350 . S
C1203 H1190 0.929 . S
C1203 C1195 1.433 . S
C1203 N1205 1.384 . S
N1204 C1200 1.427 . S
N1204 C1201 1.384 . S
N1205 C1197 1.427 . S
N1205 C1203 1.384 . S
H1206 C1212 0.930 . S
H1207 C1216 0.930 . S
H1208 C1221 0.929 . S
H1209 C1219 0.929 1_554 S
H1210 C1214 0.929 . S
H1211 C1220 0.929 . S
C1212 H1206 0.930 . S
C1212 C1213 1.367 . S
C1212 C1220 1.378 . S
C1213 C1212 1.367 . S
C1213 C1221 1.433 . S
C1214 H1210 0.929 . S
C1214 C1216 1.378 . S
C1214 C1218 1.350 . S
C1215 C1218 1.463 . S
C1215 C1220 1.350 . S
C1215 N1223 1.427 . S
C1216 H1207 0.930 . S
C1216 C1214 1.378 . S
C1216 C1217 1.367 . S
C1217 C1216 1.367 . S
C1217 C1219 1.433 . S
C1218 C1214 1.350 . S
C1218 C1215 1.463 . S
C1218 N1222 1.427 . S
C1219 H1209 0.929 1_556 S
C1219 C1217 1.433 . S
C1219 N1222 1.384 . S
C1220 H1211 0.929 . S
C1220 C1212 1.378 . S
C1220 C1215 1.350 . S
C1221 H1208 0.929 . S
C1221 C1213 1.433 . S
C1221 N1223 1.384 . S
N1222 C1218 1.427 . S
N1222 C1219 1.384 . S
N1223 C1215 1.427 . S
N1223 C1221 1.384 . S
H1224 C1230 0.930 . S
H1225 C1234 0.930 . S
H1226 C1239 0.929 . S
H1227 C1237 0.929 1_554 S
H1228 C1232 0.929 . S
H1229 C1238 0.929 . S
C1230 H1224 0.930 . S
C1230 C1231 1.367 . S
C1230 C1238 1.378 . S
C1231 C1230 1.367 . S
C1231 C1239 1.433 . S
C1232 H1228 0.929 . S
C1232 C1234 1.378 . S
C1232 C1236 1.350 . S
C1233 C1236 1.463 . S
C1233 C1238 1.350 . S
C1233 N1241 1.427 . S
C1234 H1225 0.930 . S
C1234 C1232 1.378 . S
C1234 C1235 1.367 . S
C1235 C1234 1.367 . S
C1235 C1237 1.433 . S
C1236 C1232 1.350 . S
C1236 C1233 1.463 . S
C1236 N1240 1.427 . S
C1237 H1227 0.929 1_556 S
C1237 C1235 1.433 . S
C1237 N1240 1.384 . S
C1238 H1229 0.929 . S
C1238 C1230 1.378 . S
C1238 C1233 1.350 . S
C1239 H1226 0.929 . S
C1239 C1231 1.433 . S
C1239 N1241 1.384 . S
N1240 C1236 1.427 . S
N1240 C1237 1.384 . S
N1241 C1233 1.427 . S
N1241 C1239 1.384 . S
H1242 C1248 0.930 . S
H1243 C1252 0.930 . S
H1244 C1257 0.929 . S
H1245 C1255 0.929 . S
H1246 C1250 0.929 . S
H1247 C1256 0.929 . S
C1248 H1242 0.930 . S
C1248 C1249 1.367 . S
C1248 C1256 1.378 . S
C1249 C1248 1.367 . S
C1249 C1257 1.433 . S
C1250 H1246 0.929 . S
C1250 C1252 1.378 . S
C1250 C1254 1.350 . S
C1251 C1254 1.463 . S
C1251 C1256 1.350 . S
C1251 N1259 1.427 . S
C1252 H1243 0.930 . S
C1252 C1250 1.378 . S
C1252 C1253 1.367 . S
C1253 C1252 1.367 . S
C1253 C1255 1.433 . S
C1254 C1250 1.350 . S
C1254 C1251 1.463 . S
C1254 N1258 1.427 . S
C1255 H1245 0.929 . S
C1255 C1253 1.433 . S
C1255 N1258 1.384 . S
C1256 H1247 0.929 . S
C1256 C1248 1.378 . S
C1256 C1251 1.350 . S
C1257 H1244 0.929 . S
C1257 C1249 1.433 . S
C1257 N1259 1.384 . S
N1258 C1254 1.427 . S
N1258 C1255 1.384 . S
N1259 C1251 1.427 . S
N1259 C1257 1.384 . S
H1260 C1266 0.930 . S
H1261 C1270 0.930 . S
H1262 C1275 0.929 . S
H1263 C1273 0.929 . S
H1264 C1268 0.929 . S
H1265 C1274 0.929 . S
C1266 H1260 0.930 . S
C1266 C1267 1.367 . S
C1266 C1274 1.378 . S
C1267 C1266 1.367 . S
C1267 C1275 1.433 . S
C1268 H1264 0.929 . S
C1268 C1270 1.378 . S
C1268 C1272 1.350 . S
C1269 C1272 1.463 . S
C1269 C1274 1.350 . S
C1269 N1277 1.427 . S
C1270 H1261 0.930 . S
C1270 C1268 1.378 . S
C1270 C1271 1.367 . S
C1271 C1270 1.367 . S
C1271 C1273 1.433 . S
C1272 C1268 1.350 . S
C1272 C1269 1.463 . S
C1272 N1276 1.427 . S
C1273 H1263 0.929 . S
C1273 C1271 1.433 . S
C1273 N1276 1.384 . S
C1274 H1265 0.929 . S
C1274 C1266 1.378 . S
C1274 C1269 1.350 . S
C1275 H1262 0.929 . S
C1275 C1267 1.433 . S
C1275 N1277 1.384 . S
N1276 C1272 1.427 . S
N1276 C1273 1.384 . S
N1277 C1269 1.427 . S
N1277 C1275 1.384 . S
H1278 C1284 0.930 . S
H1279 C1288 0.930 . S
H1280 C1293 0.929 . S
H1281 C1291 0.929 . S
H1282 C1286 0.929 . S
H1283 C1292 0.929 . S
C1284 H1278 0.930 . S
C1284 C1285 1.367 . S
C1284 C1292 1.378 . S
C1285 C1284 1.367 . S
C1285 C1293 1.433 . S
C1286 H1282 0.929 . S
C1286 C1288 1.378 . S
C1286 C1290 1.350 . S
C1287 C1290 1.463 . S
C1287 C1292 1.350 . S
C1287 N1295 1.427 . S
C1288 H1279 0.930 . S
C1288 C1286 1.378 . S
C1288 C1289 1.367 . S
C1289 C1288 1.367 . S
C1289 C1291 1.433 . S
C1290 C1286 1.350 . S
C1290 C1287 1.463 . S
C1290 N1294 1.427 . S
C1291 H1281 0.929 . S
C1291 C1289 1.433 . S
C1291 N1294 1.384 . S
C1292 H1283 0.929 . S
C1292 C1284 1.378 . S
C1292 C1287 1.350 . S
C1293 H1280 0.929 . S
C1293 C1285 1.433 . S
C1293 N1295 1.384 . S
N1294 C1290 1.427 . S
N1294 C1291 1.384 . S
N1295 C1287 1.427 . S
N1295 C1293 1.384 . S
H1296 C1302 0.930 . S
H1297 C1306 0.930 . S
H1298 C1311 0.929 . S
H1299 C1309 0.929 . S
H1300 C1304 0.929 . S
H1301 C1310 0.929 . S
C1302 H1296 0.930 . S
C1302 C1303 1.367 . S
C1302 C1310 1.378 . S
C1303 C1302 1.367 . S
C1303 C1311 1.433 . S
C1304 H1300 0.929 . S
C1304 C1306 1.378 . S
C1304 C1308 1.350 . S
C1305 C1308 1.463 . S
C1305 C1310 1.350 . S
C1305 N1313 1.427 . S
C1306 H1297 0.930 . S
C1306 C1304 1.378 . S
C1306 C1307 1.367 . S
C1307 C1306 1.367 . S
C1307 C1309 1.433 . S
C1308 C1304 1.350 . S
C1308 C1305 1.463 . S
C1308 N1312 1.427 . S
C1309 H1299 0.929 . S
C1309 C1307 1.433 . S
C1309 N1312 1.384 . S
C1310 H1301 0.929 . S
C1310 C1302 1.378 . S
C1310 C1305 1.350 . S
C1311 H1298 0.929 . S
C1311 C1303 1.433 . S
C1311 N1313 1.384 . S
N1312 C1308 1.427 . S
N1312 C1309 1.384 . S
N1313 C1305 1.427 . S
N1313 C1311 1.384 . S
H1314 C1320 0.930 . S
H1315 C1324 0.930 . S
H1316 C1329 0.929 1_556 S
H1317 C1327 0.929 . S
H1318 C1322 0.929 . S
H1319 C1328 0.929 . S
C1320 H1314 0.930 . S
C1320 C1321 1.367 . S
C1320 C1328 1.378 . S
C1321 C1320 1.367 . S
C1321 C1329 1.433 . S
C1322 H1318 0.929 . S
C1322 C1324 1.378 . S
C1322 C1326 1.350 . S
C1323 C1326 1.463 . S
C1323 C1328 1.350 . S
C1323 N1331 1.427 . S
C1324 H1315 0.930 . S
C1324 C1322 1.378 . S
C1324 C1325 1.367 . S
C1325 C1324 1.367 . S
C1325 C1327 1.433 . S
C1326 C1322 1.350 . S
C1326 C1323 1.463 . S
C1326 N1330 1.427 . S
C1327 H1317 0.929 . S
C1327 C1325 1.433 . S
C1327 N1330 1.384 . S
C1328 H1319 0.929 . S
C1328 C1320 1.378 . S
C1328 C1323 1.350 . S
C1329 H1316 0.929 1_554 S
C1329 C1321 1.433 . S
C1329 N1331 1.384 . S
N1330 C1326 1.427 . S
N1330 C1327 1.384 . S
N1331 C1323 1.427 . S
N1331 C1329 1.384 . S
H1332 C1338 0.930 . S
H1333 C1342 0.930 . S
H1334 C1347 0.929 . S
H1335 C1345 0.929 . S
H1336 C1340 0.929 . S
H1337 C1346 0.929 . S
C1338 H1332 0.930 . S
C1338 C1339 1.367 . S
C1338 C1346 1.378 . S
C1339 C1338 1.367 . S
C1339 C1347 1.433 . S
C1340 H1336 0.929 . S
C1340 C1342 1.378 . S
C1340 C1344 1.350 . S
C1341 C1344 1.463 . S
C1341 C1346 1.350 . S
C1341 N1349 1.427 . S
C1342 H1333 0.930 . S
C1342 C1340 1.378 . S
C1342 C1343 1.367 . S
C1343 C1342 1.367 . S
C1343 C1345 1.433 . S
C1344 C1340 1.350 . S
C1344 C1341 1.463 . S
C1344 N1348 1.427 . S
C1345 H1335 0.929 . S
C1345 C1343 1.433 . S
C1345 N1348 1.384 . S
C1346 H1337 0.929 . S
C1346 C1338 1.378 . S
C1346 C1341 1.350 . S
C1347 H1334 0.929 . S
C1347 C1339 1.433 . S
C1347 N1349 1.384 . S
N1348 C1344 1.427 . S
N1348 C1345 1.384 . S
N1349 C1341 1.427 . S
N1349 C1347 1.384 . S
H1350 C1356 0.930 . S
H1351 C1360 0.930 . S
H1352 C1365 0.929 . S
H1353 C1363 0.929 . S
H1354 C1358 0.929 . S
H1355 C1364 0.929 . S
C1356 H1350 0.930 . S
C1356 C1357 1.367 . S
C1356 C1364 1.378 . S
C1357 C1356 1.367 . S
C1357 C1365 1.433 . S
C1358 H1354 0.929 . S
C1358 C1360 1.378 . S
C1358 C1362 1.350 . S
C1359 C1362 1.463 . S
C1359 C1364 1.350 . S
C1359 N1367 1.427 . S
C1360 H1351 0.930 . S
C1360 C1358 1.378 . S
C1360 C1361 1.367 . S
C1361 C1360 1.367 . S
C1361 C1363 1.433 . S
C1362 C1358 1.350 . S
C1362 C1359 1.463 . S
C1362 N1366 1.427 . S
C1363 H1353 0.929 . S
C1363 C1361 1.433 . S
C1363 N1366 1.384 . S
C1364 H1355 0.929 . S
C1364 C1356 1.378 . S
C1364 C1359 1.350 . S
C1365 H1352 0.929 . S
C1365 C1357 1.433 . S
C1365 N1367 1.384 . S
N1366 C1362 1.427 . S
N1366 C1363 1.384 . S
N1367 C1359 1.427 . S
N1367 C1365 1.384 . S
H1368 C1374 0.930 . S
H1369 C1378 0.930 . S
H1370 C1383 0.929 . S
H1371 C1381 0.929 . S
H1372 C1376 0.929 . S
H1373 C1382 0.929 . S
C1374 H1368 0.930 . S
C1374 C1375 1.367 . S
C1374 C1382 1.378 . S
C1375 C1374 1.367 . S
C1375 C1383 1.433 . S
C1376 H1372 0.929 . S
C1376 C1378 1.378 . S
C1376 C1380 1.350 . S
C1377 C1380 1.463 . S
C1377 C1382 1.350 . S
C1377 N1385 1.427 . S
C1378 H1369 0.930 . S
C1378 C1376 1.378 . S
C1378 C1379 1.367 . S
C1379 C1378 1.367 . S
C1379 C1381 1.433 . S
C1380 C1376 1.350 . S
C1380 C1377 1.463 . S
C1380 N1384 1.427 . S
C1381 H1371 0.929 . S
C1381 C1379 1.433 . S
C1381 N1384 1.384 . S
C1382 H1373 0.929 . S
C1382 C1374 1.378 . S
C1382 C1377 1.350 . S
C1383 H1370 0.929 . S
C1383 C1375 1.433 . S
C1383 N1385 1.384 . S
N1384 C1380 1.427 . S
N1384 C1381 1.384 . S
N1385 C1377 1.427 . S
N1385 C1383 1.384 . S
H1386 C1392 0.930 . S
H1387 C1396 0.930 . S
H1388 C1401 0.929 . S
H1389 C1399 0.929 . S
H1390 C1394 0.929 . S
H1391 C1400 0.929 . S
C1392 H1386 0.930 . S
C1392 C1393 1.367 . S
C1392 C1400 1.378 . S
C1393 C1392 1.367 . S
C1393 C1401 1.433 . S
C1394 H1390 0.929 . S
C1394 C1396 1.378 . S
C1394 C1398 1.350 . S
C1395 C1398 1.463 . S
C1395 C1400 1.350 . S
C1395 N1403 1.427 . S
C1396 H1387 0.930 . S
C1396 C1394 1.378 . S
C1396 C1397 1.367 . S
C1397 C1396 1.367 . S
C1397 C1399 1.433 . S
C1398 C1394 1.350 . S
C1398 C1395 1.463 . S
C1398 N1402 1.427 . S
C1399 H1389 0.929 . S
C1399 C1397 1.433 . S
C1399 N1402 1.384 . S
C1400 H1391 0.929 . S
C1400 C1392 1.378 . S
C1400 C1395 1.350 . S
C1401 H1388 0.929 . S
C1401 C1393 1.433 . S
C1401 N1403 1.384 . S
N1402 C1398 1.427 . S
N1402 C1399 1.384 . S
N1403 C1395 1.427 . S
N1403 C1401 1.384 . S
H1404 C1410 0.930 . S
H1405 C1414 0.930 . S
H1406 C1419 0.929 . S
H1407 C1417 0.929 . S
H1408 C1412 0.929 . S
H1409 C1418 0.929 . S
C1410 H1404 0.930 . S
C1410 C1411 1.367 . S
C1410 C1418 1.378 . S
C1411 C1410 1.367 . S
C1411 C1419 1.433 . S
C1412 H1408 0.929 . S
C1412 C1414 1.378 . S
C1412 C1416 1.350 . S
C1413 C1416 1.463 . S
C1413 C1418 1.350 . S
C1413 N1421 1.427 . S
C1414 H1405 0.930 . S
C1414 C1412 1.378 . S
C1414 C1415 1.367 . S
C1415 C1414 1.367 . S
C1415 C1417 1.433 . S
C1416 C1412 1.350 . S
C1416 C1413 1.463 . S
C1416 N1420 1.427 . S
C1417 H1407 0.929 . S
C1417 C1415 1.433 . S
C1417 N1420 1.384 . S
C1418 H1409 0.929 . S
C1418 C1410 1.378 . S
C1418 C1413 1.350 . S
C1419 H1406 0.929 . S
C1419 C1411 1.433 . S
C1419 N1421 1.384 . S
N1420 C1416 1.427 . S
N1420 C1417 1.384 . S
N1421 C1413 1.427 . S
N1421 C1419 1.384 . S
H1422 C1428 0.930 . S
H1423 C1432 0.930 . S
H1424 C1437 0.929 . S
H1425 C1435 0.929 . S
H1426 C1430 0.929 . S
H1427 C1436 0.929 . S
C1428 H1422 0.930 . S
C1428 C1429 1.367 . S
C1428 C1436 1.378 . S
C1429 C1428 1.367 . S
C1429 C1437 1.433 . S
C1430 H1426 0.929 . S
C1430 C1432 1.378 . S
C1430 C1434 1.350 . S
C1431 C1434 1.463 . S
C1431 C1436 1.350 . S
C1431 N1439 1.427 . S
C1432 H1423 0.930 . S
C1432 C1430 1.378 . S
C1432 C1433 1.367 . S
C1433 C1432 1.367 . S
C1433 C1435 1.433 . S
C1434 C1430 1.350 . S
C1434 C1431 1.463 . S
C1434 N1438 1.427 . S
C1435 H1425 0.929 . S
C1435 C1433 1.433 . S
C1435 N1438 1.384 . S
C1436 H1427 0.929 . S
C1436 C1428 1.378 . S
C1436 C1431 1.350 . S
C1437 H1424 0.929 . S
C1437 C1429 1.433 . S
C1437 N1439 1.384 . S
N1438 C1434 1.427 . S
N1438 C1435 1.384 . S
N1439 C1431 1.427 . S
N1439 C1437 1.384 . S
H1440 C1446 0.930 . S
H1441 C1450 0.930 . S
H1442 C1455 0.929 . S
H1443 C1453 0.929 . S
H1444 C1448 0.929 . S
H1445 C1454 0.929 . S
C1446 H1440 0.930 . S
C1446 C1447 1.367 . S
C1446 C1454 1.378 . S
C1447 C1446 1.367 . S
C1447 C1455 1.433 . S
C1448 H1444 0.929 . S
C1448 C1450 1.378 . S
C1448 C1452 1.350 . S
C1449 C1452 1.463 . S
C1449 C1454 1.350 . S
C1449 N1457 1.427 . S
C1450 H1441 0.930 . S
C1450 C1448 1.378 . S
C1450 C1451 1.367 . S
C1451 C1450 1.367 . S
C1451 C1453 1.433 . S
C1452 C1448 1.350 . S
C1452 C1449 1.463 . S
C1452 N1456 1.427 . S
C1453 H1443 0.929 . S
C1453 C1451 1.433 . S
C1453 N1456 1.384 . S
C1454 H1445 0.929 . S
C1454 C1446 1.378 . S
C1454 C1449 1.350 . S
C1455 H1442 0.929 . S
C1455 C1447 1.433 . S
C1455 N1457 1.384 . S
N1456 C1452 1.427 . S
N1456 C1453 1.384 . S
N1457 C1449 1.427 . S
N1457 C1455 1.384 . S
H1458 C1464 0.930 . S
H1459 C1468 0.930 . S
H1460 C1473 0.929 . S
H1461 C1471 0.929 . S
H1462 C1466 0.929 . S
H1463 C1472 0.929 . S
C1464 H1458 0.930 . S
C1464 C1465 1.367 . S
C1464 C1472 1.378 . S
C1465 C1464 1.367 . S
C1465 C1473 1.433 . S
C1466 H1462 0.929 . S
C1466 C1468 1.378 . S
C1466 C1470 1.350 . S
C1467 C1470 1.463 . S
C1467 C1472 1.350 . S
C1467 N1475 1.427 . S
C1468 H1459 0.930 . S
C1468 C1466 1.378 . S
C1468 C1469 1.367 . S
C1469 C1468 1.367 . S
C1469 C1471 1.433 . S
C1470 C1466 1.350 . S
C1470 C1467 1.463 . S
C1470 N1474 1.427 . S
C1471 H1461 0.929 . S
C1471 C1469 1.433 . S
C1471 N1474 1.384 . S
C1472 H1463 0.929 . S
C1472 C1464 1.378 . S
C1472 C1467 1.350 . S
C1473 H1460 0.929 . S
C1473 C1465 1.433 . S
C1473 N1475 1.384 . S
N1474 C1470 1.427 . S
N1474 C1471 1.384 . S
N1475 C1467 1.427 . S
N1475 C1473 1.384 . S
H1476 C1482 0.930 . S
H1477 C1486 0.930 . S
H1478 C1491 0.929 . S
H1479 C1489 0.929 . S
H1480 C1484 0.929 . S
H1481 C1490 0.929 . S
C1482 H1476 0.930 . S
C1482 C1483 1.367 . S
C1482 C1490 1.378 . S
C1483 C1482 1.367 . S
C1483 C1491 1.433 1_554 S
C1484 H1480 0.929 . S
C1484 C1486 1.378 . S
C1484 C1488 1.350 . S
C1485 C1488 1.463 . S
C1485 C1490 1.350 . S
C1485 N1493 1.427 . S
C1486 H1477 0.930 . S
C1486 C1484 1.378 . S
C1486 C1487 1.367 . S
C1487 C1486 1.367 . S
C1487 C1489 1.433 . S
C1488 C1484 1.350 . S
C1488 C1485 1.463 . S
C1488 N1492 1.427 . S
C1489 H1479 0.929 . S
C1489 C1487 1.433 . S
C1489 N1492 1.384 . S
C1490 H1481 0.929 . S
C1490 C1482 1.378 . S
C1490 C1485 1.350 . S
C1491 H1478 0.929 . S
C1491 C1483 1.433 1_556 S
C1491 N1493 1.384 1_556 S
N1492 C1488 1.427 . S
N1492 C1489 1.384 . S
N1493 C1485 1.427 . S
N1493 C1491 1.384 1_554 S
H1494 C1500 0.930 . S
H1495 C1504 0.930 . S
H1496 C1509 0.929 . S
H1497 C1507 0.929 . S
H1498 C1502 0.929 . S
H1499 C1508 0.929 . S
C1500 H1494 0.930 . S
C1500 C1501 1.367 . S
C1500 C1508 1.378 . S
C1501 C1500 1.367 . S
C1501 C1509 1.433 . S
C1502 H1498 0.929 . S
C1502 C1504 1.378 . S
C1502 C1506 1.350 . S
C1503 C1506 1.463 . S
C1503 C1508 1.350 . S
C1503 N1511 1.427 . S
C1504 H1495 0.930 . S
C1504 C1502 1.378 . S
C1504 C1505 1.367 . S
C1505 C1504 1.367 . S
C1505 C1507 1.433 1_554 S
C1506 C1502 1.350 . S
C1506 C1503 1.463 . S
C1506 N1510 1.427 . S
C1507 H1497 0.929 . S
C1507 C1505 1.433 1_556 S
C1507 N1510 1.384 1_556 S
C1508 H1499 0.929 . S
C1508 C1500 1.378 . S
C1508 C1503 1.350 . S
C1509 H1496 0.929 . S
C1509 C1501 1.433 . S
C1509 N1511 1.384 . S
N1510 C1506 1.427 . S
N1510 C1507 1.384 1_554 S
N1511 C1503 1.427 . S
N1511 C1509 1.384 . S
H1512 C1518 0.930 . S
H1513 C1522 0.930 . S
H1514 C1527 0.929 1_556 S
H1515 C1525 0.929 . S
H1516 C1520 0.929 . S
H1517 C1526 0.929 . S
C1518 H1512 0.930 . S
C1518 C1519 1.367 . S
C1518 C1526 1.378 . S
C1519 C1518 1.367 . S
C1519 C1527 1.433 . S
C1520 H1516 0.929 . S
C1520 C1522 1.378 . S
C1520 C1524 1.350 . S
C1521 C1524 1.463 . S
C1521 C1526 1.350 . S
C1521 N1529 1.427 . S
C1522 H1513 0.930 . S
C1522 C1520 1.378 . S
C1522 C1523 1.367 . S
C1523 C1522 1.367 . S
C1523 C1525 1.433 . S
C1524 C1520 1.350 . S
C1524 C1521 1.463 . S
C1524 N1528 1.427 . S
C1525 H1515 0.929 . S
C1525 C1523 1.433 . S
C1525 N1528 1.384 . S
C1526 H1517 0.929 . S
C1526 C1518 1.378 . S
C1526 C1521 1.350 . S
C1527 H1514 0.929 1_554 S
C1527 C1519 1.433 . S
C1527 N1529 1.384 . S
N1528 C1524 1.427 . S
N1528 C1525 1.384 . S
N1529 C1521 1.427 . S
N1529 C1527 1.384 . S
H1530 C1536 0.930 . S
H1531 C1540 0.930 . S
H1532 C1545 0.929 . S
H1533 C1543 0.929 . S
H1534 C1538 0.929 . S
H1535 C1544 0.929 . S
C1536 H1530 0.930 . S
C1536 C1537 1.367 . S
C1536 C1544 1.378 . S
C1537 C1536 1.367 . S
C1537 C1545 1.433 . S
C1538 H1534 0.929 . S
C1538 C1540 1.378 . S
C1538 C1542 1.350 . S
C1539 C1542 1.463 . S
C1539 C1544 1.350 . S
C1539 N1547 1.427 . S
C1540 H1531 0.930 . S
C1540 C1538 1.378 . S
C1540 C1541 1.367 . S
C1541 C1540 1.367 . S
C1541 C1543 1.433 . S
C1542 C1538 1.350 . S
C1542 C1539 1.463 . S
C1542 N1546 1.427 . S
C1543 H1533 0.929 . S
C1543 C1541 1.433 . S
C1543 N1546 1.384 . S
C1544 H1535 0.929 . S
C1544 C1536 1.378 . S
C1544 C1539 1.350 . S
C1545 H1532 0.929 . S
C1545 C1537 1.433 . S
C1545 N1547 1.384 . S
N1546 C1542 1.427 . S
N1546 C1543 1.384 . S
N1547 C1539 1.427 . S
N1547 C1545 1.384 . S
H1548 C1554 0.930 . S
H1549 C1558 0.930 . S
H1550 C1563 0.929 . S
H1551 C1561 0.929 . S
H1552 C1556 0.929 . S
H1553 C1562 0.929 . S
C1554 H1548 0.930 . S
C1554 C1555 1.367 . S
C1554 C1562 1.378 . S
C1555 C1554 1.367 . S
C1555 C1563 1.433 . S
C1556 H1552 0.929 . S
C1556 C1558 1.378 . S
C1556 C1560 1.350 . S
C1557 C1560 1.463 . S
C1557 C1562 1.350 . S
C1557 N1565 1.427 . S
C1558 H1549 0.930 . S
C1558 C1556 1.378 . S
C1558 C1559 1.367 . S
C1559 C1558 1.367 . S
C1559 C1561 1.433 . S
C1560 C1556 1.350 . S
C1560 C1557 1.463 . S
C1560 N1564 1.427 . S
C1561 H1551 0.929 . S
C1561 C1559 1.433 . S
C1561 N1564 1.384 . S
C1562 H1553 0.929 . S
C1562 C1554 1.378 . S
C1562 C1557 1.350 . S
C1563 H1550 0.929 . S
C1563 C1555 1.433 . S
C1563 N1565 1.384 . S
N1564 C1560 1.427 . S
N1564 C1561 1.384 . S
N1565 C1557 1.427 . S
N1565 C1563 1.384 . S
H1566 C1572 0.930 . S
H1567 C1576 0.930 . S
H1568 C1581 0.929 . S
H1569 C1579 0.929 . S
H1570 C1574 0.929 . S
H1571 C1580 0.929 . S
C1572 H1566 0.930 . S
C1572 C1573 1.367 . S
C1572 C1580 1.378 . S
C1573 C1572 1.367 . S
C1573 C1581 1.433 . S
C1574 H1570 0.929 . S
C1574 C1576 1.378 . S
C1574 C1578 1.350 . S
C1575 C1578 1.463 . S
C1575 C1580 1.350 . S
C1575 N1583 1.427 . S
C1576 H1567 0.930 . S
C1576 C1574 1.378 . S
C1576 C1577 1.367 . S
C1577 C1576 1.367 . S
C1577 C1579 1.433 . S
C1578 C1574 1.350 . S
C1578 C1575 1.463 . S
C1578 N1582 1.427 . S
C1579 H1569 0.929 . S
C1579 C1577 1.433 . S
C1579 N1582 1.384 . S
C1580 H1571 0.929 . S
C1580 C1572 1.378 . S
C1580 C1575 1.350 . S
C1581 H1568 0.929 . S
C1581 C1573 1.433 . S
C1581 N1583 1.384 . S
N1582 C1578 1.427 . S
N1582 C1579 1.384 . S
N1583 C1575 1.427 . S
N1583 C1581 1.384 . S
H1584 C1590 0.930 . S
H1585 C1594 0.930 . S
H1586 C1599 0.929 . S
H1587 C1597 0.929 . S
H1588 C1592 0.929 1_554 S
H1589 C1598 0.929 . S
C1590 H1584 0.930 . S
C1590 C1591 1.367 . S
C1590 C1598 1.378 . S
C1591 C1590 1.367 . S
C1591 C1599 1.433 . S
C1592 H1588 0.929 1_556 S
C1592 C1594 1.378 1_556 S
C1592 C1596 1.350 . S
C1593 C1596 1.463 . S
C1593 C1598 1.350 . S
C1593 N1601 1.427 . S
C1594 H1585 0.930 . S
C1594 C1592 1.378 1_554 S
C1594 C1595 1.367 1_554 S
C1595 C1594 1.367 1_556 S
C1595 C1597 1.433 . S
C1596 C1592 1.350 . S
C1596 C1593 1.463 . S
C1596 N1600 1.427 . S
C1597 H1587 0.929 . S
C1597 C1595 1.433 . S
C1597 N1600 1.384 . S
C1598 H1589 0.929 . S
C1598 C1590 1.378 . S
C1598 C1593 1.350 . S
C1599 H1586 0.929 . S
C1599 C1591 1.433 . S
C1599 N1601 1.384 . S
N1600 C1596 1.427 . S
N1600 C1597 1.384 . S
N1601 C1593 1.427 . S
N1601 C1599 1.384 . S
H1602 C1608 0.930 . S
H1603 C1612 0.930 . S
H1604 C1617 0.929 . S
H1605 C1615 0.929 . S
H1606 C1610 0.929 . S
H1607 C1616 0.929 1_554 S
C1608 H1602 0.930 . S
C1608 C1609 1.367 1_554 S
C1608 C1616 1.378 1_554 S
C1609 C1608 1.367 1_556 S
C1609 C1617 1.433 . S
C1610 H1606 0.929 . S
C1610 C1612 1.378 . S
C1610 C1614 1.350 . S
C1611 C1614 1.463 . S
C1611 C1616 1.350 . S
C1611 N1619 1.427 . S
C1612 H1603 0.930 . S
C1612 C1610 1.378 . S
C1612 C1613 1.367 . S
C1613 C1612 1.367 . S
C1613 C1615 1.433 . S
C1614 C1610 1.350 . S
C1614 C1611 1.463 . S
C1614 N1618 1.427 . S
C1615 H1605 0.929 . S
C1615 C1613 1.433 . S
C1615 N1618 1.384 . S
C1616 H1607 0.929 1_556 S
C1616 C1608 1.378 1_556 S
C1616 C1611 1.350 . S
C1617 H1604 0.929 . S
C1617 C1609 1.433 . S
C1617 N1619 1.384 . S
N1618 C1614 1.427 . S
N1618 C1615 1.384 . S
N1619 C1611 1.427 . S
N1619 C1617 1.384 . S
H1620 C1626 0.930 . S
H1621 C1630 0.930 1_554 S
H1622 C1635 0.929 . S
H1623 C1633 0.929 . S
H1624 C1628 0.929 . S
H1625 C1634 0.929 . S
C1626 H1620 0.930 . S
C1626 C1627 1.367 . S
C1626 C1634 1.378 . S
C1627 C1626 1.367 . S
C1627 C1635 1.433 . S
C1628 H1624 0.929 . S
C1628 C1630 1.378 . S
C1628 C1632 1.350 . S
C1629 C1632 1.463 . S
C1629 C1634 1.350 . S
C1629 N1637 1.427 . S
C1630 H1621 0.930 1_556 S
C1630 C1628 1.378 . S
C1630 C1631 1.367 . S
C1631 C1630 1.367 . S
C1631 C1633 1.433 . S
C1632 C1628 1.350 . S
C1632 C1629 1.463 . S
C1632 N1636 1.427 . S
C1633 H1623 0.929 . S
C1633 C1631 1.433 . S
C1633 N1636 1.384 . S
C1634 H1625 0.929 . S
C1634 C1626 1.378 . S
C1634 C1629 1.350 . S
C1635 H1622 0.929 . S
C1635 C1627 1.433 . S
C1635 N1637 1.384 . S
N1636 C1632 1.427 . S
N1636 C1633 1.384 . S
N1637 C1629 1.427 . S
N1637 C1635 1.384 . S
H1638 C1644 0.930 . S
H1639 C1648 0.930 . S
H1640 C1653 0.929 . S
H1641 C1651 0.929 . S
H1642 C1646 0.929 . S
H1643 C1652 0.929 . S
C1644 H1638 0.930 . S
C1644 C1645 1.367 . S
C1644 C1652 1.378 . S
C1645 C1644 1.367 . S
C1645 C1653 1.433 . S
C1646 H1642 0.929 . S
C1646 C1648 1.378 . S
C1646 C1650 1.350 . S
C1647 C1650 1.463 . S
C1647 C1652 1.350 . S
C1647 N1655 1.427 . S
C1648 H1639 0.930 . S
C1648 C1646 1.378 . S
C1648 C1649 1.367 . S
C1649 C1648 1.367 . S
C1649 C1651 1.433 . S
C1650 C1646 1.350 . S
C1650 C1647 1.463 . S
C1650 N1654 1.427 . S
C1651 H1641 0.929 . S
C1651 C1649 1.433 . S
C1651 N1654 1.384 . S
C1652 H1643 0.929 . S
C1652 C1644 1.378 . S
C1652 C1647 1.350 . S
C1653 H1640 0.929 . S
C1653 C1645 1.433 . S
C1653 N1655 1.384 . S
N1654 C1650 1.427 . S
N1654 C1651 1.384 . S
N1655 C1647 1.427 . S
N1655 C1653 1.384 . S
H1656 C1662 0.930 . S
H1657 C1666 0.930 . S
H1658 C1671 0.929 . S
H1659 C1669 0.929 . S
H1660 C1664 0.929 . S
H1661 C1670 0.929 . S
C1662 H1656 0.930 . S
C1662 C1663 1.367 . S
C1662 C1670 1.378 . S
C1663 C1662 1.367 . S
C1663 C1671 1.433 . S
C1664 H1660 0.929 . S
C1664 C1666 1.378 . S
C1664 C1668 1.350 . S
C1665 C1668 1.463 . S
C1665 C1670 1.350 . S
C1665 N1673 1.427 . S
C1666 H1657 0.930 . S
C1666 C1664 1.378 . S
C1666 C1667 1.367 . S
C1667 C1666 1.367 . S
C1667 C1669 1.433 . S
C1668 C1664 1.350 . S
C1668 C1665 1.463 . S
C1668 N1672 1.427 . S
C1669 H1659 0.929 . S
C1669 C1667 1.433 . S
C1669 N1672 1.384 . S
C1670 H1661 0.929 . S
C1670 C1662 1.378 . S
C1670 C1665 1.350 . S
C1671 H1658 0.929 . S
C1671 C1663 1.433 . S
C1671 N1673 1.384 . S
N1672 C1668 1.427 . S
N1672 C1669 1.384 . S
N1673 C1665 1.427 . S
N1673 C1671 1.384 . S
H1674 C1680 0.930 . S
H1675 C1684 0.930 . S
H1676 C1689 0.929 . S
H1677 C1687 0.929 . S
H1678 C1682 0.929 . S
H1679 C1688 0.929 . S
C1680 H1674 0.930 . S
C1680 C1681 1.367 . S
C1680 C1688 1.378 . S
C1681 C1680 1.367 . S
C1681 C1689 1.433 . S
C1682 H1678 0.929 . S
C1682 C1684 1.378 . S
C1682 C1686 1.350 . S
C1683 C1686 1.463 . S
C1683 C1688 1.350 . S
C1683 N1691 1.427 . S
C1684 H1675 0.930 . S
C1684 C1682 1.378 . S
C1684 C1685 1.367 . S
C1685 C1684 1.367 . S
C1685 C1687 1.433 . S
C1686 C1682 1.350 . S
C1686 C1683 1.463 . S
C1686 N1690 1.427 . S
C1687 H1677 0.929 . S
C1687 C1685 1.433 . S
C1687 N1690 1.384 . S
C1688 H1679 0.929 . S
C1688 C1680 1.378 . S
C1688 C1683 1.350 . S
C1689 H1676 0.929 . S
C1689 C1681 1.433 . S
C1689 N1691 1.384 . S
N1690 C1686 1.427 . S
N1690 C1687 1.384 . S
N1691 C1683 1.427 . S
N1691 C1689 1.384 . S
H1692 C1698 0.930 . S
H1693 C1702 0.930 . S
H1694 C1707 0.929 . S
H1695 C1705 0.929 . S
H1696 C1700 0.929 . S
H1697 C1706 0.929 . S
C1698 H1692 0.930 . S
C1698 C1699 1.367 . S
C1698 C1706 1.378 . S
C1699 C1698 1.367 . S
C1699 C1707 1.433 . S
C1700 H1696 0.929 . S
C1700 C1702 1.378 . S
C1700 C1704 1.350 . S
C1701 C1704 1.463 1_455 S
C1701 C1706 1.350 . S
C1701 N1709 1.427 . S
C1702 H1693 0.930 . S
C1702 C1700 1.378 . S
C1702 C1703 1.367 . S
C1703 C1702 1.367 . S
C1703 C1705 1.433 . S
C1704 C1700 1.350 . S
C1704 C1701 1.463 1_655 S
C1704 N1708 1.427 . S
C1705 H1695 0.929 . S
C1705 C1703 1.433 . S
C1705 N1708 1.384 . S
C1706 H1697 0.929 . S
C1706 C1698 1.378 . S
C1706 C1701 1.350 . S
C1707 H1694 0.929 . S
C1707 C1699 1.433 . S
C1707 N1709 1.384 . S
N1708 C1704 1.427 . S
N1708 C1705 1.384 . S
N1709 C1701 1.427 . S
N1709 C1707 1.384 . S
H1710 C1716 0.930 . S
H1711 C1720 0.930 . S
H1712 C1725 0.929 . S
H1713 C1723 0.929 . S
H1714 C1718 0.929 . S
H1715 C1724 0.929 . S
C1716 H1710 0.930 . S
C1716 C1717 1.367 . S
C1716 C1724 1.378 . S
C1717 C1716 1.367 . S
C1717 C1725 1.433 . S
C1718 H1714 0.929 . S
C1718 C1720 1.378 . S
C1718 C1722 1.350 . S
C1719 C1722 1.463 . S
C1719 C1724 1.350 . S
C1719 N1727 1.427 . S
C1720 H1711 0.930 . S
C1720 C1718 1.378 . S
C1720 C1721 1.367 . S
C1721 C1720 1.367 . S
C1721 C1723 1.433 . S
C1722 C1718 1.350 . S
C1722 C1719 1.463 . S
C1722 N1726 1.427 . S
C1723 H1713 0.929 . S
C1723 C1721 1.433 . S
C1723 N1726 1.384 . S
C1724 H1715 0.929 . S
C1724 C1716 1.378 . S
C1724 C1719 1.350 . S
C1725 H1712 0.929 . S
C1725 C1717 1.433 . S
C1725 N1727 1.384 . S
N1726 C1722 1.427 . S
N1726 C1723 1.384 . S
N1727 C1719 1.427 . S
N1727 C1725 1.384 . S
H1728 C1734 0.930 . S
H1729 C1738 0.930 . S
H1730 C1743 0.929 . S
H1731 C1741 0.929 . S
H1732 C1736 0.929 . S
H1733 C1742 0.929 . S
C1734 H1728 0.930 . S
C1734 C1735 1.367 . S
C1734 C1742 1.378 . S
C1735 C1734 1.367 . S
C1735 C1743 1.433 . S
C1736 H1732 0.929 . S
C1736 C1738 1.378 . S
C1736 C1740 1.350 . S
C1737 C1740 1.463 1_565 S
C1737 C1742 1.350 . S
C1737 N1745 1.427 . S
C1738 H1729 0.930 . S
C1738 C1736 1.378 . S
C1738 C1739 1.367 . S
C1739 C1738 1.367 . S
C1739 C1741 1.433 . S
C1740 C1736 1.350 . S
C1740 C1737 1.463 1_545 S
C1740 N1744 1.427 . S
C1741 H1731 0.929 . S
C1741 C1739 1.433 . S
C1741 N1744 1.384 . S
C1742 H1733 0.929 . S
C1742 C1734 1.378 . S
C1742 C1737 1.350 . S
C1743 H1730 0.929 . S
C1743 C1735 1.433 . S
C1743 N1745 1.384 . S
N1744 C1740 1.427 . S
N1744 C1741 1.384 . S
N1745 C1737 1.427 . S
N1745 C1743 1.384 . S
H1746 C1752 0.930 . S
H1747 C1756 0.930 . S
H1748 C1761 0.929 . S
H1749 C1759 0.929 . S
H1750 C1754 0.929 . S
H1751 C1760 0.929 . S
C1752 H1746 0.930 . S
C1752 C1753 1.367 . S
C1752 C1760 1.378 . S
C1753 C1752 1.367 . S
C1753 C1761 1.433 . S
C1754 H1750 0.929 . S
C1754 C1756 1.378 . S
C1754 C1758 1.350 . S
C1755 C1758 1.463 1_545 S
C1755 C1760 1.350 . S
C1755 N1763 1.427 . S
C1756 H1747 0.930 . S
C1756 C1754 1.378 . S
C1756 C1757 1.367 . S
C1757 C1756 1.367 . S
C1757 C1759 1.433 . S
C1758 C1754 1.350 . S
C1758 C1755 1.463 1_565 S
C1758 N1762 1.427 . S
C1759 H1749 0.929 . S
C1759 C1757 1.433 . S
C1759 N1762 1.384 . S
C1760 H1751 0.929 . S
C1760 C1752 1.378 . S
C1760 C1755 1.350 . S
C1761 H1748 0.929 . S
C1761 C1753 1.433 . S
C1761 N1763 1.384 . S
N1762 C1758 1.427 . S
N1762 C1759 1.384 . S
N1763 C1755 1.427 . S
N1763 C1761 1.384 . S
H1764 C1770 0.930 . S
H1765 C1774 0.930 . S
H1766 C1779 0.929 . S
H1767 C1777 0.929 . S
H1768 C1772 0.929 1_455 S
H1769 C1778 0.929 1_655 S
C1770 H1764 0.930 . S
C1770 C1771 1.367 . S
C1770 C1778 1.378 . S
C1771 C1770 1.367 . S
C1771 C1779 1.433 . S
C1772 H1768 0.929 1_655 S
C1772 C1774 1.378 . S
C1772 C1776 1.350 . S
C1773 C1776 1.463 1_455 S
C1773 C1778 1.350 . S
C1773 N1781 1.427 . S
C1774 H1765 0.930 . S
C1774 C1772 1.378 . S
C1774 C1775 1.367 . S
C1775 C1774 1.367 . S
C1775 C1777 1.433 . S
C1776 C1772 1.350 . S
C1776 C1773 1.463 1_655 S
C1776 N1780 1.427 . S
C1777 H1767 0.929 . S
C1777 C1775 1.433 . S
C1777 N1780 1.384 . S
C1778 H1769 0.929 1_455 S
C1778 C1770 1.378 . S
C1778 C1773 1.350 . S
C1779 H1766 0.929 . S
C1779 C1771 1.433 . S
C1779 N1781 1.384 . S
N1780 C1776 1.427 . S
N1780 C1777 1.384 . S
N1781 C1773 1.427 . S
N1781 C1779 1.384 . S
H1782 C1788 0.930 . S
H1783 C1792 0.930 . S
H1784 C1797 0.929 . S
H1785 C1795 0.929 . S
H1786 C1790 0.929 . S
H1787 C1796 0.929 . S
C1788 H1782 0.930 . S
C1788 C1789 1.367 . S
C1788 C1796 1.378 . S
C1789 C1788 1.367 . S
C1789 C1797 1.433 . S
C1790 H1786 0.929 . S
C1790 C1792 1.378 . S
C1790 C1794 1.350 . S
C1791 C1794 1.463 . S
C1791 C1796 1.350 . S
C1791 N1799 1.427 . S
C1792 H1783 0.930 . S
C1792 C1790 1.378 . S
C1792 C1793 1.367 . S
C1793 C1792 1.367 . S
C1793 C1795 1.433 . S
C1794 C1790 1.350 . S
C1794 C1791 1.463 . S
C1794 N1798 1.427 . S
C1795 H1785 0.929 . S
C1795 C1793 1.433 . S
C1795 N1798 1.384 . S
C1796 H1787 0.929 . S
C1796 C1788 1.378 . S
C1796 C1791 1.350 . S
C1797 H1784 0.929 . S
C1797 C1789 1.433 . S
C1797 N1799 1.384 . S
N1798 C1794 1.427 . S
N1798 C1795 1.384 . S
N1799 C1791 1.427 . S
N1799 C1797 1.384 . S
C511 C48 1.291 . S
C515 C6 1.294 . S
C529 C62 1.274 . S
C533 C20 1.277 . S
C547 C76 1.288 . S
C551 C34 1.292 . S
C565 C90 1.287 . S
C569 C132 1.280 . S
C583 C104 1.286 . S
C587 C146 1.280 . S
C601 C160 1.281 . S
C605 C118 1.276 . S
C619 C174 1.281 . S
C623 C216 1.276 . S
C637 C188 1.279 . S
C641 C230 1.275 . S
C655 C202 1.285 . S
C659 C244 1.279 . S
C673 C258 1.276 . S
C677 C300 1.281 . S
C691 C314 1.293 . S
C695 C272 1.290 . S
C709 C286 1.293 . S
C713 C328 1.292 . S
C727 C342 1.289 . S
C731 C384 1.283 . S
C745 C356 1.275 . S
C749 C398 1.275 . S
C763 C412 1.277 . S
C767 C370 1.274 . S
C781 C468 1.293 . S
C785 C426 1.292 . S
C799 C482 1.289 . S
C803 C440 1.283 . S
C817 C496 1.275 . S
C821 C454 1.279 . S
C835 C161 1.532 . S
C839 C9 1.586 . S
C853 C23 1.588 . S
C857 C133 1.536 . S
C871 C37 1.590 . S
C875 C147 1.521 . S
C889 C105 1.520 . S
C893 C51 1.591 . S
C907 C65 1.594 . S
C911 C119 1.526 . S
C925 C91 1.533 . S
C929 C79 1.587 . S
C943 C93 1.586 . S
C947 C77 1.535 . S
C961 C107 1.589 . S
C965 C49 1.537 . S
C979 C63 1.532 . S
C983 C121 1.586 . S
C997 C21 1.522 . S
C1001 C135 1.589 . S
C1015 C35 1.527 . S
C1019 C149 1.587 . S
C1033 C163 1.587 . S
C1037 C7 1.535 . S
C1051 C177 1.593 . S
C1055 C329 1.522 . S
C1069 C301 1.531 . S
C1073 C191 1.593 . S
C1087 C315 1.520 . S
C1091 C205 1.591 . S
C1105 C219 1.593 . S
C1109 C273 1.531 . S
C1123 C287 1.520 . S
C1127 C233 1.592 . S
C1141 C247 1.587 . S
C1145 C259 1.535 . S
C1159 C261 1.592 . S
C1163 C245 1.520 . S
C1177 C275 1.592 . S
C1181 C217 1.533 . S
C1195 C231 1.529 . S
C1199 C289 1.594 . S
C1213 C189 1.535 . S
C1217 C303 1.591 1_556 S
C1231 C203 1.535 . S
C1235 C317 1.591 1_556 S
C1249 C331 1.594 1_556 S
C1253 C175 1.523 . S
C1267 C497 1.534 . S
C1271 C345 1.586 . S
C1285 C359 1.587 . S
C1289 C469 1.529 . S
C1303 C373 1.589 . S
C1307 C483 1.523 . S
C1321 C387 1.592 1_554 S
C1325 C441 1.532 . S
C1339 C455 1.530 . S
C1343 C401 1.586 1_554 S
C1357 C415 1.588 1_554 S
C1361 C427 1.537 . S
C1375 C413 1.536 . S
C1379 C429 1.588 . S
C1393 C385 1.521 . S
C1397 C443 1.593 . S
C1411 C399 1.530 . S
C1415 C457 1.593 . S
C1429 C357 1.531 . S
C1433 C471 1.587 . S
C1447 C371 1.527 . S
C1451 C485 1.586 . S
C1465 C343 1.521 . S
C1469 C499 1.590 . S
C1483 C414 1.173 1_554 S
C1487 C8 1.174 . S
C1501 C22 1.173 . S
C1505 C386 1.176 1_554 S
C1519 C400 1.178 1_554 S
C1523 C36 1.175 . S
C1537 C50 1.173 . S
C1541 C190 1.176 . S
C1555 C204 1.183 . S
C1559 C64 1.181 . S
C1573 C78 1.177 . S
C1577 C176 1.180 . S
C1591 C92 1.183 . S
C1595 C330 1.184 1_556 S
C1609 C302 1.183 1_556 S
C1613 C106 1.183 . S
C1627 C120 1.177 . S
C1631 C316 1.180 1_556 S
C1645 C134 1.183 . S
C1649 C442 1.182 . S
C1663 C148 1.174 . S
C1667 C456 1.172 . S
C1681 C428 1.183 . S
C1685 C162 1.183 . S
C1699 C358 1.175 . S
C1703 C218 1.173 . S
C1717 C372 1.173 . S
C1721 C232 1.176 . S
C1735 C344 1.175 . S
C1739 C246 1.177 . S
C1753 C260 1.174 . S
C1757 C498 1.173 . S
C1771 C470 1.183 . S
C1775 C274 1.183 . S
C1789 C288 1.183 . S
C1793 C484 1.181 . S
