# Generated by pormake.
# Topology wgl, (5)-cn, num edge types: 1
# Building blocks:
#     Node 0, Type 0, BuildingBlock: BEQFEK_clean_sbu_0, # of connection points: 5
#     Node 1, Type 0, BuildingBlock: BEQFEK_clean_sbu_0, # of connection points: 5
#     Node 2, Type 0, BuildingBlock: BEQFEK_clean_sbu_0, # of connection points: 5
#     Node 3, Type 0, BuildingBlock: BEQFEK_clean_sbu_0, # of connection points: 5
#     Node 4, Type 0, BuildingBlock: BEQFEK_clean_sbu_0, # of connection points: 5
#     Node 5, Type 0, BuildingBlock: BEQFEK_clean_sbu_0, # of connection points: 5
#     Node 6, Type 0, BuildingBlock: BEQFEK_clean_sbu_0, # of connection points: 5
#     Node 7, Type 0, BuildingBlock: BEQFEK_clean_sbu_0, # of connection points: 5
#     Node 8, Type 0, BuildingBlock: BEQFEK_clean_sbu_0, # of connection points: 5
#     Node 9, Type 0, BuildingBlock: BEQFEK_clean_sbu_0, # of connection points: 5
#     Node 10, Type 0, BuildingBlock: BEQFEK_clean_sbu_0, # of connection points: 5
#     Node 11, Type 0, BuildingBlock: BEQFEK_clean_sbu_0, # of connection points: 5
#     Node 12, Type 0, BuildingBlock: BEQFEK_clean_sbu_0, # of connection points: 5
#     Node 13, Type 0, BuildingBlock: BEQFEK_clean_sbu_0, # of connection points: 5
#     Node 14, Type 0, BuildingBlock: BEQFEK_clean_sbu_0, # of connection points: 5
#     Node 15, Type 0, BuildingBlock: BEQFEK_clean_sbu_0, # of connection points: 5
#     Node 16, Type 0, BuildingBlock: BEQFEK_clean_sbu_0, # of connection points: 5
#     Node 17, Type 0, BuildingBlock: BEQFEK_clean_sbu_0, # of connection points: 5
#     Node 18, Type 0, BuildingBlock: BEQFEK_clean_sbu_0, # of connection points: 5
#     Node 19, Type 0, BuildingBlock: BEQFEK_clean_sbu_0, # of connection points: 5
#     Node 20, Type 0, BuildingBlock: BEQFEK_clean_sbu_0, # of connection points: 5
#     Node 21, Type 0, BuildingBlock: BEQFEK_clean_sbu_0, # of connection points: 5
#     Node 22, Type 0, BuildingBlock: BEQFEK_clean_sbu_0, # of connection points: 5
#     Node 23, Type 0, BuildingBlock: BEQFEK_clean_sbu_0, # of connection points: 5
#     Node 24, Type 0, BuildingBlock: BEQFEK_clean_sbu_0, # of connection points: 5
#     Node 25, Type 0, BuildingBlock: BEQFEK_clean_sbu_0, # of connection points: 5
#     Node 26, Type 0, BuildingBlock: BEQFEK_clean_sbu_0, # of connection points: 5
#     Node 27, Type 0, BuildingBlock: BEQFEK_clean_sbu_0, # of connection points: 5
#     Node 28, Type 0, BuildingBlock: BEQFEK_clean_sbu_0, # of connection points: 5
#     Node 29, Type 0, BuildingBlock: BEQFEK_clean_sbu_0, # of connection points: 5
#     Node 30, Type 0, BuildingBlock: BEQFEK_clean_sbu_0, # of connection points: 5
#     Node 31, Type 0, BuildingBlock: BEQFEK_clean_sbu_0, # of connection points: 5
#     Edge 32, Type (0, 0), BuildingBlock: EZIPEK_clean_linker_0, # of connection points: 2
#     Edge 33, Type (0, 0), BuildingBlock: EZIPEK_clean_linker_0, # of connection points: 2
#     Edge 34, Type (0, 0), BuildingBlock: EZIPEK_clean_linker_0, # of connection points: 2
#     Edge 35, Type (0, 0), BuildingBlock: EZIPEK_clean_linker_0, # of connection points: 2
#     Edge 36, Type (0, 0), BuildingBlock: EZIPEK_clean_linker_0, # of connection points: 2
#     Edge 37, Type (0, 0), BuildingBlock: EZIPEK_clean_linker_0, # of connection points: 2
#     Edge 38, Type (0, 0), BuildingBlock: EZIPEK_clean_linker_0, # of connection points: 2
#     Edge 39, Type (0, 0), BuildingBlock: EZIPEK_clean_linker_0, # of connection points: 2
#     Edge 40, Type (0, 0), BuildingBlock: EZIPEK_clean_linker_0, # of connection points: 2
#     Edge 41, Type (0, 0), BuildingBlock: EZIPEK_clean_linker_0, # of connection points: 2
#     Edge 42, Type (0, 0), BuildingBlock: EZIPEK_clean_linker_0, # of connection points: 2
#     Edge 43, Type (0, 0), BuildingBlock: EZIPEK_clean_linker_0, # of connection points: 2
#     Edge 44, Type (0, 0), BuildingBlock: EZIPEK_clean_linker_0, # of connection points: 2
#     Edge 45, Type (0, 0), BuildingBlock: EZIPEK_clean_linker_0, # of connection points: 2
#     Edge 46, Type (0, 0), BuildingBlock: EZIPEK_clean_linker_0, # of connection points: 2
#     Edge 47, Type (0, 0), BuildingBlock: EZIPEK_clean_linker_0, # of connection points: 2
#     Edge 48, Type (0, 0), BuildingBlock: EZIPEK_clean_linker_0, # of connection points: 2
#     Edge 49, Type (0, 0), BuildingBlock: EZIPEK_clean_linker_0, # of connection points: 2
#     Edge 50, Type (0, 0), BuildingBlock: EZIPEK_clean_linker_0, # of connection points: 2
#     Edge 51, Type (0, 0), BuildingBlock: EZIPEK_clean_linker_0, # of connection points: 2
#     Edge 52, Type (0, 0), BuildingBlock: EZIPEK_clean_linker_0, # of connection points: 2
#     Edge 53, Type (0, 0), BuildingBlock: EZIPEK_clean_linker_0, # of connection points: 2
#     Edge 54, Type (0, 0), BuildingBlock: EZIPEK_clean_linker_0, # of connection points: 2
#     Edge 55, Type (0, 0), BuildingBlock: EZIPEK_clean_linker_0, # of connection points: 2
#     Edge 56, Type (0, 0), BuildingBlock: EZIPEK_clean_linker_0, # of connection points: 2
#     Edge 57, Type (0, 0), BuildingBlock: EZIPEK_clean_linker_0, # of connection points: 2
#     Edge 58, Type (0, 0), BuildingBlock: EZIPEK_clean_linker_0, # of connection points: 2
#     Edge 59, Type (0, 0), BuildingBlock: EZIPEK_clean_linker_0, # of connection points: 2
#     Edge 60, Type (0, 0), BuildingBlock: EZIPEK_clean_linker_0, # of connection points: 2
#     Edge 61, Type (0, 0), BuildingBlock: EZIPEK_clean_linker_0, # of connection points: 2
#     Edge 62, Type (0, 0), BuildingBlock: EZIPEK_clean_linker_0, # of connection points: 2
#     Edge 63, Type (0, 0), BuildingBlock: EZIPEK_clean_linker_0, # of connection points: 2
#     Edge 64, Type (0, 0), BuildingBlock: EZIPEK_clean_linker_0, # of connection points: 2
#     Edge 65, Type (0, 0), BuildingBlock: EZIPEK_clean_linker_0, # of connection points: 2
#     Edge 66, Type (0, 0), BuildingBlock: EZIPEK_clean_linker_0, # of connection points: 2
#     Edge 67, Type (0, 0), BuildingBlock: EZIPEK_clean_linker_0, # of connection points: 2
#     Edge 68, Type (0, 0), BuildingBlock: EZIPEK_clean_linker_0, # of connection points: 2
#     Edge 69, Type (0, 0), BuildingBlock: EZIPEK_clean_linker_0, # of connection points: 2
#     Edge 70, Type (0, 0), BuildingBlock: EZIPEK_clean_linker_0, # of connection points: 2
#     Edge 71, Type (0, 0), BuildingBlock: EZIPEK_clean_linker_0, # of connection points: 2
#     Edge 72, Type (0, 0), BuildingBlock: EZIPEK_clean_linker_0, # of connection points: 2
#     Edge 73, Type (0, 0), BuildingBlock: EZIPEK_clean_linker_0, # of connection points: 2
#     Edge 74, Type (0, 0), BuildingBlock: EZIPEK_clean_linker_0, # of connection points: 2
#     Edge 75, Type (0, 0), BuildingBlock: EZIPEK_clean_linker_0, # of connection points: 2
#     Edge 76, Type (0, 0), BuildingBlock: EZIPEK_clean_linker_0, # of connection points: 2
#     Edge 77, Type (0, 0), BuildingBlock: EZIPEK_clean_linker_0, # of connection points: 2
#     Edge 78, Type (0, 0), BuildingBlock: EZIPEK_clean_linker_0, # of connection points: 2
#     Edge 79, Type (0, 0), BuildingBlock: EZIPEK_clean_linker_0, # of connection points: 2
#     Edge 80, Type (0, 0), BuildingBlock: EZIPEK_clean_linker_0, # of connection points: 2
#     Edge 81, Type (0, 0), BuildingBlock: EZIPEK_clean_linker_0, # of connection points: 2
#     Edge 82, Type (0, 0), BuildingBlock: EZIPEK_clean_linker_0, # of connection points: 2
#     Edge 83, Type (0, 0), BuildingBlock: EZIPEK_clean_linker_0, # of connection points: 2
#     Edge 84, Type (0, 0), BuildingBlock: EZIPEK_clean_linker_0, # of connection points: 2
#     Edge 85, Type (0, 0), BuildingBlock: EZIPEK_clean_linker_0, # of connection points: 2
#     Edge 86, Type (0, 0), BuildingBlock: EZIPEK_clean_linker_0, # of connection points: 2
#     Edge 87, Type (0, 0), BuildingBlock: EZIPEK_clean_linker_0, # of connection points: 2
#     Edge 88, Type (0, 0), BuildingBlock: EZIPEK_clean_linker_0, # of connection points: 2
#     Edge 89, Type (0, 0), BuildingBlock: EZIPEK_clean_linker_0, # of connection points: 2
#     Edge 90, Type (0, 0), BuildingBlock: EZIPEK_clean_linker_0, # of connection points: 2
#     Edge 91, Type (0, 0), BuildingBlock: EZIPEK_clean_linker_0, # of connection points: 2
#     Edge 92, Type (0, 0), BuildingBlock: EZIPEK_clean_linker_0, # of connection points: 2
#     Edge 93, Type (0, 0), BuildingBlock: EZIPEK_clean_linker_0, # of connection points: 2
#     Edge 94, Type (0, 0), BuildingBlock: EZIPEK_clean_linker_0, # of connection points: 2
#     Edge 95, Type (0, 0), BuildingBlock: EZIPEK_clean_linker_0, # of connection points: 2
#     Edge 96, Type (0, 0), BuildingBlock: EZIPEK_clean_linker_0, # of connection points: 2
#     Edge 97, Type (0, 0), BuildingBlock: EZIPEK_clean_linker_0, # of connection points: 2
#     Edge 98, Type (0, 0), BuildingBlock: EZIPEK_clean_linker_0, # of connection points: 2
#     Edge 99, Type (0, 0), BuildingBlock: EZIPEK_clean_linker_0, # of connection points: 2
#     Edge 100, Type (0, 0), BuildingBlock: EZIPEK_clean_linker_0, # of connection points: 2
#     Edge 101, Type (0, 0), BuildingBlock: EZIPEK_clean_linker_0, # of connection points: 2
#     Edge 102, Type (0, 0), BuildingBlock: EZIPEK_clean_linker_0, # of connection points: 2
#     Edge 103, Type (0, 0), BuildingBlock: EZIPEK_clean_linker_0, # of connection points: 2
#     Edge 104, Type (0, 0), BuildingBlock: EZIPEK_clean_linker_0, # of connection points: 2
#     Edge 105, Type (0, 0), BuildingBlock: EZIPEK_clean_linker_0, # of connection points: 2
#     Edge 106, Type (0, 0), BuildingBlock: EZIPEK_clean_linker_0, # of connection points: 2
#     Edge 107, Type (0, 0), BuildingBlock: EZIPEK_clean_linker_0, # of connection points: 2
#     Edge 108, Type (0, 0), BuildingBlock: EZIPEK_clean_linker_0, # of connection points: 2
#     Edge 109, Type (0, 0), BuildingBlock: EZIPEK_clean_linker_0, # of connection points: 2
#     Edge 110, Type (0, 0), BuildingBlock: EZIPEK_clean_linker_0, # of connection points: 2
#     Edge 111, Type (0, 0), BuildingBlock: EZIPEK_clean_linker_0, # of connection points: 2
# Relax obj value: 0.083
# Max RMSD: 0.105
# Mean RMSD: 0.105
data_MOF--net-wgl--node1-BEQFEK_clean_sbu_0--edge1-EZIPEK_clean_linker_0
_symmetry_space_group_name_H-M    P1
_symmetry_Int_Tables_number       1
_symmetry_cell_setting            triclinic
loop_
_symmetry_equiv_pos_as_xyz
'x, y, z'
_cell_length_a     44.243271
_cell_length_b     44.316659
_cell_length_c     43.74209
_cell_angle_alpha  90.065533
_cell_angle_beta   89.952713
_cell_angle_gamma 90.003614
loop_
_atom_site_label
_atom_site_type_symbol
_atom_site_fract_x
_atom_site_fract_y
_atom_site_fract_z
_atom_type_partial_charge
Co0 Co 0.32555 0.2591 0.1248 0.0
Co1 Co 0.28532 0.3156 0.13463 0.0
C2 C 0.28275 0.28238 0.0752 0.0
O3 O 0.30266 0.26327 0.08407 0.0
O4 O 0.27447 0.30386 0.09267 0.0
C5 C 0.34605 0.19517 0.12896 0.0
O6 O 0.31768 0.18691 0.1318 0.0
C7 C 0.23893 0.3627 0.13472 0.0
C8 C 0.25036 0.38675 0.17763 0.0
C9 C 0.23072 0.38676 0.15307 0.0
N10 N 0.26234 0.34877 0.14803 0.0
N11 N 0.26921 0.36333 0.1735 0.0
C12 C 0.22587 0.35389 0.10447 0.0
H13 H 0.21943 0.3297 0.10499 0.0
H14 H 0.20588 0.36779 0.0985 0.0
H15 H 0.24335 0.35675 0.08651 0.0
C16 C 0.2943 0.24326 0.18554 0.0
N17 N 0.2982 0.25986 0.15979 0.0
N18 N 0.27917 0.28274 0.16099 0.0
C19 C 0.26161 0.28032 0.186 0.0
C20 C 0.27095 0.25574 0.20264 0.0
C21 C 0.31466 0.21851 0.19603 0.0
H22 H 0.33731 0.22128 0.18594 0.0
H23 H 0.305 0.19648 0.18902 0.0
H24 H 0.31656 0.21847 0.22134 0.0
O25 O 0.35602 0.29168 0.12997 0.0
O26 O 0.32688 0.33104 0.13923 0.0
H27 H 0.24704 0.32029 0.20905 0.0
H28 H 0.21995 0.2903 0.20938 0.0
C29 C 0.23717 0.30187 0.19511 0.0
H30 H 0.22598 0.31136 0.17462 0.0
H31 H 0.28694 0.35732 0.18799 0.0
O32 O 0.35236 0.22275 0.1245 0.0
C33 C 0.35291 0.31931 0.13701 0.0
Co34 Co 0.98983 0.07523 0.37602 0.0
Co35 Co 0.93317 0.03457 0.38234 0.0
C36 C 0.97001 0.03339 0.3249 0.0
O37 O 0.98813 0.0539 0.33434 0.0
O38 O 0.94845 0.02442 0.34176 0.0
C39 C 0.05382 0.09325 0.38325 0.0
O40 O 0.06 0.06446 0.38673 0.0
C41 C 0.89515 0.9811 0.37942 0.0
C42 C 0.85451 0.99656 0.40447 0.0
C43 C 0.86643 0.97258 0.38819 0.0
N44 N 0.90019 0.00894 0.39029 0.0
N45 N 0.87589 0.01805 0.40529 0.0
C46 C 0.91612 0.96459 0.35841 0.0
H47 H 0.9399 0.96866 0.36535 0.0
H48 H 0.91131 0.94002 0.35832 0.0
H49 H 0.91307 0.97328 0.33483 0.0
C50 C 0.00344 0.04446 0.43637 0.0
N51 N 0.9881 0.04673 0.40974 0.0
N52 N 0.96395 0.02968 0.41155 0.0
C53 C 0.9633 0.01557 0.43867 0.0
C54 C 0.99037 0.02132 0.45431 0.0
C55 C 0.01938 0.0717 0.4488 0.0
H56 H 0.01007 0.09205 0.43766 0.0
H57 H 0.0439 0.07068 0.44386 0.0
H58 H 0.01558 0.07444 0.4737 0.0
O59 O 0.95608 0.10494 0.38106 0.0
O60 O 0.91597 0.07528 0.38448 0.0
H61 H 0.93414 0.00712 0.47822 0.0
H62 H 0.92613 0.98471 0.44425 0.0
C63 C 0.9336 0.00703 0.45294 0.0
H64 H 0.91646 0.02405 0.4466 0.0
H65 H 0.87349 0.03935 0.41517 0.0
O66 O 0.02683 0.10135 0.37774 0.0
C67 C 0.92771 0.10137 0.38438 0.0
Co68 Co 0.18041 0.74466 0.62745 0.0
Co69 Co 0.21578 0.68471 0.63008 0.0
C70 C 0.2206 0.72444 0.57493 0.0
O71 O 0.20123 0.74336 0.58534 0.0
O72 O 0.22817 0.70156 0.59066 0.0
C73 C 0.14465 0.7981 0.61495 0.0
O74 O 0.14493 0.7888 0.58642 0.0
C75 C 0.26652 0.64341 0.63087 0.0
C76 C 0.2458 0.60316 0.65233 0.0
C77 C 0.27244 0.61431 0.64026 0.0
N78 N 0.23747 0.64927 0.63705 0.0
N79 N 0.22511 0.62517 0.64972 0.0
C80 C 0.28805 0.66559 0.61708 0.0
H81 H 0.28234 0.6888 0.62471 0.0
H82 H 0.31174 0.66004 0.62324 0.0
H83 H 0.28581 0.66486 0.59182 0.0
C84 C 0.21431 0.75379 0.68634 0.0
N85 N 0.20841 0.73833 0.6604 0.0
N86 N 0.22292 0.71244 0.66147 0.0
C87 C 0.23845 0.71057 0.68785 0.0
C88 C 0.23353 0.73663 0.70446 0.0
C89 C 0.19985 0.78313 0.69473 0.0
H90 H 0.17493 0.78035 0.69508 0.0
H91 H 0.20545 0.80016 0.67708 0.0
H92 H 0.20765 0.79125 0.71741 0.0
O93 O 0.14722 0.71398 0.63131 0.0
O94 O 0.17361 0.67156 0.63121 0.0
H95 H 0.24097 0.66334 0.69774 0.0
H96 H 0.26504 0.68639 0.72155 0.0
C97 C 0.25585 0.68346 0.69814 0.0
H98 H 0.27498 0.67954 0.6823 0.0
H99 H 0.20266 0.62388 0.65691 0.0
O100 O 0.15948 0.78361 0.63496 0.0
C101 C 0.14854 0.68531 0.63268 0.0
Co102 Co 0.508 0.92805 0.87641 0.0
Co103 Co 0.56702 0.96581 0.8813 0.0
C104 C 0.52841 0.96999 0.82536 0.0
O105 O 0.50901 0.95142 0.83629 0.0
O106 O 0.55219 0.97707 0.84014 0.0
C107 C 0.44372 0.91067 0.8703 0.0
O108 O 0.43981 0.93411 0.85241 0.0
C109 C 0.61425 0.01225 0.87959 0.0
C110 C 0.64227 0.99801 0.91898 0.0
C111 C 0.63981 0.01952 0.89625 0.0
N112 N 0.60189 0.98761 0.89218 0.0
N113 N 0.61882 0.97907 0.91551 0.0
C114 C 0.60204 0.02783 0.8519 0.0
H115 H 0.6025 0.01198 0.83225 0.0
H116 H 0.5781 0.03413 0.85601 0.0
H117 H 0.61535 0.04824 0.84607 0.0
C118 C 0.49739 0.95896 0.93667 0.0
N119 N 0.51296 0.95484 0.91043 0.0
N120 N 0.5368 0.97259 0.91076 0.0
C121 C 0.53645 0.9894 0.93642 0.0
C122 C 0.51186 0.98101 0.95386 0.0
C123 C 0.47071 0.94054 0.94612 0.0
H124 H 0.47556 0.91625 0.94241 0.0
H125 H 0.45121 0.94674 0.9316 0.0
H126 H 0.46474 0.94453 0.97045 0.0
O127 O 0.53971 0.89604 0.87815 0.0
O128 O 0.58079 0.92376 0.88433 0.0
H129 H 0.57912 1.00031 0.95634 0.0
H130 H 0.55066 0.02863 0.96184 0.0
C131 C 0.55994 0.01207 0.94525 0.0
H132 H 0.56811 0.02426 0.92476 0.0
H133 H 0.61422 0.96033 0.92918 0.0
O134 O 0.46957 0.9052 0.88159 0.0
C135 C 0.568 0.89819 0.88293 0.0
Co136 Co 0.32322 0.74565 0.40465 0.0
Co137 Co 0.28626 0.68634 0.40025 0.0
C138 C 0.282 0.7254 0.45623 0.0
O139 O 0.30161 0.74433 0.44633 0.0
O140 O 0.27429 0.70285 0.44001 0.0
C141 C 0.3603 0.79828 0.41833 0.0
O142 O 0.35939 0.78867 0.44672 0.0
C143 C 0.23459 0.64586 0.39888 0.0
C144 C 0.25475 0.60547 0.37707 0.0
C145 C 0.22827 0.61683 0.38934 0.0
N146 N 0.2637 0.65143 0.3926 0.0
N147 N 0.27568 0.62725 0.37968 0.0
C148 C 0.21345 0.66815 0.41314 0.0
H149 H 0.21912 0.69132 0.40542 0.0
H150 H 0.18961 0.6627 0.40748 0.0
H151 H 0.21623 0.66748 0.43834 0.0
C152 C 0.29029 0.756 0.3452 0.0
N153 N 0.29553 0.74015 0.37103 0.0
N154 N 0.28016 0.71477 0.36954 0.0
C155 C 0.26477 0.71359 0.34305 0.0
C156 C 0.27063 0.73959 0.32678 0.0
C157 C 0.30566 0.78497 0.33726 0.0
H158 H 0.30058 0.80198 0.35514 0.0
H159 H 0.29816 0.79356 0.31467 0.0
H160 H 0.33049 0.78142 0.33693 0.0
O161 O 0.35573 0.71399 0.40186 0.0
O162 O 0.32812 0.67245 0.39881 0.0
H163 H 0.23752 0.69058 0.30898 0.0
H164 H 0.2275 0.68333 0.34813 0.0
C165 C 0.24668 0.68707 0.33231 0.0
H166 H 0.26108 0.6666 0.33228 0.0
H167 H 0.29812 0.62568 0.37249 0.0
O168 O 0.34541 0.78431 0.39791 0.0
C169 C 0.35362 0.68546 0.39887 0.0
Co170 Co 0.51226 0.07114 0.65549 0.0
Co171 Co 0.57241 0.03505 0.6552 0.0
C172 C 0.52968 0.03057 0.70828 0.0
O173 O 0.51075 0.04888 0.69623 0.0
O174 O 0.55421 0.02368 0.6948 0.0
C175 C 0.45801 0.10594 0.66729 0.0
O176 O 0.46641 0.10434 0.69605 0.0
C177 C 0.61239 0.98294 0.65427 0.0
C178 C 0.65454 0.00339 0.63652 0.0
C179 C 0.64186 0.97651 0.64613 0.0
N180 N 0.60782 0.01248 0.64967 0.0
N181 N 0.63309 0.02465 0.63928 0.0
C182 C 0.58868 0.96144 0.66523 0.0
H183 H 0.56594 0.96921 0.65796 0.0
H184 H 0.59311 0.93831 0.65655 0.0
H185 H 0.58898 0.96087 0.69059 0.0
C186 C 0.50529 0.03796 0.59609 0.0
N187 N 0.51991 0.04355 0.62258 0.0
N188 N 0.5455 0.02838 0.6226 0.0
C189 C 0.54809 0.01296 0.59615 0.0
C190 C 0.52271 0.01839 0.57862 0.0
C191 C 0.4764 0.05277 0.58678 0.0
H192 H 0.47942 0.07763 0.58689 0.0
H193 H 0.45859 0.04715 0.60368 0.0
H194 H 0.46909 0.04531 0.5637 0.0
O195 O 0.54384 0.1039 0.65464 0.0
O196 O 0.58597 0.07695 0.65361 0.0
H197 H 0.59591 0.00926 0.58958 0.0
H198 H 0.57385 0.98799 0.56235 0.0
C199 C 0.57533 0.99532 0.58657 0.0
H200 H 0.57731 0.97497 0.60109 0.0
H201 H 0.63555 0.04737 0.6336 0.0
O202 O 0.47351 0.09247 0.64697 0.0
C203 C 0.57255 0.10221 0.65284 0.0
Co204 Co 0.17707 0.26416 0.90689 0.0
Co205 Co 0.21784 0.32023 0.899 0.0
C206 C 0.22071 0.28422 0.9568 0.0
O207 O 0.20002 0.26604 0.94776 0.0
O208 O 0.22936 0.30575 0.93973 0.0
C209 C 0.15593 0.20056 0.90318 0.0
O210 O 0.18435 0.19203 0.90245 0.0
C211 C 0.27119 0.35845 0.89716 0.0
C212 C 0.25386 0.39749 0.87094 0.0
C213 C 0.279 0.38652 0.88603 0.0
N214 N 0.24246 0.35311 0.88917 0.0
N215 N 0.2322 0.37644 0.87351 0.0
C216 C 0.29051 0.33699 0.91488 0.0
H217 H 0.28548 0.31342 0.90791 0.0
H218 H 0.31486 0.34199 0.91148 0.0
H219 H 0.28509 0.3391 0.93956 0.0
C220 C 0.20832 0.24916 0.84577 0.0
N221 N 0.20422 0.26567 0.8716 0.0
N222 N 0.22203 0.28948 0.86985 0.0
C223 C 0.23815 0.28855 0.84374 0.0
C224 C 0.23002 0.2631 0.82766 0.0
C225 C 0.19029 0.22211 0.8368 0.0
H226 H 0.20106 0.20164 0.84642 0.0
H227 H 0.18955 0.21954 0.81156 0.0
H228 H 0.16708 0.22412 0.8457 0.0
O229 O 0.14712 0.29786 0.90336 0.0
O230 O 0.17694 0.33728 0.89675 0.0
H231 H 0.27001 0.30684 0.81089 0.0
H232 H 0.27696 0.31662 0.85021 0.0
C233 C 0.25909 0.31284 0.83292 0.0
H234 H 0.24626 0.3341 0.82985 0.0
H235 H 0.21034 0.37805 0.86471 0.0
O236 O 0.14961 0.22834 0.90603 0.0
C237 C 0.15071 0.3259 0.89836 0.0
Co238 Co 0.99076 0.92785 0.15676 0.0
Co239 Co 0.93267 0.96715 0.15014 0.0
C240 C 0.96963 0.97105 0.20704 0.0
O241 O 0.98813 0.95069 0.19775 0.0
O242 O 0.94753 0.97938 0.19044 0.0
C243 C 0.0546 0.90822 0.16499 0.0
O244 O 0.05856 0.93064 0.18423 0.0
C245 C 0.88585 0.01388 0.1511 0.0
C246 C 0.85863 1.00036 0.11085 0.0
C247 C 0.86069 0.02149 0.13403 0.0
N248 N 0.8984 0.9894 0.13833 0.0
N249 N 0.88195 0.98128 0.11448 0.0
C250 C 0.89725 0.02879 0.17954 0.0
H251 H 0.92143 0.03476 0.17651 0.0
H252 H 0.88407 0.04932 0.18528 0.0
H253 H 0.89571 0.01263 0.19882 0.0
C254 C 0.00413 0.95922 0.09727 0.0
N255 N 0.98738 0.9549 0.12272 0.0
N256 N 0.96342 0.97245 0.12121 0.0
C257 C 0.96484 0.9893 0.09569 0.0
C258 C 0.99029 0.98118 0.0795 0.0
C259 C 0.03147 0.94118 0.08906 0.0
H260 H 0.02666 0.91679 0.09208 0.0
H261 H 0.05004 0.94735 0.10479 0.0
H262 H 0.03875 0.94557 0.06518 0.0
O263 O 0.9584 0.8966 0.15289 0.0
O264 O 0.91773 0.92546 0.14939 0.0
H265 H 0.92297 1.00076 0.07441 0.0
H266 H 0.95194 0.0287 0.06984 0.0
C267 C 0.94195 0.01227 0.08611 0.0
H268 H 0.93331 0.02465 0.10632 0.0
H269 H 0.8867 0.96267 0.10066 0.0
O270 O 0.02903 0.90418 0.15245 0.0
C271 C 0.92995 0.8996 0.14985 0.0
Co272 Co 0.68178 0.74477 0.90162 0.0
Co273 Co 0.71711 0.68463 0.89371 0.0
C274 C 0.72281 0.721 0.95162 0.0
O275 O 0.70409 0.74114 0.94245 0.0
O276 O 0.72947 0.69852 0.9347 0.0
C277 C 0.645 0.79734 0.91674 0.0
O278 O 0.64503 0.78698 0.94487 0.0
C279 C 0.7614 0.6356 0.89522 0.0
C280 C 0.74713 0.60895 0.85486 0.0
C281 C 0.76804 0.61006 0.87831 0.0
N282 N 0.73771 0.64926 0.88213 0.0
N283 N 0.7291 0.63313 0.85823 0.0
C284 C 0.77645 0.64636 0.92385 0.0
H285 H 0.7835 0.67022 0.92095 0.0
H286 H 0.79633 0.63234 0.92985 0.0
H287 H 0.75996 0.64549 0.94293 0.0
C288 C 0.71422 0.75718 0.84248 0.0
N289 N 0.70876 0.74013 0.86746 0.0
N290 N 0.72464 0.71513 0.86523 0.0
C291 C 0.74131 0.71586 0.83948 0.0
C292 C 0.73495 0.7422 0.82403 0.0
C293 C 0.69831 0.78605 0.83533 0.0
H294 H 0.70392 0.80296 0.85314 0.0
H295 H 0.70502 0.79493 0.81259 0.0
H296 H 0.67351 0.78232 0.83587 0.0
O297 O 0.64852 0.71446 0.89886 0.0
O298 O 0.67449 0.67247 0.89148 0.0
H299 H 0.77882 0.70017 0.81216 0.0
H300 H 0.77426 0.68143 0.84848 0.0
C301 C 0.76206 0.69136 0.82881 0.0
H302 H 0.74865 0.67358 0.81725 0.0
H303 H 0.71088 0.6387 0.84419 0.0
O304 O 0.66043 0.78389 0.89638 0.0
C305 C 0.64945 0.68623 0.89367 0.0
Co306 Co 0.00986 0.93015 0.65863 0.0
Co307 Co 0.0688 0.96716 0.65271 0.0
C308 C 0.03055 0.97081 0.70972 0.0
O309 O 0.01127 0.9515 0.70005 0.0
O310 O 0.05305 0.97821 0.69323 0.0
C311 C 0.95553 0.89381 0.67196 0.0
O312 O 0.96279 0.89532 0.70104 0.0
C313 C 0.10669 0.02078 0.64822 0.0
C314 C 0.15054 1.00066 0.63484 0.0
C315 C 0.13644 0.02768 0.64166 0.0
N316 N 0.10337 0.99082 0.64562 0.0
N317 N 0.1296 0.97891 0.63762 0.0
C318 C 0.08185 0.04203 0.65684 0.0
H319 H 0.06019 0.03437 0.64665 0.0
H320 H 0.08712 0.06536 0.64934 0.0
H321 H 0.07912 0.04188 0.68206 0.0
C322 C 0.99909 0.96038 0.59839 0.0
N323 N 0.01434 0.95795 0.62497 0.0
N324 N 0.03918 0.97387 0.62303 0.0
C325 C 0.04058 0.98739 0.59562 0.0
C326 C 0.01336 0.98238 0.57987 0.0
C327 C 0.98009 0.93436 0.58759 0.0
H328 H 0.98778 0.91323 0.59866 0.0
H329 H 0.95613 0.93789 0.59412 0.0
H330 H 0.98234 0.93056 0.56267 0.0
O331 O 0.04143 0.89809 0.65548 0.0
O332 O 0.08291 0.92527 0.64925 0.0
H333 H 0.07037 0.99352 0.55633 0.0
H334 H 0.07738 0.01839 0.58859 0.0
C335 C 0.0706 0.99532 0.58158 0.0
H336 H 0.08812 0.97943 0.5898 0.0
H337 H 0.13323 0.9559 0.63412 0.0
O338 O 0.97135 0.9078 0.65235 0.0
C339 C 0.06971 0.89989 0.65048 0.0
Co340 Co 0.82301 0.2634 0.40816 0.0
Co341 Co 0.7823 0.31996 0.40083 0.0
C342 C 0.77925 0.28471 0.45848 0.0
O343 O 0.79983 0.26651 0.44907 0.0
O344 O 0.7703 0.30638 0.44168 0.0
C345 C 0.84265 0.1993 0.40286 0.0
O346 O 0.81413 0.19163 0.39985 0.0
C347 C 0.73616 0.3673 0.40092 0.0
C348 C 0.74879 0.3921 0.35884 0.0
C349 C 0.72849 0.39169 0.38287 0.0
N350 N 0.75988 0.35357 0.38793 0.0
N351 N 0.76749 0.36858 0.36297 0.0
C352 C 0.72219 0.35785 0.43056 0.0
H353 H 0.71543 0.33377 0.42911 0.0
H354 H 0.70225 0.37187 0.43646 0.0
H355 H 0.73924 0.35992 0.44901 0.0
C356 C 0.79171 0.24944 0.34693 0.0
N357 N 0.7959 0.26535 0.37312 0.0
N358 N 0.777 0.28835 0.37274 0.0
C359 C 0.75925 0.28667 0.34782 0.0
C360 C 0.76833 0.2625 0.33039 0.0
C361 C 0.81143 0.22437 0.33589 0.0
H362 H 0.83416 0.22641 0.34596 0.0
H363 H 0.80125 0.20249 0.34256 0.0
H364 H 0.81323 0.22471 0.31058 0.0
O365 O 0.85351 0.29625 0.40437 0.0
O366 O 0.82377 0.33598 0.39923 0.0
H367 H 0.74371 0.32723 0.32663 0.0
H368 H 0.7171 0.29684 0.32547 0.0
C369 C 0.73434 0.30814 0.33994 0.0
H370 H 0.72327 0.31665 0.36097 0.0
H371 H 0.78556 0.36275 0.34879 0.0
O372 O 0.84948 0.22673 0.4076 0.0
C373 C 0.84992 0.32441 0.40047 0.0
Co374 Co 0.4933 0.07212 0.15667 0.0
Co375 Co 0.43676 0.031 0.14977 0.0
C376 C 0.47255 0.02904 0.20736 0.0
O377 O 0.4905 0.04976 0.19784 0.0
O378 O 0.45102 0.01954 0.1906 0.0
C379 C 0.55683 0.09178 0.16498 0.0
O380 O 0.56111 0.06838 0.18286 0.0
C381 C 0.38978 0.98442 0.15072 0.0
C382 C 0.36394 0.99677 0.10921 0.0
C383 C 0.36496 0.97659 0.13326 0.0
N384 N 0.40314 0.00813 0.13738 0.0
N385 N 0.38754 0.01552 0.11273 0.0
C386 C 0.39981 0.9708 0.18029 0.0
H387 H 0.3976 0.98786 0.19873 0.0
H388 H 0.42403 0.9645 0.17863 0.0
H389 H 0.38619 0.95065 0.18637 0.0
C390 C 0.50747 0.04203 0.09668 0.0
N391 N 0.49106 0.045 0.12256 0.0
N392 N 0.46807 0.0262 0.12122 0.0
C393 C 0.47004 0.00965 0.09547 0.0
C394 C 0.49462 0.01948 0.07884 0.0
C395 C 0.53315 0.06214 0.08796 0.0
H396 H 0.52697 0.08603 0.0923 0.0
H397 H 0.55287 0.0566 0.10244 0.0
H398 H 0.5395 0.05914 0.06359 0.0
O399 O 0.4605 0.10254 0.15226 0.0
O400 O 0.42077 0.07244 0.14847 0.0
H401 H 0.42931 0.99633 0.07302 0.0
H402 H 0.45923 0.96923 0.07033 0.0
C403 C 0.44814 0.98574 0.0858 0.0
H404 H 0.43913 0.97365 0.106 0.0
H405 H 0.39291 0.03358 0.09843 0.0
O406 O 0.53108 0.09642 0.15308 0.0
C407 C 0.43221 0.09867 0.14889 0.0
Co408 Co 0.67711 0.26164 0.62872 0.0
Co409 Co 0.71621 0.31948 0.63566 0.0
C410 C 0.7189 0.28327 0.57778 0.0
O411 O 0.69936 0.26411 0.58744 0.0
O412 O 0.72694 0.3054 0.59447 0.0
C413 C 0.65667 0.19776 0.62264 0.0
O414 O 0.68094 0.19163 0.60649 0.0
C415 C 0.76382 0.3652 0.63346 0.0
C416 C 0.75102 0.39384 0.67295 0.0
C417 C 0.77201 0.39066 0.64973 0.0
N418 N 0.73913 0.35354 0.64668 0.0
N419 N 0.73145 0.37081 0.6701 0.0
C420 C 0.77844 0.35267 0.60532 0.0
H421 H 0.76268 0.3551 0.58577 0.0
H422 H 0.78288 0.32824 0.60855 0.0
H423 H 0.79985 0.36451 0.59982 0.0
C424 C 0.70891 0.24883 0.68915 0.0
N425 N 0.70451 0.26482 0.66315 0.0
N426 N 0.72259 0.28844 0.6639 0.0
C427 C 0.73987 0.28739 0.68918 0.0
C428 C 0.73151 0.26263 0.70617 0.0
C429 C 0.69023 0.22264 0.69939 0.0
H430 H 0.66874 0.22132 0.68658 0.0
H431 H 0.70342 0.20165 0.69597 0.0
H432 H 0.68529 0.22453 0.72421 0.0
O433 O 0.64601 0.29394 0.63208 0.0
O434 O 0.67447 0.33432 0.63912 0.0
H435 H 0.75177 0.32963 0.70939 0.0
H436 H 0.77961 0.30063 0.71441 0.0
C437 C 0.76309 0.31032 0.69804 0.0
H438 H 0.77536 0.31835 0.67753 0.0
H439 H 0.7128 0.36684 0.68415 0.0
O440 O 0.6522 0.22429 0.63263 0.0
C441 C 0.64866 0.32202 0.63743 0.0
Co442 Co 0.49896 0.927 0.3759 0.0
Co443 Co 0.44173 0.96674 0.3865 0.0
C444 C 0.47539 0.97013 0.3271 0.0
O445 O 0.49453 0.95008 0.33555 0.0
O446 O 0.45409 0.97842 0.34485 0.0
C447 C 0.56291 0.90961 0.36553 0.0
O448 O 0.56602 0.93384 0.34857 0.0
C449 C 0.39406 0.01281 0.38695 0.0
C450 C 0.37024 0.0012 0.42991 0.0
C451 C 0.36994 0.02085 0.40538 0.0
N452 N 0.40826 0.9895 0.40017 0.0
N453 N 0.39383 0.98255 0.42569 0.0
C454 C 0.40257 0.02583 0.35661 0.0
H455 H 0.42667 0.03274 0.35706 0.0
H456 H 0.38825 0.04547 0.35054 0.0
H457 H 0.40003 0.00821 0.33877 0.0
C458 C 0.51504 0.9565 0.43578 0.0
N459 N 0.49745 0.9535 0.41072 0.0
N460 N 0.47432 0.972 0.41338 0.0
C461 C 0.47733 0.9884 0.43913 0.0
C462 C 0.50282 0.97881 0.45442 0.0
C463 C 0.54136 0.93667 0.44303 0.0
H464 H 0.53532 0.91274 0.4387 0.0
H465 H 0.56034 0.94266 0.42771 0.0
H466 H 0.54875 0.9395 0.46711 0.0
O467 O 0.46662 0.89585 0.38006 0.0
O468 O 0.42683 0.92479 0.38909 0.0
H469 H 0.43763 0.00083 0.46392 0.0
H470 H 0.46713 0.0285 0.46506 0.0
C471 C 0.45554 0.01184 0.45015 0.0
H472 H 0.44522 0.02383 0.43055 0.0
H473 H 0.39998 0.96483 0.44009 0.0
O474 O 0.5375 0.90355 0.37763 0.0
C475 C 0.43868 0.89884 0.38636 0.0
Co476 Co 0.82486 0.73821 0.12307 0.0
Co477 Co 0.78321 0.68216 0.12814 0.0
C478 C 0.78215 0.71754 0.07114 0.0
O479 O 0.80282 0.73523 0.0814 0.0
O480 O 0.77215 0.69592 0.08738 0.0
C481 C 0.84491 0.80197 0.13061 0.0
O482 O 0.81648 0.8097 0.13434 0.0
C483 C 0.73812 0.63372 0.12747 0.0
C484 C 0.74914 0.61107 0.17122 0.0
C485 C 0.73007 0.60997 0.14624 0.0
N486 N 0.76084 0.64855 0.141 0.0
N487 N 0.76753 0.63478 0.16692 0.0
C488 C 0.72545 0.64163 0.09682 0.0
H489 H 0.7437 0.64027 0.07948 0.0
H490 H 0.71717 0.66526 0.09725 0.0
H491 H 0.70678 0.62627 0.09013 0.0
C492 C 0.79251 0.75094 0.18392 0.0
N493 N 0.7968 0.73602 0.15717 0.0
N494 N 0.77718 0.71368 0.15613 0.0
C495 C 0.75864 0.71512 0.18046 0.0
C496 C 0.76816 0.73809 0.19922 0.0
C497 C 0.81322 0.77429 0.19678 0.0
H498 H 0.83592 0.77197 0.18665 0.0
H499 H 0.80406 0.79702 0.19168 0.0
H500 H 0.8148 0.77211 0.22201 0.0
O501 O 0.8549 0.70538 0.12785 0.0
O502 O 0.82455 0.66592 0.13018 0.0
H503 H 0.74018 0.67545 0.20109 0.0
H504 H 0.71465 0.70664 0.19953 0.0
C505 C 0.73255 0.6945 0.18663 0.0
H506 H 0.72285 0.68594 0.16496 0.0
H507 H 0.78467 0.64167 0.18173 0.0
O508 O 0.85153 0.77472 0.12464 0.0
C509 C 0.85086 0.67717 0.13062 0.0
Co510 Co 0.00958 0.07551 0.87857 0.0
Co511 Co 0.06715 0.03551 0.88527 0.0
C512 C 0.03067 0.03234 0.82814 0.0
O513 O 0.01227 0.05275 0.83754 0.0
O514 O 0.05254 0.02362 0.84483 0.0
C515 C 0.94538 0.09389 0.87152 0.0
O516 O 0.94112 0.0701 0.85412 0.0
C517 C 0.11369 0.98857 0.88429 0.0
C518 C 0.14076 0.0016 0.9248 0.0
C519 C 0.13874 0.98072 0.90138 0.0
N520 N 0.10116 0.01297 0.89723 0.0
N521 N 0.11752 0.02079 0.92125 0.0
C522 C 0.1024 0.974 0.85562 0.0
H523 H 0.10438 0.99026 0.83648 0.0
H524 H 0.07812 0.96832 0.85833 0.0
H525 H 0.11537 0.95334 0.84987 0.0
C526 C 0.99662 0.04526 0.93878 0.0
N527 N 0.01286 0.04872 0.91285 0.0
N528 N 0.03621 0.03036 0.91396 0.0
C529 C 0.03465 0.01357 0.93952 0.0
C530 C 0.00996 0.0228 0.95631 0.0
C531 C 0.9704 0.06458 0.9477 0.0
H532 H 0.97543 0.08857 0.94256 0.0
H533 H 0.95052 0.05775 0.93401 0.0
H534 H 0.96487 0.06201 0.97232 0.0
O535 O 0.04203 0.1065 0.88212 0.0
O536 O 0.08235 0.07719 0.88622 0.0
H537 H 0.07615 1.00069 0.96074 0.0
H538 H 0.04644 0.97345 0.96468 0.0
C539 C 0.05694 0.98987 0.94872 0.0
H540 H 0.06535 0.97764 0.92833 0.0
H541 H 0.11277 0.0393 0.93523 0.0
O542 O 0.97136 0.09922 0.88264 0.0
C543 C 0.0704 0.10318 0.8854 0.0
Co544 Co 0.82612 0.75821 0.62147 0.0
Co545 Co 0.78896 0.81731 0.62816 0.0
C546 C 0.7857 0.78094 0.57035 0.0
O547 O 0.80475 0.76137 0.58003 0.0
O548 O 0.77803 0.80321 0.58702 0.0
C549 C 0.84315 0.69371 0.61422 0.0
O550 O 0.82008 0.69022 0.59568 0.0
C551 C 0.73712 0.85765 0.6311 0.0
C552 C 0.75658 0.89639 0.65631 0.0
C553 C 0.73042 0.88584 0.64274 0.0
N554 N 0.76614 0.85175 0.63749 0.0
N555 N 0.77771 0.87497 0.65242 0.0
C556 C 0.71636 0.83637 0.61487 0.0
H557 H 0.72215 0.81271 0.62076 0.0
H558 H 0.69241 0.84115 0.6207 0.0
H559 H 0.71939 0.83908 0.58983 0.0
C560 C 0.79423 0.74605 0.68094 0.0
N561 N 0.79843 0.76228 0.65517 0.0
N562 N 0.78212 0.78706 0.65712 0.0
C563 C 0.76671 0.78715 0.68366 0.0
C564 C 0.77389 0.76128 0.69962 0.0
C565 C 0.81157 0.71824 0.68887 0.0
H566 H 0.80578 0.70028 0.67229 0.0
H567 H 0.80626 0.71033 0.71234 0.0
H568 H 0.83615 0.72282 0.68689 0.0
O569 O 0.85837 0.7896 0.62612 0.0
O570 O 0.83096 0.83099 0.63193 0.0
H571 H 0.73804 0.80803 0.71796 0.0
H572 H 0.7294 0.8174 0.67893 0.0
C573 C 0.748 0.8129 0.69521 0.0
H574 H 0.76224 0.8334 0.69698 0.0
H575 H 0.79997 0.87608 0.6602 0.0
O576 O 0.84855 0.71937 0.626 0.0
C577 C 0.8564 0.81782 0.6313 0.0
Co578 Co 0.49269 0.57561 0.87841 0.0
Co579 Co 0.43398 0.53814 0.88299 0.0
C580 C 0.47283 0.53469 0.8267 0.0
O581 O 0.49159 0.5544 0.83666 0.0
O582 O 0.45043 0.52665 0.84298 0.0
C583 C 0.54517 0.61228 0.86397 0.0
O584 O 0.53525 0.6112 0.83569 0.0
C585 C 0.39566 0.48526 0.88427 0.0
C586 C 0.35353 0.50398 0.90395 0.0
C587 C 0.36653 0.47787 0.89263 0.0
N588 N 0.39971 0.51462 0.89023 0.0
N589 N 0.37453 0.52576 0.90193 0.0
C590 C 0.41944 0.46494 0.87126 0.0
H591 H 0.44208 0.47182 0.87968 0.0
H592 H 0.41488 0.44103 0.87725 0.0
H593 H 0.41954 0.46715 0.846 0.0
C594 C 0.50402 0.54269 0.93766 0.0
N595 N 0.48788 0.5478 0.91196 0.0
N596 N 0.46257 0.53231 0.91368 0.0
C597 C 0.46164 0.51708 0.94027 0.0
C598 C 0.48785 0.52304 0.95627 0.0
C599 C 0.53307 0.55812 0.94531 0.0
H600 H 0.55009 0.55258 0.92756 0.0
H601 H 0.54166 0.55106 0.96804 0.0
H602 H 0.52961 0.58291 0.94511 0.0
O603 O 0.46062 0.60768 0.88158 0.0
O604 O 0.41929 0.57969 0.88477 0.0
H605 H 0.43829 0.49149 0.97535 0.0
H606 H 0.43206 0.47912 0.93669 0.0
C607 C 0.43513 0.49921 0.95145 0.0
H608 H 0.41439 0.51317 0.95016 0.0
H609 H 0.3717 0.5482 0.90856 0.0
O610 O 0.53124 0.59783 0.88471 0.0
C611 C 0.43208 0.60528 0.88473 0.0
Co612 Co 0.67469 0.24024 0.12795 0.0
Co613 Co 0.71902 0.18653 0.13664 0.0
C614 C 0.71944 0.22008 0.07788 0.0
O615 O 0.69818 0.2377 0.08702 0.0
O616 O 0.72951 0.19925 0.09513 0.0
C617 C 0.65294 0.30344 0.12162 0.0
O618 O 0.67849 0.31011 0.1079 0.0
C619 C 0.76556 0.13942 0.13651 0.0
C620 C 0.75711 0.11851 0.18171 0.0
C621 C 0.77487 0.11651 0.15577 0.0
N622 N 0.74337 0.1546 0.15062 0.0
N623 N 0.73828 0.1419 0.17748 0.0
C624 C 0.77596 0.14558 0.10458 0.0
H625 H 0.75658 0.14299 0.08872 0.0
H626 H 0.78392 0.16927 0.10296 0.0
H627 H 0.79435 0.13006 0.0975 0.0
C628 C 0.70332 0.25603 0.18936 0.0
N629 N 0.70145 0.24008 0.16297 0.0
N630 N 0.72272 0.21932 0.16339 0.0
C631 C 0.74003 0.2229 0.18841 0.0
C632 C 0.72793 0.24564 0.20603 0.0
C633 C 0.68038 0.27819 0.20053 0.0
H634 H 0.66038 0.27892 0.18543 0.0
H635 H 0.69095 0.30083 0.202 0.0
H636 H 0.67312 0.27199 0.224 0.0
O637 O 0.64589 0.20595 0.13178 0.0
O638 O 0.67824 0.16873 0.13949 0.0
H639 H 0.76043 0.186 0.21217 0.0
H640 H 0.78405 0.21847 0.20858 0.0
C641 C 0.76717 0.20436 0.19639 0.0
H642 H 0.77775 0.19481 0.17555 0.0
H643 H 0.72157 0.14899 0.19274 0.0
O644 O 0.64788 0.27656 0.13029 0.0
C645 C 0.65132 0.17834 0.13739 0.0
Co646 Co 0.01311 0.42783 0.37809 0.0
Co647 Co 0.07172 0.46608 0.3818 0.0
C648 C 0.03288 0.46917 0.32606 0.0
O649 O 0.01445 0.44922 0.33623 0.0
O650 O 0.05524 0.47765 0.34212 0.0
C651 C 0.94819 0.40876 0.37966 0.0
O652 O 0.94038 0.43681 0.37396 0.0
C653 C 0.11118 0.51854 0.3821 0.0
C654 C 0.15166 0.50004 0.40516 0.0
C655 C 0.1399 0.52581 0.39193 0.0
N656 N 0.10613 0.48957 0.38919 0.0
N657 N 0.13039 0.47855 0.40279 0.0
C658 C 0.0886 0.53873 0.367 0.0
H659 H 0.06542 0.5329 0.37473 0.0
H660 H 0.09354 0.56281 0.37194 0.0
H661 H 0.08959 0.53515 0.3419 0.0
C662 C 0.00229 0.46186 0.43847 0.0
N663 N 0.01759 0.45595 0.41224 0.0
N664 N 0.04291 0.4717 0.41287 0.0
C665 C 0.04438 0.48787 0.43892 0.0
C666 C 0.01884 0.48216 0.45594 0.0
C667 C 0.97425 0.4462 0.44885 0.0
H668 H 0.95927 0.44153 0.42932 0.0
H669 H 0.96192 0.46009 0.46592 0.0
H670 H 0.98068 0.42466 0.45994 0.0
O671 O 0.04591 0.39675 0.38163 0.0
O672 O 0.08728 0.42472 0.38255 0.0
H673 H 0.09141 0.49274 0.44915 0.0
H674 H 0.06721 0.5169 0.47156 0.0
C675 C 0.07071 0.5068 0.44862 0.0
H676 H 0.07398 0.52533 0.43201 0.0
H677 H 0.13232 0.45644 0.41072 0.0
O678 O 0.97602 0.40194 0.38152 0.0
C679 C 0.07453 0.39915 0.38328 0.0
Co680 Co 0.82408 0.23978 0.90876 0.0
Co681 Co 0.78108 0.1851 0.89964 0.0
C682 C 0.77889 0.2191 0.95818 0.0
O683 O 0.80003 0.23694 0.94925 0.0
O684 O 0.76943 0.19792 0.94095 0.0
C685 C 0.84346 0.30364 0.91495 0.0
O686 O 0.81758 0.30946 0.92844 0.0
C687 C 0.73528 0.13712 0.89822 0.0
C688 C 0.74503 0.11699 0.85288 0.0
C689 C 0.72661 0.11446 0.87829 0.0
N690 N 0.75772 0.15267 0.88498 0.0
N691 N 0.76362 0.14039 0.85807 0.0
C692 C 0.72382 0.14296 0.92986 0.0
H693 H 0.74286 0.14122 0.94624 0.0
H694 H 0.71489 0.16633 0.9312 0.0
H695 H 0.70586 0.12675 0.93645 0.0
C696 C 0.79583 0.255 0.84724 0.0
N697 N 0.79785 0.23893 0.87348 0.0
N698 N 0.77706 0.2177 0.87274 0.0
C699 C 0.75988 0.22104 0.8476 0.0
C700 C 0.77159 0.24418 0.83031 0.0
C701 C 0.81828 0.27787 0.83655 0.0
H702 H 0.83874 0.27797 0.85103 0.0
H703 H 0.80753 0.30045 0.83671 0.0
H704 H 0.82484 0.27297 0.81254 0.0
O705 O 0.85382 0.20623 0.90525 0.0
O706 O 0.82238 0.16823 0.89745 0.0
H707 H 0.74033 0.18386 0.82347 0.0
H708 H 0.71609 0.21589 0.82707 0.0
C709 C 0.73314 0.20205 0.8393 0.0
H710 H 0.72258 0.19223 0.86 0.0
H711 H 0.78057 0.14792 0.84332 0.0
O712 O 0.84966 0.27688 0.90662 0.0
C713 C 0.84907 0.17847 0.8997 0.0
Co714 Co 0.01193 0.57201 0.15612 0.0
Co715 Co 0.06795 0.53061 0.14866 0.0
C716 C 0.03291 0.52828 0.20644 0.0
O717 O 0.01495 0.54905 0.19708 0.0
O718 O 0.0544 0.51892 0.18956 0.0
C719 C 0.94812 0.5919 0.1506 0.0
O720 O 0.94045 0.56347 0.14716 0.0
C721 C 0.11553 0.48467 0.1491 0.0
C722 C 0.13923 0.4956 0.10586 0.0
C723 C 0.13959 0.47639 0.13074 0.0
N724 N 0.10127 0.50768 0.1355 0.0
N725 N 0.11563 0.51427 0.10984 0.0
C726 C 0.10705 0.47209 0.17965 0.0
H727 H 0.10907 0.49011 0.19713 0.0
H728 H 0.0831 0.46467 0.17914 0.0
H729 H 0.12172 0.45286 0.18623 0.0
C730 C 0.99771 0.54152 0.09478 0.0
N731 N 0.01348 0.54504 0.12112 0.0
N732 N 0.03599 0.52556 0.12078 0.0
C733 C 0.03386 0.50784 0.09585 0.0
C734 C 0.01012 0.51779 0.07827 0.0
C735 C 0.97362 0.56226 0.0835 0.0
H736 H 0.95116 0.55286 0.08949 0.0
H737 H 0.97463 0.56435 0.05822 0.0
H738 H 0.97629 0.58474 0.09392 0.0
O739 O 0.04493 0.60199 0.15167 0.0
O740 O 0.08457 0.57201 0.14726 0.0
H741 H 0.0425 0.46508 0.07423 0.0
H742 H 0.06351 0.4716 0.10899 0.0
C743 C 0.05462 0.48233 0.08798 0.0
H744 H 0.07355 0.49092 0.07384 0.0
H745 H 0.10935 0.53168 0.09511 0.0
O746 O 0.97551 0.59865 0.1558 0.0
C747 C 0.07315 0.59824 0.14798 0.0
Co748 Co 0.67906 0.76177 0.40308 0.0
Co749 Co 0.7263 0.81163 0.3904 0.0
C750 C 0.72648 0.78225 0.45077 0.0
O751 O 0.70401 0.76563 0.44282 0.0
O752 O 0.7376 0.80163 0.43243 0.0
C753 C 0.65979 0.69913 0.41064 0.0
O754 O 0.6873 0.69362 0.42043 0.0
C755 C 0.77283 0.85824 0.38461 0.0
C756 C 0.77059 0.86769 0.33494 0.0
C757 C 0.78529 0.87574 0.36162 0.0
N758 N 0.75192 0.84031 0.37201 0.0
N759 N 0.75024 0.84646 0.34248 0.0
C760 C 0.77916 0.85968 0.41817 0.0
H761 H 0.75752 0.85972 0.43099 0.0
H762 H 0.79197 0.83925 0.42502 0.0
H763 H 0.79241 0.88007 0.42429 0.0
C764 C 0.70407 0.74231 0.3413 0.0
N765 N 0.70445 0.75849 0.36758 0.0
N766 N 0.72815 0.7763 0.36694 0.0
C767 C 0.74514 0.76983 0.34231 0.0
C768 C 0.72998 0.74909 0.32466 0.0
C769 C 0.67778 0.72443 0.32985 0.0
H770 H 0.65969 0.72275 0.34722 0.0
H771 H 0.68552 0.70163 0.32288 0.0
H772 H 0.6685 0.73551 0.30913 0.0
O773 O 0.6517 0.79667 0.39796 0.0
O774 O 0.68599 0.83147 0.38737 0.0
H775 H 0.77385 0.79831 0.31528 0.0
H776 H 0.79121 0.76456 0.32847 0.0
C777 C 0.77553 0.78296 0.33522 0.0
H778 H 0.78507 0.7949 0.35529 0.0
H779 H 0.73505 0.83622 0.32747 0.0
O780 O 0.65211 0.72591 0.40388 0.0
C781 C 0.65858 0.82357 0.39071 0.0
Co782 Co 0.49367 0.43363 0.65567 0.0
Co783 Co 0.43393 0.46932 0.6515 0.0
C784 C 0.47273 0.47449 0.70736 0.0
O785 O 0.49176 0.45502 0.69737 0.0
O786 O 0.45008 0.48208 0.69122 0.0
C787 C 0.54716 0.39865 0.67008 0.0
O788 O 0.53766 0.40015 0.69851 0.0
C789 C 0.39221 0.51972 0.64974 0.0
C790 C 0.3529 0.49889 0.62656 0.0
C791 C 0.36333 0.52543 0.63941 0.0
N792 N 0.39862 0.49087 0.64336 0.0
N793 N 0.37509 0.47847 0.62962 0.0
C794 C 0.41365 0.54123 0.66474 0.0
H795 H 0.43718 0.53621 0.65751 0.0
H796 H 0.40777 0.56494 0.65916 0.0
H797 H 0.41238 0.53821 0.68989 0.0
C798 C 0.50399 0.46669 0.59639 0.0
N799 N 0.48802 0.46109 0.62211 0.0
N800 N 0.4623 0.47589 0.62054 0.0
C801 C 0.46106 0.49135 0.59409 0.0
C802 C 0.48735 0.48605 0.57792 0.0
C803 C 0.53342 0.452 0.58863 0.0
H804 H 0.53058 0.42713 0.58879 0.0
H805 H 0.55031 0.45792 0.60636 0.0
H806 H 0.54182 0.45931 0.56589 0.0
O807 O 0.4628 0.40053 0.65232 0.0
O808 O 0.42057 0.42725 0.65079 0.0
H809 H 0.41413 0.49452 0.58274 0.0
H810 H 0.43813 0.51894 0.56034 0.0
C811 C 0.43439 0.50922 0.5834 0.0
H812 H 0.43009 0.52794 0.59961 0.0
H813 H 0.3743 0.45613 0.6221 0.0
O814 O 0.53273 0.41248 0.64931 0.0
C815 C 0.43413 0.40208 0.65042 0.0
Co816 Co 0.17994 0.237 0.40644 0.0
Co817 Co 0.22256 0.18135 0.39943 0.0
C818 C 0.22453 0.21738 0.45667 0.0
O819 O 0.20339 0.23488 0.4472 0.0
O820 O 0.23418 0.19586 0.44002 0.0
C821 C 0.15884 0.30054 0.40051 0.0
O822 O 0.1872 0.30852 0.39682 0.0
C823 C 0.26976 0.13475 0.40063 0.0
C824 C 0.25887 0.10971 0.35819 0.0
C825 C 0.27839 0.11038 0.38285 0.0
N826 N 0.24627 0.14818 0.38688 0.0
N827 N 0.23973 0.133 0.36169 0.0
C828 C 0.28241 0.14423 0.43085 0.0
H829 H 0.26457 0.14216 0.44855 0.0
H830 H 0.28922 0.1683 0.42972 0.0
H831 H 0.30209 0.13023 0.43757 0.0
C832 C 0.2093 0.25042 0.34456 0.0
N833 N 0.20661 0.2351 0.37123 0.0
N834 N 0.22647 0.21292 0.37089 0.0
C835 C 0.2436 0.21484 0.34551 0.0
C836 C 0.23289 0.23809 0.32774 0.0
C837 C 0.18786 0.27394 0.33337 0.0
H838 H 0.16553 0.27084 0.34412 0.0
H839 H 0.19685 0.29659 0.33915 0.0
H840 H 0.18548 0.27273 0.30814 0.0
O841 O 0.15072 0.20331 0.40301 0.0
O842 O 0.18137 0.16411 0.39879 0.0
H843 H 0.26047 0.17499 0.32389 0.0
H844 H 0.28597 0.20629 0.32293 0.0
C845 C 0.26921 0.19429 0.33738 0.0
H846 H 0.28062 0.18598 0.35828 0.0
H847 H 0.22199 0.13846 0.34699 0.0
O848 O 0.15249 0.27309 0.40579 0.0
C849 C 0.15493 0.17514 0.39971 0.0
Co850 Co 0.50856 0.42938 0.1578 0.0
Co851 Co 0.56692 0.46717 0.14936 0.0
C852 C 0.53146 0.47284 0.20729 0.0
O853 O 0.51231 0.45286 0.19844 0.0
O854 O 0.55348 0.48048 0.19015 0.0
C855 C 0.45492 0.39357 0.174 0.0
O856 O 0.46468 0.39407 0.20235 0.0
C857 C 0.61583 0.51155 0.1479 0.0
C858 C 0.64008 0.49686 0.10609 0.0
C859 C 0.64028 0.518 0.12934 0.0
N860 N 0.60148 0.48773 0.13591 0.0
N861 N 0.61618 0.47886 0.11115 0.0
C862 C 0.60664 0.52698 0.17689 0.0
H863 H 0.58291 0.53483 0.17483 0.0
H864 H 0.62157 0.54637 0.1823 0.0
H865 H 0.60755 0.51053 0.19596 0.0
C866 C 0.49467 0.46006 0.09798 0.0
N867 N 0.51186 0.45578 0.12314 0.0
N868 N 0.53585 0.47317 0.12107 0.0
C869 C 0.53407 0.48994 0.09548 0.0
C870 C 0.5083 0.48185 0.07977 0.0
C871 C 0.46682 0.44244 0.09063 0.0
H872 H 0.44893 0.44831 0.10736 0.0
H873 H 0.45856 0.44743 0.06721 0.0
H874 H 0.47158 0.41795 0.0928 0.0
O875 O 0.53983 0.39674 0.1545 0.0
O876 O 0.58059 0.425 0.14848 0.0
H877 H 0.54659 0.52955 0.06983 0.0
H878 H 0.56678 0.52445 0.10529 0.0
C879 C 0.55698 0.51264 0.08529 0.0
H880 H 0.57516 0.501 0.07243 0.0
H881 H 0.60976 0.46052 0.09765 0.0
O882 O 0.4693 0.40786 0.15347 0.0
C883 C 0.56816 0.39928 0.15008 0.0
Co884 Co 0.32533 0.76315 0.90714 0.0
Co885 Co 0.28072 0.81638 0.89739 0.0
C886 C 0.27991 0.78312 0.95636 0.0
O887 O 0.30144 0.76566 0.94765 0.0
O888 O 0.26988 0.80375 0.93886 0.0
C889 C 0.34726 0.70043 0.91459 0.0
O890 O 0.32162 0.69389 0.9282 0.0
C891 C 0.23379 0.86299 0.89729 0.0
C892 C 0.242 0.88395 0.85208 0.0
C893 C 0.22431 0.88584 0.87808 0.0
N894 N 0.25603 0.84793 0.88313 0.0
N895 N 0.26097 0.86064 0.85625 0.0
C896 C 0.22361 0.85688 0.92931 0.0
H897 H 0.21589 0.83312 0.9311 0.0
H898 H 0.20509 0.87225 0.9364 0.0
H899 H 0.24303 0.85979 0.94505 0.0
C900 C 0.2974 0.74607 0.84585 0.0
N901 N 0.29901 0.76262 0.87186 0.0
N902 N 0.27771 0.78334 0.87077 0.0
C903 C 0.26067 0.77919 0.84564 0.0
C904 C 0.27293 0.75601 0.82875 0.0
C905 C 0.3205 0.7238 0.83524 0.0
H906 H 0.33987 0.7225 0.85108 0.0
H907 H 0.30969 0.70135 0.83276 0.0
H908 H 0.32882 0.7304 0.81225 0.0
O909 O 0.3538 0.79761 0.90329 0.0
O910 O 0.32135 0.83465 0.89499 0.0
H911 H 0.24074 0.81573 0.82097 0.0
H912 H 0.21699 0.78333 0.82462 0.0
C913 C 0.23368 0.79759 0.83688 0.0
H914 H 0.22274 0.80745 0.85738 0.0
H915 H 0.27773 0.85371 0.84098 0.0
O916 O 0.35237 0.72717 0.9056 0.0
C917 C 0.34828 0.82516 0.89749 0.0
Co918 Co 0.98925 0.57649 0.65787 0.0
Co919 Co 0.93733 0.5307 0.64676 0.0
C920 C 0.96858 0.5309 0.70681 0.0
O921 O 0.9859 0.55264 0.69841 0.0
O922 O 0.94853 0.52046 0.68882 0.0
C923 C 0.05149 0.60067 0.65376 0.0
O924 O 0.06064 0.57276 0.64972 0.0
C925 C 0.89092 0.48363 0.64558 0.0
C926 C 0.8721 0.49042 0.59917 0.0
C927 C 0.8689 0.47364 0.6256 0.0
N928 N 0.90676 0.50531 0.63147 0.0
N929 N 0.89533 0.50938 0.60386 0.0
C930 C 0.8953 0.47466 0.67823 0.0
H931 H 0.91894 0.46701 0.6816 0.0
H932 H 0.87951 0.45646 0.68515 0.0
H933 H 0.89161 0.49464 0.69306 0.0
C934 C 0.00839 0.54829 0.5966 0.0
N935 N 0.99161 0.54983 0.62252 0.0
N936 N 0.9716 0.52784 0.62157 0.0
C937 C 0.97671 0.51036 0.59693 0.0
C938 C 0.99955 0.52306 0.57992 0.0
C939 C 0.02936 0.5723 0.58551 0.0
H940 H 0.05295 0.56594 0.59108 0.0
H941 H 0.02783 0.57464 0.56029 0.0
H942 H 0.02373 0.59408 0.59635 0.0
O943 O 0.95421 0.60391 0.65253 0.0
O944 O 0.91812 0.57084 0.64281 0.0
H945 H 0.94182 0.48815 0.57163 0.0
H946 H 0.97479 0.46577 0.57777 0.0
C947 C 0.95947 0.48247 0.58866 0.0
H948 H 0.9491 0.47212 0.60919 0.0
H949 H 0.903 0.52566 0.58847 0.0
O950 O 0.02376 0.6058 0.65912 0.0
C951 C 0.92703 0.59792 0.64548 0.0
Co952 Co 0.1752 0.76216 0.12508 0.0
Co953 Co 0.21834 0.81666 0.13452 0.0
C954 C 0.21985 0.78351 0.0756 0.0
O955 O 0.19884 0.76556 0.08451 0.0
O956 O 0.22939 0.80452 0.09295 0.0
C957 C 0.15564 0.69842 0.12928 0.0
O958 O 0.18429 0.69139 0.13253 0.0
C959 C 0.26526 0.8633 0.13549 0.0
C960 C 0.25564 0.88491 0.18016 0.0
C961 C 0.2744 0.88617 0.15491 0.0
N962 N 0.24219 0.84883 0.14884 0.0
N963 N 0.23637 0.86195 0.17536 0.0
C964 C 0.27706 0.85619 0.10424 0.0
H965 H 0.25856 0.85887 0.08737 0.0
H966 H 0.28454 0.8323 0.1035 0.0
H967 H 0.29614 0.87114 0.09779 0.0
C968 C 0.20502 0.74584 0.1863 0.0
N969 N 0.20217 0.76216 0.16024 0.0
N970 N 0.2228 0.78359 0.16082 0.0
C971 C 0.2406 0.78014 0.18549 0.0
C972 C 0.22957 0.75671 0.20277 0.0
C973 C 0.18285 0.72299 0.19747 0.0
H974 H 0.19078 0.70009 0.19112 0.0
H975 H 0.18096 0.72382 0.22277 0.0
H976 H 0.16049 0.72723 0.18724 0.0
O977 O 0.14579 0.79596 0.12952 0.0
O978 O 0.17728 0.83379 0.13768 0.0
H979 H 0.25961 0.81797 0.20899 0.0
H980 H 0.28432 0.78621 0.20606 0.0
C981 C 0.2671 0.79958 0.19355 0.0
H982 H 0.27759 0.80913 0.1727 0.0
H983 H 0.21908 0.85528 0.19013 0.0
O984 O 0.1483 0.72573 0.1246 0.0
C985 C 0.15057 0.82363 0.13553 0.0
Co986 Co 0.98867 0.42637 0.87564 0.0
Co987 Co 0.93192 0.46712 0.88375 0.0
C988 C 0.96742 0.47013 0.82572 0.0
O989 O 0.98586 0.44965 0.83486 0.0
O990 O 0.94566 0.47879 0.84267 0.0
C991 C 0.05283 0.4079 0.86812 0.0
O992 O 0.05704 0.43175 0.85084 0.0
C993 C 0.88375 0.51246 0.88269 0.0
C994 C 0.86038 0.50212 0.92625 0.0
C995 C 0.8597 0.52088 0.90102 0.0
N996 N 0.89832 0.48985 0.89666 0.0
N997 N 0.88412 0.48358 0.92249 0.0
C998 C 0.89189 0.52444 0.8518 0.0
H999 H 0.89068 0.50584 0.83487 0.0
H1000 H 0.91553 0.5328 0.85219 0.0
H1001 H 0.87653 0.54288 0.84456 0.0
C1002 C 0.00296 0.45597 0.93602 0.0
N1003 N 0.98637 0.45307 0.91025 0.0
N1004 N 0.96359 0.4721 0.91173 0.0
C1005 C 0.96594 0.48878 0.93736 0.0
C1006 C 0.99051 0.47878 0.95382 0.0
C1007 C 0.02833 0.43552 0.94481 0.0
H1008 H 0.04871 0.44209 0.93177 0.0
H1009 H 0.03343 0.43724 0.9696 0.0
H1010 H 0.02262 0.41186 0.93886 0.0
O1011 O 0.95587 0.39553 0.87942 0.0
O1012 O 0.91637 0.42553 0.88579 0.0
H1013 H 0.9568 0.53046 0.96092 0.0
H1014 H 0.93495 0.52467 0.92655 0.0
C1015 C 0.94476 0.51341 0.94685 0.0
H1016 H 0.92648 0.50374 0.96115 0.0
H1017 H 0.89057 0.46642 0.93746 0.0
O1018 O 0.02683 0.40244 0.87917 0.0
C1019 C 0.92776 0.3993 0.88431 0.0
Co1020 Co 0.32646 0.24156 0.62622 0.0
Co1021 Co 0.28776 0.18344 0.63363 0.0
C1022 C 0.28472 0.22024 0.57582 0.0
O1023 O 0.30434 0.23944 0.58508 0.0
O1024 O 0.27695 0.19828 0.59278 0.0
C1025 C 0.34846 0.30546 0.63061 0.0
O1026 O 0.32033 0.31488 0.62997 0.0
C1027 C 0.23413 0.14527 0.63431 0.0
C1028 C 0.25093 0.10548 0.65966 0.0
C1029 C 0.22587 0.11713 0.64494 0.0
N1030 N 0.26299 0.15007 0.6423 0.0
N1031 N 0.27296 0.12622 0.65735 0.0
C1032 C 0.21503 0.16739 0.61723 0.0
H1033 H 0.22076 0.19075 0.62436 0.0
H1034 H 0.19062 0.16293 0.62105 0.0
H1035 H 0.21991 0.16536 0.59242 0.0
C1036 C 0.29334 0.25549 0.68646 0.0
N1037 N 0.29878 0.23884 0.66099 0.0
N1038 N 0.28249 0.21396 0.66295 0.0
C1039 C 0.26634 0.21413 0.68905 0.0
C1040 C 0.27261 0.24034 0.70474 0.0
C1041 C 0.30914 0.28409 0.6948 0.0
H1042 H 0.29778 0.30323 0.68324 0.0
H1043 H 0.30823 0.28816 0.71983 0.0
H1044 H 0.33293 0.28307 0.68737 0.0
O1045 O 0.35681 0.20835 0.62958 0.0
O1046 O 0.3291 0.16743 0.6365 0.0
H1047 H 0.2367 0.19363 0.72269 0.0
H1048 H 0.22851 0.18468 0.68343 0.0
C1049 C 0.24693 0.18869 0.70006 0.0
H1050 H 0.26073 0.16791 0.70191 0.0
H1051 H 0.29479 0.12413 0.66609 0.0
O1052 O 0.35402 0.27745 0.62828 0.0
C1053 C 0.35469 0.18018 0.6347 0.0
Co1054 Co 0.51216 0.57959 0.3758 0.0
Co1055 Co 0.56651 0.5363 0.38439 0.0
C1056 C 0.53232 0.53458 0.32598 0.0
O1057 O 0.51475 0.55592 0.33497 0.0
O1058 O 0.5533 0.52479 0.34324 0.0
C1059 C 0.44897 0.601 0.36882 0.0
O1060 O 0.44244 0.57561 0.35479 0.0
C1061 C 0.61336 0.48966 0.3849 0.0
C1062 C 0.63576 0.49994 0.429 0.0
C1063 C 0.63673 0.48099 0.4039 0.0
N1064 N 0.59888 0.51266 0.39835 0.0
N1065 N 0.61246 0.51885 0.42454 0.0
C1066 C 0.6059 0.47764 0.35384 0.0
H1067 H 0.60853 0.49597 0.33681 0.0
H1068 H 0.58192 0.47029 0.35341 0.0
H1069 H 0.62073 0.45849 0.34737 0.0
C1070 C 0.49634 0.55092 0.43713 0.0
N1071 N 0.51264 0.55318 0.41098 0.0
N1072 N 0.53413 0.53265 0.41182 0.0
C1073 C 0.53086 0.51551 0.437 0.0
C1074 C 0.50734 0.52685 0.45411 0.0
C1075 C 0.47304 0.57294 0.44778 0.0
H1076 H 0.47149 0.59264 0.43242 0.0
H1077 H 0.45087 0.56135 0.44929 0.0
H1078 H 0.47875 0.58082 0.47118 0.0
O1079 O 0.54601 0.60884 0.37973 0.0
O1080 O 0.58409 0.57715 0.38605 0.0
H1081 H 0.56899 0.49715 0.46047 0.0
H1082 H 0.5371 0.47244 0.45872 0.0
C1083 C 0.55036 0.48926 0.44554 0.0
H1084 H 0.55971 0.47822 0.42485 0.0
H1085 H 0.60594 0.53625 0.43923 0.0
O1086 O 0.47575 0.60601 0.3779 0.0
C1087 C 0.5739 0.60383 0.38442 0.0
C1088 C 0.23908 0.22869 0.24132 0.0
C1089 C 0.26245 0.24959 0.23486 0.0
C1090 C 0.26312 0.26594 0.28849 0.0
C1091 C 0.24121 0.24366 0.29536 0.0
N1092 N 0.20979 0.20195 0.27961 0.0
N1093 N 0.29985 0.28527 0.25223 0.0
C1094 C 0.22958 0.22448 0.27211 0.0
C1095 C 0.27537 0.26744 0.25846 0.0
N1096 N 0.22536 0.2136 0.21783 0.0
N1097 N 0.27181 0.28596 0.31062 0.0
H1098 H 0.30937 0.28703 0.23048 0.0
H1099 H 0.31233 0.29647 0.2689 0.0
H1100 H 0.26361 0.28513 0.33297 0.0
H1101 H 0.28525 0.30477 0.30643 0.0
H1102 H 0.20583 0.20075 0.22036 0.0
H1103 H 0.23256 0.21528 0.19518 0.0
H1104 H 0.20338 0.18485 0.26464 0.0
H1105 H 0.20078 0.19935 0.30149 0.0
C1106 C 0.02151 0.01901 0.53526 0.0
C1107 C 0.00459 0.99532 0.54882 0.0
C1108 C 0.98333 0.98445 0.49876 0.0
C1109 C 0.99975 0.00841 0.48519 0.0
N1110 N 0.04938 0.03017 0.48981 0.0
N1111 N 0.95423 0.97549 0.54368 0.0
C1112 C 0.02312 0.02111 0.50306 0.0
C1113 C 0.98119 0.98291 0.53086 0.0
N1114 N 0.03364 0.04136 0.55273 0.0
N1115 N 0.97152 0.96181 0.48147 0.0
H1116 H 0.94938 0.98117 0.56633 0.0
H1117 H 0.93595 0.96809 0.53056 0.0
H1118 H 0.97593 0.96015 0.45807 0.0
H1119 H 0.96033 0.94349 0.49136 0.0
H1120 H 0.04483 0.05977 0.54305 0.0
H1121 H 0.02923 0.04291 0.57613 0.0
H1122 H 0.06772 0.03782 0.50268 0.0
H1123 H 0.05387 0.0255 0.46686 0.0
C1124 C 0.2782 0.7662 0.77259 0.0
C1125 C 0.26511 0.74898 0.79656 0.0
C1126 C 0.22905 0.72664 0.76065 0.0
C1127 C 0.24339 0.74232 0.73636 0.0
N1128 N 0.28405 0.77358 0.71795 0.0
N1129 N 0.23161 0.70956 0.81331 0.0
C1130 C 0.26867 0.76117 0.74197 0.0
C1131 C 0.2416 0.72815 0.79052 0.0
N1132 N 0.29912 0.78796 0.77923 0.0
N1133 N 0.20291 0.71104 0.75526 0.0
H1134 H 0.2403 0.71032 0.83548 0.0
H1135 H 0.21666 0.69177 0.80978 0.0
H1136 H 0.19299 0.70955 0.73368 0.0
H1137 H 0.18965 0.70165 0.77246 0.0
H1138 H 0.3067 0.80379 0.76343 0.0
H1139 H 0.30771 0.79143 0.80115 0.0
H1140 H 0.3047 0.78462 0.72021 0.0
H1141 H 0.27721 0.77109 0.69527 0.0
C1142 C 0.4843 0.02549 0.02291 0.0
C1143 C 0.5011 0.01135 0.04658 0.0
C1144 C 0.5231 0.97577 1.00973 0.0
C1145 C 0.50633 0.98999 0.98607 0.0
N1146 N 0.47382 0.02991 0.96856 0.0
N1147 N 0.53504 0.97264 0.06399 0.0
C1148 C 0.48758 0.0152 0.99227 0.0
C1149 C 0.52033 0.9865 0.04033 0.0
N1150 N 0.46442 0.0481 0.03005 0.0
N1151 N 0.54218 0.95246 1.00262 0.0
H1152 H 0.5344 0.98076 0.08637 0.0
H1153 H 0.54724 0.95269 0.06206 0.0
H1154 H 0.54359 0.94304 0.98081 0.0
H1155 H 0.55737 0.94273 0.01779 0.0
H1156 H 0.44868 0.05695 1.01487 0.0
H1157 H 0.4626 0.05739 0.0519 0.0
H1158 H 0.4627 0.05048 0.97068 0.0
H1159 H 0.47475 0.02225 0.94602 0.0
C1160 C 0.2246 0.76732 0.25891 0.0
C1161 C 0.23827 0.75054 0.23491 0.0
C1162 C 0.27596 0.7306 0.27054 0.0
C1163 C 0.261 0.74562 0.2949 0.0
N1164 N 0.21909 0.77505 0.31356 0.0
N1165 N 0.27393 0.71313 0.21793 0.0
C1166 C 0.23476 0.76314 0.28944 0.0
C1167 C 0.26307 0.73122 0.24078 0.0
N1168 N 0.20249 0.78789 0.25238 0.0
N1169 N 0.30286 0.71633 0.27583 0.0
H1170 H 0.26498 0.71322 0.19586 0.0
H1171 H 0.29 0.69632 0.22132 0.0
H1172 H 0.31293 0.71547 0.29737 0.0
H1173 H 0.31649 0.7075 0.25861 0.0
H1174 H 0.19427 0.80346 0.26816 0.0
H1175 H 0.19347 0.79072 0.23055 0.0
H1176 H 0.19783 0.78491 0.31151 0.0
H1177 H 0.2265 0.77342 0.33614 0.0
C1178 C 0.52949 0.01188 0.49211 0.0
C1179 C 0.51061 0.98669 0.48644 0.0
C1180 C 0.50097 0.98122 0.54141 0.0
C1181 C 0.51756 0.00808 0.54676 0.0
N1182 N 0.54516 0.05099 0.52764 0.0
N1183 N 0.47618 0.94852 0.50466 0.0
C1184 C 0.53123 0.02396 0.52221 0.0
C1185 C 0.49582 0.97157 0.51084 0.0
N1186 N 0.54603 0.02394 0.46869 0.0
N1187 N 0.49076 0.96459 0.56564 0.0
H1188 H 0.47298 0.93975 0.48277 0.0
H1189 H 0.46177 0.93911 0.52088 0.0
H1190 H 0.49326 0.97148 0.58832 0.0
H1191 H 0.4816 0.94306 0.56353 0.0
H1192 H 0.56251 0.04043 0.47167 0.0
H1193 H 0.54502 0.01564 0.44638 0.0
H1194 H 0.55283 0.06529 0.51045 0.0
H1195 H 0.54715 0.06034 0.54944 0.0
C1196 C 0.27832 0.23539 0.76152 0.0
C1197 C 0.26241 0.24765 0.73626 0.0
C1198 C 0.22458 0.26943 0.77087 0.0
C1199 C 0.23952 0.25564 0.79596 0.0
N1200 N 0.27786 0.22233 0.81546 0.0
N1201 N 0.21882 0.27312 0.7158 0.0
C1202 C 0.26562 0.23766 0.79134 0.0
C1203 C 0.2351 0.26383 0.74063 0.0
N1204 N 0.30587 0.22211 0.75699 0.0
N1205 N 0.20078 0.28845 0.77608 0.0
H1206 H 0.22646 0.2705 0.69337 0.0
H1207 H 0.19701 0.2818 0.71716 0.0
H1208 H 0.19148 0.29192 0.79772 0.0
H1209 H 0.19124 0.30211 0.75934 0.0
H1210 H 0.32015 0.21549 0.77464 0.0
H1211 H 0.31566 0.2197 0.73543 0.0
H1212 H 0.29499 0.20639 0.81328 0.0
H1213 H 0.26925 0.2238 0.83762 0.0
C1214 C 0.02118 0.02601 1.01234 0.0
C1215 C 0.00341 0.01386 0.98825 0.0
C1216 C 0.98077 0.97731 0.02337 0.0
C1217 C 0.99719 0.99058 0.04779 0.0
N1218 N 0.03037 0.02925 0.06698 0.0
N1219 N 0.96353 0.98118 0.97083 0.0
C1220 C 0.01678 0.01536 0.04267 0.0
C1221 C 0.98233 0.99046 0.99379 0.0
N1222 N 0.0426 0.0474 1.00606 0.0
N1223 N 0.96427 0.95168 0.02843 0.0
H1224 H 0.96443 0.9901 0.94878 0.0
H1225 H 0.94551 0.96643 0.97402 0.0
H1226 H 0.96262 0.94146 0.04983 0.0
H1227 H 0.95418 0.93909 1.01114 0.0
H1228 H 0.05889 0.05443 0.02166 0.0
H1229 H 0.0451 0.05727 0.98457 0.0
H1230 H 0.04203 0.04959 0.06542 0.0
H1231 H 0.0286 0.02126 0.08933 0.0
C1232 C 0.77154 0.76447 0.78659 0.0
C1233 C 0.74409 0.74893 0.79215 0.0
C1234 C 0.73905 0.73746 0.73752 0.0
C1235 C 0.76534 0.75476 0.73171 0.0
N1236 N 0.80553 0.78705 0.74951 0.0
N1237 N 0.69956 0.72361 0.7734 0.0
C1238 C 0.78135 0.76889 0.75594 0.0
C1239 C 0.72721 0.73626 0.76772 0.0
N1240 N 0.7886 0.77425 0.81071 0.0
N1241 N 0.7258 0.72173 0.71418 0.0
H1242 H 0.69035 0.72194 0.79528 0.0
H1243 H 0.68464 0.7168 0.75637 0.0
H1244 H 0.73377 0.72242 0.69174 0.0
H1245 H 0.70845 0.70618 0.71727 0.0
H1246 H 0.81051 0.78252 0.80856 0.0
H1247 H 0.78144 0.77254 0.83338 0.0
H1248 H 0.81442 0.78947 0.72756 0.0
H1249 H 0.81592 0.80096 0.76555 0.0
C1250 C 0.73582 0.23556 0.29214 0.0
C1251 C 0.75895 0.25682 0.29832 0.0
C1252 C 0.75738 0.27442 0.24515 0.0
C1253 C 0.73596 0.25164 0.23841 0.0
N1254 N 0.70616 0.20879 0.25416 0.0
N1255 N 0.79479 0.29388 0.28062 0.0
C1256 C 0.7255 0.23174 0.26158 0.0
C1257 C 0.77057 0.27557 0.27477 0.0
N1258 N 0.72313 0.21971 0.31569 0.0
N1259 N 0.76475 0.29517 0.22326 0.0
H1260 H 0.80506 0.29527 0.30203 0.0
H1261 H 0.80635 0.30586 0.26384 0.0
H1262 H 0.75565 0.29469 0.20127 0.0
H1263 H 0.77787 0.31422 0.22744 0.0
H1264 H 0.7038 0.2065 0.31346 0.0
H1265 H 0.73095 0.22111 0.33814 0.0
H1266 H 0.70069 0.19122 0.26892 0.0
H1267 H 0.69657 0.2064 0.23252 0.0
C1268 C 0.72863 0.27451 0.76205 0.0
C1269 C 0.74088 0.25658 0.73813 0.0
C1270 C 0.77452 0.23137 0.77452 0.0
C1271 C 0.76347 0.25055 0.79807 0.0
N1272 N 0.73365 0.29312 0.81404 0.0
N1273 N 0.77766 0.22067 0.72014 0.0
C1274 C 0.74162 0.27301 0.79172 0.0
C1275 C 0.76441 0.23568 0.74397 0.0
N1276 N 0.70399 0.29232 0.75648 0.0
N1277 N 0.79424 0.20863 0.78153 0.0
H1278 H 0.77007 0.22247 0.69764 0.0
H1279 H 0.79724 0.20783 0.72222 0.0
H1280 H 0.80364 0.20591 0.80321 0.0
H1281 H 0.80018 0.19151 0.76638 0.0
H1282 H 0.69202 0.30362 0.77348 0.0
H1283 H 0.69382 0.29391 0.73503 0.0
H1284 H 0.72018 0.31199 0.81019 0.0
H1285 H 0.74256 0.29236 0.83611 0.0
C1286 C 0.75628 0.72061 0.2833 0.0
C1287 C 0.73624 0.74402 0.29177 0.0
C1288 C 0.73666 0.76358 0.23927 0.0
C1289 C 0.75885 0.74184 0.23157 0.0
N1290 N 0.79281 0.7019 0.24651 0.0
N1291 N 0.70886 0.78947 0.27923 0.0
C1292 C 0.76948 0.72091 0.25367 0.0
C1293 C 0.7267 0.76591 0.27009 0.0
N1294 N 0.76234 0.69796 0.30358 0.0
N1295 N 0.72458 0.78145 0.21693 0.0
H1296 H 0.69963 0.7911 0.30112 0.0
H1297 H 0.70439 0.80824 0.26569 0.0
H1298 H 0.73222 0.78113 0.19435 0.0
H1299 H 0.70581 0.79524 0.22022 0.0
H1300 H 0.77447 0.67859 0.298 0.0
H1301 H 0.75292 0.69729 0.32545 0.0
H1302 H 0.80366 0.68821 0.26238 0.0
H1303 H 0.80314 0.70153 0.22506 0.0
C1304 C 0.48258 0.52985 1.0129 0.0
C1305 C 0.4945 0.51315 0.98795 0.0
C1306 C 0.5145 0.4751 0.02319 0.0
C1307 C 0.50104 0.49089 0.04796 0.0
N1308 N 0.46895 0.53063 0.06673 0.0
N1309 N 0.51833 0.46827 0.96826 0.0
C1310 C 0.48406 0.51751 0.04288 0.0
C1311 C 0.50952 0.4853 0.99279 0.0
N1312 N 0.47035 0.55776 1.00789 0.0
N1313 N 0.53274 0.45081 0.02882 0.0
H1314 H 0.51622 0.47562 0.9457 0.0
H1315 H 0.52604 0.44616 0.97001 0.0
H1316 H 0.54625 0.44063 1.01228 0.0
H1317 H 0.53579 0.44173 0.05059 0.0
H1318 H 0.46403 0.57249 0.02528 0.0
H1319 H 0.46857 0.56729 0.98617 0.0
H1320 H 0.45373 0.54835 0.06424 0.0
H1321 H 0.46981 0.52218 0.08897 0.0
C1322 C 0.02797 0.49192 0.54185 0.0
C1323 C 0.0066 0.51499 0.54775 0.0
C1324 C 0.99378 0.51727 0.49321 0.0
C1325 C 0.0132 0.49239 0.48779 0.0
N1326 N 0.04579 0.45317 0.50698 0.0
N1327 N 0.96656 0.54765 0.53025 0.0
C1328 C 0.02951 0.47891 0.51215 0.0
C1329 C 0.98882 0.52721 0.52373 0.0
N1330 N 0.04701 0.48279 0.56462 0.0
N1331 N 0.98073 0.5319 0.46908 0.0
H1332 H 0.96306 0.55653 0.55205 0.0
H1333 H 0.95035 0.55451 0.51449 0.0
H1334 H 0.98312 0.52469 0.44649 0.0
H1335 H 0.96923 0.55229 0.47112 0.0
H1336 H 0.06514 0.4682 0.56118 0.0
H1337 H 0.04626 0.49184 0.58665 0.0
H1338 H 0.05571 0.44047 0.52427 0.0
H1339 H 0.04736 0.44298 0.48553 0.0
C1340 C 0.02309 0.52037 0.02246 0.0
C1341 C 0.00426 0.5089 0.04609 0.0
C1342 C 0.98003 0.47438 1.00984 0.0
C1343 C 0.99744 0.48721 0.98588 0.0
N1344 N 0.0332 0.52412 0.968 0.0
N1345 N 0.96243 0.47811 0.06233 0.0
C1346 C 0.01845 0.51061 0.99183 0.0
C1347 C 0.982 0.4868 0.03977 0.0
N1348 N 0.04567 0.54032 0.02943 0.0
N1349 N 0.96214 0.44986 1.00401 0.0
H1350 H 0.96363 0.48641 0.08463 0.0
H1351 H 0.94363 0.46449 0.05859 0.0
H1352 H 0.96009 0.44025 0.98234 0.0
H1353 H 0.95119 0.43747 0.02091 0.0
H1354 H 0.06256 0.54663 1.01417 0.0
H1355 H 0.04854 0.54959 0.05116 0.0
H1356 H 0.04606 0.54367 0.97015 0.0
H1357 H 0.03125 0.5167 0.94544 0.0
C1358 C 0.47983 0.49456 0.49182 0.0
C1359 C 0.50043 0.51836 0.48617 0.0
C1360 C 0.51245 0.5213 0.54088 0.0
C1361 C 0.49366 0.49592 0.54612 0.0
N1362 N 0.46277 0.45546 0.52659 0.0
N1363 N 0.53899 0.55255 0.50411 0.0
C1364 C 0.47824 0.48171 0.52156 0.0
C1365 C 0.51747 0.53128 0.51039 0.0
N1366 N 0.46151 0.48458 0.46877 0.0
N1367 N 0.52474 0.5364 0.56515 0.0
H1368 H 0.54235 0.56152 0.48234 0.0
H1369 H 0.55474 0.56011 0.52005 0.0
H1370 H 0.52232 0.52919 0.58772 0.0
H1371 H 0.53569 0.55711 0.56324 0.0
H1372 H 0.44384 0.46941 0.472 0.0
H1373 H 0.46234 0.49342 0.44669 0.0
H1374 H 0.45356 0.4423 0.50922 0.0
H1375 H 0.46123 0.44536 0.54807 0.0
C1376 C 0.37139 0.14717 0.11191 0.0
C1377 C 0.3707 0.17242 0.13193 0.0
C1378 C 0.41062 0.14936 0.16325 0.0
C1379 C 0.4122 0.12484 0.14254 0.0
N1380 N 0.40002 0.10448 0.09284 0.0
N1381 N 0.39631 0.2013 0.1714 0.0
C1382 C 0.39422 0.12485 0.11562 0.0
C1383 C 0.39245 0.17481 0.15587 0.0
N1384 N 0.35048 0.14461 0.08906 0.0
N1385 N 0.4252 0.14781 0.19075 0.0
H1386 H 0.38436 0.22091 0.16672 0.0
H1387 H 0.41393 0.20485 0.18679 0.0
H1388 H 0.43832 0.12939 0.19732 0.0
H1389 H 0.42192 0.16345 0.20825 0.0
H1390 H 0.34729 0.12491 0.07648 0.0
H1391 H 0.3353 0.16175 0.08353 0.0
H1392 H 0.38973 0.10519 0.07145 0.0
H1393 H 0.41747 0.08869 0.09401 0.0
C1394 C 0.07788 0.13811 0.40953 0.0
C1395 C 0.07841 0.11614 0.38575 0.0
C1396 C 0.12716 0.1364 0.36836 0.0
C1397 C 0.12859 0.1549 0.3949 0.0
N1398 N 0.10763 0.16912 0.44374 0.0
N1399 N 0.10444 0.09339 0.343 0.0
C1400 C 0.10455 0.15466 0.41628 0.0
C1401 C 0.10345 0.11486 0.36544 0.0
N1402 N 0.0519 0.14388 0.42535 0.0
N1403 N 0.14741 0.1406 0.34509 0.0
H1404 H 0.08637 0.07908 0.33808 0.0
H1405 H 0.12377 0.0888 0.3302 0.0
H1406 H 0.16427 0.15703 0.34562 0.0
H1407 H 0.14566 0.12997 0.32392 0.0
H1408 H 0.04979 0.16162 0.44086 0.0
H1409 H 0.03142 0.13358 0.42046 0.0
H1410 H 0.09216 0.16684 0.46156 0.0
H1411 H 0.12711 0.18085 0.44996 0.0
C1412 C 0.11671 0.86853 0.65642 0.0
C1413 C 0.08762 0.87234 0.64326 0.0
C1414 C 0.09438 0.82488 0.61522 0.0
C1415 C 0.12512 0.82378 0.62451 0.0
N1416 N 0.16711 0.84867 0.64921 0.0
N1417 N 0.0521 0.8573 0.60386 0.0
C1418 C 0.13675 0.84672 0.6439 0.0
C1419 C 0.07725 0.85137 0.62097 0.0
N1420 N 0.12497 0.88516 0.68137 0.0
N1421 N 0.08102 0.80032 0.602 0.0
H1422 H 0.03969 0.87719 0.60561 0.0
H1423 H 0.04561 0.8439 0.58539 0.0
H1424 H 0.09213 0.77981 0.59882 0.0
H1425 H 0.0579 0.79928 0.59752 0.0
H1426 H 0.14489 0.8813 0.69344 0.0
H1427 H 0.11042 0.90044 0.69202 0.0
H1428 H 0.17696 0.86662 0.66096 0.0
H1429 H 0.18278 0.83427 0.63898 0.0
C1430 C 0.39539 0.89707 0.89713 0.0
C1431 C 0.41861 0.88927 0.87619 0.0
C1432 C 0.3946 0.84008 0.86757 0.0
C1433 C 0.37344 0.8465 0.89119 0.0
N1434 N 0.35704 0.87903 0.93224 0.0
N1435 N 0.44262 0.85213 0.8439 0.0
C1436 C 0.37472 0.87449 0.90699 0.0
C1437 C 0.419 0.86031 0.8623 0.0
N1438 N 0.39283 0.92611 0.90733 0.0
N1439 N 0.39037 0.81571 0.84882 0.0
H1440 H 0.45992 0.86692 0.83773 0.0
H1441 H 0.44605 0.8301 0.83631 0.0
H1442 H 0.3722 0.80088 0.85093 0.0
H1443 H 0.40316 0.81182 0.82922 0.0
H1444 H 0.37457 0.93381 0.9202 0.0
H1445 H 0.4075 0.94325 0.90056 0.0
H1446 H 0.35915 0.89773 0.94652 0.0
H1447 H 0.3423 0.86268 0.94074 0.0
C1448 C 0.39047 0.86936 0.37944 0.0
C1449 C 0.41961 0.87185 0.39283 0.0
C1450 C 0.41131 0.8237 0.41914 0.0
C1451 C 0.38065 0.82365 0.40951 0.0
N1452 N 0.33956 0.85021 0.38512 0.0
N1453 N 0.45468 0.85442 0.43149 0.0
C1454 C 0.36979 0.8475 0.39083 0.0
C1455 C 0.42928 0.84983 0.41432 0.0
N1456 N 0.38278 0.88726 0.35525 0.0
N1457 N 0.42384 0.79842 0.43174 0.0
H1458 H 0.46784 0.87387 0.43013 0.0
H1459 H 0.46076 0.84035 0.44954 0.0
H1460 H 0.41209 0.77819 0.43426 0.0
H1461 H 0.44687 0.79655 0.4364 0.0
H1462 H 0.36288 0.88441 0.34285 0.0
H1463 H 0.3977 0.90274 0.3455 0.0
H1464 H 0.33019 0.86878 0.37403 0.0
H1465 H 0.32347 0.83564 0.39436 0.0
C1466 C 0.40335 0.17228 0.66372 0.0
C1467 C 0.38227 0.16212 0.64143 0.0
C1468 C 0.40907 0.1137 0.63868 0.0
C1469 C 0.43198 0.12523 0.6582 0.0
N1470 N 0.4546 0.16883 0.68235 0.0
N1471 N 0.36934 0.12557 0.60261 0.0
C1472 C 0.43024 0.15552 0.66868 0.0
C1473 C 0.38642 0.13352 0.62735 0.0
N1474 N 0.39713 0.1969 0.68152 0.0
N1475 N 0.40798 0.08357 0.63213 0.0
H1476 H 0.35329 0.13991 0.59294 0.0
H1477 H 0.37339 0.10617 0.58976 0.0
H1478 H 0.42316 0.06805 0.6413 0.0
H1479 H 0.39012 0.07359 0.62035 0.0
H1480 H 0.41054 0.20321 0.70003 0.0
H1481 H 0.377 0.20903 0.6802 0.0
H1482 H 0.4553 0.19176 0.68767 0.0
H1483 H 0.4753 0.15794 0.6852 0.0
C1484 C 0.11021 0.17898 0.87595 0.0
C1485 C 0.1313 0.17773 0.90057 0.0
C1486 C 0.1073 0.13098 0.91849 0.0
C1487 C 0.08997 0.12977 0.89118 0.0
N1488 N 0.07785 0.15052 0.84179 0.0
N1489 N 0.15001 0.15233 0.94556 0.0
C1490 C 0.09202 0.15331 0.86943 0.0
C1491 C 0.12992 0.15357 0.92186 0.0
N1492 N 0.10704 0.20462 0.85892 0.0
N1493 N 0.1011 0.11142 0.94185 0.0
H1494 H 0.16477 0.1699 0.9509 0.0
H1495 H 0.15292 0.13331 0.95922 0.0
H1496 H 0.08395 0.09531 0.94075 0.0
H1497 H 0.11079 0.11303 0.96347 0.0
H1498 H 0.08984 0.20752 0.84294 0.0
H1499 H 0.11918 0.22431 0.86277 0.0
H1500 H 0.08154 0.16523 0.82361 0.0
H1501 H 0.06454 0.13197 0.83595 0.0
C1502 C 0.10322 0.83708 0.16494 0.0
C1503 C 0.12491 0.84444 0.14208 0.0
C1504 C 0.10322 0.89533 0.13823 0.0
C1505 C 0.07956 0.88677 0.15831 0.0
N1506 N 0.05456 0.84816 0.18785 0.0
N1507 N 0.14155 0.87852 0.1025 0.0
C1508 C 0.0787 0.85714 0.17058 0.0
C1509 C 0.12381 0.87304 0.12749 0.0
N1510 N 0.10703 0.81201 0.18273 0.0
N1511 N 0.10637 0.92482 0.12973 0.0
H1512 H 0.15603 0.86237 0.09317 0.0
H1513 H 0.13959 0.89784 0.08911 0.0
H1514 H 0.09191 0.94182 0.13733 0.0
H1515 H 0.12495 0.93287 0.11759 0.0
H1516 H 0.09374 0.80736 0.20182 0.0
H1517 H 0.12529 0.79732 0.18053 0.0
H1518 H 0.05093 0.82581 0.19423 0.0
H1519 H 0.03705 0.86267 0.19413 0.0
C1520 C 0.59414 0.82316 0.91698 0.0
C1521 C 0.62496 0.82286 0.90781 0.0
C1522 C 0.61565 0.86784 0.87659 0.0
C1523 C 0.58642 0.87086 0.88971 0.0
N1524 N 0.55122 0.85457 0.92892 0.0
N1525 N 0.66649 0.8492 0.88383 0.0
C1526 C 0.57648 0.84938 0.91168 0.0
C1527 C 0.63615 0.84637 0.8889 0.0
N1528 N 0.58118 0.7981 0.92957 0.0
N1529 N 0.62363 0.88487 0.85185 0.0
H1530 H 0.68244 0.83512 0.89401 0.0
H1531 H 0.67595 0.86755 0.87242 0.0
H1532 H 0.60875 0.89985 0.84129 0.0
H1533 H 0.64371 0.88159 0.83982 0.0
H1534 H 0.55806 0.79656 0.93395 0.0
H1535 H 0.59262 0.77772 0.93227 0.0
H1536 H 0.54501 0.84077 0.94716 0.0
H1537 H 0.53843 0.87425 0.92755 0.0
C1538 C 0.90913 0.88488 0.63975 0.0
C1539 C 0.93048 0.87395 0.6613 0.0
C1540 C 0.90285 0.82604 0.66387 0.0
C1541 C 0.88361 0.83572 0.63976 0.0
N1542 N 0.8733 0.87199 0.60001 0.0
N1543 N 0.95214 0.83077 0.68705 0.0
C1544 C 0.88827 0.86445 0.62622 0.0
C1545 C 0.9287 0.84354 0.67139 0.0
N1546 N 0.90771 0.915 0.6332 0.0
N1547 N 0.89575 0.80118 0.6809 0.0
H1548 H 0.97225 0.84212 0.69174 0.0
H1549 H 0.95296 0.80783 0.69226 0.0
H1550 H 0.87632 0.78834 0.67752 0.0
H1551 H 0.90756 0.79525 0.70062 0.0
H1552 H 0.89069 0.92446 0.61984 0.0
H1553 H 0.92152 0.931 0.64372 0.0
H1554 H 0.87797 0.89153 0.58763 0.0
H1555 H 0.85863 0.8572 0.58887 0.0
C1556 C 0.90681 0.15212 0.36943 0.0
C1557 C 0.90786 0.12777 0.39035 0.0
C1558 C 0.86685 0.15086 0.42027 0.0
C1559 C 0.86683 0.176 0.40014 0.0
N1560 N 0.89313 0.20408 0.36061 0.0
N1561 N 0.89433 0.10764 0.43976 0.0
C1562 C 0.88885 0.17784 0.3764 0.0
C1563 C 0.88936 0.12814 0.41694 0.0
N1564 N 0.92164 0.15009 0.34206 0.0
N1565 N 0.84558 0.1488 0.44287 0.0
H1566 H 0.91139 0.09142 0.4388 0.0
H1567 H 0.88369 0.10856 0.46098 0.0
H1568 H 0.83063 0.16623 0.44816 0.0
H1569 H 0.84185 0.12923 0.45548 0.0
H1570 H 0.91873 0.16558 0.32441 0.0
H1571 H 0.93456 0.13142 0.33572 0.0
H1572 H 0.91097 0.20729 0.3454 0.0
H1573 H 0.88121 0.22383 0.36491 0.0
C1574 C 0.60521 0.10585 0.13849 0.0
C1575 C 0.58162 0.11356 0.15904 0.0
C1576 C 0.60467 0.16335 0.16697 0.0
C1577 C 0.62617 0.15692 0.14365 0.0
N1578 N 0.6431 0.12411 0.10304 0.0
N1579 N 0.55652 0.1509 0.19021 0.0
C1580 C 0.62541 0.12868 0.12826 0.0
C1581 C 0.58053 0.14279 0.1723 0.0
N1582 N 0.60861 0.07666 0.12901 0.0
N1583 N 0.60833 0.18801 0.18543 0.0
H1584 H 0.53938 0.13594 0.19638 0.0
H1585 H 0.55264 0.17301 0.19734 0.0
H1586 H 0.62632 0.20305 0.18337 0.0
H1587 H 0.59524 0.19196 0.20482 0.0
H1588 H 0.62719 0.06917 0.11648 0.0
H1589 H 0.59438 0.05928 0.13611 0.0
H1590 H 0.64132 0.10513 0.08909 0.0
H1591 H 0.65736 0.14067 0.09414 0.0
C1592 C 0.60638 0.17241 0.61505 0.0
C1593 C 0.6346 0.17372 0.63038 0.0
C1594 C 0.61791 0.13366 0.66509 0.0
C1595 C 0.59143 0.12948 0.64727 0.0
N1596 N 0.56328 0.14161 0.60143 0.0
N1597 N 0.66933 0.1523 0.66683 0.0
C1598 C 0.58617 0.14817 0.62136 0.0
C1599 C 0.641 0.15335 0.65449 0.0
N1600 N 0.59894 0.19413 0.59422 0.0
N1601 N 0.62061 0.11937 0.69263 0.0
H1602 H 0.68692 0.16607 0.65934 0.0
H1603 H 0.67613 0.13588 0.6824 0.0
H1604 H 0.60362 0.1056 0.70156 0.0
H1605 H 0.63807 0.12368 0.70798 0.0
H1606 H 0.57733 0.19634 0.58503 0.0
H1607 H 0.61374 0.21131 0.58774 0.0
H1608 H 0.5607 0.15237 0.58043 0.0
H1609 H 0.54843 0.12362 0.60428 0.0
C1610 C 0.61217 0.83905 0.36135 0.0
C1611 C 0.63426 0.84578 0.38394 0.0
C1612 C 0.61293 0.89668 0.38953 0.0
C1613 C 0.5886 0.88848 0.37009 0.0
N1614 N 0.56336 0.85092 0.33934 0.0
N1615 N 0.65285 0.87934 0.42312 0.0
C1616 C 0.58765 0.85931 0.35668 0.0
C1617 C 0.63399 0.87423 0.39891 0.0
N1618 N 0.61553 0.81421 0.34305 0.0
N1619 N 0.61613 0.92594 0.39888 0.0
H1620 H 0.66798 0.86321 0.43129 0.0
H1621 H 0.65148 0.8984 0.437 0.0
H1622 H 0.60116 0.943 0.39263 0.0
H1623 H 0.6351 0.93386 0.41046 0.0
H1624 H 0.60195 0.8099 0.32411 0.0
H1625 H 0.63375 0.79939 0.34476 0.0
H1626 H 0.55955 0.82879 0.33228 0.0
H1627 H 0.54599 0.86573 0.33345 0.0
C1628 C 0.90943 0.84842 0.16429 0.0
C1629 C 0.91058 0.87291 0.14355 0.0
C1630 C 0.86959 0.85019 0.1134 0.0
C1631 C 0.86924 0.82506 0.13349 0.0
N1632 N 0.8951 0.79651 0.17284 0.0
N1633 N 0.89781 0.89292 0.0939 0.0
C1634 C 0.89119 0.8229 0.15722 0.0
C1635 C 0.89235 0.87263 0.1168 0.0
N1636 N 0.92448 0.85009 0.19153 0.0
N1637 N 0.84838 0.85256 0.09082 0.0
H1638 H 0.9152 0.90878 0.09484 0.0
H1639 H 0.8873 0.89205 0.07263 0.0
H1640 H 0.83308 0.83539 0.08564 0.0
H1641 H 0.84499 0.87217 0.07817 0.0
H1642 H 0.92157 0.8345 0.20909 0.0
H1643 H 0.93776 0.86853 0.1978 0.0
H1644 H 0.91279 0.793 0.18814 0.0
H1645 H 0.88298 0.77696 0.16825 0.0
C1646 C 0.89695 0.10709 0.89854 0.0
C1647 C 0.92026 0.11525 0.87784 0.0
C1648 C 0.89604 0.16451 0.87005 0.0
C1649 C 0.87477 0.15765 0.89344 0.0
N1650 N 0.85874 0.12458 0.93411 0.0
N1651 N 0.94433 0.15309 0.84653 0.0
C1652 C 0.87626 0.12949 0.90883 0.0
C1653 C 0.92063 0.14448 0.86459 0.0
N1654 N 0.89426 0.07787 0.9081 0.0
N1655 N 0.89174 0.18903 0.85158 0.0
H1656 H 0.96174 0.1385 0.84019 0.0
H1657 H 0.94769 0.17527 0.83942 0.0
H1658 H 0.87343 0.20367 0.85371 0.0
H1659 H 0.90465 0.19322 0.83212 0.0
H1660 H 0.87591 0.07001 0.92072 0.0
H1661 H 0.90886 0.06079 0.90101 0.0
H1662 H 0.86101 0.10571 0.94809 0.0
H1663 H 0.84408 0.14082 0.94299 0.0
C1664 C 0.87675 0.62389 0.65167 0.0
C1665 C 0.90573 0.62275 0.6377 0.0
C1666 C 0.89375 0.66861 0.6086 0.0
C1667 C 0.86398 0.66824 0.62071 0.0
N1668 N 0.82515 0.64203 0.6489 0.0
N1669 N 0.93897 0.6399 0.59737 0.0
C1670 C 0.85483 0.64472 0.64066 0.0
C1671 C 0.91357 0.64407 0.61473 0.0
N1672 N 0.87061 0.60603 0.67637 0.0
N1673 N 0.90313 0.69235 0.59104 0.0
H1674 H 0.95349 0.62156 0.59998 0.0
H1675 H 0.94407 0.6529 0.57823 0.0
H1676 H 0.88877 0.70971 0.58415 0.0
H1677 H 0.92562 0.69575 0.58488 0.0
H1678 H 0.85104 0.60807 0.68945 0.0
H1679 H 0.88639 0.59121 0.68575 0.0
H1680 H 0.81664 0.62359 0.66088 0.0
H1681 H 0.80844 0.65678 0.64128 0.0
C1682 C 0.59939 0.67914 0.86666 0.0
C1683 C 0.6212 0.66883 0.88812 0.0
C1684 C 0.59493 0.62018 0.89085 0.0
C1685 C 0.57136 0.63172 0.87222 0.0
N1686 N 0.54759 0.6755 0.84964 0.0
N1687 N 0.63498 0.63216 0.92647 0.0
C1688 C 0.57248 0.6622 0.86226 0.0
C1689 C 0.61749 0.64013 0.90204 0.0
N1690 N 0.60487 0.70404 0.84909 0.0
N1691 N 0.59678 0.58995 0.89662 0.0
H1692 H 0.65086 0.64668 0.93619 0.0
H1693 H 0.6313 0.61257 0.9391 0.0
H1694 H 0.58185 0.57429 0.88723 0.0
H1695 H 0.6151 0.58012 0.90779 0.0
H1696 H 0.59086 0.71044 0.83109 0.0
H1697 H 0.62487 0.7164 0.85007 0.0
H1698 H 0.54656 0.69849 0.84474 0.0
H1699 H 0.52689 0.66449 0.84732 0.0
C1700 C 0.58196 0.35256 0.11988 0.0
C1701 C 0.58757 0.37229 0.14492 0.0
C1702 C 0.63717 0.34856 0.1527 0.0
C1703 C 0.63065 0.32746 0.12917 0.0
N1704 N 0.59492 0.30611 0.09356 0.0
N1705 N 0.61732 0.38465 0.18929 0.0
C1706 C 0.60232 0.32831 0.11394 0.0
C1707 C 0.61429 0.36896 0.16253 0.0
N1708 N 0.55841 0.3581 0.10045 0.0
N1709 N 0.66535 0.34947 0.16545 0.0
H1710 H 0.60061 0.39913 0.1976 0.0
H1711 H 0.63482 0.38104 0.20476 0.0
H1712 H 0.68258 0.33457 0.15942 0.0
H1713 H 0.67245 0.36648 0.18023 0.0
H1714 H 0.55536 0.34669 0.07986 0.0
H1715 H 0.54323 0.37584 0.10339 0.0
H1716 H 0.57328 0.30346 0.08458 0.0
H1717 H 0.60986 0.28903 0.08712 0.0
C1718 C 0.90283 0.37976 0.36089 0.0
C1719 C 0.92452 0.38514 0.38427 0.0
C1720 C 0.89741 0.35006 0.4183 0.0
C1721 C 0.87643 0.34409 0.39465 0.0
N1722 N 0.86213 0.34822 0.34168 0.0
N1723 N 0.94596 0.37034 0.43302 0.0
C1724 C 0.87993 0.35761 0.36545 0.0
C1725 C 0.92299 0.36863 0.41223 0.0
N1726 N 0.90426 0.39564 0.33413 0.0
N1727 N 0.89209 0.33919 0.44707 0.0
H1728 H 0.96474 0.38412 0.4304 0.0
H1729 H 0.94775 0.35608 0.45183 0.0
H1730 H 0.87378 0.32531 0.45236 0.0
H1731 H 0.90431 0.34586 0.46626 0.0
H1732 H 0.88691 0.39604 0.31808 0.0
H1733 H 0.9224 0.40951 0.32831 0.0
H1734 H 0.86547 0.35467 0.31907 0.0
H1735 H 0.84541 0.33177 0.34402 0.0
C1736 C 0.88056 0.36974 0.87378 0.0
C1737 C 0.90769 0.37311 0.89073 0.0
C1738 C 0.89351 0.32958 0.92249 0.0
C1739 C 0.86504 0.32831 0.90757 0.0
N1740 N 0.82948 0.35013 0.87206 0.0
N1741 N 0.93735 0.35986 0.93513 0.0
C1742 C 0.85794 0.34935 0.88418 0.0
C1743 C 0.91364 0.35385 0.91602 0.0
N1744 N 0.87692 0.38526 0.84703 0.0
N1745 N 0.90128 0.30775 0.94308 0.0
H1746 H 0.95225 0.37778 0.93192 0.0
H1747 H 0.94071 0.34875 0.95582 0.0
H1748 H 0.88647 0.2908 0.9501 0.0
H1749 H 0.92306 0.30532 0.95177 0.0
H1750 H 0.85908 0.38151 0.83197 0.0
H1751 H 0.89336 0.39977 0.83829 0.0
H1752 H 0.82204 0.36709 0.85742 0.0
H1753 H 0.81241 0.33525 0.8785 0.0
C1754 C 0.87669 0.6386 0.16345 0.0
C1755 C 0.87691 0.65702 0.13687 0.0
C1756 C 0.92739 0.6382 0.12403 0.0
C1757 C 0.92494 0.6161 0.14758 0.0
N1758 N 0.89665 0.59475 0.18955 0.0
N1759 N 0.90038 0.67088 0.08915 0.0
C1760 C 0.89929 0.61605 0.16713 0.0
C1761 C 0.90176 0.65602 0.1165 0.0
N1762 N 0.85584 0.64373 0.18598 0.0
N1763 N 0.95411 0.64276 0.10906 0.0
H1764 H 0.8818 0.68373 0.08243 0.0
H1765 H 0.91635 0.66805 0.07186 0.0
H1766 H 0.9739 0.63115 0.11399 0.0
H1767 H 0.95761 0.66061 0.09399 0.0
H1768 H 0.85632 0.63308 0.20717 0.0
H1769 H 0.83983 0.66097 0.18485 0.0
H1770 H 0.87675 0.59106 0.20173 0.0
H1771 H 0.91393 0.57973 0.19511 0.0
C1772 C 0.64378 0.65365 0.38031 0.0
C1773 C 0.63824 0.67411 0.40473 0.0
C1774 C 0.5907 0.64792 0.41644 0.0
C1775 C 0.59496 0.62923 0.39037 0.0
N1776 N 0.62276 0.61741 0.34452 0.0
N1777 N 0.60499 0.69324 0.44398 0.0
C1778 C 0.62081 0.63289 0.37153 0.0
C1779 C 0.61116 0.6721 0.42205 0.0
N1780 N 0.67101 0.65391 0.3655 0.0
N1781 N 0.56818 0.6415 0.43689 0.0
H1782 H 0.62031 0.70997 0.4504 0.0
H1783 H 0.58401 0.69529 0.45458 0.0
H1784 H 0.55299 0.62374 0.43405 0.0
H1785 H 0.56609 0.65208 0.45805 0.0
H1786 H 0.67769 0.63732 0.35004 0.0
H1787 H 0.68801 0.66952 0.37014 0.0
H1788 H 0.63933 0.62142 0.32812 0.0
H1789 H 0.6061 0.60243 0.33711 0.0
C1790 C 0.60024 0.33097 0.66663 0.0
C1791 C 0.62153 0.34065 0.64433 0.0
C1792 C 0.59628 0.38987 0.64224 0.0
C1793 C 0.57299 0.37884 0.66158 0.0
N1794 N 0.54906 0.33564 0.68521 0.0
N1795 N 0.63541 0.37709 0.60577 0.0
C1796 C 0.57383 0.34843 0.67177 0.0
C1797 C 0.61823 0.36947 0.63056 0.0
N1798 N 0.6058 0.30611 0.68422 0.0
N1799 N 0.59836 0.42002 0.63612 0.0
H1800 H 0.65089 0.3623 0.59578 0.0
H1801 H 0.63192 0.39674 0.59319 0.0
H1802 H 0.58375 0.43593 0.64564 0.0
H1803 H 0.61653 0.42954 0.62443 0.0
H1804 H 0.59224 0.30011 0.70274 0.0
H1805 H 0.62558 0.29342 0.68271 0.0
H1806 H 0.54778 0.3127 0.69029 0.0
H1807 H 0.52861 0.34698 0.68805 0.0
C1808 C 0.11252 0.37182 0.41552 0.0
C1809 C 0.09358 0.37216 0.38929 0.0
C1810 C 0.11176 0.3217 0.3754 0.0
C1811 C 0.13439 0.32367 0.39851 0.0
N1812 N 0.1565 0.35091 0.44077 0.0
N1813 N 0.07783 0.34913 0.34198 0.0
C1814 C 0.13486 0.3489 0.41857 0.0
C1815 C 0.0937 0.34745 0.36873 0.0
N1816 N 0.10818 0.3926 0.43827 0.0
N1817 N 0.10704 0.2953 0.35998 0.0
H1818 H 0.06457 0.36767 0.33606 0.0
H1819 H 0.07997 0.33339 0.32441 0.0
H1820 H 0.11899 0.27558 0.36426 0.0
H1821 H 0.08889 0.29195 0.3452 0.0
H1822 H 0.11916 0.39177 0.45929 0.0
H1823 H 0.09128 0.409 0.43749 0.0
H1824 H 0.16062 0.37051 0.45324 0.0
H1825 H 0.17133 0.33334 0.4459 0.0
C1826 C 0.42742 0.34367 0.17358 0.0
C1827 C 0.42859 0.37457 0.16509 0.0
C1828 C 0.38314 0.36741 0.13377 0.0
C1829 C 0.37977 0.33775 0.14556 0.0
N1830 N 0.39513 0.30084 0.18332 0.0
N1831 N 0.40342 0.4174 0.14244 0.0
C1832 C 0.40091 0.32669 0.16731 0.0
C1833 C 0.40527 0.38691 0.14664 0.0
N1834 N 0.45201 0.32998 0.1864 0.0
N1835 N 0.36595 0.37671 0.10961 0.0
H1836 H 0.41828 0.43257 0.15276 0.0
H1837 H 0.38526 0.42777 0.13152 0.0
H1838 H 0.35034 0.36271 0.09873 0.0
H1839 H 0.36953 0.39711 0.09834 0.0
H1840 H 0.45312 0.30678 0.19013 0.0
H1841 H 0.47246 0.34104 0.19016 0.0
H1842 H 0.40857 0.29365 0.20147 0.0
H1843 H 0.37526 0.28842 0.18102 0.0
C1844 C 0.39763 0.67526 0.92244 0.0
C1845 C 0.36942 0.67637 0.90705 0.0
C1846 C 0.38621 0.63596 0.87265 0.0
C1847 C 0.41277 0.6322 0.8904 0.0
N1848 N 0.44126 0.64504 0.93578 0.0
N1849 N 0.33491 0.65479 0.87032 0.0
C1850 C 0.41804 0.65117 0.91612 0.0
C1851 C 0.3631 0.65579 0.88301 0.0
N1852 N 0.40487 0.69703 0.94335 0.0
N1853 N 0.38351 0.62124 0.84529 0.0
H1854 H 0.31742 0.66914 0.87693 0.0
H1855 H 0.32808 0.63808 0.85504 0.0
H1856 H 0.40046 0.60729 0.83655 0.0
H1857 H 0.36607 0.62529 0.82986 0.0
H1858 H 0.42644 0.69947 0.95254 0.0
H1859 H 0.38986 0.71398 0.94999 0.0
H1860 H 0.44398 0.65593 0.95671 0.0
H1861 H 0.45637 0.62728 0.9327 0.0
C1862 C 0.09579 0.66692 0.62076 0.0
C1863 C 0.12127 0.66725 0.64031 0.0
C1864 C 0.09927 0.62627 0.67091 0.0
C1865 C 0.07358 0.62602 0.65149 0.0
N1866 N 0.04352 0.6526 0.61378 0.0
N1867 N 0.14324 0.6537 0.68887 0.0
C1868 C 0.0705 0.64848 0.62836 0.0
C1869 C 0.12181 0.6488 0.66687 0.0
N1870 N 0.0963 0.68294 0.59408 0.0
N1871 N 0.10214 0.60501 0.69335 0.0
H1872 H 0.15942 0.67077 0.68729 0.0
H1873 H 0.14318 0.64305 0.71007 0.0
H1874 H 0.08487 0.59003 0.69913 0.0
H1875 H 0.1221 0.60138 0.7054 0.0
H1876 H 0.08 0.68064 0.57706 0.0
H1877 H 0.11434 0.69671 0.58771 0.0
H1878 H 0.03938 0.67054 0.59901 0.0
H1879 H 0.02413 0.64032 0.61874 0.0
C1880 C 0.09321 0.64936 0.16293 0.0
C1881 C 0.09296 0.62476 0.14222 0.0
C1882 C 0.133 0.6491 0.11201 0.0
C1883 C 0.13202 0.67451 0.13184 0.0
N1884 N 0.10422 0.70212 0.17071 0.0
N1885 N 0.10685 0.60497 0.09269 0.0
C1886 C 0.1099 0.67577 0.15551 0.0
C1887 C 0.11131 0.62561 0.11553 0.0
N1888 N 0.07873 0.64704 0.19046 0.0
N1889 N 0.15436 0.64754 0.08947 0.0
H1890 H 0.09021 0.58833 0.09362 0.0
H1891 H 0.1174 0.60621 0.07144 0.0
H1892 H 0.16865 0.66546 0.08402 0.0
H1893 H 0.1588 0.62795 0.07708 0.0
H1894 H 0.08106 0.66295 0.20786 0.0
H1895 H 0.06693 0.6278 0.19721 0.0
H1896 H 0.08633 0.70467 0.186 0.0
H1897 H 0.1148 0.72244 0.16567 0.0
C1898 C 0.07841 0.35749 0.86249 0.0
C1899 C 0.07822 0.38704 0.87506 0.0
C1900 C 0.12202 0.37412 0.90679 0.0
C1901 C 0.12429 0.34574 0.89187 0.0
N1902 N 0.10829 0.31334 0.85031 0.0
N1903 N 0.10355 0.42549 0.90462 0.0
C1904 C 0.10335 0.33804 0.86843 0.0
C1905 C 0.10121 0.39601 0.89576 0.0
N1906 N 0.05498 0.34804 0.84452 0.0
N1907 N 0.13893 0.37977 0.93231 0.0
H1908 H 0.0889 0.44226 0.89697 0.0
H1909 H 0.1217 0.43382 0.91721 0.0
H1910 H 0.15354 0.36386 0.94181 0.0
H1911 H 0.13608 0.39888 0.9459 0.0
H1912 H 0.05206 0.32564 0.83789 0.0
H1913 H 0.03734 0.36218 0.83782 0.0
H1914 H 0.09558 0.3086 0.83086 0.0
H1915 H 0.12691 0.29915 0.85264 0.0
C1916 C 0.41315 0.35128 0.66541 0.0
C1917 C 0.41587 0.37476 0.64368 0.0
C1918 C 0.37649 0.3513 0.61197 0.0
C1919 C 0.37372 0.32762 0.63366 0.0
N1920 N 0.39554 0.30085 0.6767 0.0
N1921 N 0.40625 0.39325 0.59281 0.0
C1922 C 0.39407 0.32616 0.65894 0.0
C1923 C 0.39929 0.37362 0.61591 0.0
N1924 N 0.42753 0.3537 0.69297 0.0
N1925 N 0.35739 0.35243 0.58742 0.0
H1926 H 0.42338 0.40935 0.59458 0.0
H1927 H 0.39721 0.39183 0.5709 0.0
H1928 H 0.34263 0.33495 0.58175 0.0
H1929 H 0.35531 0.37118 0.57327 0.0
H1930 H 0.42339 0.33933 0.71133 0.0
H1931 H 0.44195 0.37153 0.69839 0.0
H1932 H 0.41217 0.29743 0.69317 0.0
H1933 H 0.38225 0.28183 0.67326 0.0
C1934 C 0.39964 0.67165 0.3675 0.0
C1935 C 0.38074 0.66639 0.39329 0.0
C1936 C 0.40445 0.61684 0.40062 0.0
C1937 C 0.42492 0.62312 0.37647 0.0
N1938 N 0.4455 0.65852 0.34014 0.0
N1939 N 0.37 0.63724 0.43847 0.0
C1940 C 0.42375 0.65129 0.3611 0.0
C1941 C 0.38464 0.63991 0.41106 0.0
N1942 N 0.39341 0.6948 0.34783 0.0
N1943 N 0.40352 0.58869 0.41331 0.0
H1944 H 0.35606 0.65417 0.44725 0.0
H1945 H 0.37413 0.61985 0.45391 0.0
H1946 H 0.41778 0.57121 0.40651 0.0
H1947 H 0.38692 0.5819 0.42873 0.0
H1948 H 0.40423 0.69748 0.32685 0.0
H1949 H 0.37565 0.7099 0.35096 0.0
H1950 H 0.44791 0.68006 0.33094 0.0
H1951 H 0.46248 0.64355 0.33347 0.0
C1952 C 0.26321 0.30844 0.02815 0.0
C1953 C 0.26876 0.28095 0.04384 0.0
C1954 C 0.24454 0.25398 1.00087 0.0
C1955 C 0.23494 0.28194 0.98802 0.0
N1956 N 0.2278 0.33545 0.99663 0.0
N1957 N 0.2583 0.22742 0.04725 0.0
C1958 C 0.24207 0.30906 1.00384 0.0
C1959 C 0.25768 0.25358 0.03082 0.0
N1960 N 0.27888 0.33397 0.03563 0.0
N1961 N 0.24252 0.22794 0.98429 0.0
H1962 H 0.26649 0.22612 0.06952 0.0
H1963 H 0.24779 0.20768 0.03983 0.0
H1964 H 0.23433 0.22716 0.962 0.0
H1965 H 0.25193 0.20763 0.99161 0.0
H1966 H 0.27712 0.3539 0.02309 0.0
H1967 H 0.29626 0.33413 0.05173 0.0
H1968 H 0.23078 0.35521 1.00925 0.0
H1969 H 0.21018 0.33662 0.98084 0.0
C1970 C 0.9997 0.99619 0.25052 0.0
C1971 C 0.97197 0.98513 0.23824 0.0
C1972 C 0.94469 0.01268 0.27817 0.0
C1973 C 0.9721 0.01973 0.29347 0.0
N1974 N 0.02625 0.01215 0.29627 0.0
N1975 N 0.91903 0.97527 0.2479 0.0
C1976 C 0.99988 0.00986 0.28025 0.0
C1977 C 0.94478 0.99105 0.2544 0.0
N1978 N 0.02561 0.99495 0.23361 0.0
N1979 N 0.9185 0.02734 0.28552 0.0
H1980 H 0.91856 0.95745 0.23229 0.0
H1981 H 0.89932 0.97744 0.26082 0.0
H1982 H 0.91777 0.04524 0.30102 0.0
H1983 H 0.8985 0.02427 0.27328 0.0
H1984 H 0.04562 0.00539 0.24044 0.0
H1985 H 0.02645 0.98618 0.21154 0.0
H1986 H 0.04643 0.00254 0.28874 0.0
H1987 H 0.02748 0.02097 0.3183 0.0
C1988 C 0.24043 0.70002 0.5272 0.0
C1989 C 0.23427 0.72709 0.54346 0.0
C1990 C 0.25789 0.75514 0.50085 0.0
C1991 C 0.26828 0.72754 0.48771 0.0
N1992 N 0.27752 0.67438 0.49654 0.0
N1993 N 0.24344 0.78085 0.54763 0.0
C1994 C 0.26206 0.7002 0.50342 0.0
C1995 C 0.24472 0.7549 0.53086 0.0
N1996 N 0.22493 0.67411 0.53356 0.0
N1997 N 0.25926 0.78136 0.48459 0.0
H1998 H 0.2352 0.78171 0.56991 0.0
H1999 H 0.25345 0.80092 0.54044 0.0
H2000 H 0.26755 0.78256 0.46234 0.0
H2001 H 0.2493 0.80134 0.49216 0.0
H2002 H 0.22753 0.65447 0.52065 0.0
H2003 H 0.20679 0.67346 0.54881 0.0
H2004 H 0.27488 0.65452 0.50906 0.0
H2005 H 0.29565 0.67395 0.48127 0.0
C2006 C 0.52354 0.96824 0.7677 0.0
C2007 C 0.5231 0.98511 0.79531 0.0
C2008 C 0.52319 0.03246 0.76576 0.0
C2009 C 0.52322 0.01558 0.73816 0.0
N2010 N 0.51612 0.96791 0.71267 0.0
N2011 N 0.5152 0.03274 0.82071 0.0
C2012 C 0.52105 0.98358 0.73914 0.0
C2013 C 0.5206 0.01709 0.79431 0.0
N2014 N 0.52803 0.93774 0.76863 0.0
N2015 N 0.52727 0.06302 0.76483 0.0
H2016 H 0.51285 0.02219 0.8419 0.0
H2017 H 0.51022 0.05569 0.82128 0.0
H2018 H 0.52878 0.07511 0.74446 0.0
H2019 H 0.53123 0.07615 0.78417 0.0
H2020 H 0.53227 0.92467 0.7493 0.0
H2021 H 0.52972 0.92566 0.789 0.0
H2022 H 0.51145 0.94489 0.71201 0.0
H2023 H 0.51384 0.97849 0.6915 0.0
C2024 C 0.76089 0.74864 0.0263 0.0
C2025 C 0.76951 0.72045 0.03935 0.0
C2026 C 0.74149 0.69461 0.99879 0.0
C2027 C 0.73684 0.72217 0.98294 0.0
N2028 N 0.74898 0.77538 0.97951 0.0
N2029 N 0.77629 0.66698 0.03035 0.0
C2030 C 0.74846 0.74929 0.99605 0.0
C2031 C 0.7624 0.69357 0.02319 0.0
N2032 N 0.76317 0.77464 0.04289 0.0
N2033 N 0.72503 0.6695 0.9916 0.0
H2034 H 0.79364 0.66555 0.04643 0.0
H2035 H 0.77316 0.64735 0.01755 0.0
H2036 H 0.70741 0.66978 0.97578 0.0
H2037 H 0.7264 0.6496 1.00424 0.0
H2038 H 0.7544 0.79514 0.03532 0.0
H2039 H 0.77096 0.77528 0.06533 0.0
H2040 H 0.7598 0.79486 0.98716 0.0
H2041 H 0.74155 0.77675 0.95698 0.0
C2042 C 1.00073 0.00858 0.78377 0.0
C2043 C 0.0285 0.01871 0.79672 0.0
C2044 C 0.05576 0.99096 0.75692 0.0
C2045 C 0.02845 0.98486 0.741 0.0
N2046 N 0.97466 0.99452 0.73716 0.0
N2047 N 0.0818 0.02748 0.78793 0.0
C2048 C 1.00073 0.99549 0.75379 0.0
C2049 C 0.0558 0.01237 0.7809 0.0
N2050 N 0.97456 0.01014 0.80023 0.0
N2051 N 0.08163 0.97552 0.75011 0.0
H2052 H 0.08243 0.04519 0.80366 0.0
H2053 H 0.10165 0.02491 0.77531 0.0
H2054 H 0.08215 0.95755 0.73468 0.0
H2055 H 0.10143 0.97797 0.76281 0.0
H2056 H 0.95443 1.00035 0.7928 0.0
H2057 H 0.97354 0.0184 0.8225 0.0
H2058 H 0.95467 0.00464 0.74454 0.0
H2059 H 0.97364 0.98654 0.7148 0.0
C2060 C 0.74322 0.25407 0.53308 0.0
C2061 C 0.7324 0.28151 0.54619 0.0
C2062 C 0.75887 0.30944 0.50593 0.0
C2063 C 0.76559 0.28234 0.48996 0.0
N2064 N 0.7578 0.22835 0.48635 0.0
N2065 N 0.72211 0.33448 0.5376 0.0
C2066 C 0.75602 0.2544 0.50293 0.0
C2067 C 0.73783 0.30892 0.5303 0.0
N2068 N 0.74267 0.22793 0.54954 0.0
N2069 N 0.77341 0.3357 0.49878 0.0
H2070 H 0.70458 0.33467 0.55357 0.0
H2071 H 0.72396 0.35435 0.52497 0.0
H2072 H 0.79092 0.33673 0.48282 0.0
H2073 H 0.77064 0.35543 0.5115 0.0
H2074 H 0.75299 0.20813 0.54199 0.0
H2075 H 0.73471 0.2267 0.57191 0.0
H2076 H 0.7484 0.20808 0.4938 0.0
H2077 H 0.76581 0.22755 0.46397 0.0
C2078 C 0.44872 0.98929 0.28023 0.0
C2079 C 0.47641 0.98388 0.29568 0.0
C2080 C 0.50315 0.00655 0.25178 0.0
C2081 C 0.47506 0.01592 0.23896 0.0
N2082 N 0.4217 0.02401 0.24796 0.0
N2083 N 0.53014 0.99397 0.29827 0.0
C2084 C 0.44803 0.00967 0.25533 0.0
C2085 C 0.50377 0.99433 0.28209 0.0
N2086 N 0.42309 0.97406 0.28834 0.0
N2087 N 0.52905 0.00792 0.23486 0.0
H2088 H 0.53153 0.98658 0.32081 0.0
H2089 H 0.54995 0.00399 0.29032 0.0
H2090 H 0.5296 0.01546 0.21233 0.0
H2091 H 0.54942 0.99864 0.24223 0.0
H2092 H 0.403 0.97576 0.27599 0.0
H2093 H 0.42293 0.95704 0.30478 0.0
H2094 H 0.40204 0.02171 0.26093 0.0
H2095 H 0.42053 0.04095 0.23146 0.0
C2096 C 0.76016 0.75221 0.52637 0.0
C2097 C 0.77236 0.77935 0.53878 0.0
C2098 C 0.74838 0.80762 0.49717 0.0
C2099 C 0.74004 0.7804 0.48221 0.0
N2100 N 0.74442 0.72599 0.48038 0.0
N2101 N 0.78544 0.83155 0.52943 0.0
C2102 C 0.74769 0.75238 0.49616 0.0
C2103 C 0.7687 0.80664 0.52217 0.0
N2104 N 0.7591 0.72657 0.54361 0.0
N2105 N 0.73601 0.8345 0.48841 0.0
H2106 H 0.80235 0.83128 0.54605 0.0
H2107 H 0.78515 0.85117 0.51629 0.0
H2108 H 0.71919 0.83609 0.47178 0.0
H2109 H 0.73971 0.85455 0.50034 0.0
H2110 H 0.74773 0.70716 0.53659 0.0
H2111 H 0.76681 0.72554 0.56607 0.0
H2112 H 0.75246 0.7054 0.4885 0.0
H2113 H 0.73657 0.72502 0.45796 0.0
C2114 C 0.50279 0.51124 0.78193 0.0
C2115 C 0.47504 0.52128 0.7951 0.0
C2116 C 0.44774 0.49401 0.755 0.0
C2117 C 0.47499 0.48813 0.73886 0.0
N2118 N 0.5288 0.49754 0.73508 0.0
N2119 N 0.42176 0.53031 0.78632 0.0
C2120 C 0.50273 0.49849 0.75175 0.0
C2121 C 0.44773 0.51517 0.7792 0.0
N2122 N 0.52898 0.5125 0.79833 0.0
N2123 N 0.42185 0.4786 0.74816 0.0
H2124 H 0.42117 0.54809 0.80197 0.0
H2125 H 0.40191 0.52783 0.77369 0.0
H2126 H 0.42131 0.46078 0.73258 0.0
H2127 H 0.40209 0.48091 0.76098 0.0
H2128 H 0.54907 0.50276 0.79071 0.0
H2129 H 0.53005 0.52046 0.82071 0.0
H2130 H 0.54885 0.50749 0.74251 0.0
H2131 H 0.52977 0.48966 0.71267 0.0
C2132 C 0.74239 0.2494 0.03271 0.0
C2133 C 0.73243 0.22182 0.0461 0.0
C2134 C 0.75901 0.19408 1.00565 0.0
C2135 C 0.76525 0.22127 0.98967 0.0
N2136 N 0.7568 0.27509 0.98594 0.0
N2137 N 0.72358 0.16849 0.03846 0.0
C2138 C 0.75528 0.24911 1.0026 0.0
C2139 C 0.7384 0.19436 0.03045 0.0
N2140 N 0.74083 0.27568 0.04893 0.0
N2141 N 0.77367 0.16798 0.99808 0.0
H2142 H 0.70663 0.16802 0.05506 0.0
H2143 H 0.72556 0.1485 0.02601 0.0
H2144 H 0.79075 0.16711 0.98165 0.0
H2145 H 0.77147 0.14821 1.0108 0.0
H2146 H 0.7506 0.29573 0.04136 0.0
H2147 H 0.73237 0.2769 0.07113 0.0
H2148 H 0.74709 0.29529 0.99321 0.0
H2149 H 0.76505 0.27587 0.96364 0.0
C2150 C 0.00286 0.49251 0.28141 0.0
C2151 C 0.03057 0.4822 0.29435 0.0
C2152 C 0.058 0.50881 0.25385 0.0
C2153 C 0.03071 0.51509 0.23807 0.0
N2154 N 0.97669 0.507 0.23492 0.0
N2155 N 0.08371 0.47254 0.28532 0.0
C2156 C 0.00289 0.50533 0.25128 0.0
C2157 C 0.05788 0.4879 0.27823 0.0
N2158 N 0.97675 0.49139 0.298 0.0
N2159 N 0.08408 0.5236 0.24642 0.0
H2160 H 0.08418 0.45499 0.30119 0.0
H2161 H 0.10352 0.47462 0.27254 0.0
H2162 H 0.08481 0.54094 0.23031 0.0
H2163 H 0.10395 0.52118 0.25901 0.0
H2164 H 0.9567 0.50136 0.29065 0.0
H2165 H 0.97573 0.48316 0.32026 0.0
H2166 H 0.95648 0.49745 0.24245 0.0
H2167 H 0.97569 0.51524 0.21266 0.0
C2168 C 0.26536 0.19397 0.52883 0.0
C2169 C 0.27096 0.2216 0.54436 0.0
C2170 C 0.2473 0.24825 0.50093 0.0
C2171 C 0.23782 0.22017 0.4882 0.0
N2172 N 0.22984 0.16695 0.49742 0.0
N2173 N 0.26083 0.27524 0.54722 0.0
C2174 C 0.24439 0.19325 0.50445 0.0
C2175 C 0.26017 0.24891 0.53101 0.0
N2176 N 0.28093 0.16843 0.53641 0.0
N2177 N 0.24531 0.27412 0.48415 0.0
H2178 H 0.26882 0.2767 0.56955 0.0
H2179 H 0.25055 0.29498 0.53953 0.0
H2180 H 0.23702 0.27466 0.46188 0.0
H2181 H 0.25468 0.29451 0.49133 0.0
H2182 H 0.27896 0.14839 0.52402 0.0
H2183 H 0.29855 0.16835 0.55224 0.0
H2184 H 0.23242 0.14735 0.51035 0.0
H2185 H 0.21253 0.16577 0.48128 0.0
C2186 C 0.55746 0.51401 0.27882 0.0
C2187 C 0.53018 0.52101 0.29443 0.0
C2188 C 0.50218 0.4984 0.25121 0.0
C2189 C 0.52973 0.48727 0.2385 0.0
N2190 N 0.58275 0.47717 0.24743 0.0
N2191 N 0.47601 0.514 0.29739 0.0
C2192 C 0.55711 0.49289 0.25448 0.0
C2193 C 0.50228 0.51162 0.28118 0.0
N2194 N 0.58378 0.5283 0.28639 0.0
N2195 N 0.47616 0.49772 0.23449 0.0
H2196 H 0.47502 0.52254 0.31955 0.0
H2197 H 0.45568 0.50471 0.28988 0.0
H2198 H 0.47514 0.48948 0.21221 0.0
H2199 H 0.4563 0.50822 0.24166 0.0
H2200 H 0.60369 0.52545 0.27393 0.0
H2201 H 0.58475 0.54565 0.30251 0.0
H2202 H 0.60257 0.47905 0.26019 0.0
H2203 H 0.58309 0.4596 0.23155 0.0
C2204 C 0.25662 0.75365 1.00113 0.0
C2205 C 0.26652 0.78133 0.98792 0.0
C2206 C 0.23956 0.8088 0.02827 0.0
C2207 C 0.23342 0.78152 0.04411 0.0
N2208 N 0.24214 0.72772 0.04772 0.0
N2209 N 0.27494 0.8347 0.99566 0.0
C2210 C 0.24358 0.75377 0.03115 0.0
C2211 C 0.26027 0.80872 1.00356 0.0
N2212 N 0.25838 0.72743 0.98481 0.0
N2213 N 0.22477 0.8348 0.03594 0.0
H2214 H 0.29195 0.83534 0.97913 0.0
H2215 H 0.27278 0.85466 1.00813 0.0
H2216 H 0.2077 0.83552 0.05239 0.0
H2217 H 0.22688 0.85464 0.02332 0.0
H2218 H 0.24867 0.70731 0.99226 0.0
H2219 H 0.26691 0.72635 0.96264 0.0
H2220 H 0.25202 0.70761 0.04042 0.0
H2221 H 0.23379 0.72679 0.06996 0.0
C2222 C 0.9978 0.50829 0.75218 0.0
C2223 C 0.97009 0.51745 0.73839 0.0
C2224 C 0.94255 0.48943 0.77793 0.0
C2225 C 0.96968 0.48403 0.79438 0.0
N2226 N 0.02316 0.49439 0.79929 0.0
N2227 N 0.91625 0.52418 0.74503 0.0
C2228 C 0.99741 0.49511 0.78213 0.0
C2229 C 0.94253 0.51027 0.75338 0.0
N2230 N 0.02435 0.51082 0.73648 0.0
N2231 N 0.91683 0.47378 0.78482 0.0
H2232 H 0.91546 0.54125 0.72864 0.0
H2233 H 0.89608 0.52132 0.75703 0.0
H2234 H 0.91627 0.4566 0.8011 0.0
H2235 H 0.89719 0.47536 0.77174 0.0
H2236 H 0.04459 0.50166 0.74435 0.0
H2237 H 0.0257 0.51941 0.71437 0.0
H2238 H 0.04314 0.50491 0.79252 0.0
H2239 H 0.02383 0.48599 0.8215 0.0
C2240 C 0.21584 0.43994 0.14241 0.0
C2241 C 0.20726 0.4095 0.14713 0.0
C2242 C 0.1544 0.42246 0.13808 0.0
C2243 C 0.16268 0.45333 0.1369 0.0
N2244 N 0.2003 0.49212 0.14468 0.0
N2245 N 0.16804 0.37247 0.15539 0.0
C2246 C 0.19314 0.46232 0.14099 0.0
C2247 C 0.1764 0.40089 0.14669 0.0
N2248 N 0.24554 0.44736 0.13812 0.0
N2249 N 0.12589 0.41363 0.13002 0.0
H2250 H 0.18353 0.35608 0.16222 0.0
H2251 H 0.14559 0.36604 0.15848 0.0
H2252 H 0.10918 0.42878 0.12318 0.0
H2253 H 0.11965 0.3911 0.12747 0.0
H2254 H 0.25258 0.46882 0.1315 0.0
H2255 H 0.26291 0.43145 0.13806 0.0
H2256 H 0.22182 0.4995 0.1508 0.0
H2257 H 0.18416 0.50927 0.14476 0.0
C2258 C 0.85528 0.91715 0.38786 0.0
C2259 C 0.84887 0.94661 0.37722 0.0
C2260 C 0.80121 0.92964 0.35547 0.0
C2261 C 0.80808 0.89978 0.36488 0.0
N2262 N 0.84552 0.86377 0.38167 0.0
N2263 N 0.82146 0.97854 0.34229 0.0
C2264 C 0.83642 0.89305 0.37842 0.0
C2265 C 0.82371 0.95206 0.35811 0.0
N2266 N 0.87845 0.91235 0.4079 0.0
N2267 N 0.77278 0.93724 0.34599 0.0
H2268 H 0.83813 0.99522 0.34313 0.0
H2269 H 0.80489 0.98242 0.32586 0.0
H2270 H 0.75476 0.92209 0.34549 0.0
H2271 H 0.76621 0.95943 0.3418 0.0
H2272 H 0.88194 0.89182 0.41893 0.0
H2273 H 0.89289 0.92953 0.41523 0.0
H2274 H 0.86708 0.85775 0.38898 0.0
H2275 H 0.83256 0.84554 0.3741 0.0
C2276 C 0.31319 0.5873 0.61159 0.0
C2277 C 0.30123 0.59791 0.63967 0.0
C2278 C 0.33468 0.56476 0.6684 0.0
C2279 C 0.34633 0.55383 0.64032 0.0
N2280 N 0.35425 0.56106 0.58634 0.0
N2281 N 0.30692 0.60453 0.69402 0.0
C2282 C 0.33817 0.5674 0.61225 0.0
C2283 C 0.31426 0.58931 0.66787 0.0
N2284 N 0.2995 0.59442 0.58454 0.0
N2285 N 0.34131 0.55049 0.69526 0.0
H2286 H 0.29216 0.6229 0.69409 0.0
H2287 H 0.31773 0.60096 0.71485 0.0
H2288 H 0.35582 0.53203 0.69666 0.0
H2289 H 0.33062 0.55551 0.71587 0.0
H2290 H 0.30531 0.58447 0.56377 0.0
H2291 H 0.28078 0.60861 0.58305 0.0
H2292 H 0.35099 0.5723 0.56571 0.0
H2293 H 0.37296 0.54671 0.5864 0.0
C2294 C 0.65234 0.0746 0.89389 0.0
C2295 C 0.66153 0.0441 0.89075 0.0
C2296 C 0.71387 0.05997 0.88391 0.0
C2297 C 0.70418 0.09044 0.88338 0.0
N2298 N 0.66345 0.12671 0.88189 0.0
N2299 N 0.69972 0.00793 0.87601 0.0
C2300 C 0.67316 0.09781 0.88665 0.0
C2301 C 0.69193 0.03679 0.88378 0.0
N2302 N 0.62421 0.08144 0.9048 0.0
N2303 N 0.74394 0.05313 0.88578 0.0
H2304 H 0.68407 0.99038 0.87465 0.0
H2305 H 0.72106 0.00211 0.8678 0.0
H2306 H 0.7608 0.06953 0.88711 0.0
H2307 H 0.75192 0.03129 0.88928 0.0
H2308 H 0.61756 0.10329 0.91049 0.0
H2309 H 0.6084 0.06503 0.91083 0.0
H2310 H 0.64067 0.13259 0.88092 0.0
H2311 H 0.678 0.14433 0.87616 0.0
C2312 C 0.16655 0.56612 0.36228 0.0
C2313 C 0.15558 0.55501 0.39055 0.0
C2314 C 0.18807 0.58966 0.41871 0.0
C2315 C 0.19948 0.60035 0.39045 0.0
N2316 N 0.19295 0.60649 0.33618 0.0
N2317 N 0.1479 0.56261 0.44451 0.0
C2318 C 0.18629 0.59125 0.36247 0.0
C2319 C 0.16357 0.56913 0.41842 0.0
N2320 N 0.16001 0.55149 0.33557 0.0
N2321 N 0.2019 0.59722 0.44558 0.0
H2322 H 0.12957 0.54777 0.4447 0.0
H2323 H 0.15103 0.57415 0.46502 0.0
H2324 H 0.22034 0.61178 0.44681 0.0
H2325 H 0.19652 0.58726 0.46644 0.0
H2326 H 0.17027 0.5567 0.3148 0.0
H2327 H 0.14601 0.53262 0.33444 0.0
H2328 H 0.18204 0.60248 0.31548 0.0
H2329 H 0.20721 0.62527 0.33592 0.0
C2330 C 0.66644 0.93585 0.61632 0.0
C2331 C 0.65728 0.94715 0.64514 0.0
C2332 C 0.68731 0.90855 0.67062 0.0
C2333 C 0.70153 0.9022 0.64234 0.0
N2334 N 0.70567 0.91029 0.58787 0.0
N2335 N 0.6591 0.94504 0.70028 0.0
C2336 C 0.69098 0.91542 0.61487 0.0
C2337 C 0.66716 0.93331 0.67254 0.0
N2338 N 0.65181 0.94499 0.59044 0.0
N2339 N 0.69336 0.89101 0.69555 0.0
H2340 H 0.64447 0.96332 0.70264 0.0
H2341 H 0.6685 0.93796 0.72088 0.0
H2342 H 0.70793 0.87251 0.6945 0.0
H2343 H 0.68175 0.89291 0.71618 0.0
H2344 H 0.65573 0.93555 0.56898 0.0
H2345 H 0.63356 0.95989 0.59106 0.0
H2346 H 0.70104 0.92214 0.56786 0.0
H2347 H 0.72405 0.89572 0.58583 0.0
C2348 C 0.34273 0.43615 0.86241 0.0
C2349 C 0.35128 0.44848 0.89104 0.0
C2350 C 0.31653 0.41499 0.91771 0.0
C2351 C 0.30768 0.40291 0.88906 0.0
N2352 N 0.31907 0.39434 0.83593 0.0
N2353 N 0.35451 0.44303 0.94569 0.0
C2354 C 0.32329 0.41082 0.86199 0.0
C2355 C 0.34104 0.43544 0.91866 0.0
N2356 N 0.35111 0.44987 0.83576 0.0
N2357 N 0.30021 0.40896 0.94353 0.0
H2358 H 0.37282 0.45785 0.94681 0.0
H2359 H 0.34962 0.4323 0.96629 0.0
H2360 H 0.28143 0.3948 0.94379 0.0
H2361 H 0.30383 0.41996 0.96427 0.0
H2362 H 0.34262 0.44362 0.81447 0.0
H2363 H 0.36468 0.46906 0.83499 0.0
H2364 H 0.33176 0.39755 0.81612 0.0
H2365 H 0.30503 0.3754 0.83527 0.0
C2366 C 0.80858 0.03875 0.14675 0.0
C2367 C 0.83899 0.04601 0.13976 0.0
C2368 C 0.82794 0.09969 0.1457 0.0
C2369 C 0.79693 0.09248 0.14935 0.0
N2370 N 0.75672 0.0557 0.14623 0.0
N2371 N 0.87654 0.08335 0.12649 0.0
C2372 C 0.7869 0.06215 0.14783 0.0
C2373 C 0.84843 0.07651 0.13746 0.0
N2374 N 0.80057 0.00972 0.15351 0.0
N2375 N 0.83796 0.12839 0.15106 0.0
H2376 H 0.89211 0.06695 0.11982 0.0
H2377 H 0.88339 0.10528 0.12143 0.0
H2378 H 0.82362 0.14601 0.15742 0.0
H2379 H 0.86078 0.13411 0.15183 0.0
H2380 H 0.77928 0.00384 0.16178 0.0
H2381 H 0.816 0.99193 0.15392 0.0
H2382 H 0.74843 0.03409 0.14201 0.0
H2383 H 0.74003 0.07231 0.14586 0.0
C2384 C 0.84472 0.57457 0.89203 0.0
C2385 C 0.83645 0.54378 0.89468 0.0
C2386 C 0.78315 0.55723 0.89056 0.0
C2387 C 0.79164 0.58742 0.88426 0.0
N2388 N 0.83078 0.62364 0.87252 0.0
N2389 N 0.79844 0.50494 0.8895 0.0
C2390 C 0.82254 0.59581 0.88309 0.0
C2391 C 0.80583 0.5348 0.89195 0.0
N2392 N 0.87341 0.58371 0.89903 0.0
N2393 N 0.75364 0.55011 0.89638 0.0
H2394 H 0.81452 0.48774 0.88928 0.0
H2395 H 0.77667 0.49749 0.88443 0.0
H2396 H 0.73635 0.5661 0.8966 0.0
H2397 H 0.74683 0.52893 0.90409 0.0
H2398 H 0.87967 0.60633 0.90042 0.0
H2399 H 0.89023 0.56887 0.90627 0.0
H2400 H 0.85316 0.62969 0.86836 0.0
H2401 H 0.81517 0.6397 0.86517 0.0
C2402 C 0.16296 0.06832 0.61369 0.0
C2403 C 0.15165 0.0572 0.64176 0.0
C2404 C 0.1803 0.09549 0.66942 0.0
C2405 C 0.19661 0.10156 0.64229 0.0
N2406 N 0.20421 0.09375 0.58815 0.0
N2407 N 0.14943 0.05954 0.69689 0.0
C2408 C 0.18774 0.08857 0.61406 0.0
C2409 C 0.15968 0.07104 0.66982 0.0
N2410 N 0.15017 0.05911 0.58684 0.0
N2411 N 0.18489 0.11295 0.69476 0.0
H2412 H 0.13432 0.04156 0.6982 0.0
H2413 H 0.15742 0.06654 0.71814 0.0
H2414 H 0.19983 0.13119 0.6948 0.0
H2415 H 0.17183 0.11129 0.71451 0.0
H2416 H 0.15572 0.06833 0.56568 0.0
H2417 H 0.1318 0.04433 0.58619 0.0
H2418 H 0.20083 0.08208 0.56776 0.0
H2419 H 0.22269 0.10831 0.58748 0.0
C2420 C 0.69053 0.46705 0.39492 0.0
C2421 C 0.65997 0.45801 0.39802 0.0
C2422 C 0.674 0.40568 0.38796 0.0
C2423 C 0.70484 0.41431 0.38855 0.0
N2424 N 0.74282 0.45208 0.39916 0.0
N2425 N 0.62297 0.41825 0.40323 0.0
C2426 C 0.71327 0.44469 0.3939 0.0
C2427 C 0.65173 0.42715 0.39619 0.0
N2428 N 0.69778 0.49688 0.39177 0.0
N2429 N 0.66591 0.37736 0.37862 0.0
H2430 H 0.60604 0.43334 0.40971 0.0
H2431 H 0.61666 0.3957 0.4053 0.0
H2432 H 0.68161 0.36105 0.37202 0.0
H2433 H 0.64357 0.37096 0.37479 0.0
H2434 H 0.71948 0.50431 0.38635 0.0
H2435 H 0.68164 0.51402 0.39138 0.0
H2436 H 0.74964 0.47347 0.40624 0.0
H2437 H 0.76018 0.43616 0.39956 0.0
C2438 C 0.31204 0.96215 0.14589 0.0
C2439 C 0.3422 0.95328 0.13975 0.0
C2440 C 0.32853 0.90041 0.14704 0.0
C2441 C 0.29779 0.90912 0.14939 0.0
N2442 N 0.25945 0.94767 0.14456 0.0
N2443 N 0.37844 0.9139 0.12904 0.0
C2444 C 0.28924 0.93984 0.14701 0.0
C2445 C 0.35032 0.92236 0.13879 0.0
N2446 N 0.3053 0.99171 0.15172 0.0
N2447 N 0.33703 0.87147 0.15357 0.0
H2448 H 0.39501 0.92936 0.12252 0.0
H2449 H 0.38443 0.89154 0.12487 0.0
H2450 H 0.3217 0.85477 0.16006 0.0
H2451 H 0.35952 0.86473 0.15523 0.0
H2452 H 0.28414 0.99883 0.15934 0.0
H2453 H 0.32158 0.00873 0.15204 0.0
H2454 H 0.25231 0.96954 0.13965 0.0
H2455 H 0.24196 0.9319 0.14426 0.0
C2456 C 0.79024 0.44169 0.63467 0.0
C2457 C 0.79695 0.41161 0.64318 0.0
C2458 C 0.85094 0.42142 0.63717 0.0
C2459 C 0.84427 0.45227 0.63201 0.0
N2460 N 0.80809 0.49313 0.63272 0.0
N2461 N 0.83357 0.37407 0.65831 0.0
C2462 C 0.81405 0.46286 0.63269 0.0
C2463 C 0.8273 0.40175 0.64609 0.0
N2464 N 0.76131 0.44983 0.62741 0.0
N2465 N 0.87961 0.41077 0.63273 0.0
H2466 H 0.81681 0.35911 0.66546 0.0
H2467 H 0.85536 0.36707 0.66386 0.0
H2468 H 0.89755 0.42453 0.62602 0.0
H2469 H 0.88501 0.3879 0.63309 0.0
H2470 H 0.75581 0.47073 0.61805 0.0
H2471 H 0.74322 0.43474 0.62779 0.0
H2472 H 0.78656 0.50197 0.63634 0.0
H2473 H 0.82498 0.50954 0.63235 0.0
C2474 C 0.3328 0.09649 0.39009 0.0
C2475 C 0.30196 0.0878 0.3894 0.0
C2476 C 0.31627 0.03495 0.39526 0.0
C2477 C 0.34672 0.04396 0.39946 0.0
N2478 N 0.38331 0.08375 0.40685 0.0
N2479 N 0.26382 0.04977 0.39823 0.0
C2480 C 0.35485 0.0749 0.39862 0.0
C2481 C 0.29349 0.0573 0.39398 0.0
N2482 N 0.34113 0.12498 0.38161 0.0
N2483 N 0.30918 0.00518 0.39127 0.0
H2484 H 0.24643 0.06566 0.39849 0.0
H2485 H 0.25684 0.02824 0.40469 0.0
H2486 H 0.32536 0.98807 0.391 0.0
H2487 H 0.28768 0.99782 0.38504 0.0
H2488 H 0.36357 0.13148 0.37868 0.0
H2489 H 0.32563 0.14139 0.37484 0.0
H2490 H 0.38945 0.10628 0.40964 0.0
H2491 H 0.40005 0.06858 0.41358 0.0
C2492 C 0.71603 0.55619 0.13823 0.0
C2493 C 0.707 0.58675 0.14079 0.0
C2494 C 0.65448 0.57249 0.13207 0.0
C2495 C 0.6631 0.54172 0.13351 0.0
N2496 N 0.70119 0.50413 0.14433 0.0
N2497 N 0.66716 0.6237 0.14611 0.0
C2498 C 0.69365 0.53346 0.13837 0.0
C2499 C 0.67606 0.59491 0.13938 0.0
N2500 N 0.74585 0.54891 0.13461 0.0
N2501 N 0.62603 0.58033 0.12284 0.0
H2502 H 0.68229 0.64074 0.15213 0.0
H2503 H 0.64457 0.62994 0.14847 0.0
H2504 H 0.60966 0.5645 0.11676 0.0
H2505 H 0.61963 0.60253 0.11847 0.0
H2506 H 0.75323 0.52712 0.12963 0.0
H2507 H 0.76296 0.56506 0.13337 0.0
H2508 H 0.72278 0.49754 0.15108 0.0
H2509 H 0.68529 0.4868 0.14563 0.0
C2510 C 0.15095 0.92576 0.8973 0.0
C2511 C 0.16043 0.95626 0.89536 0.0
C2512 C 0.21242 0.94015 0.88663 0.0
C2513 C 0.20232 0.90987 0.88475 0.0
N2514 N 0.16125 0.87401 0.88299 0.0
N2515 N 0.19881 0.9927 0.88187 0.0
C2516 C 0.17134 0.90265 0.88859 0.0
C2517 C 0.1908 0.96357 0.88824 0.0
N2518 N 0.12289 0.91882 0.90835 0.0
N2519 N 0.24263 0.94653 0.88807 0.0
H2520 H 0.18342 0.01052 0.8819 0.0
H2521 H 0.22005 0.99866 0.87351 0.0
H2522 H 0.2593 0.92989 0.88803 0.0
H2523 H 0.25099 0.96806 0.89254 0.0
H2524 H 0.11603 0.89685 0.91317 0.0
H2525 H 0.1074 0.93517 0.91535 0.0
H2526 H 0.13842 0.86832 0.88235 0.0
H2527 H 0.17552 0.85646 0.87632 0.0
loop_
_geom_bond_atom_site_label_1
_geom_bond_atom_site_label_2
_geom_bond_distance
_geom_bond_site_symmetry_2
_ccdc_geom_bond_type
Co0 O3 1.970 . S
Co0 N17 1.989 . S
Co0 O25 1.967 . S
Co0 O32 1.920 . S
Co1 O4 1.966 . S
Co1 N10 2.022 . S
Co1 N18 1.993 . S
Co1 O26 1.941 . S
C2 O3 1.258 . S
C2 O4 1.263 . S
O3 Co0 1.970 . S
O3 C2 1.258 . S
O4 Co1 1.966 . S
O4 C2 1.263 . S
C5 O6 1.235 . S
C5 O32 1.289 . S
O6 C5 1.235 . S
C7 C9 1.400 . S
C7 N10 1.351 . S
C7 C12 1.501 . S
C8 C9 1.387 . S
C8 N11 1.341 . S
C9 C7 1.400 . S
C9 C8 1.387 . S
N10 Co1 2.022 . S
N10 C7 1.351 . S
N10 N11 1.365 . S
N11 C8 1.341 . S
N11 N10 1.365 . S
N11 H31 0.862 . S
C12 C7 1.501 . S
C12 H13 0.961 . S
C12 H14 0.961 . S
C12 H15 0.960 . S
H13 C12 0.961 . S
H14 C12 0.961 . S
H15 C12 0.960 . S
C16 N17 1.342 . S
C16 C20 1.401 . S
C16 C21 1.499 . S
N17 Co0 1.989 . S
N17 C16 1.342 . S
N17 N18 1.388 . S
N18 Co1 1.993 . S
N18 N17 1.388 . S
N18 C19 1.346 . S
C19 N18 1.346 . S
C19 C20 1.396 . S
C19 C29 1.510 . S
C20 C16 1.401 . S
C20 C19 1.396 . S
C21 C16 1.499 . S
C21 H22 0.959 . S
C21 H23 0.960 . S
C21 H24 0.961 . S
H22 C21 0.959 . S
H23 C21 0.960 . S
H24 C21 0.961 . S
O25 Co0 1.967 . S
O25 C33 1.258 . S
O26 Co1 1.941 . S
O26 C33 1.266 . S
H27 C29 0.959 . S
H28 C29 0.961 . S
C29 C19 1.510 . S
C29 H27 0.959 . S
C29 H28 0.961 . S
C29 H30 0.960 . S
H30 C29 0.960 . S
H31 N11 0.862 . S
O32 Co0 1.920 . S
O32 C5 1.289 . S
C33 O25 1.258 . S
C33 O26 1.266 . S
Co34 O37 1.970 . S
Co34 N51 1.989 . S
Co34 O59 1.967 . S
Co34 O66 1.920 1_655 S
Co35 O38 1.966 . S
Co35 N44 2.022 1_545 S
Co35 N52 1.993 . S
Co35 O60 1.941 . S
C36 O37 1.258 . S
C36 O38 1.263 . S
O37 Co34 1.970 . S
O37 C36 1.258 . S
O38 Co35 1.966 . S
O38 C36 1.263 . S
C39 O40 1.235 . S
C39 O66 1.289 . S
O40 C39 1.235 . S
C41 C43 1.400 . S
C41 N44 1.351 . S
C41 C46 1.501 . S
C42 C43 1.387 . S
C42 N45 1.341 . S
C43 C41 1.400 . S
C43 C42 1.387 . S
N44 Co35 2.022 1_565 S
N44 C41 1.351 . S
N44 N45 1.365 . S
N45 C42 1.341 . S
N45 N44 1.365 . S
N45 H65 0.862 1_565 S
C46 C41 1.501 . S
C46 H47 0.961 . S
C46 H48 0.961 . S
C46 H49 0.960 . S
H47 C46 0.961 . S
H48 C46 0.961 . S
H49 C46 0.960 . S
C50 N51 1.342 1_455 S
C50 C54 1.401 1_455 S
C50 C55 1.499 . S
N51 Co34 1.989 . S
N51 C50 1.342 1_655 S
N51 N52 1.388 . S
N52 Co35 1.993 . S
N52 N51 1.388 . S
N52 C53 1.346 . S
C53 N52 1.346 . S
C53 C54 1.396 . S
C53 C63 1.510 1_545 S
C54 C50 1.401 1_655 S
C54 C53 1.396 . S
C55 C50 1.499 . S
C55 H56 0.959 . S
C55 H57 0.960 . S
C55 H58 0.961 . S
H56 C55 0.959 . S
H57 C55 0.960 . S
H58 C55 0.961 . S
O59 Co34 1.967 . S
O59 C67 1.258 . S
O60 Co35 1.941 . S
O60 C67 1.266 . S
H61 C63 0.959 . S
H62 C63 0.961 . S
C63 C53 1.510 1_565 S
C63 H61 0.959 . S
C63 H62 0.961 . S
C63 H64 0.960 . S
H64 C63 0.960 . S
H65 N45 0.862 1_545 S
O66 Co34 1.920 1_455 S
O66 C39 1.289 . S
C67 O59 1.258 . S
C67 O60 1.266 . S
Co68 O71 1.970 . S
Co68 N85 1.989 . S
Co68 O93 1.967 . S
Co68 O100 1.920 . S
Co69 O72 1.966 . S
Co69 N78 2.022 . S
Co69 N86 1.993 . S
Co69 O94 1.941 . S
C70 O71 1.258 . S
C70 O72 1.263 . S
O71 Co68 1.970 . S
O71 C70 1.258 . S
O72 Co69 1.966 . S
O72 C70 1.263 . S
C73 O74 1.235 . S
C73 O100 1.289 . S
O74 C73 1.235 . S
C75 C77 1.400 . S
C75 N78 1.351 . S
C75 C80 1.501 . S
C76 C77 1.387 . S
C76 N79 1.341 . S
C77 C75 1.400 . S
C77 C76 1.387 . S
N78 Co69 2.022 . S
N78 C75 1.351 . S
N78 N79 1.365 . S
N79 C76 1.341 . S
N79 N78 1.365 . S
N79 H99 0.862 . S
C80 C75 1.501 . S
C80 H81 0.961 . S
C80 H82 0.961 . S
C80 H83 0.960 . S
H81 C80 0.961 . S
H82 C80 0.961 . S
H83 C80 0.960 . S
C84 N85 1.342 . S
C84 C88 1.401 . S
C84 C89 1.499 . S
N85 Co68 1.989 . S
N85 C84 1.342 . S
N85 N86 1.388 . S
N86 Co69 1.993 . S
N86 N85 1.388 . S
N86 C87 1.346 . S
C87 N86 1.346 . S
C87 C88 1.396 . S
C87 C97 1.510 . S
C88 C84 1.401 . S
C88 C87 1.396 . S
C89 C84 1.499 . S
C89 H90 0.959 . S
C89 H91 0.960 . S
C89 H92 0.961 . S
H90 C89 0.959 . S
H91 C89 0.960 . S
H92 C89 0.961 . S
O93 Co68 1.967 . S
O93 C101 1.258 . S
O94 Co69 1.941 . S
O94 C101 1.266 . S
H95 C97 0.959 . S
H96 C97 0.961 . S
C97 C87 1.510 . S
C97 H95 0.959 . S
C97 H96 0.961 . S
C97 H98 0.960 . S
H98 C97 0.960 . S
H99 N79 0.862 . S
O100 Co68 1.920 . S
O100 C73 1.289 . S
C101 O93 1.258 . S
C101 O94 1.266 . S
Co102 O105 1.970 . S
Co102 N119 1.989 . S
Co102 O127 1.967 . S
Co102 O134 1.920 . S
Co103 O106 1.966 . S
Co103 N112 2.022 1_565 S
Co103 N120 1.993 . S
Co103 O128 1.941 . S
C104 O105 1.258 . S
C104 O106 1.263 . S
O105 Co102 1.970 . S
O105 C104 1.258 . S
O106 Co103 1.966 . S
O106 C104 1.263 . S
C107 O108 1.235 . S
C107 O134 1.289 . S
O108 C107 1.235 . S
C109 C111 1.400 . S
C109 N112 1.351 . S
C109 C114 1.501 . S
C110 C111 1.387 . S
C110 N113 1.341 . S
C111 C109 1.400 . S
C111 C110 1.387 . S
N112 Co103 2.022 1_545 S
N112 C109 1.351 . S
N112 N113 1.365 . S
N113 C110 1.341 . S
N113 N112 1.365 . S
N113 H133 0.862 1_545 S
C114 C109 1.501 . S
C114 H115 0.961 . S
C114 H116 0.961 . S
C114 H117 0.960 . S
H115 C114 0.961 . S
H116 C114 0.961 . S
H117 C114 0.960 . S
C118 N119 1.342 . S
C118 C122 1.401 . S
C118 C123 1.499 . S
N119 Co102 1.989 . S
N119 C118 1.342 . S
N119 N120 1.388 . S
N120 Co103 1.993 . S
N120 N119 1.388 . S
N120 C121 1.346 . S
C121 N120 1.346 . S
C121 C122 1.396 . S
C121 C131 1.510 1_565 S
C122 C118 1.401 . S
C122 C121 1.396 . S
C123 C118 1.499 . S
C123 H124 0.959 . S
C123 H125 0.960 . S
C123 H126 0.961 . S
H124 C123 0.959 . S
H125 C123 0.960 . S
H126 C123 0.961 . S
O127 Co102 1.967 . S
O127 C135 1.258 . S
O128 Co103 1.941 . S
O128 C135 1.266 . S
H129 C131 0.959 . S
H130 C131 0.961 . S
C131 C121 1.510 1_545 S
C131 H129 0.959 . S
C131 H130 0.961 . S
C131 H132 0.960 . S
H132 C131 0.960 . S
H133 N113 0.862 1_565 S
O134 Co102 1.920 . S
O134 C107 1.289 . S
C135 O127 1.258 . S
C135 O128 1.266 . S
Co136 O139 1.970 . S
Co136 N153 1.989 . S
Co136 O161 1.967 . S
Co136 O168 1.920 . S
Co137 O140 1.966 . S
Co137 N146 2.022 . S
Co137 N154 1.993 . S
Co137 O162 1.941 . S
C138 O139 1.258 . S
C138 O140 1.263 . S
O139 Co136 1.970 . S
O139 C138 1.258 . S
O140 Co137 1.966 . S
O140 C138 1.263 . S
C141 O142 1.235 . S
C141 O168 1.289 . S
O142 C141 1.235 . S
C143 C145 1.400 . S
C143 N146 1.351 . S
C143 C148 1.501 . S
C144 C145 1.387 . S
C144 N147 1.341 . S
C145 C143 1.400 . S
C145 C144 1.387 . S
N146 Co137 2.022 . S
N146 C143 1.351 . S
N146 N147 1.365 . S
N147 C144 1.341 . S
N147 N146 1.365 . S
N147 H167 0.862 . S
C148 C143 1.501 . S
C148 H149 0.961 . S
C148 H150 0.961 . S
C148 H151 0.960 . S
H149 C148 0.961 . S
H150 C148 0.961 . S
H151 C148 0.960 . S
C152 N153 1.342 . S
C152 C156 1.401 . S
C152 C157 1.499 . S
N153 Co136 1.989 . S
N153 C152 1.342 . S
N153 N154 1.388 . S
N154 Co137 1.993 . S
N154 N153 1.388 . S
N154 C155 1.346 . S
C155 N154 1.346 . S
C155 C156 1.396 . S
C155 C165 1.510 . S
C156 C152 1.401 . S
C156 C155 1.396 . S
C157 C152 1.499 . S
C157 H158 0.959 . S
C157 H159 0.960 . S
C157 H160 0.961 . S
H158 C157 0.959 . S
H159 C157 0.960 . S
H160 C157 0.961 . S
O161 Co136 1.967 . S
O161 C169 1.258 . S
O162 Co137 1.941 . S
O162 C169 1.266 . S
H163 C165 0.959 . S
H164 C165 0.961 . S
C165 C155 1.510 . S
C165 H163 0.959 . S
C165 H164 0.961 . S
C165 H166 0.960 . S
H166 C165 0.960 . S
H167 N147 0.862 . S
O168 Co136 1.920 . S
O168 C141 1.289 . S
C169 O161 1.258 . S
C169 O162 1.266 . S
Co170 O173 1.970 . S
Co170 N187 1.989 . S
Co170 O195 1.967 . S
Co170 O202 1.920 . S
Co171 O174 1.966 . S
Co171 N180 2.022 1_545 S
Co171 N188 1.993 . S
Co171 O196 1.941 . S
C172 O173 1.258 . S
C172 O174 1.263 . S
O173 Co170 1.970 . S
O173 C172 1.258 . S
O174 Co171 1.966 . S
O174 C172 1.263 . S
C175 O176 1.235 . S
C175 O202 1.289 . S
O176 C175 1.235 . S
C177 C179 1.400 . S
C177 N180 1.351 . S
C177 C182 1.501 . S
C178 C179 1.387 . S
C178 N181 1.341 . S
C179 C177 1.400 . S
C179 C178 1.387 . S
N180 Co171 2.022 1_565 S
N180 C177 1.351 . S
N180 N181 1.365 . S
N181 C178 1.341 . S
N181 N180 1.365 . S
N181 H201 0.862 1_565 S
C182 C177 1.501 . S
C182 H183 0.961 . S
C182 H184 0.961 . S
C182 H185 0.960 . S
H183 C182 0.961 . S
H184 C182 0.961 . S
H185 C182 0.960 . S
C186 N187 1.342 . S
C186 C190 1.401 . S
C186 C191 1.499 . S
N187 Co170 1.989 . S
N187 C186 1.342 . S
N187 N188 1.388 . S
N188 Co171 1.993 . S
N188 N187 1.388 . S
N188 C189 1.346 . S
C189 N188 1.346 . S
C189 C190 1.396 . S
C189 C199 1.510 1_545 S
C190 C186 1.401 . S
C190 C189 1.396 . S
C191 C186 1.499 . S
C191 H192 0.959 . S
C191 H193 0.960 . S
C191 H194 0.961 . S
H192 C191 0.959 . S
H193 C191 0.960 . S
H194 C191 0.961 . S
O195 Co170 1.967 . S
O195 C203 1.258 . S
O196 Co171 1.941 . S
O196 C203 1.266 . S
H197 C199 0.959 . S
H198 C199 0.961 . S
C199 C189 1.510 1_565 S
C199 H197 0.959 . S
C199 H198 0.961 . S
C199 H200 0.960 . S
H200 C199 0.960 . S
H201 N181 0.862 1_545 S
O202 Co170 1.920 . S
O202 C175 1.289 . S
C203 O195 1.258 . S
C203 O196 1.266 . S
Co204 O207 1.970 . S
Co204 N221 1.989 . S
Co204 O229 1.967 . S
Co204 O236 1.920 . S
Co205 O208 1.966 . S
Co205 N214 2.022 . S
Co205 N222 1.993 . S
Co205 O230 1.941 . S
C206 O207 1.258 . S
C206 O208 1.263 . S
O207 Co204 1.970 . S
O207 C206 1.258 . S
O208 Co205 1.966 . S
O208 C206 1.263 . S
C209 O210 1.235 . S
C209 O236 1.289 . S
O210 C209 1.235 . S
C211 C213 1.400 . S
C211 N214 1.351 . S
C211 C216 1.501 . S
C212 C213 1.387 . S
C212 N215 1.341 . S
C213 C211 1.400 . S
C213 C212 1.387 . S
N214 Co205 2.022 . S
N214 C211 1.351 . S
N214 N215 1.365 . S
N215 C212 1.341 . S
N215 N214 1.365 . S
N215 H235 0.862 . S
C216 C211 1.501 . S
C216 H217 0.961 . S
C216 H218 0.961 . S
C216 H219 0.960 . S
H217 C216 0.961 . S
H218 C216 0.961 . S
H219 C216 0.960 . S
C220 N221 1.342 . S
C220 C224 1.401 . S
C220 C225 1.499 . S
N221 Co204 1.989 . S
N221 C220 1.342 . S
N221 N222 1.388 . S
N222 Co205 1.993 . S
N222 N221 1.388 . S
N222 C223 1.346 . S
C223 N222 1.346 . S
C223 C224 1.396 . S
C223 C233 1.510 . S
C224 C220 1.401 . S
C224 C223 1.396 . S
C225 C220 1.499 . S
C225 H226 0.959 . S
C225 H227 0.960 . S
C225 H228 0.961 . S
H226 C225 0.959 . S
H227 C225 0.960 . S
H228 C225 0.961 . S
O229 Co204 1.967 . S
O229 C237 1.258 . S
O230 Co205 1.941 . S
O230 C237 1.266 . S
H231 C233 0.959 . S
H232 C233 0.961 . S
C233 C223 1.510 . S
C233 H231 0.959 . S
C233 H232 0.961 . S
C233 H234 0.960 . S
H234 C233 0.960 . S
H235 N215 0.862 . S
O236 Co204 1.920 . S
O236 C209 1.289 . S
C237 O229 1.258 . S
C237 O230 1.266 . S
Co238 O241 1.970 . S
Co238 N255 1.989 . S
Co238 O263 1.967 . S
Co238 O270 1.920 1_655 S
Co239 O242 1.966 . S
Co239 N248 2.022 1_565 S
Co239 N256 1.993 . S
Co239 O264 1.941 . S
C240 O241 1.258 . S
C240 O242 1.263 . S
O241 Co238 1.970 . S
O241 C240 1.258 . S
O242 Co239 1.966 . S
O242 C240 1.263 . S
C243 O244 1.235 . S
C243 O270 1.289 . S
O244 C243 1.235 . S
C245 C247 1.400 . S
C245 N248 1.351 . S
C245 C250 1.501 . S
C246 C247 1.387 . S
C246 N249 1.341 . S
C247 C245 1.400 . S
C247 C246 1.387 . S
N248 Co239 2.022 1_545 S
N248 C245 1.351 . S
N248 N249 1.365 . S
N249 C246 1.341 . S
N249 N248 1.365 . S
N249 H269 0.862 1_545 S
C250 C245 1.501 . S
C250 H251 0.961 . S
C250 H252 0.961 . S
C250 H253 0.960 . S
H251 C250 0.961 . S
H252 C250 0.961 . S
H253 C250 0.960 . S
C254 N255 1.342 1_455 S
C254 C258 1.401 1_455 S
C254 C259 1.499 . S
N255 Co238 1.989 . S
N255 C254 1.342 1_655 S
N255 N256 1.388 . S
N256 Co239 1.993 . S
N256 N255 1.388 . S
N256 C257 1.346 . S
C257 N256 1.346 . S
C257 C258 1.396 . S
C257 C267 1.510 1_565 S
C258 C254 1.401 1_655 S
C258 C257 1.396 . S
C259 C254 1.499 . S
C259 H260 0.959 . S
C259 H261 0.960 . S
C259 H262 0.961 . S
H260 C259 0.959 . S
H261 C259 0.960 . S
H262 C259 0.961 . S
O263 Co238 1.967 . S
O263 C271 1.258 . S
O264 Co239 1.941 . S
O264 C271 1.266 . S
H265 C267 0.959 . S
H266 C267 0.961 . S
C267 C257 1.510 1_545 S
C267 H265 0.959 . S
C267 H266 0.961 . S
C267 H268 0.960 . S
H268 C267 0.960 . S
H269 N249 0.862 1_565 S
O270 Co238 1.920 1_455 S
O270 C243 1.289 . S
C271 O263 1.258 . S
C271 O264 1.266 . S
Co272 O275 1.970 . S
Co272 N289 1.989 . S
Co272 O297 1.967 . S
Co272 O304 1.920 . S
Co273 O276 1.966 . S
Co273 N282 2.022 . S
Co273 N290 1.993 . S
Co273 O298 1.941 . S
C274 O275 1.258 . S
C274 O276 1.263 . S
O275 Co272 1.970 . S
O275 C274 1.258 . S
O276 Co273 1.966 . S
O276 C274 1.263 . S
C277 O278 1.235 . S
C277 O304 1.289 . S
O278 C277 1.235 . S
C279 C281 1.400 . S
C279 N282 1.351 . S
C279 C284 1.501 . S
C280 C281 1.387 . S
C280 N283 1.341 . S
C281 C279 1.400 . S
C281 C280 1.387 . S
N282 Co273 2.022 . S
N282 C279 1.351 . S
N282 N283 1.365 . S
N283 C280 1.341 . S
N283 N282 1.365 . S
N283 H303 0.862 . S
C284 C279 1.501 . S
C284 H285 0.961 . S
C284 H286 0.961 . S
C284 H287 0.960 . S
H285 C284 0.961 . S
H286 C284 0.961 . S
H287 C284 0.960 . S
C288 N289 1.342 . S
C288 C292 1.401 . S
C288 C293 1.499 . S
N289 Co272 1.989 . S
N289 C288 1.342 . S
N289 N290 1.388 . S
N290 Co273 1.993 . S
N290 N289 1.388 . S
N290 C291 1.346 . S
C291 N290 1.346 . S
C291 C292 1.396 . S
C291 C301 1.510 . S
C292 C288 1.401 . S
C292 C291 1.396 . S
C293 C288 1.499 . S
C293 H294 0.959 . S
C293 H295 0.960 . S
C293 H296 0.961 . S
H294 C293 0.959 . S
H295 C293 0.960 . S
H296 C293 0.961 . S
O297 Co272 1.967 . S
O297 C305 1.258 . S
O298 Co273 1.941 . S
O298 C305 1.266 . S
H299 C301 0.959 . S
H300 C301 0.961 . S
C301 C291 1.510 . S
C301 H299 0.959 . S
C301 H300 0.961 . S
C301 H302 0.960 . S
H302 C301 0.960 . S
H303 N283 0.862 . S
O304 Co272 1.920 . S
O304 C277 1.289 . S
C305 O297 1.258 . S
C305 O298 1.266 . S
Co306 O309 1.970 . S
Co306 N323 1.989 . S
Co306 O331 1.967 . S
Co306 O338 1.920 1_455 S
Co307 O310 1.966 . S
Co307 N316 2.022 1_565 S
Co307 N324 1.993 . S
Co307 O332 1.941 . S
C308 O309 1.258 . S
C308 O310 1.263 . S
O309 Co306 1.970 . S
O309 C308 1.258 . S
O310 Co307 1.966 . S
O310 C308 1.263 . S
C311 O312 1.235 . S
C311 O338 1.289 . S
O312 C311 1.235 . S
C313 C315 1.400 . S
C313 N316 1.351 . S
C313 C318 1.501 . S
C314 C315 1.387 . S
C314 N317 1.341 . S
C315 C313 1.400 . S
C315 C314 1.387 . S
N316 Co307 2.022 1_545 S
N316 C313 1.351 . S
N316 N317 1.365 . S
N317 C314 1.341 . S
N317 N316 1.365 . S
N317 H337 0.862 1_545 S
C318 C313 1.501 . S
C318 H319 0.961 . S
C318 H320 0.961 . S
C318 H321 0.960 . S
H319 C318 0.961 . S
H320 C318 0.961 . S
H321 C318 0.960 . S
C322 N323 1.342 1_655 S
C322 C326 1.401 1_655 S
C322 C327 1.499 . S
N323 Co306 1.989 . S
N323 C322 1.342 1_455 S
N323 N324 1.388 . S
N324 Co307 1.993 . S
N324 N323 1.388 . S
N324 C325 1.346 . S
C325 N324 1.346 . S
C325 C326 1.396 . S
C325 C335 1.510 1_565 S
C326 C322 1.401 1_455 S
C326 C325 1.396 . S
C327 C322 1.499 . S
C327 H328 0.959 . S
C327 H329 0.960 . S
C327 H330 0.961 . S
H328 C327 0.959 . S
H329 C327 0.960 . S
H330 C327 0.961 . S
O331 Co306 1.967 . S
O331 C339 1.258 . S
O332 Co307 1.941 . S
O332 C339 1.266 . S
H333 C335 0.959 . S
H334 C335 0.961 . S
C335 C325 1.510 1_545 S
C335 H333 0.959 . S
C335 H334 0.961 . S
C335 H336 0.960 . S
H336 C335 0.960 . S
H337 N317 0.862 1_565 S
O338 Co306 1.920 1_655 S
O338 C311 1.289 . S
C339 O331 1.258 . S
C339 O332 1.266 . S
Co340 O343 1.970 . S
Co340 N357 1.989 . S
Co340 O365 1.967 . S
Co340 O372 1.920 . S
Co341 O344 1.966 . S
Co341 N350 2.022 . S
Co341 N358 1.993 . S
Co341 O366 1.941 . S
C342 O343 1.258 . S
C342 O344 1.263 . S
O343 Co340 1.970 . S
O343 C342 1.258 . S
O344 Co341 1.966 . S
O344 C342 1.263 . S
C345 O346 1.235 . S
C345 O372 1.289 . S
O346 C345 1.235 . S
C347 C349 1.400 . S
C347 N350 1.351 . S
C347 C352 1.501 . S
C348 C349 1.387 . S
C348 N351 1.341 . S
C349 C347 1.400 . S
C349 C348 1.387 . S
N350 Co341 2.022 . S
N350 C347 1.351 . S
N350 N351 1.365 . S
N351 C348 1.341 . S
N351 N350 1.365 . S
N351 H371 0.862 . S
C352 C347 1.501 . S
C352 H353 0.961 . S
C352 H354 0.961 . S
C352 H355 0.960 . S
H353 C352 0.961 . S
H354 C352 0.961 . S
H355 C352 0.960 . S
C356 N357 1.342 . S
C356 C360 1.401 . S
C356 C361 1.499 . S
N357 Co340 1.989 . S
N357 C356 1.342 . S
N357 N358 1.388 . S
N358 Co341 1.993 . S
N358 N357 1.388 . S
N358 C359 1.346 . S
C359 N358 1.346 . S
C359 C360 1.396 . S
C359 C369 1.510 . S
C360 C356 1.401 . S
C360 C359 1.396 . S
C361 C356 1.499 . S
C361 H362 0.959 . S
C361 H363 0.960 . S
C361 H364 0.961 . S
H362 C361 0.959 . S
H363 C361 0.960 . S
H364 C361 0.961 . S
O365 Co340 1.967 . S
O365 C373 1.258 . S
O366 Co341 1.941 . S
O366 C373 1.266 . S
H367 C369 0.959 . S
H368 C369 0.961 . S
C369 C359 1.510 . S
C369 H367 0.959 . S
C369 H368 0.961 . S
C369 H370 0.960 . S
H370 C369 0.960 . S
H371 N351 0.862 . S
O372 Co340 1.920 . S
O372 C345 1.289 . S
C373 O365 1.258 . S
C373 O366 1.266 . S
Co374 O377 1.970 . S
Co374 N391 1.989 . S
Co374 O399 1.967 . S
Co374 O406 1.920 . S
Co375 O378 1.966 . S
Co375 N384 2.022 1_545 S
Co375 N392 1.993 . S
Co375 O400 1.941 . S
C376 O377 1.258 . S
C376 O378 1.263 . S
O377 Co374 1.970 . S
O377 C376 1.258 . S
O378 Co375 1.966 . S
O378 C376 1.263 . S
C379 O380 1.235 . S
C379 O406 1.289 . S
O380 C379 1.235 . S
C381 C383 1.400 . S
C381 N384 1.351 . S
C381 C386 1.501 . S
C382 C383 1.387 . S
C382 N385 1.341 . S
C383 C381 1.400 . S
C383 C382 1.387 . S
N384 Co375 2.022 1_565 S
N384 C381 1.351 . S
N384 N385 1.365 . S
N385 C382 1.341 . S
N385 N384 1.365 . S
N385 H405 0.862 1_565 S
C386 C381 1.501 . S
C386 H387 0.961 . S
C386 H388 0.961 . S
C386 H389 0.960 . S
H387 C386 0.961 . S
H388 C386 0.961 . S
H389 C386 0.960 . S
C390 N391 1.342 . S
C390 C394 1.401 . S
C390 C395 1.499 . S
N391 Co374 1.989 . S
N391 C390 1.342 . S
N391 N392 1.388 . S
N392 Co375 1.993 . S
N392 N391 1.388 . S
N392 C393 1.346 . S
C393 N392 1.346 . S
C393 C394 1.396 . S
C393 C403 1.510 1_545 S
C394 C390 1.401 . S
C394 C393 1.396 . S
C395 C390 1.499 . S
C395 H396 0.959 . S
C395 H397 0.960 . S
C395 H398 0.961 . S
H396 C395 0.959 . S
H397 C395 0.960 . S
H398 C395 0.961 . S
O399 Co374 1.967 . S
O399 C407 1.258 . S
O400 Co375 1.941 . S
O400 C407 1.266 . S
H401 C403 0.959 . S
H402 C403 0.961 . S
C403 C393 1.510 1_565 S
C403 H401 0.959 . S
C403 H402 0.961 . S
C403 H404 0.960 . S
H404 C403 0.960 . S
H405 N385 0.862 1_545 S
O406 Co374 1.920 . S
O406 C379 1.289 . S
C407 O399 1.258 . S
C407 O400 1.266 . S
Co408 O411 1.970 . S
Co408 N425 1.989 . S
Co408 O433 1.967 . S
Co408 O440 1.920 . S
Co409 O412 1.966 . S
Co409 N418 2.022 . S
Co409 N426 1.993 . S
Co409 O434 1.941 . S
C410 O411 1.258 . S
C410 O412 1.263 . S
O411 Co408 1.970 . S
O411 C410 1.258 . S
O412 Co409 1.966 . S
O412 C410 1.263 . S
C413 O414 1.235 . S
C413 O440 1.289 . S
O414 C413 1.235 . S
C415 C417 1.400 . S
C415 N418 1.351 . S
C415 C420 1.501 . S
C416 C417 1.387 . S
C416 N419 1.341 . S
C417 C415 1.400 . S
C417 C416 1.387 . S
N418 Co409 2.022 . S
N418 C415 1.351 . S
N418 N419 1.365 . S
N419 C416 1.341 . S
N419 N418 1.365 . S
N419 H439 0.862 . S
C420 C415 1.501 . S
C420 H421 0.961 . S
C420 H422 0.961 . S
C420 H423 0.960 . S
H421 C420 0.961 . S
H422 C420 0.961 . S
H423 C420 0.960 . S
C424 N425 1.342 . S
C424 C428 1.401 . S
C424 C429 1.499 . S
N425 Co408 1.989 . S
N425 C424 1.342 . S
N425 N426 1.388 . S
N426 Co409 1.993 . S
N426 N425 1.388 . S
N426 C427 1.346 . S
C427 N426 1.346 . S
C427 C428 1.396 . S
C427 C437 1.510 . S
C428 C424 1.401 . S
C428 C427 1.396 . S
C429 C424 1.499 . S
C429 H430 0.959 . S
C429 H431 0.960 . S
C429 H432 0.961 . S
H430 C429 0.959 . S
H431 C429 0.960 . S
H432 C429 0.961 . S
O433 Co408 1.967 . S
O433 C441 1.258 . S
O434 Co409 1.941 . S
O434 C441 1.266 . S
H435 C437 0.959 . S
H436 C437 0.961 . S
C437 C427 1.510 . S
C437 H435 0.959 . S
C437 H436 0.961 . S
C437 H438 0.960 . S
H438 C437 0.960 . S
H439 N419 0.862 . S
O440 Co408 1.920 . S
O440 C413 1.289 . S
C441 O433 1.258 . S
C441 O434 1.266 . S
Co442 O445 1.970 . S
Co442 N459 1.989 . S
Co442 O467 1.967 . S
Co442 O474 1.920 . S
Co443 O446 1.966 . S
Co443 N452 2.022 1_565 S
Co443 N460 1.993 . S
Co443 O468 1.941 . S
C444 O445 1.258 . S
C444 O446 1.263 . S
O445 Co442 1.970 . S
O445 C444 1.258 . S
O446 Co443 1.966 . S
O446 C444 1.263 . S
C447 O448 1.235 . S
C447 O474 1.289 . S
O448 C447 1.235 . S
C449 C451 1.400 . S
C449 N452 1.351 . S
C449 C454 1.501 . S
C450 C451 1.387 . S
C450 N453 1.341 . S
C451 C449 1.400 . S
C451 C450 1.387 . S
N452 Co443 2.022 1_545 S
N452 C449 1.351 . S
N452 N453 1.365 . S
N453 C450 1.341 . S
N453 N452 1.365 . S
N453 H473 0.862 1_545 S
C454 C449 1.501 . S
C454 H455 0.961 . S
C454 H456 0.961 . S
C454 H457 0.960 . S
H455 C454 0.961 . S
H456 C454 0.961 . S
H457 C454 0.960 . S
C458 N459 1.342 . S
C458 C462 1.401 . S
C458 C463 1.499 . S
N459 Co442 1.989 . S
N459 C458 1.342 . S
N459 N460 1.388 . S
N460 Co443 1.993 . S
N460 N459 1.388 . S
N460 C461 1.346 . S
C461 N460 1.346 . S
C461 C462 1.396 . S
C461 C471 1.510 1_565 S
C462 C458 1.401 . S
C462 C461 1.396 . S
C463 C458 1.499 . S
C463 H464 0.959 . S
C463 H465 0.960 . S
C463 H466 0.961 . S
H464 C463 0.959 . S
H465 C463 0.960 . S
H466 C463 0.961 . S
O467 Co442 1.967 . S
O467 C475 1.258 . S
O468 Co443 1.941 . S
O468 C475 1.266 . S
H469 C471 0.959 . S
H470 C471 0.961 . S
C471 C461 1.510 1_545 S
C471 H469 0.959 . S
C471 H470 0.961 . S
C471 H472 0.960 . S
H472 C471 0.960 . S
H473 N453 0.862 1_565 S
O474 Co442 1.920 . S
O474 C447 1.289 . S
C475 O467 1.258 . S
C475 O468 1.266 . S
Co476 O479 1.970 . S
Co476 N493 1.989 . S
Co476 O501 1.967 . S
Co476 O508 1.920 . S
Co477 O480 1.966 . S
Co477 N486 2.022 . S
Co477 N494 1.993 . S
Co477 O502 1.941 . S
C478 O479 1.258 . S
C478 O480 1.263 . S
O479 Co476 1.970 . S
O479 C478 1.258 . S
O480 Co477 1.966 . S
O480 C478 1.263 . S
C481 O482 1.235 . S
C481 O508 1.289 . S
O482 C481 1.235 . S
C483 C485 1.400 . S
C483 N486 1.351 . S
C483 C488 1.501 . S
C484 C485 1.387 . S
C484 N487 1.341 . S
C485 C483 1.400 . S
C485 C484 1.387 . S
N486 Co477 2.022 . S
N486 C483 1.351 . S
N486 N487 1.365 . S
N487 C484 1.341 . S
N487 N486 1.365 . S
N487 H507 0.862 . S
C488 C483 1.501 . S
C488 H489 0.961 . S
C488 H490 0.961 . S
C488 H491 0.960 . S
H489 C488 0.961 . S
H490 C488 0.961 . S
H491 C488 0.960 . S
C492 N493 1.342 . S
C492 C496 1.401 . S
C492 C497 1.499 . S
N493 Co476 1.989 . S
N493 C492 1.342 . S
N493 N494 1.388 . S
N494 Co477 1.993 . S
N494 N493 1.388 . S
N494 C495 1.346 . S
C495 N494 1.346 . S
C495 C496 1.396 . S
C495 C505 1.510 . S
C496 C492 1.401 . S
C496 C495 1.396 . S
C497 C492 1.499 . S
C497 H498 0.959 . S
C497 H499 0.960 . S
C497 H500 0.961 . S
H498 C497 0.959 . S
H499 C497 0.960 . S
H500 C497 0.961 . S
O501 Co476 1.967 . S
O501 C509 1.258 . S
O502 Co477 1.941 . S
O502 C509 1.266 . S
H503 C505 0.959 . S
H504 C505 0.961 . S
C505 C495 1.510 . S
C505 H503 0.959 . S
C505 H504 0.961 . S
C505 H506 0.960 . S
H506 C505 0.960 . S
H507 N487 0.862 . S
O508 Co476 1.920 . S
O508 C481 1.289 . S
C509 O501 1.258 . S
C509 O502 1.266 . S
Co510 O513 1.970 . S
Co510 N527 1.989 . S
Co510 O535 1.967 . S
Co510 O542 1.920 1_455 S
Co511 O514 1.966 . S
Co511 N520 2.022 1_545 S
Co511 N528 1.993 . S
Co511 O536 1.941 . S
C512 O513 1.258 . S
C512 O514 1.263 . S
O513 Co510 1.970 . S
O513 C512 1.258 . S
O514 Co511 1.966 . S
O514 C512 1.263 . S
C515 O516 1.235 . S
C515 O542 1.289 . S
O516 C515 1.235 . S
C517 C519 1.400 . S
C517 N520 1.351 . S
C517 C522 1.501 . S
C518 C519 1.387 . S
C518 N521 1.341 . S
C519 C517 1.400 . S
C519 C518 1.387 . S
N520 Co511 2.022 1_565 S
N520 C517 1.351 . S
N520 N521 1.365 . S
N521 C518 1.341 . S
N521 N520 1.365 . S
N521 H541 0.862 1_565 S
C522 C517 1.501 . S
C522 H523 0.961 . S
C522 H524 0.961 . S
C522 H525 0.960 . S
H523 C522 0.961 . S
H524 C522 0.961 . S
H525 C522 0.960 . S
C526 N527 1.342 1_655 S
C526 C530 1.401 1_655 S
C526 C531 1.499 . S
N527 Co510 1.989 . S
N527 C526 1.342 1_455 S
N527 N528 1.388 . S
N528 Co511 1.993 . S
N528 N527 1.388 . S
N528 C529 1.346 . S
C529 N528 1.346 . S
C529 C530 1.396 . S
C529 C539 1.510 1_545 S
C530 C526 1.401 1_455 S
C530 C529 1.396 . S
C531 C526 1.499 . S
C531 H532 0.959 . S
C531 H533 0.960 . S
C531 H534 0.961 . S
H532 C531 0.959 . S
H533 C531 0.960 . S
H534 C531 0.961 . S
O535 Co510 1.967 . S
O535 C543 1.258 . S
O536 Co511 1.941 . S
O536 C543 1.266 . S
H537 C539 0.959 . S
H538 C539 0.961 . S
C539 C529 1.510 1_565 S
C539 H537 0.959 . S
C539 H538 0.961 . S
C539 H540 0.960 . S
H540 C539 0.960 . S
H541 N521 0.862 1_545 S
O542 Co510 1.920 1_655 S
O542 C515 1.289 . S
C543 O535 1.258 . S
C543 O536 1.266 . S
Co544 O547 1.970 . S
Co544 N561 1.989 . S
Co544 O569 1.967 . S
Co544 O576 1.920 . S
Co545 O548 1.966 . S
Co545 N554 2.022 . S
Co545 N562 1.993 . S
Co545 O570 1.941 . S
C546 O547 1.258 . S
C546 O548 1.263 . S
O547 Co544 1.970 . S
O547 C546 1.258 . S
O548 Co545 1.966 . S
O548 C546 1.263 . S
C549 O550 1.235 . S
C549 O576 1.289 . S
O550 C549 1.235 . S
C551 C553 1.400 . S
C551 N554 1.351 . S
C551 C556 1.501 . S
C552 C553 1.387 . S
C552 N555 1.341 . S
C553 C551 1.400 . S
C553 C552 1.387 . S
N554 Co545 2.022 . S
N554 C551 1.351 . S
N554 N555 1.365 . S
N555 C552 1.341 . S
N555 N554 1.365 . S
N555 H575 0.862 . S
C556 C551 1.501 . S
C556 H557 0.961 . S
C556 H558 0.961 . S
C556 H559 0.960 . S
H557 C556 0.961 . S
H558 C556 0.961 . S
H559 C556 0.960 . S
C560 N561 1.342 . S
C560 C564 1.401 . S
C560 C565 1.499 . S
N561 Co544 1.989 . S
N561 C560 1.342 . S
N561 N562 1.388 . S
N562 Co545 1.993 . S
N562 N561 1.388 . S
N562 C563 1.346 . S
C563 N562 1.346 . S
C563 C564 1.396 . S
C563 C573 1.510 . S
C564 C560 1.401 . S
C564 C563 1.396 . S
C565 C560 1.499 . S
C565 H566 0.959 . S
C565 H567 0.960 . S
C565 H568 0.961 . S
H566 C565 0.959 . S
H567 C565 0.960 . S
H568 C565 0.961 . S
O569 Co544 1.967 . S
O569 C577 1.258 . S
O570 Co545 1.941 . S
O570 C577 1.266 . S
H571 C573 0.959 . S
H572 C573 0.961 . S
C573 C563 1.510 . S
C573 H571 0.959 . S
C573 H572 0.961 . S
C573 H574 0.960 . S
H574 C573 0.960 . S
H575 N555 0.862 . S
O576 Co544 1.920 . S
O576 C549 1.289 . S
C577 O569 1.258 . S
C577 O570 1.266 . S
Co578 O581 1.970 . S
Co578 N595 1.989 . S
Co578 O603 1.967 . S
Co578 O610 1.920 . S
Co579 O582 1.966 . S
Co579 N588 2.022 . S
Co579 N596 1.993 . S
Co579 O604 1.941 . S
C580 O581 1.258 . S
C580 O582 1.263 . S
O581 Co578 1.970 . S
O581 C580 1.258 . S
O582 Co579 1.966 . S
O582 C580 1.263 . S
C583 O584 1.235 . S
C583 O610 1.289 . S
O584 C583 1.235 . S
C585 C587 1.400 . S
C585 N588 1.351 . S
C585 C590 1.501 . S
C586 C587 1.387 . S
C586 N589 1.341 . S
C587 C585 1.400 . S
C587 C586 1.387 . S
N588 Co579 2.022 . S
N588 C585 1.351 . S
N588 N589 1.365 . S
N589 C586 1.341 . S
N589 N588 1.365 . S
N589 H609 0.862 . S
C590 C585 1.501 . S
C590 H591 0.961 . S
C590 H592 0.961 . S
C590 H593 0.960 . S
H591 C590 0.961 . S
H592 C590 0.961 . S
H593 C590 0.960 . S
C594 N595 1.342 . S
C594 C598 1.401 . S
C594 C599 1.499 . S
N595 Co578 1.989 . S
N595 C594 1.342 . S
N595 N596 1.388 . S
N596 Co579 1.993 . S
N596 N595 1.388 . S
N596 C597 1.346 . S
C597 N596 1.346 . S
C597 C598 1.396 . S
C597 C607 1.510 . S
C598 C594 1.401 . S
C598 C597 1.396 . S
C599 C594 1.499 . S
C599 H600 0.959 . S
C599 H601 0.960 . S
C599 H602 0.961 . S
H600 C599 0.959 . S
H601 C599 0.960 . S
H602 C599 0.961 . S
O603 Co578 1.967 . S
O603 C611 1.258 . S
O604 Co579 1.941 . S
O604 C611 1.266 . S
H605 C607 0.959 . S
H606 C607 0.961 . S
C607 C597 1.510 . S
C607 H605 0.959 . S
C607 H606 0.961 . S
C607 H608 0.960 . S
H608 C607 0.960 . S
H609 N589 0.862 . S
O610 Co578 1.920 . S
O610 C583 1.289 . S
C611 O603 1.258 . S
C611 O604 1.266 . S
Co612 O615 1.970 . S
Co612 N629 1.989 . S
Co612 O637 1.967 . S
Co612 O644 1.920 . S
Co613 O616 1.966 . S
Co613 N622 2.022 . S
Co613 N630 1.993 . S
Co613 O638 1.941 . S
C614 O615 1.258 . S
C614 O616 1.263 . S
O615 Co612 1.970 . S
O615 C614 1.258 . S
O616 Co613 1.966 . S
O616 C614 1.263 . S
C617 O618 1.235 . S
C617 O644 1.289 . S
O618 C617 1.235 . S
C619 C621 1.400 . S
C619 N622 1.351 . S
C619 C624 1.501 . S
C620 C621 1.387 . S
C620 N623 1.341 . S
C621 C619 1.400 . S
C621 C620 1.387 . S
N622 Co613 2.022 . S
N622 C619 1.351 . S
N622 N623 1.365 . S
N623 C620 1.341 . S
N623 N622 1.365 . S
N623 H643 0.862 . S
C624 C619 1.501 . S
C624 H625 0.961 . S
C624 H626 0.961 . S
C624 H627 0.960 . S
H625 C624 0.961 . S
H626 C624 0.961 . S
H627 C624 0.960 . S
C628 N629 1.342 . S
C628 C632 1.401 . S
C628 C633 1.499 . S
N629 Co612 1.989 . S
N629 C628 1.342 . S
N629 N630 1.388 . S
N630 Co613 1.993 . S
N630 N629 1.388 . S
N630 C631 1.346 . S
C631 N630 1.346 . S
C631 C632 1.396 . S
C631 C641 1.510 . S
C632 C628 1.401 . S
C632 C631 1.396 . S
C633 C628 1.499 . S
C633 H634 0.959 . S
C633 H635 0.960 . S
C633 H636 0.961 . S
H634 C633 0.959 . S
H635 C633 0.960 . S
H636 C633 0.961 . S
O637 Co612 1.967 . S
O637 C645 1.258 . S
O638 Co613 1.941 . S
O638 C645 1.266 . S
H639 C641 0.959 . S
H640 C641 0.961 . S
C641 C631 1.510 . S
C641 H639 0.959 . S
C641 H640 0.961 . S
C641 H642 0.960 . S
H642 C641 0.960 . S
H643 N623 0.862 . S
O644 Co612 1.920 . S
O644 C617 1.289 . S
C645 O637 1.258 . S
C645 O638 1.266 . S
Co646 O649 1.970 . S
Co646 N663 1.989 . S
Co646 O671 1.967 . S
Co646 O678 1.920 1_455 S
Co647 O650 1.966 . S
Co647 N656 2.022 . S
Co647 N664 1.993 . S
Co647 O672 1.941 . S
C648 O649 1.258 . S
C648 O650 1.263 . S
O649 Co646 1.970 . S
O649 C648 1.258 . S
O650 Co647 1.966 . S
O650 C648 1.263 . S
C651 O652 1.235 . S
C651 O678 1.289 . S
O652 C651 1.235 . S
C653 C655 1.400 . S
C653 N656 1.351 . S
C653 C658 1.501 . S
C654 C655 1.387 . S
C654 N657 1.341 . S
C655 C653 1.400 . S
C655 C654 1.387 . S
N656 Co647 2.022 . S
N656 C653 1.351 . S
N656 N657 1.365 . S
N657 C654 1.341 . S
N657 N656 1.365 . S
N657 H677 0.862 . S
C658 C653 1.501 . S
C658 H659 0.961 . S
C658 H660 0.961 . S
C658 H661 0.960 . S
H659 C658 0.961 . S
H660 C658 0.961 . S
H661 C658 0.960 . S
C662 N663 1.342 1_655 S
C662 C666 1.401 1_655 S
C662 C667 1.499 . S
N663 Co646 1.989 . S
N663 C662 1.342 1_455 S
N663 N664 1.388 . S
N664 Co647 1.993 . S
N664 N663 1.388 . S
N664 C665 1.346 . S
C665 N664 1.346 . S
C665 C666 1.396 . S
C665 C675 1.510 . S
C666 C662 1.401 1_455 S
C666 C665 1.396 . S
C667 C662 1.499 . S
C667 H668 0.959 . S
C667 H669 0.960 . S
C667 H670 0.961 . S
H668 C667 0.959 . S
H669 C667 0.960 . S
H670 C667 0.961 . S
O671 Co646 1.967 . S
O671 C679 1.258 . S
O672 Co647 1.941 . S
O672 C679 1.266 . S
H673 C675 0.959 . S
H674 C675 0.961 . S
C675 C665 1.510 . S
C675 H673 0.959 . S
C675 H674 0.961 . S
C675 H676 0.960 . S
H676 C675 0.960 . S
H677 N657 0.862 . S
O678 Co646 1.920 1_655 S
O678 C651 1.289 . S
C679 O671 1.258 . S
C679 O672 1.266 . S
Co680 O683 1.970 . S
Co680 N697 1.989 . S
Co680 O705 1.967 . S
Co680 O712 1.920 . S
Co681 O684 1.966 . S
Co681 N690 2.022 . S
Co681 N698 1.993 . S
Co681 O706 1.941 . S
C682 O683 1.258 . S
C682 O684 1.263 . S
O683 Co680 1.970 . S
O683 C682 1.258 . S
O684 Co681 1.966 . S
O684 C682 1.263 . S
C685 O686 1.235 . S
C685 O712 1.289 . S
O686 C685 1.235 . S
C687 C689 1.400 . S
C687 N690 1.351 . S
C687 C692 1.501 . S
C688 C689 1.387 . S
C688 N691 1.341 . S
C689 C687 1.400 . S
C689 C688 1.387 . S
N690 Co681 2.022 . S
N690 C687 1.351 . S
N690 N691 1.365 . S
N691 C688 1.341 . S
N691 N690 1.365 . S
N691 H711 0.862 . S
C692 C687 1.501 . S
C692 H693 0.961 . S
C692 H694 0.961 . S
C692 H695 0.960 . S
H693 C692 0.961 . S
H694 C692 0.961 . S
H695 C692 0.960 . S
C696 N697 1.342 . S
C696 C700 1.401 . S
C696 C701 1.499 . S
N697 Co680 1.989 . S
N697 C696 1.342 . S
N697 N698 1.388 . S
N698 Co681 1.993 . S
N698 N697 1.388 . S
N698 C699 1.346 . S
C699 N698 1.346 . S
C699 C700 1.396 . S
C699 C709 1.510 . S
C700 C696 1.401 . S
C700 C699 1.396 . S
C701 C696 1.499 . S
C701 H702 0.959 . S
C701 H703 0.960 . S
C701 H704 0.961 . S
H702 C701 0.959 . S
H703 C701 0.960 . S
H704 C701 0.961 . S
O705 Co680 1.967 . S
O705 C713 1.258 . S
O706 Co681 1.941 . S
O706 C713 1.266 . S
H707 C709 0.959 . S
H708 C709 0.961 . S
C709 C699 1.510 . S
C709 H707 0.959 . S
C709 H708 0.961 . S
C709 H710 0.960 . S
H710 C709 0.960 . S
H711 N691 0.862 . S
O712 Co680 1.920 . S
O712 C685 1.289 . S
C713 O705 1.258 . S
C713 O706 1.266 . S
Co714 O717 1.970 . S
Co714 N731 1.989 . S
Co714 O739 1.967 . S
Co714 O746 1.920 1_455 S
Co715 O718 1.966 . S
Co715 N724 2.022 . S
Co715 N732 1.993 . S
Co715 O740 1.941 . S
C716 O717 1.258 . S
C716 O718 1.263 . S
O717 Co714 1.970 . S
O717 C716 1.258 . S
O718 Co715 1.966 . S
O718 C716 1.263 . S
C719 O720 1.235 . S
C719 O746 1.289 . S
O720 C719 1.235 . S
C721 C723 1.400 . S
C721 N724 1.351 . S
C721 C726 1.501 . S
C722 C723 1.387 . S
C722 N725 1.341 . S
C723 C721 1.400 . S
C723 C722 1.387 . S
N724 Co715 2.022 . S
N724 C721 1.351 . S
N724 N725 1.365 . S
N725 C722 1.341 . S
N725 N724 1.365 . S
N725 H745 0.862 . S
C726 C721 1.501 . S
C726 H727 0.961 . S
C726 H728 0.961 . S
C726 H729 0.960 . S
H727 C726 0.961 . S
H728 C726 0.961 . S
H729 C726 0.960 . S
C730 N731 1.342 1_655 S
C730 C734 1.401 1_655 S
C730 C735 1.499 . S
N731 Co714 1.989 . S
N731 C730 1.342 1_455 S
N731 N732 1.388 . S
N732 Co715 1.993 . S
N732 N731 1.388 . S
N732 C733 1.346 . S
C733 N732 1.346 . S
C733 C734 1.396 . S
C733 C743 1.510 . S
C734 C730 1.401 1_455 S
C734 C733 1.396 . S
C735 C730 1.499 . S
C735 H736 0.959 . S
C735 H737 0.960 . S
C735 H738 0.961 . S
H736 C735 0.959 . S
H737 C735 0.960 . S
H738 C735 0.961 . S
O739 Co714 1.967 . S
O739 C747 1.258 . S
O740 Co715 1.941 . S
O740 C747 1.266 . S
H741 C743 0.959 . S
H742 C743 0.961 . S
C743 C733 1.510 . S
C743 H741 0.959 . S
C743 H742 0.961 . S
C743 H744 0.960 . S
H744 C743 0.960 . S
H745 N725 0.862 . S
O746 Co714 1.920 1_655 S
O746 C719 1.289 . S
C747 O739 1.258 . S
C747 O740 1.266 . S
Co748 O751 1.970 . S
Co748 N765 1.989 . S
Co748 O773 1.967 . S
Co748 O780 1.920 . S
Co749 O752 1.966 . S
Co749 N758 2.022 . S
Co749 N766 1.993 . S
Co749 O774 1.941 . S
C750 O751 1.258 . S
C750 O752 1.263 . S
O751 Co748 1.970 . S
O751 C750 1.258 . S
O752 Co749 1.966 . S
O752 C750 1.263 . S
C753 O754 1.235 . S
C753 O780 1.289 . S
O754 C753 1.235 . S
C755 C757 1.400 . S
C755 N758 1.351 . S
C755 C760 1.501 . S
C756 C757 1.387 . S
C756 N759 1.341 . S
C757 C755 1.400 . S
C757 C756 1.387 . S
N758 Co749 2.022 . S
N758 C755 1.351 . S
N758 N759 1.365 . S
N759 C756 1.341 . S
N759 N758 1.365 . S
N759 H779 0.862 . S
C760 C755 1.501 . S
C760 H761 0.961 . S
C760 H762 0.961 . S
C760 H763 0.960 . S
H761 C760 0.961 . S
H762 C760 0.961 . S
H763 C760 0.960 . S
C764 N765 1.342 . S
C764 C768 1.401 . S
C764 C769 1.499 . S
N765 Co748 1.989 . S
N765 C764 1.342 . S
N765 N766 1.388 . S
N766 Co749 1.993 . S
N766 N765 1.388 . S
N766 C767 1.346 . S
C767 N766 1.346 . S
C767 C768 1.396 . S
C767 C777 1.510 . S
C768 C764 1.401 . S
C768 C767 1.396 . S
C769 C764 1.499 . S
C769 H770 0.959 . S
C769 H771 0.960 . S
C769 H772 0.961 . S
H770 C769 0.959 . S
H771 C769 0.960 . S
H772 C769 0.961 . S
O773 Co748 1.967 . S
O773 C781 1.258 . S
O774 Co749 1.941 . S
O774 C781 1.266 . S
H775 C777 0.959 . S
H776 C777 0.961 . S
C777 C767 1.510 . S
C777 H775 0.959 . S
C777 H776 0.961 . S
C777 H778 0.960 . S
H778 C777 0.960 . S
H779 N759 0.862 . S
O780 Co748 1.920 . S
O780 C753 1.289 . S
C781 O773 1.258 . S
C781 O774 1.266 . S
Co782 O785 1.970 . S
Co782 N799 1.989 . S
Co782 O807 1.967 . S
Co782 O814 1.920 . S
Co783 O786 1.966 . S
Co783 N792 2.022 . S
Co783 N800 1.993 . S
Co783 O808 1.941 . S
C784 O785 1.258 . S
C784 O786 1.263 . S
O785 Co782 1.970 . S
O785 C784 1.258 . S
O786 Co783 1.966 . S
O786 C784 1.263 . S
C787 O788 1.235 . S
C787 O814 1.289 . S
O788 C787 1.235 . S
C789 C791 1.400 . S
C789 N792 1.351 . S
C789 C794 1.501 . S
C790 C791 1.387 . S
C790 N793 1.341 . S
C791 C789 1.400 . S
C791 C790 1.387 . S
N792 Co783 2.022 . S
N792 C789 1.351 . S
N792 N793 1.365 . S
N793 C790 1.341 . S
N793 N792 1.365 . S
N793 H813 0.862 . S
C794 C789 1.501 . S
C794 H795 0.961 . S
C794 H796 0.961 . S
C794 H797 0.960 . S
H795 C794 0.961 . S
H796 C794 0.961 . S
H797 C794 0.960 . S
C798 N799 1.342 . S
C798 C802 1.401 . S
C798 C803 1.499 . S
N799 Co782 1.989 . S
N799 C798 1.342 . S
N799 N800 1.388 . S
N800 Co783 1.993 . S
N800 N799 1.388 . S
N800 C801 1.346 . S
C801 N800 1.346 . S
C801 C802 1.396 . S
C801 C811 1.510 . S
C802 C798 1.401 . S
C802 C801 1.396 . S
C803 C798 1.499 . S
C803 H804 0.959 . S
C803 H805 0.960 . S
C803 H806 0.961 . S
H804 C803 0.959 . S
H805 C803 0.960 . S
H806 C803 0.961 . S
O807 Co782 1.967 . S
O807 C815 1.258 . S
O808 Co783 1.941 . S
O808 C815 1.266 . S
H809 C811 0.959 . S
H810 C811 0.961 . S
C811 C801 1.510 . S
C811 H809 0.959 . S
C811 H810 0.961 . S
C811 H812 0.960 . S
H812 C811 0.960 . S
H813 N793 0.862 . S
O814 Co782 1.920 . S
O814 C787 1.289 . S
C815 O807 1.258 . S
C815 O808 1.266 . S
Co816 O819 1.970 . S
Co816 N833 1.989 . S
Co816 O841 1.967 . S
Co816 O848 1.920 . S
Co817 O820 1.966 . S
Co817 N826 2.022 . S
Co817 N834 1.993 . S
Co817 O842 1.941 . S
C818 O819 1.258 . S
C818 O820 1.263 . S
O819 Co816 1.970 . S
O819 C818 1.258 . S
O820 Co817 1.966 . S
O820 C818 1.263 . S
C821 O822 1.235 . S
C821 O848 1.289 . S
O822 C821 1.235 . S
C823 C825 1.400 . S
C823 N826 1.351 . S
C823 C828 1.501 . S
C824 C825 1.387 . S
C824 N827 1.341 . S
C825 C823 1.400 . S
C825 C824 1.387 . S
N826 Co817 2.022 . S
N826 C823 1.351 . S
N826 N827 1.365 . S
N827 C824 1.341 . S
N827 N826 1.365 . S
N827 H847 0.862 . S
C828 C823 1.501 . S
C828 H829 0.961 . S
C828 H830 0.961 . S
C828 H831 0.960 . S
H829 C828 0.961 . S
H830 C828 0.961 . S
H831 C828 0.960 . S
C832 N833 1.342 . S
C832 C836 1.401 . S
C832 C837 1.499 . S
N833 Co816 1.989 . S
N833 C832 1.342 . S
N833 N834 1.388 . S
N834 Co817 1.993 . S
N834 N833 1.388 . S
N834 C835 1.346 . S
C835 N834 1.346 . S
C835 C836 1.396 . S
C835 C845 1.510 . S
C836 C832 1.401 . S
C836 C835 1.396 . S
C837 C832 1.499 . S
C837 H838 0.959 . S
C837 H839 0.960 . S
C837 H840 0.961 . S
H838 C837 0.959 . S
H839 C837 0.960 . S
H840 C837 0.961 . S
O841 Co816 1.967 . S
O841 C849 1.258 . S
O842 Co817 1.941 . S
O842 C849 1.266 . S
H843 C845 0.959 . S
H844 C845 0.961 . S
C845 C835 1.510 . S
C845 H843 0.959 . S
C845 H844 0.961 . S
C845 H846 0.960 . S
H846 C845 0.960 . S
H847 N827 0.862 . S
O848 Co816 1.920 . S
O848 C821 1.289 . S
C849 O841 1.258 . S
C849 O842 1.266 . S
Co850 O853 1.970 . S
Co850 N867 1.989 . S
Co850 O875 1.967 . S
Co850 O882 1.920 . S
Co851 O854 1.966 . S
Co851 N860 2.022 . S
Co851 N868 1.993 . S
Co851 O876 1.941 . S
C852 O853 1.258 . S
C852 O854 1.263 . S
O853 Co850 1.970 . S
O853 C852 1.258 . S
O854 Co851 1.966 . S
O854 C852 1.263 . S
C855 O856 1.235 . S
C855 O882 1.289 . S
O856 C855 1.235 . S
C857 C859 1.400 . S
C857 N860 1.351 . S
C857 C862 1.501 . S
C858 C859 1.387 . S
C858 N861 1.341 . S
C859 C857 1.400 . S
C859 C858 1.387 . S
N860 Co851 2.022 . S
N860 C857 1.351 . S
N860 N861 1.365 . S
N861 C858 1.341 . S
N861 N860 1.365 . S
N861 H881 0.862 . S
C862 C857 1.501 . S
C862 H863 0.961 . S
C862 H864 0.961 . S
C862 H865 0.960 . S
H863 C862 0.961 . S
H864 C862 0.961 . S
H865 C862 0.960 . S
C866 N867 1.342 . S
C866 C870 1.401 . S
C866 C871 1.499 . S
N867 Co850 1.989 . S
N867 C866 1.342 . S
N867 N868 1.388 . S
N868 Co851 1.993 . S
N868 N867 1.388 . S
N868 C869 1.346 . S
C869 N868 1.346 . S
C869 C870 1.396 . S
C869 C879 1.510 . S
C870 C866 1.401 . S
C870 C869 1.396 . S
C871 C866 1.499 . S
C871 H872 0.959 . S
C871 H873 0.960 . S
C871 H874 0.961 . S
H872 C871 0.959 . S
H873 C871 0.960 . S
H874 C871 0.961 . S
O875 Co850 1.967 . S
O875 C883 1.258 . S
O876 Co851 1.941 . S
O876 C883 1.266 . S
H877 C879 0.959 . S
H878 C879 0.961 . S
C879 C869 1.510 . S
C879 H877 0.959 . S
C879 H878 0.961 . S
C879 H880 0.960 . S
H880 C879 0.960 . S
H881 N861 0.862 . S
O882 Co850 1.920 . S
O882 C855 1.289 . S
C883 O875 1.258 . S
C883 O876 1.266 . S
Co884 O887 1.970 . S
Co884 N901 1.989 . S
Co884 O909 1.967 . S
Co884 O916 1.920 . S
Co885 O888 1.966 . S
Co885 N894 2.022 . S
Co885 N902 1.993 . S
Co885 O910 1.941 . S
C886 O887 1.258 . S
C886 O888 1.263 . S
O887 Co884 1.970 . S
O887 C886 1.258 . S
O888 Co885 1.966 . S
O888 C886 1.263 . S
C889 O890 1.235 . S
C889 O916 1.289 . S
O890 C889 1.235 . S
C891 C893 1.400 . S
C891 N894 1.351 . S
C891 C896 1.501 . S
C892 C893 1.387 . S
C892 N895 1.341 . S
C893 C891 1.400 . S
C893 C892 1.387 . S
N894 Co885 2.022 . S
N894 C891 1.351 . S
N894 N895 1.365 . S
N895 C892 1.341 . S
N895 N894 1.365 . S
N895 H915 0.862 . S
C896 C891 1.501 . S
C896 H897 0.961 . S
C896 H898 0.961 . S
C896 H899 0.960 . S
H897 C896 0.961 . S
H898 C896 0.961 . S
H899 C896 0.960 . S
C900 N901 1.342 . S
C900 C904 1.401 . S
C900 C905 1.499 . S
N901 Co884 1.989 . S
N901 C900 1.342 . S
N901 N902 1.388 . S
N902 Co885 1.993 . S
N902 N901 1.388 . S
N902 C903 1.346 . S
C903 N902 1.346 . S
C903 C904 1.396 . S
C903 C913 1.510 . S
C904 C900 1.401 . S
C904 C903 1.396 . S
C905 C900 1.499 . S
C905 H906 0.959 . S
C905 H907 0.960 . S
C905 H908 0.961 . S
H906 C905 0.959 . S
H907 C905 0.960 . S
H908 C905 0.961 . S
O909 Co884 1.967 . S
O909 C917 1.258 . S
O910 Co885 1.941 . S
O910 C917 1.266 . S
H911 C913 0.959 . S
H912 C913 0.961 . S
C913 C903 1.510 . S
C913 H911 0.959 . S
C913 H912 0.961 . S
C913 H914 0.960 . S
H914 C913 0.960 . S
H915 N895 0.862 . S
O916 Co884 1.920 . S
O916 C889 1.289 . S
C917 O909 1.258 . S
C917 O910 1.266 . S
Co918 O921 1.970 . S
Co918 N935 1.989 . S
Co918 O943 1.967 . S
Co918 O950 1.920 1_655 S
Co919 O922 1.966 . S
Co919 N928 2.022 . S
Co919 N936 1.993 . S
Co919 O944 1.941 . S
C920 O921 1.258 . S
C920 O922 1.263 . S
O921 Co918 1.970 . S
O921 C920 1.258 . S
O922 Co919 1.966 . S
O922 C920 1.263 . S
C923 O924 1.235 . S
C923 O950 1.289 . S
O924 C923 1.235 . S
C925 C927 1.400 . S
C925 N928 1.351 . S
C925 C930 1.501 . S
C926 C927 1.387 . S
C926 N929 1.341 . S
C927 C925 1.400 . S
C927 C926 1.387 . S
N928 Co919 2.022 . S
N928 C925 1.351 . S
N928 N929 1.365 . S
N929 C926 1.341 . S
N929 N928 1.365 . S
N929 H949 0.862 . S
C930 C925 1.501 . S
C930 H931 0.961 . S
C930 H932 0.961 . S
C930 H933 0.960 . S
H931 C930 0.961 . S
H932 C930 0.961 . S
H933 C930 0.960 . S
C934 N935 1.342 1_455 S
C934 C938 1.401 1_455 S
C934 C939 1.499 . S
N935 Co918 1.989 . S
N935 C934 1.342 1_655 S
N935 N936 1.388 . S
N936 Co919 1.993 . S
N936 N935 1.388 . S
N936 C937 1.346 . S
C937 N936 1.346 . S
C937 C938 1.396 . S
C937 C947 1.510 . S
C938 C934 1.401 1_655 S
C938 C937 1.396 . S
C939 C934 1.499 . S
C939 H940 0.959 . S
C939 H941 0.960 . S
C939 H942 0.961 . S
H940 C939 0.959 . S
H941 C939 0.960 . S
H942 C939 0.961 . S
O943 Co918 1.967 . S
O943 C951 1.258 . S
O944 Co919 1.941 . S
O944 C951 1.266 . S
H945 C947 0.959 . S
H946 C947 0.961 . S
C947 C937 1.510 . S
C947 H945 0.959 . S
C947 H946 0.961 . S
C947 H948 0.960 . S
H948 C947 0.960 . S
H949 N929 0.862 . S
O950 Co918 1.920 1_455 S
O950 C923 1.289 . S
C951 O943 1.258 . S
C951 O944 1.266 . S
Co952 O955 1.970 . S
Co952 N969 1.989 . S
Co952 O977 1.967 . S
Co952 O984 1.920 . S
Co953 O956 1.966 . S
Co953 N962 2.022 . S
Co953 N970 1.993 . S
Co953 O978 1.941 . S
C954 O955 1.258 . S
C954 O956 1.263 . S
O955 Co952 1.970 . S
O955 C954 1.258 . S
O956 Co953 1.966 . S
O956 C954 1.263 . S
C957 O958 1.235 . S
C957 O984 1.289 . S
O958 C957 1.235 . S
C959 C961 1.400 . S
C959 N962 1.351 . S
C959 C964 1.501 . S
C960 C961 1.387 . S
C960 N963 1.341 . S
C961 C959 1.400 . S
C961 C960 1.387 . S
N962 Co953 2.022 . S
N962 C959 1.351 . S
N962 N963 1.365 . S
N963 C960 1.341 . S
N963 N962 1.365 . S
N963 H983 0.862 . S
C964 C959 1.501 . S
C964 H965 0.961 . S
C964 H966 0.961 . S
C964 H967 0.960 . S
H965 C964 0.961 . S
H966 C964 0.961 . S
H967 C964 0.960 . S
C968 N969 1.342 . S
C968 C972 1.401 . S
C968 C973 1.499 . S
N969 Co952 1.989 . S
N969 C968 1.342 . S
N969 N970 1.388 . S
N970 Co953 1.993 . S
N970 N969 1.388 . S
N970 C971 1.346 . S
C971 N970 1.346 . S
C971 C972 1.396 . S
C971 C981 1.510 . S
C972 C968 1.401 . S
C972 C971 1.396 . S
C973 C968 1.499 . S
C973 H974 0.959 . S
C973 H975 0.960 . S
C973 H976 0.961 . S
H974 C973 0.959 . S
H975 C973 0.960 . S
H976 C973 0.961 . S
O977 Co952 1.967 . S
O977 C985 1.258 . S
O978 Co953 1.941 . S
O978 C985 1.266 . S
H979 C981 0.959 . S
H980 C981 0.961 . S
C981 C971 1.510 . S
C981 H979 0.959 . S
C981 H980 0.961 . S
C981 H982 0.960 . S
H982 C981 0.960 . S
H983 N963 0.862 . S
O984 Co952 1.920 . S
O984 C957 1.289 . S
C985 O977 1.258 . S
C985 O978 1.266 . S
Co986 O989 1.970 . S
Co986 N1003 1.989 . S
Co986 O1011 1.967 . S
Co986 O1018 1.920 1_655 S
Co987 O990 1.966 . S
Co987 N996 2.022 . S
Co987 N1004 1.993 . S
Co987 O1012 1.941 . S
C988 O989 1.258 . S
C988 O990 1.263 . S
O989 Co986 1.970 . S
O989 C988 1.258 . S
O990 Co987 1.966 . S
O990 C988 1.263 . S
C991 O992 1.235 . S
C991 O1018 1.289 . S
O992 C991 1.235 . S
C993 C995 1.400 . S
C993 N996 1.351 . S
C993 C998 1.501 . S
C994 C995 1.387 . S
C994 N997 1.341 . S
C995 C993 1.400 . S
C995 C994 1.387 . S
N996 Co987 2.022 . S
N996 C993 1.351 . S
N996 N997 1.365 . S
N997 C994 1.341 . S
N997 N996 1.365 . S
N997 H1017 0.862 . S
C998 C993 1.501 . S
C998 H999 0.961 . S
C998 H1000 0.961 . S
C998 H1001 0.960 . S
H999 C998 0.961 . S
H1000 C998 0.961 . S
H1001 C998 0.960 . S
C1002 N1003 1.342 1_455 S
C1002 C1006 1.401 1_455 S
C1002 C1007 1.499 . S
N1003 Co986 1.989 . S
N1003 C1002 1.342 1_655 S
N1003 N1004 1.388 . S
N1004 Co987 1.993 . S
N1004 N1003 1.388 . S
N1004 C1005 1.346 . S
C1005 N1004 1.346 . S
C1005 C1006 1.396 . S
C1005 C1015 1.510 . S
C1006 C1002 1.401 1_655 S
C1006 C1005 1.396 . S
C1007 C1002 1.499 . S
C1007 H1008 0.959 . S
C1007 H1009 0.960 . S
C1007 H1010 0.961 . S
H1008 C1007 0.959 . S
H1009 C1007 0.960 . S
H1010 C1007 0.961 . S
O1011 Co986 1.967 . S
O1011 C1019 1.258 . S
O1012 Co987 1.941 . S
O1012 C1019 1.266 . S
H1013 C1015 0.959 . S
H1014 C1015 0.961 . S
C1015 C1005 1.510 . S
C1015 H1013 0.959 . S
C1015 H1014 0.961 . S
C1015 H1016 0.960 . S
H1016 C1015 0.960 . S
H1017 N997 0.862 . S
O1018 Co986 1.920 1_455 S
O1018 C991 1.289 . S
C1019 O1011 1.258 . S
C1019 O1012 1.266 . S
Co1020 O1023 1.970 . S
Co1020 N1037 1.989 . S
Co1020 O1045 1.967 . S
Co1020 O1052 1.920 . S
Co1021 O1024 1.966 . S
Co1021 N1030 2.022 . S
Co1021 N1038 1.993 . S
Co1021 O1046 1.941 . S
C1022 O1023 1.258 . S
C1022 O1024 1.263 . S
O1023 Co1020 1.970 . S
O1023 C1022 1.258 . S
O1024 Co1021 1.966 . S
O1024 C1022 1.263 . S
C1025 O1026 1.235 . S
C1025 O1052 1.289 . S
O1026 C1025 1.235 . S
C1027 C1029 1.400 . S
C1027 N1030 1.351 . S
C1027 C1032 1.501 . S
C1028 C1029 1.387 . S
C1028 N1031 1.341 . S
C1029 C1027 1.400 . S
C1029 C1028 1.387 . S
N1030 Co1021 2.022 . S
N1030 C1027 1.351 . S
N1030 N1031 1.365 . S
N1031 C1028 1.341 . S
N1031 N1030 1.365 . S
N1031 H1051 0.862 . S
C1032 C1027 1.501 . S
C1032 H1033 0.961 . S
C1032 H1034 0.961 . S
C1032 H1035 0.960 . S
H1033 C1032 0.961 . S
H1034 C1032 0.961 . S
H1035 C1032 0.960 . S
C1036 N1037 1.342 . S
C1036 C1040 1.401 . S
C1036 C1041 1.499 . S
N1037 Co1020 1.989 . S
N1037 C1036 1.342 . S
N1037 N1038 1.388 . S
N1038 Co1021 1.993 . S
N1038 N1037 1.388 . S
N1038 C1039 1.346 . S
C1039 N1038 1.346 . S
C1039 C1040 1.396 . S
C1039 C1049 1.510 . S
C1040 C1036 1.401 . S
C1040 C1039 1.396 . S
C1041 C1036 1.499 . S
C1041 H1042 0.959 . S
C1041 H1043 0.960 . S
C1041 H1044 0.961 . S
H1042 C1041 0.959 . S
H1043 C1041 0.960 . S
H1044 C1041 0.961 . S
O1045 Co1020 1.967 . S
O1045 C1053 1.258 . S
O1046 Co1021 1.941 . S
O1046 C1053 1.266 . S
H1047 C1049 0.959 . S
H1048 C1049 0.961 . S
C1049 C1039 1.510 . S
C1049 H1047 0.959 . S
C1049 H1048 0.961 . S
C1049 H1050 0.960 . S
H1050 C1049 0.960 . S
H1051 N1031 0.862 . S
O1052 Co1020 1.920 . S
O1052 C1025 1.289 . S
C1053 O1045 1.258 . S
C1053 O1046 1.266 . S
Co1054 O1057 1.970 . S
Co1054 N1071 1.989 . S
Co1054 O1079 1.967 . S
Co1054 O1086 1.920 . S
Co1055 O1058 1.966 . S
Co1055 N1064 2.022 . S
Co1055 N1072 1.993 . S
Co1055 O1080 1.941 . S
C1056 O1057 1.258 . S
C1056 O1058 1.263 . S
O1057 Co1054 1.970 . S
O1057 C1056 1.258 . S
O1058 Co1055 1.966 . S
O1058 C1056 1.263 . S
C1059 O1060 1.235 . S
C1059 O1086 1.289 . S
O1060 C1059 1.235 . S
C1061 C1063 1.400 . S
C1061 N1064 1.351 . S
C1061 C1066 1.501 . S
C1062 C1063 1.387 . S
C1062 N1065 1.341 . S
C1063 C1061 1.400 . S
C1063 C1062 1.387 . S
N1064 Co1055 2.022 . S
N1064 C1061 1.351 . S
N1064 N1065 1.365 . S
N1065 C1062 1.341 . S
N1065 N1064 1.365 . S
N1065 H1085 0.862 . S
C1066 C1061 1.501 . S
C1066 H1067 0.961 . S
C1066 H1068 0.961 . S
C1066 H1069 0.960 . S
H1067 C1066 0.961 . S
H1068 C1066 0.961 . S
H1069 C1066 0.960 . S
C1070 N1071 1.342 . S
C1070 C1074 1.401 . S
C1070 C1075 1.499 . S
N1071 Co1054 1.989 . S
N1071 C1070 1.342 . S
N1071 N1072 1.388 . S
N1072 Co1055 1.993 . S
N1072 N1071 1.388 . S
N1072 C1073 1.346 . S
C1073 N1072 1.346 . S
C1073 C1074 1.396 . S
C1073 C1083 1.510 . S
C1074 C1070 1.401 . S
C1074 C1073 1.396 . S
C1075 C1070 1.499 . S
C1075 H1076 0.959 . S
C1075 H1077 0.960 . S
C1075 H1078 0.961 . S
H1076 C1075 0.959 . S
H1077 C1075 0.960 . S
H1078 C1075 0.961 . S
O1079 Co1054 1.967 . S
O1079 C1087 1.258 . S
O1080 Co1055 1.941 . S
O1080 C1087 1.266 . S
H1081 C1083 0.959 . S
H1082 C1083 0.961 . S
C1083 C1073 1.510 . S
C1083 H1081 0.959 . S
C1083 H1082 0.961 . S
C1083 H1084 0.960 . S
H1084 C1083 0.960 . S
H1085 N1065 0.862 . S
O1086 Co1054 1.920 . S
O1086 C1059 1.289 . S
C1087 O1079 1.258 . S
C1087 O1080 1.266 . S
C1088 C1089 1.363 . S
C1088 C1094 1.379 . S
C1088 N1096 1.356 . S
C1089 C1088 1.363 . S
C1089 C1095 1.363 . S
C1090 C1091 1.363 . S
C1090 C1095 1.379 . S
C1090 N1097 1.356 . S
C1091 C1090 1.363 . S
C1091 C1094 1.363 . S
N1092 C1094 1.356 . S
N1092 H1104 0.984 . S
N1092 H1105 0.985 . S
N1093 C1095 1.356 . S
N1093 H1098 0.984 . S
N1093 H1099 0.985 . S
C1094 C1088 1.379 . S
C1094 C1091 1.363 . S
C1094 N1092 1.356 . S
C1095 C1089 1.363 . S
C1095 C1090 1.379 . S
C1095 N1093 1.356 . S
N1096 C1088 1.356 . S
N1096 H1102 0.984 . S
N1096 H1103 0.984 . S
N1097 C1090 1.356 . S
N1097 H1100 0.984 . S
N1097 H1101 0.985 . S
H1098 N1093 0.984 . S
H1099 N1093 0.985 . S
H1100 N1097 0.984 . S
H1101 N1097 0.985 . S
H1102 N1096 0.984 . S
H1103 N1096 0.984 . S
H1104 N1092 0.984 . S
H1105 N1092 0.985 . S
C1106 C1107 1.363 1_545 S
C1106 C1112 1.379 . S
C1106 N1114 1.356 . S
C1107 C1106 1.363 1_565 S
C1107 C1113 1.363 1_455 S
C1108 C1109 1.363 1_565 S
C1108 C1113 1.379 . S
C1108 N1115 1.356 . S
C1109 C1108 1.363 1_545 S
C1109 C1112 1.363 1_655 S
N1110 C1112 1.356 . S
N1110 H1122 0.984 . S
N1110 H1123 0.985 . S
N1111 C1113 1.356 . S
N1111 H1116 0.984 . S
N1111 H1117 0.985 . S
C1112 C1106 1.379 . S
C1112 C1109 1.363 1_455 S
C1112 N1110 1.356 . S
C1113 C1107 1.363 1_655 S
C1113 C1108 1.379 . S
C1113 N1111 1.356 . S
N1114 C1106 1.356 . S
N1114 H1120 0.984 . S
N1114 H1121 0.984 . S
N1115 C1108 1.356 . S
N1115 H1118 0.984 . S
N1115 H1119 0.985 . S
H1116 N1111 0.984 . S
H1117 N1111 0.985 . S
H1118 N1115 0.984 . S
H1119 N1115 0.985 . S
H1120 N1114 0.984 . S
H1121 N1114 0.984 . S
H1122 N1110 0.984 . S
H1123 N1110 0.985 . S
C1124 C1125 1.363 . S
C1124 C1130 1.379 . S
C1124 N1132 1.356 . S
C1125 C1124 1.363 . S
C1125 C1131 1.363 . S
C1126 C1127 1.363 . S
C1126 C1131 1.379 . S
C1126 N1133 1.356 . S
C1127 C1126 1.363 . S
C1127 C1130 1.363 . S
N1128 C1130 1.356 . S
N1128 H1140 0.984 . S
N1128 H1141 0.985 . S
N1129 C1131 1.356 . S
N1129 H1134 0.984 . S
N1129 H1135 0.985 . S
C1130 C1124 1.379 . S
C1130 C1127 1.363 . S
C1130 N1128 1.356 . S
C1131 C1125 1.363 . S
C1131 C1126 1.379 . S
C1131 N1129 1.356 . S
N1132 C1124 1.356 . S
N1132 H1138 0.984 . S
N1132 H1139 0.984 . S
N1133 C1126 1.356 . S
N1133 H1136 0.984 . S
N1133 H1137 0.985 . S
H1134 N1129 0.984 . S
H1135 N1129 0.985 . S
H1136 N1133 0.984 . S
H1137 N1133 0.985 . S
H1138 N1132 0.984 . S
H1139 N1132 0.984 . S
H1140 N1128 0.984 . S
H1141 N1128 0.985 . S
C1142 C1143 1.363 . S
C1142 C1148 1.379 1_554 S
C1142 N1150 1.356 . S
C1143 C1142 1.363 . S
C1143 C1149 1.363 1_545 S
C1144 C1145 1.363 . S
C1144 C1149 1.379 1_556 S
C1144 N1151 1.356 . S
C1145 C1144 1.363 . S
C1145 C1148 1.363 1_565 S
N1146 C1148 1.356 . S
N1146 H1158 0.984 . S
N1146 H1159 0.985 . S
N1147 C1149 1.356 . S
N1147 H1152 0.984 . S
N1147 H1153 0.985 . S
C1148 C1142 1.379 1_556 S
C1148 C1145 1.363 1_545 S
C1148 N1146 1.356 . S
C1149 C1143 1.363 1_565 S
C1149 C1144 1.379 1_554 S
C1149 N1147 1.356 . S
N1150 C1142 1.356 . S
N1150 H1156 0.984 . S
N1150 H1157 0.984 . S
N1151 C1144 1.356 . S
N1151 H1154 0.984 . S
N1151 H1155 0.985 . S
H1152 N1147 0.984 . S
H1153 N1147 0.985 . S
H1154 N1151 0.984 . S
H1155 N1151 0.985 . S
H1156 N1150 0.984 . S
H1157 N1150 0.984 . S
H1158 N1146 0.984 . S
H1159 N1146 0.985 . S
C1160 C1161 1.363 . S
C1160 C1166 1.379 . S
C1160 N1168 1.356 . S
C1161 C1160 1.363 . S
C1161 C1167 1.363 . S
C1162 C1163 1.363 . S
C1162 C1167 1.379 . S
C1162 N1169 1.356 . S
C1163 C1162 1.363 . S
C1163 C1166 1.363 . S
N1164 C1166 1.356 . S
N1164 H1176 0.984 . S
N1164 H1177 0.985 . S
N1165 C1167 1.356 . S
N1165 H1170 0.984 . S
N1165 H1171 0.985 . S
C1166 C1160 1.379 . S
C1166 C1163 1.363 . S
C1166 N1164 1.356 . S
C1167 C1161 1.363 . S
C1167 C1162 1.379 . S
C1167 N1165 1.356 . S
N1168 C1160 1.356 . S
N1168 H1174 0.984 . S
N1168 H1175 0.984 . S
N1169 C1162 1.356 . S
N1169 H1172 0.984 . S
N1169 H1173 0.985 . S
H1170 N1165 0.984 . S
H1171 N1165 0.985 . S
H1172 N1169 0.984 . S
H1173 N1169 0.985 . S
H1174 N1168 0.984 . S
H1175 N1168 0.984 . S
H1176 N1164 0.984 . S
H1177 N1164 0.985 . S
C1178 C1179 1.363 1_545 S
C1178 C1184 1.379 . S
C1178 N1186 1.356 . S
C1179 C1178 1.363 1_565 S
C1179 C1185 1.363 . S
C1180 C1181 1.363 1_565 S
C1180 C1185 1.379 . S
C1180 N1187 1.356 . S
C1181 C1180 1.363 1_545 S
C1181 C1184 1.363 . S
N1182 C1184 1.356 . S
N1182 H1194 0.984 . S
N1182 H1195 0.985 . S
N1183 C1185 1.356 . S
N1183 H1188 0.984 . S
N1183 H1189 0.985 . S
C1184 C1178 1.379 . S
C1184 C1181 1.363 . S
C1184 N1182 1.356 . S
C1185 C1179 1.363 . S
C1185 C1180 1.379 . S
C1185 N1183 1.356 . S
N1186 C1178 1.356 . S
N1186 H1192 0.984 . S
N1186 H1193 0.984 . S
N1187 C1180 1.356 . S
N1187 H1190 0.984 . S
N1187 H1191 0.985 . S
H1188 N1183 0.984 . S
H1189 N1183 0.985 . S
H1190 N1187 0.984 . S
H1191 N1187 0.985 . S
H1192 N1186 0.984 . S
H1193 N1186 0.984 . S
H1194 N1182 0.984 . S
H1195 N1182 0.985 . S
C1196 C1197 1.363 . S
C1196 C1202 1.379 . S
C1196 N1204 1.356 . S
C1197 C1196 1.363 . S
C1197 C1203 1.363 . S
C1198 C1199 1.363 . S
C1198 C1203 1.379 . S
C1198 N1205 1.356 . S
C1199 C1198 1.363 . S
C1199 C1202 1.363 . S
N1200 C1202 1.356 . S
N1200 H1212 0.984 . S
N1200 H1213 0.985 . S
N1201 C1203 1.356 . S
N1201 H1206 0.984 . S
N1201 H1207 0.985 . S
C1202 C1196 1.379 . S
C1202 C1199 1.363 . S
C1202 N1200 1.356 . S
C1203 C1197 1.363 . S
C1203 C1198 1.379 . S
C1203 N1201 1.356 . S
N1204 C1196 1.356 . S
N1204 H1210 0.984 . S
N1204 H1211 0.984 . S
N1205 C1198 1.356 . S
N1205 H1208 0.984 . S
N1205 H1209 0.985 . S
H1206 N1201 0.984 . S
H1207 N1201 0.985 . S
H1208 N1205 0.984 . S
H1209 N1205 0.985 . S
H1210 N1204 0.984 . S
H1211 N1204 0.984 . S
H1212 N1200 0.984 . S
H1213 N1200 0.985 . S
C1214 C1215 1.363 . S
C1214 C1220 1.379 1_556 S
C1214 N1222 1.356 . S
C1215 C1214 1.363 . S
C1215 C1221 1.363 1_445 S
C1216 C1217 1.363 . S
C1216 C1221 1.379 1_554 S
C1216 N1223 1.356 . S
C1217 C1216 1.363 . S
C1217 C1220 1.363 1_665 S
N1218 C1220 1.356 . S
N1218 H1230 0.984 . S
N1218 H1231 0.985 . S
N1219 C1221 1.356 . S
N1219 H1224 0.984 . S
N1219 H1225 0.985 . S
C1220 C1214 1.379 1_554 S
C1220 C1217 1.363 1_445 S
C1220 N1218 1.356 . S
C1221 C1215 1.363 1_665 S
C1221 C1216 1.379 1_556 S
C1221 N1219 1.356 . S
N1222 C1214 1.356 . S
N1222 H1228 0.984 . S
N1222 H1229 0.984 . S
N1223 C1216 1.356 . S
N1223 H1226 0.984 . S
N1223 H1227 0.985 . S
H1224 N1219 0.984 . S
H1225 N1219 0.985 . S
H1226 N1223 0.984 . S
H1227 N1223 0.985 . S
H1228 N1222 0.984 . S
H1229 N1222 0.984 . S
H1230 N1218 0.984 . S
H1231 N1218 0.985 . S
C1232 C1233 1.363 . S
C1232 C1238 1.379 . S
C1232 N1240 1.356 . S
C1233 C1232 1.363 . S
C1233 C1239 1.363 . S
C1234 C1235 1.363 . S
C1234 C1239 1.379 . S
C1234 N1241 1.356 . S
C1235 C1234 1.363 . S
C1235 C1238 1.363 . S
N1236 C1238 1.356 . S
N1236 H1248 0.984 . S
N1236 H1249 0.985 . S
N1237 C1239 1.356 . S
N1237 H1242 0.984 . S
N1237 H1243 0.985 . S
C1238 C1232 1.379 . S
C1238 C1235 1.363 . S
C1238 N1236 1.356 . S
C1239 C1233 1.363 . S
C1239 C1234 1.379 . S
C1239 N1237 1.356 . S
N1240 C1232 1.356 . S
N1240 H1246 0.984 . S
N1240 H1247 0.984 . S
N1241 C1234 1.356 . S
N1241 H1244 0.984 . S
N1241 H1245 0.985 . S
H1242 N1237 0.984 . S
H1243 N1237 0.985 . S
H1244 N1241 0.984 . S
H1245 N1241 0.985 . S
H1246 N1240 0.984 . S
H1247 N1240 0.984 . S
H1248 N1236 0.984 . S
H1249 N1236 0.985 . S
C1250 C1251 1.363 . S
C1250 C1256 1.379 . S
C1250 N1258 1.356 . S
C1251 C1250 1.363 . S
C1251 C1257 1.363 . S
C1252 C1253 1.363 . S
C1252 C1257 1.379 . S
C1252 N1259 1.356 . S
C1253 C1252 1.363 . S
C1253 C1256 1.363 . S
N1254 C1256 1.356 . S
N1254 H1266 0.984 . S
N1254 H1267 0.985 . S
N1255 C1257 1.356 . S
N1255 H1260 0.984 . S
N1255 H1261 0.985 . S
C1256 C1250 1.379 . S
C1256 C1253 1.363 . S
C1256 N1254 1.356 . S
C1257 C1251 1.363 . S
C1257 C1252 1.379 . S
C1257 N1255 1.356 . S
N1258 C1250 1.356 . S
N1258 H1264 0.984 . S
N1258 H1265 0.984 . S
N1259 C1252 1.356 . S
N1259 H1262 0.984 . S
N1259 H1263 0.985 . S
H1260 N1255 0.984 . S
H1261 N1255 0.985 . S
H1262 N1259 0.984 . S
H1263 N1259 0.985 . S
H1264 N1258 0.984 . S
H1265 N1258 0.984 . S
H1266 N1254 0.984 . S
H1267 N1254 0.985 . S
C1268 C1269 1.363 . S
C1268 C1274 1.379 . S
C1268 N1276 1.356 . S
C1269 C1268 1.363 . S
C1269 C1275 1.363 . S
C1270 C1271 1.363 . S
C1270 C1275 1.379 . S
C1270 N1277 1.356 . S
C1271 C1270 1.363 . S
C1271 C1274 1.363 . S
N1272 C1274 1.356 . S
N1272 H1284 0.984 . S
N1272 H1285 0.985 . S
N1273 C1275 1.356 . S
N1273 H1278 0.984 . S
N1273 H1279 0.985 . S
C1274 C1268 1.379 . S
C1274 C1271 1.363 . S
C1274 N1272 1.356 . S
C1275 C1269 1.363 . S
C1275 C1270 1.379 . S
C1275 N1273 1.356 . S
N1276 C1268 1.356 . S
N1276 H1282 0.984 . S
N1276 H1283 0.984 . S
N1277 C1270 1.356 . S
N1277 H1280 0.984 . S
N1277 H1281 0.985 . S
H1278 N1273 0.984 . S
H1279 N1273 0.985 . S
H1280 N1277 0.984 . S
H1281 N1277 0.985 . S
H1282 N1276 0.984 . S
H1283 N1276 0.984 . S
H1284 N1272 0.984 . S
H1285 N1272 0.985 . S
C1286 C1287 1.363 . S
C1286 C1292 1.379 . S
C1286 N1294 1.356 . S
C1287 C1286 1.363 . S
C1287 C1293 1.363 . S
C1288 C1289 1.363 . S
C1288 C1293 1.379 . S
C1288 N1295 1.356 . S
C1289 C1288 1.363 . S
C1289 C1292 1.363 . S
N1290 C1292 1.356 . S
N1290 H1302 0.984 . S
N1290 H1303 0.985 . S
N1291 C1293 1.356 . S
N1291 H1296 0.984 . S
N1291 H1297 0.985 . S
C1292 C1286 1.379 . S
C1292 C1289 1.363 . S
C1292 N1290 1.356 . S
C1293 C1287 1.363 . S
C1293 C1288 1.379 . S
C1293 N1291 1.356 . S
N1294 C1286 1.356 . S
N1294 H1300 0.984 . S
N1294 H1301 0.984 . S
N1295 C1288 1.356 . S
N1295 H1298 0.984 . S
N1295 H1299 0.985 . S
H1296 N1291 0.984 . S
H1297 N1291 0.985 . S
H1298 N1295 0.984 . S
H1299 N1295 0.985 . S
H1300 N1294 0.984 . S
H1301 N1294 0.984 . S
H1302 N1290 0.984 . S
H1303 N1290 0.985 . S
C1304 C1305 1.363 . S
C1304 C1310 1.379 1_556 S
C1304 N1312 1.356 . S
C1305 C1304 1.363 . S
C1305 C1311 1.363 . S
C1306 C1307 1.363 . S
C1306 C1311 1.379 1_554 S
C1306 N1313 1.356 . S
C1307 C1306 1.363 . S
C1307 C1310 1.363 . S
N1308 C1310 1.356 . S
N1308 H1320 0.984 . S
N1308 H1321 0.985 . S
N1309 C1311 1.356 . S
N1309 H1314 0.984 . S
N1309 H1315 0.985 . S
C1310 C1304 1.379 1_554 S
C1310 C1307 1.363 . S
C1310 N1308 1.356 . S
C1311 C1305 1.363 . S
C1311 C1306 1.379 1_556 S
C1311 N1309 1.356 . S
N1312 C1304 1.356 . S
N1312 H1318 0.984 . S
N1312 H1319 0.984 . S
N1313 C1306 1.356 . S
N1313 H1316 0.984 . S
N1313 H1317 0.985 . S
H1314 N1309 0.984 . S
H1315 N1309 0.985 . S
H1316 N1313 0.984 . S
H1317 N1313 0.985 . S
H1318 N1312 0.984 . S
H1319 N1312 0.984 . S
H1320 N1308 0.984 . S
H1321 N1308 0.985 . S
C1322 C1323 1.363 1_455 S
C1322 C1328 1.379 . S
C1322 N1330 1.356 . S
C1323 C1322 1.363 1_655 S
C1323 C1329 1.363 . S
C1324 C1325 1.363 1_655 S
C1324 C1329 1.379 . S
C1324 N1331 1.356 . S
C1325 C1324 1.363 1_455 S
C1325 C1328 1.363 . S
N1326 C1328 1.356 . S
N1326 H1338 0.984 . S
N1326 H1339 0.985 . S
N1327 C1329 1.356 . S
N1327 H1332 0.984 . S
N1327 H1333 0.985 . S
C1328 C1322 1.379 . S
C1328 C1325 1.363 . S
C1328 N1326 1.356 . S
C1329 C1323 1.363 . S
C1329 C1324 1.379 . S
C1329 N1327 1.356 . S
N1330 C1322 1.356 . S
N1330 H1336 0.984 . S
N1330 H1337 0.984 . S
N1331 C1324 1.356 . S
N1331 H1334 0.984 . S
N1331 H1335 0.985 . S
H1332 N1327 0.984 . S
H1333 N1327 0.985 . S
H1334 N1331 0.984 . S
H1335 N1331 0.985 . S
H1336 N1330 0.984 . S
H1337 N1330 0.984 . S
H1338 N1326 0.984 . S
H1339 N1326 0.985 . S
C1340 C1341 1.363 1_655 S
C1340 C1346 1.379 1_554 S
C1340 N1348 1.356 . S
C1341 C1340 1.363 1_455 S
C1341 C1347 1.363 . S
C1342 C1343 1.363 1_455 S
C1342 C1347 1.379 1_556 S
C1342 N1349 1.356 . S
C1343 C1342 1.363 1_655 S
C1343 C1346 1.363 . S
N1344 C1346 1.356 . S
N1344 H1356 0.984 . S
N1344 H1357 0.985 . S
N1345 C1347 1.356 . S
N1345 H1350 0.984 . S
N1345 H1351 0.985 . S
C1346 C1340 1.379 1_556 S
C1346 C1343 1.363 . S
C1346 N1344 1.356 . S
C1347 C1341 1.363 . S
C1347 C1342 1.379 1_554 S
C1347 N1345 1.356 . S
N1348 C1340 1.356 . S
N1348 H1354 0.984 . S
N1348 H1355 0.984 . S
N1349 C1342 1.356 . S
N1349 H1352 0.984 . S
N1349 H1353 0.985 . S
H1350 N1345 0.984 . S
H1351 N1345 0.985 . S
H1352 N1349 0.984 . S
H1353 N1349 0.985 . S
H1354 N1348 0.984 . S
H1355 N1348 0.984 . S
H1356 N1344 0.984 . S
H1357 N1344 0.985 . S
C1358 C1359 1.363 . S
C1358 C1364 1.379 . S
C1358 N1366 1.356 . S
C1359 C1358 1.363 . S
C1359 C1365 1.363 . S
C1360 C1361 1.363 . S
C1360 C1365 1.379 . S
C1360 N1367 1.356 . S
C1361 C1360 1.363 . S
C1361 C1364 1.363 . S
N1362 C1364 1.356 . S
N1362 H1374 0.984 . S
N1362 H1375 0.985 . S
N1363 C1365 1.356 . S
N1363 H1368 0.984 . S
N1363 H1369 0.985 . S
C1364 C1358 1.379 . S
C1364 C1361 1.363 . S
C1364 N1362 1.356 . S
C1365 C1359 1.363 . S
C1365 C1360 1.379 . S
C1365 N1363 1.356 . S
N1366 C1358 1.356 . S
N1366 H1372 0.984 . S
N1366 H1373 0.984 . S
N1367 C1360 1.356 . S
N1367 H1370 0.984 . S
N1367 H1371 0.985 . S
H1368 N1363 0.984 . S
H1369 N1363 0.985 . S
H1370 N1367 0.984 . S
H1371 N1367 0.985 . S
H1372 N1366 0.984 . S
H1373 N1366 0.984 . S
H1374 N1362 0.984 . S
H1375 N1362 0.985 . S
C1376 C1377 1.363 . S
C1376 C1382 1.379 . S
C1376 N1384 1.356 . S
C1377 C1376 1.363 . S
C1377 C1383 1.363 . S
C1378 C1379 1.363 . S
C1378 C1383 1.379 . S
C1378 N1385 1.356 . S
C1379 C1378 1.363 . S
C1379 C1382 1.363 . S
N1380 C1382 1.356 . S
N1380 H1392 0.984 . S
N1380 H1393 0.985 . S
N1381 C1383 1.356 . S
N1381 H1386 0.984 . S
N1381 H1387 0.985 . S
C1382 C1376 1.379 . S
C1382 C1379 1.363 . S
C1382 N1380 1.356 . S
C1383 C1377 1.363 . S
C1383 C1378 1.379 . S
C1383 N1381 1.356 . S
N1384 C1376 1.356 . S
N1384 H1390 0.984 . S
N1384 H1391 0.984 . S
N1385 C1378 1.356 . S
N1385 H1388 0.984 . S
N1385 H1389 0.985 . S
H1386 N1381 0.984 . S
H1387 N1381 0.985 . S
H1388 N1385 0.984 . S
H1389 N1385 0.985 . S
H1390 N1384 0.984 . S
H1391 N1384 0.984 . S
H1392 N1380 0.984 . S
H1393 N1380 0.985 . S
C1394 C1395 1.363 . S
C1394 C1400 1.379 . S
C1394 N1402 1.356 . S
C1395 C1394 1.363 . S
C1395 C1401 1.363 . S
C1396 C1397 1.363 . S
C1396 C1401 1.379 . S
C1396 N1403 1.356 . S
C1397 C1396 1.363 . S
C1397 C1400 1.363 . S
N1398 C1400 1.356 . S
N1398 H1410 0.984 . S
N1398 H1411 0.985 . S
N1399 C1401 1.356 . S
N1399 H1404 0.984 . S
N1399 H1405 0.985 . S
C1400 C1394 1.379 . S
C1400 C1397 1.363 . S
C1400 N1398 1.356 . S
C1401 C1395 1.363 . S
C1401 C1396 1.379 . S
C1401 N1399 1.356 . S
N1402 C1394 1.356 . S
N1402 H1408 0.984 . S
N1402 H1409 0.984 . S
N1403 C1396 1.356 . S
N1403 H1406 0.984 . S
N1403 H1407 0.985 . S
H1404 N1399 0.984 . S
H1405 N1399 0.985 . S
H1406 N1403 0.984 . S
H1407 N1403 0.985 . S
H1408 N1402 0.984 . S
H1409 N1402 0.984 . S
H1410 N1398 0.984 . S
H1411 N1398 0.985 . S
C1412 C1413 1.363 . S
C1412 C1418 1.379 . S
C1412 N1420 1.356 . S
C1413 C1412 1.363 . S
C1413 C1419 1.363 . S
C1414 C1415 1.363 . S
C1414 C1419 1.379 . S
C1414 N1421 1.356 . S
C1415 C1414 1.363 . S
C1415 C1418 1.363 . S
N1416 C1418 1.356 . S
N1416 H1428 0.984 . S
N1416 H1429 0.985 . S
N1417 C1419 1.356 . S
N1417 H1422 0.984 . S
N1417 H1423 0.985 . S
C1418 C1412 1.379 . S
C1418 C1415 1.363 . S
C1418 N1416 1.356 . S
C1419 C1413 1.363 . S
C1419 C1414 1.379 . S
C1419 N1417 1.356 . S
N1420 C1412 1.356 . S
N1420 H1426 0.984 . S
N1420 H1427 0.984 . S
N1421 C1414 1.356 . S
N1421 H1424 0.984 . S
N1421 H1425 0.985 . S
H1422 N1417 0.984 . S
H1423 N1417 0.985 . S
H1424 N1421 0.984 . S
H1425 N1421 0.985 . S
H1426 N1420 0.984 . S
H1427 N1420 0.984 . S
H1428 N1416 0.984 . S
H1429 N1416 0.985 . S
C1430 C1431 1.363 . S
C1430 C1436 1.379 . S
C1430 N1438 1.356 . S
C1431 C1430 1.363 . S
C1431 C1437 1.363 . S
C1432 C1433 1.363 . S
C1432 C1437 1.379 . S
C1432 N1439 1.356 . S
C1433 C1432 1.363 . S
C1433 C1436 1.363 . S
N1434 C1436 1.356 . S
N1434 H1446 0.984 . S
N1434 H1447 0.985 . S
N1435 C1437 1.356 . S
N1435 H1440 0.984 . S
N1435 H1441 0.985 . S
C1436 C1430 1.379 . S
C1436 C1433 1.363 . S
C1436 N1434 1.356 . S
C1437 C1431 1.363 . S
C1437 C1432 1.379 . S
C1437 N1435 1.356 . S
N1438 C1430 1.356 . S
N1438 H1444 0.984 . S
N1438 H1445 0.984 . S
N1439 C1432 1.356 . S
N1439 H1442 0.984 . S
N1439 H1443 0.985 . S
H1440 N1435 0.984 . S
H1441 N1435 0.985 . S
H1442 N1439 0.984 . S
H1443 N1439 0.985 . S
H1444 N1438 0.984 . S
H1445 N1438 0.984 . S
H1446 N1434 0.984 . S
H1447 N1434 0.985 . S
C1448 C1449 1.363 . S
C1448 C1454 1.379 . S
C1448 N1456 1.356 . S
C1449 C1448 1.363 . S
C1449 C1455 1.363 . S
C1450 C1451 1.363 . S
C1450 C1455 1.379 . S
C1450 N1457 1.356 . S
C1451 C1450 1.363 . S
C1451 C1454 1.363 . S
N1452 C1454 1.356 . S
N1452 H1464 0.984 . S
N1452 H1465 0.985 . S
N1453 C1455 1.356 . S
N1453 H1458 0.984 . S
N1453 H1459 0.985 . S
C1454 C1448 1.379 . S
C1454 C1451 1.363 . S
C1454 N1452 1.356 . S
C1455 C1449 1.363 . S
C1455 C1450 1.379 . S
C1455 N1453 1.356 . S
N1456 C1448 1.356 . S
N1456 H1462 0.984 . S
N1456 H1463 0.984 . S
N1457 C1450 1.356 . S
N1457 H1460 0.984 . S
N1457 H1461 0.985 . S
H1458 N1453 0.984 . S
H1459 N1453 0.985 . S
H1460 N1457 0.984 . S
H1461 N1457 0.985 . S
H1462 N1456 0.984 . S
H1463 N1456 0.984 . S
H1464 N1452 0.984 . S
H1465 N1452 0.985 . S
C1466 C1467 1.363 . S
C1466 C1472 1.379 . S
C1466 N1474 1.356 . S
C1467 C1466 1.363 . S
C1467 C1473 1.363 . S
C1468 C1469 1.363 . S
C1468 C1473 1.379 . S
C1468 N1475 1.356 . S
C1469 C1468 1.363 . S
C1469 C1472 1.363 . S
N1470 C1472 1.356 . S
N1470 H1482 0.984 . S
N1470 H1483 0.985 . S
N1471 C1473 1.356 . S
N1471 H1476 0.984 . S
N1471 H1477 0.985 . S
C1472 C1466 1.379 . S
C1472 C1469 1.363 . S
C1472 N1470 1.356 . S
C1473 C1467 1.363 . S
C1473 C1468 1.379 . S
C1473 N1471 1.356 . S
N1474 C1466 1.356 . S
N1474 H1480 0.984 . S
N1474 H1481 0.984 . S
N1475 C1468 1.356 . S
N1475 H1478 0.984 . S
N1475 H1479 0.985 . S
H1476 N1471 0.984 . S
H1477 N1471 0.985 . S
H1478 N1475 0.984 . S
H1479 N1475 0.985 . S
H1480 N1474 0.984 . S
H1481 N1474 0.984 . S
H1482 N1470 0.984 . S
H1483 N1470 0.985 . S
C1484 C1485 1.363 . S
C1484 C1490 1.379 . S
C1484 N1492 1.356 . S
C1485 C1484 1.363 . S
C1485 C1491 1.363 . S
C1486 C1487 1.363 . S
C1486 C1491 1.379 . S
C1486 N1493 1.356 . S
C1487 C1486 1.363 . S
C1487 C1490 1.363 . S
N1488 C1490 1.356 . S
N1488 H1500 0.984 . S
N1488 H1501 0.985 . S
N1489 C1491 1.356 . S
N1489 H1494 0.984 . S
N1489 H1495 0.985 . S
C1490 C1484 1.379 . S
C1490 C1487 1.363 . S
C1490 N1488 1.356 . S
C1491 C1485 1.363 . S
C1491 C1486 1.379 . S
C1491 N1489 1.356 . S
N1492 C1484 1.356 . S
N1492 H1498 0.984 . S
N1492 H1499 0.984 . S
N1493 C1486 1.356 . S
N1493 H1496 0.984 . S
N1493 H1497 0.985 . S
H1494 N1489 0.984 . S
H1495 N1489 0.985 . S
H1496 N1493 0.984 . S
H1497 N1493 0.985 . S
H1498 N1492 0.984 . S
H1499 N1492 0.984 . S
H1500 N1488 0.984 . S
H1501 N1488 0.985 . S
C1502 C1503 1.363 . S
C1502 C1508 1.379 . S
C1502 N1510 1.356 . S
C1503 C1502 1.363 . S
C1503 C1509 1.363 . S
C1504 C1505 1.363 . S
C1504 C1509 1.379 . S
C1504 N1511 1.356 . S
C1505 C1504 1.363 . S
C1505 C1508 1.363 . S
N1506 C1508 1.356 . S
N1506 H1518 0.984 . S
N1506 H1519 0.985 . S
N1507 C1509 1.356 . S
N1507 H1512 0.984 . S
N1507 H1513 0.985 . S
C1508 C1502 1.379 . S
C1508 C1505 1.363 . S
C1508 N1506 1.356 . S
C1509 C1503 1.363 . S
C1509 C1504 1.379 . S
C1509 N1507 1.356 . S
N1510 C1502 1.356 . S
N1510 H1516 0.984 . S
N1510 H1517 0.984 . S
N1511 C1504 1.356 . S
N1511 H1514 0.984 . S
N1511 H1515 0.985 . S
H1512 N1507 0.984 . S
H1513 N1507 0.985 . S
H1514 N1511 0.984 . S
H1515 N1511 0.985 . S
H1516 N1510 0.984 . S
H1517 N1510 0.984 . S
H1518 N1506 0.984 . S
H1519 N1506 0.985 . S
C1520 C1521 1.363 . S
C1520 C1526 1.379 . S
C1520 N1528 1.356 . S
C1521 C1520 1.363 . S
C1521 C1527 1.363 . S
C1522 C1523 1.363 . S
C1522 C1527 1.379 . S
C1522 N1529 1.356 . S
C1523 C1522 1.363 . S
C1523 C1526 1.363 . S
N1524 C1526 1.356 . S
N1524 H1536 0.984 . S
N1524 H1537 0.985 . S
N1525 C1527 1.356 . S
N1525 H1530 0.984 . S
N1525 H1531 0.985 . S
C1526 C1520 1.379 . S
C1526 C1523 1.363 . S
C1526 N1524 1.356 . S
C1527 C1521 1.363 . S
C1527 C1522 1.379 . S
C1527 N1525 1.356 . S
N1528 C1520 1.356 . S
N1528 H1534 0.984 . S
N1528 H1535 0.984 . S
N1529 C1522 1.356 . S
N1529 H1532 0.984 . S
N1529 H1533 0.985 . S
H1530 N1525 0.984 . S
H1531 N1525 0.985 . S
H1532 N1529 0.984 . S
H1533 N1529 0.985 . S
H1534 N1528 0.984 . S
H1535 N1528 0.984 . S
H1536 N1524 0.984 . S
H1537 N1524 0.985 . S
C1538 C1539 1.363 . S
C1538 C1544 1.379 . S
C1538 N1546 1.356 . S
C1539 C1538 1.363 . S
C1539 C1545 1.363 . S
C1540 C1541 1.363 . S
C1540 C1545 1.379 . S
C1540 N1547 1.356 . S
C1541 C1540 1.363 . S
C1541 C1544 1.363 . S
N1542 C1544 1.356 . S
N1542 H1554 0.984 . S
N1542 H1555 0.985 . S
N1543 C1545 1.356 . S
N1543 H1548 0.984 . S
N1543 H1549 0.985 . S
C1544 C1538 1.379 . S
C1544 C1541 1.363 . S
C1544 N1542 1.356 . S
C1545 C1539 1.363 . S
C1545 C1540 1.379 . S
C1545 N1543 1.356 . S
N1546 C1538 1.356 . S
N1546 H1552 0.984 . S
N1546 H1553 0.984 . S
N1547 C1540 1.356 . S
N1547 H1550 0.984 . S
N1547 H1551 0.985 . S
H1548 N1543 0.984 . S
H1549 N1543 0.985 . S
H1550 N1547 0.984 . S
H1551 N1547 0.985 . S
H1552 N1546 0.984 . S
H1553 N1546 0.984 . S
H1554 N1542 0.984 . S
H1555 N1542 0.985 . S
C1556 C1557 1.363 . S
C1556 C1562 1.379 . S
C1556 N1564 1.356 . S
C1557 C1556 1.363 . S
C1557 C1563 1.363 . S
C1558 C1559 1.363 . S
C1558 C1563 1.379 . S
C1558 N1565 1.356 . S
C1559 C1558 1.363 . S
C1559 C1562 1.363 . S
N1560 C1562 1.356 . S
N1560 H1572 0.984 . S
N1560 H1573 0.985 . S
N1561 C1563 1.356 . S
N1561 H1566 0.984 . S
N1561 H1567 0.985 . S
C1562 C1556 1.379 . S
C1562 C1559 1.363 . S
C1562 N1560 1.356 . S
C1563 C1557 1.363 . S
C1563 C1558 1.379 . S
C1563 N1561 1.356 . S
N1564 C1556 1.356 . S
N1564 H1570 0.984 . S
N1564 H1571 0.984 . S
N1565 C1558 1.356 . S
N1565 H1568 0.984 . S
N1565 H1569 0.985 . S
H1566 N1561 0.984 . S
H1567 N1561 0.985 . S
H1568 N1565 0.984 . S
H1569 N1565 0.985 . S
H1570 N1564 0.984 . S
H1571 N1564 0.984 . S
H1572 N1560 0.984 . S
H1573 N1560 0.985 . S
C1574 C1575 1.363 . S
C1574 C1580 1.379 . S
C1574 N1582 1.356 . S
C1575 C1574 1.363 . S
C1575 C1581 1.363 . S
C1576 C1577 1.363 . S
C1576 C1581 1.379 . S
C1576 N1583 1.356 . S
C1577 C1576 1.363 . S
C1577 C1580 1.363 . S
N1578 C1580 1.356 . S
N1578 H1590 0.984 . S
N1578 H1591 0.985 . S
N1579 C1581 1.356 . S
N1579 H1584 0.984 . S
N1579 H1585 0.985 . S
C1580 C1574 1.379 . S
C1580 C1577 1.363 . S
C1580 N1578 1.356 . S
C1581 C1575 1.363 . S
C1581 C1576 1.379 . S
C1581 N1579 1.356 . S
N1582 C1574 1.356 . S
N1582 H1588 0.984 . S
N1582 H1589 0.984 . S
N1583 C1576 1.356 . S
N1583 H1586 0.984 . S
N1583 H1587 0.985 . S
H1584 N1579 0.984 . S
H1585 N1579 0.985 . S
H1586 N1583 0.984 . S
H1587 N1583 0.985 . S
H1588 N1582 0.984 . S
H1589 N1582 0.984 . S
H1590 N1578 0.984 . S
H1591 N1578 0.985 . S
C1592 C1593 1.363 . S
C1592 C1598 1.379 . S
C1592 N1600 1.356 . S
C1593 C1592 1.363 . S
C1593 C1599 1.363 . S
C1594 C1595 1.363 . S
C1594 C1599 1.379 . S
C1594 N1601 1.356 . S
C1595 C1594 1.363 . S
C1595 C1598 1.363 . S
N1596 C1598 1.356 . S
N1596 H1608 0.984 . S
N1596 H1609 0.985 . S
N1597 C1599 1.356 . S
N1597 H1602 0.984 . S
N1597 H1603 0.985 . S
C1598 C1592 1.379 . S
C1598 C1595 1.363 . S
C1598 N1596 1.356 . S
C1599 C1593 1.363 . S
C1599 C1594 1.379 . S
C1599 N1597 1.356 . S
N1600 C1592 1.356 . S
N1600 H1606 0.984 . S
N1600 H1607 0.984 . S
N1601 C1594 1.356 . S
N1601 H1604 0.984 . S
N1601 H1605 0.985 . S
H1602 N1597 0.984 . S
H1603 N1597 0.985 . S
H1604 N1601 0.984 . S
H1605 N1601 0.985 . S
H1606 N1600 0.984 . S
H1607 N1600 0.984 . S
H1608 N1596 0.984 . S
H1609 N1596 0.985 . S
C1610 C1611 1.363 . S
C1610 C1616 1.379 . S
C1610 N1618 1.356 . S
C1611 C1610 1.363 . S
C1611 C1617 1.363 . S
C1612 C1613 1.363 . S
C1612 C1617 1.379 . S
C1612 N1619 1.356 . S
C1613 C1612 1.363 . S
C1613 C1616 1.363 . S
N1614 C1616 1.356 . S
N1614 H1626 0.984 . S
N1614 H1627 0.985 . S
N1615 C1617 1.356 . S
N1615 H1620 0.984 . S
N1615 H1621 0.985 . S
C1616 C1610 1.379 . S
C1616 C1613 1.363 . S
C1616 N1614 1.356 . S
C1617 C1611 1.363 . S
C1617 C1612 1.379 . S
C1617 N1615 1.356 . S
N1618 C1610 1.356 . S
N1618 H1624 0.984 . S
N1618 H1625 0.984 . S
N1619 C1612 1.356 . S
N1619 H1622 0.984 . S
N1619 H1623 0.985 . S
H1620 N1615 0.984 . S
H1621 N1615 0.985 . S
H1622 N1619 0.984 . S
H1623 N1619 0.985 . S
H1624 N1618 0.984 . S
H1625 N1618 0.984 . S
H1626 N1614 0.984 . S
H1627 N1614 0.985 . S
C1628 C1629 1.363 . S
C1628 C1634 1.379 . S
C1628 N1636 1.356 . S
C1629 C1628 1.363 . S
C1629 C1635 1.363 . S
C1630 C1631 1.363 . S
C1630 C1635 1.379 . S
C1630 N1637 1.356 . S
C1631 C1630 1.363 . S
C1631 C1634 1.363 . S
N1632 C1634 1.356 . S
N1632 H1644 0.984 . S
N1632 H1645 0.985 . S
N1633 C1635 1.356 . S
N1633 H1638 0.984 . S
N1633 H1639 0.985 . S
C1634 C1628 1.379 . S
C1634 C1631 1.363 . S
C1634 N1632 1.356 . S
C1635 C1629 1.363 . S
C1635 C1630 1.379 . S
C1635 N1633 1.356 . S
N1636 C1628 1.356 . S
N1636 H1642 0.984 . S
N1636 H1643 0.984 . S
N1637 C1630 1.356 . S
N1637 H1640 0.984 . S
N1637 H1641 0.985 . S
H1638 N1633 0.984 . S
H1639 N1633 0.985 . S
H1640 N1637 0.984 . S
H1641 N1637 0.985 . S
H1642 N1636 0.984 . S
H1643 N1636 0.984 . S
H1644 N1632 0.984 . S
H1645 N1632 0.985 . S
C1646 C1647 1.363 . S
C1646 C1652 1.379 . S
C1646 N1654 1.356 . S
C1647 C1646 1.363 . S
C1647 C1653 1.363 . S
C1648 C1649 1.363 . S
C1648 C1653 1.379 . S
C1648 N1655 1.356 . S
C1649 C1648 1.363 . S
C1649 C1652 1.363 . S
N1650 C1652 1.356 . S
N1650 H1662 0.984 . S
N1650 H1663 0.985 . S
N1651 C1653 1.356 . S
N1651 H1656 0.984 . S
N1651 H1657 0.985 . S
C1652 C1646 1.379 . S
C1652 C1649 1.363 . S
C1652 N1650 1.356 . S
C1653 C1647 1.363 . S
C1653 C1648 1.379 . S
C1653 N1651 1.356 . S
N1654 C1646 1.356 . S
N1654 H1660 0.984 . S
N1654 H1661 0.984 . S
N1655 C1648 1.356 . S
N1655 H1658 0.984 . S
N1655 H1659 0.985 . S
H1656 N1651 0.984 . S
H1657 N1651 0.985 . S
H1658 N1655 0.984 . S
H1659 N1655 0.985 . S
H1660 N1654 0.984 . S
H1661 N1654 0.984 . S
H1662 N1650 0.984 . S
H1663 N1650 0.985 . S
C1664 C1665 1.363 . S
C1664 C1670 1.379 . S
C1664 N1672 1.356 . S
C1665 C1664 1.363 . S
C1665 C1671 1.363 . S
C1666 C1667 1.363 . S
C1666 C1671 1.379 . S
C1666 N1673 1.356 . S
C1667 C1666 1.363 . S
C1667 C1670 1.363 . S
N1668 C1670 1.356 . S
N1668 H1680 0.984 . S
N1668 H1681 0.985 . S
N1669 C1671 1.356 . S
N1669 H1674 0.984 . S
N1669 H1675 0.985 . S
C1670 C1664 1.379 . S
C1670 C1667 1.363 . S
C1670 N1668 1.356 . S
C1671 C1665 1.363 . S
C1671 C1666 1.379 . S
C1671 N1669 1.356 . S
N1672 C1664 1.356 . S
N1672 H1678 0.984 . S
N1672 H1679 0.984 . S
N1673 C1666 1.356 . S
N1673 H1676 0.984 . S
N1673 H1677 0.985 . S
H1674 N1669 0.984 . S
H1675 N1669 0.985 . S
H1676 N1673 0.984 . S
H1677 N1673 0.985 . S
H1678 N1672 0.984 . S
H1679 N1672 0.984 . S
H1680 N1668 0.984 . S
H1681 N1668 0.985 . S
C1682 C1683 1.363 . S
C1682 C1688 1.379 . S
C1682 N1690 1.356 . S
C1683 C1682 1.363 . S
C1683 C1689 1.363 . S
C1684 C1685 1.363 . S
C1684 C1689 1.379 . S
C1684 N1691 1.356 . S
C1685 C1684 1.363 . S
C1685 C1688 1.363 . S
N1686 C1688 1.356 . S
N1686 H1698 0.984 . S
N1686 H1699 0.985 . S
N1687 C1689 1.356 . S
N1687 H1692 0.984 . S
N1687 H1693 0.985 . S
C1688 C1682 1.379 . S
C1688 C1685 1.363 . S
C1688 N1686 1.356 . S
C1689 C1683 1.363 . S
C1689 C1684 1.379 . S
C1689 N1687 1.356 . S
N1690 C1682 1.356 . S
N1690 H1696 0.984 . S
N1690 H1697 0.984 . S
N1691 C1684 1.356 . S
N1691 H1694 0.984 . S
N1691 H1695 0.985 . S
H1692 N1687 0.984 . S
H1693 N1687 0.985 . S
H1694 N1691 0.984 . S
H1695 N1691 0.985 . S
H1696 N1690 0.984 . S
H1697 N1690 0.984 . S
H1698 N1686 0.984 . S
H1699 N1686 0.985 . S
C1700 C1701 1.363 . S
C1700 C1706 1.379 . S
C1700 N1708 1.356 . S
C1701 C1700 1.363 . S
C1701 C1707 1.363 . S
C1702 C1703 1.363 . S
C1702 C1707 1.379 . S
C1702 N1709 1.356 . S
C1703 C1702 1.363 . S
C1703 C1706 1.363 . S
N1704 C1706 1.356 . S
N1704 H1716 0.984 . S
N1704 H1717 0.985 . S
N1705 C1707 1.356 . S
N1705 H1710 0.984 . S
N1705 H1711 0.985 . S
C1706 C1700 1.379 . S
C1706 C1703 1.363 . S
C1706 N1704 1.356 . S
C1707 C1701 1.363 . S
C1707 C1702 1.379 . S
C1707 N1705 1.356 . S
N1708 C1700 1.356 . S
N1708 H1714 0.984 . S
N1708 H1715 0.984 . S
N1709 C1702 1.356 . S
N1709 H1712 0.984 . S
N1709 H1713 0.985 . S
H1710 N1705 0.984 . S
H1711 N1705 0.985 . S
H1712 N1709 0.984 . S
H1713 N1709 0.985 . S
H1714 N1708 0.984 . S
H1715 N1708 0.984 . S
H1716 N1704 0.984 . S
H1717 N1704 0.985 . S
C1718 C1719 1.363 . S
C1718 C1724 1.379 . S
C1718 N1726 1.356 . S
C1719 C1718 1.363 . S
C1719 C1725 1.363 . S
C1720 C1721 1.363 . S
C1720 C1725 1.379 . S
C1720 N1727 1.356 . S
C1721 C1720 1.363 . S
C1721 C1724 1.363 . S
N1722 C1724 1.356 . S
N1722 H1734 0.984 . S
N1722 H1735 0.985 . S
N1723 C1725 1.356 . S
N1723 H1728 0.984 . S
N1723 H1729 0.985 . S
C1724 C1718 1.379 . S
C1724 C1721 1.363 . S
C1724 N1722 1.356 . S
C1725 C1719 1.363 . S
C1725 C1720 1.379 . S
C1725 N1723 1.356 . S
N1726 C1718 1.356 . S
N1726 H1732 0.984 . S
N1726 H1733 0.984 . S
N1727 C1720 1.356 . S
N1727 H1730 0.984 . S
N1727 H1731 0.985 . S
H1728 N1723 0.984 . S
H1729 N1723 0.985 . S
H1730 N1727 0.984 . S
H1731 N1727 0.985 . S
H1732 N1726 0.984 . S
H1733 N1726 0.984 . S
H1734 N1722 0.984 . S
H1735 N1722 0.985 . S
C1736 C1737 1.363 . S
C1736 C1742 1.379 . S
C1736 N1744 1.356 . S
C1737 C1736 1.363 . S
C1737 C1743 1.363 . S
C1738 C1739 1.363 . S
C1738 C1743 1.379 . S
C1738 N1745 1.356 . S
C1739 C1738 1.363 . S
C1739 C1742 1.363 . S
N1740 C1742 1.356 . S
N1740 H1752 0.984 . S
N1740 H1753 0.985 . S
N1741 C1743 1.356 . S
N1741 H1746 0.984 . S
N1741 H1747 0.985 . S
C1742 C1736 1.379 . S
C1742 C1739 1.363 . S
C1742 N1740 1.356 . S
C1743 C1737 1.363 . S
C1743 C1738 1.379 . S
C1743 N1741 1.356 . S
N1744 C1736 1.356 . S
N1744 H1750 0.984 . S
N1744 H1751 0.984 . S
N1745 C1738 1.356 . S
N1745 H1748 0.984 . S
N1745 H1749 0.985 . S
H1746 N1741 0.984 . S
H1747 N1741 0.985 . S
H1748 N1745 0.984 . S
H1749 N1745 0.985 . S
H1750 N1744 0.984 . S
H1751 N1744 0.984 . S
H1752 N1740 0.984 . S
H1753 N1740 0.985 . S
C1754 C1755 1.363 . S
C1754 C1760 1.379 . S
C1754 N1762 1.356 . S
C1755 C1754 1.363 . S
C1755 C1761 1.363 . S
C1756 C1757 1.363 . S
C1756 C1761 1.379 . S
C1756 N1763 1.356 . S
C1757 C1756 1.363 . S
C1757 C1760 1.363 . S
N1758 C1760 1.356 . S
N1758 H1770 0.984 . S
N1758 H1771 0.985 . S
N1759 C1761 1.356 . S
N1759 H1764 0.984 . S
N1759 H1765 0.985 . S
C1760 C1754 1.379 . S
C1760 C1757 1.363 . S
C1760 N1758 1.356 . S
C1761 C1755 1.363 . S
C1761 C1756 1.379 . S
C1761 N1759 1.356 . S
N1762 C1754 1.356 . S
N1762 H1768 0.984 . S
N1762 H1769 0.984 . S
N1763 C1756 1.356 . S
N1763 H1766 0.984 . S
N1763 H1767 0.985 . S
H1764 N1759 0.984 . S
H1765 N1759 0.985 . S
H1766 N1763 0.984 . S
H1767 N1763 0.985 . S
H1768 N1762 0.984 . S
H1769 N1762 0.984 . S
H1770 N1758 0.984 . S
H1771 N1758 0.985 . S
C1772 C1773 1.363 . S
C1772 C1778 1.379 . S
C1772 N1780 1.356 . S
C1773 C1772 1.363 . S
C1773 C1779 1.363 . S
C1774 C1775 1.363 . S
C1774 C1779 1.379 . S
C1774 N1781 1.356 . S
C1775 C1774 1.363 . S
C1775 C1778 1.363 . S
N1776 C1778 1.356 . S
N1776 H1788 0.984 . S
N1776 H1789 0.985 . S
N1777 C1779 1.356 . S
N1777 H1782 0.984 . S
N1777 H1783 0.985 . S
C1778 C1772 1.379 . S
C1778 C1775 1.363 . S
C1778 N1776 1.356 . S
C1779 C1773 1.363 . S
C1779 C1774 1.379 . S
C1779 N1777 1.356 . S
N1780 C1772 1.356 . S
N1780 H1786 0.984 . S
N1780 H1787 0.984 . S
N1781 C1774 1.356 . S
N1781 H1784 0.984 . S
N1781 H1785 0.985 . S
H1782 N1777 0.984 . S
H1783 N1777 0.985 . S
H1784 N1781 0.984 . S
H1785 N1781 0.985 . S
H1786 N1780 0.984 . S
H1787 N1780 0.984 . S
H1788 N1776 0.984 . S
H1789 N1776 0.985 . S
C1790 C1791 1.363 . S
C1790 C1796 1.379 . S
C1790 N1798 1.356 . S
C1791 C1790 1.363 . S
C1791 C1797 1.363 . S
C1792 C1793 1.363 . S
C1792 C1797 1.379 . S
C1792 N1799 1.356 . S
C1793 C1792 1.363 . S
C1793 C1796 1.363 . S
N1794 C1796 1.356 . S
N1794 H1806 0.984 . S
N1794 H1807 0.985 . S
N1795 C1797 1.356 . S
N1795 H1800 0.984 . S
N1795 H1801 0.985 . S
C1796 C1790 1.379 . S
C1796 C1793 1.363 . S
C1796 N1794 1.356 . S
C1797 C1791 1.363 . S
C1797 C1792 1.379 . S
C1797 N1795 1.356 . S
N1798 C1790 1.356 . S
N1798 H1804 0.984 . S
N1798 H1805 0.984 . S
N1799 C1792 1.356 . S
N1799 H1802 0.984 . S
N1799 H1803 0.985 . S
H1800 N1795 0.984 . S
H1801 N1795 0.985 . S
H1802 N1799 0.984 . S
H1803 N1799 0.985 . S
H1804 N1798 0.984 . S
H1805 N1798 0.984 . S
H1806 N1794 0.984 . S
H1807 N1794 0.985 . S
C1808 C1809 1.363 . S
C1808 C1814 1.379 . S
C1808 N1816 1.356 . S
C1809 C1808 1.363 . S
C1809 C1815 1.363 . S
C1810 C1811 1.363 . S
C1810 C1815 1.379 . S
C1810 N1817 1.356 . S
C1811 C1810 1.363 . S
C1811 C1814 1.363 . S
N1812 C1814 1.356 . S
N1812 H1824 0.984 . S
N1812 H1825 0.985 . S
N1813 C1815 1.356 . S
N1813 H1818 0.984 . S
N1813 H1819 0.985 . S
C1814 C1808 1.379 . S
C1814 C1811 1.363 . S
C1814 N1812 1.356 . S
C1815 C1809 1.363 . S
C1815 C1810 1.379 . S
C1815 N1813 1.356 . S
N1816 C1808 1.356 . S
N1816 H1822 0.984 . S
N1816 H1823 0.984 . S
N1817 C1810 1.356 . S
N1817 H1820 0.984 . S
N1817 H1821 0.985 . S
H1818 N1813 0.984 . S
H1819 N1813 0.985 . S
H1820 N1817 0.984 . S
H1821 N1817 0.985 . S
H1822 N1816 0.984 . S
H1823 N1816 0.984 . S
H1824 N1812 0.984 . S
H1825 N1812 0.985 . S
C1826 C1827 1.363 . S
C1826 C1832 1.379 . S
C1826 N1834 1.356 . S
C1827 C1826 1.363 . S
C1827 C1833 1.363 . S
C1828 C1829 1.363 . S
C1828 C1833 1.379 . S
C1828 N1835 1.356 . S
C1829 C1828 1.363 . S
C1829 C1832 1.363 . S
N1830 C1832 1.356 . S
N1830 H1842 0.984 . S
N1830 H1843 0.985 . S
N1831 C1833 1.356 . S
N1831 H1836 0.984 . S
N1831 H1837 0.985 . S
C1832 C1826 1.379 . S
C1832 C1829 1.363 . S
C1832 N1830 1.356 . S
C1833 C1827 1.363 . S
C1833 C1828 1.379 . S
C1833 N1831 1.356 . S
N1834 C1826 1.356 . S
N1834 H1840 0.984 . S
N1834 H1841 0.984 . S
N1835 C1828 1.356 . S
N1835 H1838 0.984 . S
N1835 H1839 0.985 . S
H1836 N1831 0.984 . S
H1837 N1831 0.985 . S
H1838 N1835 0.984 . S
H1839 N1835 0.985 . S
H1840 N1834 0.984 . S
H1841 N1834 0.984 . S
H1842 N1830 0.984 . S
H1843 N1830 0.985 . S
C1844 C1845 1.363 . S
C1844 C1850 1.379 . S
C1844 N1852 1.356 . S
C1845 C1844 1.363 . S
C1845 C1851 1.363 . S
C1846 C1847 1.363 . S
C1846 C1851 1.379 . S
C1846 N1853 1.356 . S
C1847 C1846 1.363 . S
C1847 C1850 1.363 . S
N1848 C1850 1.356 . S
N1848 H1860 0.984 . S
N1848 H1861 0.985 . S
N1849 C1851 1.356 . S
N1849 H1854 0.984 . S
N1849 H1855 0.985 . S
C1850 C1844 1.379 . S
C1850 C1847 1.363 . S
C1850 N1848 1.356 . S
C1851 C1845 1.363 . S
C1851 C1846 1.379 . S
C1851 N1849 1.356 . S
N1852 C1844 1.356 . S
N1852 H1858 0.984 . S
N1852 H1859 0.984 . S
N1853 C1846 1.356 . S
N1853 H1856 0.984 . S
N1853 H1857 0.985 . S
H1854 N1849 0.984 . S
H1855 N1849 0.985 . S
H1856 N1853 0.984 . S
H1857 N1853 0.985 . S
H1858 N1852 0.984 . S
H1859 N1852 0.984 . S
H1860 N1848 0.984 . S
H1861 N1848 0.985 . S
C1862 C1863 1.363 . S
C1862 C1868 1.379 . S
C1862 N1870 1.356 . S
C1863 C1862 1.363 . S
C1863 C1869 1.363 . S
C1864 C1865 1.363 . S
C1864 C1869 1.379 . S
C1864 N1871 1.356 . S
C1865 C1864 1.363 . S
C1865 C1868 1.363 . S
N1866 C1868 1.356 . S
N1866 H1878 0.984 . S
N1866 H1879 0.985 . S
N1867 C1869 1.356 . S
N1867 H1872 0.984 . S
N1867 H1873 0.985 . S
C1868 C1862 1.379 . S
C1868 C1865 1.363 . S
C1868 N1866 1.356 . S
C1869 C1863 1.363 . S
C1869 C1864 1.379 . S
C1869 N1867 1.356 . S
N1870 C1862 1.356 . S
N1870 H1876 0.984 . S
N1870 H1877 0.984 . S
N1871 C1864 1.356 . S
N1871 H1874 0.984 . S
N1871 H1875 0.985 . S
H1872 N1867 0.984 . S
H1873 N1867 0.985 . S
H1874 N1871 0.984 . S
H1875 N1871 0.985 . S
H1876 N1870 0.984 . S
H1877 N1870 0.984 . S
H1878 N1866 0.984 . S
H1879 N1866 0.985 . S
C1880 C1881 1.363 . S
C1880 C1886 1.379 . S
C1880 N1888 1.356 . S
C1881 C1880 1.363 . S
C1881 C1887 1.363 . S
C1882 C1883 1.363 . S
C1882 C1887 1.379 . S
C1882 N1889 1.356 . S
C1883 C1882 1.363 . S
C1883 C1886 1.363 . S
N1884 C1886 1.356 . S
N1884 H1896 0.984 . S
N1884 H1897 0.985 . S
N1885 C1887 1.356 . S
N1885 H1890 0.984 . S
N1885 H1891 0.985 . S
C1886 C1880 1.379 . S
C1886 C1883 1.363 . S
C1886 N1884 1.356 . S
C1887 C1881 1.363 . S
C1887 C1882 1.379 . S
C1887 N1885 1.356 . S
N1888 C1880 1.356 . S
N1888 H1894 0.984 . S
N1888 H1895 0.984 . S
N1889 C1882 1.356 . S
N1889 H1892 0.984 . S
N1889 H1893 0.985 . S
H1890 N1885 0.984 . S
H1891 N1885 0.985 . S
H1892 N1889 0.984 . S
H1893 N1889 0.985 . S
H1894 N1888 0.984 . S
H1895 N1888 0.984 . S
H1896 N1884 0.984 . S
H1897 N1884 0.985 . S
C1898 C1899 1.363 . S
C1898 C1904 1.379 . S
C1898 N1906 1.356 . S
C1899 C1898 1.363 . S
C1899 C1905 1.363 . S
C1900 C1901 1.363 . S
C1900 C1905 1.379 . S
C1900 N1907 1.356 . S
C1901 C1900 1.363 . S
C1901 C1904 1.363 . S
N1902 C1904 1.356 . S
N1902 H1914 0.984 . S
N1902 H1915 0.985 . S
N1903 C1905 1.356 . S
N1903 H1908 0.984 . S
N1903 H1909 0.985 . S
C1904 C1898 1.379 . S
C1904 C1901 1.363 . S
C1904 N1902 1.356 . S
C1905 C1899 1.363 . S
C1905 C1900 1.379 . S
C1905 N1903 1.356 . S
N1906 C1898 1.356 . S
N1906 H1912 0.984 . S
N1906 H1913 0.984 . S
N1907 C1900 1.356 . S
N1907 H1910 0.984 . S
N1907 H1911 0.985 . S
H1908 N1903 0.984 . S
H1909 N1903 0.985 . S
H1910 N1907 0.984 . S
H1911 N1907 0.985 . S
H1912 N1906 0.984 . S
H1913 N1906 0.984 . S
H1914 N1902 0.984 . S
H1915 N1902 0.985 . S
C1916 C1917 1.363 . S
C1916 C1922 1.379 . S
C1916 N1924 1.356 . S
C1917 C1916 1.363 . S
C1917 C1923 1.363 . S
C1918 C1919 1.363 . S
C1918 C1923 1.379 . S
C1918 N1925 1.356 . S
C1919 C1918 1.363 . S
C1919 C1922 1.363 . S
N1920 C1922 1.356 . S
N1920 H1932 0.984 . S
N1920 H1933 0.985 . S
N1921 C1923 1.356 . S
N1921 H1926 0.984 . S
N1921 H1927 0.985 . S
C1922 C1916 1.379 . S
C1922 C1919 1.363 . S
C1922 N1920 1.356 . S
C1923 C1917 1.363 . S
C1923 C1918 1.379 . S
C1923 N1921 1.356 . S
N1924 C1916 1.356 . S
N1924 H1930 0.984 . S
N1924 H1931 0.984 . S
N1925 C1918 1.356 . S
N1925 H1928 0.984 . S
N1925 H1929 0.985 . S
H1926 N1921 0.984 . S
H1927 N1921 0.985 . S
H1928 N1925 0.984 . S
H1929 N1925 0.985 . S
H1930 N1924 0.984 . S
H1931 N1924 0.984 . S
H1932 N1920 0.984 . S
H1933 N1920 0.985 . S
C1934 C1935 1.363 . S
C1934 C1940 1.379 . S
C1934 N1942 1.356 . S
C1935 C1934 1.363 . S
C1935 C1941 1.363 . S
C1936 C1937 1.363 . S
C1936 C1941 1.379 . S
C1936 N1943 1.356 . S
C1937 C1936 1.363 . S
C1937 C1940 1.363 . S
N1938 C1940 1.356 . S
N1938 H1950 0.984 . S
N1938 H1951 0.985 . S
N1939 C1941 1.356 . S
N1939 H1944 0.984 . S
N1939 H1945 0.985 . S
C1940 C1934 1.379 . S
C1940 C1937 1.363 . S
C1940 N1938 1.356 . S
C1941 C1935 1.363 . S
C1941 C1936 1.379 . S
C1941 N1939 1.356 . S
N1942 C1934 1.356 . S
N1942 H1948 0.984 . S
N1942 H1949 0.984 . S
N1943 C1936 1.356 . S
N1943 H1946 0.984 . S
N1943 H1947 0.985 . S
H1944 N1939 0.984 . S
H1945 N1939 0.985 . S
H1946 N1943 0.984 . S
H1947 N1943 0.985 . S
H1948 N1942 0.984 . S
H1949 N1942 0.984 . S
H1950 N1938 0.984 . S
H1951 N1938 0.985 . S
C1952 C1953 1.363 . S
C1952 C1958 1.379 1_554 S
C1952 N1960 1.356 . S
C1953 C1952 1.363 . S
C1953 C1959 1.363 . S
C1954 C1955 1.363 . S
C1954 C1959 1.379 1_556 S
C1954 N1961 1.356 . S
C1955 C1954 1.363 . S
C1955 C1958 1.363 . S
N1956 C1958 1.356 . S
N1956 H1968 0.984 . S
N1956 H1969 0.985 . S
N1957 C1959 1.356 . S
N1957 H1962 0.984 . S
N1957 H1963 0.985 . S
C1958 C1952 1.379 1_556 S
C1958 C1955 1.363 . S
C1958 N1956 1.356 . S
C1959 C1953 1.363 . S
C1959 C1954 1.379 1_554 S
C1959 N1957 1.356 . S
N1960 C1952 1.356 . S
N1960 H1966 0.984 . S
N1960 H1967 0.984 . S
N1961 C1954 1.356 . S
N1961 H1964 0.984 . S
N1961 H1965 0.985 . S
H1962 N1957 0.984 . S
H1963 N1957 0.985 . S
H1964 N1961 0.984 . S
H1965 N1961 0.985 . S
H1966 N1960 0.984 . S
H1967 N1960 0.984 . S
H1968 N1956 0.984 . S
H1969 N1956 0.985 . S
C1970 C1971 1.363 1_545 S
C1970 C1976 1.379 . S
C1970 N1978 1.356 1_655 S
C1971 C1970 1.363 1_565 S
C1971 C1977 1.363 . S
C1972 C1973 1.363 1_565 S
C1972 C1977 1.379 . S
C1972 N1979 1.356 . S
C1973 C1972 1.363 1_545 S
C1973 C1976 1.363 . S
N1974 C1976 1.356 1_455 S
N1974 H1986 0.984 . S
N1974 H1987 0.985 . S
N1975 C1977 1.356 . S
N1975 H1980 0.984 . S
N1975 H1981 0.985 . S
C1976 C1970 1.379 . S
C1976 C1973 1.363 . S
C1976 N1974 1.356 1_655 S
C1977 C1971 1.363 . S
C1977 C1972 1.379 . S
C1977 N1975 1.356 . S
N1978 C1970 1.356 1_455 S
N1978 H1984 0.984 . S
N1978 H1985 0.984 1_545 S
N1979 C1972 1.356 . S
N1979 H1982 0.984 1_565 S
N1979 H1983 0.985 . S
H1980 N1975 0.984 . S
H1981 N1975 0.985 . S
H1982 N1979 0.984 1_545 S
H1983 N1979 0.985 . S
H1984 N1978 0.984 . S
H1985 N1978 0.984 1_565 S
H1986 N1974 0.984 . S
H1987 N1974 0.985 . S
C1988 C1989 1.363 . S
C1988 C1994 1.379 . S
C1988 N1996 1.356 . S
C1989 C1988 1.363 . S
C1989 C1995 1.363 . S
C1990 C1991 1.363 . S
C1990 C1995 1.379 . S
C1990 N1997 1.356 . S
C1991 C1990 1.363 . S
C1991 C1994 1.363 . S
N1992 C1994 1.356 . S
N1992 H2004 0.984 . S
N1992 H2005 0.985 . S
N1993 C1995 1.356 . S
N1993 H1998 0.984 . S
N1993 H1999 0.985 . S
C1994 C1988 1.379 . S
C1994 C1991 1.363 . S
C1994 N1992 1.356 . S
C1995 C1989 1.363 . S
C1995 C1990 1.379 . S
C1995 N1993 1.356 . S
N1996 C1988 1.356 . S
N1996 H2002 0.984 . S
N1996 H2003 0.984 . S
N1997 C1990 1.356 . S
N1997 H2000 0.984 . S
N1997 H2001 0.985 . S
H1998 N1993 0.984 . S
H1999 N1993 0.985 . S
H2000 N1997 0.984 . S
H2001 N1997 0.985 . S
H2002 N1996 0.984 . S
H2003 N1996 0.984 . S
H2004 N1992 0.984 . S
H2005 N1992 0.985 . S
C2006 C2007 1.363 . S
C2006 C2012 1.379 . S
C2006 N2014 1.356 . S
C2007 C2006 1.363 . S
C2007 C2013 1.363 1_565 S
C2008 C2009 1.363 . S
C2008 C2013 1.379 . S
C2008 N2015 1.356 . S
C2009 C2008 1.363 . S
C2009 C2012 1.363 1_545 S
N2010 C2012 1.356 . S
N2010 H2022 0.984 . S
N2010 H2023 0.985 . S
N2011 C2013 1.356 . S
N2011 H2016 0.984 . S
N2011 H2017 0.985 . S
C2012 C2006 1.379 . S
C2012 C2009 1.363 1_565 S
C2012 N2010 1.356 . S
C2013 C2007 1.363 1_545 S
C2013 C2008 1.379 . S
C2013 N2011 1.356 . S
N2014 C2006 1.356 . S
N2014 H2020 0.984 . S
N2014 H2021 0.984 . S
N2015 C2008 1.356 . S
N2015 H2018 0.984 . S
N2015 H2019 0.985 . S
H2016 N2011 0.984 . S
H2017 N2011 0.985 . S
H2018 N2015 0.984 . S
H2019 N2015 0.985 . S
H2020 N2014 0.984 . S
H2021 N2014 0.984 . S
H2022 N2010 0.984 . S
H2023 N2010 0.985 . S
C2024 C2025 1.363 . S
C2024 C2030 1.379 1_554 S
C2024 N2032 1.356 . S
C2025 C2024 1.363 . S
C2025 C2031 1.363 . S
C2026 C2027 1.363 . S
C2026 C2031 1.379 1_556 S
C2026 N2033 1.356 . S
C2027 C2026 1.363 . S
C2027 C2030 1.363 . S
N2028 C2030 1.356 . S
N2028 H2040 0.984 . S
N2028 H2041 0.985 . S
N2029 C2031 1.356 . S
N2029 H2034 0.984 . S
N2029 H2035 0.985 . S
C2030 C2024 1.379 1_556 S
C2030 C2027 1.363 . S
C2030 N2028 1.356 . S
C2031 C2025 1.363 . S
C2031 C2026 1.379 1_554 S
C2031 N2029 1.356 . S
N2032 C2024 1.356 . S
N2032 H2038 0.984 . S
N2032 H2039 0.984 . S
N2033 C2026 1.356 . S
N2033 H2036 0.984 . S
N2033 H2037 0.985 . S
H2034 N2029 0.984 . S
H2035 N2029 0.985 . S
H2036 N2033 0.984 . S
H2037 N2033 0.985 . S
H2038 N2032 0.984 . S
H2039 N2032 0.984 . S
H2040 N2028 0.984 . S
H2041 N2028 0.985 . S
C2042 C2043 1.363 . S
C2042 C2048 1.379 1_545 S
C2042 N2050 1.356 1_455 S
C2043 C2042 1.363 . S
C2043 C2049 1.363 . S
C2044 C2045 1.363 . S
C2044 C2049 1.379 1_565 S
C2044 N2051 1.356 . S
C2045 C2044 1.363 . S
C2045 C2048 1.363 . S
N2046 C2048 1.356 1_655 S
N2046 H2058 0.975 1_565 S
N2046 H2059 0.985 . S
N2047 C2049 1.356 . S
N2047 H2052 0.984 . S
N2047 H2053 0.975 1_545 S
C2048 C2042 1.379 1_565 S
C2048 C2045 1.363 . S
C2048 N2046 1.356 1_455 S
C2049 C2043 1.363 . S
C2049 C2044 1.379 1_545 S
C2049 N2047 1.356 . S
N2050 C2042 1.356 1_655 S
N2050 H2056 0.984 . S
N2050 H2057 0.984 . S
N2051 C2044 1.356 . S
N2051 H2054 0.984 . S
N2051 H2055 0.985 . S
H2052 N2047 0.984 . S
H2053 N2047 0.975 1_565 S
H2054 N2051 0.984 . S
H2055 N2051 0.985 . S
H2056 N2050 0.984 . S
H2057 N2050 0.984 . S
H2058 N2046 0.975 1_545 S
H2059 N2046 0.985 . S
C2060 C2061 1.363 . S
C2060 C2066 1.379 . S
C2060 N2068 1.356 . S
C2061 C2060 1.363 . S
C2061 C2067 1.363 . S
C2062 C2063 1.363 . S
C2062 C2067 1.379 . S
C2062 N2069 1.356 . S
C2063 C2062 1.363 . S
C2063 C2066 1.363 . S
N2064 C2066 1.356 . S
N2064 H2076 0.984 . S
N2064 H2077 0.985 . S
N2065 C2067 1.356 . S
N2065 H2070 0.984 . S
N2065 H2071 0.985 . S
C2066 C2060 1.379 . S
C2066 C2063 1.363 . S
C2066 N2064 1.356 . S
C2067 C2061 1.363 . S
C2067 C2062 1.379 . S
C2067 N2065 1.356 . S
N2068 C2060 1.356 . S
N2068 H2074 0.984 . S
N2068 H2075 0.984 . S
N2069 C2062 1.356 . S
N2069 H2072 0.984 . S
N2069 H2073 0.985 . S
H2070 N2065 0.984 . S
H2071 N2065 0.985 . S
H2072 N2069 0.984 . S
H2073 N2069 0.985 . S
H2074 N2068 0.984 . S
H2075 N2068 0.984 . S
H2076 N2064 0.984 . S
H2077 N2064 0.985 . S
C2078 C2079 1.363 . S
C2078 C2084 1.379 1_565 S
C2078 N2086 1.356 . S
C2079 C2078 1.363 . S
C2079 C2085 1.363 . S
C2080 C2081 1.363 . S
C2080 C2085 1.379 1_545 S
C2080 N2087 1.356 . S
C2081 C2080 1.363 . S
C2081 C2084 1.363 . S
N2082 C2084 1.356 . S
N2082 H2094 0.984 . S
N2082 H2095 0.985 . S
N2083 C2085 1.356 . S
N2083 H2088 0.984 . S
N2083 H2089 0.985 . S
C2084 C2078 1.379 1_545 S
C2084 C2081 1.363 . S
C2084 N2082 1.356 . S
C2085 C2079 1.363 . S
C2085 C2080 1.379 1_565 S
C2085 N2083 1.356 . S
N2086 C2078 1.356 . S
N2086 H2092 0.984 . S
N2086 H2093 0.984 . S
N2087 C2080 1.356 . S
N2087 H2090 0.984 . S
N2087 H2091 0.985 . S
H2088 N2083 0.984 . S
H2089 N2083 0.985 . S
H2090 N2087 0.984 . S
H2091 N2087 0.985 . S
H2092 N2086 0.984 . S
H2093 N2086 0.984 . S
H2094 N2082 0.984 . S
H2095 N2082 0.985 . S
C2096 C2097 1.363 . S
C2096 C2102 1.379 . S
C2096 N2104 1.356 . S
C2097 C2096 1.363 . S
C2097 C2103 1.363 . S
C2098 C2099 1.363 . S
C2098 C2103 1.379 . S
C2098 N2105 1.356 . S
C2099 C2098 1.363 . S
C2099 C2102 1.363 . S
N2100 C2102 1.356 . S
N2100 H2112 0.984 . S
N2100 H2113 0.985 . S
N2101 C2103 1.356 . S
N2101 H2106 0.984 . S
N2101 H2107 0.985 . S
C2102 C2096 1.379 . S
C2102 C2099 1.363 . S
C2102 N2100 1.356 . S
C2103 C2097 1.363 . S
C2103 C2098 1.379 . S
C2103 N2101 1.356 . S
N2104 C2096 1.356 . S
N2104 H2110 0.984 . S
N2104 H2111 0.984 . S
N2105 C2098 1.356 . S
N2105 H2108 0.984 . S
N2105 H2109 0.985 . S
H2106 N2101 0.984 . S
H2107 N2101 0.985 . S
H2108 N2105 0.984 . S
H2109 N2105 0.985 . S
H2110 N2104 0.984 . S
H2111 N2104 0.984 . S
H2112 N2100 0.984 . S
H2113 N2100 0.985 . S
C2114 C2115 1.363 . S
C2114 C2120 1.379 . S
C2114 N2122 1.356 . S
C2115 C2114 1.363 . S
C2115 C2121 1.363 . S
C2116 C2117 1.363 . S
C2116 C2121 1.379 . S
C2116 N2123 1.356 . S
C2117 C2116 1.363 . S
C2117 C2120 1.363 . S
N2118 C2120 1.356 . S
N2118 H2130 0.984 . S
N2118 H2131 0.985 . S
N2119 C2121 1.356 . S
N2119 H2124 0.984 . S
N2119 H2125 0.985 . S
C2120 C2114 1.379 . S
C2120 C2117 1.363 . S
C2120 N2118 1.356 . S
C2121 C2115 1.363 . S
C2121 C2116 1.379 . S
C2121 N2119 1.356 . S
N2122 C2114 1.356 . S
N2122 H2128 0.984 . S
N2122 H2129 0.984 . S
N2123 C2116 1.356 . S
N2123 H2126 0.984 . S
N2123 H2127 0.985 . S
H2124 N2119 0.984 . S
H2125 N2119 0.985 . S
H2126 N2123 0.984 . S
H2127 N2123 0.985 . S
H2128 N2122 0.984 . S
H2129 N2122 0.984 . S
H2130 N2118 0.984 . S
H2131 N2118 0.985 . S
C2132 C2133 1.363 . S
C2132 C2138 1.379 1_554 S
C2132 N2140 1.356 . S
C2133 C2132 1.363 . S
C2133 C2139 1.363 . S
C2134 C2135 1.363 . S
C2134 C2139 1.379 1_556 S
C2134 N2141 1.356 . S
C2135 C2134 1.363 . S
C2135 C2138 1.363 . S
N2136 C2138 1.356 . S
N2136 H2148 0.984 . S
N2136 H2149 0.985 . S
N2137 C2139 1.356 . S
N2137 H2142 0.984 . S
N2137 H2143 0.985 . S
C2138 C2132 1.379 1_556 S
C2138 C2135 1.363 . S
C2138 N2136 1.356 . S
C2139 C2133 1.363 . S
C2139 C2134 1.379 1_554 S
C2139 N2137 1.356 . S
N2140 C2132 1.356 . S
N2140 H2146 0.984 . S
N2140 H2147 0.984 . S
N2141 C2134 1.356 . S
N2141 H2144 0.984 . S
N2141 H2145 0.985 . S
H2142 N2137 0.984 . S
H2143 N2137 0.985 . S
H2144 N2141 0.984 . S
H2145 N2141 0.985 . S
H2146 N2140 0.984 . S
H2147 N2140 0.984 . S
H2148 N2136 0.984 . S
H2149 N2136 0.985 . S
C2150 C2151 1.363 . S
C2150 C2156 1.379 . S
C2150 N2158 1.356 1_455 S
C2151 C2150 1.363 . S
C2151 C2157 1.363 . S
C2152 C2153 1.363 . S
C2152 C2157 1.379 . S
C2152 N2159 1.356 . S
C2153 C2152 1.363 . S
C2153 C2156 1.363 . S
N2154 C2156 1.356 1_655 S
N2154 H2166 0.984 . S
N2154 H2167 0.985 . S
N2155 C2157 1.356 . S
N2155 H2160 0.984 . S
N2155 H2161 0.985 . S
C2156 C2150 1.379 . S
C2156 C2153 1.363 . S
C2156 N2154 1.356 1_455 S
C2157 C2151 1.363 . S
C2157 C2152 1.379 . S
C2157 N2155 1.356 . S
N2158 C2150 1.356 1_655 S
N2158 H2164 0.984 . S
N2158 H2165 0.984 . S
N2159 C2152 1.356 . S
N2159 H2162 0.984 . S
N2159 H2163 0.985 . S
H2160 N2155 0.984 . S
H2161 N2155 0.985 . S
H2162 N2159 0.984 . S
H2163 N2159 0.985 . S
H2164 N2158 0.984 . S
H2165 N2158 0.984 . S
H2166 N2154 0.984 . S
H2167 N2154 0.985 . S
C2168 C2169 1.363 . S
C2168 C2174 1.379 . S
C2168 N2176 1.356 . S
C2169 C2168 1.363 . S
C2169 C2175 1.363 . S
C2170 C2171 1.363 . S
C2170 C2175 1.379 . S
C2170 N2177 1.356 . S
C2171 C2170 1.363 . S
C2171 C2174 1.363 . S
N2172 C2174 1.356 . S
N2172 H2184 0.984 . S
N2172 H2185 0.985 . S
N2173 C2175 1.356 . S
N2173 H2178 0.984 . S
N2173 H2179 0.985 . S
C2174 C2168 1.379 . S
C2174 C2171 1.363 . S
C2174 N2172 1.356 . S
C2175 C2169 1.363 . S
C2175 C2170 1.379 . S
C2175 N2173 1.356 . S
N2176 C2168 1.356 . S
N2176 H2182 0.984 . S
N2176 H2183 0.984 . S
N2177 C2170 1.356 . S
N2177 H2180 0.984 . S
N2177 H2181 0.985 . S
H2178 N2173 0.984 . S
H2179 N2173 0.985 . S
H2180 N2177 0.984 . S
H2181 N2177 0.985 . S
H2182 N2176 0.984 . S
H2183 N2176 0.984 . S
H2184 N2172 0.984 . S
H2185 N2172 0.985 . S
C2186 C2187 1.363 . S
C2186 C2192 1.379 . S
C2186 N2194 1.356 . S
C2187 C2186 1.363 . S
C2187 C2193 1.363 . S
C2188 C2189 1.363 . S
C2188 C2193 1.379 . S
C2188 N2195 1.356 . S
C2189 C2188 1.363 . S
C2189 C2192 1.363 . S
N2190 C2192 1.356 . S
N2190 H2202 0.984 . S
N2190 H2203 0.985 . S
N2191 C2193 1.356 . S
N2191 H2196 0.984 . S
N2191 H2197 0.985 . S
C2192 C2186 1.379 . S
C2192 C2189 1.363 . S
C2192 N2190 1.356 . S
C2193 C2187 1.363 . S
C2193 C2188 1.379 . S
C2193 N2191 1.356 . S
N2194 C2186 1.356 . S
N2194 H2200 0.984 . S
N2194 H2201 0.984 . S
N2195 C2188 1.356 . S
N2195 H2198 0.984 . S
N2195 H2199 0.985 . S
H2196 N2191 0.984 . S
H2197 N2191 0.985 . S
H2198 N2195 0.984 . S
H2199 N2195 0.985 . S
H2200 N2194 0.984 . S
H2201 N2194 0.984 . S
H2202 N2190 0.984 . S
H2203 N2190 0.985 . S
C2204 C2205 1.363 . S
C2204 C2210 1.379 1_556 S
C2204 N2212 1.356 . S
C2205 C2204 1.363 . S
C2205 C2211 1.363 . S
C2206 C2207 1.363 . S
C2206 C2211 1.379 1_554 S
C2206 N2213 1.356 . S
C2207 C2206 1.363 . S
C2207 C2210 1.363 . S
N2208 C2210 1.356 . S
N2208 H2220 0.984 . S
N2208 H2221 0.985 . S
N2209 C2211 1.356 . S
N2209 H2214 0.984 . S
N2209 H2215 0.985 . S
C2210 C2204 1.379 1_554 S
C2210 C2207 1.363 . S
C2210 N2208 1.356 . S
C2211 C2205 1.363 . S
C2211 C2206 1.379 1_556 S
C2211 N2209 1.356 . S
N2212 C2204 1.356 . S
N2212 H2218 0.984 . S
N2212 H2219 0.984 . S
N2213 C2206 1.356 . S
N2213 H2216 0.984 . S
N2213 H2217 0.985 . S
H2214 N2209 0.984 . S
H2215 N2209 0.985 . S
H2216 N2213 0.984 . S
H2217 N2213 0.985 . S
H2218 N2212 0.984 . S
H2219 N2212 0.984 . S
H2220 N2208 0.984 . S
H2221 N2208 0.985 . S
C2222 C2223 1.363 . S
C2222 C2228 1.379 . S
C2222 N2230 1.356 1_655 S
C2223 C2222 1.363 . S
C2223 C2229 1.363 . S
C2224 C2225 1.363 . S
C2224 C2229 1.379 . S
C2224 N2231 1.356 . S
C2225 C2224 1.363 . S
C2225 C2228 1.363 . S
N2226 C2228 1.356 1_455 S
N2226 H2238 0.984 . S
N2226 H2239 0.985 . S
N2227 C2229 1.356 . S
N2227 H2232 0.984 . S
N2227 H2233 0.985 . S
C2228 C2222 1.379 . S
C2228 C2225 1.363 . S
C2228 N2226 1.356 1_655 S
C2229 C2223 1.363 . S
C2229 C2224 1.379 . S
C2229 N2227 1.356 . S
N2230 C2222 1.356 1_455 S
N2230 H2236 0.984 . S
N2230 H2237 0.984 . S
N2231 C2224 1.356 . S
N2231 H2234 0.984 . S
N2231 H2235 0.985 . S
H2232 N2227 0.984 . S
H2233 N2227 0.985 . S
H2234 N2231 0.984 . S
H2235 N2231 0.985 . S
H2236 N2230 0.984 . S
H2237 N2230 0.984 . S
H2238 N2226 0.984 . S
H2239 N2226 0.985 . S
C2240 C2241 1.363 . S
C2240 C2246 1.379 . S
C2240 N2248 1.356 . S
C2241 C2240 1.363 . S
C2241 C2247 1.363 . S
C2242 C2243 1.363 . S
C2242 C2247 1.379 . S
C2242 N2249 1.356 . S
C2243 C2242 1.363 . S
C2243 C2246 1.363 . S
N2244 C2246 1.356 . S
N2244 H2256 0.984 . S
N2244 H2257 0.985 . S
N2245 C2247 1.356 . S
N2245 H2250 0.984 . S
N2245 H2251 0.985 . S
C2246 C2240 1.379 . S
C2246 C2243 1.363 . S
C2246 N2244 1.356 . S
C2247 C2241 1.363 . S
C2247 C2242 1.379 . S
C2247 N2245 1.356 . S
N2248 C2240 1.356 . S
N2248 H2254 0.984 . S
N2248 H2255 0.984 . S
N2249 C2242 1.356 . S
N2249 H2252 0.984 . S
N2249 H2253 0.985 . S
H2250 N2245 0.984 . S
H2251 N2245 0.985 . S
H2252 N2249 0.984 . S
H2253 N2249 0.985 . S
H2254 N2248 0.984 . S
H2255 N2248 0.984 . S
H2256 N2244 0.984 . S
H2257 N2244 0.985 . S
C2258 C2259 1.363 . S
C2258 C2264 1.379 . S
C2258 N2266 1.356 . S
C2259 C2258 1.363 . S
C2259 C2265 1.363 . S
C2260 C2261 1.363 . S
C2260 C2265 1.379 . S
C2260 N2267 1.356 . S
C2261 C2260 1.363 . S
C2261 C2264 1.363 . S
N2262 C2264 1.356 . S
N2262 H2274 0.984 . S
N2262 H2275 0.985 . S
N2263 C2265 1.356 . S
N2263 H2268 0.984 . S
N2263 H2269 0.985 . S
C2264 C2258 1.379 . S
C2264 C2261 1.363 . S
C2264 N2262 1.356 . S
C2265 C2259 1.363 . S
C2265 C2260 1.379 . S
C2265 N2263 1.356 . S
N2266 C2258 1.356 . S
N2266 H2272 0.984 . S
N2266 H2273 0.984 . S
N2267 C2260 1.356 . S
N2267 H2270 0.984 . S
N2267 H2271 0.985 . S
H2268 N2263 0.984 . S
H2269 N2263 0.985 . S
H2270 N2267 0.984 . S
H2271 N2267 0.985 . S
H2272 N2266 0.984 . S
H2273 N2266 0.984 . S
H2274 N2262 0.984 . S
H2275 N2262 0.985 . S
C2276 C2277 1.363 . S
C2276 C2282 1.379 . S
C2276 N2284 1.356 . S
C2277 C2276 1.363 . S
C2277 C2283 1.363 . S
C2278 C2279 1.363 . S
C2278 C2283 1.379 . S
C2278 N2285 1.356 . S
C2279 C2278 1.363 . S
C2279 C2282 1.363 . S
N2280 C2282 1.356 . S
N2280 H2292 0.984 . S
N2280 H2293 0.985 . S
N2281 C2283 1.356 . S
N2281 H2286 0.984 . S
N2281 H2287 0.985 . S
C2282 C2276 1.379 . S
C2282 C2279 1.363 . S
C2282 N2280 1.356 . S
C2283 C2277 1.363 . S
C2283 C2278 1.379 . S
C2283 N2281 1.356 . S
N2284 C2276 1.356 . S
N2284 H2290 0.984 . S
N2284 H2291 0.984 . S
N2285 C2278 1.356 . S
N2285 H2288 0.984 . S
N2285 H2289 0.985 . S
H2286 N2281 0.984 . S
H2287 N2281 0.985 . S
H2288 N2285 0.984 . S
H2289 N2285 0.985 . S
H2290 N2284 0.984 . S
H2291 N2284 0.984 . S
H2292 N2280 0.984 . S
H2293 N2280 0.985 . S
C2294 C2295 1.363 . S
C2294 C2300 1.379 . S
C2294 N2302 1.356 . S
C2295 C2294 1.363 . S
C2295 C2301 1.363 . S
C2296 C2297 1.363 . S
C2296 C2301 1.379 . S
C2296 N2303 1.356 . S
C2297 C2296 1.363 . S
C2297 C2300 1.363 . S
N2298 C2300 1.356 . S
N2298 H2310 0.984 . S
N2298 H2311 0.985 . S
N2299 C2301 1.356 . S
N2299 H2304 0.984 . S
N2299 H2305 0.985 . S
C2300 C2294 1.379 . S
C2300 C2297 1.363 . S
C2300 N2298 1.356 . S
C2301 C2295 1.363 . S
C2301 C2296 1.379 . S
C2301 N2299 1.356 . S
N2302 C2294 1.356 . S
N2302 H2308 0.984 . S
N2302 H2309 0.984 . S
N2303 C2296 1.356 . S
N2303 H2306 0.984 . S
N2303 H2307 0.985 . S
H2304 N2299 0.984 . S
H2305 N2299 0.985 . S
H2306 N2303 0.984 . S
H2307 N2303 0.985 . S
H2308 N2302 0.984 . S
H2309 N2302 0.984 . S
H2310 N2298 0.984 . S
H2311 N2298 0.985 . S
C2312 C2313 1.363 . S
C2312 C2318 1.379 . S
C2312 N2320 1.356 . S
C2313 C2312 1.363 . S
C2313 C2319 1.363 . S
C2314 C2315 1.363 . S
C2314 C2319 1.379 . S
C2314 N2321 1.356 . S
C2315 C2314 1.363 . S
C2315 C2318 1.363 . S
N2316 C2318 1.356 . S
N2316 H2328 0.984 . S
N2316 H2329 0.985 . S
N2317 C2319 1.356 . S
N2317 H2322 0.984 . S
N2317 H2323 0.985 . S
C2318 C2312 1.379 . S
C2318 C2315 1.363 . S
C2318 N2316 1.356 . S
C2319 C2313 1.363 . S
C2319 C2314 1.379 . S
C2319 N2317 1.356 . S
N2320 C2312 1.356 . S
N2320 H2326 0.984 . S
N2320 H2327 0.984 . S
N2321 C2314 1.356 . S
N2321 H2324 0.984 . S
N2321 H2325 0.985 . S
H2322 N2317 0.984 . S
H2323 N2317 0.985 . S
H2324 N2321 0.984 . S
H2325 N2321 0.985 . S
H2326 N2320 0.984 . S
H2327 N2320 0.984 . S
H2328 N2316 0.984 . S
H2329 N2316 0.985 . S
C2330 C2331 1.363 . S
C2330 C2336 1.379 . S
C2330 N2338 1.356 . S
C2331 C2330 1.363 . S
C2331 C2337 1.363 . S
C2332 C2333 1.363 . S
C2332 C2337 1.379 . S
C2332 N2339 1.356 . S
C2333 C2332 1.363 . S
C2333 C2336 1.363 . S
N2334 C2336 1.356 . S
N2334 H2346 0.984 . S
N2334 H2347 0.985 . S
N2335 C2337 1.356 . S
N2335 H2340 0.984 . S
N2335 H2341 0.985 . S
C2336 C2330 1.379 . S
C2336 C2333 1.363 . S
C2336 N2334 1.356 . S
C2337 C2331 1.363 . S
C2337 C2332 1.379 . S
C2337 N2335 1.356 . S
N2338 C2330 1.356 . S
N2338 H2344 0.984 . S
N2338 H2345 0.984 . S
N2339 C2332 1.356 . S
N2339 H2342 0.984 . S
N2339 H2343 0.985 . S
H2340 N2335 0.984 . S
H2341 N2335 0.985 . S
H2342 N2339 0.984 . S
H2343 N2339 0.985 . S
H2344 N2338 0.984 . S
H2345 N2338 0.984 . S
H2346 N2334 0.984 . S
H2347 N2334 0.985 . S
C2348 C2349 1.363 . S
C2348 C2354 1.379 . S
C2348 N2356 1.356 . S
C2349 C2348 1.363 . S
C2349 C2355 1.363 . S
C2350 C2351 1.363 . S
C2350 C2355 1.379 . S
C2350 N2357 1.356 . S
C2351 C2350 1.363 . S
C2351 C2354 1.363 . S
N2352 C2354 1.356 . S
N2352 H2364 0.984 . S
N2352 H2365 0.985 . S
N2353 C2355 1.356 . S
N2353 H2358 0.984 . S
N2353 H2359 0.985 . S
C2354 C2348 1.379 . S
C2354 C2351 1.363 . S
C2354 N2352 1.356 . S
C2355 C2349 1.363 . S
C2355 C2350 1.379 . S
C2355 N2353 1.356 . S
N2356 C2348 1.356 . S
N2356 H2362 0.984 . S
N2356 H2363 0.984 . S
N2357 C2350 1.356 . S
N2357 H2360 0.984 . S
N2357 H2361 0.985 . S
H2358 N2353 0.984 . S
H2359 N2353 0.985 . S
H2360 N2357 0.984 . S
H2361 N2357 0.985 . S
H2362 N2356 0.984 . S
H2363 N2356 0.984 . S
H2364 N2352 0.984 . S
H2365 N2352 0.985 . S
C2366 C2367 1.363 . S
C2366 C2372 1.379 . S
C2366 N2374 1.356 . S
C2367 C2366 1.363 . S
C2367 C2373 1.363 . S
C2368 C2369 1.363 . S
C2368 C2373 1.379 . S
C2368 N2375 1.356 . S
C2369 C2368 1.363 . S
C2369 C2372 1.363 . S
N2370 C2372 1.356 . S
N2370 H2382 0.984 . S
N2370 H2383 0.985 . S
N2371 C2373 1.356 . S
N2371 H2376 0.984 . S
N2371 H2377 0.985 . S
C2372 C2366 1.379 . S
C2372 C2369 1.363 . S
C2372 N2370 1.356 . S
C2373 C2367 1.363 . S
C2373 C2368 1.379 . S
C2373 N2371 1.356 . S
N2374 C2366 1.356 . S
N2374 H2380 0.984 . S
N2374 H2381 0.984 . S
N2375 C2368 1.356 . S
N2375 H2378 0.984 . S
N2375 H2379 0.985 . S
H2376 N2371 0.984 . S
H2377 N2371 0.985 . S
H2378 N2375 0.984 . S
H2379 N2375 0.985 . S
H2380 N2374 0.984 . S
H2381 N2374 0.984 . S
H2382 N2370 0.984 . S
H2383 N2370 0.985 . S
C2384 C2385 1.363 . S
C2384 C2390 1.379 . S
C2384 N2392 1.356 . S
C2385 C2384 1.363 . S
C2385 C2391 1.363 . S
C2386 C2387 1.363 . S
C2386 C2391 1.379 . S
C2386 N2393 1.356 . S
C2387 C2386 1.363 . S
C2387 C2390 1.363 . S
N2388 C2390 1.356 . S
N2388 H2400 0.984 . S
N2388 H2401 0.985 . S
N2389 C2391 1.356 . S
N2389 H2394 0.984 . S
N2389 H2395 0.985 . S
C2390 C2384 1.379 . S
C2390 C2387 1.363 . S
C2390 N2388 1.356 . S
C2391 C2385 1.363 . S
C2391 C2386 1.379 . S
C2391 N2389 1.356 . S
N2392 C2384 1.356 . S
N2392 H2398 0.984 . S
N2392 H2399 0.984 . S
N2393 C2386 1.356 . S
N2393 H2396 0.984 . S
N2393 H2397 0.985 . S
H2394 N2389 0.984 . S
H2395 N2389 0.985 . S
H2396 N2393 0.984 . S
H2397 N2393 0.985 . S
H2398 N2392 0.984 . S
H2399 N2392 0.984 . S
H2400 N2388 0.984 . S
H2401 N2388 0.985 . S
C2402 C2403 1.363 . S
C2402 C2408 1.379 . S
C2402 N2410 1.356 . S
C2403 C2402 1.363 . S
C2403 C2409 1.363 . S
C2404 C2405 1.363 . S
C2404 C2409 1.379 . S
C2404 N2411 1.356 . S
C2405 C2404 1.363 . S
C2405 C2408 1.363 . S
N2406 C2408 1.356 . S
N2406 H2418 0.984 . S
N2406 H2419 0.985 . S
N2407 C2409 1.356 . S
N2407 H2412 0.984 . S
N2407 H2413 0.985 . S
C2408 C2402 1.379 . S
C2408 C2405 1.363 . S
C2408 N2406 1.356 . S
C2409 C2403 1.363 . S
C2409 C2404 1.379 . S
C2409 N2407 1.356 . S
N2410 C2402 1.356 . S
N2410 H2416 0.984 . S
N2410 H2417 0.984 . S
N2411 C2404 1.356 . S
N2411 H2414 0.984 . S
N2411 H2415 0.985 . S
H2412 N2407 0.984 . S
H2413 N2407 0.985 . S
H2414 N2411 0.984 . S
H2415 N2411 0.985 . S
H2416 N2410 0.984 . S
H2417 N2410 0.984 . S
H2418 N2406 0.984 . S
H2419 N2406 0.985 . S
C2420 C2421 1.363 . S
C2420 C2426 1.379 . S
C2420 N2428 1.356 . S
C2421 C2420 1.363 . S
C2421 C2427 1.363 . S
C2422 C2423 1.363 . S
C2422 C2427 1.379 . S
C2422 N2429 1.356 . S
C2423 C2422 1.363 . S
C2423 C2426 1.363 . S
N2424 C2426 1.356 . S
N2424 H2436 0.984 . S
N2424 H2437 0.985 . S
N2425 C2427 1.356 . S
N2425 H2430 0.984 . S
N2425 H2431 0.985 . S
C2426 C2420 1.379 . S
C2426 C2423 1.363 . S
C2426 N2424 1.356 . S
C2427 C2421 1.363 . S
C2427 C2422 1.379 . S
C2427 N2425 1.356 . S
N2428 C2420 1.356 . S
N2428 H2434 0.984 . S
N2428 H2435 0.984 . S
N2429 C2422 1.356 . S
N2429 H2432 0.984 . S
N2429 H2433 0.985 . S
H2430 N2425 0.984 . S
H2431 N2425 0.985 . S
H2432 N2429 0.984 . S
H2433 N2429 0.985 . S
H2434 N2428 0.984 . S
H2435 N2428 0.984 . S
H2436 N2424 0.984 . S
H2437 N2424 0.985 . S
C2438 C2439 1.363 . S
C2438 C2444 1.379 . S
C2438 N2446 1.356 . S
C2439 C2438 1.363 . S
C2439 C2445 1.363 . S
C2440 C2441 1.363 . S
C2440 C2445 1.379 . S
C2440 N2447 1.356 . S
C2441 C2440 1.363 . S
C2441 C2444 1.363 . S
N2442 C2444 1.356 . S
N2442 H2454 0.984 . S
N2442 H2455 0.985 . S
N2443 C2445 1.356 . S
N2443 H2448 0.984 . S
N2443 H2449 0.985 . S
C2444 C2438 1.379 . S
C2444 C2441 1.363 . S
C2444 N2442 1.356 . S
C2445 C2439 1.363 . S
C2445 C2440 1.379 . S
C2445 N2443 1.356 . S
N2446 C2438 1.356 . S
N2446 H2452 0.984 . S
N2446 H2453 0.984 . S
N2447 C2440 1.356 . S
N2447 H2450 0.984 . S
N2447 H2451 0.985 . S
H2448 N2443 0.984 . S
H2449 N2443 0.985 . S
H2450 N2447 0.984 . S
H2451 N2447 0.985 . S
H2452 N2446 0.984 . S
H2453 N2446 0.984 . S
H2454 N2442 0.984 . S
H2455 N2442 0.985 . S
C2456 C2457 1.363 . S
C2456 C2462 1.379 . S
C2456 N2464 1.356 . S
C2457 C2456 1.363 . S
C2457 C2463 1.363 . S
C2458 C2459 1.363 . S
C2458 C2463 1.379 . S
C2458 N2465 1.356 . S
C2459 C2458 1.363 . S
C2459 C2462 1.363 . S
N2460 C2462 1.356 . S
N2460 H2472 0.984 . S
N2460 H2473 0.985 . S
N2461 C2463 1.356 . S
N2461 H2466 0.984 . S
N2461 H2467 0.985 . S
C2462 C2456 1.379 . S
C2462 C2459 1.363 . S
C2462 N2460 1.356 . S
C2463 C2457 1.363 . S
C2463 C2458 1.379 . S
C2463 N2461 1.356 . S
N2464 C2456 1.356 . S
N2464 H2470 0.984 . S
N2464 H2471 0.984 . S
N2465 C2458 1.356 . S
N2465 H2468 0.984 . S
N2465 H2469 0.985 . S
H2466 N2461 0.984 . S
H2467 N2461 0.985 . S
H2468 N2465 0.984 . S
H2469 N2465 0.985 . S
H2470 N2464 0.984 . S
H2471 N2464 0.984 . S
H2472 N2460 0.984 . S
H2473 N2460 0.985 . S
C2474 C2475 1.363 . S
C2474 C2480 1.379 . S
C2474 N2482 1.356 . S
C2475 C2474 1.363 . S
C2475 C2481 1.363 . S
C2476 C2477 1.363 . S
C2476 C2481 1.379 . S
C2476 N2483 1.356 . S
C2477 C2476 1.363 . S
C2477 C2480 1.363 . S
N2478 C2480 1.356 . S
N2478 H2490 0.984 . S
N2478 H2491 0.985 . S
N2479 C2481 1.356 . S
N2479 H2484 0.984 . S
N2479 H2485 0.985 . S
C2480 C2474 1.379 . S
C2480 C2477 1.363 . S
C2480 N2478 1.356 . S
C2481 C2475 1.363 . S
C2481 C2476 1.379 . S
C2481 N2479 1.356 . S
N2482 C2474 1.356 . S
N2482 H2488 0.984 . S
N2482 H2489 0.984 . S
N2483 C2476 1.356 . S
N2483 H2486 0.984 . S
N2483 H2487 0.985 . S
H2484 N2479 0.984 . S
H2485 N2479 0.985 . S
H2486 N2483 0.984 . S
H2487 N2483 0.985 . S
H2488 N2482 0.984 . S
H2489 N2482 0.984 . S
H2490 N2478 0.984 . S
H2491 N2478 0.985 . S
C2492 C2493 1.363 . S
C2492 C2498 1.379 . S
C2492 N2500 1.356 . S
C2493 C2492 1.363 . S
C2493 C2499 1.363 . S
C2494 C2495 1.363 . S
C2494 C2499 1.379 . S
C2494 N2501 1.356 . S
C2495 C2494 1.363 . S
C2495 C2498 1.363 . S
N2496 C2498 1.356 . S
N2496 H2508 0.984 . S
N2496 H2509 0.985 . S
N2497 C2499 1.356 . S
N2497 H2502 0.984 . S
N2497 H2503 0.985 . S
C2498 C2492 1.379 . S
C2498 C2495 1.363 . S
C2498 N2496 1.356 . S
C2499 C2493 1.363 . S
C2499 C2494 1.379 . S
C2499 N2497 1.356 . S
N2500 C2492 1.356 . S
N2500 H2506 0.984 . S
N2500 H2507 0.984 . S
N2501 C2494 1.356 . S
N2501 H2504 0.984 . S
N2501 H2505 0.985 . S
H2502 N2497 0.984 . S
H2503 N2497 0.985 . S
H2504 N2501 0.984 . S
H2505 N2501 0.985 . S
H2506 N2500 0.984 . S
H2507 N2500 0.984 . S
H2508 N2496 0.984 . S
H2509 N2496 0.985 . S
C2510 C2511 1.363 . S
C2510 C2516 1.379 . S
C2510 N2518 1.356 . S
C2511 C2510 1.363 . S
C2511 C2517 1.363 . S
C2512 C2513 1.363 . S
C2512 C2517 1.379 . S
C2512 N2519 1.356 . S
C2513 C2512 1.363 . S
C2513 C2516 1.363 . S
N2514 C2516 1.356 . S
N2514 H2526 0.984 . S
N2514 H2527 0.985 . S
N2515 C2517 1.356 . S
N2515 H2520 0.984 . S
N2515 H2521 0.985 . S
C2516 C2510 1.379 . S
C2516 C2513 1.363 . S
C2516 N2514 1.356 . S
C2517 C2511 1.363 . S
C2517 C2512 1.379 . S
C2517 N2515 1.356 . S
N2518 C2510 1.356 . S
N2518 H2524 0.984 . S
N2518 H2525 0.984 . S
N2519 C2512 1.356 . S
N2519 H2522 0.984 . S
N2519 H2523 0.985 . S
H2520 N2515 0.984 . S
H2521 N2515 0.985 . S
H2522 N2519 0.984 . S
H2523 N2519 0.985 . S
H2524 N2518 0.984 . S
H2525 N2518 0.984 . S
H2526 N2514 0.984 . S
H2527 N2514 0.985 . S
C1089 C20 1.250 . S
C1091 C836 1.250 . S
C1107 C326 1.250 . S
C1109 C54 1.250 . S
C1125 C904 1.250 . S
C1127 C88 1.250 . S
C1143 C394 1.250 . S
C1145 C122 1.250 . S
C1161 C972 1.250 . S
C1163 C156 1.250 . S
C1179 C462 1.250 . S
C1181 C190 1.250 . S
C1197 C1040 1.250 . S
C1199 C224 1.250 . S
C1215 C530 1.250 . S
C1217 C258 1.250 . S
C1233 C292 1.250 . S
C1235 C564 1.250 . S
C1251 C360 1.250 . S
C1253 C632 1.250 . S
C1269 C428 1.250 . S
C1271 C700 1.250 . S
C1287 C768 1.250 . S
C1289 C496 1.250 . S
C1305 C598 1.250 . S
C1307 C870 1.250 . S
C1323 C938 1.250 . S
C1325 C666 1.250 . S
C1341 C734 1.250 . S
C1343 C1006 1.250 . S
C1359 C1074 1.250 . S
C1361 C802 1.250 . S
C1377 C5 1.741 . S
C1379 C407 1.731 . S
C1395 C39 1.741 . S
C1397 C849 1.731 . S
C1413 C339 1.731 . S
C1415 C73 1.741 . S
C1431 C107 1.741 . S
C1433 C917 1.731 . S
C1449 C475 1.731 . S
C1451 C141 1.741 . S
C1467 C1053 1.731 . S
C1469 C175 1.741 . S
C1485 C209 1.741 . S
C1487 C543 1.731 . S
C1503 C985 1.731 . S
C1505 C243 1.741 . S
C1521 C277 1.741 . S
C1523 C135 1.731 . S
C1539 C311 1.741 . S
C1541 C577 1.731 . S
C1557 C67 1.731 . S
C1559 C345 1.741 . S
C1575 C379 1.741 . S
C1577 C645 1.731 . S
C1593 C413 1.741 . S
C1595 C203 1.731 . S
C1611 C781 1.731 . S
C1613 C447 1.741 . S
C1629 C271 1.731 . S
C1631 C481 1.741 . S
C1647 C515 1.741 . S
C1649 C713 1.731 . S
C1665 C951 1.731 . S
C1667 C549 1.741 . S
C1683 C305 1.731 . S
C1685 C583 1.741 . S
C1701 C883 1.731 . S
C1703 C617 1.741 . S
C1719 C651 1.741 . S
C1721 C373 1.731 . S
C1737 C1019 1.731 . S
C1739 C685 1.741 . S
C1755 C509 1.731 . S
C1757 C719 1.741 . S
C1773 C753 1.741 . S
C1775 C1087 1.731 . S
C1791 C441 1.731 . S
C1793 C787 1.741 . S
C1809 C679 1.731 . S
C1811 C821 1.741 . S
C1827 C855 1.741 . S
C1829 C33 1.731 . S
C1845 C889 1.741 . S
C1847 C611 1.731 . S
C1863 C101 1.731 . S
C1865 C923 1.741 . S
C1881 C747 1.731 . S
C1883 C957 1.741 . S
C1899 C991 1.741 . S
C1901 C237 1.731 . S
C1917 C815 1.731 . S
C1919 C1025 1.741 . S
C1935 C169 1.731 . S
C1937 C1059 1.741 . S
C1953 C2 1.930 . S
C1955 C206 1.930 . S
C1971 C240 1.930 . S
C1973 C36 1.930 . S
C1989 C70 1.930 . S
C1991 C138 1.930 . S
C2007 C104 1.930 . S
C2009 C172 1.930 . S
C2025 C478 1.930 . S
C2027 C274 1.930 . S
C2043 C512 1.930 . S
C2045 C308 1.930 . S
C2061 C410 1.930 . S
C2063 C342 1.930 . S
C2079 C444 1.930 . S
C2081 C376 1.930 . S
C2097 C546 1.930 . S
C2099 C750 1.930 . S
C2115 C580 1.930 . S
C2117 C784 1.930 . S
C2133 C614 1.930 . S
C2135 C682 1.930 . S
C2151 C648 1.930 . S
C2153 C716 1.930 . S
C2169 C1022 1.930 . S
C2171 C818 1.930 . S
C2187 C1056 1.930 . S
C2189 C852 1.930 . S
C2205 C886 1.930 . S
C2207 C954 1.930 . S
C2223 C920 1.930 . S
C2225 C988 1.930 . S
C2241 C9 1.169 . S
C2243 C723 1.169 . S
C2259 C43 1.169 . S
C2261 C757 1.169 . S
C2277 C77 1.169 . S
C2279 C791 1.169 . S
C2295 C111 1.169 . S
C2297 C689 1.169 . S
C2313 C655 1.169 . S
C2315 C145 1.169 . S
C2331 C179 1.169 . S
C2333 C553 1.169 . S
C2349 C587 1.169 . S
C2351 C213 1.169 . S
C2367 C247 1.169 . S
C2369 C621 1.169 . S
C2385 C995 1.169 . S
C2387 C281 1.169 . S
C2403 C315 1.169 . S
C2405 C1029 1.169 . S
C2421 C1063 1.169 . S
C2423 C349 1.169 . S
C2439 C383 1.169 . S
C2441 C961 1.169 . S
C2457 C417 1.169 . S
C2459 C927 1.169 . S
C2475 C825 1.169 . S
C2477 C451 1.169 . S
C2493 C485 1.169 . S
C2495 C859 1.169 . S
C2511 C519 1.169 . S
C2513 C893 1.169 . S
