# Generated by pormake.
# Topology vmo, (7)-cn, num edge types: 1
# Building blocks:
#     Node 0, Type 0, BuildingBlock: NUHQUE_clean_sbu_2, # of connection points: 7
#     Node 1, Type 0, BuildingBlock: NUHQUE_clean_sbu_2, # of connection points: 7
#     Node 2, Type 0, BuildingBlock: NUHQUE_clean_sbu_2, # of connection points: 7
#     Node 3, Type 0, BuildingBlock: NUHQUE_clean_sbu_2, # of connection points: 7
#     Node 4, Type 0, BuildingBlock: NUHQUE_clean_sbu_2, # of connection points: 7
#     Node 5, Type 0, BuildingBlock: NUHQUE_clean_sbu_2, # of connection points: 7
#     Node 6, Type 0, BuildingBlock: NUHQUE_clean_sbu_2, # of connection points: 7
#     Node 7, Type 0, BuildingBlock: NUHQUE_clean_sbu_2, # of connection points: 7
#     Edge 8, Type (0, 0), BuildingBlock: ZUJKAS_clean_linker_0, # of connection points: 2
#     Edge 9, Type (0, 0), BuildingBlock: ZUJKAS_clean_linker_0, # of connection points: 2
#     Edge 10, Type (0, 0), BuildingBlock: ZUJKAS_clean_linker_0, # of connection points: 2
#     Edge 11, Type (0, 0), BuildingBlock: ZUJKAS_clean_linker_0, # of connection points: 2
#     Edge 12, Type (0, 0), BuildingBlock: ZUJKAS_clean_linker_0, # of connection points: 2
#     Edge 13, Type (0, 0), BuildingBlock: ZUJKAS_clean_linker_0, # of connection points: 2
#     Edge 14, Type (0, 0), BuildingBlock: ZUJKAS_clean_linker_0, # of connection points: 2
#     Edge 15, Type (0, 0), BuildingBlock: ZUJKAS_clean_linker_0, # of connection points: 2
#     Edge 16, Type (0, 0), BuildingBlock: ZUJKAS_clean_linker_0, # of connection points: 2
#     Edge 17, Type (0, 0), BuildingBlock: ZUJKAS_clean_linker_0, # of connection points: 2
#     Edge 18, Type (0, 0), BuildingBlock: ZUJKAS_clean_linker_0, # of connection points: 2
#     Edge 19, Type (0, 0), BuildingBlock: ZUJKAS_clean_linker_0, # of connection points: 2
#     Edge 20, Type (0, 0), BuildingBlock: ZUJKAS_clean_linker_0, # of connection points: 2
#     Edge 21, Type (0, 0), BuildingBlock: ZUJKAS_clean_linker_0, # of connection points: 2
#     Edge 22, Type (0, 0), BuildingBlock: ZUJKAS_clean_linker_0, # of connection points: 2
#     Edge 23, Type (0, 0), BuildingBlock: ZUJKAS_clean_linker_0, # of connection points: 2
#     Edge 24, Type (0, 0), BuildingBlock: ZUJKAS_clean_linker_0, # of connection points: 2
#     Edge 25, Type (0, 0), BuildingBlock: ZUJKAS_clean_linker_0, # of connection points: 2
#     Edge 26, Type (0, 0), BuildingBlock: ZUJKAS_clean_linker_0, # of connection points: 2
#     Edge 27, Type (0, 0), BuildingBlock: ZUJKAS_clean_linker_0, # of connection points: 2
#     Edge 28, Type (0, 0), BuildingBlock: ZUJKAS_clean_linker_0, # of connection points: 2
#     Edge 29, Type (0, 0), BuildingBlock: ZUJKAS_clean_linker_0, # of connection points: 2
#     Edge 30, Type (0, 0), BuildingBlock: ZUJKAS_clean_linker_0, # of connection points: 2
#     Edge 31, Type (0, 0), BuildingBlock: ZUJKAS_clean_linker_0, # of connection points: 2
#     Edge 32, Type (0, 0), BuildingBlock: ZUJKAS_clean_linker_0, # of connection points: 2
#     Edge 33, Type (0, 0), BuildingBlock: ZUJKAS_clean_linker_0, # of connection points: 2
#     Edge 34, Type (0, 0), BuildingBlock: ZUJKAS_clean_linker_0, # of connection points: 2
#     Edge 35, Type (0, 0), BuildingBlock: ZUJKAS_clean_linker_0, # of connection points: 2
# Relax obj value: 0.215
# Max RMSD: 0.259
# Mean RMSD: 0.259
data_MOF--net-vmo--node1-NUHQUE_clean_sbu_2--edge1-ZUJKAS_clean_linker_0
_symmetry_space_group_name_H-M    P1
_symmetry_Int_Tables_number       1
_symmetry_cell_setting            triclinic
loop_
_symmetry_equiv_pos_as_xyz
'x, y, z'
_cell_length_a     41.453381
_cell_length_b     71.735262
_cell_length_c     34.292451
_cell_angle_alpha  90.13399
_cell_angle_beta   113.43977
_cell_angle_gamma 89.852883
loop_
_atom_site_label
_atom_site_type_symbol
_atom_site_fract_x
_atom_site_fract_y
_atom_site_fract_z
_atom_type_partial_charge
O0 O 0.23673 0.44648 0.24423 0.0
Tb1 Tb 0.21573 0.43285 0.18195 0.0
Eu2 Eu 0.19146 0.39509 0.11196 0.0
C3 C 0.21455 0.44995 0.26231 0.0
O4 O 0.18145 0.44524 0.24166 0.0
C5 C 0.16099 0.40351 0.18408 0.0
O6 O 0.16034 0.38751 0.04128 0.0
C7 C 0.24593 0.37361 0.15255 0.0
C8 C 0.13243 0.3975 1.01749 0.0
O9 O 0.12242 0.41105 0.03604 0.0
C10 C 0.24054 0.42874 0.11021 0.0
C11 C 0.27916 0.36482 0.15278 0.0
C12 C 0.31341 0.372 0.17749 0.0
C13 C 0.34413 0.36181 0.18165 0.0
C14 C 0.34011 0.34461 0.16063 0.0
C15 C 0.30679 0.33722 0.13636 0.0
C16 C 0.27668 0.34745 0.13241 0.0
O17 O 0.19211 0.41084 0.20615 0.0
O18 O 0.15234 0.39867 0.14385 0.0
O19 O 0.19909 0.46085 0.15915 0.0
O20 O 0.16768 0.43807 0.12565 0.0
C21 C 0.17177 0.45607 0.12562 0.0
O22 O 0.21029 0.42042 0.08911 0.0
O23 O 0.2534 0.4296 0.15228 0.0
O24 O 0.21541 0.36748 0.12482 0.0
O25 O 0.24535 0.39153 0.16029 0.0
H26 H 0.31614 0.38501 0.19461 0.0
H27 H 0.3634 0.33683 0.16344 0.0
H28 H 0.25106 0.34135 0.11491 0.0
O29 O 0.84866 0.44041 0.28306 0.0
Tb30 Tb 0.86847 0.43613 0.35138 0.0
Eu31 Eu 0.88014 0.39412 0.46081 0.0
C32 C 0.87215 0.44424 0.26732 0.0
O33 O 0.90559 0.44267 0.29234 0.0
C34 C 0.91109 0.39944 0.39069 0.0
O35 O 0.90666 0.39161 0.53406 0.0
C36 C 0.81748 0.37908 0.42329 0.0
C37 C 0.94063 0.38781 0.5545 0.0
O38 O 0.95916 0.3846 0.53175 0.0
C39 C 0.84571 0.43318 0.42487 0.0
C40 C 0.7875 0.36767 0.42428 0.0
C41 C 0.75197 0.37334 0.401 0.0
C42 C 0.72346 0.36155 0.39761 0.0
C43 C 0.73124 0.3443 0.41872 0.0
C44 C 0.76604 0.33842 0.44188 0.0
C45 C 0.79395 0.35024 0.44476 0.0
O46 O 0.88001 0.40751 0.37381 0.0
O47 O 0.91761 0.39004 0.42632 0.0
O48 O 0.87511 0.46495 0.37009 0.0
O49 O 0.92109 0.44819 0.38289 0.0
C50 C 0.90919 0.46482 0.38616 0.0
O51 O 0.87597 0.42423 0.43989 0.0
O52 O 0.83421 0.43942 0.38541 0.0
O53 O 0.84705 0.3706 0.42771 0.0
O54 O 0.82272 0.39582 0.44021 0.0
H55 H 0.74661 0.38653 0.38427 0.0
H56 H 0.70978 0.33533 0.41728 0.0
H57 H 0.82082 0.34557 0.46175 0.0
O58 O 0.85318 0.54753 0.79123 0.0
Tb59 Tb 0.8876 0.56157 0.8494 0.0
Eu60 Eu 0.88223 0.60033 0.95986 0.0
C61 C 0.85117 0.55324 0.75386 0.0
O62 O 0.86618 0.56905 0.75155 0.0
C63 C 0.90769 0.60198 0.88167 0.0
O64 O 0.91832 0.60352 0.03133 0.0
C65 C 0.81735 0.6125 0.93096 0.0
C66 C 0.90834 0.60133 0.06335 0.0
O67 O 0.87504 0.59791 0.05453 0.0
C68 C 0.87277 0.55602 0.92686 0.0
C69 C 0.78752 0.62295 0.93497 0.0
C70 C 0.75227 0.61681 0.91299 0.0
C71 C 0.72356 0.62759 0.91311 0.0
C72 C 0.7308 0.64474 0.93478 0.0
C73 C 0.76538 0.65136 0.95558 0.0
C74 C 0.79358 0.6402 0.95627 0.0
O75 O 0.8805 0.59075 0.86347 0.0
O76 O 0.91238 0.60978 0.91898 0.0
O77 O 0.93047 0.55898 0.82766 0.0
O78 O 0.9404 0.55386 0.89251 0.0
C79 C 0.95426 0.55452 0.8646 0.0
O80 O 0.88446 0.5731 0.92838 0.0
O81 O 0.87195 0.54628 0.89399 0.0
O82 O 0.84408 0.62221 0.93011 0.0
O83 O 0.82668 0.59604 0.94909 0.0
H84 H 0.74721 0.60379 0.89549 0.0
H85 H 0.70912 0.6533 0.93449 0.0
H86 H 0.82024 0.64537 0.97167 0.0
O87 O 0.23455 0.53961 0.73839 0.0
Tb88 Tb 0.20565 0.55051 0.67383 0.0
Eu89 Eu 0.19572 0.59692 0.61322 0.0
C90 C 0.21538 0.53596 0.76044 0.0
O91 O 0.18148 0.53934 0.74226 0.0
C92 C 0.15702 0.58664 0.67979 0.0
O93 O 0.16006 0.60359 0.54267 0.0
C94 C 0.24946 0.61932 0.64857 0.0
C95 C 0.14606 0.59018 0.51392 0.0
O96 O 0.15346 0.57281 0.5262 0.0
C97 C 0.24371 0.56128 0.61706 0.0
C98 C 0.28247 0.62759 0.64754 0.0
C99 C 0.31663 0.62017 0.67138 0.0
C100 C 0.3472 0.62949 0.67242 0.0
C101 C 0.34318 0.64641 0.65041 0.0
C102 C 0.3099 0.65433 0.62815 0.0
C103 C 0.27989 0.64471 0.62644 0.0
O104 O 0.1748 0.57094 0.69329 0.0
O105 O 0.15923 0.59731 0.64926 0.0
O106 O 0.18466 0.52269 0.66727 0.0
O107 O 0.18632 0.53786 0.61122 0.0
C108 C 0.18006 0.53877 0.64623 0.0
O109 O 0.21647 0.57134 0.59311 0.0
O110 O 0.24976 0.55807 0.65736 0.0
O111 O 0.21902 0.62447 0.61899 0.0
O112 O 0.24944 0.60191 0.66047 0.0
H113 H 0.31947 0.60738 0.68916 0.0
H114 H 0.36639 0.65371 0.65148 0.0
H115 H 0.25432 0.65113 0.61019 0.0
O116 O 0.70854 0.94995 0.23496 0.0
Tb117 Tb 0.69873 0.93237 0.17928 0.0
Eu118 Eu 0.68869 0.89341 0.11502 0.0
C119 C 0.73804 0.94902 0.26921 0.0
O120 O 0.76335 0.938 0.26903 0.0
C121 C 0.65915 0.89799 0.18991 0.0
O122 O 0.65426 0.8861 0.04433 0.0
C123 C 0.74337 0.87166 0.15164 0.0
C124 C 0.64537 0.89888 1.01367 0.0
O125 O 0.65701 0.9159 1.02404 0.0
C126 C 0.73333 0.93125 0.1163 0.0
C127 C 0.77662 0.86361 0.15065 0.0
C128 C 0.81049 0.87135 0.17426 0.0
C129 C 0.84139 0.8623 0.17532 0.0
C130 C 0.83797 0.84532 0.15358 0.0
C131 C 0.80503 0.83705 0.13164 0.0
C132 C 0.77465 0.84641 0.12983 0.0
O133 O 0.68721 0.90826 0.20991 0.0
O134 O 0.65102 0.89302 0.1498 0.0
O135 O 0.6633 0.95458 0.14369 0.0
O136 O 0.65357 0.92692 0.12006 0.0
C137 C 0.64312 0.94409 0.11258 0.0
O138 O 0.70843 0.9194 0.09446 0.0
O139 O 0.74108 0.93428 0.15707 0.0
O140 O 0.71309 0.86603 0.12253 0.0
O141 O 0.74262 0.88921 0.16251 0.0
H142 H 0.81286 0.88418 0.19188 0.0
H143 H 0.86144 0.8382 0.15472 0.0
H144 H 0.74935 0.83974 0.11375 0.0
O145 O 0.36941 0.9477 0.30777 0.0
Tb146 Tb 0.39614 0.93202 0.36638 0.0
Eu147 Eu 0.37627 0.89108 0.46294 0.0
C148 C 0.37329 0.94247 0.27304 0.0
O149 O 0.38901 0.92654 0.27316 0.0
C150 C 0.40695 0.89051 0.38963 0.0
O151 O 0.40551 0.88647 0.53515 0.0
C152 C 0.311 0.87955 0.42809 0.0
C153 C 0.43002 0.89826 0.5591 0.0
O154 O 0.4373 0.91266 0.54042 0.0
C155 C 0.37533 0.93685 0.44 0.0
C156 C 0.28152 0.86887 0.43215 0.0
C157 C 0.24609 0.87488 0.41073 0.0
C158 C 0.21784 0.86399 0.4115 0.0
C159 C 0.22565 0.84686 0.43312 0.0
C160 C 0.26041 0.84035 0.45333 0.0
C161 C 0.28817 0.85163 0.45345 0.0
O162 O 0.38208 0.90316 0.37273 0.0
O163 O 0.40937 0.88197 0.42526 0.0
O164 O 0.44258 0.92933 0.35151 0.0
O165 O 0.44901 0.9369 0.41408 0.0
C166 C 0.46523 0.93326 0.38939 0.0
O167 O 0.38184 0.91911 0.43729 0.0
O168 O 0.37964 0.94722 0.41086 0.0
O169 O 0.3382 0.86994 0.42812 0.0
O170 O 0.31996 0.89583 0.44722 0.0
H171 H 0.24055 0.8879 0.39332 0.0
H172 H 0.20426 0.83826 0.43336 0.0
H173 H 0.31497 0.84658 0.46851 0.0
O174 O 0.34672 0.04739 0.79871 0.0
Tb175 Tb 0.38248 0.0619 0.85543 0.0
Eu176 Eu 0.38238 0.10203 0.96464 0.0
C177 C 0.34504 0.05213 0.76083 0.0
O178 O 0.35832 0.06822 0.75656 0.0
C179 C 0.4077 0.10185 0.88746 0.0
O180 O 0.4095 0.10411 0.03784 0.0
C181 C 0.31736 0.11392 0.92941 0.0
C182 C 0.44278 0.10918 0.05843 0.0
O183 O 0.46078 0.11393 0.03596 0.0
C184 C 0.3712 0.05851 0.9358 0.0
C185 C 0.28709 0.12429 0.93258 0.0
C186 C 0.2519 0.11846 0.90873 0.0
C187 C 0.22306 0.12989 0.90586 0.0
C188 C 0.23002 0.14693 0.92788 0.0
C189 C 0.26454 0.15301 0.95158 0.0
C190 C 0.29287 0.14148 0.95426 0.0
O191 O 0.37923 0.09139 0.87029 0.0
O192 O 0.41414 0.10991 0.92495 0.0
O193 O 0.42114 0.05838 0.82761 0.0
O194 O 0.4355 0.05181 0.89277 0.0
C195 C 0.44625 0.05237 0.86191 0.0
O196 O 0.38864 0.07403 0.93913 0.0
O197 O 0.36643 0.0484 0.90194 0.0
O198 O 0.345 0.12378 0.93202 0.0
O199 O 0.3257 0.09718 0.94633 0.0
H200 H 0.24705 0.10556 0.89082 0.0
H201 H 0.20815 0.15567 0.92633 0.0
H202 H 0.31954 0.14635 0.97149 0.0
O203 O 0.73271 0.04491 0.74444 0.0
Tb204 Tb 0.70983 0.05382 0.67774 0.0
Eu205 Eu 0.69175 0.10068 0.61495 0.0
C206 C 0.7112 0.03636 0.75849 0.0
O207 O 0.67844 0.03398 0.73163 0.0
C208 C 0.65173 0.08581 0.67763 0.0
O209 O 0.65935 0.10941 0.54543 0.0
C210 C 0.74924 0.12015 0.65325 0.0
C211 C 0.63143 0.09949 0.52154 0.0
O212 O 0.62188 0.08571 0.53976 0.0
C213 C 0.72903 0.06366 0.60523 0.0
C214 C 0.78176 0.12875 0.65163 0.0
C215 C 0.81602 0.12186 0.67683 0.0
C216 C 0.84647 0.13193 0.68018 0.0
C217 C 0.8422 0.14872 0.65773 0.0
C218 C 0.80876 0.15584 0.63282 0.0
C219 C 0.77883 0.14569 0.62963 0.0
O220 O 0.66852 0.06962 0.68789 0.0
O221 O 0.65684 0.09864 0.65261 0.0
O222 O 0.71434 0.02448 0.66486 0.0
O223 O 0.66963 0.03982 0.62389 0.0
C224 C 0.68581 0.0238 0.63038 0.0
O225 O 0.70249 0.07485 0.58574 0.0
O226 O 0.74349 0.0637 0.64718 0.0
O227 O 0.71842 0.12745 0.62949 0.0
O228 O 0.74783 0.10201 0.65776 0.0
H229 H 0.81899 0.10922 0.69517 0.0
H230 H 0.86536 0.15642 0.65998 0.0
H231 H 0.75309 0.15157 0.61158 0.0
H232 H 0.68586 0.39384 0.39693 0.0
H233 H 0.62185 0.39883 0.36079 0.0
H234 H 0.61044 0.34436 0.30368 0.0
H235 H 0.67387 0.33947 0.33904 0.0
H236 H 0.56846 0.37 0.24651 0.0
H237 H 0.54842 0.37508 0.39691 0.0
H238 H 0.57896 0.39152 0.3914 0.0
H239 H 0.58921 0.36707 0.39539 0.0
C240 C 0.66976 0.38306 0.37614 0.0
C241 C 0.68529 0.36619 0.3713 0.0
C242 C 0.63296 0.38582 0.35581 0.0
C243 C 0.6107 0.37183 0.3299 0.0
C244 C 0.62653 0.35539 0.32356 0.0
H245 H 0.39047 0.3444 0.25229 0.0
H246 H 0.45405 0.34917 0.28815 0.0
C247 C 0.66304 0.35259 0.34397 0.0
C248 C 0.57104 0.37384 0.3099 0.0
H249 H 0.49799 0.37782 0.33319 0.0
C250 C 0.55315 0.37192 0.26553 0.0
C251 C 0.55054 0.37606 0.33437 0.0
C252 C 0.56758 0.3774 0.38218 0.0
C253 C 0.51595 0.37201 0.24529 0.0
C254 C 0.49544 0.37426 0.26974 0.0
C255 C 0.51332 0.37631 0.31408 0.0
C256 C 0.45569 0.37296 0.25037 0.0
C257 C 0.49891 0.3689 0.1979 0.0
C258 C 0.43446 0.38514 0.21794 0.0
C259 C 0.39766 0.38255 0.19761 0.0
C260 C 0.3811 0.36773 0.20923 0.0
C261 C 0.40218 0.35613 0.24291 0.0
C262 C 0.43874 0.35878 0.26333 0.0
H263 H 0.51786 0.36342 0.18514 0.0
H264 H 0.47665 0.35897 0.18962 0.0
H265 H 0.48842 0.38234 0.18188 0.0
H266 H 0.44645 0.39641 0.20756 0.0
H267 H 0.38245 0.39154 0.17137 0.0
H268 H 0.38189 0.62495 0.75907 0.0
H269 H 0.44564 0.62104 0.79955 0.0
H270 H 0.45989 0.61549 0.68221 0.0
H271 H 0.39667 0.62001 0.64204 0.0
H272 H 0.49612 0.59546 0.80861 0.0
H273 H 0.525 0.65795 0.73389 0.0
H274 H 0.48088 0.65182 0.72682 0.0
H275 H 0.50143 0.64059 0.69553 0.0
C276 C 0.39857 0.62246 0.74201 0.0
C277 C 0.38406 0.62271 0.69727 0.0
C278 C 0.43517 0.62037 0.76518 0.0
C279 C 0.45821 0.61851 0.74421 0.0
C280 C 0.44327 0.61752 0.69951 0.0
H281 H 0.68973 0.6161 0.82957 0.0
H282 H 0.62607 0.61216 0.78869 0.0
C283 C 0.40689 0.61981 0.67644 0.0
C284 C 0.49768 0.61825 0.76868 0.0
H285 H 0.57405 0.63966 0.7765 0.0
C286 C 0.51304 0.60519 0.80155 0.0
C287 C 0.52032 0.63093 0.76002 0.0
C288 C 0.50609 0.64623 0.72747 0.0
C289 C 0.54987 0.60427 0.82513 0.0
C290 C 0.57241 0.61685 0.81619 0.0
C291 C 0.55711 0.62984 0.78328 0.0
C292 C 0.61161 0.61745 0.84181 0.0
C293 C 0.56441 0.58959 0.8591 0.0
C294 C 0.62521 0.62157 0.88551 0.0
C295 C 0.66154 0.62384 0.90883 0.0
C296 C 0.68563 0.62205 0.88933 0.0
C297 C 0.67218 0.61731 0.84587 0.0
C298 C 0.63565 0.61521 0.82236 0.0
H299 H 0.5456 0.57792 0.85412 0.0
H300 H 0.58961 0.58387 0.85996 0.0
H301 H 0.56947 0.59593 0.89053 0.0
H302 H 0.60757 0.62372 0.90142 0.0
H303 H 0.67079 0.62755 0.94215 0.0
H304 H 0.87462 0.86855 0.26153 0.0
H305 H 0.93808 0.87306 0.30302 0.0
H306 H 0.95502 0.87483 0.187 0.0
H307 H 0.89197 0.8703 0.14578 0.0
H308 H 0.9909 0.8482 0.30191 0.0
H309 H 1.0153 0.91867 0.25373 0.0
H310 H 0.97186 0.91068 0.24591 0.0
H311 H 0.99152 0.90345 0.21012 0.0
C312 C 0.89174 0.87055 0.24488 0.0
C313 C 0.87802 0.86935 0.20024 0.0
C314 C 0.92815 0.87293 0.26864 0.0
C315 C 0.9517 0.87448 0.24836 0.0
C316 C 0.93771 0.87406 0.20368 0.0
H317 H 0.18178 0.87432 0.32753 0.0
H318 H 0.11771 0.87762 0.2887 0.0
C319 C 0.9015 0.87147 0.18004 0.0
C320 C 0.99094 0.87489 0.27358 0.0
H321 H 0.06581 0.89998 0.29075 0.0
C322 C 1.00718 0.85964 0.29977 0.0
C323 C 1.01261 0.88961 0.27049 0.0
C324 C 0.997 0.90662 0.24385 0.0
C325 C 0.04406 0.85849 0.32201 0.0
C326 C 0.06583 0.87331 0.3194 0.0
C327 C 0.04955 0.8886 0.29317 0.0
C328 C 0.1053 0.87309 0.34361 0.0
C329 C 0.05934 0.84096 0.34681 0.0
C330 C 0.12033 0.87027 0.38786 0.0
C331 C 0.15686 0.8683 0.40996 0.0
C332 C 0.17979 0.86945 0.38878 0.0
C333 C 0.16505 0.87347 0.34497 0.0
C334 C 0.12828 0.87525 0.32267 0.0
H335 H 1.04109 0.82897 0.33492 0.0
H336 H 0.08475 0.83721 0.34511 0.0
H337 H 0.06392 0.84319 0.38063 0.0
H338 H 0.10371 0.8692 0.40539 0.0
H339 H 0.16722 0.86539 0.44373 0.0
H340 H 0.89342 0.15134 0.74672 0.0
H341 H 0.9566 0.1458 0.78453 0.0
H342 H 0.94717 0.09477 0.7143 0.0
H343 H 0.88349 0.10036 0.67619 0.0
H344 H 0.99765 0.11662 0.83557 0.0
H345 H 1.02112 0.12463 0.6878 0.0
H346 H 0.98015 0.13126 0.69084 0.0
H347 H 0.98975 0.10711 0.68651 0.0
C348 C 0.90465 0.13871 0.73996 0.0
C349 C 0.88326 0.12624 0.70857 0.0
C350 C 0.94092 0.13558 0.76154 0.0
C351 C 0.95714 0.12001 0.75203 0.0
C352 C 0.93561 0.10705 0.72194 0.0
H353 H 0.18537 0.09787 0.90493 0.0
H354 H 0.12149 0.09297 0.86703 0.0
C355 C 0.89906 0.11011 0.70051 0.0
C356 C 0.9966 0.11804 0.77244 0.0
H357 H 0.07075 0.11953 0.75117 0.0
C358 C 1.01358 0.11701 0.81702 0.0
C359 C 1.01774 0.11882 0.74855 0.0
C360 C 1.00146 0.12066 0.7008 0.0
C361 C 0.05067 0.11694 0.83815 0.0
C362 C 0.07181 0.11782 0.81427 0.0
C363 C 0.05482 0.11864 0.76967 0.0
C364 C 0.11127 0.11968 0.83503 0.0
C365 C 0.06698 0.11674 0.88608 0.0
C366 C 0.12738 0.13593 0.82867 0.0
C367 C 0.16373 0.1387 0.85016 0.0
C368 C 0.18538 0.12522 0.87844 0.0
C369 C 0.16962 0.1085 0.8833 0.0
C370 C 0.13296 0.1058 0.86196 0.0
H371 H 0.04732 0.11955 0.89989 0.0
H372 H 0.07877 0.10283 0.8972 0.0
H373 H 0.08824 0.12728 0.89845 0.0
H374 H 0.11159 0.14685 0.80804 0.0
H375 H 0.1749 0.15171 0.84542 0.0
H376 H 0.31252 0.16363 0.03057 0.0
H377 H 0.32085 0.19484 0.06265 0.0
H378 H 0.23917 0.21638 0.94878 0.0
H379 H 0.23085 0.18545 0.91653 0.0
H380 H 0.33803 0.22896 0.03441 0.0
H381 H 0.20698 0.23287 0.04201 0.0
H382 H 0.22539 0.21126 0.03298 0.0
H383 H 0.20537 0.22747 0.99012 0.0
C384 C 0.29645 0.17504 1.01233 0.0
C385 C 0.27065 0.17195 0.97121 0.0
C386 C 0.30116 0.19284 0.03074 0.0
C387 C 0.28011 0.20786 1.00845 0.0
C388 C 0.25506 0.20492 0.96703 0.0
H389 H 0.26118 0.32559 0.05718 0.0
H390 H 0.25576 0.2943 1.02631 0.0
C391 C 0.25032 0.18719 0.94866 0.0
C392 C 0.28442 0.22669 0.0281 0.0
H393 H 0.24018 0.26087 0.05628 0.0
C394 C 0.31674 0.2359 0.03949 0.0
C395 C 0.25656 0.23576 0.03456 0.0
C396 C 0.22171 0.22629 1.02467 0.0
C397 C 0.3217 0.25409 0.05624 0.0
C398 C 0.29376 0.26319 0.06248 0.0
C399 C 0.26152 0.25393 0.0513 0.0
C400 C 0.29751 0.28223 0.08104 0.0
C401 C 0.35651 0.26358 0.06608 0.0
C402 C 0.32244 0.28581 0.12225 0.0
C403 C 0.32551 0.30363 0.14 0.0
C404 C 0.30357 0.31829 0.11701 0.0
C405 C 0.27835 0.31461 0.07585 0.0
C406 C 0.27532 0.29676 0.0581 0.0
H407 H 0.37141 0.2569 0.04908 0.0
H408 H 0.35274 0.27856 0.05732 0.0
H409 H 0.37272 0.2626 0.10069 0.0
H410 H 0.33922 0.27472 0.141 0.0
H411 H 0.34468 0.30582 0.17212 0.0
H412 H 0.73312 0.30568 0.40759 0.0
H413 H 0.74199 0.27497 0.4409 0.0
H414 H 0.8242 0.29726 0.55338 0.0
H415 H 0.81469 0.32827 0.52072 0.0
H416 H 0.80118 0.25243 0.47137 0.0
H417 H 0.75942 0.272 0.60111 0.0
H418 H 0.75127 0.2867 0.55551 0.0
H419 H 0.79414 0.28608 0.59815 0.0
C420 C 0.75285 0.30413 0.43962 0.0
C421 C 0.77287 0.31953 0.4617 0.0
C422 C 0.75806 0.28652 0.45849 0.0
C423 C 0.78332 0.28386 0.4999 0.0
C424 C 0.80405 0.29906 0.5217 0.0
H425 H 0.84594 0.18756 0.66686 0.0
H426 H 0.84053 0.21816 0.63366 0.0
C427 C 0.79885 0.31674 0.50282 0.0
C428 C 0.78786 0.26514 0.51996 0.0
H429 H 0.78209 0.24153 0.60339 0.0
C430 C 0.79696 0.25003 0.5002 0.0
C431 C 0.78226 0.26201 0.55754 0.0
C432 C 0.77093 0.27749 0.5792 0.0
C433 C 0.80108 0.23195 0.51729 0.0
C434 C 0.79539 0.22883 0.55479 0.0
C435 C 0.78644 0.24394 0.57465 0.0
C436 C 0.79887 0.21002 0.57422 0.0
C437 C 0.81219 0.21643 0.49552 0.0
C438 C 0.777 0.19526 0.552 0.0
C439 C 0.78018 0.17766 0.57083 0.0
C440 C 0.80525 0.17449 0.61232 0.0
C441 C 0.82683 0.18939 0.63457 0.0
C442 C 0.8236 0.20695 0.61576 0.0
H443 H 0.82403 0.22188 0.47393 0.0
H444 H 0.83146 0.20704 0.51915 0.0
H445 H 0.78878 0.20804 0.47622 0.0
H446 H 0.75726 0.1974 0.52019 0.0
H447 H 0.7632 0.1665 0.55279 0.0
H448 H 0.75766 0.82418 0.05459 0.0
H449 H 0.75274 0.79251 1.02566 0.0
H450 H 0.8423 0.7754 0.13698 0.0
H451 H 0.84679 0.80676 0.1666 0.0
H452 H 0.80283 0.77129 1.00762 0.0
H453 H 0.76726 0.73688 0.1299 0.0
H454 H 0.76527 0.76183 0.12255 0.0
H455 H 0.80678 0.75051 0.15087 0.0
C456 C 0.77614 0.81364 0.07304 0.0
C457 C 0.80258 0.81803 0.11296 0.0
C458 C 0.77341 0.79558 0.05637 0.0
C459 C 0.79684 0.78152 0.07944 0.0
C460 C 0.82357 0.78593 0.11894 0.0
H461 H 0.816 0.66294 0.03192 0.0
H462 H 0.82557 0.6946 0.06172 0.0
C463 C 0.82635 0.80395 0.13558 0.0
C464 C 0.79354 0.76229 0.06208 0.0
H465 H 0.77867 0.71708 0.08146 0.0
C466 C 0.79744 0.75944 1.02368 0.0
C467 C 0.78669 0.74682 0.0832 0.0
C468 C 0.78094 0.7491 0.12372 0.0
C469 C 0.79505 0.74152 1.00604 0.0
C470 C 0.7879 0.72608 0.02697 0.0
C471 C 0.78427 0.72891 0.06554 0.0
C472 C 0.78279 0.70698 1.00858 0.0
C473 C 0.80076 0.73926 0.96549 0.0
C474 C 0.75542 0.70339 0.96905 0.0
C475 C 0.74999 0.68541 0.95196 0.0
C476 C 0.77163 0.6705 0.97417 0.0
C477 C 0.79905 0.67412 1.01385 0.0
C478 C 0.80444 0.69217 0.03099 0.0
H479 H 0.81571 0.75116 0.9603 0.0
H480 H 0.81515 0.72615 0.9658 0.0
H481 H 0.77487 0.73871 0.93817 0.0
H482 H 0.73798 0.71451 0.9515 0.0
H483 H 0.72892 0.68321 0.92108 0.0
H484 H 0.35017 0.68521 0.66219 0.0
H485 H 0.34304 0.71662 0.63237 0.0
H486 H 0.25493 0.69795 0.52124 0.0
H487 H 0.26197 0.66642 0.55075 0.0
H488 H 0.34456 0.72977 0.55649 0.0
H489 H 0.21418 0.7423 0.56175 0.0
H490 H 0.24228 0.72318 0.58942 0.0
H491 H 0.21634 0.72164 0.53323 0.0
C492 C 0.32951 0.6877 0.63115 0.0
C493 C 0.30656 0.67326 0.60892 0.0
C494 C 0.32538 0.70571 0.61426 0.0
C495 C 0.2981 0.70973 0.57491 0.0
C496 C 0.27567 0.69528 0.55212 0.0
H497 H 0.22431 0.80833 0.41972 0.0
H498 H 0.2349 0.77702 0.45006 0.0
C499 C 0.27975 0.67725 0.569 0.0
C500 C 0.29312 0.72906 0.55788 0.0
H501 H 0.23416 0.76502 0.52647 0.0
C502 C 0.3205 0.73752 0.55009 0.0
C503 C 0.26175 0.73919 0.54968 0.0
C504 C 0.23205 0.73122 0.55929 0.0
C505 C 0.31701 0.75566 0.53334 0.0
C506 C 0.28553 0.76572 0.52485 0.0
C507 C 0.25827 0.75729 0.53292 0.0
C508 C 0.27986 0.78485 0.50665 0.0
C509 C 0.34669 0.76369 0.52382 0.0
C510 C 0.30146 0.79976 0.52852 0.0
C511 C 0.29536 0.81777 0.5113 0.0
C512 C 0.26731 0.82125 0.47205 0.0
C513 C 0.24576 0.80625 0.45035 0.0
C514 C 0.2519 0.7883 0.46752 0.0
H515 H 0.36504 0.75268 0.5222 0.0
H516 H 0.33643 0.77142 0.49327 0.0
H517 H 0.36187 0.77358 0.54944 0.0
H518 H 0.32276 0.79752 0.55918 0.0
H519 H 0.31221 0.82903 0.52904 0.0
H520 H 0.17868 0.52641 0.80752 0.0
H521 H 0.19929 0.51135 0.8762 0.0
H522 H 0.30514 0.51101 0.88201 0.0
H523 H 0.28417 0.52587 0.81141 0.0
H524 H 0.28967 0.47812 0.90585 0.0
H525 H 0.24915 0.53141 0.99294 0.0
H526 H 0.21217 0.52517 0.94564 0.0
H527 H 0.24993 0.53606 0.94162 0.0
C528 C 0.20649 0.52336 0.82327 0.0
C529 C 0.22977 0.52748 0.80372 0.0
C530 C 0.21834 0.51486 0.86308 0.0
C531 C 0.25399 0.51046 0.8852 0.0
C532 C 0.27754 0.51449 0.86592 0.0
H533 H 0.28472 0.45957 0.13325 0.0
H534 H 0.29838 0.48029 0.08456 0.0
C535 C 0.26556 0.52299 0.82556 0.0
C536 C 0.26539 0.5004 0.92674 0.0
H537 H 0.25212 0.49953 1.01902 0.0
C538 C 0.28213 0.48302 0.93098 0.0
C539 C 0.25648 0.50683 0.96038 0.0
C540 C 0.24131 0.526 0.96006 0.0
C541 C 0.28737 0.47132 0.9659 0.0
C542 C 0.27487 0.4769 0.99709 0.0
C543 C 0.26104 0.49495 0.99481 0.0
C544 C 0.27137 0.46347 0.02846 0.0
C545 C 0.30548 0.45283 0.96832 0.0
C546 C 0.25206 0.44705 1.0135 0.0
C547 C 0.24448 0.4353 0.04105 0.0
C548 C 0.25551 0.43966 0.08448 0.0
C549 C 0.2762 0.45568 0.10013 0.0
C550 C 0.28375 0.4676 0.07222 0.0
H551 H 0.32523 0.4538 0.95405 0.0
H552 H 0.31881 0.44792 1.00163 0.0
H553 H 0.28572 0.44229 0.94988 0.0
H554 H 0.24129 0.4437 0.97993 0.0
H555 H 0.22849 0.4231 0.02772 0.0
H556 H 0.84265 0.56117 0.6725 0.0
H557 H 0.83037 0.53935 0.61361 0.0
H558 H 0.81919 0.49474 0.69133 0.0
H559 H 0.83107 0.51658 0.75044 0.0
H560 H 0.87306 0.50937 0.61821 0.0
H561 H 0.73617 0.4855 0.57756 0.0
H562 H 0.7538 0.50632 0.60838 0.0
H563 H 0.76453 0.48377 0.63295 0.0
C564 C 0.83683 0.54681 0.67689 0.0
C565 C 0.83798 0.54064 0.71633 0.0
C566 C 0.82984 0.53433 0.64312 0.0
C567 C 0.82366 0.51541 0.64786 0.0
C568 C 0.82325 0.50933 0.68659 0.0
H569 H 0.86618 0.42471 0.50892 0.0
H570 H 0.85625 0.44345 0.56267 0.0
C571 C 0.83018 0.52184 0.72046 0.0
C572 C 0.82149 0.50187 0.61394 0.0
H573 H 0.76944 0.4688 0.54588 0.0
C574 C 0.85031 0.50058 0.60232 0.0
C575 C 0.79179 0.49039 0.59312 0.0
C576 C 0.75965 0.49161 0.60327 0.0
C577 C 0.85042 0.48806 0.5709 0.0
C578 C 0.82107 0.47635 0.55065 0.0
C579 C 0.792 0.47771 0.56174 0.0
C580 C 0.82068 0.46281 0.5177 0.0
C581 C 0.88195 0.48746 0.55932 0.0
C582 C 0.8026 0.46697 0.47442 0.0
C583 C 0.80821 0.45624 0.44344 0.0
C584 C 0.83211 0.44123 0.45536 0.0
C585 C 0.84776 0.43621 0.49856 0.0
C586 C 0.84216 0.44692 0.52942 0.0
H587 H 0.90018 0.49928 0.57332 0.0
H588 H 0.89659 0.47426 0.57114 0.0
H589 H 0.87345 0.48774 0.52425 0.0
H590 H 0.78593 0.4792 0.46478 0.0
H591 H 0.79573 0.46053 0.41052 0.0
H592 H 0.9091 0.44498 0.21747 0.0
H593 H 0.90048 0.46598 0.15819 0.0
H594 H 0.80652 0.48779 0.16691 0.0
H595 H 0.81443 0.46624 0.22558 0.0
H596 H 0.79865 0.4856 0.08537 0.0
H597 H 0.9248 0.52035 0.17833 0.0
H598 H 0.93114 0.49591 0.17297 0.0
H599 H 0.90532 0.50361 0.20163 0.0
C600 C 0.8862 0.45399 0.20621 0.0
C601 C 0.86256 0.45405 0.22631 0.0
C602 C 0.88153 0.46615 0.17264 0.0
C603 C 0.85358 0.47897 0.15908 0.0
C604 C 0.82856 0.47821 0.1772 0.0
H605 H 0.87811 0.57072 1.00318 0.0
H606 H 0.86715 0.55466 0.05994 0.0
C607 C 0.83296 0.4658 0.21052 0.0
C608 C 0.85132 0.4934 0.12693 0.0
H609 H 0.90035 0.52615 0.10318 0.0
C610 C 0.82072 0.49463 0.08946 0.0
C611 C 0.87958 0.50569 0.13273 0.0
C612 C 0.91187 0.50649 0.17382 0.0
C613 C 0.8185 0.50698 0.05666 0.0
C614 C 0.84806 0.51801 0.06089 0.0
C615 C 0.87781 0.51755 0.09942 0.0
C616 C 0.85 0.52885 1.02483 0.0
C617 C 0.78441 0.50803 1.01788 0.0
C618 C 0.84376 0.51989 0.98607 0.0
C619 C 0.8494 0.52918 0.95363 0.0
C620 C 0.86211 0.54758 0.95933 0.0
C621 C 0.86776 0.55672 0.99771 0.0
C622 C 0.86172 0.54747 0.03019 0.0
H623 H 0.76163 0.50504 1.02621 0.0
H624 H 0.78053 0.52194 1.00258 0.0
H625 H 0.78457 0.49732 0.99456 0.0
H626 H 0.83594 0.50539 0.98142 0.0
H627 H 0.84513 0.52161 0.92462 0.0
H628 H 0.26179 0.57114 0.5527 0.0
H629 H 0.26714 0.5505 0.49879 0.0
H630 H 0.26024 0.50264 0.57083 0.0
H631 H 0.25565 0.52339 0.62569 0.0
H632 H 0.30633 0.49792 0.52413 0.0
H633 H 0.17332 0.52472 0.42386 0.0
H634 H 0.20599 0.54254 0.4455 0.0
H635 H 0.1935 0.52848 0.48053 0.0
C636 C 0.26281 0.55621 0.55791 0.0
C637 C 0.25828 0.54889 0.59339 0.0
C638 C 0.26555 0.54442 0.52687 0.0
C639 C 0.26326 0.52503 0.53022 0.0
C640 C 0.26193 0.51758 0.56748 0.0
H641 H 0.17746 0.45202 0.31212 0.0
H642 H 0.1922 0.46881 0.37877 0.0
C643 C 0.25957 0.52944 0.59899 0.0
C644 C 0.2579 0.51295 0.49269 0.0
H645 H 0.20062 0.50542 0.38999 0.0
C646 C 0.28322 0.49949 0.49479 0.0
C647 C 0.22746 0.51482 0.45457 0.0
C648 C 0.19832 0.52828 0.4509 0.0
C649 C 0.27915 0.48809 0.45951 0.0
C650 C 0.24918 0.49038 0.42096 0.0
C651 C 0.22376 0.50371 0.41927 0.0
C652 C 0.24252 0.47875 0.38229 0.0
C653 C 0.30655 0.47343 0.46412 0.0
C654 C 0.26604 0.47847 0.36187 0.0
C655 C 0.2577 0.46868 0.32348 0.0
C656 C 0.22547 0.45922 0.30451 0.0
C657 C 0.2024 0.45927 0.32552 0.0
C658 C 0.21082 0.46887 0.36381 0.0
H659 H 0.32259 0.47016 0.49803 0.0
H660 H 0.2942 0.46038 0.44743 0.0
H661 H 0.32454 0.47865 0.44979 0.0
H662 H 0.29034 0.48628 0.37488 0.0
H663 H 0.27596 0.46901 0.30804 0.0
H664 H 0.76466 0.96626 0.13617 0.0
H665 H 0.77515 0.98792 0.08679 0.0
H666 H 0.73885 0.94615 0.98815 0.0
H667 H 0.73035 0.92448 0.03721 0.0
H668 H 0.79076 0.96407 0.98155 0.0
H669 H 0.69845 0.01661 0.99895 0.0
H670 H 0.73745 0.01244 0.04581 0.0
H671 H 0.70533 0.99428 1.02505 0.0
C672 C 0.75982 0.96159 0.10427 0.0
C673 C 0.74631 0.94364 0.0907 0.0
C674 C 0.76529 0.97409 0.07577 0.0
C675 C 0.7569 0.96894 0.03308 0.0
C676 C 0.74541 0.95066 1.02059 0.0
H677 H 0.6694 0.02154 0.79465 0.0
H678 H 0.68619 0.00773 0.86463 0.0
C679 C 0.74041 0.93822 0.0489 0.0
C680 C 0.75808 0.98236 1.00012 0.0
H681 H 0.71913 0.02183 0.94544 0.0
C682 C 0.77551 0.97686 0.97409 0.0
C683 C 0.73819 -0.00089 0.99009 0.0
C684 C 0.71855 0.00595 1.01615 0.0
C685 C 0.77205 0.98692 0.93737 0.0
C686 C 0.75113 0.00327 0.92652 0.0
C687 C 0.73519 0.00932 0.95368 0.0
C688 C 0.74186 0.01289 0.8847 0.0
C689 C 0.78907 0.9793 0.90908 0.0
C690 C 0.76746 0.02079 0.87236 0.0
C691 C 0.75786 0.02876 0.83172 0.0
C692 C 0.72246 0.02901 0.8027 0.0
C693 C 0.69698 0.02153 0.8158 0.0
C694 C 0.70652 0.01365 0.85611 0.0
H695 H 0.79888 0.96484 0.91783 0.0
H696 H 0.7702 0.9794 0.8753 0.0
H697 H 0.81173 0.98822 0.91197 0.0
H698 H 0.79488 0.0207 0.89403 0.0
H699 H 0.77814 0.03447 0.82286 0.0
H700 H 0.33562 0.05782 0.67829 0.0
H701 H 0.33203 0.03433 0.62513 0.0
H702 H 0.33321 0.99075 0.71202 0.0
H703 H 0.33703 0.01426 0.76575 0.0
H704 H 0.3829 0.9855 0.67685 0.0
H705 H 0.25264 0.00053 0.54984 0.0
H706 H 0.27922 0.02106 0.56732 0.0
H707 H 0.26528 0.00881 0.60368 0.0
C708 C 0.33432 0.04327 0.68588 0.0
C709 C 0.33646 0.03798 0.72633 0.0
C710 C 0.33216 0.02981 0.65531 0.0
C711 C 0.332 0.01073 0.6643 0.0
C712 C 0.33309 0.00538 0.70421 0.0
H713 H 0.365 0.91974 0.5065 0.0
H714 H 0.35161 0.93502 0.56264 0.0
C715 C 0.33503 0.01887 0.73481 0.0
C716 C 0.33345 -0.00344 0.63311 0.0
H717 H 0.29334 0.9837 0.52876 0.0
C718 C 0.363 0.98482 0.64467 0.0
C719 C 0.30745 0.99561 0.59115 0.0
C720 C 0.27418 0.00704 0.57733 0.0
C721 C 0.36832 0.97307 0.61474 0.0
C722 C 0.34311 0.97283 0.57221 0.0
C723 C 0.31275 0.9839 0.56126 0.0
C724 C 0.34947 0.96291 0.53762 0.0
C725 C 0.40183 0.96182 0.6283 0.0
C726 C 0.35167 0.97332 0.50421 0.0
C727 C 0.35916 0.96464 0.47228 0.0
C728 C 0.36455 0.94526 0.47269 0.0
C729 C 0.36131 0.93468 0.50542 0.0
C730 C 0.35383 0.94343 0.53765 0.0
H731 H 0.42131 0.96607 0.66012 0.0
H732 H 0.39571 0.94686 0.62978 0.0
H733 H 0.41404 0.96332 0.60493 0.0
H734 H 0.34835 0.98832 0.50332 0.0
H735 H 0.36136 0.97328 0.44759 0.0
H736 H 0.40531 0.94321 0.2179 0.0
H737 H 0.39754 0.9656 0.16181 0.0
H738 H 0.31623 0.99336 0.18893 0.0
H739 H 0.32576 0.97148 0.24754 0.0
H740 H 0.34776 0.97243 0.09221 0.0
H741 H 0.37115 0.03773 0.18609 0.0
H742 H 0.37855 0.01506 0.21066 0.0
H743 H 0.33475 0.0246 0.18707 0.0
C744 C 0.38572 0.95407 0.212 0.0
C745 C 0.36611 0.95557 0.23716 0.0
C746 C 0.3813 0.96694 0.17982 0.0
C747 C 0.35664 0.98147 0.17122 0.0
C748 C 0.33622 0.9827 0.19558 0.0
H749 H 0.31484 0.03685 0.92735 0.0
H750 H 0.30496 0.02032 0.98402 0.0
C751 C 0.34135 0.97005 0.22877 0.0
C752 C 0.3523 0.99482 0.13602 0.0
H753 H 0.3534 0.041 0.11177 0.0
C754 C 0.34904 0.98743 0.09664 0.0
C755 C 0.35427 0.01444 0.14161 0.0
C756 C 0.36023 0.02344 0.18374 0.0
C757 C 0.34897 -0.00112 0.06346 0.0
C758 C 0.34989 0.01853 0.06851 0.0
C759 C 0.35221 0.02599 0.10751 0.0
C760 C 0.35123 0.03139 0.03496 0.0
C761 C 0.34999 0.98956 1.02439 0.0
C762 C 0.37839 0.0446 0.04487 0.0
C763 C 0.38303 0.05473 1.01261 0.0
C764 C 0.36102 0.05156 0.96981 0.0
C765 C 0.3324 0.03939 0.9601 0.0
C766 C 0.32707 0.02974 0.99246 0.0
H767 H 0.35993 0.97501 0.03105 0.0
H768 H 0.32299 0.98896 0.99924 0.0
H769 H 0.36706 -0.00269 1.01201 0.0
H770 H 0.39724 0.04637 0.07734 0.0
H771 H 0.40542 0.06397 1.02096 0.0
H772 H 0.79827 0.95514 0.34034 0.0
H773 H 0.80422 0.97165 0.4056 0.0
H774 H 0.69286 0.9828 0.3526 0.0
H775 H 0.68668 0.96656 0.28707 0.0
H776 H 0.78068 0.01109 0.41174 0.0
H777 H 0.69422 0.96299 0.41782 0.0
H778 H 0.71747 0.95687 0.47288 0.0
H779 H 0.73635 0.95182 0.43476 0.0
C780 C 0.77503 0.96114 0.34249 0.0
C781 C 0.74198 0.95952 0.30836 0.0
C782 C 0.77851 0.97057 0.37984 0.0
C783 C 0.74895 0.97829 0.38414 0.0
C784 C 0.71598 0.97679 0.35012 0.0
H785 H 0.68576 0.05314 0.52541 0.0
H786 H 0.69644 0.03067 0.47898 0.0
C787 C 0.71253 0.96758 0.31257 0.0
C788 C 0.75242 0.98823 0.42377 0.0
H789 H 0.72613 0.98668 0.5063 0.0
C790 C 0.76925 0.00563 0.43282 0.0
C791 C 0.73774 0.98103 0.45145 0.0
C792 C 0.72063 0.96208 0.44414 0.0
C793 C 0.76991 0.01647 0.46743 0.0
C794 C 0.75369 0.00968 0.49384 0.0
C795 C 0.73852 0.99187 0.48608 0.0
C796 C 0.74731 0.02209 0.52486 0.0
C797 C 0.78636 0.03557 0.47447 0.0
C798 C 0.77228 0.02456 0.56673 0.0
C799 C 0.76628 0.03762 0.59395 0.0
C800 C 0.73538 0.04846 0.57938 0.0
C801 C 0.71015 0.04532 0.53783 0.0
C802 C 0.71603 0.03234 0.51108 0.0
H803 H 0.80022 0.03832 0.45323 0.0
H804 H 0.76561 0.04631 0.46857 0.0
H805 H 0.80532 0.03705 0.50802 0.0
H806 H 0.79663 0.01672 0.57797 0.0
H807 H 0.78615 0.03963 0.62572 0.0
H808 H 0.98432 0.54665 0.80803 0.0
H809 H 0.0432 0.53311 0.8258 0.0
H810 H 0.0637 0.53753 0.95928 0.0
H811 H 1.00623 0.55117 0.9418 0.0
H812 H 0.12351 0.5436 0.94294 0.0
H813 H 0.05544 0.47885 0.86235 0.0
H814 H 0.05237 0.50019 0.8335 0.0
H815 H 1.02882 0.49784 0.86734 0.0
C816 C 1.00194 0.54502 0.84108 0.0
C817 C 0.99076 0.54947 0.87369 0.0
C818 C 1.03541 0.5373 0.85114 0.0
C819 C 0.05763 0.53403 0.89382 0.0
C820 C 0.04716 0.53995 0.92609 0.0
H821 H 0.1053 0.46134 0.06558 0.0
H822 H 0.08891 0.47897 0.9992 0.0
C823 C 1.0141 0.54758 0.91613 0.0
C824 C 0.08903 0.5219 0.90668 0.0
H825 H 0.1007 0.47566 0.93007 0.0
C826 C 0.1196 0.52864 0.93937 0.0
C827 C 0.08447 0.50243 0.90053 0.0
C828 C 0.05365 0.49427 0.86394 0.0
C829 C 0.14058 0.51685 0.9723 0.0
C830 C 0.13179 0.49766 0.97021 0.0
C831 C 0.10628 0.49049 0.93244 0.0
C832 C 0.14258 0.48589 1.00888 0.0
C833 C 0.16852 0.52557 1.01118 0.0
C834 C 0.17797 0.48378 0.03624 0.0
C835 C 0.18692 0.47479 0.07511 0.0
C836 C 0.16084 0.46681 0.08623 0.0
C837 C 0.12564 0.46779 0.0579 0.0
C838 C 0.11649 0.47759 1.01982 0.0
H839 H 0.16841 0.54104 1.00944 0.0
H840 H 0.16471 0.52155 0.0403 0.0
H841 H 0.19482 0.52067 1.0143 0.0
H842 H 0.19867 0.48925 0.02793 0.0
H843 H 0.2144 0.47372 0.0962 0.0
H844 H 0.15085 0.56905 0.59779 0.0
H845 H 0.08881 0.57463 0.55516 0.0
H846 H 0.06272 0.52767 0.61562 0.0
H847 H 0.12399 0.52332 0.66075 0.0
H848 H 0.06505 0.55048 0.50058 0.0
H849 H 0.97125 0.55202 0.57528 0.0
H850 H 1.01656 0.55859 0.60489 0.0
H851 H 1.00252 0.53468 0.60432 0.0
C852 C 0.13162 0.56048 0.6031 0.0
C853 C 0.14257 0.54528 0.63121 0.0
C854 C 0.09614 0.56378 0.57909 0.0
C855 C 0.07094 0.5513 0.58116 0.0
C856 C 0.08136 0.53768 0.61332 0.0
H857 H 0.9807 0.4677 0.4255 0.0
H858 H 1.01397 0.49486 0.46433 0.0
C859 C 0.11687 0.53489 0.63869 0.0
C860 C 1.03803 0.54837 0.54308 0.0
H861 H 0.959 0.52703 0.51735 0.0
C862 C 1.04129 0.54611 0.504 0.0
C863 C 1.00631 0.54317 0.54623 0.0
C864 C 0.99901 0.54751 0.58499 0.0
C865 C 1.01636 0.53607 0.47077 0.0
C866 C 0.98798 0.52792 0.47718 0.0
C867 C 0.98173 0.53268 0.51331 0.0
C868 C 0.96802 0.5124 0.45037 0.0
C869 C 1.02209 0.53309 0.43043 0.0
C870 C 0.93139 0.5133 0.43026 0.0
C871 C 0.91253 0.49784 0.40839 0.0
C872 C 0.93003 0.48122 0.40672 0.0
C873 C 0.96675 0.48039 0.42623 0.0
C874 C 0.98565 0.49591 0.44807 0.0
H875 H 1.03607 0.54514 0.42402 0.0
H876 H 1.03872 0.52054 0.434 0.0
H877 H 0.9968 0.53101 0.40268 0.0
H878 H 0.91741 0.52584 0.43207 0.0
H879 H 0.88412 0.49881 0.39356 0.0
H880 H 0.45547 0.03593 0.79555 0.0
H881 H 0.49794 0.01097 0.80208 0.0
H882 H 0.54944 0.0221 0.93654 0.0
H883 H 0.50653 0.04641 0.93042 0.0
H884 H 0.59425 0.00632 0.88784 0.0
H885 H 0.47374 0.96725 0.87189 0.0
H886 H 0.47442 0.98338 0.8319 0.0
H887 H 0.47374 0.99202 0.88076 0.0
C888 C 0.47683 0.03352 0.82611 0.0
C889 C 0.47756 0.04264 0.8628 0.0
C890 C 0.50105 0.01934 0.82968 0.0
C891 C 0.52642 0.01464 0.86979 0.0
C892 C 0.52999 0.0256 0.90526 0.0
H893 H 0.6379 0.97972 0.08508 0.0
H894 H 0.61213 0.99028 1.01169 0.0
C895 C 0.50539 0.03937 0.9019 0.0
C896 C 0.5429 0.99608 0.87843 0.0
H897 H 0.52705 0.95862 0.92862 0.0
C898 C 0.57965 0.99524 0.89492 0.0
C899 C 0.52387 0.98125 0.88628 0.0
C900 C 0.48421 0.98082 0.86661 0.0
C901 C 0.59773 0.98189 0.92563 0.0
C902 C 0.57831 0.9699 0.94089 0.0
C903 C 0.54192 0.96834 0.91809 0.0
C904 C 0.59338 0.96297 0.98511 0.0
C905 C 0.63733 0.98223 0.94486 0.0
C906 C 0.58848 0.94451 0.99497 0.0
C907 C 0.60226 0.93859 0.0373 0.0
C908 C 0.62113 0.95106 0.07007 0.0
C909 C 0.62374 0.96979 0.06037 0.0
C910 C 0.60982 0.97571 1.0183 0.0
H911 H 0.64755 0.98463 0.91986 0.0
H912 H 0.64624 0.99405 0.96749 0.0
H913 H 0.64867 0.96907 0.96185 0.0
H914 H 0.57472 0.93462 0.96997 0.0
H915 H 0.5996 0.92409 0.04424 0.0
H916 H 0.50261 0.93178 0.33946 0.0
H917 H 0.56674 0.9342 0.3632 0.0
H918 H 0.57656 0.93659 0.49345 0.0
H919 H 0.51356 0.93362 0.46989 0.0
H920 H 0.59941 0.96401 0.39727 0.0
H921 H 0.66712 0.91183 0.51511 0.0
H922 H 0.62409 0.90721 0.47402 0.0
H923 H 0.62872 0.9166 0.52503 0.0
C924 C 0.51886 0.93227 0.37316 0.0
C925 C 0.50346 0.93282 0.40297 0.0
C926 C 0.5554 0.9335 0.38669 0.0
C927 C 0.57678 0.93523 0.43019 0.0
C928 C 0.56111 0.93461 0.45982 0.0
H929 H 0.62669 0.01977 0.55878 0.0
H930 H 0.61575 -0.00326 0.50276 0.0
C931 C 0.52488 0.93338 0.44634 0.0
C932 C 0.61317 0.94238 0.44495 0.0
H933 H 0.67627 0.94611 0.54466 0.0
C934 C 0.61742 0.95973 0.42875 0.0
C935 C 0.63877 0.9365 0.48443 0.0
C936 C 0.63952 0.91685 0.50016 0.0
C937 C 0.64027 0.97299 0.45562 0.0
C938 C 0.65834 0.96865 0.49919 0.0
C939 C 0.66069 0.94992 0.51193 0.0
C940 C 0.66678 0.98329 0.53227 0.0
C941 C 0.64189 0.99204 0.438 0.0
C942 C 0.6982 0.98281 0.56881 0.0
C943 C 0.70392 0.99565 0.60155 0.0
C944 C 0.67824 0.00909 0.59827 0.0
C945 C 0.64679 0.00949 0.56204 0.0
C946 C 0.64093 -0.00343 0.52961 0.0
H947 H 0.64501 0.99064 0.40742 0.0
H948 H 0.61676 -0.00048 0.43119 0.0
H949 H 0.66391 0.00049 0.46019 0.0
H950 H 0.71828 0.97253 0.57196 0.0
H951 H 0.72868 0.99527 0.62904 0.0
H952 H 0.91605 0.39962 0.61523 0.0
H953 H 0.94821 0.40045 0.69302 0.0
H954 H 1.03839 0.37569 0.68045 0.0
H955 H 1.00705 0.37534 0.6034 0.0
H956 H 0.97651 0.37513 0.75409 0.0
H957 H 0.08648 0.41844 0.75401 0.0
H958 H 0.04728 0.41475 0.70665 0.0
H959 H 0.08189 0.39755 0.72352 0.0
C960 C 0.94275 0.39437 0.62902 0.0
C961 C 0.95883 0.38757 0.60246 0.0
C962 C 0.96126 0.39486 0.67375 0.0
C963 C 0.99644 0.3886 0.69337 0.0
C964 C 1.01194 0.38126 0.6668 0.0
H965 H 0.15126 0.37685 0.96071 0.0
H966 H 0.11871 0.3739 0.88309 0.0
C967 C 0.99366 0.38091 0.62232 0.0
C968 C 1.01679 0.38945 0.74125 0.0
H969 H 0.09479 0.40384 0.8197 0.0
C970 C 1.00226 0.38153 0.76822 0.0
C971 C 0.05064 0.39777 0.76063 0.0
C972 C 0.06734 0.40777 0.73474 0.0
C973 C 1.02056 0.3814 0.81306 0.0
C974 C 0.0545 0.3895 0.83225 0.0
C975 C 0.06907 0.3974 0.80542 0.0
C976 C 0.07438 0.39076 0.87999 0.0
C977 C 1.00355 0.37227 0.83963 0.0
C978 C 0.06084 0.4013 0.90468 0.0
C979 C 0.07951 0.40312 0.94889 0.0
C980 C 0.11244 0.39438 0.97033 0.0
C981 C 0.12597 0.38367 0.9457 0.0
C982 C 0.10735 0.38203 0.90112 0.0
H983 H 0.98202 0.3627 0.82046 0.0
H984 H 1.02319 0.36431 0.86631 0.0
H985 H 0.99216 0.3832 0.85334 0.0
H986 H 1.03591 0.40846 0.8896 0.0
H987 H 0.06804 0.41156 0.96631 0.0
H988 H 0.12614 0.62388 0.46938 0.0
H989 H 0.08796 0.62827 0.39362 0.0
H990 H 0.07304 0.56885 0.37858 0.0
H991 H 0.11104 0.5644 0.45305 0.0
H992 H 0.08524 0.58239 0.31356 0.0
H993 H 0.98214 0.62603 0.3331 0.0
H994 H 1.02572 0.63548 0.35756 0.0
H995 H 1.01533 0.61406 0.3771 0.0
C996 C 0.1146 0.61176 0.44999 0.0
C997 C 0.12205 0.59378 0.46797 0.0
C998 C 0.09247 0.61428 0.40646 0.0
C999 C 0.07694 0.59891 0.37968 0.0
C1000 C 0.08443 0.58103 0.39784 0.0
H1001 H 0.89622 0.5944 0.13524 0.0
H1002 H 0.93767 0.59465 0.20959 0.0
C1003 C 0.10638 0.57852 0.44094 0.0
C1004 C 0.05351 0.60102 0.3328 0.0
H1005 H 0.9766 0.62059 0.26272 0.0
C1006 C 0.06159 0.59085 0.30258 0.0
C1007 C 1.02214 0.61179 0.31774 0.0
C1008 C 1.0105 0.62234 0.34798 0.0
C1009 C 1.03958 0.59104 0.25863 0.0
C1010 C 1.00844 0.60203 0.24344 0.0
C1011 C 1.00041 0.61226 0.27365 0.0
C1012 C 0.98303 0.60234 0.197 0.0
C1013 C 0.04936 0.57881 0.22917 0.0
C1014 C 0.99393 0.60679 0.164 0.0
C1015 C 0.97003 0.60654 0.12087 0.0
C1016 C 0.93429 0.60205 0.10927 0.0
C1017 C 0.92337 0.59795 0.14242 0.0
C1018 C 0.94723 0.59812 0.18535 0.0
H1019 H 0.06792 0.56757 0.24671 0.0
H1020 H 1.02572 0.5723 0.20459 0.0
H1021 H 0.06249 0.58741 0.21294 0.0
H1022 H 1.021 0.6106 0.17151 0.0
H1023 H 0.97961 0.60992 0.09662 0.0
H1024 H 0.63097 0.9227 0.94709 0.0
H1025 H 0.5934 0.91841 0.87262 0.0
H1026 H 0.56928 0.8626 0.8985 0.0
H1027 H 0.60724 0.8669 0.97458 0.0
H1028 H 0.59905 0.89295 0.81504 0.0
H1029 H 0.47076 0.88432 0.82881 0.0
H1030 H 0.50909 0.89345 0.87177 0.0
H1031 H 0.50572 0.86894 0.86029 0.0
C1032 C 0.6178 0.90941 0.93746 0.0
C1033 C 0.62242 0.89514 0.96757 0.0
C1034 C 0.59613 0.907 0.89437 0.0
C1035 C 0.57791 0.89027 0.87933 0.0
C1036 C 0.58244 0.87582 0.90904 0.0
H1037 H 0.43001 0.86823 0.61056 0.0
H1038 H 0.46523 0.86447 0.68737 0.0
C1039 C 0.60445 0.87822 0.95264 0.0
C1040 C 0.55528 0.88827 0.83243 0.0
H1041 H 0.46994 0.8841 0.75969 0.0
C1042 C 0.57085 0.89087 0.80311 0.0
C1043 C 0.51836 0.88546 0.81622 0.0
C1044 C 0.49975 0.883 0.84572 0.0
C1045 C 0.55087 0.89104 0.75876 0.0
C1046 C 0.51375 0.88903 0.74249 0.0
C1047 C 0.49823 0.88576 0.77169 0.0
C1048 C 0.49087 0.89132 0.69571 0.0
C1049 C 0.57 0.89331 0.72972 0.0
C1050 C 0.49247 0.90779 0.67439 0.0
C1051 C 0.47253 0.90992 0.63061 0.0
C1052 C 0.44983 0.89574 0.60636 0.0
C1053 C 0.44723 0.87944 0.62788 0.0
C1054 C 0.46743 0.87728 0.67197 0.0
H1055 H 0.59772 0.8885 0.74522 0.0
H1056 H 0.55687 0.88543 0.69962 0.0
H1057 H 0.5704 0.90829 0.72192 0.0
H1058 H 0.50933 0.91913 0.69169 0.0
H1059 H 0.47507 0.92282 0.61573 0.0
H1060 H 0.41951 0.0947 0.1178 0.0
H1061 H 0.45058 0.09427 0.19576 0.0
H1062 H 0.53794 0.12317 0.18589 0.0
H1063 H 0.50731 0.12365 0.10855 0.0
H1064 H 0.51719 0.07842 0.24688 0.0
H1065 H 0.51971 0.1546 0.27505 0.0
H1066 H 0.4909 0.14404 0.22562 0.0
H1067 H 0.53653 0.14768 0.23634 0.0
C1068 C 0.4452 0.10112 0.1322 0.0
C1069 C 0.4606 0.10931 0.10638 0.0
C1070 C 0.46308 0.10082 0.17697 0.0
C1071 C 0.49664 0.10894 0.19735 0.0
C1072 C 0.51193 0.11712 0.17155 0.0
H1073 H 0.64951 0.12076 0.4652 0.0
H1074 H 0.61775 0.12307 0.38743 0.0
C1075 C 0.4943 0.11728 0.12697 0.0
C1076 C 0.51624 0.10836 0.2452 0.0
H1077 H 0.55443 0.13591 0.33386 0.0
C1078 C 0.52507 0.09102 0.26583 0.0
C1079 C 0.52721 0.12472 0.27045 0.0
C1080 C 0.5179 0.14384 0.25092 0.0
C1081 C 0.54478 0.08956 0.31023 0.0
C1082 C 0.55534 0.10592 0.33571 0.0
C1083 C 0.5466 0.12329 0.31497 0.0
C1084 C 0.57454 0.10523 0.38371 0.0
C1085 C 0.55503 0.07036 0.32906 0.0
C1086 C 0.5608 0.09496 0.40849 0.0
C1087 C 0.57901 0.09355 0.45281 0.0
C1088 C 0.61147 0.10262 0.47442 0.0
C1089 C 0.62468 0.11356 0.44998 0.0
C1090 C 0.60646 0.11485 0.40528 0.0
H1091 H 0.55566 0.06018 0.3049 0.0
H1092 H 0.58124 0.07044 0.35592 0.0
H1093 H 0.53528 0.0654 0.34095 0.0
H1094 H 0.5358 0.0879 0.39353 0.0
H1095 H 0.56752 0.08516 0.47018 0.0
H1096 H 0.08891 0.39745 0.14719 0.0
H1097 H 0.04717 0.39708 0.18181 0.0
H1098 H 0.13302 0.40408 0.3038 0.0
H1099 H 0.17437 0.40522 0.26934 0.0
H1100 H 1.03443 0.37629 0.23587 0.0
H1101 H 0.07331 0.44441 0.31596 0.0
H1102 H 0.08947 0.43632 0.27728 0.0
H1103 H 0.10996 0.42873 0.3318 0.0
C1104 C 0.09896 0.39888 0.18142 0.0
C1105 C 0.13529 0.40149 0.20515 0.0
C1106 C 0.07492 0.39871 0.20136 0.0
C1107 C 0.08632 0.4011 0.24575 0.0
C1108 C 0.1228 0.40294 0.26953 0.0
H1109 H 0.98346 0.39538 0.42748 0.0
H1110 H 1.02513 0.39583 0.39254 0.0
C1111 C 0.14671 0.40335 0.24963 0.0
C1112 C 0.06038 0.40141 0.26711 0.0
H1113 H 1.03694 0.42545 0.33891 0.0
C1114 C 1.03499 0.38717 0.25811 0.0
C1115 C 0.06036 0.41556 0.29633 0.0
C1116 C 0.08448 0.43221 0.30557 0.0
C1117 C 1.01069 0.38648 0.27778 0.0
C1118 C 1.01125 0.40039 0.30755 0.0
C1119 C 1.03645 0.41464 0.31652 0.0
C1120 C 0.9857 0.40046 0.32917 0.0
C1121 C 0.98486 0.37058 0.26714 0.0
C1122 C 0.94939 0.40315 0.30575 0.0
C1123 C 0.92556 0.40313 0.32585 0.0
C1124 C 0.93712 0.40038 0.37003 0.0
C1125 C 0.97346 0.39766 0.39349 0.0
C1126 C 0.9974 0.39792 0.37345 0.0
H1127 H 0.99222 0.35903 0.25062 0.0
H1128 H 0.98302 0.36502 0.29638 0.0
H1129 H 0.95842 0.37572 0.24593 0.0
H1130 H 0.93938 0.40533 0.27174 0.0
H1131 H 0.89781 0.40496 0.30652 0.0
H1132 H 0.126 0.56242 0.71542 0.0
H1133 H 0.08611 0.56866 0.74994 0.0
H1134 H 0.08824 0.62729 0.7239 0.0
H1135 H 0.12833 0.62098 0.68818 0.0
H1136 H 0.09415 0.58762 0.81891 0.0
H1137 H 0.98417 0.61989 0.6842 0.0
H1138 H 1.02031 0.60836 0.67745 0.0
H1139 H 1.02547 0.63166 0.69852 0.0
C1140 C 0.1183 0.57673 0.717 0.0
C1141 C 0.13106 0.5912 0.69919 0.0
C1142 C 0.09516 0.58028 0.73686 0.0
C1143 C 0.08363 0.59846 0.73976 0.0
C1144 C 0.09597 0.61305 0.72167 0.0
H1145 H 0.97741 0.61345 0.91998 0.0
H1146 H 1.02091 0.61503 0.88809 0.0
C1147 C 0.11914 0.60945 0.70132 0.0
C1148 C 0.05938 0.60172 0.76247 0.0
H1149 H 0.9785 0.61878 0.74988 0.0
C1150 C 0.06884 0.59447 0.80372 0.0
C1151 C 1.02613 0.61054 0.74305 0.0
C1152 C 1.01315 0.61792 0.69825 0.0
C1153 C 0.04618 0.59541 0.82551 0.0
C1154 C 1.01282 0.60429 0.80615 0.0
C1155 C 1.00375 0.61191 0.7652 0.0
C1156 C 0.98599 0.60479 0.82606 0.0
C1157 C 0.05826 0.58625 0.86857 0.0
C1158 C 0.9508 0.5998 0.80178 0.0
C1159 C 0.92563 0.59961 0.81968 0.0
C1160 C 0.9347 0.60386 0.86282 0.0
C1161 C 0.96947 0.60964 0.8869 0.0
C1162 C 0.99463 0.61029 0.86866 0.0
H1163 H 0.07767 0.57499 0.87209 0.0
H1164 H 0.07135 0.59683 0.89351 0.0
H1165 H 1.03601 0.58023 0.87436 0.0
H1166 H 0.9427 0.59569 0.76884 0.0
H1167 H 0.89891 0.59579 0.79973 0.0
H1168 H 0.39666 0.89005 0.30627 0.0
H1169 H 0.4402 0.88877 0.27485 0.0
H1170 H 0.52314 0.88544 0.40025 0.0
H1171 H 0.47913 0.88578 0.43153 0.0
H1172 H 0.48692 0.91101 0.2754 0.0
H1173 H 0.56032 0.84696 0.3483 0.0
H1174 H 0.51993 0.85323 0.35307 0.0
H1175 H 0.56101 0.86355 0.38775 0.0
C1176 C 0.42418 0.88872 0.32716 0.0
C1177 C 0.43425 0.88798 0.37147 0.0
C1178 C 0.44926 0.88805 0.30911 0.0
C1179 C 0.4855 0.88674 0.33468 0.0
C1180 C 0.4956 0.88577 0.37918 0.0
H1181 H 0.67172 0.90198 0.27462 0.0
H1182 H 0.6304 0.89872 0.30914 0.0
C1183 C 0.47031 0.8861 0.39727 0.0
C1184 C 0.51215 0.8874 0.31449 0.0
H1185 H 0.58609 0.8664 0.31222 0.0
C1186 C 0.5084 0.90111 0.28352 0.0
C1187 C 0.54059 0.87459 0.3244 0.0
C1188 C 0.54554 0.85865 0.35486 0.0
C1189 C 0.53197 0.90253 0.26309 0.0
C1190 C 0.56036 0.88983 0.27321 0.0
C1191 C 0.56444 0.87619 0.30426 0.0
C1192 C 0.58612 0.89069 0.25211 0.0
C1193 C 0.52667 0.9179 0.23118 0.0
C1194 C 0.5756 0.88688 0.20843 0.0
C1195 C 0.59944 0.88851 0.18851 0.0
C1196 C 0.6345 0.89416 0.21161 0.0
C1197 C 0.64508 0.89758 0.25554 0.0
C1198 C 0.62137 0.89573 0.27549 0.0
H1199 H 0.50789 0.92866 0.23274 0.0
H1200 H 0.55209 0.92473 0.23648 0.0
H1201 H 0.5161 0.91186 0.19868 0.0
H1202 H 0.54873 0.8828 0.18953 0.0
H1203 H 0.59008 0.88584 0.1547 0.0
H1204 H 0.39534 0.09654 0.80403 0.0
H1205 H 0.43738 0.09543 0.77041 0.0
H1206 H 0.52116 0.1094 0.89022 0.0
H1207 H 0.47912 0.10952 0.92442 0.0
H1208 H 0.47756 0.11886 0.7552 0.0
H1209 H 0.56517 0.06548 0.86107 0.0
H1210 H 0.52459 0.07232 0.86452 0.0
H1211 H 0.56359 0.08614 0.88982 0.0
C1212 C 0.4228 0.09913 0.82341 0.0
C1213 C 0.43384 0.10256 0.86724 0.0
C1214 C 0.44694 0.09866 0.80399 0.0
C1215 C 0.483 0.10186 0.82763 0.0
C1216 C 0.49387 0.10623 0.87118 0.0
H1217 H 0.62576 0.11956 0.69301 0.0
H1218 H 0.58612 0.12469 0.72953 0.0
C1219 C 0.46966 0.1065 0.89076 0.0
C1220 C 0.50865 0.10069 0.80632 0.0
H1221 H 0.5853 0.08005 0.81267 0.0
C1222 C 0.5011 0.11033 0.76788 0.0
C1223 C 0.53939 0.08942 0.82208 0.0
C1224 C 0.54853 0.0776 0.86138 0.0
C1225 C 0.52286 0.10896 0.74497 0.0
C1226 C 0.55405 0.09807 0.76131 0.0
C1227 C 0.56173 0.08855 0.7999 0.0
C1228 C 0.57806 0.09539 0.7381 0.0
C1229 C 0.51127 0.11867 0.70259 0.0
C1230 C 0.58788 0.0773 0.7312 0.0
C1231 C 0.61107 0.07437 0.71107 0.0
C1232 C 0.62525 0.08943 0.69671 0.0
C1233 C 0.61514 0.10759 0.70301 0.0
C1234 C 0.59219 0.11053 0.72383 0.0
H1235 H 0.48256 0.1216 0.68899 0.0
H1236 H 0.52513 0.13222 0.70688 0.0
H1237 H 0.51749 0.1102 0.67935 0.0
H1238 H 0.57759 0.06528 0.7415 0.0
H1239 H 0.61789 0.06015 0.7068 0.0
loop_
_geom_bond_atom_site_label_1
_geom_bond_atom_site_label_2
_geom_bond_distance
_geom_bond_site_symmetry_2
_ccdc_geom_bond_type
O0 Tb1 2.292 . S
O0 C3 1.255 . S
Tb1 O0 2.292 . S
Tb1 O17 2.326 . S
Tb1 O19 2.500 . S
Tb1 O20 2.473 . S
Tb1 O23 2.324 . S
Eu2 O6 2.292 1_554 S
Eu2 C7 2.852 . S
Eu2 O18 2.324 . S
Eu2 O22 2.326 . S
Eu2 O24 2.500 . S
Eu2 O25 2.473 . S
C3 O0 1.255 . S
C3 O4 1.247 . S
O4 C3 1.247 . S
C5 O17 1.242 . S
C5 O18 1.258 . S
O6 Eu2 2.292 1_556 S
O6 C8 1.255 . S
C7 Eu2 2.852 . S
C7 C11 1.503 . S
C7 O24 1.273 . S
C7 O25 1.257 . S
C8 O6 1.255 . S
C8 O9 1.247 . S
O9 C8 1.247 . S
C10 O22 1.242 . S
C10 O23 1.258 . S
C11 C7 1.503 . S
C11 C12 1.379 . S
C11 C16 1.392 . S
C12 C11 1.379 . S
C12 C13 1.404 . S
C12 H26 0.929 . S
C13 C12 1.404 . S
C13 C14 1.389 . S
C14 C13 1.389 . S
C14 C15 1.399 . S
C14 H27 0.931 . S
C15 C14 1.399 . S
C15 C16 1.390 . S
C16 C11 1.392 . S
C16 C15 1.390 . S
C16 H28 0.929 . S
O17 Tb1 2.326 . S
O17 C5 1.242 . S
O18 Eu2 2.324 . S
O18 C5 1.258 . S
O19 Tb1 2.500 . S
O19 C21 1.273 . S
O20 Tb1 2.473 . S
O20 C21 1.257 . S
C21 O19 1.273 . S
C21 O20 1.257 . S
O22 Eu2 2.326 . S
O22 C10 1.242 . S
O23 Tb1 2.324 . S
O23 C10 1.258 . S
O24 Eu2 2.500 . S
O24 C7 1.273 . S
O25 Eu2 2.473 . S
O25 C7 1.257 . S
H26 C12 0.929 . S
H27 C14 0.931 . S
H28 C16 0.929 . S
O29 Tb30 2.292 . S
O29 C32 1.255 . S
Tb30 O29 2.292 . S
Tb30 O46 2.326 . S
Tb30 O48 2.500 . S
Tb30 O49 2.473 . S
Tb30 O52 2.324 . S
Eu31 O35 2.292 . S
Eu31 C36 2.852 . S
Eu31 O47 2.324 . S
Eu31 O51 2.326 . S
Eu31 O53 2.500 . S
Eu31 O54 2.473 . S
C32 O29 1.255 . S
C32 O33 1.247 . S
O33 C32 1.247 . S
C34 O46 1.242 . S
C34 O47 1.258 . S
O35 Eu31 2.292 . S
O35 C37 1.255 . S
C36 Eu31 2.852 . S
C36 C40 1.503 . S
C36 O53 1.273 . S
C36 O54 1.257 . S
C37 O35 1.255 . S
C37 O38 1.247 . S
O38 C37 1.247 . S
C39 O51 1.242 . S
C39 O52 1.258 . S
C40 C36 1.503 . S
C40 C41 1.379 . S
C40 C45 1.392 . S
C41 C40 1.379 . S
C41 C42 1.404 . S
C41 H55 0.929 . S
C42 C41 1.404 . S
C42 C43 1.389 . S
C43 C42 1.389 . S
C43 C44 1.399 . S
C43 H56 0.931 . S
C44 C43 1.399 . S
C44 C45 1.390 . S
C45 C40 1.392 . S
C45 C44 1.390 . S
C45 H57 0.929 . S
O46 Tb30 2.326 . S
O46 C34 1.242 . S
O47 Eu31 2.324 . S
O47 C34 1.258 . S
O48 Tb30 2.500 . S
O48 C50 1.273 . S
O49 Tb30 2.473 . S
O49 C50 1.257 . S
C50 O48 1.273 . S
C50 O49 1.257 . S
O51 Eu31 2.326 . S
O51 C39 1.242 . S
O52 Tb30 2.324 . S
O52 C39 1.258 . S
O53 Eu31 2.500 . S
O53 C36 1.273 . S
O54 Eu31 2.473 . S
O54 C36 1.257 . S
H55 C41 0.929 . S
H56 C43 0.931 . S
H57 C45 0.929 . S
O58 Tb59 2.292 . S
O58 C61 1.255 . S
Tb59 O58 2.292 . S
Tb59 O75 2.326 . S
Tb59 O77 2.500 . S
Tb59 O78 2.473 . S
Tb59 O81 2.324 . S
Eu60 O64 2.292 1_556 S
Eu60 C65 2.852 . S
Eu60 O76 2.324 . S
Eu60 O80 2.326 . S
Eu60 O82 2.500 . S
Eu60 O83 2.473 . S
C61 O58 1.255 . S
C61 O62 1.247 . S
O62 C61 1.247 . S
C63 O75 1.242 . S
C63 O76 1.258 . S
O64 Eu60 2.292 1_554 S
O64 C66 1.255 . S
C65 Eu60 2.852 . S
C65 C69 1.503 . S
C65 O82 1.273 . S
C65 O83 1.257 . S
C66 O64 1.255 . S
C66 O67 1.247 . S
O67 C66 1.247 . S
C68 O80 1.242 . S
C68 O81 1.258 . S
C69 C65 1.503 . S
C69 C70 1.379 . S
C69 C74 1.392 . S
C70 C69 1.379 . S
C70 C71 1.404 . S
C70 H84 0.929 . S
C71 C70 1.404 . S
C71 C72 1.389 . S
C72 C71 1.389 . S
C72 C73 1.399 . S
C72 H85 0.931 . S
C73 C72 1.399 . S
C73 C74 1.390 . S
C74 C69 1.392 . S
C74 C73 1.390 . S
C74 H86 0.929 . S
O75 Tb59 2.326 . S
O75 C63 1.242 . S
O76 Eu60 2.324 . S
O76 C63 1.258 . S
O77 Tb59 2.500 . S
O77 C79 1.273 . S
O78 Tb59 2.473 . S
O78 C79 1.257 . S
C79 O77 1.273 . S
C79 O78 1.257 . S
O80 Eu60 2.326 . S
O80 C68 1.242 . S
O81 Tb59 2.324 . S
O81 C68 1.258 . S
O82 Eu60 2.500 . S
O82 C65 1.273 . S
O83 Eu60 2.473 . S
O83 C65 1.257 . S
H84 C70 0.929 . S
H85 C72 0.931 . S
H86 C74 0.929 . S
O87 Tb88 2.292 . S
O87 C90 1.255 . S
Tb88 O87 2.292 . S
Tb88 O104 2.326 . S
Tb88 O106 2.500 . S
Tb88 O107 2.473 . S
Tb88 O110 2.324 . S
Eu89 O93 2.292 . S
Eu89 C94 2.852 . S
Eu89 O105 2.324 . S
Eu89 O109 2.326 . S
Eu89 O111 2.500 . S
Eu89 O112 2.473 . S
C90 O87 1.255 . S
C90 O91 1.247 . S
O91 C90 1.247 . S
C92 O104 1.242 . S
C92 O105 1.258 . S
O93 Eu89 2.292 . S
O93 C95 1.255 . S
C94 Eu89 2.852 . S
C94 C98 1.503 . S
C94 O111 1.273 . S
C94 O112 1.257 . S
C95 O93 1.255 . S
C95 O96 1.247 . S
O96 C95 1.247 . S
C97 O109 1.242 . S
C97 O110 1.258 . S
C98 C94 1.503 . S
C98 C99 1.379 . S
C98 C103 1.392 . S
C99 C98 1.379 . S
C99 C100 1.404 . S
C99 H113 0.929 . S
C100 C99 1.404 . S
C100 C101 1.389 . S
C101 C100 1.389 . S
C101 C102 1.399 . S
C101 H114 0.931 . S
C102 C101 1.399 . S
C102 C103 1.390 . S
C103 C98 1.392 . S
C103 C102 1.390 . S
C103 H115 0.929 . S
O104 Tb88 2.326 . S
O104 C92 1.242 . S
O105 Eu89 2.324 . S
O105 C92 1.258 . S
O106 Tb88 2.500 . S
O106 C108 1.273 . S
O107 Tb88 2.473 . S
O107 C108 1.257 . S
C108 O106 1.273 . S
C108 O107 1.257 . S
O109 Eu89 2.326 . S
O109 C97 1.242 . S
O110 Tb88 2.324 . S
O110 C97 1.258 . S
O111 Eu89 2.500 . S
O111 C94 1.273 . S
O112 Eu89 2.473 . S
O112 C94 1.257 . S
H113 C99 0.929 . S
H114 C101 0.931 . S
H115 C103 0.929 . S
O116 Tb117 2.292 . S
O116 C119 1.255 . S
Tb117 O116 2.292 . S
Tb117 O133 2.326 . S
Tb117 O135 2.500 . S
Tb117 O136 2.473 . S
Tb117 O139 2.324 . S
Eu118 O122 2.292 1_554 S
Eu118 C123 2.852 . S
Eu118 O134 2.324 . S
Eu118 O138 2.326 . S
Eu118 O140 2.500 . S
Eu118 O141 2.473 . S
C119 O116 1.255 . S
C119 O120 1.247 . S
O120 C119 1.247 . S
C121 O133 1.242 . S
C121 O134 1.258 . S
O122 Eu118 2.292 1_556 S
O122 C124 1.255 . S
C123 Eu118 2.852 . S
C123 C127 1.503 . S
C123 O140 1.273 . S
C123 O141 1.257 . S
C124 O122 1.255 . S
C124 O125 1.247 . S
O125 C124 1.247 . S
C126 O138 1.242 . S
C126 O139 1.258 . S
C127 C123 1.503 . S
C127 C128 1.379 . S
C127 C132 1.392 . S
C128 C127 1.379 . S
C128 C129 1.404 . S
C128 H142 0.929 . S
C129 C128 1.404 . S
C129 C130 1.389 . S
C130 C129 1.389 . S
C130 C131 1.399 . S
C130 H143 0.931 . S
C131 C130 1.399 . S
C131 C132 1.390 . S
C132 C127 1.392 . S
C132 C131 1.390 . S
C132 H144 0.929 . S
O133 Tb117 2.326 . S
O133 C121 1.242 . S
O134 Eu118 2.324 . S
O134 C121 1.258 . S
O135 Tb117 2.500 . S
O135 C137 1.273 . S
O136 Tb117 2.473 . S
O136 C137 1.257 . S
C137 O135 1.273 . S
C137 O136 1.257 . S
O138 Eu118 2.326 . S
O138 C126 1.242 . S
O139 Tb117 2.324 . S
O139 C126 1.258 . S
O140 Eu118 2.500 . S
O140 C123 1.273 . S
O141 Eu118 2.473 . S
O141 C123 1.257 . S
H142 C128 0.929 . S
H143 C130 0.931 . S
H144 C132 0.929 . S
O145 Tb146 2.292 . S
O145 C148 1.255 . S
Tb146 O145 2.292 . S
Tb146 O162 2.326 . S
Tb146 O164 2.500 . S
Tb146 O165 2.473 . S
Tb146 O168 2.324 . S
Eu147 O151 2.292 . S
Eu147 C152 2.852 . S
Eu147 O163 2.324 . S
Eu147 O167 2.326 . S
Eu147 O169 2.500 . S
Eu147 O170 2.473 . S
C148 O145 1.255 . S
C148 O149 1.247 . S
O149 C148 1.247 . S
C150 O162 1.242 . S
C150 O163 1.258 . S
O151 Eu147 2.292 . S
O151 C153 1.255 . S
C152 Eu147 2.852 . S
C152 C156 1.503 . S
C152 O169 1.273 . S
C152 O170 1.257 . S
C153 O151 1.255 . S
C153 O154 1.247 . S
O154 C153 1.247 . S
C155 O167 1.242 . S
C155 O168 1.258 . S
C156 C152 1.503 . S
C156 C157 1.379 . S
C156 C161 1.392 . S
C157 C156 1.379 . S
C157 C158 1.404 . S
C157 H171 0.929 . S
C158 C157 1.404 . S
C158 C159 1.389 . S
C159 C158 1.389 . S
C159 C160 1.399 . S
C159 H172 0.931 . S
C160 C159 1.399 . S
C160 C161 1.390 . S
C161 C156 1.392 . S
C161 C160 1.390 . S
C161 H173 0.929 . S
O162 Tb146 2.326 . S
O162 C150 1.242 . S
O163 Eu147 2.324 . S
O163 C150 1.258 . S
O164 Tb146 2.500 . S
O164 C166 1.273 . S
O165 Tb146 2.473 . S
O165 C166 1.257 . S
C166 O164 1.273 . S
C166 O165 1.257 . S
O167 Eu147 2.326 . S
O167 C155 1.242 . S
O168 Tb146 2.324 . S
O168 C155 1.258 . S
O169 Eu147 2.500 . S
O169 C152 1.273 . S
O170 Eu147 2.473 . S
O170 C152 1.257 . S
H171 C157 0.929 . S
H172 C159 0.931 . S
H173 C161 0.929 . S
O174 Tb175 2.292 . S
O174 C177 1.255 . S
Tb175 O174 2.292 . S
Tb175 O191 2.326 . S
Tb175 O193 2.500 . S
Tb175 O194 2.473 . S
Tb175 O197 2.324 . S
Eu176 O180 2.292 1_556 S
Eu176 C181 2.852 . S
Eu176 O192 2.324 . S
Eu176 O196 2.326 . S
Eu176 O198 2.500 . S
Eu176 O199 2.473 . S
C177 O174 1.255 . S
C177 O178 1.247 . S
O178 C177 1.247 . S
C179 O191 1.242 . S
C179 O192 1.258 . S
O180 Eu176 2.292 1_554 S
O180 C182 1.255 . S
C181 Eu176 2.852 . S
C181 C185 1.503 . S
C181 O198 1.273 . S
C181 O199 1.257 . S
C182 O180 1.255 . S
C182 O183 1.247 . S
O183 C182 1.247 . S
C184 O196 1.242 . S
C184 O197 1.258 . S
C185 C181 1.503 . S
C185 C186 1.379 . S
C185 C190 1.392 . S
C186 C185 1.379 . S
C186 C187 1.404 . S
C186 H200 0.929 . S
C187 C186 1.404 . S
C187 C188 1.389 . S
C188 C187 1.389 . S
C188 C189 1.399 . S
C188 H201 0.931 . S
C189 C188 1.399 . S
C189 C190 1.390 . S
C190 C185 1.392 . S
C190 C189 1.390 . S
C190 H202 0.929 . S
O191 Tb175 2.326 . S
O191 C179 1.242 . S
O192 Eu176 2.324 . S
O192 C179 1.258 . S
O193 Tb175 2.500 . S
O193 C195 1.273 . S
O194 Tb175 2.473 . S
O194 C195 1.257 . S
C195 O193 1.273 . S
C195 O194 1.257 . S
O196 Eu176 2.326 . S
O196 C184 1.242 . S
O197 Tb175 2.324 . S
O197 C184 1.258 . S
O198 Eu176 2.500 . S
O198 C181 1.273 . S
O199 Eu176 2.473 . S
O199 C181 1.257 . S
H200 C186 0.929 . S
H201 C188 0.931 . S
H202 C190 0.929 . S
O203 Tb204 2.292 . S
O203 C206 1.255 . S
Tb204 O203 2.292 . S
Tb204 O220 2.326 . S
Tb204 O222 2.500 . S
Tb204 O223 2.473 . S
Tb204 O226 2.324 . S
Eu205 O209 2.292 . S
Eu205 C210 2.852 . S
Eu205 O221 2.324 . S
Eu205 O225 2.326 . S
Eu205 O227 2.500 . S
Eu205 O228 2.473 . S
C206 O203 1.255 . S
C206 O207 1.247 . S
O207 C206 1.247 . S
C208 O220 1.242 . S
C208 O221 1.258 . S
O209 Eu205 2.292 . S
O209 C211 1.255 . S
C210 Eu205 2.852 . S
C210 C214 1.503 . S
C210 O227 1.273 . S
C210 O228 1.257 . S
C211 O209 1.255 . S
C211 O212 1.247 . S
O212 C211 1.247 . S
C213 O225 1.242 . S
C213 O226 1.258 . S
C214 C210 1.503 . S
C214 C215 1.379 . S
C214 C219 1.392 . S
C215 C214 1.379 . S
C215 C216 1.404 . S
C215 H229 0.929 . S
C216 C215 1.404 . S
C216 C217 1.389 . S
C217 C216 1.389 . S
C217 C218 1.399 . S
C217 H230 0.931 . S
C218 C217 1.399 . S
C218 C219 1.390 . S
C219 C214 1.392 . S
C219 C218 1.390 . S
C219 H231 0.929 . S
O220 Tb204 2.326 . S
O220 C208 1.242 . S
O221 Eu205 2.324 . S
O221 C208 1.258 . S
O222 Tb204 2.500 . S
O222 C224 1.273 . S
O223 Tb204 2.473 . S
O223 C224 1.257 . S
C224 O222 1.273 . S
C224 O223 1.257 . S
O225 Eu205 2.326 . S
O225 C213 1.242 . S
O226 Tb204 2.324 . S
O226 C213 1.258 . S
O227 Eu205 2.500 . S
O227 C210 1.273 . S
O228 Eu205 2.473 . S
O228 C210 1.257 . S
H229 C215 0.929 . S
H230 C217 0.931 . S
H231 C219 0.929 . S
H232 C240 0.929 . S
H233 C242 0.930 . S
H234 C244 0.930 . S
H235 C247 0.929 . S
H236 C250 0.930 . S
H237 C252 0.960 . S
H238 C252 0.960 . S
H239 C252 0.960 . S
C240 H232 0.929 . S
C240 C241 1.377 . S
C240 C242 1.384 . S
C241 C240 1.377 . S
C241 C247 1.390 . S
C242 H233 0.930 . S
C242 C240 1.384 . S
C242 C243 1.372 . S
C243 C242 1.372 . S
C243 C244 1.400 . S
C243 C248 1.490 . S
C244 H234 0.930 . S
C244 C243 1.400 . S
C244 C247 1.386 . S
H245 C261 0.930 . S
H246 C262 0.931 . S
C247 H235 0.929 . S
C247 C241 1.390 . S
C247 C244 1.386 . S
C248 C243 1.490 . S
C248 C250 1.395 . S
C248 C251 1.403 . S
H249 C255 0.930 . S
C250 H236 0.930 . S
C250 C248 1.395 . S
C250 C253 1.403 . S
C251 C248 1.403 . S
C251 C252 1.524 . S
C251 C255 1.400 . S
C252 H237 0.960 . S
C252 H238 0.960 . S
C252 H239 0.960 . S
C252 C251 1.524 . S
C253 C250 1.403 . S
C253 C254 1.392 . S
C253 C257 1.495 . S
C254 C253 1.392 . S
C254 C255 1.385 . S
C254 C256 1.478 . S
C255 H249 0.930 . S
C255 C251 1.400 . S
C255 C254 1.385 . S
C256 C254 1.478 . S
C256 C258 1.381 . S
C256 C262 1.383 . S
C257 C253 1.495 . S
C257 H263 0.959 . S
C257 H264 0.961 . S
C257 H265 0.960 . S
C258 C256 1.381 . S
C258 C259 1.394 . S
C258 H266 0.930 . S
C259 C258 1.394 . S
C259 C260 1.383 . S
C259 H267 0.929 . S
C260 C259 1.383 . S
C260 C261 1.377 . S
C261 H245 0.930 . S
C261 C260 1.377 . S
C261 C262 1.379 . S
C262 H246 0.931 . S
C262 C256 1.383 . S
C262 C261 1.379 . S
H263 C257 0.959 . S
H264 C257 0.961 . S
H265 C257 0.960 . S
H266 C258 0.930 . S
H267 C259 0.929 . S
H268 C276 0.929 . S
H269 C278 0.930 . S
H270 C280 0.930 . S
H271 C283 0.929 . S
H272 C286 0.930 . S
H273 C288 0.960 . S
H274 C288 0.960 . S
H275 C288 0.960 . S
C276 H268 0.929 . S
C276 C277 1.377 . S
C276 C278 1.384 . S
C277 C276 1.377 . S
C277 C283 1.390 . S
C278 H269 0.930 . S
C278 C276 1.384 . S
C278 C279 1.372 . S
C279 C278 1.372 . S
C279 C280 1.400 . S
C279 C284 1.490 . S
C280 H270 0.930 . S
C280 C279 1.400 . S
C280 C283 1.386 . S
H281 C297 0.930 . S
H282 C298 0.931 . S
C283 H271 0.929 . S
C283 C277 1.390 . S
C283 C280 1.386 . S
C284 C279 1.490 . S
C284 C286 1.395 . S
C284 C287 1.403 . S
H285 C291 0.930 . S
C286 H272 0.930 . S
C286 C284 1.395 . S
C286 C289 1.403 . S
C287 C284 1.403 . S
C287 C288 1.524 . S
C287 C291 1.400 . S
C288 H273 0.960 . S
C288 H274 0.960 . S
C288 H275 0.960 . S
C288 C287 1.524 . S
C289 C286 1.403 . S
C289 C290 1.392 . S
C289 C293 1.495 . S
C290 C289 1.392 . S
C290 C291 1.385 . S
C290 C292 1.478 . S
C291 H285 0.930 . S
C291 C287 1.400 . S
C291 C290 1.385 . S
C292 C290 1.478 . S
C292 C294 1.381 . S
C292 C298 1.383 . S
C293 C289 1.495 . S
C293 H299 0.959 . S
C293 H300 0.961 . S
C293 H301 0.960 . S
C294 C292 1.381 . S
C294 C295 1.394 . S
C294 H302 0.930 . S
C295 C294 1.394 . S
C295 C296 1.383 . S
C295 H303 0.929 . S
C296 C295 1.383 . S
C296 C297 1.377 . S
C297 H281 0.930 . S
C297 C296 1.377 . S
C297 C298 1.379 . S
C298 H282 0.931 . S
C298 C292 1.383 . S
C298 C297 1.379 . S
H299 C293 0.959 . S
H300 C293 0.961 . S
H301 C293 0.960 . S
H302 C294 0.930 . S
H303 C295 0.929 . S
H304 C312 0.929 . S
H305 C314 0.930 . S
H306 C316 0.930 . S
H307 C319 0.929 . S
H308 C322 0.930 . S
H309 C324 0.960 . S
H310 C324 0.960 . S
H311 C324 0.960 . S
C312 H304 0.929 . S
C312 C313 1.377 . S
C312 C314 1.384 . S
C313 C312 1.377 . S
C313 C319 1.390 . S
C314 H305 0.930 . S
C314 C312 1.384 . S
C314 C315 1.372 . S
C315 C314 1.372 . S
C315 C316 1.400 . S
C315 C320 1.490 . S
C316 H306 0.930 . S
C316 C315 1.400 . S
C316 C319 1.386 . S
H317 C333 0.930 . S
H318 C334 0.931 . S
C319 H307 0.929 . S
C319 C313 1.390 . S
C319 C316 1.386 . S
C320 C315 1.490 . S
C320 C322 1.395 . S
C320 C323 1.403 . S
H321 C327 0.930 . S
C322 H308 0.930 . S
C322 C320 1.395 . S
C322 C325 1.403 1_655 S
C323 C320 1.403 . S
C323 C324 1.524 . S
C323 C327 1.400 1_655 S
C324 H309 0.960 . S
C324 H310 0.960 . S
C324 H311 0.960 . S
C324 C323 1.524 . S
C325 C322 1.403 1_455 S
C325 C326 1.392 . S
C325 C329 1.495 . S
C326 C325 1.392 . S
C326 C327 1.385 . S
C326 C328 1.478 . S
C327 H321 0.930 . S
C327 C323 1.400 1_455 S
C327 C326 1.385 . S
C328 C326 1.478 . S
C328 C330 1.381 . S
C328 C334 1.383 . S
C329 C325 1.495 . S
C329 H335 0.959 . S
C329 H336 0.961 . S
C329 H337 0.960 . S
C330 C328 1.381 . S
C330 C331 1.394 . S
C330 H338 0.930 . S
C331 C330 1.394 . S
C331 C332 1.383 . S
C331 H339 0.929 . S
C332 C331 1.383 . S
C332 C333 1.377 . S
C333 H317 0.930 . S
C333 C332 1.377 . S
C333 C334 1.379 . S
C334 H318 0.931 . S
C334 C328 1.383 . S
C334 C333 1.379 . S
H335 C329 0.959 . S
H336 C329 0.961 . S
H337 C329 0.960 . S
H338 C330 0.930 . S
H339 C331 0.929 . S
H340 C348 0.929 . S
H341 C350 0.930 . S
H342 C352 0.930 . S
H343 C355 0.929 . S
H344 C358 0.930 . S
H345 C360 0.960 . S
H346 C360 0.960 . S
H347 C360 0.960 . S
C348 H340 0.929 . S
C348 C349 1.377 . S
C348 C350 1.384 . S
C349 C348 1.377 . S
C349 C355 1.390 . S
C350 H341 0.930 . S
C350 C348 1.384 . S
C350 C351 1.372 . S
C351 C350 1.372 . S
C351 C352 1.400 . S
C351 C356 1.490 . S
C352 H342 0.930 . S
C352 C351 1.400 . S
C352 C355 1.386 . S
H353 C369 0.930 . S
H354 C370 0.931 . S
C355 H343 0.929 . S
C355 C349 1.390 . S
C355 C352 1.386 . S
C356 C351 1.490 . S
C356 C358 1.395 . S
C356 C359 1.403 . S
H357 C363 0.930 . S
C358 H344 0.930 . S
C358 C356 1.395 . S
C358 C361 1.403 1_655 S
C359 C356 1.403 . S
C359 C360 1.524 . S
C359 C363 1.400 1_655 S
C360 H345 0.960 . S
C360 H346 0.960 . S
C360 H347 0.960 . S
C360 C359 1.524 . S
C361 C358 1.403 1_455 S
C361 C362 1.392 . S
C361 C365 1.495 . S
C362 C361 1.392 . S
C362 C363 1.385 . S
C362 C364 1.478 . S
C363 H357 0.930 . S
C363 C359 1.400 1_455 S
C363 C362 1.385 . S
C364 C362 1.478 . S
C364 C366 1.381 . S
C364 C370 1.383 . S
C365 C361 1.495 . S
C365 H371 0.959 . S
C365 H372 0.961 . S
C365 H373 0.960 . S
C366 C364 1.381 . S
C366 C367 1.394 . S
C366 H374 0.930 . S
C367 C366 1.394 . S
C367 C368 1.383 . S
C367 H375 0.929 . S
C368 C367 1.383 . S
C368 C369 1.377 . S
C369 H353 0.930 . S
C369 C368 1.377 . S
C369 C370 1.379 . S
C370 H354 0.931 . S
C370 C364 1.383 . S
C370 C369 1.379 . S
H371 C365 0.959 . S
H372 C365 0.961 . S
H373 C365 0.960 . S
H374 C366 0.930 . S
H375 C367 0.929 . S
H376 C384 0.929 1_554 S
H377 C386 0.930 . S
H378 C388 0.930 . S
H379 C391 0.929 . S
H380 C394 0.930 . S
H381 C396 0.960 . S
H382 C396 0.960 . S
H383 C396 0.960 . S
C384 H376 0.929 1_556 S
C384 C385 1.377 . S
C384 C386 1.384 1_556 S
C385 C384 1.377 . S
C385 C391 1.390 . S
C386 H377 0.930 . S
C386 C384 1.384 1_554 S
C386 C387 1.372 1_554 S
C387 C386 1.372 1_556 S
C387 C388 1.400 . S
C387 C392 1.490 . S
C388 H378 0.930 . S
C388 C387 1.400 . S
C388 C391 1.386 . S
H389 C405 0.930 1_556 S
H390 C406 0.931 . S
C391 H379 0.929 . S
C391 C385 1.390 . S
C391 C388 1.386 . S
C392 C387 1.490 . S
C392 C394 1.395 1_556 S
C392 C395 1.403 . S
H393 C399 0.930 . S
C394 H380 0.930 . S
C394 C392 1.395 1_554 S
C394 C397 1.403 . S
C395 C392 1.403 . S
C395 C396 1.524 . S
C395 C399 1.400 . S
C396 H381 0.960 . S
C396 H382 0.960 . S
C396 H383 0.960 . S
C396 C395 1.524 . S
C397 C394 1.403 . S
C397 C398 1.392 . S
C397 C401 1.495 . S
C398 C397 1.392 . S
C398 C399 1.385 1_554 S
C398 C400 1.478 . S
C399 H393 0.930 . S
C399 C395 1.400 . S
C399 C398 1.385 1_556 S
C400 C398 1.478 . S
C400 C402 1.381 . S
C400 C406 1.383 1_554 S
C401 C397 1.495 . S
C401 H407 0.959 . S
C401 H408 0.961 . S
C401 H409 0.960 . S
C402 C400 1.381 . S
C402 C403 1.394 . S
C402 H410 0.930 . S
C403 C402 1.394 . S
C403 C404 1.383 . S
C403 H411 0.929 . S
C404 C403 1.383 . S
C404 C405 1.377 . S
C405 H389 0.930 1_554 S
C405 C404 1.377 . S
C405 C406 1.379 1_554 S
C406 H390 0.931 . S
C406 C400 1.383 1_556 S
C406 C405 1.379 1_556 S
H407 C401 0.959 . S
H408 C401 0.961 . S
H409 C401 0.960 . S
H410 C402 0.930 . S
H411 C403 0.929 . S
H412 C420 0.929 . S
H413 C422 0.930 . S
H414 C424 0.930 . S
H415 C427 0.929 . S
H416 C430 0.930 . S
H417 C432 0.960 . S
H418 C432 0.960 . S
H419 C432 0.960 . S
C420 H412 0.929 . S
C420 C421 1.377 . S
C420 C422 1.384 . S
C421 C420 1.377 . S
C421 C427 1.390 . S
C422 H413 0.930 . S
C422 C420 1.384 . S
C422 C423 1.372 . S
C423 C422 1.372 . S
C423 C424 1.400 . S
C423 C428 1.490 . S
C424 H414 0.930 . S
C424 C423 1.400 . S
C424 C427 1.386 . S
H425 C441 0.930 . S
H426 C442 0.931 . S
C427 H415 0.929 . S
C427 C421 1.390 . S
C427 C424 1.386 . S
C428 C423 1.490 . S
C428 C430 1.395 . S
C428 C431 1.403 . S
H429 C435 0.930 . S
C430 H416 0.930 . S
C430 C428 1.395 . S
C430 C433 1.403 . S
C431 C428 1.403 . S
C431 C432 1.524 . S
C431 C435 1.400 . S
C432 H417 0.960 . S
C432 H418 0.960 . S
C432 H419 0.960 . S
C432 C431 1.524 . S
C433 C430 1.403 . S
C433 C434 1.392 . S
C433 C437 1.495 . S
C434 C433 1.392 . S
C434 C435 1.385 . S
C434 C436 1.478 . S
C435 H429 0.930 . S
C435 C431 1.400 . S
C435 C434 1.385 . S
C436 C434 1.478 . S
C436 C438 1.381 . S
C436 C442 1.383 . S
C437 C433 1.495 . S
C437 H443 0.959 . S
C437 H444 0.961 . S
C437 H445 0.960 . S
C438 C436 1.381 . S
C438 C439 1.394 . S
C438 H446 0.930 . S
C439 C438 1.394 . S
C439 C440 1.383 . S
C439 H447 0.929 . S
C440 C439 1.383 . S
C440 C441 1.377 . S
C441 H425 0.930 . S
C441 C440 1.377 . S
C441 C442 1.379 . S
C442 H426 0.931 . S
C442 C436 1.383 . S
C442 C441 1.379 . S
H443 C437 0.959 . S
H444 C437 0.961 . S
H445 C437 0.960 . S
H446 C438 0.930 . S
H447 C439 0.929 . S
H448 C456 0.929 1_556 S
H449 C458 0.930 . S
H450 C460 0.930 . S
H451 C463 0.929 . S
H452 C466 0.930 . S
H453 C468 0.960 . S
H454 C468 0.960 . S
H455 C468 0.960 . S
C456 H448 0.929 1_554 S
C456 C457 1.377 . S
C456 C458 1.384 1_554 S
C457 C456 1.377 . S
C457 C463 1.390 . S
C458 H449 0.930 . S
C458 C456 1.384 1_556 S
C458 C459 1.372 1_556 S
C459 C458 1.372 1_554 S
C459 C460 1.400 . S
C459 C464 1.490 . S
C460 H450 0.930 . S
C460 C459 1.400 . S
C460 C463 1.386 . S
H461 C477 0.930 1_554 S
H462 C478 0.931 1_554 S
C463 H451 0.929 . S
C463 C457 1.390 . S
C463 C460 1.386 . S
C464 C459 1.490 . S
C464 C466 1.395 1_554 S
C464 C467 1.403 . S
H465 C471 0.930 . S
C466 H452 0.930 . S
C466 C464 1.395 1_556 S
C466 C469 1.403 . S
C467 C464 1.403 . S
C467 C468 1.524 . S
C467 C471 1.400 . S
C468 H453 0.960 . S
C468 H454 0.960 . S
C468 H455 0.960 . S
C468 C467 1.524 . S
C469 C466 1.403 . S
C469 C470 1.392 . S
C469 C473 1.495 . S
C470 C469 1.392 . S
C470 C471 1.385 1_556 S
C470 C472 1.478 . S
C471 H465 0.930 . S
C471 C467 1.400 . S
C471 C470 1.385 1_554 S
C472 C470 1.478 . S
C472 C474 1.381 . S
C472 C478 1.383 . S
C473 C469 1.495 . S
C473 H479 0.959 . S
C473 H480 0.961 . S
C473 H481 0.960 . S
C474 C472 1.381 . S
C474 C475 1.394 . S
C474 H482 0.930 . S
C475 C474 1.394 . S
C475 C476 1.383 . S
C475 H483 0.929 . S
C476 C475 1.383 . S
C476 C477 1.377 . S
C477 H461 0.930 1_556 S
C477 C476 1.377 . S
C477 C478 1.379 . S
C478 H462 0.931 1_556 S
C478 C472 1.383 . S
C478 C477 1.379 . S
H479 C473 0.959 . S
H480 C473 0.961 . S
H481 C473 0.960 . S
H482 C474 0.930 . S
H483 C475 0.929 . S
H484 C492 0.929 . S
H485 C494 0.930 . S
H486 C496 0.930 . S
H487 C499 0.929 . S
H488 C502 0.930 . S
H489 C504 0.960 . S
H490 C504 0.960 . S
H491 C504 0.960 . S
C492 H484 0.929 . S
C492 C493 1.377 . S
C492 C494 1.384 . S
C493 C492 1.377 . S
C493 C499 1.390 . S
C494 H485 0.930 . S
C494 C492 1.384 . S
C494 C495 1.372 . S
C495 C494 1.372 . S
C495 C496 1.400 . S
C495 C500 1.490 . S
C496 H486 0.930 . S
C496 C495 1.400 . S
C496 C499 1.386 . S
H497 C513 0.930 . S
H498 C514 0.931 . S
C499 H487 0.929 . S
C499 C493 1.390 . S
C499 C496 1.386 . S
C500 C495 1.490 . S
C500 C502 1.395 . S
C500 C503 1.403 . S
H501 C507 0.930 . S
C502 H488 0.930 . S
C502 C500 1.395 . S
C502 C505 1.403 . S
C503 C500 1.403 . S
C503 C504 1.524 . S
C503 C507 1.400 . S
C504 H489 0.960 . S
C504 H490 0.960 . S
C504 H491 0.960 . S
C504 C503 1.524 . S
C505 C502 1.403 . S
C505 C506 1.392 . S
C505 C509 1.495 . S
C506 C505 1.392 . S
C506 C507 1.385 . S
C506 C508 1.478 . S
C507 H501 0.930 . S
C507 C503 1.400 . S
C507 C506 1.385 . S
C508 C506 1.478 . S
C508 C510 1.381 . S
C508 C514 1.383 . S
C509 C505 1.495 . S
C509 H515 0.959 . S
C509 H516 0.961 . S
C509 H517 0.960 . S
C510 C508 1.381 . S
C510 C511 1.394 . S
C510 H518 0.930 . S
C511 C510 1.394 . S
C511 C512 1.383 . S
C511 H519 0.929 . S
C512 C511 1.383 . S
C512 C513 1.377 . S
C513 H497 0.930 . S
C513 C512 1.377 . S
C513 C514 1.379 . S
C514 H498 0.931 . S
C514 C508 1.383 . S
C514 C513 1.379 . S
H515 C509 0.959 . S
H516 C509 0.961 . S
H517 C509 0.960 . S
H518 C510 0.930 . S
H519 C511 0.929 . S
H520 C528 0.929 . S
H521 C530 0.930 . S
H522 C532 0.930 . S
H523 C535 0.929 . S
H524 C538 0.930 . S
H525 C540 0.960 . S
H526 C540 0.960 . S
H527 C540 0.960 . S
C528 H520 0.929 . S
C528 C529 1.377 . S
C528 C530 1.384 . S
C529 C528 1.377 . S
C529 C535 1.390 . S
C530 H521 0.930 . S
C530 C528 1.384 . S
C530 C531 1.372 . S
C531 C530 1.372 . S
C531 C532 1.400 . S
C531 C536 1.490 . S
C532 H522 0.930 . S
C532 C531 1.400 . S
C532 C535 1.386 . S
H533 C549 0.930 . S
H534 C550 0.931 . S
C535 H523 0.929 . S
C535 C529 1.390 . S
C535 C532 1.386 . S
C536 C531 1.490 . S
C536 C538 1.395 . S
C536 C539 1.403 . S
H537 C543 0.930 . S
C538 H524 0.930 . S
C538 C536 1.395 . S
C538 C541 1.403 . S
C539 C536 1.403 . S
C539 C540 1.524 . S
C539 C543 1.400 . S
C540 H525 0.960 . S
C540 H526 0.960 . S
C540 H527 0.960 . S
C540 C539 1.524 . S
C541 C538 1.403 . S
C541 C542 1.392 . S
C541 C545 1.495 . S
C542 C541 1.392 . S
C542 C543 1.385 . S
C542 C544 1.478 . S
C543 H537 0.930 . S
C543 C539 1.400 . S
C543 C542 1.385 . S
C544 C542 1.478 . S
C544 C546 1.381 . S
C544 C550 1.383 . S
C545 C541 1.495 . S
C545 H551 0.959 . S
C545 H552 0.961 . S
C545 H553 0.960 . S
C546 C544 1.381 . S
C546 C547 1.394 . S
C546 H554 0.930 . S
C547 C546 1.394 . S
C547 C548 1.383 . S
C547 H555 0.929 . S
C548 C547 1.383 . S
C548 C549 1.377 . S
C549 H533 0.930 . S
C549 C548 1.377 . S
C549 C550 1.379 . S
C550 H534 0.931 . S
C550 C544 1.383 . S
C550 C549 1.379 . S
H551 C545 0.959 . S
H552 C545 0.961 . S
H553 C545 0.960 . S
H554 C546 0.930 . S
H555 C547 0.929 . S
H556 C564 0.929 . S
H557 C566 0.930 . S
H558 C568 0.930 . S
H559 C571 0.929 . S
H560 C574 0.930 . S
H561 C576 0.960 . S
H562 C576 0.960 . S
H563 C576 0.960 . S
C564 H556 0.929 . S
C564 C565 1.377 . S
C564 C566 1.384 . S
C565 C564 1.377 . S
C565 C571 1.390 . S
C566 H557 0.930 . S
C566 C564 1.384 . S
C566 C567 1.372 . S
C567 C566 1.372 . S
C567 C568 1.400 . S
C567 C572 1.490 . S
C568 H558 0.930 . S
C568 C567 1.400 . S
C568 C571 1.386 . S
H569 C585 0.930 . S
H570 C586 0.931 . S
C571 H559 0.929 . S
C571 C565 1.390 . S
C571 C568 1.386 . S
C572 C567 1.490 . S
C572 C574 1.395 . S
C572 C575 1.403 . S
H573 C579 0.930 . S
C574 H560 0.930 . S
C574 C572 1.395 . S
C574 C577 1.403 . S
C575 C572 1.403 . S
C575 C576 1.524 . S
C575 C579 1.400 . S
C576 H561 0.960 . S
C576 H562 0.960 . S
C576 H563 0.960 . S
C576 C575 1.524 . S
C577 C574 1.403 . S
C577 C578 1.392 . S
C577 C581 1.495 . S
C578 C577 1.392 . S
C578 C579 1.385 . S
C578 C580 1.478 . S
C579 H573 0.930 . S
C579 C575 1.400 . S
C579 C578 1.385 . S
C580 C578 1.478 . S
C580 C582 1.381 . S
C580 C586 1.383 . S
C581 C577 1.495 . S
C581 H587 0.959 . S
C581 H588 0.961 . S
C581 H589 0.960 . S
C582 C580 1.381 . S
C582 C583 1.394 . S
C582 H590 0.930 . S
C583 C582 1.394 . S
C583 C584 1.383 . S
C583 H591 0.929 . S
C584 C583 1.383 . S
C584 C585 1.377 . S
C585 H569 0.930 . S
C585 C584 1.377 . S
C585 C586 1.379 . S
C586 H570 0.931 . S
C586 C580 1.383 . S
C586 C585 1.379 . S
H587 C581 0.959 . S
H588 C581 0.961 . S
H589 C581 0.960 . S
H590 C582 0.930 . S
H591 C583 0.929 . S
H592 C600 0.929 . S
H593 C602 0.930 . S
H594 C604 0.930 . S
H595 C607 0.929 . S
H596 C610 0.930 . S
H597 C612 0.960 . S
H598 C612 0.960 . S
H599 C612 0.960 . S
C600 H592 0.929 . S
C600 C601 1.377 . S
C600 C602 1.384 . S
C601 C600 1.377 . S
C601 C607 1.390 . S
C602 H593 0.930 . S
C602 C600 1.384 . S
C602 C603 1.372 . S
C603 C602 1.372 . S
C603 C604 1.400 . S
C603 C608 1.490 . S
C604 H594 0.930 . S
C604 C603 1.400 . S
C604 C607 1.386 . S
H605 C621 0.930 . S
H606 C622 0.931 . S
C607 H595 0.929 . S
C607 C601 1.390 . S
C607 C604 1.386 . S
C608 C603 1.490 . S
C608 C610 1.395 . S
C608 C611 1.403 . S
H609 C615 0.930 . S
C610 H596 0.930 . S
C610 C608 1.395 . S
C610 C613 1.403 . S
C611 C608 1.403 . S
C611 C612 1.524 . S
C611 C615 1.400 . S
C612 H597 0.960 . S
C612 H598 0.960 . S
C612 H599 0.960 . S
C612 C611 1.524 . S
C613 C610 1.403 . S
C613 C614 1.392 . S
C613 C617 1.495 . S
C614 C613 1.392 . S
C614 C615 1.385 . S
C614 C616 1.478 . S
C615 H609 0.930 . S
C615 C611 1.400 . S
C615 C614 1.385 . S
C616 C614 1.478 . S
C616 C618 1.381 . S
C616 C622 1.383 . S
C617 C613 1.495 . S
C617 H623 0.959 . S
C617 H624 0.961 . S
C617 H625 0.960 . S
C618 C616 1.381 . S
C618 C619 1.394 . S
C618 H626 0.930 . S
C619 C618 1.394 . S
C619 C620 1.383 . S
C619 H627 0.929 1_554 S
C620 C619 1.383 . S
C620 C621 1.377 . S
C621 H605 0.930 . S
C621 C620 1.377 . S
C621 C622 1.379 . S
C622 H606 0.931 . S
C622 C616 1.383 . S
C622 C621 1.379 . S
H623 C617 0.959 . S
H624 C617 0.961 . S
H625 C617 0.960 . S
H626 C618 0.930 . S
H627 C619 0.929 1_556 S
H628 C636 0.929 . S
H629 C638 0.930 . S
H630 C640 0.930 . S
H631 C643 0.929 . S
H632 C646 0.930 . S
H633 C648 0.960 . S
H634 C648 0.960 . S
H635 C648 0.960 . S
C636 H628 0.929 . S
C636 C637 1.377 . S
C636 C638 1.384 . S
C637 C636 1.377 . S
C637 C643 1.390 . S
C638 H629 0.930 . S
C638 C636 1.384 . S
C638 C639 1.372 . S
C639 C638 1.372 . S
C639 C640 1.400 . S
C639 C644 1.490 . S
C640 H630 0.930 . S
C640 C639 1.400 . S
C640 C643 1.386 . S
H641 C657 0.930 . S
H642 C658 0.931 . S
C643 H631 0.929 . S
C643 C637 1.390 . S
C643 C640 1.386 . S
C644 C639 1.490 . S
C644 C646 1.395 . S
C644 C647 1.403 . S
H645 C651 0.930 . S
C646 H632 0.930 . S
C646 C644 1.395 . S
C646 C649 1.403 . S
C647 C644 1.403 . S
C647 C648 1.524 . S
C647 C651 1.400 . S
C648 H633 0.960 . S
C648 H634 0.960 . S
C648 H635 0.960 . S
C648 C647 1.524 . S
C649 C646 1.403 . S
C649 C650 1.392 . S
C649 C653 1.495 . S
C650 C649 1.392 . S
C650 C651 1.385 . S
C650 C652 1.478 . S
C651 H645 0.930 . S
C651 C647 1.400 . S
C651 C650 1.385 . S
C652 C650 1.478 . S
C652 C654 1.381 . S
C652 C658 1.383 . S
C653 C649 1.495 . S
C653 H659 0.959 . S
C653 H660 0.961 . S
C653 H661 0.960 . S
C654 C652 1.381 . S
C654 C655 1.394 . S
C654 H662 0.930 . S
C655 C654 1.394 . S
C655 C656 1.383 . S
C655 H663 0.929 . S
C656 C655 1.383 . S
C656 C657 1.377 . S
C657 H641 0.930 . S
C657 C656 1.377 . S
C657 C658 1.379 . S
C658 H642 0.931 . S
C658 C652 1.383 . S
C658 C657 1.379 . S
H659 C653 0.959 . S
H660 C653 0.961 . S
H661 C653 0.960 . S
H662 C654 0.930 . S
H663 C655 0.929 . S
H664 C672 0.929 1_554 S
H665 C674 0.930 . S
H666 C676 0.930 . S
H667 C679 0.929 . S
H668 C682 0.930 . S
H669 C684 0.960 . S
H670 C684 0.960 . S
H671 C684 0.953 1_565 S
C672 H664 0.929 1_556 S
C672 C673 1.377 . S
C672 C674 1.384 . S
C673 C672 1.377 . S
C673 C679 1.390 . S
C674 H665 0.930 . S
C674 C672 1.384 . S
C674 C675 1.372 . S
C675 C674 1.372 . S
C675 C676 1.400 . S
C675 C680 1.490 . S
C676 H666 0.930 . S
C676 C675 1.400 . S
C676 C679 1.386 . S
H677 C693 0.930 . S
H678 C694 0.931 . S
C679 H667 0.929 . S
C679 C673 1.390 . S
C679 C676 1.386 . S
C680 C675 1.490 . S
C680 C682 1.395 . S
C680 C683 1.403 . S
H681 C687 0.930 . S
C682 H668 0.930 . S
C682 C680 1.395 . S
C682 C685 1.403 . S
C683 C680 1.403 . S
C683 C684 1.524 1_565 S
C683 C687 1.400 1_565 S
C684 H669 0.960 . S
C684 H670 0.960 . S
C684 H671 0.953 1_545 S
C684 C683 1.524 1_545 S
C685 C682 1.403 . S
C685 C686 1.393 1_565 S
C685 C689 1.495 . S
C686 C685 1.393 1_545 S
C686 C687 1.385 . S
C686 C688 1.477 . S
C687 H681 0.930 . S
C687 C683 1.400 1_545 S
C687 C686 1.385 . S
C688 C686 1.477 . S
C688 C690 1.381 . S
C688 C694 1.383 . S
C689 C685 1.495 . S
C689 H695 0.959 . S
C689 H696 0.961 . S
C689 H697 0.960 . S
C690 C688 1.381 . S
C690 C691 1.394 . S
C690 H698 0.930 . S
C691 C690 1.394 . S
C691 C692 1.383 . S
C691 H699 0.929 . S
C692 C691 1.383 . S
C692 C693 1.377 . S
C693 H677 0.930 . S
C693 C692 1.377 . S
C693 C694 1.379 . S
C694 H678 0.931 . S
C694 C688 1.383 . S
C694 C693 1.379 . S
H695 C689 0.959 . S
H696 C689 0.961 . S
H697 C689 0.960 . S
H698 C690 0.930 . S
H699 C691 0.929 . S
H700 C708 0.929 . S
H701 C710 0.930 . S
H702 C712 0.930 1_565 S
H703 C715 0.929 . S
H704 C718 0.930 . S
H705 C720 0.960 . S
H706 C720 0.960 1_545 S
H707 C720 0.960 . S
C708 H700 0.929 . S
C708 C709 1.377 . S
C708 C710 1.384 . S
C709 C708 1.377 . S
C709 C715 1.390 . S
C710 H701 0.930 . S
C710 C708 1.384 . S
C710 C711 1.372 . S
C711 C710 1.372 . S
C711 C712 1.400 . S
C711 C716 1.490 . S
C712 H702 0.930 1_545 S
C712 C711 1.400 . S
C712 C715 1.386 . S
H713 C729 0.930 . S
H714 C730 0.931 . S
C715 H703 0.929 . S
C715 C709 1.390 . S
C715 C712 1.386 . S
C716 C711 1.490 . S
C716 C718 1.395 . S
C716 C719 1.403 1_545 S
H717 C723 0.930 . S
C718 H704 0.930 . S
C718 C716 1.395 . S
C718 C721 1.403 1_545 S
C719 C716 1.403 1_565 S
C719 C720 1.524 . S
C719 C723 1.400 . S
C720 H705 0.960 . S
C720 H706 0.960 1_565 S
C720 H707 0.960 . S
C720 C719 1.524 . S
C721 C718 1.403 1_565 S
C721 C722 1.392 . S
C721 C725 1.495 . S
C722 C721 1.392 . S
C722 C723 1.385 . S
C722 C724 1.478 . S
C723 H717 0.930 . S
C723 C719 1.400 . S
C723 C722 1.385 . S
C724 C722 1.478 . S
C724 C726 1.381 . S
C724 C730 1.383 . S
C725 C721 1.495 . S
C725 H731 0.959 . S
C725 H732 0.961 . S
C725 H733 0.960 . S
C726 C724 1.381 . S
C726 C727 1.394 . S
C726 H734 0.930 . S
C727 C726 1.394 . S
C727 C728 1.383 . S
C727 H735 0.929 . S
C728 C727 1.383 . S
C728 C729 1.377 . S
C729 H713 0.930 . S
C729 C728 1.377 . S
C729 C730 1.379 . S
C730 H714 0.931 . S
C730 C724 1.383 . S
C730 C729 1.379 . S
H731 C725 0.959 . S
H732 C725 0.961 . S
H733 C725 0.960 . S
H734 C726 0.930 . S
H735 C727 0.929 . S
H736 C744 0.929 . S
H737 C746 0.930 . S
H738 C748 0.930 . S
H739 C751 0.929 . S
H740 C754 0.930 . S
H741 C756 0.960 . S
H742 C756 0.960 . S
H743 C756 0.960 . S
C744 H736 0.929 . S
C744 C745 1.377 . S
C744 C746 1.384 . S
C745 C744 1.377 . S
C745 C751 1.390 . S
C746 H737 0.930 . S
C746 C744 1.384 . S
C746 C747 1.372 . S
C747 C746 1.372 . S
C747 C748 1.400 . S
C747 C752 1.490 . S
C748 H738 0.930 . S
C748 C747 1.400 . S
C748 C751 1.386 . S
H749 C765 0.930 1_556 S
H750 C766 0.931 . S
C751 H739 0.929 . S
C751 C745 1.390 . S
C751 C748 1.386 . S
C752 C747 1.490 . S
C752 C754 1.395 . S
C752 C755 1.403 1_565 S
H753 C759 0.930 . S
C754 H740 0.930 . S
C754 C752 1.395 . S
C754 C757 1.392 1_565 S
C755 C752 1.403 1_545 S
C755 C756 1.524 . S
C755 C759 1.400 . S
C756 H741 0.960 . S
C756 H742 0.960 . S
C756 H743 0.960 . S
C756 C755 1.524 . S
C757 C754 1.392 1_545 S
C757 C758 1.412 . S
C757 C761 1.486 1_545 S
C758 C757 1.412 . S
C758 C759 1.385 . S
C758 C760 1.478 . S
C759 H753 0.930 . S
C759 C755 1.400 . S
C759 C758 1.385 . S
C760 C758 1.478 . S
C760 C762 1.381 . S
C760 C766 1.383 . S
C761 C757 1.486 1_565 S
C761 H767 0.959 . S
C761 H768 0.961 . S
C761 H769 0.960 . S
C762 C760 1.381 . S
C762 C763 1.394 . S
C762 H770 0.930 . S
C763 C762 1.394 . S
C763 C764 1.383 . S
C763 H771 0.929 . S
C764 C763 1.383 . S
C764 C765 1.377 . S
C765 H749 0.930 1_554 S
C765 C764 1.377 . S
C765 C766 1.379 . S
C766 H750 0.931 . S
C766 C760 1.383 . S
C766 C765 1.379 . S
H767 C761 0.959 . S
H768 C761 0.961 . S
H769 C761 0.960 . S
H770 C762 0.930 . S
H771 C763 0.929 . S
H772 C780 0.929 . S
H773 C782 0.930 . S
H774 C784 0.930 1_545 S
H775 C787 0.929 . S
H776 C790 0.930 . S
H777 C792 0.960 . S
H778 C792 0.960 1_565 S
H779 C792 0.960 . S
C780 H772 0.929 . S
C780 C781 1.377 . S
C780 C782 1.384 . S
C781 C780 1.377 . S
C781 C787 1.390 . S
C782 H773 0.930 . S
C782 C780 1.384 . S
C782 C783 1.372 . S
C783 C782 1.372 . S
C783 C784 1.400 . S
C783 C788 1.490 . S
C784 H774 0.930 1_565 S
C784 C783 1.400 . S
C784 C787 1.386 . S
H785 C801 0.930 . S
H786 C802 0.931 . S
C787 H775 0.929 . S
C787 C781 1.390 . S
C787 C784 1.386 . S
C788 C783 1.490 . S
C788 C790 1.395 . S
C788 C791 1.403 1_565 S
H789 C795 0.930 . S
C790 H776 0.930 . S
C790 C788 1.395 . S
C790 C793 1.403 1_565 S
C791 C788 1.403 1_545 S
C791 C792 1.524 . S
C791 C795 1.400 . S
C792 H777 0.960 . S
C792 H778 0.960 1_545 S
C792 H779 0.960 . S
C792 C791 1.524 . S
C793 C790 1.403 1_545 S
C793 C794 1.392 . S
C793 C797 1.495 . S
C794 C793 1.392 . S
C794 C795 1.385 . S
C794 C796 1.478 . S
C795 H789 0.930 . S
C795 C791 1.400 . S
C795 C794 1.385 . S
C796 C794 1.478 . S
C796 C798 1.381 . S
C796 C802 1.383 . S
C797 C793 1.495 . S
C797 H803 0.959 . S
C797 H804 0.961 . S
C797 H805 0.960 . S
C798 C796 1.381 . S
C798 C799 1.394 . S
C798 H806 0.930 . S
C799 C798 1.394 . S
C799 C800 1.383 . S
C799 H807 0.929 . S
C800 C799 1.383 . S
C800 C801 1.377 . S
C801 H785 0.930 . S
C801 C800 1.377 . S
C801 C802 1.379 . S
C802 H786 0.931 . S
C802 C796 1.383 . S
C802 C801 1.379 . S
H803 C797 0.959 . S
H804 C797 0.961 . S
H805 C797 0.960 . S
H806 C798 0.930 . S
H807 C799 0.929 . S
H808 C816 0.929 . S
H809 C818 0.930 . S
H810 C820 0.930 . S
H811 C823 0.929 . S
H812 C826 0.930 . S
H813 C828 0.960 . S
H814 C828 0.960 . S
H815 C828 0.960 . S
C816 H808 0.929 . S
C816 C817 1.377 . S
C816 C818 1.384 . S
C817 C816 1.377 . S
C817 C823 1.390 . S
C818 H809 0.930 . S
C818 C816 1.384 . S
C818 C819 1.372 . S
C819 C818 1.372 . S
C819 C820 1.400 . S
C819 C824 1.490 . S
C820 H810 0.930 . S
C820 C819 1.400 . S
C820 C823 1.386 . S
H821 C837 0.930 . S
H822 C838 0.931 . S
C823 H811 0.929 . S
C823 C817 1.390 . S
C823 C820 1.386 . S
C824 C819 1.490 . S
C824 C826 1.395 1_655 S
C824 C827 1.403 . S
H825 C831 0.930 . S
C826 H812 0.930 . S
C826 C824 1.395 1_455 S
C826 C829 1.403 1_556 S
C827 C824 1.403 . S
C827 C828 1.524 . S
C827 C831 1.400 1_556 S
C828 H813 0.960 . S
C828 H814 0.960 . S
C828 H815 0.960 . S
C828 C827 1.524 . S
C829 C826 1.403 1_554 S
C829 C830 1.392 . S
C829 C833 1.495 . S
C830 C829 1.392 . S
C830 C831 1.385 1_455 S
C830 C832 1.478 . S
C831 H825 0.930 . S
C831 C827 1.400 1_554 S
C831 C830 1.385 1_655 S
C832 C830 1.478 . S
C832 C834 1.381 . S
C832 C838 1.383 . S
C833 C829 1.495 . S
C833 H839 0.959 . S
C833 H840 0.961 . S
C833 H841 0.960 . S
C834 C832 1.381 . S
C834 C835 1.394 . S
C834 H842 0.930 . S
C835 C834 1.394 . S
C835 C836 1.383 . S
C835 H843 0.929 . S
C836 C835 1.383 . S
C836 C837 1.377 . S
C837 H821 0.930 . S
C837 C836 1.377 . S
C837 C838 1.379 . S
C838 H822 0.931 . S
C838 C832 1.383 . S
C838 C837 1.379 . S
H839 C833 0.959 . S
H840 C833 0.961 . S
H841 C833 0.960 . S
H842 C834 0.930 . S
H843 C835 0.929 . S
H844 C852 0.929 . S
H845 C854 0.930 . S
H846 C856 0.930 . S
H847 C859 0.929 . S
H848 C862 0.930 . S
H849 C864 0.960 . S
H850 C864 0.960 . S
H851 C864 0.960 . S
C852 H844 0.929 . S
C852 C853 1.377 . S
C852 C854 1.384 . S
C853 C852 1.377 . S
C853 C859 1.390 . S
C854 H845 0.930 . S
C854 C852 1.384 . S
C854 C855 1.372 . S
C855 C854 1.372 . S
C855 C856 1.400 . S
C855 C860 1.490 . S
C856 H846 0.930 . S
C856 C855 1.400 . S
C856 C859 1.386 . S
H857 C873 0.930 . S
H858 C874 0.931 . S
C859 H847 0.929 . S
C859 C853 1.390 . S
C859 C856 1.386 . S
C860 C855 1.490 . S
C860 C862 1.395 . S
C860 C863 1.403 1_455 S
H861 C867 0.930 . S
C862 H848 0.930 . S
C862 C860 1.395 . S
C862 C865 1.403 . S
C863 C860 1.403 1_655 S
C863 C864 1.524 . S
C863 C867 1.400 . S
C864 H849 0.960 . S
C864 H850 0.960 . S
C864 H851 0.960 . S
C864 C863 1.524 . S
C865 C862 1.403 . S
C865 C866 1.392 1_455 S
C865 C869 1.495 . S
C866 C865 1.392 1_655 S
C866 C867 1.385 . S
C866 C868 1.478 . S
C867 H861 0.930 . S
C867 C863 1.400 . S
C867 C866 1.385 . S
C868 C866 1.478 . S
C868 C870 1.381 . S
C868 C874 1.383 . S
C869 C865 1.495 . S
C869 H875 0.959 . S
C869 H876 0.961 . S
C869 H877 0.960 . S
C870 C868 1.381 . S
C870 C871 1.394 . S
C870 H878 0.930 . S
C871 C870 1.394 . S
C871 C872 1.383 . S
C871 H879 0.929 . S
C872 C871 1.383 . S
C872 C873 1.377 . S
C873 H857 0.930 . S
C873 C872 1.377 . S
C873 C874 1.379 . S
C874 H858 0.931 . S
C874 C868 1.383 . S
C874 C873 1.379 . S
H875 C869 0.959 . S
H876 C869 0.961 . S
H877 C869 0.960 . S
H878 C870 0.930 . S
H879 C871 0.929 . S
H880 C888 0.929 . S
H881 C890 0.930 . S
H882 C892 0.930 . S
H883 C895 0.929 . S
H884 C898 0.930 . S
H885 C900 0.960 1_554 S
H886 C900 0.960 . S
H887 C900 0.930 1_545 S
C888 H880 0.929 . S
C888 C889 1.377 . S
C888 C890 1.384 . S
C889 C888 1.377 . S
C889 C895 1.390 . S
C890 H881 0.930 . S
C890 C888 1.384 . S
C890 C891 1.372 . S
C891 C890 1.372 . S
C891 C892 1.400 . S
C891 C896 1.490 . S
C892 H882 0.930 . S
C892 C891 1.400 . S
C892 C895 1.386 . S
H893 C909 0.930 . S
H894 C910 0.931 . S
C895 H883 0.929 . S
C895 C889 1.390 . S
C895 C892 1.386 . S
C896 C891 1.490 . S
C896 C898 1.395 . S
C896 C899 1.403 1_545 S
H897 C903 0.930 . S
C898 H884 0.930 . S
C898 C896 1.395 . S
C898 C901 1.403 1_556 S
C899 C896 1.403 1_565 S
C899 C900 1.524 . S
C899 C903 1.400 1_556 S
C900 H885 0.960 1_556 S
C900 H886 0.960 . S
C900 H887 0.930 1_565 S
C900 C899 1.524 . S
C901 C898 1.403 1_554 S
C901 C902 1.392 1_545 S
C901 C905 1.495 . S
C902 C901 1.392 1_565 S
C902 C903 1.385 . S
C902 C904 1.478 . S
C903 H897 0.930 . S
C903 C899 1.400 1_554 S
C903 C902 1.385 . S
C904 C902 1.478 . S
C904 C906 1.381 . S
C904 C910 1.383 . S
C905 C901 1.495 . S
C905 H911 0.959 1_554 S
C905 H912 0.961 . S
C905 H913 0.939 1_544 S
C906 C904 1.381 . S
C906 C907 1.394 . S
C906 H914 0.930 . S
C907 C906 1.394 . S
C907 C908 1.383 . S
C907 H915 0.929 . S
C908 C907 1.383 . S
C908 C909 1.377 . S
C909 H893 0.930 . S
C909 C908 1.377 . S
C909 C910 1.379 . S
C910 H894 0.931 . S
C910 C904 1.383 . S
C910 C909 1.379 . S
H911 C905 0.959 1_556 S
H912 C905 0.961 . S
H913 C905 0.939 1_566 S
H914 C906 0.930 . S
H915 C907 0.929 . S
H916 C924 0.929 . S
H917 C926 0.930 . S
H918 C928 0.930 . S
H919 C931 0.929 . S
H920 C934 0.930 . S
H921 C936 0.960 . S
H922 C936 0.960 . S
H923 C936 0.960 . S
C924 H916 0.929 . S
C924 C925 1.377 . S
C924 C926 1.384 . S
C925 C924 1.377 . S
C925 C931 1.390 . S
C926 H917 0.930 . S
C926 C924 1.384 . S
C926 C927 1.372 . S
C927 C926 1.372 . S
C927 C928 1.400 . S
C927 C932 1.490 . S
C928 H918 0.930 . S
C928 C927 1.400 . S
C928 C931 1.386 . S
H929 C945 0.930 . S
H930 C946 0.931 . S
C931 H919 0.929 . S
C931 C925 1.390 . S
C931 C928 1.386 . S
C932 C927 1.490 . S
C932 C934 1.395 1_565 S
C932 C935 1.403 . S
H933 C939 0.938 . S
C934 H920 0.930 . S
C934 C932 1.395 1_545 S
C934 C937 1.403 . S
C935 C932 1.403 . S
C935 C936 1.524 . S
C935 C939 1.441 . S
C936 H921 0.960 . S
C936 H922 0.960 . S
C936 H923 0.960 . S
C936 C935 1.524 . S
C937 C934 1.403 . S
C937 C938 1.392 . S
C937 C941 1.495 . S
C938 C937 1.392 . S
C938 C939 1.340 1_545 S
C938 C940 1.478 . S
C939 H933 0.938 . S
C939 C935 1.441 . S
C939 C938 1.340 1_565 S
C940 C938 1.478 . S
C940 C942 1.381 . S
C940 C946 1.383 . S
C941 C937 1.495 . S
C941 H947 0.959 . S
C941 H948 0.961 . S
C941 H949 0.960 . S
C942 C940 1.381 . S
C942 C943 1.394 . S
C942 H950 0.930 . S
C943 C942 1.394 . S
C943 C944 1.383 . S
C943 H951 0.929 . S
C944 C943 1.383 . S
C944 C945 1.377 . S
C945 H929 0.930 . S
C945 C944 1.377 . S
C945 C946 1.379 . S
C946 H930 0.931 . S
C946 C940 1.383 . S
C946 C945 1.379 . S
H947 C941 0.959 . S
H948 C941 0.961 . S
H949 C941 0.960 . S
H950 C942 0.930 . S
H951 C943 0.929 . S
H952 C960 0.929 . S
H953 C962 0.930 . S
H954 C964 0.930 . S
H955 C967 0.929 . S
H956 C970 0.930 . S
H957 C972 0.960 1_455 S
H958 C972 0.960 . S
H959 C972 0.960 . S
C960 H952 0.929 . S
C960 C961 1.377 . S
C960 C962 1.384 . S
C961 C960 1.377 . S
C961 C967 1.390 . S
C962 H953 0.930 . S
C962 C960 1.384 . S
C962 C963 1.372 . S
C963 C962 1.372 . S
C963 C964 1.400 . S
C963 C968 1.490 . S
C964 H954 0.930 . S
C964 C963 1.400 . S
C964 C967 1.386 . S
H965 C981 0.930 . S
H966 C982 0.931 . S
C967 H955 0.929 . S
C967 C961 1.390 . S
C967 C964 1.386 . S
C968 C963 1.490 . S
C968 C970 1.395 . S
C968 C971 1.403 . S
H969 C975 0.930 . S
C970 H956 0.930 . S
C970 C968 1.395 . S
C970 C973 1.403 1_655 S
C971 C968 1.403 . S
C971 C972 1.524 . S
C971 C975 1.400 1_655 S
C972 H957 0.960 1_655 S
C972 H958 0.960 . S
C972 H959 0.960 . S
C972 C971 1.524 . S
C973 C970 1.403 1_455 S
C973 C974 1.392 . S
C973 C977 1.495 . S
C974 C973 1.392 . S
C974 C975 1.385 . S
C974 C976 1.478 . S
C975 H969 0.930 . S
C975 C971 1.400 1_455 S
C975 C974 1.385 . S
C976 C974 1.478 . S
C976 C978 1.381 . S
C976 C982 1.383 . S
C977 C973 1.495 . S
C977 H983 0.959 1_455 S
C977 H984 0.961 . S
C977 H985 0.960 1_455 S
C978 C976 1.381 . S
C978 C979 1.394 . S
C978 H986 0.930 . S
C979 C978 1.394 . S
C979 C980 1.383 . S
C979 H987 0.929 . S
C980 C979 1.383 . S
C980 C981 1.377 . S
C981 H965 0.930 . S
C981 C980 1.377 . S
C981 C982 1.379 . S
C982 H966 0.931 . S
C982 C976 1.383 . S
C982 C981 1.379 . S
H983 C977 0.959 1_655 S
H984 C977 0.961 . S
H985 C977 0.960 1_655 S
H986 C978 0.930 . S
H987 C979 0.929 . S
H988 C996 0.929 . S
H989 C998 0.930 . S
H990 C1000 0.930 . S
H991 C1003 0.929 . S
H992 C1006 0.930 . S
H993 C1008 0.960 . S
H994 C1008 0.960 . S
H995 C1008 0.960 . S
C996 H988 0.929 . S
C996 C997 1.377 . S
C996 C998 1.384 . S
C997 C996 1.377 . S
C997 C1003 1.390 . S
C998 H989 0.930 . S
C998 C996 1.384 . S
C998 C999 1.372 . S
C999 C998 1.372 . S
C999 C1000 1.400 . S
C999 C1004 1.490 . S
C1000 H990 0.930 . S
C1000 C999 1.400 . S
C1000 C1003 1.386 . S
H1001 C1017 0.930 . S
H1002 C1018 0.931 . S
C1003 H991 0.929 . S
C1003 C997 1.390 . S
C1003 C1000 1.386 . S
C1004 C999 1.490 . S
C1004 C1006 1.395 . S
C1004 C1007 1.403 1_455 S
H1005 C1011 0.930 . S
C1006 H992 0.930 . S
C1006 C1004 1.395 . S
C1006 C1009 1.403 . S
C1007 C1004 1.403 1_655 S
C1007 C1008 1.524 . S
C1007 C1011 1.400 . S
C1008 H993 0.960 . S
C1008 H994 0.960 . S
C1008 H995 0.960 . S
C1008 C1007 1.524 . S
C1009 C1006 1.403 . S
C1009 C1010 1.392 1_455 S
C1009 C1013 1.495 . S
C1010 C1009 1.392 1_655 S
C1010 C1011 1.385 . S
C1010 C1012 1.478 . S
C1011 H1005 0.930 . S
C1011 C1007 1.400 . S
C1011 C1010 1.385 . S
C1012 C1010 1.478 . S
C1012 C1014 1.381 . S
C1012 C1018 1.383 . S
C1013 C1009 1.495 . S
C1013 H1019 0.959 . S
C1013 H1020 0.961 . S
C1013 H1021 0.960 . S
C1014 C1012 1.381 . S
C1014 C1015 1.394 . S
C1014 H1022 0.930 . S
C1015 C1014 1.394 . S
C1015 C1016 1.383 . S
C1015 H1023 0.929 . S
C1016 C1015 1.383 . S
C1016 C1017 1.377 . S
C1017 H1001 0.930 . S
C1017 C1016 1.377 . S
C1017 C1018 1.379 . S
C1018 H1002 0.931 . S
C1018 C1012 1.383 . S
C1018 C1017 1.379 . S
H1019 C1013 0.959 . S
H1020 C1013 0.961 . S
H1021 C1013 0.960 . S
H1022 C1014 0.930 . S
H1023 C1015 0.929 . S
H1024 C1032 0.929 . S
H1025 C1034 0.930 . S
H1026 C1036 0.930 . S
H1027 C1039 0.929 . S
H1028 C1042 0.930 . S
H1029 C1044 0.960 . S
H1030 C1044 0.960 . S
H1031 C1044 0.960 . S
C1032 H1024 0.929 . S
C1032 C1033 1.377 . S
C1032 C1034 1.384 . S
C1033 C1032 1.377 . S
C1033 C1039 1.390 . S
C1034 H1025 0.930 . S
C1034 C1032 1.384 . S
C1034 C1035 1.372 . S
C1035 C1034 1.372 . S
C1035 C1036 1.400 . S
C1035 C1040 1.490 . S
C1036 H1026 0.930 . S
C1036 C1035 1.400 . S
C1036 C1039 1.386 . S
H1037 C1053 0.930 . S
H1038 C1054 0.931 . S
C1039 H1027 0.929 . S
C1039 C1033 1.390 . S
C1039 C1036 1.386 . S
C1040 C1035 1.490 . S
C1040 C1042 1.395 . S
C1040 C1043 1.403 . S
H1041 C1047 0.930 . S
C1042 H1028 0.930 . S
C1042 C1040 1.395 . S
C1042 C1045 1.403 . S
C1043 C1040 1.403 . S
C1043 C1044 1.524 . S
C1043 C1047 1.400 . S
C1044 H1029 0.960 . S
C1044 H1030 0.960 . S
C1044 H1031 0.960 . S
C1044 C1043 1.524 . S
C1045 C1042 1.403 . S
C1045 C1046 1.392 . S
C1045 C1049 1.495 . S
C1046 C1045 1.392 . S
C1046 C1047 1.385 . S
C1046 C1048 1.478 . S
C1047 H1041 0.930 . S
C1047 C1043 1.400 . S
C1047 C1046 1.385 . S
C1048 C1046 1.478 . S
C1048 C1050 1.381 . S
C1048 C1054 1.383 . S
C1049 C1045 1.495 . S
C1049 H1055 0.959 . S
C1049 H1056 0.961 . S
C1049 H1057 0.960 . S
C1050 C1048 1.381 . S
C1050 C1051 1.394 . S
C1050 H1058 0.930 . S
C1051 C1050 1.394 . S
C1051 C1052 1.383 . S
C1051 H1059 0.929 . S
C1052 C1051 1.383 . S
C1052 C1053 1.377 . S
C1053 H1037 0.930 . S
C1053 C1052 1.377 . S
C1053 C1054 1.379 . S
C1054 H1038 0.931 . S
C1054 C1048 1.383 . S
C1054 C1053 1.379 . S
H1055 C1049 0.959 . S
H1056 C1049 0.961 . S
H1057 C1049 0.960 . S
H1058 C1050 0.930 . S
H1059 C1051 0.929 . S
H1060 C1068 0.929 . S
H1061 C1070 0.930 . S
H1062 C1072 0.930 . S
H1063 C1075 0.929 . S
H1064 C1078 0.930 . S
H1065 C1080 0.960 . S
H1066 C1080 0.960 . S
H1067 C1080 0.960 . S
C1068 H1060 0.929 . S
C1068 C1069 1.377 . S
C1068 C1070 1.384 . S
C1069 C1068 1.377 . S
C1069 C1075 1.390 . S
C1070 H1061 0.930 . S
C1070 C1068 1.384 . S
C1070 C1071 1.372 . S
C1071 C1070 1.372 . S
C1071 C1072 1.400 . S
C1071 C1076 1.490 . S
C1072 H1062 0.930 . S
C1072 C1071 1.400 . S
C1072 C1075 1.386 . S
H1073 C1089 0.930 . S
H1074 C1090 0.931 . S
C1075 H1063 0.929 . S
C1075 C1069 1.390 . S
C1075 C1072 1.386 . S
C1076 C1071 1.490 . S
C1076 C1078 1.395 . S
C1076 C1079 1.403 . S
H1077 C1083 0.930 . S
C1078 H1064 0.930 . S
C1078 C1076 1.395 . S
C1078 C1081 1.403 . S
C1079 C1076 1.403 . S
C1079 C1080 1.524 . S
C1079 C1083 1.400 . S
C1080 H1065 0.960 . S
C1080 H1066 0.960 . S
C1080 H1067 0.960 . S
C1080 C1079 1.524 . S
C1081 C1078 1.403 . S
C1081 C1082 1.392 . S
C1081 C1085 1.495 . S
C1082 C1081 1.392 . S
C1082 C1083 1.385 . S
C1082 C1084 1.478 . S
C1083 H1077 0.930 . S
C1083 C1079 1.400 . S
C1083 C1082 1.385 . S
C1084 C1082 1.478 . S
C1084 C1086 1.381 . S
C1084 C1090 1.383 . S
C1085 C1081 1.495 . S
C1085 H1091 0.959 . S
C1085 H1092 0.961 . S
C1085 H1093 0.960 . S
C1086 C1084 1.381 . S
C1086 C1087 1.394 . S
C1086 H1094 0.930 . S
C1087 C1086 1.394 . S
C1087 C1088 1.383 . S
C1087 H1095 0.929 . S
C1088 C1087 1.383 . S
C1088 C1089 1.377 . S
C1089 H1073 0.930 . S
C1089 C1088 1.377 . S
C1089 C1090 1.379 . S
C1090 H1074 0.931 . S
C1090 C1084 1.383 . S
C1090 C1089 1.379 . S
H1091 C1085 0.959 . S
H1092 C1085 0.961 . S
H1093 C1085 0.960 . S
H1094 C1086 0.930 . S
H1095 C1087 0.929 . S
H1096 C1104 0.929 . S
H1097 C1106 0.930 . S
H1098 C1108 0.930 . S
H1099 C1111 0.929 . S
H1100 C1114 0.930 . S
H1101 C1116 0.960 . S
H1102 C1116 0.960 . S
H1103 C1116 0.960 . S
C1104 H1096 0.929 . S
C1104 C1105 1.377 . S
C1104 C1106 1.384 . S
C1105 C1104 1.377 . S
C1105 C1111 1.390 . S
C1106 H1097 0.930 . S
C1106 C1104 1.384 . S
C1106 C1107 1.372 . S
C1107 C1106 1.372 . S
C1107 C1108 1.400 . S
C1107 C1112 1.490 . S
C1108 H1098 0.930 . S
C1108 C1107 1.400 . S
C1108 C1111 1.386 . S
H1109 C1125 0.930 . S
H1110 C1126 0.931 . S
C1111 H1099 0.929 . S
C1111 C1105 1.390 . S
C1111 C1108 1.386 . S
C1112 C1107 1.490 . S
C1112 C1114 1.395 1_455 S
C1112 C1115 1.403 . S
H1113 C1119 0.930 . S
C1114 H1100 0.930 . S
C1114 C1112 1.395 1_655 S
C1114 C1117 1.403 . S
C1115 C1112 1.403 . S
C1115 C1116 1.524 . S
C1115 C1119 1.400 . S
C1116 H1101 0.960 . S
C1116 H1102 0.960 . S
C1116 H1103 0.960 . S
C1116 C1115 1.524 . S
C1117 C1114 1.403 . S
C1117 C1118 1.392 . S
C1117 C1121 1.495 . S
C1118 C1117 1.392 . S
C1118 C1119 1.385 1_655 S
C1118 C1120 1.478 . S
C1119 H1113 0.930 . S
C1119 C1115 1.400 . S
C1119 C1118 1.385 1_455 S
C1120 C1118 1.478 . S
C1120 C1122 1.381 . S
C1120 C1126 1.383 . S
C1121 C1117 1.495 . S
C1121 H1127 0.959 . S
C1121 H1128 0.961 . S
C1121 H1129 0.960 . S
C1122 C1120 1.381 . S
C1122 C1123 1.394 . S
C1122 H1130 0.930 . S
C1123 C1122 1.394 . S
C1123 C1124 1.383 . S
C1123 H1131 0.929 . S
C1124 C1123 1.383 . S
C1124 C1125 1.377 . S
C1125 H1109 0.930 . S
C1125 C1124 1.377 . S
C1125 C1126 1.379 . S
C1126 H1110 0.931 . S
C1126 C1120 1.383 . S
C1126 C1125 1.379 . S
H1127 C1121 0.959 . S
H1128 C1121 0.961 . S
H1129 C1121 0.960 . S
H1130 C1122 0.930 . S
H1131 C1123 0.929 . S
H1132 C1140 0.929 . S
H1133 C1142 0.930 . S
H1134 C1144 0.930 . S
H1135 C1147 0.929 . S
H1136 C1150 0.930 . S
H1137 C1152 0.960 . S
H1138 C1152 0.960 . S
H1139 C1152 0.960 . S
C1140 H1132 0.929 . S
C1140 C1141 1.377 . S
C1140 C1142 1.384 . S
C1141 C1140 1.377 . S
C1141 C1147 1.390 . S
C1142 H1133 0.930 . S
C1142 C1140 1.384 . S
C1142 C1143 1.372 . S
C1143 C1142 1.372 . S
C1143 C1144 1.400 . S
C1143 C1148 1.490 . S
C1144 H1134 0.930 . S
C1144 C1143 1.400 . S
C1144 C1147 1.386 . S
H1145 C1161 0.930 . S
H1146 C1162 0.931 . S
C1147 H1135 0.929 . S
C1147 C1141 1.390 . S
C1147 C1144 1.386 . S
C1148 C1143 1.490 . S
C1148 C1150 1.395 . S
C1148 C1151 1.403 1_455 S
H1149 C1155 0.930 . S
C1150 H1136 0.930 . S
C1150 C1148 1.395 . S
C1150 C1153 1.403 . S
C1151 C1148 1.403 1_655 S
C1151 C1152 1.524 . S
C1151 C1155 1.400 . S
C1152 H1137 0.960 . S
C1152 H1138 0.960 . S
C1152 H1139 0.960 . S
C1152 C1151 1.524 . S
C1153 C1150 1.403 . S
C1153 C1154 1.392 1_455 S
C1153 C1157 1.495 . S
C1154 C1153 1.392 1_655 S
C1154 C1155 1.385 . S
C1154 C1156 1.478 . S
C1155 H1149 0.930 . S
C1155 C1151 1.400 . S
C1155 C1154 1.385 . S
C1156 C1154 1.478 . S
C1156 C1158 1.381 . S
C1156 C1162 1.383 . S
C1157 C1153 1.495 . S
C1157 H1163 0.959 . S
C1157 H1164 0.961 . S
C1157 H1165 0.960 . S
C1158 C1156 1.381 . S
C1158 C1159 1.394 . S
C1158 H1166 0.930 . S
C1159 C1158 1.394 . S
C1159 C1160 1.383 . S
C1159 H1167 0.929 . S
C1160 C1159 1.383 . S
C1160 C1161 1.377 . S
C1161 H1145 0.930 . S
C1161 C1160 1.377 . S
C1161 C1162 1.379 . S
C1162 H1146 0.931 . S
C1162 C1156 1.383 . S
C1162 C1161 1.379 . S
H1163 C1157 0.959 . S
H1164 C1157 0.961 . S
H1165 C1157 0.960 . S
H1166 C1158 0.930 . S
H1167 C1159 0.929 . S
H1168 C1176 0.929 . S
H1169 C1178 0.930 . S
H1170 C1180 0.930 . S
H1171 C1183 0.929 . S
H1172 C1186 0.930 . S
H1173 C1188 0.960 . S
H1174 C1188 0.960 . S
H1175 C1188 0.960 . S
C1176 H1168 0.929 . S
C1176 C1177 1.377 . S
C1176 C1178 1.384 . S
C1177 C1176 1.377 . S
C1177 C1183 1.390 . S
C1178 H1169 0.930 . S
C1178 C1176 1.384 . S
C1178 C1179 1.372 . S
C1179 C1178 1.372 . S
C1179 C1180 1.400 . S
C1179 C1184 1.490 . S
C1180 H1170 0.930 . S
C1180 C1179 1.400 . S
C1180 C1183 1.386 . S
H1181 C1197 0.930 . S
H1182 C1198 0.931 . S
C1183 H1171 0.929 . S
C1183 C1177 1.390 . S
C1183 C1180 1.386 . S
C1184 C1179 1.490 . S
C1184 C1186 1.395 . S
C1184 C1187 1.403 . S
H1185 C1191 0.930 . S
C1186 H1172 0.930 . S
C1186 C1184 1.395 . S
C1186 C1189 1.403 . S
C1187 C1184 1.403 . S
C1187 C1188 1.524 . S
C1187 C1191 1.400 . S
C1188 H1173 0.960 . S
C1188 H1174 0.960 . S
C1188 H1175 0.960 . S
C1188 C1187 1.524 . S
C1189 C1186 1.403 . S
C1189 C1190 1.392 . S
C1189 C1193 1.495 . S
C1190 C1189 1.392 . S
C1190 C1191 1.385 . S
C1190 C1192 1.478 . S
C1191 H1185 0.930 . S
C1191 C1187 1.400 . S
C1191 C1190 1.385 . S
C1192 C1190 1.478 . S
C1192 C1194 1.381 . S
C1192 C1198 1.383 . S
C1193 C1189 1.495 . S
C1193 H1199 0.959 . S
C1193 H1200 0.961 . S
C1193 H1201 0.960 . S
C1194 C1192 1.381 . S
C1194 C1195 1.394 . S
C1194 H1202 0.930 . S
C1195 C1194 1.394 . S
C1195 C1196 1.383 . S
C1195 H1203 0.929 . S
C1196 C1195 1.383 . S
C1196 C1197 1.377 . S
C1197 H1181 0.930 . S
C1197 C1196 1.377 . S
C1197 C1198 1.379 . S
C1198 H1182 0.931 . S
C1198 C1192 1.383 . S
C1198 C1197 1.379 . S
H1199 C1193 0.959 . S
H1200 C1193 0.961 . S
H1201 C1193 0.960 . S
H1202 C1194 0.930 . S
H1203 C1195 0.929 . S
H1204 C1212 0.929 . S
H1205 C1214 0.930 . S
H1206 C1216 0.930 . S
H1207 C1219 0.929 . S
H1208 C1222 0.930 . S
H1209 C1224 0.960 . S
H1210 C1224 0.960 . S
H1211 C1224 0.960 . S
C1212 H1204 0.929 . S
C1212 C1213 1.377 . S
C1212 C1214 1.384 . S
C1213 C1212 1.377 . S
C1213 C1219 1.390 . S
C1214 H1205 0.930 . S
C1214 C1212 1.384 . S
C1214 C1215 1.372 . S
C1215 C1214 1.372 . S
C1215 C1216 1.400 . S
C1215 C1220 1.490 . S
C1216 H1206 0.930 . S
C1216 C1215 1.400 . S
C1216 C1219 1.386 . S
H1217 C1233 0.930 . S
H1218 C1234 0.931 . S
C1219 H1207 0.929 . S
C1219 C1213 1.390 . S
C1219 C1216 1.386 . S
C1220 C1215 1.490 . S
C1220 C1222 1.395 . S
C1220 C1223 1.403 . S
H1221 C1227 0.930 . S
C1222 H1208 0.930 . S
C1222 C1220 1.395 . S
C1222 C1225 1.403 . S
C1223 C1220 1.403 . S
C1223 C1224 1.524 . S
C1223 C1227 1.400 . S
C1224 H1209 0.960 . S
C1224 H1210 0.960 . S
C1224 H1211 0.960 . S
C1224 C1223 1.524 . S
C1225 C1222 1.403 . S
C1225 C1226 1.392 . S
C1225 C1229 1.495 . S
C1226 C1225 1.392 . S
C1226 C1227 1.385 . S
C1226 C1228 1.478 . S
C1227 H1221 0.930 . S
C1227 C1223 1.400 . S
C1227 C1226 1.385 . S
C1228 C1226 1.478 . S
C1228 C1230 1.381 . S
C1228 C1234 1.383 . S
C1229 C1225 1.495 . S
C1229 H1235 0.959 . S
C1229 H1236 0.961 . S
C1229 H1237 0.960 . S
C1230 C1228 1.381 . S
C1230 C1231 1.394 . S
C1230 H1238 0.930 . S
C1231 C1230 1.394 . S
C1231 C1232 1.383 . S
C1231 H1239 0.929 . S
C1232 C1231 1.383 . S
C1232 C1233 1.377 . S
C1233 H1217 0.930 . S
C1233 C1232 1.377 . S
C1233 C1234 1.379 . S
C1234 H1218 0.931 . S
C1234 C1228 1.383 . S
C1234 C1233 1.379 . S
H1235 C1229 0.959 . S
H1236 C1229 0.961 . S
H1237 C1229 0.960 . S
H1238 C1230 0.930 . S
H1239 C1231 0.929 . S
C241 C42 3.427 . S
C260 C13 3.403 . S
C277 C100 3.428 . S
C296 C71 3.426 . S
C313 C129 3.428 . S
C332 C158 3.403 . S
C349 C216 3.423 . S
C368 C187 3.404 . S
C385 C189 2.444 . S
C404 C15 2.451 . S
C421 C44 2.444 . S
C440 C218 2.457 . S
C457 C131 2.436 . S
C476 C73 2.410 . S
C493 C102 2.434 . S
C512 C160 2.423 . S
C529 C90 1.984 . S
C548 C10 1.893 1_556 S
C565 C61 1.984 . S
C584 C39 1.893 . S
C601 C32 1.984 . S
C620 C68 1.914 1_554 S
C637 C97 1.895 . S
C656 C3 1.978 . S
C673 C126 1.891 1_556 S
C692 C206 1.970 . S
C709 C177 1.984 . S
C728 C155 1.878 . S
C745 C148 1.980 . S
C764 C184 1.865 1_554 S
C781 C119 1.983 . S
C800 C213 1.892 . S
C817 C79 1.169 . S
C836 C21 1.147 . S
C853 C108 1.170 . S
C872 C50 1.213 . S
C889 C195 1.166 . S
C908 C137 1.142 . S
C925 C166 1.175 . S
C944 C224 1.179 . S
C961 C37 0.900 . S
C980 C8 0.927 . S
C997 C95 0.901 . S
C1016 C66 0.850 . S
C1033 C124 0.887 . S
C1052 C153 0.840 . S
C1069 C182 0.909 . S
C1088 C211 0.855 . S
C1105 C5 2.466 . S
C1124 C34 2.472 . S
C1141 C92 2.465 . S
C1160 C63 2.452 . S
C1177 C150 2.466 . S
C1196 C121 2.451 . S
C1213 C179 2.465 . S
C1232 C208 2.451 . S
