# Generated by pormake.
# Topology wgm, (5)-cn, num edge types: 1
# Building blocks:
#     Node 0, Type 0, BuildingBlock: BEQFEK_clean_sbu_0, # of connection points: 5
#     Node 1, Type 0, BuildingBlock: BEQFEK_clean_sbu_0, # of connection points: 5
#     Node 2, Type 0, BuildingBlock: BEQFEK_clean_sbu_0, # of connection points: 5
#     Node 3, Type 0, BuildingBlock: BEQFEK_clean_sbu_0, # of connection points: 5
#     Node 4, Type 0, BuildingBlock: BEQFEK_clean_sbu_0, # of connection points: 5
#     Node 5, Type 0, BuildingBlock: BEQFEK_clean_sbu_0, # of connection points: 5
#     Node 6, Type 0, BuildingBlock: BEQFEK_clean_sbu_0, # of connection points: 5
#     Node 7, Type 0, BuildingBlock: BEQFEK_clean_sbu_0, # of connection points: 5
#     Node 8, Type 0, BuildingBlock: BEQFEK_clean_sbu_0, # of connection points: 5
#     Node 9, Type 0, BuildingBlock: BEQFEK_clean_sbu_0, # of connection points: 5
#     Node 10, Type 0, BuildingBlock: BEQFEK_clean_sbu_0, # of connection points: 5
#     Node 11, Type 0, BuildingBlock: BEQFEK_clean_sbu_0, # of connection points: 5
#     Node 12, Type 0, BuildingBlock: BEQFEK_clean_sbu_0, # of connection points: 5
#     Node 13, Type 0, BuildingBlock: BEQFEK_clean_sbu_0, # of connection points: 5
#     Node 14, Type 0, BuildingBlock: BEQFEK_clean_sbu_0, # of connection points: 5
#     Node 15, Type 0, BuildingBlock: BEQFEK_clean_sbu_0, # of connection points: 5
#     Node 16, Type 0, BuildingBlock: BEQFEK_clean_sbu_0, # of connection points: 5
#     Node 17, Type 0, BuildingBlock: BEQFEK_clean_sbu_0, # of connection points: 5
#     Node 18, Type 0, BuildingBlock: BEQFEK_clean_sbu_0, # of connection points: 5
#     Node 19, Type 0, BuildingBlock: BEQFEK_clean_sbu_0, # of connection points: 5
#     Node 20, Type 0, BuildingBlock: BEQFEK_clean_sbu_0, # of connection points: 5
#     Node 21, Type 0, BuildingBlock: BEQFEK_clean_sbu_0, # of connection points: 5
#     Node 22, Type 0, BuildingBlock: BEQFEK_clean_sbu_0, # of connection points: 5
#     Node 23, Type 0, BuildingBlock: BEQFEK_clean_sbu_0, # of connection points: 5
#     Node 24, Type 0, BuildingBlock: BEQFEK_clean_sbu_0, # of connection points: 5
#     Node 25, Type 0, BuildingBlock: BEQFEK_clean_sbu_0, # of connection points: 5
#     Node 26, Type 0, BuildingBlock: BEQFEK_clean_sbu_0, # of connection points: 5
#     Node 27, Type 0, BuildingBlock: BEQFEK_clean_sbu_0, # of connection points: 5
#     Node 28, Type 0, BuildingBlock: BEQFEK_clean_sbu_0, # of connection points: 5
#     Node 29, Type 0, BuildingBlock: BEQFEK_clean_sbu_0, # of connection points: 5
#     Node 30, Type 0, BuildingBlock: BEQFEK_clean_sbu_0, # of connection points: 5
#     Node 31, Type 0, BuildingBlock: BEQFEK_clean_sbu_0, # of connection points: 5
#     Edge 32, Type (0, 0), BuildingBlock: CIFDUS_clean_linker_0, # of connection points: 2
#     Edge 33, Type (0, 0), BuildingBlock: CIFDUS_clean_linker_0, # of connection points: 2
#     Edge 34, Type (0, 0), BuildingBlock: CIFDUS_clean_linker_0, # of connection points: 2
#     Edge 35, Type (0, 0), BuildingBlock: CIFDUS_clean_linker_0, # of connection points: 2
#     Edge 36, Type (0, 0), BuildingBlock: CIFDUS_clean_linker_0, # of connection points: 2
#     Edge 37, Type (0, 0), BuildingBlock: CIFDUS_clean_linker_0, # of connection points: 2
#     Edge 38, Type (0, 0), BuildingBlock: CIFDUS_clean_linker_0, # of connection points: 2
#     Edge 39, Type (0, 0), BuildingBlock: CIFDUS_clean_linker_0, # of connection points: 2
#     Edge 40, Type (0, 0), BuildingBlock: CIFDUS_clean_linker_0, # of connection points: 2
#     Edge 41, Type (0, 0), BuildingBlock: CIFDUS_clean_linker_0, # of connection points: 2
#     Edge 42, Type (0, 0), BuildingBlock: CIFDUS_clean_linker_0, # of connection points: 2
#     Edge 43, Type (0, 0), BuildingBlock: CIFDUS_clean_linker_0, # of connection points: 2
#     Edge 44, Type (0, 0), BuildingBlock: CIFDUS_clean_linker_0, # of connection points: 2
#     Edge 45, Type (0, 0), BuildingBlock: CIFDUS_clean_linker_0, # of connection points: 2
#     Edge 46, Type (0, 0), BuildingBlock: CIFDUS_clean_linker_0, # of connection points: 2
#     Edge 47, Type (0, 0), BuildingBlock: CIFDUS_clean_linker_0, # of connection points: 2
#     Edge 48, Type (0, 0), BuildingBlock: CIFDUS_clean_linker_0, # of connection points: 2
#     Edge 49, Type (0, 0), BuildingBlock: CIFDUS_clean_linker_0, # of connection points: 2
#     Edge 50, Type (0, 0), BuildingBlock: CIFDUS_clean_linker_0, # of connection points: 2
#     Edge 51, Type (0, 0), BuildingBlock: CIFDUS_clean_linker_0, # of connection points: 2
#     Edge 52, Type (0, 0), BuildingBlock: CIFDUS_clean_linker_0, # of connection points: 2
#     Edge 53, Type (0, 0), BuildingBlock: CIFDUS_clean_linker_0, # of connection points: 2
#     Edge 54, Type (0, 0), BuildingBlock: CIFDUS_clean_linker_0, # of connection points: 2
#     Edge 55, Type (0, 0), BuildingBlock: CIFDUS_clean_linker_0, # of connection points: 2
#     Edge 56, Type (0, 0), BuildingBlock: CIFDUS_clean_linker_0, # of connection points: 2
#     Edge 57, Type (0, 0), BuildingBlock: CIFDUS_clean_linker_0, # of connection points: 2
#     Edge 58, Type (0, 0), BuildingBlock: CIFDUS_clean_linker_0, # of connection points: 2
#     Edge 59, Type (0, 0), BuildingBlock: CIFDUS_clean_linker_0, # of connection points: 2
#     Edge 60, Type (0, 0), BuildingBlock: CIFDUS_clean_linker_0, # of connection points: 2
#     Edge 61, Type (0, 0), BuildingBlock: CIFDUS_clean_linker_0, # of connection points: 2
#     Edge 62, Type (0, 0), BuildingBlock: CIFDUS_clean_linker_0, # of connection points: 2
#     Edge 63, Type (0, 0), BuildingBlock: CIFDUS_clean_linker_0, # of connection points: 2
#     Edge 64, Type (0, 0), BuildingBlock: CIFDUS_clean_linker_0, # of connection points: 2
#     Edge 65, Type (0, 0), BuildingBlock: CIFDUS_clean_linker_0, # of connection points: 2
#     Edge 66, Type (0, 0), BuildingBlock: CIFDUS_clean_linker_0, # of connection points: 2
#     Edge 67, Type (0, 0), BuildingBlock: CIFDUS_clean_linker_0, # of connection points: 2
#     Edge 68, Type (0, 0), BuildingBlock: CIFDUS_clean_linker_0, # of connection points: 2
#     Edge 69, Type (0, 0), BuildingBlock: CIFDUS_clean_linker_0, # of connection points: 2
#     Edge 70, Type (0, 0), BuildingBlock: CIFDUS_clean_linker_0, # of connection points: 2
#     Edge 71, Type (0, 0), BuildingBlock: CIFDUS_clean_linker_0, # of connection points: 2
#     Edge 72, Type (0, 0), BuildingBlock: CIFDUS_clean_linker_0, # of connection points: 2
#     Edge 73, Type (0, 0), BuildingBlock: CIFDUS_clean_linker_0, # of connection points: 2
#     Edge 74, Type (0, 0), BuildingBlock: CIFDUS_clean_linker_0, # of connection points: 2
#     Edge 75, Type (0, 0), BuildingBlock: CIFDUS_clean_linker_0, # of connection points: 2
#     Edge 76, Type (0, 0), BuildingBlock: CIFDUS_clean_linker_0, # of connection points: 2
#     Edge 77, Type (0, 0), BuildingBlock: CIFDUS_clean_linker_0, # of connection points: 2
#     Edge 78, Type (0, 0), BuildingBlock: CIFDUS_clean_linker_0, # of connection points: 2
#     Edge 79, Type (0, 0), BuildingBlock: CIFDUS_clean_linker_0, # of connection points: 2
#     Edge 80, Type (0, 0), BuildingBlock: CIFDUS_clean_linker_0, # of connection points: 2
#     Edge 81, Type (0, 0), BuildingBlock: CIFDUS_clean_linker_0, # of connection points: 2
#     Edge 82, Type (0, 0), BuildingBlock: CIFDUS_clean_linker_0, # of connection points: 2
#     Edge 83, Type (0, 0), BuildingBlock: CIFDUS_clean_linker_0, # of connection points: 2
#     Edge 84, Type (0, 0), BuildingBlock: CIFDUS_clean_linker_0, # of connection points: 2
#     Edge 85, Type (0, 0), BuildingBlock: CIFDUS_clean_linker_0, # of connection points: 2
#     Edge 86, Type (0, 0), BuildingBlock: CIFDUS_clean_linker_0, # of connection points: 2
#     Edge 87, Type (0, 0), BuildingBlock: CIFDUS_clean_linker_0, # of connection points: 2
#     Edge 88, Type (0, 0), BuildingBlock: CIFDUS_clean_linker_0, # of connection points: 2
#     Edge 89, Type (0, 0), BuildingBlock: CIFDUS_clean_linker_0, # of connection points: 2
#     Edge 90, Type (0, 0), BuildingBlock: CIFDUS_clean_linker_0, # of connection points: 2
#     Edge 91, Type (0, 0), BuildingBlock: CIFDUS_clean_linker_0, # of connection points: 2
#     Edge 92, Type (0, 0), BuildingBlock: CIFDUS_clean_linker_0, # of connection points: 2
#     Edge 93, Type (0, 0), BuildingBlock: CIFDUS_clean_linker_0, # of connection points: 2
#     Edge 94, Type (0, 0), BuildingBlock: CIFDUS_clean_linker_0, # of connection points: 2
#     Edge 95, Type (0, 0), BuildingBlock: CIFDUS_clean_linker_0, # of connection points: 2
#     Edge 96, Type (0, 0), BuildingBlock: CIFDUS_clean_linker_0, # of connection points: 2
#     Edge 97, Type (0, 0), BuildingBlock: CIFDUS_clean_linker_0, # of connection points: 2
#     Edge 98, Type (0, 0), BuildingBlock: CIFDUS_clean_linker_0, # of connection points: 2
#     Edge 99, Type (0, 0), BuildingBlock: CIFDUS_clean_linker_0, # of connection points: 2
#     Edge 100, Type (0, 0), BuildingBlock: CIFDUS_clean_linker_0, # of connection points: 2
#     Edge 101, Type (0, 0), BuildingBlock: CIFDUS_clean_linker_0, # of connection points: 2
#     Edge 102, Type (0, 0), BuildingBlock: CIFDUS_clean_linker_0, # of connection points: 2
#     Edge 103, Type (0, 0), BuildingBlock: CIFDUS_clean_linker_0, # of connection points: 2
#     Edge 104, Type (0, 0), BuildingBlock: CIFDUS_clean_linker_0, # of connection points: 2
#     Edge 105, Type (0, 0), BuildingBlock: CIFDUS_clean_linker_0, # of connection points: 2
#     Edge 106, Type (0, 0), BuildingBlock: CIFDUS_clean_linker_0, # of connection points: 2
#     Edge 107, Type (0, 0), BuildingBlock: CIFDUS_clean_linker_0, # of connection points: 2
#     Edge 108, Type (0, 0), BuildingBlock: CIFDUS_clean_linker_0, # of connection points: 2
#     Edge 109, Type (0, 0), BuildingBlock: CIFDUS_clean_linker_0, # of connection points: 2
#     Edge 110, Type (0, 0), BuildingBlock: CIFDUS_clean_linker_0, # of connection points: 2
#     Edge 111, Type (0, 0), BuildingBlock: CIFDUS_clean_linker_0, # of connection points: 2
# Relax obj value: 0.070
# Max RMSD: 0.114
# Mean RMSD: 0.114
data_MOF--net-wgm--node1-BEQFEK_clean_sbu_0--edge1-CIFDUS_clean_linker_0
_symmetry_space_group_name_H-M    P1
_symmetry_Int_Tables_number       1
_symmetry_cell_setting            triclinic
loop_
_symmetry_equiv_pos_as_xyz
'x, y, z'
_cell_length_a     42.827271
_cell_length_b     42.824222
_cell_length_c     73.993977
_cell_angle_alpha  89.993669
_cell_angle_beta   90.020894
_cell_angle_gamma 89.979591
loop_
_atom_site_label
_atom_site_type_symbol
_atom_site_fract_x
_atom_site_fract_y
_atom_site_fract_z
_atom_type_partial_charge
Co0 Co 0.21408 0.11447 0.31641 0.0
Co1 Co 0.20676 0.16804 0.34513 0.0
C2 C 0.15562 0.12233 0.33866 0.0
O3 O 0.1719 0.1082 0.32684 0.0
O4 O 0.16606 0.14631 0.34682 0.0
C5 C 0.19423 0.07543 0.28762 0.0
O6 O 0.1669 0.08732 0.2918 0.0
C7 C 0.18186 0.22352 0.36372 0.0
C8 C 0.22445 0.2424 0.37659 0.0
C9 C 0.19289 0.24811 0.37417 0.0
N10 N 0.20599 0.20456 0.35986 0.0
N11 N 0.23129 0.21581 0.36775 0.0
C12 C 0.14887 0.21706 0.35813 0.0
H13 H 0.14251 0.19295 0.36208 0.0
H14 H 0.14696 0.21876 0.3432 0.0
H15 H 0.13204 0.2332 0.36461 0.0
C16 C 0.22868 0.1683 0.2929 0.0
N17 N 0.21974 0.15615 0.30885 0.0
N18 N 0.21673 0.17876 0.32077 0.0
C19 C 0.22364 0.20615 0.31271 0.0
C20 C 0.2315 0.20041 0.2948 0.0
C21 C 0.23681 0.14904 0.27668 0.0
H22 H 0.25194 0.12927 0.28082 0.0
H23 H 0.21507 0.13915 0.27086 0.0
H24 H 0.24899 0.16298 0.26621 0.0
O25 O 0.24589 0.10343 0.33464 0.0
O26 O 0.23922 0.14033 0.35539 0.0
H27 H 0.24089 0.2383 0.3324 0.0
H28 H 0.22566 0.25676 0.31226 0.0
C29 C 0.22241 0.23723 0.32192 0.0
H30 H 0.19948 0.24004 0.32865 0.0
H31 H 0.25335 0.20556 0.36685 0.0
O32 O 0.21838 0.08473 0.29602 0.0
C33 C 0.25287 0.11578 0.34976 0.0
Co34 Co 0.14735 0.95837 0.5651 0.0
Co35 Co 0.09311 0.9509 0.59313 0.0
C36 C 0.13763 0.89885 0.58638 0.0
O37 O 0.15235 0.91507 0.57473 0.0
O38 O 0.11379 0.90976 0.59446 0.0
C39 C 0.18271 0.94573 0.53218 0.0
O40 O 0.161 0.92513 0.52833 0.0
C41 C 0.03673 0.92594 0.61064 0.0
C42 C 0.02435 0.96475 0.62892 0.0
C43 C 0.01523 0.93487 0.62388 0.0
N44 N 0.05714 0.94944 0.60822 0.0
N45 N 0.04967 0.97249 0.61922 0.0
C46 C 0.03765 0.89656 0.5997 0.0
H47 H 0.05296 0.89954 0.58772 0.0
H48 H 0.01382 0.89019 0.59511 0.0
H49 H 0.04723 0.87732 0.60808 0.0
C50 C 0.09329 0.97621 0.54123 0.0
N51 N 0.10558 0.96601 0.55698 0.0
N52 N 0.08286 0.96259 0.56884 0.0
C53 C 0.05549 0.97031 0.56098 0.0
C54 C 0.06111 0.97918 0.54319 0.0
C55 C 0.11219 0.98554 0.52512 0.0
H56 H 0.13535 0.99437 0.52942 0.0
H57 H 0.11564 0.96485 0.51632 0.0
H58 H 0.09998 0.00379 0.51714 0.0
O59 O 0.15868 0.98908 0.58415 0.0
O60 O 0.12112 0.98211 0.60439 0.0
H61 H 0.02448 0.98462 0.58208 0.0
H62 H 0.00485 0.97446 0.5612 0.0
C63 C 0.02452 0.96857 0.57031 0.0
H64 H 0.02084 0.94455 0.57536 0.0
H65 H 0.06197 0.99346 0.62016 0.0
O66 O 0.18005 0.96264 0.54621 0.0
C67 C 0.14611 0.9955 0.59929 0.0
Co68 Co 0.27994 0.89384 0.8119 0.0
Co69 Co 0.28337 0.83845 0.84011 0.0
C70 C 0.33409 0.88591 0.83772 0.0
O71 O 0.3192 0.90062 0.82548 0.0
O72 O 0.32361 0.8606 0.84445 0.0
C73 C 0.30214 0.93095 0.7822 0.0
O74 O 0.32819 0.91537 0.78484 0.0
C75 C 0.30261 0.78131 0.8609 0.0
C76 C 0.25627 0.76392 0.86927 0.0
C77 C 0.28787 0.75735 0.8704 0.0
N78 N 0.28056 0.80079 0.85433 0.0
N79 N 0.25299 0.79017 0.85947 0.0
C80 C 0.33699 0.7864 0.85878 0.0
H81 H 0.34233 0.81159 0.85796 0.0
H82 H 0.34493 0.77519 0.84607 0.0
H83 H 0.35008 0.77616 0.87029 0.0
C84 C 0.27265 0.84092 0.78657 0.0
N85 N 0.27714 0.8524 0.80331 0.0
N86 N 0.27841 0.82913 0.81494 0.0
C87 C 0.27492 0.80202 0.80586 0.0
C88 C 0.27122 0.80864 0.78759 0.0
C89 C 0.26753 0.86065 0.77014 0.0
H90 H 0.25252 0.8809 0.77356 0.0
H91 H 0.29038 0.86957 0.76532 0.0
H92 H 0.2564 0.84716 0.75908 0.0
O93 O 0.24442 0.90289 0.82775 0.0
O94 O 0.2487 0.86612 0.8488 0.0
H95 H 0.25508 0.76746 0.8232 0.0
H96 H 0.27633 0.75151 0.80421 0.0
C97 C 0.27589 0.77042 0.81445 0.0
H98 H 0.29699 0.76853 0.82306 0.0
H99 H 0.23183 0.8009 0.85625 0.0
O100 O 0.27854 0.92491 0.792 0.0
C101 C 0.23527 0.89026 0.84236 0.0
Co102 Co 0.35154 0.04307 0.06188 0.0
Co103 Co 0.40281 0.0443 0.09226 0.0
C104 C 0.36073 0.09868 0.08641 0.0
O105 O 0.34721 0.08449 0.07349 0.0
O106 O 0.38304 0.08598 0.0951 0.0
C107 C 0.3245 0.06327 0.02823 0.0
O108 O 0.34832 0.08252 0.02742 0.0
C109 C 0.4568 0.06293 0.11516 0.0
C110 C 0.47459 0.01668 0.12349 0.0
C111 C 0.48042 0.04839 0.12499 0.0
N112 N 0.43834 0.0407 0.10795 0.0
N113 N 0.44901 0.01317 0.11314 0.0
C114 C 0.45062 0.09721 0.11341 0.0
H115 H 0.45549 0.10469 0.09933 0.0
H116 H 0.46486 0.11114 0.12297 0.0
H117 H 0.42571 0.10196 0.11628 0.0
C118 C 0.40682 0.02676 0.03935 0.0
N119 N 0.39349 0.03528 0.0551 0.0
N120 N 0.4152 0.03716 0.06768 0.0
C121 C 0.44318 0.03083 0.06013 0.0
C122 C 0.4388 0.02392 0.04195 0.0
C123 C 0.38903 0.01799 0.02269 0.0
H124 H 0.36535 0.00962 0.02628 0.0
H125 H 0.38692 0.03872 0.01378 0.0
H126 H 0.40143 0.99944 0.01505 0.0
O127 O 0.33713 0.00997 0.07833 0.0
O128 O 0.37245 0.01157 0.1003 0.0
H129 H 0.476 0.01117 0.07866 0.0
H130 H 0.49368 0.03319 0.06054 0.0
C131 C 0.47363 0.0322 0.07002 0.0
H132 H 0.4742 0.05316 0.07878 0.0
H133 H 0.43901 0.99191 0.10941 0.0
O134 O 0.32224 0.04406 0.04123 0.0
C135 C 0.34774 1.0001 0.09334 0.0
Co136 Co 0.20219 0.89548 0.19149 0.0
Co137 Co 0.20098 0.84255 0.16225 0.0
C138 C 0.14737 0.8865 0.16663 0.0
O139 O 0.16163 0.90075 0.17924 0.0
O140 O 0.15962 0.86307 0.15878 0.0
C141 C 0.17693 0.93095 0.22031 0.0
O142 O 0.15165 0.91522 0.21604 0.0
C143 C 0.17875 0.78498 0.14497 0.0
C144 C 0.21847 0.77271 0.12736 0.0
C145 C 0.1888 0.76284 0.13238 0.0
N146 N 0.20141 0.80643 0.14712 0.0
N147 N 0.22502 0.79904 0.13649 0.0
C148 C 0.14907 0.7855 0.15563 0.0
H149 H 0.15135 0.8013 0.16745 0.0
H150 H 0.14309 0.76167 0.16039 0.0
H151 H 0.12985 0.79436 0.14697 0.0
C152 C 0.21363 0.84187 0.21564 0.0
N153 N 0.20788 0.85391 0.19919 0.0
N154 N 0.20809 0.83137 0.18708 0.0
C155 C 0.2144 0.80412 0.19556 0.0
C156 C 0.2178 0.8099 0.21397 0.0
C157 C 0.21715 0.86108 0.23243 0.0
H158 H 0.2316 0.88195 0.2295 0.0
H159 H 0.19376 0.86916 0.23687 0.0
H160 H 0.22819 0.84761 0.24353 0.0
O161 O 0.23625 0.90769 0.17508 0.0
O162 O 0.23436 0.87161 0.1535 0.0
H163 H 0.23151 0.77531 0.17405 0.0
H164 H 0.22613 0.75478 0.19521 0.0
C165 C 0.21661 0.77318 0.18624 0.0
H166 H 0.19298 0.76584 0.1819 0.0
H167 H 0.24563 0.81192 0.13552 0.0
O168 O 0.2022 0.92526 0.21194 0.0
C169 C 0.24617 0.89634 0.16026 0.0
Co170 Co 0.36477 0.96035 0.43278 0.0
Co171 Co 0.42418 0.95945 0.40762 0.0
C172 C 0.38248 0.90437 0.40996 0.0
O173 O 0.36433 0.91896 0.42067 0.0
O174 O 0.40759 0.9167 0.40417 0.0
C175 C 0.32542 0.9415 0.46311 0.0
O176 O 0.34684 0.92043 0.46665 0.0
C177 C 0.4799 0.94387 0.38541 0.0
C178 C 0.50133 0.99053 0.38236 0.0
C179 C 0.50504 0.95948 0.37761 0.0
N180 N 0.46261 0.96478 0.39463 0.0
N181 N 0.47542 0.99262 0.39255 0.0
C182 C 0.47024 0.91064 0.38251 0.0
H183 H 0.44529 0.90987 0.37856 0.0
H184 H 0.47292 0.8975 0.39535 0.0
H185 H 0.48395 0.89918 0.37169 0.0
C186 C 0.41284 0.9789 0.45995 0.0
N187 N 0.40433 0.96948 0.44327 0.0
N188 N 0.42932 0.96822 0.43288 0.0
C189 C 0.45463 0.9757 0.44285 0.0
C190 C 0.44503 0.98297 0.46028 0.0
C191 C 0.39047 0.98382 0.47523 0.0
H192 H 0.36844 0.99415 0.47011 0.0
H193 H 0.38508 0.96093 0.48148 0.0
H194 H 0.40036 0.99904 0.48589 0.0
O195 O 0.35467 0.99251 0.41492 0.0
O196 O 0.39496 0.98969 0.39615 0.0
H197 H 0.48957 1.00024 0.42803 0.0
H198 H 0.50493 0.97756 0.44631 0.0
C199 C 0.4871 0.97792 0.43547 0.0
H200 H 0.49156 0.95834 0.42602 0.0
H201 H 0.46625 0.01316 0.39797 0.0
O202 O 0.32928 0.96052 0.45013 0.0
C203 C 0.3687 0.00119 0.40066 0.0
Co204 Co 0.29835 0.11051 0.68419 0.0
Co205 Co 0.29647 0.17023 0.65914 0.0
C206 C 0.35166 0.12754 0.6595 0.0
O207 O 0.33923 0.11015 0.67145 0.0
O208 O 0.33772 0.15175 0.65366 0.0
C209 C 0.31823 0.05411 0.70153 0.0
O210 O 0.33682 0.05259 0.68745 0.0
C211 C 0.31729 0.22967 0.6434 0.0
C212 C 0.27334 0.24941 0.6327 0.0
C213 C 0.30503 0.2553 0.63432 0.0
N214 N 0.29383 0.20979 0.64713 0.0
N215 N 0.26764 0.22172 0.64068 0.0
C216 C 0.35087 0.22254 0.64727 0.0
H217 H 0.35843 0.20312 0.63839 0.0
H218 H 0.3534 0.21463 0.66148 0.0
H219 H 0.36647 0.24263 0.64466 0.0
C220 C 0.28449 0.15819 0.71207 0.0
N221 N 0.29058 0.14996 0.69485 0.0
N222 N 0.2902 0.17505 0.68458 0.0
C223 C 0.28417 0.20018 0.69502 0.0
C224 C 0.28026 0.19035 0.71282 0.0
C225 C 0.2809 0.13521 0.72717 0.0
H226 H 0.26638 0.11529 0.72259 0.0
H227 H 0.30424 0.12597 0.7309 0.0
H228 H 0.26986 0.14593 0.73923 0.0
O229 O 0.26519 0.10036 0.66647 0.0
O230 O 0.26453 0.14191 0.6484 0.0
H231 H 0.26341 0.23614 0.67899 0.0
H232 H 0.28228 0.25032 0.69929 0.0
C233 C 0.28368 0.23305 0.68816 0.0
H234 H 0.30523 0.2376 0.68032 0.0
H235 H 0.24589 0.21088 0.64166 0.0
O236 O 0.29939 0.07697 0.70294 0.0
C237 C 0.25458 0.11485 0.65273 0.0
Co238 Co 0.13746 0.04371 0.93808 0.0
Co239 Co 0.08139 0.03862 0.91103 0.0
C240 C 0.12323 0.09411 0.91079 0.0
O241 O 0.13948 0.08271 0.92361 0.0
O242 O 0.09961 0.07962 0.90459 0.0
C243 C 0.1705 0.06971 0.9685 0.0
O244 O 0.14788 0.09042 0.96886 0.0
C245 C 0.02257 0.05406 0.89223 0.0
C246 C 0.01056 0.00854 0.88009 0.0
C247 C 1.00039 0.03928 0.8813 0.0
N248 N 0.04432 0.03293 0.89705 0.0
N249 N 0.03703 0.00583 0.8897 0.0
C250 C 0.02289 0.08705 0.8989 0.0
H251 H 0.03919 0.08954 0.91047 0.0
H252 H 0.99915 0.09425 0.90323 0.0
H253 H 0.03092 0.10272 0.8879 0.0
C254 C 0.08641 0.03225 0.96467 0.0
N255 N 0.09686 0.03697 0.94771 0.0
N256 N 0.07307 0.03569 0.93642 0.0
C257 C 0.04663 0.0308 0.94595 0.0
C258 C 0.05421 0.02858 0.9642 0.0
C259 C 0.10707 0.02814 0.98082 0.0
H260 H 0.12983 0.01804 0.97674 0.0
H261 H 0.11111 0.05117 0.98726 0.0
H262 H 0.09598 0.01257 0.99095 0.0
O263 O 0.14965 0.00779 0.92308 0.0
O264 O 0.11083 0.00504 0.90327 0.0
H265 H 0.01345 0.00916 0.92835 0.0
H266 H 0.99607 0.02753 0.94798 0.0
C267 C 0.01475 0.02938 0.93769 0.0
H268 H 0.01061 0.05085 0.92975 0.0
H269 H 0.05019 0.98549 0.89121 0.0
O270 O 0.16991 0.04778 0.95696 0.0
C271 C 0.13679 0.99514 0.90943 0.0
Co272 Co 0.79106 0.89079 0.68511 0.0
Co273 Co 0.80077 0.83501 0.65809 0.0
C274 C 0.85147 0.88052 0.66483 0.0
O275 O 0.83384 0.89576 0.67549 0.0
O276 O 0.84222 0.85544 0.65732 0.0
C277 C 0.80394 0.92772 0.71708 0.0
O278 O 0.82549 0.90673 0.72056 0.0
C279 C 0.82571 0.7767 0.64226 0.0
C280 C 0.78683 0.76308 0.62433 0.0
C281 C 0.81645 0.75387 0.62985 0.0
N282 N 0.80259 0.79785 0.64384 0.0
N283 N 0.77953 0.78962 0.63302 0.0
C284 C 0.855 0.77815 0.65327 0.0
H285 H 0.85226 0.79482 0.66464 0.0
H286 H 0.8608 0.75472 0.65874 0.0
H287 H 0.87453 0.78632 0.64463 0.0
C288 C 0.77355 0.83839 0.70967 0.0
N289 N 0.78389 0.84964 0.69374 0.0
N290 N 0.78791 0.82623 0.68241 0.0
C291 C 0.7804 0.79933 0.69085 0.0
C292 C 0.77112 0.80614 0.70842 0.0
C293 C 0.76376 0.85831 0.72529 0.0
H294 H 0.75404 0.88075 0.72037 0.0
H295 H 0.78443 0.86327 0.73385 0.0
H296 H 0.74604 0.84621 0.7337 0.0
O297 O 0.76119 0.90053 0.66577 0.0
O298 O 0.77017 0.863 0.64573 0.0
H299 H 0.76785 0.76672 0.67018 0.0
H300 H 0.77641 0.7487 0.69176 0.0
C301 C 0.78295 0.76772 0.68235 0.0
H302 H 0.80736 0.76377 0.67806 0.0
H303 H 0.75874 0.8021 0.6316 0.0
O304 O 0.78615 0.9242 0.70349 0.0
C305 C 0.75602 0.88781 0.65053 0.0
Co306 Co 0.86092 0.03368 0.43721 0.0
Co307 Co 0.91642 0.0437 0.40997 0.0
C308 C 0.86958 0.09367 0.41587 0.0
O309 O 0.85444 0.07623 0.42675 0.0
O310 O 0.89505 0.08458 0.40875 0.0
C311 C 0.82566 0.05085 0.46833 0.0
O312 O 0.84312 0.07599 0.46714 0.0
C313 C 0.97213 0.06939 0.39178 0.0
C314 C 0.99374 0.02654 0.3808 0.0
C315 C 0.99794 0.05851 0.38229 0.0
N316 N 0.95393 0.04484 0.39599 0.0
N317 N 0.96684 0.01937 0.38921 0.0
C318 C 0.96356 0.10253 0.39586 0.0
H319 H 0.94008 0.10735 0.39023 0.0
H320 H 0.96237 0.10586 0.41072 0.0
H321 H 0.9801 0.11945 0.38983 0.0
C322 C 0.91438 0.01867 0.46181 0.0
N323 N 0.90258 0.02797 0.44576 0.0
N324 N 0.92574 0.03245 0.43435 0.0
C325 C 0.95297 0.02651 0.44286 0.0
C326 C 0.94675 0.0174 0.46051 0.0
C327 C 0.89489 0.00917 0.47766 0.0
H328 H 0.874 0.99621 0.47296 0.0
H329 H 0.88689 0.03044 0.48486 0.0
H330 H 0.90834 0.99441 0.48722 0.0
O331 O 0.851 0.00275 0.41809 0.0
O332 O 0.88868 0.01241 0.39821 0.0
H333 H 0.98833 0.01177 0.42437 0.0
H334 H 0.00341 0.02967 0.44467 0.0
C335 C 0.98449 0.03054 0.43445 0.0
H336 H 0.98557 0.05336 0.42744 0.0
H337 H 0.9575 0.99699 0.39061 0.0
O338 O 0.82981 0.02885 0.45704 0.0
C339 C 0.86397 0.9979 0.40284 0.0
Co340 Co 0.69117 0.11033 0.18463 0.0
Co341 Co 0.69362 0.16953 0.15909 0.0
C342 C 0.63751 0.12868 0.15993 0.0
O343 O 0.6504 0.11089 0.17157 0.0
O344 O 0.65138 0.15289 0.15395 0.0
C345 C 0.67133 0.05397 0.20218 0.0
O346 O 0.65364 0.05166 0.18774 0.0
C347 C 0.6798 0.23048 0.14142 0.0
C348 C 0.72557 0.24073 0.12909 0.0
C349 C 0.69536 0.25226 0.13053 0.0
N350 N 0.7 0.20759 0.14591 0.0
N351 N 0.72727 0.21396 0.13849 0.0
C352 C 0.64696 0.23145 0.14827 0.0
H353 H 0.64395 0.21495 0.1597 0.0
H354 H 0.64094 0.25539 0.15284 0.0
H355 H 0.63077 0.22447 0.13728 0.0
C356 C 0.70594 0.15839 0.21201 0.0
N357 N 0.69944 0.15 0.19489 0.0
N358 N 0.7002 0.17489 0.18443 0.0
C359 C 0.7071 0.20003 0.19466 0.0
C360 C 0.71094 0.19043 0.21251 0.0
C361 C 0.70951 0.1356 0.22721 0.0
H362 H 0.72387 0.11552 0.22268 0.0
H363 H 0.68615 0.12655 0.23104 0.0
H364 H 0.72072 0.14637 0.2392 0.0
O365 O 0.72505 0.0988 0.16765 0.0
O366 O 0.72462 0.13964 0.14913 0.0
H367 H 0.72941 0.23441 0.1782 0.0
H368 H 0.71143 0.25013 0.19841 0.0
C369 C 0.70912 0.23262 0.18746 0.0
H370 H 0.68779 0.23795 0.17959 0.0
H371 H 0.74702 0.19983 0.1397 0.0
O372 O 0.68933 0.07743 0.2038 0.0
C373 C 0.73529 0.11305 0.15376 0.0
Co374 Co 0.63342 0.95805 0.93637 0.0
Co375 Co 0.57888 0.9516 0.90844 0.0
C376 C 0.62172 0.89841 0.91601 0.0
O377 O 0.63661 0.91464 0.92753 0.0
O378 O 0.59849 0.90963 0.90747 0.0
C379 C 0.66808 0.9448 0.96898 0.0
O380 O 0.64585 0.92471 0.9727 0.0
C381 C 0.52084 0.92802 0.89195 0.0
C382 C 0.50829 0.96718 0.87394 0.0
C383 C 0.49857 0.93767 0.87933 0.0
N384 N 0.54226 0.9508 0.89377 0.0
N385 N 0.53468 0.97404 0.88291 0.0
C386 C 0.52134 0.89877 0.90301 0.0
H387 H 0.53691 0.90161 0.91489 0.0
H388 H 0.49746 0.89282 0.90769 0.0
H389 H 0.53046 0.87927 0.89466 0.0
C390 C 0.58108 0.97856 0.9601 0.0
N391 N 0.59247 0.9674 0.9444 0.0
N392 N 0.5694 0.96433 0.93273 0.0
C393 C 0.54254 0.97322 0.94076 0.0
C394 C 0.54904 0.98246 0.95839 0.0
C395 C 0.60081 0.98806 0.97586 0.0
H396 H 0.62394 0.99632 0.97116 0.0
H397 H 0.60422 0.96763 0.98486 0.0
H398 H 0.58932 0.00685 0.98378 0.0
O399 O 0.64549 0.98726 0.91711 0.0
O400 O 0.60779 0.98189 0.89677 0.0
H401 H 0.5114 0.98776 0.91976 0.0
H402 H 0.49211 0.97927 0.94098 0.0
C403 C 0.51123 0.97224 0.93176 0.0
H404 H 0.5065 0.94816 0.92711 0.0
H405 H 0.54751 0.99464 0.88166 0.0
O406 O 0.66617 0.96183 0.95499 0.0
C407 C 0.63332 0.9942 0.90197 0.0
Co408 Co 0.79151 0.10625 0.81863 0.0
Co409 Co 0.79271 0.16356 0.8451 0.0
C410 C 0.84811 0.12316 0.84147 0.0
O411 O 0.83325 0.10563 0.83054 0.0
O412 O 0.83583 0.14779 0.84795 0.0
C413 C 0.80812 0.07039 0.78619 0.0
O414 O 0.82554 0.09414 0.78126 0.0
C415 C 0.80801 0.22346 0.86317 0.0
C416 C 0.7635 0.233 0.87719 0.0
C417 C 0.79341 0.24473 0.87474 0.0
N418 N 0.78756 0.20059 0.85918 0.0
N419 N 0.76108 0.20646 0.86764 0.0
C420 C 0.83997 0.22524 0.85506 0.0
H421 H 0.8415 0.21015 0.8429 0.0
H422 H 0.84566 0.24966 0.8513 0.0
H423 H 0.85737 0.21684 0.86506 0.0
C424 C 0.7705 0.15626 0.79295 0.0
N425 N 0.78134 0.14643 0.80912 0.0
N426 N 0.78246 0.17044 0.82026 0.0
C427 C 0.77298 0.1963 0.81143 0.0
C428 C 0.76502 0.18819 0.79384 0.0
C429 C 0.76207 0.13511 0.77762 0.0
H430 H 0.75592 0.11158 0.78273 0.0
H431 H 0.78229 0.13312 0.76833 0.0
H432 H 0.74211 0.14474 0.76983 0.0
O433 O 0.75968 0.09418 0.83639 0.0
O434 O 0.76324 0.13301 0.85611 0.0
H435 H 0.75319 0.22886 0.83009 0.0
H436 H 0.76746 0.24658 0.80947 0.0
C437 C 0.77185 0.22817 0.8197 0.0
H438 H 0.79439 0.23318 0.8264 0.0
H439 H 0.74133 0.19225 0.86693 0.0
O440 O 0.79207 0.07189 0.80059 0.0
C441 C 0.75154 0.10709 0.85111 0.0
Co442 Co 0.64543 0.04709 0.56626 0.0
Co443 Co 0.58654 0.04393 0.59196 0.0
C444 C 0.62722 0.10055 0.59087 0.0
O445 O 0.64488 0.08838 0.57892 0.0
O446 O 0.6036 0.08594 0.597 0.0
C447 C 0.70155 0.06657 0.54868 0.0
O448 O 0.70352 0.08444 0.56306 0.0
C449 C 0.5286 0.0599 0.6116 0.0
C450 C 0.51071 0.01306 0.61869 0.0
C451 C 0.50439 0.04463 0.62049 0.0
N452 N 0.54803 0.03825 0.60473 0.0
N453 N 0.53721 0.01034 0.60905 0.0
C454 C 0.53548 0.09415 0.61132 0.0
H455 H 0.5386 0.10201 0.59714 0.0
H456 H 0.51728 0.1083 0.61805 0.0
H457 H 0.55772 0.09821 0.61856 0.0
C458 C 0.59713 0.03052 0.53919 0.0
N459 N 0.60573 0.03814 0.55613 0.0
N460 N 0.58099 0.03757 0.56669 0.0
C461 C 0.55574 0.03006 0.5567 0.0
C462 C 0.56516 0.02518 0.53896 0.0
C463 C 0.61932 0.02821 0.52364 0.0
H464 H 0.63657 0.00946 0.5264 0.0
H465 H 0.63237 0.05047 0.52233 0.0
H466 H 0.60701 0.02322 0.51076 0.0
O467 O 0.65722 0.01385 0.58369 0.0
O468 O 0.61607 0.0129 0.60198 0.0
H469 H 0.52391 0.00435 0.57313 0.0
H470 H 0.50603 0.02175 0.55356 0.0
C471 C 0.52372 0.02526 0.5643 0.0
H472 H 0.51709 0.04574 0.57264 0.0
H473 H 0.54813 0.98939 0.60558 0.0
O474 O 0.67827 0.04833 0.54705 0.0
C475 C 0.64301 0.00306 0.59747 0.0
Co476 Co 0.71135 0.8923 0.312 0.0
Co477 Co 0.70959 0.83363 0.33749 0.0
C478 C 0.65548 0.8774 0.3352 0.0
O479 O 0.66922 0.89489 0.32375 0.0
O480 O 0.66854 0.85288 0.34124 0.0
C481 C 0.68995 0.92985 0.28239 0.0
O482 O 0.6654 0.91159 0.2836 0.0
C483 C 0.6862 0.77565 0.35367 0.0
C484 C 0.72662 0.7607 0.37002 0.0
C485 C 0.6959 0.75288 0.366 0.0
N486 N 0.70998 0.79561 0.35086 0.0
N487 N 0.73407 0.78651 0.36065 0.0
C488 C 0.65561 0.77839 0.34401 0.0
H489 H 0.65768 0.79438 0.33227 0.0
H490 H 0.6478 0.75515 0.33916 0.0
H491 H 0.63782 0.78808 0.35335 0.0
C492 C 0.72583 0.84235 0.28491 0.0
N493 N 0.71891 0.85186 0.30183 0.0
N494 N 0.71795 0.82729 0.31252 0.0
C495 C 0.72392 0.80138 0.30273 0.0
C496 C 0.7291 0.81001 0.28485 0.0
C497 C 0.73107 0.86402 0.26934 0.0
H498 H 0.74336 0.88532 0.27401 0.0
H499 H 0.70816 0.87102 0.26363 0.0
H500 H 0.74508 0.85271 0.25855 0.0
O501 O 0.74374 0.90249 0.33047 0.0
O502 O 0.74109 0.86136 0.34871 0.0
H503 H 0.74136 0.76663 0.32089 0.0
H504 H 0.72645 0.75084 0.29987 0.0
C505 C 0.72309 0.76899 0.31034 0.0
H506 H 0.70017 0.76493 0.31681 0.0
H507 H 0.75539 0.79827 0.36119 0.0
O508 O 0.71279 0.92546 0.29309 0.0
C509 C 0.75249 0.88788 0.34461 0.0
Co510 Co 0.84957 0.96556 0.06783 0.0
Co511 Co 0.90795 0.96006 0.09327 0.0
C512 C 0.86404 0.90676 0.08837 0.0
O513 O 0.84745 0.92264 0.07746 0.0
O514 O 0.88842 0.91826 0.09563 0.0
C515 C 0.81019 0.94904 0.03807 0.0
O516 O 0.83064 0.92664 0.03542 0.0
C517 C 0.96619 0.93608 0.10963 0.0
C518 C 0.98757 0.97964 0.11981 0.0
C519 C 0.99228 0.9477 0.11856 0.0
N520 N 0.94723 0.96018 0.1056 0.0
N521 N 0.96012 0.9861 0.11178 0.0
C522 C 0.95796 0.90265 0.10612 0.0
H523 H 0.93595 0.89706 0.11329 0.0
H524 H 0.95378 0.89926 0.09145 0.0
H525 H 0.97617 0.88628 0.11091 0.0
C526 C 0.89888 0.9804 0.04081 0.0
N527 N 0.88933 0.97337 0.05767 0.0
N528 N 0.91392 0.97059 0.06827 0.0
C529 C 0.93993 0.97536 0.05834 0.0
C530 C 0.93123 0.98171 0.04062 0.0
C531 C 0.8775 0.98681 0.02525 0.0
H532 H 0.85563 0.99784 0.0301 0.0
H533 H 0.87166 0.96448 0.01846 0.0
H534 H 0.88887 0.00235 0.01521 0.0
O535 O 0.84057 0.99569 0.08712 0.0
O536 O 0.88067 0.99101 0.10595 0.0
H537 H 0.97744 0.99035 0.07528 0.0
H538 H 0.99007 0.97241 0.05442 0.0
C539 C 0.97246 0.97154 0.06539 0.0
H540 H 0.97449 0.9488 0.07244 0.0
H541 H 0.95017 0.00823 0.11048 0.0
O542 O 0.81469 0.96893 0.05051 0.0
C543 C 0.85455 0.00316 0.10164 0.0
Co544 Co 0.71739 0.61025 0.81471 0.0
Co545 Co 0.70915 0.66423 0.84317 0.0
C546 C 0.65732 0.62032 0.83493 0.0
O547 O 0.6738 0.60572 0.8234 0.0
O548 O 0.66814 0.64361 0.84353 0.0
C549 C 0.69968 0.58232 0.78204 0.0
O550 O 0.67846 0.60441 0.78316 0.0
C551 C 0.6818 0.71887 0.8613 0.0
C552 C 0.72296 0.73971 0.87468 0.0
C553 C 0.69125 0.74396 0.87186 0.0
N554 N 0.70691 0.70099 0.85778 0.0
N555 N 0.73137 0.71343 0.86595 0.0
C556 C 0.64932 0.71063 0.8555 0.0
H557 H 0.64851 0.70839 0.84056 0.0
H558 H 0.63175 0.72782 0.86013 0.0
H559 H 0.64299 0.68767 0.86136 0.0
C560 C 0.73554 0.66437 0.79159 0.0
N561 N 0.72569 0.65197 0.80735 0.0
N562 N 0.72141 0.67463 0.81913 0.0
C563 C 0.72787 0.70219 0.81111 0.0
C564 C 0.73706 0.69659 0.79341 0.0
C565 C 0.74536 0.64568 0.77548 0.0
H566 H 0.7556 0.62312 0.77982 0.0
H567 H 0.72464 0.64097 0.7669 0.0
H568 H 0.76272 0.65864 0.76725 0.0
O569 O 0.74633 0.59744 0.83434 0.0
O570 O 0.73942 0.63521 0.85462 0.0
H571 H 0.74158 0.73613 0.83073 0.0
H572 H 0.72596 0.75281 0.81018 0.0
C573 C 0.72376 0.73333 0.81997 0.0
H574 H 0.70035 0.73454 0.82629 0.0
H575 H 0.7539 0.70418 0.86537 0.0
O576 O 0.72057 0.58053 0.79422 0.0
C577 C 0.75214 0.60966 0.8497 0.0
Co578 Co 0.63469 0.46148 0.06415 0.0
Co579 Co 0.58044 0.46416 0.09268 0.0
C580 C 0.61817 0.40635 0.08805 0.0
O581 O 0.63547 0.41963 0.07629 0.0
O582 O 0.59495 0.42039 0.09509 0.0
C583 C 0.6881 0.44352 0.04303 0.0
O584 O 0.69335 0.42502 0.05687 0.0
C585 C 0.52127 0.45066 0.11132 0.0
C586 C 0.51547 0.49307 0.12799 0.0
C587 C 0.50166 0.46456 0.12406 0.0
N588 N 0.54528 0.47008 0.10809 0.0
N589 N 0.54171 0.49533 0.11812 0.0
C590 C 0.51691 0.42044 0.10148 0.0
H591 H 0.53078 0.42032 0.08881 0.0
H592 H 0.49188 0.41663 0.09828 0.0
H593 H 0.5253 0.40097 0.11011 0.0
C594 C 0.58174 0.4774 0.03956 0.0
N595 N 0.5935 0.47179 0.05617 0.0
N596 N 0.57086 0.47382 0.06815 0.0
C597 C 0.54406 0.48124 0.05955 0.0
C598 C 0.54992 0.48356 0.0411 0.0
C599 C 0.60038 0.47464 0.02253 0.0
H600 H 0.61683 0.4946 0.02166 0.0
H601 H 0.6144 0.45286 0.0229 0.0
H602 H 0.58526 0.47437 0.01036 0.0
O603 O 0.65088 0.493 0.08163 0.0
O604 O 0.61356 0.49175 0.10239 0.0
H605 H 0.51762 0.50022 0.08159 0.0
H606 H 0.49756 0.50094 0.06016 0.0
C607 C 0.51362 0.48723 0.06886 0.0
H608 H 0.50238 0.46462 0.07214 0.0
H609 H 0.55722 0.51411 0.11823 0.0
O610 O 0.6641 0.46105 0.04321 0.0
C611 C 0.63986 0.50164 0.09681 0.0
Co612 Co 0.7976 0.38956 0.31212 0.0
Co613 Co 0.80352 0.33315 0.33919 0.0
C614 C 0.85652 0.37664 0.33335 0.0
O615 O 0.84045 0.3923 0.32207 0.0
O616 O 0.84539 0.35255 0.34109 0.0
C617 C 0.81511 0.42026 0.27946 0.0
O618 O 0.8349 0.39692 0.2783 0.0
C619 C 0.82595 0.27536 0.35665 0.0
C620 C 0.78562 0.26328 0.37385 0.0
C621 C 0.81577 0.25384 0.36962 0.0
N622 N 0.80298 0.29621 0.35371 0.0
N623 N 0.77895 0.2888 0.36401 0.0
C624 C 0.85621 0.27606 0.34656 0.0
H625 H 0.85416 0.29102 0.33436 0.0
H626 H 0.86309 0.25213 0.34241 0.0
H627 H 0.87466 0.28604 0.35536 0.0
C628 C 0.77951 0.33796 0.28725 0.0
N629 N 0.78897 0.34864 0.30349 0.0
N630 N 0.79213 0.32482 0.31464 0.0
C631 C 0.78515 0.29822 0.3057 0.0
C632 C 0.77722 0.30573 0.28802 0.0
C633 C 0.77021 0.35818 0.27165 0.0
H634 H 0.7612 0.38092 0.27653 0.0
H635 H 0.79079 0.36219 0.26287 0.0
H636 H 0.75195 0.34659 0.26338 0.0
O637 O 0.76714 0.40122 0.33109 0.0
O638 O 0.7731 0.3621 0.35053 0.0
H639 H 0.77128 0.26524 0.32586 0.0
H640 H 0.78001 0.24788 0.30412 0.0
C641 C 0.78681 0.26631 0.31388 0.0
H642 H 0.81099 0.26175 0.3185 0.0
H643 H 0.75813 0.30144 0.3645 0.0
O644 O 0.79612 0.42151 0.29264 0.0
C645 C 0.76046 0.38785 0.34598 0.0
Co646 Co 0.86178 0.53373 0.56404 0.0
Co647 Co 0.91281 0.53522 0.59477 0.0
C648 C 0.8689 0.58827 0.58983 0.0
O649 O 0.85542 0.57383 0.57696 0.0
O650 O 0.89248 0.57669 0.59792 0.0
C651 C 0.80853 0.54764 0.54246 0.0
O652 O 0.80011 0.5628 0.5571 0.0
C653 C 0.96787 0.55242 0.61732 0.0
C654 C 0.9823 0.50587 0.62715 0.0
C655 C 0.99029 0.53718 0.62771 0.0
N656 N 0.94795 0.53091 0.61069 0.0
N657 N 0.95666 0.50321 0.61676 0.0
C658 C 0.96451 0.58683 0.61431 0.0
H659 H 0.93964 0.59362 0.61531 0.0
H660 H 0.97278 0.59275 0.60053 0.0
H661 H 0.978 0.60044 0.6244 0.0
C662 C 0.91736 0.52161 0.54163 0.0
N663 N 0.90401 0.52813 0.55764 0.0
N664 N 0.92563 0.52914 0.57027 0.0
C665 C 0.95367 0.52371 0.56256 0.0
C666 C 0.94936 0.51868 0.54415 0.0
C667 C 0.89923 0.5156 0.52467 0.0
H668 H 0.87881 0.50061 0.52777 0.0
H669 H 0.89036 0.53812 0.51931 0.0
H670 H 0.91362 0.50396 0.5142 0.0
O671 O 0.84816 0.4993 0.57962 0.0
O672 O 0.88235 0.50206 0.60215 0.0
H673 H 0.98543 0.50347 0.58152 0.0
H674 H 0.0043 0.52428 0.56326 0.0
C675 C 0.98403 0.52422 0.57258 0.0
H676 H 0.98517 0.5454 0.58113 0.0
H677 H 0.94524 0.48238 0.61363 0.0
O678 O 0.83461 0.53347 0.54226 0.0
C679 C 0.85838 0.48979 0.59479 0.0
Co680 Co 0.70836 0.38644 0.69149 0.0
Co681 Co 0.70461 0.33662 0.66026 0.0
C682 C 0.65327 0.38257 0.66586 0.0
O683 O 0.66832 0.39498 0.67886 0.0
O684 O 0.6639 0.35885 0.65747 0.0
C685 C 0.70307 0.44209 0.71101 0.0
O686 O 0.69455 0.45166 0.69487 0.0
C687 C 0.68607 0.28234 0.6372 0.0
C688 C 0.73205 0.26938 0.62592 0.0
C689 C 0.70085 0.26092 0.6259 0.0
N690 N 0.70776 0.30216 0.64375 0.0
N691 N 0.7351 0.29429 0.63683 0.0
C692 C 0.6519 0.28468 0.64124 0.0
H693 H 0.64519 0.3092 0.64385 0.0
H694 H 0.64658 0.27087 0.65354 0.0
H695 H 0.6378 0.2755 0.62983 0.0
C696 C 0.71957 0.32968 0.71322 0.0
N697 N 0.7125 0.34376 0.69748 0.0
N698 N 0.71078 0.32265 0.68458 0.0
C699 C 0.71643 0.29427 0.69183 0.0
C700 C 0.72224 0.29775 0.71023 0.0
C701 C 0.72676 0.34712 0.73026 0.0
H702 H 0.74194 0.36739 0.72713 0.0
H703 H 0.70468 0.35622 0.73608 0.0
H704 H 0.73862 0.33217 0.74039 0.0
O705 O 0.74314 0.39925 0.67592 0.0
O706 O 0.73881 0.36592 0.65309 0.0
H707 H 0.7364 0.26398 0.67201 0.0
H708 H 0.717 0.24371 0.6903 0.0
C709 C 0.71611 0.26443 0.68132 0.0
H710 H 0.69453 0.26324 0.67311 0.0
H711 H 0.75597 0.30585 0.63969 0.0
O712 O 0.71006 0.41349 0.71322 0.0
C713 C 0.75211 0.38915 0.66063 0.0
Co714 Co 0.85731 0.45294 0.93912 0.0
Co715 Co 0.9158 0.45225 0.91335 0.0
C716 C 0.8751 0.39688 0.91601 0.0
O717 O 0.8569 0.41155 0.92669 0.0
O718 O 0.90019 0.40919 0.91016 0.0
C719 C 0.82362 0.42803 0.96904 0.0
O720 O 0.84398 0.40534 0.96701 0.0
C721 C 0.97622 0.43742 0.89581 0.0
C722 C 0.98622 0.48225 0.88225 0.0
C723 C 0.99784 0.45225 0.88456 0.0
N724 N 0.95326 0.45781 0.89973 0.0
N725 N 0.95941 0.4845 0.89156 0.0
C726 C 0.97762 0.40521 0.90361 0.0
H727 H 0.96214 0.40336 0.91558 0.0
H728 H 0.0019 0.3993 0.90759 0.0
H729 H 0.96949 0.38816 0.89335 0.0
C730 C 0.90675 0.46961 0.96584 0.0
N731 N 0.8974 0.46204 0.94899 0.0
N732 N 0.92188 0.46183 0.93822 0.0
C733 C 0.94755 0.4692 0.94789 0.0
C734 C 0.93882 0.47427 0.96573 0.0
C735 C 0.88521 0.47398 0.98156 0.0
H736 H 0.86325 0.48523 0.97703 0.0
H737 H 0.87951 0.45082 0.9874 0.0
H738 H 0.89616 0.48853 0.99223 0.0
O739 O 0.8452 0.48534 0.9213 0.0
O740 O 0.88509 0.48125 0.90227 0.0
H741 H 0.98117 0.48824 0.9296 0.0
H742 H 0.99772 0.47493 0.95076 0.0
C743 C 0.9799 0.47007 0.94026 0.0
H744 H 0.98529 0.44726 0.93395 0.0
H745 H 0.94518 0.50425 0.89228 0.0
O746 O 0.82494 0.45145 0.9585 0.0
C747 C 0.85885 0.49297 0.90666 0.0
Co748 Co 0.80204 0.6028 0.18397 0.0
Co749 Co 0.80539 0.66118 0.15844 0.0
C750 C 0.86004 0.61936 0.16247 0.0
O751 O 0.84474 0.60135 0.17295 0.0
O752 O 0.84794 0.64416 0.15614 0.0
C753 C 0.82036 0.57023 0.21598 0.0
O754 O 0.84015 0.59351 0.21751 0.0
C755 C 0.82574 0.71949 0.14088 0.0
C756 C 0.78058 0.73967 0.13232 0.0
C757 C 0.81243 0.74529 0.13252 0.0
N758 N 0.8027 0.69983 0.14568 0.0
N759 N 0.77582 0.71192 0.14039 0.0
C760 C 0.85972 0.71236 0.14329 0.0
H761 H 0.86513 0.68998 0.13644 0.0
H762 H 0.86492 0.70945 0.15789 0.0
H763 H 0.87497 0.7306 0.13741 0.0
C764 C 0.78437 0.65281 0.2106 0.0
N765 N 0.79282 0.643 0.19395 0.0
N766 N 0.79532 0.66749 0.18328 0.0
C767 C 0.78957 0.69361 0.19294 0.0
C768 C 0.78236 0.68518 0.21057 0.0
C769 C 0.77596 0.63171 0.22597 0.0
H770 H 0.76687 0.60917 0.22083 0.0
H771 H 0.79697 0.62737 0.23435 0.0
H772 H 0.75805 0.64279 0.23472 0.0
O773 O 0.77074 0.59195 0.16533 0.0
O774 O 0.77537 0.63204 0.14645 0.0
H775 H 0.7734 0.73134 0.17652 0.0
H776 H 0.79361 0.74368 0.19671 0.0
C777 C 0.79315 0.72607 0.18573 0.0
H778 H 0.81518 0.72782 0.17796 0.0
H779 H 0.75416 0.70136 0.14248 0.0
O780 O 0.80139 0.56964 0.20277 0.0
C781 C 0.76332 0.60585 0.15073 0.0
Co782 Co 0.64734 0.53608 0.43503 0.0
Co783 Co 0.59216 0.54319 0.40731 0.0
C784 C 0.63781 0.59391 0.41172 0.0
O785 O 0.65282 0.57709 0.42295 0.0
O786 O 0.61216 0.58466 0.40486 0.0
C787 C 0.67678 0.55881 0.4663 0.0
O788 O 0.65598 0.58097 0.46382 0.0
C789 C 0.5377 0.56278 0.38509 0.0
C790 C 0.51731 0.51675 0.3785 0.0
C791 C 0.51311 0.54851 0.37597 0.0
N792 N 0.55524 0.54036 0.39283 0.0
N793 N 0.54299 0.51295 0.38872 0.0
C794 C 0.54595 0.59674 0.38539 0.0
H795 H 0.54247 0.60602 0.39924 0.0
H796 H 0.53189 0.61044 0.37562 0.0
H797 H 0.57093 0.59961 0.38187 0.0
C798 C 0.59428 0.52177 0.4596 0.0
N799 N 0.60587 0.53034 0.4434 0.0
N800 N 0.58266 0.53402 0.43192 0.0
C801 C 0.55552 0.52841 0.44058 0.0
C802 C 0.56198 0.52036 0.45838 0.0
C803 C 0.61385 0.51248 0.47548 0.0
H804 H 0.63569 0.50113 0.47084 0.0
H805 H 0.61999 0.53367 0.48333 0.0
H806 H 0.60101 0.49624 0.4845 0.0
O807 O 0.65867 0.50338 0.41745 0.0
O808 O 0.62149 0.51173 0.39706 0.0
H809 H 0.51923 0.51034 0.42379 0.0
H810 H 0.50539 0.53346 0.44252 0.0
C811 C 0.52393 0.53136 0.43211 0.0
H812 H 0.52323 0.55218 0.42322 0.0
H813 H 0.55216 0.4916 0.39298 0.0
O814 O 0.67734 0.53582 0.45544 0.0
C815 C 0.64613 0.49759 0.40221 0.0
Co816 Co 0.29434 0.39411 0.18827 0.0
Co817 Co 0.29396 0.33955 0.15961 0.0
C818 C 0.3487 0.3821 0.16335 0.0
O819 O 0.3351 0.39816 0.17552 0.0
O820 O 0.33573 0.35832 0.1563 0.0
C821 C 0.31789 0.43752 0.21485 0.0
O822 O 0.34503 0.43127 0.20743 0.0
C823 C 0.31484 0.28231 0.14132 0.0
C824 C 0.27085 0.26412 0.12982 0.0
C825 C 0.30237 0.25749 0.13163 0.0
N826 N 0.29164 0.30232 0.14534 0.0
N827 N 0.26546 0.29144 0.13828 0.0
C828 C 0.34838 0.28827 0.14585 0.0
H829 H 0.35597 0.30982 0.13883 0.0
H830 H 0.35078 0.2923 0.16061 0.0
H831 H 0.36396 0.26906 0.1415 0.0
C832 C 0.279 0.34156 0.21264 0.0
N833 N 0.28709 0.35282 0.1963 0.0
N834 N 0.28696 0.32991 0.18444 0.0
C835 C 0.27924 0.30317 0.19296 0.0
C836 C 0.2737 0.30966 0.21108 0.0
C837 C 0.27341 0.36174 0.22884 0.0
H838 H 0.25858 0.3819 0.22495 0.0
H839 H 0.29607 0.37107 0.2337 0.0
H840 H 0.26181 0.3488 0.23994 0.0
O841 O 0.26057 0.40632 0.1717 0.0
O842 O 0.26148 0.36936 0.15056 0.0
H843 H 0.258 0.27154 0.17428 0.0
H844 H 0.27485 0.25268 0.19388 0.0
C845 C 0.27776 0.27189 0.18397 0.0
H846 H 0.29966 0.26777 0.17639 0.0
H847 H 0.24381 0.30244 0.1395 0.0
O848 O 0.29354 0.42392 0.20895 0.0
C849 C 0.25032 0.39462 0.15704 0.0
Co850 Co 0.35927 0.54758 0.93145 0.0
Co851 Co 0.41515 0.54711 0.90406 0.0
C852 C 0.3705 0.60143 0.9064 0.0
O853 O 0.35476 0.58886 0.91907 0.0
O854 O 0.3941 0.58765 0.89964 0.0
C855 C 0.3134 0.56861 0.95727 0.0
O856 O 0.31869 0.59612 0.95006 0.0
C857 C 0.47479 0.56898 0.8891 0.0
C858 C 0.48846 0.52924 0.87177 0.0
C859 C 0.49807 0.55853 0.87748 0.0
N860 N 0.45276 0.54669 0.8903 0.0
N861 N 0.46105 0.52305 0.87989 0.0
C862 C 0.4726 0.60012 0.89824 0.0
H863 H 0.48671 0.59981 0.9108 0.0
H864 H 0.48172 0.61881 0.88929 0.0
H865 H 0.44828 0.60552 0.9021 0.0
C866 C 0.41163 0.53767 0.95749 0.0
N867 N 0.40052 0.5419 0.94059 0.0
N868 N 0.42386 0.54053 0.92906 0.0
C869 C 0.45048 0.53466 0.93824 0.0
C870 C 0.44377 0.53297 0.9566 0.0
C871 C 0.39186 0.53952 0.97413 0.0
H872 H 0.37692 0.5184 0.97493 0.0
H873 H 0.3763 0.56017 0.97325 0.0
H874 H 0.40623 0.5413 0.98655 0.0
O875 O 0.3482 0.51372 0.91391 0.0
O876 O 0.38758 0.51419 0.89438 0.0
H877 H 0.47793 0.51482 0.91684 0.0
H878 H 0.49677 0.51445 0.93863 0.0
C879 C 0.48135 0.52812 0.92953 0.0
H880 H 0.49307 0.55049 0.92631 0.0
H881 H 0.44796 0.50268 0.87831 0.0
O882 O 0.32845 0.54501 0.95152 0.0
C883 C 0.36146 0.5034 0.89968 0.0
Co884 Co 0.20166 0.60228 0.68822 0.0
Co885 Co 0.20496 0.65798 0.66028 0.0
C886 C 0.15044 0.61347 0.66139 0.0
O887 O 0.16179 0.59807 0.67458 0.0
O888 O 0.16489 0.63676 0.65471 0.0
C889 C 0.18079 0.55256 0.71209 0.0
O890 O 0.15602 0.5516 0.70163 0.0
C891 C 0.18378 0.71542 0.64182 0.0
C892 C 0.2282 0.73494 0.6317 0.0
C893 C 0.19639 0.7407 0.63254 0.0
N894 N 0.20716 0.69599 0.6465 0.0
N895 N 0.2336 0.70772 0.64028 0.0
C896 C 0.15004 0.70869 0.64544 0.0
H897 H 0.14597 0.70803 0.66025 0.0
H898 H 0.13428 0.72593 0.63903 0.0
H899 H 0.14413 0.6854 0.63995 0.0
C900 C 0.21073 0.65408 0.71394 0.0
N901 N 0.2067 0.64336 0.697 0.0
N902 N 0.20809 0.66684 0.68555 0.0
C903 C 0.21288 0.69344 0.69494 0.0
C904 C 0.21472 0.68623 0.71326 0.0
C905 C 0.21332 0.63336 0.73017 0.0
H906 H 0.23071 0.61473 0.72747 0.0
H907 H 0.19046 0.62197 0.73267 0.0
H908 H 0.22062 0.64637 0.74242 0.0
O909 O 0.23734 0.59146 0.67249 0.0
O910 O 0.23988 0.63011 0.65246 0.0
H911 H 0.23546 0.72626 0.67754 0.0
H912 H 0.21638 0.74393 0.69683 0.0
C913 C 0.21479 0.72518 0.68654 0.0
H914 H 0.19369 0.7293 0.67822 0.0
H915 H 0.25542 0.69729 0.64207 0.0
O916 O 0.20227 0.5722 0.70873 0.0
C917 C 0.25001 0.60433 0.65882 0.0
Co918 Co 0.14477 0.46748 0.43698 0.0
Co919 Co 0.08979 0.46017 0.40904 0.0
C920 C 0.13307 0.40734 0.41735 0.0
O921 O 0.1482 0.42357 0.42878 0.0
O922 O 0.10994 0.41867 0.40877 0.0
C923 C 0.2016 0.45991 0.45559 0.0
O924 O 0.20816 0.44415 0.44084 0.0
C925 C 0.03424 0.43378 0.39117 0.0
C926 C 0.01382 0.47558 0.37822 0.0
C927 C 0.00923 0.44384 0.3807 0.0
N928 N 0.05243 0.45857 0.39489 0.0
N929 N 0.04018 0.48343 0.38703 0.0
C930 C 0.04227 0.40102 0.39652 0.0
H931 H 0.06526 0.39485 0.39067 0.0
H932 H 0.04434 0.3996 0.41145 0.0
H933 H 0.02506 0.38375 0.39159 0.0
C934 C 0.09244 0.48577 0.46072 0.0
N935 N 0.10373 0.47627 0.44467 0.0
N936 N 0.08052 0.47305 0.43315 0.0
C937 C 0.05357 0.48026 0.44161 0.0
C938 C 0.06024 0.48864 0.45935 0.0
C939 C 0.11249 0.49328 0.47671 0.0
H940 H 0.13227 0.50822 0.47238 0.0
H941 H 0.12236 0.4713 0.48224 0.0
H942 H 0.09918 0.5055 0.48745 0.0
O943 O 0.15697 0.4958 0.41708 0.0
O944 O 0.1187 0.48991 0.39703 0.0
H945 H 0.0194 0.49573 0.42257 0.0
H946 H 0.00298 0.48018 0.4432 0.0
C947 C 0.02196 0.47753 0.43313 0.0
H948 H 0.01968 0.45436 0.42659 0.0
H949 H 0.04974 0.5058 0.38777 0.0
O950 O 0.17498 0.47282 0.45704 0.0
C951 C 0.14455 0.50207 0.40186 0.0
Co952 Co 0.30374 0.61106 0.31573 0.0
Co953 Co 0.30096 0.66936 0.34146 0.0
C954 C 0.35781 0.62987 0.33982 0.0
O955 O 0.34472 0.61178 0.32843 0.0
O956 O 0.34382 0.65393 0.34586 0.0
C957 C 0.33184 0.57412 0.28808 0.0
O958 O 0.35613 0.59165 0.29192 0.0
C959 C 0.31506 0.73002 0.35848 0.0
C960 C 0.27042 0.74005 0.37223 0.0
C961 C 0.30033 0.75175 0.36968 0.0
N962 N 0.29474 0.70691 0.35482 0.0
N963 N 0.26815 0.71305 0.3631 0.0
C964 C 0.34711 0.7314 0.35047 0.0
H965 H 0.34874 0.71581 0.33852 0.0
H966 H 0.35291 0.75565 0.34638 0.0
H967 H 0.36438 0.72334 0.36064 0.0
C968 C 0.2876 0.65959 0.28861 0.0
N969 N 0.29432 0.6507 0.30564 0.0
N970 N 0.29293 0.67521 0.31636 0.0
C971 C 0.28513 0.7005 0.30646 0.0
C972 C 0.28161 0.69144 0.28852 0.0
C973 C 0.28535 0.63762 0.27294 0.0
H974 H 0.27265 0.61621 0.27707 0.0
H975 H 0.30922 0.63076 0.26869 0.0
H976 H 0.27312 0.64846 0.2613 0.0
O977 O 0.2708 0.59831 0.3331 0.0
O978 O 0.27153 0.6387 0.35192 0.0
H979 H 0.26374 0.73299 0.32457 0.0
H980 H 0.27637 0.75021 0.30345 0.0
C981 C 0.28211 0.73278 0.31401 0.0
H982 H 0.30444 0.73959 0.32044 0.0
H983 H 0.2485 0.69868 0.36259 0.0
O984 O 0.30639 0.57865 0.29654 0.0
C985 C 0.26124 0.61197 0.34736 0.0
Co986 Co 0.1478 0.54716 0.06164 0.0
Co987 Co 0.09508 0.54532 0.0911 0.0
C988 C 0.13873 0.59877 0.0893 0.0
O989 O 0.15332 0.58522 0.07652 0.0
O990 O 0.11416 0.58691 0.09617 0.0
C991 C 0.18067 0.57722 0.03302 0.0
O992 O 0.16465 0.60156 0.03859 0.0
C993 C 0.03729 0.55898 0.11177 0.0
C994 C 0.02835 0.51299 0.12423 0.0
C995 C 0.01648 0.54309 0.12307 0.0
N996 N 0.05989 0.53899 0.10662 0.0
N997 N 0.05447 0.51165 0.11423 0.0
C998 C 0.03534 0.59183 0.10497 0.0
H999 H 0.05084 0.59508 0.0931 0.0
H1000 H 0.01096 0.59765 0.10115 0.0
H1001 H 0.04309 0.60806 0.11576 0.0
C1002 C 0.09362 0.53778 0.03749 0.0
N1003 N 0.10593 0.54229 0.05402 0.0
N1004 N 0.08352 0.54129 0.06619 0.0
C1005 C 0.05609 0.53611 0.05768 0.0
C1006 C 0.06158 0.53389 0.03918 0.0
C1007 C 0.11265 0.53476 0.02061 0.0
H1008 H 0.13402 0.52098 0.02342 0.0
H1009 H 0.11982 0.55836 0.01603 0.0
H1010 H 0.09932 0.52322 0.00962 0.0
O1011 O 0.16095 0.5107 0.07586 0.0
O1012 O 0.12578 0.51205 0.09789 0.0
H1013 H 0.02605 0.51504 0.0773 0.0
H1014 H 0.00574 0.52974 0.05758 0.0
C1015 C 0.02524 0.534 0.0671 0.0
H1016 H 0.02063 0.55623 0.07423 0.0
H1017 H 0.06847 0.49195 0.11244 0.0
O1018 O 0.17659 0.55104 0.04076 0.0
C1019 C 0.15002 0.50016 0.09063 0.0
Co1020 Co 0.20343 0.3881 0.8175 0.0
Co1021 Co 0.20459 0.3298 0.84333 0.0
C1022 C 0.14919 0.37088 0.84197 0.0
O1023 O 0.16309 0.38898 0.83093 0.0
O1024 O 0.16187 0.34578 0.84751 0.0
C1025 C 0.17498 0.42094 0.78871 0.0
O1026 O 0.15271 0.40068 0.79211 0.0
C1027 C 0.18945 0.27287 0.86427 0.0
C1028 C 0.23637 0.25239 0.86809 0.0
C1029 C 0.20505 0.24756 0.87183 0.0
N1030 N 0.21062 0.29148 0.85622 0.0
N1031 N 0.23859 0.27915 0.85864 0.0
C1032 C 0.15552 0.28087 0.86591 0.0
H1033 H 0.15318 0.30468 0.87163 0.0
H1034 H 0.14473 0.28093 0.85227 0.0
H1035 H 0.14281 0.26452 0.87486 0.0
C1036 C 0.21787 0.33888 0.79039 0.0
N1037 N 0.21165 0.34812 0.80743 0.0
N1038 N 0.21161 0.32354 0.81811 0.0
C1039 C 0.21713 0.29777 0.80809 0.0
C1040 C 0.2214 0.30665 0.79018 0.0
C1041 C 0.22224 0.36071 0.77479 0.0
H1042 H 0.23374 0.38249 0.77941 0.0
H1043 H 0.19907 0.36674 0.76906 0.0
H1044 H 0.23662 0.34987 0.76401 0.0
O1045 O 0.23707 0.40013 0.83437 0.0
O1046 O 0.23484 0.36055 0.8538 0.0
H1047 H 0.23882 0.26024 0.82234 0.0
H1048 H 0.21331 0.2478 0.80433 0.0
C1049 C 0.21647 0.26514 0.81531 0.0
H1050 H 0.19715 0.26263 0.82517 0.0
H1051 H 0.25924 0.28902 0.85381 0.0
O1052 O 0.19989 0.41997 0.79806 0.0
C1053 C 0.24602 0.38681 0.84887 0.0
Co1054 Co 0.36457 0.4648 0.56197 0.0
Co1055 Co 0.4148 0.46145 0.59281 0.0
C1056 C 0.37031 0.40873 0.58608 0.0
O1057 O 0.35765 0.42313 0.57295 0.0
O1058 O 0.39277 0.42086 0.59488 0.0
C1059 C 0.3372 0.44445 0.52909 0.0
O1060 O 0.35687 0.4212 0.5313 0.0
C1061 C 0.46972 0.43551 0.61113 0.0
C1062 C 0.48245 0.47317 0.63008 0.0
C1063 C 0.4913 0.44344 0.62454 0.0
N1064 N 0.44958 0.45938 0.60902 0.0
N1065 N 0.45721 0.48174 0.62046 0.0
C1066 C 0.46868 0.4068 0.5996 0.0
H1067 H 0.45382 0.41076 0.58753 0.0
H1068 H 0.49254 0.40021 0.59516 0.0
H1069 H 0.45847 0.38728 0.60749 0.0
C1070 C 0.42055 0.48004 0.54013 0.0
N1071 N 0.40698 0.47137 0.55576 0.0
N1072 N 0.42835 0.4698 0.56854 0.0
C1073 C 0.45638 0.47714 0.56131 0.0
C1074 C 0.45237 0.4837 0.54301 0.0
C1075 C 0.4029 0.48803 0.52328 0.0
H1076 H 0.38044 0.49936 0.52677 0.0
H1077 H 0.39796 0.46629 0.51565 0.0
H1078 H 0.41646 0.50401 0.51447 0.0
O1079 O 0.35106 0.49769 0.57889 0.0
O1080 O 0.38568 0.49507 0.60128 0.0
H1081 H 0.48393 0.49327 0.58359 0.0
H1082 H 0.50646 0.48497 0.56342 0.0
C1083 C 0.48633 0.47754 0.57175 0.0
H1084 H 0.49129 0.45375 0.5768 0.0
H1085 H 0.44526 0.50288 0.62165 0.0
O1086 O 0.33694 0.46655 0.54053 0.0
C1087 C 0.36139 0.5071 0.59408 0.0
H1088 H 0.20025 0.27771 0.4061 0.0
H1089 H 0.15014 0.28303 0.35562 0.0
H1090 H 0.12476 0.33111 0.36544 0.0
H1091 H 0.11939 0.37332 0.38747 0.0
H1092 H 0.17233 0.37034 0.4371 0.0
H1093 H 0.19416 0.31976 0.42849 0.0
C1094 C 0.18353 0.28931 0.39735 0.0
C1095 C 0.17627 0.27632 0.38043 0.0
C1096 C 0.16975 0.31747 0.40287 0.0
C1097 C 0.15506 0.2918 0.36905 0.0
C1098 C 0.14087 0.31954 0.37455 0.0
C1099 C 0.1353 0.36141 0.39656 0.0
C1100 C 0.14412 0.37554 0.41293 0.0
C1101 C 0.14823 0.33271 0.39136 0.0
C1102 C 0.16519 0.35999 0.4244 0.0
C1103 C 0.17772 0.33109 0.41948 0.0
H1104 H 0.96737 0.96112 0.64205 0.0
H1105 H 1.00042 0.87118 0.62375 0.0
H1106 H 0.95283 0.84683 0.63454 0.0
H1107 H 0.90085 0.85109 0.64878 0.0
H1108 H 0.87067 0.94047 0.66946 0.0
H1109 H 0.91854 0.96459 0.65862 0.0
C1110 C 0.96444 0.93613 0.6404 0.0
C1111 C 0.98723 0.91852 0.63122 0.0
C1112 C 0.9375 0.92197 0.64732 0.0
C1113 C 0.9829 0.88603 0.62968 0.0
C1114 C 0.95573 0.87181 0.6362 0.0
C1115 C 0.90488 0.8758 0.65101 0.0
C1116 C 0.88207 0.89395 0.6598 0.0
C1117 C 0.93269 0.88962 0.64487 0.0
C1118 C 0.8878 0.92588 0.66277 0.0
C1119 C 0.91513 0.93978 0.65649 0.0
H1120 H 0.32202 0.63861 0.91718 0.0
H1121 H 0.39632 0.6327 0.87788 0.0
H1122 H 0.37803 0.68058 0.86358 0.0
H1123 H 0.33922 0.72251 0.86108 0.0
H1124 H 0.26568 0.72938 0.9007 0.0
H1125 H 0.28504 0.68246 0.91574 0.0
C1126 C 0.33438 0.64788 0.90557 0.0
C1127 C 0.36044 0.63183 0.89862 0.0
C1128 C 0.32374 0.67554 0.89734 0.0
C1129 C 0.37614 0.64437 0.88356 0.0
C1130 C 0.36567 0.6718 0.87531 0.0
C1131 C 0.32796 0.7144 0.87331 0.0
C1132 C 0.30139 0.72995 0.87995 0.0
C1133 C 0.33932 0.68743 0.88197 0.0
C1134 C 0.28628 0.71799 0.89534 0.0
C1135 C 0.29735 0.69116 0.90398 0.0
H1136 H 0.59827 0.08316 0.17191 0.0
H1137 H 0.60746 0.15408 0.13076 0.0
H1138 H 0.55914 0.13625 0.11661 0.0
H1139 H 0.51635 0.09811 0.11469 0.0
H1140 H 0.5065 0.02816 0.15625 0.0
H1141 H 0.55349 0.04758 0.17122 0.0
C1142 C 0.58964 0.0949 0.15992 0.0
C1143 C 0.60668 0.11979 0.15236 0.0
C1144 C 0.56185 0.08453 0.15182 0.0
C1145 C 0.59491 0.13484 0.13689 0.0
C1146 C 0.5673 0.12459 0.12873 0.0
C1147 C 0.52384 0.08779 0.12734 0.0
C1148 C 0.50748 0.06219 0.13458 0.0
C1149 C 0.55079 0.0992 0.13594 0.0
C1150 C 0.51854 0.04806 0.15048 0.0
C1151 C 0.54538 0.05915 0.15906 0.0
H1152 H 0.108 0.64671 0.10618 0.0
H1153 H 0.19945 0.61629 0.08908 0.0
H1154 H 0.22261 0.66364 0.1014 0.0
H1155 H 0.21725 0.7134 0.11691 0.0
H1156 H 0.12548 0.74708 0.13123 0.0
H1157 H 0.1024 0.69875 0.12048 0.0
C1158 C 0.13299 0.65049 0.10521 0.0
C1159 C 0.15196 0.62797 0.09677 0.0
C1160 C 0.14622 0.67825 0.112 0.0
C1161 C 0.18427 0.63332 0.09542 0.0
C1162 C 0.19759 0.66036 0.10251 0.0
C1163 C 0.19215 0.71037 0.11772 0.0
C1164 C 0.17351 0.73378 0.1256 0.0
C1165 C 0.1788 0.68298 0.11079 0.0
C1166 C 0.14095 0.72924 0.1262 0.0
C1167 C 0.12752 0.7016 0.11972 0.0
H1168 H 0.53562 0.90417 0.38197 0.0
H1169 H 0.53448 0.98773 0.34947 0.0
H1170 H 0.57997 0.96918 0.33262 0.0
H1171 H 0.62132 0.93 0.32798 0.0
H1172 H 0.62104 0.84593 0.36028 0.0
H1173 H 0.57416 0.86339 0.37579 0.0
C1174 C 0.54461 0.91786 0.3708 0.0
C1175 C 0.53119 0.94693 0.36669 0.0
C1176 C 0.57058 0.90696 0.3611 0.0
C1177 C 0.54426 0.96512 0.3528 0.0
C1178 C 0.57023 0.95452 0.34314 0.0
C1179 C 0.61081 0.91532 0.33825 0.0
C1180 C 0.62495 0.88678 0.34298 0.0
C1181 C 0.58378 0.92556 0.34728 0.0
C1182 C 0.61087 0.86807 0.35634 0.0
C1183 C 0.58404 0.87806 0.36531 0.0
H1184 H 0.29785 0.28303 0.60177 0.0
H1185 H 0.34704 0.29177 0.65234 0.0
H1186 H 0.37348 0.33861 0.64131 0.0
H1187 H 0.38126 0.37807 0.61768 0.0
H1188 H 0.32975 0.37108 0.56767 0.0
H1189 H 0.30562 0.32265 0.57806 0.0
C1190 C 0.31449 0.29518 0.6103 0.0
C1191 C 0.32129 0.28346 0.6276 0.0
C1192 C 0.32911 0.32245 0.60399 0.0
C1193 C 0.34244 0.29963 0.63868 0.0
C1194 C 0.35728 0.3266 0.63246 0.0
C1195 C 0.36498 0.36583 0.60897 0.0
C1196 C 0.35738 0.37824 0.5919 0.0
C1197 C 0.35077 0.33825 0.61514 0.0
C1198 C 0.33601 0.36214 0.58088 0.0
C1199 C 0.32214 0.33444 0.58681 0.0
H1200 H 0.86883 0.06405 0.84529 0.0
H1201 H 0.89665 0.15996 0.85263 0.0
H1202 H 0.94712 0.14282 0.86475 0.0
H1203 H 0.98272 0.10048 0.87332 0.0
H1204 H 0.95175 0.00467 0.86906 0.0
H1205 H 0.9035 0.02199 0.8551 0.0
C1206 C 0.88607 0.08121 0.84939 0.0
C1207 C 0.87921 0.11319 0.84792 0.0
C1208 C 0.91444 0.07122 0.8569 0.0
C1209 C 0.90149 0.13518 0.8536 0.0
C1210 C 0.93029 0.12538 0.86053 0.0
C1211 C 0.9653 0.08325 0.86999 0.0
C1212 C 0.97103 0.05119 0.87286 0.0
C1213 C 0.93689 0.0934 0.86243 0.0
C1214 C 0.94827 0.02952 0.86722 0.0
C1215 C 0.92048 0.03936 0.85923 0.0
H1216 H 0.78919 0.70455 0.61356 0.0
H1217 H 0.8798 0.73759 0.63068 0.0
H1218 H 0.90338 0.68895 0.62084 0.0
H1219 H 0.89856 0.63668 0.60679 0.0
H1220 H 0.80858 0.60674 0.58702 0.0
H1221 H 0.78483 0.65473 0.59808 0.0
C1222 C 0.81415 0.70136 0.61519 0.0
C1223 C 0.83222 0.7247 0.62359 0.0
C1224 C 0.82787 0.67379 0.60878 0.0
C1225 C 0.86464 0.71988 0.62522 0.0
C1226 C 0.8784 0.69204 0.61926 0.0
C1227 C 0.87377 0.64072 0.60494 0.0
C1228 C 0.85537 0.61812 0.59614 0.0
C1229 C 0.86023 0.66877 0.61106 0.0
C1230 C 0.82333 0.62382 0.59363 0.0
C1231 C 0.80967 0.65121 0.60003 0.0
H1232 H 0.02936 0.04951 0.35114 0.0
H1233 H 0.03014 0.10451 0.39994 0.0
H1234 H 0.07757 0.13105 0.38998 0.0
H1235 H 0.12036 0.13659 0.36815 0.0
H1236 H 0.12132 0.07906 0.32022 0.0
H1237 H 0.07185 0.05548 0.32913 0.0
C1238 C 0.03983 0.06751 0.35949 0.0
C1239 C 0.02574 0.07577 0.37595 0.0
C1240 C 0.06756 0.08204 0.35391 0.0
C1241 C 0.03977 0.0987 0.38683 0.0
C1242 C 0.06714 0.11358 0.38126 0.0
C1243 C 0.1096 0.11914 0.35955 0.0
C1244 C 0.12459 0.10964 0.34354 0.0
C1245 C 0.08136 0.10528 0.36488 0.0
C1246 C 0.1104 0.08677 0.33265 0.0
C1247 C 0.08209 0.07323 0.33772 0.0
H1248 H 0.63479 0.27313 0.12313 0.0
H1249 H 0.73195 0.29857 0.11721 0.0
H1250 H 0.71681 0.34657 0.1022 0.0
H1251 H 0.67634 0.38265 0.09166 0.0
H1252 H 0.57937 0.36046 0.10046 0.0
H1253 H 0.59417 0.31018 0.11379 0.0
C1254 C 0.65283 0.28927 0.11915 0.0
C1255 C 0.68462 0.28196 0.12184 0.0
C1256 C 0.64398 0.31759 0.11088 0.0
C1257 C 0.70727 0.30321 0.11551 0.0
C1258 C 0.69868 0.33088 0.10688 0.0
C1259 C 0.65844 0.36663 0.09631 0.0
C1260 C 0.62682 0.37506 0.0949 0.0
C1261 C 0.66714 0.33839 0.10456 0.0
C1262 C 0.60389 0.35439 0.10133 0.0
C1263 C 0.61235 0.3257 0.10899 0.0
H1264 H 0.38297 0.85581 0.85392 0.0
H1265 H 0.35097 0.94693 0.83716 0.0
H1266 H 0.39842 0.97059 0.84905 0.0
H1267 H 0.44858 0.96572 0.86424 0.0
H1268 H 0.48348 0.8743 0.8784 0.0
H1269 H 0.4352 0.85071 0.86788 0.0
C1270 C 0.38641 0.88083 0.85293 0.0
C1271 C 0.36341 0.89957 0.84472 0.0
C1272 C 0.41412 0.89434 0.85952 0.0
C1273 C 0.36835 0.93193 0.84332 0.0
C1274 C 0.39544 0.94553 0.85018 0.0
C1275 C 0.44581 0.94059 0.86506 0.0
C1276 C 0.46953 0.92215 0.87281 0.0
C1277 C 0.41845 0.92697 0.85829 0.0
C1278 C 0.46537 0.88956 0.87345 0.0
C1279 C 0.43778 0.87585 0.86711 0.0
H1280 H 0.85424 0.26326 0.88221 0.0
H1281 H 0.75808 0.29287 0.88682 0.0
H1282 H 0.77472 0.34106 0.90117 0.0
H1283 H 0.81624 0.37575 0.91159 0.0
H1284 H 0.91255 0.34914 0.90439 0.0
H1285 H 0.89614 0.29908 0.89145 0.0
C1286 C 0.83684 0.28044 0.88577 0.0
C1287 C 0.80487 0.27437 0.88294 0.0
C1288 C 0.84659 0.30872 0.89366 0.0
C1289 C 0.78287 0.29671 0.88869 0.0
C1290 C 0.79232 0.32442 0.89691 0.0
C1291 C 0.83365 0.35887 0.90734 0.0
C1292 C 0.86553 0.36595 0.90909 0.0
C1293 C 0.82408 0.33072 0.89941 0.0
C1294 C 0.88784 0.34413 0.90322 0.0
C1295 C 0.87846 0.31556 0.8958 0.0
H1296 H 0.46721 0.09334 0.61054 0.0
H1297 H 0.48032 0.02436 0.6523 0.0
H1298 H 0.43496 0.04467 0.66858 0.0
H1299 H 0.39116 0.08148 0.67063 0.0
H1300 H 0.37903 0.15133 0.62911 0.0
H1301 H 0.4253 0.13214 0.6135 0.0
C1302 C 0.46075 0.08341 0.62348 0.0
C1303 C 0.4776 0.05797 0.63047 0.0
C1304 C 0.43493 0.09546 0.63286 0.0
C1305 C 0.46785 0.04418 0.64675 0.0
C1306 C 0.442 0.05583 0.65608 0.0
C1307 C 0.39875 0.0927 0.65825 0.0
C1308 C 0.38154 0.11784 0.65109 0.0
C1309 C 0.42531 0.08142 0.64923 0.0
C1310 C 0.39186 0.13212 0.63504 0.0
C1311 C 0.41824 0.12101 0.62601 0.0
H1312 H 0.60934 0.64352 0.39526 0.0
H1313 H 0.69904 0.60999 0.41359 0.0
H1314 H 0.72443 0.65573 0.40078 0.0
H1315 H 0.72168 0.70396 0.38352 0.0
H1316 H 0.63162 0.74067 0.36789 0.0
H1317 H 0.60626 0.69479 0.38007 0.0
C1318 C 0.63441 0.64634 0.39652 0.0
C1319 C 0.65223 0.62325 0.40529 0.0
C1320 C 0.64898 0.673 0.38929 0.0
C1321 C 0.68468 0.62742 0.40698 0.0
C1322 C 0.6993 0.65351 0.39957 0.0
C1323 C 0.69646 0.70217 0.38272 0.0
C1324 C 0.67906 0.72557 0.37391 0.0
C1325 C 0.68172 0.67627 0.39055 0.0
C1326 C 0.64628 0.7227 0.37349 0.0
C1327 C 0.63148 0.69649 0.38084 0.0
H1328 H 0.02118 0.95713 0.15039 0.0
H1329 H 0.0265 0.90213 0.10172 0.0
H1330 H 0.07373 0.8764 0.11292 0.0
H1331 H 0.115 0.87149 0.13599 0.0
H1332 H 0.11051 0.92881 0.18396 0.0
H1333 H 0.06163 0.95162 0.17359 0.0
C1334 C 0.0326 0.93934 0.14232 0.0
C1335 C 0.01997 0.93091 0.12551 0.0
C1336 C 0.06004 0.92518 0.14867 0.0
C1337 C 0.03515 0.90816 0.11503 0.0
C1338 C 0.06236 0.89372 0.12133 0.0
C1339 C 0.10318 0.88876 0.14425 0.0
C1340 C 0.11654 0.89845 0.16071 0.0
C1341 C 0.07515 0.9022 0.13809 0.0
C1342 C 0.10093 0.92099 0.17119 0.0
C1343 C 0.07292 0.9341 0.16528 0.0
H1344 H 0.69437 0.77194 0.90449 0.0
H1345 H 0.6488 0.7782 0.85267 0.0
H1346 H 0.62032 0.82451 0.8626 0.0
H1347 H 0.611 0.86524 0.88532 0.0
H1348 H 0.65976 0.86131 0.93633 0.0
H1349 H 0.68424 0.81214 0.92748 0.0
C1350 C 0.67796 0.78335 0.89547 0.0
C1351 C 0.67291 0.77113 0.87811 0.0
C1352 C 0.66236 0.81048 0.90111 0.0
C1353 C 0.65207 0.78637 0.86638 0.0
C1354 C 0.63608 0.8131 0.87198 0.0
C1355 C 0.62661 0.85338 0.89461 0.0
C1356 C 0.63354 0.86692 0.91145 0.0
C1357 C 0.64124 0.82552 0.88926 0.0
C1358 C 0.65411 0.85143 0.92326 0.0
C1359 C 0.66818 0.82334 0.9182 0.0
H1360 H 0.3703 0.44124 0.1605 0.0
H1361 H 0.39595 0.34532 0.15085 0.0
H1362 H 0.44595 0.36205 0.13818 0.0
H1363 H 0.48213 0.40398 0.12991 0.0
H1364 H 0.45457 0.50012 0.13736 0.0
H1365 H 0.40592 0.48321 0.15129 0.0
C1366 C 0.38696 0.42403 0.15573 0.0
C1367 C 0.37952 0.39212 0.15659 0.0
C1368 C 0.41528 0.43385 0.14807 0.0
C1369 C 0.4011 0.37004 0.15018 0.0
C1370 C 0.42969 0.37959 0.14297 0.0
C1371 C 0.46525 0.42134 0.13401 0.0
C1372 C 0.47188 0.45335 0.13207 0.0
C1373 C 0.43691 0.41147 0.14168 0.0
C1374 C 0.45011 0.47531 0.13853 0.0
C1375 C 0.4222 0.46569 0.1465 0.0
H1376 H 0.89912 0.14319 0.40017 0.0
H1377 H 0.80861 0.11155 0.41811 0.0
H1378 H 0.78438 0.15807 0.40525 0.0
H1379 H 0.78844 0.20612 0.38762 0.0
H1380 H 0.87947 0.24001 0.37187 0.0
H1381 H 0.90361 0.19389 0.38468 0.0
C1382 C 0.87412 0.14652 0.40133 0.0
C1383 C 0.85572 0.12371 0.40995 0.0
C1384 C 0.86027 0.17343 0.39394 0.0
C1385 C 0.8234 0.12871 0.4116 0.0
C1386 C 0.80946 0.15523 0.40413 0.0
C1387 C 0.81361 0.20363 0.38694 0.0
C1388 C 0.83169 0.22629 0.3779 0.0
C1389 C 0.82762 0.1775 0.39505 0.0
C1390 C 0.86436 0.22257 0.37764 0.0
C1391 C 0.87844 0.19626 0.38535 0.0
H1392 H 0.02979 0.58255 0.61561 0.0
H1393 H 0.01451 0.51896 0.65991 0.0
H1394 H 0.06241 0.53717 0.67449 0.0
H1395 H 0.1091 0.57048 0.67434 0.0
H1396 H 0.12403 0.63423 0.62996 0.0
H1397 H 0.0754 0.61723 0.616 0.0
C1398 C 0.03645 0.57332 0.62869 0.0
C1399 C 0.01822 0.54999 0.63689 0.0
C1400 C 0.06402 0.58387 0.63698 0.0
C1401 C 0.02803 0.53716 0.65342 0.0
C1402 C 0.0554 0.54756 0.66176 0.0
C1403 C 0.10171 0.58075 0.66165 0.0
C1404 C 0.12029 0.60368 0.65328 0.0
C1405 C 0.07369 0.57078 0.65361 0.0
C1406 C 0.11019 0.61673 0.63682 0.0
C1407 C 0.08238 0.60693 0.62876 0.0
H1408 H 0.65451 0.22134 0.63696 0.0
H1409 H 0.71962 0.23776 0.59353 0.0
H1410 H 0.70195 0.19023 0.57839 0.0
H1411 H 0.6693 0.143 0.57807 0.0
H1412 H 0.60402 0.12729 0.62157 0.0
H1413 H 0.61971 0.17608 0.63573 0.0
C1414 C 0.66414 0.21519 0.62391 0.0
C1415 C 0.68789 0.23351 0.61622 0.0
C1416 C 0.65386 0.18785 0.61526 0.0
C1417 C 0.70116 0.22415 0.5997 0.0
C1418 C 0.69107 0.19698 0.59102 0.0
C1419 C 0.65833 0.15034 0.59057 0.0
C1420 C 0.6354 0.13141 0.59866 0.0
C1421 C 0.66764 0.17846 0.59877 0.0
C1422 C 0.62143 0.14142 0.61487 0.0
C1423 C 0.63055 0.16931 0.62308 0.0
H1424 H 0.12859 0.42972 0.84728 0.0
H1425 H 0.10182 0.33336 0.85394 0.0
H1426 H 0.05209 0.34966 0.86736 0.0
H1427 H 0.01641 0.39147 0.87685 0.0
H1428 H 0.04615 0.48765 0.87279 0.0
H1429 H 0.09423 0.47115 0.85826 0.0
C1430 C 0.11176 0.41228 0.85155 0.0
C1431 C 0.11867 0.38042 0.84947 0.0
C1432 C 0.08379 0.42178 0.85973 0.0
C1433 C 0.09694 0.35806 0.85537 0.0
C1434 C 0.06855 0.36738 0.86305 0.0
C1435 C 0.03359 0.4089 0.8734 0.0
C1436 C 0.02755 0.44085 0.8764 0.0
C1437 C 0.06181 0.39922 0.86541 0.0
C1438 C 0.04994 0.46289 0.87078 0.0
C1439 C 0.07759 0.45351 0.86246 0.0
H1440 H 0.79917 0.77669 0.1019 0.0
H1441 H 0.85815 0.77938 0.14909 0.0
H1442 H 0.88135 0.82835 0.13876 0.0
H1443 H 0.88274 0.87182 0.11714 0.0
H1444 H 0.82158 0.87041 0.07074 0.0
H1445 H 0.80132 0.81963 0.07995 0.0
C1446 C 0.8173 0.78794 0.10982 0.0
C1447 C 0.82761 0.77407 0.12593 0.0
C1448 C 0.82998 0.81641 0.104 0.0
C1449 C 0.85072 0.78901 0.13626 0.0
C1450 C 0.86371 0.8172 0.13048 0.0
C1451 C 0.86528 0.86024 0.10892 0.0
C1452 C 0.8537 0.87493 0.09329 0.0
C1453 C 0.85336 0.83122 0.11443 0.0
C1454 C 0.8308 0.85971 0.08289 0.0
C1455 C 0.81917 0.83066 0.08814 0.0
H1456 H 0.396 0.58297 0.32858 0.0
H1457 H 0.38947 0.65749 0.36772 0.0
H1458 H 0.43787 0.63989 0.38188 0.0
H1459 H 0.47963 0.60071 0.38467 0.0
H1460 H 0.48632 0.52671 0.34532 0.0
H1461 H 0.43987 0.54643 0.32993 0.0
C1462 C 0.40526 0.59559 0.3401 0.0
C1463 C 0.3889 0.62136 0.34714 0.0
C1464 C 0.43299 0.58526 0.34826 0.0
C1465 C 0.40146 0.63752 0.36202 0.0
C1466 C 0.42912 0.62741 0.37019 0.0
C1467 C 0.47154 0.58952 0.37239 0.0
C1468 C 0.48677 0.56266 0.36593 0.0
C1469 C 0.4448 0.601 0.3636 0.0
C1470 C 0.47508 0.54754 0.35049 0.0
C1471 C 0.44855 0.5588 0.34168 0.0
H1472 H 0.29454 0.22856 0.09953 0.0
H1473 H 0.34315 0.22053 0.15033 0.0
H1474 H 0.36738 0.17184 0.14031 0.0
H1475 H 0.373 0.1304 0.11757 0.0
H1476 H 0.32214 0.1372 0.06732 0.0
H1477 H 0.3005 0.18733 0.07667 0.0
C1478 C 0.31063 0.2162 0.10832 0.0
C1479 C 0.31786 0.22858 0.12538 0.0
C1480 C 0.32392 0.18789 0.10261 0.0
C1481 C 0.33826 0.21213 0.13682 0.0
C1482 C 0.35181 0.18409 0.13119 0.0
C1483 C 0.35745 0.14298 0.10858 0.0
C1484 C 0.34926 0.12999 0.09177 0.0
C1485 C 0.34472 0.17168 0.11413 0.0
C1486 C 0.32879 0.14654 0.08037 0.0
C1487 C 0.31636 0.17524 0.0857 0.0
H1488 H 0.62494 0.63041 0.86577 0.0
H1489 H 0.61954 0.58318 0.81434 0.0
H1490 H 0.56902 0.5609 0.82279 0.0
H1491 H 0.52739 0.55345 0.84527 0.0
H1492 H 0.53572 0.59732 0.89755 0.0
H1493 H 0.58378 0.62267 0.88818 0.0
C1494 C 0.61253 0.61558 0.85629 0.0
C1495 C 0.62585 0.60859 0.83942 0.0
C1496 C 0.58396 0.60232 0.86139 0.0
C1497 C 0.60975 0.58889 0.82743 0.0
C1498 C 0.58091 0.57613 0.83225 0.0
C1499 C 0.53968 0.56867 0.85458 0.0
C1500 C 0.52728 0.57428 0.87188 0.0
C1501 C 0.56798 0.58241 0.84929 0.0
C1502 C 0.54372 0.5937 0.88388 0.0
C1503 C 0.57157 0.60789 0.87861 0.0
H1504 H 0.2081 0.77154 0.60129 0.0
H1505 H 0.15103 0.77514 0.64924 0.0
H1506 H 0.12593 0.82272 0.63835 0.0
H1507 H 0.12171 0.86453 0.61588 0.0
H1508 H 0.18129 0.86328 0.56883 0.0
H1509 H 0.20387 0.81368 0.57868 0.0
C1510 C 0.19 0.78269 0.60926 0.0
C1511 C 0.18065 0.76921 0.62573 0.0
C1512 C 0.17623 0.81056 0.60312 0.0
C1513 C 0.15765 0.7842 0.63613 0.0
C1514 C 0.14356 0.81167 0.63002 0.0
C1515 C 0.13941 0.8533 0.60766 0.0
C1516 C 0.14972 0.86765 0.59161 0.0
C1517 C 0.15273 0.82511 0.61357 0.0
C1518 C 0.17292 0.85282 0.58125 0.0
C1519 C 0.1859 0.82446 0.58689 0.0
H1520 H 0.88861 0.36421 0.36423 0.0
H1521 H 0.89403 0.41621 0.31435 0.0
H1522 H 0.94276 0.44028 0.3243 0.0
H1523 H 0.98218 0.44896 0.3479 0.0
H1524 H 0.97445 0.40018 0.39867 0.0
H1525 H 0.92853 0.37225 0.38762 0.0
C1526 C 0.9007 0.38045 0.35543 0.0
C1527 C 0.88771 0.38839 0.33858 0.0
C1528 C 0.9283 0.39483 0.36142 0.0
C1529 C 0.90348 0.40977 0.32742 0.0
C1530 C 0.93132 0.4236 0.3331 0.0
C1531 C 0.97054 0.432 0.35646 0.0
C1532 C 0.98224 0.42588 0.37384 0.0
C1533 C 0.94364 0.41673 0.3502 0.0
C1534 C 0.96669 0.4043 0.38494 0.0
C1535 C 0.94019 0.38862 0.37872 0.0
H1536 H 0.36116 0.77023 0.3771 0.0
H1537 H 0.26511 0.80043 0.38114 0.0
H1538 H 0.28191 0.84899 0.39503 0.0
H1539 H 0.32357 0.88367 0.4053 0.0
H1540 H 0.41979 0.85636 0.39855 0.0
H1541 H 0.40317 0.80611 0.38594 0.0
C1542 C 0.34382 0.78761 0.38039 0.0
C1543 C 0.31183 0.78161 0.37756 0.0
C1544 C 0.35367 0.81607 0.38799 0.0
C1545 C 0.2899 0.80423 0.38302 0.0
C1546 C 0.29945 0.83214 0.39097 0.0
C1547 C 0.34092 0.86661 0.4012 0.0
C1548 C 0.37283 0.87352 0.40302 0.0
C1549 C 0.33124 0.83834 0.39347 0.0
C1550 C 0.39506 0.85148 0.39733 0.0
C1551 C 0.38557 0.8228 0.39011 0.0
H1552 H 0.88281 0.56089 0.15796 0.0
H1553 H 0.90817 0.65799 0.15337 0.0
H1554 H 0.95947 0.64331 0.14156 0.0
H1555 H 0.99657 0.60284 0.13216 0.0
H1556 H 0.96887 0.50589 0.13409 0.0
H1557 H 0.91951 0.52058 0.14782 0.0
C1558 C 0.89971 0.57881 0.15454 0.0
C1559 C 0.89179 0.61044 0.15658 0.0
C1560 C 0.92876 0.57024 0.14725 0.0
C1561 C 0.91372 0.63345 0.15185 0.0
C1562 C 0.94304 0.62507 0.1451 0.0
C1563 C 0.97962 0.58487 0.13501 0.0
C1564 C 0.98652 0.55327 0.13151 0.0
C1565 C 0.95068 0.59351 0.14251 0.0
C1566 C 0.96442 0.53044 0.13645 0.0
C1567 C 0.936 0.53878 0.14431 0.0
H1568 H 0.17268 0.1307 0.92006 0.0
H1569 H 0.09584 0.12467 0.88239 0.0
H1570 H 0.11393 0.17196 0.86725 0.0
H1571 H 0.1531 0.21354 0.86374 0.0
H1572 H 0.22952 0.21972 0.90152 0.0
H1573 H 0.21041 0.17341 0.91736 0.0
C1574 C 0.15972 0.13978 0.90862 0.0
C1575 C 0.13299 0.12399 0.90237 0.0
C1576 C 0.17031 0.1669 0.8999 0.0
C1577 C 0.11653 0.13624 0.88751 0.0
C1578 C 0.12688 0.16328 0.8788 0.0
C1579 C 0.16507 0.20523 0.87573 0.0
C1580 C 0.19225 0.22043 0.88174 0.0
C1581 C 0.1539 0.17864 0.88478 0.0
C1582 C 0.20838 0.20853 0.89676 0.0
C1583 C 0.19745 0.18211 0.90582 0.0
H1584 H 0.54061 0.46802 0.6424 0.0
H1585 H 0.5046 0.37951 0.62375 0.0
H1586 H 0.55179 0.35354 0.63389 0.0
H1587 H 0.60391 0.35567 0.64827 0.0
H1588 H 0.63684 0.4434 0.66975 0.0
H1589 H 0.59007 0.46957 0.65869 0.0
C1590 C 0.54286 0.44301 0.64052 0.0
C1591 C 0.51926 0.42627 0.63146 0.0
C1592 C 0.56962 0.42786 0.64712 0.0
C1593 C 0.52272 0.39371 0.62961 0.0
C1594 C 0.54969 0.37856 0.63575 0.0
C1595 C 0.60078 0.3805 0.65053 0.0
C1596 C 0.62393 0.39756 0.65974 0.0
C1597 C 0.57343 0.39543 0.64441 0.0
C1598 C 0.61936 0.42965 0.66277 0.0
C1599 C 0.59265 0.4447 0.65639 0.0
H1600 H 0.14691 0.03967 0.275 0.0
H1601 H 0.24655 0.05298 0.27091 0.0
H1602 H 0.25013 0.00895 0.24995 0.0
H1603 H 0.22487 0.96667 0.23287 0.0
H1604 H 0.12532 0.95293 0.23771 0.0
H1605 H 0.12191 0.997 0.25846 0.0
C1606 C 0.1694 0.03309 0.26944 0.0
C1607 C 0.19639 0.04966 0.27441 0.0
C1608 C 0.17135 0.00753 0.25765 0.0
C1609 C 0.22541 0.04059 0.26726 0.0
C1610 C 0.22748 0.0154 0.25531 0.0
C1611 C 0.20244 0.97324 0.23851 0.0
C1612 C 0.17539 0.95653 0.2337 0.0
C1613 C 0.2006 0.99865 0.25045 0.0
C1614 C 0.14653 0.96532 0.24119 0.0
C1615 C 0.14451 0.99061 0.25301 0.0
H1616 H 0.18938 0.93982 0.49581 0.0
H1617 H 0.24138 0.95387 0.54503 0.0
H1618 H 0.29044 0.95251 0.52817 0.0
H1619 H 0.31876 0.94657 0.49933 0.0
H1620 H 0.26672 0.93837 0.44975 0.0
H1621 H 0.21754 0.93814 0.46668 0.0
C1622 C 0.2115 0.94267 0.50276 0.0
C1623 C 0.21188 0.94676 0.52159 0.0
C1624 C 0.23958 0.9428 0.4929 0.0
C1625 C 0.24057 0.95084 0.5305 0.0
C1626 C 0.26862 0.94992 0.52089 0.0
C1627 C 0.29657 0.94472 0.49233 0.0
C1628 C 0.29611 0.94213 0.47344 0.0
C1629 C 0.26844 0.94577 0.5021 0.0
C1630 C 0.26741 0.94031 0.46435 0.0
C1631 C 0.23936 0.94015 0.47401 0.0
H1632 H 0.27623 0.04276 0.72844 0.0
H1633 H 0.3634 0.01005 0.70608 0.0
H1634 H 0.36621 0.96932 0.72905 0.0
H1635 H 0.34404 0.94285 0.75549 0.0
H1636 H 0.25599 0.9742 0.7773 0.0
H1637 H 0.25339 0.01541 0.75454 0.0
C1638 C 0.29586 0.02674 0.72862 0.0
C1639 C 0.31958 0.02951 0.71557 0.0
C1640 C 0.29717 0.00304 0.74175 0.0
C1641 C 0.34475 0.00842 0.71592 0.0
C1642 C 0.34643 0.98511 0.72907 0.0
C1643 C 0.32428 0.9587 0.75528 0.0
C1644 C 0.30033 0.95548 0.76813 0.0
C1645 C 0.32277 0.98218 0.74205 0.0
C1646 C 0.27476 0.97609 0.76756 0.0
C1647 C 0.27327 0.99973 0.75456 0.0
H1648 H 0.2634 0.07234 0.03449 0.0
H1649 H 0.33029 0.058 0.99183 0.0
H1650 H 0.28809 0.05811 0.96935 0.0
H1651 H 0.23191 0.06125 0.96212 0.0
H1652 H 0.16579 0.08114 0.00448 0.0
H1653 H 0.20787 0.08014 0.02694 0.0
C1654 C 0.26857 0.06933 0.02024 0.0
C1655 C 0.29957 0.06482 0.01468 0.0
C1656 C 0.2444 0.07046 0.00746 0.0
C1657 C 0.30642 0.06144 0.99627 0.0
C1658 C 0.28236 0.06145 0.98349 0.0
C1659 C 0.22687 0.06544 0.97629 0.0
C1660 C 0.19598 0.07098 0.98179 0.0
C1661 C 0.25125 0.06576 0.98896 0.0
C1662 C 0.18952 0.07689 1.00004 0.0
C1663 C 0.2135 0.0762 0.01285 0.0
H1664 H 0.81462 0.93491 0.753 0.0
H1665 H 0.78994 0.98575 0.70478 0.0
H1666 H 0.79046 0.03483 0.72166 0.0
H1667 H 0.79858 0.06352 0.75023 0.0
H1668 H 0.81769 0.01209 0.79903 0.0
H1669 H 0.81884 0.96309 0.78197 0.0
C1670 C 0.80928 0.95677 0.74626 0.0
C1671 C 0.80243 0.95683 0.72771 0.0
C1672 C 0.80877 0.98478 0.75616 0.0
C1673 C 0.79515 0.98517 0.71911 0.0
C1674 C 0.79558 0.01324 0.72872 0.0
C1675 C 0.80305 0.04151 0.75702 0.0
C1676 C 0.8084 0.0412 0.77572 0.0
C1677 C 0.80251 0.01337 0.74724 0.0
C1678 C 0.81359 0.01268 0.78458 0.0
C1679 C 0.81426 0.98474 0.77485 0.0
H1680 H 0.81496 0.09096 0.49608 0.0
H1681 H 0.78058 0.0059 0.47195 0.0
H1682 H 0.73878 0.00347 0.4944 0.0
H1683 H 0.71169 0.02578 0.52086 0.0
H1684 H 0.74736 0.11016 0.54521 0.0
H1685 H 0.78874 0.11258 0.52267 0.0
C1686 C 0.79837 0.07184 0.49572 0.0
C1687 C 0.80092 0.04871 0.4823 0.0
C1688 C 0.77449 0.0705 0.5087 0.0
C1689 C 0.77925 0.02403 0.48213 0.0
C1690 C 0.75526 0.02265 0.49495 0.0
C1691 C 0.72849 0.04472 0.5212 0.0
C1692 C 0.72635 0.06777 0.53472 0.0
C1693 C 0.75258 0.04582 0.50827 0.0
C1694 C 0.74844 0.09205 0.53502 0.0
C1695 C 0.77216 0.09348 0.52211 0.0
H1696 H 0.71177 0.04505 0.23028 0.0
H1697 H 0.62883 0.00702 0.20548 0.0
H1698 H 0.62718 0.96563 0.22808 0.0
H1699 H 0.6493 0.9399 0.25476 0.0
H1700 H 0.73311 0.97666 0.27918 0.0
H1701 H 0.73442 0.0187 0.25686 0.0
C1702 C 0.69329 0.02776 0.22986 0.0
C1703 C 0.67044 0.02922 0.21619 0.0
C1704 C 0.69266 0.00368 0.24281 0.0
C1705 C 0.64677 0.00647 0.21579 0.0
C1706 C 0.64578 0.98276 0.22873 0.0
C1707 C 0.66786 0.9571 0.25524 0.0
C1708 C 0.69101 0.95512 0.26868 0.0
C1709 C 0.66862 0.98108 0.24227 0.0
C1710 C 0.71499 0.97756 0.26898 0.0
C1711 C 0.71574 0.00167 0.25623 0.0
H1712 H 0.67445 0.95288 0.00507 0.0
H1713 H 0.72642 0.93718 0.95607 0.0
H1714 H 0.77534 0.93596 0.97318 0.0
H1715 H 0.8033 0.93923 0.00221 0.0
H1716 H 0.75205 0.96084 0.05072 0.0
H1717 H 0.70291 0.96008 0.03382 0.0
C1718 C 0.69657 0.9492 0.99825 0.0
C1719 C 0.69712 0.94485 0.97949 0.0
C1720 C 0.72464 0.94967 0.00808 0.0
C1721 C 0.72572 0.94056 0.97058 0.0
C1722 C 0.7536 0.93982 0.98033 0.0
C1723 C 0.78131 0.94378 0.00899 0.0
C1724 C 0.78104 0.94986 0.0276 0.0
C1725 C 0.75335 0.94431 0.99909 0.0
C1726 C 0.75263 0.9562 0.03633 0.0
C1727 C 0.72458 0.95566 0.02671 0.0
H1728 H 0.72501 0.52404 0.78094 0.0
H1729 H 0.6718 0.59001 0.74937 0.0
H1730 H 0.66843 0.55252 0.7246 0.0
H1731 H 0.67996 0.50094 0.71205 0.0
H1732 H 0.73103 0.43373 0.74393 0.0
H1733 H 0.73571 0.47169 0.76849 0.0
C1734 C 0.71287 0.53023 0.76858 0.0
C1735 C 0.69879 0.55978 0.76694 0.0
C1736 C 0.71047 0.5083 0.75451 0.0
C1737 C 0.68278 0.56738 0.75097 0.0
C1738 C 0.68084 0.54597 0.7368 0.0
C1739 C 0.69215 0.49456 0.72436 0.0
C1740 C 0.70521 0.46459 0.72613 0.0
C1741 C 0.69446 0.51633 0.73846 0.0
C1742 C 0.7207 0.45664 0.74224 0.0
C1743 C 0.72347 0.47836 0.75627 0.0
H1744 H 0.77334 0.46621 0.97439 0.0
H1745 H 0.82158 0.38681 0.99708 0.0
H1746 H 0.78399 0.38458 0.02178 0.0
H1747 H 0.73773 0.40526 0.03715 0.0
H1748 H 0.68847 0.48386 0.0143 0.0
H1749 H 0.72604 0.48619 0.98947 0.0
C1750 C 0.77563 0.44843 0.98474 0.0
C1751 C 0.80034 0.42676 0.98387 0.0
C1752 C 0.75372 0.44709 0.9989 0.0
C1753 C 0.80281 0.40376 0.99736 0.0
C1754 C 0.78132 0.40247 0.01153 0.0
C1755 C 0.73515 0.42292 0.02675 0.0
C1756 C 0.71035 0.44443 0.02767 0.0
C1757 C 0.75672 0.42402 0.01246 0.0
C1758 C 0.70733 0.467 0.01396 0.0
C1759 C 0.72885 0.46839 0.99976 0.0
H1760 H 0.81463 0.50795 0.21097 0.0
H1761 H 0.82348 0.57829 0.25229 0.0
H1762 H 0.82055 0.53808 0.27579 0.0
H1763 H 0.81618 0.48265 0.28451 0.0
H1764 H 0.81384 0.41193 0.24315 0.0
H1765 H 0.81345 0.45232 0.21965 0.0
C1766 C 0.81583 0.51434 0.22514 0.0
C1767 C 0.81902 0.54587 0.23 0.0
C1768 C 0.8153 0.49102 0.23849 0.0
C1769 C 0.82108 0.55405 0.24832 0.0
C1770 C 0.81933 0.53112 0.26172 0.0
C1771 C 0.81544 0.47625 0.27033 0.0
C1772 C 0.8147 0.4446 0.26544 0.0
C1773 C 0.81651 0.49953 0.25697 0.0
C1774 C 0.81436 0.43628 0.24711 0.0
C1775 C 0.81412 0.45932 0.23372 0.0
H1776 H 0.72913 0.52392 0.47179 0.0
H1777 H 0.67384 0.59775 0.49534 0.0
H1778 H 0.70979 0.60087 0.52085 0.0
H1779 H 0.75662 0.5825 0.53661 0.0
H1780 H 0.81303 0.50982 0.51278 0.0
H1781 H 0.77701 0.5065 0.48722 0.0
C1782 C 0.72492 0.54064 0.48253 0.0
C1783 C 0.69876 0.56047 0.48169 0.0
C1784 C 0.74591 0.54257 0.49709 0.0
C1785 C 0.69379 0.58221 0.49563 0.0
C1786 C 0.71433 0.58401 0.51025 0.0
C1787 C 0.76106 0.56592 0.52583 0.0
C1788 C 0.78738 0.54634 0.52666 0.0
C1789 C 0.74042 0.56429 0.51113 0.0
C1790 C 0.79294 0.52519 0.51248 0.0
C1791 C 0.77232 0.52322 0.49787 0.0
H1792 H 0.28589 0.5351 0.2762 0.0
H1793 H 0.38325 0.55765 0.26853 0.0
H1794 H 0.38761 0.51703 0.24558 0.0
H1795 H 0.36386 0.47542 0.22749 0.0
H1796 H 0.26643 0.45296 0.23485 0.0
H1797 H 0.26213 0.49312 0.25816 0.0
C1798 C 0.30807 0.53113 0.26952 0.0
C1799 C 0.33418 0.54946 0.27411 0.0
C1800 C 0.31046 0.5077 0.25629 0.0
C1801 C 0.36274 0.54397 0.26528 0.0
C1802 C 0.36529 0.52069 0.25215 0.0
C1803 C 0.34169 0.47919 0.23423 0.0
C1804 C 0.31551 0.46119 0.2294 0.0
C1805 C 0.33932 0.50244 0.24754 0.0
C1806 C 0.28695 0.46651 0.23826 0.0
C1807 C 0.28446 0.48949 0.2516 0.0
H1808 H 0.27518 0.61339 0.97103 0.0
H1809 H 0.29858 0.51569 0.97609 0.0
H1810 H 0.25927 0.50965 0.99973 0.0
H1811 H 0.21837 0.53209 0.01901 0.0
H1812 H 0.19513 0.62982 0.01394 0.0
H1813 H 0.23421 0.63575 0.9902 0.0
C1814 C 0.27175 0.59076 0.9773 0.0
C1815 C 0.28984 0.56505 0.97177 0.0
C1816 C 0.24907 0.58741 0.99086 0.0
C1817 C 0.28499 0.5359 0.98006 0.0
C1818 C 0.26249 0.5324 0.99358 0.0
C1819 C 0.22178 0.55468 0.01269 0.0
C1820 C 0.20381 0.58046 0.01827 0.0
C1821 C 0.24439 0.55799 0.99908 0.0
C1822 C 0.20859 0.60956 0.00993 0.0
C1823 C 0.23098 0.61301 0.99635 0.0
H1824 H 0.14012 0.50717 0.72248 0.0
H1825 H 0.22893 0.5485 0.73626 0.0
H1826 H 0.23496 0.51158 0.76115 0.0
H1827 H 0.21532 0.46717 0.77885 0.0
H1828 H 0.12636 0.42614 0.76508 0.0
H1829 H 0.12019 0.46331 0.74038 0.0
C1830 C 0.16079 0.50817 0.73093 0.0
C1831 C 0.18405 0.53055 0.72744 0.0
C1832 C 0.16414 0.48687 0.74524 0.0
C1833 C 0.21066 0.53149 0.73858 0.0
C1834 C 0.21415 0.51037 0.75284 0.0
C1835 C 0.19457 0.46636 0.77046 0.0
C1836 C 0.17137 0.44384 0.77384 0.0
C1837 C 0.1911 0.48788 0.75626 0.0
C1838 C 0.14461 0.4432 0.76283 0.0
C1839 C 0.14103 0.46446 0.74867 0.0
H1840 H 0.28552 0.48058 0.52476 0.0
H1841 H 0.33979 0.40854 0.49871 0.0
H1842 H 0.3031 0.40772 0.47345 0.0
H1843 H 0.25514 0.4266 0.45909 0.0
H1844 H 0.19956 0.49711 0.48561 0.0
H1845 H 0.23728 0.49939 0.51038 0.0
C1846 C 0.28941 0.46482 0.5135 0.0
C1847 C 0.31537 0.44467 0.5136 0.0
C1848 C 0.26796 0.46413 0.49915 0.0
C1849 C 0.31994 0.42421 0.499 0.0
C1850 C 0.29899 0.42375 0.48454 0.0
C1851 C 0.25131 0.44259 0.47024 0.0
C1852 C 0.22461 0.46172 0.47047 0.0
C1853 C 0.27284 0.44347 0.48453 0.0
C1854 C 0.21991 0.48211 0.48511 0.0
C1855 C 0.24148 0.48344 0.49927 0.0
H1856 H 0.32888 0.04702 0.41051 0.0
H1857 H 0.37365 0.00593 0.36403 0.0
H1858 H 0.34267 0.03918 0.34395 0.0
H1859 H 0.29985 0.07687 0.3397 0.0
H1860 H 0.25686 0.11936 0.38638 0.0
H1861 H 0.29039 0.08877 0.40633 0.0
C1862 C 0.33202 0.04558 0.39598 0.0
C1863 C 0.35312 0.02386 0.3887 0.0
C1864 C 0.31439 0.06487 0.38459 0.0
C1865 C 0.35746 0.02251 0.36991 0.0
C1866 C 0.33967 0.04137 0.35844 0.0
C1867 C 0.29805 0.07959 0.35424 0.0
C1868 C 0.27567 0.09999 0.36158 0.0
C1869 C 0.31759 0.06215 0.36564 0.0
C1870 C 0.27388 0.10374 0.38041 0.0
C1871 C 0.29294 0.08618 0.39184 0.0
H1872 H 0.21274 0.06992 0.66181 0.0
H1873 H 0.24729 0.12287 0.61644 0.0
H1874 H 0.21621 0.091 0.59576 0.0
H1875 H 0.18199 0.04561 0.59043 0.0
H1876 H 0.14505 0.99483 0.636 0.0
H1877 H 0.17417 0.02833 0.65674 0.0
C1878 C 0.21317 0.07467 0.64741 0.0
C1879 C 0.23248 0.09849 0.64065 0.0
C1880 C 0.19501 0.05648 0.63563 0.0
C1881 C 0.23255 0.10469 0.62199 0.0
C1882 C 0.21494 0.08635 0.61014 0.0
C1883 C 0.18022 0.04205 0.60491 0.0
C1884 C 0.16174 0.01758 0.61168 0.0
C1885 C 0.19656 0.06179 0.61678 0.0
C1886 C 0.15918 0.0135 0.63047 0.0
C1887 C 0.17588 0.03258 0.64233 0.0
H1888 H 0.13214 0.97899 0.87408 0.0
H1889 H 0.17942 0.95475 0.92362 0.0
H1890 H 0.2114 0.91665 0.90745 0.0
H1891 H 0.22951 0.89411 0.87875 0.0
H1892 H 0.18566 0.92226 0.82888 0.0
H1893 H 0.14851 0.95455 0.84561 0.0
C1894 C 0.14909 0.96499 0.88137 0.0
C1895 C 0.1535 0.96974 0.89999 0.0
C1896 C 0.16813 0.94391 0.87188 0.0
C1897 C 0.17577 0.95167 0.90925 0.0
C1898 C 0.19405 0.92988 0.90002 0.0
C1899 C 0.2114 0.90683 0.87162 0.0
C1900 C 0.21023 0.90584 0.85266 0.0
C1901 C 0.19096 0.92634 0.88126 0.0
C1902 C 0.187 0.92279 0.8435 0.0
C1903 C 0.16583 0.9413 0.85304 0.0
H1904 H 0.25507 0.8986 0.12394 0.0
H1905 H 0.29158 0.93346 0.17438 0.0
H1906 H 0.32849 0.96656 0.15807 0.0
H1907 H 0.3475 0.98872 0.12949 0.0
H1908 H 0.30792 0.95702 0.0791 0.0
H1909 H 0.27531 0.91955 0.0953 0.0
C1910 C 0.27146 0.91309 0.13133 0.0
C1911 C 0.27063 0.91359 0.15031 0.0
C1912 C 0.2919 0.93287 0.12186 0.0
C1913 C 0.2917 0.93278 0.15975 0.0
C1914 C 0.31278 0.95174 0.15043 0.0
C1915 C 0.33203 0.97333 0.12206 0.0
C1916 C 0.33008 0.97571 0.10314 0.0
C1917 C 0.31266 0.95246 0.13149 0.0
C1918 C 0.30969 0.9558 0.09369 0.0
C1919 C 0.29104 0.93435 0.10294 0.0
H1920 H 0.68773 0.96081 0.58805 0.0
H1921 H 0.63378 0.99409 0.63339 0.0
H1922 H 0.66293 0.95999 0.65371 0.0
H1923 H 0.70603 0.92346 0.65893 0.0
H1924 H 0.75845 0.88778 0.61367 0.0
H1925 H 0.72736 0.91974 0.59293 0.0
C1926 C 0.68227 0.96039 0.60236 0.0
C1927 C 0.65892 0.98018 0.60924 0.0
C1928 C 0.69882 0.94035 0.61397 0.0
C1929 C 0.65168 0.97909 0.62776 0.0
C1930 C 0.66839 0.95968 0.63941 0.0
C1931 C 0.71042 0.92247 0.6445 0.0
C1932 C 0.73466 0.90363 0.63783 0.0
C1933 C 0.69233 0.94062 0.63271 0.0
C1934 C 0.73985 0.90214 0.6191 0.0
C1935 C 0.72223 0.92053 0.60727 0.0
H1936 H 0.79659 0.93203 0.3373 0.0
H1937 H 0.75704 0.87787 0.38081 0.0
H1938 H 0.78885 0.90624 0.40268 0.0
H1939 H 0.82552 0.94874 0.40971 0.0
H1940 H 0.86746 0.00087 0.36614 0.0
H1941 H 0.83742 0.97088 0.34409 0.0
C1942 C 0.79516 0.92631 0.35155 0.0
C1943 C 0.77427 0.90311 0.35742 0.0
C1944 C 0.8139 0.94241 0.36408 0.0
C1945 C 0.77295 0.89563 0.37591 0.0
C1946 C 0.79104 0.91192 0.38847 0.0
C1947 C 0.82827 0.95331 0.39538 0.0
C1948 C 0.84846 0.97717 0.38959 0.0
C1949 C 0.81123 0.9357 0.38274 0.0
C1950 C 0.85211 0.98259 0.37096 0.0
C1951 C 0.83481 0.96555 0.35833 0.0
H1952 H 0.77994 0.07095 0.16359 0.0
H1953 H 0.74309 0.121 0.11766 0.0
H1954 H 0.77834 0.09276 0.09758 0.0
H1955 H 0.81685 0.05127 0.09277 0.0
H1956 H 0.85614 0.00289 0.13854 0.0
H1957 H 0.82311 0.03337 0.15905 0.0
C1958 C 0.77983 0.07576 0.1492 0.0
C1959 C 0.75868 0.09771 0.14208 0.0
C1960 C 0.80058 0.0598 0.13773 0.0
C1961 C 0.75911 0.10416 0.12346 0.0
C1962 C 0.77919 0.08798 0.11195 0.0
C1963 C 0.81844 0.0477 0.10726 0.0
C1964 C 0.83859 0.02473 0.11416 0.0
C1965 C 0.79962 0.0654 0.1189 0.0
C1966 C 0.84081 0.02055 0.13295 0.0
C1967 C 0.82178 0.03779 0.14465 0.0
H1968 H 0.67317 0.04023 0.91175 0.0
H1969 H 0.63134 0.99649 0.86514 0.0
H1970 H 0.66372 0.02843 0.84514 0.0
H1971 H 0.70628 0.06636 0.84106 0.0
H1972 H 0.74622 0.11184 0.88768 0.0
H1973 H 0.71204 0.08173 0.90757 0.0
C1974 C 0.67101 0.03787 0.89721 0.0
C1975 C 0.65022 0.01583 0.88991 0.0
C1976 C 0.68942 0.05648 0.88584 0.0
C1977 C 0.64722 0.01332 0.87106 0.0
C1978 C 0.66582 0.03145 0.85964 0.0
C1979 C 0.70736 0.06977 0.85557 0.0
C1980 C 0.72897 0.09096 0.86293 0.0
C1981 C 0.68737 0.0527 0.86689 0.0
C1982 C 0.72979 0.0956 0.88172 0.0
C1983 C 0.71035 0.07833 0.89309 0.0
H1984 H 0.81693 0.53886 0.91442 0.0
H1985 H 0.86599 0.49526 0.87019 0.0
H1986 H 0.838 0.52808 0.84861 0.0
H1987 H 0.79781 0.56753 0.84218 0.0
H1988 H 0.75093 0.61338 0.88644 0.0
H1989 H 0.77999 0.5816 0.90809 0.0
C1990 C 0.82154 0.53668 0.90006 0.0
C1991 C 0.84325 0.51449 0.8939 0.0
C1992 C 0.80577 0.55603 0.88772 0.0
C1993 C 0.84937 0.51219 0.87528 0.0
C1994 C 0.83332 0.53088 0.86291 0.0
C1995 C 0.79414 0.57069 0.85657 0.0
C1996 C 0.77209 0.59258 0.86268 0.0
C1997 C 0.81121 0.55263 0.86897 0.0
C1998 C 0.76784 0.59672 0.88138 0.0
C1999 C 0.78433 0.57845 0.89378 0.0
H2000 H 0.68566 0.54326 0.08773 0.0
H2001 H 0.63686 0.50407 0.13343 0.0
H2002 H 0.67046 0.53295 0.1541 0.0
H2003 H 0.71512 0.56768 0.15935 0.0
H2004 H 0.76188 0.60999 0.11394 0.0
H2005 H 0.72768 0.58178 0.09305 0.0
C2006 C 0.68232 0.54122 0.10221 0.0
C2007 C 0.65893 0.52137 0.10901 0.0
C2008 C 0.70142 0.55839 0.11409 0.0
C2009 C 0.65462 0.51924 0.12781 0.0
C2010 C 0.67391 0.53565 0.13967 0.0
C2011 C 0.71771 0.5708 0.14488 0.0
C2012 C 0.74114 0.59062 0.13819 0.0
C2013 C 0.6976 0.55502 0.13298 0.0
C2014 C 0.74396 0.59485 0.11942 0.0
C2015 C 0.7245 0.57865 0.10747 0.0
H2016 H 0.68776 0.45155 0.41018 0.0
H2017 H 0.64037 0.49599 0.36557 0.0
H2018 H 0.67094 0.46531 0.34415 0.0
H2019 H 0.71357 0.42834 0.33805 0.0
H2020 H 0.75918 0.38197 0.38259 0.0
H2021 H 0.72681 0.41079 0.40405 0.0
C2022 C 0.68395 0.4543 0.39578 0.0
C2023 C 0.66205 0.47623 0.38949 0.0
C2024 C 0.70142 0.43638 0.38351 0.0
C2025 C 0.65707 0.47925 0.37078 0.0
C2026 C 0.67465 0.46184 0.3585 0.0
C2027 C 0.71627 0.42445 0.35245 0.0
C2028 C 0.73894 0.40336 0.35874 0.0
C2029 C 0.69728 0.44075 0.36471 0.0
C2030 C 0.74188 0.39813 0.37742 0.0
C2031 C 0.72346 0.41466 0.3897 0.0
H2032 H 0.85612 0.47965 0.631 0.0
H2033 H 0.82023 0.44561 0.5802 0.0
H2034 H 0.78634 0.409 0.59616 0.0
H2035 H 0.76369 0.38984 0.62453 0.0
H2036 H 0.79671 0.42681 0.67531 0.0
H2037 H 0.83502 0.45885 0.65942 0.0
C2038 C 0.84123 0.46387 0.62344 0.0
C2039 C 0.84063 0.46538 0.60447 0.0
C2040 C 0.82109 0.44356 0.63271 0.0
C2041 C 0.82097 0.44502 0.59483 0.0
C2042 C 0.80157 0.4241 0.60394 0.0
C2043 C 0.77957 0.40458 0.63213 0.0
C2044 C 0.77729 0.40602 0.65106 0.0
C2045 C 0.80093 0.42364 0.62288 0.0
C2046 C 0.79785 0.42544 0.66071 0.0
C2047 C 0.81977 0.44378 0.65164 0.0
H2048 H 0.14924 0.48719 0.12649 0.0
H2049 H 0.18978 0.45719 0.07602 0.0
H2050 H 0.22209 0.41912 0.09206 0.0
H2051 H 0.24201 0.39749 0.12068 0.0
H2052 H 0.20455 0.43107 0.17117 0.0
H2053 H 0.16769 0.46433 0.15491 0.0
C2054 C 0.16481 0.472 0.11898 0.0
C2055 C 0.16715 0.47504 0.10011 0.0
C2056 C 0.18402 0.45091 0.12832 0.0
C2057 C 0.18769 0.45542 0.09058 0.0
C2058 C 0.20617 0.43365 0.09973 0.0
C2059 C 0.22541 0.41173 0.12807 0.0
C2060 C 0.22595 0.41188 0.14706 0.0
C2061 C 0.20501 0.43164 0.11864 0.0
C2062 C 0.20464 0.43072 0.15653 0.0
C2063 C 0.18358 0.44975 0.14725 0.0
H2064 H 0.31932 0.459 0.90992 0.0
H2065 H 0.3664 0.49694 0.86329 0.0
H2066 H 0.33559 0.46354 0.84342 0.0
H2067 H 0.29293 0.42586 0.8391 0.0
H2068 H 0.24821 0.38505 0.88564 0.0
H2069 H 0.28052 0.41694 0.90571 0.0
C2070 C 0.32297 0.45971 0.89542 0.0
C2071 C 0.3449 0.48061 0.88809 0.0
C2072 C 0.30553 0.43998 0.88405 0.0
C2073 C 0.34971 0.48102 0.86929 0.0
C2074 C 0.332 0.46202 0.85789 0.0
C2075 C 0.2905 0.42378 0.85364 0.0
C2076 C 0.26807 0.4034 0.86089 0.0
C2077 C 0.30951 0.44178 0.86509 0.0
C2078 C 0.26539 0.40056 0.87975 0.0
C2079 C 0.28374 0.4189 0.89123 0.0
H2080 H 0.26622 0.60717 0.62335 0.0
H2081 H 0.29162 0.56397 0.67393 0.0
H2082 H 0.33113 0.5325 0.65859 0.0
H2083 H 0.35531 0.51394 0.63041 0.0
H2084 H 0.32646 0.55382 0.57955 0.0
H2085 H 0.2918 0.59003 0.59532 0.0
C2086 C 0.28075 0.59121 0.63103 0.0
C2087 C 0.27599 0.58787 0.64972 0.0
C2088 C 0.30272 0.57242 0.62203 0.0
C2089 C 0.29472 0.56682 0.65949 0.0
C2090 C 0.31732 0.54881 0.65073 0.0
C2091 C 0.34181 0.53093 0.62284 0.0
C2092 C 0.34342 0.53124 0.60387 0.0
C2093 C 0.32108 0.55093 0.63195 0.0
C2094 C 0.32549 0.55306 0.59418 0.0
C2095 C 0.30565 0.57375 0.60318 0.0
H2096 H 0.21721 0.56867 0.33853 0.0
H2097 H 0.25618 0.61921 0.38366 0.0
H2098 H 0.22286 0.5903 0.4045 0.0
H2099 H 0.18448 0.54894 0.41009 0.0
H2100 H 0.14287 0.50046 0.36503 0.0
H2101 H 0.17511 0.53045 0.34397 0.0
C2102 C 0.21825 0.57339 0.35292 0.0
C2103 C 0.2393 0.59579 0.35957 0.0
C2104 C 0.19857 0.55708 0.36484 0.0
C2105 C 0.24014 0.60207 0.37821 0.0
C2106 C 0.22117 0.5855 0.39015 0.0
C2107 C 0.18234 0.54512 0.39565 0.0
C2108 C 0.16159 0.52238 0.38912 0.0
C2109 C 0.20058 0.56271 0.38364 0.0
C2110 C 0.15868 0.51792 0.37037 0.0
C2111 C 0.17721 0.53493 0.35833 0.0
H2112 H 0.2969 0.30016 0.24472 0.0
H2113 H 0.22343 0.27125 0.20862 0.0
H2114 H 0.20393 0.23456 0.2313 0.0
H2115 H 0.2079 0.2106 0.26147 0.0
H2116 H 0.28045 0.24036 0.29792 0.0
H2117 H 0.30001 0.27719 0.27524 0.0
C2118 C 0.27651 0.28592 0.24194 0.0
C2119 C 0.26173 0.28808 0.22505 0.0
C2120 C 0.26526 0.26519 0.25512 0.0
C2121 C 0.23541 0.26954 0.22148 0.0
C2122 C 0.22419 0.24871 0.23445 0.0
C2123 C 0.22799 0.22521 0.26436 0.0
C2124 C 0.24278 0.22299 0.28122 0.0
C2125 C 0.23898 0.24626 0.25129 0.0
C2126 C 0.26866 0.24199 0.285 0.0
C2127 C 0.27987 0.26291 0.27204 0.0
H2128 H 0.05308 0.95802 0.50894 0.0
H2129 H 0.01806 0.02562 0.54698 0.0
H2130 H 0.97876 0.04278 0.52508 0.0
H2131 H 0.95431 0.03858 0.49489 0.0
H2132 H 0.99024 0.97177 0.45667 0.0
H2133 H 0.02921 0.95434 0.47867 0.0
C2134 C 0.03692 0.97663 0.51234 0.0
C2135 C 0.03815 0.9903 0.52959 0.0
C2136 C 0.01453 0.98646 0.49963 0.0
C2137 C 0.01715 0.01439 0.53388 0.0
C2138 C 0.99476 0.02427 0.52134 0.0
C2139 C 0.97061 0.0201 0.4915 0.0
C2140 C 0.96954 0.00647 0.47423 0.0
C2141 C 0.99312 0.01038 0.50419 0.0
C2142 C 0.99085 0.98271 0.46987 0.0
C2143 C 0.01309 0.97274 0.48244 0.0
H2144 H 0.22466 0.76622 0.78476 0.0
H2145 H 0.30484 0.80278 0.75674 0.0
H2146 H 0.2945 0.76812 0.73108 0.0
H2147 H 0.2624 0.7274 0.71664 0.0
H2148 H 0.18106 0.69223 0.74417 0.0
H2149 H 0.19207 0.72605 0.7701 0.0
C2150 C 0.23994 0.76627 0.77307 0.0
C2151 C 0.26556 0.78667 0.77256 0.0
C2152 C 0.23355 0.74663 0.75832 0.0
C2153 C 0.28502 0.7871 0.75732 0.0
C2154 C 0.27909 0.76736 0.74269 0.0
C2155 C 0.24698 0.72745 0.72827 0.0
C2156 C 0.22097 0.70752 0.72858 0.0
C2157 C 0.25334 0.74713 0.743 0.0
C2158 C 0.20132 0.70736 0.74376 0.0
C2159 C 0.20758 0.72668 0.75853 0.0
H2160 H 0.44729 0.04605 0.00802 0.0
H2161 H 0.48261 0.97832 0.04595 0.0
H2162 H 0.52045 0.95996 0.02355 0.0
H2163 H 0.54238 0.96218 0.99279 0.0
H2164 H 0.50723 0.03004 0.95491 0.0
H2165 H 0.47007 0.04912 0.9775 0.0
C2166 C 0.46327 0.02724 0.01131 0.0
C2167 C 0.46233 0.01359 0.02857 0.0
C2168 C 0.48476 0.01671 0.99833 0.0
C2169 C 0.48325 0.98942 0.0328 0.0
C2170 C 0.50472 0.97881 0.01998 0.0
C2171 C 0.52666 0.98125 0.98958 0.0
C2172 C 0.52712 0.99445 0.9722 0.0
C2173 C 0.50558 0.99218 0.00267 0.0
C2174 C 0.50677 0.01916 0.96812 0.0
C2175 C 0.48569 0.03016 0.98105 0.0
H2176 H 0.26714 0.77035 0.21688 0.0
H2177 H 0.18363 0.80043 0.24424 0.0
H2178 H 0.19576 0.76623 0.26982 0.0
H2179 H 0.23076 0.72839 0.28463 0.0
H2180 H 0.31415 0.698 0.25728 0.0
H2181 H 0.30134 0.73116 0.2313 0.0
C2182 C 0.25143 0.76893 0.22834 0.0
C2183 C 0.22444 0.78755 0.22871 0.0
C2184 C 0.25861 0.74925 0.24297 0.0
C2185 C 0.2045 0.78616 0.24374 0.0
C2186 C 0.21144 0.76667 0.25833 0.0
C2187 C 0.24609 0.72922 0.27297 0.0
C2188 C 0.27343 0.71115 0.27281 0.0
C2189 C 0.23854 0.74829 0.25816 0.0
C2190 C 0.29298 0.71185 0.2576 0.0
C2191 C 0.2857 0.7308 0.24281 0.0
H2192 H 0.51555 0.05337 0.52327 0.0
H2193 H 0.57229 0.97044 0.52105 0.0
H2194 H 0.53967 0.94948 0.49667 0.0
H2195 H 0.49436 0.95462 0.47629 0.0
H2196 H 0.43926 0.03875 0.47744 0.0
H2197 H 0.47134 0.05931 0.50213 0.0
C2198 C 0.52065 0.03075 0.51737 0.0
C2199 C 0.54606 0.01333 0.52383 0.0
C2200 C 0.50193 0.01905 0.50332 0.0
C2201 C 0.5528 0.98417 0.51614 0.0
C2202 C 0.53413 0.97219 0.50229 0.0
C2203 C 0.48959 0.97751 0.48193 0.0
C2204 C 0.46443 0.9951 0.47526 0.0
C2205 C 0.50857 0.98939 0.49581 0.0
C2206 C 0.45826 0.02466 0.48263 0.0
C2207 C 0.4767 0.03647 0.49663 0.0
H2208 H 0.26668 0.26259 0.78698 0.0
H2209 H 0.19093 0.30587 0.75796 0.0
H2210 H 0.20227 0.27367 0.73142 0.0
H2211 H 0.23382 0.23305 0.71648 0.0
H2212 H 0.31035 0.19058 0.74522 0.0
H2213 H 0.2984 0.22206 0.77197 0.0
C2214 C 0.25257 0.26471 0.77487 0.0
C2215 C 0.22802 0.28648 0.77436 0.0
C2216 C 0.25935 0.24621 0.75966 0.0
C2217 C 0.21009 0.28938 0.75856 0.0
C2218 C 0.21651 0.27094 0.74343 0.0
C2219 C 0.24798 0.23093 0.72858 0.0
C2220 C 0.27294 0.20964 0.72892 0.0
C2221 C 0.24115 0.24935 0.7438 0.0
C2222 C 0.29088 0.20671 0.74472 0.0
C2223 C 0.28413 0.22477 0.75997 0.0
H2224 H 0.97676 0.02507 0.03688 0.0
H2225 H 0.93118 0.9494 0.00907 0.0
H2226 H 0.96531 0.9569 0.98287 0.0
H2227 H 0.00889 0.98454 0.96814 0.0
H2228 H 0.05282 0.06183 0.99543 0.0
H2229 H 0.0192 0.05383 0.02173 0.0
C2230 C 0.97447 0.01026 0.02506 0.0
C2231 C 0.95173 0.98668 0.02482 0.0
C2232 C 0.994 0.0149 0.01005 0.0
C2233 C 0.94855 0.96777 0.00944 0.0
C2234 C 0.96809 0.97199 0.99452 0.0
C2235 C 0.01072 0.99988 0.97975 0.0
C2236 C 0.03312 0.02383 0.97984 0.0
C2237 C 0.99092 0.99548 0.99467 0.0
C2238 C 0.03583 0.0431 0.99512 0.0
C2239 C 0.01654 0.03864 0.01011 0.0
H2240 H 0.79283 0.80128 0.74266 0.0
H2241 H 0.72536 0.76225 0.70585 0.0
H2242 H 0.70902 0.72457 0.72887 0.0
H2243 H 0.71426 0.70252 0.75948 0.0
H2244 H 0.78116 0.742 0.79647 0.0
H2245 H 0.79723 0.78 0.77354 0.0
C2246 C 0.77443 0.78461 0.73979 0.0
C2247 C 0.76056 0.78414 0.72259 0.0
C2248 C 0.76508 0.7632 0.75312 0.0
C2249 C 0.73673 0.76255 0.71893 0.0
C2250 C 0.72731 0.74114 0.73209 0.0
C2251 C 0.73242 0.71942 0.76243 0.0
C2252 C 0.74654 0.71963 0.77956 0.0
C2253 C 0.74146 0.74112 0.74919 0.0
C2254 C 0.76984 0.7417 0.78338 0.0
C2255 C 0.77907 0.76331 0.77027 0.0
H2256 H 0.73035 0.26306 0.28609 0.0
H2257 H 0.80683 0.30221 0.25586 0.0
H2258 H 0.79333 0.26984 0.22975 0.0
H2259 H 0.7594 0.2307 0.21544 0.0
H2260 H 0.68175 0.19264 0.24514 0.0
H2261 H 0.69615 0.2238 0.27164 0.0
C2262 C 0.74416 0.26412 0.27382 0.0
C2263 C 0.76963 0.28466 0.27283 0.0
C2264 C 0.73599 0.2457 0.25881 0.0
C2265 C 0.78714 0.28643 0.25683 0.0
C2266 C 0.77943 0.26798 0.24194 0.0
C2267 C 0.74554 0.2295 0.22768 0.0
C2268 C 0.71953 0.20961 0.22839 0.0
C2269 C 0.75379 0.24768 0.24273 0.0
C2270 C 0.70197 0.20777 0.24438 0.0
C2271 C 0.71015 0.22561 0.25948 0.0
H2272 H 0.78538 0.19486 0.75939 0.0
H2273 H 0.71489 0.2269 0.79655 0.0
H2274 H 0.69456 0.26289 0.77368 0.0
H2275 H 0.69803 0.28652 0.7434 0.0
H2276 H 0.76929 0.25545 0.70645 0.0
H2277 H 0.78782 0.21741 0.72872 0.0
C2278 C 0.76541 0.20957 0.76235 0.0
C2279 C 0.75182 0.20862 0.77962 0.0
C2280 C 0.75399 0.23028 0.74917 0.0
C2281 C 0.72598 0.22771 0.7834 0.0
C2282 C 0.71432 0.24817 0.77033 0.0
C2283 C 0.71757 0.27132 0.74027 0.0
C2284 C 0.73226 0.27362 0.72336 0.0
C2285 C 0.72836 0.24991 0.75324 0.0
C2286 C 0.75742 0.25377 0.71934 0.0
C2287 C 0.76813 0.2322 0.7321 0.0
H2288 H 0.77287 0.76417 0.28249 0.0
H2289 H 0.70039 0.81004 0.25201 0.0
H2290 H 0.71066 0.77587 0.22616 0.0
H2291 H 0.73966 0.73202 0.21244 0.0
H2292 H 0.8106 0.68484 0.24343 0.0
H2293 H 0.80098 0.71968 0.26906 0.0
C2294 C 0.75912 0.7664 0.27024 0.0
C2295 C 0.7358 0.78944 0.26917 0.0
C2296 C 0.76472 0.74624 0.25561 0.0
C2297 C 0.7186 0.79259 0.2531 0.0
C2298 C 0.72434 0.77294 0.23837 0.0
C2299 C 0.753 0.72952 0.22481 0.0
C2300 C 0.77581 0.70602 0.2261 0.0
C2301 C 0.74726 0.7496 0.23949 0.0
C2302 C 0.79276 0.70266 0.24223 0.0
C2303 C 0.78739 0.72266 0.25682 0.0
H2304 H 0.43952 0.49121 0.9843 0.0
H2305 H 0.49854 0.56337 0.96243 0.0
H2306 H 0.53684 0.55439 0.98642 0.0
H2307 H 0.55362 0.52594 0.01377 0.0
H2308 H 0.4946 0.45382 0.03567 0.0
H2309 H 0.45608 0.46308 0.01182 0.0
C2310 C 0.46063 0.50513 0.98494 0.0
C2311 C 0.46622 0.52792 0.97165 0.0
C2312 C 0.48254 0.49985 0.99881 0.0
C2313 C 0.49386 0.54553 0.97245 0.0
C2314 C 0.51572 0.54046 0.98619 0.0
C2315 C 0.53239 0.51218 0.01321 0.0
C2316 C 0.52691 0.48925 0.02643 0.0
C2317 C 0.51038 0.51761 0.99942 0.0
C2318 C 0.49918 0.47178 0.02571 0.0
C2319 C 0.47721 0.47699 0.01205 0.0
H2320 H 0.05377 0.46406 0.49283 0.0
H2321 H 0.01732 0.53522 0.45748 0.0
H2322 H 0.98017 0.55148 0.48083 0.0
H2323 H 0.95795 0.54512 0.5113 0.0
H2324 H 0.99336 0.47293 0.54633 0.0
H2325 H 0.03155 0.45774 0.52334 0.0
C2326 C 0.03776 0.48323 0.49035 0.0
C2327 C 0.03809 0.49847 0.47356 0.0
C2328 C 0.01651 0.49232 0.50381 0.0
C2329 C 0.01719 0.52309 0.47033 0.0
C2330 C 0.99608 0.53241 0.48366 0.0
C2331 C 0.97403 0.52603 0.51382 0.0
C2332 C 0.97305 0.51022 0.53044 0.0
C2333 C 0.99548 0.51713 0.50043 0.0
C2334 C 0.99405 0.48567 0.53369 0.0
C2335 C 0.0157 0.47686 0.52052 0.0
H2336 H 0.01953 0.48658 0.03681 0.0
H2337 H 0.05375 0.56748 0.00843 0.0
H2338 H 0.01869 0.55636 0.98309 0.0
H2339 H 0.97873 0.52305 0.96883 0.0
H2340 H 0.94375 0.44275 0.99742 0.0
H2341 H 0.97809 0.45442 0.02304 0.0
C2342 C 0.01887 0.50199 0.02518 0.0
C2343 C 0.03897 0.52787 0.02445 0.0
C2344 C 0.99855 0.49551 0.01074 0.0
C2345 C 0.03846 0.54737 0.0092 0.0
C2346 C 0.01843 0.54105 0.99475 0.0
C2347 C 0.97879 0.50815 0.98068 0.0
C2348 C 0.95909 0.48198 0.98128 0.0
C2349 C 0.99852 0.51507 0.99532 0.0
C2350 C 0.95884 0.46302 0.99675 0.0
C2351 C 0.97848 0.46964 0.01134 0.0
H2352 H 0.55572 0.54294 0.49242 0.0
H2353 H 0.51888 0.47417 0.45566 0.0
H2354 H 0.48247 0.45596 0.47888 0.0
H2355 H 0.46116 0.45965 0.50966 0.0
H2356 H 0.49538 0.53066 0.54584 0.0
H2357 H 0.53326 0.54758 0.52307 0.0
C2358 C 0.53971 0.52394 0.48959 0.0
C2359 C 0.53979 0.50989 0.47244 0.0
C2360 C 0.51867 0.51384 0.50295 0.0
C2361 C 0.51891 0.48545 0.46877 0.0
C2362 C 0.49825 0.47497 0.48204 0.0
C2363 C 0.47694 0.47884 0.51251 0.0
C2364 C 0.47595 0.49352 0.52948 0.0
C2365 C 0.4979 0.48901 0.49917 0.0
C2366 C 0.49635 0.51843 0.53304 0.0
C2367 C 0.51776 0.52832 0.51997 0.0
loop_
_geom_bond_atom_site_label_1
_geom_bond_atom_site_label_2
_geom_bond_distance
_geom_bond_site_symmetry_2
_ccdc_geom_bond_type
Co0 O3 1.970 . S
Co0 N17 1.989 . S
Co0 O25 1.967 . S
Co0 O32 1.920 . S
Co1 O4 1.966 . S
Co1 N10 2.022 . S
Co1 N18 1.993 . S
Co1 O26 1.941 . S
C2 O3 1.258 . S
C2 O4 1.263 . S
O3 Co0 1.970 . S
O3 C2 1.258 . S
O4 Co1 1.966 . S
O4 C2 1.263 . S
C5 O6 1.235 . S
C5 O32 1.289 . S
O6 C5 1.235 . S
C7 C9 1.400 . S
C7 N10 1.351 . S
C7 C12 1.501 . S
C8 C9 1.387 . S
C8 N11 1.341 . S
C9 C7 1.400 . S
C9 C8 1.387 . S
N10 Co1 2.022 . S
N10 C7 1.351 . S
N10 N11 1.365 . S
N11 C8 1.341 . S
N11 N10 1.365 . S
N11 H31 0.862 . S
C12 C7 1.501 . S
C12 H13 0.961 . S
C12 H14 0.961 . S
C12 H15 0.960 . S
H13 C12 0.961 . S
H14 C12 0.961 . S
H15 C12 0.960 . S
C16 N17 1.342 . S
C16 C20 1.401 . S
C16 C21 1.499 . S
N17 Co0 1.989 . S
N17 C16 1.342 . S
N17 N18 1.388 . S
N18 Co1 1.993 . S
N18 N17 1.388 . S
N18 C19 1.346 . S
C19 N18 1.346 . S
C19 C20 1.396 . S
C19 C29 1.510 . S
C20 C16 1.401 . S
C20 C19 1.396 . S
C21 C16 1.499 . S
C21 H22 0.959 . S
C21 H23 0.960 . S
C21 H24 0.961 . S
H22 C21 0.959 . S
H23 C21 0.960 . S
H24 C21 0.961 . S
O25 Co0 1.967 . S
O25 C33 1.258 . S
O26 Co1 1.941 . S
O26 C33 1.266 . S
H27 C29 0.959 . S
H28 C29 0.961 . S
C29 C19 1.510 . S
C29 H27 0.959 . S
C29 H28 0.961 . S
C29 H30 0.960 . S
H30 C29 0.960 . S
H31 N11 0.862 . S
O32 Co0 1.920 . S
O32 C5 1.289 . S
C33 O25 1.258 . S
C33 O26 1.266 . S
Co34 O37 1.970 . S
Co34 N51 1.989 . S
Co34 O59 1.967 . S
Co34 O66 1.920 . S
Co35 O38 1.966 . S
Co35 N44 2.022 . S
Co35 N52 1.993 . S
Co35 O60 1.941 . S
C36 O37 1.258 . S
C36 O38 1.263 . S
O37 Co34 1.970 . S
O37 C36 1.258 . S
O38 Co35 1.966 . S
O38 C36 1.263 . S
C39 O40 1.235 . S
C39 O66 1.289 . S
O40 C39 1.235 . S
C41 C43 1.400 1_455 S
C41 N44 1.351 . S
C41 C46 1.501 . S
C42 C43 1.387 . S
C42 N45 1.341 1_655 S
C43 C41 1.400 1_655 S
C43 C42 1.387 . S
N44 Co35 2.022 . S
N44 C41 1.351 . S
N44 N45 1.365 . S
N45 C42 1.341 1_455 S
N45 N44 1.365 . S
N45 H65 0.862 1_565 S
C46 C41 1.501 . S
C46 H47 0.961 . S
C46 H48 0.961 . S
C46 H49 0.960 . S
H47 C46 0.961 . S
H48 C46 0.961 . S
H49 C46 0.960 . S
C50 N51 1.342 . S
C50 C54 1.401 . S
C50 C55 1.499 . S
N51 Co34 1.989 . S
N51 C50 1.342 . S
N51 N52 1.388 . S
N52 Co35 1.993 . S
N52 N51 1.388 . S
N52 C53 1.346 . S
C53 N52 1.346 . S
C53 C54 1.396 . S
C53 C63 1.510 . S
C54 C50 1.401 . S
C54 C53 1.396 . S
C55 C50 1.499 . S
C55 H56 0.959 . S
C55 H57 0.960 . S
C55 H58 0.961 1_565 S
H56 C55 0.959 . S
H57 C55 0.960 . S
H58 C55 0.961 1_545 S
O59 Co34 1.967 . S
O59 C67 1.258 1_565 S
O60 Co35 1.941 . S
O60 C67 1.266 1_565 S
H61 C63 0.959 . S
H62 C63 0.961 . S
C63 C53 1.510 . S
C63 H61 0.959 . S
C63 H62 0.961 . S
C63 H64 0.960 . S
H64 C63 0.960 . S
H65 N45 0.862 1_545 S
O66 Co34 1.920 . S
O66 C39 1.289 . S
C67 O59 1.258 1_545 S
C67 O60 1.266 1_545 S
Co68 O71 1.970 . S
Co68 N85 1.989 . S
Co68 O93 1.967 . S
Co68 O100 1.920 . S
Co69 O72 1.966 . S
Co69 N78 2.022 . S
Co69 N86 1.993 . S
Co69 O94 1.941 . S
C70 O71 1.258 . S
C70 O72 1.263 . S
O71 Co68 1.970 . S
O71 C70 1.258 . S
O72 Co69 1.966 . S
O72 C70 1.263 . S
C73 O74 1.235 . S
C73 O100 1.289 . S
O74 C73 1.235 . S
C75 C77 1.400 . S
C75 N78 1.351 . S
C75 C80 1.501 . S
C76 C77 1.387 . S
C76 N79 1.341 . S
C77 C75 1.400 . S
C77 C76 1.387 . S
N78 Co69 2.022 . S
N78 C75 1.351 . S
N78 N79 1.365 . S
N79 C76 1.341 . S
N79 N78 1.365 . S
N79 H99 0.862 . S
C80 C75 1.501 . S
C80 H81 0.961 . S
C80 H82 0.961 . S
C80 H83 0.960 . S
H81 C80 0.961 . S
H82 C80 0.961 . S
H83 C80 0.960 . S
C84 N85 1.342 . S
C84 C88 1.401 . S
C84 C89 1.499 . S
N85 Co68 1.989 . S
N85 C84 1.342 . S
N85 N86 1.388 . S
N86 Co69 1.993 . S
N86 N85 1.388 . S
N86 C87 1.346 . S
C87 N86 1.346 . S
C87 C88 1.396 . S
C87 C97 1.510 . S
C88 C84 1.401 . S
C88 C87 1.396 . S
C89 C84 1.499 . S
C89 H90 0.959 . S
C89 H91 0.960 . S
C89 H92 0.961 . S
H90 C89 0.959 . S
H91 C89 0.960 . S
H92 C89 0.961 . S
O93 Co68 1.967 . S
O93 C101 1.258 . S
O94 Co69 1.941 . S
O94 C101 1.266 . S
H95 C97 0.959 . S
H96 C97 0.961 . S
C97 C87 1.510 . S
C97 H95 0.959 . S
C97 H96 0.961 . S
C97 H98 0.960 . S
H98 C97 0.960 . S
H99 N79 0.862 . S
O100 Co68 1.920 . S
O100 C73 1.289 . S
C101 O93 1.258 . S
C101 O94 1.266 . S
Co102 O105 1.970 . S
Co102 N119 1.989 . S
Co102 O127 1.967 . S
Co102 O134 1.920 . S
Co103 O106 1.966 . S
Co103 N112 2.022 . S
Co103 N120 1.993 . S
Co103 O128 1.941 . S
C104 O105 1.258 . S
C104 O106 1.263 . S
O105 Co102 1.970 . S
O105 C104 1.258 . S
O106 Co103 1.966 . S
O106 C104 1.263 . S
C107 O108 1.235 . S
C107 O134 1.289 . S
O108 C107 1.235 . S
C109 C111 1.400 . S
C109 N112 1.351 . S
C109 C114 1.501 . S
C110 C111 1.387 . S
C110 N113 1.341 . S
C111 C109 1.400 . S
C111 C110 1.387 . S
N112 Co103 2.022 . S
N112 C109 1.351 . S
N112 N113 1.365 . S
N113 C110 1.341 . S
N113 N112 1.365 . S
N113 H133 0.862 1_545 S
C114 C109 1.501 . S
C114 H115 0.961 . S
C114 H116 0.961 . S
C114 H117 0.960 . S
H115 C114 0.961 . S
H116 C114 0.961 . S
H117 C114 0.960 . S
C118 N119 1.342 . S
C118 C122 1.401 . S
C118 C123 1.499 . S
N119 Co102 1.989 . S
N119 C118 1.342 . S
N119 N120 1.388 . S
N120 Co103 1.993 . S
N120 N119 1.388 . S
N120 C121 1.346 . S
C121 N120 1.346 . S
C121 C122 1.396 . S
C121 C131 1.510 . S
C122 C118 1.401 . S
C122 C121 1.396 . S
C123 C118 1.499 . S
C123 H124 0.959 . S
C123 H125 0.960 . S
C123 H126 0.961 1_545 S
H124 C123 0.959 . S
H125 C123 0.960 . S
H126 C123 0.961 1_565 S
O127 Co102 1.967 . S
O127 C135 1.258 1_545 S
O128 Co103 1.941 . S
O128 C135 1.266 1_545 S
H129 C131 0.959 . S
H130 C131 0.961 . S
C131 C121 1.510 . S
C131 H129 0.959 . S
C131 H130 0.961 . S
C131 H132 0.960 . S
H132 C131 0.960 . S
H133 N113 0.862 1_565 S
O134 Co102 1.920 . S
O134 C107 1.289 . S
C135 O127 1.258 1_565 S
C135 O128 1.266 1_565 S
Co136 O139 1.970 . S
Co136 N153 1.989 . S
Co136 O161 1.967 . S
Co136 O168 1.920 . S
Co137 O140 1.966 . S
Co137 N146 2.022 . S
Co137 N154 1.993 . S
Co137 O162 1.941 . S
C138 O139 1.258 . S
C138 O140 1.263 . S
O139 Co136 1.970 . S
O139 C138 1.258 . S
O140 Co137 1.966 . S
O140 C138 1.263 . S
C141 O142 1.235 . S
C141 O168 1.289 . S
O142 C141 1.235 . S
C143 C145 1.400 . S
C143 N146 1.351 . S
C143 C148 1.501 . S
C144 C145 1.387 . S
C144 N147 1.341 . S
C145 C143 1.400 . S
C145 C144 1.387 . S
N146 Co137 2.022 . S
N146 C143 1.351 . S
N146 N147 1.365 . S
N147 C144 1.341 . S
N147 N146 1.365 . S
N147 H167 0.862 . S
C148 C143 1.501 . S
C148 H149 0.961 . S
C148 H150 0.961 . S
C148 H151 0.960 . S
H149 C148 0.961 . S
H150 C148 0.961 . S
H151 C148 0.960 . S
C152 N153 1.342 . S
C152 C156 1.401 . S
C152 C157 1.499 . S
N153 Co136 1.989 . S
N153 C152 1.342 . S
N153 N154 1.388 . S
N154 Co137 1.993 . S
N154 N153 1.388 . S
N154 C155 1.346 . S
C155 N154 1.346 . S
C155 C156 1.396 . S
C155 C165 1.510 . S
C156 C152 1.401 . S
C156 C155 1.396 . S
C157 C152 1.499 . S
C157 H158 0.959 . S
C157 H159 0.960 . S
C157 H160 0.961 . S
H158 C157 0.959 . S
H159 C157 0.960 . S
H160 C157 0.961 . S
O161 Co136 1.967 . S
O161 C169 1.258 . S
O162 Co137 1.941 . S
O162 C169 1.266 . S
H163 C165 0.959 . S
H164 C165 0.961 . S
C165 C155 1.510 . S
C165 H163 0.959 . S
C165 H164 0.961 . S
C165 H166 0.960 . S
H166 C165 0.960 . S
H167 N147 0.862 . S
O168 Co136 1.920 . S
O168 C141 1.289 . S
C169 O161 1.258 . S
C169 O162 1.266 . S
Co170 O173 1.970 . S
Co170 N187 1.989 . S
Co170 O195 1.967 . S
Co170 O202 1.920 . S
Co171 O174 1.966 . S
Co171 N180 2.022 . S
Co171 N188 1.993 . S
Co171 O196 1.941 . S
C172 O173 1.258 . S
C172 O174 1.263 . S
O173 Co170 1.970 . S
O173 C172 1.258 . S
O174 Co171 1.966 . S
O174 C172 1.263 . S
C175 O176 1.235 . S
C175 O202 1.289 . S
O176 C175 1.235 . S
C177 C179 1.400 . S
C177 N180 1.351 . S
C177 C182 1.501 . S
C178 C179 1.387 . S
C178 N181 1.341 . S
C179 C177 1.400 . S
C179 C178 1.387 . S
N180 Co171 2.022 . S
N180 C177 1.351 . S
N180 N181 1.365 . S
N181 C178 1.341 . S
N181 N180 1.365 . S
N181 H201 0.862 1_565 S
C182 C177 1.501 . S
C182 H183 0.961 . S
C182 H184 0.961 . S
C182 H185 0.960 . S
H183 C182 0.961 . S
H184 C182 0.961 . S
H185 C182 0.960 . S
C186 N187 1.342 . S
C186 C190 1.401 . S
C186 C191 1.499 . S
N187 Co170 1.989 . S
N187 C186 1.342 . S
N187 N188 1.388 . S
N188 Co171 1.993 . S
N188 N187 1.388 . S
N188 C189 1.346 . S
C189 N188 1.346 . S
C189 C190 1.396 . S
C189 C199 1.510 . S
C190 C186 1.401 . S
C190 C189 1.396 . S
C191 C186 1.499 . S
C191 H192 0.959 . S
C191 H193 0.960 . S
C191 H194 0.961 1_565 S
H192 C191 0.959 . S
H193 C191 0.960 . S
H194 C191 0.961 1_545 S
O195 Co170 1.967 . S
O195 C203 1.258 1_565 S
O196 Co171 1.941 . S
O196 C203 1.266 1_565 S
H197 C199 0.959 . S
H198 C199 0.961 . S
C199 C189 1.510 . S
C199 H197 0.959 . S
C199 H198 0.961 . S
C199 H200 0.960 . S
H200 C199 0.960 . S
H201 N181 0.862 1_545 S
O202 Co170 1.920 . S
O202 C175 1.289 . S
C203 O195 1.258 1_545 S
C203 O196 1.266 1_545 S
Co204 O207 1.970 . S
Co204 N221 1.989 . S
Co204 O229 1.967 . S
Co204 O236 1.920 . S
Co205 O208 1.966 . S
Co205 N214 2.022 . S
Co205 N222 1.993 . S
Co205 O230 1.941 . S
C206 O207 1.258 . S
C206 O208 1.263 . S
O207 Co204 1.970 . S
O207 C206 1.258 . S
O208 Co205 1.966 . S
O208 C206 1.263 . S
C209 O210 1.235 . S
C209 O236 1.289 . S
O210 C209 1.235 . S
C211 C213 1.400 . S
C211 N214 1.351 . S
C211 C216 1.501 . S
C212 C213 1.387 . S
C212 N215 1.341 . S
C213 C211 1.400 . S
C213 C212 1.387 . S
N214 Co205 2.022 . S
N214 C211 1.351 . S
N214 N215 1.365 . S
N215 C212 1.341 . S
N215 N214 1.365 . S
N215 H235 0.862 . S
C216 C211 1.501 . S
C216 H217 0.961 . S
C216 H218 0.961 . S
C216 H219 0.960 . S
H217 C216 0.961 . S
H218 C216 0.961 . S
H219 C216 0.960 . S
C220 N221 1.342 . S
C220 C224 1.401 . S
C220 C225 1.499 . S
N221 Co204 1.989 . S
N221 C220 1.342 . S
N221 N222 1.388 . S
N222 Co205 1.993 . S
N222 N221 1.388 . S
N222 C223 1.346 . S
C223 N222 1.346 . S
C223 C224 1.396 . S
C223 C233 1.510 . S
C224 C220 1.401 . S
C224 C223 1.396 . S
C225 C220 1.499 . S
C225 H226 0.959 . S
C225 H227 0.960 . S
C225 H228 0.961 . S
H226 C225 0.959 . S
H227 C225 0.960 . S
H228 C225 0.961 . S
O229 Co204 1.967 . S
O229 C237 1.258 . S
O230 Co205 1.941 . S
O230 C237 1.266 . S
H231 C233 0.959 . S
H232 C233 0.961 . S
C233 C223 1.510 . S
C233 H231 0.959 . S
C233 H232 0.961 . S
C233 H234 0.960 . S
H234 C233 0.960 . S
H235 N215 0.862 . S
O236 Co204 1.920 . S
O236 C209 1.289 . S
C237 O229 1.258 . S
C237 O230 1.266 . S
Co238 O241 1.970 . S
Co238 N255 1.989 . S
Co238 O263 1.967 . S
Co238 O270 1.920 . S
Co239 O242 1.966 . S
Co239 N248 2.022 . S
Co239 N256 1.993 . S
Co239 O264 1.941 . S
C240 O241 1.258 . S
C240 O242 1.263 . S
O241 Co238 1.970 . S
O241 C240 1.258 . S
O242 Co239 1.966 . S
O242 C240 1.263 . S
C243 O244 1.235 . S
C243 O270 1.289 . S
O244 C243 1.235 . S
C245 C247 1.400 1_455 S
C245 N248 1.351 . S
C245 C250 1.501 . S
C246 C247 1.387 . S
C246 N249 1.341 1_655 S
C247 C245 1.400 1_655 S
C247 C246 1.387 . S
N248 Co239 2.022 . S
N248 C245 1.351 . S
N248 N249 1.365 . S
N249 C246 1.341 1_455 S
N249 N248 1.365 . S
N249 H269 0.862 1_545 S
C250 C245 1.501 . S
C250 H251 0.961 . S
C250 H252 0.961 . S
C250 H253 0.960 . S
H251 C250 0.961 . S
H252 C250 0.961 . S
H253 C250 0.960 . S
C254 N255 1.342 . S
C254 C258 1.401 . S
C254 C259 1.499 . S
N255 Co238 1.989 . S
N255 C254 1.342 . S
N255 N256 1.388 . S
N256 Co239 1.993 . S
N256 N255 1.388 . S
N256 C257 1.346 . S
C257 N256 1.346 . S
C257 C258 1.396 . S
C257 C267 1.510 . S
C258 C254 1.401 . S
C258 C257 1.396 . S
C259 C254 1.499 . S
C259 H260 0.959 . S
C259 H261 0.960 . S
C259 H262 0.961 1_545 S
H260 C259 0.959 . S
H261 C259 0.960 . S
H262 C259 0.961 1_565 S
O263 Co238 1.967 . S
O263 C271 1.258 1_545 S
O264 Co239 1.941 . S
O264 C271 1.266 1_545 S
H265 C267 0.959 . S
H266 C267 0.961 . S
C267 C257 1.510 . S
C267 H265 0.959 . S
C267 H266 0.961 . S
C267 H268 0.960 . S
H268 C267 0.960 . S
H269 N249 0.862 1_565 S
O270 Co238 1.920 . S
O270 C243 1.289 . S
C271 O263 1.258 1_565 S
C271 O264 1.266 1_565 S
Co272 O275 1.970 . S
Co272 N289 1.989 . S
Co272 O297 1.967 . S
Co272 O304 1.920 . S
Co273 O276 1.966 . S
Co273 N282 2.022 . S
Co273 N290 1.993 . S
Co273 O298 1.941 . S
C274 O275 1.258 . S
C274 O276 1.263 . S
O275 Co272 1.970 . S
O275 C274 1.258 . S
O276 Co273 1.966 . S
O276 C274 1.263 . S
C277 O278 1.235 . S
C277 O304 1.289 . S
O278 C277 1.235 . S
C279 C281 1.400 . S
C279 N282 1.351 . S
C279 C284 1.501 . S
C280 C281 1.387 . S
C280 N283 1.341 . S
C281 C279 1.400 . S
C281 C280 1.387 . S
N282 Co273 2.022 . S
N282 C279 1.351 . S
N282 N283 1.365 . S
N283 C280 1.341 . S
N283 N282 1.365 . S
N283 H303 0.862 . S
C284 C279 1.501 . S
C284 H285 0.961 . S
C284 H286 0.961 . S
C284 H287 0.960 . S
H285 C284 0.961 . S
H286 C284 0.961 . S
H287 C284 0.960 . S
C288 N289 1.342 . S
C288 C292 1.401 . S
C288 C293 1.499 . S
N289 Co272 1.989 . S
N289 C288 1.342 . S
N289 N290 1.388 . S
N290 Co273 1.993 . S
N290 N289 1.388 . S
N290 C291 1.346 . S
C291 N290 1.346 . S
C291 C292 1.396 . S
C291 C301 1.510 . S
C292 C288 1.401 . S
C292 C291 1.396 . S
C293 C288 1.499 . S
C293 H294 0.959 . S
C293 H295 0.960 . S
C293 H296 0.961 . S
H294 C293 0.959 . S
H295 C293 0.960 . S
H296 C293 0.961 . S
O297 Co272 1.967 . S
O297 C305 1.258 . S
O298 Co273 1.941 . S
O298 C305 1.266 . S
H299 C301 0.959 . S
H300 C301 0.961 . S
C301 C291 1.510 . S
C301 H299 0.959 . S
C301 H300 0.961 . S
C301 H302 0.960 . S
H302 C301 0.960 . S
H303 N283 0.862 . S
O304 Co272 1.920 . S
O304 C277 1.289 . S
C305 O297 1.258 . S
C305 O298 1.266 . S
Co306 O309 1.970 . S
Co306 N323 1.989 . S
Co306 O331 1.967 . S
Co306 O338 1.920 . S
Co307 O310 1.966 . S
Co307 N316 2.022 . S
Co307 N324 1.993 . S
Co307 O332 1.941 . S
C308 O309 1.258 . S
C308 O310 1.263 . S
O309 Co306 1.970 . S
O309 C308 1.258 . S
O310 Co307 1.966 . S
O310 C308 1.263 . S
C311 O312 1.235 . S
C311 O338 1.289 . S
O312 C311 1.235 . S
C313 C315 1.400 1_655 S
C313 N316 1.351 . S
C313 C318 1.501 . S
C314 C315 1.387 . S
C314 N317 1.341 1_455 S
C315 C313 1.400 1_455 S
C315 C314 1.387 . S
N316 Co307 2.022 . S
N316 C313 1.351 . S
N316 N317 1.365 . S
N317 C314 1.341 1_655 S
N317 N316 1.365 . S
N317 H337 0.862 1_545 S
C318 C313 1.501 . S
C318 H319 0.961 . S
C318 H320 0.961 . S
C318 H321 0.960 . S
H319 C318 0.961 . S
H320 C318 0.961 . S
H321 C318 0.960 . S
C322 N323 1.342 . S
C322 C326 1.401 . S
C322 C327 1.499 . S
N323 Co306 1.989 . S
N323 C322 1.342 . S
N323 N324 1.388 . S
N324 Co307 1.993 . S
N324 N323 1.388 . S
N324 C325 1.346 . S
C325 N324 1.346 . S
C325 C326 1.396 . S
C325 C335 1.510 . S
C326 C322 1.401 . S
C326 C325 1.396 . S
C327 C322 1.499 . S
C327 H328 0.959 . S
C327 H329 0.960 . S
C327 H330 0.961 1_545 S
H328 C327 0.959 . S
H329 C327 0.960 . S
H330 C327 0.961 1_565 S
O331 Co306 1.967 . S
O331 C339 1.258 1_545 S
O332 Co307 1.941 . S
O332 C339 1.266 1_545 S
H333 C335 0.959 . S
H334 C335 0.961 . S
C335 C325 1.510 . S
C335 H333 0.959 . S
C335 H334 0.961 . S
C335 H336 0.960 . S
H336 C335 0.960 . S
H337 N317 0.862 1_565 S
O338 Co306 1.920 . S
O338 C311 1.289 . S
C339 O331 1.258 1_565 S
C339 O332 1.266 1_565 S
Co340 O343 1.970 . S
Co340 N357 1.989 . S
Co340 O365 1.967 . S
Co340 O372 1.920 . S
Co341 O344 1.966 . S
Co341 N350 2.022 . S
Co341 N358 1.993 . S
Co341 O366 1.941 . S
C342 O343 1.258 . S
C342 O344 1.263 . S
O343 Co340 1.970 . S
O343 C342 1.258 . S
O344 Co341 1.966 . S
O344 C342 1.263 . S
C345 O346 1.235 . S
C345 O372 1.289 . S
O346 C345 1.235 . S
C347 C349 1.400 . S
C347 N350 1.351 . S
C347 C352 1.501 . S
C348 C349 1.387 . S
C348 N351 1.341 . S
C349 C347 1.400 . S
C349 C348 1.387 . S
N350 Co341 2.022 . S
N350 C347 1.351 . S
N350 N351 1.365 . S
N351 C348 1.341 . S
N351 N350 1.365 . S
N351 H371 0.862 . S
C352 C347 1.501 . S
C352 H353 0.961 . S
C352 H354 0.961 . S
C352 H355 0.960 . S
H353 C352 0.961 . S
H354 C352 0.961 . S
H355 C352 0.960 . S
C356 N357 1.342 . S
C356 C360 1.401 . S
C356 C361 1.499 . S
N357 Co340 1.989 . S
N357 C356 1.342 . S
N357 N358 1.388 . S
N358 Co341 1.993 . S
N358 N357 1.388 . S
N358 C359 1.346 . S
C359 N358 1.346 . S
C359 C360 1.396 . S
C359 C369 1.510 . S
C360 C356 1.401 . S
C360 C359 1.396 . S
C361 C356 1.499 . S
C361 H362 0.959 . S
C361 H363 0.960 . S
C361 H364 0.961 . S
H362 C361 0.959 . S
H363 C361 0.960 . S
H364 C361 0.961 . S
O365 Co340 1.967 . S
O365 C373 1.258 . S
O366 Co341 1.941 . S
O366 C373 1.266 . S
H367 C369 0.959 . S
H368 C369 0.961 . S
C369 C359 1.510 . S
C369 H367 0.959 . S
C369 H368 0.961 . S
C369 H370 0.960 . S
H370 C369 0.960 . S
H371 N351 0.862 . S
O372 Co340 1.920 . S
O372 C345 1.289 . S
C373 O365 1.258 . S
C373 O366 1.266 . S
Co374 O377 1.970 . S
Co374 N391 1.989 . S
Co374 O399 1.967 . S
Co374 O406 1.920 . S
Co375 O378 1.966 . S
Co375 N384 2.022 . S
Co375 N392 1.993 . S
Co375 O400 1.941 . S
C376 O377 1.258 . S
C376 O378 1.263 . S
O377 Co374 1.970 . S
O377 C376 1.258 . S
O378 Co375 1.966 . S
O378 C376 1.263 . S
C379 O380 1.235 . S
C379 O406 1.289 . S
O380 C379 1.235 . S
C381 C383 1.400 . S
C381 N384 1.351 . S
C381 C386 1.501 . S
C382 C383 1.387 . S
C382 N385 1.341 . S
C383 C381 1.400 . S
C383 C382 1.387 . S
N384 Co375 2.022 . S
N384 C381 1.351 . S
N384 N385 1.365 . S
N385 C382 1.341 . S
N385 N384 1.365 . S
N385 H405 0.862 1_565 S
C386 C381 1.501 . S
C386 H387 0.961 . S
C386 H388 0.961 . S
C386 H389 0.960 . S
H387 C386 0.961 . S
H388 C386 0.961 . S
H389 C386 0.960 . S
C390 N391 1.342 . S
C390 C394 1.401 . S
C390 C395 1.499 . S
N391 Co374 1.989 . S
N391 C390 1.342 . S
N391 N392 1.388 . S
N392 Co375 1.993 . S
N392 N391 1.388 . S
N392 C393 1.346 . S
C393 N392 1.346 . S
C393 C394 1.396 . S
C393 C403 1.510 . S
C394 C390 1.401 . S
C394 C393 1.396 . S
C395 C390 1.499 . S
C395 H396 0.959 . S
C395 H397 0.960 . S
C395 H398 0.961 1_565 S
H396 C395 0.959 . S
H397 C395 0.960 . S
H398 C395 0.961 1_545 S
O399 Co374 1.967 . S
O399 C407 1.258 1_565 S
O400 Co375 1.941 . S
O400 C407 1.266 1_565 S
H401 C403 0.959 . S
H402 C403 0.961 . S
C403 C393 1.510 . S
C403 H401 0.959 . S
C403 H402 0.961 . S
C403 H404 0.960 . S
H404 C403 0.960 . S
H405 N385 0.862 1_545 S
O406 Co374 1.920 . S
O406 C379 1.289 . S
C407 O399 1.258 1_545 S
C407 O400 1.266 1_545 S
Co408 O411 1.970 . S
Co408 N425 1.989 . S
Co408 O433 1.967 . S
Co408 O440 1.920 . S
Co409 O412 1.966 . S
Co409 N418 2.022 . S
Co409 N426 1.993 . S
Co409 O434 1.941 . S
C410 O411 1.258 . S
C410 O412 1.263 . S
O411 Co408 1.970 . S
O411 C410 1.258 . S
O412 Co409 1.966 . S
O412 C410 1.263 . S
C413 O414 1.235 . S
C413 O440 1.289 . S
O414 C413 1.235 . S
C415 C417 1.400 . S
C415 N418 1.351 . S
C415 C420 1.501 . S
C416 C417 1.387 . S
C416 N419 1.341 . S
C417 C415 1.400 . S
C417 C416 1.387 . S
N418 Co409 2.022 . S
N418 C415 1.351 . S
N418 N419 1.365 . S
N419 C416 1.341 . S
N419 N418 1.365 . S
N419 H439 0.862 . S
C420 C415 1.501 . S
C420 H421 0.961 . S
C420 H422 0.961 . S
C420 H423 0.960 . S
H421 C420 0.961 . S
H422 C420 0.961 . S
H423 C420 0.960 . S
C424 N425 1.342 . S
C424 C428 1.401 . S
C424 C429 1.499 . S
N425 Co408 1.989 . S
N425 C424 1.342 . S
N425 N426 1.388 . S
N426 Co409 1.993 . S
N426 N425 1.388 . S
N426 C427 1.346 . S
C427 N426 1.346 . S
C427 C428 1.396 . S
C427 C437 1.510 . S
C428 C424 1.401 . S
C428 C427 1.396 . S
C429 C424 1.499 . S
C429 H430 0.959 . S
C429 H431 0.960 . S
C429 H432 0.961 . S
H430 C429 0.959 . S
H431 C429 0.960 . S
H432 C429 0.961 . S
O433 Co408 1.967 . S
O433 C441 1.258 . S
O434 Co409 1.941 . S
O434 C441 1.266 . S
H435 C437 0.959 . S
H436 C437 0.961 . S
C437 C427 1.510 . S
C437 H435 0.959 . S
C437 H436 0.961 . S
C437 H438 0.960 . S
H438 C437 0.960 . S
H439 N419 0.862 . S
O440 Co408 1.920 . S
O440 C413 1.289 . S
C441 O433 1.258 . S
C441 O434 1.266 . S
Co442 O445 1.970 . S
Co442 N459 1.989 . S
Co442 O467 1.967 . S
Co442 O474 1.920 . S
Co443 O446 1.966 . S
Co443 N452 2.022 . S
Co443 N460 1.993 . S
Co443 O468 1.941 . S
C444 O445 1.258 . S
C444 O446 1.263 . S
O445 Co442 1.970 . S
O445 C444 1.258 . S
O446 Co443 1.966 . S
O446 C444 1.263 . S
C447 O448 1.235 . S
C447 O474 1.289 . S
O448 C447 1.235 . S
C449 C451 1.400 . S
C449 N452 1.351 . S
C449 C454 1.501 . S
C450 C451 1.387 . S
C450 N453 1.341 . S
C451 C449 1.400 . S
C451 C450 1.387 . S
N452 Co443 2.022 . S
N452 C449 1.351 . S
N452 N453 1.365 . S
N453 C450 1.341 . S
N453 N452 1.365 . S
N453 H473 0.862 1_545 S
C454 C449 1.501 . S
C454 H455 0.961 . S
C454 H456 0.961 . S
C454 H457 0.960 . S
H455 C454 0.961 . S
H456 C454 0.961 . S
H457 C454 0.960 . S
C458 N459 1.342 . S
C458 C462 1.401 . S
C458 C463 1.499 . S
N459 Co442 1.989 . S
N459 C458 1.342 . S
N459 N460 1.388 . S
N460 Co443 1.993 . S
N460 N459 1.388 . S
N460 C461 1.346 . S
C461 N460 1.346 . S
C461 C462 1.396 . S
C461 C471 1.510 . S
C462 C458 1.401 . S
C462 C461 1.396 . S
C463 C458 1.499 . S
C463 H464 0.959 . S
C463 H465 0.960 . S
C463 H466 0.961 1_545 S
H464 C463 0.959 . S
H465 C463 0.960 . S
H466 C463 0.961 1_565 S
O467 Co442 1.967 . S
O467 C475 1.258 1_545 S
O468 Co443 1.941 . S
O468 C475 1.266 1_545 S
H469 C471 0.959 . S
H470 C471 0.961 . S
C471 C461 1.510 . S
C471 H469 0.959 . S
C471 H470 0.961 . S
C471 H472 0.960 . S
H472 C471 0.960 . S
H473 N453 0.862 1_565 S
O474 Co442 1.920 . S
O474 C447 1.289 . S
C475 O467 1.258 1_565 S
C475 O468 1.266 1_565 S
Co476 O479 1.970 . S
Co476 N493 1.989 . S
Co476 O501 1.967 . S
Co476 O508 1.920 . S
Co477 O480 1.966 . S
Co477 N486 2.022 . S
Co477 N494 1.993 . S
Co477 O502 1.941 . S
C478 O479 1.258 . S
C478 O480 1.263 . S
O479 Co476 1.970 . S
O479 C478 1.258 . S
O480 Co477 1.966 . S
O480 C478 1.263 . S
C481 O482 1.235 . S
C481 O508 1.289 . S
O482 C481 1.235 . S
C483 C485 1.400 . S
C483 N486 1.351 . S
C483 C488 1.501 . S
C484 C485 1.387 . S
C484 N487 1.341 . S
C485 C483 1.400 . S
C485 C484 1.387 . S
N486 Co477 2.022 . S
N486 C483 1.351 . S
N486 N487 1.365 . S
N487 C484 1.341 . S
N487 N486 1.365 . S
N487 H507 0.862 . S
C488 C483 1.501 . S
C488 H489 0.961 . S
C488 H490 0.961 . S
C488 H491 0.960 . S
H489 C488 0.961 . S
H490 C488 0.961 . S
H491 C488 0.960 . S
C492 N493 1.342 . S
C492 C496 1.401 . S
C492 C497 1.499 . S
N493 Co476 1.989 . S
N493 C492 1.342 . S
N493 N494 1.388 . S
N494 Co477 1.993 . S
N494 N493 1.388 . S
N494 C495 1.346 . S
C495 N494 1.346 . S
C495 C496 1.396 . S
C495 C505 1.510 . S
C496 C492 1.401 . S
C496 C495 1.396 . S
C497 C492 1.499 . S
C497 H498 0.959 . S
C497 H499 0.960 . S
C497 H500 0.961 . S
H498 C497 0.959 . S
H499 C497 0.960 . S
H500 C497 0.961 . S
O501 Co476 1.967 . S
O501 C509 1.258 . S
O502 Co477 1.941 . S
O502 C509 1.266 . S
H503 C505 0.959 . S
H504 C505 0.961 . S
C505 C495 1.510 . S
C505 H503 0.959 . S
C505 H504 0.961 . S
C505 H506 0.960 . S
H506 C505 0.960 . S
H507 N487 0.862 . S
O508 Co476 1.920 . S
O508 C481 1.289 . S
C509 O501 1.258 . S
C509 O502 1.266 . S
Co510 O513 1.970 . S
Co510 N527 1.989 . S
Co510 O535 1.967 . S
Co510 O542 1.920 . S
Co511 O514 1.966 . S
Co511 N520 2.022 . S
Co511 N528 1.993 . S
Co511 O536 1.941 . S
C512 O513 1.258 . S
C512 O514 1.263 . S
O513 Co510 1.970 . S
O513 C512 1.258 . S
O514 Co511 1.966 . S
O514 C512 1.263 . S
C515 O516 1.235 . S
C515 O542 1.289 . S
O516 C515 1.235 . S
C517 C519 1.400 1_655 S
C517 N520 1.351 . S
C517 C522 1.501 . S
C518 C519 1.387 . S
C518 N521 1.341 1_455 S
C519 C517 1.400 1_455 S
C519 C518 1.387 . S
N520 Co511 2.022 . S
N520 C517 1.351 . S
N520 N521 1.365 . S
N521 C518 1.341 1_655 S
N521 N520 1.365 . S
N521 H541 0.862 1_565 S
C522 C517 1.501 . S
C522 H523 0.961 . S
C522 H524 0.961 . S
C522 H525 0.960 . S
H523 C522 0.961 . S
H524 C522 0.961 . S
H525 C522 0.960 . S
C526 N527 1.342 . S
C526 C530 1.401 . S
C526 C531 1.499 . S
N527 Co510 1.989 . S
N527 C526 1.342 . S
N527 N528 1.388 . S
N528 Co511 1.993 . S
N528 N527 1.388 . S
N528 C529 1.346 . S
C529 N528 1.346 . S
C529 C530 1.396 . S
C529 C539 1.510 . S
C530 C526 1.401 . S
C530 C529 1.396 . S
C531 C526 1.499 . S
C531 H532 0.959 . S
C531 H533 0.960 . S
C531 H534 0.961 1_565 S
H532 C531 0.959 . S
H533 C531 0.960 . S
H534 C531 0.961 1_545 S
O535 Co510 1.967 . S
O535 C543 1.258 1_565 S
O536 Co511 1.941 . S
O536 C543 1.266 1_565 S
H537 C539 0.959 . S
H538 C539 0.961 . S
C539 C529 1.510 . S
C539 H537 0.959 . S
C539 H538 0.961 . S
C539 H540 0.960 . S
H540 C539 0.960 . S
H541 N521 0.862 1_545 S
O542 Co510 1.920 . S
O542 C515 1.289 . S
C543 O535 1.258 1_545 S
C543 O536 1.266 1_545 S
Co544 O547 1.970 . S
Co544 N561 1.989 . S
Co544 O569 1.967 . S
Co544 O576 1.920 . S
Co545 O548 1.966 . S
Co545 N554 2.022 . S
Co545 N562 1.993 . S
Co545 O570 1.941 . S
C546 O547 1.258 . S
C546 O548 1.263 . S
O547 Co544 1.970 . S
O547 C546 1.258 . S
O548 Co545 1.966 . S
O548 C546 1.263 . S
C549 O550 1.235 . S
C549 O576 1.289 . S
O550 C549 1.235 . S
C551 C553 1.400 . S
C551 N554 1.351 . S
C551 C556 1.501 . S
C552 C553 1.387 . S
C552 N555 1.341 . S
C553 C551 1.400 . S
C553 C552 1.387 . S
N554 Co545 2.022 . S
N554 C551 1.351 . S
N554 N555 1.365 . S
N555 C552 1.341 . S
N555 N554 1.365 . S
N555 H575 0.862 . S
C556 C551 1.501 . S
C556 H557 0.961 . S
C556 H558 0.961 . S
C556 H559 0.960 . S
H557 C556 0.961 . S
H558 C556 0.961 . S
H559 C556 0.960 . S
C560 N561 1.342 . S
C560 C564 1.401 . S
C560 C565 1.499 . S
N561 Co544 1.989 . S
N561 C560 1.342 . S
N561 N562 1.388 . S
N562 Co545 1.993 . S
N562 N561 1.388 . S
N562 C563 1.346 . S
C563 N562 1.346 . S
C563 C564 1.396 . S
C563 C573 1.510 . S
C564 C560 1.401 . S
C564 C563 1.396 . S
C565 C560 1.499 . S
C565 H566 0.959 . S
C565 H567 0.960 . S
C565 H568 0.961 . S
H566 C565 0.959 . S
H567 C565 0.960 . S
H568 C565 0.961 . S
O569 Co544 1.967 . S
O569 C577 1.258 . S
O570 Co545 1.941 . S
O570 C577 1.266 . S
H571 C573 0.959 . S
H572 C573 0.961 . S
C573 C563 1.510 . S
C573 H571 0.959 . S
C573 H572 0.961 . S
C573 H574 0.960 . S
H574 C573 0.960 . S
H575 N555 0.862 . S
O576 Co544 1.920 . S
O576 C549 1.289 . S
C577 O569 1.258 . S
C577 O570 1.266 . S
Co578 O581 1.970 . S
Co578 N595 1.989 . S
Co578 O603 1.967 . S
Co578 O610 1.920 . S
Co579 O582 1.966 . S
Co579 N588 2.022 . S
Co579 N596 1.993 . S
Co579 O604 1.941 . S
C580 O581 1.258 . S
C580 O582 1.263 . S
O581 Co578 1.970 . S
O581 C580 1.258 . S
O582 Co579 1.966 . S
O582 C580 1.263 . S
C583 O584 1.235 . S
C583 O610 1.289 . S
O584 C583 1.235 . S
C585 C587 1.400 . S
C585 N588 1.351 . S
C585 C590 1.501 . S
C586 C587 1.387 . S
C586 N589 1.341 . S
C587 C585 1.400 . S
C587 C586 1.387 . S
N588 Co579 2.022 . S
N588 C585 1.351 . S
N588 N589 1.365 . S
N589 C586 1.341 . S
N589 N588 1.365 . S
N589 H609 0.862 . S
C590 C585 1.501 . S
C590 H591 0.961 . S
C590 H592 0.961 . S
C590 H593 0.960 . S
H591 C590 0.961 . S
H592 C590 0.961 . S
H593 C590 0.960 . S
C594 N595 1.342 . S
C594 C598 1.401 . S
C594 C599 1.499 . S
N595 Co578 1.989 . S
N595 C594 1.342 . S
N595 N596 1.388 . S
N596 Co579 1.993 . S
N596 N595 1.388 . S
N596 C597 1.346 . S
C597 N596 1.346 . S
C597 C598 1.396 . S
C597 C607 1.510 . S
C598 C594 1.401 . S
C598 C597 1.396 . S
C599 C594 1.499 . S
C599 H600 0.959 . S
C599 H601 0.960 . S
C599 H602 0.961 . S
H600 C599 0.959 . S
H601 C599 0.960 . S
H602 C599 0.961 . S
O603 Co578 1.967 . S
O603 C611 1.258 . S
O604 Co579 1.941 . S
O604 C611 1.266 . S
H605 C607 0.959 . S
H606 C607 0.961 . S
C607 C597 1.510 . S
C607 H605 0.959 . S
C607 H606 0.961 . S
C607 H608 0.960 . S
H608 C607 0.960 . S
H609 N589 0.862 . S
O610 Co578 1.920 . S
O610 C583 1.289 . S
C611 O603 1.258 . S
C611 O604 1.266 . S
Co612 O615 1.970 . S
Co612 N629 1.989 . S
Co612 O637 1.967 . S
Co612 O644 1.920 . S
Co613 O616 1.966 . S
Co613 N622 2.022 . S
Co613 N630 1.993 . S
Co613 O638 1.941 . S
C614 O615 1.258 . S
C614 O616 1.263 . S
O615 Co612 1.970 . S
O615 C614 1.258 . S
O616 Co613 1.966 . S
O616 C614 1.263 . S
C617 O618 1.235 . S
C617 O644 1.289 . S
O618 C617 1.235 . S
C619 C621 1.400 . S
C619 N622 1.351 . S
C619 C624 1.501 . S
C620 C621 1.387 . S
C620 N623 1.341 . S
C621 C619 1.400 . S
C621 C620 1.387 . S
N622 Co613 2.022 . S
N622 C619 1.351 . S
N622 N623 1.365 . S
N623 C620 1.341 . S
N623 N622 1.365 . S
N623 H643 0.862 . S
C624 C619 1.501 . S
C624 H625 0.961 . S
C624 H626 0.961 . S
C624 H627 0.960 . S
H625 C624 0.961 . S
H626 C624 0.961 . S
H627 C624 0.960 . S
C628 N629 1.342 . S
C628 C632 1.401 . S
C628 C633 1.499 . S
N629 Co612 1.989 . S
N629 C628 1.342 . S
N629 N630 1.388 . S
N630 Co613 1.993 . S
N630 N629 1.388 . S
N630 C631 1.346 . S
C631 N630 1.346 . S
C631 C632 1.396 . S
C631 C641 1.510 . S
C632 C628 1.401 . S
C632 C631 1.396 . S
C633 C628 1.499 . S
C633 H634 0.959 . S
C633 H635 0.960 . S
C633 H636 0.961 . S
H634 C633 0.959 . S
H635 C633 0.960 . S
H636 C633 0.961 . S
O637 Co612 1.967 . S
O637 C645 1.258 . S
O638 Co613 1.941 . S
O638 C645 1.266 . S
H639 C641 0.959 . S
H640 C641 0.961 . S
C641 C631 1.510 . S
C641 H639 0.959 . S
C641 H640 0.961 . S
C641 H642 0.960 . S
H642 C641 0.960 . S
H643 N623 0.862 . S
O644 Co612 1.920 . S
O644 C617 1.289 . S
C645 O637 1.258 . S
C645 O638 1.266 . S
Co646 O649 1.970 . S
Co646 N663 1.989 . S
Co646 O671 1.967 . S
Co646 O678 1.920 . S
Co647 O650 1.966 . S
Co647 N656 2.022 . S
Co647 N664 1.993 . S
Co647 O672 1.941 . S
C648 O649 1.258 . S
C648 O650 1.263 . S
O649 Co646 1.970 . S
O649 C648 1.258 . S
O650 Co647 1.966 . S
O650 C648 1.263 . S
C651 O652 1.235 . S
C651 O678 1.289 . S
O652 C651 1.235 . S
C653 C655 1.400 1_655 S
C653 N656 1.351 . S
C653 C658 1.501 . S
C654 C655 1.387 . S
C654 N657 1.341 1_455 S
C655 C653 1.400 1_455 S
C655 C654 1.387 . S
N656 Co647 2.022 . S
N656 C653 1.351 . S
N656 N657 1.365 . S
N657 C654 1.341 1_655 S
N657 N656 1.365 . S
N657 H677 0.862 . S
C658 C653 1.501 . S
C658 H659 0.961 . S
C658 H660 0.961 . S
C658 H661 0.960 . S
H659 C658 0.961 . S
H660 C658 0.961 . S
H661 C658 0.960 . S
C662 N663 1.342 . S
C662 C666 1.401 . S
C662 C667 1.499 . S
N663 Co646 1.989 . S
N663 C662 1.342 . S
N663 N664 1.388 . S
N664 Co647 1.993 . S
N664 N663 1.388 . S
N664 C665 1.346 . S
C665 N664 1.346 . S
C665 C666 1.396 . S
C665 C675 1.510 . S
C666 C662 1.401 . S
C666 C665 1.396 . S
C667 C662 1.499 . S
C667 H668 0.959 . S
C667 H669 0.960 . S
C667 H670 0.961 . S
H668 C667 0.959 . S
H669 C667 0.960 . S
H670 C667 0.961 . S
O671 Co646 1.967 . S
O671 C679 1.258 . S
O672 Co647 1.941 . S
O672 C679 1.266 . S
H673 C675 0.959 . S
H674 C675 0.961 . S
C675 C665 1.510 . S
C675 H673 0.959 . S
C675 H674 0.961 . S
C675 H676 0.960 . S
H676 C675 0.960 . S
H677 N657 0.862 . S
O678 Co646 1.920 . S
O678 C651 1.289 . S
C679 O671 1.258 . S
C679 O672 1.266 . S
Co680 O683 1.970 . S
Co680 N697 1.989 . S
Co680 O705 1.967 . S
Co680 O712 1.920 . S
Co681 O684 1.966 . S
Co681 N690 2.022 . S
Co681 N698 1.993 . S
Co681 O706 1.941 . S
C682 O683 1.258 . S
C682 O684 1.263 . S
O683 Co680 1.970 . S
O683 C682 1.258 . S
O684 Co681 1.966 . S
O684 C682 1.263 . S
C685 O686 1.235 . S
C685 O712 1.289 . S
O686 C685 1.235 . S
C687 C689 1.400 . S
C687 N690 1.351 . S
C687 C692 1.501 . S
C688 C689 1.387 . S
C688 N691 1.341 . S
C689 C687 1.400 . S
C689 C688 1.387 . S
N690 Co681 2.022 . S
N690 C687 1.351 . S
N690 N691 1.365 . S
N691 C688 1.341 . S
N691 N690 1.365 . S
N691 H711 0.862 . S
C692 C687 1.501 . S
C692 H693 0.961 . S
C692 H694 0.961 . S
C692 H695 0.960 . S
H693 C692 0.961 . S
H694 C692 0.961 . S
H695 C692 0.960 . S
C696 N697 1.342 . S
C696 C700 1.401 . S
C696 C701 1.499 . S
N697 Co680 1.989 . S
N697 C696 1.342 . S
N697 N698 1.388 . S
N698 Co681 1.993 . S
N698 N697 1.388 . S
N698 C699 1.346 . S
C699 N698 1.346 . S
C699 C700 1.396 . S
C699 C709 1.510 . S
C700 C696 1.401 . S
C700 C699 1.396 . S
C701 C696 1.499 . S
C701 H702 0.959 . S
C701 H703 0.960 . S
C701 H704 0.961 . S
H702 C701 0.959 . S
H703 C701 0.960 . S
H704 C701 0.961 . S
O705 Co680 1.967 . S
O705 C713 1.258 . S
O706 Co681 1.941 . S
O706 C713 1.266 . S
H707 C709 0.959 . S
H708 C709 0.961 . S
C709 C699 1.510 . S
C709 H707 0.959 . S
C709 H708 0.961 . S
C709 H710 0.960 . S
H710 C709 0.960 . S
H711 N691 0.862 . S
O712 Co680 1.920 . S
O712 C685 1.289 . S
C713 O705 1.258 . S
C713 O706 1.266 . S
Co714 O717 1.970 . S
Co714 N731 1.989 . S
Co714 O739 1.967 . S
Co714 O746 1.920 . S
Co715 O718 1.966 . S
Co715 N724 2.022 . S
Co715 N732 1.993 . S
Co715 O740 1.941 . S
C716 O717 1.258 . S
C716 O718 1.263 . S
O717 Co714 1.970 . S
O717 C716 1.258 . S
O718 Co715 1.966 . S
O718 C716 1.263 . S
C719 O720 1.235 . S
C719 O746 1.289 . S
O720 C719 1.235 . S
C721 C723 1.400 1_655 S
C721 N724 1.351 . S
C721 C726 1.501 . S
C722 C723 1.387 . S
C722 N725 1.341 1_455 S
C723 C721 1.400 1_455 S
C723 C722 1.387 . S
N724 Co715 2.022 . S
N724 C721 1.351 . S
N724 N725 1.365 . S
N725 C722 1.341 1_655 S
N725 N724 1.365 . S
N725 H745 0.862 . S
C726 C721 1.501 . S
C726 H727 0.961 . S
C726 H728 0.961 . S
C726 H729 0.960 . S
H727 C726 0.961 . S
H728 C726 0.961 . S
H729 C726 0.960 . S
C730 N731 1.342 . S
C730 C734 1.401 . S
C730 C735 1.499 . S
N731 Co714 1.989 . S
N731 C730 1.342 . S
N731 N732 1.388 . S
N732 Co715 1.993 . S
N732 N731 1.388 . S
N732 C733 1.346 . S
C733 N732 1.346 . S
C733 C734 1.396 . S
C733 C743 1.510 . S
C734 C730 1.401 . S
C734 C733 1.396 . S
C735 C730 1.499 . S
C735 H736 0.959 . S
C735 H737 0.960 . S
C735 H738 0.961 . S
H736 C735 0.959 . S
H737 C735 0.960 . S
H738 C735 0.961 . S
O739 Co714 1.967 . S
O739 C747 1.258 . S
O740 Co715 1.941 . S
O740 C747 1.266 . S
H741 C743 0.959 . S
H742 C743 0.961 . S
C743 C733 1.510 . S
C743 H741 0.959 . S
C743 H742 0.961 . S
C743 H744 0.960 . S
H744 C743 0.960 . S
H745 N725 0.862 . S
O746 Co714 1.920 . S
O746 C719 1.289 . S
C747 O739 1.258 . S
C747 O740 1.266 . S
Co748 O751 1.970 . S
Co748 N765 1.989 . S
Co748 O773 1.967 . S
Co748 O780 1.920 . S
Co749 O752 1.966 . S
Co749 N758 2.022 . S
Co749 N766 1.993 . S
Co749 O774 1.941 . S
C750 O751 1.258 . S
C750 O752 1.263 . S
O751 Co748 1.970 . S
O751 C750 1.258 . S
O752 Co749 1.966 . S
O752 C750 1.263 . S
C753 O754 1.235 . S
C753 O780 1.289 . S
O754 C753 1.235 . S
C755 C757 1.400 . S
C755 N758 1.351 . S
C755 C760 1.501 . S
C756 C757 1.387 . S
C756 N759 1.341 . S
C757 C755 1.400 . S
C757 C756 1.387 . S
N758 Co749 2.022 . S
N758 C755 1.351 . S
N758 N759 1.365 . S
N759 C756 1.341 . S
N759 N758 1.365 . S
N759 H779 0.862 . S
C760 C755 1.501 . S
C760 H761 0.961 . S
C760 H762 0.961 . S
C760 H763 0.960 . S
H761 C760 0.961 . S
H762 C760 0.961 . S
H763 C760 0.960 . S
C764 N765 1.342 . S
C764 C768 1.401 . S
C764 C769 1.499 . S
N765 Co748 1.989 . S
N765 C764 1.342 . S
N765 N766 1.388 . S
N766 Co749 1.993 . S
N766 N765 1.388 . S
N766 C767 1.346 . S
C767 N766 1.346 . S
C767 C768 1.396 . S
C767 C777 1.510 . S
C768 C764 1.401 . S
C768 C767 1.396 . S
C769 C764 1.499 . S
C769 H770 0.959 . S
C769 H771 0.960 . S
C769 H772 0.961 . S
H770 C769 0.959 . S
H771 C769 0.960 . S
H772 C769 0.961 . S
O773 Co748 1.967 . S
O773 C781 1.258 . S
O774 Co749 1.941 . S
O774 C781 1.266 . S
H775 C777 0.959 . S
H776 C777 0.961 . S
C777 C767 1.510 . S
C777 H775 0.959 . S
C777 H776 0.961 . S
C777 H778 0.960 . S
H778 C777 0.960 . S
H779 N759 0.862 . S
O780 Co748 1.920 . S
O780 C753 1.289 . S
C781 O773 1.258 . S
C781 O774 1.266 . S
Co782 O785 1.970 . S
Co782 N799 1.989 . S
Co782 O807 1.967 . S
Co782 O814 1.920 . S
Co783 O786 1.966 . S
Co783 N792 2.022 . S
Co783 N800 1.993 . S
Co783 O808 1.941 . S
C784 O785 1.258 . S
C784 O786 1.263 . S
O785 Co782 1.970 . S
O785 C784 1.258 . S
O786 Co783 1.966 . S
O786 C784 1.263 . S
C787 O788 1.235 . S
C787 O814 1.289 . S
O788 C787 1.235 . S
C789 C791 1.400 . S
C789 N792 1.351 . S
C789 C794 1.501 . S
C790 C791 1.387 . S
C790 N793 1.341 . S
C791 C789 1.400 . S
C791 C790 1.387 . S
N792 Co783 2.022 . S
N792 C789 1.351 . S
N792 N793 1.365 . S
N793 C790 1.341 . S
N793 N792 1.365 . S
N793 H813 0.862 . S
C794 C789 1.501 . S
C794 H795 0.961 . S
C794 H796 0.961 . S
C794 H797 0.960 . S
H795 C794 0.961 . S
H796 C794 0.961 . S
H797 C794 0.960 . S
C798 N799 1.342 . S
C798 C802 1.401 . S
C798 C803 1.499 . S
N799 Co782 1.989 . S
N799 C798 1.342 . S
N799 N800 1.388 . S
N800 Co783 1.993 . S
N800 N799 1.388 . S
N800 C801 1.346 . S
C801 N800 1.346 . S
C801 C802 1.396 . S
C801 C811 1.510 . S
C802 C798 1.401 . S
C802 C801 1.396 . S
C803 C798 1.499 . S
C803 H804 0.959 . S
C803 H805 0.960 . S
C803 H806 0.961 . S
H804 C803 0.959 . S
H805 C803 0.960 . S
H806 C803 0.961 . S
O807 Co782 1.967 . S
O807 C815 1.258 . S
O808 Co783 1.941 . S
O808 C815 1.266 . S
H809 C811 0.959 . S
H810 C811 0.961 . S
C811 C801 1.510 . S
C811 H809 0.959 . S
C811 H810 0.961 . S
C811 H812 0.960 . S
H812 C811 0.960 . S
H813 N793 0.862 . S
O814 Co782 1.920 . S
O814 C787 1.289 . S
C815 O807 1.258 . S
C815 O808 1.266 . S
Co816 O819 1.970 . S
Co816 N833 1.989 . S
Co816 O841 1.967 . S
Co816 O848 1.920 . S
Co817 O820 1.966 . S
Co817 N826 2.022 . S
Co817 N834 1.993 . S
Co817 O842 1.941 . S
C818 O819 1.258 . S
C818 O820 1.263 . S
O819 Co816 1.970 . S
O819 C818 1.258 . S
O820 Co817 1.966 . S
O820 C818 1.263 . S
C821 O822 1.235 . S
C821 O848 1.289 . S
O822 C821 1.235 . S
C823 C825 1.400 . S
C823 N826 1.351 . S
C823 C828 1.501 . S
C824 C825 1.387 . S
C824 N827 1.341 . S
C825 C823 1.400 . S
C825 C824 1.387 . S
N826 Co817 2.022 . S
N826 C823 1.351 . S
N826 N827 1.365 . S
N827 C824 1.341 . S
N827 N826 1.365 . S
N827 H847 0.862 . S
C828 C823 1.501 . S
C828 H829 0.961 . S
C828 H830 0.961 . S
C828 H831 0.960 . S
H829 C828 0.961 . S
H830 C828 0.961 . S
H831 C828 0.960 . S
C832 N833 1.342 . S
C832 C836 1.401 . S
C832 C837 1.499 . S
N833 Co816 1.989 . S
N833 C832 1.342 . S
N833 N834 1.388 . S
N834 Co817 1.993 . S
N834 N833 1.388 . S
N834 C835 1.346 . S
C835 N834 1.346 . S
C835 C836 1.396 . S
C835 C845 1.510 . S
C836 C832 1.401 . S
C836 C835 1.396 . S
C837 C832 1.499 . S
C837 H838 0.959 . S
C837 H839 0.960 . S
C837 H840 0.961 . S
H838 C837 0.959 . S
H839 C837 0.960 . S
H840 C837 0.961 . S
O841 Co816 1.967 . S
O841 C849 1.258 . S
O842 Co817 1.941 . S
O842 C849 1.266 . S
H843 C845 0.959 . S
H844 C845 0.961 . S
C845 C835 1.510 . S
C845 H843 0.959 . S
C845 H844 0.961 . S
C845 H846 0.960 . S
H846 C845 0.960 . S
H847 N827 0.862 . S
O848 Co816 1.920 . S
O848 C821 1.289 . S
C849 O841 1.258 . S
C849 O842 1.266 . S
Co850 O853 1.970 . S
Co850 N867 1.989 . S
Co850 O875 1.967 . S
Co850 O882 1.920 . S
Co851 O854 1.966 . S
Co851 N860 2.022 . S
Co851 N868 1.993 . S
Co851 O876 1.941 . S
C852 O853 1.258 . S
C852 O854 1.263 . S
O853 Co850 1.970 . S
O853 C852 1.258 . S
O854 Co851 1.966 . S
O854 C852 1.263 . S
C855 O856 1.235 . S
C855 O882 1.289 . S
O856 C855 1.235 . S
C857 C859 1.400 . S
C857 N860 1.351 . S
C857 C862 1.501 . S
C858 C859 1.387 . S
C858 N861 1.341 . S
C859 C857 1.400 . S
C859 C858 1.387 . S
N860 Co851 2.022 . S
N860 C857 1.351 . S
N860 N861 1.365 . S
N861 C858 1.341 . S
N861 N860 1.365 . S
N861 H881 0.862 . S
C862 C857 1.501 . S
C862 H863 0.961 . S
C862 H864 0.961 . S
C862 H865 0.960 . S
H863 C862 0.961 . S
H864 C862 0.961 . S
H865 C862 0.960 . S
C866 N867 1.342 . S
C866 C870 1.401 . S
C866 C871 1.499 . S
N867 Co850 1.989 . S
N867 C866 1.342 . S
N867 N868 1.388 . S
N868 Co851 1.993 . S
N868 N867 1.388 . S
N868 C869 1.346 . S
C869 N868 1.346 . S
C869 C870 1.396 . S
C869 C879 1.510 . S
C870 C866 1.401 . S
C870 C869 1.396 . S
C871 C866 1.499 . S
C871 H872 0.959 . S
C871 H873 0.960 . S
C871 H874 0.961 . S
H872 C871 0.959 . S
H873 C871 0.960 . S
H874 C871 0.961 . S
O875 Co850 1.967 . S
O875 C883 1.258 . S
O876 Co851 1.941 . S
O876 C883 1.266 . S
H877 C879 0.959 . S
H878 C879 0.961 . S
C879 C869 1.510 . S
C879 H877 0.959 . S
C879 H878 0.961 . S
C879 H880 0.960 . S
H880 C879 0.960 . S
H881 N861 0.862 . S
O882 Co850 1.920 . S
O882 C855 1.289 . S
C883 O875 1.258 . S
C883 O876 1.266 . S
Co884 O887 1.970 . S
Co884 N901 1.989 . S
Co884 O909 1.967 . S
Co884 O916 1.920 . S
Co885 O888 1.966 . S
Co885 N894 2.022 . S
Co885 N902 1.993 . S
Co885 O910 1.941 . S
C886 O887 1.258 . S
C886 O888 1.263 . S
O887 Co884 1.970 . S
O887 C886 1.258 . S
O888 Co885 1.966 . S
O888 C886 1.263 . S
C889 O890 1.235 . S
C889 O916 1.289 . S
O890 C889 1.235 . S
C891 C893 1.400 . S
C891 N894 1.351 . S
C891 C896 1.501 . S
C892 C893 1.387 . S
C892 N895 1.341 . S
C893 C891 1.400 . S
C893 C892 1.387 . S
N894 Co885 2.022 . S
N894 C891 1.351 . S
N894 N895 1.365 . S
N895 C892 1.341 . S
N895 N894 1.365 . S
N895 H915 0.862 . S
C896 C891 1.501 . S
C896 H897 0.961 . S
C896 H898 0.961 . S
C896 H899 0.960 . S
H897 C896 0.961 . S
H898 C896 0.961 . S
H899 C896 0.960 . S
C900 N901 1.342 . S
C900 C904 1.401 . S
C900 C905 1.499 . S
N901 Co884 1.989 . S
N901 C900 1.342 . S
N901 N902 1.388 . S
N902 Co885 1.993 . S
N902 N901 1.388 . S
N902 C903 1.346 . S
C903 N902 1.346 . S
C903 C904 1.396 . S
C903 C913 1.510 . S
C904 C900 1.401 . S
C904 C903 1.396 . S
C905 C900 1.499 . S
C905 H906 0.959 . S
C905 H907 0.960 . S
C905 H908 0.961 . S
H906 C905 0.959 . S
H907 C905 0.960 . S
H908 C905 0.961 . S
O909 Co884 1.967 . S
O909 C917 1.258 . S
O910 Co885 1.941 . S
O910 C917 1.266 . S
H911 C913 0.959 . S
H912 C913 0.961 . S
C913 C903 1.510 . S
C913 H911 0.959 . S
C913 H912 0.961 . S
C913 H914 0.960 . S
H914 C913 0.960 . S
H915 N895 0.862 . S
O916 Co884 1.920 . S
O916 C889 1.289 . S
C917 O909 1.258 . S
C917 O910 1.266 . S
Co918 O921 1.970 . S
Co918 N935 1.989 . S
Co918 O943 1.967 . S
Co918 O950 1.920 . S
Co919 O922 1.966 . S
Co919 N928 2.022 . S
Co919 N936 1.993 . S
Co919 O944 1.941 . S
C920 O921 1.258 . S
C920 O922 1.263 . S
O921 Co918 1.970 . S
O921 C920 1.258 . S
O922 Co919 1.966 . S
O922 C920 1.263 . S
C923 O924 1.235 . S
C923 O950 1.289 . S
O924 C923 1.235 . S
C925 C927 1.400 1_455 S
C925 N928 1.351 . S
C925 C930 1.501 . S
C926 C927 1.387 . S
C926 N929 1.341 1_655 S
C927 C925 1.400 1_655 S
C927 C926 1.387 . S
N928 Co919 2.022 . S
N928 C925 1.351 . S
N928 N929 1.365 . S
N929 C926 1.341 1_455 S
N929 N928 1.365 . S
N929 H949 0.862 . S
C930 C925 1.501 . S
C930 H931 0.961 . S
C930 H932 0.961 . S
C930 H933 0.960 . S
H931 C930 0.961 . S
H932 C930 0.961 . S
H933 C930 0.960 . S
C934 N935 1.342 . S
C934 C938 1.401 . S
C934 C939 1.499 . S
N935 Co918 1.989 . S
N935 C934 1.342 . S
N935 N936 1.388 . S
N936 Co919 1.993 . S
N936 N935 1.388 . S
N936 C937 1.346 . S
C937 N936 1.346 . S
C937 C938 1.396 . S
C937 C947 1.510 . S
C938 C934 1.401 . S
C938 C937 1.396 . S
C939 C934 1.499 . S
C939 H940 0.959 . S
C939 H941 0.960 . S
C939 H942 0.961 . S
H940 C939 0.959 . S
H941 C939 0.960 . S
H942 C939 0.961 . S
O943 Co918 1.967 . S
O943 C951 1.258 . S
O944 Co919 1.941 . S
O944 C951 1.266 . S
H945 C947 0.959 . S
H946 C947 0.961 . S
C947 C937 1.510 . S
C947 H945 0.959 . S
C947 H946 0.961 . S
C947 H948 0.960 . S
H948 C947 0.960 . S
H949 N929 0.862 . S
O950 Co918 1.920 . S
O950 C923 1.289 . S
C951 O943 1.258 . S
C951 O944 1.266 . S
Co952 O955 1.970 . S
Co952 N969 1.989 . S
Co952 O977 1.967 . S
Co952 O984 1.920 . S
Co953 O956 1.966 . S
Co953 N962 2.022 . S
Co953 N970 1.993 . S
Co953 O978 1.941 . S
C954 O955 1.258 . S
C954 O956 1.263 . S
O955 Co952 1.970 . S
O955 C954 1.258 . S
O956 Co953 1.966 . S
O956 C954 1.263 . S
C957 O958 1.235 . S
C957 O984 1.289 . S
O958 C957 1.235 . S
C959 C961 1.400 . S
C959 N962 1.351 . S
C959 C964 1.501 . S
C960 C961 1.387 . S
C960 N963 1.341 . S
C961 C959 1.400 . S
C961 C960 1.387 . S
N962 Co953 2.022 . S
N962 C959 1.351 . S
N962 N963 1.365 . S
N963 C960 1.341 . S
N963 N962 1.365 . S
N963 H983 0.862 . S
C964 C959 1.501 . S
C964 H965 0.961 . S
C964 H966 0.961 . S
C964 H967 0.960 . S
H965 C964 0.961 . S
H966 C964 0.961 . S
H967 C964 0.960 . S
C968 N969 1.342 . S
C968 C972 1.401 . S
C968 C973 1.499 . S
N969 Co952 1.989 . S
N969 C968 1.342 . S
N969 N970 1.388 . S
N970 Co953 1.993 . S
N970 N969 1.388 . S
N970 C971 1.346 . S
C971 N970 1.346 . S
C971 C972 1.396 . S
C971 C981 1.510 . S
C972 C968 1.401 . S
C972 C971 1.396 . S
C973 C968 1.499 . S
C973 H974 0.959 . S
C973 H975 0.960 . S
C973 H976 0.961 . S
H974 C973 0.959 . S
H975 C973 0.960 . S
H976 C973 0.961 . S
O977 Co952 1.967 . S
O977 C985 1.258 . S
O978 Co953 1.941 . S
O978 C985 1.266 . S
H979 C981 0.959 . S
H980 C981 0.961 . S
C981 C971 1.510 . S
C981 H979 0.959 . S
C981 H980 0.961 . S
C981 H982 0.960 . S
H982 C981 0.960 . S
H983 N963 0.862 . S
O984 Co952 1.920 . S
O984 C957 1.289 . S
C985 O977 1.258 . S
C985 O978 1.266 . S
Co986 O989 1.970 . S
Co986 N1003 1.989 . S
Co986 O1011 1.967 . S
Co986 O1018 1.920 . S
Co987 O990 1.966 . S
Co987 N996 2.022 . S
Co987 N1004 1.993 . S
Co987 O1012 1.941 . S
C988 O989 1.258 . S
C988 O990 1.263 . S
O989 Co986 1.970 . S
O989 C988 1.258 . S
O990 Co987 1.966 . S
O990 C988 1.263 . S
C991 O992 1.235 . S
C991 O1018 1.289 . S
O992 C991 1.235 . S
C993 C995 1.400 1_455 S
C993 N996 1.351 . S
C993 C998 1.501 . S
C994 C995 1.387 . S
C994 N997 1.341 1_655 S
C995 C993 1.400 1_655 S
C995 C994 1.387 . S
N996 Co987 2.022 . S
N996 C993 1.351 . S
N996 N997 1.365 . S
N997 C994 1.341 1_455 S
N997 N996 1.365 . S
N997 H1017 0.862 . S
C998 C993 1.501 . S
C998 H999 0.961 . S
C998 H1000 0.961 . S
C998 H1001 0.960 . S
H999 C998 0.961 . S
H1000 C998 0.961 . S
H1001 C998 0.960 . S
C1002 N1003 1.342 . S
C1002 C1006 1.401 . S
C1002 C1007 1.499 . S
N1003 Co986 1.989 . S
N1003 C1002 1.342 . S
N1003 N1004 1.388 . S
N1004 Co987 1.993 . S
N1004 N1003 1.388 . S
N1004 C1005 1.346 . S
C1005 N1004 1.346 . S
C1005 C1006 1.396 . S
C1005 C1015 1.510 . S
C1006 C1002 1.401 . S
C1006 C1005 1.396 . S
C1007 C1002 1.499 . S
C1007 H1008 0.959 . S
C1007 H1009 0.960 . S
C1007 H1010 0.961 . S
H1008 C1007 0.959 . S
H1009 C1007 0.960 . S
H1010 C1007 0.961 . S
O1011 Co986 1.967 . S
O1011 C1019 1.258 . S
O1012 Co987 1.941 . S
O1012 C1019 1.266 . S
H1013 C1015 0.959 . S
H1014 C1015 0.961 . S
C1015 C1005 1.510 . S
C1015 H1013 0.959 . S
C1015 H1014 0.961 . S
C1015 H1016 0.960 . S
H1016 C1015 0.960 . S
H1017 N997 0.862 . S
O1018 Co986 1.920 . S
O1018 C991 1.289 . S
C1019 O1011 1.258 . S
C1019 O1012 1.266 . S
Co1020 O1023 1.970 . S
Co1020 N1037 1.989 . S
Co1020 O1045 1.967 . S
Co1020 O1052 1.920 . S
Co1021 O1024 1.966 . S
Co1021 N1030 2.022 . S
Co1021 N1038 1.993 . S
Co1021 O1046 1.941 . S
C1022 O1023 1.258 . S
C1022 O1024 1.263 . S
O1023 Co1020 1.970 . S
O1023 C1022 1.258 . S
O1024 Co1021 1.966 . S
O1024 C1022 1.263 . S
C1025 O1026 1.235 . S
C1025 O1052 1.289 . S
O1026 C1025 1.235 . S
C1027 C1029 1.400 . S
C1027 N1030 1.351 . S
C1027 C1032 1.501 . S
C1028 C1029 1.387 . S
C1028 N1031 1.341 . S
C1029 C1027 1.400 . S
C1029 C1028 1.387 . S
N1030 Co1021 2.022 . S
N1030 C1027 1.351 . S
N1030 N1031 1.365 . S
N1031 C1028 1.341 . S
N1031 N1030 1.365 . S
N1031 H1051 0.862 . S
C1032 C1027 1.501 . S
C1032 H1033 0.961 . S
C1032 H1034 0.961 . S
C1032 H1035 0.960 . S
H1033 C1032 0.961 . S
H1034 C1032 0.961 . S
H1035 C1032 0.960 . S
C1036 N1037 1.342 . S
C1036 C1040 1.401 . S
C1036 C1041 1.499 . S
N1037 Co1020 1.989 . S
N1037 C1036 1.342 . S
N1037 N1038 1.388 . S
N1038 Co1021 1.993 . S
N1038 N1037 1.388 . S
N1038 C1039 1.346 . S
C1039 N1038 1.346 . S
C1039 C1040 1.396 . S
C1039 C1049 1.510 . S
C1040 C1036 1.401 . S
C1040 C1039 1.396 . S
C1041 C1036 1.499 . S
C1041 H1042 0.959 . S
C1041 H1043 0.960 . S
C1041 H1044 0.961 . S
H1042 C1041 0.959 . S
H1043 C1041 0.960 . S
H1044 C1041 0.961 . S
O1045 Co1020 1.967 . S
O1045 C1053 1.258 . S
O1046 Co1021 1.941 . S
O1046 C1053 1.266 . S
H1047 C1049 0.959 . S
H1048 C1049 0.961 . S
C1049 C1039 1.510 . S
C1049 H1047 0.959 . S
C1049 H1048 0.961 . S
C1049 H1050 0.960 . S
H1050 C1049 0.960 . S
H1051 N1031 0.862 . S
O1052 Co1020 1.920 . S
O1052 C1025 1.289 . S
C1053 O1045 1.258 . S
C1053 O1046 1.266 . S
Co1054 O1057 1.970 . S
Co1054 N1071 1.989 . S
Co1054 O1079 1.967 . S
Co1054 O1086 1.920 . S
Co1055 O1058 1.966 . S
Co1055 N1064 2.022 . S
Co1055 N1072 1.993 . S
Co1055 O1080 1.941 . S
C1056 O1057 1.258 . S
C1056 O1058 1.263 . S
O1057 Co1054 1.970 . S
O1057 C1056 1.258 . S
O1058 Co1055 1.966 . S
O1058 C1056 1.263 . S
C1059 O1060 1.235 . S
C1059 O1086 1.289 . S
O1060 C1059 1.235 . S
C1061 C1063 1.400 . S
C1061 N1064 1.351 . S
C1061 C1066 1.501 . S
C1062 C1063 1.387 . S
C1062 N1065 1.341 . S
C1063 C1061 1.400 . S
C1063 C1062 1.387 . S
N1064 Co1055 2.022 . S
N1064 C1061 1.351 . S
N1064 N1065 1.365 . S
N1065 C1062 1.341 . S
N1065 N1064 1.365 . S
N1065 H1085 0.862 . S
C1066 C1061 1.501 . S
C1066 H1067 0.961 . S
C1066 H1068 0.961 . S
C1066 H1069 0.960 . S
H1067 C1066 0.961 . S
H1068 C1066 0.961 . S
H1069 C1066 0.960 . S
C1070 N1071 1.342 . S
C1070 C1074 1.401 . S
C1070 C1075 1.499 . S
N1071 Co1054 1.989 . S
N1071 C1070 1.342 . S
N1071 N1072 1.388 . S
N1072 Co1055 1.993 . S
N1072 N1071 1.388 . S
N1072 C1073 1.346 . S
C1073 N1072 1.346 . S
C1073 C1074 1.396 . S
C1073 C1083 1.510 . S
C1074 C1070 1.401 . S
C1074 C1073 1.396 . S
C1075 C1070 1.499 . S
C1075 H1076 0.959 . S
C1075 H1077 0.960 . S
C1075 H1078 0.961 . S
H1076 C1075 0.959 . S
H1077 C1075 0.960 . S
H1078 C1075 0.961 . S
O1079 Co1054 1.967 . S
O1079 C1087 1.258 . S
O1080 Co1055 1.941 . S
O1080 C1087 1.266 . S
H1081 C1083 0.959 . S
H1082 C1083 0.961 . S
C1083 C1073 1.510 . S
C1083 H1081 0.959 . S
C1083 H1082 0.961 . S
C1083 H1084 0.960 . S
H1084 C1083 0.960 . S
H1085 N1065 0.862 . S
O1086 Co1054 1.920 . S
O1086 C1059 1.289 . S
C1087 O1079 1.258 . S
C1087 O1080 1.266 . S
H1088 C1094 0.930 . S
H1089 C1097 0.930 . S
H1090 C1098 0.930 . S
H1091 C1099 0.930 . S
H1092 C1102 0.930 . S
H1093 C1103 0.930 . S
C1094 H1088 0.930 . S
C1094 C1095 1.355 . S
C1094 C1096 1.415 . S
C1095 C1094 1.355 . S
C1095 C1097 1.419 . S
C1096 C1094 1.415 . S
C1096 C1101 1.425 . S
C1096 C1103 1.409 . S
C1097 H1089 0.930 . S
C1097 C1095 1.419 . S
C1097 C1098 1.362 . S
C1098 H1090 0.930 . S
C1098 C1097 1.362 . S
C1098 C1101 1.409 . S
C1099 H1091 0.930 . S
C1099 C1100 1.355 . S
C1099 C1101 1.415 . S
C1100 C1099 1.355 . S
C1100 C1102 1.419 . S
C1101 C1096 1.425 . S
C1101 C1098 1.409 . S
C1101 C1099 1.415 . S
C1102 H1092 0.930 . S
C1102 C1100 1.419 . S
C1102 C1103 1.362 . S
C1103 H1093 0.930 . S
C1103 C1096 1.409 . S
C1103 C1102 1.362 . S
H1104 C1110 0.930 . S
H1105 C1113 0.930 . S
H1106 C1114 0.930 . S
H1107 C1115 0.930 . S
H1108 C1118 0.930 . S
H1109 C1119 0.930 . S
C1110 H1104 0.930 . S
C1110 C1111 1.355 . S
C1110 C1112 1.415 . S
C1111 C1110 1.355 . S
C1111 C1113 1.419 . S
C1112 C1110 1.415 . S
C1112 C1117 1.425 . S
C1112 C1119 1.409 . S
C1113 H1105 0.930 . S
C1113 C1111 1.419 . S
C1113 C1114 1.362 . S
C1114 H1106 0.930 . S
C1114 C1113 1.362 . S
C1114 C1117 1.409 . S
C1115 H1107 0.930 . S
C1115 C1116 1.355 . S
C1115 C1117 1.415 . S
C1116 C1115 1.355 . S
C1116 C1118 1.419 . S
C1117 C1112 1.425 . S
C1117 C1114 1.409 . S
C1117 C1115 1.415 . S
C1118 H1108 0.930 . S
C1118 C1116 1.419 . S
C1118 C1119 1.362 . S
C1119 H1109 0.930 . S
C1119 C1112 1.409 . S
C1119 C1118 1.362 . S
H1120 C1126 0.930 . S
H1121 C1129 0.930 . S
H1122 C1130 0.930 . S
H1123 C1131 0.930 . S
H1124 C1134 0.930 . S
H1125 C1135 0.930 . S
C1126 H1120 0.930 . S
C1126 C1127 1.355 . S
C1126 C1128 1.415 . S
C1127 C1126 1.355 . S
C1127 C1129 1.419 . S
C1128 C1126 1.415 . S
C1128 C1133 1.425 . S
C1128 C1135 1.409 . S
C1129 H1121 0.930 . S
C1129 C1127 1.419 . S
C1129 C1130 1.362 . S
C1130 H1122 0.930 . S
C1130 C1129 1.362 . S
C1130 C1133 1.409 . S
C1131 H1123 0.930 . S
C1131 C1132 1.355 . S
C1131 C1133 1.415 . S
C1132 C1131 1.355 . S
C1132 C1134 1.419 . S
C1133 C1128 1.425 . S
C1133 C1130 1.409 . S
C1133 C1131 1.415 . S
C1134 H1124 0.930 . S
C1134 C1132 1.419 . S
C1134 C1135 1.362 . S
C1135 H1125 0.930 . S
C1135 C1128 1.409 . S
C1135 C1134 1.362 . S
H1136 C1142 0.930 . S
H1137 C1145 0.930 . S
H1138 C1146 0.930 . S
H1139 C1147 0.930 . S
H1140 C1150 0.930 . S
H1141 C1151 0.930 . S
C1142 H1136 0.930 . S
C1142 C1143 1.355 . S
C1142 C1144 1.415 . S
C1143 C1142 1.355 . S
C1143 C1145 1.419 . S
C1144 C1142 1.415 . S
C1144 C1149 1.425 . S
C1144 C1151 1.409 . S
C1145 H1137 0.930 . S
C1145 C1143 1.419 . S
C1145 C1146 1.362 . S
C1146 H1138 0.930 . S
C1146 C1145 1.362 . S
C1146 C1149 1.409 . S
C1147 H1139 0.930 . S
C1147 C1148 1.355 . S
C1147 C1149 1.415 . S
C1148 C1147 1.355 . S
C1148 C1150 1.419 . S
C1149 C1144 1.425 . S
C1149 C1146 1.409 . S
C1149 C1147 1.415 . S
C1150 H1140 0.930 . S
C1150 C1148 1.419 . S
C1150 C1151 1.362 . S
C1151 H1141 0.930 . S
C1151 C1144 1.409 . S
C1151 C1150 1.362 . S
H1152 C1158 0.930 . S
H1153 C1161 0.930 . S
H1154 C1162 0.930 . S
H1155 C1163 0.930 . S
H1156 C1166 0.930 . S
H1157 C1167 0.930 . S
C1158 H1152 0.930 . S
C1158 C1159 1.355 . S
C1158 C1160 1.415 . S
C1159 C1158 1.355 . S
C1159 C1161 1.419 . S
C1160 C1158 1.415 . S
C1160 C1165 1.425 . S
C1160 C1167 1.409 . S
C1161 H1153 0.930 . S
C1161 C1159 1.419 . S
C1161 C1162 1.362 . S
C1162 H1154 0.930 . S
C1162 C1161 1.362 . S
C1162 C1165 1.409 . S
C1163 H1155 0.930 . S
C1163 C1164 1.355 . S
C1163 C1165 1.415 . S
C1164 C1163 1.355 . S
C1164 C1166 1.419 . S
C1165 C1160 1.425 . S
C1165 C1162 1.409 . S
C1165 C1163 1.415 . S
C1166 H1156 0.930 . S
C1166 C1164 1.419 . S
C1166 C1167 1.362 . S
C1167 H1157 0.930 . S
C1167 C1160 1.409 . S
C1167 C1166 1.362 . S
H1168 C1174 0.930 . S
H1169 C1177 0.930 . S
H1170 C1178 0.930 . S
H1171 C1179 0.930 . S
H1172 C1182 0.930 . S
H1173 C1183 0.930 . S
C1174 H1168 0.930 . S
C1174 C1175 1.355 . S
C1174 C1176 1.415 . S
C1175 C1174 1.355 . S
C1175 C1177 1.419 . S
C1176 C1174 1.415 . S
C1176 C1181 1.425 . S
C1176 C1183 1.409 . S
C1177 H1169 0.930 . S
C1177 C1175 1.419 . S
C1177 C1178 1.362 . S
C1178 H1170 0.930 . S
C1178 C1177 1.362 . S
C1178 C1181 1.409 . S
C1179 H1171 0.930 . S
C1179 C1180 1.355 . S
C1179 C1181 1.415 . S
C1180 C1179 1.355 . S
C1180 C1182 1.419 . S
C1181 C1176 1.425 . S
C1181 C1178 1.409 . S
C1181 C1179 1.415 . S
C1182 H1172 0.930 . S
C1182 C1180 1.419 . S
C1182 C1183 1.362 . S
C1183 H1173 0.930 . S
C1183 C1176 1.409 . S
C1183 C1182 1.362 . S
H1184 C1190 0.930 . S
H1185 C1193 0.930 . S
H1186 C1194 0.930 . S
H1187 C1195 0.930 . S
H1188 C1198 0.930 . S
H1189 C1199 0.930 . S
C1190 H1184 0.930 . S
C1190 C1191 1.355 . S
C1190 C1192 1.415 . S
C1191 C1190 1.355 . S
C1191 C1193 1.419 . S
C1192 C1190 1.415 . S
C1192 C1197 1.425 . S
C1192 C1199 1.409 . S
C1193 H1185 0.930 . S
C1193 C1191 1.419 . S
C1193 C1194 1.362 . S
C1194 H1186 0.930 . S
C1194 C1193 1.362 . S
C1194 C1197 1.409 . S
C1195 H1187 0.930 . S
C1195 C1196 1.355 . S
C1195 C1197 1.415 . S
C1196 C1195 1.355 . S
C1196 C1198 1.419 . S
C1197 C1192 1.425 . S
C1197 C1194 1.409 . S
C1197 C1195 1.415 . S
C1198 H1188 0.930 . S
C1198 C1196 1.419 . S
C1198 C1199 1.362 . S
C1199 H1189 0.930 . S
C1199 C1192 1.409 . S
C1199 C1198 1.362 . S
H1200 C1206 0.930 . S
H1201 C1209 0.930 . S
H1202 C1210 0.930 . S
H1203 C1211 0.930 . S
H1204 C1214 0.930 . S
H1205 C1215 0.930 . S
C1206 H1200 0.930 . S
C1206 C1207 1.355 . S
C1206 C1208 1.415 . S
C1207 C1206 1.355 . S
C1207 C1209 1.419 . S
C1208 C1206 1.415 . S
C1208 C1213 1.425 . S
C1208 C1215 1.409 . S
C1209 H1201 0.930 . S
C1209 C1207 1.419 . S
C1209 C1210 1.362 . S
C1210 H1202 0.930 . S
C1210 C1209 1.362 . S
C1210 C1213 1.409 . S
C1211 H1203 0.930 . S
C1211 C1212 1.355 . S
C1211 C1213 1.415 . S
C1212 C1211 1.355 . S
C1212 C1214 1.419 . S
C1213 C1208 1.425 . S
C1213 C1210 1.409 . S
C1213 C1211 1.415 . S
C1214 H1204 0.930 . S
C1214 C1212 1.419 . S
C1214 C1215 1.362 . S
C1215 H1205 0.930 . S
C1215 C1208 1.409 . S
C1215 C1214 1.362 . S
H1216 C1222 0.930 . S
H1217 C1225 0.930 . S
H1218 C1226 0.930 . S
H1219 C1227 0.930 . S
H1220 C1230 0.930 . S
H1221 C1231 0.930 . S
C1222 H1216 0.930 . S
C1222 C1223 1.355 . S
C1222 C1224 1.415 . S
C1223 C1222 1.355 . S
C1223 C1225 1.419 . S
C1224 C1222 1.415 . S
C1224 C1229 1.425 . S
C1224 C1231 1.409 . S
C1225 H1217 0.930 . S
C1225 C1223 1.419 . S
C1225 C1226 1.362 . S
C1226 H1218 0.930 . S
C1226 C1225 1.362 . S
C1226 C1229 1.409 . S
C1227 H1219 0.930 . S
C1227 C1228 1.355 . S
C1227 C1229 1.415 . S
C1228 C1227 1.355 . S
C1228 C1230 1.419 . S
C1229 C1224 1.425 . S
C1229 C1226 1.409 . S
C1229 C1227 1.415 . S
C1230 H1220 0.930 . S
C1230 C1228 1.419 . S
C1230 C1231 1.362 . S
C1231 H1221 0.930 . S
C1231 C1224 1.409 . S
C1231 C1230 1.362 . S
H1232 C1238 0.930 . S
H1233 C1241 0.930 . S
H1234 C1242 0.930 . S
H1235 C1243 0.930 . S
H1236 C1246 0.930 . S
H1237 C1247 0.930 . S
C1238 H1232 0.930 . S
C1238 C1239 1.355 . S
C1238 C1240 1.415 . S
C1239 C1238 1.355 . S
C1239 C1241 1.419 . S
C1240 C1238 1.415 . S
C1240 C1245 1.425 . S
C1240 C1247 1.409 . S
C1241 H1233 0.930 . S
C1241 C1239 1.419 . S
C1241 C1242 1.362 . S
C1242 H1234 0.930 . S
C1242 C1241 1.362 . S
C1242 C1245 1.409 . S
C1243 H1235 0.930 . S
C1243 C1244 1.355 . S
C1243 C1245 1.415 . S
C1244 C1243 1.355 . S
C1244 C1246 1.419 . S
C1245 C1240 1.425 . S
C1245 C1242 1.409 . S
C1245 C1243 1.415 . S
C1246 H1236 0.930 . S
C1246 C1244 1.419 . S
C1246 C1247 1.362 . S
C1247 H1237 0.930 . S
C1247 C1240 1.409 . S
C1247 C1246 1.362 . S
H1248 C1254 0.930 . S
H1249 C1257 0.930 . S
H1250 C1258 0.930 . S
H1251 C1259 0.930 . S
H1252 C1262 0.930 . S
H1253 C1263 0.930 . S
C1254 H1248 0.930 . S
C1254 C1255 1.355 . S
C1254 C1256 1.415 . S
C1255 C1254 1.355 . S
C1255 C1257 1.419 . S
C1256 C1254 1.415 . S
C1256 C1261 1.425 . S
C1256 C1263 1.409 . S
C1257 H1249 0.930 . S
C1257 C1255 1.419 . S
C1257 C1258 1.362 . S
C1258 H1250 0.930 . S
C1258 C1257 1.362 . S
C1258 C1261 1.409 . S
C1259 H1251 0.930 . S
C1259 C1260 1.355 . S
C1259 C1261 1.415 . S
C1260 C1259 1.355 . S
C1260 C1262 1.419 . S
C1261 C1256 1.425 . S
C1261 C1258 1.409 . S
C1261 C1259 1.415 . S
C1262 H1252 0.930 . S
C1262 C1260 1.419 . S
C1262 C1263 1.362 . S
C1263 H1253 0.930 . S
C1263 C1256 1.409 . S
C1263 C1262 1.362 . S
H1264 C1270 0.930 . S
H1265 C1273 0.930 . S
H1266 C1274 0.930 . S
H1267 C1275 0.930 . S
H1268 C1278 0.930 . S
H1269 C1279 0.930 . S
C1270 H1264 0.930 . S
C1270 C1271 1.355 . S
C1270 C1272 1.415 . S
C1271 C1270 1.355 . S
C1271 C1273 1.419 . S
C1272 C1270 1.415 . S
C1272 C1277 1.425 . S
C1272 C1279 1.409 . S
C1273 H1265 0.930 . S
C1273 C1271 1.419 . S
C1273 C1274 1.362 . S
C1274 H1266 0.930 . S
C1274 C1273 1.362 . S
C1274 C1277 1.409 . S
C1275 H1267 0.930 . S
C1275 C1276 1.355 . S
C1275 C1277 1.415 . S
C1276 C1275 1.355 . S
C1276 C1278 1.419 . S
C1277 C1272 1.425 . S
C1277 C1274 1.409 . S
C1277 C1275 1.415 . S
C1278 H1268 0.930 . S
C1278 C1276 1.419 . S
C1278 C1279 1.362 . S
C1279 H1269 0.930 . S
C1279 C1272 1.409 . S
C1279 C1278 1.362 . S
H1280 C1286 0.930 . S
H1281 C1289 0.930 . S
H1282 C1290 0.930 . S
H1283 C1291 0.930 . S
H1284 C1294 0.930 . S
H1285 C1295 0.930 . S
C1286 H1280 0.930 . S
C1286 C1287 1.355 . S
C1286 C1288 1.415 . S
C1287 C1286 1.355 . S
C1287 C1289 1.419 . S
C1288 C1286 1.415 . S
C1288 C1293 1.425 . S
C1288 C1295 1.409 . S
C1289 H1281 0.930 . S
C1289 C1287 1.419 . S
C1289 C1290 1.362 . S
C1290 H1282 0.930 . S
C1290 C1289 1.362 . S
C1290 C1293 1.409 . S
C1291 H1283 0.930 . S
C1291 C1292 1.355 . S
C1291 C1293 1.415 . S
C1292 C1291 1.355 . S
C1292 C1294 1.419 . S
C1293 C1288 1.425 . S
C1293 C1290 1.409 . S
C1293 C1291 1.415 . S
C1294 H1284 0.930 . S
C1294 C1292 1.419 . S
C1294 C1295 1.362 . S
C1295 H1285 0.930 . S
C1295 C1288 1.409 . S
C1295 C1294 1.362 . S
H1296 C1302 0.930 . S
H1297 C1305 0.930 . S
H1298 C1306 0.930 . S
H1299 C1307 0.930 . S
H1300 C1310 0.930 . S
H1301 C1311 0.930 . S
C1302 H1296 0.930 . S
C1302 C1303 1.355 . S
C1302 C1304 1.415 . S
C1303 C1302 1.355 . S
C1303 C1305 1.419 . S
C1304 C1302 1.415 . S
C1304 C1309 1.425 . S
C1304 C1311 1.409 . S
C1305 H1297 0.930 . S
C1305 C1303 1.419 . S
C1305 C1306 1.362 . S
C1306 H1298 0.930 . S
C1306 C1305 1.362 . S
C1306 C1309 1.409 . S
C1307 H1299 0.930 . S
C1307 C1308 1.355 . S
C1307 C1309 1.415 . S
C1308 C1307 1.355 . S
C1308 C1310 1.419 . S
C1309 C1304 1.425 . S
C1309 C1306 1.409 . S
C1309 C1307 1.415 . S
C1310 H1300 0.930 . S
C1310 C1308 1.419 . S
C1310 C1311 1.362 . S
C1311 H1301 0.930 . S
C1311 C1304 1.409 . S
C1311 C1310 1.362 . S
H1312 C1318 0.930 . S
H1313 C1321 0.930 . S
H1314 C1322 0.930 . S
H1315 C1323 0.930 . S
H1316 C1326 0.930 . S
H1317 C1327 0.930 . S
C1318 H1312 0.930 . S
C1318 C1319 1.355 . S
C1318 C1320 1.415 . S
C1319 C1318 1.355 . S
C1319 C1321 1.419 . S
C1320 C1318 1.415 . S
C1320 C1325 1.425 . S
C1320 C1327 1.409 . S
C1321 H1313 0.930 . S
C1321 C1319 1.419 . S
C1321 C1322 1.362 . S
C1322 H1314 0.930 . S
C1322 C1321 1.362 . S
C1322 C1325 1.409 . S
C1323 H1315 0.930 . S
C1323 C1324 1.355 . S
C1323 C1325 1.415 . S
C1324 C1323 1.355 . S
C1324 C1326 1.419 . S
C1325 C1320 1.425 . S
C1325 C1322 1.409 . S
C1325 C1323 1.415 . S
C1326 H1316 0.930 . S
C1326 C1324 1.419 . S
C1326 C1327 1.362 . S
C1327 H1317 0.930 . S
C1327 C1320 1.409 . S
C1327 C1326 1.362 . S
H1328 C1334 0.930 . S
H1329 C1337 0.930 . S
H1330 C1338 0.930 . S
H1331 C1339 0.930 . S
H1332 C1342 0.930 . S
H1333 C1343 0.930 . S
C1334 H1328 0.930 . S
C1334 C1335 1.355 . S
C1334 C1336 1.415 . S
C1335 C1334 1.355 . S
C1335 C1337 1.419 . S
C1336 C1334 1.415 . S
C1336 C1341 1.425 . S
C1336 C1343 1.409 . S
C1337 H1329 0.930 . S
C1337 C1335 1.419 . S
C1337 C1338 1.362 . S
C1338 H1330 0.930 . S
C1338 C1337 1.362 . S
C1338 C1341 1.409 . S
C1339 H1331 0.930 . S
C1339 C1340 1.355 . S
C1339 C1341 1.415 . S
C1340 C1339 1.355 . S
C1340 C1342 1.419 . S
C1341 C1336 1.425 . S
C1341 C1338 1.409 . S
C1341 C1339 1.415 . S
C1342 H1332 0.930 . S
C1342 C1340 1.419 . S
C1342 C1343 1.362 . S
C1343 H1333 0.930 . S
C1343 C1336 1.409 . S
C1343 C1342 1.362 . S
H1344 C1350 0.930 . S
H1345 C1353 0.930 . S
H1346 C1354 0.930 . S
H1347 C1355 0.930 . S
H1348 C1358 0.930 . S
H1349 C1359 0.930 . S
C1350 H1344 0.930 . S
C1350 C1351 1.355 . S
C1350 C1352 1.415 . S
C1351 C1350 1.355 . S
C1351 C1353 1.419 . S
C1352 C1350 1.415 . S
C1352 C1357 1.425 . S
C1352 C1359 1.409 . S
C1353 H1345 0.930 . S
C1353 C1351 1.419 . S
C1353 C1354 1.362 . S
C1354 H1346 0.930 . S
C1354 C1353 1.362 . S
C1354 C1357 1.409 . S
C1355 H1347 0.930 . S
C1355 C1356 1.355 . S
C1355 C1357 1.415 . S
C1356 C1355 1.355 . S
C1356 C1358 1.419 . S
C1357 C1352 1.425 . S
C1357 C1354 1.409 . S
C1357 C1355 1.415 . S
C1358 H1348 0.930 . S
C1358 C1356 1.419 . S
C1358 C1359 1.362 . S
C1359 H1349 0.930 . S
C1359 C1352 1.409 . S
C1359 C1358 1.362 . S
H1360 C1366 0.930 . S
H1361 C1369 0.930 . S
H1362 C1370 0.930 . S
H1363 C1371 0.930 . S
H1364 C1374 0.930 . S
H1365 C1375 0.930 . S
C1366 H1360 0.930 . S
C1366 C1367 1.355 . S
C1366 C1368 1.415 . S
C1367 C1366 1.355 . S
C1367 C1369 1.419 . S
C1368 C1366 1.415 . S
C1368 C1373 1.425 . S
C1368 C1375 1.409 . S
C1369 H1361 0.930 . S
C1369 C1367 1.419 . S
C1369 C1370 1.362 . S
C1370 H1362 0.930 . S
C1370 C1369 1.362 . S
C1370 C1373 1.409 . S
C1371 H1363 0.930 . S
C1371 C1372 1.355 . S
C1371 C1373 1.415 . S
C1372 C1371 1.355 . S
C1372 C1374 1.419 . S
C1373 C1368 1.425 . S
C1373 C1370 1.409 . S
C1373 C1371 1.415 . S
C1374 H1364 0.930 . S
C1374 C1372 1.419 . S
C1374 C1375 1.362 . S
C1375 H1365 0.930 . S
C1375 C1368 1.409 . S
C1375 C1374 1.362 . S
H1376 C1382 0.930 . S
H1377 C1385 0.930 . S
H1378 C1386 0.930 . S
H1379 C1387 0.930 . S
H1380 C1390 0.930 . S
H1381 C1391 0.930 . S
C1382 H1376 0.930 . S
C1382 C1383 1.355 . S
C1382 C1384 1.415 . S
C1383 C1382 1.355 . S
C1383 C1385 1.419 . S
C1384 C1382 1.415 . S
C1384 C1389 1.425 . S
C1384 C1391 1.409 . S
C1385 H1377 0.930 . S
C1385 C1383 1.419 . S
C1385 C1386 1.362 . S
C1386 H1378 0.930 . S
C1386 C1385 1.362 . S
C1386 C1389 1.409 . S
C1387 H1379 0.930 . S
C1387 C1388 1.355 . S
C1387 C1389 1.415 . S
C1388 C1387 1.355 . S
C1388 C1390 1.419 . S
C1389 C1384 1.425 . S
C1389 C1386 1.409 . S
C1389 C1387 1.415 . S
C1390 H1380 0.930 . S
C1390 C1388 1.419 . S
C1390 C1391 1.362 . S
C1391 H1381 0.930 . S
C1391 C1384 1.409 . S
C1391 C1390 1.362 . S
H1392 C1398 0.930 . S
H1393 C1401 0.930 . S
H1394 C1402 0.930 . S
H1395 C1403 0.930 . S
H1396 C1406 0.930 . S
H1397 C1407 0.930 . S
C1398 H1392 0.930 . S
C1398 C1399 1.355 . S
C1398 C1400 1.415 . S
C1399 C1398 1.355 . S
C1399 C1401 1.419 . S
C1400 C1398 1.415 . S
C1400 C1405 1.425 . S
C1400 C1407 1.409 . S
C1401 H1393 0.930 . S
C1401 C1399 1.419 . S
C1401 C1402 1.362 . S
C1402 H1394 0.930 . S
C1402 C1401 1.362 . S
C1402 C1405 1.409 . S
C1403 H1395 0.930 . S
C1403 C1404 1.355 . S
C1403 C1405 1.415 . S
C1404 C1403 1.355 . S
C1404 C1406 1.419 . S
C1405 C1400 1.425 . S
C1405 C1402 1.409 . S
C1405 C1403 1.415 . S
C1406 H1396 0.930 . S
C1406 C1404 1.419 . S
C1406 C1407 1.362 . S
C1407 H1397 0.930 . S
C1407 C1400 1.409 . S
C1407 C1406 1.362 . S
H1408 C1414 0.930 . S
H1409 C1417 0.930 . S
H1410 C1418 0.930 . S
H1411 C1419 0.930 . S
H1412 C1422 0.930 . S
H1413 C1423 0.930 . S
C1414 H1408 0.930 . S
C1414 C1415 1.355 . S
C1414 C1416 1.415 . S
C1415 C1414 1.355 . S
C1415 C1417 1.419 . S
C1416 C1414 1.415 . S
C1416 C1421 1.425 . S
C1416 C1423 1.409 . S
C1417 H1409 0.930 . S
C1417 C1415 1.419 . S
C1417 C1418 1.362 . S
C1418 H1410 0.930 . S
C1418 C1417 1.362 . S
C1418 C1421 1.409 . S
C1419 H1411 0.930 . S
C1419 C1420 1.355 . S
C1419 C1421 1.415 . S
C1420 C1419 1.355 . S
C1420 C1422 1.419 . S
C1421 C1416 1.425 . S
C1421 C1418 1.409 . S
C1421 C1419 1.415 . S
C1422 H1412 0.930 . S
C1422 C1420 1.419 . S
C1422 C1423 1.362 . S
C1423 H1413 0.930 . S
C1423 C1416 1.409 . S
C1423 C1422 1.362 . S
H1424 C1430 0.930 . S
H1425 C1433 0.930 . S
H1426 C1434 0.930 . S
H1427 C1435 0.930 . S
H1428 C1438 0.930 . S
H1429 C1439 0.930 . S
C1430 H1424 0.930 . S
C1430 C1431 1.355 . S
C1430 C1432 1.415 . S
C1431 C1430 1.355 . S
C1431 C1433 1.419 . S
C1432 C1430 1.415 . S
C1432 C1437 1.425 . S
C1432 C1439 1.409 . S
C1433 H1425 0.930 . S
C1433 C1431 1.419 . S
C1433 C1434 1.362 . S
C1434 H1426 0.930 . S
C1434 C1433 1.362 . S
C1434 C1437 1.409 . S
C1435 H1427 0.930 . S
C1435 C1436 1.355 . S
C1435 C1437 1.415 . S
C1436 C1435 1.355 . S
C1436 C1438 1.419 . S
C1437 C1432 1.425 . S
C1437 C1434 1.409 . S
C1437 C1435 1.415 . S
C1438 H1428 0.930 . S
C1438 C1436 1.419 . S
C1438 C1439 1.362 . S
C1439 H1429 0.930 . S
C1439 C1432 1.409 . S
C1439 C1438 1.362 . S
H1440 C1446 0.930 . S
H1441 C1449 0.930 . S
H1442 C1450 0.930 . S
H1443 C1451 0.930 . S
H1444 C1454 0.930 . S
H1445 C1455 0.930 . S
C1446 H1440 0.930 . S
C1446 C1447 1.355 . S
C1446 C1448 1.415 . S
C1447 C1446 1.355 . S
C1447 C1449 1.419 . S
C1448 C1446 1.415 . S
C1448 C1453 1.425 . S
C1448 C1455 1.409 . S
C1449 H1441 0.930 . S
C1449 C1447 1.419 . S
C1449 C1450 1.362 . S
C1450 H1442 0.930 . S
C1450 C1449 1.362 . S
C1450 C1453 1.409 . S
C1451 H1443 0.930 . S
C1451 C1452 1.355 . S
C1451 C1453 1.415 . S
C1452 C1451 1.355 . S
C1452 C1454 1.419 . S
C1453 C1448 1.425 . S
C1453 C1450 1.409 . S
C1453 C1451 1.415 . S
C1454 H1444 0.930 . S
C1454 C1452 1.419 . S
C1454 C1455 1.362 . S
C1455 H1445 0.930 . S
C1455 C1448 1.409 . S
C1455 C1454 1.362 . S
H1456 C1462 0.930 . S
H1457 C1465 0.930 . S
H1458 C1466 0.930 . S
H1459 C1467 0.930 . S
H1460 C1470 0.930 . S
H1461 C1471 0.930 . S
C1462 H1456 0.930 . S
C1462 C1463 1.355 . S
C1462 C1464 1.415 . S
C1463 C1462 1.355 . S
C1463 C1465 1.419 . S
C1464 C1462 1.415 . S
C1464 C1469 1.425 . S
C1464 C1471 1.409 . S
C1465 H1457 0.930 . S
C1465 C1463 1.419 . S
C1465 C1466 1.362 . S
C1466 H1458 0.930 . S
C1466 C1465 1.362 . S
C1466 C1469 1.409 . S
C1467 H1459 0.930 . S
C1467 C1468 1.355 . S
C1467 C1469 1.415 . S
C1468 C1467 1.355 . S
C1468 C1470 1.419 . S
C1469 C1464 1.425 . S
C1469 C1466 1.409 . S
C1469 C1467 1.415 . S
C1470 H1460 0.930 . S
C1470 C1468 1.419 . S
C1470 C1471 1.362 . S
C1471 H1461 0.930 . S
C1471 C1464 1.409 . S
C1471 C1470 1.362 . S
H1472 C1478 0.930 . S
H1473 C1481 0.930 . S
H1474 C1482 0.930 . S
H1475 C1483 0.930 . S
H1476 C1486 0.930 . S
H1477 C1487 0.930 . S
C1478 H1472 0.930 . S
C1478 C1479 1.355 . S
C1478 C1480 1.415 . S
C1479 C1478 1.355 . S
C1479 C1481 1.419 . S
C1480 C1478 1.415 . S
C1480 C1485 1.425 . S
C1480 C1487 1.409 . S
C1481 H1473 0.930 . S
C1481 C1479 1.419 . S
C1481 C1482 1.362 . S
C1482 H1474 0.930 . S
C1482 C1481 1.362 . S
C1482 C1485 1.409 . S
C1483 H1475 0.930 . S
C1483 C1484 1.355 . S
C1483 C1485 1.415 . S
C1484 C1483 1.355 . S
C1484 C1486 1.419 . S
C1485 C1480 1.425 . S
C1485 C1482 1.409 . S
C1485 C1483 1.415 . S
C1486 H1476 0.930 . S
C1486 C1484 1.419 . S
C1486 C1487 1.362 . S
C1487 H1477 0.930 . S
C1487 C1480 1.409 . S
C1487 C1486 1.362 . S
H1488 C1494 0.930 . S
H1489 C1497 0.930 . S
H1490 C1498 0.930 . S
H1491 C1499 0.930 . S
H1492 C1502 0.930 . S
H1493 C1503 0.930 . S
C1494 H1488 0.930 . S
C1494 C1495 1.355 . S
C1494 C1496 1.415 . S
C1495 C1494 1.355 . S
C1495 C1497 1.419 . S
C1496 C1494 1.415 . S
C1496 C1501 1.425 . S
C1496 C1503 1.409 . S
C1497 H1489 0.930 . S
C1497 C1495 1.419 . S
C1497 C1498 1.362 . S
C1498 H1490 0.930 . S
C1498 C1497 1.362 . S
C1498 C1501 1.409 . S
C1499 H1491 0.930 . S
C1499 C1500 1.355 . S
C1499 C1501 1.415 . S
C1500 C1499 1.355 . S
C1500 C1502 1.419 . S
C1501 C1496 1.425 . S
C1501 C1498 1.409 . S
C1501 C1499 1.415 . S
C1502 H1492 0.930 . S
C1502 C1500 1.419 . S
C1502 C1503 1.362 . S
C1503 H1493 0.930 . S
C1503 C1496 1.409 . S
C1503 C1502 1.362 . S
H1504 C1510 0.930 . S
H1505 C1513 0.930 . S
H1506 C1514 0.930 . S
H1507 C1515 0.930 . S
H1508 C1518 0.930 . S
H1509 C1519 0.930 . S
C1510 H1504 0.930 . S
C1510 C1511 1.355 . S
C1510 C1512 1.415 . S
C1511 C1510 1.355 . S
C1511 C1513 1.419 . S
C1512 C1510 1.415 . S
C1512 C1517 1.425 . S
C1512 C1519 1.409 . S
C1513 H1505 0.930 . S
C1513 C1511 1.419 . S
C1513 C1514 1.362 . S
C1514 H1506 0.930 . S
C1514 C1513 1.362 . S
C1514 C1517 1.409 . S
C1515 H1507 0.930 . S
C1515 C1516 1.355 . S
C1515 C1517 1.415 . S
C1516 C1515 1.355 . S
C1516 C1518 1.419 . S
C1517 C1512 1.425 . S
C1517 C1514 1.409 . S
C1517 C1515 1.415 . S
C1518 H1508 0.930 . S
C1518 C1516 1.419 . S
C1518 C1519 1.362 . S
C1519 H1509 0.930 . S
C1519 C1512 1.409 . S
C1519 C1518 1.362 . S
H1520 C1526 0.930 . S
H1521 C1529 0.930 . S
H1522 C1530 0.930 . S
H1523 C1531 0.930 . S
H1524 C1534 0.930 . S
H1525 C1535 0.930 . S
C1526 H1520 0.930 . S
C1526 C1527 1.355 . S
C1526 C1528 1.415 . S
C1527 C1526 1.355 . S
C1527 C1529 1.419 . S
C1528 C1526 1.415 . S
C1528 C1533 1.425 . S
C1528 C1535 1.409 . S
C1529 H1521 0.930 . S
C1529 C1527 1.419 . S
C1529 C1530 1.362 . S
C1530 H1522 0.930 . S
C1530 C1529 1.362 . S
C1530 C1533 1.409 . S
C1531 H1523 0.930 . S
C1531 C1532 1.355 . S
C1531 C1533 1.415 . S
C1532 C1531 1.355 . S
C1532 C1534 1.419 . S
C1533 C1528 1.425 . S
C1533 C1530 1.409 . S
C1533 C1531 1.415 . S
C1534 H1524 0.930 . S
C1534 C1532 1.419 . S
C1534 C1535 1.362 . S
C1535 H1525 0.930 . S
C1535 C1528 1.409 . S
C1535 C1534 1.362 . S
H1536 C1542 0.930 . S
H1537 C1545 0.930 . S
H1538 C1546 0.930 . S
H1539 C1547 0.930 . S
H1540 C1550 0.930 . S
H1541 C1551 0.930 . S
C1542 H1536 0.930 . S
C1542 C1543 1.355 . S
C1542 C1544 1.415 . S
C1543 C1542 1.355 . S
C1543 C1545 1.419 . S
C1544 C1542 1.415 . S
C1544 C1549 1.425 . S
C1544 C1551 1.409 . S
C1545 H1537 0.930 . S
C1545 C1543 1.419 . S
C1545 C1546 1.362 . S
C1546 H1538 0.930 . S
C1546 C1545 1.362 . S
C1546 C1549 1.409 . S
C1547 H1539 0.930 . S
C1547 C1548 1.355 . S
C1547 C1549 1.415 . S
C1548 C1547 1.355 . S
C1548 C1550 1.419 . S
C1549 C1544 1.425 . S
C1549 C1546 1.409 . S
C1549 C1547 1.415 . S
C1550 H1540 0.930 . S
C1550 C1548 1.419 . S
C1550 C1551 1.362 . S
C1551 H1541 0.930 . S
C1551 C1544 1.409 . S
C1551 C1550 1.362 . S
H1552 C1558 0.930 . S
H1553 C1561 0.930 . S
H1554 C1562 0.930 . S
H1555 C1563 0.930 . S
H1556 C1566 0.930 . S
H1557 C1567 0.930 . S
C1558 H1552 0.930 . S
C1558 C1559 1.355 . S
C1558 C1560 1.415 . S
C1559 C1558 1.355 . S
C1559 C1561 1.419 . S
C1560 C1558 1.415 . S
C1560 C1565 1.425 . S
C1560 C1567 1.409 . S
C1561 H1553 0.930 . S
C1561 C1559 1.419 . S
C1561 C1562 1.362 . S
C1562 H1554 0.930 . S
C1562 C1561 1.362 . S
C1562 C1565 1.409 . S
C1563 H1555 0.930 . S
C1563 C1564 1.355 . S
C1563 C1565 1.415 . S
C1564 C1563 1.355 . S
C1564 C1566 1.419 . S
C1565 C1560 1.425 . S
C1565 C1562 1.409 . S
C1565 C1563 1.415 . S
C1566 H1556 0.930 . S
C1566 C1564 1.419 . S
C1566 C1567 1.362 . S
C1567 H1557 0.930 . S
C1567 C1560 1.409 . S
C1567 C1566 1.362 . S
H1568 C1574 0.930 . S
H1569 C1577 0.930 . S
H1570 C1578 0.930 . S
H1571 C1579 0.930 . S
H1572 C1582 0.930 . S
H1573 C1583 0.930 . S
C1574 H1568 0.930 . S
C1574 C1575 1.355 . S
C1574 C1576 1.415 . S
C1575 C1574 1.355 . S
C1575 C1577 1.419 . S
C1576 C1574 1.415 . S
C1576 C1581 1.425 . S
C1576 C1583 1.409 . S
C1577 H1569 0.930 . S
C1577 C1575 1.419 . S
C1577 C1578 1.362 . S
C1578 H1570 0.930 . S
C1578 C1577 1.362 . S
C1578 C1581 1.409 . S
C1579 H1571 0.930 . S
C1579 C1580 1.355 . S
C1579 C1581 1.415 . S
C1580 C1579 1.355 . S
C1580 C1582 1.419 . S
C1581 C1576 1.425 . S
C1581 C1578 1.409 . S
C1581 C1579 1.415 . S
C1582 H1572 0.930 . S
C1582 C1580 1.419 . S
C1582 C1583 1.362 . S
C1583 H1573 0.930 . S
C1583 C1576 1.409 . S
C1583 C1582 1.362 . S
H1584 C1590 0.930 . S
H1585 C1593 0.930 . S
H1586 C1594 0.930 . S
H1587 C1595 0.930 . S
H1588 C1598 0.930 . S
H1589 C1599 0.930 . S
C1590 H1584 0.930 . S
C1590 C1591 1.355 . S
C1590 C1592 1.415 . S
C1591 C1590 1.355 . S
C1591 C1593 1.419 . S
C1592 C1590 1.415 . S
C1592 C1597 1.425 . S
C1592 C1599 1.409 . S
C1593 H1585 0.930 . S
C1593 C1591 1.419 . S
C1593 C1594 1.362 . S
C1594 H1586 0.930 . S
C1594 C1593 1.362 . S
C1594 C1597 1.409 . S
C1595 H1587 0.930 . S
C1595 C1596 1.355 . S
C1595 C1597 1.415 . S
C1596 C1595 1.355 . S
C1596 C1598 1.419 . S
C1597 C1592 1.425 . S
C1597 C1594 1.409 . S
C1597 C1595 1.415 . S
C1598 H1588 0.930 . S
C1598 C1596 1.419 . S
C1598 C1599 1.362 . S
C1599 H1589 0.930 . S
C1599 C1592 1.409 . S
C1599 C1598 1.362 . S
H1600 C1606 0.930 . S
H1601 C1609 0.930 . S
H1602 C1610 0.930 1_565 S
H1603 C1611 0.930 . S
H1604 C1614 0.930 . S
H1605 C1615 0.930 1_545 S
C1606 H1600 0.930 . S
C1606 C1607 1.355 . S
C1606 C1608 1.415 . S
C1607 C1606 1.355 . S
C1607 C1609 1.419 . S
C1608 C1606 1.415 . S
C1608 C1613 1.425 1_545 S
C1608 C1615 1.409 1_545 S
C1609 H1601 0.930 . S
C1609 C1607 1.419 . S
C1609 C1610 1.362 . S
C1610 H1602 0.930 1_545 S
C1610 C1609 1.362 . S
C1610 C1613 1.409 1_545 S
C1611 H1603 0.930 . S
C1611 C1612 1.355 . S
C1611 C1613 1.415 . S
C1612 C1611 1.355 . S
C1612 C1614 1.419 . S
C1613 C1608 1.425 1_565 S
C1613 C1610 1.409 1_565 S
C1613 C1611 1.415 . S
C1614 H1604 0.930 . S
C1614 C1612 1.419 . S
C1614 C1615 1.362 . S
C1615 H1605 0.930 1_565 S
C1615 C1608 1.409 1_565 S
C1615 C1614 1.362 . S
H1616 C1622 0.930 . S
H1617 C1625 0.930 . S
H1618 C1626 0.930 . S
H1619 C1627 0.930 . S
H1620 C1630 0.930 . S
H1621 C1631 0.930 . S
C1622 H1616 0.930 . S
C1622 C1623 1.355 . S
C1622 C1624 1.415 . S
C1623 C1622 1.355 . S
C1623 C1625 1.419 . S
C1624 C1622 1.415 . S
C1624 C1629 1.425 . S
C1624 C1631 1.409 . S
C1625 H1617 0.930 . S
C1625 C1623 1.419 . S
C1625 C1626 1.362 . S
C1626 H1618 0.930 . S
C1626 C1625 1.362 . S
C1626 C1629 1.409 . S
C1627 H1619 0.930 . S
C1627 C1628 1.355 . S
C1627 C1629 1.415 . S
C1628 C1627 1.355 . S
C1628 C1630 1.419 . S
C1629 C1624 1.425 . S
C1629 C1626 1.409 . S
C1629 C1627 1.415 . S
C1630 H1620 0.930 . S
C1630 C1628 1.419 . S
C1630 C1631 1.362 . S
C1631 H1621 0.930 . S
C1631 C1624 1.409 . S
C1631 C1630 1.362 . S
H1632 C1638 0.930 . S
H1633 C1641 0.930 . S
H1634 C1642 0.930 . S
H1635 C1643 0.930 . S
H1636 C1646 0.930 . S
H1637 C1647 0.930 . S
C1638 H1632 0.930 . S
C1638 C1639 1.355 . S
C1638 C1640 1.415 . S
C1639 C1638 1.355 . S
C1639 C1641 1.419 . S
C1640 C1638 1.415 . S
C1640 C1645 1.425 1_545 S
C1640 C1647 1.409 . S
C1641 H1633 0.930 . S
C1641 C1639 1.419 . S
C1641 C1642 1.362 1_545 S
C1642 H1634 0.930 . S
C1642 C1641 1.362 1_565 S
C1642 C1645 1.409 . S
C1643 H1635 0.930 . S
C1643 C1644 1.355 . S
C1643 C1645 1.415 . S
C1644 C1643 1.355 . S
C1644 C1646 1.419 . S
C1645 C1640 1.425 1_565 S
C1645 C1642 1.409 . S
C1645 C1643 1.415 . S
C1646 H1636 0.930 . S
C1646 C1644 1.419 . S
C1646 C1647 1.362 1_565 S
C1647 H1637 0.930 . S
C1647 C1640 1.409 . S
C1647 C1646 1.362 1_545 S
H1648 C1654 0.930 . S
H1649 C1657 0.930 . S
H1650 C1658 0.930 . S
H1651 C1659 0.930 . S
H1652 C1662 0.930 . S
H1653 C1663 0.930 . S
C1654 H1648 0.930 . S
C1654 C1655 1.355 . S
C1654 C1656 1.415 . S
C1655 C1654 1.355 . S
C1655 C1657 1.419 . S
C1656 C1654 1.415 . S
C1656 C1661 1.425 1_554 S
C1656 C1663 1.409 . S
C1657 H1649 0.930 . S
C1657 C1655 1.419 . S
C1657 C1658 1.362 1_554 S
C1658 H1650 0.930 . S
C1658 C1657 1.362 1_556 S
C1658 C1661 1.409 . S
C1659 H1651 0.930 . S
C1659 C1660 1.355 . S
C1659 C1661 1.415 . S
C1660 C1659 1.355 . S
C1660 C1662 1.419 . S
C1661 C1656 1.425 1_556 S
C1661 C1658 1.409 . S
C1661 C1659 1.415 . S
C1662 H1652 0.930 . S
C1662 C1660 1.419 . S
C1662 C1663 1.362 1_556 S
C1663 H1653 0.930 . S
C1663 C1656 1.409 . S
C1663 C1662 1.362 1_554 S
H1664 C1670 0.930 . S
H1665 C1673 0.930 . S
H1666 C1674 0.930 . S
H1667 C1675 0.930 . S
H1668 C1678 0.930 . S
H1669 C1679 0.930 . S
C1670 H1664 0.930 . S
C1670 C1671 1.355 . S
C1670 C1672 1.415 . S
C1671 C1670 1.355 . S
C1671 C1673 1.419 . S
C1672 C1670 1.415 . S
C1672 C1677 1.425 1_565 S
C1672 C1679 1.409 . S
C1673 H1665 0.930 . S
C1673 C1671 1.419 . S
C1673 C1674 1.362 1_565 S
C1674 H1666 0.930 . S
C1674 C1673 1.362 1_545 S
C1674 C1677 1.409 . S
C1675 H1667 0.930 . S
C1675 C1676 1.355 . S
C1675 C1677 1.415 . S
C1676 C1675 1.355 . S
C1676 C1678 1.419 . S
C1677 C1672 1.425 1_545 S
C1677 C1674 1.409 . S
C1677 C1675 1.415 . S
C1678 H1668 0.930 . S
C1678 C1676 1.419 . S
C1678 C1679 1.362 1_545 S
C1679 H1669 0.930 . S
C1679 C1672 1.409 . S
C1679 C1678 1.362 1_565 S
H1680 C1686 0.930 . S
H1681 C1689 0.930 . S
H1682 C1690 0.930 . S
H1683 C1691 0.930 . S
H1684 C1694 0.930 . S
H1685 C1695 0.930 . S
C1686 H1680 0.930 . S
C1686 C1687 1.355 . S
C1686 C1688 1.415 . S
C1687 C1686 1.355 . S
C1687 C1689 1.419 . S
C1688 C1686 1.415 . S
C1688 C1693 1.425 . S
C1688 C1695 1.409 . S
C1689 H1681 0.930 . S
C1689 C1687 1.419 . S
C1689 C1690 1.362 . S
C1690 H1682 0.930 . S
C1690 C1689 1.362 . S
C1690 C1693 1.409 . S
C1691 H1683 0.930 . S
C1691 C1692 1.355 . S
C1691 C1693 1.415 . S
C1692 C1691 1.355 . S
C1692 C1694 1.419 . S
C1693 C1688 1.425 . S
C1693 C1690 1.409 . S
C1693 C1691 1.415 . S
C1694 H1684 0.930 . S
C1694 C1692 1.419 . S
C1694 C1695 1.362 . S
C1695 H1685 0.930 . S
C1695 C1688 1.409 . S
C1695 C1694 1.362 . S
H1696 C1702 0.930 . S
H1697 C1705 0.930 . S
H1698 C1706 0.930 . S
H1699 C1707 0.930 . S
H1700 C1710 0.930 . S
H1701 C1711 0.930 . S
C1702 H1696 0.930 . S
C1702 C1703 1.355 . S
C1702 C1704 1.415 . S
C1703 C1702 1.355 . S
C1703 C1705 1.419 . S
C1704 C1702 1.415 . S
C1704 C1709 1.425 1_545 S
C1704 C1711 1.409 . S
C1705 H1697 0.930 . S
C1705 C1703 1.419 . S
C1705 C1706 1.362 1_545 S
C1706 H1698 0.930 . S
C1706 C1705 1.362 1_565 S
C1706 C1709 1.409 . S
C1707 H1699 0.930 . S
C1707 C1708 1.355 . S
C1707 C1709 1.415 . S
C1708 C1707 1.355 . S
C1708 C1710 1.419 . S
C1709 C1704 1.425 1_565 S
C1709 C1706 1.409 . S
C1709 C1707 1.415 . S
C1710 H1700 0.930 . S
C1710 C1708 1.419 . S
C1710 C1711 1.362 1_565 S
C1711 H1701 0.930 . S
C1711 C1704 1.409 . S
C1711 C1710 1.362 1_545 S
H1712 C1718 0.930 . S
H1713 C1721 0.930 . S
H1714 C1722 0.930 . S
H1715 C1723 0.930 . S
H1716 C1726 0.930 . S
H1717 C1727 0.930 . S
C1718 H1712 0.930 . S
C1718 C1719 1.355 . S
C1718 C1720 1.415 1_556 S
C1719 C1718 1.355 . S
C1719 C1721 1.419 . S
C1720 C1718 1.415 1_554 S
C1720 C1725 1.425 1_554 S
C1720 C1727 1.409 . S
C1721 H1713 0.930 . S
C1721 C1719 1.419 . S
C1721 C1722 1.362 . S
C1722 H1714 0.930 . S
C1722 C1721 1.362 . S
C1722 C1725 1.409 . S
C1723 H1715 0.930 . S
C1723 C1724 1.355 . S
C1723 C1725 1.415 1_554 S
C1724 C1723 1.355 . S
C1724 C1726 1.419 . S
C1725 C1720 1.425 1_556 S
C1725 C1722 1.409 . S
C1725 C1723 1.415 1_556 S
C1726 H1716 0.930 . S
C1726 C1724 1.419 . S
C1726 C1727 1.362 . S
C1727 H1717 0.930 . S
C1727 C1720 1.409 . S
C1727 C1726 1.362 . S
H1728 C1734 0.930 . S
H1729 C1737 0.930 . S
H1730 C1738 0.930 . S
H1731 C1739 0.930 . S
H1732 C1742 0.930 . S
H1733 C1743 0.930 . S
C1734 H1728 0.930 . S
C1734 C1735 1.355 . S
C1734 C1736 1.415 . S
C1735 C1734 1.355 . S
C1735 C1737 1.419 . S
C1736 C1734 1.415 . S
C1736 C1741 1.425 . S
C1736 C1743 1.409 . S
C1737 H1729 0.930 . S
C1737 C1735 1.419 . S
C1737 C1738 1.362 . S
C1738 H1730 0.930 . S
C1738 C1737 1.362 . S
C1738 C1741 1.409 . S
C1739 H1731 0.930 . S
C1739 C1740 1.355 . S
C1739 C1741 1.415 . S
C1740 C1739 1.355 . S
C1740 C1742 1.419 . S
C1741 C1736 1.425 . S
C1741 C1738 1.409 . S
C1741 C1739 1.415 . S
C1742 H1732 0.930 . S
C1742 C1740 1.419 . S
C1742 C1743 1.362 . S
C1743 H1733 0.930 . S
C1743 C1736 1.409 . S
C1743 C1742 1.362 . S
H1744 C1750 0.930 . S
H1745 C1753 0.930 . S
H1746 C1754 0.930 . S
H1747 C1755 0.930 . S
H1748 C1758 0.930 . S
H1749 C1759 0.930 . S
C1750 H1744 0.930 . S
C1750 C1751 1.355 . S
C1750 C1752 1.415 . S
C1751 C1750 1.355 . S
C1751 C1753 1.419 . S
C1752 C1750 1.415 . S
C1752 C1757 1.425 1_556 S
C1752 C1759 1.409 . S
C1753 H1745 0.930 . S
C1753 C1751 1.419 . S
C1753 C1754 1.362 1_556 S
C1754 H1746 0.930 . S
C1754 C1753 1.362 1_554 S
C1754 C1757 1.409 . S
C1755 H1747 0.930 . S
C1755 C1756 1.355 . S
C1755 C1757 1.415 . S
C1756 C1755 1.355 . S
C1756 C1758 1.419 . S
C1757 C1752 1.425 1_554 S
C1757 C1754 1.409 . S
C1757 C1755 1.415 . S
C1758 H1748 0.930 . S
C1758 C1756 1.419 . S
C1758 C1759 1.362 1_554 S
C1759 H1749 0.930 . S
C1759 C1752 1.409 . S
C1759 C1758 1.362 1_556 S
H1760 C1766 0.930 . S
H1761 C1769 0.930 . S
H1762 C1770 0.930 . S
H1763 C1771 0.930 . S
H1764 C1774 0.930 . S
H1765 C1775 0.930 . S
C1766 H1760 0.930 . S
C1766 C1767 1.355 . S
C1766 C1768 1.415 . S
C1767 C1766 1.355 . S
C1767 C1769 1.419 . S
C1768 C1766 1.415 . S
C1768 C1773 1.425 . S
C1768 C1775 1.409 . S
C1769 H1761 0.930 . S
C1769 C1767 1.419 . S
C1769 C1770 1.362 . S
C1770 H1762 0.930 . S
C1770 C1769 1.362 . S
C1770 C1773 1.409 . S
C1771 H1763 0.930 . S
C1771 C1772 1.355 . S
C1771 C1773 1.415 . S
C1772 C1771 1.355 . S
C1772 C1774 1.419 . S
C1773 C1768 1.425 . S
C1773 C1770 1.409 . S
C1773 C1771 1.415 . S
C1774 H1764 0.930 . S
C1774 C1772 1.419 . S
C1774 C1775 1.362 . S
C1775 H1765 0.930 . S
C1775 C1768 1.409 . S
C1775 C1774 1.362 . S
H1776 C1782 0.930 . S
H1777 C1785 0.930 . S
H1778 C1786 0.930 . S
H1779 C1787 0.930 . S
H1780 C1790 0.930 . S
H1781 C1791 0.930 . S
C1782 H1776 0.930 . S
C1782 C1783 1.355 . S
C1782 C1784 1.415 . S
C1783 C1782 1.355 . S
C1783 C1785 1.419 . S
C1784 C1782 1.415 . S
C1784 C1789 1.425 . S
C1784 C1791 1.409 . S
C1785 H1777 0.930 . S
C1785 C1783 1.419 . S
C1785 C1786 1.362 . S
C1786 H1778 0.930 . S
C1786 C1785 1.362 . S
C1786 C1789 1.409 . S
C1787 H1779 0.930 . S
C1787 C1788 1.355 . S
C1787 C1789 1.415 . S
C1788 C1787 1.355 . S
C1788 C1790 1.419 . S
C1789 C1784 1.425 . S
C1789 C1786 1.409 . S
C1789 C1787 1.415 . S
C1790 H1780 0.930 . S
C1790 C1788 1.419 . S
C1790 C1791 1.362 . S
C1791 H1781 0.930 . S
C1791 C1784 1.409 . S
C1791 C1790 1.362 . S
H1792 C1798 0.930 . S
H1793 C1801 0.930 . S
H1794 C1802 0.930 . S
H1795 C1803 0.930 . S
H1796 C1806 0.930 . S
H1797 C1807 0.930 . S
C1798 H1792 0.930 . S
C1798 C1799 1.355 . S
C1798 C1800 1.415 . S
C1799 C1798 1.355 . S
C1799 C1801 1.419 . S
C1800 C1798 1.415 . S
C1800 C1805 1.425 . S
C1800 C1807 1.409 . S
C1801 H1793 0.930 . S
C1801 C1799 1.419 . S
C1801 C1802 1.362 . S
C1802 H1794 0.930 . S
C1802 C1801 1.362 . S
C1802 C1805 1.409 . S
C1803 H1795 0.930 . S
C1803 C1804 1.355 . S
C1803 C1805 1.415 . S
C1804 C1803 1.355 . S
C1804 C1806 1.419 . S
C1805 C1800 1.425 . S
C1805 C1802 1.409 . S
C1805 C1803 1.415 . S
C1806 H1796 0.930 . S
C1806 C1804 1.419 . S
C1806 C1807 1.362 . S
C1807 H1797 0.930 . S
C1807 C1800 1.409 . S
C1807 C1806 1.362 . S
H1808 C1814 0.930 . S
H1809 C1817 0.930 . S
H1810 C1818 0.930 . S
H1811 C1819 0.930 . S
H1812 C1822 0.930 . S
H1813 C1823 0.930 . S
C1814 H1808 0.930 . S
C1814 C1815 1.355 . S
C1814 C1816 1.415 1_556 S
C1815 C1814 1.355 . S
C1815 C1817 1.419 . S
C1816 C1814 1.415 1_554 S
C1816 C1821 1.425 1_554 S
C1816 C1823 1.409 . S
C1817 H1809 0.930 . S
C1817 C1815 1.419 . S
C1817 C1818 1.362 . S
C1818 H1810 0.930 . S
C1818 C1817 1.362 . S
C1818 C1821 1.409 . S
C1819 H1811 0.930 . S
C1819 C1820 1.355 . S
C1819 C1821 1.415 1_554 S
C1820 C1819 1.355 . S
C1820 C1822 1.419 . S
C1821 C1816 1.425 1_556 S
C1821 C1818 1.409 . S
C1821 C1819 1.415 1_556 S
C1822 H1812 0.930 . S
C1822 C1820 1.419 . S
C1822 C1823 1.362 . S
C1823 H1813 0.930 . S
C1823 C1816 1.409 . S
C1823 C1822 1.362 . S
H1824 C1830 0.930 . S
H1825 C1833 0.930 . S
H1826 C1834 0.930 . S
H1827 C1835 0.930 . S
H1828 C1838 0.930 . S
H1829 C1839 0.930 . S
C1830 H1824 0.930 . S
C1830 C1831 1.355 . S
C1830 C1832 1.415 . S
C1831 C1830 1.355 . S
C1831 C1833 1.419 . S
C1832 C1830 1.415 . S
C1832 C1837 1.425 . S
C1832 C1839 1.409 . S
C1833 H1825 0.930 . S
C1833 C1831 1.419 . S
C1833 C1834 1.362 . S
C1834 H1826 0.930 . S
C1834 C1833 1.362 . S
C1834 C1837 1.409 . S
C1835 H1827 0.930 . S
C1835 C1836 1.355 . S
C1835 C1837 1.415 . S
C1836 C1835 1.355 . S
C1836 C1838 1.419 . S
C1837 C1832 1.425 . S
C1837 C1834 1.409 . S
C1837 C1835 1.415 . S
C1838 H1828 0.930 . S
C1838 C1836 1.419 . S
C1838 C1839 1.362 . S
C1839 H1829 0.930 . S
C1839 C1832 1.409 . S
C1839 C1838 1.362 . S
H1840 C1846 0.930 . S
H1841 C1849 0.930 . S
H1842 C1850 0.930 . S
H1843 C1851 0.930 . S
H1844 C1854 0.930 . S
H1845 C1855 0.930 . S
C1846 H1840 0.930 . S
C1846 C1847 1.355 . S
C1846 C1848 1.415 . S
C1847 C1846 1.355 . S
C1847 C1849 1.419 . S
C1848 C1846 1.415 . S
C1848 C1853 1.425 . S
C1848 C1855 1.409 . S
C1849 H1841 0.930 . S
C1849 C1847 1.419 . S
C1849 C1850 1.362 . S
C1850 H1842 0.930 . S
C1850 C1849 1.362 . S
C1850 C1853 1.409 . S
C1851 H1843 0.930 . S
C1851 C1852 1.355 . S
C1851 C1853 1.415 . S
C1852 C1851 1.355 . S
C1852 C1854 1.419 . S
C1853 C1848 1.425 . S
C1853 C1850 1.409 . S
C1853 C1851 1.415 . S
C1854 H1844 0.930 . S
C1854 C1852 1.419 . S
C1854 C1855 1.362 . S
C1855 H1845 0.930 . S
C1855 C1848 1.409 . S
C1855 C1854 1.362 . S
H1856 C1862 0.930 . S
H1857 C1865 0.930 . S
H1858 C1866 0.930 . S
H1859 C1867 0.930 . S
H1860 C1870 0.930 . S
H1861 C1871 0.930 . S
C1862 H1856 0.930 . S
C1862 C1863 1.355 . S
C1862 C1864 1.415 . S
C1863 C1862 1.355 . S
C1863 C1865 1.419 . S
C1864 C1862 1.415 . S
C1864 C1869 1.425 . S
C1864 C1871 1.409 . S
C1865 H1857 0.930 . S
C1865 C1863 1.419 . S
C1865 C1866 1.362 . S
C1866 H1858 0.930 . S
C1866 C1865 1.362 . S
C1866 C1869 1.409 . S
C1867 H1859 0.930 . S
C1867 C1868 1.355 . S
C1867 C1869 1.415 . S
C1868 C1867 1.355 . S
C1868 C1870 1.419 . S
C1869 C1864 1.425 . S
C1869 C1866 1.409 . S
C1869 C1867 1.415 . S
C1870 H1860 0.930 . S
C1870 C1868 1.419 . S
C1870 C1871 1.362 . S
C1871 H1861 0.930 . S
C1871 C1864 1.409 . S
C1871 C1870 1.362 . S
H1872 C1878 0.930 . S
H1873 C1881 0.930 . S
H1874 C1882 0.930 . S
H1875 C1883 0.930 . S
H1876 C1886 0.930 . S
H1877 C1887 0.930 . S
C1878 H1872 0.930 . S
C1878 C1879 1.355 . S
C1878 C1880 1.415 . S
C1879 C1878 1.355 . S
C1879 C1881 1.419 . S
C1880 C1878 1.415 . S
C1880 C1885 1.425 . S
C1880 C1887 1.409 . S
C1881 H1873 0.930 . S
C1881 C1879 1.419 . S
C1881 C1882 1.362 . S
C1882 H1874 0.930 . S
C1882 C1881 1.362 . S
C1882 C1885 1.409 . S
C1883 H1875 0.930 . S
C1883 C1884 1.355 . S
C1883 C1885 1.415 . S
C1884 C1883 1.355 . S
C1884 C1886 1.419 . S
C1885 C1880 1.425 . S
C1885 C1882 1.409 . S
C1885 C1883 1.415 . S
C1886 H1876 0.930 . S
C1886 C1884 1.419 . S
C1886 C1887 1.362 . S
C1887 H1877 0.930 . S
C1887 C1880 1.409 . S
C1887 C1886 1.362 . S
H1888 C1894 0.930 . S
H1889 C1897 0.930 . S
H1890 C1898 0.930 . S
H1891 C1899 0.930 . S
H1892 C1902 0.930 . S
H1893 C1903 0.930 . S
C1894 H1888 0.930 . S
C1894 C1895 1.355 . S
C1894 C1896 1.415 . S
C1895 C1894 1.355 . S
C1895 C1897 1.419 . S
C1896 C1894 1.415 . S
C1896 C1901 1.425 . S
C1896 C1903 1.409 . S
C1897 H1889 0.930 . S
C1897 C1895 1.419 . S
C1897 C1898 1.362 . S
C1898 H1890 0.930 . S
C1898 C1897 1.362 . S
C1898 C1901 1.409 . S
C1899 H1891 0.930 . S
C1899 C1900 1.355 . S
C1899 C1901 1.415 . S
C1900 C1899 1.355 . S
C1900 C1902 1.419 . S
C1901 C1896 1.425 . S
C1901 C1898 1.409 . S
C1901 C1899 1.415 . S
C1902 H1892 0.930 . S
C1902 C1900 1.419 . S
C1902 C1903 1.362 . S
C1903 H1893 0.930 . S
C1903 C1896 1.409 . S
C1903 C1902 1.362 . S
H1904 C1910 0.930 . S
H1905 C1913 0.930 . S
H1906 C1914 0.930 . S
H1907 C1915 0.930 . S
H1908 C1918 0.930 . S
H1909 C1919 0.930 . S
C1910 H1904 0.930 . S
C1910 C1911 1.355 . S
C1910 C1912 1.415 . S
C1911 C1910 1.355 . S
C1911 C1913 1.419 . S
C1912 C1910 1.415 . S
C1912 C1917 1.425 . S
C1912 C1919 1.409 . S
C1913 H1905 0.930 . S
C1913 C1911 1.419 . S
C1913 C1914 1.362 . S
C1914 H1906 0.930 . S
C1914 C1913 1.362 . S
C1914 C1917 1.409 . S
C1915 H1907 0.930 . S
C1915 C1916 1.355 . S
C1915 C1917 1.415 . S
C1916 C1915 1.355 . S
C1916 C1918 1.419 . S
C1917 C1912 1.425 . S
C1917 C1914 1.409 . S
C1917 C1915 1.415 . S
C1918 H1908 0.930 . S
C1918 C1916 1.419 . S
C1918 C1919 1.362 . S
C1919 H1909 0.930 . S
C1919 C1912 1.409 . S
C1919 C1918 1.362 . S
H1920 C1926 0.930 . S
H1921 C1929 0.930 . S
H1922 C1930 0.930 . S
H1923 C1931 0.930 . S
H1924 C1934 0.930 . S
H1925 C1935 0.930 . S
C1926 H1920 0.930 . S
C1926 C1927 1.355 . S
C1926 C1928 1.415 . S
C1927 C1926 1.355 . S
C1927 C1929 1.419 . S
C1928 C1926 1.415 . S
C1928 C1933 1.425 . S
C1928 C1935 1.409 . S
C1929 H1921 0.930 . S
C1929 C1927 1.419 . S
C1929 C1930 1.362 . S
C1930 H1922 0.930 . S
C1930 C1929 1.362 . S
C1930 C1933 1.409 . S
C1931 H1923 0.930 . S
C1931 C1932 1.355 . S
C1931 C1933 1.415 . S
C1932 C1931 1.355 . S
C1932 C1934 1.419 . S
C1933 C1928 1.425 . S
C1933 C1930 1.409 . S
C1933 C1931 1.415 . S
C1934 H1924 0.930 . S
C1934 C1932 1.419 . S
C1934 C1935 1.362 . S
C1935 H1925 0.930 . S
C1935 C1928 1.409 . S
C1935 C1934 1.362 . S
H1936 C1942 0.930 . S
H1937 C1945 0.930 . S
H1938 C1946 0.930 . S
H1939 C1947 0.930 . S
H1940 C1950 0.930 . S
H1941 C1951 0.930 . S
C1942 H1936 0.930 . S
C1942 C1943 1.355 . S
C1942 C1944 1.415 . S
C1943 C1942 1.355 . S
C1943 C1945 1.419 . S
C1944 C1942 1.415 . S
C1944 C1949 1.425 . S
C1944 C1951 1.409 . S
C1945 H1937 0.930 . S
C1945 C1943 1.419 . S
C1945 C1946 1.362 . S
C1946 H1938 0.930 . S
C1946 C1945 1.362 . S
C1946 C1949 1.409 . S
C1947 H1939 0.930 . S
C1947 C1948 1.355 . S
C1947 C1949 1.415 . S
C1948 C1947 1.355 . S
C1948 C1950 1.419 . S
C1949 C1944 1.425 . S
C1949 C1946 1.409 . S
C1949 C1947 1.415 . S
C1950 H1940 0.930 . S
C1950 C1948 1.419 . S
C1950 C1951 1.362 . S
C1951 H1941 0.930 . S
C1951 C1944 1.409 . S
C1951 C1950 1.362 . S
H1952 C1958 0.930 . S
H1953 C1961 0.930 . S
H1954 C1962 0.930 . S
H1955 C1963 0.930 . S
H1956 C1966 0.930 1_565 S
H1957 C1967 0.930 . S
C1958 H1952 0.930 . S
C1958 C1959 1.355 . S
C1958 C1960 1.415 . S
C1959 C1958 1.355 . S
C1959 C1961 1.419 . S
C1960 C1958 1.415 . S
C1960 C1965 1.425 . S
C1960 C1967 1.409 . S
C1961 H1953 0.930 . S
C1961 C1959 1.419 . S
C1961 C1962 1.362 . S
C1962 H1954 0.930 . S
C1962 C1961 1.362 . S
C1962 C1965 1.409 . S
C1963 H1955 0.930 . S
C1963 C1964 1.355 . S
C1963 C1965 1.415 . S
C1964 C1963 1.355 . S
C1964 C1966 1.419 . S
C1965 C1960 1.425 . S
C1965 C1962 1.409 . S
C1965 C1963 1.415 . S
C1966 H1956 0.930 1_545 S
C1966 C1964 1.419 . S
C1966 C1967 1.362 . S
C1967 H1957 0.930 . S
C1967 C1960 1.409 . S
C1967 C1966 1.362 . S
H1968 C1974 0.930 . S
H1969 C1977 0.930 . S
H1970 C1978 0.930 . S
H1971 C1979 0.930 . S
H1972 C1982 0.930 . S
H1973 C1983 0.930 . S
C1974 H1968 0.930 . S
C1974 C1975 1.355 . S
C1974 C1976 1.415 . S
C1975 C1974 1.355 . S
C1975 C1977 1.419 . S
C1976 C1974 1.415 . S
C1976 C1981 1.425 . S
C1976 C1983 1.409 . S
C1977 H1969 0.930 . S
C1977 C1975 1.419 . S
C1977 C1978 1.362 . S
C1978 H1970 0.930 . S
C1978 C1977 1.362 . S
C1978 C1981 1.409 . S
C1979 H1971 0.930 . S
C1979 C1980 1.355 . S
C1979 C1981 1.415 . S
C1980 C1979 1.355 . S
C1980 C1982 1.419 . S
C1981 C1976 1.425 . S
C1981 C1978 1.409 . S
C1981 C1979 1.415 . S
C1982 H1972 0.930 . S
C1982 C1980 1.419 . S
C1982 C1983 1.362 . S
C1983 H1973 0.930 . S
C1983 C1976 1.409 . S
C1983 C1982 1.362 . S
H1984 C1990 0.930 . S
H1985 C1993 0.930 . S
H1986 C1994 0.930 . S
H1987 C1995 0.930 . S
H1988 C1998 0.930 . S
H1989 C1999 0.930 . S
C1990 H1984 0.930 . S
C1990 C1991 1.355 . S
C1990 C1992 1.415 . S
C1991 C1990 1.355 . S
C1991 C1993 1.419 . S
C1992 C1990 1.415 . S
C1992 C1997 1.425 . S
C1992 C1999 1.409 . S
C1993 H1985 0.930 . S
C1993 C1991 1.419 . S
C1993 C1994 1.362 . S
C1994 H1986 0.930 . S
C1994 C1993 1.362 . S
C1994 C1997 1.409 . S
C1995 H1987 0.930 . S
C1995 C1996 1.355 . S
C1995 C1997 1.415 . S
C1996 C1995 1.355 . S
C1996 C1998 1.419 . S
C1997 C1992 1.425 . S
C1997 C1994 1.409 . S
C1997 C1995 1.415 . S
C1998 H1988 0.930 . S
C1998 C1996 1.419 . S
C1998 C1999 1.362 . S
C1999 H1989 0.930 . S
C1999 C1992 1.409 . S
C1999 C1998 1.362 . S
H2000 C2006 0.930 . S
H2001 C2009 0.930 . S
H2002 C2010 0.930 . S
H2003 C2011 0.930 . S
H2004 C2014 0.930 . S
H2005 C2015 0.930 . S
C2006 H2000 0.930 . S
C2006 C2007 1.355 . S
C2006 C2008 1.415 . S
C2007 C2006 1.355 . S
C2007 C2009 1.419 . S
C2008 C2006 1.415 . S
C2008 C2013 1.425 . S
C2008 C2015 1.409 . S
C2009 H2001 0.930 . S
C2009 C2007 1.419 . S
C2009 C2010 1.362 . S
C2010 H2002 0.930 . S
C2010 C2009 1.362 . S
C2010 C2013 1.409 . S
C2011 H2003 0.930 . S
C2011 C2012 1.355 . S
C2011 C2013 1.415 . S
C2012 C2011 1.355 . S
C2012 C2014 1.419 . S
C2013 C2008 1.425 . S
C2013 C2010 1.409 . S
C2013 C2011 1.415 . S
C2014 H2004 0.930 . S
C2014 C2012 1.419 . S
C2014 C2015 1.362 . S
C2015 H2005 0.930 . S
C2015 C2008 1.409 . S
C2015 C2014 1.362 . S
H2016 C2022 0.930 . S
H2017 C2025 0.930 . S
H2018 C2026 0.930 . S
H2019 C2027 0.930 . S
H2020 C2030 0.930 . S
H2021 C2031 0.930 . S
C2022 H2016 0.930 . S
C2022 C2023 1.355 . S
C2022 C2024 1.415 . S
C2023 C2022 1.355 . S
C2023 C2025 1.419 . S
C2024 C2022 1.415 . S
C2024 C2029 1.425 . S
C2024 C2031 1.409 . S
C2025 H2017 0.930 . S
C2025 C2023 1.419 . S
C2025 C2026 1.362 . S
C2026 H2018 0.930 . S
C2026 C2025 1.362 . S
C2026 C2029 1.409 . S
C2027 H2019 0.930 . S
C2027 C2028 1.355 . S
C2027 C2029 1.415 . S
C2028 C2027 1.355 . S
C2028 C2030 1.419 . S
C2029 C2024 1.425 . S
C2029 C2026 1.409 . S
C2029 C2027 1.415 . S
C2030 H2020 0.930 . S
C2030 C2028 1.419 . S
C2030 C2031 1.362 . S
C2031 H2021 0.930 . S
C2031 C2024 1.409 . S
C2031 C2030 1.362 . S
H2032 C2038 0.930 . S
H2033 C2041 0.930 . S
H2034 C2042 0.930 . S
H2035 C2043 0.930 . S
H2036 C2046 0.930 . S
H2037 C2047 0.930 . S
C2038 H2032 0.930 . S
C2038 C2039 1.355 . S
C2038 C2040 1.415 . S
C2039 C2038 1.355 . S
C2039 C2041 1.419 . S
C2040 C2038 1.415 . S
C2040 C2045 1.425 . S
C2040 C2047 1.409 . S
C2041 H2033 0.930 . S
C2041 C2039 1.419 . S
C2041 C2042 1.362 . S
C2042 H2034 0.930 . S
C2042 C2041 1.362 . S
C2042 C2045 1.409 . S
C2043 H2035 0.930 . S
C2043 C2044 1.355 . S
C2043 C2045 1.415 . S
C2044 C2043 1.355 . S
C2044 C2046 1.419 . S
C2045 C2040 1.425 . S
C2045 C2042 1.409 . S
C2045 C2043 1.415 . S
C2046 H2036 0.930 . S
C2046 C2044 1.419 . S
C2046 C2047 1.362 . S
C2047 H2037 0.930 . S
C2047 C2040 1.409 . S
C2047 C2046 1.362 . S
H2048 C2054 0.930 . S
H2049 C2057 0.930 . S
H2050 C2058 0.930 . S
H2051 C2059 0.930 . S
H2052 C2062 0.930 . S
H2053 C2063 0.930 . S
C2054 H2048 0.930 . S
C2054 C2055 1.355 . S
C2054 C2056 1.415 . S
C2055 C2054 1.355 . S
C2055 C2057 1.419 . S
C2056 C2054 1.415 . S
C2056 C2061 1.425 . S
C2056 C2063 1.409 . S
C2057 H2049 0.930 . S
C2057 C2055 1.419 . S
C2057 C2058 1.362 . S
C2058 H2050 0.930 . S
C2058 C2057 1.362 . S
C2058 C2061 1.409 . S
C2059 H2051 0.930 . S
C2059 C2060 1.355 . S
C2059 C2061 1.415 . S
C2060 C2059 1.355 . S
C2060 C2062 1.419 . S
C2061 C2056 1.425 . S
C2061 C2058 1.409 . S
C2061 C2059 1.415 . S
C2062 H2052 0.930 . S
C2062 C2060 1.419 . S
C2062 C2063 1.362 . S
C2063 H2053 0.930 . S
C2063 C2056 1.409 . S
C2063 C2062 1.362 . S
H2064 C2070 0.930 . S
H2065 C2073 0.930 . S
H2066 C2074 0.930 . S
H2067 C2075 0.930 . S
H2068 C2078 0.930 . S
H2069 C2079 0.930 . S
C2070 H2064 0.930 . S
C2070 C2071 1.355 . S
C2070 C2072 1.415 . S
C2071 C2070 1.355 . S
C2071 C2073 1.419 . S
C2072 C2070 1.415 . S
C2072 C2077 1.425 . S
C2072 C2079 1.409 . S
C2073 H2065 0.930 . S
C2073 C2071 1.419 . S
C2073 C2074 1.362 . S
C2074 H2066 0.930 . S
C2074 C2073 1.362 . S
C2074 C2077 1.409 . S
C2075 H2067 0.930 . S
C2075 C2076 1.355 . S
C2075 C2077 1.415 . S
C2076 C2075 1.355 . S
C2076 C2078 1.419 . S
C2077 C2072 1.425 . S
C2077 C2074 1.409 . S
C2077 C2075 1.415 . S
C2078 H2068 0.930 . S
C2078 C2076 1.419 . S
C2078 C2079 1.362 . S
C2079 H2069 0.930 . S
C2079 C2072 1.409 . S
C2079 C2078 1.362 . S
H2080 C2086 0.930 . S
H2081 C2089 0.930 . S
H2082 C2090 0.930 . S
H2083 C2091 0.930 . S
H2084 C2094 0.930 . S
H2085 C2095 0.930 . S
C2086 H2080 0.930 . S
C2086 C2087 1.355 . S
C2086 C2088 1.415 . S
C2087 C2086 1.355 . S
C2087 C2089 1.419 . S
C2088 C2086 1.415 . S
C2088 C2093 1.425 . S
C2088 C2095 1.409 . S
C2089 H2081 0.930 . S
C2089 C2087 1.419 . S
C2089 C2090 1.362 . S
C2090 H2082 0.930 . S
C2090 C2089 1.362 . S
C2090 C2093 1.409 . S
C2091 H2083 0.930 . S
C2091 C2092 1.355 . S
C2091 C2093 1.415 . S
C2092 C2091 1.355 . S
C2092 C2094 1.419 . S
C2093 C2088 1.425 . S
C2093 C2090 1.409 . S
C2093 C2091 1.415 . S
C2094 H2084 0.930 . S
C2094 C2092 1.419 . S
C2094 C2095 1.362 . S
C2095 H2085 0.930 . S
C2095 C2088 1.409 . S
C2095 C2094 1.362 . S
H2096 C2102 0.930 . S
H2097 C2105 0.930 . S
H2098 C2106 0.930 . S
H2099 C2107 0.930 . S
H2100 C2110 0.930 . S
H2101 C2111 0.930 . S
C2102 H2096 0.930 . S
C2102 C2103 1.355 . S
C2102 C2104 1.415 . S
C2103 C2102 1.355 . S
C2103 C2105 1.419 . S
C2104 C2102 1.415 . S
C2104 C2109 1.425 . S
C2104 C2111 1.409 . S
C2105 H2097 0.930 . S
C2105 C2103 1.419 . S
C2105 C2106 1.362 . S
C2106 H2098 0.930 . S
C2106 C2105 1.362 . S
C2106 C2109 1.409 . S
C2107 H2099 0.930 . S
C2107 C2108 1.355 . S
C2107 C2109 1.415 . S
C2108 C2107 1.355 . S
C2108 C2110 1.419 . S
C2109 C2104 1.425 . S
C2109 C2106 1.409 . S
C2109 C2107 1.415 . S
C2110 H2100 0.930 . S
C2110 C2108 1.419 . S
C2110 C2111 1.362 . S
C2111 H2101 0.930 . S
C2111 C2104 1.409 . S
C2111 C2110 1.362 . S
H2112 C2118 0.930 . S
H2113 C2121 0.930 . S
H2114 C2122 0.930 . S
H2115 C2123 0.930 . S
H2116 C2126 0.930 . S
H2117 C2127 0.930 . S
C2118 H2112 0.930 . S
C2118 C2119 1.355 . S
C2118 C2120 1.415 . S
C2119 C2118 1.355 . S
C2119 C2121 1.419 . S
C2120 C2118 1.415 . S
C2120 C2125 1.425 . S
C2120 C2127 1.409 . S
C2121 H2113 0.930 . S
C2121 C2119 1.419 . S
C2121 C2122 1.362 . S
C2122 H2114 0.930 . S
C2122 C2121 1.362 . S
C2122 C2125 1.409 . S
C2123 H2115 0.930 . S
C2123 C2124 1.355 . S
C2123 C2125 1.415 . S
C2124 C2123 1.355 . S
C2124 C2126 1.419 . S
C2125 C2120 1.425 . S
C2125 C2122 1.409 . S
C2125 C2123 1.415 . S
C2126 H2116 0.930 . S
C2126 C2124 1.419 . S
C2126 C2127 1.362 . S
C2127 H2117 0.930 . S
C2127 C2120 1.409 . S
C2127 C2126 1.362 . S
H2128 C2134 0.930 . S
H2129 C2137 0.930 . S
H2130 C2138 0.930 . S
H2131 C2139 0.930 . S
H2132 C2142 0.930 . S
H2133 C2143 0.930 . S
C2134 H2128 0.930 . S
C2134 C2135 1.355 . S
C2134 C2136 1.415 . S
C2135 C2134 1.355 . S
C2135 C2137 1.419 1_565 S
C2136 C2134 1.415 . S
C2136 C2141 1.425 1_465 S
C2136 C2143 1.409 . S
C2137 H2129 0.930 . S
C2137 C2135 1.419 1_545 S
C2137 C2138 1.362 1_455 S
C2138 H2130 0.930 . S
C2138 C2137 1.362 1_655 S
C2138 C2141 1.409 . S
C2139 H2131 0.930 . S
C2139 C2140 1.355 . S
C2139 C2141 1.415 . S
C2140 C2139 1.355 . S
C2140 C2142 1.419 1_545 S
C2141 C2136 1.425 1_645 S
C2141 C2138 1.409 . S
C2141 C2139 1.415 . S
C2142 H2132 0.930 . S
C2142 C2140 1.419 1_565 S
C2142 C2143 1.362 1_655 S
C2143 H2133 0.930 . S
C2143 C2136 1.409 . S
C2143 C2142 1.362 1_455 S
H2144 C2150 0.930 . S
H2145 C2153 0.930 . S
H2146 C2154 0.930 . S
H2147 C2155 0.930 . S
H2148 C2158 0.930 . S
H2149 C2159 0.930 . S
C2150 H2144 0.930 . S
C2150 C2151 1.355 . S
C2150 C2152 1.415 . S
C2151 C2150 1.355 . S
C2151 C2153 1.419 . S
C2152 C2150 1.415 . S
C2152 C2157 1.425 . S
C2152 C2159 1.409 . S
C2153 H2145 0.930 . S
C2153 C2151 1.419 . S
C2153 C2154 1.362 . S
C2154 H2146 0.930 . S
C2154 C2153 1.362 . S
C2154 C2157 1.409 . S
C2155 H2147 0.930 . S
C2155 C2156 1.355 . S
C2155 C2157 1.415 . S
C2156 C2155 1.355 . S
C2156 C2158 1.419 . S
C2157 C2152 1.425 . S
C2157 C2154 1.409 . S
C2157 C2155 1.415 . S
C2158 H2148 0.930 . S
C2158 C2156 1.419 . S
C2158 C2159 1.362 . S
C2159 H2149 0.930 . S
C2159 C2152 1.409 . S
C2159 C2158 1.362 . S
H2160 C2166 0.930 . S
H2161 C2169 0.930 . S
H2162 C2170 0.930 . S
H2163 C2171 0.930 . S
H2164 C2174 0.930 . S
H2165 C2175 0.930 . S
C2166 H2160 0.930 . S
C2166 C2167 1.355 . S
C2166 C2168 1.415 1_554 S
C2167 C2166 1.355 . S
C2167 C2169 1.419 1_545 S
C2168 C2166 1.415 1_556 S
C2168 C2173 1.425 1_546 S
C2168 C2175 1.409 . S
C2169 H2161 0.930 . S
C2169 C2167 1.419 1_565 S
C2169 C2170 1.362 . S
C2170 H2162 0.930 . S
C2170 C2169 1.362 . S
C2170 C2173 1.409 . S
C2171 H2163 0.930 . S
C2171 C2172 1.355 . S
C2171 C2173 1.415 1_556 S
C2172 C2171 1.355 . S
C2172 C2174 1.419 1_565 S
C2173 C2168 1.425 1_564 S
C2173 C2170 1.409 . S
C2173 C2171 1.415 1_554 S
C2174 H2164 0.930 . S
C2174 C2172 1.419 1_545 S
C2174 C2175 1.362 . S
C2175 H2165 0.930 . S
C2175 C2168 1.409 . S
C2175 C2174 1.362 . S
H2176 C2182 0.930 . S
H2177 C2185 0.930 . S
H2178 C2186 0.930 . S
H2179 C2187 0.930 . S
H2180 C2190 0.930 . S
H2181 C2191 0.930 . S
C2182 H2176 0.930 . S
C2182 C2183 1.355 . S
C2182 C2184 1.415 . S
C2183 C2182 1.355 . S
C2183 C2185 1.419 . S
C2184 C2182 1.415 . S
C2184 C2189 1.425 . S
C2184 C2191 1.409 . S
C2185 H2177 0.930 . S
C2185 C2183 1.419 . S
C2185 C2186 1.362 . S
C2186 H2178 0.930 . S
C2186 C2185 1.362 . S
C2186 C2189 1.409 . S
C2187 H2179 0.930 . S
C2187 C2188 1.355 . S
C2187 C2189 1.415 . S
C2188 C2187 1.355 . S
C2188 C2190 1.419 . S
C2189 C2184 1.425 . S
C2189 C2186 1.409 . S
C2189 C2187 1.415 . S
C2190 H2180 0.930 . S
C2190 C2188 1.419 . S
C2190 C2191 1.362 . S
C2191 H2181 0.930 . S
C2191 C2184 1.409 . S
C2191 C2190 1.362 . S
H2192 C2198 0.930 . S
H2193 C2201 0.930 . S
H2194 C2202 0.930 . S
H2195 C2203 0.930 . S
H2196 C2206 0.930 . S
H2197 C2207 0.930 . S
C2198 H2192 0.930 . S
C2198 C2199 1.355 . S
C2198 C2200 1.415 . S
C2199 C2198 1.355 . S
C2199 C2201 1.419 1_545 S
C2200 C2198 1.415 . S
C2200 C2205 1.425 1_545 S
C2200 C2207 1.409 . S
C2201 H2193 0.930 . S
C2201 C2199 1.419 1_565 S
C2201 C2202 1.362 . S
C2202 H2194 0.930 . S
C2202 C2201 1.362 . S
C2202 C2205 1.409 . S
C2203 H2195 0.930 . S
C2203 C2204 1.355 . S
C2203 C2205 1.415 . S
C2204 C2203 1.355 . S
C2204 C2206 1.419 1_565 S
C2205 C2200 1.425 1_565 S
C2205 C2202 1.409 . S
C2205 C2203 1.415 . S
C2206 H2196 0.930 . S
C2206 C2204 1.419 1_545 S
C2206 C2207 1.362 . S
C2207 H2197 0.930 . S
C2207 C2200 1.409 . S
C2207 C2206 1.362 . S
H2208 C2214 0.930 . S
H2209 C2217 0.930 . S
H2210 C2218 0.930 . S
H2211 C2219 0.930 . S
H2212 C2222 0.930 . S
H2213 C2223 0.930 . S
C2214 H2208 0.930 . S
C2214 C2215 1.355 . S
C2214 C2216 1.415 . S
C2215 C2214 1.355 . S
C2215 C2217 1.419 . S
C2216 C2214 1.415 . S
C2216 C2221 1.425 . S
C2216 C2223 1.409 . S
C2217 H2209 0.930 . S
C2217 C2215 1.419 . S
C2217 C2218 1.362 . S
C2218 H2210 0.930 . S
C2218 C2217 1.362 . S
C2218 C2221 1.409 . S
C2219 H2211 0.930 . S
C2219 C2220 1.355 . S
C2219 C2221 1.415 . S
C2220 C2219 1.355 . S
C2220 C2222 1.419 . S
C2221 C2216 1.425 . S
C2221 C2218 1.409 . S
C2221 C2219 1.415 . S
C2222 H2212 0.930 . S
C2222 C2220 1.419 . S
C2222 C2223 1.362 . S
C2223 H2213 0.930 . S
C2223 C2216 1.409 . S
C2223 C2222 1.362 . S
H2224 C2230 0.930 . S
H2225 C2233 0.930 . S
H2226 C2234 0.930 . S
H2227 C2235 0.930 . S
H2228 C2238 0.930 . S
H2229 C2239 0.930 . S
C2230 H2224 0.930 . S
C2230 C2231 1.355 1_545 S
C2230 C2232 1.415 1_655 S
C2231 C2230 1.355 1_565 S
C2231 C2233 1.419 . S
C2232 C2230 1.415 1_455 S
C2232 C2237 1.425 1_444 S
C2232 C2239 1.409 . S
C2233 H2225 0.930 . S
C2233 C2231 1.419 . S
C2233 C2234 1.362 1_554 S
C2234 H2226 0.930 . S
C2234 C2233 1.362 1_556 S
C2234 C2237 1.409 . S
C2235 H2227 0.930 . S
C2235 C2236 1.355 1_565 S
C2235 C2237 1.415 1_455 S
C2236 C2235 1.355 1_545 S
C2236 C2238 1.419 . S
C2237 C2232 1.425 1_666 S
C2237 C2234 1.409 . S
C2237 C2235 1.415 1_655 S
C2238 H2228 0.930 . S
C2238 C2236 1.419 . S
C2238 C2239 1.362 1_556 S
C2239 H2229 0.930 . S
C2239 C2232 1.409 . S
C2239 C2238 1.362 1_554 S
H2240 C2246 0.930 . S
H2241 C2249 0.930 . S
H2242 C2250 0.930 . S
H2243 C2251 0.930 . S
H2244 C2254 0.930 . S
H2245 C2255 0.930 . S
C2246 H2240 0.930 . S
C2246 C2247 1.355 . S
C2246 C2248 1.415 . S
C2247 C2246 1.355 . S
C2247 C2249 1.419 . S
C2248 C2246 1.415 . S
C2248 C2253 1.425 . S
C2248 C2255 1.409 . S
C2249 H2241 0.930 . S
C2249 C2247 1.419 . S
C2249 C2250 1.362 . S
C2250 H2242 0.930 . S
C2250 C2249 1.362 . S
C2250 C2253 1.409 . S
C2251 H2243 0.930 . S
C2251 C2252 1.355 . S
C2251 C2253 1.415 . S
C2252 C2251 1.355 . S
C2252 C2254 1.419 . S
C2253 C2248 1.425 . S
C2253 C2250 1.409 . S
C2253 C2251 1.415 . S
C2254 H2244 0.930 . S
C2254 C2252 1.419 . S
C2254 C2255 1.362 . S
C2255 H2245 0.930 . S
C2255 C2248 1.409 . S
C2255 C2254 1.362 . S
H2256 C2262 0.930 . S
H2257 C2265 0.930 . S
H2258 C2266 0.930 . S
H2259 C2267 0.930 . S
H2260 C2270 0.930 . S
H2261 C2271 0.930 . S
C2262 H2256 0.930 . S
C2262 C2263 1.355 . S
C2262 C2264 1.415 . S
C2263 C2262 1.355 . S
C2263 C2265 1.419 . S
C2264 C2262 1.415 . S
C2264 C2269 1.425 . S
C2264 C2271 1.409 . S
C2265 H2257 0.930 . S
C2265 C2263 1.419 . S
C2265 C2266 1.362 . S
C2266 H2258 0.930 . S
C2266 C2265 1.362 . S
C2266 C2269 1.409 . S
C2267 H2259 0.930 . S
C2267 C2268 1.355 . S
C2267 C2269 1.415 . S
C2268 C2267 1.355 . S
C2268 C2270 1.419 . S
C2269 C2264 1.425 . S
C2269 C2266 1.409 . S
C2269 C2267 1.415 . S
C2270 H2260 0.930 . S
C2270 C2268 1.419 . S
C2270 C2271 1.362 . S
C2271 H2261 0.930 . S
C2271 C2264 1.409 . S
C2271 C2270 1.362 . S
H2272 C2278 0.930 . S
H2273 C2281 0.930 . S
H2274 C2282 0.930 . S
H2275 C2283 0.930 . S
H2276 C2286 0.930 . S
H2277 C2287 0.930 . S
C2278 H2272 0.930 . S
C2278 C2279 1.355 . S
C2278 C2280 1.415 . S
C2279 C2278 1.355 . S
C2279 C2281 1.419 . S
C2280 C2278 1.415 . S
C2280 C2285 1.425 . S
C2280 C2287 1.409 . S
C2281 H2273 0.930 . S
C2281 C2279 1.419 . S
C2281 C2282 1.362 . S
C2282 H2274 0.930 . S
C2282 C2281 1.362 . S
C2282 C2285 1.409 . S
C2283 H2275 0.930 . S
C2283 C2284 1.355 . S
C2283 C2285 1.415 . S
C2284 C2283 1.355 . S
C2284 C2286 1.419 . S
C2285 C2280 1.425 . S
C2285 C2282 1.409 . S
C2285 C2283 1.415 . S
C2286 H2276 0.930 . S
C2286 C2284 1.419 . S
C2286 C2287 1.362 . S
C2287 H2277 0.930 . S
C2287 C2280 1.409 . S
C2287 C2286 1.362 . S
H2288 C2294 0.930 . S
H2289 C2297 0.930 . S
H2290 C2298 0.930 . S
H2291 C2299 0.930 . S
H2292 C2302 0.930 . S
H2293 C2303 0.930 . S
C2294 H2288 0.930 . S
C2294 C2295 1.355 . S
C2294 C2296 1.415 . S
C2295 C2294 1.355 . S
C2295 C2297 1.419 . S
C2296 C2294 1.415 . S
C2296 C2301 1.425 . S
C2296 C2303 1.409 . S
C2297 H2289 0.930 . S
C2297 C2295 1.419 . S
C2297 C2298 1.362 . S
C2298 H2290 0.930 . S
C2298 C2297 1.362 . S
C2298 C2301 1.409 . S
C2299 H2291 0.930 . S
C2299 C2300 1.355 . S
C2299 C2301 1.415 . S
C2300 C2299 1.355 . S
C2300 C2302 1.419 . S
C2301 C2296 1.425 . S
C2301 C2298 1.409 . S
C2301 C2299 1.415 . S
C2302 H2292 0.930 . S
C2302 C2300 1.419 . S
C2302 C2303 1.362 . S
C2303 H2293 0.930 . S
C2303 C2296 1.409 . S
C2303 C2302 1.362 . S
H2304 C2310 0.930 . S
H2305 C2313 0.930 . S
H2306 C2314 0.930 . S
H2307 C2315 0.930 . S
H2308 C2318 0.930 . S
H2309 C2319 0.930 . S
C2310 H2304 0.930 . S
C2310 C2311 1.355 . S
C2310 C2312 1.412 . S
C2311 C2310 1.355 . S
C2311 C2313 1.419 . S
C2312 C2310 1.412 . S
C2312 C2317 1.425 1_556 S
C2312 C2319 1.412 1_556 S
C2313 H2305 0.930 . S
C2313 C2311 1.419 . S
C2313 C2314 1.362 . S
C2314 H2306 0.930 . S
C2314 C2313 1.362 . S
C2314 C2317 1.412 1_556 S
C2315 H2307 0.930 . S
C2315 C2316 1.355 . S
C2315 C2317 1.412 . S
C2316 C2315 1.355 . S
C2316 C2318 1.419 . S
C2317 C2312 1.425 1_554 S
C2317 C2314 1.412 1_554 S
C2317 C2315 1.412 . S
C2318 H2308 0.930 . S
C2318 C2316 1.419 . S
C2318 C2319 1.362 . S
C2319 H2309 0.930 . S
C2319 C2312 1.412 1_554 S
C2319 C2318 1.362 . S
H2320 C2326 0.930 . S
H2321 C2329 0.930 . S
H2322 C2330 0.930 . S
H2323 C2331 0.930 . S
H2324 C2334 0.930 . S
H2325 C2335 0.930 . S
C2326 H2320 0.930 . S
C2326 C2327 1.355 . S
C2326 C2328 1.415 . S
C2327 C2326 1.355 . S
C2327 C2329 1.419 . S
C2328 C2326 1.415 . S
C2328 C2333 1.425 1_455 S
C2328 C2335 1.409 . S
C2329 H2321 0.930 . S
C2329 C2327 1.419 . S
C2329 C2330 1.362 1_455 S
C2330 H2322 0.930 . S
C2330 C2329 1.362 1_655 S
C2330 C2333 1.409 . S
C2331 H2323 0.930 . S
C2331 C2332 1.355 . S
C2331 C2333 1.415 . S
C2332 C2331 1.355 . S
C2332 C2334 1.419 . S
C2333 C2328 1.425 1_655 S
C2333 C2330 1.409 . S
C2333 C2331 1.415 . S
C2334 H2324 0.930 . S
C2334 C2332 1.419 . S
C2334 C2335 1.362 1_655 S
C2335 H2325 0.930 . S
C2335 C2328 1.409 . S
C2335 C2334 1.362 1_455 S
H2336 C2342 0.930 1_655 S
H2337 C2345 0.930 . S
H2338 C2346 0.930 . S
H2339 C2347 0.930 1_455 S
H2340 C2350 0.930 . S
H2341 C2351 0.930 . S
C2342 H2336 0.930 1_455 S
C2342 C2343 1.355 . S
C2342 C2344 1.415 1_455 S
C2343 C2342 1.355 . S
C2343 C2345 1.419 . S
C2344 C2342 1.415 1_655 S
C2344 C2349 1.425 1_654 S
C2344 C2351 1.409 . S
C2345 H2337 0.930 . S
C2345 C2343 1.419 . S
C2345 C2346 1.362 1_554 S
C2346 H2338 0.930 . S
C2346 C2345 1.362 1_556 S
C2346 C2349 1.409 . S
C2347 H2339 0.930 1_655 S
C2347 C2348 1.355 . S
C2347 C2349 1.415 1_655 S
C2348 C2347 1.355 . S
C2348 C2350 1.419 . S
C2349 C2344 1.425 1_456 S
C2349 C2346 1.409 . S
C2349 C2347 1.415 1_455 S
C2350 H2340 0.930 . S
C2350 C2348 1.419 . S
C2350 C2351 1.362 1_556 S
C2351 H2341 0.930 . S
C2351 C2344 1.409 . S
C2351 C2350 1.362 1_554 S
H2352 C2358 0.930 . S
H2353 C2361 0.930 . S
H2354 C2362 0.930 . S
H2355 C2363 0.930 . S
H2356 C2366 0.930 . S
H2357 C2367 0.930 . S
C2358 H2352 0.930 . S
C2358 C2359 1.355 . S
C2358 C2360 1.415 . S
C2359 C2358 1.355 . S
C2359 C2361 1.419 . S
C2360 C2358 1.415 . S
C2360 C2365 1.425 . S
C2360 C2367 1.409 . S
C2361 H2353 0.930 . S
C2361 C2359 1.419 . S
C2361 C2362 1.362 . S
C2362 H2354 0.930 . S
C2362 C2361 1.362 . S
C2362 C2365 1.409 . S
C2363 H2355 0.930 . S
C2363 C2364 1.355 . S
C2363 C2365 1.415 . S
C2364 C2363 1.355 . S
C2364 C2366 1.419 . S
C2365 C2360 1.425 . S
C2365 C2362 1.409 . S
C2365 C2363 1.415 . S
C2366 H2356 0.930 . S
C2366 C2364 1.419 . S
C2366 C2367 1.362 . S
C2367 H2357 0.930 . S
C2367 C2360 1.409 . S
C2367 C2366 1.362 . S
C1095 C9 1.502 . S
C1100 C920 1.507 . S
C1111 C43 1.493 . S
C1116 C274 1.513 . S
C1127 C852 1.514 . S
C1132 C77 1.478 . S
C1143 C342 1.513 . S
C1148 C111 1.491 . S
C1159 C988 1.510 . S
C1164 C145 1.508 . S
C1175 C179 1.463 . S
C1180 C478 1.513 . S
C1191 C213 1.507 . S
C1196 C1056 1.510 . S
C1207 C410 1.512 . S
C1212 C247 1.459 . S
C1223 C281 1.503 . S
C1228 C648 1.511 . S
C1239 C315 1.493 . S
C1244 C2 1.507 . S
C1255 C349 1.459 . S
C1260 C580 1.512 . S
C1271 C70 1.513 . S
C1276 C383 1.492 . S
C1287 C417 1.460 . S
C1292 C716 1.511 . S
C1303 C451 1.479 . S
C1308 C206 1.514 . S
C1319 C784 1.514 . S
C1324 C485 1.480 . S
C1335 C519 1.503 . S
C1340 C138 1.508 . S
C1351 C553 1.490 . S
C1356 C376 1.507 . S
C1367 C818 1.512 . S
C1372 C587 1.459 . S
C1383 C308 1.512 . S
C1388 C621 1.501 . S
C1399 C655 1.459 . S
C1404 C886 1.512 . S
C1415 C689 1.459 . S
C1420 C444 1.512 . S
C1431 C1022 1.509 . S
C1436 C723 1.469 . S
C1447 C757 1.509 . S
C1452 C512 1.510 . S
C1463 C954 1.513 . S
C1468 C791 1.489 . S
C1479 C825 1.490 . S
C1484 C104 1.507 . S
C1495 C546 1.508 . S
C1500 C859 1.502 . S
C1511 C893 1.483 . S
C1516 C36 1.508 . S
C1527 C614 1.507 . S
C1532 C927 1.497 . S
C1543 C961 1.459 . S
C1548 C172 1.512 . S
C1559 C750 1.508 . S
C1564 C995 1.476 . S
C1575 C240 1.512 . S
C1580 C1029 1.459 . S
C1591 C1063 1.499 . S
C1596 C682 1.512 . S
C1607 C5 1.572 . S
C1612 C141 1.548 . S
C1623 C39 1.559 . S
C1628 C175 1.572 . S
C1639 C209 1.560 . S
C1644 C73 1.572 . S
C1655 C107 1.549 . S
C1660 C243 1.535 . S
C1671 C277 1.571 . S
C1676 C413 1.562 . S
C1687 C311 1.569 . S
C1692 C447 1.564 . S
C1703 C345 1.566 . S
C1708 C481 1.568 . S
C1719 C379 1.572 . S
C1724 C515 1.559 . S
C1735 C549 1.542 . S
C1740 C685 1.569 . S
C1751 C719 1.534 . S
C1756 C583 1.552 . S
C1767 C753 1.542 . S
C1772 C617 1.538 . S
C1783 C787 1.544 . S
C1788 C651 1.570 . S
C1799 C957 1.548 . S
C1804 C821 1.572 . S
C1815 C855 1.572 . S
C1820 C991 1.559 . S
C1831 C889 1.549 . S
C1836 C1025 1.535 . S
C1847 C1059 1.534 . S
C1852 C923 1.555 . S
C1863 C203 1.400 . S
C1868 C33 1.384 . S
C1879 C237 1.381 . S
C1884 C67 1.398 . S
C1895 C271 1.398 . S
C1900 C101 1.381 . S
C1911 C169 1.398 . S
C1916 C135 1.381 . S
C1927 C475 1.400 . S
C1932 C305 1.385 . S
C1943 C509 1.393 . S
C1948 C339 1.394 . S
C1959 C373 1.401 . S
C1964 C543 1.381 . S
C1975 C407 1.399 . S
C1980 C441 1.380 . S
C1991 C747 1.389 . S
C1996 C577 1.397 . S
C2007 C611 1.382 . S
C2012 C781 1.401 . S
C2023 C815 1.398 . S
C2028 C645 1.388 . S
C2039 C679 1.390 . S
C2044 C713 1.386 . S
C2055 C1019 1.393 . S
C2060 C849 1.384 . S
C2071 C883 1.401 . S
C2076 C1053 1.382 . S
C2087 C917 1.387 . S
C2092 C1087 1.389 . S
C2103 C985 1.386 . S
C2108 C951 1.399 . S
C2119 C836 1.369 . S
C2124 C20 1.369 . S
C2135 C54 1.375 . S
C2140 C326 1.375 . S
C2151 C88 1.335 . S
C2156 C904 1.335 . S
C2167 C122 1.370 . S
C2172 C394 1.370 . S
C2183 C156 1.342 . S
C2188 C972 1.342 . S
C2199 C462 1.377 . S
C2204 C190 1.377 . S
C2215 C1040 1.352 . S
C2220 C224 1.352 . S
C2231 C530 1.349 . S
C2236 C258 1.349 . S
C2247 C292 1.362 . S
C2252 C564 1.362 . S
C2263 C632 1.341 . S
C2268 C360 1.341 . S
C2279 C428 1.344 . S
C2284 C700 1.344 . S
C2295 C496 1.349 . S
C2300 C768 1.349 . S
C2311 C870 1.332 . S
C2316 C598 1.332 . S
C2327 C938 1.367 . S
C2332 C666 1.367 . S
C2343 C1006 1.359 . S
C2348 C734 1.359 . S
C2359 C802 1.375 . S
C2364 C1074 1.375 . S
