# Generated by pormake.
# Topology smu, (6)-cn, num edge types: 1
# Building blocks:
#     Node 0, Type 0, BuildingBlock: MIDCAF_clean_sbu_0, # of connection points: 6
#     Node 1, Type 0, BuildingBlock: MIDCAF_clean_sbu_0, # of connection points: 6
#     Node 2, Type 0, BuildingBlock: MIDCAF_clean_sbu_0, # of connection points: 6
#     Node 3, Type 0, BuildingBlock: MIDCAF_clean_sbu_0, # of connection points: 6
#     Node 4, Type 0, BuildingBlock: MIDCAF_clean_sbu_0, # of connection points: 6
#     Node 5, Type 0, BuildingBlock: MIDCAF_clean_sbu_0, # of connection points: 6
#     Edge 6, Type (0, 0), BuildingBlock: FUNLAD_clean_linker_0, # of connection points: 2
#     Edge 7, Type (0, 0), BuildingBlock: FUNLAD_clean_linker_0, # of connection points: 2
#     Edge 8, Type (0, 0), BuildingBlock: FUNLAD_clean_linker_0, # of connection points: 2
#     Edge 9, Type (0, 0), BuildingBlock: FUNLAD_clean_linker_0, # of connection points: 2
#     Edge 10, Type (0, 0), BuildingBlock: FUNLAD_clean_linker_0, # of connection points: 2
#     Edge 11, Type (0, 0), BuildingBlock: FUNLAD_clean_linker_0, # of connection points: 2
#     Edge 12, Type (0, 0), BuildingBlock: FUNLAD_clean_linker_0, # of connection points: 2
#     Edge 13, Type (0, 0), BuildingBlock: FUNLAD_clean_linker_0, # of connection points: 2
#     Edge 14, Type (0, 0), BuildingBlock: FUNLAD_clean_linker_0, # of connection points: 2
#     Edge 15, Type (0, 0), BuildingBlock: FUNLAD_clean_linker_0, # of connection points: 2
#     Edge 16, Type (0, 0), BuildingBlock: FUNLAD_clean_linker_0, # of connection points: 2
#     Edge 17, Type (0, 0), BuildingBlock: FUNLAD_clean_linker_0, # of connection points: 2
#     Edge 18, Type (0, 0), BuildingBlock: FUNLAD_clean_linker_0, # of connection points: 2
#     Edge 19, Type (0, 0), BuildingBlock: FUNLAD_clean_linker_0, # of connection points: 2
#     Edge 20, Type (0, 0), BuildingBlock: FUNLAD_clean_linker_0, # of connection points: 2
#     Edge 21, Type (0, 0), BuildingBlock: FUNLAD_clean_linker_0, # of connection points: 2
#     Edge 22, Type (0, 0), BuildingBlock: FUNLAD_clean_linker_0, # of connection points: 2
#     Edge 23, Type (0, 0), BuildingBlock: FUNLAD_clean_linker_0, # of connection points: 2
# Relax obj value: 0.355
# Max RMSD: 0.260
# Mean RMSD: 0.260
data_MOF--net-smu--node1-MIDCAF_clean_sbu_0--edge1-FUNLAD_clean_linker_0
_symmetry_space_group_name_H-M    P1
_symmetry_Int_Tables_number       1
_symmetry_cell_setting            triclinic
loop_
_symmetry_equiv_pos_as_xyz
'x, y, z'
_cell_length_a     31.861911
_cell_length_b     31.993845
_cell_length_c     34.30193
_cell_angle_alpha  89.540256
_cell_angle_beta   89.94273
_cell_angle_gamma 119.53343
loop_
_atom_site_label
_atom_site_type_symbol
_atom_site_fract_x
_atom_site_fract_y
_atom_site_fract_z
_atom_type_partial_charge
Zn0 Zn 0.25266 0.07435 0.24892 0.0
Zn1 Zn 0.39989 0.14769 0.3174 0.0
Zn2 Zn 0.32973 0.10816 0.27363 0.0
C3 C 0.41482 0.09027 0.25911 0.0
C4 C 0.3185 0.09117 0.36464 0.0
O5 O 0.30997 0.16298 0.25572 0.0
O6 O 0.23155 0.12081 0.26514 0.0
C7 C 0.31023 0.07185 0.18815 0.0
O8 O 0.37426 0.08318 0.24553 0.0
O9 O 0.43097 0.11321 0.29056 0.0
O10 O 0.36279 0.1218 0.36778 0.0
O11 O 0.2995 0.08077 0.33085 0.0
O12 O 0.27532 0.07995 0.19166 0.0
O13 O 0.33233 0.07075 0.21948 0.0
O14 O 0.31138 0.03586 0.25443 0.0
O15 O 0.23967 0.01388 0.27884 0.0
C16 C 0.27134 0.00286 0.26902 0.0
O17 O 0.36286 0.18324 0.25679 0.0
O18 O 0.42257 0.21598 0.29893 0.0
C19 C 0.26887 0.16101 0.2592 0.0
C20 C 0.40029 0.2203 0.27002 0.0
Zn21 Zn 0.83714 0.76275 0.19883 0.0
Zn22 Zn 0.77497 0.60635 0.28936 0.0
Zn23 Zn 0.80289 0.68507 0.24548 0.0
C24 C 0.70978 0.58428 0.22672 0.0
C25 C 0.76972 0.67485 0.33682 0.0
O26 O 0.87906 0.709 0.22997 0.0
O27 O 0.90465 0.77522 0.19432 0.0
C28 C 0.76031 0.68999 0.15918 0.0
O29 O 0.73701 0.62905 0.21828 0.0
O30 O 0.71918 0.56535 0.25543 0.0
O31 O 0.76399 0.63288 0.33803 0.0
O32 O 0.7833 0.69958 0.30478 0.0
O33 O 0.79458 0.73218 0.15388 0.0
O34 O 0.75615 0.66782 0.19184 0.0
O35 O 0.80143 0.7411 0.28079 0.0
O36 O 0.82077 0.79946 0.23726 0.0
C37 C 0.80815 0.78303 0.27152 0.0
O38 O 0.86055 0.6643 0.24847 0.0
O39 O 0.83333 0.60003 0.28679 0.0
C40 C 0.91287 0.74463 0.21089 0.0
C41 C 0.86625 0.63129 0.26545 0.0
Zn42 Zn 0.95444 0.20944 0.24734 0.0
Zn43 Zn 0.86595 0.28642 0.30426 0.0
Zn44 Zn 0.91439 0.25031 0.2695 0.0
C45 C 0.95672 0.36261 0.27849 0.0
C46 C 0.8792 0.23156 0.36064 0.0
O47 O 0.9011 0.18826 0.30813 0.0
O48 O 0.91806 0.14424 0.26882 0.0
C49 C 0.91282 0.22714 0.18267 0.0
O50 O 0.96468 0.32823 0.26931 0.0
O51 O 0.91658 0.35368 0.29286 0.0
O52 O 0.86334 0.26068 0.35791 0.0
O53 O 0.89596 0.22134 0.33006 0.0
O54 O 0.94893 0.22274 0.19146 0.0
O55 O 0.88606 0.22863 0.21014 0.0
O56 O 0.99222 0.30467 0.26229 0.0
O57 O 0.01614 0.25189 0.27343 0.0
C58 C 0.02611 0.29507 0.27019 0.0
O59 O 0.84999 0.22896 0.23279 0.0
O60 O 0.80904 0.25373 0.269 0.0
C61 C 0.90095 0.14873 0.30066 0.0
C62 C 0.81154 0.23161 0.23948 0.0
Zn63 Zn 0.02766 0.20644 0.81711 0.0
Zn64 Zn 0.0962 0.35973 0.72585 0.0
Zn65 Zn 0.06042 0.28407 0.77508 0.0
C66 C 0.05632 0.37915 0.7936 0.0
C67 C 0.02614 0.28578 0.6844 0.0
O68 O 0.12069 0.27191 0.7924 0.0
O69 O 0.08965 0.2149 0.83759 0.0
C70 C 0.99287 0.2623 0.85112 0.0
O71 O 0.0452 0.33625 0.80426 0.0
O72 O 0.07817 0.39677 0.76178 0.0
O73 O 0.05498 0.33007 0.67988 0.0
O74 O 0.02465 0.26433 0.71684 0.0
O75 O 0.98547 0.21973 0.85128 0.0
O76 O 0.02252 0.29317 0.82619 0.0
O77 O 0.01024 0.22275 0.73894 0.0
O78 O 0.99752 0.15948 0.77439 0.0
C79 C 0.992 0.17696 0.74299 0.0
O80 O 0.13978 0.31636 0.77176 0.0
O81 O 0.16413 0.37306 0.72616 0.0
C82 C 0.1256 0.24472 0.81781 0.0
C83 C 0.17375 0.34988 0.7512 0.0
Zn84 Zn 0.26699 0.85289 0.73304 0.0
Zn85 Zn 0.17023 0.87758 0.8152 0.0
Zn86 Zn 0.22889 0.88432 0.77489 0.0
C87 C 0.23591 0.97516 0.79521 0.0
C88 C 0.24631 0.90434 0.86324 0.0
O89 O 0.19956 0.81418 0.79948 0.0
O90 O 0.22501 0.7845 0.75364 0.0
C91 C 0.23017 0.89519 0.68207 0.0
O92 O 0.26384 0.95683 0.79837 0.0
O93 O 0.1907 0.94731 0.79715 0.0
O94 O 0.20261 0.87114 0.86485 0.0
O95 O 0.26437 0.92299 0.82962 0.0
O96 O 0.25351 0.87272 0.68084 0.0
O97 O 0.21548 0.90174 0.71522 0.0
O98 O 0.29977 0.93678 0.79404 0.0
O99 O 0.33008 0.89969 0.75937 0.0
C100 C 0.33602 0.93276 0.78267 0.0
O101 O 0.1699 0.88073 0.74054 0.0
O102 O 0.12038 0.82485 0.78143 0.0
C103 C 0.20048 0.77849 0.78437 0.0
C104 C 0.12788 0.84529 0.74834 0.0
Zn105 Zn 0.56025 0.70764 0.71051 0.0
Zn106 Zn 0.68148 0.79285 0.79789 0.0
Zn107 Zn 0.62915 0.73959 0.75449 0.0
C108 C 0.73243 0.76081 0.75187 0.0
C109 C 0.62806 0.71843 0.84217 0.0
O110 O 0.59832 0.7836 0.76878 0.0
O111 O 0.54407 0.75995 0.72261 0.0
C112 C 0.64137 0.73009 0.66272 0.0
O113 O 0.69965 0.75842 0.72849 0.0
O114 O 0.72986 0.76919 0.78755 0.0
O115 O 0.63716 0.76167 0.84419 0.0
O116 O 0.62931 0.70159 0.80847 0.0
O117 O 0.59614 0.71272 0.66102 0.0
O118 O 0.66302 0.74454 0.69586 0.0
O119 O 0.59454 0.66687 0.77587 0.0
O120 O 0.52965 0.64416 0.73973 0.0
C121 C 0.55246 0.63473 0.76534 0.0
O122 O 0.68428 0.79581 0.71731 0.0
O123 O 0.68801 0.84703 0.76156 0.0
C124 C 0.56604 0.788 0.75045 0.0
C125 C 0.69402 0.83865 0.72645 0.0
C126 C 0.25416 0.90377 0.93588 0.0
C127 C 0.27208 0.92697 0.89977 0.0
C128 C 0.27268 0.92823 0.97081 0.0
C129 C 0.30932 0.97666 0.97039 0.0
C130 C 0.32888 -0.00095 0.93435 0.0
C131 C 0.31094 0.97428 0.8994 0.0
C132 C 0.3229 0.00612 1.00638 0.0
C133 C 0.32025 0.98788 0.04244 0.0
C134 C 0.32405 0.01504 0.07853 0.0
C135 C 0.34163 0.00518 0.11292 0.0
C136 C 0.33984 0.02587 0.14831 0.0
C137 C 0.31903 0.05566 0.15017 0.0
H138 H 0.2905 0.05433 0.05443 0.0
C139 C 0.30267 0.06654 0.11558 0.0
C140 C 0.30539 0.04672 0.08013 0.0
H141 H 0.28647 0.0894 0.11607 0.0
H142 H 0.22428 0.8673 0.93716 0.0
H143 H 0.25603 0.90999 0.99792 0.0
H144 H 0.35698 0.03637 0.93316 0.0
H145 H 0.32567 0.99316 0.87209 0.0
H146 H 0.33392 0.04397 1.00301 0.0
H147 H 0.31378 0.95138 0.04584 0.0
H148 H 0.35581 0.98059 0.11257 0.0
H149 H 0.35262 0.01667 0.17448 0.0
C150 C 0.64836 0.73827 0.59018 0.0
C151 C 0.66818 0.73517 0.62598 0.0
C152 C 0.67045 0.73861 0.55485 0.0
C153 C 0.71333 0.73603 0.5543 0.0
C154 C 0.73368 0.73405 0.59027 0.0
C155 C 0.71131 0.73351 0.62567 0.0
C156 C 0.73553 0.73103 0.51735 0.0
C157 C 0.72231 0.73662 0.48099 0.0
C158 C 0.73917 0.72428 0.4443 0.0
C159 C 0.72956 0.73889 0.40809 0.0
C160 C 0.74045 0.72406 0.37293 0.0
C161 C 0.76155 0.69458 0.37321 0.0
H162 H 0.76765 0.68145 0.47106 0.0
C163 C 0.77174 0.68048 0.40927 0.0
C164 C 0.7607 0.69498 0.44431 0.0
H165 H 0.78759 0.65732 0.41044 0.0
H166 H 0.61496 0.73944 0.58937 0.0
H167 H 0.65252 0.7392 0.52833 0.0
H168 H 0.7663 0.73142 0.59101 0.0
H169 H 0.72643 0.72939 0.65263 0.0
H170 H 0.76341 0.72123 0.52073 0.0
H171 H 0.69723 0.75 0.47739 0.0
H172 H 0.71243 0.76091 0.40695 0.0
H173 H 0.73084 0.73428 0.34563 0.0
C174 C 0.94615 0.25238 0.11589 0.0
C175 C 0.90637 0.23623 0.14127 0.0
C176 C 0.94272 0.26271 0.07699 0.0
C177 C 0.89923 0.25698 0.06201 0.0
C178 C 0.85901 0.24034 0.08708 0.0
C179 C 0.86275 0.23078 0.12666 0.0
C180 C 0.89486 0.26316 0.01945 0.0
C181 C 0.93278 0.29566 0.99806 0.0
C182 C 0.93934 0.29156 0.95548 0.0
C183 C 0.98042 0.32853 0.93676 0.0
C184 C 0.99581 0.32095 0.90054 0.0
C185 C 0.97043 0.27607 0.88256 0.0
H186 H 0.87965 0.21876 0.94837 0.0
C187 C 0.92687 0.24082 0.89937 0.0
C188 C 0.91136 0.24841 0.93535 0.0
H189 H 0.90638 0.20595 0.88592 0.0
H190 H 0.98049 0.25735 0.12606 0.0
H191 H 0.97399 0.27371 0.0584 0.0
H192 H 0.8248 0.23472 0.07603 0.0
H193 H 0.83151 0.21844 0.14551 0.0
H194 H 0.86154 0.23757 1.00552 0.0
H195 H 0.96373 0.32348 0.01335 0.0
H196 H 0.00278 0.36216 0.9515 0.0
H197 H 0.02971 0.34858 0.88848 0.0
C198 C 0.30851 0.08406 0.4372 0.0
C199 C 0.2908 0.0653 0.40009 0.0
C200 C 0.28672 0.05723 0.47096 0.0
C201 C 0.24669 0.0107 0.46848 0.0
C202 C 0.22795 0.99259 0.43143 0.0
C203 C 0.24942 0.01979 0.39759 0.0
C204 C 0.22788 0.97844 0.50336 0.0
C205 C 0.23223 0.99459 0.54022 0.0
C206 C 0.2235 0.96373 0.5755 0.0
C207 C 0.2141 0.9782 0.61156 0.0
C208 C 0.21307 0.95404 0.64618 0.0
C209 C 0.22249 0.91551 0.64547 0.0
H210 H 0.2387 0.91172 0.54779 0.0
C211 C 0.22985 0.89979 0.60924 0.0
C212 C 0.23026 0.92347 0.5747 0.0
H213 H 0.23718 0.87018 0.60763 0.0
H214 H 0.34036 0.119 0.44017 0.0
H215 H 0.30309 0.07214 0.49874 0.0
H216 H 0.19745 0.95671 0.42859 0.0
H217 H 0.23503 0.00421 0.36946 0.0
H218 H 0.21134 0.94007 0.49839 0.0
H219 H 0.24439 0.03237 0.545 0.0
H220 H 0.2091 0.00927 0.61313 0.0
H221 H 0.20746 0.96713 0.67362 0.0
C222 C 0.61737 0.70875 0.91468 0.0
C223 C 0.62371 0.69142 0.87884 0.0
C224 C 0.62329 0.69015 0.95003 0.0
C225 C 0.63583 0.65365 0.95047 0.0
C226 C 0.63914 0.63428 0.91465 0.0
C227 C 0.63274 0.65262 0.87922 0.0
C228 C 0.65269 0.64044 0.9868 0.0
C229 C 0.64224 0.64836 0.02329 0.0
C230 C 0.66962 0.64813 0.05862 0.0
C231 C 0.6495 0.64424 0.09599 0.0
C232 C 0.67776 0.65339 0.12965 0.0
C233 C 0.72681 0.66726 0.12638 0.0
H234 H 0.73555 0.66355 0.0279 0.0
C235 C 0.74623 0.66862 0.08933 0.0
C236 C 0.71804 0.65893 0.05588 0.0
H237 H 0.78421 0.67995 0.08605 0.0
H238 H 0.6103 0.73856 0.91548 0.0
H239 H 0.62119 0.70685 0.9767 0.0
H240 H 0.64894 0.60632 0.91397 0.0
H241 H 0.63794 0.63847 0.85218 0.0
H242 H 0.67704 0.62612 0.98302 0.0
H243 H 0.6145 0.65826 0.02749 0.0
H244 H 0.6125 0.63649 0.09906 0.0
H245 H 0.66227 0.65324 0.15779 0.0
C246 C 0.86036 0.22061 0.43203 0.0
C247 C 0.88333 0.21376 0.39971 0.0
C248 C 0.87151 0.21313 0.46991 0.0
C249 C 0.90595 0.19834 0.47645 0.0
C250 C 0.9264 0.18838 0.44397 0.0
C251 C 0.91523 0.19593 0.40604 0.0
C252 C 0.92639 0.19938 0.51582 0.0
C253 C 0.9073 0.2042 0.54947 0.0
C254 C 0.93495 0.21939 0.58645 0.0
C255 C 0.92605 0.24844 0.61179 0.0
C256 C 0.9551 0.26893 0.64433 0.0
C257 C 0.99279 0.25972 0.65269 0.0
H258 H 0.97866 0.18524 0.57758 0.0
C259 C 0.00042 0.22873 0.62877 0.0
C260 C 0.97165 0.2086 0.59581 0.0
H261 H 0.02932 0.22113 0.63501 0.0
H262 H 0.8355 0.23423 0.4282 0.0
H263 H 0.85503 0.22196 0.49361 0.0
H264 H 0.95307 0.17707 0.44792 0.0
H265 H 0.93404 0.1907 0.38194 0.0
H266 H 0.96121 0.20094 0.51644 0.0
H267 H 0.87261 0.20278 0.54938 0.0
H268 H 0.89794 0.25718 0.60542 0.0
H269 H 0.94879 0.29284 0.66254 0.0
C270 C 0.47983 0.06897 0.25451 0.0
C271 C 0.44797 0.08076 0.23556 0.0
C272 C 0.52223 0.07671 0.23604 0.0
C273 C 0.53394 0.09711 0.19832 0.0
C274 C 0.49972 0.10447 0.1781 0.0
C275 C 0.45683 0.09592 0.19642 0.0
C276 C 0.58453 0.12041 0.18344 0.0
C277 C 0.6173 0.1083 0.19583 0.0
C278 C 0.67019 0.14256 0.19541 0.0
C279 C 0.688 0.19219 0.19995 0.0
C280 C 0.7359 0.22235 0.21069 0.0
C281 C 0.76725 0.20385 0.21649 0.0
H282 H 0.68984 0.08674 0.19522 0.0
C283 C 0.751 0.15536 0.20817 0.0
C284 C 0.70263 0.12482 0.19823 0.0
H285 H 0.77433 0.1401 0.2129 0.0
H286 H 0.47401 0.05766 0.28483 0.0
H287 H 0.54773 0.07117 0.25298 0.0
H288 H 0.50785 0.12041 0.14915 0.0
H289 H 0.43333 0.10614 0.18136 0.0
H290 H 0.59645 0.15232 0.16528 0.0
H291 H 0.60512 0.0742 0.21085 0.0
H292 H 0.66416 0.20725 0.19882 0.0
H293 H 0.74751 0.25957 0.2172 0.0
C294 C 0.65291 0.5098 0.1929 0.0
C295 C 0.66395 0.55518 0.2066 0.0
C296 C 0.60503 0.47471 0.18693 0.0
C297 C 0.56733 0.48428 0.1955 0.0
C298 C 0.57891 0.53125 0.20546 0.0
C299 C 0.62702 0.56667 0.21064 0.0
C300 C 0.51795 0.44429 0.20383 0.0
C301 C 0.50099 0.40016 0.18895 0.0
C302 C 0.46659 0.35628 0.21075 0.0
C303 C 0.43685 0.31404 0.19038 0.0
C304 C 0.41225 0.27 0.21021 0.0
C305 C 0.41845 0.26738 0.25055 0.0
H306 H 0.49328 0.38565 0.26815 0.0
C307 C 0.44626 0.30987 0.27122 0.0
C308 C 0.46977 0.35398 0.25159 0.0
H309 H 0.45142 0.30881 0.30235 0.0
H310 H 0.68096 0.50016 0.19013 0.0
H311 H 0.5978 0.43888 0.17986 0.0
H312 H 0.55061 0.53945 0.21251 0.0
H313 H 0.63484 0.60132 0.22187 0.0
H314 H 0.49845 0.44933 0.22771 0.0
H315 H 0.51757 0.3953 0.16295 0.0
H316 H 0.43432 0.31481 0.15891 0.0
H317 H 0.39102 0.23765 0.19358 0.0
C318 C 0.00142 0.44808 0.29639 0.0
C319 C 0.99058 0.41289 0.26811 0.0
C320 C 0.01405 0.49493 0.28537 0.0
C321 C 0.01533 0.50725 0.24563 0.0
C322 C 0.01021 0.47333 0.21748 0.0
C323 C 0.99826 0.4265 0.22865 0.0
C324 C 0.00946 0.54893 0.23336 0.0
C325 C 0.01791 0.58539 0.25736 0.0
C326 C 0.98698 0.60816 0.25708 0.0
C327 C 0.97221 0.61671 0.29327 0.0
C328 C 0.93433 0.62665 0.29562 0.0
C329 C 0.91153 0.62987 0.26173 0.0
H330 H 0.97786 0.60962 0.19441 0.0
C331 C 0.92915 0.62605 0.22518 0.0
C332 C 0.96651 0.61489 0.22282 0.0
H333 H 0.91214 0.62877 0.19869 0.0
H334 H 0.9951 0.43812 0.32699 0.0
H335 H 0.01708 0.51924 0.30828 0.0
H336 H 0.01085 0.48163 0.18672 0.0
H337 H 0.98932 0.39969 0.2063 0.0
H338 H 0.9887 0.54404 0.20702 0.0
H339 H 0.03961 0.59087 0.2832 0.0
H340 H 0.98743 0.61202 0.32009 0.0
H341 H 0.9215 0.6299 0.32409 0.0
C342 C 0.08175 0.44232 0.84309 0.0
C343 C 0.04583 0.41038 0.81789 0.0
C344 C 0.08465 0.4862 0.85231 0.0
C345 C 0.05159 0.49869 0.83614 0.0
C346 C 0.01214 0.46374 0.81518 0.0
C347 C 0.00944 0.42004 0.80591 0.0
C348 C 0.06272 0.54955 0.83231 0.0
C349 C 0.09937 0.58696 0.85035 0.0
C350 C 0.12127 0.63625 0.83361 0.0
C351 C 0.1391 0.67644 0.85796 0.0
C352 C 0.16364 0.72303 0.842 0.0
C353 C 0.17226 0.72992 0.80162 0.0
H354 H 0.11687 0.61319 0.77367 0.0
C355 C 0.15448 0.68967 0.77741 0.0
C356 C 0.12896 0.64341 0.79315 0.0
H357 H 0.16048 0.69392 0.74618 0.0
H358 H 0.11068 0.43585 0.85203 0.0
H359 H 0.11567 0.51177 0.86856 0.0
H360 H 0.98601 0.47213 0.80247 0.0
H361 H 0.98189 0.3962 0.78587 0.0
H362 H 0.04396 0.55731 0.80932 0.0
H363 H 0.11663 0.5814 0.87555 0.0
H364 H 0.13427 0.67178 0.88926 0.0
H365 H 0.17721 0.75356 0.8613 0.0
C366 C 0.39 0.9397 0.83607 0.0
C367 C 0.38317 0.95904 0.80139 0.0
C368 C 0.43451 0.94259 0.84348 0.0
C369 C 0.47235 0.96494 0.81627 0.0
C370 C 0.46805 0.99265 0.78602 0.0
C371 C 0.42327 0.98878 0.77812 0.0
C372 C 0.50875 0.94857 0.81458 0.0
C373 C 0.52394 0.94123 0.77989 0.0
C374 C 0.53848 0.9043 0.77347 0.0
C375 C 0.52641 0.8805 0.73761 0.0
C376 C 0.53487 0.84249 0.73066 0.0
C377 C 0.55664 0.82785 0.75912 0.0
H378 H 0.57149 0.9085 0.8297 0.0
C379 C 0.57048 0.85265 0.79466 0.0
C380 C 0.56105 0.89038 0.80197 0.0
H381 H 0.58793 0.84249 0.81692 0.0
H382 H 0.35938 0.91645 0.85437 0.0
H383 H 0.43709 0.92189 0.86759 0.0
H384 H 0.49743 0.01271 0.76573 0.0
H385 H 0.41874 0.0042 0.75129 0.0
H386 H 0.51332 0.93166 0.84058 0.0
H387 H 0.51624 0.95525 0.75358 0.0
H388 H 0.50903 0.89044 0.7151 0.0
H389 H 0.52454 0.82477 0.70272 0.0
C390 C 0.24263 0.36477 0.79492 0.0
C391 C 0.22458 0.3631 0.75726 0.0
C392 C 0.29217 0.38319 0.8007 0.0
C393 C 0.32438 0.40044 0.76879 0.0
C394 C 0.3056 0.39584 0.73105 0.0
C395 C 0.25637 0.37788 0.72537 0.0
C396 C 0.37772 0.42768 0.77312 0.0
C397 C 0.40019 0.45366 0.80492 0.0
C398 C 0.44957 0.49623 0.80257 0.0
C399 C 0.4602 0.53575 0.82641 0.0
C400 C 0.49884 0.58117 0.81722 0.0
C401 C 0.52747 0.58743 0.78429 0.0
H402 H 0.47728 0.47161 0.75523 0.0
C403 C 0.5209 0.54714 0.76354 0.0
C404 C 0.4827 0.50161 0.77302 0.0
H405 H 0.54273 0.55141 0.73798 0.0
H406 H 0.2187 0.35353 0.81999 0.0
H407 H 0.30503 0.38487 0.83013 0.0
H408 H 0.32939 0.40851 0.70588 0.0
H409 H 0.24327 0.37665 0.69603 0.0
H410 H 0.39829 0.43342 0.74646 0.0
H411 H 0.37912 0.45029 0.83083 0.0
H412 H 0.43584 0.53261 0.84976 0.0
H413 H 0.50322 0.61203 0.83339 0.0
C414 C 0.22463 0.20267 0.23713 0.0
C415 C 0.26438 0.2047 0.25638 0.0
C416 C 0.21637 0.24163 0.23802 0.0
C417 C 0.24728 0.28332 0.25888 0.0
C418 C 0.28787 0.28585 0.27728 0.0
C419 C 0.2968 0.24712 0.27553 0.0
C420 C 0.23267 0.31998 0.26706 0.0
C421 C 0.20648 0.32983 0.24153 0.0
C422 C 0.17035 0.34433 0.25316 0.0
C423 C 0.14439 0.35207 0.2235 0.0
C424 C 0.09834 0.34564 0.23098 0.0
C425 C 0.0776 0.33083 0.26813 0.0
H426 H 0.17144 0.33256 0.31573 0.0
C427 C 0.10671 0.33147 0.29905 0.0
C428 C 0.15284 0.33827 0.29173 0.0
H429 H 0.09129 0.3198 0.32794 0.0
H430 H 0.19905 0.1703 0.22225 0.0
H431 H 0.18396 0.23768 0.22445 0.0
H432 H 0.31174 0.31714 0.29411 0.0
H433 H 0.32731 0.24925 0.29111 0.0
H434 H 0.23856 0.33413 0.2964 0.0
H435 H 0.20516 0.31881 0.21144 0.0
H436 H 0.15707 0.3573 0.19358 0.0
H437 H 0.07644 0.34492 0.20656 0.0
C438 C 0.98325 0.74526 0.24357 0.0
C439 C 0.96232 0.75192 0.20984 0.0
C440 C 0.03245 0.75966 0.24431 0.0
C441 C 0.0618 0.7815 0.21121 0.0
C442 C 0.0398 0.78513 0.17681 0.0
C443 C 0.99072 0.77081 0.17619 0.0
C444 C 0.11557 0.80872 0.21284 0.0
C445 C 0.1418 0.81073 0.24436 0.0
C446 C 0.18852 0.85461 0.25243 0.0
C447 C 0.19635 0.87272 0.29044 0.0
C448 C 0.22923 0.92101 0.29709 0.0
C449 C 0.25559 0.95148 0.26598 0.0
H450 H 0.21596 0.86994 0.19298 0.0
C451 C 0.25342 0.93169 0.22921 0.0
C452 C 0.21998 0.88338 0.22239 0.0
H453 H 0.27317 0.95457 0.20475 0.0
H454 H 0.9623 0.7318 0.27018 0.0
H455 H 0.04731 0.75629 0.27166 0.0
H456 H 0.06121 0.8018 0.15086 0.0
H457 H 0.97536 0.77628 0.14977 0.0
H458 H 0.13331 0.83434 0.18921 0.0
H459 H 0.12492 0.78574 0.26843 0.0
H460 H 0.17311 0.8512 0.31421 0.0
H461 H 0.23037 0.93562 0.32571 0.0
C462 C 0.90651 0.08381 0.33533 0.0
C463 C 0.88066 0.10793 0.3281 0.0
C464 C 0.88357 0.03774 0.35151 0.0
C465 C 0.83382 0.01446 0.36015 0.0
C466 C 0.80926 0.04073 0.35647 0.0
C467 C 0.83268 0.08746 0.34086 0.0
C468 C 0.80534 0.96114 0.36339 0.0
C469 C 0.82599 0.93371 0.36973 0.0
C470 C 0.80996 0.88716 0.34977 0.0
C471 C 0.83008 0.85848 0.36109 0.0
C472 C 0.8267 0.82198 0.33681 0.0
C473 C 0.80337 0.81384 0.30074 0.0
H474 H 0.76833 0.89792 0.30431 0.0
C475 C 0.78063 0.84025 0.29051 0.0
C476 C 0.78353 0.8763 0.31482 0.0
H477 H 0.76256 0.8346 0.26271 0.0
H478 H 0.94369 0.09922 0.32575 0.0
H479 H 0.9041 0.01914 0.35329 0.0
H480 H 0.77096 0.02373 0.3627 0.0
H481 H 0.81212 0.10559 0.33538 0.0
H482 H 0.76844 0.94437 0.35298 0.0
H483 H 0.86065 0.94921 0.38428 0.0
H484 H 0.85105 0.86629 0.38756 0.0
H485 H 0.84485 0.80219 0.34509 0.0
C486 C 0.19959 0.25059 0.78729 0.0
C487 C 0.17092 0.24288 0.82057 0.0
C488 C 0.23581 0.23798 0.78741 0.0
C489 C 0.24275 0.2157 0.82049 0.0
C490 C 0.2173 0.21258 0.85485 0.0
C491 C 0.18158 0.22581 0.85486 0.0
C492 C 0.26907 0.18804 0.8188 0.0
C493 C 0.2737 0.16868 0.78542 0.0
C494 C 0.274 0.12245 0.78499 0.0
C495 C 0.24702 0.08952 0.75593 0.0
C496 C 0.23676 0.04198 0.7586 0.0
C497 C 0.25461 0.02681 0.78966 0.0
H498 H 0.3165 0.13289 0.83722 0.0
C499 C 0.28528 0.06037 0.81694 0.0
C500 C 0.29469 0.10804 0.81482 0.0
H501 H 0.29938 0.04914 0.8411 0.0
H502 H 0.19188 0.26314 0.76029 0.0
H503 H 0.25605 0.24311 0.76078 0.0
H504 H 0.22222 0.19621 0.88096 0.0
H505 H 0.16022 0.2198 0.88105 0.0
H506 H 0.27452 0.17449 0.84637 0.0
H507 H 0.26558 0.17985 0.75784 0.0
H508 H 0.23083 0.09964 0.73256 0.0
H509 H 0.21323 0.01653 0.73716 0.0
C510 C 0.05072 0.78377 0.71996 0.0
C511 C 0.08666 0.83205 0.7224 0.0
C512 C 0.00555 0.77157 0.70483 0.0
C513 C 0.995 0.80776 0.69342 0.0
C514 C 0.03284 0.85559 0.69163 0.0
C515 C 0.07858 0.86769 0.70587 0.0
C516 C 0.94446 0.79798 0.68888 0.0
C517 C 0.90752 0.76173 0.70848 0.0
C518 C 0.86024 0.75889 0.71588 0.0
C519 C 0.83417 0.73329 0.74912 0.0
C520 C 0.79211 0.73329 0.76016 0.0
C521 C 0.77453 0.75802 0.73774 0.0
H522 H 0.8603 0.80195 0.66643 0.0
C523 C 0.79927 0.78223 0.70365 0.0
C524 C 0.84184 0.78263 0.69267 0.0
H525 H 0.78655 0.80204 0.68622 0.0
H526 H 0.05669 0.75563 0.73182 0.0
H527 H 0.97831 0.734 0.70445 0.0
H528 H 0.02605 0.88413 0.68224 0.0
H529 H 0.10603 0.90521 0.70728 0.0
H530 H 0.93924 0.82558 0.67483 0.0
H531 H 0.91403 0.73642 0.72495 0.0
H532 H 0.84731 0.71455 0.76751 0.0
H533 H 0.77355 0.71436 0.78658 0.0
C534 C 0.92813 0.14862 0.69184 0.0
C535 C 0.96416 0.14395 0.71153 0.0
C536 C 0.89642 0.11233 0.66692 0.0
C537 C 0.89977 0.0703 0.66212 0.0
C538 C 0.93864 0.06806 0.67924 0.0
C539 C 0.9702 0.10425 0.70399 0.0
C540 C 0.86 0.02503 0.64591 0.0
C541 C 0.81356 0.0146 0.64743 0.0
C542 C 0.77451 0.96558 0.65805 0.0
C543 C 0.73924 0.96211 0.68443 0.0
C544 C 0.71069 0.91945 0.70478 0.0
C545 C 0.71608 0.87907 0.69851 0.0
H546 H 0.80168 0.92458 0.6272 0.0
C547 C 0.74672 0.8804 0.66851 0.0
C548 C 0.77608 0.92358 0.64847 0.0
H549 H 0.75051 0.84927 0.66247 0.0
H550 H 0.9227 0.17888 0.69744 0.0
H551 H 0.86813 0.11645 0.65318 0.0
H552 H 0.94255 0.03649 0.6759 0.0
H553 H 0.99809 0.10014 0.71865 0.0
H554 H 0.86775 0.99577 0.64261 0.0
H555 H 0.80541 0.04336 0.65196 0.0
H556 H 0.73665 0.9936 0.69198 0.0
H557 H 0.68628 0.91891 0.72707 0.0
loop_
_geom_bond_atom_site_label_1
_geom_bond_atom_site_label_2
_geom_bond_distance
_geom_bond_site_symmetry_2
_ccdc_geom_bond_type
Zn0 O6 1.920 . S
Zn0 O12 1.898 . S
Zn0 O15 1.905 1_545 S
Zn1 O9 1.905 . S
Zn1 O10 1.898 . S
Zn1 O18 1.920 . S
Zn2 O5 2.080 . S
Zn2 O8 2.114 . S
Zn2 O11 2.120 . S
Zn2 O13 2.120 . S
Zn2 O14 2.114 . S
Zn2 O17 2.080 . S
C3 O8 1.166 . S
C3 O9 1.182 . S
C4 O10 1.167 . S
C4 O11 1.299 . S
O5 Zn2 2.080 . S
O5 C19 1.305 . S
O6 Zn0 1.920 . S
O6 C19 1.234 . S
C7 O12 1.167 . S
C7 O13 1.299 . S
O8 Zn2 2.114 . S
O8 C3 1.166 . S
O9 Zn1 1.905 . S
O9 C3 1.182 . S
O10 Zn1 1.898 . S
O10 C4 1.167 . S
O11 Zn2 2.120 . S
O11 C4 1.299 . S
O12 Zn0 1.898 . S
O12 C7 1.167 . S
O13 Zn2 2.120 . S
O13 C7 1.299 . S
O14 Zn2 2.114 . S
O14 C16 1.166 1_545 S
O15 Zn0 1.905 1_565 S
O15 C16 1.182 . S
C16 O14 1.166 1_565 S
C16 O15 1.182 . S
O17 Zn2 2.080 . S
O17 C20 1.305 . S
O18 Zn1 1.920 . S
O18 C20 1.234 . S
C19 O5 1.305 . S
C19 O6 1.234 . S
C20 O17 1.305 . S
C20 O18 1.234 . S
Zn21 O27 1.920 . S
Zn21 O33 1.898 . S
Zn21 O36 1.905 . S
Zn22 O30 1.905 . S
Zn22 O31 1.898 . S
Zn22 O39 1.920 . S
Zn23 O26 2.080 . S
Zn23 O29 2.114 . S
Zn23 O32 2.120 . S
Zn23 O34 2.120 . S
Zn23 O35 2.114 . S
Zn23 O38 2.080 . S
C24 O29 1.166 . S
C24 O30 1.182 . S
C25 O31 1.167 . S
C25 O32 1.299 . S
O26 Zn23 2.080 . S
O26 C40 1.305 . S
O27 Zn21 1.920 . S
O27 C40 1.234 . S
C28 O33 1.167 . S
C28 O34 1.299 . S
O29 Zn23 2.114 . S
O29 C24 1.166 . S
O30 Zn22 1.905 . S
O30 C24 1.182 . S
O31 Zn22 1.898 . S
O31 C25 1.167 . S
O32 Zn23 2.120 . S
O32 C25 1.299 . S
O33 Zn21 1.898 . S
O33 C28 1.167 . S
O34 Zn23 2.120 . S
O34 C28 1.299 . S
O35 Zn23 2.114 . S
O35 C37 1.166 . S
O36 Zn21 1.905 . S
O36 C37 1.182 . S
C37 O35 1.166 . S
C37 O36 1.182 . S
O38 Zn23 2.080 . S
O38 C41 1.305 . S
O39 Zn22 1.920 . S
O39 C41 1.234 . S
C40 O26 1.305 . S
C40 O27 1.234 . S
C41 O38 1.305 . S
C41 O39 1.234 . S
Zn42 O48 1.920 . S
Zn42 O54 1.898 . S
Zn42 O57 1.905 1_655 S
Zn43 O51 1.905 . S
Zn43 O52 1.898 . S
Zn43 O60 1.920 . S
Zn44 O47 2.080 . S
Zn44 O50 2.114 . S
Zn44 O53 2.120 . S
Zn44 O55 2.120 . S
Zn44 O56 2.114 . S
Zn44 O59 2.080 . S
C45 O50 1.166 . S
C45 O51 1.182 . S
C46 O52 1.167 . S
C46 O53 1.299 . S
O47 Zn44 2.080 . S
O47 C61 1.305 . S
O48 Zn42 1.920 . S
O48 C61 1.234 . S
C49 O54 1.167 . S
C49 O55 1.299 . S
O50 Zn44 2.114 . S
O50 C45 1.166 . S
O51 Zn43 1.905 . S
O51 C45 1.182 . S
O52 Zn43 1.898 . S
O52 C46 1.167 . S
O53 Zn44 2.120 . S
O53 C46 1.299 . S
O54 Zn42 1.898 . S
O54 C49 1.167 . S
O55 Zn44 2.120 . S
O55 C49 1.299 . S
O56 Zn44 2.114 . S
O56 C58 1.166 1_655 S
O57 Zn42 1.905 1_455 S
O57 C58 1.182 . S
C58 O56 1.166 1_455 S
C58 O57 1.182 . S
O59 Zn44 2.080 . S
O59 C62 1.305 . S
O60 Zn43 1.920 . S
O60 C62 1.234 . S
C61 O47 1.305 . S
C61 O48 1.234 . S
C62 O59 1.305 . S
C62 O60 1.234 . S
Zn63 O69 1.920 . S
Zn63 O75 1.898 . S
Zn63 O78 1.905 1_455 S
Zn64 O72 1.905 . S
Zn64 O73 1.898 . S
Zn64 O81 1.920 . S
Zn65 O68 2.080 . S
Zn65 O71 2.114 . S
Zn65 O74 2.120 . S
Zn65 O76 2.120 . S
Zn65 O77 2.114 . S
Zn65 O80 2.080 . S
C66 O71 1.166 . S
C66 O72 1.182 . S
C67 O73 1.167 . S
C67 O74 1.299 . S
O68 Zn65 2.080 . S
O68 C82 1.305 . S
O69 Zn63 1.920 . S
O69 C82 1.234 . S
C70 O75 1.167 . S
C70 O76 1.299 . S
O71 Zn65 2.114 . S
O71 C66 1.166 . S
O72 Zn64 1.905 . S
O72 C66 1.182 . S
O73 Zn64 1.898 . S
O73 C67 1.167 . S
O74 Zn65 2.120 . S
O74 C67 1.299 . S
O75 Zn63 1.898 . S
O75 C70 1.167 . S
O76 Zn65 2.120 . S
O76 C70 1.299 . S
O77 Zn65 2.114 . S
O77 C79 1.166 1_455 S
O78 Zn63 1.905 1_655 S
O78 C79 1.182 . S
C79 O77 1.166 1_655 S
C79 O78 1.182 . S
O80 Zn65 2.080 . S
O80 C83 1.305 . S
O81 Zn64 1.920 . S
O81 C83 1.234 . S
C82 O68 1.305 . S
C82 O69 1.234 . S
C83 O80 1.305 . S
C83 O81 1.234 . S
Zn84 O90 1.920 . S
Zn84 O96 1.898 . S
Zn84 O99 1.905 . S
Zn85 O93 1.905 1_565 S
Zn85 O94 1.898 . S
Zn85 O102 1.920 . S
Zn86 O89 2.080 . S
Zn86 O92 2.114 . S
Zn86 O95 2.120 . S
Zn86 O97 2.120 . S
Zn86 O98 2.114 . S
Zn86 O101 2.080 . S
C87 O92 1.166 1_545 S
C87 O93 1.182 . S
C88 O94 1.167 . S
C88 O95 1.299 . S
O89 Zn86 2.080 . S
O89 C103 1.305 . S
O90 Zn84 1.920 . S
O90 C103 1.234 . S
C91 O96 1.167 . S
C91 O97 1.299 . S
O92 Zn86 2.114 . S
O92 C87 1.166 1_565 S
O93 Zn85 1.905 1_545 S
O93 C87 1.182 . S
O94 Zn85 1.898 . S
O94 C88 1.167 . S
O95 Zn86 2.120 . S
O95 C88 1.299 . S
O96 Zn84 1.898 . S
O96 C91 1.167 . S
O97 Zn86 2.120 . S
O97 C91 1.299 . S
O98 Zn86 2.114 . S
O98 C100 1.166 . S
O99 Zn84 1.905 . S
O99 C100 1.182 . S
C100 O98 1.166 . S
C100 O99 1.182 . S
O101 Zn86 2.080 . S
O101 C104 1.305 . S
O102 Zn85 1.920 . S
O102 C104 1.234 . S
C103 O89 1.305 . S
C103 O90 1.234 . S
C104 O101 1.305 . S
C104 O102 1.234 . S
Zn105 O111 1.920 . S
Zn105 O117 1.898 . S
Zn105 O120 1.905 . S
Zn106 O114 1.905 . S
Zn106 O115 1.898 . S
Zn106 O123 1.920 . S
Zn107 O110 2.080 . S
Zn107 O113 2.114 . S
Zn107 O116 2.120 . S
Zn107 O118 2.120 . S
Zn107 O119 2.114 . S
Zn107 O122 2.080 . S
C108 O113 1.166 . S
C108 O114 1.182 . S
C109 O115 1.167 . S
C109 O116 1.299 . S
O110 Zn107 2.080 . S
O110 C124 1.305 . S
O111 Zn105 1.920 . S
O111 C124 1.234 . S
C112 O117 1.167 . S
C112 O118 1.299 . S
O113 Zn107 2.114 . S
O113 C108 1.166 . S
O114 Zn106 1.905 . S
O114 C108 1.182 . S
O115 Zn106 1.898 . S
O115 C109 1.167 . S
O116 Zn107 2.120 . S
O116 C109 1.299 . S
O117 Zn105 1.898 . S
O117 C112 1.167 . S
O118 Zn107 2.120 . S
O118 C112 1.299 . S
O119 Zn107 2.114 . S
O119 C121 1.166 . S
O120 Zn105 1.905 . S
O120 C121 1.182 . S
C121 O119 1.166 . S
C121 O120 1.182 . S
O122 Zn107 2.080 . S
O122 C125 1.305 . S
O123 Zn106 1.920 . S
O123 C125 1.234 . S
C124 O110 1.305 . S
C124 O111 1.234 . S
C125 O122 1.305 . S
C125 O123 1.234 . S
C126 C127 1.386 . S
C126 C128 1.383 . S
C126 H142 0.951 . S
C127 C126 1.386 . S
C127 C131 1.383 . S
C128 C126 1.383 . S
C128 C129 1.402 . S
C128 H143 0.951 . S
C129 C128 1.402 . S
C129 C130 1.375 1_565 S
C129 C132 1.481 1_565 S
C130 C129 1.375 1_545 S
C130 C131 1.367 1_545 S
C130 H144 0.951 . S
C131 C127 1.383 . S
C131 C130 1.367 1_565 S
C131 H145 0.950 1_565 S
C132 C129 1.481 1_545 S
C132 C133 1.297 1_546 S
C132 H146 0.950 . S
C133 C132 1.297 1_564 S
C133 C134 1.479 1_565 S
C133 H147 0.950 . S
C134 C133 1.479 1_545 S
C134 C135 1.375 1_545 S
C134 C140 1.404 . S
C135 C134 1.375 1_565 S
C135 C136 1.369 1_565 S
C135 H148 0.950 . S
C136 C135 1.369 1_545 S
C136 C137 1.392 . S
C136 H149 0.951 1_545 S
C137 C136 1.392 . S
C137 C139 1.384 . S
H138 C140 0.949 . S
C139 C137 1.384 . S
C139 C140 1.385 . S
C139 H141 0.950 . S
C140 C134 1.404 . S
C140 H138 0.949 . S
C140 C139 1.385 . S
H141 C139 0.950 . S
H142 C126 0.951 . S
H143 C128 0.951 . S
H144 C130 0.951 . S
H145 C131 0.950 1_545 S
H146 C132 0.950 . S
H147 C133 0.950 . S
H148 C135 0.950 . S
H149 C136 0.951 1_565 S
C150 C151 1.386 . S
C150 C152 1.383 . S
C150 H166 0.951 . S
C151 C150 1.386 . S
C151 C155 1.383 . S
C152 C150 1.383 . S
C152 C153 1.402 . S
C152 H167 0.951 . S
C153 C152 1.402 . S
C153 C154 1.375 . S
C153 C156 1.481 . S
C154 C153 1.375 . S
C154 C155 1.367 . S
C154 H168 0.951 . S
C155 C151 1.383 . S
C155 C154 1.367 . S
C155 H169 0.950 . S
C156 C153 1.481 . S
C156 C157 1.297 . S
C156 H170 0.950 . S
C157 C156 1.297 . S
C157 C158 1.479 . S
C157 H171 0.950 . S
C158 C157 1.479 . S
C158 C159 1.375 . S
C158 C164 1.404 . S
C159 C158 1.375 . S
C159 C160 1.369 . S
C159 H172 0.950 . S
C160 C159 1.369 . S
C160 C161 1.392 . S
C160 H173 0.951 . S
C161 C160 1.392 . S
C161 C163 1.384 . S
H162 C164 0.949 . S
C163 C161 1.384 . S
C163 C164 1.385 . S
C163 H165 0.950 . S
C164 C158 1.404 . S
C164 H162 0.949 . S
C164 C163 1.385 . S
H165 C163 0.950 . S
H166 C150 0.951 . S
H167 C152 0.951 . S
H168 C154 0.951 . S
H169 C155 0.950 . S
H170 C156 0.950 . S
H171 C157 0.950 . S
H172 C159 0.950 . S
H173 C160 0.951 . S
C174 C175 1.386 . S
C174 C176 1.383 . S
C174 H190 0.951 . S
C175 C174 1.386 . S
C175 C179 1.383 . S
C176 C174 1.383 . S
C176 C177 1.402 . S
C176 H191 0.951 1_655 S
C177 C176 1.402 . S
C177 C178 1.375 . S
C177 C180 1.481 . S
C178 C177 1.375 . S
C178 C179 1.367 . S
C178 H192 0.951 . S
C179 C175 1.383 . S
C179 C178 1.367 . S
C179 H193 0.950 . S
C180 C177 1.481 . S
C180 C181 1.297 1_654 S
C180 H194 0.942 1_554 S
C181 C180 1.297 1_456 S
C181 C182 1.479 . S
C181 H195 0.950 1_556 S
C182 C181 1.479 . S
C182 C183 1.375 . S
C182 C188 1.404 . S
C183 C182 1.375 . S
C183 C184 1.369 . S
C183 H196 0.950 . S
C184 C183 1.369 . S
C184 C185 1.392 . S
C184 H197 0.951 . S
C185 C184 1.392 . S
C185 C187 1.384 . S
H186 C188 0.949 . S
C187 C185 1.384 . S
C187 C188 1.385 . S
C187 H189 0.950 . S
C188 C182 1.404 . S
C188 H186 0.949 . S
C188 C187 1.385 . S
H189 C187 0.950 . S
H190 C174 0.951 . S
H191 C176 0.951 1_455 S
H192 C178 0.951 . S
H193 C179 0.950 . S
H194 C180 0.942 1_556 S
H195 C181 0.950 1_554 S
H196 C183 0.950 . S
H197 C184 0.951 . S
C198 C199 1.386 . S
C198 C200 1.383 . S
C198 H214 0.951 . S
C199 C198 1.386 . S
C199 C203 1.383 . S
C200 C198 1.383 . S
C200 C201 1.402 . S
C200 H215 0.951 . S
C201 C200 1.402 . S
C201 C202 1.375 1_545 S
C201 C204 1.481 1_545 S
C202 C201 1.375 1_565 S
C202 C203 1.367 1_565 S
C202 H216 0.951 . S
C203 C199 1.383 . S
C203 C202 1.367 1_545 S
C203 H217 0.950 1_545 S
C204 C201 1.481 1_565 S
C204 C205 1.297 . S
C204 H218 0.950 . S
C205 C204 1.297 . S
C205 C206 1.479 . S
C205 H219 0.950 1_565 S
C206 C205 1.479 . S
C206 C207 1.375 . S
C206 C212 1.404 . S
C207 C206 1.375 . S
C207 C208 1.369 . S
C207 H220 0.950 1_565 S
C208 C207 1.369 . S
C208 C209 1.392 . S
C208 H221 0.951 1_565 S
C209 C208 1.392 . S
C209 C211 1.384 . S
H210 C212 0.949 . S
C211 C209 1.384 . S
C211 C212 1.385 . S
C211 H213 0.950 . S
C212 C206 1.404 . S
C212 H210 0.949 . S
C212 C211 1.385 . S
H213 C211 0.950 . S
H214 C198 0.951 . S
H215 C200 0.951 . S
H216 C202 0.951 . S
H217 C203 0.950 1_565 S
H218 C204 0.950 . S
H219 C205 0.950 1_545 S
H220 C207 0.950 1_545 S
H221 C208 0.951 1_545 S
C222 C223 1.386 . S
C222 C224 1.383 . S
C222 H238 0.951 . S
C223 C222 1.386 . S
C223 C227 1.383 . S
C224 C222 1.383 . S
C224 C225 1.402 . S
C224 H239 0.951 . S
C225 C224 1.402 . S
C225 C226 1.375 . S
C225 C228 1.481 . S
C226 C225 1.375 . S
C226 C227 1.367 . S
C226 H240 0.951 . S
C227 C223 1.383 . S
C227 C226 1.367 . S
C227 H241 0.950 . S
C228 C225 1.481 . S
C228 C229 1.297 1_556 S
C228 H242 0.950 . S
C229 C228 1.297 1_554 S
C229 C230 1.479 . S
C229 H243 0.950 . S
C230 C229 1.479 . S
C230 C231 1.375 . S
C230 C236 1.404 . S
C231 C230 1.375 . S
C231 C232 1.369 . S
C231 H244 0.950 . S
C232 C231 1.369 . S
C232 C233 1.392 . S
C232 H245 0.951 . S
C233 C232 1.392 . S
C233 C235 1.384 . S
H234 C236 0.949 . S
C235 C233 1.384 . S
C235 C236 1.385 . S
C235 H237 0.950 . S
C236 C230 1.404 . S
C236 H234 0.949 . S
C236 C235 1.385 . S
H237 C235 0.950 . S
H238 C222 0.951 . S
H239 C224 0.951 . S
H240 C226 0.951 . S
H241 C227 0.950 . S
H242 C228 0.950 . S
H243 C229 0.950 . S
H244 C231 0.950 . S
H245 C232 0.951 . S
C246 C247 1.386 . S
C246 C248 1.383 . S
C246 H262 0.951 . S
C247 C246 1.386 . S
C247 C251 1.383 . S
C248 C246 1.383 . S
C248 C249 1.402 . S
C248 H263 0.950 1_655 S
C249 C248 1.402 . S
C249 C250 1.375 . S
C249 C252 1.481 . S
C250 C249 1.375 . S
C250 C251 1.367 . S
C250 H264 0.951 . S
C251 C247 1.383 . S
C251 C250 1.367 . S
C251 H265 0.950 . S
C252 C249 1.481 . S
C252 C253 1.297 . S
C252 H266 0.950 . S
C253 C252 1.297 . S
C253 C254 1.479 1_655 S
C253 H267 0.954 1_655 S
C254 C253 1.479 1_455 S
C254 C255 1.375 . S
C254 C260 1.404 1_455 S
C255 C254 1.375 . S
C255 C256 1.369 . S
C255 H268 0.950 . S
C256 C255 1.369 . S
C256 C257 1.392 . S
C256 H269 0.951 . S
C257 C256 1.392 . S
C257 C259 1.384 . S
H258 C260 0.949 . S
C259 C257 1.384 . S
C259 C260 1.385 1_455 S
C259 H261 0.951 1_455 S
C260 C254 1.404 1_655 S
C260 H258 0.949 . S
C260 C259 1.385 1_655 S
H261 C259 0.951 1_655 S
H262 C246 0.951 . S
H263 C248 0.950 1_455 S
H264 C250 0.951 . S
H265 C251 0.950 . S
H266 C252 0.950 . S
H267 C253 0.954 1_455 S
H268 C255 0.950 . S
H269 C256 0.951 . S
C270 C271 1.386 . S
C270 C272 1.383 . S
C270 H286 0.951 . S
C271 C270 1.386 . S
C271 C275 1.383 . S
C272 C270 1.383 . S
C272 C273 1.402 . S
C272 H287 0.951 . S
C273 C272 1.402 . S
C273 C274 1.375 . S
C273 C276 1.481 . S
C274 C273 1.375 . S
C274 C275 1.367 . S
C274 H288 0.951 . S
C275 C271 1.383 . S
C275 C274 1.367 . S
C275 H289 0.950 . S
C276 C273 1.481 . S
C276 C277 1.297 . S
C276 H290 0.950 . S
C277 C276 1.297 . S
C277 C278 1.479 . S
C277 H291 0.950 . S
C278 C277 1.479 . S
C278 C279 1.375 . S
C278 C284 1.404 . S
C279 C278 1.375 . S
C279 C280 1.369 . S
C279 H292 0.950 . S
C280 C279 1.369 . S
C280 C281 1.392 . S
C280 H293 0.951 . S
C281 C280 1.392 . S
C281 C283 1.384 . S
H282 C284 0.949 . S
C283 C281 1.384 . S
C283 C284 1.385 . S
C283 H285 0.950 . S
C284 C278 1.404 . S
C284 H282 0.949 . S
C284 C283 1.385 . S
H285 C283 0.950 . S
H286 C270 0.951 . S
H287 C272 0.951 . S
H288 C274 0.951 . S
H289 C275 0.950 . S
H290 C276 0.950 . S
H291 C277 0.950 . S
H292 C279 0.950 . S
H293 C280 0.951 . S
C294 C295 1.386 . S
C294 C296 1.383 . S
C294 H310 0.951 . S
C295 C294 1.386 . S
C295 C299 1.383 . S
C296 C294 1.383 . S
C296 C297 1.402 . S
C296 H311 0.951 . S
C297 C296 1.402 . S
C297 C298 1.375 . S
C297 C300 1.481 . S
C298 C297 1.375 . S
C298 C299 1.367 . S
C298 H312 0.951 . S
C299 C295 1.383 . S
C299 C298 1.367 . S
C299 H313 0.950 . S
C300 C297 1.481 . S
C300 C301 1.297 . S
C300 H314 0.950 . S
C301 C300 1.297 . S
C301 C302 1.479 . S
C301 H315 0.950 . S
C302 C301 1.479 . S
C302 C303 1.375 . S
C302 C308 1.404 . S
C303 C302 1.375 . S
C303 C304 1.369 . S
C303 H316 0.950 . S
C304 C303 1.369 . S
C304 C305 1.392 . S
C304 H317 0.951 . S
C305 C304 1.392 . S
C305 C307 1.384 . S
H306 C308 0.949 . S
C307 C305 1.384 . S
C307 C308 1.385 . S
C307 H309 0.950 . S
C308 C302 1.404 . S
C308 H306 0.949 . S
C308 C307 1.385 . S
H309 C307 0.950 . S
H310 C294 0.951 . S
H311 C296 0.951 . S
H312 C298 0.951 . S
H313 C299 0.950 . S
H314 C300 0.950 . S
H315 C301 0.950 . S
H316 C303 0.950 . S
H317 C304 0.951 . S
C318 C319 1.386 . S
C318 C320 1.383 . S
C318 H334 0.951 . S
C319 C318 1.386 . S
C319 C323 1.383 . S
C320 C318 1.383 . S
C320 C321 1.402 . S
C320 H335 0.951 . S
C321 C320 1.402 . S
C321 C322 1.375 . S
C321 C324 1.481 . S
C322 C321 1.375 . S
C322 C323 1.367 . S
C322 H336 0.951 . S
C323 C319 1.383 . S
C323 C322 1.367 . S
C323 H337 0.950 . S
C324 C321 1.481 . S
C324 C325 1.297 . S
C324 H338 0.950 . S
C325 C324 1.297 . S
C325 C326 1.479 . S
C325 H339 0.950 . S
C326 C325 1.479 . S
C326 C327 1.375 . S
C326 C332 1.404 . S
C327 C326 1.375 . S
C327 C328 1.369 . S
C327 H340 0.950 . S
C328 C327 1.369 . S
C328 C329 1.392 . S
C328 H341 0.951 . S
C329 C328 1.392 . S
C329 C331 1.384 . S
H330 C332 0.949 . S
C331 C329 1.384 . S
C331 C332 1.385 . S
C331 H333 0.950 . S
C332 C326 1.404 . S
C332 H330 0.949 . S
C332 C331 1.385 . S
H333 C331 0.950 . S
H334 C318 0.951 . S
H335 C320 0.951 . S
H336 C322 0.951 . S
H337 C323 0.950 . S
H338 C324 0.950 . S
H339 C325 0.950 . S
H340 C327 0.950 . S
H341 C328 0.951 . S
C342 C343 1.386 . S
C342 C344 1.383 . S
C342 H358 0.951 . S
C343 C342 1.386 . S
C343 C347 1.383 . S
C344 C342 1.383 . S
C344 C345 1.402 . S
C344 H359 0.951 . S
C345 C344 1.402 . S
C345 C346 1.375 . S
C345 C348 1.481 . S
C346 C345 1.375 . S
C346 C347 1.367 . S
C346 H360 0.951 . S
C347 C343 1.383 . S
C347 C346 1.367 . S
C347 H361 0.950 . S
C348 C345 1.481 . S
C348 C349 1.297 . S
C348 H362 0.950 . S
C349 C348 1.297 . S
C349 C350 1.479 . S
C349 H363 0.950 . S
C350 C349 1.479 . S
C350 C351 1.375 . S
C350 C356 1.404 . S
C351 C350 1.375 . S
C351 C352 1.369 . S
C351 H364 0.950 . S
C352 C351 1.369 . S
C352 C353 1.392 . S
C352 H365 0.951 . S
C353 C352 1.392 . S
C353 C355 1.384 . S
H354 C356 0.949 . S
C355 C353 1.384 . S
C355 C356 1.385 . S
C355 H357 0.950 . S
C356 C350 1.404 . S
C356 H354 0.949 . S
C356 C355 1.385 . S
H357 C355 0.950 . S
H358 C342 0.951 . S
H359 C344 0.951 . S
H360 C346 0.951 . S
H361 C347 0.950 . S
H362 C348 0.950 . S
H363 C349 0.950 . S
H364 C351 0.950 . S
H365 C352 0.951 . S
C366 C367 1.386 . S
C366 C368 1.383 . S
C366 H382 0.951 . S
C367 C366 1.386 . S
C367 C371 1.383 . S
C368 C366 1.383 . S
C368 C369 1.402 . S
C368 H383 0.951 . S
C369 C368 1.402 . S
C369 C370 1.375 . S
C369 C372 1.481 . S
C370 C369 1.375 . S
C370 C371 1.367 . S
C370 H384 0.951 . S
C371 C367 1.383 . S
C371 C370 1.367 . S
C371 H385 0.950 . S
C372 C369 1.481 . S
C372 C373 1.297 . S
C372 H386 0.950 . S
C373 C372 1.297 . S
C373 C374 1.479 . S
C373 H387 0.950 . S
C374 C373 1.479 . S
C374 C375 1.375 . S
C374 C380 1.404 . S
C375 C374 1.375 . S
C375 C376 1.369 . S
C375 H388 0.950 . S
C376 C375 1.369 . S
C376 C377 1.392 . S
C376 H389 0.951 . S
C377 C376 1.392 . S
C377 C379 1.384 . S
H378 C380 0.949 . S
C379 C377 1.384 . S
C379 C380 1.385 . S
C379 H381 0.950 . S
C380 C374 1.404 . S
C380 H378 0.949 . S
C380 C379 1.385 . S
H381 C379 0.950 . S
H382 C366 0.951 . S
H383 C368 0.951 . S
H384 C370 0.951 . S
H385 C371 0.950 . S
H386 C372 0.950 . S
H387 C373 0.950 . S
H388 C375 0.950 . S
H389 C376 0.951 . S
C390 C391 1.386 . S
C390 C392 1.383 . S
C390 H406 0.951 . S
C391 C390 1.386 . S
C391 C395 1.383 . S
C392 C390 1.383 . S
C392 C393 1.402 . S
C392 H407 0.951 . S
C393 C392 1.402 . S
C393 C394 1.375 . S
C393 C396 1.481 . S
C394 C393 1.375 . S
C394 C395 1.367 . S
C394 H408 0.951 . S
C395 C391 1.383 . S
C395 C394 1.367 . S
C395 H409 0.950 . S
C396 C393 1.481 . S
C396 C397 1.297 . S
C396 H410 0.950 . S
C397 C396 1.297 . S
C397 C398 1.479 . S
C397 H411 0.950 . S
C398 C397 1.479 . S
C398 C399 1.375 . S
C398 C404 1.404 . S
C399 C398 1.375 . S
C399 C400 1.369 . S
C399 H412 0.950 . S
C400 C399 1.369 . S
C400 C401 1.392 . S
C400 H413 0.951 . S
C401 C400 1.392 . S
C401 C403 1.384 . S
H402 C404 0.949 . S
C403 C401 1.384 . S
C403 C404 1.385 . S
C403 H405 0.950 . S
C404 C398 1.404 . S
C404 H402 0.949 . S
C404 C403 1.385 . S
H405 C403 0.950 . S
H406 C390 0.951 . S
H407 C392 0.951 . S
H408 C394 0.951 . S
H409 C395 0.950 . S
H410 C396 0.950 . S
H411 C397 0.950 . S
H412 C399 0.950 . S
H413 C400 0.951 . S
C414 C415 1.386 . S
C414 C416 1.383 . S
C414 H430 0.951 . S
C415 C414 1.386 . S
C415 C419 1.383 . S
C416 C414 1.383 . S
C416 C417 1.402 . S
C416 H431 0.951 . S
C417 C416 1.402 . S
C417 C418 1.375 . S
C417 C420 1.481 . S
C418 C417 1.375 . S
C418 C419 1.367 . S
C418 H432 0.951 . S
C419 C415 1.383 . S
C419 C418 1.367 . S
C419 H433 0.950 . S
C420 C417 1.481 . S
C420 C421 1.297 . S
C420 H434 0.950 . S
C421 C420 1.297 . S
C421 C422 1.479 . S
C421 H435 0.950 . S
C422 C421 1.479 . S
C422 C423 1.375 . S
C422 C428 1.404 . S
C423 C422 1.375 . S
C423 C424 1.369 . S
C423 H436 0.950 . S
C424 C423 1.369 . S
C424 C425 1.392 . S
C424 H437 0.951 . S
C425 C424 1.392 . S
C425 C427 1.384 . S
H426 C428 0.949 . S
C427 C425 1.384 . S
C427 C428 1.385 . S
C427 H429 0.950 . S
C428 C422 1.404 . S
C428 H426 0.949 . S
C428 C427 1.385 . S
H429 C427 0.950 . S
H430 C414 0.951 . S
H431 C416 0.951 . S
H432 C418 0.951 . S
H433 C419 0.950 . S
H434 C420 0.950 . S
H435 C421 0.950 . S
H436 C423 0.950 . S
H437 C424 0.951 . S
C438 C439 1.386 . S
C438 C440 1.383 . S
C438 H454 0.951 . S
C439 C438 1.386 . S
C439 C443 1.383 . S
C440 C438 1.383 . S
C440 C441 1.402 . S
C440 H455 0.951 . S
C441 C440 1.402 . S
C441 C442 1.375 . S
C441 C444 1.481 1_655 S
C442 C441 1.375 . S
C442 C443 1.367 . S
C442 H456 0.951 . S
C443 C439 1.383 . S
C443 C442 1.367 . S
C443 H457 0.950 . S
C444 C441 1.481 1_455 S
C444 C445 1.297 . S
C444 H458 0.950 . S
C445 C444 1.297 . S
C445 C446 1.479 . S
C445 H459 0.950 . S
C446 C445 1.479 . S
C446 C447 1.375 . S
C446 C452 1.404 . S
C447 C446 1.375 . S
C447 C448 1.369 . S
C447 H460 0.950 . S
C448 C447 1.369 . S
C448 C449 1.392 . S
C448 H461 0.951 . S
C449 C448 1.392 . S
C449 C451 1.384 . S
H450 C452 0.949 . S
C451 C449 1.384 . S
C451 C452 1.385 . S
C451 H453 0.950 . S
C452 C446 1.404 . S
C452 H450 0.949 . S
C452 C451 1.385 . S
H453 C451 0.950 . S
H454 C438 0.951 . S
H455 C440 0.951 . S
H456 C442 0.951 . S
H457 C443 0.950 . S
H458 C444 0.950 . S
H459 C445 0.950 . S
H460 C447 0.950 . S
H461 C448 0.951 . S
C462 C463 1.386 . S
C462 C464 1.383 . S
C462 H478 0.951 . S
C463 C462 1.386 . S
C463 C467 1.383 . S
C464 C462 1.383 . S
C464 C465 1.402 . S
C464 H479 0.951 . S
C465 C464 1.402 . S
C465 C466 1.375 . S
C465 C468 1.481 1_545 S
C466 C465 1.375 . S
C466 C467 1.367 . S
C466 H480 0.951 . S
C467 C463 1.383 . S
C467 C466 1.367 . S
C467 H481 0.950 . S
C468 C465 1.481 1_565 S
C468 C469 1.297 . S
C468 H482 0.950 . S
C469 C468 1.297 . S
C469 C470 1.479 . S
C469 H483 0.950 . S
C470 C469 1.479 . S
C470 C471 1.375 . S
C470 C476 1.404 . S
C471 C470 1.375 . S
C471 C472 1.369 . S
C471 H484 0.950 . S
C472 C471 1.369 . S
C472 C473 1.392 . S
C472 H485 0.951 . S
C473 C472 1.392 . S
C473 C475 1.384 . S
H474 C476 0.949 . S
C475 C473 1.384 . S
C475 C476 1.385 . S
C475 H477 0.950 . S
C476 C470 1.404 . S
C476 H474 0.949 . S
C476 C475 1.385 . S
H477 C475 0.950 . S
H478 C462 0.951 . S
H479 C464 0.951 . S
H480 C466 0.951 . S
H481 C467 0.950 . S
H482 C468 0.950 . S
H483 C469 0.950 . S
H484 C471 0.950 . S
H485 C472 0.951 . S
C486 C487 1.386 . S
C486 C488 1.383 . S
C486 H502 0.951 . S
C487 C486 1.386 . S
C487 C491 1.383 . S
C488 C486 1.383 . S
C488 C489 1.402 . S
C488 H503 0.951 . S
C489 C488 1.402 . S
C489 C490 1.375 . S
C489 C492 1.481 . S
C490 C489 1.375 . S
C490 C491 1.367 . S
C490 H504 0.951 . S
C491 C487 1.383 . S
C491 C490 1.367 . S
C491 H505 0.950 . S
C492 C489 1.481 . S
C492 C493 1.297 . S
C492 H506 0.950 . S
C493 C492 1.297 . S
C493 C494 1.479 . S
C493 H507 0.950 . S
C494 C493 1.479 . S
C494 C495 1.375 . S
C494 C500 1.404 . S
C495 C494 1.375 . S
C495 C496 1.369 . S
C495 H508 0.950 . S
C496 C495 1.369 . S
C496 C497 1.392 . S
C496 H509 0.951 . S
C497 C496 1.392 . S
C497 C499 1.384 . S
H498 C500 0.949 . S
C499 C497 1.384 . S
C499 C500 1.385 . S
C499 H501 0.950 . S
C500 C494 1.404 . S
C500 H498 0.949 . S
C500 C499 1.385 . S
H501 C499 0.950 . S
H502 C486 0.951 . S
H503 C488 0.951 . S
H504 C490 0.951 . S
H505 C491 0.950 . S
H506 C492 0.950 . S
H507 C493 0.950 . S
H508 C495 0.950 . S
H509 C496 0.951 . S
C510 C511 1.386 . S
C510 C512 1.383 . S
C510 H526 0.951 . S
C511 C510 1.386 . S
C511 C515 1.383 . S
C512 C510 1.383 . S
C512 C513 1.402 . S
C512 H527 0.951 1_455 S
C513 C512 1.402 . S
C513 C514 1.375 . S
C513 C516 1.481 1_455 S
C514 C513 1.375 . S
C514 C515 1.367 . S
C514 H528 0.951 . S
C515 C511 1.383 . S
C515 C514 1.367 . S
C515 H529 0.950 . S
C516 C513 1.481 1_655 S
C516 C517 1.297 . S
C516 H530 0.950 . S
C517 C516 1.297 . S
C517 C518 1.479 . S
C517 H531 0.950 . S
C518 C517 1.479 . S
C518 C519 1.375 . S
C518 C524 1.404 . S
C519 C518 1.375 . S
C519 C520 1.369 . S
C519 H532 0.950 . S
C520 C519 1.369 . S
C520 C521 1.392 . S
C520 H533 0.951 . S
C521 C520 1.392 . S
C521 C523 1.384 . S
H522 C524 0.949 . S
C523 C521 1.384 . S
C523 C524 1.385 . S
C523 H525 0.950 . S
C524 C518 1.404 . S
C524 H522 0.949 . S
C524 C523 1.385 . S
H525 C523 0.950 . S
H526 C510 0.951 . S
H527 C512 0.951 1_655 S
H528 C514 0.951 . S
H529 C515 0.950 . S
H530 C516 0.950 . S
H531 C517 0.950 . S
H532 C519 0.950 . S
H533 C520 0.951 . S
C534 C535 1.386 . S
C534 C536 1.383 . S
C534 H550 0.951 . S
C535 C534 1.386 . S
C535 C539 1.383 . S
C536 C534 1.383 . S
C536 C537 1.402 . S
C536 H551 0.951 . S
C537 C536 1.402 . S
C537 C538 1.375 . S
C537 C540 1.481 . S
C538 C537 1.375 . S
C538 C539 1.367 . S
C538 H552 0.951 . S
C539 C535 1.383 . S
C539 C538 1.367 . S
C539 H553 0.950 1_655 S
C540 C537 1.481 . S
C540 C541 1.297 . S
C540 H554 0.950 . S
C541 C540 1.297 . S
C541 C542 1.479 1_545 S
C541 H555 0.950 . S
C542 C541 1.479 1_565 S
C542 C543 1.375 . S
C542 C548 1.404 . S
C543 C542 1.375 . S
C543 C544 1.369 . S
C543 H556 0.950 . S
C544 C543 1.369 . S
C544 C545 1.392 . S
C544 H557 0.951 . S
C545 C544 1.392 . S
C545 C547 1.384 . S
H546 C548 0.949 . S
C547 C545 1.384 . S
C547 C548 1.385 . S
C547 H549 0.950 . S
C548 C542 1.404 . S
C548 H546 0.949 . S
C548 C547 1.385 . S
H549 C547 0.950 . S
H550 C534 0.951 . S
H551 C536 0.951 . S
H552 C538 0.951 . S
H553 C539 0.950 1_455 S
H554 C540 0.950 . S
H555 C541 0.950 . S
H556 C543 0.950 . S
H557 C544 0.951 . S
C127 C88 1.454 . S
C137 C7 1.486 . S
C151 C112 1.505 . S
C161 C25 1.524 . S
C175 C49 1.379 . S
C185 C70 1.419 . S
C199 C4 1.520 . S
C209 C91 1.512 . S
C223 C109 1.450 . S
C233 C28 1.490 . S
C247 C46 1.484 . S
C257 C67 1.490 . S
C271 C3 0.972 . S
C281 C62 1.061 . S
C295 C24 0.826 . S
C305 C20 0.934 . S
C319 C45 0.989 . S
C329 C41 1.120 . S
C343 C66 0.821 . S
C353 C103 0.937 . S
C367 C100 0.966 . S
C377 C124 1.052 . S
C391 C83 1.032 . S
C401 C121 0.979 . S
C415 C19 0.872 . S
C425 C58 0.759 . S
C439 C40 0.880 . S
C449 C16 0.922 . S
C463 C61 0.901 . S
C473 C37 0.951 . S
C487 C82 0.901 . S
C497 C87 0.952 . S
C511 C104 0.792 . S
C521 C108 0.655 . S
C535 C79 0.829 . S
C545 C125 0.934 . S
