# Generated by pormake.
# Topology unj, (4)-cn, num edge types: 1
# Building blocks:
#     Node 0, Type 0, BuildingBlock: TATPOV_clean_sbu_0, # of connection points: 4
#     Node 1, Type 0, BuildingBlock: TATPOV_clean_sbu_0, # of connection points: 4
#     Node 2, Type 0, BuildingBlock: TATPOV_clean_sbu_0, # of connection points: 4
#     Node 3, Type 0, BuildingBlock: TATPOV_clean_sbu_0, # of connection points: 4
#     Node 4, Type 0, BuildingBlock: TATPOV_clean_sbu_0, # of connection points: 4
#     Node 5, Type 0, BuildingBlock: TATPOV_clean_sbu_0, # of connection points: 4
#     Edge 6, Type (0, 0), BuildingBlock: KIFKEQ_clean_linker_1, # of connection points: 2
#     Edge 7, Type (0, 0), BuildingBlock: KIFKEQ_clean_linker_1, # of connection points: 2
#     Edge 8, Type (0, 0), BuildingBlock: KIFKEQ_clean_linker_1, # of connection points: 2
#     Edge 9, Type (0, 0), BuildingBlock: KIFKEQ_clean_linker_1, # of connection points: 2
#     Edge 10, Type (0, 0), BuildingBlock: KIFKEQ_clean_linker_1, # of connection points: 2
#     Edge 11, Type (0, 0), BuildingBlock: KIFKEQ_clean_linker_1, # of connection points: 2
#     Edge 12, Type (0, 0), BuildingBlock: KIFKEQ_clean_linker_1, # of connection points: 2
#     Edge 13, Type (0, 0), BuildingBlock: KIFKEQ_clean_linker_1, # of connection points: 2
#     Edge 14, Type (0, 0), BuildingBlock: KIFKEQ_clean_linker_1, # of connection points: 2
#     Edge 15, Type (0, 0), BuildingBlock: KIFKEQ_clean_linker_1, # of connection points: 2
#     Edge 16, Type (0, 0), BuildingBlock: KIFKEQ_clean_linker_1, # of connection points: 2
#     Edge 17, Type (0, 0), BuildingBlock: KIFKEQ_clean_linker_1, # of connection points: 2
# Relax obj value: 0.021
# Max RMSD: 0.060
# Mean RMSD: 0.060
data_MOF--net-unj--node1-TATPOV_clean_sbu_0--edge1-KIFKEQ_clean_linker_1
_symmetry_space_group_name_H-M    P1
_symmetry_Int_Tables_number       1
_symmetry_cell_setting            triclinic
loop_
_symmetry_equiv_pos_as_xyz
'x, y, z'
_cell_length_a     34.815141
_cell_length_b     35.5053
_cell_length_c     35.181452
_cell_angle_alpha  90.314327
_cell_angle_beta   89.632474
_cell_angle_gamma 120.48503
loop_
_atom_site_label
_atom_site_type_symbol
_atom_site_fract_x
_atom_site_fract_y
_atom_site_fract_z
_atom_type_partial_charge
Zn0 Zn 0.3909 0.14305 0.65019 0.0
Zn1 Zn 0.45015 0.19002 0.59553 0.0
O2 O 0.42231 0.22725 0.60977 0.0
O3 O 0.36991 0.18665 0.65123 0.0
O4 O 0.49061 0.22405 0.55236 0.0
O5 O 0.36091 0.09147 0.6149 0.0
O6 O 0.4088 0.13067 0.57008 0.0
C7 C 0.39033 0.22114 0.63157 0.0
C8 C 0.48312 0.17452 0.67066 0.0
O9 O 0.49122 0.1902 0.63713 0.0
O10 O 0.44329 0.15322 0.68276 0.0
C11 C 0.52413 0.26195 0.55741 0.0
O12 O 0.53357 0.27824 0.59198 0.0
C13 C 0.37516 0.09501 0.58115 0.0
Zn14 Zn 0.24218 0.41175 0.80658 0.0
Zn15 Zn 0.25355 0.47159 0.75657 0.0
O16 O 0.1855 0.43402 0.76379 0.0
O17 O 0.17586 0.37763 0.79711 0.0
O18 O 0.25896 0.51379 0.71578 0.0
O19 O 0.28355 0.39821 0.77739 0.0
O20 O 0.28334 0.44001 0.73148 0.0
C21 C 0.15967 0.39708 0.77907 0.0
C22 C 0.28449 0.49869 0.83823 0.0
O23 O 0.28536 0.50996 0.80371 0.0
O24 O 0.2661 0.45863 0.84688 0.0
C25 C 0.23481 0.5311 0.71823 0.0
O26 O 0.2093 0.52302 0.74836 0.0
C27 C 0.29451 0.41337 0.7441 0.0
Zn28 Zn 0.83598 0.25547 0.97502 0.0
Zn29 Zn 0.77227 0.23757 0.92374 0.0
O30 O 0.75408 0.17696 0.94439 0.0
O31 O 0.80665 0.1907 0.98592 0.0
O32 O 0.72516 0.22369 0.8845 0.0
O33 O 0.88305 0.28484 0.93485 0.0
O34 O 0.83052 0.2671 0.89211 0.0
C35 C 0.77097 0.16366 0.96915 0.0
C36 C 0.78406 0.29481 0.99383 0.0
O37 O 0.76352 0.2761 0.96326 0.0
O38 O 0.81671 0.29134 1.0047 0.0
C39 C 0.72853 0.25166 0.8603 0.0
O40 O 0.76341 0.29137 0.86136 0.0
C41 C 0.87156 0.28479 0.90081 0.0
Zn42 Zn 0.58195 0.81072 0.14804 0.0
Zn43 Zn 0.51766 0.77153 0.09579 0.0
O44 O 0.54376 0.731 0.10232 0.0
O45 O 0.5997 0.76554 0.1421 0.0
O46 O 0.47261 0.73984 0.05424 0.0
O47 O 0.61321 0.86395 0.11548 0.0
O48 O 0.56032 0.83242 0.07244 0.0
C49 C 0.57637 0.73332 0.12056 0.0
C50 C 0.4931 0.78428 0.17649 0.0
O51 O 0.48123 0.77154 0.14235 0.0
O52 O 0.53376 0.80171 0.18575 0.0
C53 C 0.44732 0.69877 0.05782 0.0
O54 O 0.44936 0.68008 0.08928 0.0
C55 C 0.59702 0.86495 0.08368 0.0
Zn56 Zn 0.71108 0.55306 0.30486 0.0
Zn57 Zn 0.71003 0.49339 0.2577 0.0
O58 O 0.77668 0.53346 0.26893 0.0
O59 O 0.77846 0.58658 0.30277 0.0
O60 O 0.71095 0.45094 0.21978 0.0
O61 O 0.67438 0.5656 0.26919 0.0
O62 O 0.68019 0.52182 0.22802 0.0
C63 C 0.79873 0.56964 0.28659 0.0
C64 C 0.66775 0.46667 0.33691 0.0
O65 O 0.67564 0.45593 0.30436 0.0
O66 O 0.68015 0.50621 0.34406 0.0
C67 C 0.68794 0.43848 0.18947 0.0
O68 O 0.65946 0.45147 0.18256 0.0
C69 C 0.66685 0.54819 0.23659 0.0
Zn70 Zn 0.14085 0.72825 0.47292 0.0
Zn71 Zn 0.19265 0.72409 0.42273 0.0
O72 O 0.21924 0.79053 0.43239 0.0
O73 O 0.16769 0.79264 0.46716 0.0
O74 O 0.23357 0.72352 0.38177 0.0
O75 O 0.0862 0.68817 0.44411 0.0
O76 O 0.12999 0.6924 0.39701 0.0
C77 C 0.20426 0.81234 0.44927 0.0
C78 C 0.18892 0.69045 0.5035 0.0
O79 O 0.20109 0.69237 0.46889 0.0
O80 O 0.16421 0.70554 0.51294 0.0
C81 C 0.27524 0.75037 0.38411 0.0
O82 O 0.29059 0.77625 0.4139 0.0
C83 C 0.09097 0.67941 0.41015 0.0
H84 H 0.40321 0.08312 0.51114 0.0
H85 H 0.2939 0.02256 0.59135 0.0
H86 H 0.36348 0.01997 0.4685 0.0
H87 H 0.25484 0.96036 0.54921 0.0
H88 H 0.17477 0.86886 0.46166 0.0
H89 H 0.21842 0.94333 0.48558 0.0
H90 H 0.33901 0.93826 0.47143 0.0
H91 H 0.29522 0.86364 0.44665 0.0
C92 C 0.37071 0.05655 0.51955 0.0
C93 C 0.35172 0.05776 0.55465 0.0
C94 C 0.3481 0.02052 0.4952 0.0
C95 C 0.30588 -0.0144 0.50534 0.0
C96 C 0.28693 -0.01281 0.54024 0.0
C97 C 0.30957 0.0227 0.56461 0.0
C98 C 0.21073 0.88408 0.46257 0.0
C99 C 0.23157 0.86025 0.45306 0.0
C100 C 0.23568 0.92663 0.47637 0.0
C101 C 0.2819 0.94605 0.48126 0.0
C102 C 0.30339 0.92399 0.46801 0.0
C103 C 0.27833 0.8813 0.45385 0.0
H104 H 0.30842 0.20994 0.64558 0.0
H105 H 0.44651 0.30946 0.62986 0.0
H106 H 0.29088 0.26614 0.66391 0.0
H107 H 0.42898 0.36556 0.6497 0.0
H108 H 0.3581 0.39502 0.76465 0.0
H109 H 0.38618 0.35572 0.7272 0.0
H110 H 0.30763 0.35239 0.63157 0.0
H111 H 0.28068 0.39341 0.66861 0.0
C112 C 0.33479 0.24391 0.64536 0.0
C113 C 0.37879 0.25546 0.63647 0.0
C114 C 0.32471 0.27595 0.65559 0.0
C115 C 0.35863 0.31989 0.65792 0.0
C116 C 0.40234 0.33181 0.64762 0.0
C117 C 0.41226 0.29981 0.63634 0.0
C118 C 0.34791 0.38706 0.73527 0.0
C119 C 0.31726 0.39708 0.71943 0.0
C120 C 0.36409 0.36484 0.71388 0.0
C121 C 0.34906 0.35141 0.67666 0.0
C122 C 0.3199 0.36296 0.66016 0.0
C123 C 0.30462 0.38634 0.68126 0.0
H124 H 0.87329 0.25275 0.8304 0.0
H125 H 0.94902 0.36145 0.90626 0.0
H126 H 0.93823 0.28049 0.7876 0.0
H127 H 0.01285 0.3898 0.86322 0.0
H128 H 0.11612 0.44256 0.77307 0.0
H129 H 0.03893 0.41695 0.79173 0.0
H130 H 0.01655 0.2869 0.80766 0.0
H131 H 0.09386 0.3125 0.78988 0.0
C132 C 0.9033 0.28324 0.83721 0.0
C133 C 0.90655 0.30495 0.87158 0.0
C134 C 0.94028 0.299 0.81286 0.0
C135 C 0.98028 0.33733 0.82212 0.0
C136 C 0.98221 0.36051 0.85519 0.0
C137 C 0.94587 0.34417 0.87992 0.0
C138 C 0.09435 0.40821 0.77937 0.0
C139 C 0.11112 0.37962 0.78062 0.0
C140 C 0.05025 0.39365 0.79003 0.0
C141 C 0.02206 0.35008 0.80122 0.0
C142 C 0.03758 0.32057 0.79885 0.0
C143 C 0.08187 0.3353 0.78895 0.0
H144 H 0.68638 0.91417 0.07682 0.0
H145 H 0.56435 0.90358 0.03687 0.0
H146 H 0.72953 0.9828 0.04317 0.0
H147 H 0.6075 0.97414 1.00474 0.0
H148 H 0.69991 0.094 0.93423 0.0
H149 H 0.65834 0.01835 0.95628 0.0
H150 H 0.74568 0.05406 0.05342 0.0
H151 H 0.78796 0.12839 0.0306 0.0
C152 C 0.66883 0.92673 0.06077 0.0
C153 C 0.62211 0.90403 0.05979 0.0
C154 C 0.69353 0.96624 0.04167 0.0
C155 C 0.67209 -0.0153 0.02193 0.0
C156 C 0.6252 0.96087 0.01948 0.0
C157 C 0.60041 0.9206 0.038 0.0
C158 C 0.71047 0.08539 0.96002 0.0
C159 C 0.74733 0.11717 0.98059 0.0
C160 C 0.68645 0.04211 0.97281 0.0
C161 C 0.69861 0.02988 1.00661 0.0
C162 C 0.73583 0.06178 0.0268 0.0
C163 C 0.76004 0.10469 0.01382 0.0
H164 H 0.59691 0.55979 0.24915 0.0
H165 H 0.6864 0.56498 0.16114 0.0
H166 H 0.56804 0.59333 0.20637 0.0
H167 H 0.65846 0.60026 0.11846 0.0
H168 H 0.65681 0.73887 0.12041 0.0
H169 H 0.6716 0.68053 0.13601 0.0
H170 H 0.53023 0.58776 0.13804 0.0
H171 H 0.5154 0.64616 0.12109 0.0
C172 C 0.60958 0.56721 0.22028 0.0
C173 C 0.64406 0.56032 0.20841 0.0
C174 C 0.59281 0.586 0.19572 0.0
C175 C 0.61103 0.59922 0.15918 0.0
C176 C 0.64373 0.58997 0.14645 0.0
C177 C 0.65969 0.56996 0.17079 0.0
C178 C 0.62901 0.70568 0.12272 0.0
C179 C 0.58503 0.69688 0.11998 0.0
C180 C 0.63746 0.67229 0.13135 0.0
C181 C 0.602 0.62982 0.1383 0.0
C182 C 0.55804 0.62029 0.13259 0.0
C183 C 0.54961 0.6536 0.12294 0.0
H184 H 0.0862 0.67102 0.3319 0.0
H185 H 0.00482 0.63898 0.43338 0.0
H186 H 0.01884 0.64517 0.29277 0.0
H187 H 0.93891 0.61428 0.39456 0.0
H188 H 0.85545 0.64802 0.31969 0.0
H189 H 0.93034 0.67279 0.34278 0.0
H190 H 0.92739 0.56085 0.29142 0.0
H191 H 0.85173 0.53532 0.26818 0.0
C192 C 0.05409 0.6578 0.3458 0.0
C193 C 0.05094 0.65761 0.38574 0.0
C194 C 0.01576 0.64319 0.32345 0.0
C195 C 0.97419 0.62852 0.34092 0.0
C196 C 0.97083 0.62603 0.3806 0.0
C197 C 0.00865 0.64018 0.40275 0.0
C198 C 0.87095 0.62908 0.31242 0.0
C199 C 0.84725 0.58925 0.29269 0.0
C200 C 0.91387 0.6434 0.32556 0.0
C201 C 0.93415 0.61847 0.31898 0.0
C202 C 0.91229 0.58062 0.29657 0.0
C203 C 0.86903 0.56606 0.28345 0.0
H204 H 0.59611 0.34481 0.55786 0.0
H205 H 0.50852 0.24043 0.48199 0.0
H206 H 0.63239 0.39205 0.50343 0.0
H207 H 0.5443 0.2881 0.42757 0.0
H208 H 0.64547 0.38033 0.33721 0.0
H209 H 0.61384 0.32877 0.3902 0.0
H210 H 0.60894 0.42791 0.45825 0.0
H211 H 0.64082 0.47916 0.40614 0.0
C212 C 0.58478 0.33183 0.52958 0.0
C213 C 0.54912 0.28903 0.52431 0.0
C214 C 0.6054 0.35898 0.49839 0.0
C215 C 0.59077 0.34399 0.46121 0.0
C216 C 0.55645 0.30055 0.45582 0.0
C217 C 0.53583 0.27333 0.48705 0.0
C218 C 0.63741 0.39095 0.36346 0.0
C219 C 0.64591 0.43393 0.36748 0.0
C220 C 0.61931 0.36145 0.39376 0.0
C221 C 0.6095 0.37449 0.42858 0.0
C222 C 0.61713 0.41714 0.43215 0.0
C223 C 0.63511 0.44645 0.40207 0.0
H224 H 0.19556 0.70861 0.57869 0.0
H225 H 0.21447 0.62888 0.4962 0.0
H226 H 0.21183 0.67337 0.62974 0.0
H227 H 0.22934 0.59197 0.54793 0.0
H228 H 0.28455 0.55658 0.65244 0.0
H229 H 0.27865 0.59784 0.59956 0.0
H230 H 0.17287 0.60381 0.65907 0.0
H231 H 0.17967 0.56412 0.71193 0.0
C232 C 0.20315 0.68338 0.57147 0.0
C233 C 0.20309 0.67104 0.53345 0.0
C234 C 0.21227 0.66298 0.60082 0.0
C235 C 0.22094 0.62913 0.59309 0.0
C236 C 0.22287 0.61799 0.55489 0.0
C237 C 0.21422 0.63897 0.52526 0.0
C238 C 0.26031 0.56707 0.65426 0.0
C239 C 0.23276 0.5573 0.68652 0.0
C240 C 0.25672 0.59042 0.62385 0.0
C241 C 0.22549 0.60442 0.6251 0.0
C242 C 0.19799 0.59445 0.6574 0.0
C243 C 0.20172 0.57141 0.68774 0.0
H244 H 0.65512 0.17128 0.84807 0.0
H245 H 0.72327 0.30395 0.80618 0.0
H246 H 0.59755 0.15082 0.80029 0.0
H247 H 0.665 0.28363 0.75887 0.0
H248 H 0.57308 0.22323 0.65677 0.0
H249 H 0.63353 0.24053 0.70117 0.0
H250 H 0.53705 0.16355 0.78771 0.0
H251 H 0.47693 0.14551 0.74336 0.0
C252 C 0.65777 0.19615 0.82874 0.0
C253 C 0.69371 0.23932 0.83106 0.0
C254 C 0.62464 0.18443 0.80143 0.0
C255 C 0.62657 0.21561 0.77583 0.0
C256 C 0.66279 0.25869 0.77785 0.0
C257 C 0.69602 0.27041 0.80516 0.0
C258 C 0.56481 0.20967 0.68517 0.0
C259 C 0.52013 0.183 0.69649 0.0
C260 C 0.59945 0.21986 0.71068 0.0
C261 C 0.59013 0.20352 0.74802 0.0
C262 C 0.54547 0.17622 0.75903 0.0
C263 C 0.51092 0.16606 0.7336 0.0
H264 H 0.3535 0.58384 0.83363 0.0
H265 H 0.26001 0.48763 0.91233 0.0
H266 H 0.39052 0.63436 0.88664 0.0
H267 H 0.29513 0.53825 0.96467 0.0
H268 H 0.40183 0.61009 0.05286 0.0
H269 H 0.36113 0.56486 0.99911 0.0
H270 H 0.38812 0.68002 0.93606 0.0
H271 H 0.43079 0.72578 0.98989 0.0
C272 C 0.34044 0.57384 0.86215 0.0
C273 C 0.30441 0.53158 0.86896 0.0
C274 C 0.36145 0.6028 0.89252 0.0
C275 C 0.34634 0.59017 0.93015 0.0
C276 C 0.30866 0.54871 0.93636 0.0
C277 C 0.28829 0.5197 0.90626 0.0
C278 C 0.39886 0.62589 0.02771 0.0
C279 C 0.41954 0.67158 0.02574 0.0
C280 C 0.37519 0.59984 0.99681 0.0
C281 C 0.37094 0.61864 0.96315 0.0
C282 C 0.39108 0.66441 0.96133 0.0
C283 C 0.41524 0.69063 0.99229 0.0
H284 H 0.83205 0.35523 0.04774 0.0
H285 H 0.70172 0.28771 0.99603 0.0
H286 H 0.80592 0.38842 0.09373 0.0
H287 H 0.67492 0.32019 0.04317 0.0
H288 H 0.65896 0.42168 0.11578 0.0
H289 H 0.68082 0.38776 0.06621 0.0
H290 H 0.75811 0.36429 0.1483 0.0
H291 H 0.73744 0.39925 0.19739 0.0
C292 C 0.79774 0.34754 0.04616 0.0
C293 C 0.76882 0.31855 0.01847 0.0
C294 C 0.78264 0.36629 0.07278 0.0
C295 C 0.73805 0.35621 0.07271 0.0
C296 C 0.70948 0.32864 0.04399 0.0
C297 C 0.7248 0.31006 0.017 0.0
C298 C 0.68031 0.40891 0.12328 0.0
C299 C 0.69689 0.41358 0.16043 0.0
C300 C 0.69273 0.38937 0.09487 0.0
C301 C 0.7218 0.37396 0.10312 0.0
C302 C 0.73663 0.37688 0.14072 0.0
C303 C 0.72451 0.39663 0.16897 0.0
H304 H 0.36319 0.81172 0.3767 0.0
H305 H 0.257 0.69791 0.32114 0.0
H306 H 0.41396 0.81956 0.3257 0.0
H307 H 0.30849 0.70491 0.27038 0.0
H308 H 0.4045 0.75813 0.16732 0.0
H309 H 0.35086 0.74928 0.21682 0.0
H310 H 0.45275 0.78566 0.30201 0.0
H311 H 0.50622 0.79582 0.25286 0.0
C312 C 0.35073 0.78807 0.35374 0.0
C313 C 0.30604 0.75406 0.35314 0.0
C314 C 0.37998 0.79244 0.32449 0.0
C315 C 0.36552 0.76268 0.29395 0.0
C316 C 0.3207 0.7287 0.29322 0.0
C317 C 0.29125 0.72449 0.32246 0.0
C318 C 0.41536 0.76432 0.19663 0.0
C319 C 0.45978 0.77809 0.20603 0.0
C320 C 0.38456 0.75898 0.22505 0.0
C321 C 0.39749 0.76707 0.26347 0.0
C322 C 0.44175 0.78009 0.27273 0.0
C323 C 0.47246 0.78572 0.24445 0.0
loop_
_geom_bond_atom_site_label_1
_geom_bond_atom_site_label_2
_geom_bond_distance
_geom_bond_site_symmetry_2
_ccdc_geom_bond_type
Zn0 O3 2.031 . S
Zn0 O5 2.049 . S
Zn0 O10 2.067 . S
Zn1 O2 1.962 . S
Zn1 O4 1.986 . S
Zn1 O6 1.996 . S
Zn1 O9 1.943 . S
O2 Zn1 1.962 . S
O2 C7 1.254 . S
O3 Zn0 2.031 . S
O3 C7 1.269 . S
O4 Zn1 1.986 . S
O4 C11 1.262 . S
O5 Zn0 2.049 . S
O5 C13 1.260 . S
O6 Zn1 1.996 . S
O6 C13 1.257 . S
C7 O2 1.254 . S
C7 O3 1.269 . S
C8 O9 1.249 . S
C8 O10 1.270 . S
O9 Zn1 1.943 . S
O9 C8 1.249 . S
O10 Zn0 2.067 . S
O10 C8 1.270 . S
C11 O4 1.262 . S
C11 O12 1.232 . S
O12 C11 1.232 . S
C13 O5 1.260 . S
C13 O6 1.257 . S
Zn14 O17 2.031 . S
Zn14 O19 2.049 . S
Zn14 O24 2.067 . S
Zn15 O16 1.962 . S
Zn15 O18 1.986 . S
Zn15 O20 1.996 . S
Zn15 O23 1.943 . S
O16 Zn15 1.962 . S
O16 C21 1.254 . S
O17 Zn14 2.031 . S
O17 C21 1.269 . S
O18 Zn15 1.986 . S
O18 C25 1.262 . S
O19 Zn14 2.049 . S
O19 C27 1.260 . S
O20 Zn15 1.996 . S
O20 C27 1.257 . S
C21 O16 1.254 . S
C21 O17 1.269 . S
C22 O23 1.249 . S
C22 O24 1.270 . S
O23 Zn15 1.943 . S
O23 C22 1.249 . S
O24 Zn14 2.067 . S
O24 C22 1.270 . S
C25 O18 1.262 . S
C25 O26 1.232 . S
O26 C25 1.232 . S
C27 O19 1.260 . S
C27 O20 1.257 . S
Zn28 O31 2.031 . S
Zn28 O33 2.049 . S
Zn28 O38 2.067 . S
Zn29 O30 1.962 . S
Zn29 O32 1.986 . S
Zn29 O34 1.996 . S
Zn29 O37 1.943 . S
O30 Zn29 1.962 . S
O30 C35 1.254 . S
O31 Zn28 2.031 . S
O31 C35 1.269 . S
O32 Zn29 1.986 . S
O32 C39 1.262 . S
O33 Zn28 2.049 . S
O33 C41 1.260 . S
O34 Zn29 1.996 . S
O34 C41 1.257 . S
C35 O30 1.254 . S
C35 O31 1.269 . S
C36 O37 1.249 . S
C36 O38 1.270 . S
O37 Zn29 1.943 . S
O37 C36 1.249 . S
O38 Zn28 2.067 . S
O38 C36 1.270 . S
C39 O32 1.262 . S
C39 O40 1.232 . S
O40 C39 1.232 . S
C41 O33 1.260 . S
C41 O34 1.257 . S
Zn42 O45 2.031 . S
Zn42 O47 2.049 . S
Zn42 O52 2.067 . S
Zn43 O44 1.962 . S
Zn43 O46 1.986 . S
Zn43 O48 1.996 . S
Zn43 O51 1.943 . S
O44 Zn43 1.962 . S
O44 C49 1.254 . S
O45 Zn42 2.031 . S
O45 C49 1.269 . S
O46 Zn43 1.986 . S
O46 C53 1.262 . S
O47 Zn42 2.049 . S
O47 C55 1.260 . S
O48 Zn43 1.996 . S
O48 C55 1.257 . S
C49 O44 1.254 . S
C49 O45 1.269 . S
C50 O51 1.249 . S
C50 O52 1.270 . S
O51 Zn43 1.943 . S
O51 C50 1.249 . S
O52 Zn42 2.067 . S
O52 C50 1.270 . S
C53 O46 1.262 . S
C53 O54 1.232 . S
O54 C53 1.232 . S
C55 O47 1.260 . S
C55 O48 1.257 . S
Zn56 O59 2.031 . S
Zn56 O61 2.049 . S
Zn56 O66 2.067 . S
Zn57 O58 1.962 . S
Zn57 O60 1.986 . S
Zn57 O62 1.996 . S
Zn57 O65 1.943 . S
O58 Zn57 1.962 . S
O58 C63 1.254 . S
O59 Zn56 2.031 . S
O59 C63 1.269 . S
O60 Zn57 1.986 . S
O60 C67 1.262 . S
O61 Zn56 2.049 . S
O61 C69 1.260 . S
O62 Zn57 1.996 . S
O62 C69 1.257 . S
C63 O58 1.254 . S
C63 O59 1.269 . S
C64 O65 1.249 . S
C64 O66 1.270 . S
O65 Zn57 1.943 . S
O65 C64 1.249 . S
O66 Zn56 2.067 . S
O66 C64 1.270 . S
C67 O60 1.262 . S
C67 O68 1.232 . S
O68 C67 1.232 . S
C69 O61 1.260 . S
C69 O62 1.257 . S
Zn70 O73 2.031 . S
Zn70 O75 2.049 . S
Zn70 O80 2.067 . S
Zn71 O72 1.962 . S
Zn71 O74 1.986 . S
Zn71 O76 1.996 . S
Zn71 O79 1.943 . S
O72 Zn71 1.962 . S
O72 C77 1.254 . S
O73 Zn70 2.031 . S
O73 C77 1.269 . S
O74 Zn71 1.986 . S
O74 C81 1.262 . S
O75 Zn70 2.049 . S
O75 C83 1.260 . S
O76 Zn71 1.996 . S
O76 C83 1.257 . S
C77 O72 1.254 . S
C77 O73 1.269 . S
C78 O79 1.249 . S
C78 O80 1.270 . S
O79 Zn71 1.943 . S
O79 C78 1.249 . S
O80 Zn70 2.067 . S
O80 C78 1.270 . S
C81 O74 1.262 . S
C81 O82 1.232 . S
O82 C81 1.232 . S
C83 O75 1.260 . S
C83 O76 1.257 . S
H84 C92 0.950 . S
H85 C97 0.950 . S
H86 C94 0.950 . S
H87 C96 0.950 . S
H88 C98 0.950 . S
H89 C100 0.950 . S
H90 C102 0.950 . S
H91 C103 0.950 . S
C92 H84 0.950 . S
C92 C93 1.386 . S
C92 C94 1.391 . S
C93 C92 1.386 . S
C93 C97 1.393 . S
C94 H86 0.950 . S
C94 C92 1.391 . S
C94 C95 1.400 . S
C95 C94 1.400 . S
C95 C96 1.398 . S
C95 C101 1.491 1_545 S
C96 H87 0.950 . S
C96 C95 1.398 . S
C96 C97 1.391 . S
C97 H85 0.950 . S
C97 C93 1.393 . S
C97 C96 1.391 . S
C98 H88 0.950 . S
C98 C99 1.386 . S
C98 C100 1.391 . S
C99 C98 1.386 . S
C99 C103 1.393 . S
C100 H89 0.950 . S
C100 C98 1.391 . S
C100 C101 1.400 . S
C101 C95 1.491 1_565 S
C101 C100 1.400 . S
C101 C102 1.398 . S
C102 H90 0.950 . S
C102 C101 1.398 . S
C102 C103 1.391 . S
C103 H91 0.950 . S
C103 C99 1.393 . S
C103 C102 1.391 . S
H104 C112 0.950 . S
H105 C117 0.950 . S
H106 C114 0.950 . S
H107 C116 0.950 . S
H108 C118 0.950 . S
H109 C120 0.950 . S
H110 C122 0.950 . S
H111 C123 0.950 . S
C112 H104 0.950 . S
C112 C113 1.386 . S
C112 C114 1.391 . S
C113 C112 1.386 . S
C113 C117 1.393 . S
C114 H106 0.950 . S
C114 C112 1.391 . S
C114 C115 1.400 . S
C115 C114 1.400 . S
C115 C116 1.398 . S
C115 C121 1.491 . S
C116 H107 0.950 . S
C116 C115 1.398 . S
C116 C117 1.391 . S
C117 H105 0.950 . S
C117 C113 1.393 . S
C117 C116 1.391 . S
C118 H108 0.950 . S
C118 C119 1.386 . S
C118 C120 1.391 . S
C119 C118 1.386 . S
C119 C123 1.393 . S
C120 H109 0.950 . S
C120 C118 1.391 . S
C120 C121 1.400 . S
C121 C115 1.491 . S
C121 C120 1.400 . S
C121 C122 1.398 . S
C122 H110 0.950 . S
C122 C121 1.398 . S
C122 C123 1.391 . S
C123 H111 0.950 . S
C123 C119 1.393 . S
C123 C122 1.391 . S
H124 C132 0.950 . S
H125 C137 0.950 . S
H126 C134 0.950 . S
H127 C136 0.950 . S
H128 C138 0.950 . S
H129 C140 0.950 . S
H130 C142 0.950 . S
H131 C143 0.950 . S
C132 H124 0.950 . S
C132 C133 1.386 . S
C132 C134 1.391 . S
C133 C132 1.386 . S
C133 C137 1.393 . S
C134 H126 0.950 . S
C134 C132 1.391 . S
C134 C135 1.400 . S
C135 C134 1.400 . S
C135 C136 1.398 . S
C135 C141 1.491 1_655 S
C136 H127 0.950 . S
C136 C135 1.398 . S
C136 C137 1.391 . S
C137 H125 0.950 . S
C137 C133 1.393 . S
C137 C136 1.391 . S
C138 H128 0.950 . S
C138 C139 1.386 . S
C138 C140 1.391 . S
C139 C138 1.386 . S
C139 C143 1.393 . S
C140 H129 0.950 . S
C140 C138 1.391 . S
C140 C141 1.400 . S
C141 C135 1.491 1_455 S
C141 C140 1.400 . S
C141 C142 1.398 . S
C142 H130 0.950 . S
C142 C141 1.398 . S
C142 C143 1.391 . S
C143 H131 0.950 . S
C143 C139 1.393 . S
C143 C142 1.391 . S
H144 C152 0.950 . S
H145 C157 0.950 . S
H146 C154 0.950 . S
H147 C156 0.950 1_556 S
H148 C158 0.950 . S
H149 C160 0.950 . S
H150 C162 0.950 . S
H151 C163 0.950 . S
C152 H144 0.950 . S
C152 C153 1.386 . S
C152 C154 1.391 . S
C153 C152 1.386 . S
C153 C157 1.393 . S
C154 H146 0.950 . S
C154 C152 1.391 . S
C154 C155 1.400 . S
C155 C154 1.400 . S
C155 C156 1.398 . S
C155 C161 1.491 1_564 S
C156 H147 0.950 1_554 S
C156 C155 1.398 . S
C156 C157 1.391 . S
C157 H145 0.950 . S
C157 C153 1.393 . S
C157 C156 1.391 . S
C158 H148 0.950 . S
C158 C159 1.386 . S
C158 C160 1.391 . S
C159 C158 1.386 . S
C159 C163 1.393 . S
C160 H149 0.950 . S
C160 C158 1.391 . S
C160 C161 1.400 . S
C161 C155 1.491 1_546 S
C161 C160 1.400 . S
C161 C162 1.398 1_556 S
C162 H150 0.950 . S
C162 C161 1.398 1_554 S
C162 C163 1.391 1_554 S
C163 H151 0.950 . S
C163 C159 1.393 . S
C163 C162 1.391 1_556 S
H164 C172 0.950 . S
H165 C177 0.950 . S
H166 C174 0.950 . S
H167 C176 0.950 . S
H168 C178 0.950 . S
H169 C180 0.950 . S
H170 C182 0.950 . S
H171 C183 0.950 . S
C172 H164 0.950 . S
C172 C173 1.386 . S
C172 C174 1.391 . S
C173 C172 1.386 . S
C173 C177 1.393 . S
C174 H166 0.950 . S
C174 C172 1.391 . S
C174 C175 1.400 . S
C175 C174 1.400 . S
C175 C176 1.398 . S
C175 C181 1.491 . S
C176 H167 0.950 . S
C176 C175 1.398 . S
C176 C177 1.391 . S
C177 H165 0.950 . S
C177 C173 1.393 . S
C177 C176 1.391 . S
C178 H168 0.950 . S
C178 C179 1.386 . S
C178 C180 1.391 . S
C179 C178 1.386 . S
C179 C183 1.393 . S
C180 H169 0.950 . S
C180 C178 1.391 . S
C180 C181 1.400 . S
C181 C175 1.491 . S
C181 C180 1.400 . S
C181 C182 1.398 . S
C182 H170 0.950 . S
C182 C181 1.398 . S
C182 C183 1.391 . S
C183 H171 0.950 . S
C183 C179 1.393 . S
C183 C182 1.391 . S
H184 C192 0.950 . S
H185 C197 0.950 . S
H186 C194 0.950 . S
H187 C196 0.950 . S
H188 C198 0.950 . S
H189 C200 0.950 . S
H190 C202 0.950 . S
H191 C203 0.950 . S
C192 H184 0.950 . S
C192 C193 1.386 . S
C192 C194 1.391 . S
C193 C192 1.386 . S
C193 C197 1.393 . S
C194 H186 0.950 . S
C194 C192 1.391 . S
C194 C195 1.400 . S
C195 C194 1.400 . S
C195 C196 1.398 . S
C195 C201 1.491 1_455 S
C196 H187 0.950 . S
C196 C195 1.398 . S
C196 C197 1.391 . S
C197 H185 0.950 . S
C197 C193 1.393 . S
C197 C196 1.391 . S
C198 H188 0.950 . S
C198 C199 1.386 . S
C198 C200 1.391 . S
C199 C198 1.386 . S
C199 C203 1.393 . S
C200 H189 0.950 . S
C200 C198 1.391 . S
C200 C201 1.400 . S
C201 C195 1.491 1_655 S
C201 C200 1.400 . S
C201 C202 1.398 . S
C202 H190 0.950 . S
C202 C201 1.398 . S
C202 C203 1.391 . S
C203 H191 0.950 . S
C203 C199 1.393 . S
C203 C202 1.391 . S
H204 C212 0.950 . S
H205 C217 0.950 . S
H206 C214 0.950 . S
H207 C216 0.950 . S
H208 C218 0.950 . S
H209 C220 0.950 . S
H210 C222 0.950 . S
H211 C223 0.950 . S
C212 H204 0.950 . S
C212 C213 1.386 . S
C212 C214 1.391 . S
C213 C212 1.386 . S
C213 C217 1.393 . S
C214 H206 0.950 . S
C214 C212 1.391 . S
C214 C215 1.400 . S
C215 C214 1.400 . S
C215 C216 1.398 . S
C215 C221 1.491 . S
C216 H207 0.950 . S
C216 C215 1.398 . S
C216 C217 1.391 . S
C217 H205 0.950 . S
C217 C213 1.393 . S
C217 C216 1.391 . S
C218 H208 0.950 . S
C218 C219 1.386 . S
C218 C220 1.391 . S
C219 C218 1.386 . S
C219 C223 1.393 . S
C220 H209 0.950 . S
C220 C218 1.391 . S
C220 C221 1.400 . S
C221 C215 1.491 . S
C221 C220 1.400 . S
C221 C222 1.398 . S
C222 H210 0.950 . S
C222 C221 1.398 . S
C222 C223 1.391 . S
C223 H211 0.950 . S
C223 C219 1.393 . S
C223 C222 1.391 . S
H224 C232 0.950 . S
H225 C237 0.950 . S
H226 C234 0.950 . S
H227 C236 0.950 . S
H228 C238 0.950 . S
H229 C240 0.950 . S
H230 C242 0.950 . S
H231 C243 0.950 . S
C232 H224 0.950 . S
C232 C233 1.386 . S
C232 C234 1.391 . S
C233 C232 1.386 . S
C233 C237 1.393 . S
C234 H226 0.950 . S
C234 C232 1.391 . S
C234 C235 1.400 . S
C235 C234 1.400 . S
C235 C236 1.398 . S
C235 C241 1.491 . S
C236 H227 0.950 . S
C236 C235 1.398 . S
C236 C237 1.391 . S
C237 H225 0.950 . S
C237 C233 1.393 . S
C237 C236 1.391 . S
C238 H228 0.950 . S
C238 C239 1.386 . S
C238 C240 1.391 . S
C239 C238 1.386 . S
C239 C243 1.393 . S
C240 H229 0.950 . S
C240 C238 1.391 . S
C240 C241 1.400 . S
C241 C235 1.491 . S
C241 C240 1.400 . S
C241 C242 1.398 . S
C242 H230 0.950 . S
C242 C241 1.398 . S
C242 C243 1.391 . S
C243 H231 0.950 . S
C243 C239 1.393 . S
C243 C242 1.391 . S
H244 C252 0.950 . S
H245 C257 0.950 . S
H246 C254 0.950 . S
H247 C256 0.950 . S
H248 C258 0.950 . S
H249 C260 0.950 . S
H250 C262 0.950 . S
H251 C263 0.950 . S
C252 H244 0.950 . S
C252 C253 1.386 . S
C252 C254 1.391 . S
C253 C252 1.386 . S
C253 C257 1.393 . S
C254 H246 0.950 . S
C254 C252 1.391 . S
C254 C255 1.400 . S
C255 C254 1.400 . S
C255 C256 1.398 . S
C255 C261 1.491 . S
C256 H247 0.950 . S
C256 C255 1.398 . S
C256 C257 1.391 . S
C257 H245 0.950 . S
C257 C253 1.393 . S
C257 C256 1.391 . S
C258 H248 0.950 . S
C258 C259 1.386 . S
C258 C260 1.391 . S
C259 C258 1.386 . S
C259 C263 1.393 . S
C260 H249 0.950 . S
C260 C258 1.391 . S
C260 C261 1.400 . S
C261 C255 1.491 . S
C261 C260 1.400 . S
C261 C262 1.398 . S
C262 H250 0.950 . S
C262 C261 1.398 . S
C262 C263 1.391 . S
C263 H251 0.950 . S
C263 C259 1.393 . S
C263 C262 1.391 . S
H264 C272 0.950 . S
H265 C277 0.950 . S
H266 C274 0.950 . S
H267 C276 0.950 . S
H268 C278 0.950 1_554 S
H269 C280 0.950 . S
H270 C282 0.950 . S
H271 C283 0.950 . S
C272 H264 0.950 . S
C272 C273 1.386 . S
C272 C274 1.391 . S
C273 C272 1.386 . S
C273 C277 1.393 . S
C274 H266 0.950 . S
C274 C272 1.391 . S
C274 C275 1.400 . S
C275 C274 1.400 . S
C275 C276 1.398 . S
C275 C281 1.491 . S
C276 H267 0.950 . S
C276 C275 1.398 . S
C276 C277 1.391 . S
C277 H265 0.950 . S
C277 C273 1.393 . S
C277 C276 1.391 . S
C278 H268 0.950 1_556 S
C278 C279 1.386 . S
C278 C280 1.391 . S
C279 C278 1.386 . S
C279 C283 1.393 . S
C280 H269 0.950 . S
C280 C278 1.391 . S
C280 C281 1.400 . S
C281 C275 1.491 . S
C281 C280 1.400 . S
C281 C282 1.398 . S
C282 H270 0.950 . S
C282 C281 1.398 . S
C282 C283 1.391 . S
C283 H271 0.950 . S
C283 C279 1.393 . S
C283 C282 1.391 . S
H284 C292 0.950 1_556 S
H285 C297 0.950 . S
H286 C294 0.950 . S
H287 C296 0.950 . S
H288 C298 0.950 . S
H289 C300 0.950 . S
H290 C302 0.950 . S
H291 C303 0.950 . S
C292 H284 0.950 1_554 S
C292 C293 1.386 . S
C292 C294 1.391 . S
C293 C292 1.386 . S
C293 C297 1.393 . S
C294 H286 0.950 . S
C294 C292 1.391 . S
C294 C295 1.400 . S
C295 C294 1.400 . S
C295 C296 1.398 . S
C295 C301 1.491 . S
C296 H287 0.950 . S
C296 C295 1.398 . S
C296 C297 1.391 . S
C297 H285 0.950 . S
C297 C293 1.393 . S
C297 C296 1.391 . S
C298 H288 0.950 . S
C298 C299 1.386 . S
C298 C300 1.391 . S
C299 C298 1.386 . S
C299 C303 1.393 . S
C300 H289 0.950 . S
C300 C298 1.391 . S
C300 C301 1.400 . S
C301 C295 1.491 . S
C301 C300 1.400 . S
C301 C302 1.398 . S
C302 H290 0.950 . S
C302 C301 1.398 . S
C302 C303 1.391 . S
C303 H291 0.950 . S
C303 C299 1.393 . S
C303 C302 1.391 . S
H304 C312 0.950 . S
H305 C317 0.950 . S
H306 C314 0.950 . S
H307 C316 0.950 . S
H308 C318 0.950 . S
H309 C320 0.950 . S
H310 C322 0.950 . S
H311 C323 0.950 . S
C312 H304 0.950 . S
C312 C313 1.386 . S
C312 C314 1.391 . S
C313 C312 1.386 . S
C313 C317 1.393 . S
C314 H306 0.950 . S
C314 C312 1.391 . S
C314 C315 1.400 . S
C315 C314 1.400 . S
C315 C316 1.398 . S
C315 C321 1.491 . S
C316 H307 0.950 . S
C316 C315 1.398 . S
C316 C317 1.391 . S
C317 H305 0.950 . S
C317 C313 1.393 . S
C317 C316 1.391 . S
C318 H308 0.950 . S
C318 C319 1.386 . S
C318 C320 1.391 . S
C319 C318 1.386 . S
C319 C323 1.393 . S
C320 H309 0.950 . S
C320 C318 1.391 . S
C320 C321 1.400 . S
C321 C315 1.491 . S
C321 C320 1.400 . S
C321 C322 1.398 . S
C322 H310 0.950 . S
C322 C321 1.398 . S
C322 C323 1.391 . S
C323 H311 0.950 . S
C323 C319 1.393 . S
C323 C322 1.391 . S
C93 C13 1.350 . S
C99 C77 1.423 . S
C113 C7 1.420 . S
C119 C27 1.376 . S
C133 C41 1.374 . S
C139 C21 1.421 . S
C153 C55 1.370 . S
C159 C35 1.423 . S
C173 C69 1.345 . S
C179 C49 1.426 . S
C193 C83 1.369 . S
C199 C63 1.420 . S
C213 C11 1.527 . S
C219 C64 1.503 . S
C233 C78 1.494 . S
C239 C25 1.531 . S
C253 C39 1.526 . S
C259 C8 1.506 . S
C273 C22 1.511 . S
C279 C53 1.525 1_556 S
C293 C36 1.508 1_554 S
C299 C67 1.525 . S
C313 C81 1.532 . S
C319 C50 1.493 . S
