# Generated by pormake.
# Topology wfx, (7)-cn, num edge types: 1
# Building blocks:
#     Node 0, Type 0, BuildingBlock: NUHQUE_clean_sbu_2, # of connection points: 7
#     Node 1, Type 0, BuildingBlock: NUHQUE_clean_sbu_2, # of connection points: 7
#     Node 2, Type 0, BuildingBlock: NUHQUE_clean_sbu_2, # of connection points: 7
#     Node 3, Type 0, BuildingBlock: NUHQUE_clean_sbu_2, # of connection points: 7
#     Node 4, Type 0, BuildingBlock: NUHQUE_clean_sbu_2, # of connection points: 7
#     Node 5, Type 0, BuildingBlock: NUHQUE_clean_sbu_2, # of connection points: 7
#     Node 6, Type 0, BuildingBlock: NUHQUE_clean_sbu_2, # of connection points: 7
#     Node 7, Type 0, BuildingBlock: NUHQUE_clean_sbu_2, # of connection points: 7
#     Node 8, Type 0, BuildingBlock: NUHQUE_clean_sbu_2, # of connection points: 7
#     Node 9, Type 0, BuildingBlock: NUHQUE_clean_sbu_2, # of connection points: 7
#     Node 10, Type 0, BuildingBlock: NUHQUE_clean_sbu_2, # of connection points: 7
#     Node 11, Type 0, BuildingBlock: NUHQUE_clean_sbu_2, # of connection points: 7
#     Node 12, Type 0, BuildingBlock: NUHQUE_clean_sbu_2, # of connection points: 7
#     Node 13, Type 0, BuildingBlock: NUHQUE_clean_sbu_2, # of connection points: 7
#     Node 14, Type 0, BuildingBlock: NUHQUE_clean_sbu_2, # of connection points: 7
#     Node 15, Type 0, BuildingBlock: NUHQUE_clean_sbu_2, # of connection points: 7
#     Edge 16, Type (0, 0), BuildingBlock: XIVTED_clean_linker_0, # of connection points: 2
#     Edge 17, Type (0, 0), BuildingBlock: XIVTED_clean_linker_0, # of connection points: 2
#     Edge 18, Type (0, 0), BuildingBlock: XIVTED_clean_linker_0, # of connection points: 2
#     Edge 19, Type (0, 0), BuildingBlock: XIVTED_clean_linker_0, # of connection points: 2
#     Edge 20, Type (0, 0), BuildingBlock: XIVTED_clean_linker_0, # of connection points: 2
#     Edge 21, Type (0, 0), BuildingBlock: XIVTED_clean_linker_0, # of connection points: 2
#     Edge 22, Type (0, 0), BuildingBlock: XIVTED_clean_linker_0, # of connection points: 2
#     Edge 23, Type (0, 0), BuildingBlock: XIVTED_clean_linker_0, # of connection points: 2
#     Edge 24, Type (0, 0), BuildingBlock: XIVTED_clean_linker_0, # of connection points: 2
#     Edge 25, Type (0, 0), BuildingBlock: XIVTED_clean_linker_0, # of connection points: 2
#     Edge 26, Type (0, 0), BuildingBlock: XIVTED_clean_linker_0, # of connection points: 2
#     Edge 27, Type (0, 0), BuildingBlock: XIVTED_clean_linker_0, # of connection points: 2
#     Edge 28, Type (0, 0), BuildingBlock: XIVTED_clean_linker_0, # of connection points: 2
#     Edge 29, Type (0, 0), BuildingBlock: XIVTED_clean_linker_0, # of connection points: 2
#     Edge 30, Type (0, 0), BuildingBlock: XIVTED_clean_linker_0, # of connection points: 2
#     Edge 31, Type (0, 0), BuildingBlock: XIVTED_clean_linker_0, # of connection points: 2
#     Edge 32, Type (0, 0), BuildingBlock: XIVTED_clean_linker_0, # of connection points: 2
#     Edge 33, Type (0, 0), BuildingBlock: XIVTED_clean_linker_0, # of connection points: 2
#     Edge 34, Type (0, 0), BuildingBlock: XIVTED_clean_linker_0, # of connection points: 2
#     Edge 35, Type (0, 0), BuildingBlock: XIVTED_clean_linker_0, # of connection points: 2
#     Edge 36, Type (0, 0), BuildingBlock: XIVTED_clean_linker_0, # of connection points: 2
#     Edge 37, Type (0, 0), BuildingBlock: XIVTED_clean_linker_0, # of connection points: 2
#     Edge 38, Type (0, 0), BuildingBlock: XIVTED_clean_linker_0, # of connection points: 2
#     Edge 39, Type (0, 0), BuildingBlock: XIVTED_clean_linker_0, # of connection points: 2
#     Edge 40, Type (0, 0), BuildingBlock: XIVTED_clean_linker_0, # of connection points: 2
#     Edge 41, Type (0, 0), BuildingBlock: XIVTED_clean_linker_0, # of connection points: 2
#     Edge 42, Type (0, 0), BuildingBlock: XIVTED_clean_linker_0, # of connection points: 2
#     Edge 43, Type (0, 0), BuildingBlock: XIVTED_clean_linker_0, # of connection points: 2
#     Edge 44, Type (0, 0), BuildingBlock: XIVTED_clean_linker_0, # of connection points: 2
#     Edge 45, Type (0, 0), BuildingBlock: XIVTED_clean_linker_0, # of connection points: 2
#     Edge 46, Type (0, 0), BuildingBlock: XIVTED_clean_linker_0, # of connection points: 2
#     Edge 47, Type (0, 0), BuildingBlock: XIVTED_clean_linker_0, # of connection points: 2
#     Edge 48, Type (0, 0), BuildingBlock: XIVTED_clean_linker_0, # of connection points: 2
#     Edge 49, Type (0, 0), BuildingBlock: XIVTED_clean_linker_0, # of connection points: 2
#     Edge 50, Type (0, 0), BuildingBlock: XIVTED_clean_linker_0, # of connection points: 2
#     Edge 51, Type (0, 0), BuildingBlock: XIVTED_clean_linker_0, # of connection points: 2
#     Edge 52, Type (0, 0), BuildingBlock: XIVTED_clean_linker_0, # of connection points: 2
#     Edge 53, Type (0, 0), BuildingBlock: XIVTED_clean_linker_0, # of connection points: 2
#     Edge 54, Type (0, 0), BuildingBlock: XIVTED_clean_linker_0, # of connection points: 2
#     Edge 55, Type (0, 0), BuildingBlock: XIVTED_clean_linker_0, # of connection points: 2
#     Edge 56, Type (0, 0), BuildingBlock: XIVTED_clean_linker_0, # of connection points: 2
#     Edge 57, Type (0, 0), BuildingBlock: XIVTED_clean_linker_0, # of connection points: 2
#     Edge 58, Type (0, 0), BuildingBlock: XIVTED_clean_linker_0, # of connection points: 2
#     Edge 59, Type (0, 0), BuildingBlock: XIVTED_clean_linker_0, # of connection points: 2
#     Edge 60, Type (0, 0), BuildingBlock: XIVTED_clean_linker_0, # of connection points: 2
#     Edge 61, Type (0, 0), BuildingBlock: XIVTED_clean_linker_0, # of connection points: 2
#     Edge 62, Type (0, 0), BuildingBlock: XIVTED_clean_linker_0, # of connection points: 2
#     Edge 63, Type (0, 0), BuildingBlock: XIVTED_clean_linker_0, # of connection points: 2
#     Edge 64, Type (0, 0), BuildingBlock: XIVTED_clean_linker_0, # of connection points: 2
#     Edge 65, Type (0, 0), BuildingBlock: XIVTED_clean_linker_0, # of connection points: 2
#     Edge 66, Type (0, 0), BuildingBlock: XIVTED_clean_linker_0, # of connection points: 2
#     Edge 67, Type (0, 0), BuildingBlock: XIVTED_clean_linker_0, # of connection points: 2
#     Edge 68, Type (0, 0), BuildingBlock: XIVTED_clean_linker_0, # of connection points: 2
#     Edge 69, Type (0, 0), BuildingBlock: XIVTED_clean_linker_0, # of connection points: 2
#     Edge 70, Type (0, 0), BuildingBlock: XIVTED_clean_linker_0, # of connection points: 2
#     Edge 71, Type (0, 0), BuildingBlock: XIVTED_clean_linker_0, # of connection points: 2
# Relax obj value: 0.246
# Max RMSD: 0.275
# Mean RMSD: 0.275
data_MOF--net-wfx--node1-NUHQUE_clean_sbu_2--edge1-XIVTED_clean_linker_0
_symmetry_space_group_name_H-M    P1
_symmetry_Int_Tables_number       1
_symmetry_cell_setting            triclinic
loop_
_symmetry_equiv_pos_as_xyz
'x, y, z'
_cell_length_a     44.952141
_cell_length_b     44.952935
_cell_length_c     48.213972
_cell_angle_alpha  90.049815
_cell_angle_beta   89.925384
_cell_angle_gamma 89.876766
loop_
_atom_site_label
_atom_site_type_symbol
_atom_site_fract_x
_atom_site_fract_y
_atom_site_fract_z
_atom_type_partial_charge
O0 O 0.67376 0.13618 0.07533 0.0
Tb1 Tb 0.68903 0.12564 0.11691 0.0
Eu2 Eu 0.7017 0.03422 0.12088 0.0
C3 C 0.68411 0.15999 0.06283 0.0
O4 O 0.7056 0.17516 0.0746 0.0
C5 C 0.73465 0.08551 0.08916 0.0
O6 O 0.74231 1.0074 0.1322 0.0
C7 C 0.66108 0.99954 0.10046 0.0
C8 C 0.76467 0.01932 0.14574 0.0
O9 O 0.76284 0.04728 0.15355 0.0
C10 C 0.66734 0.08155 0.16064 0.0
C11 C 0.63046 0.98742 0.1019 0.0
C12 C 0.60998 0.99628 0.08147 0.0
C13 C 0.5821 0.98259 0.07929 0.0
C14 C 0.5742 0.96069 0.09852 0.0
C15 C 0.59429 0.95108 0.11885 0.0
C16 C 0.62265 0.96428 0.12036 0.0
O17 O 0.72865 0.09886 0.11259 0.0
O18 O 0.72633 0.05776 0.08625 0.0
O19 O 0.72066 0.15332 0.13947 0.0
O20 O 0.67718 0.16996 0.13277 0.0
C21 C 0.70316 0.17599 0.14322 0.0
O22 O 0.68628 0.05901 0.15959 0.0
O23 O 0.65899 0.09551 0.138 0.0
O24 O 0.68094 0.99053 0.11863 0.0
O25 O 0.66432 0.02756 0.09305 0.0
H26 H 0.61646 0.01267 0.06613 0.0
H27 H 0.55267 0.94999 0.09683 0.0
H28 H 0.6386 0.95611 0.13537 0.0
O29 O 0.37601 0.64975 0.08384 0.0
Tb30 Tb 0.40257 0.67467 0.11355 0.0
Eu31 Eu 0.47291 0.70217 0.1304 0.0
C32 C 0.3584 0.66581 0.06796 0.0
O33 O 0.35773 0.69474 0.07193 0.0
C34 C 0.43388 0.72361 0.07953 0.0
O35 O 0.50223 0.73984 0.14472 0.0
C36 C 0.50515 0.66258 0.10487 0.0
C37 C 0.49083 0.76432 0.15527 0.0
O38 O 0.46196 0.76582 0.15939 0.0
C39 C 0.43488 0.65767 0.167 0.0
C40 C 0.51654 0.63154 0.10554 0.0
C41 C 0.50489 0.61065 0.08671 0.0
C42 C 0.51704 0.58192 0.08469 0.0
C43 C 0.54071 0.574 0.10205 0.0
C44 C 0.55317 0.59453 0.12054 0.0
C45 C 0.54116 0.62342 0.12215 0.0
O46 O 0.42435 0.69601 0.07846 0.0
O47 O 0.44865 0.73313 0.10129 0.0
O48 O 0.3905 0.71803 0.13132 0.0
O49 O 0.35991 0.68204 0.1338 0.0
C50 C 0.36424 0.70985 0.13992 0.0
O51 O 0.44929 0.68316 0.16764 0.0
O52 O 0.42578 0.64651 0.14319 0.0
O53 O 0.51599 0.68166 0.12288 0.0
O54 O 0.47667 0.66669 0.09972 0.0
H55 H 0.48683 0.61699 0.07303 0.0
H56 H 0.55096 0.55226 0.0998 0.0
H57 H 0.55135 0.63954 0.13587 0.0
O58 O 0.86396 0.38308 0.07547 0.0
Tb59 Tb 0.83802 0.40846 0.10552 0.0
Eu60 Eu 0.80876 0.47949 0.12455 0.0
C61 C 0.84899 0.36603 0.05819 0.0
O62 O 0.81979 0.36628 0.05964 0.0
C63 C 0.78623 0.43848 0.07534 0.0
O64 O 0.77037 0.50781 0.1394 0.0
C65 C 0.84589 0.51307 0.09744 0.0
C66 C 0.74586 0.49582 0.14921 0.0
O67 O 0.74472 0.46682 0.15246 0.0
C68 C 0.85542 0.44163 0.15897 0.0
C69 C 0.87654 0.52545 0.09607 0.0
C70 C 0.89569 0.51556 0.07479 0.0
C71 C 0.92345 0.52909 0.07054 0.0
C72 C 0.93256 0.55178 0.08848 0.0
C73 C 0.91387 0.56248 0.10948 0.0
C74 C 0.88561 0.5495 0.1131 0.0
O75 O 0.81422 0.4308 0.07217 0.0
O76 O 0.77751 0.45263 0.09778 0.0
O77 O 0.79587 0.39329 0.12388 0.0
O78 O 0.83388 0.36511 0.12519 0.0
C79 C 0.80595 0.36744 0.1318 0.0
O80 O 0.83006 0.45624 0.1608 0.0
O81 O 0.8658 0.43294 0.13466 0.0
O82 O 0.82789 0.52309 0.11684 0.0
O83 O 0.84215 0.4846 0.09197 0.0
H84 H 0.88836 0.49835 0.06061 0.0
H85 H 0.95408 0.56214 0.08535 0.0
H86 H 0.87076 0.5584 0.12877 0.0
O87 O 0.13696 0.84408 0.07639 0.0
Tb88 Tb 0.12604 0.82705 0.11751 0.0
Eu89 Eu 0.04188 0.8141 0.12524 0.0
C90 C 0.14781 0.87114 0.0737 0.0
O91 O 0.14829 0.88861 0.09557 0.0
C92 C 0.08947 0.7779 0.08735 0.0
O93 O 0.01345 0.77383 0.13465 0.0
C94 C 0.00811 0.85631 0.10624 0.0
C95 C 0.025 0.74814 0.1421 0.0
O96 O 0.05392 0.74611 0.14556 0.0
C97 C 0.08611 0.85057 0.16339 0.0
C98 C 0.99707 0.88736 0.10769 0.0
C99 C 0.00824 0.90806 0.0885 0.0
C100 C 0.99521 0.93624 0.08564 0.0
C101 C 0.9716 0.94423 0.10308 0.0
C102 C 0.95974 0.92392 0.12218 0.0
C103 C 0.9724 0.89532 0.1243 0.0
O104 O 0.11029 0.78311 0.1058 0.0
O105 O 0.06329 0.791 0.08855 0.0
O106 O 0.1519 0.80428 0.14963 0.0
O107 O 0.17316 0.83647 0.1245 0.0
C108 C 0.17702 0.81747 0.14445 0.0
O109 O 0.06673 0.82864 0.16382 0.0
O110 O 0.09829 0.85855 0.13979 0.0
O111 O 0.99896 0.83686 0.12473 0.0
O112 O 0.03571 0.85193 0.09799 0.0
H113 H 0.02624 0.90173 0.07471 0.0
H114 H 0.96067 0.96553 0.10014 0.0
H115 H 0.96246 0.87915 0.13813 0.0
O116 O 0.14868 0.88054 0.42429 0.0
Tb117 Tb 0.1753 0.90596 0.39504 0.0
Eu118 Eu 0.20372 0.9783 0.3793 0.0
C119 C 0.1635 0.86166 0.43994 0.0
O120 O 0.19236 0.85928 0.43614 0.0
C121 C 0.22471 0.93632 0.42897 0.0
O122 O 0.24256 1.0072 0.3665 0.0
C123 C 0.16418 0.01083 0.40481 0.0
C124 C 0.26774 0.9954 0.35783 0.0
O125 O 0.2693 0.96642 0.35449 0.0
C126 C 0.16007 0.93993 0.34203 0.0
C127 C 0.13346 0.02333 0.40431 0.0
C128 C 0.11266 0.01355 0.42423 0.0
C129 C 0.08438 0.02685 0.42632 0.0
C130 C 0.07689 0.04983 0.408 0.0
C131 C 0.09729 0.06047 0.38843 0.0
C132 C 0.1257 0.04733 0.38671 0.0
O133 O 0.19696 0.92728 0.43011 0.0
O134 O 0.23407 0.95243 0.40796 0.0
O135 O 0.21848 0.89179 0.37816 0.0
O136 O 0.18109 0.86312 0.37457 0.0
C137 C 0.2093 0.86597 0.36927 0.0
O138 O 0.18515 0.95509 0.34149 0.0
O139 O 0.14861 0.93139 0.36587 0.0
O140 O 0.18373 0.02154 0.38715 0.0
O141 O 0.16759 0.98215 0.40954 0.0
H142 H 0.11877 0.99604 0.4386 0.0
H143 H 0.05557 0.06096 0.41013 0.0
H144 H 0.14171 0.05613 0.37207 0.0
O145 O 0.63728 0.14394 0.42273 0.0
Tb146 Tb 0.61563 0.17587 0.39532 0.0
Eu147 Eu 0.5415 0.20095 0.37567 0.0
C148 C 0.63032 0.13983 0.44897 0.0
O149 O 0.60608 0.15202 0.45914 0.0
C150 C 0.58162 0.22778 0.42414 0.0
O151 O 0.51122 0.23825 0.36172 0.0
C152 C 0.51016 0.16189 0.40268 0.0
C153 C 0.52209 0.2627 0.35071 0.0
O154 O 0.55075 0.26408 0.34548 0.0
C155 C 0.58404 0.15978 0.33983 0.0
C156 C 0.49766 0.13125 0.40338 0.0
C157 C 0.50743 0.11137 0.42408 0.0
C158 C 0.49339 0.08373 0.42783 0.0
C159 C 0.47037 0.07551 0.40987 0.0
C160 C 0.45975 0.09501 0.38954 0.0
C161 C 0.47327 0.12304 0.38644 0.0
O162 O 0.59354 0.20133 0.42806 0.0
O163 O 0.56621 0.23398 0.40178 0.0
O164 O 0.66284 0.17778 0.38526 0.0
O165 O 0.63613 0.21538 0.37601 0.0
C166 C 0.66311 0.20454 0.37528 0.0
O167 O 0.5661 0.18292 0.33882 0.0
O168 O 0.59344 0.14904 0.36372 0.0
O169 O 0.49887 0.18072 0.38467 0.0
O170 O 0.53892 0.16562 0.40686 0.0
H171 H 0.52486 0.11811 0.43826 0.0
H172 H 0.4596 0.05413 0.41252 0.0
H173 H 0.46441 0.13846 0.37128 0.0
O174 O 0.34519 0.63716 0.43166 0.0
Tb175 Tb 0.32643 0.62473 0.39169 0.0
Eu176 Eu 0.3173 0.53942 0.389 0.0
C177 C 0.33032 0.65553 0.44788 0.0
O178 O 0.30296 0.66278 0.44107 0.0
C179 C 0.27966 0.58784 0.42448 0.0
O180 O 0.27597 0.51211 0.38073 0.0
C181 C 0.35933 0.5051 0.40784 0.0
C182 C 0.25161 0.52419 0.3706 0.0
O183 O 0.25174 0.5526 0.36422 0.0
C184 C 0.35042 0.58288 0.34713 0.0
C185 C 0.38943 0.49155 0.40555 0.0
C186 C 0.41124 0.50026 0.42485 0.0
C187 C 0.43879 0.48556 0.42627 0.0
C188 C 0.44481 0.46251 0.40754 0.0
C189 C 0.4234 0.45301 0.3884 0.0
C190 C 0.3955 0.46737 0.38758 0.0
O191 O 0.28349 0.6074 0.4046 0.0
O192 O 0.29492 0.56279 0.42524 0.0
O193 O 0.30186 0.6505 0.36059 0.0
O194 O 0.3354 0.67183 0.38402 0.0
C195 C 0.3152 0.67569 0.36513 0.0
O196 O 0.33015 0.56182 0.34855 0.0
O197 O 0.35833 0.59719 0.36966 0.0
O198 O 0.33785 0.49553 0.39166 0.0
O199 O 0.35729 0.53363 0.41387 0.0
H200 H 0.40634 0.51788 0.43954 0.0
H201 H 0.4656 0.45035 0.40916 0.0
H202 H 0.37856 0.45933 0.3735 0.0
O203 O 0.88299 0.37266 0.42002 0.0
Tb204 Tb 0.90457 0.34076 0.39239 0.0
Eu205 Eu 0.97677 0.3135 0.37101 0.0
C206 C 0.88909 0.37577 0.44657 0.0
O207 O 0.9127 0.36276 0.45705 0.0
C208 C 0.93752 0.28835 0.42063 0.0
O209 O 1.00675 0.27546 0.35796 0.0
C210 C 0.00847 0.35217 0.39819 0.0
C211 C 0.99577 0.24999 0.34927 0.0
O212 O 0.96691 0.24774 0.34557 0.0
C213 C 0.93545 0.35692 0.33633 0.0
C214 C 0.01929 0.38339 0.40019 0.0
C215 C 1.00547 0.40313 0.41896 0.0
C216 C 0.01714 0.43166 0.42362 0.0
C217 C 0.04255 0.44061 0.40904 0.0
C218 C 0.05727 0.42126 0.39082 0.0
C219 C 0.04568 0.39251 0.38654 0.0
O220 O 0.92712 0.31537 0.42478 0.0
O221 O 0.95131 0.28125 0.39754 0.0
O222 O 0.88386 0.30109 0.37354 0.0
O223 O 0.85728 0.33882 0.38278 0.0
C224 C 0.85688 0.31194 0.37302 0.0
O225 O 0.95199 0.33276 0.33471 0.0
O226 O 0.92652 0.36747 0.36051 0.0
O227 O 0.01918 0.33532 0.3782 0.0
O228 O 0.98035 0.34661 0.40398 0.0
H229 H 0.98613 0.39601 0.43063 0.0
H230 H 0.05227 0.46217 0.41342 0.0
H231 H 0.05753 0.37721 0.3731 0.0
O232 O 0.3424 0.85885 0.91614 0.0
Tb233 Tb 0.32862 0.88231 0.87881 0.0
Eu234 Eu 0.32504 0.96795 0.88079 0.0
C235 C 0.36815 0.86332 0.9284 0.0
O236 O 0.38594 0.88419 0.91906 0.0
C237 C 0.28547 0.92028 0.91581 0.0
O238 O 0.28423 0.99506 0.87086 0.0
C239 C 0.36603 1.00238 0.90098 0.0
C240 C 0.26049 0.98296 0.85971 0.0
O241 O 0.26088 0.9545 0.85348 0.0
C242 C 0.35809 0.92475 0.83953 0.0
C243 C 0.39568 0.01664 0.89888 0.0
C244 C 0.41806 1.00719 0.91726 0.0
C245 C 0.44505 0.02263 0.91932 0.0
C246 C 0.45018 0.04685 0.90175 0.0
C247 C 0.42804 0.05724 0.88376 0.0
C248 C 0.40058 0.04224 0.88249 0.0
O249 O 0.28763 0.90067 0.89569 0.0
O250 O 0.30216 0.94437 0.91665 0.0
O251 O 0.29996 0.86878 0.84449 0.0
O252 O 0.33281 0.83873 0.85907 0.0
C253 C 0.31123 0.84231 0.84143 0.0
O254 O 0.33907 0.94696 0.84009 0.0
O255 O 0.3635 0.91045 0.86264 0.0
O256 O 0.34413 0.0122 0.88539 0.0
O257 O 0.36491 0.97355 0.90573 0.0
H258 H 0.41364 0.98896 0.93138 0.0
H259 H 0.471 0.05889 0.90329 0.0
H260 H 0.38302 0.05096 0.86942 0.0
O261 O 0.63221 0.35855 0.92109 0.0
Tb262 Tb 0.6164 0.33694 0.88342 0.0
Eu263 Eu 0.53313 0.31769 0.88705 0.0
C264 C 0.64604 0.34385 0.94085 0.0
O265 O 0.64777 0.31476 0.93954 0.0
C266 C 0.58857 0.28325 0.91609 0.0
O267 O 0.50603 0.27661 0.87801 0.0
C268 C 0.50033 0.35784 0.91109 0.0
C269 C 0.51634 0.25527 0.86196 0.0
O270 O 0.54273 0.25834 0.85058 0.0
C271 C 0.56866 0.35593 0.8439 0.0
C272 C 0.48578 0.38746 0.90975 0.0
C273 C 0.49531 0.40957 0.92838 0.0
C274 C 0.48014 0.43677 0.93054 0.0
C275 C 0.45557 0.44204 0.91343 0.0
C276 C 0.44526 0.42029 0.89491 0.0
C277 C 0.4604 0.39284 0.89321 0.0
O278 O 0.60596 0.29174 0.89572 0.0
O279 O 0.5614 0.29387 0.9193 0.0
O280 O 0.66118 0.34868 0.86947 0.0
O281 O 0.63773 0.31522 0.8479 0.0
C282 C 0.66284 0.32936 0.84946 0.0
O283 O 0.55029 0.3333 0.84531 0.0
O284 O 0.58173 0.36482 0.86664 0.0
O285 O 0.48932 0.33593 0.89625 0.0
O286 O 0.52951 0.35689 0.91343 0.0
H287 H 0.51405 0.4052 0.94193 0.0
H288 H 0.44306 0.46252 0.91599 0.0
H289 H 0.45204 0.37564 0.87954 0.0
O290 O 0.16923 0.63967 0.92029 0.0
Tb291 Tb 0.18288 0.62194 0.88032 0.0
Eu292 Eu 0.18998 0.53731 0.88366 0.0
C293 C 0.14205 0.64994 0.92372 0.0
O294 O 0.12314 0.64802 0.90304 0.0
C295 C 0.22694 0.58705 0.91636 0.0
O296 O 0.23517 0.51684 0.87503 0.0
C297 C 0.15059 0.50198 0.90516 0.0
C298 C 0.2398 0.49052 0.86373 0.0
O299 O 0.21717 0.4742 0.85579 0.0
C300 C 0.15307 0.57799 0.84241 0.0
C301 C 0.12071 0.48868 0.9016 0.0
C302 C 0.09757 0.4979 0.91936 0.0
C303 C 0.06983 0.48364 0.91896 0.0
C304 C 0.06502 0.46064 0.8999 0.0
C305 C 0.08789 0.45071 0.88237 0.0
C306 C 0.11582 0.46466 0.88335 0.0
O307 O 0.22489 0.60334 0.89393 0.0
O308 O 0.21066 0.56301 0.91922 0.0
O309 O 0.17743 0.66731 0.86483 0.0
O310 O 0.20798 0.6384 0.8447 0.0
C311 C 0.19688 0.66513 0.84491 0.0
O312 O 0.17339 0.5569 0.8431 0.0
O313 O 0.14788 0.59356 0.86485 0.0
O314 O 0.17243 0.49258 0.88921 0.0
O315 O 0.15171 0.5307 0.91046 0.0
H316 H 0.1017 0.51519 0.93456 0.0
H317 H 0.04372 0.44938 0.89965 0.0
H318 H 0.13374 0.45634 0.87042 0.0
O319 O 0.87327 0.17948 0.92793 0.0
Tb320 Tb 0.89124 0.19704 0.88929 0.0
Eu321 Eu 0.9893 0.19421 0.88398 0.0
C322 C 0.84851 0.19009 0.93873 0.0
O323 O 0.83557 0.21316 0.92713 0.0
C324 C 0.94326 0.22921 0.91789 0.0
O325 O 0.01737 0.23262 0.86991 0.0
C326 C 0.02238 0.15144 0.90288 0.0
C327 C 1.00594 0.25383 0.8545 0.0
O328 O 0.9781 0.25169 0.84647 0.0
C329 C 0.9335 0.16817 0.84628 0.0
C330 C 0.03199 0.11991 0.90161 0.0
C331 C 0.02036 0.09985 0.92116 0.0
C332 C 0.03214 0.07109 0.92387 0.0
C333 C 0.05498 0.06198 0.906 0.0
C334 C 0.06727 0.08163 0.88657 0.0
C335 C 0.05586 0.11074 0.88454 0.0
O336 O 0.93036 0.22392 0.89408 0.0
O337 O 0.97115 0.22136 0.91962 0.0
O338 O 0.87029 0.23772 0.87442 0.0
O339 O 0.85417 0.19622 0.85962 0.0
C340 C 0.85077 0.22504 0.85852 0.0
O341 O 0.96013 0.18084 0.84724 0.0
O342 O 0.91788 0.16278 0.86891 0.0
O343 O 0.03134 0.16994 0.88346 0.0
O344 O 0.99542 0.15721 0.91222 0.0
H345 H 1.00298 0.10705 0.93527 0.0
H346 H 0.06502 0.04023 0.90879 0.0
H347 H 0.06619 0.12635 0.87039 0.0
O348 O 0.8739 0.12953 0.57921 0.0
Tb349 Tb 0.84279 0.11187 0.60964 0.0
Eu350 Eu 0.81764 0.03993 0.63045 0.0
C351 C 0.86331 0.13971 0.5556 0.0
O352 O 0.83475 0.13728 0.55047 0.0
C353 C 0.79027 0.07825 0.58185 0.0
O354 O 0.78199 0.00907 0.64618 0.0
C355 C 0.85741 0.00969 0.60293 0.0
C356 C 0.75798 0.01982 0.65817 0.0
O357 O 0.75641 0.04853 0.66309 0.0
C358 C 0.85798 0.08271 0.66666 0.0
C359 C 0.88816 0.99726 0.6024 0.0
C360 C 0.90907 0.00887 0.58347 0.0
C361 C 0.93724 0.99556 0.58027 0.0
C362 C 0.94449 0.97072 0.59643 0.0
C363 C 0.92389 0.95819 0.61479 0.0
C364 C 0.89565 0.97143 0.61769 0.0
O365 O 0.8174 0.08825 0.57777 0.0
O366 O 0.78361 0.06357 0.60447 0.0
O367 O 0.8035 0.13448 0.62723 0.0
O368 O 0.8424 0.15941 0.61822 0.0
C369 C 0.81539 0.16097 0.62761 0.0
O370 O 0.83487 0.06483 0.66736 0.0
O371 O 0.86926 0.0919 0.64287 0.0
O372 O 0.83819 0.99766 0.62014 0.0
O373 O 0.85367 0.0386 0.59983 0.0
H374 H 0.90313 0.02774 0.57062 0.0
H375 H 0.96568 0.95962 0.59324 0.0
H376 H 0.87948 0.9612 0.63134 0.0
O377 O 0.36612 0.8313 0.58045 0.0
Tb378 Tb 0.38845 0.81767 0.61847 0.0
Eu379 Eu 0.48752 0.81576 0.61876 0.0
C380 C 0.37051 0.85773 0.56945 0.0
O381 O 0.39085 0.87521 0.58021 0.0
C382 C 0.43673 0.78288 0.58759 0.0
O383 O 0.51526 0.77538 0.62961 0.0
C384 C 0.52085 0.85764 0.59844 0.0
C385 C 0.50302 0.75113 0.63973 0.0
O386 O 0.47436 0.75119 0.64512 0.0
C387 C 0.43484 0.84442 0.65743 0.0
C388 C 0.53241 0.88844 0.60107 0.0
C389 C 0.52318 0.91007 0.58174 0.0
C390 C 0.53654 0.9383 0.58105 0.0
C391 C 0.55844 0.94518 0.60065 0.0
C392 C 0.56838 0.92393 0.61975 0.0
C393 C 0.55549 0.89545 0.61981 0.0
O394 O 0.42508 0.78762 0.61204 0.0
O395 O 0.46462 0.79045 0.58427 0.0
O396 O 0.36767 0.77906 0.63733 0.0
O397 O 0.35443 0.82221 0.65086 0.0
C398 C 0.35008 0.79368 0.65389 0.0
O399 O 0.46109 0.83086 0.65689 0.0
O400 O 0.42028 0.84986 0.63429 0.0
O401 O 0.53064 0.8373 0.61581 0.0
O402 O 0.49276 0.85404 0.59147 0.0
H403 H 0.50675 0.90435 0.56619 0.0
H404 H 0.56887 0.96691 0.6002 0.0
H405 H 0.56395 0.87874 0.63396 0.0
O406 O 0.64347 0.38122 0.58363 0.0
Tb407 Tb 0.67702 0.40138 0.60993 0.0
Eu408 Eu 0.70223 0.47056 0.63175 0.0
C409 C 0.64009 0.38737 0.55717 0.0
O410 O 0.65402 0.41021 0.5463 0.0
C411 C 0.73001 0.4336 0.58214 0.0
O412 O 0.73797 0.50031 0.64895 0.0
C413 C 0.66414 0.50249 0.60404 0.0
C414 C 0.76187 0.48892 0.66051 0.0
O415 O 0.76337 0.45998 0.66415 0.0
C416 C 0.65821 0.43009 0.66621 0.0
C417 C 0.63345 0.51495 0.60319 0.0
C418 C 0.61281 0.50306 0.58423 0.0
C419 C 0.58466 0.51618 0.58076 0.0
C420 C 0.57706 0.5411 0.59674 0.0
C421 C 0.59736 0.55387 0.61521 0.0
C422 C 0.62568 0.54086 0.61831 0.0
O423 O 0.70307 0.4233 0.57761 0.0
O424 O 0.73638 0.44711 0.60551 0.0
O425 O 0.71446 0.38074 0.63243 0.0
O426 O 0.68147 0.35342 0.61406 0.0
C427 C 0.706 0.35334 0.62814 0.0
O428 O 0.68239 0.44638 0.66797 0.0
O429 O 0.64847 0.42043 0.64207 0.0
O430 O 0.68275 0.5136 0.62231 0.0
O431 O 0.66777 0.4737 0.59994 0.0
H432 H 0.61895 0.48406 0.57157 0.0
H433 H 0.55582 0.55201 0.59337 0.0
H434 H 0.64167 0.55126 0.63202 0.0
O435 O 0.13061 0.66949 0.58291 0.0
Tb436 Tb 0.11479 0.68419 0.62336 0.0
Eu437 Eu 0.02945 0.69396 0.62168 0.0
C438 C 0.14099 0.64223 0.58018 0.0
O439 O 0.13909 0.62404 0.60142 0.0
C440 C 0.08013 0.73095 0.58988 0.0
O441 O 1.00212 0.73528 0.63015 0.0
C442 C 0.99696 0.65234 0.59995 0.0
C443 C 0.0143 0.75917 0.64105 0.0
O444 O 0.04247 0.75825 0.64824 0.0
C445 C 0.07061 0.65797 0.6633 0.0
C446 C 0.98488 0.6218 0.60216 0.0
C447 C 0.9931 0.60089 0.58181 0.0
C448 C 0.97977 0.57268 0.5808 0.0
C449 C 0.95865 0.5652 0.60099 0.0
C450 C 0.94979 0.58579 0.62128 0.0
C451 C 0.96279 0.61423 0.62173 0.0
O452 O 0.09632 0.72707 0.61215 0.0
O453 O 0.05451 0.71722 0.58708 0.0
O454 O 0.16072 0.67615 0.63622 0.0
O455 O 0.13526 0.70841 0.65782 0.0
C456 C 0.16123 0.69577 0.65603 0.0
O457 O 0.0501 0.67892 0.66236 0.0
O458 O 0.08528 0.65117 0.64069 0.0
O459 O 0.98613 0.67324 0.61624 0.0
O460 O 0.02561 0.65518 0.59492 0.0
H461 H 0.00929 0.60696 0.56613 0.0
H462 H 0.94739 0.54393 0.59976 0.0
H463 H 0.95524 0.63045 0.63683 0.0
H464 H 0.46386 0.96794 0.93812 0.0
H465 H 0.5673 0.03693 0.05728 0.0
H466 H 0.47426 0.06214 0.95259 0.0
H467 H 0.55221 0.94281 0.04684 0.0
H468 H 0.53486 0.04658 0.01754 0.0
H469 H 0.49763 0.95806 0.97688 0.0
C470 C 0.47329 0.98651 0.94938 0.0
C471 C 0.46641 0.01589 0.94193 0.0
C472 C 0.53859 0.02381 0.02399 0.0
C473 C 0.50503 1.00482 0.98621 0.0
C474 C 0.55717 0.01833 0.0466 0.0
C475 C 0.56223 0.98908 0.05552 0.0
C476 C 0.52513 0.99984 0.0101 0.0
C477 C 0.54846 0.96576 0.041 0.0
C478 C 0.49261 0.98089 0.97145 0.0
C479 C 0.47939 0.03913 0.95719 0.0
N480 N 0.53056 0.97164 0.01902 0.0
N481 N 0.49802 0.0331 0.97857 0.0
H482 H 0.50721 0.52202 0.08924 0.0
H483 H 0.48394 0.49746 0.92616 0.0
H484 H 0.50616 0.59377 0.02986 0.0
H485 H 0.49225 0.42586 0.98521 0.0
H486 H 0.49052 0.53329 0.96387 0.0
H487 H 0.49891 0.48668 0.05155 0.0
C488 C 0.50497 0.53035 0.06827 0.0
C489 C 0.50751 0.56088 0.06268 0.0
C490 C 0.49107 0.50974 0.96856 0.0
C491 C 0.49817 0.52052 0.01935 0.0
C492 C 0.48737 0.4893 0.94705 0.0
C493 C 0.48761 0.45863 0.95255 0.0
C494 C 0.49488 0.49948 0.99583 0.0
C495 C 0.49231 0.44927 0.97996 0.0
C496 C 0.5003 0.51017 0.04675 0.0
C497 C 0.50407 0.57047 0.03516 0.0
N498 N 0.4956 0.46961 1.00058 0.0
N499 N 0.49978 0.55034 0.01449 0.0
H500 H 0.05141 0.53864 0.93698 0.0
H501 H 0.93835 0.47363 0.05056 0.0
H502 H 0.0359 0.44482 0.94906 0.0
H503 H 0.95146 0.56726 0.03526 0.0
H504 H 0.97257 0.46231 0.01225 0.0
H505 H 0.01398 0.54949 0.97249 0.0
C506 C 0.04011 0.52035 0.94709 0.0
C507 C 0.04668 0.49082 0.93994 0.0
C508 C 0.96787 0.48533 0.01726 0.0
C509 C 1.00378 0.50298 0.98054 0.0
C510 C 0.94825 0.49176 0.03901 0.0
C511 C 0.94241 0.52139 0.04634 0.0
C512 C 0.98162 0.50873 0.00275 0.0
C513 C 0.95587 0.54407 0.03073 0.0
C514 C 0.01865 0.52652 0.96727 0.0
C515 C 0.0312 0.46795 0.95358 0.0
N516 N 0.97492 0.53727 0.00982 0.0
N517 N 0.01055 0.47451 0.97326 0.0
H518 H 1.00492 0.92023 0.03168 0.0
H519 H 0.02366 0.08742 0.978 0.0
H520 H 1.00266 0.99684 0.08568 0.0
H521 H 0.02236 0.01086 0.9239 0.0
H522 H 0.01537 0.05476 0.01763 0.0
H523 H 0.01279 0.95306 0.99215 0.0
C524 C 1.0066 0.94395 0.0353 0.0
C525 C 1.00327 0.95581 0.06207 0.0
C526 C 0.0167 0.0451 0.99708 0.0
C527 C 0.01151 0.99363 0.01672 0.0
C528 C 0.02109 0.06378 0.97438 0.0
C529 C 0.02361 0.05185 0.94755 0.0
C530 C 0.01493 0.01424 0.99298 0.0
C531 C 0.02079 0.02097 0.94424 0.0
C532 C 0.01074 0.96272 0.01265 0.0
C533 C 1.00493 0.98679 0.06537 0.0
N534 N 0.01672 1.00322 0.9667 0.0
N535 N 0.00887 1.00464 0.04295 0.0
H536 H 0.09669 0.01801 0.48146 0.0
H537 H 0.92489 0.00805 0.52583 0.0
H538 H 0.02394 0.01945 0.42318 0.0
H539 H 0.9976 1.003 0.58395 0.0
H540 H 0.96079 0.01489 0.48818 0.0
H541 H 0.06084 0.01255 0.51934 0.0
C542 C 0.07322 0.01666 0.47658 0.0
C543 C 0.06333 0.01926 0.44908 0.0
C544 C 0.9689 0.01251 0.5092 0.0
C545 C 0.02207 0.01377 0.49243 0.0
C546 C 0.94837 0.00899 0.53075 0.0
C547 C 0.95825 1.00488 0.55807 0.0
C548 C 0.99956 0.01192 0.51499 0.0
C549 C 0.98902 1.0058 0.56314 0.0
C550 C 0.05271 0.01391 0.49825 0.0
C551 C 0.03256 0.01788 0.44408 0.0
N552 N 0.00855 0.00904 0.54182 0.0
N553 N 0.01306 0.01538 0.46551 0.0
H554 H 0.5486 0.06798 0.44798 0.0
H555 H 0.48186 0.95423 0.56025 0.0
H556 H 0.45473 0.05489 0.46218 0.0
H557 H 0.57571 0.97141 0.55059 0.0
H558 H 0.47156 0.99061 0.52368 0.0
H559 H 0.55929 0.033 0.48576 0.0
C560 C 0.53028 0.05789 0.45913 0.0
C561 C 0.50076 0.06403 0.45164 0.0
C562 C 0.49441 0.98649 0.52963 0.0
C563 C 0.51272 0.0239 0.49465 0.0
C564 C 0.50027 0.9656 0.5504 0.0
C565 C 0.52963 0.95996 0.55866 0.0
C566 C 0.51811 1.00169 0.51689 0.0
C567 C 0.55267 0.97546 0.54525 0.0
C568 C 0.53635 0.03783 0.48058 0.0
C569 C 0.47785 0.05028 0.46678 0.0
N570 N 0.54643 0.99557 0.52506 0.0
N571 N 0.4843 0.03082 0.48742 0.0
H572 H 0.59785 0.50282 0.52663 0.0
H573 H 0.42661 0.49454 0.48133 0.0
H574 H 0.52436 0.50842 0.58406 0.0
H575 H 0.4997 0.48941 0.42337 0.0
H576 H 0.46223 0.49922 0.51925 0.0
H577 H 0.56248 0.49507 0.48877 0.0
C578 C 0.57431 0.50182 0.53136 0.0
C579 C 0.56402 0.50641 0.55853 0.0
C580 C 0.47051 0.49718 0.49823 0.0
C581 C 0.52339 0.49831 0.51524 0.0
C582 C 0.45015 0.49488 0.47651 0.0
C583 C 0.46016 0.49168 0.44908 0.0
C584 C 0.50117 0.49627 0.49256 0.0
C585 C 0.49099 0.49159 0.44422 0.0
C586 C 0.5541 0.49775 0.50969 0.0
C587 C 0.53323 0.50533 0.56337 0.0
N588 N 0.51038 0.49379 0.46573 0.0
N589 N 0.51402 0.50161 0.54193 0.0
H590 H 0.98496 0.58621 0.5256 0.0
H591 H 1.00251 0.41661 0.47695 0.0
H592 H 0.98651 0.51192 0.58225 0.0
H593 H 1.00622 0.49152 0.42119 0.0
H594 H 0.992 0.45075 0.51532 0.0
H595 H 0.99036 0.55163 0.48687 0.0
C596 C 0.98684 0.56265 0.52994 0.0
C597 C 0.98544 0.552 0.55728 0.0
C598 C 0.99483 0.4597 0.49465 0.0
C599 C 0.99089 0.51212 0.51287 0.0
C600 C 1.00047 0.44018 0.47268 0.0
C601 C 1.00539 0.45128 0.44587 0.0
C602 C 0.99412 0.49052 0.48975 0.0
C603 C 1.0029 0.48208 0.44161 0.0
C604 C 0.98958 0.54286 0.50777 0.0
C605 C 0.98727 0.52112 0.56152 0.0
N606 N 0.99767 0.50062 0.46334 0.0
N607 N 0.98989 0.50229 0.53957 0.0
H608 H 0.62307 0.8976 0.12292 0.0
H609 H 0.47446 0.8189 0.17565 0.0
H610 H 0.54521 0.94459 0.15149 0.0
H611 H 0.55011 0.77105 0.14293 0.0
H612 H 0.50391 0.86447 0.17557 0.0
H613 H 0.60113 0.85085 0.13935 0.0
C614 C 0.60183 0.89817 0.13354 0.0
C615 C 0.58583 0.92489 0.13577 0.0
C616 C 0.51422 0.84395 0.16871 0.0
C617 C 0.56024 0.87159 0.15391 0.0
C618 C 0.49738 0.81787 0.16876 0.0
C619 C 0.50966 0.79113 0.15891 0.0
C620 C 0.54356 0.84344 0.15858 0.0
C621 C 0.5396 0.79119 0.15046 0.0
C622 C 0.58913 0.87147 0.14262 0.0
C623 C 0.55817 0.92439 0.14929 0.0
N624 N 0.55539 0.81699 0.15015 0.0
N625 N 0.54608 0.89814 0.15748 0.0
H626 H 0.7384 0.5554 0.13853 0.0
H627 H 0.56184 0.54591 0.15329 0.0
H628 H 0.69116 0.47823 0.16824 0.0
H629 H 0.6074 0.62224 0.12008 0.0
H630 H 0.60968 0.52477 0.16722 0.0
H631 H 0.69175 0.58356 0.13924 0.0
C632 C 0.71832 0.54445 0.14557 0.0
C633 C 0.71869 0.51424 0.15302 0.0
C634 C 0.60929 0.54641 0.15736 0.0
C635 C 0.66512 0.54642 0.15379 0.0
C636 C 0.58196 0.55855 0.14959 0.0
C637 C 0.58073 0.58577 0.13542 0.0
C638 C 0.63572 0.56139 0.1506 0.0
C639 C 0.6074 0.60125 0.13108 0.0
C640 C 0.69166 0.56058 0.14594 0.0
C641 C 0.69196 0.50135 0.16205 0.0
N642 N 0.63388 0.58861 0.13821 0.0
N643 N 0.66628 0.5174 0.16192 0.0
H644 H 0.04113 0.69203 0.15865 0.0
H645 H 0.88776 0.61753 0.11196 0.0
H646 H 0.96532 0.74271 0.13057 0.0
H647 H 0.96414 0.56833 0.14041 0.0
H648 H 0.91242 0.66398 0.12575 0.0
H649 H 0.01062 0.64717 0.15834 0.0
C650 C 0.018 0.69381 0.15262 0.0
C651 C 1.00592 0.72123 0.14437 0.0
C652 C 0.92352 0.64299 0.12957 0.0
C653 C 0.97069 0.66965 0.14383 0.0
C654 C 0.90926 0.61647 0.12203 0.0
C655 C 0.92394 0.58911 0.12511 0.0
C656 C 0.9527 0.64205 0.14013 0.0
C657 C 0.95207 0.589 0.13773 0.0
C658 C 1.00052 0.66812 0.15248 0.0
C659 C 0.97568 0.72207 0.13694 0.0
N660 N 0.96566 0.61502 0.14442 0.0
N661 N 0.95921 0.69665 0.13658 0.0
H662 H 0.81667 0.03813 0.16966 0.0
H663 H 0.90718 0.89336 0.12257 0.0
H664 H 0.77628 0.96139 0.13134 0.0
H665 H 0.94799 0.97384 0.15257 0.0
H666 H 0.85826 0.91363 0.135 0.0
H667 H 0.86381 0.01109 0.17204 0.0
C668 C 0.81761 0.01549 0.16199 0.0
C669 C 0.79253 1.00218 0.14993 0.0
C670 C 0.87796 0.92662 0.13941 0.0
C671 C 0.84656 0.97105 0.15258 0.0
C672 C 0.90589 0.91489 0.13261 0.0
C673 C 0.93159 0.93205 0.13641 0.0
C674 C 0.87579 0.9557 0.15003 0.0
C675 C 0.92865 0.96001 0.14913 0.0
C676 C 0.84457 1.00004 0.16337 0.0
C677 C 0.79509 0.97269 0.14054 0.0
N678 N 0.90126 0.97112 0.15514 0.0
N679 N 0.82167 0.95823 0.14181 0.0
H680 H 0.05496 0.24428 0.36287 0.0
H681 H 0.04977 0.06693 0.35405 0.0
H682 H 0.98039 0.19412 0.33168 0.0
H683 H 0.12409 0.11517 0.38779 0.0
H684 H 0.02818 0.11378 0.33798 0.0
H685 H 0.08408 0.19821 0.36516 0.0
C686 C 0.04481 0.22368 0.35613 0.0
C687 C 0.01501 0.2231 0.34734 0.0
C688 C 0.0495 0.11421 0.3484 0.0
C689 C 0.04828 0.17018 0.35001 0.0
C690 C 0.06194 0.08741 0.35735 0.0
C691 C 0.08875 0.08722 0.37221 0.0
C692 C 0.06372 0.1412 0.35471 0.0
C693 C 0.1035 0.11437 0.3762 0.0
C694 C 0.06147 0.19735 0.35748 0.0
C695 C 1.00315 0.1957 0.33883 0.0
N696 N 0.09055 0.14034 0.36791 0.0
N697 N 0.01969 0.17039 0.34061 0.0
H698 H 0.27477 0.05488 0.36973 0.0
H699 H 0.45182 0.04596 0.35724 0.0
H700 H 0.32304 0.97815 0.33994 0.0
H701 H 0.40546 0.12278 0.38888 0.0
H702 H 0.40426 0.02446 0.34316 0.0
H703 H 0.32133 0.08314 0.37013 0.0
C704 C 0.29506 0.04405 0.36293 0.0
C705 C 0.29496 0.01394 0.35506 0.0
C706 C 0.4044 0.04629 0.35267 0.0
C707 C 0.34845 0.04622 0.35554 0.0
C708 C 0.4316 0.05867 0.36047 0.0
C709 C 0.43254 0.08619 0.37417 0.0
C710 C 0.37777 0.0613 0.35898 0.0
C711 C 0.40569 0.10162 0.37814 0.0
C712 C 0.32167 0.06022 0.36319 0.0
C713 C 0.32199 1.00119 0.34641 0.0
N714 N 0.37933 0.08876 0.371 0.0
N715 N 0.34757 0.01728 0.34711 0.0
H716 H 0.394 0.39974 0.38863 0.0
H717 H 0.53721 0.31647 0.32807 0.0
H718 H 0.46967 0.44415 0.35285 0.0
H719 H 0.46401 0.27081 0.36723 0.0
H720 H 0.5084 0.36252 0.32923 0.0
H721 H 0.41429 0.35187 0.37271 0.0
C722 C 0.41433 0.39948 0.37653 0.0
C723 C 0.43021 0.42586 0.37201 0.0
C724 C 0.49844 0.34238 0.3373 0.0
C725 C 0.454 0.3713 0.35444 0.0
C726 C 0.51493 0.31601 0.33663 0.0
C727 C 0.50321 0.28972 0.34788 0.0
C728 C 0.47001 0.34269 0.34949 0.0
C729 C 0.47407 0.29055 0.3585 0.0
C730 C 0.42611 0.37215 0.36775 0.0
C731 C 0.45676 0.42427 0.35673 0.0
N732 N 0.45863 0.31666 0.35936 0.0
N733 N 0.46799 0.39747 0.34883 0.0
H734 H 0.1117 0.39366 0.39434 0.0
H735 H 0.19776 0.54218 0.34988 0.0
H736 H 0.06889 0.47218 0.36211 0.0
H737 H 0.24182 0.46586 0.38543 0.0
H738 H 0.15137 0.51412 0.34863 0.0
H739 H 0.16035 0.4164 0.38487 0.0
C740 C 0.11256 0.4153 0.38451 0.0
C741 C 0.08625 0.43109 0.37903 0.0
C742 C 0.1712 0.50337 0.35654 0.0
C743 C 0.1417 0.45755 0.36876 0.0
C744 C 0.19777 0.51944 0.35728 0.0
C745 C 0.22379 0.50651 0.36798 0.0
C746 C 0.17041 0.47406 0.36668 0.0
C747 C 0.22232 0.47684 0.37713 0.0
C748 C 0.14031 0.42843 0.37941 0.0
C749 C 0.08865 0.45929 0.36674 0.0
N750 N 0.19607 0.46172 0.37646 0.0
N751 N 0.11579 0.4717 0.36229 0.0
H752 H 0.53252 0.20541 0.83276 0.0
H753 H 0.39616 0.10869 0.88931 0.0
H754 H 0.46127 0.2412 0.88285 0.0
H755 H 0.4732 0.0718 0.84856 0.0
H756 H 0.41401 0.15884 0.87816 0.0
H757 H 0.50609 0.15804 0.83035 0.0
C758 C 0.51119 0.20342 0.84307 0.0
C759 C 0.49931 0.22727 0.85833 0.0
C760 C 0.42667 0.13977 0.87107 0.0
C761 C 0.46883 0.17294 0.85563 0.0
C762 C 0.41626 0.11116 0.8771 0.0
C763 C 0.43327 0.08616 0.86982 0.0
C764 C 0.45428 0.14329 0.85771 0.0
C765 C 0.45947 0.09057 0.85452 0.0
C766 C 0.49608 0.17633 0.84166 0.0
C767 C 0.47145 0.22336 0.87107 0.0
N768 N 0.46936 0.11856 0.84929 0.0
N769 N 0.4573 0.19666 0.86964 0.0
H770 H 0.39618 0.38411 0.89102 0.0
H771 H 0.29149 0.52218 0.864 0.0
H772 H 0.42906 0.47017 0.86636 0.0
H773 H 0.25824 0.43239 0.85875 0.0
H774 H 0.34221 0.50276 0.8641 0.0
H775 H 0.34589 0.3996 0.87729 0.0
C776 C 0.39298 0.40592 0.88196 0.0
C777 C 0.41676 0.42603 0.88017 0.0
C778 C 0.32388 0.48726 0.8626 0.0
C779 C 0.35932 0.44415 0.8652 0.0
C780 C 0.29488 0.49835 0.86269 0.0
C781 C 0.27058 0.47889 0.86152 0.0
C782 C 0.32876 0.45637 0.86192 0.0
C783 C 0.27635 0.4482 0.85967 0.0
C784 C 0.36424 0.41485 0.87435 0.0
C785 C 0.41126 0.45414 0.86853 0.0
N786 N 0.30485 0.43783 0.86034 0.0
N787 N 0.3831 0.46253 0.86199 0.0
H788 H 0.06386 0.26544 0.86824 0.0
H789 H 0.04273 0.4389 0.84627 0.0
H790 H 0.98706 0.30504 0.82917 0.0
H791 H 0.12075 0.39963 0.88313 0.0
H792 H 0.02689 0.3896 0.83089 0.0
H793 H 0.08932 0.31327 0.86563 0.0
C794 C 0.05246 0.28409 0.85877 0.0
C795 C 0.02306 0.28135 0.84936 0.0
C796 C 0.04782 0.39175 0.84178 0.0
C797 C 0.05208 0.33627 0.84643 0.0
C798 C 0.05693 0.41991 0.85041 0.0
C799 C 0.0829 0.42319 0.86619 0.0
C800 C 0.0646 0.36665 0.84939 0.0
C801 C 0.10058 0.39799 0.87099 0.0
C802 C 0.06706 0.31142 0.85725 0.0
C803 C 0.00957 0.30621 0.83701 0.0
N804 N 0.09079 0.37065 0.86312 0.0
N805 N 0.02403 0.33272 0.83627 0.0
H806 H 0.25199 0.04215 0.87106 0.0
H807 H 0.07589 0.03129 0.85593 0.0
H808 H 0.20603 0.9644 0.84087 0.0
H809 H 0.12121 0.10963 0.88519 0.0
H810 H 0.1238 0.00965 0.84271 0.0
H811 H 0.20519 0.06984 0.86971 0.0
C812 C 0.23212 0.03094 0.8639 0.0
C813 C 0.23291 1.00075 0.85639 0.0
C814 C 0.12332 0.03182 0.85151 0.0
C815 C 0.17914 0.03241 0.85484 0.0
C816 C 0.09595 0.04424 0.85888 0.0
C817 C 0.09467 0.0722 0.87178 0.0
C818 C 0.14968 0.04731 0.85743 0.0
C819 C 0.12125 0.08806 0.87518 0.0
C820 C 0.20538 0.04682 0.86309 0.0
C821 C 0.20647 0.98754 0.84708 0.0
N822 N 0.14774 0.07518 0.8685 0.0
N823 N 0.18065 1.00335 0.84684 0.0
H824 H 0.95665 0.77035 0.62495 0.0
H825 H 0.97233 0.94583 0.64671 0.0
H826 H 0.03311 0.8127 0.66175 0.0
H827 H 0.89443 0.90499 0.61146 0.0
H828 H 0.99164 0.89656 0.65841 0.0
H829 H 0.93078 0.81837 0.62497 0.0
C830 C 0.96792 0.78965 0.63328 0.0
C831 C 0.99725 0.78746 0.64313 0.0
C832 C 0.97007 0.89826 0.64857 0.0
C833 C 0.9677 0.8426 0.64319 0.0
C834 C 0.95896 0.92642 0.64208 0.0
C835 C 0.93176 0.92945 0.62812 0.0
C836 C 0.9541 0.87278 0.64068 0.0
C837 C 0.91539 0.90361 0.62243 0.0
C838 C 0.9531 0.81709 0.6333 0.0
C839 C 0.01063 0.81327 0.65375 0.0
N840 N 0.92702 0.87631 0.62833 0.0
N841 N 0.99587 0.83972 0.65329 0.0
H842 H 0.75139 0.96074 0.645 0.0
H843 H 0.57515 0.97081 0.65503 0.0
H844 H 0.70358 0.03562 0.67927 0.0
H845 H 0.6218 0.8949 0.62183 0.0
H846 H 0.62221 0.99038 0.67254 0.0
H847 H 0.70504 0.93236 0.64426 0.0
C848 C 0.73126 0.97109 0.65278 0.0
C849 C 0.73133 1.00081 0.66181 0.0
C850 C 0.62219 0.96912 0.66196 0.0
C851 C 0.6781 0.96844 0.66086 0.0
C852 C 0.59528 0.95788 0.65214 0.0
C853 C 0.5947 0.93131 0.63689 0.0
C854 C 0.64882 0.95393 0.65608 0.0
C855 C 0.62135 0.91541 0.6336 0.0
C856 C 0.70477 0.95485 0.65234 0.0
C857 C 0.70457 0.01292 0.67182 0.0
N858 N 0.64746 0.92725 0.64264 0.0
N859 N 0.67902 0.99684 0.67074 0.0
H860 H 0.5616 0.74125 0.62579 0.0
H861 H 0.5486 0.56544 0.64705 0.0
H862 H 0.48458 0.69723 0.65988 0.0
H863 H 0.62598 0.60758 0.61203 0.0
H864 H 0.52831 0.61439 0.65864 0.0
H865 H 0.58843 0.69376 0.62646 0.0
C866 C 0.5504 0.7217 0.6337 0.0
C867 C 0.52063 0.72326 0.64255 0.0
C868 C 0.54998 0.61305 0.64888 0.0
C869 C 0.55129 0.66872 0.64333 0.0
C870 C 0.56165 0.58508 0.64246 0.0
C871 C 0.58899 0.5825 0.62857 0.0
C872 C 0.56552 0.6388 0.64101 0.0
C873 C 0.60493 0.60862 0.62293 0.0
C874 C 0.56577 0.69456 0.63407 0.0
C875 C 0.50738 0.69715 0.65264 0.0
N876 N 0.59276 0.63572 0.62877 0.0
N877 N 0.52269 0.67101 0.65255 0.0
H878 H 0.76812 0.54873 0.65079 0.0
H879 H 0.94429 0.5375 0.65498 0.0
H880 H 0.8166 0.47187 0.67985 0.0
H881 H 0.89685 0.61517 0.62685 0.0
H882 H 0.89786 0.51743 0.67351 0.0
H883 H 0.81443 0.57711 0.65063 0.0
C884 C 0.7884 0.53792 0.65758 0.0
C885 C 0.78853 0.50768 0.66488 0.0
C886 C 0.8976 0.53916 0.66385 0.0
C887 C 0.84172 0.54007 0.66457 0.0
C888 C 0.92415 0.55069 0.65345 0.0
C889 C 0.92427 0.5779 0.63926 0.0
C890 C 0.87086 0.55474 0.6596 0.0
C891 C 0.89765 0.59413 0.63774 0.0
C892 C 0.81487 0.55418 0.65746 0.0
C893 C 0.81546 0.495 0.6737 0.0
N894 N 0.87186 0.58203 0.64728 0.0
N895 N 0.841 0.51112 0.67292 0.0
H896 H 0.64242 0.25531 0.9132 0.0
H897 H 0.62528 0.15558 0.04864 0.0
H898 H 0.56209 0.25819 0.96248 0.0
H899 H 0.70853 0.19347 0.02177 0.0
H900 H 0.59979 0.18245 0.01103 0.0
H901 H 0.66444 0.22155 0.9467 0.0
C902 C 0.62919 0.2487 0.93094 0.0
C903 C 0.60038 0.26012 0.93516 0.0
C904 C 0.62366 0.18455 0.01328 0.0
C905 C 0.62573 0.22089 0.97357 0.0
C906 C 0.63824 0.16907 0.03449 0.0
C907 C 0.66904 0.17238 0.03823 0.0
C908 C 0.64018 0.2028 0.99541 0.0
C909 C 0.68476 0.19041 0.01962 0.0
C910 C 0.64193 0.22941 0.95009 0.0
C911 C 0.58443 0.25022 0.95848 0.0
N912 N 0.67017 0.20487 0.99897 0.0
N913 N 0.59738 0.2312 0.97693 0.0
H914 H 0.24408 0.55631 0.96332 0.0
H915 H 0.33212 0.69516 0.02541 0.0
H916 H 0.257 0.63949 0.92031 0.0
H917 H 0.34329 0.60689 0.059 0.0
H918 H 0.30133 0.67485 0.98869 0.0
H919 H 0.27738 0.57395 1.00026 0.0
C920 C 0.25394 0.57818 0.96157 0.0
C921 C 0.24768 0.59644 0.93863 0.0
C922 C 0.31052 0.65979 0.00397 0.0
C923 C 0.2855 0.61673 0.98083 0.0
C924 C 0.32807 0.67141 0.0251 0.0
C925 C 0.34028 0.65271 0.04541 0.0
C926 C 0.3047 0.62915 0.0031 0.0
C927 C 0.33435 0.62208 0.04371 0.0
C928 C 0.27299 0.58818 0.98262 0.0
C929 C 0.26114 0.62455 0.93748 0.0
N930 N 0.31678 0.61122 0.02298 0.0
N931 N 0.27919 0.63383 0.95828 0.0
H932 H 0.88467 0.24536 0.92258 0.0
H933 H 0.90872 0.35225 0.0537 0.0
H934 H 0.96878 0.25316 0.96449 0.0
H935 H 0.82325 0.33346 0.01706 0.0
H936 H 0.9318 0.31716 0.02094 0.0
H937 H 0.86208 0.27791 0.95708 0.0
C938 C 0.89835 0.25375 0.93909 0.0
C939 C 0.92861 0.24649 0.94041 0.0
C940 C 0.90799 0.32074 0.02014 0.0
C941 C 0.90308 0.28441 0.98021 0.0
C942 C 0.89484 0.34088 0.03874 0.0
C943 C 0.864 0.34586 0.03815 0.0
C944 C 0.89018 0.30566 1.00072 0.0
C945 C 0.84709 0.33036 0.01838 0.0
C946 C 0.88547 0.27245 0.95889 0.0
C947 C 0.94529 0.25808 0.96259 0.0
N948 N 0.86038 0.31109 1.00051 0.0
N949 N 0.93238 0.27664 0.98148 0.0
H950 H 0.27125 0.95594 0.96053 0.0
H951 H 0.15621 0.8389 0.02578 0.0
H952 H 0.24777 0.87276 0.92151 0.0
H953 H 0.17648 0.92371 0.06321 0.0
H954 H 0.18755 0.85217 0.98614 0.0
H955 H 0.23503 0.94564 0.99725 0.0
C956 C 0.25845 0.93559 0.95957 0.0
C957 C 0.26276 0.91519 0.93783 0.0
C958 C 0.18496 0.86799 0.00292 0.0
C959 C 0.22116 0.9032 0.97996 0.0
C960 C 0.16695 0.86045 0.02556 0.0
C961 C 0.16374 0.88013 0.04799 0.0
C962 C 0.20003 0.89539 0.0027 0.0
C963 C 0.17831 0.90775 0.04647 0.0
C964 C 0.23772 0.92972 0.98057 0.0
C965 C 0.24537 0.88919 0.93779 0.0
N966 N 0.19594 0.91444 0.02438 0.0
N967 N 0.22552 0.88392 0.95852 0.0
H968 H 0.13469 0.75684 0.58648 0.0
H969 H 0.10359 0.85103 0.44865 0.0
H970 H 0.05034 0.7526 0.54393 0.0
H971 H 0.19073 0.83167 0.48161 0.0
H972 H 0.08159 0.82005 0.48551 0.0
H973 H 0.15338 0.78972 0.55056 0.0
C974 C 0.11996 0.76294 0.56964 0.0
C975 C 0.09085 0.75184 0.56828 0.0
C976 C 0.1055 0.82267 0.48455 0.0
C977 C 0.11236 0.78971 0.52671 0.0
C978 C 0.11804 0.84038 0.46363 0.0
C979 C 0.14904 0.84385 0.46198 0.0
C980 C 0.12415 0.80877 0.50407 0.0
C981 C 0.16674 0.82953 0.48188 0.0
C982 C 0.13075 0.78168 0.54901 0.0
C983 C 0.07296 0.76055 0.54578 0.0
N984 N 0.15407 0.81277 0.50203 0.0
N985 N 0.08399 0.77902 0.52584 0.0
H986 H 0.79674 0.09586 0.52759 0.0
H987 H 0.62333 0.12397 0.50366 0.0
H988 H 0.73002 0.07305 0.58836 0.0
H989 H 0.68767 0.12352 0.43712 0.0
H990 H 0.66192 0.10586 0.53529 0.0
H991 H 0.75715 0.10723 0.49441 0.0
C992 C 0.77379 0.09321 0.53397 0.0
C993 C 0.76674 0.08367 0.56089 0.0
C994 C 0.66749 0.10944 0.5137 0.0
C995 C 0.72124 0.09669 0.52299 0.0
C996 C 0.64545 0.11977 0.49562 0.0
C997 C 0.65223 0.1254 0.46768 0.0
C998 C 0.69665 0.1051 0.50389 0.0
C999 C 0.68134 0.11951 0.45846 0.0
C1000 C 0.75118 0.09955 0.51496 0.0
C1001 C 0.73655 0.08032 0.56784 0.0
N1002 N 0.70251 0.11002 0.47655 0.0
N1003 N 0.71494 0.08706 0.54913 0.0
H1004 H 0.30502 0.68955 0.48872 0.0
H1005 H 0.45972 0.75701 0.54082 0.0
H1006 H 0.39026 0.6597 0.45813 0.0
H1007 H 0.37725 0.76897 0.58527 0.0
H1008 H 0.43399 0.72475 0.50778 0.0
H1009 H 0.33052 0.72112 0.52248 0.0
C1010 C 0.32911 0.6894 0.48927 0.0
C1011 C 0.34551 0.67189 0.47054 0.0
C1012 C 0.4215 0.73447 0.52475 0.0
C1013 C 0.37488 0.70848 0.50888 0.0
C1014 C 0.43613 0.75311 0.54352 0.0
C1015 C 0.42065 0.76571 0.56598 0.0
C1016 C 0.39105 0.72857 0.52824 0.0
C1017 C 0.39013 0.75966 0.56844 0.0
C1018 C 0.34365 0.7075 0.50853 0.0
C1019 C 0.37669 0.67268 0.47223 0.0
N1020 N 0.37634 0.74158 0.54982 0.0
N1021 N 0.39035 0.69085 0.49087 0.0
H1022 H 0.78993 0.44198 0.58855 0.0
H1023 H 0.83196 0.39218 0.43403 0.0
H1024 H 0.72467 0.41449 0.52817 0.0
H1025 H 0.89483 0.39074 0.50162 0.0
H1026 H 0.79344 0.40926 0.46614 0.0
H1027 H 0.82931 0.43174 0.55482 0.0
C1028 C 0.78381 0.43401 0.56813 0.0
C1029 C 0.75387 0.42898 0.56125 0.0
C1030 C 0.81572 0.40543 0.47389 0.0
C1031 C 0.79901 0.41736 0.52248 0.0
C1032 C 0.83784 0.39586 0.45554 0.0
C1033 C 0.86674 0.38985 0.46514 0.0
C1034 C 0.82253 0.40936 0.50205 0.0
C1035 C 0.87287 0.39494 0.49331 0.0
C1036 C 0.80637 0.42808 0.54893 0.0
C1037 C 0.74741 0.41856 0.53445 0.0
N1038 N 0.85094 0.40434 0.51077 0.0
N1039 N 0.76979 0.41312 0.51606 0.0
H1040 H 0.34217 0.81147 0.94536 0.0
H1041 H 0.45158 0.78174 0.07267 0.0
H1042 H 0.41601 0.8695 0.96353 0.0
H1043 H 0.39888 0.71306 0.03406 0.0
H1044 H 0.43607 0.81632 0.03607 0.0
H1045 H 0.35918 0.77763 0.98162 0.0
C1046 C 0.36189 0.81722 0.95706 0.0
C1047 C 0.3777 0.84341 0.95131 0.0
C1048 C 0.42802 0.79364 0.03564 0.0
C1049 C 0.39731 0.80459 0.99302 0.0
C1050 C 0.43685 0.77386 0.05651 0.0
C1051 C 0.42639 0.74442 0.05662 0.0
C1052 C 0.40825 0.78405 0.01495 0.0
C1053 C 0.40737 0.73554 0.03506 0.0
C1054 C 0.37168 0.79776 0.97769 0.0
C1055 C 0.40317 0.84954 0.96719 0.0
N1056 N 0.39874 0.7553 0.01529 0.0
N1057 N 0.41214 0.83033 0.98739 0.0
H1058 H 0.65702 0.32743 0.99452 0.0
H1059 H 0.79235 0.43223 0.01922 0.0
H1060 H 0.67529 0.39656 0.93495 0.0
H1061 H 0.72992 0.41902 0.08605 0.0
H1062 H 0.75576 0.4113 0.98669 0.0
H1063 H 0.68958 0.3529 0.02799 0.0
C1064 C 0.66769 0.34807 0.98861 0.0
C1065 C 0.66331 0.36009 0.96208 0.0
C1066 C 0.7501 0.41325 0.00846 0.0
C1067 C 0.70112 0.38853 0.99968 0.0
C1068 C 0.77089 0.42507 0.02697 0.0
C1069 C 0.76395 0.4276 0.05524 0.0
C1070 C 0.72269 0.40293 0.01851 0.0
C1071 C 0.73594 0.4178 0.06432 0.0
C1072 C 0.68615 0.36253 0.00765 0.0
C1073 C 0.67781 0.38677 0.95533 0.0
N1074 N 0.71645 0.40544 0.04607 0.0
N1075 N 0.6965 0.39986 0.97385 0.0
H1076 H 0.17635 0.66042 0.96974 0.0
H1077 H 0.05219 0.75984 0.04548 0.0
H1078 H 0.08834 0.67532 0.93675 0.0
H1079 H 0.14084 0.74647 0.07762 0.0
H1080 H 0.06396 0.72632 0.00707 0.0
H1081 H 0.16268 0.68916 0.01093 0.0
C1082 C 0.15409 0.66956 0.97121 0.0
C1083 C 0.13352 0.66555 0.94965 0.0
C1084 C 0.08078 0.7306 0.02261 0.0
C1085 C 0.11773 0.69862 0.99677 0.0
C1086 C 0.07407 0.74975 0.04461 0.0
C1087 C 0.09556 0.75614 0.06486 0.0
C1088 C 0.10924 0.71773 0.02073 0.0
C1089 C 0.12353 0.7423 0.06254 0.0
C1090 C 0.1463 0.68602 0.99474 0.0
C1091 C 0.10498 0.6779 0.95278 0.0
N1092 N 0.12958 0.72389 0.04085 0.0
N1093 N 0.09799 0.69397 0.9758 0.0
H1094 H 0.75298 0.14345 0.0888 0.0
H1095 H 0.85385 0.13165 0.95391 0.0
H1096 H 0.75686 0.06286 0.04025 0.0
H1097 H 0.80935 0.21327 0.97654 0.0
H1098 H 0.82635 0.10574 0.99068 0.0
H1099 H 0.78109 0.16917 0.05262 0.0
C1100 C 0.75955 0.13117 0.07046 0.0
C1101 C 0.75201 0.10106 0.06735 0.0
C1102 C 0.82274 0.12933 0.98759 0.0
C1103 C 0.78524 0.13017 0.02636 0.0
C1104 C 0.83856 0.14418 0.96681 0.0
C1105 C 0.83384 0.17466 0.96217 0.0
C1106 C 0.80259 0.14522 0.00427 0.0
C1107 C 0.81356 0.18974 0.97935 0.0
C1108 C 0.7757 0.14588 0.04988 0.0
C1109 C 0.76187 0.08615 0.04341 0.0
N1110 N 0.79882 0.17492 0.99976 0.0
N1111 N 0.77816 0.10081 0.02389 0.0
H1112 H 0.90397 0.18254 0.56882 0.0
H1113 H 0.9365 0.22841 0.41216 0.0
H1114 H 0.86286 0.13836 0.4994 0.0
H1115 H 0.92579 0.29465 0.4763 0.0
H1116 H 0.92382 0.18972 0.44581 0.0
H1117 H 0.92671 0.21835 0.53644 0.0
C1118 C 0.90046 0.17992 0.54673 0.0
C1119 C 0.88168 0.15754 0.53661 0.0
C1120 C 0.92458 0.21271 0.45251 0.0
C1121 C 0.90747 0.19794 0.49985 0.0
C1122 C 0.93185 0.2348 0.4334 0.0
C1123 C 0.93196 0.26483 0.44142 0.0
C1124 C 0.918 0.2206 0.47997 0.0
C1125 C 0.92568 0.27179 0.46922 0.0
C1126 C 0.91312 0.20045 0.52839 0.0
C1127 C 0.87727 0.15534 0.50791 0.0
N1128 N 0.91898 0.24979 0.48758 0.0
N1129 N 0.89013 0.17527 0.49049 0.0
H1130 H 0.2142 0.89885 0.47277 0.0
H1131 H 0.37755 0.90721 0.53672 0.0
H1132 H 0.28394 0.95063 0.43469 0.0
H1133 H 0.31761 0.83413 0.5519 0.0
H1134 H 0.34235 0.92713 0.50258 0.0
H1135 H 0.25028 0.87917 0.50581 0.0
C1136 C 0.23707 0.90617 0.47132 0.0
C1137 C 0.24602 0.92625 0.45062 0.0
C1138 C 0.33703 0.90665 0.51329 0.0
C1139 C 0.28752 0.90395 0.48884 0.0
C1140 C 0.35709 0.89525 0.53278 0.0
C1141 C 0.35057 0.86891 0.54722 0.0
C1142 C 0.30999 0.89192 0.50853 0.0
C1143 C 0.32367 0.85442 0.54123 0.0
C1144 C 0.2577 0.89483 0.49022 0.0
C1145 C 0.276 0.93514 0.45018 0.0
N1146 N 0.3043 0.86623 0.52256 0.0
N1147 N 0.29564 0.92399 0.46903 0.0
H1148 H 0.62231 0.33114 0.5708 0.0
H1149 H 0.57138 0.28729 0.41771 0.0
H1150 H 0.62489 0.39281 0.50222 0.0
H1151 H 0.60256 0.22294 0.47752 0.0
H1152 H 0.5813 0.327 0.45101 0.0
H1153 H 0.60481 0.29242 0.53933 0.0
C1154 C 0.61875 0.33673 0.54921 0.0
C1155 C 0.62529 0.36529 0.53909 0.0
C1156 C 0.58583 0.30418 0.45686 0.0
C1157 C 0.6053 0.32089 0.50301 0.0
C1158 C 0.58011 0.28144 0.43793 0.0
C1159 C 0.58628 0.25169 0.44479 0.0
C1160 C 0.59745 0.29716 0.48301 0.0
C1161 C 0.59763 0.24555 0.47128 0.0
C1162 C 0.60896 0.3145 0.53125 0.0
C1163 C 0.6203 0.37109 0.51088 0.0
N1164 N 0.60282 0.26811 0.48946 0.0
N1165 N 0.61067 0.34904 0.49378 0.0
H1166 H 0.15286 0.67512 0.53339 0.0
H1167 H 0.26349 0.55301 0.46892 0.0
H1168 H 0.1681 0.58876 0.56985 0.0
H1169 H 0.2439 0.63706 0.42962 0.0
H1170 H 0.22742 0.56505 0.50529 0.0
H1171 H 0.18464 0.66089 0.49427 0.0
C1172 C 0.16265 0.65308 0.53308 0.0
C1173 C 0.15785 0.63317 0.55504 0.0
C1174 C 0.23093 0.5808 0.48863 0.0
C1175 C 0.19453 0.61679 0.51039 0.0
C1176 C 0.25156 0.57393 0.46783 0.0
C1177 C 0.25692 0.59406 0.44615 0.0
C1178 C 0.21555 0.60808 0.48788 0.0
C1179 C 0.24067 0.62084 0.44591 0.0
C1180 C 0.18087 0.64498 0.51075 0.0
C1181 C 0.17119 0.60491 0.55346 0.0
N1182 N 0.22088 0.62709 0.46648 0.0
N1183 N 0.18902 0.59765 0.53166 0.0
H1184 H 0.56727 0.17424 0.28699 0.0
H1185 H 0.67844 0.05925 0.21288 0.0
H1186 H 0.62326 0.11332 0.33252 0.0
H1187 H 0.62613 0.12525 0.16975 0.0
H1188 H 0.6566 0.07617 0.2568 0.0
H1189 H 0.58631 0.15362 0.24376 0.0
C1190 C 0.58342 0.15636 0.28795 0.0
C1191 C 0.5937 0.14558 0.31353 0.0
C1192 C 0.64988 0.08684 0.23768 0.0
C1193 C 0.61588 0.12191 0.26381 0.0
C1194 C 0.66233 0.07719 0.21259 0.0
C1195 C 0.65415 0.09082 0.18752 0.0
C1196 C 0.62908 0.11024 0.23768 0.0
C1197 C 0.63318 0.11401 0.18848 0.0
C1198 C 0.59437 0.14462 0.26318 0.0
C1199 C 0.61467 0.12234 0.31332 0.0
N1200 N 0.62144 0.12295 0.21307 0.0
N1201 N 0.62517 0.11136 0.28885 0.0
H1202 H 0.33946 0.55992 0.295 0.0
H1203 H 0.45105 0.67333 0.21975 0.0
H1204 H 0.39346 0.62458 0.33779 0.0
H1205 H 0.39743 0.60994 0.17493 0.0
H1206 H 0.43221 0.65317 0.26326 0.0
H1207 H 0.36203 0.57558 0.25099 0.0
C1208 C 0.35613 0.57727 0.29521 0.0
C1209 C 0.36447 0.59096 0.32022 0.0
C1210 C 0.42465 0.64349 0.24395 0.0
C1211 C 0.39039 0.60902 0.2699 0.0
C1212 C 0.43549 0.65499 0.21901 0.0
C1213 C 0.42578 0.64344 0.19352 0.0
C1214 C 0.40376 0.62027 0.24359 0.0
C1215 C 0.40558 0.61958 0.19404 0.0
C1216 C 0.369 0.58621 0.27006 0.0
C1217 C 0.38621 0.61336 0.31913 0.0
N1218 N 0.3951 0.60893 0.21864 0.0
N1219 N 0.39828 0.62168 0.29448 0.0
H1220 H 0.89858 0.4053 0.33073 0.0
H1221 H 0.90378 0.40457 0.16443 0.0
H1222 H 0.95254 0.34454 0.28276 0.0
H1223 H 0.84259 0.4579 0.21253 0.0
H1224 H 0.92598 0.38641 0.20753 0.0
H1225 H 0.88192 0.42867 0.28771 0.0
C1226 C 0.90716 0.397 0.31119 0.0
C1227 C 0.92695 0.37278 0.31046 0.0
C1228 C 0.90783 0.40225 0.20865 0.0
C1229 C 0.90779 0.39948 0.26095 0.0
C1230 C 0.8952 0.41275 0.18401 0.0
C1231 C 0.87114 0.43273 0.18478 0.0
C1232 C 0.89642 0.41182 0.23431 0.0
C1233 C 0.86098 0.44242 0.21085 0.0
C1234 C 0.89755 0.41034 0.28659 0.0
C1235 C 0.93721 0.36305 0.28442 0.0
N1236 N 0.87356 0.43179 0.23452 0.0
N1237 N 0.92743 0.37634 0.26075 0.0
H1238 H 0.11141 0.90376 0.33524 0.0
H1239 H 0.1283 0.8939 0.16986 0.0
H1240 H 0.17776 0.95174 0.28856 0.0
H1241 H 0.06534 0.84155 0.21652 0.0
H1242 H 0.14448 0.9175 0.21285 0.0
H1243 H 0.09197 0.88338 0.29189 0.0
C1244 C 0.12176 0.91027 0.31589 0.0
C1245 C 0.14637 0.92953 0.31566 0.0
C1246 C 0.12706 0.90092 0.21373 0.0
C1247 C 0.12421 0.90597 0.26578 0.0
C1248 C 0.11774 0.88741 0.18913 0.0
C1249 C 0.09538 0.86561 0.18948 0.0
C1250 C 0.11399 0.89269 0.23906 0.0
C1251 C 0.08266 0.85818 0.21519 0.0
C1252 C 0.11067 0.89849 0.2911 0.0
C1253 C 0.15881 0.93699 0.28985 0.0
N1254 N 0.09216 0.87165 0.23891 0.0
N1255 N 0.14768 0.92514 0.26603 0.0
H1256 H 0.38637 0.88067 0.66585 0.0
H1257 H 0.39931 0.88054 0.83161 0.0
H1258 H 0.4555 0.83401 0.71023 0.0
H1259 H 0.34348 0.94181 0.78643 0.0
H1260 H 0.41759 0.86054 0.78758 0.0
H1261 H 0.36767 0.90021 0.70991 0.0
C1262 C 0.3976 0.87441 0.68484 0.0
C1263 C 0.42267 0.85567 0.68422 0.0
C1264 C 0.4014 0.87841 0.78727 0.0
C1265 C 0.40121 0.87807 0.73493 0.0
C1266 C 0.3909 0.88986 0.81244 0.0
C1267 C 0.36983 0.913 0.8128 0.0
C1268 C 0.3906 0.88992 0.76213 0.0
C1269 C 0.35978 0.92407 0.78722 0.0
C1270 C 0.38693 0.8857 0.71002 0.0
C1271 C 0.43621 0.84845 0.7096 0.0
N1272 N 0.37016 0.91238 0.76297 0.0
N1273 N 0.4253 0.8596 0.73386 0.0
H1274 H 0.55217 0.33917 0.79101 0.0
H1275 H 0.66844 0.45001 0.719 0.0
H1276 H 0.60816 0.4009 0.83534 0.0
H1277 H 0.61138 0.39132 0.6723 0.0
H1278 H 0.64447 0.43353 0.76161 0.0
H1279 H 0.57155 0.35899 0.74711 0.0
C1280 C 0.56837 0.35695 0.79154 0.0
C1281 C 0.57862 0.36827 0.81693 0.0
C1282 C 0.63701 0.42433 0.74206 0.0
C1283 C 0.60089 0.39099 0.76688 0.0
C1284 C 0.65071 0.43379 0.71765 0.0
C1285 C 0.64202 0.422 0.69195 0.0
C1286 C 0.61448 0.40273 0.74096 0.0
C1287 C 0.61882 0.40105 0.69162 0.0
C1288 C 0.57944 0.36825 0.76648 0.0
C1289 C 0.59964 0.39135 0.81634 0.0
N1290 N 0.60599 0.39195 0.71576 0.0
N1291 N 0.6101 0.4018 0.7918 0.0
H1292 H 0.16357 0.55658 0.78976 0.0
H1293 H 0.05166 0.67167 0.7162 0.0
H1294 H 0.11056 0.62086 0.83451 0.0
H1295 H 0.11166 0.61383 0.67147 0.0
H1296 H 0.07004 0.65067 0.75987 0.0
H1297 H 0.14185 0.57455 0.7463 0.0
C1298 C 0.14725 0.57433 0.7905 0.0
C1299 C 0.139 0.58725 0.81589 0.0
C1300 C 0.0791 0.64251 0.74047 0.0
C1301 C 0.11403 0.60802 0.76613 0.0
C1302 C 0.06855 0.65447 0.71552 0.0
C1303 C 0.08015 0.64462 0.69007 0.0
C1304 C 0.10136 0.62045 0.74002 0.0
C1305 C 0.10207 0.62224 0.69054 0.0
C1306 C 0.1349 0.58465 0.76565 0.0
C1307 C 0.11772 0.61024 0.81548 0.0
N1308 N 0.11196 0.611 0.71504 0.0
N1309 N 0.10606 0.6199 0.79106 0.0
H1310 H 0.95909 0.17388 0.79472 0.0
H1311 H 0.83957 0.06951 0.71939 0.0
H1312 H 0.88448 0.13332 0.83652 0.0
H1313 H 0.90584 0.1199 0.67481 0.0
H1314 H 0.85848 0.08969 0.76284 0.0
H1315 H 0.9422 0.15193 0.75107 0.0
C1316 C 0.93918 0.16036 0.7948 0.0
C1317 C 0.92327 0.15542 0.81948 0.0
C1318 C 0.86899 0.09628 0.74359 0.0
C1319 C 0.90387 0.13009 0.76943 0.0
C1320 C 0.85828 0.08464 0.71869 0.0
C1321 C 0.87108 0.093 0.69327 0.0
C1322 C 0.89279 0.11645 0.74326 0.0
C1323 C 0.89525 0.11278 0.69385 0.0
C1324 C 0.92955 0.14783 0.76981 0.0
C1325 C 0.89755 0.13776 0.81812 0.0
N1326 N 0.90527 0.12387 0.71842 0.0
N1327 N 0.88874 0.12572 0.79359 0.0
H1328 H 0.82646 0.31772 0.15702 0.0
H1329 H 0.67438 0.22955 0.1378 0.0
H1330 H 0.74528 0.36011 0.13041 0.0
H1331 H 0.75647 0.19019 0.16602 0.0
H1332 H 0.69693 0.27903 0.1423 0.0
H1333 H 0.79856 0.27278 0.16784 0.0
C1334 C 0.8026 0.31765 0.15386 0.0
C1335 C 0.78815 0.34249 0.14261 0.0
C1336 C 0.70981 0.2596 0.14801 0.0
C1337 C 0.75599 0.29082 0.1544 0.0
C1338 C 0.6969 0.23139 0.14559 0.0
C1339 C 0.71373 0.20581 0.15132 0.0
C1340 C 0.73973 0.26208 0.15616 0.0
C1341 C 0.74281 0.20936 0.16118 0.0
C1342 C 0.78664 0.29195 0.16 0.0
C1343 C 0.75721 0.34134 0.13904 0.0
N1344 N 0.75498 0.2369 0.16298 0.0
N1345 N 0.74217 0.31569 0.1445 0.0
H1346 H 0.36158 0.7707 0.13756 0.0
H1347 H 0.18922 0.77062 0.17858 0.0
H1348 H 0.31311 0.69374 0.16567 0.0
H1349 H 0.23143 0.84077 0.13208 0.0
H1350 H 0.23801 0.74777 0.18614 0.0
H1351 H 0.31766 0.80166 0.14728 0.0
C1352 C 0.34193 0.76049 0.14639 0.0
C1353 C 0.3407 0.72966 0.15053 0.0
C1354 C 0.23667 0.76846 0.17471 0.0
C1355 C 0.29063 0.76466 0.16157 0.0
C1356 C 0.20886 0.78157 0.17051 0.0
C1357 C 0.20635 0.80733 0.15435 0.0
C1358 C 0.26208 0.78122 0.16259 0.0
C1359 C 0.23245 0.82069 0.14443 0.0
C1360 C 0.31687 0.77808 0.1518 0.0
C1361 C 0.31477 0.71742 0.16191 0.0
N1362 N 0.25924 0.80725 0.14837 0.0
N1363 N 0.29066 0.7349 0.16679 0.0
H1364 H 0.26612 0.68801 0.33377 0.0
H1365 H 0.27005 0.86133 0.37191 0.0
H1366 H 0.33897 0.73016 0.37648 0.0
H1367 H 0.19164 0.81429 0.34523 0.0
H1368 H 0.29972 0.81631 0.36322 0.0
H1369 H 0.24306 0.73688 0.32709 0.0
C1370 C 0.27757 0.70763 0.3412 0.0
C1371 C 0.3043 0.70508 0.35595 0.0
C1372 C 0.2761 0.81602 0.35883 0.0
C1373 C 0.27794 0.76096 0.34873 0.0
C1374 C 0.25923 0.84172 0.36365 0.0
C1375 C 0.22837 0.84134 0.35952 0.0
C1376 C 0.26194 0.78991 0.34969 0.0
C1377 C 0.21537 0.81539 0.34892 0.0
C1378 C 0.26434 0.73551 0.33753 0.0
C1379 C 0.31821 0.73119 0.36516 0.0
N1380 N 0.23215 0.79065 0.3446 0.0
N1381 N 0.3047 0.75803 0.3617 0.0
H1382 H 0.84921 0.25203 0.36356 0.0
H1383 H 0.67064 0.2643 0.36498 0.0
H1384 H 0.80119 0.33499 0.36843 0.0
H1385 H 0.71875 0.18143 0.37015 0.0
H1386 H 0.71816 0.29057 0.35925 0.0
H1387 H 0.80161 0.22568 0.35896 0.0
C1388 C 0.8287 0.26471 0.36321 0.0
C1389 C 0.82911 0.29569 0.36649 0.0
C1390 C 0.71829 0.26659 0.36134 0.0
C1391 C 0.77461 0.26581 0.36148 0.0
C1392 C 0.69115 0.25162 0.36448 0.0
C1393 C 0.69079 0.2207 0.36817 0.0
C1394 C 0.7452 0.25048 0.36184 0.0
C1395 C 0.71803 0.20533 0.3675 0.0
C1396 C 0.80152 0.24969 0.36074 0.0
C1397 C 0.80186 0.31105 0.36607 0.0
N1398 N 0.74408 0.22035 0.36459 0.0
N1399 N 0.77577 0.29598 0.3638 0.0
H1400 H 0.33281 0.78662 0.83137 0.0
H1401 H 0.17465 0.72146 0.84101 0.0
H1402 H 0.25509 0.84165 0.82014 0.0
H1403 H 0.24954 0.66717 0.81691 0.0
H1404 H 0.20246 0.76584 0.82744 0.0
H1405 H 0.30314 0.74281 0.8198 0.0
C1406 C 0.30968 0.78953 0.82569 0.0
C1407 C 0.29621 0.81761 0.82712 0.0
C1408 C 0.21257 0.74419 0.82441 0.0
C1409 C 0.26197 0.76769 0.81467 0.0
C1410 C 0.19668 0.71888 0.83218 0.0
C1411 C 0.21006 0.69077 0.83046 0.0
C1412 C 0.24225 0.74131 0.81558 0.0
C1413 C 0.23857 0.68854 0.81879 0.0
C1414 C 0.29271 0.76453 0.8191 0.0
C1415 C 0.26622 0.82027 0.81951 0.0
N1416 N 0.25406 0.71357 0.81244 0.0
N1417 N 0.24986 0.7955 0.81432 0.0
H1418 H 0.80027 0.20196 0.83482 0.0
H1419 H 0.71696 0.35641 0.85097 0.0
H1420 H 0.84397 0.28476 0.8539 0.0
H1421 H 0.67326 0.27656 0.82303 0.0
H1422 H 0.76508 0.3324 0.84347 0.0
H1423 H 0.75524 0.22988 0.8223 0.0
C1424 C 0.80057 0.22603 0.83577 0.0
C1425 C 0.82564 0.2411 0.84576 0.0
C1426 C 0.74503 0.32024 0.83841 0.0
C1427 C 0.77437 0.27311 0.83183 0.0
C1428 C 0.71755 0.33406 0.84255 0.0
C1429 C 0.69118 0.31831 0.83791 0.0
C1430 C 0.7461 0.29026 0.83008 0.0
C1431 C 0.69315 0.28941 0.827 0.0
C1432 C 0.77488 0.24197 0.8287 0.0
C1433 C 0.82494 0.27227 0.84662 0.0
N1434 N 0.72015 0.27605 0.82402 0.0
N1435 N 0.79961 0.2872 0.84015 0.0
H1436 H 0.76222 0.34772 0.6502 0.0
H1437 H 0.84079 0.21534 0.63299 0.0
H1438 H 0.68738 0.29644 0.62149 0.0
H1439 H 0.75585 0.17124 0.637 0.0
H1440 H 0.81594 0.26309 0.63848 0.0
H1441 H 0.79034 0.30143 0.65648 0.0
C1442 C 0.75172 0.32669 0.64534 0.0
C1443 C 0.72262 0.3259 0.635 0.0
C1444 C 0.80261 0.2431 0.63899 0.0
C1445 C 0.75479 0.27283 0.64123 0.0
C1446 C 0.81685 0.21572 0.6356 0.0
C1447 C 0.80033 0.1893 0.63453 0.0
C1448 C 0.77145 0.24418 0.64123 0.0
C1449 C 0.7694 0.1911 0.63781 0.0
C1450 C 0.76787 0.30022 0.64858 0.0
C1451 C 0.70991 0.29807 0.62924 0.0
N1452 N 0.75592 0.21812 0.64065 0.0
N1453 N 0.72609 0.27272 0.63229 0.0
H1454 H 0.16792 0.74503 0.68888 0.0
H1455 H 0.30056 0.82078 0.6756 0.0
H1456 H 0.21702 0.67271 0.65179 0.0
H1457 H 0.3414 0.73491 0.66345 0.0
H1458 H 0.25387 0.79624 0.6873 0.0
H1459 H 0.21488 0.7693 0.70064 0.0
C1460 C 0.18866 0.73406 0.68362 0.0
C1461 C 0.18869 0.70717 0.66883 0.0
C1462 C 0.27315 0.78256 0.68308 0.0
C1463 C 0.2425 0.73522 0.68122 0.0
C1464 C 0.2999 0.79671 0.67635 0.0
C1465 C 0.32463 0.77982 0.66815 0.0
C1466 C 0.27131 0.7513 0.68153 0.0
C1467 C 0.32266 0.74874 0.6693 0.0
C1468 C 0.21553 0.74813 0.69 0.0
C1469 C 0.21605 0.69369 0.66281 0.0
N1470 N 0.29633 0.73552 0.67532 0.0
N1471 N 0.24182 0.70806 0.66868 0.0
loop_
_geom_bond_atom_site_label_1
_geom_bond_atom_site_label_2
_geom_bond_distance
_geom_bond_site_symmetry_2
_ccdc_geom_bond_type
O0 Tb1 2.292 . S
O0 C3 1.255 . S
Tb1 O0 2.292 . S
Tb1 O17 2.326 . S
Tb1 O19 2.500 . S
Tb1 O20 2.473 . S
Tb1 O23 2.324 . S
Eu2 O6 2.292 . S
Eu2 C7 2.852 . S
Eu2 O18 2.324 . S
Eu2 O22 2.326 . S
Eu2 O24 2.500 . S
Eu2 O25 2.473 . S
C3 O0 1.255 . S
C3 O4 1.247 . S
O4 C3 1.247 . S
C5 O17 1.242 . S
C5 O18 1.258 . S
O6 Eu2 2.292 . S
O6 C8 1.255 . S
C7 Eu2 2.852 . S
C7 C11 1.503 . S
C7 O24 1.273 . S
C7 O25 1.257 . S
C8 O6 1.255 . S
C8 O9 1.247 . S
O9 C8 1.247 . S
C10 O22 1.242 . S
C10 O23 1.258 . S
C11 C7 1.503 . S
C11 C12 1.379 . S
C11 C16 1.392 1_545 S
C12 C11 1.379 . S
C12 C13 1.404 . S
C12 H26 0.929 . S
C13 C12 1.404 . S
C13 C14 1.389 1_545 S
C14 C13 1.389 1_565 S
C14 C15 1.399 . S
C14 H27 0.931 . S
C15 C14 1.399 . S
C15 C16 1.390 . S
C16 C11 1.392 1_565 S
C16 C15 1.390 . S
C16 H28 0.929 . S
O17 Tb1 2.326 . S
O17 C5 1.242 . S
O18 Eu2 2.324 . S
O18 C5 1.258 . S
O19 Tb1 2.500 . S
O19 C21 1.273 . S
O20 Tb1 2.473 . S
O20 C21 1.257 . S
C21 O19 1.273 . S
C21 O20 1.257 . S
O22 Eu2 2.326 . S
O22 C10 1.242 . S
O23 Tb1 2.324 . S
O23 C10 1.258 . S
O24 Eu2 2.500 . S
O24 C7 1.273 . S
O25 Eu2 2.473 . S
O25 C7 1.257 . S
H26 C12 0.929 . S
H27 C14 0.931 . S
H28 C16 0.929 . S
O29 Tb30 2.292 . S
O29 C32 1.255 . S
Tb30 O29 2.292 . S
Tb30 O46 2.326 . S
Tb30 O48 2.500 . S
Tb30 O49 2.473 . S
Tb30 O52 2.324 . S
Eu31 O35 2.292 . S
Eu31 C36 2.852 . S
Eu31 O47 2.324 . S
Eu31 O51 2.326 . S
Eu31 O53 2.500 . S
Eu31 O54 2.473 . S
C32 O29 1.255 . S
C32 O33 1.247 . S
O33 C32 1.247 . S
C34 O46 1.242 . S
C34 O47 1.258 . S
O35 Eu31 2.292 . S
O35 C37 1.255 . S
C36 Eu31 2.852 . S
C36 C40 1.503 . S
C36 O53 1.273 . S
C36 O54 1.257 . S
C37 O35 1.255 . S
C37 O38 1.247 . S
O38 C37 1.247 . S
C39 O51 1.242 . S
C39 O52 1.258 . S
C40 C36 1.503 . S
C40 C41 1.379 . S
C40 C45 1.392 . S
C41 C40 1.379 . S
C41 C42 1.404 . S
C41 H55 0.929 . S
C42 C41 1.404 . S
C42 C43 1.389 . S
C43 C42 1.389 . S
C43 C44 1.399 . S
C43 H56 0.931 . S
C44 C43 1.399 . S
C44 C45 1.390 . S
C45 C40 1.392 . S
C45 C44 1.390 . S
C45 H57 0.929 . S
O46 Tb30 2.326 . S
O46 C34 1.242 . S
O47 Eu31 2.324 . S
O47 C34 1.258 . S
O48 Tb30 2.500 . S
O48 C50 1.273 . S
O49 Tb30 2.473 . S
O49 C50 1.257 . S
C50 O48 1.273 . S
C50 O49 1.257 . S
O51 Eu31 2.326 . S
O51 C39 1.242 . S
O52 Tb30 2.324 . S
O52 C39 1.258 . S
O53 Eu31 2.500 . S
O53 C36 1.273 . S
O54 Eu31 2.473 . S
O54 C36 1.257 . S
H55 C41 0.929 . S
H56 C43 0.931 . S
H57 C45 0.929 . S
O58 Tb59 2.292 . S
O58 C61 1.255 . S
Tb59 O58 2.292 . S
Tb59 O75 2.326 . S
Tb59 O77 2.500 . S
Tb59 O78 2.473 . S
Tb59 O81 2.324 . S
Eu60 O64 2.292 . S
Eu60 C65 2.852 . S
Eu60 O76 2.324 . S
Eu60 O80 2.326 . S
Eu60 O82 2.500 . S
Eu60 O83 2.473 . S
C61 O58 1.255 . S
C61 O62 1.247 . S
O62 C61 1.247 . S
C63 O75 1.242 . S
C63 O76 1.258 . S
O64 Eu60 2.292 . S
O64 C66 1.255 . S
C65 Eu60 2.852 . S
C65 C69 1.503 . S
C65 O82 1.273 . S
C65 O83 1.257 . S
C66 O64 1.255 . S
C66 O67 1.247 . S
O67 C66 1.247 . S
C68 O80 1.242 . S
C68 O81 1.258 . S
C69 C65 1.503 . S
C69 C70 1.379 . S
C69 C74 1.392 . S
C70 C69 1.379 . S
C70 C71 1.404 . S
C70 H84 0.929 . S
C71 C70 1.404 . S
C71 C72 1.389 . S
C72 C71 1.389 . S
C72 C73 1.399 . S
C72 H85 0.931 . S
C73 C72 1.399 . S
C73 C74 1.390 . S
C74 C69 1.392 . S
C74 C73 1.390 . S
C74 H86 0.929 . S
O75 Tb59 2.326 . S
O75 C63 1.242 . S
O76 Eu60 2.324 . S
O76 C63 1.258 . S
O77 Tb59 2.500 . S
O77 C79 1.273 . S
O78 Tb59 2.473 . S
O78 C79 1.257 . S
C79 O77 1.273 . S
C79 O78 1.257 . S
O80 Eu60 2.326 . S
O80 C68 1.242 . S
O81 Tb59 2.324 . S
O81 C68 1.258 . S
O82 Eu60 2.500 . S
O82 C65 1.273 . S
O83 Eu60 2.473 . S
O83 C65 1.257 . S
H84 C70 0.929 . S
H85 C72 0.931 . S
H86 C74 0.929 . S
O87 Tb88 2.292 . S
O87 C90 1.255 . S
Tb88 O87 2.292 . S
Tb88 O104 2.326 . S
Tb88 O106 2.500 . S
Tb88 O107 2.473 . S
Tb88 O110 2.324 . S
Eu89 O93 2.292 . S
Eu89 C94 2.852 . S
Eu89 O105 2.324 . S
Eu89 O109 2.326 . S
Eu89 O111 2.500 . S
Eu89 O112 2.473 . S
C90 O87 1.255 . S
C90 O91 1.247 . S
O91 C90 1.247 . S
C92 O104 1.242 . S
C92 O105 1.258 . S
O93 Eu89 2.292 . S
O93 C95 1.255 . S
C94 Eu89 2.852 . S
C94 C98 1.503 . S
C94 O111 1.273 . S
C94 O112 1.257 . S
C95 O93 1.255 . S
C95 O96 1.247 . S
O96 C95 1.247 . S
C97 O109 1.242 . S
C97 O110 1.258 . S
C98 C94 1.503 . S
C98 C99 1.379 . S
C98 C103 1.392 1_455 S
C99 C98 1.379 . S
C99 C100 1.404 . S
C99 H113 0.929 . S
C100 C99 1.404 . S
C100 C101 1.389 1_455 S
C101 C100 1.389 1_655 S
C101 C102 1.399 . S
C101 H114 0.931 . S
C102 C101 1.399 . S
C102 C103 1.390 . S
C103 C98 1.392 1_655 S
C103 C102 1.390 . S
C103 H115 0.929 . S
O104 Tb88 2.326 . S
O104 C92 1.242 . S
O105 Eu89 2.324 . S
O105 C92 1.258 . S
O106 Tb88 2.500 . S
O106 C108 1.273 . S
O107 Tb88 2.473 . S
O107 C108 1.257 . S
C108 O106 1.273 . S
C108 O107 1.257 . S
O109 Eu89 2.326 . S
O109 C97 1.242 . S
O110 Tb88 2.324 . S
O110 C97 1.258 . S
O111 Eu89 2.500 . S
O111 C94 1.273 . S
O112 Eu89 2.473 . S
O112 C94 1.257 . S
H113 C99 0.929 . S
H114 C101 0.931 . S
H115 C103 0.929 . S
O116 Tb117 2.292 . S
O116 C119 1.255 . S
Tb117 O116 2.292 . S
Tb117 O133 2.326 . S
Tb117 O135 2.500 . S
Tb117 O136 2.473 . S
Tb117 O139 2.324 . S
Eu118 O122 2.292 . S
Eu118 C123 2.852 . S
Eu118 O134 2.324 . S
Eu118 O138 2.326 . S
Eu118 O140 2.500 . S
Eu118 O141 2.473 . S
C119 O116 1.255 . S
C119 O120 1.247 . S
O120 C119 1.247 . S
C121 O133 1.242 . S
C121 O134 1.258 . S
O122 Eu118 2.292 . S
O122 C124 1.255 . S
C123 Eu118 2.852 . S
C123 C127 1.503 . S
C123 O140 1.273 . S
C123 O141 1.257 . S
C124 O122 1.255 . S
C124 O125 1.247 . S
O125 C124 1.247 . S
C126 O138 1.242 . S
C126 O139 1.258 . S
C127 C123 1.503 . S
C127 C128 1.379 . S
C127 C132 1.392 1_565 S
C128 C127 1.379 . S
C128 C129 1.404 . S
C128 H142 0.929 . S
C129 C128 1.404 . S
C129 C130 1.389 1_565 S
C130 C129 1.389 1_545 S
C130 C131 1.399 . S
C130 H143 0.931 . S
C131 C130 1.399 . S
C131 C132 1.390 . S
C132 C127 1.392 1_545 S
C132 C131 1.390 . S
C132 H144 0.929 . S
O133 Tb117 2.326 . S
O133 C121 1.242 . S
O134 Eu118 2.324 . S
O134 C121 1.258 . S
O135 Tb117 2.500 . S
O135 C137 1.273 . S
O136 Tb117 2.473 . S
O136 C137 1.257 . S
C137 O135 1.273 . S
C137 O136 1.257 . S
O138 Eu118 2.326 . S
O138 C126 1.242 . S
O139 Tb117 2.324 . S
O139 C126 1.258 . S
O140 Eu118 2.500 . S
O140 C123 1.273 . S
O141 Eu118 2.473 . S
O141 C123 1.257 . S
H142 C128 0.929 . S
H143 C130 0.931 . S
H144 C132 0.929 . S
O145 Tb146 2.292 . S
O145 C148 1.255 . S
Tb146 O145 2.292 . S
Tb146 O162 2.326 . S
Tb146 O164 2.500 . S
Tb146 O165 2.473 . S
Tb146 O168 2.324 . S
Eu147 O151 2.292 . S
Eu147 C152 2.852 . S
Eu147 O163 2.324 . S
Eu147 O167 2.326 . S
Eu147 O169 2.500 . S
Eu147 O170 2.473 . S
C148 O145 1.255 . S
C148 O149 1.247 . S
O149 C148 1.247 . S
C150 O162 1.242 . S
C150 O163 1.258 . S
O151 Eu147 2.292 . S
O151 C153 1.255 . S
C152 Eu147 2.852 . S
C152 C156 1.503 . S
C152 O169 1.273 . S
C152 O170 1.257 . S
C153 O151 1.255 . S
C153 O154 1.247 . S
O154 C153 1.247 . S
C155 O167 1.242 . S
C155 O168 1.258 . S
C156 C152 1.503 . S
C156 C157 1.379 . S
C156 C161 1.392 . S
C157 C156 1.379 . S
C157 C158 1.404 . S
C157 H171 0.929 . S
C158 C157 1.404 . S
C158 C159 1.389 . S
C159 C158 1.389 . S
C159 C160 1.399 . S
C159 H172 0.931 . S
C160 C159 1.399 . S
C160 C161 1.390 . S
C161 C156 1.392 . S
C161 C160 1.390 . S
C161 H173 0.929 . S
O162 Tb146 2.326 . S
O162 C150 1.242 . S
O163 Eu147 2.324 . S
O163 C150 1.258 . S
O164 Tb146 2.500 . S
O164 C166 1.273 . S
O165 Tb146 2.473 . S
O165 C166 1.257 . S
C166 O164 1.273 . S
C166 O165 1.257 . S
O167 Eu147 2.326 . S
O167 C155 1.242 . S
O168 Tb146 2.324 . S
O168 C155 1.258 . S
O169 Eu147 2.500 . S
O169 C152 1.273 . S
O170 Eu147 2.473 . S
O170 C152 1.257 . S
H171 C157 0.929 . S
H172 C159 0.931 . S
H173 C161 0.929 . S
O174 Tb175 2.292 . S
O174 C177 1.255 . S
Tb175 O174 2.292 . S
Tb175 O191 2.326 . S
Tb175 O193 2.500 . S
Tb175 O194 2.473 . S
Tb175 O197 2.324 . S
Eu176 O180 2.292 . S
Eu176 C181 2.852 . S
Eu176 O192 2.324 . S
Eu176 O196 2.326 . S
Eu176 O198 2.500 . S
Eu176 O199 2.473 . S
C177 O174 1.255 . S
C177 O178 1.247 . S
O178 C177 1.247 . S
C179 O191 1.242 . S
C179 O192 1.258 . S
O180 Eu176 2.292 . S
O180 C182 1.255 . S
C181 Eu176 2.852 . S
C181 C185 1.503 . S
C181 O198 1.273 . S
C181 O199 1.257 . S
C182 O180 1.255 . S
C182 O183 1.247 . S
O183 C182 1.247 . S
C184 O196 1.242 . S
C184 O197 1.258 . S
C185 C181 1.503 . S
C185 C186 1.379 . S
C185 C190 1.392 . S
C186 C185 1.379 . S
C186 C187 1.404 . S
C186 H200 0.929 . S
C187 C186 1.404 . S
C187 C188 1.389 . S
C188 C187 1.389 . S
C188 C189 1.399 . S
C188 H201 0.931 . S
C189 C188 1.399 . S
C189 C190 1.390 . S
C190 C185 1.392 . S
C190 C189 1.390 . S
C190 H202 0.929 . S
O191 Tb175 2.326 . S
O191 C179 1.242 . S
O192 Eu176 2.324 . S
O192 C179 1.258 . S
O193 Tb175 2.500 . S
O193 C195 1.273 . S
O194 Tb175 2.473 . S
O194 C195 1.257 . S
C195 O193 1.273 . S
C195 O194 1.257 . S
O196 Eu176 2.326 . S
O196 C184 1.242 . S
O197 Tb175 2.324 . S
O197 C184 1.258 . S
O198 Eu176 2.500 . S
O198 C181 1.273 . S
O199 Eu176 2.473 . S
O199 C181 1.257 . S
H200 C186 0.929 . S
H201 C188 0.931 . S
H202 C190 0.929 . S
O203 Tb204 2.292 . S
O203 C206 1.255 . S
Tb204 O203 2.292 . S
Tb204 O220 2.326 . S
Tb204 O222 2.500 . S
Tb204 O223 2.473 . S
Tb204 O226 2.324 . S
Eu205 O209 2.292 . S
Eu205 C210 2.852 . S
Eu205 O221 2.324 . S
Eu205 O225 2.326 . S
Eu205 O227 2.500 . S
Eu205 O228 2.473 . S
C206 O203 1.255 . S
C206 O207 1.247 . S
O207 C206 1.247 . S
C208 O220 1.242 . S
C208 O221 1.258 . S
O209 Eu205 2.292 . S
O209 C211 1.255 . S
C210 Eu205 2.852 . S
C210 C214 1.503 . S
C210 O227 1.273 . S
C210 O228 1.257 . S
C211 O209 1.255 . S
C211 O212 1.247 . S
O212 C211 1.247 . S
C213 O225 1.242 . S
C213 O226 1.258 . S
C214 C210 1.503 . S
C214 C215 1.379 . S
C214 C219 1.392 1_655 S
C215 C214 1.379 . S
C215 C216 1.404 . S
C215 H229 0.929 . S
C216 C215 1.404 . S
C216 C217 1.389 1_655 S
C217 C216 1.389 1_455 S
C217 C218 1.399 . S
C217 H230 0.931 . S
C218 C217 1.399 . S
C218 C219 1.390 . S
C219 C214 1.392 1_455 S
C219 C218 1.390 . S
C219 H231 0.929 . S
O220 Tb204 2.326 . S
O220 C208 1.242 . S
O221 Eu205 2.324 . S
O221 C208 1.258 . S
O222 Tb204 2.500 . S
O222 C224 1.273 . S
O223 Tb204 2.473 . S
O223 C224 1.257 . S
C224 O222 1.273 . S
C224 O223 1.257 . S
O225 Eu205 2.326 . S
O225 C213 1.242 . S
O226 Tb204 2.324 . S
O226 C213 1.258 . S
O227 Eu205 2.500 . S
O227 C210 1.273 . S
O228 Eu205 2.473 . S
O228 C210 1.257 . S
H229 C215 0.929 . S
H230 C217 0.931 . S
H231 C219 0.929 . S
O232 Tb233 2.292 . S
O232 C235 1.255 . S
Tb233 O232 2.292 . S
Tb233 O249 2.326 . S
Tb233 O251 2.500 . S
Tb233 O252 2.473 . S
Tb233 O255 2.324 . S
Eu234 O238 2.292 . S
Eu234 C239 2.852 . S
Eu234 O250 2.324 . S
Eu234 O254 2.326 . S
Eu234 O256 2.500 . S
Eu234 O257 2.473 . S
C235 O232 1.255 . S
C235 O236 1.247 . S
O236 C235 1.247 . S
C237 O249 1.242 . S
C237 O250 1.258 . S
O238 Eu234 2.292 . S
O238 C240 1.255 . S
C239 Eu234 2.852 . S
C239 C243 1.503 . S
C239 O256 1.273 . S
C239 O257 1.257 . S
C240 O238 1.255 . S
C240 O241 1.247 . S
O241 C240 1.247 . S
C242 O254 1.242 . S
C242 O255 1.258 . S
C243 C239 1.503 . S
C243 C244 1.379 . S
C243 C248 1.392 1_565 S
C244 C243 1.379 . S
C244 C245 1.404 . S
C244 H258 0.929 . S
C245 C244 1.404 . S
C245 C246 1.389 1_565 S
C246 C245 1.389 1_545 S
C246 C247 1.399 . S
C246 H259 0.931 . S
C247 C246 1.399 . S
C247 C248 1.390 . S
C248 C243 1.392 1_545 S
C248 C247 1.390 . S
C248 H260 0.929 . S
O249 Tb233 2.326 . S
O249 C237 1.242 . S
O250 Eu234 2.324 . S
O250 C237 1.258 . S
O251 Tb233 2.500 . S
O251 C253 1.273 . S
O252 Tb233 2.473 . S
O252 C253 1.257 . S
C253 O251 1.273 . S
C253 O252 1.257 . S
O254 Eu234 2.326 . S
O254 C242 1.242 . S
O255 Tb233 2.324 . S
O255 C242 1.258 . S
O256 Eu234 2.500 . S
O256 C239 1.273 . S
O257 Eu234 2.473 . S
O257 C239 1.257 . S
H258 C244 0.929 . S
H259 C246 0.931 . S
H260 C248 0.929 . S
O261 Tb262 2.292 . S
O261 C264 1.255 . S
Tb262 O261 2.292 . S
Tb262 O278 2.326 . S
Tb262 O280 2.500 . S
Tb262 O281 2.473 . S
Tb262 O284 2.324 . S
Eu263 O267 2.292 . S
Eu263 C268 2.852 . S
Eu263 O279 2.324 . S
Eu263 O283 2.326 . S
Eu263 O285 2.500 . S
Eu263 O286 2.473 . S
C264 O261 1.255 . S
C264 O265 1.247 . S
O265 C264 1.247 . S
C266 O278 1.242 . S
C266 O279 1.258 . S
O267 Eu263 2.292 . S
O267 C269 1.255 . S
C268 Eu263 2.852 . S
C268 C272 1.503 . S
C268 O285 1.273 . S
C268 O286 1.257 . S
C269 O267 1.255 . S
C269 O270 1.247 . S
O270 C269 1.247 . S
C271 O283 1.242 . S
C271 O284 1.258 . S
C272 C268 1.503 . S
C272 C273 1.379 . S
C272 C277 1.392 . S
C273 C272 1.379 . S
C273 C274 1.404 . S
C273 H287 0.929 . S
C274 C273 1.404 . S
C274 C275 1.389 . S
C275 C274 1.389 . S
C275 C276 1.399 . S
C275 H288 0.931 . S
C276 C275 1.399 . S
C276 C277 1.390 . S
C277 C272 1.392 . S
C277 C276 1.390 . S
C277 H289 0.929 . S
O278 Tb262 2.326 . S
O278 C266 1.242 . S
O279 Eu263 2.324 . S
O279 C266 1.258 . S
O280 Tb262 2.500 . S
O280 C282 1.273 . S
O281 Tb262 2.473 . S
O281 C282 1.257 . S
C282 O280 1.273 . S
C282 O281 1.257 . S
O283 Eu263 2.326 . S
O283 C271 1.242 . S
O284 Tb262 2.324 . S
O284 C271 1.258 . S
O285 Eu263 2.500 . S
O285 C268 1.273 . S
O286 Eu263 2.473 . S
O286 C268 1.257 . S
H287 C273 0.929 . S
H288 C275 0.931 . S
H289 C277 0.929 . S
O290 Tb291 2.292 . S
O290 C293 1.255 . S
Tb291 O290 2.292 . S
Tb291 O307 2.326 . S
Tb291 O309 2.500 . S
Tb291 O310 2.473 . S
Tb291 O313 2.324 . S
Eu292 O296 2.292 . S
Eu292 C297 2.852 . S
Eu292 O308 2.324 . S
Eu292 O312 2.326 . S
Eu292 O314 2.500 . S
Eu292 O315 2.473 . S
C293 O290 1.255 . S
C293 O294 1.247 . S
O294 C293 1.247 . S
C295 O307 1.242 . S
C295 O308 1.258 . S
O296 Eu292 2.292 . S
O296 C298 1.255 . S
C297 Eu292 2.852 . S
C297 C301 1.503 . S
C297 O314 1.273 . S
C297 O315 1.257 . S
C298 O296 1.255 . S
C298 O299 1.247 . S
O299 C298 1.247 . S
C300 O312 1.242 . S
C300 O313 1.258 . S
C301 C297 1.503 . S
C301 C302 1.379 . S
C301 C306 1.392 . S
C302 C301 1.379 . S
C302 C303 1.404 . S
C302 H316 0.929 . S
C303 C302 1.404 . S
C303 C304 1.389 . S
C304 C303 1.389 . S
C304 C305 1.399 . S
C304 H317 0.931 . S
C305 C304 1.399 . S
C305 C306 1.390 . S
C306 C301 1.392 . S
C306 C305 1.390 . S
C306 H318 0.929 . S
O307 Tb291 2.326 . S
O307 C295 1.242 . S
O308 Eu292 2.324 . S
O308 C295 1.258 . S
O309 Tb291 2.500 . S
O309 C311 1.273 . S
O310 Tb291 2.473 . S
O310 C311 1.257 . S
C311 O309 1.273 . S
C311 O310 1.257 . S
O312 Eu292 2.326 . S
O312 C300 1.242 . S
O313 Tb291 2.324 . S
O313 C300 1.258 . S
O314 Eu292 2.500 . S
O314 C297 1.273 . S
O315 Eu292 2.473 . S
O315 C297 1.257 . S
H316 C302 0.929 . S
H317 C304 0.931 . S
H318 C306 0.929 . S
O319 Tb320 2.292 . S
O319 C322 1.255 . S
Tb320 O319 2.292 . S
Tb320 O336 2.326 . S
Tb320 O338 2.500 . S
Tb320 O339 2.473 . S
Tb320 O342 2.324 . S
Eu321 O325 2.292 . S
Eu321 C326 2.852 . S
Eu321 O337 2.324 . S
Eu321 O341 2.326 . S
Eu321 O343 2.500 . S
Eu321 O344 2.473 . S
C322 O319 1.255 . S
C322 O323 1.247 . S
O323 C322 1.247 . S
C324 O336 1.242 . S
C324 O337 1.258 . S
O325 Eu321 2.292 . S
O325 C327 1.255 . S
C326 Eu321 2.852 . S
C326 C330 1.503 . S
C326 O343 1.273 . S
C326 O344 1.257 . S
C327 O325 1.255 . S
C327 O328 1.247 . S
O328 C327 1.247 . S
C329 O341 1.242 . S
C329 O342 1.258 . S
C330 C326 1.503 . S
C330 C331 1.379 . S
C330 C335 1.392 1_655 S
C331 C330 1.379 . S
C331 C332 1.404 . S
C331 H345 0.929 . S
C332 C331 1.404 . S
C332 C333 1.389 1_655 S
C333 C332 1.389 1_455 S
C333 C334 1.399 . S
C333 H346 0.931 . S
C334 C333 1.399 . S
C334 C335 1.390 . S
C335 C330 1.392 1_455 S
C335 C334 1.390 . S
C335 H347 0.929 . S
O336 Tb320 2.326 . S
O336 C324 1.242 . S
O337 Eu321 2.324 . S
O337 C324 1.258 . S
O338 Tb320 2.500 . S
O338 C340 1.273 . S
O339 Tb320 2.473 . S
O339 C340 1.257 . S
C340 O338 1.273 . S
C340 O339 1.257 . S
O341 Eu321 2.326 . S
O341 C329 1.242 . S
O342 Tb320 2.324 . S
O342 C329 1.258 . S
O343 Eu321 2.500 . S
O343 C326 1.273 . S
O344 Eu321 2.473 . S
O344 C326 1.257 . S
H345 C331 0.929 . S
H346 C333 0.931 . S
H347 C335 0.929 . S
O348 Tb349 2.292 . S
O348 C351 1.255 . S
Tb349 O348 2.292 . S
Tb349 O365 2.326 . S
Tb349 O367 2.500 . S
Tb349 O368 2.473 . S
Tb349 O371 2.324 . S
Eu350 O354 2.292 . S
Eu350 C355 2.852 . S
Eu350 O366 2.324 . S
Eu350 O370 2.326 . S
Eu350 O372 2.500 . S
Eu350 O373 2.473 . S
C351 O348 1.255 . S
C351 O352 1.247 . S
O352 C351 1.247 . S
C353 O365 1.242 . S
C353 O366 1.258 . S
O354 Eu350 2.292 . S
O354 C356 1.255 . S
C355 Eu350 2.852 . S
C355 C359 1.503 . S
C355 O372 1.273 . S
C355 O373 1.257 . S
C356 O354 1.255 . S
C356 O357 1.247 . S
O357 C356 1.247 . S
C358 O370 1.242 . S
C358 O371 1.258 . S
C359 C355 1.503 . S
C359 C360 1.379 . S
C359 C364 1.392 1_545 S
C360 C359 1.379 . S
C360 C361 1.404 . S
C360 H374 0.929 . S
C361 C360 1.404 . S
C361 C362 1.389 1_545 S
C362 C361 1.389 1_565 S
C362 C363 1.399 . S
C362 H375 0.931 . S
C363 C362 1.399 . S
C363 C364 1.390 . S
C364 C359 1.392 1_565 S
C364 C363 1.390 . S
C364 H376 0.929 . S
O365 Tb349 2.326 . S
O365 C353 1.242 . S
O366 Eu350 2.324 . S
O366 C353 1.258 . S
O367 Tb349 2.500 . S
O367 C369 1.273 . S
O368 Tb349 2.473 . S
O368 C369 1.257 . S
C369 O367 1.273 . S
C369 O368 1.257 . S
O370 Eu350 2.326 . S
O370 C358 1.242 . S
O371 Tb349 2.324 . S
O371 C358 1.258 . S
O372 Eu350 2.500 . S
O372 C355 1.273 . S
O373 Eu350 2.473 . S
O373 C355 1.257 . S
H374 C360 0.929 . S
H375 C362 0.931 . S
H376 C364 0.929 . S
O377 Tb378 2.292 . S
O377 C380 1.255 . S
Tb378 O377 2.292 . S
Tb378 O394 2.326 . S
Tb378 O396 2.500 . S
Tb378 O397 2.473 . S
Tb378 O400 2.324 . S
Eu379 O383 2.292 . S
Eu379 C384 2.852 . S
Eu379 O395 2.324 . S
Eu379 O399 2.326 . S
Eu379 O401 2.500 . S
Eu379 O402 2.473 . S
C380 O377 1.255 . S
C380 O381 1.247 . S
O381 C380 1.247 . S
C382 O394 1.242 . S
C382 O395 1.258 . S
O383 Eu379 2.292 . S
O383 C385 1.255 . S
C384 Eu379 2.852 . S
C384 C388 1.503 . S
C384 O401 1.273 . S
C384 O402 1.257 . S
C385 O383 1.255 . S
C385 O386 1.247 . S
O386 C385 1.247 . S
C387 O399 1.242 . S
C387 O400 1.258 . S
C388 C384 1.503 . S
C388 C389 1.379 . S
C388 C393 1.392 . S
C389 C388 1.379 . S
C389 C390 1.404 . S
C389 H403 0.929 . S
C390 C389 1.404 . S
C390 C391 1.389 . S
C391 C390 1.389 . S
C391 C392 1.399 . S
C391 H404 0.931 . S
C392 C391 1.399 . S
C392 C393 1.390 . S
C393 C388 1.392 . S
C393 C392 1.390 . S
C393 H405 0.929 . S
O394 Tb378 2.326 . S
O394 C382 1.242 . S
O395 Eu379 2.324 . S
O395 C382 1.258 . S
O396 Tb378 2.500 . S
O396 C398 1.273 . S
O397 Tb378 2.473 . S
O397 C398 1.257 . S
C398 O396 1.273 . S
C398 O397 1.257 . S
O399 Eu379 2.326 . S
O399 C387 1.242 . S
O400 Tb378 2.324 . S
O400 C387 1.258 . S
O401 Eu379 2.500 . S
O401 C384 1.273 . S
O402 Eu379 2.473 . S
O402 C384 1.257 . S
H403 C389 0.929 . S
H404 C391 0.931 . S
H405 C393 0.929 . S
O406 Tb407 2.292 . S
O406 C409 1.255 . S
Tb407 O406 2.292 . S
Tb407 O423 2.326 . S
Tb407 O425 2.500 . S
Tb407 O426 2.473 . S
Tb407 O429 2.324 . S
Eu408 O412 2.292 . S
Eu408 C413 2.852 . S
Eu408 O424 2.324 . S
Eu408 O428 2.326 . S
Eu408 O430 2.500 . S
Eu408 O431 2.473 . S
C409 O406 1.255 . S
C409 O410 1.247 . S
O410 C409 1.247 . S
C411 O423 1.242 . S
C411 O424 1.258 . S
O412 Eu408 2.292 . S
O412 C414 1.255 . S
C413 Eu408 2.852 . S
C413 C417 1.503 . S
C413 O430 1.273 . S
C413 O431 1.257 . S
C414 O412 1.255 . S
C414 O415 1.247 . S
O415 C414 1.247 . S
C416 O428 1.242 . S
C416 O429 1.258 . S
C417 C413 1.503 . S
C417 C418 1.379 . S
C417 C422 1.392 . S
C418 C417 1.379 . S
C418 C419 1.404 . S
C418 H432 0.929 . S
C419 C418 1.404 . S
C419 C420 1.389 . S
C420 C419 1.389 . S
C420 C421 1.399 . S
C420 H433 0.931 . S
C421 C420 1.399 . S
C421 C422 1.390 . S
C422 C417 1.392 . S
C422 C421 1.390 . S
C422 H434 0.929 . S
O423 Tb407 2.326 . S
O423 C411 1.242 . S
O424 Eu408 2.324 . S
O424 C411 1.258 . S
O425 Tb407 2.500 . S
O425 C427 1.273 . S
O426 Tb407 2.473 . S
O426 C427 1.257 . S
C427 O425 1.273 . S
C427 O426 1.257 . S
O428 Eu408 2.326 . S
O428 C416 1.242 . S
O429 Tb407 2.324 . S
O429 C416 1.258 . S
O430 Eu408 2.500 . S
O430 C413 1.273 . S
O431 Eu408 2.473 . S
O431 C413 1.257 . S
H432 C418 0.929 . S
H433 C420 0.931 . S
H434 C422 0.929 . S
O435 Tb436 2.292 . S
O435 C438 1.255 . S
Tb436 O435 2.292 . S
Tb436 O452 2.326 . S
Tb436 O454 2.500 . S
Tb436 O455 2.473 . S
Tb436 O458 2.324 . S
Eu437 O441 2.292 . S
Eu437 C442 2.852 . S
Eu437 O453 2.324 . S
Eu437 O457 2.326 . S
Eu437 O459 2.500 . S
Eu437 O460 2.473 . S
C438 O435 1.255 . S
C438 O439 1.247 . S
O439 C438 1.247 . S
C440 O452 1.242 . S
C440 O453 1.258 . S
O441 Eu437 2.292 . S
O441 C443 1.255 . S
C442 Eu437 2.852 . S
C442 C446 1.503 . S
C442 O459 1.273 . S
C442 O460 1.257 . S
C443 O441 1.255 . S
C443 O444 1.247 . S
O444 C443 1.247 . S
C445 O457 1.242 . S
C445 O458 1.258 . S
C446 C442 1.503 . S
C446 C447 1.379 . S
C446 C451 1.392 1_455 S
C447 C446 1.379 . S
C447 C448 1.404 . S
C447 H461 0.929 . S
C448 C447 1.404 . S
C448 C449 1.389 1_455 S
C449 C448 1.389 1_655 S
C449 C450 1.399 . S
C449 H462 0.931 . S
C450 C449 1.399 . S
C450 C451 1.390 . S
C451 C446 1.392 1_655 S
C451 C450 1.390 . S
C451 H463 0.929 . S
O452 Tb436 2.326 . S
O452 C440 1.242 . S
O453 Eu437 2.324 . S
O453 C440 1.258 . S
O454 Tb436 2.500 . S
O454 C456 1.273 . S
O455 Tb436 2.473 . S
O455 C456 1.257 . S
C456 O454 1.273 . S
C456 O455 1.257 . S
O457 Eu437 2.326 . S
O457 C445 1.242 . S
O458 Tb436 2.324 . S
O458 C445 1.258 . S
O459 Eu437 2.500 . S
O459 C442 1.273 . S
O460 Eu437 2.473 . S
O460 C442 1.257 . S
H461 C447 0.929 . S
H462 C449 0.931 . S
H463 C451 0.929 . S
H464 C470 0.930 . S
H465 C474 0.930 . S
H466 C479 0.929 . S
H467 C477 0.929 . S
H468 C472 0.929 . S
H469 C478 0.929 . S
C470 H464 0.930 . S
C470 C471 1.367 . S
C470 C478 1.378 . S
C471 C470 1.367 . S
C471 C479 1.433 1_565 S
C472 H468 0.929 . S
C472 C474 1.378 . S
C472 C476 1.350 . S
C473 C476 1.463 1_566 S
C473 C478 1.350 . S
C473 N481 1.427 1_565 S
C474 H465 0.930 . S
C474 C472 1.378 . S
C474 C475 1.367 . S
C475 C474 1.367 . S
C475 C477 1.433 1_545 S
C476 C472 1.350 . S
C476 C473 1.463 1_544 S
C476 N480 1.427 1_545 S
C477 H467 0.929 . S
C477 C475 1.433 1_565 S
C477 N480 1.384 . S
C478 H469 0.929 . S
C478 C470 1.378 . S
C478 C473 1.350 . S
C479 H466 0.929 . S
C479 C471 1.433 1_545 S
C479 N481 1.384 . S
N480 C476 1.427 1_565 S
N480 C477 1.384 . S
N481 C473 1.427 1_545 S
N481 C479 1.384 . S
H482 C488 0.930 . S
H483 C492 0.930 . S
H484 C497 0.929 . S
H485 C495 0.929 . S
H486 C490 0.929 . S
H487 C496 0.929 . S
C488 H482 0.930 . S
C488 C489 1.367 . S
C488 C496 1.378 . S
C489 C488 1.367 . S
C489 C497 1.433 . S
C490 H486 0.929 . S
C490 C492 1.378 . S
C490 C494 1.350 . S
C491 C494 1.463 1_554 S
C491 C496 1.350 . S
C491 N499 1.427 . S
C492 H483 0.930 . S
C492 C490 1.378 . S
C492 C493 1.367 . S
C493 C492 1.367 . S
C493 C495 1.433 . S
C494 C490 1.350 . S
C494 C491 1.463 1_556 S
C494 N498 1.427 . S
C495 H485 0.929 . S
C495 C493 1.433 . S
C495 N498 1.384 . S
C496 H487 0.929 . S
C496 C488 1.378 . S
C496 C491 1.350 . S
C497 H484 0.929 . S
C497 C489 1.433 . S
C497 N499 1.384 . S
N498 C494 1.427 . S
N498 C495 1.384 . S
N499 C491 1.427 . S
N499 C497 1.384 . S
H500 C506 0.930 . S
H501 C510 0.930 . S
H502 C515 0.929 . S
H503 C513 0.929 . S
H504 C508 0.929 1_455 S
H505 C514 0.929 1_655 S
C506 H500 0.930 . S
C506 C507 1.367 . S
C506 C514 1.378 . S
C507 C506 1.367 . S
C507 C515 1.433 . S
C508 H504 0.929 1_655 S
C508 C510 1.378 . S
C508 C512 1.350 . S
C509 C512 1.463 1_456 S
C509 C514 1.350 . S
C509 N517 1.427 . S
C510 H501 0.930 . S
C510 C508 1.378 . S
C510 C511 1.367 . S
C511 C510 1.367 . S
C511 C513 1.433 . S
C512 C508 1.350 . S
C512 C509 1.463 1_654 S
C512 N516 1.427 . S
C513 H503 0.929 . S
C513 C511 1.433 . S
C513 N516 1.384 . S
C514 H505 0.929 1_455 S
C514 C506 1.378 . S
C514 C509 1.350 . S
C515 H502 0.929 . S
C515 C507 1.433 . S
C515 N517 1.384 . S
N516 C512 1.427 . S
N516 C513 1.384 . S
N517 C509 1.427 . S
N517 C515 1.384 . S
H518 C524 0.926 1_655 S
H519 C528 0.926 1_455 S
H520 C533 0.929 . S
H521 C531 0.929 . S
H522 C526 0.929 1_554 S
H523 C532 0.929 1_556 S
C524 H518 0.926 1_455 S
C524 C525 1.376 . S
C524 C532 1.374 1_455 S
C525 C524 1.376 . S
C525 C533 1.433 . S
C526 H522 0.929 1_556 S
C526 C528 1.374 1_455 S
C526 C530 1.350 1_455 S
C527 C530 1.463 1_464 S
C527 C532 1.350 1_455 S
C527 N535 1.427 1_565 S
C528 H519 0.926 1_655 S
C528 C526 1.374 1_655 S
C528 C529 1.376 . S
C529 C528 1.376 . S
C529 C531 1.433 . S
C530 C526 1.350 1_655 S
C530 C527 1.463 1_646 S
C530 N534 1.427 1_545 S
C531 H521 0.929 . S
C531 C529 1.433 . S
C531 N534 1.384 1_545 S
C532 H523 0.929 1_554 S
C532 C524 1.374 1_655 S
C532 C527 1.350 1_655 S
C533 H520 0.929 . S
C533 C525 1.433 . S
C533 N535 1.384 1_565 S
N534 C530 1.427 1_565 S
N534 C531 1.384 1_565 S
N535 C527 1.427 1_545 S
N535 C533 1.384 1_545 S
H536 C542 0.930 . S
H537 C546 0.930 . S
H538 C551 0.929 . S
H539 C549 0.929 . S
H540 C544 0.929 . S
H541 C550 0.929 . S
C542 H536 0.930 . S
C542 C543 1.367 . S
C542 C550 1.378 . S
C543 C542 1.367 . S
C543 C551 1.433 1_565 S
C544 H540 0.929 . S
C544 C546 1.378 . S
C544 C548 1.350 . S
C545 C548 1.463 1_465 S
C545 C550 1.350 . S
C545 N553 1.427 1_565 S
C546 H537 0.930 . S
C546 C544 1.378 . S
C546 C547 1.367 . S
C547 C546 1.367 . S
C547 C549 1.433 1_545 S
C548 C544 1.350 . S
C548 C545 1.463 1_645 S
C548 N552 1.427 1_545 S
C549 H539 0.929 . S
C549 C547 1.433 1_565 S
C549 N552 1.384 . S
C550 H541 0.929 . S
C550 C542 1.378 . S
C550 C545 1.350 . S
C551 H538 0.929 . S
C551 C543 1.433 1_545 S
C551 N553 1.384 . S
N552 C548 1.427 1_565 S
N552 C549 1.384 . S
N553 C545 1.427 1_545 S
N553 C551 1.384 . S
H554 C560 0.930 . S
H555 C564 0.930 . S
H556 C569 0.929 . S
H557 C567 0.929 . S
H558 C562 0.929 1_545 S
H559 C568 0.929 1_565 S
C560 H554 0.930 . S
C560 C561 1.367 . S
C560 C568 1.378 . S
C561 C560 1.367 . S
C561 C569 1.433 . S
C562 H558 0.929 1_565 S
C562 C564 1.378 . S
C562 C566 1.350 . S
C563 C566 1.463 1_545 S
C563 C568 1.350 . S
C563 N571 1.427 . S
C564 H555 0.930 . S
C564 C562 1.378 . S
C564 C565 1.367 . S
C565 C564 1.367 . S
C565 C567 1.433 . S
C566 C562 1.350 . S
C566 C563 1.463 1_565 S
C566 N570 1.427 . S
C567 H557 0.929 . S
C567 C565 1.433 . S
C567 N570 1.384 . S
C568 H559 0.929 1_545 S
C568 C560 1.378 . S
C568 C563 1.350 . S
C569 H556 0.929 . S
C569 C561 1.433 . S
C569 N571 1.384 . S
N570 C566 1.427 . S
N570 C567 1.384 . S
N571 C563 1.427 . S
N571 C569 1.384 . S
H572 C578 0.930 . S
H573 C582 0.930 . S
H574 C587 0.929 . S
H575 C585 0.929 . S
H576 C580 0.929 . S
H577 C586 0.929 . S
C578 H572 0.930 . S
C578 C579 1.367 . S
C578 C586 1.378 . S
C579 C578 1.367 . S
C579 C587 1.433 . S
C580 H576 0.929 . S
C580 C582 1.378 . S
C580 C584 1.350 . S
C581 C584 1.463 . S
C581 C586 1.350 . S
C581 N589 1.427 . S
C582 H573 0.930 . S
C582 C580 1.378 . S
C582 C583 1.367 . S
C583 C582 1.367 . S
C583 C585 1.433 . S
C584 C580 1.350 . S
C584 C581 1.463 . S
C584 N588 1.427 . S
C585 H575 0.929 . S
C585 C583 1.433 . S
C585 N588 1.384 . S
C586 H577 0.929 . S
C586 C578 1.378 . S
C586 C581 1.350 . S
C587 H574 0.929 . S
C587 C579 1.433 . S
C587 N589 1.384 . S
N588 C584 1.427 . S
N588 C585 1.384 . S
N589 C581 1.427 . S
N589 C587 1.384 . S
H590 C596 0.930 . S
H591 C600 0.930 . S
H592 C605 0.929 . S
H593 C603 0.929 . S
H594 C598 0.929 . S
H595 C604 0.929 . S
C596 H590 0.930 . S
C596 C597 1.367 1_655 S
C596 C604 1.378 . S
C597 C596 1.367 1_455 S
C597 C605 1.433 . S
C598 H594 0.929 . S
C598 C600 1.378 . S
C598 C602 1.350 1_455 S
C599 C602 1.463 1_455 S
C599 C604 1.350 1_455 S
C599 N607 1.427 . S
C600 H591 0.930 . S
C600 C598 1.378 . S
C600 C601 1.367 1_455 S
C601 C600 1.367 1_655 S
C601 C603 1.433 . S
C602 C598 1.350 1_655 S
C602 C599 1.463 1_655 S
C602 N606 1.427 . S
C603 H593 0.929 . S
C603 C601 1.433 . S
C603 N606 1.384 . S
C604 H595 0.929 . S
C604 C596 1.378 . S
C604 C599 1.350 1_655 S
C605 H592 0.929 . S
C605 C597 1.433 . S
C605 N607 1.384 . S
N606 C602 1.427 . S
N606 C603 1.384 . S
N607 C599 1.427 . S
N607 C605 1.384 . S
H608 C614 0.930 . S
H609 C618 0.930 . S
H610 C623 0.929 . S
H611 C621 0.929 . S
H612 C616 0.929 . S
H613 C622 0.929 . S
C614 H608 0.930 . S
C614 C615 1.367 . S
C614 C622 1.378 . S
C615 C614 1.367 . S
C615 C623 1.433 . S
C616 H612 0.929 . S
C616 C618 1.378 . S
C616 C620 1.350 . S
C617 C620 1.463 . S
C617 C622 1.350 . S
C617 N625 1.427 . S
C618 H609 0.930 . S
C618 C616 1.378 . S
C618 C619 1.367 . S
C619 C618 1.367 . S
C619 C621 1.433 . S
C620 C616 1.350 . S
C620 C617 1.463 . S
C620 N624 1.427 . S
C621 H611 0.929 . S
C621 C619 1.433 . S
C621 N624 1.384 . S
C622 H613 0.929 . S
C622 C614 1.378 . S
C622 C617 1.350 . S
C623 H610 0.929 . S
C623 C615 1.433 . S
C623 N625 1.384 . S
N624 C620 1.427 . S
N624 C621 1.384 . S
N625 C617 1.427 . S
N625 C623 1.384 . S
H626 C632 0.930 . S
H627 C636 0.930 . S
H628 C641 0.929 . S
H629 C639 0.929 . S
H630 C634 0.929 . S
H631 C640 0.929 . S
C632 H626 0.930 . S
C632 C633 1.367 . S
C632 C640 1.378 . S
C633 C632 1.367 . S
C633 C641 1.433 . S
C634 H630 0.929 . S
C634 C636 1.378 . S
C634 C638 1.350 . S
C635 C638 1.463 . S
C635 C640 1.350 . S
C635 N643 1.427 . S
C636 H627 0.930 . S
C636 C634 1.378 . S
C636 C637 1.367 . S
C637 C636 1.367 . S
C637 C639 1.433 . S
C638 C634 1.350 . S
C638 C635 1.463 . S
C638 N642 1.427 . S
C639 H629 0.929 . S
C639 C637 1.433 . S
C639 N642 1.384 . S
C640 H631 0.929 . S
C640 C632 1.378 . S
C640 C635 1.350 . S
C641 H628 0.929 . S
C641 C633 1.433 . S
C641 N643 1.384 . S
N642 C638 1.427 . S
N642 C639 1.384 . S
N643 C635 1.427 . S
N643 C641 1.384 . S
H644 C650 0.930 . S
H645 C654 0.930 . S
H646 C659 0.929 . S
H647 C657 0.929 . S
H648 C652 0.929 . S
H649 C658 0.929 . S
C650 H644 0.930 . S
C650 C651 1.367 . S
C650 C658 1.378 . S
C651 C650 1.367 . S
C651 C659 1.433 1_655 S
C652 H648 0.929 . S
C652 C654 1.378 . S
C652 C656 1.350 . S
C653 C656 1.463 . S
C653 C658 1.350 . S
C653 N661 1.427 . S
C654 H645 0.930 . S
C654 C652 1.378 . S
C654 C655 1.367 . S
C655 C654 1.367 . S
C655 C657 1.433 . S
C656 C652 1.350 . S
C656 C653 1.463 . S
C656 N660 1.427 . S
C657 H647 0.929 . S
C657 C655 1.433 . S
C657 N660 1.384 . S
C658 H649 0.929 . S
C658 C650 1.378 . S
C658 C653 1.350 . S
C659 H646 0.929 . S
C659 C651 1.433 1_455 S
C659 N661 1.384 1_455 S
N660 C656 1.427 . S
N660 C657 1.384 . S
N661 C653 1.427 . S
N661 C659 1.384 1_655 S
H662 C668 0.930 . S
H663 C672 0.930 . S
H664 C677 0.929 . S
H665 C675 0.929 . S
H666 C670 0.929 . S
H667 C676 0.943 . S
C668 H662 0.930 . S
C668 C669 1.367 1_545 S
C668 C676 1.389 . S
C669 C668 1.367 1_565 S
C669 C677 1.433 . S
C670 H666 0.929 . S
C670 C672 1.378 . S
C670 C674 1.350 . S
C671 C674 1.463 . S
C671 C676 1.325 1_565 S
C671 N679 1.427 . S
C672 H663 0.930 . S
C672 C670 1.378 . S
C672 C673 1.367 . S
C673 C672 1.367 . S
C673 C675 1.433 . S
C674 C670 1.350 . S
C674 C671 1.463 . S
C674 N678 1.427 . S
C675 H665 0.929 . S
C675 C673 1.433 . S
C675 N678 1.384 . S
C676 H667 0.943 . S
C676 C668 1.389 . S
C676 C671 1.325 1_545 S
C677 H664 0.929 . S
C677 C669 1.433 . S
C677 N679 1.384 . S
N678 C674 1.427 . S
N678 C675 1.384 . S
N679 C671 1.427 . S
N679 C677 1.384 . S
H680 C686 0.930 . S
H681 C690 0.930 . S
H682 C695 0.929 . S
H683 C693 0.929 . S
H684 C688 0.929 . S
H685 C694 0.929 . S
C686 H680 0.930 . S
C686 C687 1.367 . S
C686 C694 1.378 . S
C687 C686 1.367 . S
C687 C695 1.433 1_455 S
C688 H684 0.929 . S
C688 C690 1.378 . S
C688 C692 1.350 . S
C689 C692 1.463 . S
C689 C694 1.350 . S
C689 N697 1.427 1_455 S
C690 H681 0.930 . S
C690 C688 1.378 . S
C690 C691 1.367 . S
C691 C690 1.367 . S
C691 C693 1.433 . S
C692 C688 1.350 . S
C692 C689 1.463 . S
C692 N696 1.427 . S
C693 H683 0.929 . S
C693 C691 1.433 . S
C693 N696 1.384 . S
C694 H685 0.929 . S
C694 C686 1.378 . S
C694 C689 1.350 . S
C695 H682 0.929 . S
C695 C687 1.433 1_655 S
C695 N697 1.384 . S
N696 C692 1.427 . S
N696 C693 1.384 . S
N697 C689 1.427 1_655 S
N697 C695 1.384 . S
H698 C704 0.930 . S
H699 C708 0.930 . S
H700 C713 0.929 . S
H701 C711 0.929 . S
H702 C706 0.929 . S
H703 C712 0.929 . S
C704 H698 0.930 . S
C704 C705 1.367 . S
C704 C712 1.378 . S
C705 C704 1.367 . S
C705 C713 1.433 1_545 S
C706 H702 0.929 . S
C706 C708 1.378 . S
C706 C710 1.350 . S
C707 C710 1.463 . S
C707 C712 1.350 . S
C707 N715 1.448 . S
C708 H699 0.930 . S
C708 C706 1.378 . S
C708 C709 1.367 . S
C709 C708 1.367 . S
C709 C711 1.433 . S
C710 C706 1.350 . S
C710 C707 1.463 . S
C710 N714 1.427 . S
C711 H701 0.929 . S
C711 C709 1.433 . S
C711 N714 1.384 . S
C712 H703 0.929 . S
C712 C704 1.378 . S
C712 C707 1.350 . S
C713 H700 0.929 . S
C713 C705 1.433 1_565 S
C713 N715 1.374 1_565 S
N714 C710 1.427 . S
N714 C711 1.384 . S
N715 C707 1.448 . S
N715 C713 1.374 1_545 S
H716 C722 0.930 . S
H717 C726 0.930 . S
H718 C731 0.929 . S
H719 C729 0.929 . S
H720 C724 0.929 . S
H721 C730 0.929 . S
C722 H716 0.930 . S
C722 C723 1.367 . S
C722 C730 1.378 . S
C723 C722 1.367 . S
C723 C731 1.433 . S
C724 H720 0.929 . S
C724 C726 1.378 . S
C724 C728 1.350 . S
C725 C728 1.463 . S
C725 C730 1.350 . S
C725 N733 1.427 . S
C726 H717 0.930 . S
C726 C724 1.378 . S
C726 C727 1.367 . S
C727 C726 1.367 . S
C727 C729 1.433 . S
C728 C724 1.350 . S
C728 C725 1.463 . S
C728 N732 1.427 . S
C729 H719 0.929 . S
C729 C727 1.433 . S
C729 N732 1.384 . S
C730 H721 0.929 . S
C730 C722 1.378 . S
C730 C725 1.350 . S
C731 H718 0.929 . S
C731 C723 1.433 . S
C731 N733 1.384 . S
N732 C728 1.427 . S
N732 C729 1.384 . S
N733 C725 1.427 . S
N733 C731 1.384 . S
H734 C740 0.930 . S
H735 C744 0.930 . S
H736 C749 0.929 . S
H737 C747 0.929 . S
H738 C742 0.929 . S
H739 C748 0.929 . S
C740 H734 0.930 . S
C740 C741 1.367 . S
C740 C748 1.378 . S
C741 C740 1.367 . S
C741 C749 1.433 . S
C742 H738 0.929 . S
C742 C744 1.378 . S
C742 C746 1.350 . S
C743 C746 1.463 . S
C743 C748 1.350 . S
C743 N751 1.427 . S
C744 H735 0.930 . S
C744 C742 1.378 . S
C744 C745 1.367 . S
C745 C744 1.367 . S
C745 C747 1.433 . S
C746 C742 1.350 . S
C746 C743 1.463 . S
C746 N750 1.427 . S
C747 H737 0.929 . S
C747 C745 1.433 . S
C747 N750 1.384 . S
C748 H739 0.929 . S
C748 C740 1.378 . S
C748 C743 1.350 . S
C749 H736 0.929 . S
C749 C741 1.433 . S
C749 N751 1.384 . S
N750 C746 1.427 . S
N750 C747 1.384 . S
N751 C743 1.427 . S
N751 C749 1.384 . S
H752 C758 0.930 . S
H753 C762 0.930 . S
H754 C767 0.929 . S
H755 C765 0.929 . S
H756 C760 0.929 . S
H757 C766 0.929 . S
C758 H752 0.930 . S
C758 C759 1.367 . S
C758 C766 1.378 . S
C759 C758 1.367 . S
C759 C767 1.433 . S
C760 H756 0.929 . S
C760 C762 1.378 . S
C760 C764 1.350 . S
C761 C764 1.463 . S
C761 C766 1.350 . S
C761 N769 1.427 . S
C762 H753 0.930 . S
C762 C760 1.378 . S
C762 C763 1.367 . S
C763 C762 1.367 . S
C763 C765 1.433 . S
C764 C760 1.350 . S
C764 C761 1.463 . S
C764 N768 1.427 . S
C765 H755 0.929 . S
C765 C763 1.433 . S
C765 N768 1.384 . S
C766 H757 0.929 . S
C766 C758 1.378 . S
C766 C761 1.350 . S
C767 H754 0.929 . S
C767 C759 1.433 . S
C767 N769 1.384 . S
N768 C764 1.427 . S
N768 C765 1.384 . S
N769 C761 1.427 . S
N769 C767 1.384 . S
H770 C776 0.930 . S
H771 C780 0.930 . S
H772 C785 0.929 . S
H773 C783 0.929 . S
H774 C778 0.929 . S
H775 C784 0.929 . S
C776 H770 0.930 . S
C776 C777 1.367 . S
C776 C784 1.378 . S
C777 C776 1.367 . S
C777 C785 1.433 . S
C778 H774 0.929 . S
C778 C780 1.378 . S
C778 C782 1.350 . S
C779 C782 1.463 . S
C779 C784 1.350 . S
C779 N787 1.427 . S
C780 H771 0.930 . S
C780 C778 1.378 . S
C780 C781 1.367 . S
C781 C780 1.367 . S
C781 C783 1.433 . S
C782 C778 1.350 . S
C782 C779 1.463 . S
C782 N786 1.427 . S
C783 H773 0.929 . S
C783 C781 1.433 . S
C783 N786 1.384 . S
C784 H775 0.929 . S
C784 C776 1.378 . S
C784 C779 1.350 . S
C785 H772 0.929 . S
C785 C777 1.433 . S
C785 N787 1.384 . S
N786 C782 1.427 . S
N786 C783 1.384 . S
N787 C779 1.427 . S
N787 C785 1.384 . S
H788 C794 0.930 . S
H789 C798 0.930 . S
H790 C803 0.916 1_655 S
H791 C801 0.929 . S
H792 C796 0.929 . S
H793 C802 0.929 . S
C794 H788 0.930 . S
C794 C795 1.367 . S
C794 C802 1.378 . S
C795 C794 1.367 . S
C795 C803 1.437 . S
C796 H792 0.929 . S
C796 C798 1.378 . S
C796 C800 1.350 . S
C797 C800 1.463 . S
C797 C802 1.350 . S
C797 N805 1.427 . S
C798 H789 0.930 . S
C798 C796 1.378 . S
C798 C799 1.367 . S
C799 C798 1.367 . S
C799 C801 1.433 . S
C800 C796 1.350 . S
C800 C797 1.463 . S
C800 N804 1.427 . S
C801 H791 0.929 . S
C801 C799 1.433 . S
C801 N804 1.384 . S
C802 H793 0.929 . S
C802 C794 1.378 . S
C802 C797 1.350 . S
C803 H790 0.916 1_455 S
C803 C795 1.437 . S
C803 N805 1.395 . S
N804 C800 1.427 . S
N804 C801 1.384 . S
N805 C797 1.427 . S
N805 C803 1.395 . S
H806 C812 0.930 . S
H807 C816 0.930 . S
H808 C821 0.929 . S
H809 C819 0.929 . S
H810 C814 0.929 . S
H811 C820 0.929 . S
C812 H806 0.930 . S
C812 C813 1.367 . S
C812 C820 1.378 . S
C813 C812 1.367 . S
C813 C821 1.433 1_545 S
C814 H810 0.929 . S
C814 C816 1.378 . S
C814 C818 1.350 . S
C815 C818 1.463 . S
C815 C820 1.350 . S
C815 N823 1.427 . S
C816 H807 0.930 . S
C816 C814 1.378 . S
C816 C817 1.367 . S
C817 C816 1.367 . S
C817 C819 1.433 . S
C818 C814 1.350 . S
C818 C815 1.463 . S
C818 N822 1.427 . S
C819 H809 0.929 . S
C819 C817 1.433 . S
C819 N822 1.384 . S
C820 H811 0.929 . S
C820 C812 1.378 . S
C820 C815 1.350 . S
C821 H808 0.929 . S
C821 C813 1.433 1_565 S
C821 N823 1.384 1_565 S
N822 C818 1.427 . S
N822 C819 1.384 . S
N823 C815 1.427 . S
N823 C821 1.384 1_545 S
H824 C830 0.930 . S
H825 C834 0.930 . S
H826 C839 0.921 1_455 S
H827 C837 0.929 . S
H828 C832 0.929 . S
H829 C838 0.929 . S
C830 H824 0.930 . S
C830 C831 1.367 . S
C830 C838 1.378 . S
C831 C830 1.367 . S
C831 C839 1.435 . S
C832 H828 0.929 . S
C832 C834 1.378 . S
C832 C836 1.350 . S
C833 C836 1.463 . S
C833 C838 1.350 . S
C833 N841 1.427 . S
C834 H825 0.930 . S
C834 C832 1.378 . S
C834 C835 1.367 . S
C835 C834 1.367 . S
C835 C837 1.433 . S
C836 C832 1.350 . S
C836 C833 1.463 . S
C836 N840 1.427 . S
C837 H827 0.929 . S
C837 C835 1.433 . S
C837 N840 1.384 . S
C838 H829 0.929 . S
C838 C830 1.378 . S
C838 C833 1.350 . S
C839 H826 0.921 1_655 S
C839 C831 1.435 . S
C839 N841 1.390 . S
N840 C836 1.427 . S
N840 C837 1.384 . S
N841 C833 1.427 . S
N841 C839 1.390 . S
H842 C848 0.930 . S
H843 C852 0.930 . S
H844 C857 0.929 . S
H845 C855 0.929 . S
H846 C850 0.929 . S
H847 C856 0.929 1_545 S
C848 H842 0.930 . S
C848 C849 1.367 1_545 S
C848 C856 1.378 1_545 S
C849 C848 1.367 1_565 S
C849 C857 1.433 . S
C850 H846 0.929 . S
C850 C852 1.378 . S
C850 C854 1.350 . S
C851 C854 1.463 . S
C851 C856 1.350 . S
C851 N859 1.427 . S
C852 H843 0.930 . S
C852 C850 1.378 . S
C852 C853 1.367 . S
C853 C852 1.367 . S
C853 C855 1.433 . S
C854 C850 1.350 . S
C854 C851 1.463 . S
C854 N858 1.427 . S
C855 H845 0.929 . S
C855 C853 1.433 . S
C855 N858 1.384 . S
C856 H847 0.929 1_565 S
C856 C848 1.378 1_565 S
C856 C851 1.350 . S
C857 H844 0.929 . S
C857 C849 1.433 . S
C857 N859 1.384 . S
N858 C854 1.427 . S
N858 C855 1.384 . S
N859 C851 1.427 . S
N859 C857 1.384 . S
H860 C866 0.930 . S
H861 C870 0.930 . S
H862 C875 0.929 . S
H863 C873 0.929 . S
H864 C868 0.929 . S
H865 C874 0.929 . S
C866 H860 0.930 . S
C866 C867 1.367 . S
C866 C874 1.378 . S
C867 C866 1.367 . S
C867 C875 1.433 . S
C868 H864 0.929 . S
C868 C870 1.378 . S
C868 C872 1.350 . S
C869 C872 1.463 . S
C869 C874 1.350 . S
C869 N877 1.427 . S
C870 H861 0.930 . S
C870 C868 1.378 . S
C870 C871 1.367 . S
C871 C870 1.367 . S
C871 C873 1.433 . S
C872 C868 1.350 . S
C872 C869 1.463 . S
C872 N876 1.427 . S
C873 H863 0.929 . S
C873 C871 1.433 . S
C873 N876 1.384 . S
C874 H865 0.929 . S
C874 C866 1.378 . S
C874 C869 1.350 . S
C875 H862 0.929 . S
C875 C867 1.433 . S
C875 N877 1.384 . S
N876 C872 1.427 . S
N876 C873 1.384 . S
N877 C869 1.427 . S
N877 C875 1.384 . S
H878 C884 0.930 . S
H879 C888 0.930 . S
H880 C893 0.929 . S
H881 C891 0.929 . S
H882 C886 0.929 . S
H883 C892 0.929 . S
C884 H878 0.930 . S
C884 C885 1.367 . S
C884 C892 1.378 . S
C885 C884 1.367 . S
C885 C893 1.433 . S
C886 H882 0.929 . S
C886 C888 1.378 . S
C886 C890 1.350 . S
C887 C890 1.463 . S
C887 C892 1.350 . S
C887 N895 1.427 . S
C888 H879 0.930 . S
C888 C886 1.378 . S
C888 C889 1.367 . S
C889 C888 1.367 . S
C889 C891 1.433 . S
C890 C886 1.350 . S
C890 C887 1.463 . S
C890 N894 1.427 . S
C891 H881 0.929 . S
C891 C889 1.433 . S
C891 N894 1.384 . S
C892 H883 0.929 . S
C892 C884 1.378 . S
C892 C887 1.350 . S
C893 H880 0.929 . S
C893 C885 1.433 . S
C893 N895 1.384 . S
N894 C890 1.427 . S
N894 C891 1.384 . S
N895 C887 1.427 . S
N895 C893 1.384 . S
H896 C902 0.930 . S
H897 C906 0.930 . S
H898 C911 0.929 . S
H899 C909 0.929 . S
H900 C904 0.929 . S
H901 C910 0.929 . S
C902 H896 0.930 . S
C902 C903 1.367 . S
C902 C910 1.378 . S
C903 C902 1.367 . S
C903 C911 1.433 . S
C904 H900 0.929 . S
C904 C906 1.378 . S
C904 C908 1.350 . S
C905 C908 1.463 1_556 S
C905 C910 1.350 . S
C905 N913 1.427 . S
C906 H897 0.930 . S
C906 C904 1.378 . S
C906 C907 1.367 . S
C907 C906 1.367 . S
C907 C909 1.433 . S
C908 C904 1.350 . S
C908 C905 1.463 1_554 S
C908 N912 1.427 . S
C909 H899 0.929 . S
C909 C907 1.433 . S
C909 N912 1.384 . S
C910 H901 0.929 . S
C910 C902 1.378 . S
C910 C905 1.350 . S
C911 H898 0.929 . S
C911 C903 1.433 . S
C911 N913 1.384 . S
N912 C908 1.427 . S
N912 C909 1.384 . S
N913 C905 1.427 . S
N913 C911 1.384 . S
H914 C920 0.930 . S
H915 C924 0.930 . S
H916 C929 0.929 . S
H917 C927 0.929 . S
H918 C922 0.929 . S
H919 C928 0.929 . S
C920 H914 0.930 . S
C920 C921 1.367 . S
C920 C928 1.378 . S
C921 C920 1.367 . S
C921 C929 1.433 . S
C922 H918 0.929 . S
C922 C924 1.378 . S
C922 C926 1.350 . S
C923 C926 1.463 1_556 S
C923 C928 1.350 . S
C923 N931 1.427 . S
C924 H915 0.930 . S
C924 C922 1.378 . S
C924 C925 1.367 . S
C925 C924 1.367 . S
C925 C927 1.433 . S
C926 C922 1.350 . S
C926 C923 1.463 1_554 S
C926 N930 1.427 . S
C927 H917 0.929 . S
C927 C925 1.433 . S
C927 N930 1.384 . S
C928 H919 0.929 . S
C928 C920 1.378 . S
C928 C923 1.350 . S
C929 H916 0.929 . S
C929 C921 1.433 . S
C929 N931 1.384 . S
N930 C926 1.427 . S
N930 C927 1.384 . S
N931 C923 1.427 . S
N931 C929 1.384 . S
H932 C938 0.930 . S
H933 C942 0.930 . S
H934 C947 0.929 . S
H935 C945 0.929 . S
H936 C940 0.929 . S
H937 C946 0.929 . S
C938 H932 0.930 . S
C938 C939 1.367 . S
C938 C946 1.378 . S
C939 C938 1.367 . S
C939 C947 1.433 . S
C940 H936 0.929 . S
C940 C942 1.378 . S
C940 C944 1.350 . S
C941 C944 1.463 1_556 S
C941 C946 1.350 . S
C941 N949 1.427 . S
C942 H933 0.930 . S
C942 C940 1.378 . S
C942 C943 1.367 . S
C943 C942 1.367 . S
C943 C945 1.433 . S
C944 C940 1.350 . S
C944 C941 1.463 1_554 S
C944 N948 1.427 . S
C945 H935 0.929 . S
C945 C943 1.433 . S
C945 N948 1.384 . S
C946 H937 0.929 . S
C946 C938 1.378 . S
C946 C941 1.350 . S
C947 H934 0.929 . S
C947 C939 1.433 . S
C947 N949 1.384 . S
N948 C944 1.427 . S
N948 C945 1.384 . S
N949 C941 1.427 . S
N949 C947 1.384 . S
H950 C956 0.930 . S
H951 C960 0.930 . S
H952 C965 0.929 . S
H953 C963 0.929 . S
H954 C958 0.929 . S
H955 C964 0.929 . S
C956 H950 0.930 . S
C956 C957 1.367 . S
C956 C964 1.378 . S
C957 C956 1.367 . S
C957 C965 1.433 . S
C958 H954 0.929 . S
C958 C960 1.378 . S
C958 C962 1.350 . S
C959 C962 1.463 1_556 S
C959 C964 1.350 . S
C959 N967 1.427 . S
C960 H951 0.930 . S
C960 C958 1.378 . S
C960 C961 1.367 . S
C961 C960 1.367 . S
C961 C963 1.433 . S
C962 C958 1.350 . S
C962 C959 1.463 1_554 S
C962 N966 1.427 . S
C963 H953 0.929 . S
C963 C961 1.433 . S
C963 N966 1.384 . S
C964 H955 0.929 . S
C964 C956 1.378 . S
C964 C959 1.350 . S
C965 H952 0.929 . S
C965 C957 1.433 . S
C965 N967 1.384 . S
N966 C962 1.427 . S
N966 C963 1.384 . S
N967 C959 1.427 . S
N967 C965 1.384 . S
H968 C974 0.930 . S
H969 C978 0.930 . S
H970 C983 0.929 . S
H971 C981 0.929 . S
H972 C976 0.929 . S
H973 C982 0.929 . S
C974 H968 0.930 . S
C974 C975 1.367 . S
C974 C982 1.378 . S
C975 C974 1.367 . S
C975 C983 1.433 . S
C976 H972 0.929 . S
C976 C978 1.378 . S
C976 C980 1.350 . S
C977 C980 1.463 . S
C977 C982 1.350 . S
C977 N985 1.427 . S
C978 H969 0.930 . S
C978 C976 1.378 . S
C978 C979 1.367 . S
C979 C978 1.367 . S
C979 C981 1.433 . S
C980 C976 1.350 . S
C980 C977 1.463 . S
C980 N984 1.427 . S
C981 H971 0.929 . S
C981 C979 1.433 . S
C981 N984 1.384 . S
C982 H973 0.929 . S
C982 C974 1.378 . S
C982 C977 1.350 . S
C983 H970 0.929 . S
C983 C975 1.433 . S
C983 N985 1.384 . S
N984 C980 1.427 . S
N984 C981 1.384 . S
N985 C977 1.427 . S
N985 C983 1.384 . S
H986 C992 0.930 . S
H987 C996 0.930 . S
H988 C1001 0.929 . S
H989 C999 0.929 . S
H990 C994 0.929 . S
H991 C1000 0.929 . S
C992 H986 0.930 . S
C992 C993 1.367 . S
C992 C1000 1.378 . S
C993 C992 1.367 . S
C993 C1001 1.433 . S
C994 H990 0.929 . S
C994 C996 1.378 . S
C994 C998 1.350 . S
C995 C998 1.463 . S
C995 C1000 1.350 . S
C995 N1003 1.427 . S
C996 H987 0.930 . S
C996 C994 1.378 . S
C996 C997 1.367 . S
C997 C996 1.367 . S
C997 C999 1.433 . S
C998 C994 1.350 . S
C998 C995 1.463 . S
C998 N1002 1.427 . S
C999 H989 0.929 . S
C999 C997 1.433 . S
C999 N1002 1.384 . S
C1000 H991 0.929 . S
C1000 C992 1.378 . S
C1000 C995 1.350 . S
C1001 H988 0.929 . S
C1001 C993 1.433 . S
C1001 N1003 1.384 . S
N1002 C998 1.427 . S
N1002 C999 1.384 . S
N1003 C995 1.427 . S
N1003 C1001 1.384 . S
H1004 C1010 0.930 . S
H1005 C1014 0.930 . S
H1006 C1019 0.929 . S
H1007 C1017 0.929 . S
H1008 C1012 0.929 . S
H1009 C1018 0.929 . S
C1010 H1004 0.930 . S
C1010 C1011 1.367 . S
C1010 C1018 1.378 . S
C1011 C1010 1.367 . S
C1011 C1019 1.433 . S
C1012 H1008 0.929 . S
C1012 C1014 1.378 . S
C1012 C1016 1.350 . S
C1013 C1016 1.463 . S
C1013 C1018 1.350 . S
C1013 N1021 1.427 . S
C1014 H1005 0.930 . S
C1014 C1012 1.378 . S
C1014 C1015 1.367 . S
C1015 C1014 1.367 . S
C1015 C1017 1.433 . S
C1016 C1012 1.350 . S
C1016 C1013 1.463 . S
C1016 N1020 1.427 . S
C1017 H1007 0.929 . S
C1017 C1015 1.433 . S
C1017 N1020 1.384 . S
C1018 H1009 0.929 . S
C1018 C1010 1.378 . S
C1018 C1013 1.350 . S
C1019 H1006 0.929 . S
C1019 C1011 1.433 . S
C1019 N1021 1.384 . S
N1020 C1016 1.427 . S
N1020 C1017 1.384 . S
N1021 C1013 1.427 . S
N1021 C1019 1.384 . S
H1022 C1028 0.930 . S
H1023 C1032 0.930 . S
H1024 C1037 0.929 . S
H1025 C1035 0.929 . S
H1026 C1030 0.929 . S
H1027 C1036 0.929 . S
C1028 H1022 0.930 . S
C1028 C1029 1.367 . S
C1028 C1036 1.378 . S
C1029 C1028 1.367 . S
C1029 C1037 1.433 . S
C1030 H1026 0.929 . S
C1030 C1032 1.378 . S
C1030 C1034 1.350 . S
C1031 C1034 1.463 . S
C1031 C1036 1.350 . S
C1031 N1039 1.427 . S
C1032 H1023 0.930 . S
C1032 C1030 1.378 . S
C1032 C1033 1.367 . S
C1033 C1032 1.367 . S
C1033 C1035 1.433 . S
C1034 C1030 1.350 . S
C1034 C1031 1.463 . S
C1034 N1038 1.427 . S
C1035 H1025 0.929 . S
C1035 C1033 1.433 . S
C1035 N1038 1.384 . S
C1036 H1027 0.929 . S
C1036 C1028 1.378 . S
C1036 C1031 1.350 . S
C1037 H1024 0.929 . S
C1037 C1029 1.433 . S
C1037 N1039 1.384 . S
N1038 C1034 1.427 . S
N1038 C1035 1.384 . S
N1039 C1031 1.427 . S
N1039 C1037 1.384 . S
H1040 C1046 0.930 . S
H1041 C1050 0.930 . S
H1042 C1055 0.929 . S
H1043 C1053 0.929 . S
H1044 C1048 0.929 . S
H1045 C1054 0.929 . S
C1046 H1040 0.930 . S
C1046 C1047 1.367 . S
C1046 C1054 1.378 . S
C1047 C1046 1.367 . S
C1047 C1055 1.433 . S
C1048 H1044 0.929 . S
C1048 C1050 1.378 . S
C1048 C1052 1.350 . S
C1049 C1052 1.463 1_556 S
C1049 C1054 1.350 . S
C1049 N1057 1.422 1_556 S
C1050 H1041 0.930 . S
C1050 C1048 1.378 . S
C1050 C1051 1.367 . S
C1051 C1050 1.367 . S
C1051 C1053 1.433 . S
C1052 C1048 1.350 . S
C1052 C1049 1.463 1_554 S
C1052 N1056 1.427 . S
C1053 H1043 0.929 . S
C1053 C1051 1.433 . S
C1053 N1056 1.384 . S
C1054 H1045 0.929 . S
C1054 C1046 1.378 . S
C1054 C1049 1.350 . S
C1055 H1042 0.929 . S
C1055 C1047 1.433 . S
C1055 N1057 1.366 1_556 S
N1056 C1052 1.427 . S
N1056 C1053 1.384 . S
N1057 C1049 1.422 1_554 S
N1057 C1055 1.366 1_554 S
H1058 C1064 0.930 . S
H1059 C1068 0.930 . S
H1060 C1073 0.929 . S
H1061 C1071 0.929 . S
H1062 C1066 0.925 1_556 S
H1063 C1072 0.929 1_554 S
C1064 H1058 0.930 . S
C1064 C1065 1.367 . S
C1064 C1072 1.378 . S
C1065 C1064 1.367 . S
C1065 C1073 1.433 . S
C1066 H1062 0.925 1_554 S
C1066 C1068 1.378 . S
C1066 C1070 1.350 . S
C1067 C1070 1.463 1_556 S
C1067 C1072 1.350 . S
C1067 N1075 1.427 . S
C1068 H1059 0.930 . S
C1068 C1066 1.378 . S
C1068 C1069 1.367 . S
C1069 C1068 1.367 . S
C1069 C1071 1.433 . S
C1070 C1066 1.350 . S
C1070 C1067 1.463 1_554 S
C1070 N1074 1.427 . S
C1071 H1061 0.929 . S
C1071 C1069 1.433 . S
C1071 N1074 1.384 . S
C1072 H1063 0.929 1_556 S
C1072 C1064 1.378 . S
C1072 C1067 1.350 . S
C1073 H1060 0.929 . S
C1073 C1065 1.433 . S
C1073 N1075 1.384 . S
N1074 C1070 1.427 . S
N1074 C1071 1.384 . S
N1075 C1067 1.427 . S
N1075 C1073 1.384 . S
H1076 C1082 0.930 . S
H1077 C1086 0.930 . S
H1078 C1091 0.929 . S
H1079 C1089 0.929 . S
H1080 C1084 0.929 . S
H1081 C1090 0.929 . S
C1082 H1076 0.930 . S
C1082 C1083 1.367 . S
C1082 C1090 1.378 . S
C1083 C1082 1.367 . S
C1083 C1091 1.433 . S
C1084 H1080 0.929 . S
C1084 C1086 1.378 . S
C1084 C1088 1.350 . S
C1085 C1088 1.463 1_556 S
C1085 C1090 1.350 . S
C1085 N1093 1.427 . S
C1086 H1077 0.930 . S
C1086 C1084 1.378 . S
C1086 C1087 1.367 . S
C1087 C1086 1.367 . S
C1087 C1089 1.433 . S
C1088 C1084 1.350 . S
C1088 C1085 1.463 1_554 S
C1088 N1092 1.427 . S
C1089 H1079 0.929 . S
C1089 C1087 1.433 . S
C1089 N1092 1.384 . S
C1090 H1081 0.929 . S
C1090 C1082 1.378 . S
C1090 C1085 1.350 . S
C1091 H1078 0.929 . S
C1091 C1083 1.433 . S
C1091 N1093 1.384 . S
N1092 C1088 1.427 . S
N1092 C1089 1.384 . S
N1093 C1085 1.427 . S
N1093 C1091 1.384 . S
H1094 C1100 0.930 . S
H1095 C1104 0.930 . S
H1096 C1109 0.929 . S
H1097 C1107 0.929 . S
H1098 C1102 0.929 . S
H1099 C1108 0.929 . S
C1100 H1094 0.930 . S
C1100 C1101 1.367 . S
C1100 C1108 1.378 . S
C1101 C1100 1.367 . S
C1101 C1109 1.433 . S
C1102 H1098 0.929 . S
C1102 C1104 1.378 . S
C1102 C1106 1.350 . S
C1103 C1106 1.463 1_554 S
C1103 C1108 1.350 . S
C1103 N1111 1.427 . S
C1104 H1095 0.930 . S
C1104 C1102 1.378 . S
C1104 C1105 1.367 . S
C1105 C1104 1.367 . S
C1105 C1107 1.433 . S
C1106 C1102 1.350 . S
C1106 C1103 1.463 1_556 S
C1106 N1110 1.427 . S
C1107 H1097 0.929 . S
C1107 C1105 1.433 . S
C1107 N1110 1.384 . S
C1108 H1099 0.929 . S
C1108 C1100 1.378 . S
C1108 C1103 1.350 . S
C1109 H1096 0.929 . S
C1109 C1101 1.433 . S
C1109 N1111 1.384 . S
N1110 C1106 1.427 . S
N1110 C1107 1.384 . S
N1111 C1103 1.427 . S
N1111 C1109 1.384 . S
H1112 C1118 0.930 . S
H1113 C1122 0.930 . S
H1114 C1127 0.929 . S
H1115 C1125 0.929 . S
H1116 C1120 0.929 . S
H1117 C1126 0.929 . S
C1118 H1112 0.930 . S
C1118 C1119 1.367 . S
C1118 C1126 1.378 . S
C1119 C1118 1.367 . S
C1119 C1127 1.433 . S
C1120 H1116 0.929 . S
C1120 C1122 1.378 . S
C1120 C1124 1.350 . S
C1121 C1124 1.463 . S
C1121 C1126 1.350 . S
C1121 N1129 1.427 . S
C1122 H1113 0.930 . S
C1122 C1120 1.378 . S
C1122 C1123 1.367 . S
C1123 C1122 1.367 . S
C1123 C1125 1.433 . S
C1124 C1120 1.350 . S
C1124 C1121 1.463 . S
C1124 N1128 1.427 . S
C1125 H1115 0.929 . S
C1125 C1123 1.433 . S
C1125 N1128 1.384 . S
C1126 H1117 0.929 . S
C1126 C1118 1.378 . S
C1126 C1121 1.350 . S
C1127 H1114 0.929 . S
C1127 C1119 1.433 . S
C1127 N1129 1.384 . S
N1128 C1124 1.427 . S
N1128 C1125 1.384 . S
N1129 C1121 1.427 . S
N1129 C1127 1.384 . S
H1130 C1136 0.930 . S
H1131 C1140 0.930 . S
H1132 C1145 0.929 . S
H1133 C1143 0.929 . S
H1134 C1138 0.929 . S
H1135 C1144 0.929 . S
C1136 H1130 0.930 . S
C1136 C1137 1.367 . S
C1136 C1144 1.378 . S
C1137 C1136 1.367 . S
C1137 C1145 1.433 . S
C1138 H1134 0.929 . S
C1138 C1140 1.378 . S
C1138 C1142 1.350 . S
C1139 C1142 1.463 . S
C1139 C1144 1.350 . S
C1139 N1147 1.427 . S
C1140 H1131 0.930 . S
C1140 C1138 1.378 . S
C1140 C1141 1.367 . S
C1141 C1140 1.367 . S
C1141 C1143 1.433 . S
C1142 C1138 1.350 . S
C1142 C1139 1.463 . S
C1142 N1146 1.427 . S
C1143 H1133 0.929 . S
C1143 C1141 1.433 . S
C1143 N1146 1.384 . S
C1144 H1135 0.929 . S
C1144 C1136 1.378 . S
C1144 C1139 1.350 . S
C1145 H1132 0.929 . S
C1145 C1137 1.433 . S
C1145 N1147 1.384 . S
N1146 C1142 1.427 . S
N1146 C1143 1.384 . S
N1147 C1139 1.427 . S
N1147 C1145 1.384 . S
H1148 C1154 0.930 . S
H1149 C1158 0.930 . S
H1150 C1163 0.929 . S
H1151 C1161 0.929 . S
H1152 C1156 0.929 . S
H1153 C1162 0.929 . S
C1154 H1148 0.930 . S
C1154 C1155 1.367 . S
C1154 C1162 1.378 . S
C1155 C1154 1.367 . S
C1155 C1163 1.433 . S
C1156 H1152 0.929 . S
C1156 C1158 1.378 . S
C1156 C1160 1.350 . S
C1157 C1160 1.463 . S
C1157 C1162 1.350 . S
C1157 N1165 1.427 . S
C1158 H1149 0.930 . S
C1158 C1156 1.378 . S
C1158 C1159 1.367 . S
C1159 C1158 1.367 . S
C1159 C1161 1.433 . S
C1160 C1156 1.350 . S
C1160 C1157 1.463 . S
C1160 N1164 1.427 . S
C1161 H1151 0.929 . S
C1161 C1159 1.433 . S
C1161 N1164 1.384 . S
C1162 H1153 0.929 . S
C1162 C1154 1.378 . S
C1162 C1157 1.350 . S
C1163 H1150 0.929 . S
C1163 C1155 1.433 . S
C1163 N1165 1.384 . S
N1164 C1160 1.427 . S
N1164 C1161 1.384 . S
N1165 C1157 1.427 . S
N1165 C1163 1.384 . S
H1166 C1172 0.930 . S
H1167 C1176 0.930 . S
H1168 C1181 0.929 . S
H1169 C1179 0.929 . S
H1170 C1174 0.929 . S
H1171 C1180 0.929 . S
C1172 H1166 0.930 . S
C1172 C1173 1.367 . S
C1172 C1180 1.378 . S
C1173 C1172 1.367 . S
C1173 C1181 1.433 . S
C1174 H1170 0.929 . S
C1174 C1176 1.378 . S
C1174 C1178 1.350 . S
C1175 C1178 1.463 . S
C1175 C1180 1.350 . S
C1175 N1183 1.427 . S
C1176 H1167 0.930 . S
C1176 C1174 1.378 . S
C1176 C1177 1.367 . S
C1177 C1176 1.367 . S
C1177 C1179 1.433 . S
C1178 C1174 1.350 . S
C1178 C1175 1.463 . S
C1178 N1182 1.427 . S
C1179 H1169 0.929 . S
C1179 C1177 1.433 . S
C1179 N1182 1.384 . S
C1180 H1171 0.929 . S
C1180 C1172 1.378 . S
C1180 C1175 1.350 . S
C1181 H1168 0.929 . S
C1181 C1173 1.433 . S
C1181 N1183 1.384 . S
N1182 C1178 1.427 . S
N1182 C1179 1.384 . S
N1183 C1175 1.427 . S
N1183 C1181 1.384 . S
H1184 C1190 0.930 . S
H1185 C1194 0.930 . S
H1186 C1199 0.929 . S
H1187 C1197 0.929 . S
H1188 C1192 0.929 . S
H1189 C1198 0.929 . S
C1190 H1184 0.930 . S
C1190 C1191 1.367 . S
C1190 C1198 1.378 . S
C1191 C1190 1.367 . S
C1191 C1199 1.433 . S
C1192 H1188 0.929 . S
C1192 C1194 1.378 . S
C1192 C1196 1.350 . S
C1193 C1196 1.463 . S
C1193 C1198 1.350 . S
C1193 N1201 1.427 . S
C1194 H1185 0.930 . S
C1194 C1192 1.378 . S
C1194 C1195 1.367 . S
C1195 C1194 1.367 . S
C1195 C1197 1.433 . S
C1196 C1192 1.350 . S
C1196 C1193 1.463 . S
C1196 N1200 1.427 . S
C1197 H1187 0.929 . S
C1197 C1195 1.433 . S
C1197 N1200 1.384 . S
C1198 H1189 0.929 . S
C1198 C1190 1.378 . S
C1198 C1193 1.350 . S
C1199 H1186 0.929 . S
C1199 C1191 1.433 . S
C1199 N1201 1.384 . S
N1200 C1196 1.427 . S
N1200 C1197 1.384 . S
N1201 C1193 1.427 . S
N1201 C1199 1.384 . S
H1202 C1208 0.930 . S
H1203 C1212 0.930 . S
H1204 C1217 0.929 . S
H1205 C1215 0.929 . S
H1206 C1210 0.929 . S
H1207 C1216 0.929 . S
C1208 H1202 0.930 . S
C1208 C1209 1.367 . S
C1208 C1216 1.378 . S
C1209 C1208 1.367 . S
C1209 C1217 1.433 . S
C1210 H1206 0.929 . S
C1210 C1212 1.378 . S
C1210 C1214 1.350 . S
C1211 C1214 1.463 . S
C1211 C1216 1.350 . S
C1211 N1219 1.427 . S
C1212 H1203 0.930 . S
C1212 C1210 1.378 . S
C1212 C1213 1.367 . S
C1213 C1212 1.367 . S
C1213 C1215 1.433 . S
C1214 C1210 1.350 . S
C1214 C1211 1.463 . S
C1214 N1218 1.427 . S
C1215 H1205 0.929 . S
C1215 C1213 1.433 . S
C1215 N1218 1.384 . S
C1216 H1207 0.929 . S
C1216 C1208 1.378 . S
C1216 C1211 1.350 . S
C1217 H1204 0.929 . S
C1217 C1209 1.433 . S
C1217 N1219 1.384 . S
N1218 C1214 1.427 . S
N1218 C1215 1.384 . S
N1219 C1211 1.427 . S
N1219 C1217 1.384 . S
H1220 C1226 0.930 . S
H1221 C1230 0.930 . S
H1222 C1235 0.929 . S
H1223 C1233 0.929 . S
H1224 C1228 0.929 . S
H1225 C1234 0.929 . S
C1226 H1220 0.930 . S
C1226 C1227 1.367 . S
C1226 C1234 1.378 . S
C1227 C1226 1.367 . S
C1227 C1235 1.433 . S
C1228 H1224 0.929 . S
C1228 C1230 1.378 . S
C1228 C1232 1.350 . S
C1229 C1232 1.463 . S
C1229 C1234 1.350 . S
C1229 N1237 1.427 . S
C1230 H1221 0.930 . S
C1230 C1228 1.378 . S
C1230 C1231 1.367 . S
C1231 C1230 1.367 . S
C1231 C1233 1.433 . S
C1232 C1228 1.350 . S
C1232 C1229 1.463 . S
C1232 N1236 1.427 . S
C1233 H1223 0.929 . S
C1233 C1231 1.433 . S
C1233 N1236 1.384 . S
C1234 H1225 0.929 . S
C1234 C1226 1.378 . S
C1234 C1229 1.350 . S
C1235 H1222 0.929 . S
C1235 C1227 1.433 . S
C1235 N1237 1.384 . S
N1236 C1232 1.427 . S
N1236 C1233 1.384 . S
N1237 C1229 1.427 . S
N1237 C1235 1.384 . S
H1238 C1244 0.930 . S
H1239 C1248 0.930 . S
H1240 C1253 0.929 . S
H1241 C1251 0.929 . S
H1242 C1246 0.929 . S
H1243 C1252 0.929 . S
C1244 H1238 0.930 . S
C1244 C1245 1.367 . S
C1244 C1252 1.378 . S
C1245 C1244 1.367 . S
C1245 C1253 1.433 . S
C1246 H1242 0.929 . S
C1246 C1248 1.378 . S
C1246 C1250 1.350 . S
C1247 C1250 1.463 . S
C1247 C1252 1.350 . S
C1247 N1255 1.427 . S
C1248 H1239 0.930 . S
C1248 C1246 1.378 . S
C1248 C1249 1.367 . S
C1249 C1248 1.367 . S
C1249 C1251 1.433 . S
C1250 C1246 1.350 . S
C1250 C1247 1.463 . S
C1250 N1254 1.427 . S
C1251 H1241 0.929 . S
C1251 C1249 1.433 . S
C1251 N1254 1.384 . S
C1252 H1243 0.929 . S
C1252 C1244 1.378 . S
C1252 C1247 1.350 . S
C1253 H1240 0.929 . S
C1253 C1245 1.433 . S
C1253 N1255 1.384 . S
N1254 C1250 1.427 . S
N1254 C1251 1.384 . S
N1255 C1247 1.427 . S
N1255 C1253 1.384 . S
H1256 C1262 0.930 . S
H1257 C1266 0.930 . S
H1258 C1271 0.929 . S
H1259 C1269 0.929 . S
H1260 C1264 0.929 . S
H1261 C1270 0.929 . S
C1262 H1256 0.930 . S
C1262 C1263 1.367 . S
C1262 C1270 1.378 . S
C1263 C1262 1.367 . S
C1263 C1271 1.433 . S
C1264 H1260 0.929 . S
C1264 C1266 1.378 . S
C1264 C1268 1.350 . S
C1265 C1268 1.463 . S
C1265 C1270 1.350 . S
C1265 N1273 1.427 . S
C1266 H1257 0.930 . S
C1266 C1264 1.378 . S
C1266 C1267 1.367 . S
C1267 C1266 1.367 . S
C1267 C1269 1.433 . S
C1268 C1264 1.350 . S
C1268 C1265 1.463 . S
C1268 N1272 1.427 . S
C1269 H1259 0.929 . S
C1269 C1267 1.433 . S
C1269 N1272 1.384 . S
C1270 H1261 0.929 . S
C1270 C1262 1.378 . S
C1270 C1265 1.350 . S
C1271 H1258 0.929 . S
C1271 C1263 1.433 . S
C1271 N1273 1.384 . S
N1272 C1268 1.427 . S
N1272 C1269 1.384 . S
N1273 C1265 1.427 . S
N1273 C1271 1.384 . S
H1274 C1280 0.930 . S
H1275 C1284 0.930 . S
H1276 C1289 0.929 . S
H1277 C1287 0.929 . S
H1278 C1282 0.929 . S
H1279 C1288 0.929 . S
C1280 H1274 0.930 . S
C1280 C1281 1.367 . S
C1280 C1288 1.378 . S
C1281 C1280 1.367 . S
C1281 C1289 1.433 . S
C1282 H1278 0.929 . S
C1282 C1284 1.378 . S
C1282 C1286 1.350 . S
C1283 C1286 1.463 . S
C1283 C1288 1.350 . S
C1283 N1291 1.427 . S
C1284 H1275 0.930 . S
C1284 C1282 1.378 . S
C1284 C1285 1.367 . S
C1285 C1284 1.367 . S
C1285 C1287 1.433 . S
C1286 C1282 1.350 . S
C1286 C1283 1.463 . S
C1286 N1290 1.427 . S
C1287 H1277 0.929 . S
C1287 C1285 1.433 . S
C1287 N1290 1.384 . S
C1288 H1279 0.929 . S
C1288 C1280 1.378 . S
C1288 C1283 1.350 . S
C1289 H1276 0.929 . S
C1289 C1281 1.433 . S
C1289 N1291 1.384 . S
N1290 C1286 1.427 . S
N1290 C1287 1.384 . S
N1291 C1283 1.427 . S
N1291 C1289 1.384 . S
H1292 C1298 0.930 . S
H1293 C1302 0.930 . S
H1294 C1307 0.929 . S
H1295 C1305 0.929 . S
H1296 C1300 0.929 . S
H1297 C1306 0.929 . S
C1298 H1292 0.930 . S
C1298 C1299 1.367 . S
C1298 C1306 1.378 . S
C1299 C1298 1.367 . S
C1299 C1307 1.433 . S
C1300 H1296 0.929 . S
C1300 C1302 1.378 . S
C1300 C1304 1.350 . S
C1301 C1304 1.463 . S
C1301 C1306 1.350 . S
C1301 N1309 1.427 . S
C1302 H1293 0.930 . S
C1302 C1300 1.378 . S
C1302 C1303 1.367 . S
C1303 C1302 1.367 . S
C1303 C1305 1.433 . S
C1304 C1300 1.350 . S
C1304 C1301 1.463 . S
C1304 N1308 1.427 . S
C1305 H1295 0.929 . S
C1305 C1303 1.433 . S
C1305 N1308 1.384 . S
C1306 H1297 0.929 . S
C1306 C1298 1.378 . S
C1306 C1301 1.350 . S
C1307 H1294 0.929 . S
C1307 C1299 1.433 . S
C1307 N1309 1.384 . S
N1308 C1304 1.427 . S
N1308 C1305 1.384 . S
N1309 C1301 1.427 . S
N1309 C1307 1.384 . S
H1310 C1316 0.930 . S
H1311 C1320 0.930 . S
H1312 C1325 0.929 . S
H1313 C1323 0.929 . S
H1314 C1318 0.929 . S
H1315 C1324 0.929 . S
C1316 H1310 0.930 . S
C1316 C1317 1.367 . S
C1316 C1324 1.378 . S
C1317 C1316 1.367 . S
C1317 C1325 1.433 . S
C1318 H1314 0.929 . S
C1318 C1320 1.378 . S
C1318 C1322 1.350 . S
C1319 C1322 1.463 . S
C1319 C1324 1.350 . S
C1319 N1327 1.427 . S
C1320 H1311 0.930 . S
C1320 C1318 1.378 . S
C1320 C1321 1.367 . S
C1321 C1320 1.367 . S
C1321 C1323 1.433 . S
C1322 C1318 1.350 . S
C1322 C1319 1.463 . S
C1322 N1326 1.427 . S
C1323 H1313 0.929 . S
C1323 C1321 1.433 . S
C1323 N1326 1.384 . S
C1324 H1315 0.929 . S
C1324 C1316 1.378 . S
C1324 C1319 1.350 . S
C1325 H1312 0.929 . S
C1325 C1317 1.433 . S
C1325 N1327 1.384 . S
N1326 C1322 1.427 . S
N1326 C1323 1.384 . S
N1327 C1319 1.427 . S
N1327 C1325 1.384 . S
H1328 C1334 0.930 . S
H1329 C1338 0.930 . S
H1330 C1343 0.929 . S
H1331 C1341 0.929 . S
H1332 C1336 0.929 . S
H1333 C1342 0.929 . S
C1334 H1328 0.930 . S
C1334 C1335 1.367 . S
C1334 C1342 1.378 . S
C1335 C1334 1.367 . S
C1335 C1343 1.433 . S
C1336 H1332 0.929 . S
C1336 C1338 1.378 . S
C1336 C1340 1.350 . S
C1337 C1340 1.463 . S
C1337 C1342 1.350 . S
C1337 N1345 1.427 . S
C1338 H1329 0.930 . S
C1338 C1336 1.378 . S
C1338 C1339 1.367 . S
C1339 C1338 1.367 . S
C1339 C1341 1.433 . S
C1340 C1336 1.350 . S
C1340 C1337 1.463 . S
C1340 N1344 1.427 . S
C1341 H1331 0.929 . S
C1341 C1339 1.433 . S
C1341 N1344 1.384 . S
C1342 H1333 0.929 . S
C1342 C1334 1.378 . S
C1342 C1337 1.350 . S
C1343 H1330 0.929 . S
C1343 C1335 1.433 . S
C1343 N1345 1.384 . S
N1344 C1340 1.427 . S
N1344 C1341 1.384 . S
N1345 C1337 1.427 . S
N1345 C1343 1.384 . S
H1346 C1352 0.930 . S
H1347 C1356 0.930 . S
H1348 C1361 0.929 . S
H1349 C1359 0.929 . S
H1350 C1354 0.929 . S
H1351 C1360 0.929 . S
C1352 H1346 0.930 . S
C1352 C1353 1.367 . S
C1352 C1360 1.378 . S
C1353 C1352 1.367 . S
C1353 C1361 1.433 . S
C1354 H1350 0.929 . S
C1354 C1356 1.378 . S
C1354 C1358 1.350 . S
C1355 C1358 1.463 . S
C1355 C1360 1.350 . S
C1355 N1363 1.427 . S
C1356 H1347 0.930 . S
C1356 C1354 1.378 . S
C1356 C1357 1.367 . S
C1357 C1356 1.367 . S
C1357 C1359 1.433 . S
C1358 C1354 1.350 . S
C1358 C1355 1.463 . S
C1358 N1362 1.427 . S
C1359 H1349 0.929 . S
C1359 C1357 1.433 . S
C1359 N1362 1.384 . S
C1360 H1351 0.929 . S
C1360 C1352 1.378 . S
C1360 C1355 1.350 . S
C1361 H1348 0.929 . S
C1361 C1353 1.433 . S
C1361 N1363 1.384 . S
N1362 C1358 1.427 . S
N1362 C1359 1.384 . S
N1363 C1355 1.427 . S
N1363 C1361 1.384 . S
H1364 C1370 0.930 . S
H1365 C1374 0.930 . S
H1366 C1379 0.929 . S
H1367 C1377 0.929 . S
H1368 C1372 0.929 . S
H1369 C1378 0.929 . S
C1370 H1364 0.930 . S
C1370 C1371 1.367 . S
C1370 C1378 1.378 . S
C1371 C1370 1.367 . S
C1371 C1379 1.433 . S
C1372 H1368 0.929 . S
C1372 C1374 1.378 . S
C1372 C1376 1.350 . S
C1373 C1376 1.463 . S
C1373 C1378 1.350 . S
C1373 N1381 1.427 . S
C1374 H1365 0.930 . S
C1374 C1372 1.378 . S
C1374 C1375 1.367 . S
C1375 C1374 1.367 . S
C1375 C1377 1.433 . S
C1376 C1372 1.350 . S
C1376 C1373 1.463 . S
C1376 N1380 1.427 . S
C1377 H1367 0.929 . S
C1377 C1375 1.433 . S
C1377 N1380 1.384 . S
C1378 H1369 0.929 . S
C1378 C1370 1.378 . S
C1378 C1373 1.350 . S
C1379 H1366 0.929 . S
C1379 C1371 1.433 . S
C1379 N1381 1.384 . S
N1380 C1376 1.427 . S
N1380 C1377 1.384 . S
N1381 C1373 1.427 . S
N1381 C1379 1.384 . S
H1382 C1388 0.930 . S
H1383 C1392 0.930 . S
H1384 C1397 0.929 . S
H1385 C1395 0.929 . S
H1386 C1390 0.929 . S
H1387 C1396 0.929 . S
C1388 H1382 0.930 . S
C1388 C1389 1.367 . S
C1388 C1396 1.378 . S
C1389 C1388 1.367 . S
C1389 C1397 1.433 . S
C1390 H1386 0.929 . S
C1390 C1392 1.378 . S
C1390 C1394 1.350 . S
C1391 C1394 1.463 . S
C1391 C1396 1.350 . S
C1391 N1399 1.427 . S
C1392 H1383 0.930 . S
C1392 C1390 1.378 . S
C1392 C1393 1.367 . S
C1393 C1392 1.367 . S
C1393 C1395 1.433 . S
C1394 C1390 1.350 . S
C1394 C1391 1.463 . S
C1394 N1398 1.427 . S
C1395 H1385 0.929 . S
C1395 C1393 1.433 . S
C1395 N1398 1.384 . S
C1396 H1387 0.929 . S
C1396 C1388 1.378 . S
C1396 C1391 1.350 . S
C1397 H1384 0.929 . S
C1397 C1389 1.433 . S
C1397 N1399 1.384 . S
N1398 C1394 1.427 . S
N1398 C1395 1.384 . S
N1399 C1391 1.427 . S
N1399 C1397 1.384 . S
H1400 C1406 0.930 . S
H1401 C1410 0.930 . S
H1402 C1415 0.929 . S
H1403 C1413 0.929 . S
H1404 C1408 0.929 . S
H1405 C1414 0.929 . S
C1406 H1400 0.930 . S
C1406 C1407 1.367 . S
C1406 C1414 1.378 . S
C1407 C1406 1.367 . S
C1407 C1415 1.433 . S
C1408 H1404 0.929 . S
C1408 C1410 1.378 . S
C1408 C1412 1.350 . S
C1409 C1412 1.463 . S
C1409 C1414 1.350 . S
C1409 N1417 1.427 . S
C1410 H1401 0.930 . S
C1410 C1408 1.378 . S
C1410 C1411 1.367 . S
C1411 C1410 1.367 . S
C1411 C1413 1.433 . S
C1412 C1408 1.350 . S
C1412 C1409 1.463 . S
C1412 N1416 1.427 . S
C1413 H1403 0.929 . S
C1413 C1411 1.433 . S
C1413 N1416 1.384 . S
C1414 H1405 0.929 . S
C1414 C1406 1.378 . S
C1414 C1409 1.350 . S
C1415 H1402 0.929 . S
C1415 C1407 1.433 . S
C1415 N1417 1.384 . S
N1416 C1412 1.427 . S
N1416 C1413 1.384 . S
N1417 C1409 1.427 . S
N1417 C1415 1.384 . S
H1418 C1424 0.930 . S
H1419 C1428 0.930 . S
H1420 C1433 0.929 . S
H1421 C1431 0.929 . S
H1422 C1426 0.929 . S
H1423 C1432 0.929 . S
C1424 H1418 0.930 . S
C1424 C1425 1.367 . S
C1424 C1432 1.378 . S
C1425 C1424 1.367 . S
C1425 C1433 1.433 . S
C1426 H1422 0.929 . S
C1426 C1428 1.378 . S
C1426 C1430 1.350 . S
C1427 C1430 1.463 . S
C1427 C1432 1.350 . S
C1427 N1435 1.427 . S
C1428 H1419 0.930 . S
C1428 C1426 1.378 . S
C1428 C1429 1.367 . S
C1429 C1428 1.367 . S
C1429 C1431 1.433 . S
C1430 C1426 1.350 . S
C1430 C1427 1.463 . S
C1430 N1434 1.427 . S
C1431 H1421 0.929 . S
C1431 C1429 1.433 . S
C1431 N1434 1.384 . S
C1432 H1423 0.929 . S
C1432 C1424 1.378 . S
C1432 C1427 1.350 . S
C1433 H1420 0.929 . S
C1433 C1425 1.433 . S
C1433 N1435 1.384 . S
N1434 C1430 1.427 . S
N1434 C1431 1.384 . S
N1435 C1427 1.427 . S
N1435 C1433 1.384 . S
H1436 C1442 0.930 . S
H1437 C1446 0.930 . S
H1438 C1451 0.929 . S
H1439 C1449 0.929 . S
H1440 C1444 0.929 . S
H1441 C1450 0.929 . S
C1442 H1436 0.930 . S
C1442 C1443 1.367 . S
C1442 C1450 1.378 . S
C1443 C1442 1.367 . S
C1443 C1451 1.433 . S
C1444 H1440 0.929 . S
C1444 C1446 1.378 . S
C1444 C1448 1.350 . S
C1445 C1448 1.463 . S
C1445 C1450 1.350 . S
C1445 N1453 1.427 . S
C1446 H1437 0.930 . S
C1446 C1444 1.378 . S
C1446 C1447 1.367 . S
C1447 C1446 1.367 . S
C1447 C1449 1.433 . S
C1448 C1444 1.350 . S
C1448 C1445 1.463 . S
C1448 N1452 1.427 . S
C1449 H1439 0.929 . S
C1449 C1447 1.433 . S
C1449 N1452 1.384 . S
C1450 H1441 0.929 . S
C1450 C1442 1.378 . S
C1450 C1445 1.350 . S
C1451 H1438 0.929 . S
C1451 C1443 1.433 . S
C1451 N1453 1.384 . S
N1452 C1448 1.427 . S
N1452 C1449 1.384 . S
N1453 C1445 1.427 . S
N1453 C1451 1.384 . S
H1454 C1460 0.930 . S
H1455 C1464 0.930 . S
H1456 C1469 0.929 . S
H1457 C1467 0.929 . S
H1458 C1462 0.929 . S
H1459 C1468 0.929 . S
C1460 H1454 0.930 . S
C1460 C1461 1.367 . S
C1460 C1468 1.378 . S
C1461 C1460 1.367 . S
C1461 C1469 1.433 . S
C1462 H1458 0.929 . S
C1462 C1464 1.378 . S
C1462 C1466 1.350 . S
C1463 C1466 1.463 . S
C1463 C1468 1.350 . S
C1463 N1471 1.427 . S
C1464 H1455 0.930 . S
C1464 C1462 1.378 . S
C1464 C1465 1.367 . S
C1465 C1464 1.367 . S
C1465 C1467 1.433 . S
C1466 C1462 1.350 . S
C1466 C1463 1.463 . S
C1466 N1470 1.427 . S
C1467 H1457 0.929 . S
C1467 C1465 1.433 . S
C1467 N1470 1.384 . S
C1468 H1459 0.929 . S
C1468 C1460 1.378 . S
C1468 C1463 1.350 . S
C1469 H1456 0.929 . S
C1469 C1461 1.433 . S
C1469 N1471 1.384 . S
N1470 C1466 1.427 . S
N1470 C1467 1.384 . S
N1471 C1463 1.427 . S
N1471 C1469 1.384 . S
C471 C245 1.734 . S
C475 C13 1.734 . S
C489 C42 1.733 . S
C493 C274 1.733 . S
C507 C303 1.734 . S
C511 C71 1.734 . S
C525 C100 1.721 . S
C529 C332 1.721 . S
C543 C129 1.729 . S
C547 C361 1.729 . S
C561 C158 1.734 . S
C565 C390 1.734 . S
C579 C419 1.725 . S
C583 C187 1.725 . S
C597 C448 1.719 . S
C601 C216 1.719 . S
C615 C15 2.887 . S
C619 C37 2.473 . S
C633 C66 2.474 . S
C637 C44 2.887 . S
C651 C95 2.474 1_655 S
C655 C73 2.887 . S
C669 C8 2.458 1_565 S
C673 C102 2.890 . S
C687 C211 2.473 1_455 S
C691 C131 2.887 . S
C705 C124 2.469 1_545 S
C709 C160 2.889 . S
C723 C189 2.887 . S
C727 C153 2.474 . S
C741 C218 2.890 . S
C745 C182 2.458 . S
C759 C269 2.473 . S
C763 C247 2.887 . S
C777 C276 2.890 . S
C781 C298 2.458 . S
C795 C327 2.463 1_455 S
C799 C305 2.890 . S
C813 C240 2.465 1_545 S
C817 C334 2.890 . S
C831 C443 2.463 1_655 S
C835 C363 2.890 . S
C849 C356 2.458 1_565 S
C853 C392 2.891 . S
C867 C385 2.465 . S
C871 C421 2.890 . S
C885 C414 2.471 . S
C889 C450 2.888 . S
C903 C266 1.023 . S
C907 C3 1.067 . S
C921 C295 1.013 . S
C925 C32 1.064 . S
C939 C324 1.021 . S
C943 C61 1.067 . S
C957 C237 1.008 . S
C961 C90 1.065 . S
C975 C440 1.019 . S
C979 C119 1.067 . S
C993 C353 1.027 . S
C997 C148 1.064 . S
C1011 C177 1.064 . S
C1015 C382 1.032 . S
C1029 C411 1.013 . S
C1033 C206 1.067 . S
C1047 C235 1.067 . S
C1051 C34 1.018 . S
C1065 C264 1.064 . S
C1069 C63 1.019 . S
C1083 C293 1.065 . S
C1087 C92 1.008 . S
C1101 C5 1.023 . S
C1105 C322 1.067 . S
C1119 C351 1.067 . S
C1123 C208 1.009 . S
C1137 C121 1.032 . S
C1141 C380 1.064 . S
C1155 C409 1.067 . S
C1159 C150 1.018 . S
C1173 C438 1.065 . S
C1177 C179 1.008 . S
C1191 C155 1.779 . S
C1195 C10 1.787 . S
C1209 C184 1.787 . S
C1213 C39 1.779 . S
C1227 C213 1.772 . S
C1231 C68 1.783 . S
C1245 C126 1.770 . S
C1249 C97 1.770 . S
C1263 C387 1.772 . S
C1267 C242 1.769 . S
C1281 C271 1.784 . S
C1285 C416 1.773 . S
C1299 C300 1.780 . S
C1303 C445 1.787 . S
C1317 C329 1.772 . S
C1321 C358 1.783 . S
C1335 C79 0.843 . S
C1339 C21 0.841 . S
C1353 C50 0.875 . S
C1357 C108 0.877 . S
C1371 C195 0.875 . S
C1375 C137 0.877 . S
C1389 C224 0.857 . S
C1393 C166 0.861 . S
C1407 C253 0.846 . S
C1411 C311 0.843 . S
C1425 C340 0.856 . S
C1429 C282 0.852 . S
C1443 C427 0.857 . S
C1447 C369 0.862 . S
C1461 C456 0.857 . S
C1465 C398 0.862 . S
