# Generated by pormake.
# Topology wjz, (5)-cn, num edge types: 1
# Building blocks:
#     Node 0, Type 0, BuildingBlock: BEQFEK_clean_sbu_0, # of connection points: 5
#     Node 1, Type 0, BuildingBlock: BEQFEK_clean_sbu_0, # of connection points: 5
#     Node 2, Type 0, BuildingBlock: BEQFEK_clean_sbu_0, # of connection points: 5
#     Node 3, Type 0, BuildingBlock: BEQFEK_clean_sbu_0, # of connection points: 5
#     Node 4, Type 0, BuildingBlock: BEQFEK_clean_sbu_0, # of connection points: 5
#     Node 5, Type 0, BuildingBlock: BEQFEK_clean_sbu_0, # of connection points: 5
#     Node 6, Type 0, BuildingBlock: BEQFEK_clean_sbu_0, # of connection points: 5
#     Node 7, Type 0, BuildingBlock: BEQFEK_clean_sbu_0, # of connection points: 5
#     Node 8, Type 0, BuildingBlock: BEQFEK_clean_sbu_0, # of connection points: 5
#     Node 9, Type 0, BuildingBlock: BEQFEK_clean_sbu_0, # of connection points: 5
#     Node 10, Type 0, BuildingBlock: BEQFEK_clean_sbu_0, # of connection points: 5
#     Node 11, Type 0, BuildingBlock: BEQFEK_clean_sbu_0, # of connection points: 5
#     Edge 12, Type (0, 0), BuildingBlock: AJUNOK_clean_linker_0, # of connection points: 2
#     Edge 13, Type (0, 0), BuildingBlock: AJUNOK_clean_linker_0, # of connection points: 2
#     Edge 14, Type (0, 0), BuildingBlock: AJUNOK_clean_linker_0, # of connection points: 2
#     Edge 15, Type (0, 0), BuildingBlock: AJUNOK_clean_linker_0, # of connection points: 2
#     Edge 16, Type (0, 0), BuildingBlock: AJUNOK_clean_linker_0, # of connection points: 2
#     Edge 17, Type (0, 0), BuildingBlock: AJUNOK_clean_linker_0, # of connection points: 2
#     Edge 18, Type (0, 0), BuildingBlock: AJUNOK_clean_linker_0, # of connection points: 2
#     Edge 19, Type (0, 0), BuildingBlock: AJUNOK_clean_linker_0, # of connection points: 2
#     Edge 20, Type (0, 0), BuildingBlock: AJUNOK_clean_linker_0, # of connection points: 2
#     Edge 21, Type (0, 0), BuildingBlock: AJUNOK_clean_linker_0, # of connection points: 2
#     Edge 22, Type (0, 0), BuildingBlock: AJUNOK_clean_linker_0, # of connection points: 2
#     Edge 23, Type (0, 0), BuildingBlock: AJUNOK_clean_linker_0, # of connection points: 2
#     Edge 24, Type (0, 0), BuildingBlock: AJUNOK_clean_linker_0, # of connection points: 2
#     Edge 25, Type (0, 0), BuildingBlock: AJUNOK_clean_linker_0, # of connection points: 2
#     Edge 26, Type (0, 0), BuildingBlock: AJUNOK_clean_linker_0, # of connection points: 2
#     Edge 27, Type (0, 0), BuildingBlock: AJUNOK_clean_linker_0, # of connection points: 2
#     Edge 28, Type (0, 0), BuildingBlock: AJUNOK_clean_linker_0, # of connection points: 2
#     Edge 29, Type (0, 0), BuildingBlock: AJUNOK_clean_linker_0, # of connection points: 2
#     Edge 30, Type (0, 0), BuildingBlock: AJUNOK_clean_linker_0, # of connection points: 2
#     Edge 31, Type (0, 0), BuildingBlock: AJUNOK_clean_linker_0, # of connection points: 2
#     Edge 32, Type (0, 0), BuildingBlock: AJUNOK_clean_linker_0, # of connection points: 2
#     Edge 33, Type (0, 0), BuildingBlock: AJUNOK_clean_linker_0, # of connection points: 2
#     Edge 34, Type (0, 0), BuildingBlock: AJUNOK_clean_linker_0, # of connection points: 2
#     Edge 35, Type (0, 0), BuildingBlock: AJUNOK_clean_linker_0, # of connection points: 2
#     Edge 36, Type (0, 0), BuildingBlock: AJUNOK_clean_linker_0, # of connection points: 2
#     Edge 37, Type (0, 0), BuildingBlock: AJUNOK_clean_linker_0, # of connection points: 2
#     Edge 38, Type (0, 0), BuildingBlock: AJUNOK_clean_linker_0, # of connection points: 2
#     Edge 39, Type (0, 0), BuildingBlock: AJUNOK_clean_linker_0, # of connection points: 2
#     Edge 40, Type (0, 0), BuildingBlock: AJUNOK_clean_linker_0, # of connection points: 2
#     Edge 41, Type (0, 0), BuildingBlock: AJUNOK_clean_linker_0, # of connection points: 2
# Relax obj value: 0.249
# Max RMSD: 0.210
# Mean RMSD: 0.210
data_MOF--net-wjz--node1-BEQFEK_clean_sbu_0--edge1-AJUNOK_clean_linker_0
_symmetry_space_group_name_H-M    P1
_symmetry_Int_Tables_number       1
_symmetry_cell_setting            triclinic
loop_
_symmetry_equiv_pos_as_xyz
'x, y, z'
_cell_length_a     53.413865
_cell_length_b     53.485169
_cell_length_c     14.604745
_cell_angle_alpha  90.015732
_cell_angle_beta   89.985291
_cell_angle_gamma 120.05833
loop_
_atom_site_label
_atom_site_type_symbol
_atom_site_fract_x
_atom_site_fract_y
_atom_site_fract_z
_atom_type_partial_charge
Co0 Co 0.34667 0.45902 0.02248 0.0
Co1 Co 0.37511 0.48861 0.20646 0.0
C2 C 0.37492 0.43475 0.13588 0.0
O3 O 0.35915 0.43172 0.06683 0.0
O4 O 0.38258 0.45581 0.19079 0.0
C5 C 0.3489 0.44573 0.84774 0.0
O6 O 0.37049 0.44514 0.88851 0.0
C7 C 0.37128 0.47769 0.39855 0.0
C8 C 0.39428 0.52068 0.46367 0.0
C9 C 0.37803 0.49136 0.48211 0.0
N10 N 0.38273 0.49781 0.3326 0.0
N11 N 0.39682 0.52355 0.37169 0.0
C12 C 0.35101 0.44618 0.38194 0.0
H13 H 0.34245 0.44226 0.31109 0.0
H14 H 0.33273 0.43771 0.43119 0.0
H15 H 0.36266 0.43419 0.3934 0.0
C16 C 0.2948 0.45748 0.10978 0.0
N17 N 0.32264 0.46375 0.1088 0.0
N18 N 0.33537 0.47755 0.18469 0.0
C19 C 0.31617 0.48099 0.23552 0.0
C20 C 0.28971 0.46813 0.19053 0.0
C21 C 0.27408 0.44296 0.03268 0.0
H22 H 0.26742 0.4197 0.03227 0.0
H23 H 0.25458 0.44517 0.03963 0.0
H24 H 0.28497 0.45233 0.96653 0.0
O25 O 0.38116 0.49717 0.99665 0.0
O26 O 0.402 0.52115 0.12351 0.0
H27 H 0.30676 0.50208 0.3472 0.0
H28 H 0.32276 0.48122 0.3798 0.0
C29 C 0.3229 0.49599 0.32647 0.0
H30 H 0.34451 0.51571 0.32431 0.0
H31 H 0.40725 0.54302 0.33578 0.0
O32 O 0.33069 0.44827 0.89732 0.0
C33 C 0.40071 0.51968 0.03618 0.0
Co34 Co 0.89399 0.34453 0.18846 0.0
Co35 Co 0.88808 0.37106 0.36993 0.0
C36 C 0.94459 0.37456 0.30689 0.0
O37 O 0.93363 0.35902 0.23612 0.0
O38 O 0.92938 0.38071 0.35925 0.0
C39 C 0.91011 0.3518 0.01538 0.0
O40 O 0.9309 0.37379 0.05962 0.0
C41 C 0.88854 0.363 0.56439 0.0
C42 C 0.8785 0.39485 0.62419 0.0
C43 C 0.88491 0.37347 0.64696 0.0
N44 N 0.8839 0.37702 0.49605 0.0
N45 N 0.87776 0.39599 0.53202 0.0
C46 C 0.89771 0.341 0.55005 0.0
H47 H 0.90757 0.34336 0.48172 0.0
H48 H 0.87844 0.31906 0.55315 0.0
H49 H 0.91313 0.34277 0.60412 0.0
C50 C 0.84546 0.29025 0.27697 0.0
N51 N 0.86506 0.3188 0.27263 0.0
N52 N 0.86109 0.33167 0.34309 0.0
C53 C 0.83779 0.31244 0.39073 0.0
C54 C 0.82758 0.28498 0.35353 0.0
C55 C 0.84439 0.26868 0.20968 0.0
H56 H 0.8657 0.27709 0.1756 0.0
H57 H 0.83811 0.24786 0.24419 0.0
H58 H 0.82803 0.26483 0.1564 0.0
O59 O 0.88821 0.378 0.16197 0.0
O60 O 0.88223 0.39728 0.28806 0.0
H61 H 0.7991 0.30557 0.46061 0.0
H62 H 0.83171 0.32297 0.52808 0.0
C63 C 0.82265 0.32135 0.45876 0.0
H64 H 0.82602 0.34298 0.44056 0.0
H65 H 0.87371 0.41008 0.49385 0.0
O66 O 0.89109 0.33057 0.06183 0.0
C67 C 0.88382 0.39669 0.20107 0.0
Co68 Co 0.55119 0.88981 0.35697 0.0
Co69 Co 0.52094 0.88676 0.5415 0.0
C70 C 0.5747 0.94133 0.47487 0.0
O71 O 0.5781 0.9293 0.40458 0.0
O72 O 0.55352 0.92725 0.529 0.0
C73 C 0.56177 0.90557 0.18299 0.0
O74 O 0.56292 0.92761 0.22656 0.0
C75 C 0.52906 0.89139 0.73589 0.0
C76 C 0.48535 0.87477 0.79352 0.0
C77 C 0.51408 0.88548 0.81698 0.0
N78 N 0.5102 0.88402 0.66653 0.0
N79 N 0.48403 0.87424 0.70111 0.0
C80 C 0.56094 0.90348 0.72469 0.0
H81 H 0.56621 0.89998 0.65412 0.0
H82 H 0.56888 0.89337 0.77451 0.0
H83 H 0.57227 0.92698 0.7393 0.0
C84 C 0.55201 0.83847 0.43871 0.0
N85 N 0.54614 0.86027 0.44075 0.0
N86 N 0.53251 0.85873 0.51756 0.0
C87 C 0.52893 0.83569 0.56611 0.0
C88 C 0.54123 0.8221 0.51825 0.0
C89 C 0.56626 0.83271 0.35986 0.0
H90 H 0.55476 0.83184 0.29559 0.0
H91 H 0.5888 0.85089 0.35332 0.0
H92 H 0.56642 0.81219 0.36896 0.0
O93 O 0.51318 0.88619 0.3307 0.0
O94 O 0.4887 0.88098 0.45792 0.0
H95 H 0.49469 0.82883 0.65823 0.0
H96 H 0.50887 0.80496 0.67791 0.0
C97 C 0.51452 0.82712 0.65793 0.0
H98 H 0.52967 0.84177 0.71048 0.0
H99 H 0.46532 0.86697 0.66188 0.0
O100 O 0.5616 0.88552 0.23049 0.0
C101 C 0.49045 0.88238 0.37074 0.0
Co102 Co 0.66313 0.54688 0.52485 0.0
Co103 Co 0.6351 0.51669 0.70854 0.0
C104 C 0.63494 0.57064 0.64042 0.0
O105 O 0.65085 0.57421 0.57112 0.0
O106 O 0.62733 0.54918 0.69352 0.0
C107 C 0.66243 0.56076 0.34819 0.0
O108 O 0.64164 0.56361 0.3858 0.0
C109 C 0.63778 0.52693 0.90119 0.0
C110 C 0.61853 0.48372 0.96447 0.0
C111 C 0.63266 0.51302 0.98414 0.0
N112 N 0.62751 0.50697 0.83448 0.0
N113 N 0.61555 0.48108 0.87255 0.0
C114 C 0.65601 0.55879 0.88525 0.0
H115 H 0.66652 0.56324 0.81709 0.0
H116 H 0.67288 0.56901 0.93896 0.0
H117 H 0.64209 0.56866 0.88864 0.0
C118 C 0.71483 0.54763 0.60774 0.0
N119 N 0.68713 0.54176 0.6095 0.0
N120 N 0.67494 0.52834 0.68637 0.0
C121 C 0.69453 0.52518 0.73592 0.0
C122 C 0.72045 0.53721 0.68791 0.0
C123 C 0.73465 0.56117 0.52796 0.0
H124 H 0.73585 0.58198 0.51107 0.0
H125 H 0.75664 0.56482 0.54207 0.0
H126 H 0.7255 0.54687 0.46738 0.0
O127 O 0.62855 0.50899 0.498 0.0
O128 O 0.60837 0.48437 0.62458 0.0
H129 H 0.7067 0.50832 0.85308 0.0
H130 H 0.68689 0.52595 0.87904 0.0
C131 C 0.68889 0.51155 0.82891 0.0
H132 H 0.66849 0.49048 0.8279 0.0
H133 H 0.60663 0.46175 0.83584 0.0
O134 O 0.67965 0.55762 0.4007 0.0
C135 C 0.60928 0.48625 0.5373 0.0
Co136 Co 0.11888 0.66271 0.6936 0.0
Co137 Co 0.12177 0.63386 0.88018 0.0
C138 C 0.06655 0.63017 0.80487 0.0
O139 O 0.07825 0.64679 0.73661 0.0
O140 O 0.08119 0.62388 0.85904 0.0
C141 C 0.12729 0.69623 0.4997 0.0
O142 O 0.12991 0.72194 0.49361 0.0
C143 C 0.11597 0.64085 0.07474 0.0
C144 C 0.1365 0.61918 0.14423 0.0
C145 C 0.12437 0.63645 0.16051 0.0
N146 N 0.12341 0.62757 0.01069 0.0
N147 N 0.1352 0.61414 0.05301 0.0
C148 C 0.1018 0.65824 0.05298 0.0
H149 H 0.11588 0.67627 0.00649 0.0
H150 H 0.09706 0.66686 0.11561 0.0
H151 H 0.08113 0.6444 0.0168 0.0
C152 C 0.16742 0.71439 0.78529 0.0
N153 N 0.14619 0.68641 0.78416 0.0
N154 N 0.14881 0.67345 0.85698 0.0
C155 C 0.17256 0.69227 0.90413 0.0
C156 C 0.18479 0.71909 0.86191 0.0
C157 C 0.17259 0.73524 0.70956 0.0
H158 H 0.17851 0.72782 0.64649 0.0
H159 H 0.15232 0.73551 0.69525 0.0
H160 H 0.19021 0.75736 0.72657 0.0
O161 O 0.12555 0.63009 0.66354 0.0
O162 O 0.12921 0.60941 0.79199 0.0
H163 H 0.18237 0.66253 0.97106 0.0
H164 H 0.20729 0.69994 0.99852 0.0
C165 C 0.18443 0.68393 0.98392 0.0
H166 H 0.17183 0.68221 0.04561 0.0
H167 H 0.14364 0.60274 0.01952 0.0
O168 O 0.1241 0.68518 0.57908 0.0
C169 C 0.12951 0.6112 0.70428 0.0
Co170 Co 0.46419 0.11722 0.87482 0.0
Co171 Co 0.49486 0.12016 0.05824 0.0
C172 C 0.44169 0.06517 0.98936 0.0
O173 O 0.43745 0.07722 0.9207 0.0
O174 O 0.46317 0.07954 0.04198 0.0
C175 C 0.45081 0.10131 0.69996 0.0
O176 O 0.44993 0.07904 0.74092 0.0
C177 C 0.48372 0.11288 0.25096 0.0
C178 C 0.52678 0.13294 0.31593 0.0
C179 C 0.49742 0.11964 0.3345 0.0
N180 N 0.50388 0.1219 0.18483 0.0
N181 N 0.52966 0.1336 0.2239 0.0
C182 C 0.45217 0.10189 0.23503 0.0
H183 H 0.44767 0.10365 0.16202 0.0
H184 H 0.44496 0.11437 0.27735 0.0
H185 H 0.43942 0.07911 0.25761 0.0
C186 C 0.46258 0.16785 0.95865 0.0
N187 N 0.46879 0.14627 0.95971 0.0
N188 N 0.48263 0.14785 0.036 0.0
C189 C 0.48584 0.1706 0.08559 0.0
C190 C 0.47328 0.18411 0.03848 0.0
C191 C 0.44819 0.17357 0.88019 0.0
H192 H 0.45921 0.17389 0.81542 0.0
H193 H 0.42546 0.15567 0.8752 0.0
H194 H 0.44851 0.19436 0.88859 0.0
O195 O 0.50267 0.12175 0.84872 0.0
O196 O 0.52768 0.12669 0.97486 0.0
H197 H 0.52051 0.1784 0.17698 0.0
H198 H 0.50428 0.20028 0.20109 0.0
C199 C 0.49998 0.17881 0.17796 0.0
H200 H 0.48531 0.1632 0.22939 0.0
H201 H 0.54916 0.14278 0.18796 0.0
O202 O 0.45319 0.12198 0.74953 0.0
C203 C 0.52569 0.12581 0.88757 0.0
Co204 Co 0.55073 0.66259 0.81636 0.0
Co205 Co 0.52156 0.63419 0.63128 0.0
C206 C 0.57581 0.63515 0.70243 0.0
O207 O 0.57808 0.64999 0.77328 0.0
O208 O 0.55504 0.62754 0.64614 0.0
C209 C 0.56322 0.66152 0.99322 0.0
O210 O 0.56781 0.6418 0.9561 0.0
C211 C 0.52906 0.63503 0.43672 0.0
C212 C 0.48481 0.61339 0.38029 0.0
C213 C 0.51379 0.62813 0.35565 0.0
N214 N 0.51024 0.62517 0.50658 0.0
N215 N 0.48371 0.6118 0.47265 0.0
C216 C 0.56101 0.65433 0.4477 0.0
H217 H 0.56642 0.66387 0.51727 0.0
H218 H 0.56947 0.67195 0.39616 0.0
H219 H 0.57163 0.64139 0.43577 0.0
C220 C 0.55137 0.71383 0.72958 0.0
N221 N 0.54562 0.6862 0.72923 0.0
N222 N 0.53263 0.67383 0.65195 0.0
C223 C 0.52948 0.69317 0.60103 0.0
C224 C 0.54123 0.71917 0.64824 0.0
C225 C 0.5646 0.73389 0.80894 0.0
H226 H 0.58508 0.73473 0.82855 0.0
H227 H 0.5688 0.75594 0.7929 0.0
H228 H 0.54976 0.72524 0.8685 0.0
O229 O 0.51326 0.62803 0.84443 0.0
O230 O 0.4896 0.60778 0.71679 0.0
H231 H 0.49522 0.66647 0.50833 0.0
H232 H 0.51222 0.70454 0.48304 0.0
C233 C 0.51601 0.68716 0.50769 0.0
H234 H 0.53083 0.68566 0.45805 0.0
H235 H 0.46495 0.60273 0.51238 0.0
O236 O 0.56033 0.67889 0.94071 0.0
C237 C 0.49096 0.60855 0.80412 0.0
Co238 Co 0.89108 0.54642 0.97413 0.0
Co239 Co 0.88681 0.51377 0.79325 0.0
C240 C 0.94223 0.56716 0.86144 0.0
O241 O 0.93063 0.57363 0.9264 0.0
O242 O 0.92746 0.54478 0.8127 0.0
C243 C 0.90652 0.56152 0.15203 0.0
O244 O 0.93047 0.56526 0.11422 0.0
C245 C 0.8962 0.52622 0.60206 0.0
C246 C 0.87259 0.48395 0.53281 0.0
C247 C 0.8883 0.51348 0.51668 0.0
N248 N 0.88558 0.50535 0.66598 0.0
N249 N 0.87182 0.48002 0.62435 0.0
C250 C 0.91002 0.5578 0.6236 0.0
H251 H 0.90112 0.56108 0.68816 0.0
H252 H 0.90665 0.56975 0.56734 0.0
H253 H 0.93361 0.56678 0.63316 0.0
C254 C 0.84022 0.54749 0.89103 0.0
N255 N 0.86156 0.54094 0.89036 0.0
N256 N 0.85949 0.52641 0.8153 0.0
C257 C 0.83667 0.52315 0.76598 0.0
C258 C 0.82361 0.53633 0.81211 0.0
C259 C 0.83502 0.56259 0.96854 0.0
H260 H 0.83104 0.54974 0.03204 0.0
H261 H 0.85476 0.58385 0.97997 0.0
H262 H 0.81629 0.56565 0.95507 0.0
O263 O 0.88835 0.50862 0.99915 0.0
O264 O 0.8803 0.48124 0.87688 0.0
H265 H 0.82725 0.48736 0.67817 0.0
H266 H 0.80686 0.50503 0.65097 0.0
C267 C 0.82802 0.50843 0.67468 0.0
H268 H 0.84423 0.52216 0.62291 0.0
H269 H 0.86084 0.46023 0.6583 0.0
O270 O 0.88553 0.5568 0.09979 0.0
C271 C 0.88383 0.48503 0.96336 0.0
Co272 Co 0.34686 0.88772 0.1536 0.0
Co273 Co 0.37469 0.88645 0.96812 0.0
C274 C 0.37633 0.94059 0.04042 0.0
O275 O 0.36089 0.92791 0.11022 0.0
O276 O 0.38332 0.92714 0.9835 0.0
C277 C 0.3481 0.90231 0.3298 0.0
O278 O 0.3691 0.92564 0.29166 0.0
C279 C 0.37388 0.89444 0.77513 0.0
C280 C 0.39067 0.86787 0.71487 0.0
C281 C 0.37829 0.88453 0.69318 0.0
N282 N 0.3828 0.88392 0.84311 0.0
N283 N 0.39339 0.86848 0.80689 0.0
C284 C 0.35745 0.91005 0.78922 0.0
H285 H 0.3456 0.90368 0.85523 0.0
H286 H 0.34186 0.90551 0.73269 0.0
H287 H 0.37301 0.93359 0.79032 0.0
C288 C 0.29471 0.83785 0.06857 0.0
N289 N 0.32253 0.85945 0.06721 0.0
N290 N 0.3345 0.85864 0.9893 0.0
C291 C 0.31456 0.83643 0.93852 0.0
C292 C 0.28866 0.82253 0.98668 0.0
C293 C 0.27516 0.83098 0.14948 0.0
H294 H 0.26895 0.84783 0.15616 0.0
H295 H 0.25537 0.8095 0.14256 0.0
H296 H 0.2869 0.83147 0.21275 0.0
O297 O 0.38053 0.88316 0.18008 0.0
O298 O 0.40095 0.88007 0.05218 0.0
H299 H 0.30155 0.80871 0.81775 0.0
H300 H 0.32304 0.84635 0.79644 0.0
C301 C 0.31991 0.829 0.8443 0.0
H302 H 0.3396 0.82706 0.84462 0.0
H303 H 0.40098 0.85713 0.84496 0.0
O304 O 0.3304 0.88208 0.2778 0.0
C305 C 0.39976 0.87997 0.13955 0.0
Co306 Co 0.4585 0.34385 0.31937 0.0
Co307 Co 0.48896 0.37047 0.13426 0.0
C308 C 0.43468 0.37078 0.19811 0.0
O309 O 0.43145 0.35601 0.26992 0.0
O310 O 0.45593 0.37777 0.14444 0.0
C311 C 0.44794 0.35058 0.49203 0.0
O312 O 0.44552 0.37024 0.44541 0.0
C313 C 0.48159 0.36511 0.93876 0.0
C314 C 0.52396 0.39781 0.88346 0.0
C315 C 0.49627 0.37674 0.85829 0.0
N316 N 0.49974 0.37812 0.00908 0.0
N317 N 0.52513 0.39766 0.97578 0.0
C318 C 0.45023 0.34289 0.94829 0.0
H319 H 0.44382 0.33829 0.02122 0.0
H320 H 0.44584 0.3226 0.91392 0.0
H321 H 0.43694 0.35051 0.91277 0.0
C322 C 0.45864 0.2916 0.24008 0.0
N323 N 0.46404 0.31914 0.23702 0.0
N324 N 0.47814 0.33124 0.16082 0.0
C325 C 0.48283 0.31213 0.11444 0.0
C326 C 0.47048 0.28628 0.16256 0.0
C327 C 0.4443 0.27148 0.31853 0.0
H328 H 0.43294 0.27947 0.36295 0.0
H329 H 0.42878 0.24953 0.29288 0.0
H330 H 0.46098 0.26992 0.35944 0.0
O331 O 0.49637 0.37864 0.34456 0.0
O332 O 0.52092 0.39775 0.21743 0.0
H333 H 0.51759 0.3409 0.02582 0.0
H334 H 0.50681 0.30338 0.01063 0.0
C335 C 0.49896 0.31854 0.02547 0.0
H336 H 0.48425 0.31619 0.96874 0.0
H337 H 0.54304 0.41122 0.01593 0.0
O338 O 0.44847 0.33034 0.44752 0.0
C339 C 0.51905 0.39766 0.30455 0.0
Co340 Co 0.12054 0.46074 0.48686 0.0
Co341 Co 0.12347 0.49091 0.30277 0.0
C342 C 0.06862 0.43758 0.37134 0.0
O343 O 0.08081 0.4342 0.44118 0.0
O344 O 0.08264 0.45847 0.3162 0.0
C345 C 0.10494 0.45085 0.66053 0.0
O346 O 0.08325 0.45032 0.61654 0.0
C347 C 0.11959 0.48269 0.10867 0.0
C348 C 0.13468 0.52608 0.05091 0.0
C349 C 0.12516 0.49759 0.02752 0.0
N350 N 0.12616 0.50144 0.17788 0.0
N351 N 0.13508 0.52741 0.14326 0.0
C352 C 0.10773 0.4509 0.12027 0.0
H353 H 0.11056 0.44569 0.19162 0.0
H354 H 0.11852 0.44316 0.07245 0.0
H355 H 0.08434 0.43935 0.10325 0.0
C356 C 0.17086 0.45833 0.4026 0.0
N357 N 0.14961 0.46504 0.4022 0.0
N358 N 0.1515 0.47921 0.32641 0.0
C359 C 0.17444 0.48262 0.27743 0.0
C360 C 0.18729 0.46917 0.32311 0.0
C361 C 0.17607 0.44314 0.47974 0.0
H362 H 0.17393 0.45202 0.54606 0.0
H363 H 0.15933 0.41991 0.47781 0.0
H364 H 0.19779 0.44525 0.47474 0.0
O365 O 0.1247 0.49904 0.51181 0.0
O366 O 0.12976 0.52353 0.38489 0.0
H367 H 0.18061 0.51716 0.18792 0.0
H368 H 0.20662 0.50558 0.17145 0.0
C369 C 0.18373 0.49819 0.18762 0.0
H370 H 0.17057 0.48321 0.13235 0.0
H371 H 0.14155 0.54597 0.18246 0.0
O372 O 0.12486 0.45052 0.6135 0.0
C373 C 0.12856 0.52179 0.472 0.0
Co374 Co 0.66604 0.11587 0.65866 0.0
Co375 Co 0.63846 0.12049 0.47655 0.0
C376 C 0.637 0.06495 0.54202 0.0
O377 O 0.65212 0.07621 0.61345 0.0
O378 O 0.63046 0.07961 0.48841 0.0
C379 C 0.66285 0.10145 0.83502 0.0
O380 O 0.64136 0.07888 0.7952 0.0
C381 C 0.64506 0.11801 0.28248 0.0
C382 C 0.61637 0.13197 0.22078 0.0
C383 C 0.63597 0.12301 0.19985 0.0
N384 N 0.63175 0.12385 0.35019 0.0
N385 N 0.61454 0.13221 0.31308 0.0
C386 C 0.66783 0.10986 0.29627 0.0
H387 H 0.67112 0.1074 0.36985 0.0
H388 H 0.68851 0.12684 0.26625 0.0
H389 H 0.66177 0.08951 0.25925 0.0
C390 C 0.7193 0.1634 0.56774 0.0
N391 N 0.69069 0.14428 0.57214 0.0
N392 N 0.67791 0.14808 0.50108 0.0
C393 C 0.69754 0.1709 0.45223 0.0
C394 C 0.72478 0.18131 0.4912 0.0
C395 C 0.74068 0.16247 0.63175 0.0
H396 H 0.73322 0.13977 0.6516 0.0
H397 H 0.76244 0.17213 0.59993 0.0
H398 H 0.74191 0.17442 0.69527 0.0
O399 O 0.63204 0.12033 0.68585 0.0
O400 O 0.61216 0.12614 0.56101 0.0
H401 H 0.70443 0.20814 0.37458 0.0
H402 H 0.6919 0.17554 0.30921 0.0
C403 C 0.68978 0.18438 0.37556 0.0
H404 H 0.66718 0.17968 0.38323 0.0
H405 H 0.60165 0.1381 0.3505 0.0
O406 O 0.68175 0.12132 0.78434 0.0
C407 C 0.61301 0.12448 0.64806 0.0
C408 C 0.34896 0.4816 0.62484 0.0
C409 C 0.36846 0.47737 0.5719 0.0
C410 C 0.34046 0.46908 0.712 0.0
C411 C 0.35143 0.45213 0.74865 0.0
H412 H 0.34086 0.49528 0.5997 0.0
H413 H 0.3267 0.47421 0.75284 0.0
S414 S 0.40008 0.43163 0.63021 0.0
N415 N 0.39619 0.45297 0.557 0.0
N416 N 0.38034 0.4293 0.72035 0.0
C417 C 0.36944 0.44626 0.69312 0.0
C418 C 0.37797 0.45895 0.60474 0.0
C419 C 0.91624 0.38439 0.88508 0.0
C420 C 0.90463 0.35603 0.919 0.0
C421 C 0.90931 0.38965 0.79757 0.0
C422 C 0.89089 0.36681 0.73991 0.0
H423 H 0.93024 0.40286 0.9272 0.0
H424 H 0.91868 0.41182 0.77461 0.0
S425 S 0.85488 0.28872 0.79596 0.0
N426 N 0.87394 0.30492 0.88822 0.0
N427 N 0.86064 0.31474 0.72324 0.0
C428 C 0.8792 0.33835 0.77252 0.0
C429 C 0.88615 0.33299 0.86218 0.0
C430 C 0.54513 0.9203 0.04446 0.0
C431 C 0.5524 0.90092 0.08591 0.0
C432 C 0.53223 0.91482 0.95798 0.0
C433 C 0.52641 0.88997 0.90931 0.0
H434 H 0.54866 0.9396 0.07988 0.0
H435 H 0.5268 0.93015 0.92889 0.0
S436 S 0.54263 0.83327 0.98196 0.0
N437 N 0.55369 0.85629 0.06841 0.0
N438 N 0.52978 0.84642 0.90453 0.0
C439 C 0.53424 0.87082 0.94766 0.0
C440 C 0.5472 0.87622 0.03629 0.0
C441 C 0.63251 0.54467 0.10793 0.0
C442 C 0.64271 0.52691 0.07394 0.0
C443 C 0.6408 0.55731 0.19462 0.0
C444 C 0.65982 0.55286 0.25003 0.0
H445 H 0.6173 0.54805 0.06838 0.0
H446 H 0.63131 0.56976 0.21976 0.0
S447 S 0.6957 0.51128 0.1846 0.0
N448 N 0.67497 0.50781 0.09604 0.0
N449 N 0.69086 0.53162 0.25954 0.0
C450 C 0.67176 0.53672 0.21353 0.0
C451 C 0.66304 0.52364 0.12533 0.0
C452 C 0.11397 0.63629 0.3293 0.0
C453 C 0.12594 0.65172 0.24767 0.0
C454 C 0.11497 0.65067 0.41154 0.0
C455 C 0.12796 0.68101 0.41486 0.0
H456 H 0.10338 0.61292 0.32928 0.0
H457 H 0.10498 0.63789 0.47228 0.0
S458 S 0.16541 0.73153 0.22205 0.0
N459 N 0.15329 0.69913 0.17765 0.0
N460 N 0.15501 0.72597 0.3301 0.0
C461 C 0.14079 0.69662 0.33411 0.0
C462 C 0.13984 0.68204 0.25113 0.0
C463 C 0.47391 0.13352 0.56446 0.0
C464 C 0.4577 0.10546 0.60106 0.0
C465 C 0.48663 0.13805 0.47739 0.0
C466 C 0.4834 0.11471 0.42449 0.0
H467 H 0.47822 0.15219 0.60515 0.0
H468 H 0.49963 0.15995 0.45222 0.0
S469 S 0.44012 0.03709 0.48287 0.0
N470 N 0.43675 0.05392 0.57271 0.0
N471 N 0.46094 0.06273 0.40988 0.0
C472 C 0.46585 0.08661 0.45744 0.0
C473 C 0.4529 0.08191 0.54561 0.0
C474 C 0.5491 0.63339 0.23535 0.0
C475 C 0.52623 0.63746 0.26331 0.0
C476 C 0.56209 0.6429 0.14961 0.0
C477 C 0.55288 0.65706 0.08885 0.0
H478 H 0.55664 0.62223 0.27936 0.0
H479 H 0.57904 0.63847 0.1298 0.0
S480 S 0.49399 0.6734 0.13089 0.0
N481 N 0.4951 0.65691 0.22513 0.0
N482 N 0.51949 0.67487 0.06323 0.0
C483 C 0.53034 0.66177 0.11679 0.0
C484 C 0.5169 0.65178 0.20402 0.0
C485 C 0.86948 0.52088 0.36854 0.0
C486 C 0.89296 0.5282 0.42745 0.0
C487 C 0.87367 0.53371 0.28181 0.0
C488 C 0.90158 0.55396 0.25056 0.0
H489 H 0.84781 0.50474 0.389 0.0
H490 H 0.85511 0.52641 0.23712 0.0
S491 S 0.96995 0.58137 0.38144 0.0
N492 N 0.94479 0.55772 0.45065 0.0
N493 N 0.95277 0.58191 0.28815 0.0
C494 C 0.92502 0.56232 0.31079 0.0
C495 C 0.92071 0.54938 0.39906 0.0
C496 C 0.3705 0.92056 0.48215 0.0
C497 C 0.35099 0.89708 0.42765 0.0
C498 C 0.37902 0.91624 0.56838 0.0
C499 C 0.36852 0.8883 0.6029 0.0
H500 H 0.38017 0.94249 0.45667 0.0
H501 H 0.39454 0.93484 0.60733 0.0
S502 S 0.31437 0.81971 0.49442 0.0
N503 N 0.31935 0.84486 0.4192 0.0
N504 N 0.33558 0.83698 0.58214 0.0
C505 C 0.34781 0.8647 0.55227 0.0
C506 C 0.33889 0.86904 0.46444 0.0
C507 C 0.4722 0.34228 0.72917 0.0
C508 C 0.48391 0.37025 0.76555 0.0
C509 C 0.45976 0.33569 0.64151 0.0
C510 C 0.45807 0.35675 0.58835 0.0
H511 H 0.47313 0.32553 0.76815 0.0
H512 H 0.4517 0.31409 0.61491 0.0
S513 S 0.48459 0.43307 0.65711 0.0
N514 N 0.49263 0.41887 0.74467 0.0
N515 N 0.46859 0.40677 0.5815 0.0
C516 C 0.4691 0.3847 0.62598 0.0
C517 C 0.48227 0.39141 0.71411 0.0
C518 C 0.0969 0.48183 0.88403 0.0
C519 C 0.12056 0.48533 0.93513 0.0
C520 C 0.09131 0.46921 0.79721 0.0
C521 C 0.1095 0.46004 0.75764 0.0
H522 H 0.08255 0.4888 0.91156 0.0
H523 H 0.07295 0.46744 0.76001 0.0
S524 S 0.17408 0.46402 0.86709 0.0
N525 N 0.16193 0.47817 0.94344 0.0
N526 N 0.15185 0.45479 0.77877 0.0
C527 C 0.13309 0.46309 0.8093 0.0
C528 C 0.13855 0.47571 0.89842 0.0
C529 C 0.67012 0.13526 0.96446 0.0
C530 C 0.65965 0.10684 0.93259 0.0
C531 C 0.6622 0.14048 0.05108 0.0
C532 C 0.64385 0.11749 0.10856 0.0
H533 H 0.68344 0.15355 0.92078 0.0
H534 H 0.67029 0.16257 0.073 0.0
S535 S 0.61166 0.03942 0.06001 0.0
N536 N 0.63081 0.05558 0.96769 0.0
N537 N 0.61614 0.0656 0.13002 0.0
C538 C 0.634 0.08915 0.07905 0.0
C539 C 0.6419 0.08378 0.99117 0.0
C540 C 0.47135 0.585 0.957 0.0
C541 C 0.46696 0.58653 0.86209 0.0
C542 C 0.44966 0.56403 0.01345 0.0
C543 C 0.42259 0.54359 0.97764 0.0
H544 H 0.49195 0.59984 0.98823 0.0
H545 H 0.45447 0.56341 0.08519 0.0
S546 S 0.39878 0.54049 0.7364 0.0
N547 N 0.43258 0.56719 0.73696 0.0
N548 N 0.3918 0.52792 0.84211 0.0
C549 C 0.41754 0.54557 0.88352 0.0
C550 C 0.43967 0.56692 0.82614 0.0
C551 C 0.87505 0.41342 0.04934 0.0
C552 C 0.88232 0.41881 0.14306 0.0
C553 C 0.87532 0.43467 0.99174 0.0
C554 C 0.88313 0.46233 0.02517 0.0
H555 H 0.8692 0.39259 0.01994 0.0
H556 H 0.86953 0.42937 0.92041 0.0
S557 S 0.90659 0.48808 0.26383 0.0
N558 N 0.89885 0.45415 0.26533 0.0
N559 N 0.89986 0.49416 0.15849 0.0
C560 C 0.89078 0.468 0.11886 0.0
C561 C 0.89021 0.44627 0.17732 0.0
C562 C 0.44917 0.88582 0.16195 0.0
C563 C 0.42168 0.87782 0.19718 0.0
C564 C 0.47101 0.88694 0.21845 0.0
C565 C 0.46634 0.88004 0.31272 0.0
H566 H 0.4542 0.89213 0.09085 0.0
H567 H 0.49196 0.89382 0.18788 0.0
S568 S 0.39711 0.8543 0.43625 0.0
N569 N 0.39024 0.86045 0.33106 0.0
N570 N 0.4313 0.86267 0.4364 0.0
C571 C 0.43864 0.87098 0.34794 0.0
C572 C 0.41636 0.86981 0.2905 0.0
C573 C 0.53845 0.42142 0.45731 0.0
C574 C 0.54297 0.41976 0.36257 0.0
C575 C 0.56013 0.44228 0.51401 0.0
C576 C 0.58734 0.4625 0.47856 0.0
H577 H 0.51779 0.40669 0.48823 0.0
H578 H 0.55522 0.44298 0.58563 0.0
S579 S 0.61143 0.4655 0.23774 0.0
N580 N 0.57756 0.43895 0.23787 0.0
N581 N 0.61833 0.47804 0.3435 0.0
C582 C 0.59249 0.46051 0.38456 0.0
C583 C 0.57036 0.43924 0.32694 0.0
C584 C 0.12198 0.54023 0.62288 0.0
C585 C 0.13078 0.54573 0.53027 0.0
C586 C 0.12277 0.56177 0.67978 0.0
C587 C 0.13234 0.58978 0.64664 0.0
H588 H 0.11375 0.51886 0.65163 0.0
H589 H 0.11488 0.55609 0.74934 0.0
S590 S 0.16176 0.61673 0.41395 0.0
N591 N 0.15202 0.58217 0.41111 0.0
N592 N 0.1536 0.6227 0.51772 0.0
C593 C 0.14236 0.59597 0.55538 0.0
C594 C 0.14154 0.57398 0.49735 0.0
C595 C 0.58988 0.11954 0.80247 0.0
C596 C 0.5916 0.12669 0.70849 0.0
C597 C 0.56935 0.12035 0.86094 0.0
C598 C 0.54956 0.12824 0.82806 0.0
H599 H 0.60416 0.11269 0.83125 0.0
H600 H 0.56844 0.11386 0.93168 0.0
S601 S 0.54737 0.15262 0.59118 0.0
N602 N 0.57326 0.14439 0.58795 0.0
N603 N 0.5348 0.14597 0.69695 0.0
C604 C 0.55179 0.13655 0.73516 0.0
C605 C 0.5727 0.13573 0.67574 0.0
C606 C 0.26352 0.49361 0.2405 0.0
C607 C 0.26289 0.46753 0.22155 0.0
C608 C 0.23936 0.49384 0.277 0.0
C609 C 0.2133 0.46801 0.29329 0.0
H610 H 0.28301 0.51407 0.2278 0.0
H611 H 0.24096 0.51445 0.29158 0.0
S612 S 0.20018 0.39394 0.2541 0.0
N613 N 0.23419 0.41516 0.22282 0.0
N614 N 0.18819 0.41561 0.28735 0.0
C615 C 0.21226 0.44176 0.27419 0.0
C616 C 0.2371 0.44152 0.2384 0.0
C617 C 0.78308 0.23579 0.32966 0.0
C618 C 0.80319 0.25701 0.38938 0.0
C619 C 0.75863 0.21079 0.36326 0.0
C620 C 0.75258 0.20641 0.45788 0.0
H621 H 0.78563 0.23879 0.25633 0.0
H622 H 0.74404 0.19506 0.31426 0.0
S623 S 0.79898 0.25442 0.64329 0.0
N624 N 0.81704 0.26974 0.54869 0.0
N625 N 0.76887 0.22565 0.6102 0.0
C626 C 0.77268 0.22721 0.51808 0.0
C627 C 0.79841 0.25175 0.48426 0.0
C628 C 0.56729 0.79602 0.56636 0.0
C629 C 0.54122 0.79539 0.54608 0.0
C630 C 0.56725 0.77151 0.60191 0.0
C631 C 0.54115 0.74571 0.61861 0.0
H632 H 0.58776 0.8157 0.55596 0.0
H633 H 0.58773 0.77263 0.61552 0.0
S634 S 0.46723 0.73302 0.57661 0.0
N635 N 0.4888 0.7666 0.54255 0.0
N636 N 0.48869 0.72127 0.61393 0.0
C637 C 0.51504 0.74498 0.59912 0.0
C638 C 0.51509 0.76958 0.56129 0.0
C639 C 0.7977 0.56268 0.76517 0.0
C640 C 0.79698 0.53653 0.78416 0.0
C641 C 0.77309 0.56287 0.73144 0.0
C642 C 0.74708 0.53691 0.71536 0.0
H643 H 0.81749 0.58305 0.77548 0.0
H644 H 0.77427 0.5834 0.71896 0.0
S645 S 0.73411 0.46285 0.75405 0.0
N646 N 0.76792 0.48418 0.78673 0.0
N647 N 0.72237 0.4845 0.71882 0.0
C648 C 0.74628 0.51072 0.73325 0.0
C649 C 0.77101 0.51054 0.76916 0.0
C650 C 0.26239 0.77133 0.93157 0.0
C651 C 0.26157 0.79622 0.95787 0.0
C652 C 0.23773 0.74687 0.89762 0.0
C653 C 0.21107 0.74603 0.89122 0.0
H654 H 0.28241 0.77089 0.9364 0.0
H655 H 0.23947 0.72836 0.87683 0.0
S656 S 0.19712 0.80515 0.953 0.0
N657 N 0.23191 0.81859 0.97444 0.0
N658 N 0.1851 0.77195 0.91502 0.0
C659 C 0.20981 0.77059 0.91816 0.0
C660 C 0.23509 0.79575 0.95122 0.0
C661 C 0.44555 0.23411 0.11477 0.0
C662 C 0.47121 0.25975 0.13692 0.0
C663 C 0.44629 0.20982 0.08081 0.0
C664 C 0.47273 0.21053 0.0671 0.0
H665 H 0.42484 0.23299 0.1223 0.0
H666 H 0.42609 0.1903 0.06587 0.0
S667 S 0.54587 0.27265 0.11335 0.0
N668 N 0.5236 0.28399 0.14567 0.0
N669 N 0.52513 0.23947 0.07461 0.0
C670 C 0.49846 0.23622 0.08769 0.0
C671 C 0.49766 0.26048 0.12489 0.0
C672 C 0.39311 0.40998 0.23957 0.0
C673 C 0.38635 0.41481 0.15044 0.0
C674 C 0.40704 0.394 0.25482 0.0
C675 C 0.41553 0.38295 0.18129 0.0
H676 H 0.38825 0.41922 0.29806 0.0
H677 H 0.4126 0.39168 0.32442 0.0
S678 S 0.40196 0.38837 0.93496 0.0
N679 N 0.3879 0.40577 0.98791 0.0
N680 N 0.41506 0.37678 0.01646 0.0
C681 C 0.40821 0.38689 0.09208 0.0
C682 C 0.39335 0.40251 0.07666 0.0
C683 C 0.99574 0.3959 0.25242 0.0
C684 C 0.97598 0.38756 0.32555 0.0
C685 C 0.02573 0.41144 0.2679 0.0
C686 C 0.03708 0.41848 0.35718 0.0
H687 H 0.98802 0.39152 0.18241 0.0
H688 H 0.04014 0.41837 0.20942 0.0
S689 S 0.99453 0.40007 0.57248 0.0
N690 N 0.96991 0.38665 0.4907 0.0
N691 N 0.02613 0.41492 0.51987 0.0
C692 C 0.01755 0.40915 0.43105 0.0
C693 C 0.98705 0.39397 0.41521 0.0
C694 C 0.6123 0.01386 0.59701 0.0
C695 C 0.62463 0.03367 0.5246 0.0
C696 C 0.597 0.98398 0.58059 0.0
C697 C 0.59411 0.97274 0.49146 0.0
H698 H 0.61328 0.02152 0.66635 0.0
H699 H 0.58681 0.96962 0.63806 0.0
S700 S 0.62524 0.0157 0.27984 0.0
N701 N 0.63457 0.04011 0.36159 0.0
N702 N 0.60679 0.98401 0.33081 0.0
C703 C 0.60778 0.99237 0.41921 0.0
C704 C 0.62273 0.0228 0.43575 0.0
C705 C 0.60914 0.58835 0.74182 0.0
C706 C 0.62355 0.59056 0.65855 0.0
C707 C 0.5954 0.60444 0.75783 0.0
C708 C 0.59514 0.62307 0.69077 0.0
H709 H 0.60756 0.57335 0.79431 0.0
H710 H 0.5836 0.60112 0.82126 0.0
S711 S 0.63188 0.63935 0.4655 0.0
N712 N 0.63851 0.61501 0.51117 0.0
N713 N 0.61237 0.64494 0.54178 0.0
C714 C 0.61045 0.6266 0.60919 0.0
C715 C 0.62478 0.61047 0.593 0.0
C716 C 0.01941 0.62936 0.82787 0.0
C717 C 0.03484 0.61462 0.81626 0.0
C718 C 0.98935 0.61407 0.84443 0.0
C719 C 0.97389 0.58366 0.84706 0.0
H720 H 0.03071 0.65275 0.82609 0.0
H721 H 0.97809 0.62602 0.85385 0.0
S722 S 1.00456 0.53532 0.81951 0.0
N723 N 0.03263 0.56822 0.80905 0.0
N724 N 0.97638 0.53959 0.83683 0.0
C725 C 0.9892 0.56888 0.83432 0.0
C726 C 0.01963 0.58434 0.81976 0.0
C727 C 0.40529 0.01513 0.93535 0.0
C728 C 0.42253 0.03363 0.00632 0.0
C729 C 0.38955 0.98497 0.94732 0.0
C730 C 0.38981 0.97228 0.03139 0.0
H731 H 0.4048 0.02386 0.86889 0.0
H732 H 0.37736 0.97148 0.89014 0.0
S733 S 0.43064 0.01059 0.23939 0.0
N734 N 0.43852 0.03651 0.16418 0.0
N735 N 0.40814 0.98021 0.18671 0.0
C736 C 0.40602 0.99044 0.10364 0.0
C737 C 0.42257 0.02099 0.09109 0.0
loop_
_geom_bond_atom_site_label_1
_geom_bond_atom_site_label_2
_geom_bond_distance
_geom_bond_site_symmetry_2
_ccdc_geom_bond_type
Co0 O3 1.970 . S
Co0 N17 1.989 . S
Co0 O25 1.967 . S
Co0 O32 1.920 1_554 S
Co1 O4 1.966 . S
Co1 N10 2.022 . S
Co1 N18 1.993 . S
Co1 O26 1.941 . S
C2 O3 1.258 . S
C2 O4 1.263 . S
O3 Co0 1.970 . S
O3 C2 1.258 . S
O4 Co1 1.966 . S
O4 C2 1.263 . S
C5 O6 1.235 . S
C5 O32 1.289 . S
O6 C5 1.235 . S
C7 C9 1.400 . S
C7 N10 1.351 . S
C7 C12 1.501 . S
C8 C9 1.387 . S
C8 N11 1.341 . S
C9 C7 1.400 . S
C9 C8 1.387 . S
N10 Co1 2.022 . S
N10 C7 1.351 . S
N10 N11 1.365 . S
N11 C8 1.341 . S
N11 N10 1.365 . S
N11 H31 0.862 . S
C12 C7 1.501 . S
C12 H13 0.961 . S
C12 H14 0.961 . S
C12 H15 0.960 . S
H13 C12 0.961 . S
H14 C12 0.961 . S
H15 C12 0.960 . S
C16 N17 1.342 . S
C16 C20 1.401 . S
C16 C21 1.499 1_554 S
N17 Co0 1.989 . S
N17 C16 1.342 . S
N17 N18 1.388 . S
N18 Co1 1.993 . S
N18 N17 1.388 . S
N18 C19 1.346 . S
C19 N18 1.346 . S
C19 C20 1.396 . S
C19 C29 1.510 . S
C20 C16 1.401 . S
C20 C19 1.396 . S
C21 C16 1.499 1_556 S
C21 H22 0.959 . S
C21 H23 0.960 . S
C21 H24 0.961 . S
H22 C21 0.959 . S
H23 C21 0.960 . S
H24 C21 0.961 . S
O25 Co0 1.967 . S
O25 C33 1.258 . S
O26 Co1 1.941 . S
O26 C33 1.266 . S
H27 C29 0.959 . S
H28 C29 0.961 . S
C29 C19 1.510 . S
C29 H27 0.959 . S
C29 H28 0.961 . S
C29 H30 0.960 . S
H30 C29 0.960 . S
H31 N11 0.862 . S
O32 Co0 1.920 1_556 S
O32 C5 1.289 . S
C33 O25 1.258 . S
C33 O26 1.266 . S
Co34 O37 1.970 . S
Co34 N51 1.989 . S
Co34 O59 1.967 . S
Co34 O66 1.920 . S
Co35 O38 1.966 . S
Co35 N44 2.022 . S
Co35 N52 1.993 . S
Co35 O60 1.941 . S
C36 O37 1.258 . S
C36 O38 1.263 . S
O37 Co34 1.970 . S
O37 C36 1.258 . S
O38 Co35 1.966 . S
O38 C36 1.263 . S
C39 O40 1.235 . S
C39 O66 1.289 . S
O40 C39 1.235 . S
C41 C43 1.400 . S
C41 N44 1.351 . S
C41 C46 1.501 . S
C42 C43 1.387 . S
C42 N45 1.341 . S
C43 C41 1.400 . S
C43 C42 1.387 . S
N44 Co35 2.022 . S
N44 C41 1.351 . S
N44 N45 1.365 . S
N45 C42 1.341 . S
N45 N44 1.365 . S
N45 H65 0.862 . S
C46 C41 1.501 . S
C46 H47 0.961 . S
C46 H48 0.961 . S
C46 H49 0.960 . S
H47 C46 0.961 . S
H48 C46 0.961 . S
H49 C46 0.960 . S
C50 N51 1.342 . S
C50 C54 1.401 . S
C50 C55 1.499 . S
N51 Co34 1.989 . S
N51 C50 1.342 . S
N51 N52 1.388 . S
N52 Co35 1.993 . S
N52 N51 1.388 . S
N52 C53 1.346 . S
C53 N52 1.346 . S
C53 C54 1.396 . S
C53 C63 1.510 . S
C54 C50 1.401 . S
C54 C53 1.396 . S
C55 C50 1.499 . S
C55 H56 0.959 . S
C55 H57 0.960 . S
C55 H58 0.961 . S
H56 C55 0.959 . S
H57 C55 0.960 . S
H58 C55 0.961 . S
O59 Co34 1.967 . S
O59 C67 1.258 . S
O60 Co35 1.941 . S
O60 C67 1.266 . S
H61 C63 0.959 . S
H62 C63 0.961 . S
C63 C53 1.510 . S
C63 H61 0.959 . S
C63 H62 0.961 . S
C63 H64 0.960 . S
H64 C63 0.960 . S
H65 N45 0.862 . S
O66 Co34 1.920 . S
O66 C39 1.289 . S
C67 O59 1.258 . S
C67 O60 1.266 . S
Co68 O71 1.970 . S
Co68 N85 1.989 . S
Co68 O93 1.967 . S
Co68 O100 1.920 . S
Co69 O72 1.966 . S
Co69 N78 2.022 . S
Co69 N86 1.993 . S
Co69 O94 1.941 . S
C70 O71 1.258 . S
C70 O72 1.263 . S
O71 Co68 1.970 . S
O71 C70 1.258 . S
O72 Co69 1.966 . S
O72 C70 1.263 . S
C73 O74 1.235 . S
C73 O100 1.289 . S
O74 C73 1.235 . S
C75 C77 1.400 . S
C75 N78 1.351 . S
C75 C80 1.501 . S
C76 C77 1.387 . S
C76 N79 1.341 . S
C77 C75 1.400 . S
C77 C76 1.387 . S
N78 Co69 2.022 . S
N78 C75 1.351 . S
N78 N79 1.365 . S
N79 C76 1.341 . S
N79 N78 1.365 . S
N79 H99 0.862 . S
C80 C75 1.501 . S
C80 H81 0.961 . S
C80 H82 0.961 . S
C80 H83 0.960 . S
H81 C80 0.961 . S
H82 C80 0.961 . S
H83 C80 0.960 . S
C84 N85 1.342 . S
C84 C88 1.401 . S
C84 C89 1.499 . S
N85 Co68 1.989 . S
N85 C84 1.342 . S
N85 N86 1.388 . S
N86 Co69 1.993 . S
N86 N85 1.388 . S
N86 C87 1.346 . S
C87 N86 1.346 . S
C87 C88 1.396 . S
C87 C97 1.510 . S
C88 C84 1.401 . S
C88 C87 1.396 . S
C89 C84 1.499 . S
C89 H90 0.959 . S
C89 H91 0.960 . S
C89 H92 0.961 . S
H90 C89 0.959 . S
H91 C89 0.960 . S
H92 C89 0.961 . S
O93 Co68 1.967 . S
O93 C101 1.258 . S
O94 Co69 1.941 . S
O94 C101 1.266 . S
H95 C97 0.959 . S
H96 C97 0.961 . S
C97 C87 1.510 . S
C97 H95 0.959 . S
C97 H96 0.961 . S
C97 H98 0.960 . S
H98 C97 0.960 . S
H99 N79 0.862 . S
O100 Co68 1.920 . S
O100 C73 1.289 . S
C101 O93 1.258 . S
C101 O94 1.266 . S
Co102 O105 1.970 . S
Co102 N119 1.989 . S
Co102 O127 1.967 . S
Co102 O134 1.920 . S
Co103 O106 1.966 . S
Co103 N112 2.022 . S
Co103 N120 1.993 . S
Co103 O128 1.941 . S
C104 O105 1.258 . S
C104 O106 1.263 . S
O105 Co102 1.970 . S
O105 C104 1.258 . S
O106 Co103 1.966 . S
O106 C104 1.263 . S
C107 O108 1.235 . S
C107 O134 1.289 . S
O108 C107 1.235 . S
C109 C111 1.400 1_556 S
C109 N112 1.351 . S
C109 C114 1.501 . S
C110 C111 1.387 1_556 S
C110 N113 1.341 . S
C111 C109 1.400 1_554 S
C111 C110 1.387 1_554 S
N112 Co103 2.022 . S
N112 C109 1.351 . S
N112 N113 1.365 . S
N113 C110 1.341 . S
N113 N112 1.365 . S
N113 H133 0.862 . S
C114 C109 1.501 . S
C114 H115 0.961 . S
C114 H116 0.961 . S
C114 H117 0.960 . S
H115 C114 0.961 . S
H116 C114 0.961 . S
H117 C114 0.960 . S
C118 N119 1.342 . S
C118 C122 1.401 . S
C118 C123 1.499 . S
N119 Co102 1.989 . S
N119 C118 1.342 . S
N119 N120 1.388 . S
N120 Co103 1.993 . S
N120 N119 1.388 . S
N120 C121 1.346 . S
C121 N120 1.346 . S
C121 C122 1.396 . S
C121 C131 1.510 . S
C122 C118 1.401 . S
C122 C121 1.396 . S
C123 C118 1.499 . S
C123 H124 0.959 . S
C123 H125 0.960 . S
C123 H126 0.961 . S
H124 C123 0.959 . S
H125 C123 0.960 . S
H126 C123 0.961 . S
O127 Co102 1.967 . S
O127 C135 1.258 . S
O128 Co103 1.941 . S
O128 C135 1.266 . S
H129 C131 0.959 . S
H130 C131 0.961 . S
C131 C121 1.510 . S
C131 H129 0.959 . S
C131 H130 0.961 . S
C131 H132 0.960 . S
H132 C131 0.960 . S
H133 N113 0.862 . S
O134 Co102 1.920 . S
O134 C107 1.289 . S
C135 O127 1.258 . S
C135 O128 1.266 . S
Co136 O139 1.970 . S
Co136 N153 1.989 . S
Co136 O161 1.967 . S
Co136 O168 1.920 . S
Co137 O140 1.966 . S
Co137 N146 2.022 1_556 S
Co137 N154 1.993 . S
Co137 O162 1.941 . S
C138 O139 1.258 . S
C138 O140 1.263 . S
O139 Co136 1.970 . S
O139 C138 1.258 . S
O140 Co137 1.966 . S
O140 C138 1.263 . S
C141 O142 1.235 . S
C141 O168 1.289 . S
O142 C141 1.235 . S
C143 C145 1.400 . S
C143 N146 1.351 . S
C143 C148 1.501 . S
C144 C145 1.387 . S
C144 N147 1.341 . S
C145 C143 1.400 . S
C145 C144 1.387 . S
N146 Co137 2.022 1_554 S
N146 C143 1.351 . S
N146 N147 1.365 . S
N147 C144 1.341 . S
N147 N146 1.365 . S
N147 H167 0.862 . S
C148 C143 1.501 . S
C148 H149 0.961 . S
C148 H150 0.961 . S
C148 H151 0.960 . S
H149 C148 0.961 . S
H150 C148 0.961 . S
H151 C148 0.960 . S
C152 N153 1.342 . S
C152 C156 1.401 . S
C152 C157 1.499 . S
N153 Co136 1.989 . S
N153 C152 1.342 . S
N153 N154 1.388 . S
N154 Co137 1.993 . S
N154 N153 1.388 . S
N154 C155 1.346 . S
C155 N154 1.346 . S
C155 C156 1.396 . S
C155 C165 1.510 . S
C156 C152 1.401 . S
C156 C155 1.396 . S
C157 C152 1.499 . S
C157 H158 0.959 . S
C157 H159 0.960 . S
C157 H160 0.961 . S
H158 C157 0.959 . S
H159 C157 0.960 . S
H160 C157 0.961 . S
O161 Co136 1.967 . S
O161 C169 1.258 . S
O162 Co137 1.941 . S
O162 C169 1.266 . S
H163 C165 0.959 1_554 S
H164 C165 0.961 1_554 S
C165 C155 1.510 . S
C165 H163 0.959 1_556 S
C165 H164 0.961 1_556 S
C165 H166 0.960 1_556 S
H166 C165 0.960 1_554 S
H167 N147 0.862 . S
O168 Co136 1.920 . S
O168 C141 1.289 . S
C169 O161 1.258 . S
C169 O162 1.266 . S
Co170 O173 1.970 . S
Co170 N187 1.989 . S
Co170 O195 1.967 . S
Co170 O202 1.920 . S
Co171 O174 1.966 . S
Co171 N180 2.022 . S
Co171 N188 1.993 . S
Co171 O196 1.941 . S
C172 O173 1.258 . S
C172 O174 1.263 1_556 S
O173 Co170 1.970 . S
O173 C172 1.258 . S
O174 Co171 1.966 . S
O174 C172 1.263 1_554 S
C175 O176 1.235 . S
C175 O202 1.289 . S
O176 C175 1.235 . S
C177 C179 1.400 . S
C177 N180 1.351 . S
C177 C182 1.501 . S
C178 C179 1.387 . S
C178 N181 1.341 . S
C179 C177 1.400 . S
C179 C178 1.387 . S
N180 Co171 2.022 . S
N180 C177 1.351 . S
N180 N181 1.365 . S
N181 C178 1.341 . S
N181 N180 1.365 . S
N181 H201 0.862 . S
C182 C177 1.501 . S
C182 H183 0.961 . S
C182 H184 0.961 . S
C182 H185 0.960 . S
H183 C182 0.961 . S
H184 C182 0.961 . S
H185 C182 0.960 . S
C186 N187 1.342 . S
C186 C190 1.401 . S
C186 C191 1.499 . S
N187 Co170 1.989 . S
N187 C186 1.342 . S
N187 N188 1.388 1_556 S
N188 Co171 1.993 . S
N188 N187 1.388 1_554 S
N188 C189 1.346 . S
C189 N188 1.346 . S
C189 C190 1.396 1_554 S
C189 C199 1.510 . S
C190 C186 1.401 . S
C190 C189 1.396 1_556 S
C191 C186 1.499 . S
C191 H192 0.959 . S
C191 H193 0.960 . S
C191 H194 0.961 . S
H192 C191 0.959 . S
H193 C191 0.960 . S
H194 C191 0.961 . S
O195 Co170 1.967 . S
O195 C203 1.258 . S
O196 Co171 1.941 . S
O196 C203 1.266 1_554 S
H197 C199 0.959 . S
H198 C199 0.961 . S
C199 C189 1.510 . S
C199 H197 0.959 . S
C199 H198 0.961 . S
C199 H200 0.960 . S
H200 C199 0.960 . S
H201 N181 0.862 . S
O202 Co170 1.920 . S
O202 C175 1.289 . S
C203 O195 1.258 . S
C203 O196 1.266 1_556 S
Co204 O207 1.970 . S
Co204 N221 1.989 . S
Co204 O229 1.967 . S
Co204 O236 1.920 . S
Co205 O208 1.966 . S
Co205 N214 2.022 . S
Co205 N222 1.993 . S
Co205 O230 1.941 . S
C206 O207 1.258 . S
C206 O208 1.263 . S
O207 Co204 1.970 . S
O207 C206 1.258 . S
O208 Co205 1.966 . S
O208 C206 1.263 . S
C209 O210 1.235 . S
C209 O236 1.289 . S
O210 C209 1.235 . S
C211 C213 1.400 . S
C211 N214 1.351 . S
C211 C216 1.501 . S
C212 C213 1.387 . S
C212 N215 1.341 . S
C213 C211 1.400 . S
C213 C212 1.387 . S
N214 Co205 2.022 . S
N214 C211 1.351 . S
N214 N215 1.365 . S
N215 C212 1.341 . S
N215 N214 1.365 . S
N215 H235 0.862 . S
C216 C211 1.501 . S
C216 H217 0.961 . S
C216 H218 0.961 . S
C216 H219 0.960 . S
H217 C216 0.961 . S
H218 C216 0.961 . S
H219 C216 0.960 . S
C220 N221 1.342 . S
C220 C224 1.401 . S
C220 C225 1.499 . S
N221 Co204 1.989 . S
N221 C220 1.342 . S
N221 N222 1.388 . S
N222 Co205 1.993 . S
N222 N221 1.388 . S
N222 C223 1.346 . S
C223 N222 1.346 . S
C223 C224 1.396 . S
C223 C233 1.510 . S
C224 C220 1.401 . S
C224 C223 1.396 . S
C225 C220 1.499 . S
C225 H226 0.959 . S
C225 H227 0.960 . S
C225 H228 0.961 . S
H226 C225 0.959 . S
H227 C225 0.960 . S
H228 C225 0.961 . S
O229 Co204 1.967 . S
O229 C237 1.258 . S
O230 Co205 1.941 . S
O230 C237 1.266 . S
H231 C233 0.959 . S
H232 C233 0.961 . S
C233 C223 1.510 . S
C233 H231 0.959 . S
C233 H232 0.961 . S
C233 H234 0.960 . S
H234 C233 0.960 . S
H235 N215 0.862 . S
O236 Co204 1.920 . S
O236 C209 1.289 . S
C237 O229 1.258 . S
C237 O230 1.266 . S
Co238 O241 1.970 . S
Co238 N255 1.989 . S
Co238 O263 1.967 . S
Co238 O270 1.920 1_556 S
Co239 O242 1.966 . S
Co239 N248 2.022 . S
Co239 N256 1.993 . S
Co239 O264 1.941 . S
C240 O241 1.258 . S
C240 O242 1.263 . S
O241 Co238 1.970 . S
O241 C240 1.258 . S
O242 Co239 1.966 . S
O242 C240 1.263 . S
C243 O244 1.235 . S
C243 O270 1.289 . S
O244 C243 1.235 . S
C245 C247 1.400 . S
C245 N248 1.351 . S
C245 C250 1.501 . S
C246 C247 1.387 . S
C246 N249 1.341 . S
C247 C245 1.400 . S
C247 C246 1.387 . S
N248 Co239 2.022 . S
N248 C245 1.351 . S
N248 N249 1.365 . S
N249 C246 1.341 . S
N249 N248 1.365 . S
N249 H269 0.862 . S
C250 C245 1.501 . S
C250 H251 0.961 . S
C250 H252 0.961 . S
C250 H253 0.960 . S
H251 C250 0.961 . S
H252 C250 0.961 . S
H253 C250 0.960 . S
C254 N255 1.342 . S
C254 C258 1.401 . S
C254 C259 1.499 1_556 S
N255 Co238 1.989 . S
N255 C254 1.342 . S
N255 N256 1.388 . S
N256 Co239 1.993 . S
N256 N255 1.388 . S
N256 C257 1.346 . S
C257 N256 1.346 . S
C257 C258 1.396 . S
C257 C267 1.510 . S
C258 C254 1.401 . S
C258 C257 1.396 . S
C259 C254 1.499 1_554 S
C259 H260 0.959 . S
C259 H261 0.960 . S
C259 H262 0.961 . S
H260 C259 0.959 . S
H261 C259 0.960 . S
H262 C259 0.961 . S
O263 Co238 1.967 . S
O263 C271 1.258 . S
O264 Co239 1.941 . S
O264 C271 1.266 . S
H265 C267 0.959 . S
H266 C267 0.961 . S
C267 C257 1.510 . S
C267 H265 0.959 . S
C267 H266 0.961 . S
C267 H268 0.960 . S
H268 C267 0.960 . S
H269 N249 0.862 . S
O270 Co238 1.920 1_554 S
O270 C243 1.289 . S
C271 O263 1.258 . S
C271 O264 1.266 . S
Co272 O275 1.970 . S
Co272 N289 1.989 . S
Co272 O297 1.967 . S
Co272 O304 1.920 . S
Co273 O276 1.966 . S
Co273 N282 2.022 . S
Co273 N290 1.993 . S
Co273 O298 1.941 1_556 S
C274 O275 1.258 . S
C274 O276 1.263 1_554 S
O275 Co272 1.970 . S
O275 C274 1.258 . S
O276 Co273 1.966 . S
O276 C274 1.263 1_556 S
C277 O278 1.235 . S
C277 O304 1.289 . S
O278 C277 1.235 . S
C279 C281 1.400 . S
C279 N282 1.351 . S
C279 C284 1.501 . S
C280 C281 1.387 . S
C280 N283 1.341 . S
C281 C279 1.400 . S
C281 C280 1.387 . S
N282 Co273 2.022 . S
N282 C279 1.351 . S
N282 N283 1.365 . S
N283 C280 1.341 . S
N283 N282 1.365 . S
N283 H303 0.862 . S
C284 C279 1.501 . S
C284 H285 0.961 . S
C284 H286 0.961 . S
C284 H287 0.960 . S
H285 C284 0.961 . S
H286 C284 0.961 . S
H287 C284 0.960 . S
C288 N289 1.342 . S
C288 C292 1.401 . S
C288 C293 1.499 . S
N289 Co272 1.989 . S
N289 C288 1.342 . S
N289 N290 1.388 1_554 S
N290 Co273 1.993 . S
N290 N289 1.388 1_556 S
N290 C291 1.346 . S
C291 N290 1.346 . S
C291 C292 1.396 1_556 S
C291 C301 1.510 . S
C292 C288 1.401 . S
C292 C291 1.396 1_554 S
C293 C288 1.499 . S
C293 H294 0.959 . S
C293 H295 0.960 . S
C293 H296 0.961 . S
H294 C293 0.959 . S
H295 C293 0.960 . S
H296 C293 0.961 . S
O297 Co272 1.967 . S
O297 C305 1.258 . S
O298 Co273 1.941 1_554 S
O298 C305 1.266 . S
H299 C301 0.959 . S
H300 C301 0.961 . S
C301 C291 1.510 . S
C301 H299 0.959 . S
C301 H300 0.961 . S
C301 H302 0.960 . S
H302 C301 0.960 . S
H303 N283 0.862 . S
O304 Co272 1.920 . S
O304 C277 1.289 . S
C305 O297 1.258 . S
C305 O298 1.266 . S
Co306 O309 1.970 . S
Co306 N323 1.989 . S
Co306 O331 1.967 . S
Co306 O338 1.920 . S
Co307 O310 1.966 . S
Co307 N316 2.022 1_554 S
Co307 N324 1.993 . S
Co307 O332 1.941 . S
C308 O309 1.258 . S
C308 O310 1.263 . S
O309 Co306 1.970 . S
O309 C308 1.258 . S
O310 Co307 1.966 . S
O310 C308 1.263 . S
C311 O312 1.235 . S
C311 O338 1.289 . S
O312 C311 1.235 . S
C313 C315 1.400 . S
C313 N316 1.351 . S
C313 C318 1.501 . S
C314 C315 1.387 . S
C314 N317 1.341 . S
C315 C313 1.400 . S
C315 C314 1.387 . S
N316 Co307 2.022 1_556 S
N316 C313 1.351 . S
N316 N317 1.365 . S
N317 C314 1.341 . S
N317 N316 1.365 . S
N317 H337 0.862 . S
C318 C313 1.501 . S
C318 H319 0.961 . S
C318 H320 0.961 . S
C318 H321 0.960 . S
H319 C318 0.961 . S
H320 C318 0.961 . S
H321 C318 0.960 . S
C322 N323 1.342 . S
C322 C326 1.401 . S
C322 C327 1.499 . S
N323 Co306 1.989 . S
N323 C322 1.342 . S
N323 N324 1.388 . S
N324 Co307 1.993 . S
N324 N323 1.388 . S
N324 C325 1.346 . S
C325 N324 1.346 . S
C325 C326 1.396 . S
C325 C335 1.510 . S
C326 C322 1.401 . S
C326 C325 1.396 . S
C327 C322 1.499 . S
C327 H328 0.959 . S
C327 H329 0.960 . S
C327 H330 0.961 . S
H328 C327 0.959 . S
H329 C327 0.960 . S
H330 C327 0.961 . S
O331 Co306 1.967 . S
O331 C339 1.258 . S
O332 Co307 1.941 . S
O332 C339 1.266 . S
H333 C335 0.959 1_556 S
H334 C335 0.961 1_556 S
C335 C325 1.510 . S
C335 H333 0.959 1_554 S
C335 H334 0.961 1_554 S
C335 H336 0.960 1_554 S
H336 C335 0.960 1_556 S
H337 N317 0.862 . S
O338 Co306 1.920 . S
O338 C311 1.289 . S
C339 O331 1.258 . S
C339 O332 1.266 . S
Co340 O343 1.970 . S
Co340 N357 1.989 . S
Co340 O365 1.967 . S
Co340 O372 1.920 . S
Co341 O344 1.966 . S
Co341 N350 2.022 . S
Co341 N358 1.993 . S
Co341 O366 1.941 . S
C342 O343 1.258 . S
C342 O344 1.263 . S
O343 Co340 1.970 . S
O343 C342 1.258 . S
O344 Co341 1.966 . S
O344 C342 1.263 . S
C345 O346 1.235 . S
C345 O372 1.289 . S
O346 C345 1.235 . S
C347 C349 1.400 1_554 S
C347 N350 1.351 . S
C347 C352 1.501 . S
C348 C349 1.387 1_554 S
C348 N351 1.341 . S
C349 C347 1.400 1_556 S
C349 C348 1.387 1_556 S
N350 Co341 2.022 . S
N350 C347 1.351 . S
N350 N351 1.365 . S
N351 C348 1.341 . S
N351 N350 1.365 . S
N351 H371 0.862 . S
C352 C347 1.501 . S
C352 H353 0.961 . S
C352 H354 0.961 . S
C352 H355 0.960 . S
H353 C352 0.961 . S
H354 C352 0.961 . S
H355 C352 0.960 . S
C356 N357 1.342 . S
C356 C360 1.401 . S
C356 C361 1.499 . S
N357 Co340 1.989 . S
N357 C356 1.342 . S
N357 N358 1.388 . S
N358 Co341 1.993 . S
N358 N357 1.388 . S
N358 C359 1.346 . S
C359 N358 1.346 . S
C359 C360 1.396 . S
C359 C369 1.510 . S
C360 C356 1.401 . S
C360 C359 1.396 . S
C361 C356 1.499 . S
C361 H362 0.959 . S
C361 H363 0.960 . S
C361 H364 0.961 . S
H362 C361 0.959 . S
H363 C361 0.960 . S
H364 C361 0.961 . S
O365 Co340 1.967 . S
O365 C373 1.258 . S
O366 Co341 1.941 . S
O366 C373 1.266 . S
H367 C369 0.959 . S
H368 C369 0.961 . S
C369 C359 1.510 . S
C369 H367 0.959 . S
C369 H368 0.961 . S
C369 H370 0.960 . S
H370 C369 0.960 . S
H371 N351 0.862 . S
O372 Co340 1.920 . S
O372 C345 1.289 . S
C373 O365 1.258 . S
C373 O366 1.266 . S
Co374 O377 1.970 . S
Co374 N391 1.989 . S
Co374 O399 1.967 . S
Co374 O406 1.920 . S
Co375 O378 1.966 . S
Co375 N384 2.022 . S
Co375 N392 1.993 . S
Co375 O400 1.941 . S
C376 O377 1.258 . S
C376 O378 1.263 . S
O377 Co374 1.970 . S
O377 C376 1.258 . S
O378 Co375 1.966 . S
O378 C376 1.263 . S
C379 O380 1.235 . S
C379 O406 1.289 . S
O380 C379 1.235 . S
C381 C383 1.400 . S
C381 N384 1.351 . S
C381 C386 1.501 . S
C382 C383 1.387 . S
C382 N385 1.341 . S
C383 C381 1.400 . S
C383 C382 1.387 . S
N384 Co375 2.022 . S
N384 C381 1.351 . S
N384 N385 1.365 . S
N385 C382 1.341 . S
N385 N384 1.365 . S
N385 H405 0.862 . S
C386 C381 1.501 . S
C386 H387 0.961 . S
C386 H388 0.961 . S
C386 H389 0.960 . S
H387 C386 0.961 . S
H388 C386 0.961 . S
H389 C386 0.960 . S
C390 N391 1.342 . S
C390 C394 1.401 . S
C390 C395 1.499 . S
N391 Co374 1.989 . S
N391 C390 1.342 . S
N391 N392 1.388 . S
N392 Co375 1.993 . S
N392 N391 1.388 . S
N392 C393 1.346 . S
C393 N392 1.346 . S
C393 C394 1.396 . S
C393 C403 1.510 . S
C394 C390 1.401 . S
C394 C393 1.396 . S
C395 C390 1.499 . S
C395 H396 0.959 . S
C395 H397 0.960 . S
C395 H398 0.961 . S
H396 C395 0.959 . S
H397 C395 0.960 . S
H398 C395 0.961 . S
O399 Co374 1.967 . S
O399 C407 1.258 . S
O400 Co375 1.941 . S
O400 C407 1.266 . S
H401 C403 0.959 . S
H402 C403 0.961 . S
C403 C393 1.510 . S
C403 H401 0.959 . S
C403 H402 0.961 . S
C403 H404 0.960 . S
H404 C403 0.960 . S
H405 N385 0.862 . S
O406 Co374 1.920 . S
O406 C379 1.289 . S
C407 O399 1.258 . S
C407 O400 1.266 . S
C408 C409 1.369 . S
C408 C410 1.419 . S
C408 H412 0.930 . S
C409 C408 1.369 . S
C409 C418 1.429 . S
C410 C408 1.419 . S
C410 C411 1.363 . S
C410 H413 0.929 . S
C411 C410 1.363 . S
C411 C417 1.428 . S
H412 C408 0.930 . S
H413 C410 0.929 . S
S414 N415 1.613 . S
S414 N416 1.610 . S
N415 S414 1.613 . S
N415 C418 1.350 . S
N416 S414 1.610 . S
N416 C417 1.351 . S
C417 C411 1.428 . S
C417 N416 1.351 . S
C417 C418 1.434 . S
C418 C409 1.429 . S
C418 N415 1.350 . S
C418 C417 1.434 . S
C419 C420 1.369 . S
C419 C421 1.419 . S
C419 H423 0.930 . S
C420 C419 1.369 . S
C420 C429 1.429 . S
C421 C419 1.419 . S
C421 C422 1.363 . S
C421 H424 0.929 . S
C422 C421 1.363 . S
C422 C428 1.428 . S
H423 C419 0.930 . S
H424 C421 0.929 . S
S425 N426 1.613 . S
S425 N427 1.610 . S
N426 S425 1.613 . S
N426 C429 1.350 . S
N427 S425 1.610 . S
N427 C428 1.351 . S
C428 C422 1.428 . S
C428 N427 1.351 . S
C428 C429 1.434 . S
C429 C420 1.429 . S
C429 N426 1.350 . S
C429 C428 1.434 . S
C430 C431 1.369 . S
C430 C432 1.419 . S
C430 H434 0.930 . S
C431 C430 1.369 . S
C431 C440 1.429 . S
C432 C430 1.419 . S
C432 C433 1.363 1_554 S
C432 H435 0.929 1_554 S
C433 C432 1.363 1_556 S
C433 C439 1.428 . S
H434 C430 0.930 . S
H435 C432 0.929 1_556 S
S436 N437 1.613 1_556 S
S436 N438 1.610 . S
N437 S436 1.613 1_554 S
N437 C440 1.350 . S
N438 S436 1.610 . S
N438 C439 1.351 . S
C439 C433 1.428 . S
C439 N438 1.351 . S
C439 C440 1.434 1_556 S
C440 C431 1.429 . S
C440 N437 1.350 . S
C440 C439 1.434 1_554 S
C441 C442 1.369 . S
C441 C443 1.419 . S
C441 H445 0.930 . S
C442 C441 1.369 . S
C442 C451 1.429 . S
C443 C441 1.419 . S
C443 C444 1.363 . S
C443 H446 0.929 . S
C444 C443 1.363 . S
C444 C450 1.428 . S
H445 C441 0.930 . S
H446 C443 0.929 . S
S447 N448 1.613 . S
S447 N449 1.610 . S
N448 S447 1.613 . S
N448 C451 1.350 . S
N449 S447 1.610 . S
N449 C450 1.351 . S
C450 C444 1.428 . S
C450 N449 1.351 . S
C450 C451 1.434 . S
C451 C442 1.429 . S
C451 N448 1.350 . S
C451 C450 1.434 . S
C452 C453 1.369 . S
C452 C454 1.419 . S
C452 H456 0.930 . S
C453 C452 1.369 . S
C453 C462 1.429 . S
C454 C452 1.419 . S
C454 C455 1.363 . S
C454 H457 0.929 . S
C455 C454 1.363 . S
C455 C461 1.428 . S
H456 C452 0.930 . S
H457 C454 0.929 . S
S458 N459 1.613 . S
S458 N460 1.610 . S
N459 S458 1.613 . S
N459 C462 1.350 . S
N460 S458 1.610 . S
N460 C461 1.351 . S
C461 C455 1.428 . S
C461 N460 1.351 . S
C461 C462 1.434 . S
C462 C453 1.429 . S
C462 N459 1.350 . S
C462 C461 1.434 . S
C463 C464 1.369 . S
C463 C465 1.419 . S
C463 H467 0.930 . S
C464 C463 1.369 . S
C464 C473 1.429 . S
C465 C463 1.419 . S
C465 C466 1.363 . S
C465 H468 0.929 . S
C466 C465 1.363 . S
C466 C472 1.428 . S
H467 C463 0.930 . S
H468 C465 0.929 . S
S469 N470 1.613 . S
S469 N471 1.610 . S
N470 S469 1.613 . S
N470 C473 1.350 . S
N471 S469 1.610 . S
N471 C472 1.351 . S
C472 C466 1.428 . S
C472 N471 1.351 . S
C472 C473 1.434 . S
C473 C464 1.429 . S
C473 N470 1.350 . S
C473 C472 1.434 . S
C474 C475 1.369 . S
C474 C476 1.419 . S
C474 H478 0.930 . S
C475 C474 1.369 . S
C475 C484 1.429 . S
C476 C474 1.419 . S
C476 C477 1.363 . S
C476 H479 0.929 . S
C477 C476 1.363 . S
C477 C483 1.428 . S
H478 C474 0.930 . S
H479 C476 0.929 . S
S480 N481 1.613 . S
S480 N482 1.610 . S
N481 S480 1.613 . S
N481 C484 1.350 . S
N482 S480 1.610 . S
N482 C483 1.351 . S
C483 C477 1.428 . S
C483 N482 1.351 . S
C483 C484 1.434 . S
C484 C475 1.429 . S
C484 N481 1.350 . S
C484 C483 1.434 . S
C485 C486 1.369 . S
C485 C487 1.419 . S
C485 H489 0.930 . S
C486 C485 1.369 . S
C486 C495 1.429 . S
C487 C485 1.419 . S
C487 C488 1.363 . S
C487 H490 0.929 . S
C488 C487 1.363 . S
C488 C494 1.428 . S
H489 C485 0.930 . S
H490 C487 0.929 . S
S491 N492 1.613 . S
S491 N493 1.610 . S
N492 S491 1.613 . S
N492 C495 1.350 . S
N493 S491 1.610 . S
N493 C494 1.351 . S
C494 C488 1.428 . S
C494 N493 1.351 . S
C494 C495 1.434 . S
C495 C486 1.429 . S
C495 N492 1.350 . S
C495 C494 1.434 . S
C496 C497 1.369 . S
C496 C498 1.419 . S
C496 H500 0.930 . S
C497 C496 1.369 . S
C497 C506 1.429 . S
C498 C496 1.419 . S
C498 C499 1.363 . S
C498 H501 0.929 . S
C499 C498 1.363 . S
C499 C505 1.428 . S
H500 C496 0.930 . S
H501 C498 0.929 . S
S502 N503 1.613 . S
S502 N504 1.610 . S
N503 S502 1.613 . S
N503 C506 1.350 . S
N504 S502 1.610 . S
N504 C505 1.351 . S
C505 C499 1.428 . S
C505 N504 1.351 . S
C505 C506 1.434 . S
C506 C497 1.429 . S
C506 N503 1.350 . S
C506 C505 1.434 . S
C507 C508 1.369 . S
C507 C509 1.419 . S
C507 H511 0.930 . S
C508 C507 1.369 . S
C508 C517 1.429 . S
C509 C507 1.419 . S
C509 C510 1.363 . S
C509 H512 0.929 . S
C510 C509 1.363 . S
C510 C516 1.428 . S
H511 C507 0.930 . S
H512 C509 0.929 . S
S513 N514 1.613 . S
S513 N515 1.610 . S
N514 S513 1.613 . S
N514 C517 1.350 . S
N515 S513 1.610 . S
N515 C516 1.351 . S
C516 C510 1.428 . S
C516 N515 1.351 . S
C516 C517 1.434 . S
C517 C508 1.429 . S
C517 N514 1.350 . S
C517 C516 1.434 . S
C518 C519 1.369 . S
C518 C520 1.419 . S
C518 H522 0.930 . S
C519 C518 1.369 . S
C519 C528 1.429 . S
C520 C518 1.419 . S
C520 C521 1.363 . S
C520 H523 0.929 . S
C521 C520 1.363 . S
C521 C527 1.428 . S
H522 C518 0.930 . S
H523 C520 0.929 . S
S524 N525 1.613 . S
S524 N526 1.610 . S
N525 S524 1.613 . S
N525 C528 1.350 . S
N526 S524 1.610 . S
N526 C527 1.351 . S
C527 C521 1.428 . S
C527 N526 1.351 . S
C527 C528 1.434 . S
C528 C519 1.429 . S
C528 N525 1.350 . S
C528 C527 1.434 . S
C529 C530 1.369 . S
C529 C531 1.419 1_556 S
C529 H533 0.930 . S
C530 C529 1.369 . S
C530 C539 1.429 . S
C531 C529 1.419 1_554 S
C531 C532 1.363 . S
C531 H534 0.929 . S
C532 C531 1.363 . S
C532 C538 1.428 . S
H533 C529 0.930 . S
H534 C531 0.929 . S
S535 N536 1.613 . S
S535 N537 1.610 1_556 S
N536 S535 1.613 . S
N536 C539 1.350 . S
N537 S535 1.610 1_554 S
N537 C538 1.351 . S
C538 C532 1.428 . S
C538 N537 1.351 . S
C538 C539 1.434 1_554 S
C539 C530 1.429 . S
C539 N536 1.350 . S
C539 C538 1.434 1_556 S
C540 C541 1.369 . S
C540 C542 1.413 1_556 S
C540 H544 0.930 . S
C541 C540 1.369 . S
C541 C550 1.429 . S
C542 C540 1.413 1_554 S
C542 C543 1.363 . S
C542 H545 0.935 . S
C543 C542 1.363 . S
C543 C549 1.428 1_554 S
H544 C540 0.930 . S
H545 C542 0.935 . S
S546 N547 1.613 . S
S546 N548 1.610 . S
N547 S546 1.613 . S
N547 C550 1.350 . S
N548 S546 1.610 . S
N548 C549 1.351 . S
C549 C543 1.428 1_556 S
C549 N548 1.351 . S
C549 C550 1.434 . S
C550 C541 1.429 . S
C550 N547 1.350 . S
C550 C549 1.434 . S
C551 C552 1.369 . S
C551 C553 1.419 . S
C551 H555 0.930 . S
C552 C551 1.369 . S
C552 C561 1.429 . S
C553 C551 1.419 . S
C553 C554 1.363 . S
C553 H556 0.929 1_554 S
C554 C553 1.363 . S
C554 C560 1.428 . S
H555 C551 0.930 . S
H556 C553 0.929 1_556 S
S557 N558 1.613 . S
S557 N559 1.610 . S
N558 S557 1.613 . S
N558 C561 1.350 . S
N559 S557 1.610 . S
N559 C560 1.351 . S
C560 C554 1.428 . S
C560 N559 1.351 . S
C560 C561 1.434 . S
C561 C552 1.429 . S
C561 N558 1.350 . S
C561 C560 1.434 . S
C562 C563 1.369 . S
C562 C564 1.419 . S
C562 H566 0.930 . S
C563 C562 1.369 . S
C563 C572 1.429 . S
C564 C562 1.419 . S
C564 C565 1.363 . S
C564 H567 0.929 . S
C565 C564 1.363 . S
C565 C571 1.428 . S
H566 C562 0.930 . S
H567 C564 0.929 . S
S568 N569 1.613 . S
S568 N570 1.610 . S
N569 S568 1.613 . S
N569 C572 1.350 . S
N570 S568 1.610 . S
N570 C571 1.351 . S
C571 C565 1.428 . S
C571 N570 1.351 . S
C571 C572 1.434 . S
C572 C563 1.429 . S
C572 N569 1.350 . S
C572 C571 1.434 . S
C573 C574 1.369 . S
C573 C575 1.419 . S
C573 H577 0.930 . S
C574 C573 1.369 . S
C574 C583 1.429 . S
C575 C573 1.419 . S
C575 C576 1.363 . S
C575 H578 0.929 . S
C576 C575 1.363 . S
C576 C582 1.428 . S
H577 C573 0.930 . S
H578 C575 0.929 . S
S579 N580 1.613 . S
S579 N581 1.610 . S
N580 S579 1.613 . S
N580 C583 1.350 . S
N581 S579 1.610 . S
N581 C582 1.351 . S
C582 C576 1.428 . S
C582 N581 1.351 . S
C582 C583 1.434 . S
C583 C574 1.429 . S
C583 N580 1.350 . S
C583 C582 1.434 . S
C584 C585 1.369 . S
C584 C586 1.419 . S
C584 H588 0.930 . S
C585 C584 1.369 . S
C585 C594 1.429 . S
C586 C584 1.419 . S
C586 C587 1.363 . S
C586 H589 0.929 . S
C587 C586 1.363 . S
C587 C593 1.428 . S
H588 C584 0.930 . S
H589 C586 0.929 . S
S590 N591 1.613 . S
S590 N592 1.610 . S
N591 S590 1.613 . S
N591 C594 1.350 . S
N592 S590 1.610 . S
N592 C593 1.351 . S
C593 C587 1.428 . S
C593 N592 1.351 . S
C593 C594 1.434 . S
C594 C585 1.429 . S
C594 N591 1.350 . S
C594 C593 1.434 . S
C595 C596 1.369 . S
C595 C597 1.419 . S
C595 H599 0.930 . S
C596 C595 1.369 . S
C596 C605 1.429 . S
C597 C595 1.419 . S
C597 C598 1.363 . S
C597 H600 0.929 . S
C598 C597 1.363 . S
C598 C604 1.428 . S
H599 C595 0.930 . S
H600 C597 0.929 . S
S601 N602 1.613 . S
S601 N603 1.610 . S
N602 S601 1.613 . S
N602 C605 1.350 . S
N603 S601 1.610 . S
N603 C604 1.351 . S
C604 C598 1.428 . S
C604 N603 1.351 . S
C604 C605 1.434 . S
C605 C596 1.429 . S
C605 N602 1.350 . S
C605 C604 1.434 . S
C606 C607 1.369 . S
C606 C608 1.419 . S
C606 H610 0.930 . S
C607 C606 1.369 . S
C607 C616 1.429 . S
C608 C606 1.419 . S
C608 C609 1.363 . S
C608 H611 0.929 . S
C609 C608 1.363 . S
C609 C615 1.428 . S
H610 C606 0.930 . S
H611 C608 0.929 . S
S612 N613 1.613 . S
S612 N614 1.610 . S
N613 S612 1.613 . S
N613 C616 1.350 . S
N614 S612 1.610 . S
N614 C615 1.351 . S
C615 C609 1.428 . S
C615 N614 1.351 . S
C615 C616 1.434 . S
C616 C607 1.429 . S
C616 N613 1.350 . S
C616 C615 1.434 . S
C617 C618 1.369 . S
C617 C619 1.419 . S
C617 H621 0.930 . S
C618 C617 1.369 . S
C618 C627 1.429 . S
C619 C617 1.419 . S
C619 C620 1.363 . S
C619 H622 0.929 . S
C620 C619 1.363 . S
C620 C626 1.428 . S
H621 C617 0.930 . S
H622 C619 0.929 . S
S623 N624 1.613 . S
S623 N625 1.610 . S
N624 S623 1.613 . S
N624 C627 1.350 . S
N625 S623 1.610 . S
N625 C626 1.351 . S
C626 C620 1.428 . S
C626 N625 1.351 . S
C626 C627 1.434 . S
C627 C618 1.429 . S
C627 N624 1.350 . S
C627 C626 1.434 . S
C628 C629 1.369 . S
C628 C630 1.419 . S
C628 H632 0.930 . S
C629 C628 1.369 . S
C629 C638 1.429 . S
C630 C628 1.419 . S
C630 C631 1.363 . S
C630 H633 0.929 . S
C631 C630 1.363 . S
C631 C637 1.428 . S
H632 C628 0.930 . S
H633 C630 0.929 . S
S634 N635 1.613 . S
S634 N636 1.610 . S
N635 S634 1.613 . S
N635 C638 1.350 . S
N636 S634 1.610 . S
N636 C637 1.351 . S
C637 C631 1.428 . S
C637 N636 1.351 . S
C637 C638 1.434 . S
C638 C629 1.429 . S
C638 N635 1.350 . S
C638 C637 1.434 . S
C639 C640 1.369 . S
C639 C641 1.419 . S
C639 H643 0.930 . S
C640 C639 1.369 . S
C640 C649 1.429 . S
C641 C639 1.419 . S
C641 C642 1.363 . S
C641 H644 0.929 . S
C642 C641 1.363 . S
C642 C648 1.428 . S
H643 C639 0.930 . S
H644 C641 0.929 . S
S645 N646 1.613 . S
S645 N647 1.610 . S
N646 S645 1.613 . S
N646 C649 1.350 . S
N647 S645 1.610 . S
N647 C648 1.351 . S
C648 C642 1.428 . S
C648 N647 1.351 . S
C648 C649 1.434 . S
C649 C640 1.429 . S
C649 N646 1.350 . S
C649 C648 1.434 . S
C650 C651 1.369 1_554 S
C650 C652 1.419 1_554 S
C650 H654 0.930 . S
C651 C650 1.369 1_556 S
C651 C660 1.429 . S
C652 C650 1.419 1_556 S
C652 C653 1.363 . S
C652 H655 0.929 . S
C653 C652 1.363 . S
C653 C659 1.428 . S
H654 C650 0.930 . S
H655 C652 0.929 . S
S656 N657 1.613 . S
S656 N658 1.610 . S
N657 S656 1.613 . S
N657 C660 1.350 . S
N658 S656 1.610 . S
N658 C659 1.351 . S
C659 C653 1.428 . S
C659 N658 1.351 . S
C659 C660 1.434 . S
C660 C651 1.429 . S
C660 N657 1.350 . S
C660 C659 1.434 . S
C661 C662 1.369 . S
C661 C663 1.419 . S
C661 H665 0.930 . S
C662 C661 1.369 . S
C662 C671 1.429 . S
C663 C661 1.419 . S
C663 C664 1.363 . S
C663 H666 0.929 1_554 S
C664 C663 1.363 . S
C664 C670 1.428 . S
H665 C661 0.930 . S
H666 C663 0.929 1_556 S
S667 N668 1.613 . S
S667 N669 1.610 . S
N668 S667 1.613 . S
N668 C671 1.350 . S
N669 S667 1.610 . S
N669 C670 1.351 . S
C670 C664 1.428 . S
C670 N669 1.351 . S
C670 C671 1.434 . S
C671 C662 1.429 . S
C671 N668 1.350 . S
C671 C670 1.434 . S
C672 C673 1.369 . S
C672 C674 1.419 . S
C672 H676 0.930 . S
C673 C672 1.369 . S
C673 C682 1.429 . S
C674 C672 1.419 . S
C674 C675 1.363 . S
C674 H677 0.929 . S
C675 C674 1.363 . S
C675 C681 1.428 . S
H676 C672 0.930 . S
H677 C674 0.929 . S
S678 N679 1.613 . S
S678 N680 1.610 . S
N679 S678 1.613 . S
N679 C682 1.350 . S
N680 S678 1.610 . S
N680 C681 1.351 . S
C681 C675 1.428 . S
C681 N680 1.351 . S
C681 C682 1.434 . S
C682 C673 1.429 . S
C682 N679 1.350 . S
C682 C681 1.434 . S
C683 C684 1.369 . S
C683 C685 1.419 1_655 S
C683 H687 0.930 . S
C684 C683 1.369 . S
C684 C693 1.429 . S
C685 C683 1.419 1_455 S
C685 C686 1.363 . S
C685 H688 0.929 . S
C686 C685 1.363 . S
C686 C692 1.428 . S
H687 C683 0.930 . S
H688 C685 0.929 . S
S689 N690 1.613 . S
S689 N691 1.610 1_655 S
N690 S689 1.613 . S
N690 C693 1.350 . S
N691 S689 1.610 1_455 S
N691 C692 1.351 . S
C692 C686 1.428 . S
C692 N691 1.351 . S
C692 C693 1.434 1_455 S
C693 C684 1.429 . S
C693 N690 1.350 . S
C693 C692 1.434 1_655 S
C694 C695 1.369 . S
C694 C696 1.419 1_545 S
C694 H698 0.930 . S
C695 C694 1.369 . S
C695 C704 1.429 . S
C696 C694 1.419 1_565 S
C696 C697 1.363 . S
C696 H699 0.929 . S
C697 C696 1.363 . S
C697 C703 1.428 . S
H698 C694 0.930 . S
H699 C696 0.929 . S
S700 N701 1.613 . S
S700 N702 1.610 1_545 S
N701 S700 1.613 . S
N701 C704 1.350 . S
N702 S700 1.610 1_565 S
N702 C703 1.351 . S
C703 C697 1.428 . S
C703 N702 1.351 . S
C703 C704 1.434 1_565 S
C704 C695 1.429 . S
C704 N701 1.350 . S
C704 C703 1.434 1_545 S
C705 C706 1.369 . S
C705 C707 1.419 . S
C705 H709 0.930 . S
C706 C705 1.369 . S
C706 C715 1.429 . S
C707 C705 1.419 . S
C707 C708 1.363 . S
C707 H710 0.929 . S
C708 C707 1.363 . S
C708 C714 1.428 . S
H709 C705 0.930 . S
H710 C707 0.929 . S
S711 N712 1.613 . S
S711 N713 1.610 . S
N712 S711 1.613 . S
N712 C715 1.350 . S
N713 S711 1.610 . S
N713 C714 1.351 . S
C714 C708 1.428 . S
C714 N713 1.351 . S
C714 C715 1.434 . S
C715 C706 1.429 . S
C715 N712 1.350 . S
C715 C714 1.434 . S
C716 C717 1.369 . S
C716 C718 1.419 1_455 S
C716 H720 0.930 . S
C717 C716 1.369 . S
C717 C726 1.429 . S
C718 C716 1.419 1_655 S
C718 C719 1.363 . S
C718 H721 0.929 . S
C719 C718 1.363 . S
C719 C725 1.428 . S
H720 C716 0.930 . S
H721 C718 0.929 . S
S722 N723 1.613 1_655 S
S722 N724 1.610 . S
N723 S722 1.613 1_455 S
N723 C726 1.350 . S
N724 S722 1.610 . S
N724 C725 1.351 . S
C725 C719 1.428 . S
C725 N724 1.351 . S
C725 C726 1.434 1_655 S
C726 C717 1.429 . S
C726 N723 1.350 . S
C726 C725 1.434 1_455 S
C727 C728 1.369 . S
C727 C729 1.419 1_545 S
C727 H731 0.930 . S
C728 C727 1.369 . S
C728 C737 1.429 1_556 S
C729 C727 1.419 1_565 S
C729 C730 1.363 1_556 S
C729 H732 0.929 . S
C730 C729 1.363 1_554 S
C730 C736 1.428 . S
H731 C727 0.930 . S
H732 C729 0.929 . S
S733 N734 1.613 . S
S733 N735 1.610 1_545 S
N734 S733 1.613 . S
N734 C737 1.350 . S
N735 S733 1.610 1_565 S
N735 C736 1.351 . S
C736 C730 1.428 . S
C736 N735 1.351 . S
C736 C737 1.434 1_565 S
C737 C728 1.429 1_554 S
C737 N734 1.350 . S
C737 C736 1.434 1_545 S
C409 C9 1.351 . S
C411 C5 1.313 . S
C420 C39 1.316 1_556 S
C422 C43 1.349 . S
C431 C73 1.316 . S
C433 C77 1.348 . S
C442 C111 1.348 . S
C444 C107 1.308 . S
C453 C145 1.347 . S
C455 C141 1.314 . S
C464 C175 1.306 . S
C466 C179 1.351 . S
C475 C213 1.347 . S
C477 C209 1.309 1_554 S
C486 C247 1.351 . S
C488 C243 1.313 . S
C497 C277 1.313 . S
C499 C281 1.347 . S
C508 C315 1.351 . S
C510 C311 1.307 . S
C519 C349 1.347 . S
C521 C345 1.314 . S
C530 C379 1.308 . S
C532 C383 1.352 . S
C541 C237 1.702 . S
C543 C33 1.695 . S
C552 C67 1.702 . S
C554 C271 1.695 1_554 S
C563 C305 1.695 . S
C565 C101 1.700 . S
C574 C339 1.701 . S
C576 C135 1.696 . S
C585 C373 1.702 . S
C587 C169 1.695 . S
C596 C407 1.700 . S
C598 C203 1.697 . S
C607 C20 1.616 . S
C609 C360 1.619 . S
C618 C54 1.616 . S
C620 C394 1.621 . S
C629 C88 1.616 . S
C631 C224 1.621 . S
C640 C258 1.615 . S
C642 C122 1.620 . S
C651 C292 1.617 1_556 S
C653 C156 1.620 . S
C662 C326 1.620 . S
C664 C190 1.618 1_554 S
C673 C2 1.579 . S
C675 C308 1.578 . S
C684 C36 1.578 . S
C686 C342 1.578 . S
C695 C376 1.578 . S
C697 C70 1.580 . S
C706 C104 1.579 . S
C708 C206 1.579 . S
C717 C138 1.579 . S
C719 C240 1.578 . S
C728 C172 1.578 . S
C730 C274 1.579 . S
