# Generated by pormake.
# Topology umx, (4)-cn, num edge types: 1
# Building blocks:
#     Node 0, Type 0, BuildingBlock: NAWXER_clean_sbu_0, # of connection points: 4
#     Node 1, Type 0, BuildingBlock: NAWXER_clean_sbu_0, # of connection points: 4
#     Node 2, Type 0, BuildingBlock: NAWXER_clean_sbu_0, # of connection points: 4
#     Node 3, Type 0, BuildingBlock: NAWXER_clean_sbu_0, # of connection points: 4
#     Node 4, Type 0, BuildingBlock: NAWXER_clean_sbu_0, # of connection points: 4
#     Node 5, Type 0, BuildingBlock: NAWXER_clean_sbu_0, # of connection points: 4
#     Node 6, Type 0, BuildingBlock: NAWXER_clean_sbu_0, # of connection points: 4
#     Node 7, Type 0, BuildingBlock: NAWXER_clean_sbu_0, # of connection points: 4
#     Edge 8, Type (0, 0), BuildingBlock: CIFDUS_clean_linker_0, # of connection points: 2
#     Edge 9, Type (0, 0), BuildingBlock: CIFDUS_clean_linker_0, # of connection points: 2
#     Edge 10, Type (0, 0), BuildingBlock: CIFDUS_clean_linker_0, # of connection points: 2
#     Edge 11, Type (0, 0), BuildingBlock: CIFDUS_clean_linker_0, # of connection points: 2
#     Edge 12, Type (0, 0), BuildingBlock: CIFDUS_clean_linker_0, # of connection points: 2
#     Edge 13, Type (0, 0), BuildingBlock: CIFDUS_clean_linker_0, # of connection points: 2
#     Edge 14, Type (0, 0), BuildingBlock: CIFDUS_clean_linker_0, # of connection points: 2
#     Edge 15, Type (0, 0), BuildingBlock: CIFDUS_clean_linker_0, # of connection points: 2
#     Edge 16, Type (0, 0), BuildingBlock: CIFDUS_clean_linker_0, # of connection points: 2
#     Edge 17, Type (0, 0), BuildingBlock: CIFDUS_clean_linker_0, # of connection points: 2
#     Edge 18, Type (0, 0), BuildingBlock: CIFDUS_clean_linker_0, # of connection points: 2
#     Edge 19, Type (0, 0), BuildingBlock: CIFDUS_clean_linker_0, # of connection points: 2
#     Edge 20, Type (0, 0), BuildingBlock: CIFDUS_clean_linker_0, # of connection points: 2
#     Edge 21, Type (0, 0), BuildingBlock: CIFDUS_clean_linker_0, # of connection points: 2
#     Edge 22, Type (0, 0), BuildingBlock: CIFDUS_clean_linker_0, # of connection points: 2
#     Edge 23, Type (0, 0), BuildingBlock: CIFDUS_clean_linker_0, # of connection points: 2
# Relax obj value: 0.027
# Max RMSD: 0.221
# Mean RMSD: 0.220
data_MOF--net-umx--node1-NAWXER_clean_sbu_0--edge1-CIFDUS_clean_linker_0
_symmetry_space_group_name_H-M    P1
_symmetry_Int_Tables_number       1
_symmetry_cell_setting            triclinic
loop_
_symmetry_equiv_pos_as_xyz
'x, y, z'
_cell_length_a     34.169721
_cell_length_b     34.532833
_cell_length_c     25.410484
_cell_angle_alpha  94.868259
_cell_angle_beta   95.323494
_cell_angle_gamma 90.102502
loop_
_atom_site_label
_atom_site_type_symbol
_atom_site_fract_x
_atom_site_fract_y
_atom_site_fract_z
_atom_type_partial_charge
C0 C 0.22039 0.3675 0.02848 0.0
C1 C 0.09695 0.43468 0.01991 0.0
O2 O 0.18528 0.3549 0.02131 0.0
Zn3 Zn 0.15991 0.40284 0.02278 0.0
O4 O 0.22703 0.4044 0.03342 0.0
Zn5 Zn 0.18945 0.4561 0.03384 0.0
O6 O 0.20284 0.48148 0.10471 0.0
O7 O 0.17296 0.42488 0.1048 0.0
O8 O 0.12554 0.45936 0.02735 0.0
O9 O 0.10432 0.39873 0.0144 0.0
O10 O 0.17456 0.42512 0.95036 0.0
O11 O 0.20336 0.48196 0.97262 0.0
C12 C 0.18928 0.45523 0.13038 0.0
C13 C 0.19093 0.45574 0.93683 0.0
C14 C 0.50112 0.1906 0.42926 0.0
C15 C 0.50929 0.20936 0.61977 0.0
O16 O 0.47834 0.2089 0.45899 0.0
Zn17 Zn 0.50762 0.20044 0.52436 0.0
O18 O 0.53176 0.17399 0.44977 0.0
Zn19 Zn 0.55756 0.16692 0.52949 0.0
O20 O 0.55712 0.1126 0.53285 0.0
O21 O 0.49799 0.13819 0.5295 0.0
O22 O 0.53784 0.18835 0.6048 0.0
O23 O 0.48536 0.22334 0.58542 0.0
O24 O 0.56309 0.23228 0.5212 0.0
O25 O 0.60831 0.1873 0.53016 0.0
C26 C 0.5203 0.10835 0.53252 0.0
C27 C 0.59943 0.22223 0.52365 0.0
C28 C 0.88653 0.53174 0.04123 0.0
C29 C 0.75894 0.59166 0.04415 0.0
O30 O 0.85879 0.50631 0.03093 0.0
Zn31 Zn 0.7951 0.50617 0.02482 0.0
O32 O 0.878 0.56712 0.0515 0.0
Zn33 Zn 0.82213 0.56053 0.04318 0.0
O34 O 0.80987 0.5306 0.11067 0.0
O35 O 0.78314 0.47408 0.07963 0.0
O36 O 0.79318 0.60643 0.05279 0.0
O37 O 0.75478 0.55482 0.03277 0.0
O38 O 0.7826 0.48507 0.95313 0.0
O39 O 0.80983 0.54353 0.95949 0.0
C40 C 0.79501 0.49776 0.11881 0.0
C41 C 0.79495 0.51372 0.93095 0.0
C42 C 0.47383 0.79376 0.44439 0.0
C43 C 0.49004 0.79363 0.63704 0.0
O44 O 0.44594 0.81209 0.46589 0.0
Zn45 Zn 0.43005 0.82584 0.54602 0.0
O46 O 0.49992 0.77733 0.4734 0.0
Zn47 Zn 0.48 0.79247 0.54058 0.0
O48 O 0.42478 0.7592 0.53896 0.0
O49 O 0.37967 0.8045 0.54452 0.0
O50 O 0.51123 0.77802 0.60283 0.0
O51 O 0.45889 0.8118 0.62155 0.0
O52 O 0.43037 0.88084 0.55206 0.0
O53 O 0.48905 0.85536 0.54588 0.0
C54 C 0.38851 0.76888 0.54068 0.0
C55 C 0.46694 0.88535 0.54981 0.0
C56 C 0.19157 0.51049 0.44368 0.0
C57 C 0.19789 0.51245 0.63838 0.0
O58 O 0.1786 0.5421 0.46572 0.0
Zn59 Zn 0.16947 0.56607 0.54489 0.0
O60 O 0.20324 0.48362 0.47246 0.0
Zn61 Zn 0.19458 0.51093 0.54079 0.0
O62 O 0.13079 0.51173 0.53726 0.0
O63 O 0.11412 0.57344 0.54205 0.0
O64 O 0.2083 0.48542 0.60558 0.0
O65 O 0.18355 0.54368 0.62088 0.0
O66 O 0.19938 0.61215 0.55066 0.0
O67 O 0.2363 0.55984 0.54603 0.0
C68 C 0.10411 0.5379 0.53827 0.0
C69 C 0.23311 0.59708 0.54911 0.0
C70 C 0.40644 0.22961 0.01687 0.0
C71 C 0.46724 0.10436 1.00528 0.0
O72 O 0.44395 0.23481 0.02337 0.0
Zn73 Zn 0.49404 0.1947 0.02239 0.0
O74 O 0.3926 0.19554 1.00649 0.0
Zn75 Zn 0.43962 0.16834 1.008 0.0
O76 O 0.46284 0.17705 0.09116 0.0
O77 O 0.52092 0.20521 0.0906 0.0
O78 O 0.43161 0.11386 0.9969 0.0
O79 O 0.49384 0.13106 0.01496 0.0
O80 O 0.52343 0.2085 0.9667 0.0
O81 O 0.46531 0.18322 0.93779 0.0
C82 C 0.4948 0.19127 0.11609 0.0
C83 C 0.49812 0.19819 0.92855 0.0
C84 C 0.80134 0.47005 0.61893 0.0
C85 C 0.79354 0.48016 0.42902 0.0
O86 O 0.79015 0.49859 0.59316 0.0
Zn87 Zn 0.79802 0.47474 0.5241 0.0
O88 O 0.81372 0.43917 0.59424 0.0
Zn89 Zn 0.82196 0.41945 0.51306 0.0
O90 O 0.87729 0.41132 0.51434 0.0
O91 O 0.86161 0.47312 0.52612 0.0
O92 O 0.80787 0.44747 0.4413 0.0
O93 O 0.78364 0.50474 0.46527 0.0
O94 O 0.75541 0.42689 0.51454 0.0
O95 O 0.79059 0.37401 0.50197 0.0
C96 C 0.88784 0.44672 0.52183 0.0
C97 C 0.75742 0.38972 0.5065 0.0
C98 C 0.61179 0.76884 0.05712 0.0
C99 C 0.55016 0.89301 0.05137 0.0
O100 O 0.62543 0.8028 0.05608 0.0
Zn101 Zn 0.57804 0.82933 0.05347 0.0
O102 O 0.57434 0.76336 0.05417 0.0
Zn103 Zn 0.52371 0.80305 0.04978 0.0
O104 O 0.49412 0.78657 0.98411 0.0
O105 O 0.55079 0.81391 0.97318 0.0
O106 O 0.52341 0.86645 0.04836 0.0
O107 O 0.58595 0.88354 0.05616 0.0
O108 O 0.55746 0.8204 0.13009 0.0
O109 O 0.49819 0.79472 0.11234 0.0
C110 C 0.51811 0.79793 0.95333 0.0
C111 C 0.52603 0.80691 0.14618 0.0
H112 H 0.19506 0.52195 0.19664 0.0
H113 H 0.18845 0.39721 0.19646 0.0
H114 H 0.19041 0.40287 0.29317 0.0
H115 H 0.19229 0.44339 0.37824 0.0
H116 H 0.19427 0.56825 0.37763 0.0
H117 H 0.19586 0.56243 0.28144 0.0
C118 C 0.19432 0.49602 0.21784 0.0
C119 C 0.19176 0.45922 0.18929 0.0
C120 C 0.19447 0.49951 0.27354 0.0
C121 C 0.19031 0.42592 0.21738 0.0
C122 C 0.19147 0.42912 0.27276 0.0
C123 C 0.19327 0.46928 0.35704 0.0
C124 C 0.19323 0.50618 0.38522 0.0
C125 C 0.19329 0.46577 0.30133 0.0
C126 C 0.19409 0.53946 0.35699 0.0
C127 C 0.19508 0.53619 0.3019 0.0
H128 H 0.56196 0.20249 0.70488 0.0
H129 H 0.43974 0.22538 0.6606 0.0
H130 H 0.42534 0.22415 0.75274 0.0
H131 H 0.44683 0.21264 0.84509 0.0
H132 H 0.5696 0.19353 0.89026 0.0
H133 H 0.58451 0.19714 0.79855 0.0
C134 C 0.53228 0.20759 0.71558 0.0
C135 C 0.50193 0.2137 0.67612 0.0
C136 C 0.52426 0.20716 0.76862 0.0
C137 C 0.46365 0.22072 0.69041 0.0
C138 C 0.45531 0.21977 0.74299 0.0
C139 C 0.4768 0.20937 0.83469 0.0
C140 C 0.50701 0.20237 0.87386 0.0
C141 C 0.48526 0.21232 0.78224 0.0
C142 C 0.54589 0.19888 0.86047 0.0
C143 C 0.55442 0.20087 0.80814 0.0
H144 H 0.79162 0.42977 0.34088 0.0
H145 H 0.78851 0.55202 0.39223 0.0
H146 H 0.7883 0.56816 0.30047 0.0
H147 H 0.79161 0.54763 0.20618 0.0
H148 H 0.79163 0.42544 0.15402 0.0
H149 H 0.79033 0.40911 0.24569 0.0
C150 C 0.79074 0.45993 0.33191 0.0
C151 C 0.7904 0.48967 0.37325 0.0
C152 C 0.79021 0.46898 0.27905 0.0
C153 C 0.78874 0.5286 0.36107 0.0
C154 C 0.78878 0.53786 0.30866 0.0
C155 C 0.79129 0.51743 0.21492 0.0
C156 C 0.79213 0.48777 0.17361 0.0
C157 C 0.78996 0.50831 0.26745 0.0
C158 C 0.79103 0.44876 0.18526 0.0
C159 C 0.79038 0.43943 0.23761 0.0
H160 H 0.56661 0.79363 0.87349 0.0
H161 H 0.44434 0.79611 0.90327 0.0
H162 H 0.42483 0.79524 0.80836 0.0
H163 H 0.44235 0.79544 0.71677 0.0
H164 H 0.56415 0.78813 0.68568 0.0
H165 H 0.58399 0.78904 0.78085 0.0
C166 C 0.53573 0.79385 0.85907 0.0
C167 C 0.507 0.79515 0.89539 0.0
C168 C 0.52461 0.79252 0.80416 0.0
C169 C 0.46706 0.79497 0.87615 0.0
C170 C 0.45584 0.79462 0.82186 0.0
C171 C 0.47322 0.79397 0.73089 0.0
C172 C 0.50175 0.79203 0.69436 0.0
C173 C 0.48434 0.79366 0.78552 0.0
C174 C 0.54162 0.78957 0.71308 0.0
C175 C 0.55299 0.79022 0.7675 0.0
H176 H 0.79739 0.53459 0.68718 0.0
H177 H 0.80096 0.40935 0.68054 0.0
H178 H 0.79714 0.41179 0.77621 0.0
H179 H 0.79389 0.44947 0.86194 0.0
H180 H 0.79443 0.57475 0.86966 0.0
H181 H 0.7953 0.57237 0.77332 0.0
C182 C 0.79722 0.50786 0.7067 0.0
C183 C 0.7994 0.47187 0.67687 0.0
C184 C 0.79568 0.50948 0.76184 0.0
C185 C 0.79952 0.43745 0.7027 0.0
C186 C 0.7972 0.4388 0.75736 0.0
C187 C 0.79386 0.47622 0.84243 0.0
C188 C 0.79385 0.51221 0.87267 0.0
C189 C 0.79537 0.47464 0.78732 0.0
C190 C 0.79446 0.54668 0.8471 0.0
C191 C 0.79496 0.54535 0.79208 0.0
H192 H 0.4592 0.80314 0.19608 0.0
H193 H 0.58564 0.80493 0.225 0.0
H194 H 0.58064 0.79854 0.31923 0.0
H195 H 0.54031 0.79302 0.39373 0.0
H196 H 0.414 0.79648 0.36613 0.0
H197 H 0.41887 0.79994 0.27111 0.0
C198 C 0.48564 0.80211 0.22304 0.0
C199 C 0.52274 0.80439 0.20352 0.0
C200 C 0.48254 0.79919 0.27737 0.0
C201 C 0.55673 0.80342 0.23903 0.0
C202 C 0.5539 0.7996 0.29289 0.0
C203 C 0.51388 0.79416 0.36677 0.0
C204 C 0.47683 0.79404 0.38672 0.0
C205 C 0.51697 0.79743 0.31251 0.0
C206 C 0.44283 0.79639 0.3516 0.0
C207 C 0.44561 0.79842 0.29733 0.0
H208 H 0.20023 0.52266 0.88873 0.0
H209 H 0.19007 0.39821 0.85649 0.0
H210 H 0.19412 0.40434 0.76213 0.0
H211 H 0.19792 0.44519 0.68772 0.0
H212 H 0.20337 0.56988 0.71913 0.0
H213 H 0.20402 0.56355 0.81426 0.0
C214 C 0.19919 0.49689 0.86108 0.0
C215 C 0.19488 0.46004 0.8798 0.0
C216 C 0.20062 0.50067 0.80645 0.0
C217 C 0.19318 0.42697 0.84325 0.0
C218 C 0.19556 0.43042 0.78918 0.0
C219 C 0.19967 0.47093 0.71546 0.0
C220 C 0.20076 0.50794 0.69626 0.0
C221 C 0.19893 0.46713 0.77018 0.0
C222 C 0.20243 0.54103 0.73276 0.0
C223 C 0.20279 0.53745 0.78725 0.0
H224 H 0.55423 0.18588 0.35704 0.0
H225 H 0.42979 0.19345 0.3724 0.0
H226 H 0.41648 0.19286 0.27602 0.0
H227 H 0.4406 0.19133 0.18754 0.0
H228 H 0.5655 0.18891 0.17366 0.0
H229 H 0.57836 0.18641 0.26938 0.0
C230 C 0.52422 0.18712 0.33915 0.0
C231 C 0.49301 0.18942 0.37136 0.0
C232 C 0.51693 0.18788 0.28412 0.0
C233 C 0.45425 0.1917 0.34809 0.0
C234 C 0.44665 0.19133 0.29312 0.0
C235 C 0.47057 0.19014 0.20561 0.0
C236 C 0.50204 0.19021 0.17386 0.0
C237 C 0.47779 0.18962 0.26077 0.0
C238 C 0.54081 0.18911 0.19753 0.0
C239 C 0.54819 0.18755 0.25215 0.0
H240 H 0.91411 0.45979 0.01466 0.0
H241 H 0.95235 0.57754 0.06439 0.0
H242 H 0.02084 0.55825 0.06079 0.0
H243 H 0.06997 0.50772 0.04418 0.0
H244 H 0.03101 0.39007 0.99485 0.0
H245 H 0.96279 0.40973 0.99739 0.0
C246 C 0.93738 0.48127 0.02482 0.0
C247 C 0.92806 0.52 0.03988 0.0
C248 C 0.97664 0.47006 0.02257 0.0
C249 C 0.95866 0.54747 0.05272 0.0
C250 C -0.00214 0.5365 0.05062 0.0
C251 C 0.04655 0.48645 0.03371 0.0
C252 C 0.05566 0.4475 0.01939 0.0
C253 C 0.00721 0.49786 0.03558 0.0
C254 C 0.02491 0.42025 1.00615 0.0
C255 C 0.98582 0.43142 1.00762 0.0
H256 H 0.42665 0.95292 0.54766 0.0
H257 H 0.54407 0.90652 0.55012 0.0
H258 H 0.57068 0.97167 0.54527 0.0
H259 H 0.56049 0.04114 0.53872 0.0
H260 H 0.44311 0.08769 0.53512 0.0
H261 H 0.41651 0.02271 0.54188 0.0
C262 C 0.45811 0.95701 0.54741 0.0
C263 C 0.48336 0.92488 0.54928 0.0
C264 C 0.47314 -0.00558 0.54415 0.0
C265 C 0.524 0.93073 0.54872 0.0
C266 C 0.53923 0.96795 0.54586 0.0
C267 C 0.52905 0.03719 0.53941 0.0
C268 C 0.50379 0.06924 0.53631 0.0
C269 C 0.51403 -0.0001 0.54324 0.0
C270 C 0.46318 0.06351 0.53733 0.0
C271 C 0.44797 0.02639 0.54126 0.0
H272 H 0.07226 0.465 0.5298 0.0
H273 H 0.04126 0.58642 0.54095 0.0
H274 H 0.97189 0.56894 0.5374 0.0
H275 H 0.9199 0.51937 0.53102 0.0
H276 H 0.95063 0.39791 0.51934 0.0
H277 H 0.02013 0.41533 0.52332 0.0
C278 C 0.05035 0.48765 0.53143 0.0
C279 C 0.06203 0.52694 0.53562 0.0
C280 C 0.01039 0.47744 0.52934 0.0
C281 C 0.03318 0.55591 0.53768 0.0
C282 C 0.99343 0.54597 0.5357 0.0
C283 C 0.94177 0.49668 0.52944 0.0
C284 C 0.93 0.45742 0.52492 0.0
C285 C 0.98171 0.50685 0.53155 0.0
C286 C 0.9588 0.42841 0.52279 0.0
C287 C -0.0014 0.43831 0.52505 0.0
H288 H 0.47973 0.92289 0.01626 0.0
H289 H 0.59859 0.95574 0.07615 0.0
H290 H 0.58401 0.02372 0.06505 0.0
H291 H 0.53766 0.07404 0.0386 0.0
H292 H 0.4188 0.04152 0.97831 0.0
H293 H 0.43342 0.97337 0.98877 0.0
C294 C 0.50231 0.94498 0.02722 0.0
C295 C 0.54009 0.93426 0.04713 0.0
C296 C 0.49391 0.98411 0.02022 0.0
C297 C 0.56921 0.96318 0.06067 0.0
C298 C 0.56097 0.0021 0.05426 0.0
C299 C 0.51505 0.05203 0.02731 0.0
C300 C 0.47726 0.0629 1.00769 0.0
C301 C 0.52349 0.01289 0.03386 0.0
C302 C 0.4482 0.03398 0.99356 0.0
C303 C 0.45646 -0.00503 0.99967 0.0
H304 H 0.29968 0.37966 0.02346 0.0
H305 H 0.2133 0.29106 0.04072 0.0
H306 H 0.2637 0.24197 0.04106 0.0
H307 H 0.33064 0.22313 0.03287 0.0
H308 H 0.4194 0.30863 0.01448 0.0
H309 H 0.36976 0.36013 0.01879 0.0
C310 C 0.29209 0.34965 0.02761 0.0
C311 C 0.25264 0.33908 0.03148 0.0
C312 C 0.32148 0.32102 0.02744 0.0
C313 C 0.24324 0.30007 0.037 0.0
C314 C 0.27206 0.27185 0.03733 0.0
C315 C 0.33937 0.253 0.02969 0.0
C316 C 0.37851 0.262 0.02263 0.0
C317 C 0.311 0.2819 0.03185 0.0
C318 C 0.38934 0.30098 0.01972 0.0
C319 C 0.36096 0.33033 0.02203 0.0
H320 H 0.75465 0.31159 0.49381 0.0
H321 H 0.68102 0.41162 0.51874 0.0
H322 H 0.62453 0.36874 0.52454 0.0
H323 H 0.59704 0.30208 0.52636 0.0
H324 H 0.67381 0.20383 0.50426 0.0
H325 H 0.72794 0.24691 0.49375 0.0
C326 C 0.72625 0.32423 0.5002 0.0
C327 C 0.72214 0.36474 0.50596 0.0
C328 C 0.6944 0.29963 0.50442 0.0
C329 C 0.68501 0.38045 0.51415 0.0
C330 C 0.65274 0.35595 0.51764 0.0
C331 C 0.6256 0.29024 0.5191 0.0
C332 C 0.63131 0.24978 0.51658 0.0
C333 C 0.65721 0.31539 0.51349 0.0
C334 C 0.66852 0.23483 0.50704 0.0
C335 C 0.69962 0.25942 0.5008 0.0
H336 H 0.75863 0.66354 0.09284 0.0
H337 H 0.68232 0.57745 1.00271 0.0
H338 H 0.62785 0.62383 1.00218 0.0
H339 H 0.60386 0.69132 0.02192 0.0
H340 H 0.68324 0.7758 0.11046 0.0
H341 H 0.7344 0.72747 0.11731 0.0
C342 C 0.73007 0.65474 0.07314 0.0
C343 C 0.72464 0.61741 0.04719 0.0
C344 C 0.69941 0.68139 0.07264 0.0
C345 C 0.68724 0.60622 0.02279 0.0
C346 C 0.65617 0.63275 0.02236 0.0
C347 C 0.63221 0.69878 0.0432 0.0
C348 C 0.63998 0.73716 0.06496 0.0
C349 C 0.66213 0.67076 0.04636 0.0
C350 C 0.67678 0.74661 0.09255 0.0
C351 C 0.70609 0.71901 0.09663 0.0
H352 H 0.39374 0.68989 0.54953 0.0
H353 H 0.31065 0.78271 0.52717 0.0
H354 H 0.25639 0.73785 0.52822 0.0
H355 H 0.23184 0.67356 0.53706 0.0
H356 H 0.31195 0.57856 0.55836 0.0
H357 H 0.36795 0.62298 0.55621 0.0
C358 C 0.36375 0.70011 0.5446 0.0
C359 C 0.35646 0.73974 0.53866 0.0
C360 C 0.33209 0.67392 0.54536 0.0
C361 C 0.31736 0.75253 0.53229 0.0
C362 C 0.28612 0.72689 0.53285 0.0
C363 C 0.2615 0.66235 0.54147 0.0
C364 C 0.26768 0.62286 0.54832 0.0
C365 C 0.29313 0.68774 0.53981 0.0
C366 C 0.30639 0.60894 0.55324 0.0
C367 C 0.33838 0.63431 0.55196 0.0
loop_
_geom_bond_atom_site_label_1
_geom_bond_atom_site_label_2
_geom_bond_distance
_geom_bond_site_symmetry_2
_ccdc_geom_bond_type
C0 O2 1.247 . S
C0 O4 1.258 . S
C1 O8 1.247 . S
C1 O9 1.258 . S
O2 C0 1.247 . S
O2 Zn3 2.028 . S
Zn3 O2 2.028 . S
Zn3 O7 2.035 . S
Zn3 O9 2.035 . S
Zn3 O10 2.028 1_554 S
O4 C0 1.258 . S
O4 Zn5 2.035 . S
Zn5 O4 2.035 . S
Zn5 O6 2.028 . S
Zn5 O8 2.028 . S
Zn5 O11 2.035 1_554 S
O6 Zn5 2.028 . S
O6 C12 1.247 . S
O7 Zn3 2.035 . S
O7 C12 1.258 . S
O8 C1 1.247 . S
O8 Zn5 2.028 . S
O9 C1 1.258 . S
O9 Zn3 2.035 . S
O10 Zn3 2.028 1_556 S
O10 C13 1.247 . S
O11 Zn5 2.035 1_556 S
O11 C13 1.258 . S
C12 O6 1.247 . S
C12 O7 1.258 . S
C13 O10 1.247 . S
C13 O11 1.258 . S
C14 O16 1.247 . S
C14 O18 1.258 . S
C15 O22 1.247 . S
C15 O23 1.258 . S
O16 C14 1.247 . S
O16 Zn17 2.028 . S
Zn17 O16 2.028 . S
Zn17 O21 2.035 . S
Zn17 O23 2.035 . S
Zn17 O24 2.028 . S
O18 C14 1.258 . S
O18 Zn19 2.035 . S
Zn19 O18 2.035 . S
Zn19 O20 2.028 . S
Zn19 O22 2.028 . S
Zn19 O25 2.035 . S
O20 Zn19 2.028 . S
O20 C26 1.247 . S
O21 Zn17 2.035 . S
O21 C26 1.258 . S
O22 C15 1.247 . S
O22 Zn19 2.028 . S
O23 C15 1.258 . S
O23 Zn17 2.035 . S
O24 Zn17 2.028 . S
O24 C27 1.247 . S
O25 Zn19 2.035 . S
O25 C27 1.258 . S
C26 O20 1.247 . S
C26 O21 1.258 . S
C27 O24 1.247 . S
C27 O25 1.258 . S
C28 O30 1.247 . S
C28 O32 1.258 . S
C29 O36 1.247 . S
C29 O37 1.258 . S
O30 C28 1.247 . S
O30 Zn31 2.028 . S
Zn31 O30 2.028 . S
Zn31 O35 2.035 . S
Zn31 O37 2.035 . S
Zn31 O38 2.028 1_554 S
O32 C28 1.258 . S
O32 Zn33 2.035 . S
Zn33 O32 2.035 . S
Zn33 O34 2.028 . S
Zn33 O36 2.028 . S
Zn33 O39 2.035 1_554 S
O34 Zn33 2.028 . S
O34 C40 1.247 . S
O35 Zn31 2.035 . S
O35 C40 1.258 . S
O36 C29 1.247 . S
O36 Zn33 2.028 . S
O37 C29 1.258 . S
O37 Zn31 2.035 . S
O38 Zn31 2.028 1_556 S
O38 C41 1.247 . S
O39 Zn33 2.035 1_556 S
O39 C41 1.258 . S
C40 O34 1.247 . S
C40 O35 1.258 . S
C41 O38 1.247 . S
C41 O39 1.258 . S
C42 O44 1.247 . S
C42 O46 1.258 . S
C43 O50 1.247 . S
C43 O51 1.258 . S
O44 C42 1.247 . S
O44 Zn45 2.028 . S
Zn45 O44 2.028 . S
Zn45 O49 2.035 . S
Zn45 O51 2.035 . S
Zn45 O52 2.028 . S
O46 C42 1.258 . S
O46 Zn47 2.035 . S
Zn47 O46 2.035 . S
Zn47 O48 2.028 . S
Zn47 O50 2.028 . S
Zn47 O53 2.035 . S
O48 Zn47 2.028 . S
O48 C54 1.247 . S
O49 Zn45 2.035 . S
O49 C54 1.258 . S
O50 C43 1.247 . S
O50 Zn47 2.028 . S
O51 C43 1.258 . S
O51 Zn45 2.035 . S
O52 Zn45 2.028 . S
O52 C55 1.247 . S
O53 Zn47 2.035 . S
O53 C55 1.258 . S
C54 O48 1.247 . S
C54 O49 1.258 . S
C55 O52 1.247 . S
C55 O53 1.258 . S
C56 O58 1.247 . S
C56 O60 1.258 . S
C57 O64 1.247 . S
C57 O65 1.258 . S
O58 C56 1.247 . S
O58 Zn59 2.028 . S
Zn59 O58 2.028 . S
Zn59 O63 2.035 . S
Zn59 O65 2.035 . S
Zn59 O66 2.028 . S
O60 C56 1.258 . S
O60 Zn61 2.035 . S
Zn61 O60 2.035 . S
Zn61 O62 2.028 . S
Zn61 O64 2.028 . S
Zn61 O67 2.035 . S
O62 Zn61 2.028 . S
O62 C68 1.247 . S
O63 Zn59 2.035 . S
O63 C68 1.258 . S
O64 C57 1.247 . S
O64 Zn61 2.028 . S
O65 C57 1.258 . S
O65 Zn59 2.035 . S
O66 Zn59 2.028 . S
O66 C69 1.247 . S
O67 Zn61 2.035 . S
O67 C69 1.258 . S
C68 O62 1.247 . S
C68 O63 1.258 . S
C69 O66 1.247 . S
C69 O67 1.258 . S
C70 O72 1.247 . S
C70 O74 1.258 . S
C71 O78 1.247 . S
C71 O79 1.258 . S
O72 C70 1.247 . S
O72 Zn73 2.028 . S
Zn73 O72 2.028 . S
Zn73 O77 2.035 . S
Zn73 O79 2.035 . S
Zn73 O80 2.028 1_554 S
O74 C70 1.258 . S
O74 Zn75 2.035 . S
Zn75 O74 2.035 . S
Zn75 O76 2.028 . S
Zn75 O78 2.028 . S
Zn75 O81 2.035 1_554 S
O76 Zn75 2.028 . S
O76 C82 1.247 . S
O77 Zn73 2.035 . S
O77 C82 1.258 . S
O78 C71 1.247 . S
O78 Zn75 2.028 . S
O79 C71 1.258 . S
O79 Zn73 2.035 . S
O80 Zn73 2.028 1_556 S
O80 C83 1.247 . S
O81 Zn75 2.035 1_556 S
O81 C83 1.258 . S
C82 O76 1.247 . S
C82 O77 1.258 . S
C83 O80 1.247 . S
C83 O81 1.258 . S
C84 O86 1.247 . S
C84 O88 1.258 . S
C85 O92 1.247 . S
C85 O93 1.258 . S
O86 C84 1.247 . S
O86 Zn87 2.028 . S
Zn87 O86 2.028 . S
Zn87 O91 2.035 . S
Zn87 O93 2.035 . S
Zn87 O94 2.028 . S
O88 C84 1.258 . S
O88 Zn89 2.035 . S
Zn89 O88 2.035 . S
Zn89 O90 2.028 . S
Zn89 O92 2.028 . S
Zn89 O95 2.035 . S
O90 Zn89 2.028 . S
O90 C96 1.247 . S
O91 Zn87 2.035 . S
O91 C96 1.258 . S
O92 C85 1.247 . S
O92 Zn89 2.028 . S
O93 C85 1.258 . S
O93 Zn87 2.035 . S
O94 Zn87 2.028 . S
O94 C97 1.247 . S
O95 Zn89 2.035 . S
O95 C97 1.258 . S
C96 O90 1.247 . S
C96 O91 1.258 . S
C97 O94 1.247 . S
C97 O95 1.258 . S
C98 O100 1.247 . S
C98 O102 1.258 . S
C99 O106 1.247 . S
C99 O107 1.258 . S
O100 C98 1.247 . S
O100 Zn101 2.028 . S
Zn101 O100 2.028 . S
Zn101 O105 2.035 1_554 S
Zn101 O107 2.035 . S
Zn101 O108 2.028 . S
O102 C98 1.258 . S
O102 Zn103 2.035 . S
Zn103 O102 2.035 . S
Zn103 O104 2.028 1_554 S
Zn103 O106 2.028 . S
Zn103 O109 2.035 . S
O104 Zn103 2.028 1_556 S
O104 C110 1.247 . S
O105 Zn101 2.035 1_556 S
O105 C110 1.258 . S
O106 C99 1.247 . S
O106 Zn103 2.028 . S
O107 C99 1.258 . S
O107 Zn101 2.035 . S
O108 Zn101 2.028 . S
O108 C111 1.247 . S
O109 Zn103 2.035 . S
O109 C111 1.258 . S
C110 O104 1.247 . S
C110 O105 1.258 . S
C111 O108 1.247 . S
C111 O109 1.258 . S
H112 C118 0.930 . S
H113 C121 0.930 . S
H114 C122 0.930 . S
H115 C123 0.930 . S
H116 C126 0.930 . S
H117 C127 0.930 . S
C118 H112 0.930 . S
C118 C119 1.355 . S
C118 C120 1.415 . S
C119 C118 1.355 . S
C119 C121 1.419 . S
C120 C118 1.415 . S
C120 C125 1.425 . S
C120 C127 1.409 . S
C121 H113 0.930 . S
C121 C119 1.419 . S
C121 C122 1.362 . S
C122 H114 0.930 . S
C122 C121 1.362 . S
C122 C125 1.409 . S
C123 H115 0.930 . S
C123 C124 1.355 . S
C123 C125 1.415 . S
C124 C123 1.355 . S
C124 C126 1.419 . S
C125 C120 1.425 . S
C125 C122 1.409 . S
C125 C123 1.415 . S
C126 H116 0.930 . S
C126 C124 1.419 . S
C126 C127 1.362 . S
C127 H117 0.930 . S
C127 C120 1.409 . S
C127 C126 1.362 . S
H128 C134 0.930 . S
H129 C137 0.930 . S
H130 C138 0.930 . S
H131 C139 0.930 . S
H132 C142 0.930 . S
H133 C143 0.930 . S
C134 H128 0.930 . S
C134 C135 1.355 . S
C134 C136 1.415 . S
C135 C134 1.355 . S
C135 C137 1.419 . S
C136 C134 1.415 . S
C136 C141 1.425 . S
C136 C143 1.409 . S
C137 H129 0.930 . S
C137 C135 1.419 . S
C137 C138 1.362 . S
C138 H130 0.930 . S
C138 C137 1.362 . S
C138 C141 1.409 . S
C139 H131 0.930 . S
C139 C140 1.355 . S
C139 C141 1.415 . S
C140 C139 1.355 . S
C140 C142 1.419 . S
C141 C136 1.425 . S
C141 C138 1.409 . S
C141 C139 1.415 . S
C142 H132 0.930 . S
C142 C140 1.419 . S
C142 C143 1.362 . S
C143 H133 0.930 . S
C143 C136 1.409 . S
C143 C142 1.362 . S
H144 C150 0.930 . S
H145 C153 0.930 . S
H146 C154 0.930 . S
H147 C155 0.930 . S
H148 C158 0.930 . S
H149 C159 0.930 . S
C150 H144 0.930 . S
C150 C151 1.355 . S
C150 C152 1.415 . S
C151 C150 1.355 . S
C151 C153 1.419 . S
C152 C150 1.415 . S
C152 C157 1.425 . S
C152 C159 1.409 . S
C153 H145 0.930 . S
C153 C151 1.419 . S
C153 C154 1.362 . S
C154 H146 0.930 . S
C154 C153 1.362 . S
C154 C157 1.409 . S
C155 H147 0.930 . S
C155 C156 1.355 . S
C155 C157 1.415 . S
C156 C155 1.355 . S
C156 C158 1.419 . S
C157 C152 1.425 . S
C157 C154 1.409 . S
C157 C155 1.415 . S
C158 H148 0.930 . S
C158 C156 1.419 . S
C158 C159 1.362 . S
C159 H149 0.930 . S
C159 C152 1.409 . S
C159 C158 1.362 . S
H160 C166 0.930 . S
H161 C169 0.930 . S
H162 C170 0.930 . S
H163 C171 0.930 . S
H164 C174 0.930 . S
H165 C175 0.930 . S
C166 H160 0.930 . S
C166 C167 1.355 . S
C166 C168 1.415 . S
C167 C166 1.355 . S
C167 C169 1.419 . S
C168 C166 1.415 . S
C168 C173 1.425 . S
C168 C175 1.409 . S
C169 H161 0.930 . S
C169 C167 1.419 . S
C169 C170 1.362 . S
C170 H162 0.930 . S
C170 C169 1.362 . S
C170 C173 1.409 . S
C171 H163 0.930 . S
C171 C172 1.355 . S
C171 C173 1.415 . S
C172 C171 1.355 . S
C172 C174 1.419 . S
C173 C168 1.425 . S
C173 C170 1.409 . S
C173 C171 1.415 . S
C174 H164 0.930 . S
C174 C172 1.419 . S
C174 C175 1.362 . S
C175 H165 0.930 . S
C175 C168 1.409 . S
C175 C174 1.362 . S
H176 C182 0.930 . S
H177 C185 0.930 . S
H178 C186 0.930 . S
H179 C187 0.930 . S
H180 C190 0.930 . S
H181 C191 0.930 . S
C182 H176 0.930 . S
C182 C183 1.355 . S
C182 C184 1.415 . S
C183 C182 1.355 . S
C183 C185 1.419 . S
C184 C182 1.415 . S
C184 C189 1.425 . S
C184 C191 1.409 . S
C185 H177 0.930 . S
C185 C183 1.419 . S
C185 C186 1.362 . S
C186 H178 0.930 . S
C186 C185 1.362 . S
C186 C189 1.409 . S
C187 H179 0.930 . S
C187 C188 1.355 . S
C187 C189 1.415 . S
C188 C187 1.355 . S
C188 C190 1.419 . S
C189 C184 1.425 . S
C189 C186 1.409 . S
C189 C187 1.415 . S
C190 H180 0.930 . S
C190 C188 1.419 . S
C190 C191 1.362 . S
C191 H181 0.930 . S
C191 C184 1.409 . S
C191 C190 1.362 . S
H192 C198 0.930 . S
H193 C201 0.930 . S
H194 C202 0.930 . S
H195 C203 0.930 . S
H196 C206 0.930 . S
H197 C207 0.930 . S
C198 H192 0.930 . S
C198 C199 1.355 . S
C198 C200 1.415 . S
C199 C198 1.355 . S
C199 C201 1.419 . S
C200 C198 1.415 . S
C200 C205 1.425 . S
C200 C207 1.409 . S
C201 H193 0.930 . S
C201 C199 1.419 . S
C201 C202 1.362 . S
C202 H194 0.930 . S
C202 C201 1.362 . S
C202 C205 1.409 . S
C203 H195 0.930 . S
C203 C204 1.355 . S
C203 C205 1.415 . S
C204 C203 1.355 . S
C204 C206 1.419 . S
C205 C200 1.425 . S
C205 C202 1.409 . S
C205 C203 1.415 . S
C206 H196 0.930 . S
C206 C204 1.419 . S
C206 C207 1.362 . S
C207 H197 0.930 . S
C207 C200 1.409 . S
C207 C206 1.362 . S
H208 C214 0.930 . S
H209 C217 0.930 . S
H210 C218 0.930 . S
H211 C219 0.930 . S
H212 C222 0.930 . S
H213 C223 0.930 . S
C214 H208 0.930 . S
C214 C215 1.355 . S
C214 C216 1.415 . S
C215 C214 1.355 . S
C215 C217 1.419 . S
C216 C214 1.415 . S
C216 C221 1.425 . S
C216 C223 1.409 . S
C217 H209 0.930 . S
C217 C215 1.419 . S
C217 C218 1.362 . S
C218 H210 0.930 . S
C218 C217 1.362 . S
C218 C221 1.409 . S
C219 H211 0.930 . S
C219 C220 1.355 . S
C219 C221 1.415 . S
C220 C219 1.355 . S
C220 C222 1.419 . S
C221 C216 1.425 . S
C221 C218 1.409 . S
C221 C219 1.415 . S
C222 H212 0.930 . S
C222 C220 1.419 . S
C222 C223 1.362 . S
C223 H213 0.930 . S
C223 C216 1.409 . S
C223 C222 1.362 . S
H224 C230 0.930 . S
H225 C233 0.930 . S
H226 C234 0.930 . S
H227 C235 0.930 . S
H228 C238 0.930 . S
H229 C239 0.930 . S
C230 H224 0.930 . S
C230 C231 1.355 . S
C230 C232 1.415 . S
C231 C230 1.355 . S
C231 C233 1.419 . S
C232 C230 1.415 . S
C232 C237 1.425 . S
C232 C239 1.409 . S
C233 H225 0.930 . S
C233 C231 1.419 . S
C233 C234 1.362 . S
C234 H226 0.930 . S
C234 C233 1.362 . S
C234 C237 1.409 . S
C235 H227 0.930 . S
C235 C236 1.355 . S
C235 C237 1.415 . S
C236 C235 1.355 . S
C236 C238 1.419 . S
C237 C232 1.425 . S
C237 C234 1.409 . S
C237 C235 1.415 . S
C238 H228 0.930 . S
C238 C236 1.419 . S
C238 C239 1.362 . S
C239 H229 0.930 . S
C239 C232 1.409 . S
C239 C238 1.362 . S
H240 C246 0.930 . S
H241 C249 0.930 . S
H242 C250 0.930 . S
H243 C251 0.930 . S
H244 C254 0.930 . S
H245 C255 0.930 . S
C246 H240 0.930 . S
C246 C247 1.355 1_556 S
C246 C248 1.414 . S
C247 C246 1.355 1_554 S
C247 C249 1.419 . S
C248 C246 1.414 . S
C248 C253 1.417 1_656 S
C248 C255 1.417 1_655 S
C249 H241 0.930 . S
C249 C247 1.419 . S
C249 C250 1.362 . S
C250 H242 0.930 . S
C250 C249 1.362 . S
C250 C253 1.409 1_655 S
C251 H243 0.930 . S
C251 C252 1.355 . S
C251 C253 1.415 . S
C252 C251 1.355 . S
C252 C254 1.419 1_554 S
C253 C248 1.417 1_454 S
C253 C250 1.409 1_455 S
C253 C251 1.415 . S
C254 H244 0.930 . S
C254 C252 1.419 1_556 S
C254 C255 1.362 . S
C255 H245 0.930 . S
C255 C248 1.417 1_455 S
C255 C254 1.362 . S
H256 C262 0.930 . S
H257 C265 0.930 . S
H258 C266 0.930 1_545 S
H259 C267 0.930 . S
H260 C270 0.930 . S
H261 C271 0.930 1_565 S
C262 H256 0.930 . S
C262 C263 1.355 . S
C262 C264 1.415 . S
C263 C262 1.355 . S
C263 C265 1.419 . S
C264 C262 1.415 . S
C264 C269 1.425 1_565 S
C264 C271 1.409 1_565 S
C265 H257 0.930 . S
C265 C263 1.419 . S
C265 C266 1.362 . S
C266 H258 0.930 1_565 S
C266 C265 1.362 . S
C266 C269 1.409 1_565 S
C267 H259 0.930 . S
C267 C268 1.355 . S
C267 C269 1.415 . S
C268 C267 1.355 . S
C268 C270 1.419 . S
C269 C264 1.425 1_545 S
C269 C266 1.409 1_545 S
C269 C267 1.415 . S
C270 H260 0.930 . S
C270 C268 1.419 . S
C270 C271 1.362 . S
C271 H261 0.930 1_545 S
C271 C264 1.409 1_545 S
C271 C270 1.362 . S
H272 C278 0.930 . S
H273 C281 0.930 . S
H274 C282 0.930 . S
H275 C283 0.930 . S
H276 C286 0.930 . S
H277 C287 0.930 . S
C278 H272 0.930 . S
C278 C279 1.355 . S
C278 C280 1.415 . S
C279 C278 1.355 . S
C279 C281 1.419 . S
C280 C278 1.415 . S
C280 C285 1.425 1_455 S
C280 C287 1.409 1_455 S
C281 H273 0.930 . S
C281 C279 1.419 . S
C281 C282 1.362 . S
C282 H274 0.930 . S
C282 C281 1.362 . S
C282 C285 1.409 1_455 S
C283 H275 0.930 . S
C283 C284 1.355 . S
C283 C285 1.415 . S
C284 C283 1.355 . S
C284 C286 1.419 . S
C285 C280 1.425 1_655 S
C285 C282 1.409 1_655 S
C285 C283 1.415 . S
C286 H276 0.930 . S
C286 C284 1.419 . S
C286 C287 1.362 . S
C287 H277 0.930 . S
C287 C280 1.409 1_655 S
C287 C286 1.362 . S
H288 C294 0.930 . S
H289 C297 0.930 . S
H290 C298 0.930 . S
H291 C299 0.930 . S
H292 C302 0.930 . S
H293 C303 0.930 . S
C294 H288 0.930 . S
C294 C295 1.355 1_556 S
C294 C296 1.415 . S
C295 C294 1.355 1_554 S
C295 C297 1.419 . S
C296 C294 1.415 . S
C296 C301 1.425 1_566 S
C296 C303 1.409 1_565 S
C297 H289 0.930 . S
C297 C295 1.419 . S
C297 C298 1.362 . S
C298 H290 0.930 . S
C298 C297 1.362 . S
C298 C301 1.409 1_565 S
C299 H291 0.930 . S
C299 C300 1.355 . S
C299 C301 1.415 . S
C300 C299 1.355 . S
C300 C302 1.419 1_554 S
C301 C296 1.425 1_544 S
C301 C298 1.409 1_545 S
C301 C299 1.415 . S
C302 H292 0.930 . S
C302 C300 1.419 1_556 S
C302 C303 1.362 . S
C303 H293 0.930 . S
C303 C296 1.409 1_545 S
C303 C302 1.362 . S
H304 C310 0.930 . S
H305 C313 0.930 . S
H306 C314 0.930 . S
H307 C315 0.930 . S
H308 C318 0.931 . S
H309 C319 0.930 . S
C310 H304 0.930 . S
C310 C311 1.355 1_556 S
C310 C312 1.413 1_556 S
C311 C310 1.355 1_554 S
C311 C313 1.419 . S
C312 C310 1.413 1_554 S
C312 C317 1.430 . S
C312 C319 1.406 1_554 S
C313 H305 0.930 . S
C313 C311 1.419 . S
C313 C314 1.362 . S
C314 H306 0.930 . S
C314 C313 1.362 . S
C314 C317 1.409 . S
C315 H307 0.930 . S
C315 C316 1.355 . S
C315 C317 1.415 . S
C316 C315 1.355 . S
C316 C318 1.418 1_554 S
C317 C312 1.430 . S
C317 C314 1.409 . S
C317 C315 1.415 . S
C318 H308 0.931 . S
C318 C316 1.418 1_556 S
C318 C319 1.363 . S
C319 H309 0.930 . S
C319 C312 1.406 1_556 S
C319 C318 1.363 . S
H320 C326 0.930 . S
H321 C329 0.930 . S
H322 C330 0.930 . S
H323 C331 0.930 . S
H324 C334 0.930 . S
H325 C335 0.930 . S
C326 H320 0.930 . S
C326 C327 1.355 . S
C326 C328 1.415 . S
C327 C326 1.355 . S
C327 C329 1.419 . S
C328 C326 1.415 . S
C328 C333 1.425 . S
C328 C335 1.409 . S
C329 H321 0.930 . S
C329 C327 1.419 . S
C329 C330 1.362 . S
C330 H322 0.930 . S
C330 C329 1.362 . S
C330 C333 1.409 . S
C331 H323 0.930 . S
C331 C332 1.355 . S
C331 C333 1.415 . S
C332 C331 1.355 . S
C332 C334 1.419 . S
C333 C328 1.425 . S
C333 C330 1.409 . S
C333 C331 1.415 . S
C334 H324 0.930 . S
C334 C332 1.419 . S
C334 C335 1.362 . S
C335 H325 0.930 . S
C335 C328 1.409 . S
C335 C334 1.362 . S
H336 C342 0.930 . S
H337 C345 0.930 . S
H338 C346 0.930 . S
H339 C347 0.927 . S
H340 C350 0.930 . S
H341 C351 0.930 . S
C342 H336 0.930 . S
C342 C343 1.355 . S
C342 C344 1.415 . S
C343 C342 1.355 . S
C343 C345 1.419 1_554 S
C344 C342 1.415 . S
C344 C349 1.425 . S
C344 C351 1.409 . S
C345 H337 0.930 . S
C345 C343 1.419 1_556 S
C345 C346 1.362 . S
C346 H338 0.930 . S
C346 C345 1.362 . S
C346 C349 1.409 1_556 S
C347 H339 0.927 . S
C347 C348 1.356 1_556 S
C347 C349 1.415 1_556 S
C348 C347 1.356 1_554 S
C348 C350 1.419 . S
C349 C344 1.425 . S
C349 C346 1.409 1_554 S
C349 C347 1.415 1_554 S
C350 H340 0.930 . S
C350 C348 1.419 . S
C350 C351 1.362 . S
C351 H341 0.930 . S
C351 C344 1.409 . S
C351 C350 1.362 . S
H352 C358 0.930 . S
H353 C361 0.930 . S
H354 C362 0.930 . S
H355 C363 0.930 . S
H356 C366 0.930 . S
H357 C367 0.930 . S
C358 H352 0.930 . S
C358 C359 1.355 . S
C358 C360 1.415 . S
C359 C358 1.355 . S
C359 C361 1.419 . S
C360 C358 1.415 . S
C360 C365 1.425 . S
C360 C367 1.409 . S
C361 H353 0.930 . S
C361 C359 1.419 . S
C361 C362 1.362 . S
C362 H354 0.930 . S
C362 C361 1.362 . S
C362 C365 1.409 . S
C363 H355 0.930 . S
C363 C364 1.355 . S
C363 C365 1.415 . S
C364 C363 1.355 . S
C364 C366 1.419 . S
C365 C360 1.425 . S
C365 C362 1.409 . S
C365 C363 1.415 . S
C366 H356 0.930 . S
C366 C364 1.419 . S
C366 C367 1.362 . S
C367 H357 0.930 . S
C367 C360 1.409 . S
C367 C366 1.362 . S
C119 C12 1.540 . S
C124 C56 1.541 . S
C135 C15 1.552 . S
C140 C83 1.539 . S
C151 C85 1.555 . S
C156 C40 1.546 . S
C167 C110 1.533 . S
C172 C43 1.521 . S
C183 C84 1.533 . S
C188 C41 1.534 . S
C199 C111 1.558 . S
C204 C42 1.562 . S
C215 C13 1.559 . S
C220 C57 1.562 . S
C231 C14 1.515 . S
C236 C82 1.528 . S
C247 C28 1.936 . S
C252 C1 1.936 . S
C263 C55 1.966 . S
C268 C26 1.966 . S
C279 C68 1.925 . S
C284 C96 1.921 . S
C295 C99 1.925 . S
C300 C71 1.921 . S
C311 C0 1.855 . S
C316 C70 1.890 . S
C327 C97 1.886 . S
C332 C27 1.850 . S
C343 C29 1.877 . S
C348 C98 1.868 . S
C359 C54 1.849 . S
C364 C69 1.881 . S
