# Generated by pormake.
# Topology msp, (4)-cn, num edge types: 1
# Building blocks:
#     Node 0, Type 0, BuildingBlock: NAWXER_clean_sbu_0, # of connection points: 4
#     Node 1, Type 0, BuildingBlock: NAWXER_clean_sbu_0, # of connection points: 4
#     Node 2, Type 0, BuildingBlock: NAWXER_clean_sbu_0, # of connection points: 4
#     Node 3, Type 0, BuildingBlock: NAWXER_clean_sbu_0, # of connection points: 4
#     Node 4, Type 0, BuildingBlock: NAWXER_clean_sbu_0, # of connection points: 4
#     Node 5, Type 0, BuildingBlock: NAWXER_clean_sbu_0, # of connection points: 4
#     Node 6, Type 0, BuildingBlock: NAWXER_clean_sbu_0, # of connection points: 4
#     Node 7, Type 0, BuildingBlock: NAWXER_clean_sbu_0, # of connection points: 4
#     Edge 8, Type (0, 0), BuildingBlock: FUNLAD_clean_linker_0, # of connection points: 2
#     Edge 9, Type (0, 0), BuildingBlock: FUNLAD_clean_linker_0, # of connection points: 2
#     Edge 10, Type (0, 0), BuildingBlock: FUNLAD_clean_linker_0, # of connection points: 2
#     Edge 11, Type (0, 0), BuildingBlock: FUNLAD_clean_linker_0, # of connection points: 2
#     Edge 12, Type (0, 0), BuildingBlock: FUNLAD_clean_linker_0, # of connection points: 2
#     Edge 13, Type (0, 0), BuildingBlock: FUNLAD_clean_linker_0, # of connection points: 2
#     Edge 14, Type (0, 0), BuildingBlock: FUNLAD_clean_linker_0, # of connection points: 2
#     Edge 15, Type (0, 0), BuildingBlock: FUNLAD_clean_linker_0, # of connection points: 2
#     Edge 16, Type (0, 0), BuildingBlock: FUNLAD_clean_linker_0, # of connection points: 2
#     Edge 17, Type (0, 0), BuildingBlock: FUNLAD_clean_linker_0, # of connection points: 2
#     Edge 18, Type (0, 0), BuildingBlock: FUNLAD_clean_linker_0, # of connection points: 2
#     Edge 19, Type (0, 0), BuildingBlock: FUNLAD_clean_linker_0, # of connection points: 2
#     Edge 20, Type (0, 0), BuildingBlock: FUNLAD_clean_linker_0, # of connection points: 2
#     Edge 21, Type (0, 0), BuildingBlock: FUNLAD_clean_linker_0, # of connection points: 2
#     Edge 22, Type (0, 0), BuildingBlock: FUNLAD_clean_linker_0, # of connection points: 2
#     Edge 23, Type (0, 0), BuildingBlock: FUNLAD_clean_linker_0, # of connection points: 2
# Relax obj value: 0.113
# Max RMSD: 0.238
# Mean RMSD: 0.238
data_MOF--net-msp--node1-NAWXER_clean_sbu_0--edge1-FUNLAD_clean_linker_0
_symmetry_space_group_name_H-M    P1
_symmetry_Int_Tables_number       1
_symmetry_cell_setting            triclinic
loop_
_symmetry_equiv_pos_as_xyz
'x, y, z'
_cell_length_a     26.678492
_cell_length_b     22.564497
_cell_length_c     51.777799
_cell_angle_alpha  89.847074
_cell_angle_beta   100.30984
_cell_angle_gamma 90.043743
loop_
_atom_site_label
_atom_site_type_symbol
_atom_site_fract_x
_atom_site_fract_y
_atom_site_fract_z
_atom_type_partial_charge
C0 C 0.10635 0.24404 0.39209 0.0
C1 C 0.94781 0.26006 0.33015 0.0
O2 O 0.1012 0.29575 0.38143 0.0
Zn3 Zn 0.04454 0.34098 0.35224 0.0
O4 O 0.07231 0.20491 0.38534 0.0
Zn5 Zn 0.02833 0.25408 0.36131 0.0
O6 O 0.073 0.2639 0.33026 0.0
O7 O 0.0826 0.36004 0.32535 0.0
O8 O 0.96577 0.21783 0.34513 0.0
O9 O 0.97305 0.30862 0.33073 0.0
O10 O 0.02637 0.40681 0.372 0.0
O11 O 0.00819 0.32066 0.38817 0.0
C12 C 0.09116 0.30741 0.31878 0.0
C13 C 0.01039 0.37745 0.38982 0.0
C14 C 0.3972 0.31596 0.6776 0.0
C15 C 0.48437 0.40763 0.6128 0.0
O16 O 0.42037 0.27726 0.66589 0.0
Zn17 Zn 0.47008 0.27805 0.63701 0.0
O18 O 0.40262 0.37061 0.67289 0.0
Zn19 Zn 0.44655 0.36164 0.64754 0.0
O20 O 0.39692 0.31714 0.61553 0.0
O21 O 0.43199 0.23054 0.60979 0.0
O22 O 0.4635 0.43256 0.63012 0.0
O23 O 0.49021 0.35113 0.61352 0.0
O24 O 0.53324 0.24526 0.65472 0.0
O25 O 0.51753 0.33227 0.67062 0.0
C26 C 0.39637 0.2679 0.60308 0.0
C27 C 0.54617 0.28644 0.67115 0.0
C28 C 0.9054 0.68549 0.67206 0.0
C29 C 0.99166 0.60149 0.60584 0.0
O30 O 0.91035 0.63189 0.66568 0.0
Zn31 Zn 0.95511 0.64453 0.64132 0.0
O32 O 0.92998 0.726 0.66204 0.0
Zn33 Zn 0.98205 0.72752 0.63394 0.0
O34 O 0.94928 0.78193 0.60863 0.0
O35 O 0.90797 0.69731 0.6103 0.0
O36 O -0.0002 0.65754 0.60799 0.0
O37 O 0.9693 0.57549 0.62233 0.0
O38 O 0.02732 0.66642 0.66587 0.0
O39 O 0.04544 0.75518 0.65261 0.0
C40 C 0.91159 0.74879 0.60001 0.0
C41 C 0.05735 0.71129 0.66767 0.0
C42 C 0.43768 0.74866 0.33628 0.0
C43 C 0.58943 0.77716 0.40149 0.0
O44 O 0.45165 0.79176 0.35147 0.0
Zn45 Zn 0.51526 0.761 0.3689 0.0
O46 O 0.46619 0.70258 0.33746 0.0
Zn47 Zn 0.53855 0.67648 0.3605 0.0
O48 O 0.52329 0.6082 0.38 0.0
O49 O 0.49715 0.69169 0.39506 0.0
O50 O 0.58958 0.72597 0.39064 0.0
O51 O 0.55291 0.81285 0.39404 0.0
O52 O 0.56341 0.75722 0.3391 0.0
O53 O 0.58048 0.6626 0.33478 0.0
C54 C 0.50339 0.63533 0.39708 0.0
C55 C 0.58567 0.71615 0.32822 0.0
C56 C 0.60247 0.83886 0.81672 0.0
C57 C 0.51905 0.91141 0.88662 0.0
O58 O 0.58278 0.79614 0.82797 0.0
Zn59 Zn 0.53625 0.78776 0.85811 0.0
O60 O 0.59448 0.89186 0.82303 0.0
Zn61 Zn 0.55471 0.87446 0.84957 0.0
O62 O 0.60908 0.82781 0.87928 0.0
O63 O 0.57795 0.73788 0.88272 0.0
O64 O 0.53724 0.94073 0.86947 0.0
O65 O 0.51557 0.85477 0.88452 0.0
O66 O 0.47363 0.7531 0.84128 0.0
O67 O 0.48248 0.84448 0.82789 0.0
C68 C 0.61251 0.77613 0.88998 0.0
C69 C 0.45634 0.79648 0.82686 0.0
C70 C 0.89392 0.7966 0.1777 0.0
C71 C 0.97961 0.87233 0.109 0.0
O72 O 0.9149 0.7545 0.16681 0.0
Zn73 Zn 0.96216 0.74752 0.13688 0.0
O74 O 0.9005 0.8498 0.17104 0.0
Zn75 Zn 0.94215 0.83366 0.14527 0.0
O76 O 0.88985 0.78713 0.11486 0.0
O77 O 0.92148 0.69741 0.11188 0.0
O78 O 0.96041 0.90073 0.12598 0.0
O79 O 0.98349 0.81566 0.11092 0.0
O80 O 0.02471 0.7136 0.15432 0.0
O81 O 0.01342 0.80393 0.16812 0.0
C82 C 0.88717 0.73566 0.1041 0.0
C83 C 0.04027 0.75648 0.16937 0.0
C84 C 0.48458 0.11742 0.10438 0.0
C85 C 0.40225 0.18463 0.17543 0.0
O86 O 0.46711 0.08727 0.12149 0.0
Zn87 Zn 0.4494 0.1522 0.14206 0.0
O88 O 0.48765 0.17399 0.10683 0.0
Zn89 Zn 0.46749 0.23904 0.13409 0.0
O90 O 0.52993 0.27355 0.15113 0.0
O91 O 0.52093 0.18238 0.16466 0.0
O92 O 0.4214 0.22843 0.16458 0.0
O93 O 0.41036 0.13217 0.16842 0.0
O94 O 0.39347 0.20056 0.11353 0.0
O95 O 0.42559 0.29012 0.11024 0.0
C96 C 0.54682 0.2306 0.16591 0.0
C97 C 0.39011 0.2528 0.10336 0.0
C98 C 0.94432 0.21073 0.83385 0.0
C99 C 0.09403 0.24779 0.89957 0.0
O100 O 0.95537 0.25355 0.84958 0.0
Zn101 Zn 0.02022 0.22683 0.86729 0.0
O102 O 0.97534 0.16694 0.83489 0.0
Zn103 Zn 0.04853 0.14493 0.85838 0.0
O104 O 0.03665 0.07455 0.87762 0.0
O105 O 0.00541 0.15495 0.89275 0.0
O106 O 0.09699 0.1973 0.88849 0.0
O107 O 0.05497 0.28017 0.89276 0.0
O108 O 0.06905 0.22876 0.83781 0.0
O109 O 0.09174 0.13616 0.83276 0.0
C110 C 0.0146 0.09911 0.89456 0.0
C111 C 0.09401 0.19057 0.82677 0.0
C112 C 0.99398 0.37539 0.43611 0.0
C113 C 0.00052 0.40801 0.41376 0.0
C114 C 0.99149 0.40415 0.45978 0.0
C115 C 0.99559 0.46632 0.46164 0.0
C116 C -0.00037 0.49891 0.43896 0.0
C117 C 0.00237 0.47019 0.41536 0.0
C118 C 0.99544 0.49903 0.48662 0.0
C119 C 0.00854 0.47459 0.51071 0.0
C120 C 0.00821 0.50795 0.53547 0.0
C121 C -0.00036 0.47685 0.55779 0.0
C122 C 0.99628 0.50691 0.58101 0.0
C123 C 0.00227 0.56879 0.58258 0.0
H124 H 0.02509 0.59485 0.52092 0.0
C125 C 0.01358 0.59959 0.56068 0.0
C126 C 0.01648 0.56956 0.53736 0.0
H127 H 0.01859 0.64724 0.56123 0.0
H128 H 0.99219 0.32744 0.43555 0.0
H129 H 0.98643 0.37736 0.47647 0.0
H130 H 0.00213 0.54683 0.43966 0.0
H131 H 0.00721 0.49677 0.39853 0.0
H132 H 0.98512 0.5456 0.48491 0.0
H133 H 0.0186 0.42801 0.51262 0.0
H134 H 0.99391 0.4293 0.55703 0.0
H135 H 0.98776 0.48174 0.59754 0.0
C136 C 0.48292 0.63519 0.44257 0.0
C137 C 0.49373 0.60354 0.42085 0.0
C138 C 0.48074 0.60615 0.46628 0.0
C139 C 0.48935 0.54466 0.4688 0.0
C140 C 0.49763 0.51274 0.44669 0.0
C141 C 0.50013 0.54179 0.42305 0.0
C142 C 0.48965 0.51196 0.49389 0.0
C143 C 0.49962 0.53739 0.51785 0.0
C144 C 0.50012 0.50389 0.54275 0.0
C145 C 0.48888 0.53394 0.56474 0.0
C146 C 0.48604 0.50331 0.58799 0.0
C147 C 0.49507 0.44192 0.58987 0.0
H148 H 0.52262 0.41866 0.52899 0.0
C149 C 0.50918 0.41248 0.56835 0.0
C150 C 0.51173 0.44304 0.54508 0.0
H151 H 0.51675 0.36529 0.56914 0.0
H152 H 0.4776 0.68278 0.44155 0.0
H153 H 0.47236 0.63219 0.48249 0.0
H154 H 0.50367 0.46526 0.4479 0.0
H155 H 0.50835 0.51595 0.40671 0.0
H156 H 0.48249 0.46462 0.49238 0.0
H157 H 0.50648 0.58475 0.51952 0.0
H158 H 0.4806 0.58098 0.56367 0.0
H159 H 0.47523 0.52747 0.60419 0.0
C160 C 0.50523 0.12232 0.05896 0.0
C161 C 0.49585 0.08829 0.08039 0.0
C162 C 0.50977 0.0952 0.0352 0.0
C163 C 0.50497 0.03328 0.03232 0.0
C164 C 0.49795 0.99919 0.05413 0.0
C165 C 0.49312 0.0263 0.07782 0.0
C166 C 0.50755 1.00244 0.00716 0.0
C167 C 0.49625 0.02861 0.98335 0.0
C168 C 0.49868 0.99747 0.95825 0.0
C169 C 0.5067 0.03101 0.93646 0.0
C170 C 0.51148 0.00336 0.91287 0.0
C171 C 0.50765 0.94141 0.91039 0.0
H172 H 0.48457 0.90834 0.97137 0.0
C173 C 0.49721 0.90802 0.93178 0.0
C174 C 0.49273 0.93566 0.95543 0.0
H175 H 0.49376 0.86024 0.93054 0.0
H176 H 0.50781 0.17016 0.06029 0.0
H177 H 0.51709 0.12301 0.01924 0.0
H178 H 0.49482 0.95139 0.05264 0.0
H179 H 0.48612 0.99866 0.09394 0.0
H180 H 0.51809 0.95594 0.0085 0.0
H181 H 0.48582 0.07513 0.98196 0.0
H182 H 0.5107 0.07874 0.93791 0.0
H183 H 0.51933 0.0305 0.89677 0.0
C184 C 0.00297 0.8713 0.06408 0.0
C185 C 0.99162 0.90349 0.08555 0.0
C186 C 0.00785 0.90015 0.04067 0.0
C187 C 0.00139 0.962 0.03817 0.0
C188 C 0.99241 0.99429 0.06005 0.0
C189 C 0.9873 0.96546 0.08339 0.0
C190 C 0.00387 0.99475 0.01335 0.0
C191 C 0.99611 0.96958 0.98933 0.0
C192 C 0.99777 0.00334 0.9647 0.0
C193 C 0.01082 0.97344 0.94308 0.0
C194 C 0.01467 0.00402 0.91996 0.0
C195 C 0.0048 0.06521 0.91777 0.0
H196 H 0.97383 0.08841 0.97794 0.0
C197 C 0.98946 0.09464 0.93898 0.0
C198 C 0.98595 0.06413 0.96216 0.0
H199 H 0.98129 0.14169 0.93795 0.0
H200 H 0.00677 0.82352 0.06509 0.0
H201 H 0.01662 0.87365 0.02469 0.0
H202 H 0.98793 0.042 0.05889 0.0
H203 H 0.97874 0.99173 0.09953 0.0
H204 H 0.0112 0.04203 0.01509 0.0
H205 H 0.9892 0.92228 0.98738 0.0
H206 H 0.01939 0.92647 0.94432 0.0
H207 H 0.02641 0.97987 0.904 0.0
C208 C 0.61308 0.19187 0.20278 0.0
C209 C 0.59495 0.2374 0.18498 0.0
C210 C 0.65747 0.19985 0.22146 0.0
C211 C 0.68481 0.25357 0.2226 0.0
C212 C 0.66654 0.29884 0.20477 0.0
C213 C 0.62235 0.29086 0.18614 0.0
C214 C 0.73139 0.26535 0.24246 0.0
C215 C 0.76116 0.22262 0.25538 0.0
C216 C 0.80818 0.23485 0.27489 0.0
C217 C 0.8269 0.19037 0.29306 0.0
C218 C 0.87169 0.19897 0.31125 0.0
C219 C 0.89913 0.25227 0.3116 0.0
H220 H 0.8237 0.32315 0.2611 0.0
C221 C 0.8805 0.29695 0.29347 0.0
C222 C 0.83566 0.28832 0.27523 0.0
H223 H 0.901 0.33829 0.29303 0.0
H224 H 0.59259 0.15037 0.20256 0.0
H225 H 0.66922 0.16433 0.23526 0.0
H226 H 0.68656 0.34074 0.20524 0.0
H227 H 0.60944 0.327 0.1728 0.0
H228 H 0.74156 0.3115 0.24615 0.0
H229 H 0.75096 0.17644 0.25182 0.0
H230 H 0.80681 0.14863 0.29318 0.0
H231 H 0.88501 0.1635 0.32489 0.0
C232 C 0.62323 0.22936 0.69249 0.0
C233 C 0.59285 0.28055 0.69133 0.0
C234 C 0.66615 0.22257 0.71218 0.0
C235 C 0.67987 0.26714 0.73112 0.0
C236 C 0.64946 0.31825 0.72989 0.0
C237 C 0.60658 0.32503 0.7102 0.0
C238 C 0.72434 0.26169 0.75293 0.0
C239 C 0.76394 0.22455 0.75276 0.0
C240 C 0.80893 0.22109 0.7744 0.0
C241 C 0.84009 0.17045 0.77652 0.0
C242 C 0.88365 0.16635 0.79606 0.0
C243 C 0.8971 0.21306 0.81384 0.0
H244 H 0.80109 0.30864 0.79088 0.0
C245 C 0.86593 0.26367 0.81174 0.0
C246 C 0.82263 0.26786 0.79222 0.0
H247 H 0.87545 0.30083 0.82491 0.0
H248 H 0.61348 0.19397 0.67839 0.0
H249 H 0.68745 0.18173 0.71271 0.0
H250 H 0.65888 0.3532 0.74425 0.0
H251 H 0.58395 0.36492 0.70996 0.0
H252 H 0.72422 0.29048 0.76965 0.0
H253 H 0.76401 0.19529 0.73618 0.0
H254 H 0.83079 0.13393 0.76296 0.0
H255 H 0.90697 0.12686 0.79704 0.0
C256 C 0.13828 0.7617 0.68765 0.0
C257 C 0.10507 0.71318 0.68728 0.0
C258 C 0.18275 0.76529 0.70637 0.0
C259 C 0.19497 0.72064 0.72545 0.0
C260 C 0.16247 0.67138 0.72474 0.0
C261 C 0.1178 0.66773 0.7059 0.0
C262 C 0.24211 0.72333 0.74569 0.0
C263 C 0.265 0.77481 0.75423 0.0
C264 C 0.31351 0.77904 0.77344 0.0
C265 C 0.34152 0.83204 0.77464 0.0
C266 C 0.38774 0.83799 0.79205 0.0
C267 C 0.40685 0.79107 0.8088 0.0
H268 H 0.31123 0.69155 0.79104 0.0
C269 C 0.37837 0.73842 0.80801 0.0
C270 C 0.33217 0.73246 0.79061 0.0
H271 H 0.39173 0.70158 0.82086 0.0
H272 H 0.13006 0.79716 0.67338 0.0
H273 H 0.2077 0.80274 0.70545 0.0
H274 H 0.17135 0.63595 0.73898 0.0
H275 H 0.09314 0.62963 0.70606 0.0
H276 H 0.25787 0.68143 0.75361 0.0
H277 H 0.24823 0.81639 0.74642 0.0
H278 H 0.32791 0.86886 0.76181 0.0
H279 H 0.40859 0.87924 0.79223 0.0
C280 C 0.37424 0.70672 0.29909 0.0
C281 C 0.38979 0.75289 0.31688 0.0
C282 C 0.32989 0.71224 0.28017 0.0
C283 C 0.30006 0.76406 0.27879 0.0
C284 C 0.31578 0.81003 0.29658 0.0
C285 C 0.35992 0.8045 0.31547 0.0
C286 C 0.25342 0.77316 0.25867 0.0
C287 C 0.22547 0.72867 0.24613 0.0
C288 C 0.17848 0.73817 0.22626 0.0
C289 C 0.16206 0.69264 0.20833 0.0
C290 C 0.11761 0.69893 0.18967 0.0
C291 C 0.08825 0.75089 0.18861 0.0
H292 H 0.15911 0.82563 0.23926 0.0
C293 C 0.10446 0.79648 0.2066 0.0
C294 C 0.14895 0.79017 0.2253 0.0
H295 H 0.08242 0.8368 0.2065 0.0
H296 H 0.39667 0.66663 0.29951 0.0
H297 H 0.32008 0.67639 0.26637 0.0
H298 H 0.29378 0.85055 0.2959 0.0
H299 H 0.37082 0.84107 0.3288 0.0
H300 H 0.24161 0.81869 0.25447 0.0
H301 H 0.23734 0.68312 0.25025 0.0
H302 H 0.18375 0.65196 0.20872 0.0
H303 H 0.10614 0.66279 0.17617 0.0
C304 C 0.35389 0.2529 0.20029 0.0
C305 C 0.36861 0.19511 0.19484 0.0
C306 C 0.31948 0.26238 0.21733 0.0
C307 C 0.29892 0.21413 0.22926 0.0
C308 C 0.31494 0.15662 0.22445 0.0
C309 C 0.34912 0.14712 0.20734 0.0
C310 C 0.2616 0.22182 0.2472 0.0
C311 C 0.23021 0.26889 0.24631 0.0
C312 C 0.19307 0.27681 0.26433 0.0
C313 C 0.17684 0.33437 0.26889 0.0
C314 C 0.14306 0.3442 0.28618 0.0
C315 C 0.12421 0.29649 0.29912 0.0
H316 H 0.18303 0.18356 0.27298 0.0
C317 C 0.13904 0.23861 0.2939 0.0
C318 C 0.17303 0.2288 0.27667 0.0
H319 H 0.12492 0.20082 0.30337 0.0
H320 H 0.36847 0.29089 0.19115 0.0
H321 H 0.30962 0.30756 0.22122 0.0
H322 H 0.30024 0.1187 0.2336 0.0
H323 H 0.35982 0.10202 0.2037 0.0
H324 H 0.2596 0.18654 0.26126 0.0
H325 H 0.23222 0.3041 0.23221 0.0
H326 H 0.19111 0.37212 0.25943 0.0
H327 H 0.13223 0.38935 0.28962 0.0
C328 C 0.33354 0.33855 0.70653 0.0
C329 C 0.36255 0.29683 0.69547 0.0
C330 C 0.29879 0.32028 0.72224 0.0
C331 C 0.29252 0.25963 0.72745 0.0
C332 C 0.32183 0.21811 0.71648 0.0
C333 C 0.35646 0.23639 0.70074 0.0
C334 C 0.25496 0.23733 0.74335 0.0
C335 C 0.23308 0.27119 0.75971 0.0
C336 C 0.19594 0.24843 0.77575 0.0
C337 C 0.16505 0.28929 0.78605 0.0
C338 C 0.13112 0.27047 0.80209 0.0
C339 C 0.12743 0.21017 0.80836 0.0
H340 H 0.21591 0.15489 0.77515 0.0
C341 C 0.15799 0.16911 0.79792 0.0
C342 C 0.19199 0.18793 0.78191 0.0
H343 H 0.15651 0.12238 0.80256 0.0
H344 H 0.33692 0.38546 0.70268 0.0
H345 H 0.2763 0.35398 0.72959 0.0
H346 H 0.3178 0.17113 0.72 0.0
H347 H 0.37805 0.20298 0.69249 0.0
H348 H 0.24542 0.19064 0.74138 0.0
H349 H 0.24226 0.31796 0.76164 0.0
H350 H 0.16736 0.33616 0.7818 0.0
H351 H 0.10831 0.30337 0.80986 0.0
C352 C 0.65049 0.76775 0.79307 0.0
C353 C 0.63691 0.82633 0.79787 0.0
C354 C 0.68596 0.75599 0.77686 0.0
C355 C 0.7084 0.80267 0.76479 0.0
C356 C 0.69433 0.86114 0.7694 0.0
C357 C 0.65895 0.87289 0.78567 0.0
C358 C 0.74823 0.79264 0.74837 0.0
C359 C 0.75526 0.74042 0.73689 0.0
C360 C 0.79579 0.7288 0.72109 0.0
C361 C 0.80684 0.66962 0.71598 0.0
C362 C 0.84319 0.65576 0.70062 0.0
C363 C 0.86942 0.70083 0.68978 0.0
H364 H 0.81453 0.82039 0.7133 0.0
C365 C 0.85889 0.7602 0.69502 0.0
C366 C 0.82239 0.77413 0.71044 0.0
H367 H 0.8781 0.796 0.68678 0.0
H368 H 0.63469 0.73084 0.80237 0.0
H369 H 0.69659 0.71033 0.77464 0.0
H370 H 0.71109 0.89804 0.76054 0.0
H371 H 0.64953 0.91859 0.789 0.0
H372 H 0.7724 0.83008 0.74584 0.0
H373 H 0.73047 0.70343 0.73923 0.0
H374 H 0.78705 0.6337 0.72381 0.0
H375 H 0.85018 0.60951 0.69698 0.0
C376 C 0.83551 0.82892 0.208 0.0
C377 C 0.86078 0.78316 0.19712 0.0
C378 C 0.80262 0.81614 0.2255 0.0
C379 C 0.79405 0.7571 0.23247 0.0
C380 C 0.82027 0.71159 0.22206 0.0
C381 C 0.85305 0.72435 0.20451 0.0
C382 C 0.75916 0.74102 0.25088 0.0
C383 C 0.72077 0.77584 0.25572 0.0
C384 C 0.6857 0.75906 0.27394 0.0
C385 C 0.65976 0.80401 0.28491 0.0
C386 C 0.62684 0.79024 0.30229 0.0
C387 C 0.61875 0.731 0.30894 0.0
H388 H 0.69416 0.66342 0.27141 0.0
C389 C 0.64369 0.68589 0.29746 0.0
C390 C 0.67661 0.69965 0.28012 0.0
H391 H 0.63796 0.63972 0.30192 0.0
H392 H 0.84091 0.87479 0.20291 0.0
H393 H 0.78468 0.85282 0.2337 0.0
H394 H 0.81488 0.66576 0.22725 0.0
H395 H 0.87203 0.688 0.1966 0.0
H396 H 0.76525 0.69809 0.2604 0.0
H397 H 0.71471 0.8189 0.24631 0.0
H398 H 0.66551 0.85011 0.28029 0.0
H399 H 0.60812 0.8261 0.31068 0.0
C400 C 0.36268 0.21212 0.56185 0.0
C401 C 0.35742 0.2582 0.57938 0.0
C402 C 0.33003 0.20862 0.53755 0.0
C403 C 0.29122 0.25097 0.5305 0.0
C404 C 0.28475 0.2953 0.54857 0.0
C405 C 0.31736 0.29887 0.57274 0.0
C406 C 0.25913 0.25369 0.50401 0.0
C407 C 0.25319 0.20901 0.48656 0.0
C408 C 0.22029 0.21597 0.46051 0.0
C409 C 0.18946 0.16872 0.4497 0.0
C410 C 0.15374 0.17688 0.42668 0.0
C411 C 0.1489 0.2323 0.41396 0.0
H412 H 0.24255 0.30671 0.4542 0.0
C413 C 0.18248 0.27819 0.4238 0.0
C414 C 0.21786 0.2701 0.44682 0.0
H415 H 0.18025 0.32116 0.41429 0.0
H416 H 0.3934 0.18031 0.56635 0.0
H417 H 0.33693 0.17432 0.52408 0.0
H418 H 0.25514 0.32842 0.54369 0.0
H419 H 0.31215 0.33481 0.58583 0.0
H420 H 0.23832 0.29471 0.49883 0.0
H421 H 0.26932 0.16563 0.49194 0.0
H422 H 0.19128 0.12634 0.45971 0.0
H423 H 0.12875 0.14043 0.41943 0.0
C424 C 0.82643 0.74123 0.57091 0.0
C425 C 0.87498 0.76707 0.57663 0.0
C426 C 0.79381 0.75461 0.5474 0.0
C427 C 0.80968 0.79328 0.52909 0.0
C428 C 0.85786 0.81966 0.53497 0.0
C429 C 0.88999 0.8074 0.55872 0.0
C430 C 0.77855 0.80198 0.5028 0.0
C431 C 0.72757 0.80533 0.49898 0.0
C432 C 0.69596 0.8045 0.4725 0.0
C433 C 0.64981 0.83564 0.46786 0.0
C434 C 0.61649 0.82977 0.44394 0.0
C435 C 0.62826 0.79123 0.4246 0.0
H436 H 0.74379 0.74263 0.4559 0.0
C437 C 0.6751 0.7613 0.42896 0.0
C438 C 0.70888 0.7682 0.45265 0.0
H439 H 0.68493 0.73116 0.4144 0.0
H440 H 0.81407 0.70985 0.58436 0.0
H441 H 0.75718 0.73262 0.54308 0.0
H442 H 0.87095 0.84912 0.521 0.0
H443 H 0.92745 0.82754 0.56252 0.0
H444 H 0.79816 0.80527 0.48616 0.0
H445 H 0.7083 0.80791 0.51576 0.0
H446 H 0.639 0.86345 0.48299 0.0
H447 H 0.58036 0.85291 0.44119 0.0
C448 C 0.81512 0.76966 0.06984 0.0
C449 C 0.84801 0.72396 0.08071 0.0
C450 C 0.78396 0.76247 0.04544 0.0
C451 C 0.7851 0.70942 0.03139 0.0
C452 C 0.81494 0.66211 0.04306 0.0
C453 C 0.84651 0.66941 0.06748 0.0
C454 C 0.75627 0.70358 0.00433 0.0
C455 C 0.75235 0.7495 0.98743 0.0
C456 C 0.721 0.74986 0.9607 0.0
C457 C 0.72469 0.79925 0.9446 0.0
C458 C 0.6912 0.80625 0.92083 0.0
C459 C 0.65323 0.76382 0.91263 0.0
H460 H 0.68012 0.66708 0.96351 0.0
C461 C 0.6514 0.71257 0.92791 0.0
C462 C 0.68476 0.70569 0.95178 0.0
H463 H 0.62254 0.67902 0.9221 0.0
H464 H 0.81483 0.81197 0.07965 0.0
H465 H 0.75974 0.79896 0.03735 0.0
H466 H 0.81562 0.62047 0.03276 0.0
H467 H 0.87109 0.63315 0.07548 0.0
H468 H 0.74039 0.66055 0.99824 0.0
H469 H 0.77284 0.79015 0.99372 0.0
H470 H 0.75235 0.83386 0.95088 0.0
H471 H 0.69383 0.84609 0.90944 0.0
C472 C 0.35237 0.31302 0.06425 0.0
C473 C 0.34712 0.26783 0.08231 0.0
C474 C 0.31419 0.32273 0.04246 0.0
C475 C 0.26982 0.28798 0.03862 0.0
C476 C 0.26315 0.24538 0.05748 0.0
C477 C 0.30181 0.23479 0.079 0.0
C478 C 0.23135 0.29297 0.0144 0.0
C479 C 0.24502 0.29755 0.9907 0.0
C480 C 0.20755 0.29052 0.96624 0.0
C481 C 0.22005 0.25506 0.94613 0.0
C482 C 0.18341 0.24215 0.92405 0.0
C483 C 0.13416 0.26598 0.92145 0.0
H484 H 0.14872 0.34455 0.97833 0.0
C485 C 0.12262 0.30439 0.94088 0.0
C486 C 0.1589 0.31616 0.96324 0.0
H487 H 0.08493 0.32341 0.93934 0.0
H488 H 0.38685 0.33931 0.06636 0.0
H489 H 0.31973 0.35666 0.0284 0.0
H490 H 0.229 0.2184 0.05493 0.0
H491 H 0.29663 0.20004 0.09277 0.0
H492 H 0.19172 0.28485 0.01575 0.0
H493 H 0.28516 0.29857 0.98925 0.0
H494 H 0.2575 0.23519 0.94803 0.0
H495 H 0.19336 0.2128 0.90923 0.0
loop_
_geom_bond_atom_site_label_1
_geom_bond_atom_site_label_2
_geom_bond_distance
_geom_bond_site_symmetry_2
_ccdc_geom_bond_type
C0 O2 1.247 . S
C0 O4 1.258 . S
C1 O8 1.247 . S
C1 O9 1.258 . S
O2 C0 1.247 . S
O2 Zn3 2.028 . S
Zn3 O2 2.028 . S
Zn3 O7 2.035 . S
Zn3 O9 2.035 1_455 S
Zn3 O10 2.028 . S
O4 C0 1.258 . S
O4 Zn5 2.035 . S
Zn5 O4 2.035 . S
Zn5 O6 2.028 . S
Zn5 O8 2.028 1_455 S
Zn5 O11 2.035 . S
O6 Zn5 2.028 . S
O6 C12 1.247 . S
O7 Zn3 2.035 . S
O7 C12 1.258 . S
O8 C1 1.247 . S
O8 Zn5 2.028 1_655 S
O9 C1 1.258 . S
O9 Zn3 2.035 1_655 S
O10 Zn3 2.028 . S
O10 C13 1.247 . S
O11 Zn5 2.035 . S
O11 C13 1.258 . S
C12 O6 1.247 . S
C12 O7 1.258 . S
C13 O10 1.247 . S
C13 O11 1.258 . S
C14 O16 1.247 . S
C14 O18 1.258 . S
C15 O22 1.247 . S
C15 O23 1.258 . S
O16 C14 1.247 . S
O16 Zn17 2.028 . S
Zn17 O16 2.028 . S
Zn17 O21 2.035 . S
Zn17 O23 2.035 . S
Zn17 O24 2.028 . S
O18 C14 1.258 . S
O18 Zn19 2.035 . S
Zn19 O18 2.035 . S
Zn19 O20 2.028 . S
Zn19 O22 2.028 . S
Zn19 O25 2.035 . S
O20 Zn19 2.028 . S
O20 C26 1.247 . S
O21 Zn17 2.035 . S
O21 C26 1.258 . S
O22 C15 1.247 . S
O22 Zn19 2.028 . S
O23 C15 1.258 . S
O23 Zn17 2.035 . S
O24 Zn17 2.028 . S
O24 C27 1.247 . S
O25 Zn19 2.035 . S
O25 C27 1.258 . S
C26 O20 1.247 . S
C26 O21 1.258 . S
C27 O24 1.247 . S
C27 O25 1.258 . S
C28 O30 1.247 . S
C28 O32 1.258 . S
C29 O36 1.247 . S
C29 O37 1.258 . S
O30 C28 1.247 . S
O30 Zn31 2.028 . S
Zn31 O30 2.028 . S
Zn31 O35 2.035 . S
Zn31 O37 2.035 . S
Zn31 O38 2.028 1_655 S
O32 C28 1.258 . S
O32 Zn33 2.035 . S
Zn33 O32 2.035 . S
Zn33 O34 2.028 . S
Zn33 O36 2.028 . S
Zn33 O39 2.035 1_655 S
O34 Zn33 2.028 . S
O34 C40 1.247 . S
O35 Zn31 2.035 . S
O35 C40 1.258 . S
O36 C29 1.247 . S
O36 Zn33 2.028 . S
O37 C29 1.258 . S
O37 Zn31 2.035 . S
O38 Zn31 2.028 1_455 S
O38 C41 1.247 . S
O39 Zn33 2.035 1_455 S
O39 C41 1.258 . S
C40 O34 1.247 . S
C40 O35 1.258 . S
C41 O38 1.247 . S
C41 O39 1.258 . S
C42 O44 1.247 . S
C42 O46 1.258 . S
C43 O50 1.247 . S
C43 O51 1.258 . S
O44 C42 1.247 . S
O44 Zn45 2.028 . S
Zn45 O44 2.028 . S
Zn45 O49 2.035 . S
Zn45 O51 2.035 . S
Zn45 O52 2.028 . S
O46 C42 1.258 . S
O46 Zn47 2.035 . S
Zn47 O46 2.035 . S
Zn47 O48 2.028 . S
Zn47 O50 2.028 . S
Zn47 O53 2.035 . S
O48 Zn47 2.028 . S
O48 C54 1.247 . S
O49 Zn45 2.035 . S
O49 C54 1.258 . S
O50 C43 1.247 . S
O50 Zn47 2.028 . S
O51 C43 1.258 . S
O51 Zn45 2.035 . S
O52 Zn45 2.028 . S
O52 C55 1.247 . S
O53 Zn47 2.035 . S
O53 C55 1.258 . S
C54 O48 1.247 . S
C54 O49 1.258 . S
C55 O52 1.247 . S
C55 O53 1.258 . S
C56 O58 1.247 . S
C56 O60 1.258 . S
C57 O64 1.247 . S
C57 O65 1.258 . S
O58 C56 1.247 . S
O58 Zn59 2.028 . S
Zn59 O58 2.028 . S
Zn59 O63 2.035 . S
Zn59 O65 2.035 . S
Zn59 O66 2.028 . S
O60 C56 1.258 . S
O60 Zn61 2.035 . S
Zn61 O60 2.035 . S
Zn61 O62 2.028 . S
Zn61 O64 2.028 . S
Zn61 O67 2.035 . S
O62 Zn61 2.028 . S
O62 C68 1.247 . S
O63 Zn59 2.035 . S
O63 C68 1.258 . S
O64 C57 1.247 . S
O64 Zn61 2.028 . S
O65 C57 1.258 . S
O65 Zn59 2.035 . S
O66 Zn59 2.028 . S
O66 C69 1.247 . S
O67 Zn61 2.035 . S
O67 C69 1.258 . S
C68 O62 1.247 . S
C68 O63 1.258 . S
C69 O66 1.247 . S
C69 O67 1.258 . S
C70 O72 1.247 . S
C70 O74 1.258 . S
C71 O78 1.247 . S
C71 O79 1.258 . S
O72 C70 1.247 . S
O72 Zn73 2.028 . S
Zn73 O72 2.028 . S
Zn73 O77 2.035 . S
Zn73 O79 2.035 . S
Zn73 O80 2.028 1_655 S
O74 C70 1.258 . S
O74 Zn75 2.035 . S
Zn75 O74 2.035 . S
Zn75 O76 2.028 . S
Zn75 O78 2.028 . S
Zn75 O81 2.035 1_655 S
O76 Zn75 2.028 . S
O76 C82 1.247 . S
O77 Zn73 2.035 . S
O77 C82 1.258 . S
O78 C71 1.247 . S
O78 Zn75 2.028 . S
O79 C71 1.258 . S
O79 Zn73 2.035 . S
O80 Zn73 2.028 1_455 S
O80 C83 1.247 . S
O81 Zn75 2.035 1_455 S
O81 C83 1.258 . S
C82 O76 1.247 . S
C82 O77 1.258 . S
C83 O80 1.247 . S
C83 O81 1.258 . S
C84 O86 1.247 . S
C84 O88 1.258 . S
C85 O92 1.247 . S
C85 O93 1.258 . S
O86 C84 1.247 . S
O86 Zn87 2.028 . S
Zn87 O86 2.028 . S
Zn87 O91 2.035 . S
Zn87 O93 2.035 . S
Zn87 O94 2.028 . S
O88 C84 1.258 . S
O88 Zn89 2.035 . S
Zn89 O88 2.035 . S
Zn89 O90 2.028 . S
Zn89 O92 2.028 . S
Zn89 O95 2.035 . S
O90 Zn89 2.028 . S
O90 C96 1.247 . S
O91 Zn87 2.035 . S
O91 C96 1.258 . S
O92 C85 1.247 . S
O92 Zn89 2.028 . S
O93 C85 1.258 . S
O93 Zn87 2.035 . S
O94 Zn87 2.028 . S
O94 C97 1.247 . S
O95 Zn89 2.035 . S
O95 C97 1.258 . S
C96 O90 1.247 . S
C96 O91 1.258 . S
C97 O94 1.247 . S
C97 O95 1.258 . S
C98 O100 1.247 . S
C98 O102 1.258 . S
C99 O106 1.247 . S
C99 O107 1.258 . S
O100 C98 1.247 . S
O100 Zn101 2.028 1_655 S
Zn101 O100 2.028 1_455 S
Zn101 O105 2.035 . S
Zn101 O107 2.035 . S
Zn101 O108 2.028 . S
O102 C98 1.258 . S
O102 Zn103 2.035 1_655 S
Zn103 O102 2.035 1_455 S
Zn103 O104 2.028 . S
Zn103 O106 2.028 . S
Zn103 O109 2.035 . S
O104 Zn103 2.028 . S
O104 C110 1.247 . S
O105 Zn101 2.035 . S
O105 C110 1.258 . S
O106 C99 1.247 . S
O106 Zn103 2.028 . S
O107 C99 1.258 . S
O107 Zn101 2.035 . S
O108 Zn101 2.028 . S
O108 C111 1.247 . S
O109 Zn103 2.035 . S
O109 C111 1.258 . S
C110 O104 1.247 . S
C110 O105 1.258 . S
C111 O108 1.247 . S
C111 O109 1.258 . S
C112 C113 1.386 1_455 S
C112 C114 1.383 . S
C112 H128 0.951 . S
C113 C112 1.386 1_655 S
C113 C117 1.383 . S
C114 C112 1.383 . S
C114 C115 1.402 . S
C114 H129 0.951 . S
C115 C114 1.402 . S
C115 C116 1.375 1_455 S
C115 C118 1.481 . S
C116 C115 1.375 1_655 S
C116 C117 1.367 . S
C116 H130 0.951 . S
C117 C113 1.383 . S
C117 C116 1.367 . S
C117 H131 0.950 . S
C118 C115 1.481 . S
C118 C119 1.297 . S
C118 H132 0.950 1_455 S
C119 C118 1.297 . S
C119 C120 1.479 . S
C119 H133 0.950 . S
C120 C119 1.479 . S
C120 C121 1.375 . S
C120 C126 1.404 . S
C121 C120 1.375 . S
C121 C122 1.369 . S
C121 H134 0.950 . S
C122 C121 1.369 . S
C122 C123 1.392 . S
C122 H135 0.951 . S
C123 C122 1.392 . S
C123 C125 1.384 . S
H124 C126 0.949 . S
C125 C123 1.384 . S
C125 C126 1.385 . S
C125 H127 0.950 1_455 S
C126 C120 1.404 . S
C126 H124 0.949 . S
C126 C125 1.385 . S
H127 C125 0.950 1_655 S
H128 C112 0.951 . S
H129 C114 0.951 . S
H130 C116 0.951 . S
H131 C117 0.950 . S
H132 C118 0.950 1_655 S
H133 C119 0.950 . S
H134 C121 0.950 . S
H135 C122 0.951 . S
C136 C137 1.386 . S
C136 C138 1.383 . S
C136 H152 0.951 . S
C137 C136 1.386 . S
C137 C141 1.383 . S
C138 C136 1.383 . S
C138 C139 1.402 . S
C138 H153 0.951 . S
C139 C138 1.402 . S
C139 C140 1.375 . S
C139 C142 1.481 . S
C140 C139 1.375 . S
C140 C141 1.367 . S
C140 H154 0.951 . S
C141 C137 1.383 . S
C141 C140 1.367 . S
C141 H155 0.950 . S
C142 C139 1.481 . S
C142 C143 1.297 . S
C142 H156 0.950 . S
C143 C142 1.297 . S
C143 C144 1.479 . S
C143 H157 0.950 . S
C144 C143 1.479 . S
C144 C145 1.375 . S
C144 C150 1.404 . S
C145 C144 1.375 . S
C145 C146 1.369 . S
C145 H158 0.950 . S
C146 C145 1.369 . S
C146 C147 1.392 . S
C146 H159 0.951 . S
C147 C146 1.392 . S
C147 C149 1.384 . S
H148 C150 0.949 . S
C149 C147 1.384 . S
C149 C150 1.385 . S
C149 H151 0.950 . S
C150 C144 1.404 . S
C150 H148 0.949 . S
C150 C149 1.385 . S
H151 C149 0.950 . S
H152 C136 0.951 . S
H153 C138 0.951 . S
H154 C140 0.951 . S
H155 C141 0.950 . S
H156 C142 0.950 . S
H157 C143 0.950 . S
H158 C145 0.950 . S
H159 C146 0.951 . S
C160 C161 1.386 . S
C160 C162 1.383 . S
C160 H176 0.951 . S
C161 C160 1.386 . S
C161 C165 1.383 . S
C162 C160 1.383 . S
C162 C163 1.402 . S
C162 H177 0.951 . S
C163 C162 1.402 . S
C163 C164 1.375 . S
C163 C166 1.481 1_545 S
C164 C163 1.375 . S
C164 C165 1.367 . S
C164 H178 0.951 . S
C165 C161 1.383 . S
C165 C164 1.367 . S
C165 H179 0.950 . S
C166 C163 1.481 1_565 S
C166 C167 1.297 1_554 S
C166 H180 0.950 . S
C167 C166 1.297 1_556 S
C167 C168 1.479 . S
C167 H181 0.945 1_565 S
C168 C167 1.479 . S
C168 C169 1.375 . S
C168 C174 1.404 . S
C169 C168 1.375 . S
C169 C170 1.369 . S
C169 H182 0.950 . S
C170 C169 1.369 . S
C170 C171 1.392 . S
C170 H183 0.951 . S
C171 C170 1.392 . S
C171 C173 1.384 . S
H172 C174 0.949 . S
C173 C171 1.384 . S
C173 C174 1.385 . S
C173 H175 0.950 . S
C174 C168 1.404 . S
C174 H172 0.949 . S
C174 C173 1.385 . S
H175 C173 0.950 . S
H176 C160 0.951 . S
H177 C162 0.951 . S
H178 C164 0.951 . S
H179 C165 0.950 . S
H180 C166 0.950 . S
H181 C167 0.945 1_545 S
H182 C169 0.950 . S
H183 C170 0.951 . S
C184 C185 1.386 1_655 S
C184 C186 1.383 . S
C184 H200 0.951 . S
C185 C184 1.386 1_455 S
C185 C189 1.383 . S
C186 C184 1.383 . S
C186 C187 1.402 1_655 S
C186 H201 0.951 . S
C187 C186 1.402 1_455 S
C187 C188 1.375 . S
C187 C190 1.481 1_565 S
C188 C187 1.375 . S
C188 C189 1.367 . S
C188 H202 0.951 . S
C189 C185 1.383 . S
C189 C188 1.367 . S
C189 H203 0.950 . S
C190 C187 1.481 1_545 S
C190 C191 1.297 1_454 S
C190 H204 0.950 . S
C191 C190 1.297 1_656 S
C191 C192 1.479 . S
C191 H205 0.950 1_545 S
C192 C191 1.479 . S
C192 C193 1.375 . S
C192 C198 1.404 1_655 S
C193 C192 1.375 . S
C193 C194 1.369 . S
C193 H206 0.950 . S
C194 C193 1.369 . S
C194 C195 1.392 . S
C194 H207 0.951 . S
C195 C194 1.392 . S
C195 C197 1.384 1_655 S
H196 C198 0.956 . S
C197 C195 1.384 1_455 S
C197 C198 1.385 . S
C197 H199 0.950 . S
C198 C192 1.404 1_455 S
C198 H196 0.956 . S
C198 C197 1.385 . S
H199 C197 0.950 . S
H200 C184 0.951 . S
H201 C186 0.951 . S
H202 C188 0.951 . S
H203 C189 0.950 . S
H204 C190 0.950 . S
H205 C191 0.950 1_565 S
H206 C193 0.950 . S
H207 C194 0.951 . S
C208 C209 1.386 . S
C208 C210 1.383 . S
C208 H224 0.951 . S
C209 C208 1.386 . S
C209 C213 1.383 . S
C210 C208 1.383 . S
C210 C211 1.402 . S
C210 H225 0.951 . S
C211 C210 1.402 . S
C211 C212 1.375 . S
C211 C214 1.481 . S
C212 C211 1.375 . S
C212 C213 1.367 . S
C212 H226 0.951 . S
C213 C209 1.383 . S
C213 C212 1.367 . S
C213 H227 0.950 . S
C214 C211 1.481 . S
C214 C215 1.297 . S
C214 H228 0.950 . S
C215 C214 1.297 . S
C215 C216 1.479 . S
C215 H229 0.950 . S
C216 C215 1.479 . S
C216 C217 1.375 . S
C216 C222 1.404 . S
C217 C216 1.375 . S
C217 C218 1.369 . S
C217 H230 0.950 . S
C218 C217 1.369 . S
C218 C219 1.392 . S
C218 H231 0.951 . S
C219 C218 1.392 . S
C219 C221 1.384 . S
H220 C222 0.949 . S
C221 C219 1.384 . S
C221 C222 1.385 . S
C221 H223 0.950 . S
C222 C216 1.404 . S
C222 H220 0.949 . S
C222 C221 1.385 . S
H223 C221 0.950 . S
H224 C208 0.951 . S
H225 C210 0.951 . S
H226 C212 0.951 . S
H227 C213 0.950 . S
H228 C214 0.950 . S
H229 C215 0.950 . S
H230 C217 0.950 . S
H231 C218 0.951 . S
C232 C233 1.386 . S
C232 C234 1.383 . S
C232 H248 0.951 . S
C233 C232 1.386 . S
C233 C237 1.383 . S
C234 C232 1.383 . S
C234 C235 1.402 . S
C234 H249 0.951 . S
C235 C234 1.402 . S
C235 C236 1.375 . S
C235 C238 1.481 . S
C236 C235 1.375 . S
C236 C237 1.367 . S
C236 H250 0.951 . S
C237 C233 1.383 . S
C237 C236 1.367 . S
C237 H251 0.950 . S
C238 C235 1.481 . S
C238 C239 1.297 . S
C238 H252 0.950 . S
C239 C238 1.297 . S
C239 C240 1.479 . S
C239 H253 0.950 . S
C240 C239 1.479 . S
C240 C241 1.375 . S
C240 C246 1.404 . S
C241 C240 1.375 . S
C241 C242 1.369 . S
C241 H254 0.950 . S
C242 C241 1.369 . S
C242 C243 1.392 . S
C242 H255 0.951 . S
C243 C242 1.392 . S
C243 C245 1.384 . S
H244 C246 0.949 . S
C245 C243 1.384 . S
C245 C246 1.385 . S
C245 H247 0.950 . S
C246 C240 1.404 . S
C246 H244 0.949 . S
C246 C245 1.385 . S
H247 C245 0.950 . S
H248 C232 0.951 . S
H249 C234 0.951 . S
H250 C236 0.951 . S
H251 C237 0.950 . S
H252 C238 0.950 . S
H253 C239 0.950 . S
H254 C241 0.950 . S
H255 C242 0.951 . S
C256 C257 1.386 . S
C256 C258 1.383 . S
C256 H272 0.951 . S
C257 C256 1.386 . S
C257 C261 1.383 . S
C258 C256 1.383 . S
C258 C259 1.402 . S
C258 H273 0.951 . S
C259 C258 1.402 . S
C259 C260 1.375 . S
C259 C262 1.481 . S
C260 C259 1.375 . S
C260 C261 1.367 . S
C260 H274 0.951 . S
C261 C257 1.383 . S
C261 C260 1.367 . S
C261 H275 0.950 . S
C262 C259 1.481 . S
C262 C263 1.297 . S
C262 H276 0.950 . S
C263 C262 1.297 . S
C263 C264 1.479 . S
C263 H277 0.950 . S
C264 C263 1.479 . S
C264 C265 1.375 . S
C264 C270 1.404 . S
C265 C264 1.375 . S
C265 C266 1.369 . S
C265 H278 0.950 . S
C266 C265 1.369 . S
C266 C267 1.392 . S
C266 H279 0.951 . S
C267 C266 1.392 . S
C267 C269 1.384 . S
H268 C270 0.949 . S
C269 C267 1.384 . S
C269 C270 1.385 . S
C269 H271 0.950 . S
C270 C264 1.404 . S
C270 H268 0.949 . S
C270 C269 1.385 . S
H271 C269 0.950 . S
H272 C256 0.951 . S
H273 C258 0.951 . S
H274 C260 0.951 . S
H275 C261 0.950 . S
H276 C262 0.950 . S
H277 C263 0.950 . S
H278 C265 0.950 . S
H279 C266 0.951 . S
C280 C281 1.386 . S
C280 C282 1.383 . S
C280 H296 0.951 . S
C281 C280 1.386 . S
C281 C285 1.383 . S
C282 C280 1.383 . S
C282 C283 1.402 . S
C282 H297 0.951 . S
C283 C282 1.402 . S
C283 C284 1.375 . S
C283 C286 1.481 . S
C284 C283 1.375 . S
C284 C285 1.367 . S
C284 H298 0.951 . S
C285 C281 1.383 . S
C285 C284 1.367 . S
C285 H299 0.950 . S
C286 C283 1.481 . S
C286 C287 1.297 . S
C286 H300 0.950 . S
C287 C286 1.297 . S
C287 C288 1.479 . S
C287 H301 0.950 . S
C288 C287 1.479 . S
C288 C289 1.375 . S
C288 C294 1.404 . S
C289 C288 1.375 . S
C289 C290 1.369 . S
C289 H302 0.950 . S
C290 C289 1.369 . S
C290 C291 1.392 . S
C290 H303 0.951 . S
C291 C290 1.392 . S
C291 C293 1.384 . S
H292 C294 0.949 . S
C293 C291 1.384 . S
C293 C294 1.385 . S
C293 H295 0.950 . S
C294 C288 1.404 . S
C294 H292 0.949 . S
C294 C293 1.385 . S
H295 C293 0.950 . S
H296 C280 0.951 . S
H297 C282 0.951 . S
H298 C284 0.951 . S
H299 C285 0.950 . S
H300 C286 0.950 . S
H301 C287 0.950 . S
H302 C289 0.950 . S
H303 C290 0.951 . S
C304 C305 1.386 . S
C304 C306 1.383 . S
C304 H320 0.951 . S
C305 C304 1.386 . S
C305 C309 1.383 . S
C306 C304 1.383 . S
C306 C307 1.402 . S
C306 H321 0.951 . S
C307 C306 1.402 . S
C307 C308 1.375 . S
C307 C310 1.481 . S
C308 C307 1.375 . S
C308 C309 1.367 . S
C308 H322 0.951 . S
C309 C305 1.383 . S
C309 C308 1.367 . S
C309 H323 0.950 . S
C310 C307 1.481 . S
C310 C311 1.297 . S
C310 H324 0.950 . S
C311 C310 1.297 . S
C311 C312 1.479 . S
C311 H325 0.950 . S
C312 C311 1.479 . S
C312 C313 1.375 . S
C312 C318 1.404 . S
C313 C312 1.375 . S
C313 C314 1.369 . S
C313 H326 0.950 . S
C314 C313 1.369 . S
C314 C315 1.392 . S
C314 H327 0.951 . S
C315 C314 1.392 . S
C315 C317 1.384 . S
H316 C318 0.949 . S
C317 C315 1.384 . S
C317 C318 1.385 . S
C317 H319 0.950 . S
C318 C312 1.404 . S
C318 H316 0.949 . S
C318 C317 1.385 . S
H319 C317 0.950 . S
H320 C304 0.951 . S
H321 C306 0.951 . S
H322 C308 0.951 . S
H323 C309 0.950 . S
H324 C310 0.950 . S
H325 C311 0.950 . S
H326 C313 0.950 . S
H327 C314 0.951 . S
C328 C329 1.386 . S
C328 C330 1.383 . S
C328 H344 0.951 . S
C329 C328 1.386 . S
C329 C333 1.383 . S
C330 C328 1.383 . S
C330 C331 1.402 . S
C330 H345 0.951 . S
C331 C330 1.402 . S
C331 C332 1.375 . S
C331 C334 1.481 . S
C332 C331 1.375 . S
C332 C333 1.367 . S
C332 H346 0.951 . S
C333 C329 1.383 . S
C333 C332 1.367 . S
C333 H347 0.950 . S
C334 C331 1.481 . S
C334 C335 1.297 . S
C334 H348 0.950 . S
C335 C334 1.297 . S
C335 C336 1.479 . S
C335 H349 0.950 . S
C336 C335 1.479 . S
C336 C337 1.375 . S
C336 C342 1.404 . S
C337 C336 1.375 . S
C337 C338 1.369 . S
C337 H350 0.950 . S
C338 C337 1.369 . S
C338 C339 1.392 . S
C338 H351 0.951 . S
C339 C338 1.392 . S
C339 C341 1.384 . S
H340 C342 0.949 . S
C341 C339 1.384 . S
C341 C342 1.385 . S
C341 H343 0.950 . S
C342 C336 1.404 . S
C342 H340 0.949 . S
C342 C341 1.385 . S
H343 C341 0.950 . S
H344 C328 0.951 . S
H345 C330 0.951 . S
H346 C332 0.951 . S
H347 C333 0.950 . S
H348 C334 0.950 . S
H349 C335 0.950 . S
H350 C337 0.950 . S
H351 C338 0.951 . S
C352 C353 1.386 . S
C352 C354 1.383 . S
C352 H368 0.951 . S
C353 C352 1.386 . S
C353 C357 1.383 . S
C354 C352 1.383 . S
C354 C355 1.402 . S
C354 H369 0.951 . S
C355 C354 1.402 . S
C355 C356 1.375 . S
C355 C358 1.481 . S
C356 C355 1.375 . S
C356 C357 1.367 . S
C356 H370 0.951 . S
C357 C353 1.383 . S
C357 C356 1.367 . S
C357 H371 0.950 . S
C358 C355 1.481 . S
C358 C359 1.297 . S
C358 H372 0.950 . S
C359 C358 1.297 . S
C359 C360 1.479 . S
C359 H373 0.950 . S
C360 C359 1.479 . S
C360 C361 1.375 . S
C360 C366 1.404 . S
C361 C360 1.375 . S
C361 C362 1.369 . S
C361 H374 0.950 . S
C362 C361 1.369 . S
C362 C363 1.392 . S
C362 H375 0.951 . S
C363 C362 1.392 . S
C363 C365 1.384 . S
H364 C366 0.949 . S
C365 C363 1.384 . S
C365 C366 1.385 . S
C365 H367 0.950 . S
C366 C360 1.404 . S
C366 H364 0.949 . S
C366 C365 1.385 . S
H367 C365 0.950 . S
H368 C352 0.951 . S
H369 C354 0.951 . S
H370 C356 0.951 . S
H371 C357 0.950 . S
H372 C358 0.950 . S
H373 C359 0.950 . S
H374 C361 0.950 . S
H375 C362 0.951 . S
C376 C377 1.386 . S
C376 C378 1.383 . S
C376 H392 0.951 . S
C377 C376 1.386 . S
C377 C381 1.383 . S
C378 C376 1.383 . S
C378 C379 1.402 . S
C378 H393 0.951 . S
C379 C378 1.402 . S
C379 C380 1.375 . S
C379 C382 1.481 . S
C380 C379 1.375 . S
C380 C381 1.367 . S
C380 H394 0.951 . S
C381 C377 1.383 . S
C381 C380 1.367 . S
C381 H395 0.950 . S
C382 C379 1.481 . S
C382 C383 1.297 . S
C382 H396 0.950 . S
C383 C382 1.297 . S
C383 C384 1.479 . S
C383 H397 0.950 . S
C384 C383 1.479 . S
C384 C385 1.375 . S
C384 C390 1.404 . S
C385 C384 1.375 . S
C385 C386 1.369 . S
C385 H398 0.950 . S
C386 C385 1.369 . S
C386 C387 1.392 . S
C386 H399 0.951 . S
C387 C386 1.392 . S
C387 C389 1.384 . S
H388 C390 0.949 . S
C389 C387 1.384 . S
C389 C390 1.385 . S
C389 H391 0.950 . S
C390 C384 1.404 . S
C390 H388 0.949 . S
C390 C389 1.385 . S
H391 C389 0.950 . S
H392 C376 0.951 . S
H393 C378 0.951 . S
H394 C380 0.951 . S
H395 C381 0.950 . S
H396 C382 0.950 . S
H397 C383 0.950 . S
H398 C385 0.950 . S
H399 C386 0.951 . S
C400 C401 1.386 . S
C400 C402 1.383 . S
C400 H416 0.951 . S
C401 C400 1.386 . S
C401 C405 1.383 . S
C402 C400 1.383 . S
C402 C403 1.402 . S
C402 H417 0.951 . S
C403 C402 1.402 . S
C403 C404 1.375 . S
C403 C406 1.481 . S
C404 C403 1.375 . S
C404 C405 1.367 . S
C404 H418 0.951 . S
C405 C401 1.383 . S
C405 C404 1.367 . S
C405 H419 0.950 . S
C406 C403 1.481 . S
C406 C407 1.297 . S
C406 H420 0.950 . S
C407 C406 1.297 . S
C407 C408 1.479 . S
C407 H421 0.950 . S
C408 C407 1.479 . S
C408 C409 1.375 . S
C408 C414 1.404 . S
C409 C408 1.375 . S
C409 C410 1.369 . S
C409 H422 0.950 . S
C410 C409 1.369 . S
C410 C411 1.392 . S
C410 H423 0.951 . S
C411 C410 1.392 . S
C411 C413 1.384 . S
H412 C414 0.949 . S
C413 C411 1.384 . S
C413 C414 1.385 . S
C413 H415 0.950 . S
C414 C408 1.404 . S
C414 H412 0.949 . S
C414 C413 1.385 . S
H415 C413 0.950 . S
H416 C400 0.951 . S
H417 C402 0.951 . S
H418 C404 0.951 . S
H419 C405 0.950 . S
H420 C406 0.950 . S
H421 C407 0.950 . S
H422 C409 0.950 . S
H423 C410 0.951 . S
C424 C425 1.386 . S
C424 C426 1.383 . S
C424 H440 0.951 . S
C425 C424 1.386 . S
C425 C429 1.383 . S
C426 C424 1.383 . S
C426 C427 1.402 . S
C426 H441 0.951 . S
C427 C426 1.402 . S
C427 C428 1.375 . S
C427 C430 1.481 . S
C428 C427 1.375 . S
C428 C429 1.367 . S
C428 H442 0.951 . S
C429 C425 1.383 . S
C429 C428 1.367 . S
C429 H443 0.950 . S
C430 C427 1.481 . S
C430 C431 1.297 . S
C430 H444 0.950 . S
C431 C430 1.297 . S
C431 C432 1.479 . S
C431 H445 0.950 . S
C432 C431 1.479 . S
C432 C433 1.375 . S
C432 C438 1.404 . S
C433 C432 1.375 . S
C433 C434 1.369 . S
C433 H446 0.950 . S
C434 C433 1.369 . S
C434 C435 1.392 . S
C434 H447 0.951 . S
C435 C434 1.392 . S
C435 C437 1.384 . S
H436 C438 0.949 . S
C437 C435 1.384 . S
C437 C438 1.385 . S
C437 H439 0.950 . S
C438 C432 1.404 . S
C438 H436 0.949 . S
C438 C437 1.385 . S
H439 C437 0.950 . S
H440 C424 0.951 . S
H441 C426 0.951 . S
H442 C428 0.951 . S
H443 C429 0.950 . S
H444 C430 0.950 . S
H445 C431 0.950 . S
H446 C433 0.950 . S
H447 C434 0.951 . S
C448 C449 1.386 . S
C448 C450 1.383 . S
C448 H464 0.951 . S
C449 C448 1.386 . S
C449 C453 1.383 . S
C450 C448 1.383 . S
C450 C451 1.402 . S
C450 H465 0.951 . S
C451 C450 1.402 . S
C451 C452 1.375 . S
C451 C454 1.481 . S
C452 C451 1.375 . S
C452 C453 1.367 . S
C452 H466 0.951 . S
C453 C449 1.383 . S
C453 C452 1.367 . S
C453 H467 0.950 . S
C454 C451 1.481 . S
C454 C455 1.297 1_554 S
C454 H468 0.950 . S
C455 C454 1.297 1_556 S
C455 C456 1.479 . S
C455 H469 0.950 . S
C456 C455 1.479 . S
C456 C457 1.375 . S
C456 C462 1.404 . S
C457 C456 1.375 . S
C457 C458 1.369 . S
C457 H470 0.950 . S
C458 C457 1.369 . S
C458 C459 1.392 . S
C458 H471 0.951 . S
C459 C458 1.392 . S
C459 C461 1.384 . S
H460 C462 0.949 . S
C461 C459 1.384 . S
C461 C462 1.385 . S
C461 H463 0.950 . S
C462 C456 1.404 . S
C462 H460 0.949 . S
C462 C461 1.385 . S
H463 C461 0.950 . S
H464 C448 0.951 . S
H465 C450 0.951 . S
H466 C452 0.951 . S
H467 C453 0.950 . S
H468 C454 0.950 . S
H469 C455 0.950 . S
H470 C457 0.950 . S
H471 C458 0.951 . S
C472 C473 1.386 . S
C472 C474 1.383 . S
C472 H488 0.951 . S
C473 C472 1.386 . S
C473 C477 1.383 . S
C474 C472 1.383 . S
C474 C475 1.402 . S
C474 H489 0.951 . S
C475 C474 1.402 . S
C475 C476 1.375 . S
C475 C478 1.481 . S
C476 C475 1.375 . S
C476 C477 1.367 . S
C476 H490 0.951 . S
C477 C473 1.383 . S
C477 C476 1.367 . S
C477 H491 0.950 . S
C478 C475 1.481 . S
C478 C479 1.297 1_554 S
C478 H492 0.950 . S
C479 C478 1.297 1_556 S
C479 C480 1.479 . S
C479 H493 0.950 . S
C480 C479 1.479 . S
C480 C481 1.375 . S
C480 C486 1.404 . S
C481 C480 1.375 . S
C481 C482 1.369 . S
C481 H494 0.950 . S
C482 C481 1.369 . S
C482 C483 1.392 . S
C482 H495 0.951 . S
C483 C482 1.392 . S
C483 C485 1.384 . S
H484 C486 0.949 . S
C485 C483 1.384 . S
C485 C486 1.385 . S
C485 H487 0.950 . S
C486 C480 1.404 . S
C486 H484 0.949 . S
C486 C485 1.385 . S
H487 C485 0.950 . S
H488 C472 0.951 . S
H489 C474 0.951 . S
H490 C476 0.951 . S
H491 C477 0.950 . S
H492 C478 0.950 . S
H493 C479 0.950 . S
H494 C481 0.950 . S
H495 C482 0.951 . S
C113 C13 1.778 1_655 S
C123 C29 1.829 1_455 S
C137 C54 1.796 . S
C147 C15 1.761 . S
C161 C84 1.782 . S
C171 C57 1.787 . S
C185 C71 1.783 1_455 S
C195 C110 1.832 1_655 S
C209 C96 2.010 . S
C219 C1 2.019 . S
C233 C27 2.013 . S
C243 C98 2.017 . S
C257 C41 2.020 . S
C267 C69 2.009 . S
C281 C42 2.012 . S
C291 C83 2.018 . S
C305 C85 2.122 . S
C315 C12 2.154 . S
C329 C14 2.160 . S
C339 C111 2.127 . S
C353 C56 2.129 . S
C363 C28 2.120 . S
C377 C70 2.154 . S
C387 C55 2.144 . S
C401 C26 0.493 . S
C411 C0 0.428 . S
C425 C40 0.447 . S
C435 C43 0.489 . S
C449 C82 0.471 . S
C459 C68 0.549 . S
C473 C97 0.506 . S
C483 C99 0.517 . S
