# Generated by pormake.
# Topology rob, (6)-cn, num edge types: 1
# Building blocks:
#     Node 0, Type 0, BuildingBlock: BETDIP_clean_sbu_0, # of connection points: 6
#     Node 1, Type 0, BuildingBlock: BETDIP_clean_sbu_0, # of connection points: 6
#     Node 2, Type 0, BuildingBlock: BETDIP_clean_sbu_0, # of connection points: 6
#     Node 3, Type 0, BuildingBlock: BETDIP_clean_sbu_0, # of connection points: 6
#     Edge 4, Type (0, 0), BuildingBlock: EZIPEK_clean_linker_0, # of connection points: 2
#     Edge 5, Type (0, 0), BuildingBlock: EZIPEK_clean_linker_0, # of connection points: 2
#     Edge 6, Type (0, 0), BuildingBlock: EZIPEK_clean_linker_0, # of connection points: 2
#     Edge 7, Type (0, 0), BuildingBlock: EZIPEK_clean_linker_0, # of connection points: 2
#     Edge 8, Type (0, 0), BuildingBlock: EZIPEK_clean_linker_0, # of connection points: 2
#     Edge 9, Type (0, 0), BuildingBlock: EZIPEK_clean_linker_0, # of connection points: 2
#     Edge 10, Type (0, 0), BuildingBlock: EZIPEK_clean_linker_0, # of connection points: 2
#     Edge 11, Type (0, 0), BuildingBlock: EZIPEK_clean_linker_0, # of connection points: 2
#     Edge 12, Type (0, 0), BuildingBlock: EZIPEK_clean_linker_0, # of connection points: 2
#     Edge 13, Type (0, 0), BuildingBlock: EZIPEK_clean_linker_0, # of connection points: 2
#     Edge 14, Type (0, 0), BuildingBlock: EZIPEK_clean_linker_0, # of connection points: 2
#     Edge 15, Type (0, 0), BuildingBlock: EZIPEK_clean_linker_0, # of connection points: 2
# Relax obj value: 0.040
# Max RMSD: 0.157
# Mean RMSD: 0.157
data_MOF--net-rob--node1-BETDIP_clean_sbu_0--edge1-EZIPEK_clean_linker_0
_symmetry_space_group_name_H-M    P1
_symmetry_Int_Tables_number       1
_symmetry_cell_setting            triclinic
loop_
_symmetry_equiv_pos_as_xyz
'x, y, z'
_cell_length_a     12.125987
_cell_length_b     16.821116
_cell_length_c     28.877762
_cell_angle_alpha  95.079191
_cell_angle_beta   90.082126
_cell_angle_gamma 89.680158
loop_
_atom_site_label
_atom_site_type_symbol
_atom_site_fract_x
_atom_site_fract_y
_atom_site_fract_z
_atom_type_partial_charge
Tb0 Tb 0.14443 0.32522 0.05957 0.0
Tb1 Tb 0.34663 0.24846 1.01514 0.0
C2 C 0.97879 0.34692 0.11146 0.0
C3 C 0.96337 0.34248 0.16218 0.0
C4 C 0.88954 0.2871 0.17842 0.0
C5 C 0.87623 0.2815 0.22625 0.0
C6 C 0.93634 0.33139 0.25854 0.0
C7 C 0.00999 0.38663 0.24252 0.0
C8 C 0.02349 0.39214 0.19485 0.0
C9 C 0.30734 0.42511 0.04807 0.0
C10 C 0.32983 0.24866 0.12189 0.0
C11 C 0.51255 0.23164 0.96315 0.0
C12 C 0.52931 0.22904 0.91222 0.0
C13 C 0.61574 0.27292 0.89503 0.0
C14 C 0.63295 0.27329 0.8471 0.0
C15 C 0.56184 0.23149 0.81537 0.0
C16 C 0.47449 0.18787 0.83243 0.0
C17 C 0.45814 0.18673 0.88047 0.0
C18 C 0.18576 0.14873 1.0279 0.0
C19 C 0.15986 0.32607 0.95235 0.0
O20 O -0.00087 0.27939 0.08669 0.0
O21 O 0.04083 0.40477 0.09906 0.0
O22 O 0.31598 0.35431 0.05906 0.0
O23 O 0.20372 0.44435 0.0478 0.0
O24 O 0.22525 0.26838 0.11625 0.0
O25 O 0.40093 0.2464 0.08701 0.0
O26 O 0.48 0.30063 0.98322 0.0
O27 O 0.46089 0.17157 0.97923 0.0
O28 O 0.17526 0.21879 1.01556 0.0
O29 O 0.28996 0.13076 1.03022 0.0
O30 O 0.25502 0.28837 0.9561 0.0
O31 O 0.09554 0.34341 0.98886 0.0
H32 H 0.84222 0.24813 0.1541 0.0
H33 H 0.81844 0.23881 0.23811 0.0
H34 H 0.05623 0.42611 0.26697 0.0
H35 H 0.08062 0.43584 0.18371 0.0
H36 H 0.66904 0.30763 0.91899 0.0
H37 H 0.70088 0.30685 0.83461 0.0
H38 H 0.41905 0.15477 0.80852 0.0
H39 H 0.38959 0.15333 0.89272 0.0
Tb40 Tb 0.66339 0.82827 0.05827 0.0
Tb41 Tb 0.84776 0.73103 1.01098 0.0
C42 C 0.50597 0.8658 0.11295 0.0
C43 C 0.48846 0.85714 0.16296 0.0
C44 C 0.5432 0.79685 0.18496 0.0
C45 C 0.52893 0.78993 0.23239 0.0
C46 C 0.45681 0.84152 0.25856 0.0
C47 C 0.40121 0.90158 0.23675 0.0
C48 C 0.41708 0.90935 0.18926 0.0
C49 C 0.83698 0.91235 0.03683 0.0
C50 C 0.84787 0.74046 0.11765 0.0
C51 C -0.00023 0.68495 0.95562 0.0
C52 C 0.01618 0.69263 0.9056 0.0
C53 C 0.97402 0.75895 0.88486 0.0
C54 C 0.98477 0.7641 0.83713 0.0
C55 C 0.04085 0.70425 0.80943 0.0
C56 C 0.08351 0.63796 0.83002 0.0
C57 C 0.07023 0.6318 0.87776 0.0
C58 C 0.67099 0.64868 1.03139 0.0
C59 C 0.66964 0.82035 0.9511 0.0
O60 O 0.51027 0.79928 0.08577 0.0
O61 O 0.58309 0.91564 0.103 0.0
O62 O 0.83755 0.84349 0.05122 0.0
O63 O 0.73575 0.93854 0.03749 0.0
O64 O 0.74907 0.7736 0.11482 0.0
O65 O 0.91054 0.72354 0.08071 0.0
O66 O 0.00394 0.75109 0.98319 0.0
O67 O 0.91734 0.63985 0.96567 0.0
O68 O 0.67351 0.71743 1.01735 0.0
O69 O 0.77144 0.62171 1.03189 0.0
O70 O 0.77121 0.79301 0.95545 0.0
O71 O 0.60313 0.83296 0.98738 0.0
H72 H 0.59525 0.75373 0.16553 0.0
H73 H 0.57161 0.74267 0.24844 0.0
H74 H 0.34449 0.94158 0.25632 0.0
H75 H 0.3724 0.95537 0.173 0.0
H76 H 0.93382 0.80746 0.90544 0.0
H77 H 0.9521 0.81599 0.82195 0.0
H78 H 0.12806 0.59166 0.80929 0.0
H79 H 0.10283 0.57992 0.893 0.0
Tb80 Tb 0.14487 0.72982 0.51114 0.0
Tb81 Tb 0.34188 0.80967 0.55577 0.0
C82 C 0.98367 0.69641 0.45802 0.0
C83 C 0.96715 0.69371 0.40719 0.0
C84 C 0.8724 0.72874 0.38957 0.0
C85 C 0.85882 0.73177 0.34163 0.0
C86 C 0.93998 0.69989 0.31053 0.0
C87 C 0.03353 0.66317 0.32802 0.0
C88 C 0.04713 0.66012 0.37596 0.0
C89 C 0.30054 0.63187 0.53666 0.0
C90 C 0.34242 0.79314 0.44895 0.0
C91 C 0.5017 0.84231 0.61009 0.0
C92 C 0.52002 0.84167 0.6607 0.0
C93 C 0.45515 0.79467 0.68785 0.0
C94 C 0.47283 0.79553 0.73574 0.0
C95 C 0.55644 0.84279 0.75729 0.0
C96 C 0.62228 0.88899 0.73023 0.0
C97 C 0.60369 0.88882 0.68231 0.0
C98 C 0.18619 0.90797 0.53041 0.0
C99 C 0.14428 0.7473 0.6175 0.0
O100 O 0.00013 0.76732 0.47921 0.0
O101 O 0.04991 0.64277 0.47318 0.0
O102 O 0.31448 0.6966 0.51851 0.0
O103 O 0.19573 0.61728 0.5379 0.0
O104 O 0.23817 0.77076 0.45229 0.0
O105 O 0.40748 0.8027 0.48573 0.0
O106 O 0.48827 0.77285 0.5866 0.0
O107 O 0.43153 0.89552 0.59743 0.0
O108 O 0.1724 0.84308 0.54845 0.0
O109 O 0.29103 0.92249 0.52946 0.0
O110 O 0.24968 0.76491 0.61327 0.0
O111 O 0.07808 0.74108 0.58109 0.0
H112 H 0.80984 0.75513 0.41298 0.0
H113 H 0.78605 0.76039 0.32877 0.0
H114 H 0.09637 0.63776 0.30453 0.0
H115 H 0.12081 0.63255 0.38861 0.0
H116 H 0.392 0.75624 0.67222 0.0
H117 H 0.42288 0.758 0.75588 0.0
H118 H 0.68959 0.92342 0.7461 0.0
H119 H 0.65571 0.9244 0.66191 0.0
Tb120 Tb 0.65889 0.22458 0.51224 0.0
Tb121 Tb 0.83854 0.3238 0.55923 0.0
C122 C 0.50517 0.17987 0.45695 0.0
C123 C 0.48627 0.18255 0.40649 0.0
C124 C 0.54927 0.23261 0.38054 0.0
C125 C 0.53034 0.23591 0.33313 0.0
C126 C 0.44747 0.18947 0.31068 0.0
C127 C 0.38476 0.13849 0.3361 0.0
C128 C 0.40384 0.13534 0.38382 0.0
C129 C 0.83147 0.14227 0.53712 0.0
C130 C 0.84534 0.3087 0.45282 0.0
C131 C 0.99119 0.37025 0.61414 0.0
C132 C 0.00698 0.37223 0.66491 0.0
C133 C 0.95562 0.31612 0.69092 0.0
C134 C 0.97294 0.31756 0.73878 0.0
C135 C 0.04171 0.3753 0.76157 0.0
C136 C 0.09098 0.43273 0.73584 0.0
C137 C 0.07452 0.43068 0.6878 0.0
C138 C 0.66379 0.40489 0.53419 0.0
C139 C 0.65586 0.23991 0.61962 0.0
O140 O 0.50623 0.24873 0.4819 0.0
O141 O 0.58502 0.13308 0.46865 0.0
O142 O 0.83297 0.2095 0.52073 0.0
O143 O 0.73067 0.11664 0.53657 0.0
O144 O 0.747 0.27576 0.45534 0.0
O145 O 0.90636 0.32672 0.49004 0.0
O146 O 0.98865 0.29944 0.59133 0.0
O147 O 0.9145 0.41756 0.60016 0.0
O148 O 0.6643 0.33814 0.55091 0.0
O149 O 0.76415 0.43137 0.53463 0.0
O150 O 0.75315 0.27423 0.61702 0.0
O151 O 0.59474 0.22055 0.58239 0.0
H152 H 0.61128 0.27102 0.39669 0.0
H153 H 0.57808 0.27666 0.31422 0.0
H154 H 0.31907 0.10324 0.31935 0.0
H155 H 0.35296 0.09715 0.40313 0.0
H156 H 0.9042 0.26985 0.67435 0.0
H157 H 0.93517 0.27217 0.75784 0.0
H158 H 0.14565 0.47706 0.75265 0.0
H159 H 0.1162 0.47384 0.66841 0.0
C160 C 0.57055 0.54805 0.07512 0.0
C161 C 0.57056 0.5985 0.03805 0.0
C162 C 0.39855 0.53471 1.00799 0.0
C163 C 0.39934 0.48379 0.04481 0.0
N164 N 0.47527 0.4526 0.11846 0.0
N165 N 0.47016 0.6501 0.97428 0.0
C166 C 0.48306 0.49277 0.07949 0.0
C167 C 0.4801 0.59529 1.00624 0.0
N168 N 0.6536 0.55458 0.10724 0.0
N169 N 0.32298 0.52252 0.97284 0.0
H170 H 0.53033 0.69083 0.96772 0.0
H171 H 0.39785 0.65922 0.95595 0.0
H172 H 0.26027 0.48055 0.97256 0.0
H173 H 0.32744 0.54886 0.94161 0.0
H174 H 0.67192 0.51152 0.12988 0.0
H175 H 0.70552 0.60375 0.11097 0.0
H176 H 0.52499 0.46308 0.14771 0.0
H177 H 0.41323 0.41229 0.12355 0.0
C178 C 0.41004 0.51882 0.496 0.0
C179 C 0.38687 0.56853 0.53719 0.0
C180 C 0.53868 0.50574 0.5776 0.0
C181 C 0.56576 0.45897 0.53566 0.0
N182 N 0.53439 0.42467 0.45403 0.0
N183 N 0.40791 0.59483 0.61991 0.0
C184 C 0.50273 0.4661 0.4947 0.0
C185 C 0.44542 0.558 0.5788 0.0
N186 N 0.33987 0.51925 0.45889 0.0
N187 N 0.60459 0.50217 0.61588 0.0
H188 H 0.33721 0.63035 0.62201 0.0
H189 H 0.43955 0.58455 0.65236 0.0
H190 H 0.67059 0.4624 0.61711 0.0
H191 H 0.59828 0.54136 0.64573 0.0
H192 H 0.34453 0.47912 0.4294 0.0
H193 H 0.27027 0.55593 0.45897 0.0
H194 H 0.50164 0.43377 0.42159 0.0
H195 H 0.5992 0.38381 0.4523 0.0
C196 C 0.01956 0.07512 0.99182 0.0
C197 C 0.09625 0.08808 1.02898 0.0
C198 C 0.02449 0.96978 0.06295 0.0
C199 C 0.93532 0.9649 1.03057 0.0
N200 N 0.84972 1.01381 0.96291 0.0
N201 N 0.15761 0.05549 0.10456 0.0
C202 C 0.9331 1.01841 0.99489 0.0
C203 C 0.09466 0.03752 0.06576 0.0
N204 N 0.03327 0.11262 0.9521 0.0
N205 N 0.04613 0.90925 0.09015 0.0
H206 H 0.20874 0.10511 0.10866 0.0
H207 H 0.15016 1.02608 0.13468 0.0
H208 H 0.00393 0.85583 0.08757 0.0
H209 H 0.11632 0.90739 0.1109 0.0
H210 H 0.98691 0.09958 0.92204 0.0
H211 H 0.09842 0.15094 0.94708 0.0
H212 H 0.83346 0.0582 0.94083 0.0
H213 H 0.79472 0.96637 0.95925 0.0
C214 C 0.95254 0.04136 0.4917 0.0
C215 C 0.92713 0.08621 0.53446 0.0
C216 C 0.08219 1.02275 0.57221 0.0
C217 C 0.10073 0.97214 0.53089 0.0
N218 N 0.05677 0.93295 0.45084 0.0
N219 N 0.95927 0.11473 0.6165 0.0
C220 C 0.03695 0.98164 0.49041 0.0
C221 C 0.98992 0.07572 0.57497 0.0
N222 N 0.89689 0.05687 0.45219 0.0
N223 N 0.15502 1.02209 0.60837 0.0
H224 H 0.89454 0.15574 0.61944 0.0
H225 H 0.99246 0.10263 0.64841 0.0
H226 H 0.22387 0.98467 0.60762 0.0
H227 H 0.15315 0.06325 0.63748 0.0
H228 H 0.91791 0.03273 0.41897 0.0
H229 H 0.83283 0.09845 0.45196 0.0
H230 H 0.00568 0.92882 0.42177 0.0
H231 H 0.12347 0.89368 0.44761 0.0
C232 C 0.34924 0.2682 0.25399 0.0
C233 C 0.41804 0.20261 0.26204 0.0
C234 C 0.42942 0.16508 0.178 0.0
C235 C 0.36642 0.23415 0.16976 0.0
N236 N 0.28955 0.36149 0.20037 0.0
N237 N 0.53869 0.09573 0.23279 0.0
C238 C 0.33263 0.28843 0.20788 0.0
C239 C 0.46305 0.15324 0.22429 0.0
N240 N 0.29797 0.31072 0.29051 0.0
N241 N 0.45273 0.10898 0.14211 0.0
H242 H 0.56257 0.08451 0.26633 0.0
H243 H 0.58374 0.06314 0.2069 0.0
H244 H 0.4249 0.1128 0.10827 0.0
H245 H 0.4926 0.05523 0.14624 0.0
H246 H 0.23657 0.35304 0.28637 0.0
H247 H 0.3093 0.29907 0.32508 0.0
H248 H 0.27776 0.40709 0.22675 0.0
H249 H 0.27463 0.38015 0.16756 0.0
C250 C 0.47085 0.88448 0.34449 0.0
C251 C 0.43415 0.82855 0.30805 0.0
C252 C 0.36704 0.74193 0.36559 0.0
C253 C 0.38616 0.8033 0.40159 0.0
N254 N 0.45167 0.93621 0.42522 0.0
N255 N 0.33362 0.7085 0.28366 0.0
C256 C 0.43787 0.87536 0.39116 0.0
C257 C 0.37866 0.75836 0.31854 0.0
N258 N 0.53891 0.94519 0.33451 0.0
N259 N 0.3422 0.66675 0.37652 0.0
H260 H 0.33648 0.71963 0.24873 0.0
H261 H 0.28501 0.65969 0.28965 0.0
H262 H 0.33855 0.65197 0.41075 0.0
H263 H 0.33773 0.61757 0.352 0.0
H264 H 0.57754 0.98348 0.35972 0.0
H265 H 0.56486 0.95301 0.30081 0.0
H266 H 0.48221 0.99196 0.41923 0.0
H267 H 0.42639 0.9332 0.45941 0.0
C268 C 0.64969 0.76003 0.8692 0.0
C269 C 0.62897 0.82573 0.90271 0.0
C270 C 0.54758 0.89986 0.84123 0.0
C271 C 0.58138 0.83798 0.80746 0.0
N272 N 0.68294 0.71581 0.78846 0.0
N273 N 0.56909 0.96237 0.91975 0.0
C274 C 0.63764 0.76998 0.82123 0.0
C275 C 0.57997 0.89674 0.88862 0.0
N276 N 0.67684 0.68676 0.88316 0.0
N277 N 0.48301 0.96084 0.82811 0.0
H278 H 0.59097 0.9625 0.95465 0.0
H279 H 0.5461 1.01846 0.91031 0.0
H280 H 0.45978 0.96572 0.79366 0.0
H281 H 0.4455 1.00295 0.85168 0.0
H282 H 0.68143 0.63519 0.86042 0.0
H283 H 0.68313 0.67519 0.9179 0.0
H284 H 0.73592 0.6702 0.79672 0.0
H285 H 0.67622 0.72062 0.7528 0.0
C286 C 0.6529 0.16465 0.69081 0.0
C287 C 0.61421 0.22963 0.66703 0.0
C288 C 0.54707 0.29751 0.74028 0.0
C289 C 0.58104 0.2312 0.76419 0.0
N290 N 0.67646 0.10536 0.7643 0.0
N291 N 0.50538 0.34939 0.66643 0.0
C292 C 0.63609 0.16527 0.73987 0.0
C293 C 0.55514 0.29331 0.69101 0.0
N294 N 0.70406 0.10207 0.66592 0.0
N295 N 0.51372 0.36661 0.76484 0.0
H296 H 0.5094 0.34754 0.63027 0.0
H297 H 0.45156 0.39294 0.68119 0.0
H298 H 0.50936 0.37302 0.80098 0.0
H299 H 0.49968 0.41982 0.74986 0.0
H300 H 0.73731 0.05258 0.68001 0.0
H301 H 0.71045 0.09842 0.62978 0.0
H302 H 0.72605 0.0589 0.7503 0.0
H303 H 0.66505 0.10376 0.79999 0.0
C304 C 0.90475 0.79721 0.19741 0.0
C305 C 0.89032 0.72938 0.16494 0.0
C306 C 0.91014 0.64155 0.2278 0.0
C307 C 0.9293 0.70901 0.25985 0.0
N308 N 0.97414 0.84865 0.27288 0.0
N309 N 0.90834 0.58707 0.14728 0.0
C310 C 0.93559 0.7862 0.24392 0.0
C311 C 0.90301 0.65153 0.17946 0.0
N312 N 0.88713 0.87229 0.18416 0.0
N313 N 0.89257 0.56858 0.24364 0.0
H314 H 0.90407 0.59194 0.1116 0.0
H315 H 0.92667 0.52963 0.15576 0.0
H316 H 0.89737 0.55854 0.27871 0.0
H317 H 0.86317 0.51999 0.22244 0.0
H318 H 0.88269 0.92293 0.20762 0.0
H319 H 0.87016 0.88381 0.15001 0.0
H320 H 0.99148 0.90451 0.26182 0.0
H321 H -0.0007 0.84252 0.30696 0.0
C322 C 0.96143 0.26889 0.38228 0.0
C323 C 0.88608 0.32313 0.4059 0.0
C324 C 0.84221 0.38062 0.33302 0.0
C325 C 0.91958 0.32814 0.30937 0.0
N326 N 0.06535 0.23055 0.31177 0.0
N327 N 0.7799 0.44434 0.40695 0.0
C328 C 0.98345 0.27489 0.33419 0.0
C329 C 0.83415 0.38324 0.38216 0.0
N330 N 0.00878 0.21004 0.40548 0.0
N331 N 0.77343 0.42586 0.30838 0.0
H332 H 0.77685 0.4492 0.44318 0.0
H333 H 0.74875 0.49415 0.39222 0.0
H334 H 0.77619 0.42516 0.27226 0.0
H335 H 0.70746 0.45875 0.32327 0.0
H336 H 0.05399 0.16266 0.38932 0.0
H337 H 0.99867 0.20665 0.44111 0.0
H338 H 0.12262 0.19694 0.32866 0.0
H339 H 0.08088 0.23147 0.27629 0.0
C340 C 0.98861 0.37535 0.84612 0.0
C341 C 0.07094 0.36995 0.81125 0.0
C342 C 0.21009 0.35725 0.87108 0.0
C343 C 0.12672 0.34638 0.90473 0.0
N344 N 0.93178 0.32379 0.91738 0.0
N345 N 0.25747 0.33097 0.79039 0.0
C346 C 0.0142 0.3503 0.89071 0.0
C347 C 0.181 0.35381 0.82358 0.0
N348 N 0.88627 0.40416 0.8369 0.0
N349 N 0.31655 0.37405 0.88381 0.0
H350 H 0.24018 0.32494 0.75487 0.0
H351 H 0.33393 0.30817 0.79912 0.0
H352 H 0.34232 0.38503 0.91813 0.0
H353 H 0.37621 0.38762 0.85984 0.0
H354 H 0.82716 0.41632 0.86281 0.0
H355 H 0.8652 0.4234 0.80464 0.0
H356 H 0.85069 0.32004 0.90574 0.0
H357 H 0.94524 0.29488 0.94728 0.0
C358 C 0.13886 0.79612 0.70157 0.0
C359 C 0.1025 0.7396 0.66542 0.0
C360 C 0.0098 0.66534 0.72375 0.0
C361 C 0.06203 0.71496 0.75961 0.0
N362 N 0.19321 0.81896 0.78204 0.0
N363 N 0.00901 0.61573 0.64222 0.0
C364 C 0.13132 0.77797 0.74834 0.0
C365 C 0.03838 0.67315 0.67639 0.0
N366 N 0.17687 0.86882 0.6913 0.0
N367 N 0.93234 0.61153 0.73498 0.0
H368 H 0.03237 0.61665 0.60763 0.0
H369 H 0.96756 0.56382 0.64844 0.0
H370 H 0.91152 0.60313 0.76922 0.0
H371 H 0.88259 0.57962 0.71059 0.0
H372 H 0.19536 0.91495 0.71656 0.0
H373 H 0.177 0.88622 0.65757 0.0
H374 H 0.25297 0.86035 0.77476 0.0
H375 H 0.19314 0.80602 0.8167 0.0
loop_
_geom_bond_atom_site_label_1
_geom_bond_atom_site_label_2
_geom_bond_distance
_geom_bond_site_symmetry_2
_ccdc_geom_bond_type
Tb0 C2 2.809 . S
Tb0 O20 2.484 . S
Tb0 O21 2.440 . S
Tb0 O22 2.658 1_554 S
Tb0 O23 2.409 . S
Tb0 O24 2.378 . S
Tb0 O28 2.325 . S
Tb0 O31 2.341 1_554 S
Tb1 C11 2.809 . S
Tb1 O22 2.325 . S
Tb1 O25 2.341 1_556 S
Tb1 O26 2.484 . S
Tb1 O27 2.440 . S
Tb1 O28 2.658 1_556 S
Tb1 O29 2.409 . S
Tb1 O30 2.378 . S
C2 Tb0 2.809 . S
C2 C3 1.514 . S
C2 O20 1.248 . S
C2 O21 1.266 . S
C3 C2 1.514 . S
C3 C4 1.359 1_455 S
C3 C8 1.348 . S
C4 C3 1.359 1_655 S
C4 C5 1.380 . S
C4 H32 0.929 . S
C5 C4 1.380 . S
C5 C6 1.347 . S
C5 H33 0.931 . S
C6 C5 1.347 . S
C6 C7 1.369 . S
C7 C6 1.369 . S
C7 C8 1.408 1_655 S
C7 H34 0.930 . S
C8 C3 1.348 . S
C8 C7 1.408 1_455 S
C8 H35 0.930 . S
C9 O22 1.281 1_554 S
C9 O23 1.254 . S
C10 O24 1.236 . S
C10 O25 1.266 . S
C11 Tb1 2.809 . S
C11 C12 1.514 . S
C11 O26 1.248 . S
C11 O27 1.266 . S
C12 C11 1.514 . S
C12 C13 1.359 . S
C12 C17 1.348 . S
C13 C12 1.359 . S
C13 C14 1.380 . S
C13 H36 0.929 . S
C14 C13 1.380 . S
C14 C15 1.347 . S
C14 H37 0.931 . S
C15 C14 1.347 . S
C15 C16 1.369 . S
C16 C15 1.369 . S
C16 C17 1.408 . S
C16 H38 0.930 . S
C17 C12 1.348 . S
C17 C16 1.408 . S
C17 H39 0.930 . S
C18 O28 1.281 1_556 S
C18 O29 1.254 . S
C19 O30 1.236 . S
C19 O31 1.266 . S
O20 Tb0 2.484 . S
O20 C2 1.248 . S
O21 Tb0 2.440 . S
O21 C2 1.266 . S
O22 Tb0 2.658 1_556 S
O22 Tb1 2.325 . S
O22 C9 1.281 1_556 S
O23 Tb0 2.409 . S
O23 C9 1.254 . S
O24 Tb0 2.378 . S
O24 C10 1.236 . S
O25 Tb1 2.341 1_554 S
O25 C10 1.266 . S
O26 Tb1 2.484 . S
O26 C11 1.248 . S
O27 Tb1 2.440 . S
O27 C11 1.266 . S
O28 Tb0 2.325 . S
O28 Tb1 2.658 1_554 S
O28 C18 1.281 1_554 S
O29 Tb1 2.409 . S
O29 C18 1.254 . S
O30 Tb1 2.378 . S
O30 C19 1.236 . S
O31 Tb0 2.341 1_556 S
O31 C19 1.266 . S
H32 C4 0.929 . S
H33 C5 0.931 . S
H34 C7 0.930 . S
H35 C8 0.930 . S
H36 C13 0.929 . S
H37 C14 0.931 . S
H38 C16 0.930 . S
H39 C17 0.930 . S
Tb40 C42 2.809 . S
Tb40 O60 2.484 . S
Tb40 O61 2.440 . S
Tb40 O62 2.658 1_554 S
Tb40 O63 2.409 . S
Tb40 O64 2.378 . S
Tb40 O68 2.325 . S
Tb40 O71 2.341 1_554 S
Tb41 C51 2.809 . S
Tb41 O62 2.325 . S
Tb41 O65 2.341 1_556 S
Tb41 O66 2.484 . S
Tb41 O67 2.440 . S
Tb41 O68 2.658 1_556 S
Tb41 O69 2.409 . S
Tb41 O70 2.378 . S
C42 Tb40 2.809 . S
C42 C43 1.514 . S
C42 O60 1.248 . S
C42 O61 1.266 . S
C43 C42 1.514 . S
C43 C44 1.359 . S
C43 C48 1.348 . S
C44 C43 1.359 . S
C44 C45 1.380 . S
C44 H72 0.929 . S
C45 C44 1.380 . S
C45 C46 1.347 . S
C45 H73 0.931 . S
C46 C45 1.347 . S
C46 C47 1.369 . S
C47 C46 1.369 . S
C47 C48 1.408 . S
C47 H74 0.930 . S
C48 C43 1.348 . S
C48 C47 1.408 . S
C48 H75 0.930 . S
C49 O62 1.281 1_554 S
C49 O63 1.254 . S
C50 O64 1.236 . S
C50 O65 1.266 . S
C51 Tb41 2.809 . S
C51 C52 1.514 . S
C51 O66 1.248 . S
C51 O67 1.266 . S
C52 C51 1.514 . S
C52 C53 1.359 1_655 S
C52 C57 1.348 . S
C53 C52 1.359 1_455 S
C53 C54 1.380 . S
C53 H76 0.929 . S
C54 C53 1.380 . S
C54 C55 1.347 . S
C54 H77 0.931 . S
C55 C54 1.347 . S
C55 C56 1.369 . S
C56 C55 1.369 . S
C56 C57 1.408 1_455 S
C56 H78 0.930 . S
C57 C52 1.348 . S
C57 C56 1.408 1_655 S
C57 H79 0.930 . S
C58 O68 1.281 1_556 S
C58 O69 1.254 . S
C59 O70 1.236 . S
C59 O71 1.266 . S
O60 Tb40 2.484 . S
O60 C42 1.248 . S
O61 Tb40 2.440 . S
O61 C42 1.266 . S
O62 Tb40 2.658 1_556 S
O62 Tb41 2.325 . S
O62 C49 1.281 1_556 S
O63 Tb40 2.409 . S
O63 C49 1.254 . S
O64 Tb40 2.378 . S
O64 C50 1.236 . S
O65 Tb41 2.341 1_554 S
O65 C50 1.266 . S
O66 Tb41 2.484 . S
O66 C51 1.248 . S
O67 Tb41 2.440 . S
O67 C51 1.266 . S
O68 Tb40 2.325 . S
O68 Tb41 2.658 1_554 S
O68 C58 1.281 1_554 S
O69 Tb41 2.409 . S
O69 C58 1.254 . S
O70 Tb41 2.378 . S
O70 C59 1.236 . S
O71 Tb40 2.341 1_556 S
O71 C59 1.266 . S
H72 C44 0.929 . S
H73 C45 0.931 . S
H74 C47 0.930 . S
H75 C48 0.930 . S
H76 C53 0.929 . S
H77 C54 0.931 . S
H78 C56 0.930 . S
H79 C57 0.930 . S
Tb80 C82 2.809 . S
Tb80 O100 2.484 . S
Tb80 O101 2.440 . S
Tb80 O102 2.658 . S
Tb80 O103 2.409 . S
Tb80 O104 2.378 . S
Tb80 O108 2.325 . S
Tb80 O111 2.341 . S
Tb81 C91 2.809 . S
Tb81 O102 2.325 . S
Tb81 O105 2.341 . S
Tb81 O106 2.484 . S
Tb81 O107 2.440 . S
Tb81 O108 2.658 . S
Tb81 O109 2.409 . S
Tb81 O110 2.378 . S
C82 Tb80 2.809 . S
C82 C83 1.514 . S
C82 O100 1.248 . S
C82 O101 1.266 . S
C83 C82 1.514 . S
C83 C84 1.359 1_455 S
C83 C88 1.348 . S
C84 C83 1.359 1_655 S
C84 C85 1.380 . S
C84 H112 0.929 . S
C85 C84 1.380 . S
C85 C86 1.347 . S
C85 H113 0.931 . S
C86 C85 1.347 . S
C86 C87 1.369 . S
C87 C86 1.369 . S
C87 C88 1.408 1_655 S
C87 H114 0.930 . S
C88 C83 1.348 . S
C88 C87 1.408 1_455 S
C88 H115 0.930 . S
C89 O102 1.281 . S
C89 O103 1.254 . S
C90 O104 1.236 . S
C90 O105 1.266 . S
C91 Tb81 2.809 . S
C91 C92 1.514 . S
C91 O106 1.248 . S
C91 O107 1.266 . S
C92 C91 1.514 . S
C92 C93 1.359 . S
C92 C97 1.348 . S
C93 C92 1.359 . S
C93 C94 1.380 . S
C93 H116 0.929 . S
C94 C93 1.380 . S
C94 C95 1.347 . S
C94 H117 0.931 . S
C95 C94 1.347 . S
C95 C96 1.369 . S
C96 C95 1.369 . S
C96 C97 1.408 . S
C96 H118 0.930 . S
C97 C92 1.348 . S
C97 C96 1.408 . S
C97 H119 0.930 . S
C98 O108 1.281 . S
C98 O109 1.254 . S
C99 O110 1.236 . S
C99 O111 1.266 . S
O100 Tb80 2.484 . S
O100 C82 1.248 . S
O101 Tb80 2.440 . S
O101 C82 1.266 . S
O102 Tb80 2.658 . S
O102 Tb81 2.325 . S
O102 C89 1.281 . S
O103 Tb80 2.409 . S
O103 C89 1.254 . S
O104 Tb80 2.378 . S
O104 C90 1.236 . S
O105 Tb81 2.341 . S
O105 C90 1.266 . S
O106 Tb81 2.484 . S
O106 C91 1.248 . S
O107 Tb81 2.440 . S
O107 C91 1.266 . S
O108 Tb80 2.325 . S
O108 Tb81 2.658 . S
O108 C98 1.281 . S
O109 Tb81 2.409 . S
O109 C98 1.254 . S
O110 Tb81 2.378 . S
O110 C99 1.236 . S
O111 Tb80 2.341 . S
O111 C99 1.266 . S
H112 C84 0.929 . S
H113 C85 0.931 . S
H114 C87 0.930 . S
H115 C88 0.930 . S
H116 C93 0.929 . S
H117 C94 0.931 . S
H118 C96 0.930 . S
H119 C97 0.930 . S
Tb120 C122 2.809 . S
Tb120 O140 2.484 . S
Tb120 O141 2.440 . S
Tb120 O142 2.658 . S
Tb120 O143 2.409 . S
Tb120 O144 2.378 . S
Tb120 O148 2.325 . S
Tb120 O151 2.341 . S
Tb121 C131 2.809 . S
Tb121 O142 2.325 . S
Tb121 O145 2.341 . S
Tb121 O146 2.484 . S
Tb121 O147 2.440 . S
Tb121 O148 2.658 . S
Tb121 O149 2.409 . S
Tb121 O150 2.378 . S
C122 Tb120 2.809 . S
C122 C123 1.514 . S
C122 O140 1.248 . S
C122 O141 1.266 . S
C123 C122 1.514 . S
C123 C124 1.359 . S
C123 C128 1.348 . S
C124 C123 1.359 . S
C124 C125 1.380 . S
C124 H152 0.929 . S
C125 C124 1.380 . S
C125 C126 1.347 . S
C125 H153 0.931 . S
C126 C125 1.347 . S
C126 C127 1.369 . S
C127 C126 1.369 . S
C127 C128 1.408 . S
C127 H154 0.930 . S
C128 C123 1.348 . S
C128 C127 1.408 . S
C128 H155 0.930 . S
C129 O142 1.281 . S
C129 O143 1.254 . S
C130 O144 1.236 . S
C130 O145 1.266 . S
C131 Tb121 2.809 . S
C131 C132 1.514 . S
C131 O146 1.248 . S
C131 O147 1.266 . S
C132 C131 1.514 . S
C132 C133 1.359 1_655 S
C132 C137 1.348 . S
C133 C132 1.359 1_455 S
C133 C134 1.380 . S
C133 H156 0.929 . S
C134 C133 1.380 . S
C134 C135 1.347 . S
C134 H157 0.931 . S
C135 C134 1.347 . S
C135 C136 1.369 . S
C136 C135 1.369 . S
C136 C137 1.408 1_455 S
C136 H158 0.930 . S
C137 C132 1.348 . S
C137 C136 1.408 1_655 S
C137 H159 0.930 . S
C138 O148 1.281 . S
C138 O149 1.254 . S
C139 O150 1.236 . S
C139 O151 1.266 . S
O140 Tb120 2.484 . S
O140 C122 1.248 . S
O141 Tb120 2.440 . S
O141 C122 1.266 . S
O142 Tb120 2.658 . S
O142 Tb121 2.325 . S
O142 C129 1.281 . S
O143 Tb120 2.409 . S
O143 C129 1.254 . S
O144 Tb120 2.378 . S
O144 C130 1.236 . S
O145 Tb121 2.341 . S
O145 C130 1.266 . S
O146 Tb121 2.484 . S
O146 C131 1.248 . S
O147 Tb121 2.440 . S
O147 C131 1.266 . S
O148 Tb120 2.325 . S
O148 Tb121 2.658 . S
O148 C138 1.281 . S
O149 Tb121 2.409 . S
O149 C138 1.254 . S
O150 Tb121 2.378 . S
O150 C139 1.236 . S
O151 Tb120 2.341 . S
O151 C139 1.266 . S
H152 C124 0.929 . S
H153 C125 0.931 . S
H154 C127 0.930 . S
H155 C128 0.930 . S
H156 C133 0.929 . S
H157 C134 0.931 . S
H158 C136 0.930 . S
H159 C137 0.930 . S
C160 C161 1.363 . S
C160 C166 1.379 . S
C160 N168 1.356 . S
C161 C160 1.363 . S
C161 C167 1.363 1_554 S
C162 C163 1.363 1_556 S
C162 C167 1.379 . S
C162 N169 1.356 . S
C163 C162 1.363 1_554 S
C163 C166 1.363 . S
N164 C166 1.356 . S
N164 H176 0.984 . S
N164 H177 0.985 . S
N165 C167 1.356 . S
N165 H170 0.984 . S
N165 H171 0.985 . S
C166 C160 1.379 . S
C166 C163 1.363 . S
C166 N164 1.356 . S
C167 C161 1.363 1_556 S
C167 C162 1.379 . S
C167 N165 1.356 . S
N168 C160 1.356 . S
N168 H174 0.984 . S
N168 H175 0.984 . S
N169 C162 1.356 . S
N169 H172 0.984 . S
N169 H173 0.985 . S
H170 N165 0.984 . S
H171 N165 0.985 . S
H172 N169 0.984 . S
H173 N169 0.985 . S
H174 N168 0.984 . S
H175 N168 0.984 . S
H176 N164 0.984 . S
H177 N164 0.985 . S
C178 C179 1.363 . S
C178 C184 1.379 . S
C178 N186 1.356 . S
C179 C178 1.363 . S
C179 C185 1.363 . S
C180 C181 1.363 . S
C180 C185 1.379 . S
C180 N187 1.356 . S
C181 C180 1.363 . S
C181 C184 1.363 . S
N182 C184 1.356 . S
N182 H194 0.984 . S
N182 H195 0.985 . S
N183 C185 1.356 . S
N183 H188 0.984 . S
N183 H189 0.985 . S
C184 C178 1.379 . S
C184 C181 1.363 . S
C184 N182 1.356 . S
C185 C179 1.363 . S
C185 C180 1.379 . S
C185 N183 1.356 . S
N186 C178 1.356 . S
N186 H192 0.984 . S
N186 H193 0.984 . S
N187 C180 1.356 . S
N187 H190 0.984 . S
N187 H191 0.985 . S
H188 N183 0.984 . S
H189 N183 0.985 . S
H190 N187 0.984 . S
H191 N187 0.985 . S
H192 N186 0.984 . S
H193 N186 0.984 . S
H194 N182 0.984 . S
H195 N182 0.985 . S
C196 C197 1.358 1_656 S
C196 C202 1.384 1_545 S
C196 N204 1.355 1_655 S
C197 C196 1.358 1_454 S
C197 C203 1.363 . S
C198 C199 1.358 1_455 S
C198 C203 1.384 1_565 S
C198 N205 1.355 1_455 S
C199 C198 1.358 1_655 S
C199 C202 1.363 1_554 S
N200 C202 1.356 . S
N200 H212 0.986 . S
N200 H213 0.985 . S
N201 C203 1.356 . S
N201 H206 0.984 . S
N201 H207 0.986 . S
C202 C196 1.384 1_565 S
C202 C199 1.363 1_556 S
C202 N200 1.356 . S
C203 C197 1.363 . S
C203 C198 1.384 1_545 S
C203 N201 1.356 . S
N204 C196 1.355 1_455 S
N204 H210 0.984 1_455 S
N204 H211 0.984 . S
N205 C198 1.355 1_655 S
N205 H208 0.984 . S
N205 H209 0.985 1_655 S
H206 N201 0.984 . S
H207 N201 0.986 . S
H208 N205 0.984 . S
H209 N205 0.985 1_455 S
H210 N204 0.984 1_655 S
H211 N204 0.984 . S
H212 N200 0.986 . S
H213 N200 0.985 . S
C214 C215 1.363 1_565 S
C214 C220 1.378 . S
C214 N222 1.356 1_565 S
C215 C214 1.363 1_545 S
C215 C221 1.364 1_655 S
C216 C217 1.363 1_545 S
C216 C221 1.378 . S
C216 N223 1.356 1_545 S
C217 C216 1.363 1_565 S
C217 C220 1.364 1_455 S
N218 C220 1.356 1_455 S
N218 H230 0.984 1_455 S
N218 H231 0.985 . S
N219 C221 1.356 1_655 S
N219 H224 0.984 . S
N219 H225 0.985 1_655 S
C220 C214 1.378 . S
C220 C217 1.364 1_655 S
C220 N218 1.356 1_655 S
C221 C215 1.364 1_455 S
C221 C216 1.378 . S
C221 N219 1.356 1_455 S
N222 C214 1.356 1_545 S
N222 H228 0.984 1_545 S
N222 H229 0.984 . S
N223 C216 1.356 1_565 S
N223 H226 0.984 . S
N223 H227 0.985 1_565 S
H224 N219 0.984 . S
H225 N219 0.985 1_455 S
H226 N223 0.984 . S
H227 N223 0.985 1_545 S
H228 N222 0.984 1_565 S
H229 N222 0.984 . S
H230 N218 0.984 1_655 S
H231 N218 0.985 . S
C232 C233 1.363 . S
C232 C238 1.379 . S
C232 N240 1.356 . S
C233 C232 1.363 . S
C233 C239 1.363 . S
C234 C235 1.363 . S
C234 C239 1.379 . S
C234 N241 1.356 . S
C235 C234 1.363 . S
C235 C238 1.363 . S
N236 C238 1.356 . S
N236 H248 0.984 . S
N236 H249 0.985 . S
N237 C239 1.356 . S
N237 H242 0.984 . S
N237 H243 0.985 . S
C238 C232 1.379 . S
C238 C235 1.363 . S
C238 N236 1.356 . S
C239 C233 1.363 . S
C239 C234 1.379 . S
C239 N237 1.356 . S
N240 C232 1.356 . S
N240 H246 0.984 . S
N240 H247 0.984 . S
N241 C234 1.356 . S
N241 H244 0.984 . S
N241 H245 0.985 . S
H242 N237 0.984 . S
H243 N237 0.985 . S
H244 N241 0.984 . S
H245 N241 0.985 . S
H246 N240 0.984 . S
H247 N240 0.984 . S
H248 N236 0.984 . S
H249 N236 0.985 . S
C250 C251 1.363 . S
C250 C256 1.379 . S
C250 N258 1.356 . S
C251 C250 1.363 . S
C251 C257 1.363 . S
C252 C253 1.363 . S
C252 C257 1.379 . S
C252 N259 1.356 . S
C253 C252 1.363 . S
C253 C256 1.363 . S
N254 C256 1.356 . S
N254 H266 0.984 . S
N254 H267 0.985 . S
N255 C257 1.356 . S
N255 H260 0.984 . S
N255 H261 0.985 . S
C256 C250 1.379 . S
C256 C253 1.363 . S
C256 N254 1.356 . S
C257 C251 1.363 . S
C257 C252 1.379 . S
C257 N255 1.356 . S
N258 C250 1.356 . S
N258 H264 0.984 . S
N258 H265 0.984 . S
N259 C252 1.356 . S
N259 H262 0.984 . S
N259 H263 0.985 . S
H260 N255 0.984 . S
H261 N255 0.985 . S
H262 N259 0.984 . S
H263 N259 0.985 . S
H264 N258 0.984 . S
H265 N258 0.984 . S
H266 N254 0.984 . S
H267 N254 0.985 . S
C268 C269 1.363 . S
C268 C274 1.379 . S
C268 N276 1.356 . S
C269 C268 1.363 . S
C269 C275 1.363 . S
C270 C271 1.363 . S
C270 C275 1.379 . S
C270 N277 1.356 . S
C271 C270 1.363 . S
C271 C274 1.363 . S
N272 C274 1.356 . S
N272 H284 0.984 . S
N272 H285 0.985 . S
N273 C275 1.356 . S
N273 H278 0.984 . S
N273 H279 0.985 . S
C274 C268 1.379 . S
C274 C271 1.363 . S
C274 N272 1.356 . S
C275 C269 1.363 . S
C275 C270 1.379 . S
C275 N273 1.356 . S
N276 C268 1.356 . S
N276 H282 0.984 . S
N276 H283 0.984 . S
N277 C270 1.356 . S
N277 H280 0.984 . S
N277 H281 0.985 . S
H278 N273 0.984 . S
H279 N273 0.985 . S
H280 N277 0.984 . S
H281 N277 0.985 . S
H282 N276 0.984 . S
H283 N276 0.984 . S
H284 N272 0.984 . S
H285 N272 0.985 . S
C286 C287 1.363 . S
C286 C292 1.379 . S
C286 N294 1.356 . S
C287 C286 1.363 . S
C287 C293 1.363 . S
C288 C289 1.363 . S
C288 C293 1.379 . S
C288 N295 1.356 . S
C289 C288 1.363 . S
C289 C292 1.363 . S
N290 C292 1.356 . S
N290 H302 0.984 . S
N290 H303 0.985 . S
N291 C293 1.356 . S
N291 H296 0.984 . S
N291 H297 0.985 . S
C292 C286 1.379 . S
C292 C289 1.363 . S
C292 N290 1.356 . S
C293 C287 1.363 . S
C293 C288 1.379 . S
C293 N291 1.356 . S
N294 C286 1.356 . S
N294 H300 0.984 . S
N294 H301 0.984 . S
N295 C288 1.356 . S
N295 H298 0.984 . S
N295 H299 0.985 . S
H296 N291 0.984 . S
H297 N291 0.985 . S
H298 N295 0.984 . S
H299 N295 0.985 . S
H300 N294 0.984 . S
H301 N294 0.984 . S
H302 N290 0.984 . S
H303 N290 0.985 . S
C304 C305 1.363 . S
C304 C310 1.379 . S
C304 N312 1.356 . S
C305 C304 1.363 . S
C305 C311 1.363 . S
C306 C307 1.363 . S
C306 C311 1.379 . S
C306 N313 1.356 . S
C307 C306 1.363 . S
C307 C310 1.363 . S
N308 C310 1.356 . S
N308 H320 0.984 1_655 S
N308 H321 0.985 . S
N309 C311 1.356 . S
N309 H314 0.984 . S
N309 H315 0.985 . S
C310 C304 1.379 . S
C310 C307 1.363 . S
C310 N308 1.356 . S
C311 C305 1.363 . S
C311 C306 1.379 . S
C311 N309 1.356 . S
N312 C304 1.356 . S
N312 H318 0.984 . S
N312 H319 0.984 . S
N313 C306 1.356 . S
N313 H316 0.984 . S
N313 H317 0.985 . S
H314 N309 0.984 . S
H315 N309 0.985 . S
H316 N313 0.984 . S
H317 N313 0.985 . S
H318 N312 0.984 . S
H319 N312 0.984 . S
H320 N308 0.984 1_455 S
H321 N308 0.985 . S
C322 C323 1.363 . S
C322 C328 1.379 . S
C322 N330 1.356 . S
C323 C322 1.363 . S
C323 C329 1.363 . S
C324 C325 1.363 . S
C324 C329 1.379 . S
C324 N331 1.356 . S
C325 C324 1.363 . S
C325 C328 1.363 . S
N326 C328 1.356 1_455 S
N326 H338 0.984 . S
N326 H339 0.985 . S
N327 C329 1.356 . S
N327 H332 0.984 . S
N327 H333 0.985 . S
C328 C322 1.379 . S
C328 C325 1.363 . S
C328 N326 1.356 1_655 S
C329 C323 1.363 . S
C329 C324 1.379 . S
C329 N327 1.356 . S
N330 C322 1.356 . S
N330 H336 0.984 1_655 S
N330 H337 0.984 . S
N331 C324 1.356 . S
N331 H334 0.984 . S
N331 H335 0.985 . S
H332 N327 0.984 . S
H333 N327 0.985 . S
H334 N331 0.984 . S
H335 N331 0.985 . S
H336 N330 0.984 1_455 S
H337 N330 0.984 . S
H338 N326 0.984 . S
H339 N326 0.985 . S
C340 C341 1.363 . S
C340 C346 1.379 . S
C340 N348 1.356 1_455 S
C341 C340 1.363 . S
C341 C347 1.363 . S
C342 C343 1.363 . S
C342 C347 1.379 . S
C342 N349 1.356 . S
C343 C342 1.363 . S
C343 C346 1.363 . S
N344 C346 1.356 1_655 S
N344 H356 0.984 . S
N344 H357 0.985 1_655 S
N345 C347 1.356 . S
N345 H350 0.984 . S
N345 H351 0.985 . S
C346 C340 1.379 . S
C346 C343 1.363 . S
C346 N344 1.356 1_455 S
C347 C341 1.363 . S
C347 C342 1.379 . S
C347 N345 1.356 . S
N348 C340 1.356 1_655 S
N348 H354 0.984 . S
N348 H355 0.984 . S
N349 C342 1.356 . S
N349 H352 0.984 . S
N349 H353 0.985 . S
H350 N345 0.984 . S
H351 N345 0.985 . S
H352 N349 0.984 . S
H353 N349 0.985 . S
H354 N348 0.984 . S
H355 N348 0.984 . S
H356 N344 0.984 . S
H357 N344 0.985 1_455 S
C358 C359 1.363 . S
C358 C364 1.379 . S
C358 N366 1.356 . S
C359 C358 1.363 . S
C359 C365 1.363 . S
C360 C361 1.363 . S
C360 C365 1.379 . S
C360 N367 1.356 1_455 S
C361 C360 1.363 . S
C361 C364 1.363 . S
N362 C364 1.356 . S
N362 H374 0.984 . S
N362 H375 0.985 . S
N363 C365 1.356 . S
N363 H368 0.984 . S
N363 H369 0.985 1_455 S
C364 C358 1.379 . S
C364 C361 1.363 . S
C364 N362 1.356 . S
C365 C359 1.363 . S
C365 C360 1.379 . S
C365 N363 1.356 . S
N366 C358 1.356 . S
N366 H372 0.984 . S
N366 H373 0.984 . S
N367 C360 1.356 1_655 S
N367 H370 0.984 . S
N367 H371 0.985 . S
H368 N363 0.984 . S
H369 N363 0.985 1_655 S
H370 N367 0.984 . S
H371 N367 0.985 . S
H372 N366 0.984 . S
H373 N366 0.984 . S
H374 N362 0.984 . S
H375 N362 0.985 . S
C161 C58 1.541 1_554 S
C163 C9 1.541 . S
C179 C89 1.541 . S
C181 C138 1.541 . S
C197 C18 1.541 1_554 S
C199 C49 1.541 . S
C215 C129 1.541 . S
C217 C98 1.541 . S
C233 C126 1.400 . S
C235 C10 1.428 . S
C251 C46 1.400 . S
C253 C90 1.428 . S
C269 C59 1.428 . S
C271 C95 1.400 . S
C287 C139 1.428 . S
C289 C15 1.400 . S
C305 C50 1.428 . S
C307 C86 1.400 . S
C323 C130 1.428 . S
C325 C6 1.400 . S
C341 C135 1.400 . S
C343 C19 1.428 . S
C359 C99 1.428 . S
C361 C55 1.400 . S
