# Generated by pormake.
# Topology wir, (6)-cn, num edge types: 1
# Building blocks:
#     Node 0, Type 0, BuildingBlock: BETFEN_clean_sbu_0, # of connection points: 6
#     Node 1, Type 0, BuildingBlock: BETFEN_clean_sbu_0, # of connection points: 6
#     Node 2, Type 0, BuildingBlock: BETFEN_clean_sbu_0, # of connection points: 6
#     Node 3, Type 0, BuildingBlock: BETFEN_clean_sbu_0, # of connection points: 6
#     Node 4, Type 0, BuildingBlock: BETFEN_clean_sbu_0, # of connection points: 6
#     Node 5, Type 0, BuildingBlock: BETFEN_clean_sbu_0, # of connection points: 6
#     Node 6, Type 0, BuildingBlock: BETFEN_clean_sbu_0, # of connection points: 6
#     Node 7, Type 0, BuildingBlock: BETFEN_clean_sbu_0, # of connection points: 6
#     Node 8, Type 0, BuildingBlock: BETFEN_clean_sbu_0, # of connection points: 6
#     Node 9, Type 0, BuildingBlock: BETFEN_clean_sbu_0, # of connection points: 6
#     Node 10, Type 0, BuildingBlock: BETFEN_clean_sbu_0, # of connection points: 6
#     Node 11, Type 0, BuildingBlock: BETFEN_clean_sbu_0, # of connection points: 6
#     Node 12, Type 0, BuildingBlock: BETFEN_clean_sbu_0, # of connection points: 6
#     Node 13, Type 0, BuildingBlock: BETFEN_clean_sbu_0, # of connection points: 6
#     Node 14, Type 0, BuildingBlock: BETFEN_clean_sbu_0, # of connection points: 6
#     Node 15, Type 0, BuildingBlock: BETFEN_clean_sbu_0, # of connection points: 6
#     Node 16, Type 0, BuildingBlock: BETFEN_clean_sbu_0, # of connection points: 6
#     Node 17, Type 0, BuildingBlock: BETFEN_clean_sbu_0, # of connection points: 6
#     Node 18, Type 0, BuildingBlock: BETFEN_clean_sbu_0, # of connection points: 6
#     Node 19, Type 0, BuildingBlock: BETFEN_clean_sbu_0, # of connection points: 6
#     Node 20, Type 0, BuildingBlock: BETFEN_clean_sbu_0, # of connection points: 6
#     Node 21, Type 0, BuildingBlock: BETFEN_clean_sbu_0, # of connection points: 6
#     Node 22, Type 0, BuildingBlock: BETFEN_clean_sbu_0, # of connection points: 6
#     Node 23, Type 0, BuildingBlock: BETFEN_clean_sbu_0, # of connection points: 6
#     Node 24, Type 0, BuildingBlock: BETFEN_clean_sbu_0, # of connection points: 6
#     Node 25, Type 0, BuildingBlock: BETFEN_clean_sbu_0, # of connection points: 6
#     Node 26, Type 0, BuildingBlock: BETFEN_clean_sbu_0, # of connection points: 6
#     Node 27, Type 0, BuildingBlock: BETFEN_clean_sbu_0, # of connection points: 6
#     Node 28, Type 0, BuildingBlock: BETFEN_clean_sbu_0, # of connection points: 6
#     Node 29, Type 0, BuildingBlock: BETFEN_clean_sbu_0, # of connection points: 6
#     Node 30, Type 0, BuildingBlock: BETFEN_clean_sbu_0, # of connection points: 6
#     Node 31, Type 0, BuildingBlock: BETFEN_clean_sbu_0, # of connection points: 6
#     Edge 32, Type (0, 0), BuildingBlock: OJICUG_clean_linker_0, # of connection points: 2
#     Edge 33, Type (0, 0), BuildingBlock: OJICUG_clean_linker_0, # of connection points: 2
#     Edge 34, Type (0, 0), BuildingBlock: OJICUG_clean_linker_0, # of connection points: 2
#     Edge 35, Type (0, 0), BuildingBlock: OJICUG_clean_linker_0, # of connection points: 2
#     Edge 36, Type (0, 0), BuildingBlock: OJICUG_clean_linker_0, # of connection points: 2
#     Edge 37, Type (0, 0), BuildingBlock: OJICUG_clean_linker_0, # of connection points: 2
#     Edge 38, Type (0, 0), BuildingBlock: OJICUG_clean_linker_0, # of connection points: 2
#     Edge 39, Type (0, 0), BuildingBlock: OJICUG_clean_linker_0, # of connection points: 2
#     Edge 40, Type (0, 0), BuildingBlock: OJICUG_clean_linker_0, # of connection points: 2
#     Edge 41, Type (0, 0), BuildingBlock: OJICUG_clean_linker_0, # of connection points: 2
#     Edge 42, Type (0, 0), BuildingBlock: OJICUG_clean_linker_0, # of connection points: 2
#     Edge 43, Type (0, 0), BuildingBlock: OJICUG_clean_linker_0, # of connection points: 2
#     Edge 44, Type (0, 0), BuildingBlock: OJICUG_clean_linker_0, # of connection points: 2
#     Edge 45, Type (0, 0), BuildingBlock: OJICUG_clean_linker_0, # of connection points: 2
#     Edge 46, Type (0, 0), BuildingBlock: OJICUG_clean_linker_0, # of connection points: 2
#     Edge 47, Type (0, 0), BuildingBlock: OJICUG_clean_linker_0, # of connection points: 2
#     Edge 48, Type (0, 0), BuildingBlock: OJICUG_clean_linker_0, # of connection points: 2
#     Edge 49, Type (0, 0), BuildingBlock: OJICUG_clean_linker_0, # of connection points: 2
#     Edge 50, Type (0, 0), BuildingBlock: OJICUG_clean_linker_0, # of connection points: 2
#     Edge 51, Type (0, 0), BuildingBlock: OJICUG_clean_linker_0, # of connection points: 2
#     Edge 52, Type (0, 0), BuildingBlock: OJICUG_clean_linker_0, # of connection points: 2
#     Edge 53, Type (0, 0), BuildingBlock: OJICUG_clean_linker_0, # of connection points: 2
#     Edge 54, Type (0, 0), BuildingBlock: OJICUG_clean_linker_0, # of connection points: 2
#     Edge 55, Type (0, 0), BuildingBlock: OJICUG_clean_linker_0, # of connection points: 2
#     Edge 56, Type (0, 0), BuildingBlock: OJICUG_clean_linker_0, # of connection points: 2
#     Edge 57, Type (0, 0), BuildingBlock: OJICUG_clean_linker_0, # of connection points: 2
#     Edge 58, Type (0, 0), BuildingBlock: OJICUG_clean_linker_0, # of connection points: 2
#     Edge 59, Type (0, 0), BuildingBlock: OJICUG_clean_linker_0, # of connection points: 2
#     Edge 60, Type (0, 0), BuildingBlock: OJICUG_clean_linker_0, # of connection points: 2
#     Edge 61, Type (0, 0), BuildingBlock: OJICUG_clean_linker_0, # of connection points: 2
#     Edge 62, Type (0, 0), BuildingBlock: OJICUG_clean_linker_0, # of connection points: 2
#     Edge 63, Type (0, 0), BuildingBlock: OJICUG_clean_linker_0, # of connection points: 2
#     Edge 64, Type (0, 0), BuildingBlock: OJICUG_clean_linker_0, # of connection points: 2
#     Edge 65, Type (0, 0), BuildingBlock: OJICUG_clean_linker_0, # of connection points: 2
#     Edge 66, Type (0, 0), BuildingBlock: OJICUG_clean_linker_0, # of connection points: 2
#     Edge 67, Type (0, 0), BuildingBlock: OJICUG_clean_linker_0, # of connection points: 2
#     Edge 68, Type (0, 0), BuildingBlock: OJICUG_clean_linker_0, # of connection points: 2
#     Edge 69, Type (0, 0), BuildingBlock: OJICUG_clean_linker_0, # of connection points: 2
#     Edge 70, Type (0, 0), BuildingBlock: OJICUG_clean_linker_0, # of connection points: 2
#     Edge 71, Type (0, 0), BuildingBlock: OJICUG_clean_linker_0, # of connection points: 2
#     Edge 72, Type (0, 0), BuildingBlock: OJICUG_clean_linker_0, # of connection points: 2
#     Edge 73, Type (0, 0), BuildingBlock: OJICUG_clean_linker_0, # of connection points: 2
#     Edge 74, Type (0, 0), BuildingBlock: OJICUG_clean_linker_0, # of connection points: 2
#     Edge 75, Type (0, 0), BuildingBlock: OJICUG_clean_linker_0, # of connection points: 2
#     Edge 76, Type (0, 0), BuildingBlock: OJICUG_clean_linker_0, # of connection points: 2
#     Edge 77, Type (0, 0), BuildingBlock: OJICUG_clean_linker_0, # of connection points: 2
#     Edge 78, Type (0, 0), BuildingBlock: OJICUG_clean_linker_0, # of connection points: 2
#     Edge 79, Type (0, 0), BuildingBlock: OJICUG_clean_linker_0, # of connection points: 2
#     Edge 80, Type (0, 0), BuildingBlock: OJICUG_clean_linker_0, # of connection points: 2
#     Edge 81, Type (0, 0), BuildingBlock: OJICUG_clean_linker_0, # of connection points: 2
#     Edge 82, Type (0, 0), BuildingBlock: OJICUG_clean_linker_0, # of connection points: 2
#     Edge 83, Type (0, 0), BuildingBlock: OJICUG_clean_linker_0, # of connection points: 2
#     Edge 84, Type (0, 0), BuildingBlock: OJICUG_clean_linker_0, # of connection points: 2
#     Edge 85, Type (0, 0), BuildingBlock: OJICUG_clean_linker_0, # of connection points: 2
#     Edge 86, Type (0, 0), BuildingBlock: OJICUG_clean_linker_0, # of connection points: 2
#     Edge 87, Type (0, 0), BuildingBlock: OJICUG_clean_linker_0, # of connection points: 2
#     Edge 88, Type (0, 0), BuildingBlock: OJICUG_clean_linker_0, # of connection points: 2
#     Edge 89, Type (0, 0), BuildingBlock: OJICUG_clean_linker_0, # of connection points: 2
#     Edge 90, Type (0, 0), BuildingBlock: OJICUG_clean_linker_0, # of connection points: 2
#     Edge 91, Type (0, 0), BuildingBlock: OJICUG_clean_linker_0, # of connection points: 2
#     Edge 92, Type (0, 0), BuildingBlock: OJICUG_clean_linker_0, # of connection points: 2
#     Edge 93, Type (0, 0), BuildingBlock: OJICUG_clean_linker_0, # of connection points: 2
#     Edge 94, Type (0, 0), BuildingBlock: OJICUG_clean_linker_0, # of connection points: 2
#     Edge 95, Type (0, 0), BuildingBlock: OJICUG_clean_linker_0, # of connection points: 2
#     Edge 96, Type (0, 0), BuildingBlock: OJICUG_clean_linker_0, # of connection points: 2
#     Edge 97, Type (0, 0), BuildingBlock: OJICUG_clean_linker_0, # of connection points: 2
#     Edge 98, Type (0, 0), BuildingBlock: OJICUG_clean_linker_0, # of connection points: 2
#     Edge 99, Type (0, 0), BuildingBlock: OJICUG_clean_linker_0, # of connection points: 2
#     Edge 100, Type (0, 0), BuildingBlock: OJICUG_clean_linker_0, # of connection points: 2
#     Edge 101, Type (0, 0), BuildingBlock: OJICUG_clean_linker_0, # of connection points: 2
#     Edge 102, Type (0, 0), BuildingBlock: OJICUG_clean_linker_0, # of connection points: 2
#     Edge 103, Type (0, 0), BuildingBlock: OJICUG_clean_linker_0, # of connection points: 2
#     Edge 104, Type (0, 0), BuildingBlock: OJICUG_clean_linker_0, # of connection points: 2
#     Edge 105, Type (0, 0), BuildingBlock: OJICUG_clean_linker_0, # of connection points: 2
#     Edge 106, Type (0, 0), BuildingBlock: OJICUG_clean_linker_0, # of connection points: 2
#     Edge 107, Type (0, 0), BuildingBlock: OJICUG_clean_linker_0, # of connection points: 2
#     Edge 108, Type (0, 0), BuildingBlock: OJICUG_clean_linker_0, # of connection points: 2
#     Edge 109, Type (0, 0), BuildingBlock: OJICUG_clean_linker_0, # of connection points: 2
#     Edge 110, Type (0, 0), BuildingBlock: OJICUG_clean_linker_0, # of connection points: 2
#     Edge 111, Type (0, 0), BuildingBlock: OJICUG_clean_linker_0, # of connection points: 2
#     Edge 112, Type (0, 0), BuildingBlock: OJICUG_clean_linker_0, # of connection points: 2
#     Edge 113, Type (0, 0), BuildingBlock: OJICUG_clean_linker_0, # of connection points: 2
#     Edge 114, Type (0, 0), BuildingBlock: OJICUG_clean_linker_0, # of connection points: 2
#     Edge 115, Type (0, 0), BuildingBlock: OJICUG_clean_linker_0, # of connection points: 2
#     Edge 116, Type (0, 0), BuildingBlock: OJICUG_clean_linker_0, # of connection points: 2
#     Edge 117, Type (0, 0), BuildingBlock: OJICUG_clean_linker_0, # of connection points: 2
#     Edge 118, Type (0, 0), BuildingBlock: OJICUG_clean_linker_0, # of connection points: 2
#     Edge 119, Type (0, 0), BuildingBlock: OJICUG_clean_linker_0, # of connection points: 2
#     Edge 120, Type (0, 0), BuildingBlock: OJICUG_clean_linker_0, # of connection points: 2
#     Edge 121, Type (0, 0), BuildingBlock: OJICUG_clean_linker_0, # of connection points: 2
#     Edge 122, Type (0, 0), BuildingBlock: OJICUG_clean_linker_0, # of connection points: 2
#     Edge 123, Type (0, 0), BuildingBlock: OJICUG_clean_linker_0, # of connection points: 2
#     Edge 124, Type (0, 0), BuildingBlock: OJICUG_clean_linker_0, # of connection points: 2
#     Edge 125, Type (0, 0), BuildingBlock: OJICUG_clean_linker_0, # of connection points: 2
#     Edge 126, Type (0, 0), BuildingBlock: OJICUG_clean_linker_0, # of connection points: 2
#     Edge 127, Type (0, 0), BuildingBlock: OJICUG_clean_linker_0, # of connection points: 2
# Relax obj value: 0.599
# Max RMSD: 0.209
# Mean RMSD: 0.209
data_MOF--net-wir--node1-BETFEN_clean_sbu_0--edge1-OJICUG_clean_linker_0
_symmetry_space_group_name_H-M    P1
_symmetry_Int_Tables_number       1
_symmetry_cell_setting            triclinic
loop_
_symmetry_equiv_pos_as_xyz
'x, y, z'
_cell_length_a     28.59807
_cell_length_b     28.762878
_cell_length_c     81.16524
_cell_angle_alpha  89.968008
_cell_angle_beta   89.86882
_cell_angle_gamma 89.427841
loop_
_atom_site_label
_atom_site_type_symbol
_atom_site_fract_x
_atom_site_fract_y
_atom_site_fract_z
_atom_type_partial_charge
Pr0 Pr 0.32085 0.27681 0.45033 0.0
Pr1 Pr 0.29739 0.23119 0.44091 0.0
C2 C 0.34841 0.35953 0.46202 0.0
C3 C 0.31843 0.4012 0.46229 0.0
C4 C 0.31581 0.42745 0.47678 0.0
C5 C 0.27459 0.45146 0.48065 0.0
C6 C 0.23586 0.44919 0.47007 0.0
C7 C 0.24092 0.42889 0.45453 0.0
C8 C 0.28218 0.40498 0.45061 0.0
C9 C 0.35997 0.20225 0.47712 0.0
C10 C 0.25469 0.22093 0.47415 0.0
C11 C 0.32274 0.16972 0.41785 0.0
C12 C 0.32218 0.175 0.39983 0.0
C13 C 0.28009 0.18367 0.39149 0.0
C14 C 0.28049 0.19497 0.37482 0.0
C15 C 0.32296 0.19823 0.36613 0.0
C16 C 0.36512 0.19017 0.37453 0.0
C17 C 0.3647 0.17844 0.39122 0.0
C18 C 0.20319 0.26979 0.4421 0.0
C19 C 0.33246 0.29463 0.41083 0.0
O20 O 0.36101 0.34429 0.44756 0.0
O21 O 0.33316 0.32643 0.47146 0.0
O22 O 0.36256 0.21401 0.46128 0.0
O23 O 0.36434 0.21254 0.46125 0.0
O24 O 0.26632 0.19177 0.46259 0.0
O25 O 0.26698 0.26431 0.47203 0.0
O26 O 0.35272 0.19665 0.42523 0.0
O27 O 0.28233 0.16746 0.42549 0.0
O28 O 0.2416 0.29356 0.44191 0.0
O29 O 0.2138 0.22545 0.44183 0.0
O30 O 0.36046 0.29339 0.42365 0.0
O31 O 0.29268 0.27634 0.41524 0.0
H32 H 0.34307 0.42465 0.48599 0.0
H33 H 0.27105 0.467 0.49276 0.0
H34 H 0.21153 0.42744 0.44617 0.0
H35 H 0.28332 0.38487 0.43933 0.0
H36 H 0.24677 0.18223 0.39783 0.0
H37 H 0.24725 0.19964 0.36863 0.0
H38 H 0.39832 0.19221 0.36814 0.0
H39 H 0.3977 0.17287 0.39749 0.0
Pr40 Pr 0.11281 1.0459 0.69865 0.0
Pr41 Pr 0.15285 1.0172 0.69147 0.0
C42 C 1.0315 0.08671 0.70655 0.0
C43 C 0.98878 1.05959 0.70645 0.0
C44 C 0.95955 1.06137 0.72026 0.0
C45 C 0.93585 1.0215 0.72503 0.0
C46 C 0.9425 0.9799 0.71619 0.0
C47 C 0.96408 0.98083 0.70078 0.0
C48 C 0.98748 1.02066 0.69593 0.0
C49 C 0.18047 0.0844 0.72734 0.0
C50 C 0.1486 0.97997 0.72595 0.0
C51 C 0.21725 1.03434 0.66835 0.0
C52 C 0.21028 1.03974 0.65042 0.0
C53 C 0.20723 1.0008 0.64012 0.0
C54 C 0.19622 1.00625 0.62349 0.0
C55 C 0.18763 1.05075 0.61678 0.0
C56 C 0.18926 0.08951 0.62725 0.0
C57 C 0.20111 0.08415 0.64379 0.0
C58 C 0.11322 0.92565 0.69335 0.0
C59 C 0.09455 1.05481 0.66025 0.0
O60 O 1.05117 0.093 0.69225 0.0
O61 O 1.06104 0.07226 0.71762 0.0
O62 O 0.17636 0.08194 0.71103 0.0
O63 O 0.17797 0.08328 0.71104 0.0
O64 O 0.18247 0.98589 0.71542 0.0
O65 O 0.10798 0.99725 0.7218 0.0
O66 O 0.19776 1.06703 0.67721 0.0
O67 O 0.21211 0.99288 0.67475 0.0
O68 O 0.09014 0.96506 0.69276 0.0
O69 O 0.1581 0.93436 0.69342 0.0
O70 O 0.10645 0.08489 0.6715 0.0
O71 O 0.1017 1.01373 0.66677 0.0
H72 H 0.96025 0.09094 0.72851 0.0
H73 H 0.91887 1.02114 0.73698 0.0
H74 H 0.9686 0.94925 0.69369 0.0
H75 H 1.00947 1.0187 0.68506 0.0
H76 H 0.21357 0.9661 0.64485 0.0
H77 H 0.19667 0.97552 0.6158 0.0
H78 H 0.18247 0.1242 0.6226 0.0
H79 H 0.20242 0.11492 0.65146 0.0
Pr80 Pr 0.36457 0.8556 0.94984 0.0
Pr81 Pr 0.39706 0.90138 0.94371 0.0
C82 C 0.32455 0.77421 0.95657 0.0
C83 C 0.35193 0.73099 0.95581 0.0
C84 C 0.35056 0.70031 0.96917 0.0
C85 C 0.38987 0.67316 0.97284 0.0
C86 C 0.43078 0.67726 0.96329 0.0
C87 C 0.42903 0.7015 0.94841 0.0
C88 C 0.38986 0.72867 0.94472 0.0
C89 C 0.32283 0.92504 0.97769 0.0
C90 C 0.42541 0.88348 0.97968 0.0
C91 C 0.39794 0.97594 0.9241 0.0
C92 C 0.40427 0.97499 0.90621 0.0
C93 C 0.4369 0.94396 0.89906 0.0
C94 C 0.43144 0.92935 0.88278 0.0
C95 C 0.39297 0.94509 0.87362 0.0
C96 C 0.36295 0.97919 0.88036 0.0
C97 C 0.36869 0.99415 0.89649 0.0
C98 C 0.48502 0.85302 0.94531 0.0
C99 C 0.3556 0.84859 0.91096 0.0
O100 O 0.31795 0.79554 0.94257 0.0
O101 O 0.33865 0.80219 0.96809 0.0
O102 O 0.32743 0.92081 0.96147 0.0
O103 O 0.32631 0.92221 0.96145 0.0
O104 O 0.42242 0.91959 0.97002 0.0
O105 O 0.40849 0.8449 0.97393 0.0
O106 O 0.35936 0.9559 0.92878 0.0
O107 O 0.4339 0.96436 0.93317 0.0
O108 O 0.44488 0.83451 0.94171 0.0
O109 O 0.47849 0.89678 0.94893 0.0
O110 O 0.3255 0.85175 0.92301 0.0
O111 O 0.39674 0.86002 0.91675 0.0
H112 H 0.32186 0.70177 0.9779 0.0
H113 H 0.39067 0.65473 0.98448 0.0
H114 H 0.45985 0.70406 0.94075 0.0
H115 H 0.39165 0.75182 0.9342 0.0
H116 H 0.46446 0.92824 0.90638 0.0
H117 H 0.45585 0.90425 0.87761 0.0
H118 H 0.3343 0.99371 0.87325 0.0
H119 H 0.34303 1.01782 0.90178 0.0
Pr120 Pr 0.5214 0.10665 0.20192 0.0
Pr121 Pr 0.47075 0.14423 0.19703 0.0
C122 C 0.59789 1.05562 0.20812 0.0
C123 C 0.64464 0.07569 0.20711 0.0
C124 C 0.67605 1.06687 0.21995 0.0
C125 C 0.70583 0.10205 0.22516 0.0
C126 C 0.70372 0.14603 0.21763 0.0
C127 C 0.67845 0.15193 0.20306 0.0
C128 C 0.64945 0.11646 0.19764 0.0
C129 C 0.44359 1.07056 0.22935 0.0
C130 C 0.51423 0.16401 0.23236 0.0
C131 C 0.38305 0.16844 0.18885 0.0
C132 C 0.33607 0.15759 0.19442 0.0
C133 C 0.32613 0.11409 0.20125 0.0
C134 C 0.28049 0.09779 0.20075 0.0
C135 C 0.24585 0.12405 0.19248 0.0
C136 C 0.25404 0.172 0.19026 0.0
C137 C 0.29963 0.18831 0.19065 0.0
C138 C 0.52445 0.22797 0.19742 0.0
C139 C 0.52359 0.10084 0.16219 0.0
O140 O 0.5753 1.05231 0.19419 0.0
O141 O 0.5725 0.07419 0.21983 0.0
O142 O 0.45218 0.07332 0.21322 0.0
O143 O 0.45084 0.07226 0.21313 0.0
O144 O 0.47326 0.15992 0.2255 0.0
O145 O 0.54945 0.15014 0.22363 0.0
O146 O 0.40815 0.19225 0.19905 0.0
O147 O 0.40626 0.1349 0.18152 0.0
O148 O 0.54041 0.18698 0.19301 0.0
O149 O 0.4819 0.22357 0.2025 0.0
O150 O 0.53819 0.07659 0.17473 0.0
O151 O 0.49503 0.13474 0.16724 0.0
H152 H 0.67268 1.03591 0.22746 0.0
H153 H 0.72517 0.09717 0.23651 0.0
H154 H 0.67628 0.18572 0.19719 0.0
H155 H 0.62545 0.12412 0.18766 0.0
H156 H 0.35403 0.09077 0.20508 0.0
H157 H 0.27516 1.06164 0.20374 0.0
H158 H 0.22778 0.19506 0.18511 0.0
H159 H 0.30682 0.22305 0.18619 0.0
Pr160 Pr 0.27087 0.8742 0.3025 0.0
Pr161 Pr 0.23048 0.92122 0.3054 0.0
C162 C 0.32724 0.80037 0.29903 0.0
C163 C 0.30936 0.75317 0.29949 0.0
C164 C 0.32461 0.72176 0.28745 0.0
C165 C 0.29307 0.69005 0.281 0.0
C166 C 0.24615 0.69137 0.2862 0.0
C167 C 0.23389 0.71586 0.30043 0.0
C168 C 0.26575 0.74663 0.30721 0.0
C169 C 0.31079 0.9442 0.27372 0.0
C170 C 0.21735 0.87069 0.27106 0.0
C171 C 0.20328 1.00849 0.31287 0.0
C172 C 0.21524 1.05549 0.30788 0.0
C173 C 0.25487 1.06362 0.29814 0.0
C174 C 0.27494 0.10761 0.29808 0.0
C175 C 0.25624 0.14275 0.30828 0.0
C176 C 0.21121 0.13658 0.31502 0.0
C177 C 0.1912 0.09273 0.31505 0.0
C178 C 0.148 0.86518 0.30498 0.0
C179 C 0.27229 0.87656 0.34163 0.0
O180 O 0.32458 0.82348 0.31286 0.0
O181 O 0.31124 0.82391 0.28646 0.0
O182 O 0.30306 0.94146 0.28992 0.0
O183 O 0.30392 0.9428 0.28993 0.0
O184 O 0.2181 0.91297 0.27689 0.0
O185 O 0.23264 0.83871 0.28088 0.0
O186 O 0.18263 0.98333 0.30184 0.0
O187 O 0.23555 0.98577 0.32106 0.0
O188 O 0.1893 0.85174 0.31027 0.0
O189 O 0.15179 0.90654 0.29887 0.0
O190 O 0.30214 0.86814 0.32992 0.0
O191 O 0.23429 0.89668 0.33535 0.0
H192 H 0.35811 0.72622 0.28142 0.0
H193 H 0.30299 0.67084 0.27002 0.0
H194 H 0.19787 0.71713 0.30459 0.0
H195 H 0.25343 0.77042 0.31665 0.0
H196 H 0.2729 1.03516 0.29204 0.0
H197 H 0.30866 0.11182 0.29219 0.0
H198 H 0.19476 0.16303 0.32261 0.0
H199 H 0.15972 0.08699 0.3222 0.0
Pr200 Pr 0.55928 1.03056 0.54917 0.0
Pr201 Pr 0.50343 0.99805 0.55537 0.0
C202 C 0.64152 1.07104 0.543 0.0
C203 C 0.68625 1.04762 0.54655 0.0
C204 C 0.71988 1.04573 0.534 0.0
C205 C 0.74345 1.00384 0.53093 0.0
C206 C 0.73171 0.96391 0.54004 0.0
C207 C 0.70812 0.96959 0.55503 0.0
C208 C 0.68552 1.01175 0.55837 0.0
C209 C 0.48866 0.07618 0.52233 0.0
C210 C 0.53064 0.97341 0.51883 0.0
C211 C 0.41539 0.98482 0.56596 0.0
C212 C 0.36698 0.99406 0.56109 0.0
C213 C 0.35351 1.03579 0.55342 0.0
C214 C 0.3062 1.04844 0.55281 0.0
C215 C 0.27242 1.02003 0.56035 0.0
C216 C 0.28592 0.97484 0.56529 0.0
C217 C 0.33295 0.96223 0.56581 0.0
C218 C 0.55612 0.91118 0.55434 0.0
C219 C 0.5568 1.04014 0.58934 0.0
O220 O 0.61601 0.08211 0.55579 0.0
O221 O 0.61739 1.05015 0.5316 0.0
O222 O 0.4931 1.07038 0.53855 0.0
O223 O 0.49194 0.07137 0.53855 0.0
O224 O 0.49321 0.97958 0.52777 0.0
O225 O 0.57007 0.98641 0.52522 0.0
O226 O 0.43837 0.95435 0.55724 0.0
O227 O 0.44056 1.02032 0.57042 0.0
O228 O 0.57261 0.95117 0.55905 0.0
O229 O 0.51339 0.91769 0.54958 0.0
O230 O 0.57513 1.06065 0.57654 0.0
O231 O 0.5262 1.00848 0.58477 0.0
H232 H 0.72163 0.07317 0.52487 0.0
H233 H 0.76242 1.00047 0.51942 0.0
H234 H 0.70015 0.93971 0.56259 0.0
H235 H 0.66076 1.01276 0.56849 0.0
H236 H 0.37955 1.06008 0.54911 0.0
H237 H 0.29681 0.08266 0.54824 0.0
H238 H 0.26133 0.95124 0.57092 0.0
H239 H 0.34288 0.92923 0.5713 0.0
Pr240 Pr 0.34085 0.28457 0.80102 0.0
Pr241 Pr 0.37337 0.23451 0.80746 0.0
C242 C 0.29423 0.36434 0.79529 0.0
C243 C 0.31494 0.41037 0.79668 0.0
C244 C 0.30375 0.44336 0.78463 0.0
C245 C 0.33939 0.47014 0.77789 0.0
C246 C 0.38585 0.46217 0.78291 0.0
C247 C 0.39434 0.43843 0.79764 0.0
C248 C 0.35845 0.41272 0.8047 0.0
C249 C 0.30325 0.21218 0.77318 0.0
C250 C 0.40372 0.26179 0.77166 0.0
C251 C 0.37455 0.14883 0.82039 0.0
C252 C 0.35879 0.10165 0.81629 0.0
C253 C 0.32153 0.08264 0.82512 0.0
C254 C 0.31524 1.03476 0.82536 0.0
C255 C 0.34733 1.00506 0.8172 0.0
C256 C 0.37811 1.02491 0.80568 0.0
C257 C 0.3845 0.07299 0.80546 0.0
C258 C 0.46228 0.28042 0.80647 0.0
C259 C 0.33257 0.29082 0.84066 0.0
O260 O 0.29003 0.34137 0.80904 0.0
O261 O 0.31292 0.33926 0.78354 0.0
O262 O 0.3046 0.21905 0.78938 0.0
O263 O 0.30339 0.21769 0.78943 0.0
O264 O 0.39902 0.22418 0.78046 0.0
O265 O 0.38661 0.30004 0.77785 0.0
O266 O 0.4092 0.1656 0.81184 0.0
O267 O 0.34246 0.17982 0.82415 0.0
O268 O 0.422 0.30087 0.80931 0.0
O269 O 0.45538 0.23652 0.80374 0.0
O270 O 0.30552 0.29793 0.82799 0.0
O271 O 0.37025 0.26757 0.83591 0.0
H272 H 0.2702 0.44253 0.77846 0.0
H273 H 0.33222 0.48941 0.76668 0.0
H274 H 0.42983 0.43273 0.80189 0.0
H275 H 0.36747 0.38805 0.81432 0.0
H276 H 0.30019 0.10414 0.83319 0.0
H277 H 0.28972 1.02151 0.83398 0.0
H278 H 0.40175 1.00316 0.79856 0.0
H279 H 0.41241 0.08697 0.79796 0.0
Pr280 Pr 0.1242 0.09426 1.04959 0.0
Pr281 Pr 0.17211 0.12336 1.05674 0.0
C282 C 1.04086 1.05906 1.04156 0.0
C283 C 0.99795 0.08722 1.04193 0.0
C284 C 0.96636 0.08435 1.02885 0.0
C285 C 0.93862 0.12292 1.02485 0.0
C286 C 0.94271 0.16439 1.03387 0.0
C287 C 0.96851 0.16457 1.04843 0.0
C288 C 0.99641 0.12624 1.05241 0.0
C289 C 0.19737 1.05578 1.02182 0.0
C290 C 0.16091 0.1589 1.02164 0.0
C291 C 0.24431 0.10997 1.07705 0.0
C292 C 0.24131 0.10531 1.0951 0.0
C293 C 0.23326 0.14438 1.10508 0.0
C294 C 0.21984 0.13884 1.12148 0.0
C295 C 0.21363 0.09414 0.12817 0.0
C296 C 0.22254 1.05515 1.11824 0.0
C297 C 0.23702 1.06066 1.102 0.0
C298 C 0.12669 0.213 1.05564 0.0
C299 C 0.11714 0.084 1.08889 0.0
O300 O 1.06045 1.05098 1.05578 0.0
O301 O 1.07072 0.07314 1.03058 0.0
O302 O 0.1883 1.05555 1.03786 0.0
O303 O 0.18981 1.05399 1.03792 0.0
O304 O 0.19585 0.15311 1.03175 0.0
O305 O 0.12055 0.14277 1.02635 0.0
O306 O 0.22423 0.07618 1.06913 0.0
O307 O 0.23507 0.15082 1.07063 0.0
O308 O 0.10612 0.17349 1.05835 0.0
O309 O 0.17123 0.20542 1.05294 0.0
O310 O 0.11778 1.05505 1.07646 0.0
O311 O 0.13153 0.12445 1.08363 0.0
H312 H 0.96731 1.0548 1.02058 0.0
H313 H 0.91884 0.1224 1.01347 0.0
H314 H 0.97098 0.19597 1.05566 0.0
H315 H 1.0203 0.12913 1.06269 0.0
H316 H 0.23598 0.17924 1.10014 0.0
H317 H 0.21488 0.16969 0.12894 0.0
H318 H 0.21797 1.02026 1.12296 0.0
H319 H 0.24259 1.02978 1.09458 0.0
Pr320 Pr 0.88881 0.90184 0.80696 0.0
Pr321 Pr 0.85869 0.85902 0.80081 0.0
C322 C 0.87309 0.97127 0.82822 0.0
C323 C 0.86407 0.96629 0.84608 0.0
C324 C 0.9009 0.96082 0.85732 0.0
C325 C 0.89169 0.94875 0.87367 0.0
C326 C 0.84549 0.94115 0.87911 0.0
C327 C 0.80886 0.94615 0.86776 0.0
C328 C 0.81791 0.95945 0.85159 0.0
C329 C 0.97972 0.85906 0.80598 0.0
C330 C 0.85135 0.84836 0.83958 0.0
C331 C 0.81969 0.77725 0.79417 0.0
C332 C 0.8483 0.73485 0.7949 0.0
C333 C 0.84741 0.70359 0.78171 0.0
C334 C 0.88701 0.67661 0.77821 0.0
C335 C 0.92771 0.68139 0.78774 0.0
C336 C 0.92578 0.70678 0.80238 0.0
C337 C 0.88633 0.73372 0.80591 0.0
C338 C 0.81987 0.92869 0.77171 0.0
C339 C 0.92449 0.88396 0.77226 0.0
O340 O 0.84049 0.95367 0.81903 0.0
O341 O 0.91519 0.96175 0.8227 0.0
O342 O 0.93996 0.83776 0.80806 0.0
O343 O 0.97157 0.90357 0.80373 0.0
O344 O 0.8204 0.85569 0.82804 0.0
O345 O 0.89231 0.85691 0.83309 0.0
O346 O 0.81269 0.79845 0.80817 0.0
O347 O 0.83293 0.80555 0.7826 0.0
O348 O 0.82167 0.92249 0.78796 0.0
O349 O 0.82025 0.92406 0.78797 0.0
O350 O 0.91901 0.92116 0.78132 0.0
O351 O 0.90717 0.8458 0.77814 0.0
H352 H 0.93684 0.96536 0.85346 0.0
H353 H 0.92086 0.94664 0.88212 0.0
H354 H 0.77295 0.94006 0.87134 0.0
H355 H 0.78857 0.96281 0.84324 0.0
H356 H 0.81867 0.70418 0.77304 0.0
H357 H 0.88803 0.65716 0.76677 0.0
H358 H 0.95649 0.70998 0.81003 0.0
H359 H 0.88775 0.75732 0.81629 0.0
Pr360 Pr 0.96724 0.13709 0.55748 0.0
Pr361 Pr 1.00648 0.10423 0.55219 0.0
C362 C 0.89613 0.12985 0.57871 0.0
C363 C 0.90149 0.12222 0.59657 0.0
C364 C 0.91171 0.15928 0.60713 0.0
C365 C 0.92745 0.15061 0.6231 0.0
C366 C 0.93416 0.10466 0.62876 0.0
C367 C 0.92337 1.06774 0.61818 0.0
C368 C 0.90612 0.0764 0.60248 0.0
C369 C 1.01022 0.22577 0.5556 0.0
C370 C 1.01976 0.09775 0.59028 0.0
C371 C 0.08378 1.05157 0.54762 0.0
C372 C 0.13161 1.06779 0.54628 0.0
C373 C 0.1622 1.04499 0.53547 0.0
C374 C 0.19755 1.07007 0.52785 0.0
C375 C 0.20054 0.11829 0.53049 0.0
C376 C 0.17586 0.13861 0.54358 0.0
C377 C 0.14127 0.11326 0.55151 0.0
C378 C 0.93389 1.07102 0.52311 0.0
C379 C 0.99065 0.16472 0.52195 0.0
O380 O 0.91123 0.09514 0.56983 0.0
O381 O 0.90877 0.17008 0.57274 0.0
O382 O 1.03158 0.18572 0.55773 0.0
O383 O 0.9654 0.21875 0.55355 0.0
O384 O 1.00503 1.06747 0.57961 0.0
O385 O 1.0171 0.13813 0.58283 0.0
O386 O 1.06406 1.05669 0.56196 0.0
O387 O 1.05723 1.06593 0.53562 0.0
O388 O 0.94135 0.07145 0.53925 0.0
O389 O 0.93964 1.07001 0.53933 0.0
O390 O 0.9527 0.16499 0.53096 0.0
O391 O 1.02714 0.14511 0.52859 0.0
H392 H 0.90875 0.19496 0.60295 0.0
H393 H 0.93363 0.18012 0.63104 0.0
H394 H 0.92851 1.03193 0.62192 0.0
H395 H 0.89891 1.04688 0.59463 0.0
H396 H 0.15533 1.00982 0.53143 0.0
H397 H 0.21729 1.05366 0.51799 0.0
H398 H 0.17801 0.17561 0.54594 0.0
H399 H 0.11798 0.13123 0.55998 0.0
Pr400 Pr 0.78976 0.22602 0.30681 0.0
Pr401 Pr 0.81978 0.28103 0.29881 0.0
C402 C 0.78725 0.13991 0.31944 0.0
C403 C 0.79207 0.09075 0.31476 0.0
C404 C 0.82271 1.06261 0.32381 0.0
C405 C 0.81489 1.01503 0.32485 0.0
C406 C 0.77502 0.99565 0.31735 0.0
C407 C 0.75204 1.02202 0.30515 0.0
C408 C 0.75988 1.06979 0.30408 0.0
C409 C 0.70085 0.27466 0.3059 0.0
C410 C 0.83205 0.28604 0.3389 0.0
C411 C 0.85585 0.36175 0.28864 0.0
C412 C 0.82869 0.40528 0.28861 0.0
C413 C 0.82739 0.43145 0.27407 0.0
C414 C 0.78623 0.45469 0.26966 0.0
C415 C 0.74646 0.45188 0.2798 0.0
C416 C 0.75056 0.43301 0.29559 0.0
C417 C 0.79174 0.40983 0.30004 0.0
C418 C 0.8592 0.20488 0.2724 0.0
C419 C 0.75469 0.24849 0.27122 0.0
O420 O 0.75038 0.16223 0.31416 0.0
O421 O 0.82486 0.16527 0.31997 0.0
O422 O 0.74086 0.29386 0.30919 0.0
O423 O 0.7078 0.23089 0.3027 0.0
O424 O 0.85296 0.30091 0.32556 0.0
O425 O 0.79955 0.25553 0.33525 0.0
O426 O 0.86566 0.34404 0.30305 0.0
O427 O 0.83935 0.33095 0.27848 0.0
O428 O 0.85877 0.21443 0.28842 0.0
O429 O 0.86 0.21318 0.28849 0.0
O430 O 0.76455 0.21192 0.28009 0.0
O431 O 0.76712 0.28864 0.27702 0.0
H432 H 0.84895 0.07791 0.33168 0.0
H433 H 0.83557 0.99584 0.33374 0.0
H434 H 0.72321 1.00748 0.2983 0.0
H435 H 0.73714 0.09069 0.29634 0.0
H436 H 0.85528 0.42825 0.26507 0.0
H437 H 0.78352 0.46936 0.25739 0.0
H438 H 0.72042 0.43133 0.30364 0.0
H439 H 0.79186 0.38999 0.3114 0.0
Pr440 Pr 0.65226 1.01545 1.05756 0.0
Pr441 Pr 0.59795 1.0479 1.05085 0.0
C442 C 0.74023 1.00479 1.06845 0.0
C443 C 0.78815 1.01318 1.06293 0.0
C444 C 0.80149 1.05564 1.0559 0.0
C445 C 0.84891 1.06664 1.05479 0.0
C446 C 0.88283 1.03587 1.06129 0.0
C447 C 0.86921 0.99017 1.06516 0.0
C448 C 0.82208 0.97921 1.06621 0.0
C449 C 0.60384 0.92781 1.05657 0.0
C450 C 0.59398 1.05718 1.09101 0.0
C451 C 0.51685 0.0903 1.04349 0.0
C452 C 0.47188 1.06682 1.04534 0.0
C453 C 0.44061 1.06866 1.03211 0.0
C454 C 0.41735 1.02833 1.02744 0.0
C455 C 0.42648 0.98637 1.0358 0.0
C456 C 0.4486 0.98766 1.05112 0.0
C457 C 0.47089 1.02823 1.05603 0.0
C458 C 0.67147 0.08824 1.0236 0.0
C459 C 0.62356 0.98643 1.02164 0.0
O460 O 0.71791 0.97228 1.06075 0.0
O461 O 0.71411 1.04089 1.07218 0.0
O462 O 0.58444 0.96789 1.06018 0.0
O463 O 0.64741 0.93443 1.05297 0.0
O464 O 0.57872 0.07917 1.07797 0.0
O465 O 0.62459 1.0245 1.08671 0.0
O466 O 0.53929 0.09886 1.05713 0.0
O467 O 0.54361 1.07104 1.03232 0.0
O468 O 0.66448 0.08547 1.03983 0.0
O469 O 0.66573 0.08657 1.03985 0.0
O470 O 0.6615 0.99383 1.03007 0.0
O471 O 0.58438 0.99995 1.02827 0.0
H472 H 0.77551 0.08163 1.05256 0.0
H473 H 0.85841 0.10139 1.05097 0.0
H474 H 0.89399 0.96469 1.0698 0.0
H475 H 0.81222 0.94557 1.07107 0.0
H476 H 0.4405 0.09814 1.02379 0.0
H477 H 0.39973 1.02797 1.01563 0.0
H478 H 0.45507 0.95589 1.05792 0.0
H479 H 0.49416 1.02624 1.06653 0.0
Pr480 Pr 0.87475 0.23309 0.94497 0.0
Pr481 Pr 0.84091 0.28713 0.95102 0.0
C482 C 0.88837 0.14498 0.93505 0.0
C483 C 0.88013 0.09725 0.94048 0.0
C484 C 0.83674 0.08322 0.94676 0.0
C485 C 0.82579 1.03596 0.94707 0.0
C486 C 0.85733 1.00318 0.94026 0.0
C487 C 0.90396 1.01701 0.93766 0.0
C488 C 0.91497 1.06396 0.93747 0.0
C489 C 0.96213 0.28244 0.94575 0.0
C490 C 0.83361 0.28882 0.9109 0.0
C491 C 0.7955 0.3669 0.95758 0.0
C492 C 0.81767 0.41233 0.95589 0.0
C493 C 0.81272 0.44384 0.96891 0.0
C494 C 0.85177 0.46819 0.9743 0.0
C495 C 0.89547 0.46002 0.96681 0.0
C496 C 0.89734 0.43756 0.95156 0.0
C497 C 0.85806 0.41412 0.94594 0.0
C498 C 0.80027 0.21448 0.97849 0.0
C499 C 0.90166 0.26643 0.98068 0.0
O500 O 0.91938 0.16811 0.94325 0.0
O501 O 0.85221 0.17006 0.93052 0.0
O502 O 0.92167 0.30095 0.94185 0.0
O503 O 0.95588 0.2394 0.94979 0.0
O504 O 0.81104 0.30492 0.9237 0.0
O505 O 0.86617 0.25846 0.91555 0.0
O506 O 0.78901 0.34398 0.94391 0.0
O507 O 0.81469 0.34126 0.96905 0.0
O508 O 0.80359 0.22091 0.96226 0.0
O509 O 0.80251 0.21966 0.96223 0.0
O510 O 0.89475 0.22767 0.97277 0.0
O511 O 0.88829 0.30446 0.97342 0.0
H512 H 0.81004 0.10864 0.94998 0.0
H513 H 0.79042 1.02614 0.95021 0.0
H514 H 0.93034 0.993 0.93313 0.0
H515 H 0.94935 0.07432 0.93328 0.0
H516 H 0.78178 0.44334 0.97664 0.0
H517 H 0.84971 0.48607 0.98604 0.0
H518 H 0.93059 0.43161 0.94547 0.0
H519 H 0.86244 0.39061 0.93561 0.0
Pr520 Pr 0.66505 0.13227 0.69531 0.0
Pr521 Pr 0.61128 0.09732 0.70098 0.0
C522 C 0.75222 0.1547 0.68633 0.0
C523 C 0.79963 0.14831 0.69245 0.0
C524 C 0.81398 0.10628 0.69965 0.0
C525 C 0.86143 0.09485 0.69991 0.0
C526 C 0.89362 0.12436 0.69203 0.0
C527 C 0.87989 0.17099 0.68936 0.0
C528 C 0.83257 0.18247 0.68902 0.0
C529 C 0.60942 0.21668 0.69584 0.0
C530 C 0.61402 0.08772 0.66103 0.0
C531 C 0.53142 1.0544 0.70835 0.0
C532 C 0.48645 0.07921 0.70749 0.0
C533 C 0.45607 0.07624 0.72098 0.0
C534 C 0.4307 0.11557 0.72592 0.0
C535 C 0.4361 0.15782 0.71743 0.0
C536 C 0.45942 0.15817 0.7023 0.0
C537 C 0.48408 0.11866 0.69719 0.0
C538 C 0.68601 1.0547 0.72765 0.0
C539 C 0.63103 0.1554 0.73131 0.0
O540 O 0.72547 0.18204 0.69496 0.0
O541 O 0.73098 0.11784 0.68079 0.0
O542 O 0.59496 0.17627 0.69076 0.0
O543 O 0.65122 0.21139 0.70159 0.0
O544 O 0.59551 1.06696 0.67373 0.0
O545 O 0.64424 0.11969 0.66574 0.0
O546 O 0.55296 1.04756 0.69434 0.0
O547 O 0.55894 0.07121 0.71963 0.0
O548 O 0.67962 1.05995 0.71149 0.0
O549 O 0.68082 1.059 0.71144 0.0
O550 O 0.67018 0.14834 0.72344 0.0
O551 O 0.59313 0.14384 0.72367 0.0
H552 H 0.78866 0.08039 0.70326 0.0
H553 H 0.87108 1.0596 0.70316 0.0
H554 H 0.90386 0.19627 0.68437 0.0
H555 H 0.82176 0.21612 0.68428 0.0
H556 H 0.45748 1.04636 0.72911 0.0
H557 H 0.4127 0.11485 0.73768 0.0
H558 H 0.46363 0.19038 0.6956 0.0
H559 H 0.50713 0.1218 0.68665 0.0
Pr560 Pr 0.73203 0.91578 0.44533 0.0
Pr561 Pr 0.76797 0.87751 0.44908 0.0
C562 C 0.72105 0.99012 0.42586 0.0
C563 C 0.70675 0.98888 0.40855 0.0
C564 C 0.6776 0.95288 0.40301 0.0
C565 C 0.67722 0.94037 0.38638 0.0
C566 C 0.70593 0.96381 0.37524 0.0
C567 C 0.73183 1.00223 0.38053 0.0
C568 C 0.73222 1.01473 0.3971 0.0
C569 C 0.64556 0.86794 0.44705 0.0
C570 C 0.77205 0.86789 0.41125 0.0
C571 C 0.82343 0.80211 0.45158 0.0
C572 C 0.80567 0.75494 0.45038 0.0
C573 C 0.82024 0.72224 0.46209 0.0
C574 C 0.78886 0.68883 0.46753 0.0
C575 C 0.74242 0.6902 0.46191 0.0
C576 C 0.73101 0.71664 0.44803 0.0
C577 C 0.76295 0.7488 0.44211 0.0
C578 C 0.80938 0.94227 0.47833 0.0
C579 C 0.71363 0.88328 0.4811 0.0
O580 O 0.76172 0.97037 0.42839 0.0
O581 O 0.68974 0.97845 0.43681 0.0
O582 O 0.68641 0.84997 0.44314 0.0
O583 O 0.65122 0.91129 0.45124 0.0
O584 O 0.80304 0.88244 0.42165 0.0
O585 O 0.73189 0.86867 0.41918 0.0
O586 O 0.82112 0.82676 0.43814 0.0
O587 O 0.8072 0.8244 0.46436 0.0
O588 O 0.79963 0.94295 0.46232 0.0
O589 O 0.80043 0.94435 0.46232 0.0
O590 O 0.71122 0.92282 0.47321 0.0
O591 O 0.73252 0.84929 0.47288 0.0
H592 H 0.6582 0.9319 0.4117 0.0
H593 H 0.65695 0.91081 0.38242 0.0
H594 H 0.75392 1.02087 0.37195 0.0
H595 H 0.75548 1.04195 0.40114 0.0
H596 H 0.85305 0.72639 0.46854 0.0
H597 H 0.79814 0.6682 0.47824 0.0
H598 H 0.69534 0.71802 0.44356 0.0
H599 H 0.75114 0.77359 0.43293 0.0
Pr600 Pr 1.00417 1.00174 0.19211 0.0
Pr601 Pr 1.04897 1.0285 0.19961 0.0
C602 C 0.93763 1.0229 0.17013 0.0
C603 C 0.94291 1.03206 0.15231 0.0
C604 C 0.9462 0.99555 0.14092 0.0
C605 C 0.95641 1.00473 1.12442 0.0
C606 C 0.96408 1.0506 1.11895 0.0
C607 C 0.9619 0.08688 0.13049 0.0
C608 C 0.9507 0.07783 0.14687 0.0
C609 C 1.04592 0.90996 0.19349 0.0
C610 C 1.05922 1.03868 0.16036 0.0
C611 C 0.13301 1.06107 0.20805 0.0
C612 C 0.17512 1.03173 0.20746 0.0
C613 C 0.20332 1.02868 0.22147 0.0
C614 C 0.22818 0.98773 0.22465 0.0
C615 C 0.22333 0.94917 0.21413 0.0
C616 C 0.2025 0.95538 0.19874 0.0
C617 C 0.17781 0.99634 0.19548 0.0
C618 C 0.98202 0.07197 0.22783 0.0
C619 C 1.00431 0.96482 0.22671 0.0
O620 O 0.95746 1.05378 0.17947 0.0
O621 O 0.94412 0.9803 0.17545 0.0
O622 O 1.06824 0.94892 0.19179 0.0
O623 O 1.00113 0.91905 0.19503 0.0
O624 O 1.05496 1.06809 0.1726 0.0
O625 O 1.04791 0.99771 0.16595 0.0
O626 O 0.11365 1.07084 0.19394 0.0
O627 O 0.1027 1.04705 0.21888 0.0
O628 O 0.98676 1.06905 0.21154 0.0
O629 O 0.98527 1.07047 0.21157 0.0
O630 O 0.97199 0.97166 0.21568 0.0
O631 O 1.04604 0.97995 0.22305 0.0
H632 H 0.9409 0.95989 0.14473 0.0
H633 H 0.95643 0.97587 1.11586 0.0
H634 H 0.96807 0.1225 0.12683 0.0
H635 H 0.94909 0.10684 0.15537 0.0
H636 H 0.20156 1.05537 0.23088 0.0
H637 H 0.24422 0.98361 0.23666 0.0
H638 H 0.19988 0.92657 0.19025 0.0
H639 H 0.15645 0.99788 0.18448 0.0
Pr640 Pr 0.80336 0.77088 0.9503 0.0
Pr641 Pr 0.77599 0.72647 0.94236 0.0
C642 C 0.83783 0.8532 0.95967 0.0
C643 C 0.80957 0.89591 0.95991 0.0
C644 C 0.81197 0.92529 0.9736 0.0
C645 C 0.7728 0.95168 0.97813 0.0
C646 C 0.73128 0.94864 0.96898 0.0
C647 C 0.73165 0.92556 0.95386 0.0
C648 C 0.7705 0.89876 0.94941 0.0
C649 C 0.84206 0.69848 0.9779 0.0
C650 C 0.73715 0.72629 0.97668 0.0
C651 C 0.79686 0.6616 0.91994 0.0
C652 C 0.80106 0.66753 0.90197 0.0
C653 C 0.7614 0.67549 0.8922 0.0
C654 C 0.76636 0.68833 0.87574 0.0
C655 C 0.81106 0.69398 0.86873 0.0
C656 C 0.85065 0.68663 0.87861 0.0
C657 C 0.84571 0.67292 0.89497 0.0
C658 C 0.68434 0.76867 0.94385 0.0
C659 C 0.81138 0.78461 0.91099 0.0
O660 O 0.84643 0.83538 0.94522 0.0
O661 O 0.8233 0.82225 0.97012 0.0
O662 O 0.84253 0.70726 0.96183 0.0
O663 O 0.84413 0.70572 0.96178 0.0
O664 O 0.74471 0.69417 0.96567 0.0
O665 O 0.75256 0.76785 0.97322 0.0
O666 O 0.82864 0.6839 0.92821 0.0
O667 O 0.75509 0.6649 0.92657 0.0
O668 O 0.72365 0.79084 0.94271 0.0
O669 O 0.69287 0.7239 0.94462 0.0
O670 O 0.84154 0.78001 0.92303 0.0
O671 O 0.77067 0.77171 0.91661 0.0
H672 H 0.84153 0.92329 0.98191 0.0
H673 H 0.77292 0.96944 0.98991 0.0
H674 H 0.70027 0.92406 0.94648 0.0
H675 H 0.76797 0.87658 0.93867 0.0
H676 H 0.72652 0.67232 0.89727 0.0
H677 H 0.73502 0.69232 0.8684 0.0
H678 H 0.88552 0.69082 0.87363 0.0
H679 H 0.87697 0.66779 0.90229 0.0
Pr680 Pr 0.59055 0.54632 0.20211 0.0
Pr681 Pr 0.64681 0.51778 0.19465 0.0
C682 C 0.50637 0.58142 0.2101 0.0
C683 C 0.46335 0.55514 0.20727 0.0
C684 C 0.43186 0.55031 0.22038 0.0
C685 C 0.41077 0.50737 0.2231 0.0
C686 C 0.42254 0.46925 0.21298 0.0
C687 C 0.44461 0.47747 0.19789 0.0
C688 C 0.46479 0.52064 0.19495 0.0
C689 C 0.66255 0.58905 0.22901 0.0
C690 C 0.62579 0.48403 0.23049 0.0
C691 C 0.73372 0.52009 0.18222 0.0
C692 C 0.78029 0.53777 0.18657 0.0
C693 C 0.79758 0.57657 0.17821 0.0
C694 C 0.84521 0.58589 0.1784 0.0
C695 C 0.87657 0.55562 0.18658 0.0
C696 C 0.858 0.52244 0.19746 0.0
C697 C 0.81016 0.51295 0.19723 0.0
C698 C 0.60221 0.42774 0.19524 0.0
C699 C 0.58686 0.55763 0.16193 0.0
O700 O 0.52885 0.59458 0.19691 0.0
O701 O 0.53398 0.5619 0.22091 0.0
O702 O 0.65482 0.58718 0.21287 0.0
O703 O 0.65602 0.58839 0.21283 0.0
O704 O 0.66197 0.49335 0.22134 0.0
O705 O 0.58498 0.49676 0.22491 0.0
O706 O 0.71783 0.48493 0.19061 0.0
O707 O 0.70145 0.55071 0.17836 0.0
O708 O 0.58112 0.46712 0.19204 0.0
O709 O 0.64591 0.43582 0.1983 0.0
O710 O 0.57136 0.57889 0.17513 0.0
O711 O 0.61773 0.5251 0.16592 0.0
H712 H 0.42982 0.57653 0.22995 0.0
H713 H 0.39305 0.50183 0.23475 0.0
H714 H 0.45259 0.44896 0.18963 0.0
H715 H 0.48813 0.52379 0.18449 0.0
H716 H 0.77514 0.5971 0.17023 0.0
H717 H 0.85746 0.61271 0.17014 0.0
H718 H 0.88098 0.49982 0.20449 0.0
H719 H 0.79749 0.48371 0.20431 0.0
Pr720 Pr 0.87983 0.3535 0.44928 0.0
Pr721 Pr 0.91692 0.40471 0.44444 0.0
C722 C 0.82819 0.27691 0.45289 0.0
C723 C 0.84555 0.23005 0.44919 0.0
C724 C 0.83353 0.19394 0.45988 0.0
C725 C 0.86798 0.16198 0.46465 0.0
C726 C 0.91443 0.16865 0.45945 0.0
C727 C 0.92259 0.19612 0.44553 0.0
C728 C 0.88776 0.22692 0.44029 0.0
C729 C 0.83599 0.42441 0.47645 0.0
C730 C 0.93358 0.36871 0.48103 0.0
C731 C 0.93782 0.49147 0.43464 0.0
C732 C 0.92608 0.53921 0.43916 0.0
C733 C 0.88615 0.54942 0.44858 0.0
C734 C 0.86841 0.59481 0.44896 0.0
C735 C 0.89001 0.62973 0.43955 0.0
C736 C 0.93438 0.62042 0.43262 0.0
C737 C 0.95201 0.5752 0.43229 0.0
C738 C 1.00128 0.34924 0.44553 0.0
C739 C 0.87575 0.35366 0.4096 0.0
O740 O 0.8237 0.30454 0.44023 0.0
O741 O 0.85003 0.29642 0.46518 0.0
O742 O 0.84377 0.4213 0.46029 0.0
O743 O 0.84293 0.42247 0.46029 0.0
O744 O 0.93283 0.4076 0.47272 0.0
O745 O 0.91785 0.33233 0.47347 0.0
O746 O 0.96285 0.46816 0.44518 0.0
O747 O 0.90418 0.46717 0.42815 0.0
O748 O 0.96066 0.33478 0.44038 0.0
O749 O 0.99607 0.39111 0.45109 0.0
O750 O 0.85043 0.33995 0.42195 0.0
O751 O 0.91023 0.3804 0.41479 0.0
H752 H 0.80087 0.19525 0.46667 0.0
H753 H 0.86065 0.13991 0.47514 0.0
H754 H 0.95794 0.20093 0.44105 0.0
H755 H 0.89738 0.25395 0.43165 0.0
H756 H 0.86659 0.52181 0.45438 0.0
H757 H 0.8349 0.60116 0.45482 0.0
H758 H 0.95257 0.64631 0.42543 0.0
H759 H 0.9836 0.56777 0.42533 0.0
Pr760 Pr 1.02865 0.60444 0.70097 0.0
Pr761 Pr 0.97653 0.6425 0.69686 0.0
C762 C 0.10574 0.55248 0.70537 0.0
C763 C 0.15281 0.57128 0.70355 0.0
C764 C 0.18588 0.56017 0.71563 0.0
C765 C 0.21475 0.59504 0.72166 0.0
C766 C 0.20944 0.64082 0.7158 0.0
C767 C 0.18443 0.64886 0.7013 0.0
C768 C 0.15654 0.61369 0.69497 0.0
C769 C 0.95612 0.56212 0.72852 0.0
C770 C 1.02007 0.65896 0.73225 0.0
C771 C 0.88839 0.66854 0.68963 0.0
C772 C 0.84095 0.65764 0.69477 0.0
C773 C 0.83072 0.61469 0.702 0.0
C774 C 0.78516 0.59797 0.70129 0.0
C775 C 0.75077 0.62327 0.69254 0.0
C776 C 0.75926 0.67067 0.68928 0.0
C777 C 0.80466 0.68739 0.69 0.0
C778 C 1.03259 0.72569 0.69716 0.0
C779 C 1.02489 0.59973 0.66123 0.0
O780 O 0.081 0.5503 0.69189 0.0
O781 O 0.08263 0.57127 0.71762 0.0
O782 O 0.96038 0.56954 0.71234 0.0
O783 O 0.95919 0.5687 0.71232 0.0
O784 O 0.97913 0.65514 0.72537 0.0
O785 O 1.05561 0.64601 0.72345 0.0
O786 O 0.91391 0.69006 0.70033 0.0
O787 O 0.91107 0.63592 0.68164 0.0
O788 O 1.04658 0.68479 0.69192 0.0
O789 O 0.99096 0.72128 0.70314 0.0
O790 O 1.04282 0.57643 0.67344 0.0
O791 O 0.99575 0.63254 0.66672 0.0
H792 H 0.18381 0.52762 0.72231 0.0
H793 H 0.23443 0.58827 0.73282 0.0
H794 H 0.18017 0.68388 0.69656 0.0
H795 H 0.13167 0.62282 0.68542 0.0
H796 H 0.85849 0.59211 0.70644 0.0
H797 H 0.77932 0.56232 0.70494 0.0
H798 H 0.73341 0.6927 0.68337 0.0
H799 H 0.81204 0.72155 0.68504 0.0
Pr800 Pr 0.7849 0.35756 0.7996 0.0
Pr801 Pr 0.74901 0.4101 0.80494 0.0
C802 C 0.83111 0.27851 0.79321 0.0
C803 C 0.80755 0.23371 0.79497 0.0
C804 C 0.81052 0.20188 0.78196 0.0
C805 C 0.77142 0.17563 0.77784 0.0
C806 C 0.72931 0.18181 0.78659 0.0
C807 C 0.72928 0.20694 0.8013 0.0
C808 C 0.76866 0.23227 0.80565 0.0
C809 C 0.82366 0.43439 0.77244 0.0
C810 C 0.72648 0.37098 0.76932 0.0
C811 C 0.72854 0.49775 0.81393 0.0
C812 C 0.73843 0.54481 0.80844 0.0
C813 C 0.78022 0.55525 0.80025 0.0
C814 C 0.7956 0.60111 0.79986 0.0
C815 C 0.7702 0.63573 0.80842 0.0
C816 C 0.72364 0.62626 0.81298 0.0
C817 C 0.70823 0.58061 0.81332 0.0
C818 C 0.66331 0.35832 0.80449 0.0
C819 C 0.79144 0.35625 0.83947 0.0
O820 O 0.83773 0.30167 0.80684 0.0
O821 O 0.81304 0.30429 0.78155 0.0
O822 O 0.82112 0.42509 0.78852 0.0
O823 O 0.8223 0.42642 0.78861 0.0
O824 O 0.73179 0.41091 0.77666 0.0
O825 O 0.73989 0.33462 0.77745 0.0
O826 O 0.70201 0.47353 0.80432 0.0
O827 O 0.76346 0.47395 0.82016 0.0
O828 O 0.70415 0.3417 0.80891 0.0
O829 O 0.66868 0.40063 0.7995 0.0
O830 O 0.81479 0.34037 0.82684 0.0
O831 O 0.75836 0.38587 0.83457 0.0
H832 H 0.83996 0.20254 0.77353 0.0
H833 H 0.77191 0.15631 0.76637 0.0
H834 H 0.6972 0.21186 0.80822 0.0
H835 H 0.7655 0.2564 0.81585 0.0
H836 H 0.803 0.52777 0.79571 0.0
H837 H 0.8306 0.6077 0.79539 0.0
H838 H 0.70178 0.65213 0.81897 0.0
H839 H 0.67489 0.57295 0.81903 0.0
Pr840 Pr 1.03918 0.53076 1.05078 0.0
Pr841 Pr 0.99631 0.50075 1.05776 0.0
C842 C 0.12114 0.56871 1.04294 0.0
C843 C 0.16393 0.54046 1.04359 0.0
C844 C 0.19323 0.53898 1.02979 0.0
C845 C 0.21943 0.49886 1.02654 0.0
C846 C 0.21524 0.45977 1.03684 0.0
C847 C 0.19247 0.46425 1.05199 0.0
C848 C 0.16649 0.50434 1.05531 0.0
C849 C 0.97021 0.57191 1.0228 0.0
C850 C 1.00407 0.46747 1.02243 0.0
C851 C 0.92679 0.50964 1.07967 0.0
C852 C 0.92983 0.50895 1.09768 0.0
C853 C 0.95926 0.47691 1.1058 0.0
C854 C 0.97175 0.48408 1.12224 0.0
C855 C 0.9554 0.52361 0.1307 0.0
C856 C 0.92444 0.55443 1.12264 0.0
C857 C 0.91179 0.54712 1.10633 0.0
C858 C 1.04141 0.41127 1.05599 0.0
C859 C 1.05227 0.53946 1.08951 0.0
O860 O 0.1007 0.57685 1.05703 0.0
O861 O 0.09196 0.55446 1.03182 0.0
O862 O 0.97446 0.5681 1.03907 0.0
O863 O 0.97296 0.56935 1.03906 0.0
O864 O 0.96988 0.47215 1.03294 0.0
O865 O 1.04421 0.48433 1.02697 0.0
O866 O 0.94795 0.54517 1.07313 0.0
O867 O 0.93477 0.47072 1.07178 0.0
O868 O 1.06214 0.45097 1.05802 0.0
O869 O 0.99653 0.41863 1.05421 0.0
O870 O 1.04381 0.56971 1.07785 0.0
O871 O 1.04388 0.49836 1.08331 0.0
H872 H 0.19152 0.5662 1.02057 0.0
H873 H 0.23701 0.4959 1.01473 0.0
H874 H 0.18995 0.43488 1.06026 0.0
H875 H 0.14433 0.5047 1.06616 0.0
H876 H 0.97434 0.44754 1.09927 0.0
H877 H 0.99485 0.45927 0.12822 0.0
H878 H 0.90937 0.58414 0.12898 0.0
H879 H 0.88954 0.57251 1.10024 0.0
Pr880 Pr 0.82798 0.78393 0.30211 0.0
Pr881 Pr 0.85618 0.74151 0.3098 0.0
C882 C 0.78809 0.86598 0.29411 0.0
C883 C 0.81284 0.91016 0.29372 0.0
C884 C 0.80597 0.93954 0.28019 0.0
C885 C 0.84375 0.96426 0.27393 0.0
C886 C 0.88823 0.95846 0.28105 0.0
C887 C 0.89204 0.93811 0.29661 0.0
C888 C 0.85435 0.91349 0.30292 0.0
C889 C 0.79 0.71402 0.27396 0.0
C890 C 0.89501 0.74113 0.2756 0.0
C891 C 0.83878 0.67696 0.33262 0.0
C892 C 0.837 0.68321 0.35063 0.0
C893 C 0.87797 0.69094 0.35963 0.0
C894 C 0.87549 0.70234 0.37627 0.0
C895 C 0.83196 0.70657 0.38434 0.0
C896 C 0.79092 0.70021 0.37518 0.0
C897 C 0.79344 0.68816 0.35856 0.0
C898 C 0.94811 0.78239 0.3082 0.0
C899 C 0.81741 0.79825 0.34098 0.0
O900 O 0.78308 0.84706 0.30856 0.0
O901 O 0.80342 0.83642 0.28319 0.0
O902 O 0.7905 0.72081 0.29017 0.0
O903 O 0.78902 0.71925 0.29018 0.0
O904 O 0.88783 0.70894 0.28654 0.0
O905 O 0.87844 0.78261 0.27901 0.0
O906 O 0.8056 0.69893 0.32471 0.0
O907 O 0.8796 0.68003 0.32535 0.0
O908 O 0.90836 0.80499 0.30886 0.0
O909 O 0.93968 0.73776 0.30795 0.0
O910 O 0.78779 0.78997 0.32912 0.0
O911 O 0.85913 0.78923 0.33511 0.0
H912 H 0.77413 0.93772 0.27302 0.0
H913 H 0.84017 0.98069 0.26198 0.0
H914 H 0.92582 0.93458 0.30249 0.0
H915 H 0.8603 0.89138 0.31354 0.0
H916 H 0.91207 0.68822 0.35385 0.0
H917 H 0.90801 0.70565 0.38295 0.0
H918 H 0.75688 0.70338 0.38097 0.0
H919 H 0.76117 0.68341 0.35182 0.0
Pr920 Pr 0.6377 0.58968 0.55077 0.0
Pr921 Pr 0.67899 0.61977 0.55687 0.0
C922 C 0.55747 0.5451 0.54469 0.0
C923 C 0.5117 0.56773 0.54383 0.0
C924 C 0.47995 0.55335 0.53185 0.0
C925 C 0.44807 0.5854 0.52539 0.0
C926 C 0.44879 0.63192 0.53068 0.0
C927 C 0.47488 0.64397 0.54454 0.0
C928 C 0.50634 0.6118 0.55115 0.0
C929 C 0.71123 0.55524 0.52178 0.0
C930 C 0.66111 0.65403 0.52202 0.0
C931 C 0.74745 0.60529 0.57869 0.0
C932 C 0.7417 0.60065 0.59668 0.0
C933 C 0.73081 0.63941 0.6065 0.0
C934 C 0.71642 0.63345 0.6228 0.0
C935 C 0.71193 0.58859 0.62957 0.0
C936 C 0.72292 0.54991 0.61971 0.0
C937 C 0.73838 0.55591 0.60358 0.0
C938 C 0.63728 0.71041 0.55567 0.0
C939 C 0.62336 0.58305 0.58912 0.0
O940 O 0.57721 0.54463 0.55912 0.0
O941 O 0.58577 0.55855 0.5331 0.0
O942 O 0.70224 0.5541 0.53785 0.0
O943 O 0.70391 0.55247 0.53792 0.0
O944 O 0.69837 0.64965 0.53118 0.0
O945 O 0.62286 0.63639 0.52789 0.0
O946 O 0.72811 0.57176 0.57042 0.0
O947 O 0.74008 0.64623 0.57203 0.0
O948 O 0.61515 0.67108 0.55727 0.0
O949 O 0.68218 0.70192 0.55404 0.0
O950 O 0.63485 0.55209 0.57806 0.0
O951 O 0.62974 0.62369 0.58222 0.0
H952 H 0.48369 0.51955 0.52608 0.0
H953 H 0.42786 0.57569 0.51467 0.0
H954 H 0.47584 0.6797 0.54875 0.0
H955 H 0.53051 0.62341 0.56052 0.0
H956 H 0.73244 0.67432 0.60154 0.0
H957 H 0.70974 0.66421 0.63015 0.0
H958 H 0.71959 0.51488 0.62443 0.0
H959 H 0.74589 0.52524 0.59625 0.0
Pr960 Pr 0.41651 0.412 0.305 0.0
Pr961 Pr 0.38023 0.36186 0.3005 0.0
C962 C 0.43466 0.4986 0.31541 0.0
C963 C 0.4217 0.54631 0.31138 0.0
C964 C 0.38033 0.55645 0.30282 0.0
C965 C 0.36182 0.6015 0.30321 0.0
C966 C 0.38409 0.63605 0.31255 0.0
C967 C 0.42965 0.62711 0.31844 0.0
C968 C 0.44807 0.58224 0.318 0.0
C969 C 0.50163 0.3584 0.3041 0.0
C970 C 0.37565 0.36245 0.33997 0.0
C971 C 0.33454 0.28269 0.29582 0.0
C972 C 0.35889 0.23826 0.29814 0.0
C973 C 0.35487 0.20392 0.28606 0.0
C974 C 0.39272 0.1743 0.2829 0.0
C975 C 0.43516 0.18054 0.29134 0.0
C976 C 0.43584 0.20858 0.30538 0.0
C977 C 0.39764 0.23736 0.30883 0.0
C978 C 0.33615 0.43081 0.27278 0.0
C979 C 0.43605 0.37556 0.26896 0.0
O980 O 0.46041 0.47684 0.30463 0.0
O981 O 0.40172 0.47291 0.32175 0.0
O982 O 0.4611 0.34298 0.30895 0.0
O983 O 0.49638 0.40059 0.2988 0.0
O984 O 0.34756 0.35313 0.32784 0.0
O985 O 0.41286 0.38445 0.33434 0.0
O986 O 0.32845 0.30761 0.30911 0.0
O987 O 0.35149 0.30671 0.28358 0.0
O988 O 0.34354 0.4283 0.28896 0.0
O989 O 0.34263 0.42953 0.28895 0.0
O990 O 0.43368 0.41507 0.27682 0.0
O991 O 0.42102 0.33954 0.2769 0.0
H992 H 0.36036 0.52894 0.29717 0.0
H993 H 0.32741 0.60759 0.29806 0.0
H994 H 0.44851 0.65273 0.3255 0.0
H995 H 0.48076 0.57487 0.32426 0.0
H996 H 0.32534 0.20403 0.27772 0.0
H997 H 0.39147 0.15262 0.272 0.0
H998 H 0.468 0.21336 0.31215 0.0
H999 H 0.40139 0.26337 0.31838 0.0
Pr1000 Pr 0.47148 0.64462 1.0554 0.0
Pr1001 Pr 0.52254 0.60639 1.05114 0.0
C1002 C 0.38339 0.67067 1.06265 0.0
C1003 C 0.33649 0.66201 1.05657 0.0
C1004 C 0.32611 0.62059 1.04836 0.0
C1005 C 0.28002 0.60536 1.04799 0.0
C1006 C 0.24543 0.63026 1.05682 0.0
C1007 C 0.25447 0.67715 1.06067 0.0
C1008 C 0.30043 0.69244 1.06108 0.0
C1009 C 0.5256 0.72805 1.05488 0.0
C1010 C 0.52083 0.60231 1.0908 0.0
C1011 C 0.59745 0.55068 1.04743 0.0
C1012 C 0.64583 0.56561 1.04918 0.0
C1013 C 0.67887 0.54802 1.03804 0.0
C1014 C 0.71132 0.57821 1.03113 0.0
C1015 C 0.70903 0.62584 1.03504 0.0
C1016 C 0.68427 0.64013 1.04905 0.0
C1017 C 0.65275 0.60962 1.05629 0.0
C1018 C 0.44709 0.56937 1.0234 0.0
C1019 C 0.51782 0.66111 1.02002 0.0
O1020 O 0.41025 0.69412 1.05288 0.0
O1021 O 0.40475 0.63588 1.06992 0.0
O1022 O 0.54115 0.68721 1.05967 0.0
O1023 O 0.48354 0.72348 1.04941 0.0
O1024 O 0.53657 0.57778 1.07854 0.0
O1025 O 0.49281 0.63614 1.08542 0.0
O1026 O 0.57244 0.55116 1.0609 0.0
O1027 O 0.57611 0.57049 1.03499 0.0
O1028 O 0.45427 0.57283 1.03956 0.0
O1029 O 0.45291 0.57177 1.03965 0.0
O1030 O 0.47656 0.65921 1.02691 0.0
O1031 O 0.5525 0.646 1.02875 0.0
H1032 H 0.35381 0.59769 1.04402 0.0
H1033 H 0.27391 0.57024 1.04385 0.0
H1034 H 0.2283 0.69916 1.06646 0.0
H1035 H 0.30803 0.72572 1.06668 0.0
H1036 H 0.67444 0.51397 1.03259 0.0
H1037 H 0.7312 0.56649 1.0205 0.0
H1038 H 0.68264 0.67658 1.05242 0.0
H1039 H 0.62792 0.62356 1.06516 0.0
Pr1040 Pr 0.27134 0.73148 0.80804 0.0
Pr1041 Pr 0.30151 0.77269 0.80125 0.0
C1042 C 0.28551 0.66363 0.83004 0.0
C1043 C 0.29063 0.66904 0.84801 0.0
C1044 C 0.25163 0.67805 0.85806 0.0
C1045 C 0.25763 0.69073 0.87449 0.0
C1046 C 0.30276 0.69522 0.8812 0.0
C1047 C 0.3417 0.68659 0.87106 0.0
C1048 C 0.3357 0.67293 0.85476 0.0
C1049 C 0.18085 0.77566 0.80651 0.0
C1050 C 0.31057 0.78488 0.84 0.0
C1051 C 0.34541 0.85269 0.7946 0.0
C1052 C 0.32174 0.89775 0.79484 0.0
C1053 C 0.3332 0.93099 0.78297 0.0
C1054 C 0.29836 0.96095 0.77713 0.0
C1055 C 0.25214 0.95615 0.7828 0.0
C1056 C 0.24347 0.93012 0.79696 0.0
C1057 C 0.27811 0.90028 0.80282 0.0
C1058 C 0.33911 0.7036 0.77246 0.0
C1059 C 0.23578 0.74071 0.77319 0.0
O1060 O 0.3193 0.68229 0.82158 0.0
O1061 O 0.24426 0.67163 0.82359 0.0
O1062 O 0.22088 0.79661 0.80815 0.0
O1063 O 0.1885 0.73087 0.80507 0.0
O1064 O 0.34066 0.77507 0.82835 0.0
O1065 O 0.26902 0.77822 0.83376 0.0
O1066 O 0.34896 0.83192 0.8088 0.0
O1067 O 0.32967 0.82532 0.78318 0.0
O1068 O 0.33719 0.70838 0.78874 0.0
O1069 O 0.33852 0.70679 0.78874 0.0
O1070 O 0.24011 0.70623 0.78351 0.0
O1071 O 0.25416 0.78007 0.77772 0.0
H1072 H 0.21646 0.67589 0.85321 0.0
H1073 H 0.2267 0.69564 0.88203 0.0
H1074 H 0.37691 0.68994 0.87576 0.0
H1075 H 0.36656 0.66687 0.84726 0.0
H1076 H 0.3666 0.92944 0.77667 0.0
H1077 H 0.30554 0.98139 0.7662 0.0
H1078 H 0.20816 0.9266 0.8016 0.0
H1079 H 0.26875 0.87506 0.81215 0.0
Pr1080 Pr 0.14167 0.51262 0.55576 0.0
Pr1081 Pr 0.08454 0.54441 0.54902 0.0
C1082 C 0.22964 0.49934 0.56653 0.0
C1083 C 0.27802 0.50707 0.56137 0.0
C1084 C 0.29199 0.54863 0.55384 0.0
C1085 C 0.33954 0.55923 0.55281 0.0
C1086 C 0.37313 0.52895 0.55979 0.0
C1087 C 0.35887 0.48411 0.56457 0.0
C1088 C 0.31161 0.47354 0.56551 0.0
C1089 C 0.0907 0.42545 0.55462 0.0
C1090 C 0.0846 0.55486 0.5893 0.0
C1091 C 1.00164 0.58174 0.5407 0.0
C1092 C 0.95795 0.55558 0.54234 0.0
C1093 C 0.92986 0.55081 0.52833 0.0
C1094 C 0.90962 0.50787 0.52493 0.0
C1095 C 0.91821 0.4698 0.53543 0.0
C1096 C 0.93654 0.47795 0.5511 0.0
C1097 C 0.9562 0.521 0.55462 0.0
C1098 C 0.15665 0.59128 0.52295 0.0
C1099 C 0.11751 0.48635 0.51939 0.0
O1100 O 0.20675 0.46809 0.55839 0.0
O1101 O 0.20428 0.53571 0.57049 0.0
O1102 O 0.07328 0.46547 0.55924 0.0
O1103 O 0.13349 0.43199 0.55 0.0
O1104 O 1.06519 0.57401 0.57635 0.0
O1105 O 0.11743 0.52448 0.58496 0.0
O1106 O 1.02271 0.59251 0.55442 0.0
O1107 O 1.03033 0.56369 0.52989 0.0
O1108 O 0.15052 0.58526 0.53911 0.0
O1109 O 0.15164 0.58626 0.53913 0.0
O1110 O 0.15433 0.49565 0.52813 0.0
O1111 O 0.07708 0.49615 0.52596 0.0
H1112 H 0.26628 0.57425 0.54994 0.0
H1113 H 0.34945 0.59327 0.54837 0.0
H1114 H 0.38325 0.45911 0.56975 0.0
H1115 H 0.3013 0.44064 0.57086 0.0
H1116 H 0.93028 0.57707 0.51875 0.0
H1117 H 0.89484 0.50237 0.51281 0.0
H1118 H 0.94165 0.44956 0.55965 0.0
H1119 H 0.97672 0.52406 0.56577 0.0
Pr1120 Pr 0.35139 0.74872 0.44369 0.0
Pr1121 Pr 0.32565 0.79486 0.45266 0.0
C1122 C 0.32932 0.68511 0.42118 0.0
C1123 C 0.32879 0.68951 0.40311 0.0
C1124 C 0.37055 0.69412 0.39421 0.0
C1125 C 0.36938 0.70397 0.37743 0.0
C1126 C 0.32645 0.7098 0.36918 0.0
C1127 C 0.28469 0.70616 0.37817 0.0
C1128 C 0.28585 0.69571 0.39494 0.0
C1129 C 0.44434 0.78841 0.44495 0.0
C1130 C 0.31476 0.81049 0.41298 0.0
C1131 C 0.29475 0.87792 0.4635 0.0
C1132 C 0.32385 0.91974 0.46323 0.0
C1133 C 0.32956 0.94447 0.47793 0.0
C1134 C 0.37237 0.9653 0.4813 0.0
C1135 C 0.40948 0.96138 0.46998 0.0
C1136 C 0.40079 0.94447 0.45416 0.0
C1137 C 0.35798 0.92369 0.45076 0.0
C1138 C 0.28631 0.72015 0.47943 0.0
C1139 C 0.3923 0.74306 0.47755 0.0
O1140 O 0.29799 0.7111 0.4286 0.0
O1141 O 0.37007 0.68486 0.4286 0.0
O1142 O 0.40511 0.81174 0.44424 0.0
O1143 O 0.43501 0.74397 0.44524 0.0
O1144 O 0.28669 0.81051 0.42582 0.0
O1145 O 0.35467 0.79192 0.41752 0.0
O1146 O 0.28265 0.86119 0.44924 0.0
O1147 O 0.31067 0.84573 0.47332 0.0
O1148 O 0.28516 0.73155 0.46354 0.0
O1149 O 0.2835 0.7301 0.46349 0.0
O1150 O 0.38251 0.7125 0.4663 0.0
O1151 O 0.37841 0.78589 0.47484 0.0
H1152 H 0.40421 0.69032 0.40017 0.0
H1153 H 0.40228 0.70518 0.37081 0.0
H1154 H 0.25113 0.71034 0.37216 0.0
H1155 H 0.25309 0.69318 0.4016 0.0
H1156 H 0.30387 0.94185 0.48772 0.0
H1157 H 0.37854 0.9785 0.4936 0.0
H1158 H 0.42867 0.94227 0.44515 0.0
H1159 H 0.3544 0.90516 0.43922 0.0
Pr1160 Pr 0.17433 0.62079 0.1923 0.0
Pr1161 Pr 0.13289 0.58999 0.19882 0.0
C1162 C 0.24353 0.60819 0.17057 0.0
C1163 C 0.2381 0.60405 0.15259 0.0
C1164 C 0.22647 0.64299 0.14296 0.0
C1165 C 0.21181 0.63735 0.12672 0.0
C1166 C 0.20783 0.59264 1.11982 0.0
C1167 C 0.21969 0.5538 0.12947 0.0
C1168 C 0.23543 0.55949 0.14554 0.0
C1169 C 0.12948 0.71022 0.19352 0.0
C1170 C 0.12007 0.58184 0.16025 0.0
C1171 C 1.05289 0.54574 0.20571 0.0
C1172 C 1.0078 0.56959 0.20702 0.0
C1173 C 0.97556 0.55523 0.2189 0.0
C1174 C 0.94487 0.58783 0.22583 0.0
C1175 C 0.94698 0.63471 0.22097 0.0
C1176 C 0.97375 0.64714 0.2073 0.0
C1177 C 1.00433 0.61467 0.20039 0.0
C1178 C 0.20695 0.55694 0.22755 0.0
C1179 C 0.15885 0.65623 0.22701 0.0
O1180 O 0.22467 0.57404 0.17871 0.0
O1181 O 0.23519 0.6488 0.17732 0.0
O1182 O 0.10867 0.67028 0.19187 0.0
O1183 O 0.17454 0.70303 0.19517 0.0
O1184 O 0.13089 0.55152 0.17164 0.0
O1185 O 0.12633 0.62294 0.16677 0.0
O1186 O 1.0717 0.54508 0.19109 0.0
O1187 O 0.08226 0.55853 0.21701 0.0
O1188 O 0.19833 0.55572 0.21147 0.0
O1189 O 0.20001 0.55417 0.21141 0.0
O1190 O 0.19531 0.6521 0.21742 0.0
O1191 O 0.12034 0.63764 0.22175 0.0
H1192 H 0.22765 0.67776 0.14804 0.0
H1193 H 0.20451 0.66824 1.11951 0.0
H1194 H 0.2168 0.51888 0.12463 0.0
H1195 H 0.24353 0.52869 0.15273 0.0
H1196 H 0.97809 0.52079 0.22426 0.0
H1197 H 0.9244 0.5779 0.23649 0.0
H1198 H 0.97585 0.68314 0.20347 0.0
H1199 H 1.02882 0.62629 0.19111 0.0
Pr1200 Pr 0.24691 0.41377 0.94619 0.0
Pr1201 Pr 0.28535 0.36553 0.95034 0.0
C1202 C 0.22416 0.50089 0.93718 0.0
C1203 C 0.23387 0.54825 0.94236 0.0
C1204 C 0.27564 0.55913 0.95041 0.0
C1205 C 0.29087 0.60504 0.95058 0.0
C1206 C 0.26526 0.6394 0.942 0.0
C1207 C 0.21877 0.62955 0.93752 0.0
C1208 C 0.20356 0.58381 0.93737 0.0
C1209 C 0.16264 0.36121 0.9469 0.0
C1210 C 0.28953 0.36389 0.91107 0.0
C1211 C 0.34069 0.29045 0.95348 0.0
C1212 C 0.32411 0.24309 0.95091 0.0
C1213 C 0.33748 0.20897 0.96229 0.0
C1214 C 0.30398 0.17808 0.96812 0.0
C1215 C 0.25729 0.18298 0.96293 0.0
C1216 C 0.24742 0.20881 0.94875 0.0
C1217 C 0.28129 0.23861 0.94254 0.0
C1218 C 0.32403 0.43654 0.97875 0.0
C1219 C 0.22975 0.36904 0.98148 0.0
O1220 O 0.19901 0.47649 0.94725 0.0
O1221 O 0.25889 0.47748 0.93057 0.0
O1222 O 0.20376 0.3451 0.94235 0.0
O1223 O 0.16727 0.40343 0.95208 0.0
O1224 O 0.3178 0.35523 0.92317 0.0
O1225 O 0.25204 0.38645 0.91665 0.0
O1226 O 0.34152 0.31676 0.94038 0.0
O1227 O 0.3209 0.31098 0.96611 0.0
O1228 O 0.31777 0.43315 0.96251 0.0
O1229 O 0.3186 0.43439 0.9625 0.0
O1230 O 0.23055 0.41 0.97454 0.0
O1231 O 0.24664 0.335 0.97287 0.0
H1232 H 0.29852 0.53186 0.955 0.0
H1233 H 0.32591 0.61179 0.9549 0.0
H1234 H 0.19681 0.65519 0.93146 0.0
H1235 H 0.17025 0.57584 0.93175 0.0
H1236 H 0.37051 0.21147 0.96873 0.0
H1237 H 0.31226 0.15751 0.97894 0.0
H1238 H 0.21174 0.21254 0.94444 0.0
H1239 H 0.27055 0.26417 0.93345 0.0
Pr1240 Pr 0.49059 0.50917 0.69055 0.0
Pr1241 Pr 0.53307 0.53558 0.69824 0.0
C1242 C 0.42773 0.53158 0.66744 0.0
C1243 C 0.43522 0.53809 0.64957 0.0
C1244 C 0.43784 0.49994 0.63886 0.0
C1245 C 0.44922 0.50639 0.62229 0.0
C1246 C 0.45864 0.55113 0.61605 0.0
C1247 C 0.45752 0.589 0.62695 0.0
C1248 C 0.44528 0.58267 0.64342 0.0
C1249 C 0.52931 0.41673 0.69219 0.0
C1250 C 0.55056 0.5437 0.6595 0.0
C1251 C 0.61633 0.57 0.70663 0.0
C1252 C 0.65875 0.54137 0.70564 0.0
C1253 C 0.68995 0.54129 0.71887 0.0
C1254 C 0.71595 0.5012 0.72232 0.0
C1255 C 0.70964 0.46084 0.71282 0.0
C1256 C 0.68475 0.46365 0.69807 0.0
C1257 C 0.65934 0.50391 0.69446 0.0
C1258 C 0.4639 0.57596 0.72652 0.0
C1259 C 0.49001 0.47092 0.72497 0.0
O1260 O 0.44834 0.56244 0.67659 0.0
O1261 O 0.43109 0.48938 0.67345 0.0
O1262 O 0.55298 0.45513 0.69145 0.0
O1263 O 0.48449 0.42667 0.69252 0.0
O1264 O 0.54196 0.57416 0.67111 0.0
O1265 O 0.54009 0.50301 0.66557 0.0
O1266 O 0.59644 0.58 0.69264 0.0
O1267 O 0.58663 0.55482 0.71748 0.0
O1268 O 0.46999 0.57479 0.71027 0.0
O1269 O 0.46845 0.57626 0.71028 0.0
O1270 O 0.45767 0.47837 0.71396 0.0
O1271 O 0.53168 0.48619 0.72136 0.0
H1272 H 0.43087 0.46509 0.64322 0.0
H1273 H 0.4484 0.47637 0.61427 0.0
H1274 H 0.46504 0.62382 0.62269 0.0
H1275 H 0.44436 0.61283 0.65141 0.0
H1276 H 0.68986 0.56969 0.72763 0.0
H1277 H 0.73509 0.49953 0.73382 0.0
H1278 H 0.68007 0.43306 0.69051 0.0
H1279 H 0.63573 0.50337 0.68404 0.0
C1280 C 0.1693 0.49985 0.47891 0.0
C1281 C 0.1892 0.45545 0.47734 0.0
H1282 H 0.12402 0.54333 0.49339 0.0
C1283 C 0.17097 0.41836 0.48652 0.0
H1284 H 0.18302 0.52883 0.47194 0.0
C1285 C 0.13879 0.42707 0.49911 0.0
C1286 C 0.12397 0.4727 0.50224 0.0
H1287 H 0.18613 0.3838 0.48543 0.0
H1288 H 0.13059 0.39943 0.50769 0.0
C1289 C 0.1357 0.50808 0.49111 0.0
C1290 C 0.9063 0.91011 0.72856 0.0
C1291 C 0.94568 0.93745 0.72596 0.0
H1292 H 0.8698 0.86804 0.74601 0.0
C1293 C 0.98443 0.93328 0.73649 0.0
H1294 H 0.87662 0.91265 0.72033 0.0
C1295 C 0.98013 0.90942 0.75127 0.0
C1296 C 0.93788 0.88806 0.75509 0.0
H1297 H 1.01533 0.9541 0.73446 0.0
H1298 H 1.0075 0.91222 0.76043 0.0
C1299 C 0.90266 0.88466 0.74313 0.0
C1300 C 0.49144 0.63006 0.97751 0.0
C1301 C 0.47535 0.67353 0.97212 0.0
H1302 H 0.52129 0.59234 0.99769 0.0
C1303 C 0.4904 0.71395 0.9802 0.0
H1304 H 0.48055 0.59868 0.97129 0.0
C1305 C 0.51241 0.7104 0.99544 0.0
C1306 C 0.52107 0.6665 1.00222 0.0
H1307 H 0.4783 0.74793 0.97615 0.0
H1308 H 0.51678 0.74148 1.0028 0.0
C1309 C 0.51478 0.62658 0.99255 0.0
C1310 C 0.69063 0.22628 0.25313 0.0
C1311 C 0.73639 0.24218 0.25471 0.0
H1312 H 0.64427 0.18361 0.2393 0.0
C1313 C 0.76853 0.23541 0.24182 0.0
H1314 H 0.66571 0.23064 0.26311 0.0
C1315 C 0.75708 0.20682 0.22854 0.0
C1316 C 0.71285 0.1866 0.22796 0.0
H1317 H 0.80403 0.24769 0.24301 0.0
H1318 H 0.78368 0.1975 0.21957 0.0
C1319 C 0.6787 0.19904 0.23966 0.0
C1320 C 0.20935 0.72207 0.26127 0.0
C1321 C 0.2109 0.68707 0.27333 0.0
H1322 H 0.19022 0.73939 0.23657 0.0
C1323 C 0.18429 0.64693 0.2715 0.0
H1324 H 0.22944 0.75357 0.26269 0.0
C1325 C 0.16055 0.63958 0.25671 0.0
C1326 C 0.16449 0.672 0.24384 0.0
H1327 H 0.18507 0.61993 0.28081 0.0
H1328 H 0.14384 0.60643 0.25467 0.0
C1329 C 0.18673 0.71429 0.24646 0.0
C1330 C 0.67224 0.903 0.50687 0.0
C1331 C 0.71084 0.88248 0.49908 0.0
H1332 H 0.6486 0.94221 0.52759 0.0
C1333 C 0.75223 0.87475 0.50805 0.0
H1334 H 0.64002 0.90914 0.50016 0.0
C1335 C 0.75773 0.89537 0.52353 0.0
C1336 C 0.72142 0.92249 0.53011 0.0
H1337 H 0.78244 0.85875 0.5022 0.0
H1338 H 0.7917 0.89478 0.52939 0.0
C1339 C 0.6772 0.92179 0.52256 0.0
C1340 C 0.44048 0.4252 0.74323 0.0
C1341 C 0.47644 0.45736 0.74157 0.0
H1342 H 0.38377 0.40181 0.75803 0.0
C1343 C 0.48855 0.48574 0.75498 0.0
H1344 H 0.43087 0.40295 0.73303 0.0
C1345 C 0.46065 0.48613 0.76918 0.0
C1346 C 0.42109 0.45798 0.76985 0.0
H1347 H 0.5162 0.51102 0.7538 0.0
H1348 H 0.46787 0.5105 0.779 0.0
C1349 C 0.41319 0.42525 0.75735 0.0
C1350 C 0.97159 0.2245 1.01513 0.0
C1351 C 0.93487 0.20822 1.02504 0.0
H1352 H 0.9893 0.25834 0.99251 0.0
C1353 C 0.88968 0.22613 1.0229 0.0
H1354 H 1.00678 0.21084 1.01668 0.0
C1355 C 0.88028 0.25523 1.00949 0.0
C1356 C 0.9155 0.26436 0.9979 0.0
H1357 H 0.86117 0.21399 1.03052 0.0
H1358 H 0.84442 0.26511 1.00689 0.0
C1359 C 0.9618 0.25203 1.00142 0.0
C1360 C 0.98756 0.6313 0.77431 0.0
C1361 C 0.9726 0.67561 0.7792 0.0
H1362 H 1.02003 0.5916 0.75507 0.0
C1363 C 0.99024 0.715 0.77112 0.0
H1364 H 0.97434 0.60073 0.78049 0.0
C1365 C 1.0146 0.70983 0.75634 0.0
C1366 C 1.0227 0.66529 0.75001 0.0
H1367 H 0.97879 0.74959 0.77473 0.0
H1368 H 1.02109 0.74029 0.74884 0.0
C1369 C 1.01355 0.62624 0.75983 0.0
C1370 C 0.19227 0.13945 0.50131 0.0
C1371 C 0.21363 0.14796 0.51655 0.0
H1372 H 0.18761 0.15778 0.47593 0.0
C1373 C 0.24276 0.18661 0.51837 0.0
H1374 H 0.16781 0.11123 0.49978 0.0
C1375 C 0.25316 0.2142 0.50465 0.0
C1376 C 0.23411 0.20316 0.48923 0.0
H1377 H 0.25845 0.19441 0.53017 0.0
H1378 H 0.27826 0.24195 0.50584 0.0
C1379 C 0.20259 0.16666 0.48777 0.0
C1380 C 0.65506 0.42423 0.24915 0.0
C1381 C 0.63383 0.4679 0.24726 0.0
H1382 H 0.70772 0.38492 0.26177 0.0
C1383 C 0.64011 0.50198 0.2594 0.0
H1384 H 0.65097 0.39769 0.2398 0.0
C1385 C 0.67435 0.4957 0.27152 0.0
C1386 C 0.70049 0.45434 0.27184 0.0
H1387 H 0.62344 0.5357 0.25809 0.0
H1388 H 0.6834 0.52445 0.27947 0.0
C1389 C 0.68798 0.4173 0.26154 0.0
C1390 C 0.47424 0.91654 1.00135 0.0
C1391 C 0.43512 0.89042 0.99713 0.0
H1392 H 0.50201 0.96691 1.01781 0.0
C1393 C 0.39813 0.88598 1.00845 0.0
H1394 H 0.50292 0.92055 0.99272 0.0
C1395 C 0.39675 0.91396 1.02256 0.0
C1396 C 0.43313 0.94494 1.0255 0.0
H1397 H 0.36757 0.8659 1.0053 0.0
H1398 H 0.36573 0.91463 1.03023 0.0
C1399 C 0.4735 0.94321 1.01562 0.0
C1400 C 0.93558 0.41732 0.98886 0.0
C1401 C 0.9357 0.455 0.97785 0.0
H1402 H 0.95928 0.39135 1.01207 0.0
C1403 C 0.96944 0.48957 0.97939 0.0
H1404 H 0.91001 0.38997 0.98765 0.0
C1405 C 0.99896 0.48936 0.99313 0.0
C1406 C 0.99352 0.45535 1.00542 0.0
H1407 H 0.97026 0.51842 0.97081 0.0
H1408 H 1.02163 0.51876 0.99515 0.0
C1409 C 0.96401 0.41774 1.00269 0.0
C1410 C 0.47036 0.21023 0.7378 0.0
C1411 C 0.4331 0.20075 0.72712 0.0
H1412 H 0.49003 0.23958 0.76094 0.0
C1413 C 0.3909 0.2253 0.72878 0.0
H1414 H 0.50332 0.19156 0.73659 0.0
C1415 C 0.38399 0.25433 0.74242 0.0
C1416 C 0.41873 0.25732 0.75457 0.0
H1417 H 0.36209 0.21853 0.72051 0.0
H1418 H 0.34952 0.26904 0.74463 0.0
C1419 C 0.46302 0.23802 0.75161 0.0
C1420 C 0.70096 0.72083 0.48593 0.0
C1421 C 0.70651 0.68442 0.47452 0.0
H1422 H 0.68193 0.73908 0.51062 0.0
C1423 C 0.68623 0.64127 0.47753 0.0
H1424 H 0.71668 0.75441 0.48369 0.0
C1425 C 0.66474 0.63321 0.49271 0.0
C1426 C 0.66517 0.66783 0.50491 0.0
H1427 H 0.69052 0.61299 0.46883 0.0
H1428 H 0.65261 0.59854 0.49555 0.0
C1429 C 0.68116 0.71228 0.50124 0.0
C1430 C 0.17375 0.8752 0.24515 0.0
C1431 C 0.21514 0.86353 0.25333 0.0
H1432 H 0.14436 0.90954 0.2243 0.0
C1433 C 0.25763 0.86287 0.24462 0.0
H1434 H 0.14071 0.87586 0.25171 0.0
C1435 C 0.26001 0.88337 0.22904 0.0
C1436 C 0.2198 0.90382 0.22231 0.0
H1437 H 0.28997 0.8537 0.25082 0.0
H1438 H 0.29387 0.88944 0.2235 0.0
C1439 C 0.17598 0.89423 0.22939 0.0
C1440 C 0.63538 1.00667 0.99274 0.0
C1441 C 0.62785 0.97185 1.00454 0.0
H1442 H 0.67653 1.02694 0.97175 0.0
C1443 C 0.64364 0.92652 1.00148 0.0
H1444 H 0.62289 1.04175 0.99498 0.0
C1445 C 0.67268 0.91774 0.98803 0.0
C1446 C 0.68699 0.95455 0.97788 0.0
H1447 H 0.63857 0.89939 1.01057 0.0
H1448 H 0.68868 0.88358 0.98681 0.0
C1449 C 0.66594 0.99837 0.97956 0.0
C1450 C 0.40026 0.37181 0.24154 0.0
C1451 C 0.44103 0.37605 0.25105 0.0
H1452 H 0.36219 0.39881 0.22073 0.0
C1453 C 0.48016 0.39773 0.24429 0.0
H1454 H 0.36963 0.35512 0.24662 0.0
C1455 C 0.47606 0.42161 0.22943 0.0
C1456 C 0.43234 0.42527 0.22161 0.0
H1457 H 0.51182 0.40149 0.25147 0.0
H1458 H 0.50489 0.44314 0.22549 0.0
C1459 C 0.39573 0.39699 0.22686 0.0
C1460 C 0.9957 0.13426 0.49362 0.0
C1461 C 0.9876 0.17216 0.50425 0.0
H1462 H 0.97742 0.10265 0.47051 0.0
C1463 C 0.96491 0.212 0.49844 0.0
H1464 H 1.01275 0.10292 0.4981 0.0
C1465 C 0.94625 0.21223 0.48267 0.0
C1466 C 0.94863 0.17206 0.47282 0.0
H1467 H 0.95809 0.24127 0.50654 0.0
H1468 H 0.92536 0.24192 0.47887 0.0
C1469 C 0.97554 0.13391 0.47793 0.0
C1470 C 0.17537 0.67808 0.74023 0.0
C1471 C 0.21048 0.67801 0.72811 0.0
H1472 H 0.15576 0.69999 0.76443 0.0
C1473 C 0.24749 0.70927 0.72919 0.0
H1474 H 0.14606 0.65459 0.73937 0.0
C1475 C 0.2521 0.73656 0.74337 0.0
C1476 C 0.22026 0.73153 0.75645 0.0
H1477 H 0.27439 0.70994 0.71978 0.0
H1478 H 0.28322 0.7573 0.74488 0.0
C1479 C 0.18049 0.70435 0.75442 0.0
C1480 C 0.6454 0.21055 0.75365 0.0
C1481 C 0.63247 0.16581 0.74886 0.0
H1482 H 0.68555 0.25065 0.77053 0.0
C1483 C 0.63965 0.12833 0.75967 0.0
H1484 H 0.64067 0.23972 0.74533 0.0
C1485 C 0.66721 0.13404 0.77371 0.0
C1486 C 0.68571 0.17771 0.77724 0.0
H1487 H 0.62958 0.0936 0.75607 0.0
H1488 H 0.67795 0.10384 0.78078 0.0
C1489 C 0.67133 0.21661 0.76798 0.0
C1490 C 0.17911 0.37732 1.0056 0.0
C1491 C 0.22312 0.36582 0.99922 0.0
H1492 H 0.14225 0.41543 1.02412 0.0
C1493 C 0.26296 0.37041 1.00914 0.0
H1494 H 0.1481 0.37421 0.99804 0.0
C1495 C 0.25989 0.3953 1.02388 0.0
C1496 C 0.21686 0.41431 1.02872 0.0
H1497 H 0.29727 0.36153 1.00432 0.0
H1498 H 0.29155 0.40487 1.03027 0.0
C1499 C 0.1759 0.4009 1.02053 0.0
C1500 C 0.95733 0.9167 0.24495 0.0
C1501 C 0.99036 0.95186 0.24334 0.0
H1502 H 0.89904 0.89163 0.25863 0.0
C1503 C 0.99652 0.98394 0.2562 0.0
H1504 H 0.95214 0.89174 0.23513 0.0
C1505 C 0.96489 0.98508 0.2694 0.0
C1506 C 0.928 0.95351 0.26975 0.0
H1507 H 1.02202 1.01136 0.25507 0.0
H1508 H 0.96705 1.0124 0.27854 0.0
C1509 C 0.92655 0.91729 0.25817 0.0
C1510 C 0.4658 0.66975 0.50433 0.0
C1511 C 0.43799 0.66812 0.51857 0.0
H1512 H 0.47321 0.69694 0.48 0.0
C1513 C 0.40078 0.69966 0.52058 0.0
H1514 H 0.4955 0.6464 0.50282 0.0
C1515 C 0.38883 0.72962 0.50761 0.0
C1516 C 0.41406 0.72759 0.49276 0.0
H1517 H 0.37958 0.69917 0.53166 0.0
H1518 H 0.35767 0.75116 0.50863 0.0
C1519 C 0.45369 0.69907 0.49145 0.0
C1520 C 0.49145 0.13235 0.27542 0.0
C1521 C 0.47786 0.17603 0.2814 0.0
H1522 H 0.51653 0.09462 0.25443 0.0
C1523 C 0.49226 0.21634 0.27302 0.0
H1524 H 0.48083 0.10104 0.28177 0.0
C1525 C 0.51106 0.21277 0.25722 0.0
C1526 C 0.51744 0.16891 0.25016 0.0
H1527 H 0.48196 0.2505 0.27746 0.0
H1528 H 0.51518 0.24397 0.24988 0.0
C1529 C 0.51163 0.12882 0.25979 0.0
C1530 C 0.74361 0.69575 1.02115 0.0
C1531 C 0.71211 0.65879 1.02131 0.0
H1532 H 0.77539 0.74859 1.00627 0.0
C1533 C 0.68147 0.65262 1.008 0.0
H1534 H 0.76648 0.7017 1.03154 0.0
C1535 C 0.68606 0.67923 0.99388 0.0
C1536 C 0.72083 0.71286 0.99296 0.0
H1537 H 0.65542 0.62549 1.00822 0.0
H1538 H 0.66481 0.67116 0.98323 0.0
C1539 C 0.74797 0.72292 1.00691 0.0
C1540 C 0.21688 0.92233 0.75822 0.0
C1541 C 0.2154 0.95708 0.77035 0.0
H1542 H 0.1946 0.90209 0.73422 0.0
C1543 C 0.1815 0.99237 0.76962 0.0
H1544 H 0.24211 0.894 0.75894 0.0
C1545 C 0.15304 0.99594 0.75568 0.0
C1546 C 0.15942 0.96466 0.74254 0.0
H1547 H 0.1794 1.01865 0.77915 0.0
H1548 H 0.13008 1.0259 0.75437 0.0
C1549 C 0.18931 0.92636 0.74428 0.0
C1550 C 0.97188 0.41944 0.51991 0.0
C1551 C 0.92773 0.42491 0.52735 0.0
H1552 H 1.00881 0.39547 0.49856 0.0
C1553 C 0.89105 0.39638 0.52241 0.0
H1554 H 1.00078 0.44102 0.52368 0.0
C1555 C 0.89622 0.36878 0.5083 0.0
C1556 C 0.93762 0.37102 0.49897 0.0
H1557 H 0.8572 0.39954 0.52831 0.0
H1558 H 0.8657 0.35168 0.50337 0.0
C1559 C 0.97663 0.39319 0.50558 0.0
C1560 C 0.51846 1.00069 0.49073 0.0
C1561 C 0.52466 0.9627 0.50139 0.0
H1562 H 0.47404 1.03115 0.47218 0.0
C1563 C 0.50367 0.92035 0.49758 0.0
H1564 H 0.53518 1.03336 0.49344 0.0
C1565 C 0.47024 0.91852 0.48514 0.0
C1566 C 0.4571 0.95927 0.47672 0.0
H1567 H 0.50783 0.89069 0.50571 0.0
H1568 H 0.45024 0.88697 0.48369 0.0
C1569 C 0.48354 0.99954 0.47867 0.0
C1570 C 0.88848 0.73043 0.24551 0.0
C1571 C 0.91569 0.72825 0.25988 0.0
H1572 H 0.87648 0.70065 0.22155 0.0
C1573 C 0.95618 0.70072 0.26027 0.0
H1574 H 0.85674 0.75126 0.24519 0.0
C1575 C 0.96708 0.67213 0.24705 0.0
C1576 C 0.93726 0.67036 0.23338 0.0
H1577 H 0.97724 0.69845 0.27134 0.0
H1578 H 0.99737 0.64928 0.24788 0.0
C1579 C 0.8992 0.7012 0.2322 0.0
C1580 C 0.18872 0.14697 0.97725 0.0
C1581 C 0.22161 0.18243 0.97589 0.0
H1582 H 0.14071 0.11274 0.99348 0.0
C1583 C 0.22416 0.21684 0.98813 0.0
H1584 H 0.18595 0.1207 0.96776 0.0
C1585 C 0.19886 0.21239 1.00261 0.0
C1586 C 0.17006 0.174 1.00486 0.0
H1587 H 0.2488 0.24509 0.98704 0.0
H1588 H 0.20506 0.23652 1.01261 0.0
C1589 C 0.16257 0.14293 0.99178 0.0
C1590 C 0.67108 0.40416 0.73042 0.0
C1591 C 0.71167 0.41653 0.72171 0.0
H1592 H 0.64421 0.37878 0.75332 0.0
C1593 C 0.75494 0.39795 0.72647 0.0
H1594 H 0.63734 0.41858 0.72695 0.0
C1595 C 0.7586 0.3742 0.74142 0.0
C1596 C 0.71912 0.3699 0.7516 0.0
H1597 H 0.78643 0.40704 0.71982 0.0
H1598 H 0.7931 0.36544 0.74605 0.0
C1599 C 0.6749 0.38154 0.74553 0.0
C1600 C 0.1108 0.26205 0.43895 0.0
C1601 C 0.1511 0.28968 0.44235 0.0
H1602 H 1.03478 0.25661 0.43682 0.0
C1603 C 0.13989 0.33627 0.44665 0.0
H1604 H 0.116 0.22586 0.43571 0.0
C1605 C 0.09261 0.35395 0.4475 0.0
C1606 C 1.05219 0.32682 0.44395 0.0
H1607 H 0.16801 0.35939 0.44978 0.0
H1608 H 0.08784 0.38993 0.45109 0.0
C1609 C 1.06314 0.27997 0.43958 0.0
C1610 C 0.10213 0.78626 0.69087 0.0
C1611 C 1.05512 0.77613 0.69542 0.0
H1612 H 0.15647 0.83773 0.68681 0.0
C1613 C 1.02804 0.81704 0.69911 0.0
H1614 H 0.1256 0.75764 0.688 0.0
C1615 C 1.04582 0.86384 0.69822 0.0
C1616 C 0.09261 0.8742 0.69373 0.0
H1617 H 0.99195 0.81303 0.70286 0.0
H1618 H 1.02261 0.8922 0.70151 0.0
C1619 C 0.12016 0.83337 0.6902 0.0
C1620 C 0.54527 0.78214 0.94218 0.0
C1621 C 0.5357 0.83029 0.94452 0.0
H1622 H 0.59622 0.72571 0.94029 0.0
C1623 C 0.57675 0.8576 0.94653 0.0
H1624 H 0.5163 0.75889 0.94061 0.0
C1625 C 0.62354 0.83846 0.9461 0.0
C1626 C 0.6332 0.79038 0.94382 0.0
H1627 H 0.57286 0.89466 0.94849 0.0
H1628 H 0.65247 0.86164 0.94788 0.0
C1629 C 0.59218 0.76287 0.94197 0.0
C1630 C 0.51676 0.31882 0.19597 0.0
C1631 C 0.54626 0.2783 0.19563 0.0
H1632 H 0.50889 0.39404 0.19576 0.0
C1633 C 0.59472 0.28872 0.19471 0.0
H1634 H 0.47929 0.31435 0.19683 0.0
C1635 C 0.61193 0.33598 0.19443 0.0
C1636 C 0.58216 0.37642 0.19467 0.0
H1637 H 0.61981 0.2603 0.19464 0.0
H1638 H 0.64941 0.34077 0.19409 0.0
C1639 C 0.5339 0.36578 0.19532 0.0
C1640 C 1.04104 0.77605 0.31095 0.0
C1641 C 0.9996 0.8034 0.30803 0.0
H1642 H 0.11733 0.77126 0.31276 0.0
C1643 C 1.00931 0.85063 0.30438 0.0
H1644 H 1.03716 0.73946 0.3137 0.0
C1645 C 1.05613 0.86895 0.30361 0.0
C1646 C 0.09766 0.84202 0.30665 0.0
H1647 H 0.98038 0.87383 0.30173 0.0
H1648 H 1.05964 0.90535 0.3005 0.0
C1649 C 0.08817 0.79462 0.31043 0.0
C1650 C 0.62663 0.84939 0.55696 0.0
C1651 C 0.57814 0.86017 0.55556 0.0
H1652 H 0.68231 0.79738 0.55788 0.0
C1653 C 0.54948 0.81973 0.55438 0.0
H1654 H 0.6511 0.87762 0.55768 0.0
C1655 C 0.56753 0.77257 0.55473 0.0
C1656 C 0.61603 0.76179 0.55597 0.0
H1657 H 0.51206 0.82443 0.55313 0.0
H1658 H 0.543 0.74428 0.55374 0.0
C1659 C 0.64481 0.80217 0.55702 0.0
C1660 C 0.60184 0.28897 0.80714 0.0
C1661 C 0.61235 0.33708 0.80612 0.0
H1662 H 0.54975 0.23451 0.80786 0.0
C1663 C 0.57152 0.36638 0.8056 0.0
H1664 H 0.6304 0.26407 0.80735 0.0
C1665 C 0.52416 0.34929 0.80617 0.0
C1666 C 0.51361 0.30119 0.80697 0.0
H1667 H 0.57609 0.40361 0.80466 0.0
H1668 H 0.4956 0.37419 0.80561 0.0
C1669 C 0.5544 0.27179 0.80739 0.0
C1670 C 0.13207 0.30458 1.05483 0.0
C1671 C 0.10435 0.26368 1.0562 0.0
H1672 H 0.13623 0.37995 1.05387 0.0
C1673 C 1.05565 0.27318 1.05768 0.0
H1674 H 0.16959 0.30073 1.05354 0.0
C1675 C 1.03619 0.31974 1.05761 0.0
C1676 C 1.06395 0.36065 1.05637 0.0
H1677 H 1.03213 0.24431 1.05881 0.0
H1678 H 0.9986 0.3236 1.05861 0.0
C1679 C 0.11267 0.35114 1.05504 0.0
C1680 C 0.11944 0.84648 0.807 0.0
C1681 C 0.12957 0.7979 0.8067 0.0
H1682 H 1.06802 0.90276 0.80691 0.0
C1683 C 0.0885 0.76989 0.80625 0.0
H1684 H 0.14827 0.87048 0.80729 0.0
C1685 C 1.04138 0.78874 0.80622 0.0
C1686 C 1.03118 0.83725 0.80648 0.0
H1687 H 0.09265 0.73246 0.80588 0.0
H1688 H 1.01264 0.7648 0.80578 0.0
C1689 C 1.07225 0.86533 0.80679 0.0
C1690 C 1.00285 0.31752 0.55713 0.0
C1691 C 1.03172 0.27666 0.55595 0.0
H1692 H 0.99636 0.39296 0.55809 0.0
C1693 C 0.08022 0.2867 0.55467 0.0
H1694 H 0.96536 0.31338 0.55806 0.0
C1695 C 0.09809 0.33365 0.55438 0.0
C1696 C 1.06925 0.37454 0.5557 0.0
H1697 H 0.10485 0.25802 0.55359 0.0
H1698 H 0.13549 0.33783 0.55307 0.0
C1699 C 1.02087 0.36441 0.55718 0.0
C1700 C 0.60892 0.26858 0.30712 0.0
C1701 C 0.64992 0.29672 0.3065 0.0
H1702 H 0.53291 0.26346 0.30728 0.0
C1703 C 0.64013 0.34506 0.30547 0.0
H1704 H 0.61314 0.23118 0.30774 0.0
C1705 C 0.59317 0.36373 0.30488 0.0
C1706 C 0.55213 0.33573 0.30564 0.0
H1707 H 0.66903 0.36884 0.30469 0.0
H1708 H 0.58909 0.40106 0.30374 0.0
C1709 C 0.56183 0.28734 0.30689 0.0
C1710 C 0.61256 0.83629 1.05838 0.0
C1711 C 0.58299 0.87681 1.0574 0.0
H1712 H 0.62042 0.76064 1.05885 0.0
C1713 C 0.53481 0.86623 1.05607 0.0
H1714 H 0.64998 0.84103 1.05924 0.0
C1715 C 0.51774 0.81915 1.05554 0.0
C1716 C 0.54713 0.77858 1.05661 0.0
H1717 H 0.50989 0.89452 1.05493 0.0
H1718 H 0.48042 0.81462 1.05414 0.0
C1719 C 0.59538 0.78905 1.05819 0.0
C1720 C 1.07096 0.3688 0.94577 0.0
C1721 C 0.11189 0.33959 0.94531 0.0
H1722 H 0.99506 0.37638 0.94592 0.0
C1723 C 0.10159 0.29143 0.94446 0.0
H1724 H 0.07538 0.40606 0.94658 0.0
C1725 C 1.05417 0.27415 0.94439 0.0
C1726 C 1.01327 0.30346 0.94477 0.0
H1727 H 0.13027 0.26659 0.9443 0.0
H1728 H 1.04961 0.23685 0.94411 0.0
C1729 C 1.02367 0.35158 0.94533 0.0
C1730 C 0.52162 0.32507 0.68944 0.0
C1731 C 0.5496 0.36521 0.69245 0.0
H1732 H 0.51625 0.24958 0.68748 0.0
C1733 C 0.59682 0.35438 0.69626 0.0
H1734 H 0.48501 0.33009 0.68651 0.0
C1735 C 0.61466 0.30745 0.69718 0.0
C1736 C 0.58709 0.26719 0.69406 0.0
H1737 H 0.62034 0.3825 0.69891 0.0
H1738 H 0.65109 0.30282 0.70045 0.0
C1739 C 0.53977 0.27784 0.69003 0.0
C1740 C 0.5536 0.87379 0.44853 0.0
C1741 C 0.5947 0.84577 0.44611 0.0
H1742 H 0.4779 0.87993 0.45004 0.0
C1743 C 0.58457 0.79805 0.44316 0.0
H1744 H 0.55765 0.91052 0.45098 0.0
C1745 C 0.53721 0.78016 0.44276 0.0
C1746 C 0.49617 0.80854 0.44502 0.0
H1747 H 0.61342 0.77397 0.44128 0.0
H1748 H 0.53284 0.74333 0.44062 0.0
C1749 C 0.50655 0.85603 0.44792 0.0
C1750 C 0.11602 0.8485 0.19336 0.0
C1751 C 1.06729 0.85862 0.19316 0.0
H1752 H 0.17266 0.79771 0.1938 0.0
C1753 C 1.03897 0.81786 0.19298 0.0
H1754 H 0.14001 0.87709 0.19361 0.0
C1755 C 1.05795 0.77092 0.19289 0.0
C1756 C 0.10686 0.76098 0.19318 0.0
H1757 H 1.00132 0.82211 0.19289 0.0
H1758 H 1.03383 0.74218 0.19272 0.0
C1759 C 0.135 0.80176 0.19348 0.0
C1760 C 0.31087 0.31378 0.3799 0.0
C1761 C 0.34439 0.31321 0.39285 0.0
H1762 H 0.29312 0.3294 0.35448 0.0
C1763 C 0.38902 0.3305 0.38797 0.0
H1764 H 0.27595 0.30143 0.38244 0.0
C1765 C 0.3992 0.34675 0.37142 0.0
C1766 C 0.36556 0.34684 0.35845 0.0
H1767 H 0.41674 0.33136 0.39702 0.0
H1768 H 0.43412 0.35889 0.36877 0.0
C1769 C 0.32102 0.32993 0.36344 0.0
C1770 C 1.05508 0.12192 0.61928 0.0
C1771 C 1.03938 0.08694 0.60821 0.0
H1772 H 0.08365 0.14058 0.64321 0.0
C1773 C 1.04289 1.04102 0.61478 0.0
H1774 H 1.05375 0.15785 0.61534 0.0
C1775 C 1.06032 1.0309 0.63112 0.0
C1776 C 0.07561 1.06589 0.64226 0.0
H1777 H 1.03186 1.01219 0.60721 0.0
H1778 H 1.06165 0.99496 0.63507 0.0
C1779 C 1.07252 0.11179 0.63564 0.0
C1780 C 0.29775 0.82729 0.88669 0.0
C1781 C 0.34424 0.83249 0.89269 0.0
H1782 H 0.25078 0.8092 0.86668 0.0
C1783 C 0.37931 0.8216 0.88074 0.0
H1784 H 0.26884 0.83488 0.89492 0.0
C1785 C 0.36872 0.80676 0.86415 0.0
C1786 C 0.3222 0.80149 0.85817 0.0
H1787 H 0.41567 0.82431 0.88424 0.0
H1788 H 0.39762 0.79921 0.85592 0.0
C1789 C 0.28715 0.81235 0.87012 0.0
C1790 C 0.57388 1.05393 0.14006 0.0
C1791 C 0.54078 0.09017 0.14376 0.0
H1792 H 0.61584 1.01538 1.12213 0.0
C1793 C 0.52611 0.11525 0.12947 0.0
H1794 H 0.58727 1.03296 0.15011 0.0
C1795 C 0.543 0.1048 1.11297 0.0
C1796 C 0.57616 1.06856 1.1093 0.0
H1797 H 0.50116 0.14348 0.13097 0.0
H1798 H 0.52965 0.12571 1.1029 0.0
C1799 C 0.59083 1.04358 1.1236 0.0
C1800 C 0.25883 0.84827 0.39006 0.0
C1801 C 0.30282 0.82841 0.39486 0.0
H1802 H 0.21437 0.87847 0.37089 0.0
C1803 C 0.33569 0.82574 0.38167 0.0
H1804 H 0.23157 0.85162 0.39926 0.0
C1805 C 0.3256 0.84131 0.36513 0.0
C1806 C 0.28183 0.86123 0.36024 0.0
H1807 H 0.37 0.81108 0.38409 0.0
H1808 H 0.35294 0.83756 0.35597 0.0
C1809 C 0.24873 0.86411 0.37342 0.0
C1810 C 0.56587 1.0413 0.63862 0.0
C1811 C 0.59992 0.07563 0.64255 0.0
H1812 H 0.52602 1.00348 0.62021 0.0
C1813 C 0.61902 0.09783 0.62838 0.0
H1814 H 0.54932 1.02265 0.64861 0.0
C1815 C 0.60525 0.08655 0.61171 0.0
C1816 C 0.57118 1.05222 0.60779 0.0
H1817 H 0.64505 0.12443 0.63013 0.0
H1818 H 0.62176 0.10521 0.60171 0.0
C1819 C 0.55209 1.03004 0.62195 0.0
C1820 C 0.35163 0.30276 0.87244 0.0
C1821 C 0.32134 0.30949 0.85873 0.0
H1822 H 0.36644 0.31325 0.89841 0.0
C1823 C 0.27985 0.3354 0.86273 0.0
H1824 H 0.384 0.28361 0.87061 0.0
C1825 C 0.26946 0.35299 0.87909 0.0
C1826 C 0.29985 0.3462 0.8928 0.0
H1827 H 0.25475 0.34234 0.85305 0.0
H1828 H 0.23707 0.37206 0.88096 0.0
C1829 C 0.34129 0.32033 0.88876 0.0
C1830 C 0.0935 0.10712 1.11936 0.0
C1831 C 0.10174 0.07233 1.10717 0.0
H1832 H 0.07329 0.12519 0.14444 0.0
C1833 C 0.09493 1.02614 1.113 0.0
H1834 H 0.09761 0.14326 1.11598 0.0
C1835 C 0.08166 1.01556 0.12976 0.0
C1836 C 0.07383 1.05036 0.14199 0.0
H1837 H 0.10024 0.9975 1.10453 0.0
H1838 H 0.07748 0.97943 0.13315 0.0
C1839 C 0.07959 0.09655 0.13606 0.0
C1840 C 0.78602 0.81059 0.88097 0.0
C1841 C 0.82193 0.80139 0.89272 0.0
H1842 H 0.76578 0.83206 0.85626 0.0
C1843 C 0.86793 0.80821 0.88641 0.0
H1844 H 0.74995 0.80623 0.88468 0.0
C1845 C 0.87723 0.82294 0.86968 0.0
C1846 C 0.84127 0.8321 0.85794 0.0
H1847 H 0.89741 0.80193 0.89448 0.0
H1848 H 0.91328 0.82723 0.86595 0.0
C1849 C 0.7953 0.82556 0.86429 0.0
C1850 C 0.89084 0.35188 0.37705 0.0
C1851 C 0.86546 0.33735 0.39126 0.0
H1852 H 0.90131 0.34872 0.35046 0.0
C1853 C 0.82905 0.30532 0.38762 0.0
H1854 H 0.91919 0.37611 0.37861 0.0
C1855 C 0.81875 0.28906 0.37121 0.0
C1856 C 0.84391 0.30356 0.35698 0.0
H1857 H 0.80795 0.29224 0.39766 0.0
H1858 H 0.79042 0.26476 0.3697 0.0
C1859 C 0.88035 0.33572 0.36056 0.0
C1860 C 0.83768 0.30605 0.86174 0.0
C1861 C 0.80201 0.33963 0.85791 0.0
H1862 H 0.87546 0.26437 0.87991 0.0
C1863 C 0.77714 0.35552 0.87211 0.0
H1864 H 0.85843 0.29178 0.85175 0.0
C1865 C 0.78719 0.33929 0.88868 0.0
C1866 C 0.82285 0.30569 0.8925 0.0
H1867 H 0.74936 0.38093 0.87049 0.0
H1868 H 0.76646 0.35354 0.89868 0.0
C1869 C 0.84769 0.2898 0.87829 0.0
C1870 C 0.74805 0.8338 0.38201 0.0
C1871 C 0.78288 0.84921 0.39324 0.0
H1872 H 0.73019 0.80699 0.35774 0.0
C1873 C 0.82928 0.84613 0.38684 0.0
H1874 H 0.71182 0.83459 0.38589 0.0
C1875 C 0.84006 0.82964 0.37046 0.0
C1876 C 0.80527 0.81527 0.35907 0.0
H1877 H 0.85802 0.85665 0.3946 0.0
H1878 H 0.87636 0.82856 0.36665 0.0
C1879 C 0.75882 0.81761 0.36553 0.0
C1880 C 0.53661 0.60574 0.14004 0.0
C1881 C 0.56967 0.56952 0.14373 0.0
H1882 H 0.49579 0.64466 1.12187 0.0
C1883 C 0.58539 0.5449 0.12952 0.0
H1884 H 0.52263 0.62633 0.1501 0.0
C1885 C 0.56948 0.55551 1.11304 0.0
C1886 C 0.53654 0.59169 1.10927 0.0
H1887 H 0.61045 0.5168 0.13108 0.0
H1888 H 0.5836 0.53481 1.10303 0.0
C1889 C 0.52075 0.6165 1.12348 0.0
C1890 C 1.02007 0.61185 0.62851 0.0
C1891 C 1.03919 0.58898 0.6426 0.0
H1892 H 1.01782 0.62008 0.60183 0.0
C1893 C 0.0739 0.55471 0.63851 0.0
H1894 H 0.99355 0.63845 0.63036 0.0
C1895 C 0.08836 0.54411 0.62183 0.0
C1896 C 1.06924 0.56677 0.60773 0.0
H1897 H 0.09055 0.53555 0.64841 0.0
H1898 H 0.11495 0.51754 0.62002 0.0
C1899 C 1.03442 0.60105 0.61177 0.0
C1900 C 0.09995 0.52509 0.13555 0.0
C1901 C 0.10227 0.57096 0.14214 0.0
H1902 H 0.08403 0.47931 1.115 0.0
C1903 C 0.08723 0.6061 0.13088 0.0
H1904 H 0.11068 0.49617 0.14324 0.0
C1905 C 1.07121 0.59616 1.11437 0.0
C1906 C 1.06943 0.55035 1.1077 0.0
H1907 H 0.08776 0.64202 0.13483 0.0
H1908 H 1.06026 0.62505 1.1067 0.0
C1909 C 0.08436 0.51521 1.11898 0.0
C1910 C 0.57454 0.59968 0.63496 0.0
C1911 C 0.56908 0.55395 0.64142 0.0
H1912 H 0.59491 0.64479 0.61467 0.0
C1913 C 0.58138 0.51817 0.63001 0.0
H1914 H 0.56554 0.62903 0.64273 0.0
C1915 C 0.59837 0.52738 0.61356 0.0
C1916 C 0.60433 0.57312 0.60715 0.0
H1917 H 0.57799 0.4823 0.63383 0.0
H1918 H 0.60704 0.49801 0.60576 0.0
C1919 C 0.5916 0.60892 0.6185 0.0
C1920 C 0.43634 0.14662 0.48329 0.0
C1921 C 0.39417 0.16953 0.48818 0.0
H1922 H 0.49643 0.10341 0.48946 0.0
C1923 C 0.38405 0.16176 0.50542 0.0
H1924 H 0.44786 0.15019 0.47065 0.0
C1925 C 0.41275 0.1338 0.51669 0.0
C1926 C 0.45484 0.11061 0.51174 0.0
H1927 H 0.35278 0.17783 0.51047 0.0
H1928 H 0.40121 0.13011 0.52933 0.0
C1929 C 0.46493 0.11873 0.49453 0.0
C1930 C 0.23771 0.14442 0.76765 0.0
C1931 C 0.27081 0.17798 0.76224 0.0
H1932 H 0.18589 0.09202 0.76175 0.0
C1933 C 0.27339 0.17973 0.74448 0.0
H1934 H 0.23241 0.13994 0.78076 0.0
C1935 C 0.24631 0.15115 0.73317 0.0
C1936 C 0.21334 0.11752 0.73854 0.0
H1937 H 0.29683 0.20451 0.73902 0.0
H1938 H 0.25138 0.15593 0.72006 0.0
C1939 C 0.21045 0.11587 0.75631 0.0
C1940 C 0.23554 1.02834 0.99361 0.0
C1941 C 0.23063 1.02151 1.01113 0.0
H1942 H 0.26485 1.00775 0.96968 0.0
C1943 C 0.25639 0.98194 1.01671 0.0
H1944 H 0.21696 1.05722 0.98809 0.0
C1945 C 0.28427 0.95256 1.00574 0.0
C1946 C 0.28955 0.95959 0.98826 0.0
H1947 H 0.25491 0.97302 1.02965 0.0
H1948 H 0.30168 0.92286 1.01118 0.0
C1949 C 0.26358 0.99902 0.98265 0.0
C1950 C 0.37272 1.01663 0.26852 0.0
C1951 C 0.3443 0.9791 0.26301 0.0
H1952 H 0.42218 0.07181 0.26311 0.0
C1953 C 0.34872 0.97335 0.24534 0.0
H1954 H 0.37265 1.02487 0.28153 0.0
C1955 C 0.37816 1.0012 0.2343 0.0
C1956 C 0.4069 1.03843 0.23983 0.0
H1957 H 0.32898 0.94585 0.23975 0.0
H1958 H 0.3785 0.99272 0.22132 0.0
C1959 C 0.40217 1.04449 0.25749 0.0
C1960 C 0.74833 0.99166 0.76665 0.0
C1961 C 0.78538 0.96232 0.76089 0.0
H1962 H 0.6912 1.0398 0.76156 0.0
C1963 C 0.78893 0.96404 0.74311 0.0
H1964 H 0.74171 0.99317 0.77978 0.0
C1965 C 0.75911 0.99209 0.73217 0.0
C1966 C 0.72204 1.02148 0.73798 0.0
H1967 H 0.8155 0.94271 0.73734 0.0
H1968 H 0.76547 0.9904 0.71903 0.0
C1969 C 0.71848 1.01948 0.75574 0.0
C1970 C 0.88921 1.04922 0.49539 0.0
C1971 C 0.89929 1.03845 0.5124 0.0
H1972 H 0.85599 1.03256 0.47178 0.0
C1973 C 0.87889 0.9955 0.51722 0.0
H1974 H 0.9034 0.08089 0.49042 0.0
C1975 C 0.85158 0.96663 0.50607 0.0
C1976 C 0.84097 0.97754 0.48914 0.0
H1977 H 0.88483 0.98312 0.52964 0.0
H1978 H 0.83907 0.9341 0.51088 0.0
C1979 C 0.86131 1.02058 0.48429 0.0
C1980 C 0.91466 0.13846 0.23308 0.0
C1981 C 0.94991 0.10702 0.23871 0.0
H1982 H 0.8615 0.19063 0.23847 0.0
C1983 C 0.95494 0.10869 0.25641 0.0
H1984 H 0.9077 0.1403 0.22 0.0
C1985 C 0.92756 0.1385 0.26747 0.0
C1986 C 0.89212 0.16979 0.26181 0.0
H1987 H 0.98126 0.08654 0.26197 0.0
H1988 H 0.93454 0.13674 0.28055 0.0
C1989 C 0.88727 0.1681 0.24412 0.0
C1990 C 0.73973 0.15387 1.01833 0.0
C1991 C 0.70579 0.12147 1.01278 0.0
H1992 H 0.79241 0.20548 1.01279 0.0
C1993 C 0.70392 0.12041 0.99496 0.0
H1994 H 0.74457 0.15807 1.03146 0.0
C1995 C 0.73259 0.14825 0.98376 0.0
C1996 C 0.76654 0.18065 0.98931 0.0
H1997 H 0.67901 0.09755 0.9893 0.0
H1998 H 0.72765 0.14418 0.97063 0.0
C1999 C 0.76831 0.18181 1.00713 0.0
C2000 C 0.86986 0.6624 1.00641 0.0
C2001 C 0.87585 0.66504 0.98877 0.0
H2002 H 0.89051 0.63489 1.03056 0.0
C2003 C 0.91377 0.6365 0.98326 0.0
H2004 H 0.84226 0.68315 1.01191 0.0
C2005 C 0.94238 0.60824 0.99437 0.0
C2006 C 0.93625 0.60536 1.012 0.0
H2007 H 0.9219 0.63588 0.97023 0.0
H2008 H 0.97069 0.58841 0.98891 0.0
C2009 C 0.89846 0.63409 1.01752 0.0
C2010 C 0.73201 0.65296 0.23407 0.0
C2011 C 0.69592 0.6229 0.23968 0.0
H2012 H 0.78713 0.70226 0.23965 0.0
C2013 C 0.69177 0.6237 0.25741 0.0
H2014 H 0.73868 0.65516 0.22096 0.0
C2015 C 0.72034 0.65134 0.26852 0.0
C2016 C 0.75652 0.68121 0.26296 0.0
H2017 H 0.66516 0.60255 0.26303 0.0
H2018 H 0.71365 0.64907 0.28163 0.0
C2019 C 0.76076 0.68057 0.24521 0.0
C2020 C 0.78392 0.5041 0.48255 0.0
C2021 C 0.80262 0.45961 0.48701 0.0
H2022 H 0.74394 0.56631 0.48919 0.0
C2023 C 0.79061 0.44787 0.50377 0.0
H2024 H 0.79062 0.51706 0.47027 0.0
C2025 C 0.76359 0.47712 0.51511 0.0
C2026 C 0.745 0.52161 0.51074 0.0
H2027 H 0.80166 0.41422 0.50826 0.0
H2028 H 0.75655 0.46391 0.52734 0.0
C2029 C 0.75644 0.53331 0.49388 0.0
C2030 C 0.89836 0.49353 0.76743 0.0
C2031 C 0.85771 0.46943 0.76205 0.0
H2032 H 0.95794 0.53757 0.76196 0.0
C2033 C 0.85012 0.47702 0.7446 0.0
H2034 H 0.90838 0.49044 0.78024 0.0
C2035 C 0.87955 0.50507 0.73362 0.0
C2036 C 0.92035 0.52901 0.739 0.0
H2037 H 0.82015 0.46068 0.73912 0.0
H2038 H 0.86969 0.50791 0.72079 0.0
C2039 C 0.92775 0.52161 0.75647 0.0
C2040 C 0.27894 0.50699 0.26698 0.0
C2041 C 0.30209 0.46494 0.26213 0.0
H2042 H 0.23412 0.56615 0.26072 0.0
C2043 C 0.29323 0.45438 0.24505 0.0
H2044 H 0.28293 0.5188 0.27955 0.0
C2045 C 0.26493 0.48253 0.23379 0.0
C2046 C 0.24181 0.52456 0.23857 0.0
H2047 H 0.30798 0.42255 0.24022 0.0
H2048 H 0.26066 0.47044 0.22126 0.0
C2049 C 0.25024 0.53508 0.25573 0.0
C2050 C 0.38928 0.49443 1.01809 0.0
C2051 C 0.41248 0.53567 1.01289 0.0
H2052 H 0.34729 0.43393 1.0122 0.0
C2053 C 0.40543 0.54362 0.99546 0.0
H2054 H 0.39241 0.48405 1.03086 0.0
C2055 C 0.37856 0.51398 0.98431 0.0
C2056 C 0.35555 0.4726 0.9895 0.0
H2057 H 0.42129 0.57401 0.99015 0.0
H2058 H 0.37601 0.52403 0.97149 0.0
C2059 C 0.36245 0.46476 1.00694 0.0
C2060 C 0.43283 0.6071 0.75537 0.0
C2061 C 0.43074 0.60957 0.73763 0.0
H2062 H 0.40962 0.63044 0.77981 0.0
C2063 C 0.39776 0.64379 0.73224 0.0
H2064 H 0.45737 0.58276 0.76078 0.0
C2065 C 0.36986 0.67223 0.74357 0.0
C2066 C 0.37173 0.66954 0.76132 0.0
H2067 H 0.39324 0.64903 0.71914 0.0
H2068 H 0.34634 0.69751 0.73815 0.0
C2069 C 0.40484 0.63544 0.7667 0.0
C2070 C 0.23019 0.65159 0.51843 0.0
C2071 C 0.19067 0.6262 0.51278 0.0
H2072 H 0.28831 0.69792 0.51318 0.0
C2073 C 0.18355 0.63289 0.4953 0.0
H2074 H 0.23946 0.6492 0.53132 0.0
C2075 C 0.21238 0.66154 0.48449 0.0
C2076 C 0.25198 0.68671 0.49008 0.0
H2077 H 0.15427 0.61573 0.48964 0.0
H2078 H 0.20315 0.66379 0.47159 0.0
C2079 C 0.25919 0.68023 0.50758 0.0
C2080 C 0.34677 0.16811 0.33881 0.0
C2081 C 0.32187 0.20145 0.34797 0.0
H2082 H 0.34579 0.12356 0.31805 0.0
C2083 C 0.2869 0.22794 0.3401 0.0
H2084 H 0.37466 0.14774 0.34434 0.0
C2085 C 0.27064 0.21462 0.32464 0.0
C2086 C 0.28826 0.1738 0.31731 0.0
H2087 H 0.26784 0.25468 0.34674 0.0
H2088 H 0.23975 0.23173 0.31975 0.0
C2089 C 0.32998 0.15419 0.32355 0.0
C2090 C 0.21461 0.09176 0.59157 0.0
C2091 C 0.18697 1.05682 0.59861 0.0
H2092 H 0.26277 0.1084 0.57267 0.0
C2093 C 0.17131 1.02072 0.58842 0.0
H2094 H 0.22607 0.12128 0.5987 0.0
C2095 C 0.19319 1.01287 0.57327 0.0
C2096 C 0.23053 1.04127 0.56834 0.0
H2097 H 0.1474 0.99486 0.5931 0.0
H2098 H 0.18574 0.98102 0.56671 0.0
C2099 C 0.23601 0.08419 0.57639 0.0
C2100 C 0.40774 0.95262 0.82903 0.0
C2101 C 0.36007 0.96029 0.82536 0.0
H2102 H 0.45657 0.94195 0.84858 0.0
C2103 C 0.32671 0.93828 0.83539 0.0
H2104 H 0.43512 0.9663 0.82125 0.0
C2105 C 0.33944 0.9233 0.85107 0.0
C2106 C 0.3854 0.93014 0.8565 0.0
H2107 H 0.28977 0.94121 0.83268 0.0
H2108 H 0.31209 0.91456 0.85976 0.0
C2109 C 0.42044 0.93844 0.84484 0.0
C2110 C 0.22936 1.05534 0.15498 0.0
C2111 C 0.20404 0.08863 0.14598 0.0
H2112 H 0.26095 1.0386 0.17767 0.0
C2113 C 0.17691 0.12166 0.15456 0.0
H2114 H 0.24985 1.02854 0.1489 0.0
C2115 C 0.18172 0.12634 0.17156 0.0
C2116 C 0.21664 0.10067 0.17982 0.0
H2117 H 0.1557 0.14694 0.14802 0.0
H2118 H 0.1637 0.1549 0.17761 0.0
C2119 C 0.23557 1.06122 0.17179 0.0
C2120 C 0.86863 0.91596 0.90766 0.0
C2121 C 0.83537 0.93589 0.89697 0.0
H2122 H 0.89955 0.91895 0.93157 0.0
C2123 C 0.79742 0.96045 0.90388 0.0
H2124 H 0.89678 0.89433 0.90293 0.0
C2125 C 0.79905 0.97443 0.92025 0.0
C2126 C 0.83929 0.96503 0.9297 0.0
H2127 H 0.76988 0.97505 0.89631 0.0
H2128 H 0.77267 0.99915 0.92429 0.0
C2129 C 0.87003 0.92986 0.92413 0.0
C2130 C 0.96124 0.13208 0.67261 0.0
C2131 C 0.92707 0.10389 0.67992 0.0
H2132 H 0.99041 0.15508 0.64982 0.0
C2133 C 0.91319 1.06372 0.67137 0.0
H2134 H 0.97557 0.16133 0.67923 0.0
C2135 C 0.92185 1.0599 0.65461 0.0
C2136 C 0.94513 0.09575 0.64633 0.0
H2137 H 0.88919 1.03901 0.67668 0.0
H2138 H 0.90396 1.03263 0.64806 0.0
C2139 C 0.96958 0.1286 0.65572 0.0
C2140 C 0.75632 0.92769 0.35411 0.0
C2141 C 0.71285 0.94721 0.35834 0.0
H2142 H 0.80896 0.92114 0.33569 0.0
C2143 C 0.68321 0.96339 0.3459 0.0
H2144 H 0.77985 0.91538 0.36361 0.0
C2145 C 0.70081 0.96894 0.32997 0.0
C2146 C 0.74862 0.95976 0.32675 0.0
H2147 H 0.64919 0.97798 0.34892 0.0
H2148 H 0.67935 0.98833 0.32136 0.0
C2149 C 0.77311 0.93159 0.33805 0.0
C2150 C 0.98175 1.02751 1.08976 0.0
C2151 C 0.96505 1.0609 1.10103 0.0
H2152 H 0.96985 0.99465 1.06655 0.0
C2153 C 0.93767 0.098 1.09502 0.0
H2154 H 1.00539 1.00006 1.09371 0.0
C2155 C 0.91763 0.09504 1.07948 0.0
C2156 C 0.92425 1.05456 1.06999 0.0
H2157 H 0.92538 0.12559 1.10304 0.0
H2158 H 0.89096 0.12055 1.07642 0.0
C2159 C 0.96158 1.02457 1.07415 0.0
C2160 C 0.78132 0.72221 0.84148 0.0
C2161 C 0.81575 0.6986 0.85066 0.0
H2162 H 0.74131 0.7227 0.81928 0.0
C2163 C 0.84709 0.66888 0.84238 0.0
H2164 H 0.75782 0.74688 0.84734 0.0
C2165 C 0.83712 0.65441 0.82648 0.0
C2166 C 0.79574 0.66969 0.81869 0.0
H2167 H 0.87501 0.65101 0.84887 0.0
H2168 H 0.85808 0.62613 0.82154 0.0
C2169 C 0.77178 0.70823 0.82539 0.0
C2170 C 0.96548 0.57517 0.15503 0.0
C2171 C 0.96407 0.52997 0.14851 0.0
H2172 H 0.93829 0.62003 0.17371 0.0
C2173 C 0.95528 0.49282 0.15923 0.0
H2174 H 0.97499 0.6043 0.14729 0.0
C2175 C 0.9357 0.50175 0.17466 0.0
C2176 C 0.92343 0.54774 0.179 0.0
H2177 H 0.95582 0.45728 0.15483 0.0
H2178 H 0.92221 0.47233 0.18142 0.0
C2179 C 0.94471 0.58415 0.17026 0.0
C2180 C 0.81764 0.6547 0.42532 0.0
C2181 C 0.86129 0.66702 0.43189 0.0
H2182 H 0.77292 0.65897 0.40456 0.0
C2183 C 0.88267 0.7077 0.42607 0.0
H2184 H 0.79895 0.62466 0.42979 0.0
C2185 C 0.86709 0.72805 0.41143 0.0
C2186 C 0.83064 0.70724 0.40258 0.0
H2187 H 0.91507 0.71959 0.43143 0.0
H2188 H 0.88785 0.75521 0.40588 0.0
C2189 C 0.80239 0.67473 0.41068 0.0
C2190 C 0.67581 0.61586 0.65615 0.0
C2191 C 0.70289 0.58295 0.64746 0.0
H2192 H 0.66606 0.65176 0.67893 0.0
C2193 C 0.72968 0.55068 0.65645 0.0
H2194 H 0.65306 0.63997 0.6497 0.0
C2195 C 0.73782 0.55807 0.67311 0.0
C2196 C 0.71978 0.59828 0.68086 0.0
H2197 H 0.74999 0.52374 0.65037 0.0
H2198 H 0.76415 0.53635 0.67889 0.0
C2199 C 0.6833 0.62261 0.67295 0.0
C2200 C 0.36262 0.73119 0.34222 0.0
C2201 C 0.32601 0.71017 0.35097 0.0
H2202 H 0.40952 0.72479 0.32179 0.0
C2203 C 0.29772 0.678 0.34281 0.0
H2204 H 0.38375 0.75767 0.34796 0.0
C2205 C 0.31259 0.65897 0.32794 0.0
C2206 C 0.35584 0.6721 0.32115 0.0
H2207 H 0.26838 0.66197 0.34897 0.0
H2208 H 0.29376 0.62923 0.32334 0.0
C2209 C 0.37748 0.71222 0.32727 0.0
C2210 C 0.23452 0.56466 1.07624 0.0
C2211 C 0.21533 0.60457 1.06863 0.0
H2212 H 0.2472 0.52953 1.09874 0.0
C2213 C 0.1785 0.62799 1.07672 0.0
H2214 H 0.26141 0.54378 1.07035 0.0
C2215 C 0.171 0.62026 1.09348 0.0
C2216 C 0.1987 0.58749 1.10197 0.0
H2217 H 0.1608 0.6571 1.07089 0.0
H2218 H 0.14771 0.6436 1.10008 0.0
C2219 C 0.22629 0.55625 1.09282 0.0
C2220 C 0.3403 0.67115 0.90741 0.0
C2221 C 0.30845 0.70045 0.89923 0.0
H2222 H 0.3527 0.62963 0.92846 0.0
C2223 C 0.27481 0.72477 0.90861 0.0
H2224 H 0.36772 0.6528 0.9008 0.0
C2225 C 0.2664 0.71174 0.9249 0.0
C2226 C 0.29062 0.67339 0.9316 0.0
H2227 H 0.25111 0.74936 0.90282 0.0
H2228 H 0.23634 0.72652 0.93121 0.0
C2229 C 0.33149 0.65772 0.92354 0.0
C2230 C 0.4116 0.59041 0.57608 0.0
C2231 C 0.41594 0.54796 0.56757 0.0
H2232 H 0.42226 0.62502 0.59878 0.0
C2233 C 0.45268 0.51761 0.57208 0.0
H2234 H 0.3855 0.61613 0.57266 0.0
C2235 C 0.47455 0.52303 0.58732 0.0
C2236 C 0.45966 0.55881 0.59795 0.0
H2237 H 0.45937 0.48607 0.56515 0.0
H2238 H 0.49776 0.4957 0.59167 0.0
C2239 C 0.43306 0.59564 0.59131 0.0
loop_
_geom_bond_atom_site_label_1
_geom_bond_atom_site_label_2
_geom_bond_distance
_geom_bond_site_symmetry_2
_ccdc_geom_bond_type
Pr0 C2 2.880 . S
Pr0 O20 2.562 . S
Pr0 O21 2.490 . S
Pr0 O22 2.695 . S
Pr0 O23 2.512 . S
Pr0 O25 2.437 . S
Pr0 O28 2.436 . S
Pr0 O30 2.438 . S
Pr1 C11 2.880 . S
Pr1 O22 2.436 . S
Pr1 O24 2.438 . S
Pr1 O26 2.562 . S
Pr1 O27 2.490 . S
Pr1 O28 2.695 . S
Pr1 O29 2.512 . S
Pr1 O31 2.437 . S
C2 Pr0 2.880 . S
C2 C3 1.491 . S
C2 O20 1.254 . S
C2 O21 1.225 . S
C3 C2 1.491 . S
C3 C4 1.392 . S
C3 C8 1.356 . S
C4 C3 1.392 . S
C4 C5 1.368 . S
C4 H32 0.929 . S
C5 C4 1.368 . S
C5 C6 1.386 . S
C5 H33 0.929 . S
C6 C5 1.386 . S
C6 C7 1.373 . S
C7 C6 1.373 . S
C7 C8 1.409 . S
C7 H34 0.931 . S
C8 C3 1.356 . S
C8 C7 1.409 . S
C8 H35 0.930 . S
C9 O22 1.270 . S
C9 O23 1.248 . S
C10 O24 1.267 . S
C10 O25 1.278 . S
C11 Pr1 2.880 . S
C11 C12 1.491 . S
C11 O26 1.254 . S
C11 O27 1.225 . S
C12 C11 1.491 . S
C12 C13 1.392 . S
C12 C17 1.356 . S
C13 C12 1.392 . S
C13 C14 1.368 . S
C13 H36 0.929 . S
C14 C13 1.368 . S
C14 C15 1.386 . S
C14 H37 0.929 . S
C15 C14 1.386 . S
C15 C16 1.373 . S
C16 C15 1.373 . S
C16 C17 1.409 . S
C16 H38 0.931 . S
C17 C12 1.356 . S
C17 C16 1.409 . S
C17 H39 0.930 . S
C18 O28 1.270 . S
C18 O29 1.248 . S
C19 O30 1.267 . S
C19 O31 1.278 . S
O20 Pr0 2.562 . S
O20 C2 1.254 . S
O21 Pr0 2.490 . S
O21 C2 1.225 . S
O22 Pr0 2.695 . S
O22 Pr1 2.436 . S
O22 C9 1.270 . S
O23 Pr0 2.512 . S
O23 C9 1.248 . S
O24 Pr1 2.438 . S
O24 C10 1.267 . S
O25 Pr0 2.437 . S
O25 C10 1.278 . S
O26 Pr1 2.562 . S
O26 C11 1.254 . S
O27 Pr1 2.490 . S
O27 C11 1.225 . S
O28 Pr0 2.436 . S
O28 Pr1 2.695 . S
O28 C18 1.270 . S
O29 Pr1 2.512 . S
O29 C18 1.248 . S
O30 Pr0 2.438 . S
O30 C19 1.267 . S
O31 Pr1 2.437 . S
O31 C19 1.278 . S
H32 C4 0.929 . S
H33 C5 0.929 . S
H34 C7 0.931 . S
H35 C8 0.930 . S
H36 C13 0.929 . S
H37 C14 0.929 . S
H38 C16 0.931 . S
H39 C17 0.930 . S
Pr40 C42 2.880 . S
Pr40 O60 2.562 . S
Pr40 O61 2.490 . S
Pr40 O62 2.695 1_655 S
Pr40 O63 2.512 1_665 S
Pr40 O65 2.437 1_655 S
Pr40 O68 2.436 1_655 S
Pr40 O70 2.438 . S
Pr41 C51 2.880 . S
Pr41 O62 2.436 . S
Pr41 O64 2.438 . S
Pr41 O66 2.562 . S
Pr41 O67 2.490 . S
Pr41 O68 2.695 . S
Pr41 O69 2.512 . S
Pr41 O71 2.437 . S
C42 Pr40 2.880 . S
C42 C43 1.491 . S
C42 O60 1.254 . S
C42 O61 1.225 . S
C43 C42 1.491 . S
C43 C44 1.392 . S
C43 C48 1.356 . S
C44 C43 1.392 . S
C44 C45 1.368 . S
C44 H72 0.929 . S
C45 C44 1.368 . S
C45 C46 1.386 . S
C45 H73 0.929 . S
C46 C45 1.386 . S
C46 C47 1.373 . S
C47 C46 1.373 . S
C47 C48 1.409 . S
C47 H74 0.931 . S
C48 C43 1.356 . S
C48 C47 1.409 . S
C48 H75 0.930 . S
C49 O62 1.270 1_545 S
C49 O63 1.248 . S
C50 O64 1.267 . S
C50 O65 1.278 . S
C51 Pr41 2.880 . S
C51 C52 1.491 . S
C51 O66 1.254 . S
C51 O67 1.225 . S
C52 C51 1.491 . S
C52 C53 1.392 . S
C52 C57 1.356 1_565 S
C53 C52 1.392 . S
C53 C54 1.368 . S
C53 H76 0.929 . S
C54 C53 1.368 . S
C54 C55 1.386 . S
C54 H77 0.929 . S
C55 C54 1.386 . S
C55 C56 1.373 1_565 S
C56 C55 1.373 1_545 S
C56 C57 1.409 . S
C56 H78 0.931 . S
C57 C52 1.356 1_545 S
C57 C56 1.409 . S
C57 H79 0.930 . S
C58 O68 1.270 . S
C58 O69 1.248 . S
C59 O70 1.267 1_455 S
C59 O71 1.278 . S
O60 Pr40 2.562 . S
O60 C42 1.254 . S
O61 Pr40 2.490 . S
O61 C42 1.225 . S
O62 Pr40 2.695 1_455 S
O62 Pr41 2.436 . S
O62 C49 1.270 1_565 S
O63 Pr40 2.512 1_445 S
O63 C49 1.248 . S
O64 Pr41 2.438 . S
O64 C50 1.267 . S
O65 Pr40 2.437 1_455 S
O65 C50 1.278 . S
O66 Pr41 2.562 . S
O66 C51 1.254 . S
O67 Pr41 2.490 . S
O67 C51 1.225 . S
O68 Pr40 2.436 1_455 S
O68 Pr41 2.695 . S
O68 C58 1.270 . S
O69 Pr41 2.512 . S
O69 C58 1.248 . S
O70 Pr40 2.438 . S
O70 C59 1.267 1_655 S
O71 Pr41 2.437 . S
O71 C59 1.278 . S
H72 C44 0.929 . S
H73 C45 0.929 . S
H74 C47 0.931 . S
H75 C48 0.930 . S
H76 C53 0.929 . S
H77 C54 0.929 . S
H78 C56 0.931 . S
H79 C57 0.930 . S
Pr80 C82 2.880 . S
Pr80 O100 2.562 . S
Pr80 O101 2.490 . S
Pr80 O102 2.695 . S
Pr80 O103 2.512 . S
Pr80 O105 2.437 . S
Pr80 O108 2.436 . S
Pr80 O110 2.438 . S
Pr81 C91 2.880 . S
Pr81 O102 2.436 . S
Pr81 O104 2.438 . S
Pr81 O106 2.562 . S
Pr81 O107 2.490 . S
Pr81 O108 2.695 . S
Pr81 O109 2.512 . S
Pr81 O111 2.437 . S
C82 Pr80 2.880 . S
C82 C83 1.491 . S
C82 O100 1.254 . S
C82 O101 1.225 . S
C83 C82 1.491 . S
C83 C84 1.392 . S
C83 C88 1.356 . S
C84 C83 1.392 . S
C84 C85 1.368 . S
C84 H112 0.929 . S
C85 C84 1.368 . S
C85 C86 1.386 . S
C85 H113 0.929 . S
C86 C85 1.386 . S
C86 C87 1.373 . S
C87 C86 1.373 . S
C87 C88 1.409 . S
C87 H114 0.931 . S
C88 C83 1.356 . S
C88 C87 1.409 . S
C88 H115 0.930 . S
C89 O102 1.270 . S
C89 O103 1.248 . S
C90 O104 1.267 . S
C90 O105 1.278 . S
C91 Pr81 2.880 . S
C91 C92 1.491 . S
C91 O106 1.254 . S
C91 O107 1.225 . S
C92 C91 1.491 . S
C92 C93 1.392 . S
C92 C97 1.356 . S
C93 C92 1.392 . S
C93 C94 1.368 . S
C93 H116 0.929 . S
C94 C93 1.368 . S
C94 C95 1.386 . S
C94 H117 0.929 . S
C95 C94 1.386 . S
C95 C96 1.373 . S
C96 C95 1.373 . S
C96 C97 1.409 . S
C96 H118 0.931 . S
C97 C92 1.356 . S
C97 C96 1.409 . S
C97 H119 0.930 . S
C98 O108 1.270 . S
C98 O109 1.248 . S
C99 O110 1.267 . S
C99 O111 1.278 . S
O100 Pr80 2.562 . S
O100 C82 1.254 . S
O101 Pr80 2.490 . S
O101 C82 1.225 . S
O102 Pr80 2.695 . S
O102 Pr81 2.436 . S
O102 C89 1.270 . S
O103 Pr80 2.512 . S
O103 C89 1.248 . S
O104 Pr81 2.438 . S
O104 C90 1.267 . S
O105 Pr80 2.437 . S
O105 C90 1.278 . S
O106 Pr81 2.562 . S
O106 C91 1.254 . S
O107 Pr81 2.490 . S
O107 C91 1.225 . S
O108 Pr80 2.436 . S
O108 Pr81 2.695 . S
O108 C98 1.270 . S
O109 Pr81 2.512 . S
O109 C98 1.248 . S
O110 Pr80 2.438 . S
O110 C99 1.267 . S
O111 Pr81 2.437 . S
O111 C99 1.278 . S
H112 C84 0.929 . S
H113 C85 0.929 . S
H114 C87 0.931 . S
H115 C88 0.930 . S
H116 C93 0.929 . S
H117 C94 0.929 . S
H118 C96 0.931 . S
H119 C97 0.930 . S
Pr120 C122 2.880 . S
Pr120 O140 2.562 . S
Pr120 O141 2.490 . S
Pr120 O142 2.695 . S
Pr120 O143 2.512 1_545 S
Pr120 O145 2.437 . S
Pr120 O148 2.436 . S
Pr120 O150 2.438 . S
Pr121 C131 2.880 . S
Pr121 O142 2.436 . S
Pr121 O144 2.438 . S
Pr121 O146 2.562 . S
Pr121 O147 2.490 . S
Pr121 O148 2.695 . S
Pr121 O149 2.512 . S
Pr121 O151 2.437 . S
C122 Pr120 2.880 . S
C122 C123 1.491 . S
C122 O140 1.254 . S
C122 O141 1.225 . S
C123 C122 1.491 . S
C123 C124 1.392 . S
C123 C128 1.356 . S
C124 C123 1.392 . S
C124 C125 1.368 . S
C124 H152 0.929 . S
C125 C124 1.368 . S
C125 C126 1.386 . S
C125 H153 0.929 . S
C126 C125 1.386 . S
C126 C127 1.373 . S
C127 C126 1.373 . S
C127 C128 1.409 . S
C127 H154 0.931 . S
C128 C123 1.356 . S
C128 C127 1.409 . S
C128 H155 0.930 . S
C129 O142 1.270 1_565 S
C129 O143 1.248 . S
C130 O144 1.267 . S
C130 O145 1.278 . S
C131 Pr121 2.880 . S
C131 C132 1.491 . S
C131 O146 1.254 . S
C131 O147 1.225 . S
C132 C131 1.491 . S
C132 C133 1.392 . S
C132 C137 1.356 1_545 S
C133 C132 1.392 . S
C133 C134 1.368 . S
C133 H156 0.929 . S
C134 C133 1.368 . S
C134 C135 1.386 . S
C134 H157 0.929 . S
C135 C134 1.386 . S
C135 C136 1.373 1_545 S
C136 C135 1.373 1_565 S
C136 C137 1.409 . S
C136 H158 0.931 . S
C137 C132 1.356 1_565 S
C137 C136 1.409 . S
C137 H159 0.930 . S
C138 O148 1.270 . S
C138 O149 1.248 . S
C139 O150 1.267 . S
C139 O151 1.278 . S
O140 Pr120 2.562 . S
O140 C122 1.254 . S
O141 Pr120 2.490 . S
O141 C122 1.225 . S
O142 Pr120 2.695 . S
O142 Pr121 2.436 . S
O142 C129 1.270 1_545 S
O143 Pr120 2.512 1_565 S
O143 C129 1.248 . S
O144 Pr121 2.438 . S
O144 C130 1.267 . S
O145 Pr120 2.437 . S
O145 C130 1.278 . S
O146 Pr121 2.562 . S
O146 C131 1.254 . S
O147 Pr121 2.490 . S
O147 C131 1.225 . S
O148 Pr120 2.436 . S
O148 Pr121 2.695 . S
O148 C138 1.270 . S
O149 Pr121 2.512 . S
O149 C138 1.248 . S
O150 Pr120 2.438 . S
O150 C139 1.267 . S
O151 Pr121 2.437 . S
O151 C139 1.278 . S
H152 C124 0.929 . S
H153 C125 0.929 . S
H154 C127 0.931 . S
H155 C128 0.930 . S
H156 C133 0.929 . S
H157 C134 0.929 . S
H158 C136 0.931 . S
H159 C137 0.930 . S
Pr160 C162 2.880 . S
Pr160 O180 2.562 . S
Pr160 O181 2.490 . S
Pr160 O182 2.695 . S
Pr160 O183 2.512 . S
Pr160 O185 2.437 . S
Pr160 O188 2.436 . S
Pr160 O190 2.438 . S
Pr161 C171 2.880 . S
Pr161 O182 2.436 . S
Pr161 O184 2.438 . S
Pr161 O186 2.562 . S
Pr161 O187 2.490 . S
Pr161 O188 2.695 . S
Pr161 O189 2.512 . S
Pr161 O191 2.437 . S
C162 Pr160 2.880 . S
C162 C163 1.491 . S
C162 O180 1.254 . S
C162 O181 1.225 . S
C163 C162 1.491 . S
C163 C164 1.392 . S
C163 C168 1.356 . S
C164 C163 1.392 . S
C164 C165 1.368 . S
C164 H192 0.929 . S
C165 C164 1.368 . S
C165 C166 1.386 . S
C165 H193 0.929 . S
C166 C165 1.386 . S
C166 C167 1.373 . S
C167 C166 1.373 . S
C167 C168 1.409 . S
C167 H194 0.931 . S
C168 C163 1.356 . S
C168 C167 1.409 . S
C168 H195 0.930 . S
C169 O182 1.270 . S
C169 O183 1.248 . S
C170 O184 1.267 . S
C170 O185 1.278 . S
C171 Pr161 2.880 . S
C171 C172 1.491 . S
C171 O186 1.254 . S
C171 O187 1.225 . S
C172 C171 1.491 . S
C172 C173 1.392 . S
C172 C177 1.356 . S
C173 C172 1.392 . S
C173 C174 1.368 . S
C173 H196 0.929 . S
C174 C173 1.368 . S
C174 C175 1.386 . S
C174 H197 0.929 . S
C175 C174 1.386 . S
C175 C176 1.373 . S
C176 C175 1.373 . S
C176 C177 1.409 . S
C176 H198 0.931 . S
C177 C172 1.356 . S
C177 C176 1.409 . S
C177 H199 0.930 . S
C178 O188 1.270 . S
C178 O189 1.248 . S
C179 O190 1.267 . S
C179 O191 1.278 . S
O180 Pr160 2.562 . S
O180 C162 1.254 . S
O181 Pr160 2.490 . S
O181 C162 1.225 . S
O182 Pr160 2.695 . S
O182 Pr161 2.436 . S
O182 C169 1.270 . S
O183 Pr160 2.512 . S
O183 C169 1.248 . S
O184 Pr161 2.438 . S
O184 C170 1.267 . S
O185 Pr160 2.437 . S
O185 C170 1.278 . S
O186 Pr161 2.562 . S
O186 C171 1.254 . S
O187 Pr161 2.490 . S
O187 C171 1.225 . S
O188 Pr160 2.436 . S
O188 Pr161 2.695 . S
O188 C178 1.270 . S
O189 Pr161 2.512 . S
O189 C178 1.248 . S
O190 Pr160 2.438 . S
O190 C179 1.267 . S
O191 Pr161 2.437 . S
O191 C179 1.278 . S
H192 C164 0.929 . S
H193 C165 0.929 . S
H194 C167 0.931 . S
H195 C168 0.930 . S
H196 C173 0.929 . S
H197 C174 0.929 . S
H198 C176 0.931 . S
H199 C177 0.930 . S
Pr200 C202 2.880 . S
Pr200 O220 2.562 . S
Pr200 O221 2.490 . S
Pr200 O222 2.695 . S
Pr200 O223 2.512 1_565 S
Pr200 O225 2.437 . S
Pr200 O228 2.436 . S
Pr200 O230 2.438 . S
Pr201 C211 2.880 . S
Pr201 O222 2.436 . S
Pr201 O224 2.438 . S
Pr201 O226 2.562 . S
Pr201 O227 2.490 . S
Pr201 O228 2.695 . S
Pr201 O229 2.512 . S
Pr201 O231 2.437 . S
C202 Pr200 2.880 . S
C202 C203 1.491 . S
C202 O220 1.254 . S
C202 O221 1.225 . S
C203 C202 1.491 . S
C203 C204 1.392 . S
C203 C208 1.356 . S
C204 C203 1.392 . S
C204 C205 1.368 . S
C204 H232 0.929 . S
C205 C204 1.368 . S
C205 C206 1.386 . S
C205 H233 0.929 . S
C206 C205 1.386 . S
C206 C207 1.373 . S
C207 C206 1.373 . S
C207 C208 1.409 . S
C207 H234 0.931 . S
C208 C203 1.356 . S
C208 C207 1.409 . S
C208 H235 0.930 . S
C209 O222 1.270 1_545 S
C209 O223 1.248 . S
C210 O224 1.267 . S
C210 O225 1.278 . S
C211 Pr201 2.880 . S
C211 C212 1.491 . S
C211 O226 1.254 . S
C211 O227 1.225 . S
C212 C211 1.491 . S
C212 C213 1.392 . S
C212 C217 1.356 1_565 S
C213 C212 1.392 . S
C213 C214 1.368 . S
C213 H236 0.929 . S
C214 C213 1.368 . S
C214 C215 1.386 . S
C214 H237 0.929 . S
C215 C214 1.386 . S
C215 C216 1.373 1_565 S
C216 C215 1.373 1_545 S
C216 C217 1.409 . S
C216 H238 0.931 . S
C217 C212 1.356 1_545 S
C217 C216 1.409 . S
C217 H239 0.930 . S
C218 O228 1.270 . S
C218 O229 1.248 . S
C219 O230 1.267 . S
C219 O231 1.278 . S
O220 Pr200 2.562 . S
O220 C202 1.254 . S
O221 Pr200 2.490 . S
O221 C202 1.225 . S
O222 Pr200 2.695 . S
O222 Pr201 2.436 . S
O222 C209 1.270 1_565 S
O223 Pr200 2.512 1_545 S
O223 C209 1.248 . S
O224 Pr201 2.438 . S
O224 C210 1.267 . S
O225 Pr200 2.437 . S
O225 C210 1.278 . S
O226 Pr201 2.562 . S
O226 C211 1.254 . S
O227 Pr201 2.490 . S
O227 C211 1.225 . S
O228 Pr200 2.436 . S
O228 Pr201 2.695 . S
O228 C218 1.270 . S
O229 Pr201 2.512 . S
O229 C218 1.248 . S
O230 Pr200 2.438 . S
O230 C219 1.267 . S
O231 Pr201 2.437 . S
O231 C219 1.278 . S
H232 C204 0.929 . S
H233 C205 0.929 . S
H234 C207 0.931 . S
H235 C208 0.930 . S
H236 C213 0.929 . S
H237 C214 0.929 . S
H238 C216 0.931 . S
H239 C217 0.930 . S
Pr240 C242 2.880 . S
Pr240 O260 2.562 . S
Pr240 O261 2.490 . S
Pr240 O262 2.695 . S
Pr240 O263 2.512 . S
Pr240 O265 2.437 . S
Pr240 O268 2.436 . S
Pr240 O270 2.438 . S
Pr241 C251 2.880 . S
Pr241 O262 2.436 . S
Pr241 O264 2.438 . S
Pr241 O266 2.562 . S
Pr241 O267 2.490 . S
Pr241 O268 2.695 . S
Pr241 O269 2.512 . S
Pr241 O271 2.437 . S
C242 Pr240 2.880 . S
C242 C243 1.491 . S
C242 O260 1.254 . S
C242 O261 1.225 . S
C243 C242 1.491 . S
C243 C244 1.392 . S
C243 C248 1.356 . S
C244 C243 1.392 . S
C244 C245 1.368 . S
C244 H272 0.929 . S
C245 C244 1.368 . S
C245 C246 1.386 . S
C245 H273 0.929 . S
C246 C245 1.386 . S
C246 C247 1.373 . S
C247 C246 1.373 . S
C247 C248 1.409 . S
C247 H274 0.931 . S
C248 C243 1.356 . S
C248 C247 1.409 . S
C248 H275 0.930 . S
C249 O262 1.270 . S
C249 O263 1.248 . S
C250 O264 1.267 . S
C250 O265 1.278 . S
C251 Pr241 2.880 . S
C251 C252 1.491 . S
C251 O266 1.254 . S
C251 O267 1.225 . S
C252 C251 1.491 . S
C252 C253 1.392 . S
C252 C257 1.356 . S
C253 C252 1.392 . S
C253 C254 1.368 . S
C253 H276 0.929 . S
C254 C253 1.368 . S
C254 C255 1.386 . S
C254 H277 0.929 . S
C255 C254 1.386 . S
C255 C256 1.373 . S
C256 C255 1.373 . S
C256 C257 1.409 . S
C256 H278 0.931 . S
C257 C252 1.356 . S
C257 C256 1.409 . S
C257 H279 0.930 . S
C258 O268 1.270 . S
C258 O269 1.248 . S
C259 O270 1.267 . S
C259 O271 1.278 . S
O260 Pr240 2.562 . S
O260 C242 1.254 . S
O261 Pr240 2.490 . S
O261 C242 1.225 . S
O262 Pr240 2.695 . S
O262 Pr241 2.436 . S
O262 C249 1.270 . S
O263 Pr240 2.512 . S
O263 C249 1.248 . S
O264 Pr241 2.438 . S
O264 C250 1.267 . S
O265 Pr240 2.437 . S
O265 C250 1.278 . S
O266 Pr241 2.562 . S
O266 C251 1.254 . S
O267 Pr241 2.490 . S
O267 C251 1.225 . S
O268 Pr240 2.436 . S
O268 Pr241 2.695 . S
O268 C258 1.270 . S
O269 Pr241 2.512 . S
O269 C258 1.248 . S
O270 Pr240 2.438 . S
O270 C259 1.267 . S
O271 Pr241 2.437 . S
O271 C259 1.278 . S
H272 C244 0.929 . S
H273 C245 0.929 . S
H274 C247 0.931 . S
H275 C248 0.930 . S
H276 C253 0.929 . S
H277 C254 0.929 . S
H278 C256 0.931 . S
H279 C257 0.930 . S
Pr280 C282 2.880 . S
Pr280 O300 2.562 . S
Pr280 O301 2.490 . S
Pr280 O302 2.695 1_655 S
Pr280 O303 2.512 1_645 S
Pr280 O305 2.437 1_655 S
Pr280 O308 2.436 1_655 S
Pr280 O310 2.438 . S
Pr281 C291 2.880 . S
Pr281 O302 2.436 . S
Pr281 O304 2.438 . S
Pr281 O306 2.562 . S
Pr281 O307 2.490 . S
Pr281 O308 2.695 . S
Pr281 O309 2.512 . S
Pr281 O311 2.437 . S
C282 Pr280 2.880 . S
C282 C283 1.491 . S
C282 O300 1.254 . S
C282 O301 1.225 . S
C283 C282 1.491 . S
C283 C284 1.392 . S
C283 C288 1.356 . S
C284 C283 1.392 . S
C284 C285 1.368 . S
C284 H312 0.929 . S
C285 C284 1.368 . S
C285 C286 1.386 . S
C285 H313 0.929 . S
C286 C285 1.386 . S
C286 C287 1.373 . S
C287 C286 1.373 . S
C287 C288 1.409 . S
C287 H314 0.931 . S
C288 C283 1.356 . S
C288 C287 1.409 . S
C288 H315 0.930 . S
C289 O302 1.270 1_565 S
C289 O303 1.248 . S
C290 O304 1.267 . S
C290 O305 1.278 . S
C291 Pr281 2.880 . S
C291 C292 1.491 . S
C291 O306 1.254 . S
C291 O307 1.225 . S
C292 C291 1.491 . S
C292 C293 1.392 . S
C292 C297 1.356 1_545 S
C293 C292 1.392 . S
C293 C294 1.368 . S
C293 H316 0.929 . S
C294 C293 1.368 . S
C294 C295 1.386 . S
C294 H317 0.929 . S
C295 C294 1.386 . S
C295 C296 1.373 1_545 S
C296 C295 1.373 1_565 S
C296 C297 1.409 . S
C296 H318 0.931 . S
C297 C292 1.356 1_565 S
C297 C296 1.409 . S
C297 H319 0.930 . S
C298 O308 1.270 . S
C298 O309 1.248 . S
C299 O310 1.267 1_455 S
C299 O311 1.278 . S
O300 Pr280 2.562 . S
O300 C282 1.254 . S
O301 Pr280 2.490 . S
O301 C282 1.225 . S
O302 Pr280 2.695 1_455 S
O302 Pr281 2.436 . S
O302 C289 1.270 1_545 S
O303 Pr280 2.512 1_465 S
O303 C289 1.248 . S
O304 Pr281 2.438 . S
O304 C290 1.267 . S
O305 Pr280 2.437 1_455 S
O305 C290 1.278 . S
O306 Pr281 2.562 . S
O306 C291 1.254 . S
O307 Pr281 2.490 . S
O307 C291 1.225 . S
O308 Pr280 2.436 1_455 S
O308 Pr281 2.695 . S
O308 C298 1.270 . S
O309 Pr281 2.512 . S
O309 C298 1.248 . S
O310 Pr280 2.438 . S
O310 C299 1.267 1_655 S
O311 Pr281 2.437 . S
O311 C299 1.278 . S
H312 C284 0.929 . S
H313 C285 0.929 . S
H314 C287 0.931 . S
H315 C288 0.930 . S
H316 C293 0.929 . S
H317 C294 0.929 . S
H318 C296 0.931 . S
H319 C297 0.930 . S
Pr320 C322 2.880 . S
Pr320 O340 2.562 . S
Pr320 O341 2.490 . S
Pr320 O342 2.695 . S
Pr320 O343 2.512 . S
Pr320 O345 2.437 . S
Pr320 O348 2.436 . S
Pr320 O350 2.438 . S
Pr321 C331 2.880 . S
Pr321 O342 2.436 . S
Pr321 O344 2.438 . S
Pr321 O346 2.562 . S
Pr321 O347 2.490 . S
Pr321 O348 2.695 . S
Pr321 O349 2.512 . S
Pr321 O351 2.437 . S
C322 Pr320 2.880 . S
C322 C323 1.491 . S
C322 O340 1.254 . S
C322 O341 1.225 . S
C323 C322 1.491 . S
C323 C324 1.392 . S
C323 C328 1.356 . S
C324 C323 1.392 . S
C324 C325 1.368 . S
C324 H352 0.929 . S
C325 C324 1.368 . S
C325 C326 1.386 . S
C325 H353 0.929 . S
C326 C325 1.386 . S
C326 C327 1.373 . S
C327 C326 1.373 . S
C327 C328 1.409 . S
C327 H354 0.931 . S
C328 C323 1.356 . S
C328 C327 1.409 . S
C328 H355 0.930 . S
C329 O342 1.270 . S
C329 O343 1.248 . S
C330 O344 1.267 . S
C330 O345 1.278 . S
C331 Pr321 2.880 . S
C331 C332 1.491 . S
C331 O346 1.254 . S
C331 O347 1.225 . S
C332 C331 1.491 . S
C332 C333 1.392 . S
C332 C337 1.356 . S
C333 C332 1.392 . S
C333 C334 1.368 . S
C333 H356 0.929 . S
C334 C333 1.368 . S
C334 C335 1.386 . S
C334 H357 0.929 . S
C335 C334 1.386 . S
C335 C336 1.373 . S
C336 C335 1.373 . S
C336 C337 1.409 . S
C336 H358 0.931 . S
C337 C332 1.356 . S
C337 C336 1.409 . S
C337 H359 0.930 . S
C338 O348 1.270 . S
C338 O349 1.248 . S
C339 O350 1.267 . S
C339 O351 1.278 . S
O340 Pr320 2.562 . S
O340 C322 1.254 . S
O341 Pr320 2.490 . S
O341 C322 1.225 . S
O342 Pr320 2.695 . S
O342 Pr321 2.436 . S
O342 C329 1.270 . S
O343 Pr320 2.512 . S
O343 C329 1.248 . S
O344 Pr321 2.438 . S
O344 C330 1.267 . S
O345 Pr320 2.437 . S
O345 C330 1.278 . S
O346 Pr321 2.562 . S
O346 C331 1.254 . S
O347 Pr321 2.490 . S
O347 C331 1.225 . S
O348 Pr320 2.436 . S
O348 Pr321 2.695 . S
O348 C338 1.270 . S
O349 Pr321 2.512 . S
O349 C338 1.248 . S
O350 Pr320 2.438 . S
O350 C339 1.267 . S
O351 Pr321 2.437 . S
O351 C339 1.278 . S
H352 C324 0.929 . S
H353 C325 0.929 . S
H354 C327 0.931 . S
H355 C328 0.930 . S
H356 C333 0.929 . S
H357 C334 0.929 . S
H358 C336 0.931 . S
H359 C337 0.930 . S
Pr360 C362 2.880 . S
Pr360 O380 2.562 . S
Pr360 O381 2.490 . S
Pr360 O382 2.695 . S
Pr360 O383 2.512 . S
Pr360 O385 2.437 . S
Pr360 O388 2.436 . S
Pr360 O390 2.438 . S
Pr361 C371 2.880 . S
Pr361 O382 2.436 1_455 S
Pr361 O384 2.438 . S
Pr361 O386 2.562 . S
Pr361 O387 2.490 . S
Pr361 O388 2.695 1_455 S
Pr361 O389 2.512 1_445 S
Pr361 O391 2.437 1_455 S
C362 Pr360 2.880 . S
C362 C363 1.491 . S
C362 O380 1.254 . S
C362 O381 1.225 . S
C363 C362 1.491 . S
C363 C364 1.392 . S
C363 C368 1.356 1_545 S
C364 C363 1.392 . S
C364 C365 1.368 . S
C364 H392 0.929 . S
C365 C364 1.368 . S
C365 C366 1.386 . S
C365 H393 0.929 . S
C366 C365 1.386 . S
C366 C367 1.373 1_545 S
C367 C366 1.373 1_565 S
C367 C368 1.409 . S
C367 H394 0.931 . S
C368 C363 1.356 1_565 S
C368 C367 1.409 . S
C368 H395 0.930 . S
C369 O382 1.270 . S
C369 O383 1.248 . S
C370 O384 1.267 1_655 S
C370 O385 1.278 . S
C371 Pr361 2.880 . S
C371 C372 1.491 . S
C371 O386 1.254 . S
C371 O387 1.225 . S
C372 C371 1.491 . S
C372 C373 1.392 . S
C372 C377 1.356 . S
C373 C372 1.392 . S
C373 C374 1.368 . S
C373 H396 0.929 . S
C374 C373 1.368 . S
C374 C375 1.386 . S
C374 H397 0.929 . S
C375 C374 1.386 . S
C375 C376 1.373 . S
C376 C375 1.373 . S
C376 C377 1.409 . S
C376 H398 0.931 . S
C377 C372 1.356 . S
C377 C376 1.409 . S
C377 H399 0.930 . S
C378 O388 1.270 1_565 S
C378 O389 1.248 . S
C379 O390 1.267 . S
C379 O391 1.278 . S
O380 Pr360 2.562 . S
O380 C362 1.254 . S
O381 Pr360 2.490 . S
O381 C362 1.225 . S
O382 Pr360 2.695 . S
O382 Pr361 2.436 1_655 S
O382 C369 1.270 . S
O383 Pr360 2.512 . S
O383 C369 1.248 . S
O384 Pr361 2.438 . S
O384 C370 1.267 1_455 S
O385 Pr360 2.437 . S
O385 C370 1.278 . S
O386 Pr361 2.562 . S
O386 C371 1.254 . S
O387 Pr361 2.490 . S
O387 C371 1.225 . S
O388 Pr360 2.436 . S
O388 Pr361 2.695 1_655 S
O388 C378 1.270 1_545 S
O389 Pr361 2.512 1_665 S
O389 C378 1.248 . S
O390 Pr360 2.438 . S
O390 C379 1.267 . S
O391 Pr361 2.437 1_655 S
O391 C379 1.278 . S
H392 C364 0.929 . S
H393 C365 0.929 . S
H394 C367 0.931 . S
H395 C368 0.930 . S
H396 C373 0.929 . S
H397 C374 0.929 . S
H398 C376 0.931 . S
H399 C377 0.930 . S
Pr400 C402 2.880 . S
Pr400 O420 2.562 . S
Pr400 O421 2.490 . S
Pr400 O422 2.695 . S
Pr400 O423 2.512 . S
Pr400 O425 2.437 . S
Pr400 O428 2.436 . S
Pr400 O430 2.438 . S
Pr401 C411 2.880 . S
Pr401 O422 2.436 . S
Pr401 O424 2.438 . S
Pr401 O426 2.562 . S
Pr401 O427 2.490 . S
Pr401 O428 2.695 . S
Pr401 O429 2.512 . S
Pr401 O431 2.437 . S
C402 Pr400 2.880 . S
C402 C403 1.491 . S
C402 O420 1.254 . S
C402 O421 1.225 . S
C403 C402 1.491 . S
C403 C404 1.392 . S
C403 C408 1.356 . S
C404 C403 1.392 . S
C404 C405 1.368 . S
C404 H432 0.929 . S
C405 C404 1.368 . S
C405 C406 1.386 . S
C405 H433 0.929 . S
C406 C405 1.386 . S
C406 C407 1.373 . S
C407 C406 1.373 . S
C407 C408 1.409 . S
C407 H434 0.931 . S
C408 C403 1.356 . S
C408 C407 1.409 . S
C408 H435 0.930 . S
C409 O422 1.270 . S
C409 O423 1.248 . S
C410 O424 1.267 . S
C410 O425 1.278 . S
C411 Pr401 2.880 . S
C411 C412 1.491 . S
C411 O426 1.254 . S
C411 O427 1.225 . S
C412 C411 1.491 . S
C412 C413 1.392 . S
C412 C417 1.356 . S
C413 C412 1.392 . S
C413 C414 1.368 . S
C413 H436 0.929 . S
C414 C413 1.368 . S
C414 C415 1.386 . S
C414 H437 0.929 . S
C415 C414 1.386 . S
C415 C416 1.373 . S
C416 C415 1.373 . S
C416 C417 1.409 . S
C416 H438 0.931 . S
C417 C412 1.356 . S
C417 C416 1.409 . S
C417 H439 0.930 . S
C418 O428 1.270 . S
C418 O429 1.248 . S
C419 O430 1.267 . S
C419 O431 1.278 . S
O420 Pr400 2.562 . S
O420 C402 1.254 . S
O421 Pr400 2.490 . S
O421 C402 1.225 . S
O422 Pr400 2.695 . S
O422 Pr401 2.436 . S
O422 C409 1.270 . S
O423 Pr400 2.512 . S
O423 C409 1.248 . S
O424 Pr401 2.438 . S
O424 C410 1.267 . S
O425 Pr400 2.437 . S
O425 C410 1.278 . S
O426 Pr401 2.562 . S
O426 C411 1.254 . S
O427 Pr401 2.490 . S
O427 C411 1.225 . S
O428 Pr400 2.436 . S
O428 Pr401 2.695 . S
O428 C418 1.270 . S
O429 Pr401 2.512 . S
O429 C418 1.248 . S
O430 Pr400 2.438 . S
O430 C419 1.267 . S
O431 Pr401 2.437 . S
O431 C419 1.278 . S
H432 C404 0.929 . S
H433 C405 0.929 . S
H434 C407 0.931 . S
H435 C408 0.930 . S
H436 C413 0.929 . S
H437 C414 0.929 . S
H438 C416 0.931 . S
H439 C417 0.930 . S
Pr440 C442 2.880 . S
Pr440 O460 2.562 . S
Pr440 O461 2.490 . S
Pr440 O462 2.695 . S
Pr440 O463 2.512 . S
Pr440 O465 2.437 . S
Pr440 O468 2.436 . S
Pr440 O470 2.438 . S
Pr441 C451 2.880 . S
Pr441 O462 2.436 . S
Pr441 O464 2.438 . S
Pr441 O466 2.562 . S
Pr441 O467 2.490 . S
Pr441 O468 2.695 . S
Pr441 O469 2.512 1_565 S
Pr441 O471 2.437 . S
C442 Pr440 2.880 . S
C442 C443 1.491 . S
C442 O460 1.254 . S
C442 O461 1.225 . S
C443 C442 1.491 . S
C443 C444 1.392 . S
C443 C448 1.356 1_565 S
C444 C443 1.392 . S
C444 C445 1.368 . S
C444 H472 0.929 . S
C445 C444 1.368 . S
C445 C446 1.386 . S
C445 H473 0.929 . S
C446 C445 1.386 . S
C446 C447 1.373 1_565 S
C447 C446 1.373 1_545 S
C447 C448 1.409 . S
C447 H474 0.931 . S
C448 C443 1.356 1_545 S
C448 C447 1.409 . S
C448 H475 0.930 . S
C449 O462 1.270 . S
C449 O463 1.248 . S
C450 O464 1.267 . S
C450 O465 1.278 . S
C451 Pr441 2.880 . S
C451 C452 1.491 . S
C451 O466 1.254 . S
C451 O467 1.225 . S
C452 C451 1.491 . S
C452 C453 1.392 . S
C452 C457 1.356 . S
C453 C452 1.392 . S
C453 C454 1.368 . S
C453 H476 0.929 . S
C454 C453 1.368 . S
C454 C455 1.386 . S
C454 H477 0.929 . S
C455 C454 1.386 . S
C455 C456 1.373 . S
C456 C455 1.373 . S
C456 C457 1.409 . S
C456 H478 0.931 . S
C457 C452 1.356 . S
C457 C456 1.409 . S
C457 H479 0.930 . S
C458 O468 1.270 1_545 S
C458 O469 1.248 . S
C459 O470 1.267 . S
C459 O471 1.278 . S
O460 Pr440 2.562 . S
O460 C442 1.254 . S
O461 Pr440 2.490 . S
O461 C442 1.225 . S
O462 Pr440 2.695 . S
O462 Pr441 2.436 . S
O462 C449 1.270 . S
O463 Pr440 2.512 . S
O463 C449 1.248 . S
O464 Pr441 2.438 . S
O464 C450 1.267 . S
O465 Pr440 2.437 . S
O465 C450 1.278 . S
O466 Pr441 2.562 . S
O466 C451 1.254 . S
O467 Pr441 2.490 . S
O467 C451 1.225 . S
O468 Pr440 2.436 . S
O468 Pr441 2.695 . S
O468 C458 1.270 1_565 S
O469 Pr441 2.512 1_545 S
O469 C458 1.248 . S
O470 Pr440 2.438 . S
O470 C459 1.267 . S
O471 Pr441 2.437 . S
O471 C459 1.278 . S
H472 C444 0.929 . S
H473 C445 0.929 . S
H474 C447 0.931 . S
H475 C448 0.930 . S
H476 C453 0.929 . S
H477 C454 0.929 . S
H478 C456 0.931 . S
H479 C457 0.930 . S
Pr480 C482 2.880 . S
Pr480 O500 2.562 . S
Pr480 O501 2.490 . S
Pr480 O502 2.695 . S
Pr480 O503 2.512 . S
Pr480 O505 2.437 . S
Pr480 O508 2.436 . S
Pr480 O510 2.438 . S
Pr481 C491 2.880 . S
Pr481 O502 2.436 . S
Pr481 O504 2.438 . S
Pr481 O506 2.562 . S
Pr481 O507 2.490 . S
Pr481 O508 2.695 . S
Pr481 O509 2.512 . S
Pr481 O511 2.437 . S
C482 Pr480 2.880 . S
C482 C483 1.491 . S
C482 O500 1.254 . S
C482 O501 1.225 . S
C483 C482 1.491 . S
C483 C484 1.392 . S
C483 C488 1.356 . S
C484 C483 1.392 . S
C484 C485 1.368 . S
C484 H512 0.929 . S
C485 C484 1.368 . S
C485 C486 1.386 . S
C485 H513 0.929 . S
C486 C485 1.386 . S
C486 C487 1.373 . S
C487 C486 1.373 . S
C487 C488 1.409 . S
C487 H514 0.931 . S
C488 C483 1.356 . S
C488 C487 1.409 . S
C488 H515 0.930 . S
C489 O502 1.270 . S
C489 O503 1.248 . S
C490 O504 1.267 . S
C490 O505 1.278 . S
C491 Pr481 2.880 . S
C491 C492 1.491 . S
C491 O506 1.254 . S
C491 O507 1.225 . S
C492 C491 1.491 . S
C492 C493 1.392 . S
C492 C497 1.356 . S
C493 C492 1.392 . S
C493 C494 1.368 . S
C493 H516 0.929 . S
C494 C493 1.368 . S
C494 C495 1.386 . S
C494 H517 0.929 . S
C495 C494 1.386 . S
C495 C496 1.373 . S
C496 C495 1.373 . S
C496 C497 1.409 . S
C496 H518 0.931 . S
C497 C492 1.356 . S
C497 C496 1.409 . S
C497 H519 0.930 . S
C498 O508 1.270 . S
C498 O509 1.248 . S
C499 O510 1.267 . S
C499 O511 1.278 . S
O500 Pr480 2.562 . S
O500 C482 1.254 . S
O501 Pr480 2.490 . S
O501 C482 1.225 . S
O502 Pr480 2.695 . S
O502 Pr481 2.436 . S
O502 C489 1.270 . S
O503 Pr480 2.512 . S
O503 C489 1.248 . S
O504 Pr481 2.438 . S
O504 C490 1.267 . S
O505 Pr480 2.437 . S
O505 C490 1.278 . S
O506 Pr481 2.562 . S
O506 C491 1.254 . S
O507 Pr481 2.490 . S
O507 C491 1.225 . S
O508 Pr480 2.436 . S
O508 Pr481 2.695 . S
O508 C498 1.270 . S
O509 Pr481 2.512 . S
O509 C498 1.248 . S
O510 Pr480 2.438 . S
O510 C499 1.267 . S
O511 Pr481 2.437 . S
O511 C499 1.278 . S
H512 C484 0.929 . S
H513 C485 0.929 . S
H514 C487 0.931 . S
H515 C488 0.930 . S
H516 C493 0.929 . S
H517 C494 0.929 . S
H518 C496 0.931 . S
H519 C497 0.930 . S
Pr520 C522 2.880 . S
Pr520 O540 2.562 . S
Pr520 O541 2.490 . S
Pr520 O542 2.695 . S
Pr520 O543 2.512 . S
Pr520 O545 2.437 . S
Pr520 O548 2.436 . S
Pr520 O550 2.438 . S
Pr521 C531 2.880 . S
Pr521 O542 2.436 . S
Pr521 O544 2.438 . S
Pr521 O546 2.562 . S
Pr521 O547 2.490 . S
Pr521 O548 2.695 . S
Pr521 O549 2.512 1_545 S
Pr521 O551 2.437 . S
C522 Pr520 2.880 . S
C522 C523 1.491 . S
C522 O540 1.254 . S
C522 O541 1.225 . S
C523 C522 1.491 . S
C523 C524 1.392 . S
C523 C528 1.356 1_545 S
C524 C523 1.392 . S
C524 C525 1.368 . S
C524 H552 0.929 . S
C525 C524 1.368 . S
C525 C526 1.386 . S
C525 H553 0.929 . S
C526 C525 1.386 . S
C526 C527 1.373 1_545 S
C527 C526 1.373 1_565 S
C527 C528 1.409 . S
C527 H554 0.931 . S
C528 C523 1.356 1_565 S
C528 C527 1.409 . S
C528 H555 0.930 . S
C529 O542 1.270 . S
C529 O543 1.248 . S
C530 O544 1.267 . S
C530 O545 1.278 . S
C531 Pr521 2.880 . S
C531 C532 1.491 . S
C531 O546 1.254 . S
C531 O547 1.225 . S
C532 C531 1.491 . S
C532 C533 1.392 . S
C532 C537 1.356 . S
C533 C532 1.392 . S
C533 C534 1.368 . S
C533 H556 0.929 . S
C534 C533 1.368 . S
C534 C535 1.386 . S
C534 H557 0.929 . S
C535 C534 1.386 . S
C535 C536 1.373 . S
C536 C535 1.373 . S
C536 C537 1.409 . S
C536 H558 0.931 . S
C537 C532 1.356 . S
C537 C536 1.409 . S
C537 H559 0.930 . S
C538 O548 1.270 1_565 S
C538 O549 1.248 . S
C539 O550 1.267 . S
C539 O551 1.278 . S
O540 Pr520 2.562 . S
O540 C522 1.254 . S
O541 Pr520 2.490 . S
O541 C522 1.225 . S
O542 Pr520 2.695 . S
O542 Pr521 2.436 . S
O542 C529 1.270 . S
O543 Pr520 2.512 . S
O543 C529 1.248 . S
O544 Pr521 2.438 . S
O544 C530 1.267 . S
O545 Pr520 2.437 . S
O545 C530 1.278 . S
O546 Pr521 2.562 . S
O546 C531 1.254 . S
O547 Pr521 2.490 . S
O547 C531 1.225 . S
O548 Pr520 2.436 . S
O548 Pr521 2.695 . S
O548 C538 1.270 1_545 S
O549 Pr521 2.512 1_565 S
O549 C538 1.248 . S
O550 Pr520 2.438 . S
O550 C539 1.267 . S
O551 Pr521 2.437 . S
O551 C539 1.278 . S
H552 C524 0.929 . S
H553 C525 0.929 . S
H554 C527 0.931 . S
H555 C528 0.930 . S
H556 C533 0.929 . S
H557 C534 0.929 . S
H558 C536 0.931 . S
H559 C537 0.930 . S
Pr560 C562 2.880 . S
Pr560 O580 2.562 . S
Pr560 O581 2.490 . S
Pr560 O582 2.695 . S
Pr560 O583 2.512 . S
Pr560 O585 2.437 . S
Pr560 O588 2.436 . S
Pr560 O590 2.438 . S
Pr561 C571 2.880 . S
Pr561 O582 2.436 . S
Pr561 O584 2.438 . S
Pr561 O586 2.562 . S
Pr561 O587 2.490 . S
Pr561 O588 2.695 . S
Pr561 O589 2.512 . S
Pr561 O591 2.437 . S
C562 Pr560 2.880 . S
C562 C563 1.491 . S
C562 O580 1.254 . S
C562 O581 1.225 . S
C563 C562 1.491 . S
C563 C564 1.392 . S
C563 C568 1.356 . S
C564 C563 1.392 . S
C564 C565 1.368 . S
C564 H592 0.929 . S
C565 C564 1.368 . S
C565 C566 1.386 . S
C565 H593 0.929 . S
C566 C565 1.386 . S
C566 C567 1.373 . S
C567 C566 1.373 . S
C567 C568 1.409 . S
C567 H594 0.931 . S
C568 C563 1.356 . S
C568 C567 1.409 . S
C568 H595 0.930 . S
C569 O582 1.270 . S
C569 O583 1.248 . S
C570 O584 1.267 . S
C570 O585 1.278 . S
C571 Pr561 2.880 . S
C571 C572 1.491 . S
C571 O586 1.254 . S
C571 O587 1.225 . S
C572 C571 1.491 . S
C572 C573 1.392 . S
C572 C577 1.356 . S
C573 C572 1.392 . S
C573 C574 1.368 . S
C573 H596 0.929 . S
C574 C573 1.368 . S
C574 C575 1.386 . S
C574 H597 0.929 . S
C575 C574 1.386 . S
C575 C576 1.373 . S
C576 C575 1.373 . S
C576 C577 1.409 . S
C576 H598 0.931 . S
C577 C572 1.356 . S
C577 C576 1.409 . S
C577 H599 0.930 . S
C578 O588 1.270 . S
C578 O589 1.248 . S
C579 O590 1.267 . S
C579 O591 1.278 . S
O580 Pr560 2.562 . S
O580 C562 1.254 . S
O581 Pr560 2.490 . S
O581 C562 1.225 . S
O582 Pr560 2.695 . S
O582 Pr561 2.436 . S
O582 C569 1.270 . S
O583 Pr560 2.512 . S
O583 C569 1.248 . S
O584 Pr561 2.438 . S
O584 C570 1.267 . S
O585 Pr560 2.437 . S
O585 C570 1.278 . S
O586 Pr561 2.562 . S
O586 C571 1.254 . S
O587 Pr561 2.490 . S
O587 C571 1.225 . S
O588 Pr560 2.436 . S
O588 Pr561 2.695 . S
O588 C578 1.270 . S
O589 Pr561 2.512 . S
O589 C578 1.248 . S
O590 Pr560 2.438 . S
O590 C579 1.267 . S
O591 Pr561 2.437 . S
O591 C579 1.278 . S
H592 C564 0.929 . S
H593 C565 0.929 . S
H594 C567 0.931 . S
H595 C568 0.930 . S
H596 C573 0.929 . S
H597 C574 0.929 . S
H598 C576 0.931 . S
H599 C577 0.930 . S
Pr600 C602 2.880 . S
Pr600 O620 2.562 . S
Pr600 O621 2.490 . S
Pr600 O622 2.695 . S
Pr600 O623 2.512 . S
Pr600 O625 2.437 . S
Pr600 O628 2.436 . S
Pr600 O630 2.438 . S
Pr601 C611 2.880 . S
Pr601 O622 2.436 1_455 S
Pr601 O624 2.438 . S
Pr601 O626 2.562 . S
Pr601 O627 2.490 . S
Pr601 O628 2.695 1_455 S
Pr601 O629 2.512 1_465 S
Pr601 O631 2.437 1_455 S
C602 Pr600 2.880 . S
C602 C603 1.491 . S
C602 O620 1.254 . S
C602 O621 1.225 . S
C603 C602 1.491 . S
C603 C604 1.392 . S
C603 C608 1.356 1_565 S
C604 C603 1.392 . S
C604 C605 1.368 . S
C604 H632 0.929 . S
C605 C604 1.368 . S
C605 C606 1.386 . S
C605 H633 0.929 . S
C606 C605 1.386 . S
C606 C607 1.373 1_565 S
C607 C606 1.373 1_545 S
C607 C608 1.409 . S
C607 H634 0.931 . S
C608 C603 1.356 1_545 S
C608 C607 1.409 . S
C608 H635 0.930 . S
C609 O622 1.270 . S
C609 O623 1.248 . S
C610 O624 1.267 1_655 S
C610 O625 1.278 . S
C611 Pr601 2.880 . S
C611 C612 1.491 . S
C611 O626 1.254 . S
C611 O627 1.225 . S
C612 C611 1.491 . S
C612 C613 1.392 . S
C612 C617 1.356 . S
C613 C612 1.392 . S
C613 C614 1.368 . S
C613 H636 0.929 . S
C614 C613 1.368 . S
C614 C615 1.386 . S
C614 H637 0.929 . S
C615 C614 1.386 . S
C615 C616 1.373 . S
C616 C615 1.373 . S
C616 C617 1.409 . S
C616 H638 0.931 . S
C617 C612 1.356 . S
C617 C616 1.409 . S
C617 H639 0.930 . S
C618 O628 1.270 1_545 S
C618 O629 1.248 . S
C619 O630 1.267 . S
C619 O631 1.278 . S
O620 Pr600 2.562 . S
O620 C602 1.254 . S
O621 Pr600 2.490 . S
O621 C602 1.225 . S
O622 Pr600 2.695 . S
O622 Pr601 2.436 1_655 S
O622 C609 1.270 . S
O623 Pr600 2.512 . S
O623 C609 1.248 . S
O624 Pr601 2.438 . S
O624 C610 1.267 1_455 S
O625 Pr600 2.437 . S
O625 C610 1.278 . S
O626 Pr601 2.562 . S
O626 C611 1.254 . S
O627 Pr601 2.490 . S
O627 C611 1.225 . S
O628 Pr600 2.436 . S
O628 Pr601 2.695 1_655 S
O628 C618 1.270 1_565 S
O629 Pr601 2.512 1_645 S
O629 C618 1.248 . S
O630 Pr600 2.438 . S
O630 C619 1.267 . S
O631 Pr601 2.437 1_655 S
O631 C619 1.278 . S
H632 C604 0.929 . S
H633 C605 0.929 . S
H634 C607 0.931 . S
H635 C608 0.930 . S
H636 C613 0.929 . S
H637 C614 0.929 . S
H638 C616 0.931 . S
H639 C617 0.930 . S
Pr640 C642 2.880 . S
Pr640 O660 2.562 . S
Pr640 O661 2.490 . S
Pr640 O662 2.695 . S
Pr640 O663 2.512 . S
Pr640 O665 2.437 . S
Pr640 O668 2.436 . S
Pr640 O670 2.438 . S
Pr641 C651 2.880 . S
Pr641 O662 2.436 . S
Pr641 O664 2.438 . S
Pr641 O666 2.562 . S
Pr641 O667 2.490 . S
Pr641 O668 2.695 . S
Pr641 O669 2.512 . S
Pr641 O671 2.437 . S
C642 Pr640 2.880 . S
C642 C643 1.491 . S
C642 O660 1.254 . S
C642 O661 1.225 . S
C643 C642 1.491 . S
C643 C644 1.392 . S
C643 C648 1.356 . S
C644 C643 1.392 . S
C644 C645 1.368 . S
C644 H672 0.929 . S
C645 C644 1.368 . S
C645 C646 1.386 . S
C645 H673 0.929 . S
C646 C645 1.386 . S
C646 C647 1.373 . S
C647 C646 1.373 . S
C647 C648 1.409 . S
C647 H674 0.931 . S
C648 C643 1.356 . S
C648 C647 1.409 . S
C648 H675 0.930 . S
C649 O662 1.270 . S
C649 O663 1.248 . S
C650 O664 1.267 . S
C650 O665 1.278 . S
C651 Pr641 2.880 . S
C651 C652 1.491 . S
C651 O666 1.254 . S
C651 O667 1.225 . S
C652 C651 1.491 . S
C652 C653 1.392 . S
C652 C657 1.356 . S
C653 C652 1.392 . S
C653 C654 1.368 . S
C653 H676 0.929 . S
C654 C653 1.368 . S
C654 C655 1.386 . S
C654 H677 0.929 . S
C655 C654 1.386 . S
C655 C656 1.373 . S
C656 C655 1.373 . S
C656 C657 1.409 . S
C656 H678 0.931 . S
C657 C652 1.356 . S
C657 C656 1.409 . S
C657 H679 0.930 . S
C658 O668 1.270 . S
C658 O669 1.248 . S
C659 O670 1.267 . S
C659 O671 1.278 . S
O660 Pr640 2.562 . S
O660 C642 1.254 . S
O661 Pr640 2.490 . S
O661 C642 1.225 . S
O662 Pr640 2.695 . S
O662 Pr641 2.436 . S
O662 C649 1.270 . S
O663 Pr640 2.512 . S
O663 C649 1.248 . S
O664 Pr641 2.438 . S
O664 C650 1.267 . S
O665 Pr640 2.437 . S
O665 C650 1.278 . S
O666 Pr641 2.562 . S
O666 C651 1.254 . S
O667 Pr641 2.490 . S
O667 C651 1.225 . S
O668 Pr640 2.436 . S
O668 Pr641 2.695 . S
O668 C658 1.270 . S
O669 Pr641 2.512 . S
O669 C658 1.248 . S
O670 Pr640 2.438 . S
O670 C659 1.267 . S
O671 Pr641 2.437 . S
O671 C659 1.278 . S
H672 C644 0.929 . S
H673 C645 0.929 . S
H674 C647 0.931 . S
H675 C648 0.930 . S
H676 C653 0.929 . S
H677 C654 0.929 . S
H678 C656 0.931 . S
H679 C657 0.930 . S
Pr680 C682 2.880 . S
Pr680 O700 2.562 . S
Pr680 O701 2.490 . S
Pr680 O702 2.695 . S
Pr680 O703 2.512 . S
Pr680 O705 2.437 . S
Pr680 O708 2.436 . S
Pr680 O710 2.438 . S
Pr681 C691 2.880 . S
Pr681 O702 2.436 . S
Pr681 O704 2.438 . S
Pr681 O706 2.562 . S
Pr681 O707 2.490 . S
Pr681 O708 2.695 . S
Pr681 O709 2.512 . S
Pr681 O711 2.437 . S
C682 Pr680 2.880 . S
C682 C683 1.491 . S
C682 O700 1.254 . S
C682 O701 1.225 . S
C683 C682 1.491 . S
C683 C684 1.392 . S
C683 C688 1.356 . S
C684 C683 1.392 . S
C684 C685 1.368 . S
C684 H712 0.929 . S
C685 C684 1.368 . S
C685 C686 1.386 . S
C685 H713 0.929 . S
C686 C685 1.386 . S
C686 C687 1.373 . S
C687 C686 1.373 . S
C687 C688 1.409 . S
C687 H714 0.931 . S
C688 C683 1.356 . S
C688 C687 1.409 . S
C688 H715 0.930 . S
C689 O702 1.270 . S
C689 O703 1.248 . S
C690 O704 1.267 . S
C690 O705 1.278 . S
C691 Pr681 2.880 . S
C691 C692 1.491 . S
C691 O706 1.254 . S
C691 O707 1.225 . S
C692 C691 1.491 . S
C692 C693 1.392 . S
C692 C697 1.356 . S
C693 C692 1.392 . S
C693 C694 1.368 . S
C693 H716 0.929 . S
C694 C693 1.368 . S
C694 C695 1.386 . S
C694 H717 0.929 . S
C695 C694 1.386 . S
C695 C696 1.373 . S
C696 C695 1.373 . S
C696 C697 1.409 . S
C696 H718 0.931 . S
C697 C692 1.356 . S
C697 C696 1.409 . S
C697 H719 0.930 . S
C698 O708 1.270 . S
C698 O709 1.248 . S
C699 O710 1.267 . S
C699 O711 1.278 . S
O700 Pr680 2.562 . S
O700 C682 1.254 . S
O701 Pr680 2.490 . S
O701 C682 1.225 . S
O702 Pr680 2.695 . S
O702 Pr681 2.436 . S
O702 C689 1.270 . S
O703 Pr680 2.512 . S
O703 C689 1.248 . S
O704 Pr681 2.438 . S
O704 C690 1.267 . S
O705 Pr680 2.437 . S
O705 C690 1.278 . S
O706 Pr681 2.562 . S
O706 C691 1.254 . S
O707 Pr681 2.490 . S
O707 C691 1.225 . S
O708 Pr680 2.436 . S
O708 Pr681 2.695 . S
O708 C698 1.270 . S
O709 Pr681 2.512 . S
O709 C698 1.248 . S
O710 Pr680 2.438 . S
O710 C699 1.267 . S
O711 Pr681 2.437 . S
O711 C699 1.278 . S
H712 C684 0.929 . S
H713 C685 0.929 . S
H714 C687 0.931 . S
H715 C688 0.930 . S
H716 C693 0.929 . S
H717 C694 0.929 . S
H718 C696 0.931 . S
H719 C697 0.930 . S
Pr720 C722 2.880 . S
Pr720 O740 2.562 . S
Pr720 O741 2.490 . S
Pr720 O742 2.695 . S
Pr720 O743 2.512 . S
Pr720 O745 2.437 . S
Pr720 O748 2.436 . S
Pr720 O750 2.438 . S
Pr721 C731 2.880 . S
Pr721 O742 2.436 . S
Pr721 O744 2.438 . S
Pr721 O746 2.562 . S
Pr721 O747 2.490 . S
Pr721 O748 2.695 . S
Pr721 O749 2.512 . S
Pr721 O751 2.437 . S
C722 Pr720 2.880 . S
C722 C723 1.491 . S
C722 O740 1.254 . S
C722 O741 1.225 . S
C723 C722 1.491 . S
C723 C724 1.392 . S
C723 C728 1.356 . S
C724 C723 1.392 . S
C724 C725 1.368 . S
C724 H752 0.929 . S
C725 C724 1.368 . S
C725 C726 1.386 . S
C725 H753 0.929 . S
C726 C725 1.386 . S
C726 C727 1.373 . S
C727 C726 1.373 . S
C727 C728 1.409 . S
C727 H754 0.931 . S
C728 C723 1.356 . S
C728 C727 1.409 . S
C728 H755 0.930 . S
C729 O742 1.270 . S
C729 O743 1.248 . S
C730 O744 1.267 . S
C730 O745 1.278 . S
C731 Pr721 2.880 . S
C731 C732 1.491 . S
C731 O746 1.254 . S
C731 O747 1.225 . S
C732 C731 1.491 . S
C732 C733 1.392 . S
C732 C737 1.356 . S
C733 C732 1.392 . S
C733 C734 1.368 . S
C733 H756 0.929 . S
C734 C733 1.368 . S
C734 C735 1.386 . S
C734 H757 0.929 . S
C735 C734 1.386 . S
C735 C736 1.373 . S
C736 C735 1.373 . S
C736 C737 1.409 . S
C736 H758 0.931 . S
C737 C732 1.356 . S
C737 C736 1.409 . S
C737 H759 0.930 . S
C738 O748 1.270 . S
C738 O749 1.248 . S
C739 O750 1.267 . S
C739 O751 1.278 . S
O740 Pr720 2.562 . S
O740 C722 1.254 . S
O741 Pr720 2.490 . S
O741 C722 1.225 . S
O742 Pr720 2.695 . S
O742 Pr721 2.436 . S
O742 C729 1.270 . S
O743 Pr720 2.512 . S
O743 C729 1.248 . S
O744 Pr721 2.438 . S
O744 C730 1.267 . S
O745 Pr720 2.437 . S
O745 C730 1.278 . S
O746 Pr721 2.562 . S
O746 C731 1.254 . S
O747 Pr721 2.490 . S
O747 C731 1.225 . S
O748 Pr720 2.436 . S
O748 Pr721 2.695 . S
O748 C738 1.270 . S
O749 Pr721 2.512 . S
O749 C738 1.248 . S
O750 Pr720 2.438 . S
O750 C739 1.267 . S
O751 Pr721 2.437 . S
O751 C739 1.278 . S
H752 C724 0.929 . S
H753 C725 0.929 . S
H754 C727 0.931 . S
H755 C728 0.930 . S
H756 C733 0.929 . S
H757 C734 0.929 . S
H758 C736 0.931 . S
H759 C737 0.930 . S
Pr760 C762 2.880 . S
Pr760 O780 2.562 . S
Pr760 O781 2.490 . S
Pr760 O782 2.695 1_455 S
Pr760 O783 2.512 1_455 S
Pr760 O785 2.437 1_455 S
Pr760 O788 2.436 1_455 S
Pr760 O790 2.438 . S
Pr761 C771 2.880 . S
Pr761 O782 2.436 . S
Pr761 O784 2.438 . S
Pr761 O786 2.562 . S
Pr761 O787 2.490 . S
Pr761 O788 2.695 . S
Pr761 O789 2.512 . S
Pr761 O791 2.437 . S
C762 Pr760 2.880 . S
C762 C763 1.491 . S
C762 O780 1.254 . S
C762 O781 1.225 . S
C763 C762 1.491 . S
C763 C764 1.392 . S
C763 C768 1.356 . S
C764 C763 1.392 . S
C764 C765 1.368 . S
C764 H792 0.929 . S
C765 C764 1.368 . S
C765 C766 1.386 . S
C765 H793 0.929 . S
C766 C765 1.386 . S
C766 C767 1.373 . S
C767 C766 1.373 . S
C767 C768 1.409 . S
C767 H794 0.931 . S
C768 C763 1.356 . S
C768 C767 1.409 . S
C768 H795 0.930 . S
C769 O782 1.270 . S
C769 O783 1.248 . S
C770 O784 1.267 . S
C770 O785 1.278 . S
C771 Pr761 2.880 . S
C771 C772 1.491 . S
C771 O786 1.254 . S
C771 O787 1.225 . S
C772 C771 1.491 . S
C772 C773 1.392 . S
C772 C777 1.356 . S
C773 C772 1.392 . S
C773 C774 1.368 . S
C773 H796 0.929 . S
C774 C773 1.368 . S
C774 C775 1.386 . S
C774 H797 0.929 . S
C775 C774 1.386 . S
C775 C776 1.373 . S
C776 C775 1.373 . S
C776 C777 1.409 . S
C776 H798 0.931 . S
C777 C772 1.356 . S
C777 C776 1.409 . S
C777 H799 0.930 . S
C778 O788 1.270 . S
C778 O789 1.248 . S
C779 O790 1.267 1_655 S
C779 O791 1.278 . S
O780 Pr760 2.562 . S
O780 C762 1.254 . S
O781 Pr760 2.490 . S
O781 C762 1.225 . S
O782 Pr760 2.695 1_655 S
O782 Pr761 2.436 . S
O782 C769 1.270 . S
O783 Pr760 2.512 1_655 S
O783 C769 1.248 . S
O784 Pr761 2.438 . S
O784 C770 1.267 . S
O785 Pr760 2.437 1_655 S
O785 C770 1.278 . S
O786 Pr761 2.562 . S
O786 C771 1.254 . S
O787 Pr761 2.490 . S
O787 C771 1.225 . S
O788 Pr760 2.436 1_655 S
O788 Pr761 2.695 . S
O788 C778 1.270 . S
O789 Pr761 2.512 . S
O789 C778 1.248 . S
O790 Pr760 2.438 . S
O790 C779 1.267 1_455 S
O791 Pr761 2.437 . S
O791 C779 1.278 . S
H792 C764 0.929 . S
H793 C765 0.929 . S
H794 C767 0.931 . S
H795 C768 0.930 . S
H796 C773 0.929 . S
H797 C774 0.929 . S
H798 C776 0.931 . S
H799 C777 0.930 . S
Pr800 C802 2.880 . S
Pr800 O820 2.562 . S
Pr800 O821 2.490 . S
Pr800 O822 2.695 . S
Pr800 O823 2.512 . S
Pr800 O825 2.437 . S
Pr800 O828 2.436 . S
Pr800 O830 2.438 . S
Pr801 C811 2.880 . S
Pr801 O822 2.436 . S
Pr801 O824 2.438 . S
Pr801 O826 2.562 . S
Pr801 O827 2.490 . S
Pr801 O828 2.695 . S
Pr801 O829 2.512 . S
Pr801 O831 2.437 . S
C802 Pr800 2.880 . S
C802 C803 1.491 . S
C802 O820 1.254 . S
C802 O821 1.225 . S
C803 C802 1.491 . S
C803 C804 1.392 . S
C803 C808 1.356 . S
C804 C803 1.392 . S
C804 C805 1.368 . S
C804 H832 0.929 . S
C805 C804 1.368 . S
C805 C806 1.386 . S
C805 H833 0.929 . S
C806 C805 1.386 . S
C806 C807 1.373 . S
C807 C806 1.373 . S
C807 C808 1.409 . S
C807 H834 0.931 . S
C808 C803 1.356 . S
C808 C807 1.409 . S
C808 H835 0.930 . S
C809 O822 1.270 . S
C809 O823 1.248 . S
C810 O824 1.267 . S
C810 O825 1.278 . S
C811 Pr801 2.880 . S
C811 C812 1.491 . S
C811 O826 1.254 . S
C811 O827 1.225 . S
C812 C811 1.491 . S
C812 C813 1.392 . S
C812 C817 1.356 . S
C813 C812 1.392 . S
C813 C814 1.368 . S
C813 H836 0.929 . S
C814 C813 1.368 . S
C814 C815 1.386 . S
C814 H837 0.929 . S
C815 C814 1.386 . S
C815 C816 1.373 . S
C816 C815 1.373 . S
C816 C817 1.409 . S
C816 H838 0.931 . S
C817 C812 1.356 . S
C817 C816 1.409 . S
C817 H839 0.930 . S
C818 O828 1.270 . S
C818 O829 1.248 . S
C819 O830 1.267 . S
C819 O831 1.278 . S
O820 Pr800 2.562 . S
O820 C802 1.254 . S
O821 Pr800 2.490 . S
O821 C802 1.225 . S
O822 Pr800 2.695 . S
O822 Pr801 2.436 . S
O822 C809 1.270 . S
O823 Pr800 2.512 . S
O823 C809 1.248 . S
O824 Pr801 2.438 . S
O824 C810 1.267 . S
O825 Pr800 2.437 . S
O825 C810 1.278 . S
O826 Pr801 2.562 . S
O826 C811 1.254 . S
O827 Pr801 2.490 . S
O827 C811 1.225 . S
O828 Pr800 2.436 . S
O828 Pr801 2.695 . S
O828 C818 1.270 . S
O829 Pr801 2.512 . S
O829 C818 1.248 . S
O830 Pr800 2.438 . S
O830 C819 1.267 . S
O831 Pr801 2.437 . S
O831 C819 1.278 . S
H832 C804 0.929 . S
H833 C805 0.929 . S
H834 C807 0.931 . S
H835 C808 0.930 . S
H836 C813 0.929 . S
H837 C814 0.929 . S
H838 C816 0.931 . S
H839 C817 0.930 . S
Pr840 C842 2.880 . S
Pr840 O860 2.562 . S
Pr840 O861 2.490 . S
Pr840 O862 2.695 1_455 S
Pr840 O863 2.512 1_455 S
Pr840 O865 2.437 1_455 S
Pr840 O868 2.436 1_455 S
Pr840 O870 2.438 . S
Pr841 C851 2.880 . S
Pr841 O862 2.436 . S
Pr841 O864 2.438 . S
Pr841 O866 2.562 . S
Pr841 O867 2.490 . S
Pr841 O868 2.695 . S
Pr841 O869 2.512 . S
Pr841 O871 2.437 . S
C842 Pr840 2.880 . S
C842 C843 1.491 . S
C842 O860 1.254 . S
C842 O861 1.225 . S
C843 C842 1.491 . S
C843 C844 1.392 . S
C843 C848 1.356 . S
C844 C843 1.392 . S
C844 C845 1.368 . S
C844 H872 0.929 . S
C845 C844 1.368 . S
C845 C846 1.386 . S
C845 H873 0.929 . S
C846 C845 1.386 . S
C846 C847 1.373 . S
C847 C846 1.373 . S
C847 C848 1.409 . S
C847 H874 0.931 . S
C848 C843 1.356 . S
C848 C847 1.409 . S
C848 H875 0.930 . S
C849 O862 1.270 . S
C849 O863 1.248 . S
C850 O864 1.267 . S
C850 O865 1.278 . S
C851 Pr841 2.880 . S
C851 C852 1.491 . S
C851 O866 1.254 . S
C851 O867 1.225 . S
C852 C851 1.491 . S
C852 C853 1.392 . S
C852 C857 1.356 . S
C853 C852 1.392 . S
C853 C854 1.368 . S
C853 H876 0.929 . S
C854 C853 1.368 . S
C854 C855 1.386 . S
C854 H877 0.929 . S
C855 C854 1.386 . S
C855 C856 1.373 . S
C856 C855 1.373 . S
C856 C857 1.409 . S
C856 H878 0.931 . S
C857 C852 1.356 . S
C857 C856 1.409 . S
C857 H879 0.930 . S
C858 O868 1.270 . S
C858 O869 1.248 . S
C859 O870 1.267 1_655 S
C859 O871 1.278 . S
O860 Pr840 2.562 . S
O860 C842 1.254 . S
O861 Pr840 2.490 . S
O861 C842 1.225 . S
O862 Pr840 2.695 1_655 S
O862 Pr841 2.436 . S
O862 C849 1.270 . S
O863 Pr840 2.512 1_655 S
O863 C849 1.248 . S
O864 Pr841 2.438 . S
O864 C850 1.267 . S
O865 Pr840 2.437 1_655 S
O865 C850 1.278 . S
O866 Pr841 2.562 . S
O866 C851 1.254 . S
O867 Pr841 2.490 . S
O867 C851 1.225 . S
O868 Pr840 2.436 1_655 S
O868 Pr841 2.695 . S
O868 C858 1.270 . S
O869 Pr841 2.512 . S
O869 C858 1.248 . S
O870 Pr840 2.438 . S
O870 C859 1.267 1_455 S
O871 Pr841 2.437 . S
O871 C859 1.278 . S
H872 C844 0.929 . S
H873 C845 0.929 . S
H874 C847 0.931 . S
H875 C848 0.930 . S
H876 C853 0.929 . S
H877 C854 0.929 . S
H878 C856 0.931 . S
H879 C857 0.930 . S
Pr880 C882 2.880 . S
Pr880 O900 2.562 . S
Pr880 O901 2.490 . S
Pr880 O902 2.695 . S
Pr880 O903 2.512 . S
Pr880 O905 2.437 . S
Pr880 O908 2.436 . S
Pr880 O910 2.438 . S
Pr881 C891 2.880 . S
Pr881 O902 2.436 . S
Pr881 O904 2.438 . S
Pr881 O906 2.562 . S
Pr881 O907 2.490 . S
Pr881 O908 2.695 . S
Pr881 O909 2.512 . S
Pr881 O911 2.437 . S
C882 Pr880 2.880 . S
C882 C883 1.491 . S
C882 O900 1.254 . S
C882 O901 1.225 . S
C883 C882 1.491 . S
C883 C884 1.392 . S
C883 C888 1.356 . S
C884 C883 1.392 . S
C884 C885 1.368 . S
C884 H912 0.929 . S
C885 C884 1.368 . S
C885 C886 1.386 . S
C885 H913 0.929 . S
C886 C885 1.386 . S
C886 C887 1.373 . S
C887 C886 1.373 . S
C887 C888 1.409 . S
C887 H914 0.931 . S
C888 C883 1.356 . S
C888 C887 1.409 . S
C888 H915 0.930 . S
C889 O902 1.270 . S
C889 O903 1.248 . S
C890 O904 1.267 . S
C890 O905 1.278 . S
C891 Pr881 2.880 . S
C891 C892 1.491 . S
C891 O906 1.254 . S
C891 O907 1.225 . S
C892 C891 1.491 . S
C892 C893 1.392 . S
C892 C897 1.356 . S
C893 C892 1.392 . S
C893 C894 1.368 . S
C893 H916 0.929 . S
C894 C893 1.368 . S
C894 C895 1.386 . S
C894 H917 0.929 . S
C895 C894 1.386 . S
C895 C896 1.373 . S
C896 C895 1.373 . S
C896 C897 1.409 . S
C896 H918 0.931 . S
C897 C892 1.356 . S
C897 C896 1.409 . S
C897 H919 0.930 . S
C898 O908 1.270 . S
C898 O909 1.248 . S
C899 O910 1.267 . S
C899 O911 1.278 . S
O900 Pr880 2.562 . S
O900 C882 1.254 . S
O901 Pr880 2.490 . S
O901 C882 1.225 . S
O902 Pr880 2.695 . S
O902 Pr881 2.436 . S
O902 C889 1.270 . S
O903 Pr880 2.512 . S
O903 C889 1.248 . S
O904 Pr881 2.438 . S
O904 C890 1.267 . S
O905 Pr880 2.437 . S
O905 C890 1.278 . S
O906 Pr881 2.562 . S
O906 C891 1.254 . S
O907 Pr881 2.490 . S
O907 C891 1.225 . S
O908 Pr880 2.436 . S
O908 Pr881 2.695 . S
O908 C898 1.270 . S
O909 Pr881 2.512 . S
O909 C898 1.248 . S
O910 Pr880 2.438 . S
O910 C899 1.267 . S
O911 Pr881 2.437 . S
O911 C899 1.278 . S
H912 C884 0.929 . S
H913 C885 0.929 . S
H914 C887 0.931 . S
H915 C888 0.930 . S
H916 C893 0.929 . S
H917 C894 0.929 . S
H918 C896 0.931 . S
H919 C897 0.930 . S
Pr920 C922 2.880 . S
Pr920 O940 2.562 . S
Pr920 O941 2.490 . S
Pr920 O942 2.695 . S
Pr920 O943 2.512 . S
Pr920 O945 2.437 . S
Pr920 O948 2.436 . S
Pr920 O950 2.438 . S
Pr921 C931 2.880 . S
Pr921 O942 2.436 . S
Pr921 O944 2.438 . S
Pr921 O946 2.562 . S
Pr921 O947 2.490 . S
Pr921 O948 2.695 . S
Pr921 O949 2.512 . S
Pr921 O951 2.437 . S
C922 Pr920 2.880 . S
C922 C923 1.491 . S
C922 O940 1.254 . S
C922 O941 1.225 . S
C923 C922 1.491 . S
C923 C924 1.392 . S
C923 C928 1.356 . S
C924 C923 1.392 . S
C924 C925 1.368 . S
C924 H952 0.929 . S
C925 C924 1.368 . S
C925 C926 1.386 . S
C925 H953 0.929 . S
C926 C925 1.386 . S
C926 C927 1.373 . S
C927 C926 1.373 . S
C927 C928 1.409 . S
C927 H954 0.931 . S
C928 C923 1.356 . S
C928 C927 1.409 . S
C928 H955 0.930 . S
C929 O942 1.270 . S
C929 O943 1.248 . S
C930 O944 1.267 . S
C930 O945 1.278 . S
C931 Pr921 2.880 . S
C931 C932 1.491 . S
C931 O946 1.254 . S
C931 O947 1.225 . S
C932 C931 1.491 . S
C932 C933 1.392 . S
C932 C937 1.356 . S
C933 C932 1.392 . S
C933 C934 1.368 . S
C933 H956 0.929 . S
C934 C933 1.368 . S
C934 C935 1.386 . S
C934 H957 0.929 . S
C935 C934 1.386 . S
C935 C936 1.373 . S
C936 C935 1.373 . S
C936 C937 1.409 . S
C936 H958 0.931 . S
C937 C932 1.356 . S
C937 C936 1.409 . S
C937 H959 0.930 . S
C938 O948 1.270 . S
C938 O949 1.248 . S
C939 O950 1.267 . S
C939 O951 1.278 . S
O940 Pr920 2.562 . S
O940 C922 1.254 . S
O941 Pr920 2.490 . S
O941 C922 1.225 . S
O942 Pr920 2.695 . S
O942 Pr921 2.436 . S
O942 C929 1.270 . S
O943 Pr920 2.512 . S
O943 C929 1.248 . S
O944 Pr921 2.438 . S
O944 C930 1.267 . S
O945 Pr920 2.437 . S
O945 C930 1.278 . S
O946 Pr921 2.562 . S
O946 C931 1.254 . S
O947 Pr921 2.490 . S
O947 C931 1.225 . S
O948 Pr920 2.436 . S
O948 Pr921 2.695 . S
O948 C938 1.270 . S
O949 Pr921 2.512 . S
O949 C938 1.248 . S
O950 Pr920 2.438 . S
O950 C939 1.267 . S
O951 Pr921 2.437 . S
O951 C939 1.278 . S
H952 C924 0.929 . S
H953 C925 0.929 . S
H954 C927 0.931 . S
H955 C928 0.930 . S
H956 C933 0.929 . S
H957 C934 0.929 . S
H958 C936 0.931 . S
H959 C937 0.930 . S
Pr960 C962 2.880 . S
Pr960 O980 2.562 . S
Pr960 O981 2.490 . S
Pr960 O982 2.695 . S
Pr960 O983 2.512 . S
Pr960 O985 2.437 . S
Pr960 O988 2.436 . S
Pr960 O990 2.438 . S
Pr961 C971 2.880 . S
Pr961 O982 2.436 . S
Pr961 O984 2.438 . S
Pr961 O986 2.562 . S
Pr961 O987 2.490 . S
Pr961 O988 2.695 . S
Pr961 O989 2.512 . S
Pr961 O991 2.437 . S
C962 Pr960 2.880 . S
C962 C963 1.491 . S
C962 O980 1.254 . S
C962 O981 1.225 . S
C963 C962 1.491 . S
C963 C964 1.392 . S
C963 C968 1.356 . S
C964 C963 1.392 . S
C964 C965 1.368 . S
C964 H992 0.929 . S
C965 C964 1.368 . S
C965 C966 1.386 . S
C965 H993 0.929 . S
C966 C965 1.386 . S
C966 C967 1.373 . S
C967 C966 1.373 . S
C967 C968 1.409 . S
C967 H994 0.931 . S
C968 C963 1.356 . S
C968 C967 1.409 . S
C968 H995 0.930 . S
C969 O982 1.270 . S
C969 O983 1.248 . S
C970 O984 1.267 . S
C970 O985 1.278 . S
C971 Pr961 2.880 . S
C971 C972 1.491 . S
C971 O986 1.254 . S
C971 O987 1.225 . S
C972 C971 1.491 . S
C972 C973 1.392 . S
C972 C977 1.356 . S
C973 C972 1.392 . S
C973 C974 1.368 . S
C973 H996 0.929 . S
C974 C973 1.368 . S
C974 C975 1.386 . S
C974 H997 0.929 . S
C975 C974 1.386 . S
C975 C976 1.373 . S
C976 C975 1.373 . S
C976 C977 1.409 . S
C976 H998 0.931 . S
C977 C972 1.356 . S
C977 C976 1.409 . S
C977 H999 0.930 . S
C978 O988 1.270 . S
C978 O989 1.248 . S
C979 O990 1.267 . S
C979 O991 1.278 . S
O980 Pr960 2.562 . S
O980 C962 1.254 . S
O981 Pr960 2.490 . S
O981 C962 1.225 . S
O982 Pr960 2.695 . S
O982 Pr961 2.436 . S
O982 C969 1.270 . S
O983 Pr960 2.512 . S
O983 C969 1.248 . S
O984 Pr961 2.438 . S
O984 C970 1.267 . S
O985 Pr960 2.437 . S
O985 C970 1.278 . S
O986 Pr961 2.562 . S
O986 C971 1.254 . S
O987 Pr961 2.490 . S
O987 C971 1.225 . S
O988 Pr960 2.436 . S
O988 Pr961 2.695 . S
O988 C978 1.270 . S
O989 Pr961 2.512 . S
O989 C978 1.248 . S
O990 Pr960 2.438 . S
O990 C979 1.267 . S
O991 Pr961 2.437 . S
O991 C979 1.278 . S
H992 C964 0.929 . S
H993 C965 0.929 . S
H994 C967 0.931 . S
H995 C968 0.930 . S
H996 C973 0.929 . S
H997 C974 0.929 . S
H998 C976 0.931 . S
H999 C977 0.930 . S
Pr1000 C1002 2.880 . S
Pr1000 O1020 2.562 . S
Pr1000 O1021 2.490 . S
Pr1000 O1022 2.695 . S
Pr1000 O1023 2.512 . S
Pr1000 O1025 2.437 . S
Pr1000 O1028 2.436 . S
Pr1000 O1030 2.438 . S
Pr1001 C1011 2.880 . S
Pr1001 O1022 2.436 . S
Pr1001 O1024 2.438 . S
Pr1001 O1026 2.562 . S
Pr1001 O1027 2.490 . S
Pr1001 O1028 2.695 . S
Pr1001 O1029 2.512 . S
Pr1001 O1031 2.437 . S
C1002 Pr1000 2.880 . S
C1002 C1003 1.491 . S
C1002 O1020 1.254 . S
C1002 O1021 1.225 . S
C1003 C1002 1.491 . S
C1003 C1004 1.392 . S
C1003 C1008 1.356 . S
C1004 C1003 1.392 . S
C1004 C1005 1.368 . S
C1004 H1032 0.929 . S
C1005 C1004 1.368 . S
C1005 C1006 1.386 . S
C1005 H1033 0.929 . S
C1006 C1005 1.386 . S
C1006 C1007 1.373 . S
C1007 C1006 1.373 . S
C1007 C1008 1.409 . S
C1007 H1034 0.931 . S
C1008 C1003 1.356 . S
C1008 C1007 1.409 . S
C1008 H1035 0.930 . S
C1009 O1022 1.270 . S
C1009 O1023 1.248 . S
C1010 O1024 1.267 . S
C1010 O1025 1.278 . S
C1011 Pr1001 2.880 . S
C1011 C1012 1.491 . S
C1011 O1026 1.254 . S
C1011 O1027 1.225 . S
C1012 C1011 1.491 . S
C1012 C1013 1.392 . S
C1012 C1017 1.356 . S
C1013 C1012 1.392 . S
C1013 C1014 1.368 . S
C1013 H1036 0.929 . S
C1014 C1013 1.368 . S
C1014 C1015 1.386 . S
C1014 H1037 0.929 . S
C1015 C1014 1.386 . S
C1015 C1016 1.373 . S
C1016 C1015 1.373 . S
C1016 C1017 1.409 . S
C1016 H1038 0.931 . S
C1017 C1012 1.356 . S
C1017 C1016 1.409 . S
C1017 H1039 0.930 . S
C1018 O1028 1.270 . S
C1018 O1029 1.248 . S
C1019 O1030 1.267 . S
C1019 O1031 1.278 . S
O1020 Pr1000 2.562 . S
O1020 C1002 1.254 . S
O1021 Pr1000 2.490 . S
O1021 C1002 1.225 . S
O1022 Pr1000 2.695 . S
O1022 Pr1001 2.436 . S
O1022 C1009 1.270 . S
O1023 Pr1000 2.512 . S
O1023 C1009 1.248 . S
O1024 Pr1001 2.438 . S
O1024 C1010 1.267 . S
O1025 Pr1000 2.437 . S
O1025 C1010 1.278 . S
O1026 Pr1001 2.562 . S
O1026 C1011 1.254 . S
O1027 Pr1001 2.490 . S
O1027 C1011 1.225 . S
O1028 Pr1000 2.436 . S
O1028 Pr1001 2.695 . S
O1028 C1018 1.270 . S
O1029 Pr1001 2.512 . S
O1029 C1018 1.248 . S
O1030 Pr1000 2.438 . S
O1030 C1019 1.267 . S
O1031 Pr1001 2.437 . S
O1031 C1019 1.278 . S
H1032 C1004 0.929 . S
H1033 C1005 0.929 . S
H1034 C1007 0.931 . S
H1035 C1008 0.930 . S
H1036 C1013 0.929 . S
H1037 C1014 0.929 . S
H1038 C1016 0.931 . S
H1039 C1017 0.930 . S
Pr1040 C1042 2.880 . S
Pr1040 O1060 2.562 . S
Pr1040 O1061 2.490 . S
Pr1040 O1062 2.695 . S
Pr1040 O1063 2.512 . S
Pr1040 O1065 2.437 . S
Pr1040 O1068 2.436 . S
Pr1040 O1070 2.438 . S
Pr1041 C1051 2.880 . S
Pr1041 O1062 2.436 . S
Pr1041 O1064 2.438 . S
Pr1041 O1066 2.562 . S
Pr1041 O1067 2.490 . S
Pr1041 O1068 2.695 . S
Pr1041 O1069 2.512 . S
Pr1041 O1071 2.437 . S
C1042 Pr1040 2.880 . S
C1042 C1043 1.491 . S
C1042 O1060 1.254 . S
C1042 O1061 1.225 . S
C1043 C1042 1.491 . S
C1043 C1044 1.392 . S
C1043 C1048 1.356 . S
C1044 C1043 1.392 . S
C1044 C1045 1.368 . S
C1044 H1072 0.929 . S
C1045 C1044 1.368 . S
C1045 C1046 1.386 . S
C1045 H1073 0.929 . S
C1046 C1045 1.386 . S
C1046 C1047 1.373 . S
C1047 C1046 1.373 . S
C1047 C1048 1.409 . S
C1047 H1074 0.931 . S
C1048 C1043 1.356 . S
C1048 C1047 1.409 . S
C1048 H1075 0.930 . S
C1049 O1062 1.270 . S
C1049 O1063 1.248 . S
C1050 O1064 1.267 . S
C1050 O1065 1.278 . S
C1051 Pr1041 2.880 . S
C1051 C1052 1.491 . S
C1051 O1066 1.254 . S
C1051 O1067 1.225 . S
C1052 C1051 1.491 . S
C1052 C1053 1.392 . S
C1052 C1057 1.356 . S
C1053 C1052 1.392 . S
C1053 C1054 1.368 . S
C1053 H1076 0.929 . S
C1054 C1053 1.368 . S
C1054 C1055 1.386 . S
C1054 H1077 0.929 . S
C1055 C1054 1.386 . S
C1055 C1056 1.373 . S
C1056 C1055 1.373 . S
C1056 C1057 1.409 . S
C1056 H1078 0.931 . S
C1057 C1052 1.356 . S
C1057 C1056 1.409 . S
C1057 H1079 0.930 . S
C1058 O1068 1.270 . S
C1058 O1069 1.248 . S
C1059 O1070 1.267 . S
C1059 O1071 1.278 . S
O1060 Pr1040 2.562 . S
O1060 C1042 1.254 . S
O1061 Pr1040 2.490 . S
O1061 C1042 1.225 . S
O1062 Pr1040 2.695 . S
O1062 Pr1041 2.436 . S
O1062 C1049 1.270 . S
O1063 Pr1040 2.512 . S
O1063 C1049 1.248 . S
O1064 Pr1041 2.438 . S
O1064 C1050 1.267 . S
O1065 Pr1040 2.437 . S
O1065 C1050 1.278 . S
O1066 Pr1041 2.562 . S
O1066 C1051 1.254 . S
O1067 Pr1041 2.490 . S
O1067 C1051 1.225 . S
O1068 Pr1040 2.436 . S
O1068 Pr1041 2.695 . S
O1068 C1058 1.270 . S
O1069 Pr1041 2.512 . S
O1069 C1058 1.248 . S
O1070 Pr1040 2.438 . S
O1070 C1059 1.267 . S
O1071 Pr1041 2.437 . S
O1071 C1059 1.278 . S
H1072 C1044 0.929 . S
H1073 C1045 0.929 . S
H1074 C1047 0.931 . S
H1075 C1048 0.930 . S
H1076 C1053 0.929 . S
H1077 C1054 0.929 . S
H1078 C1056 0.931 . S
H1079 C1057 0.930 . S
Pr1080 C1082 2.880 . S
Pr1080 O1100 2.562 . S
Pr1080 O1101 2.490 . S
Pr1080 O1102 2.695 . S
Pr1080 O1103 2.512 . S
Pr1080 O1105 2.437 . S
Pr1080 O1108 2.436 . S
Pr1080 O1110 2.438 . S
Pr1081 C1091 2.880 . S
Pr1081 O1102 2.436 1_655 S
Pr1081 O1104 2.438 . S
Pr1081 O1106 2.562 . S
Pr1081 O1107 2.490 . S
Pr1081 O1108 2.695 1_655 S
Pr1081 O1109 2.512 1_655 S
Pr1081 O1111 2.437 1_655 S
C1082 Pr1080 2.880 . S
C1082 C1083 1.491 . S
C1082 O1100 1.254 . S
C1082 O1101 1.225 . S
C1083 C1082 1.491 . S
C1083 C1084 1.392 . S
C1083 C1088 1.356 . S
C1084 C1083 1.392 . S
C1084 C1085 1.368 . S
C1084 H1112 0.929 . S
C1085 C1084 1.368 . S
C1085 C1086 1.386 . S
C1085 H1113 0.929 . S
C1086 C1085 1.386 . S
C1086 C1087 1.373 . S
C1087 C1086 1.373 . S
C1087 C1088 1.409 . S
C1087 H1114 0.931 . S
C1088 C1083 1.356 . S
C1088 C1087 1.409 . S
C1088 H1115 0.930 . S
C1089 O1102 1.270 . S
C1089 O1103 1.248 . S
C1090 O1104 1.267 1_455 S
C1090 O1105 1.278 . S
C1091 Pr1081 2.880 . S
C1091 C1092 1.491 . S
C1091 O1106 1.254 . S
C1091 O1107 1.225 . S
C1092 C1091 1.491 . S
C1092 C1093 1.392 . S
C1092 C1097 1.356 . S
C1093 C1092 1.392 . S
C1093 C1094 1.368 . S
C1093 H1116 0.929 . S
C1094 C1093 1.368 . S
C1094 C1095 1.386 . S
C1094 H1117 0.929 . S
C1095 C1094 1.386 . S
C1095 C1096 1.373 . S
C1096 C1095 1.373 . S
C1096 C1097 1.409 . S
C1096 H1118 0.931 . S
C1097 C1092 1.356 . S
C1097 C1096 1.409 . S
C1097 H1119 0.930 . S
C1098 O1108 1.270 . S
C1098 O1109 1.248 . S
C1099 O1110 1.267 . S
C1099 O1111 1.278 . S
O1100 Pr1080 2.562 . S
O1100 C1082 1.254 . S
O1101 Pr1080 2.490 . S
O1101 C1082 1.225 . S
O1102 Pr1080 2.695 . S
O1102 Pr1081 2.436 1_455 S
O1102 C1089 1.270 . S
O1103 Pr1080 2.512 . S
O1103 C1089 1.248 . S
O1104 Pr1081 2.438 . S
O1104 C1090 1.267 1_655 S
O1105 Pr1080 2.437 . S
O1105 C1090 1.278 . S
O1106 Pr1081 2.562 . S
O1106 C1091 1.254 . S
O1107 Pr1081 2.490 . S
O1107 C1091 1.225 . S
O1108 Pr1080 2.436 . S
O1108 Pr1081 2.695 1_455 S
O1108 C1098 1.270 . S
O1109 Pr1081 2.512 1_455 S
O1109 C1098 1.248 . S
O1110 Pr1080 2.438 . S
O1110 C1099 1.267 . S
O1111 Pr1081 2.437 1_455 S
O1111 C1099 1.278 . S
H1112 C1084 0.929 . S
H1113 C1085 0.929 . S
H1114 C1087 0.931 . S
H1115 C1088 0.930 . S
H1116 C1093 0.929 . S
H1117 C1094 0.929 . S
H1118 C1096 0.931 . S
H1119 C1097 0.930 . S
Pr1120 C1122 2.880 . S
Pr1120 O1140 2.562 . S
Pr1120 O1141 2.490 . S
Pr1120 O1142 2.695 . S
Pr1120 O1143 2.512 . S
Pr1120 O1145 2.437 . S
Pr1120 O1148 2.436 . S
Pr1120 O1150 2.438 . S
Pr1121 C1131 2.880 . S
Pr1121 O1142 2.436 . S
Pr1121 O1144 2.438 . S
Pr1121 O1146 2.562 . S
Pr1121 O1147 2.490 . S
Pr1121 O1148 2.695 . S
Pr1121 O1149 2.512 . S
Pr1121 O1151 2.437 . S
C1122 Pr1120 2.880 . S
C1122 C1123 1.491 . S
C1122 O1140 1.254 . S
C1122 O1141 1.225 . S
C1123 C1122 1.491 . S
C1123 C1124 1.392 . S
C1123 C1128 1.356 . S
C1124 C1123 1.392 . S
C1124 C1125 1.368 . S
C1124 H1152 0.929 . S
C1125 C1124 1.368 . S
C1125 C1126 1.386 . S
C1125 H1153 0.929 . S
C1126 C1125 1.386 . S
C1126 C1127 1.373 . S
C1127 C1126 1.373 . S
C1127 C1128 1.409 . S
C1127 H1154 0.931 . S
C1128 C1123 1.356 . S
C1128 C1127 1.409 . S
C1128 H1155 0.930 . S
C1129 O1142 1.270 . S
C1129 O1143 1.248 . S
C1130 O1144 1.267 . S
C1130 O1145 1.278 . S
C1131 Pr1121 2.880 . S
C1131 C1132 1.491 . S
C1131 O1146 1.254 . S
C1131 O1147 1.225 . S
C1132 C1131 1.491 . S
C1132 C1133 1.392 . S
C1132 C1137 1.356 . S
C1133 C1132 1.392 . S
C1133 C1134 1.368 . S
C1133 H1156 0.929 . S
C1134 C1133 1.368 . S
C1134 C1135 1.386 . S
C1134 H1157 0.929 . S
C1135 C1134 1.386 . S
C1135 C1136 1.373 . S
C1136 C1135 1.373 . S
C1136 C1137 1.409 . S
C1136 H1158 0.931 . S
C1137 C1132 1.356 . S
C1137 C1136 1.409 . S
C1137 H1159 0.930 . S
C1138 O1148 1.270 . S
C1138 O1149 1.248 . S
C1139 O1150 1.267 . S
C1139 O1151 1.278 . S
O1140 Pr1120 2.562 . S
O1140 C1122 1.254 . S
O1141 Pr1120 2.490 . S
O1141 C1122 1.225 . S
O1142 Pr1120 2.695 . S
O1142 Pr1121 2.436 . S
O1142 C1129 1.270 . S
O1143 Pr1120 2.512 . S
O1143 C1129 1.248 . S
O1144 Pr1121 2.438 . S
O1144 C1130 1.267 . S
O1145 Pr1120 2.437 . S
O1145 C1130 1.278 . S
O1146 Pr1121 2.562 . S
O1146 C1131 1.254 . S
O1147 Pr1121 2.490 . S
O1147 C1131 1.225 . S
O1148 Pr1120 2.436 . S
O1148 Pr1121 2.695 . S
O1148 C1138 1.270 . S
O1149 Pr1121 2.512 . S
O1149 C1138 1.248 . S
O1150 Pr1120 2.438 . S
O1150 C1139 1.267 . S
O1151 Pr1121 2.437 . S
O1151 C1139 1.278 . S
H1152 C1124 0.929 . S
H1153 C1125 0.929 . S
H1154 C1127 0.931 . S
H1155 C1128 0.930 . S
H1156 C1133 0.929 . S
H1157 C1134 0.929 . S
H1158 C1136 0.931 . S
H1159 C1137 0.930 . S
Pr1160 C1162 2.880 . S
Pr1160 O1180 2.562 . S
Pr1160 O1181 2.490 . S
Pr1160 O1182 2.695 . S
Pr1160 O1183 2.512 . S
Pr1160 O1185 2.437 . S
Pr1160 O1188 2.436 . S
Pr1160 O1190 2.438 . S
Pr1161 C1171 2.880 . S
Pr1161 O1182 2.436 1_655 S
Pr1161 O1184 2.438 . S
Pr1161 O1186 2.562 . S
Pr1161 O1187 2.490 . S
Pr1161 O1188 2.695 1_655 S
Pr1161 O1189 2.512 1_655 S
Pr1161 O1191 2.437 1_655 S
C1162 Pr1160 2.880 . S
C1162 C1163 1.491 . S
C1162 O1180 1.254 . S
C1162 O1181 1.225 . S
C1163 C1162 1.491 . S
C1163 C1164 1.392 . S
C1163 C1168 1.356 . S
C1164 C1163 1.392 . S
C1164 C1165 1.368 . S
C1164 H1192 0.929 . S
C1165 C1164 1.368 . S
C1165 C1166 1.386 . S
C1165 H1193 0.929 . S
C1166 C1165 1.386 . S
C1166 C1167 1.373 . S
C1167 C1166 1.373 . S
C1167 C1168 1.409 . S
C1167 H1194 0.931 . S
C1168 C1163 1.356 . S
C1168 C1167 1.409 . S
C1168 H1195 0.930 . S
C1169 O1182 1.270 . S
C1169 O1183 1.248 . S
C1170 O1184 1.267 1_455 S
C1170 O1185 1.278 . S
C1171 Pr1161 2.880 . S
C1171 C1172 1.491 . S
C1171 O1186 1.254 . S
C1171 O1187 1.225 . S
C1172 C1171 1.491 . S
C1172 C1173 1.392 . S
C1172 C1177 1.356 . S
C1173 C1172 1.392 . S
C1173 C1174 1.368 . S
C1173 H1196 0.929 . S
C1174 C1173 1.368 . S
C1174 C1175 1.386 . S
C1174 H1197 0.929 . S
C1175 C1174 1.386 . S
C1175 C1176 1.373 . S
C1176 C1175 1.373 . S
C1176 C1177 1.409 . S
C1176 H1198 0.931 . S
C1177 C1172 1.356 . S
C1177 C1176 1.409 . S
C1177 H1199 0.930 . S
C1178 O1188 1.270 . S
C1178 O1189 1.248 . S
C1179 O1190 1.267 . S
C1179 O1191 1.278 . S
O1180 Pr1160 2.562 . S
O1180 C1162 1.254 . S
O1181 Pr1160 2.490 . S
O1181 C1162 1.225 . S
O1182 Pr1160 2.695 . S
O1182 Pr1161 2.436 1_455 S
O1182 C1169 1.270 . S
O1183 Pr1160 2.512 . S
O1183 C1169 1.248 . S
O1184 Pr1161 2.438 . S
O1184 C1170 1.267 1_655 S
O1185 Pr1160 2.437 . S
O1185 C1170 1.278 . S
O1186 Pr1161 2.562 . S
O1186 C1171 1.254 . S
O1187 Pr1161 2.490 . S
O1187 C1171 1.225 . S
O1188 Pr1160 2.436 . S
O1188 Pr1161 2.695 1_455 S
O1188 C1178 1.270 . S
O1189 Pr1161 2.512 1_455 S
O1189 C1178 1.248 . S
O1190 Pr1160 2.438 . S
O1190 C1179 1.267 . S
O1191 Pr1161 2.437 1_455 S
O1191 C1179 1.278 . S
H1192 C1164 0.929 . S
H1193 C1165 0.929 . S
H1194 C1167 0.931 . S
H1195 C1168 0.930 . S
H1196 C1173 0.929 . S
H1197 C1174 0.929 . S
H1198 C1176 0.931 . S
H1199 C1177 0.930 . S
Pr1200 C1202 2.880 . S
Pr1200 O1220 2.562 . S
Pr1200 O1221 2.490 . S
Pr1200 O1222 2.695 . S
Pr1200 O1223 2.512 . S
Pr1200 O1225 2.437 . S
Pr1200 O1228 2.436 . S
Pr1200 O1230 2.438 . S
Pr1201 C1211 2.880 . S
Pr1201 O1222 2.436 . S
Pr1201 O1224 2.438 . S
Pr1201 O1226 2.562 . S
Pr1201 O1227 2.490 . S
Pr1201 O1228 2.695 . S
Pr1201 O1229 2.512 . S
Pr1201 O1231 2.437 . S
C1202 Pr1200 2.880 . S
C1202 C1203 1.491 . S
C1202 O1220 1.254 . S
C1202 O1221 1.225 . S
C1203 C1202 1.491 . S
C1203 C1204 1.392 . S
C1203 C1208 1.356 . S
C1204 C1203 1.392 . S
C1204 C1205 1.368 . S
C1204 H1232 0.929 . S
C1205 C1204 1.368 . S
C1205 C1206 1.386 . S
C1205 H1233 0.929 . S
C1206 C1205 1.386 . S
C1206 C1207 1.373 . S
C1207 C1206 1.373 . S
C1207 C1208 1.409 . S
C1207 H1234 0.931 . S
C1208 C1203 1.356 . S
C1208 C1207 1.409 . S
C1208 H1235 0.930 . S
C1209 O1222 1.270 . S
C1209 O1223 1.248 . S
C1210 O1224 1.267 . S
C1210 O1225 1.278 . S
C1211 Pr1201 2.880 . S
C1211 C1212 1.491 . S
C1211 O1226 1.254 . S
C1211 O1227 1.225 . S
C1212 C1211 1.491 . S
C1212 C1213 1.392 . S
C1212 C1217 1.356 . S
C1213 C1212 1.392 . S
C1213 C1214 1.368 . S
C1213 H1236 0.929 . S
C1214 C1213 1.368 . S
C1214 C1215 1.386 . S
C1214 H1237 0.929 . S
C1215 C1214 1.386 . S
C1215 C1216 1.373 . S
C1216 C1215 1.373 . S
C1216 C1217 1.409 . S
C1216 H1238 0.931 . S
C1217 C1212 1.356 . S
C1217 C1216 1.409 . S
C1217 H1239 0.930 . S
C1218 O1228 1.270 . S
C1218 O1229 1.248 . S
C1219 O1230 1.267 . S
C1219 O1231 1.278 . S
O1220 Pr1200 2.562 . S
O1220 C1202 1.254 . S
O1221 Pr1200 2.490 . S
O1221 C1202 1.225 . S
O1222 Pr1200 2.695 . S
O1222 Pr1201 2.436 . S
O1222 C1209 1.270 . S
O1223 Pr1200 2.512 . S
O1223 C1209 1.248 . S
O1224 Pr1201 2.438 . S
O1224 C1210 1.267 . S
O1225 Pr1200 2.437 . S
O1225 C1210 1.278 . S
O1226 Pr1201 2.562 . S
O1226 C1211 1.254 . S
O1227 Pr1201 2.490 . S
O1227 C1211 1.225 . S
O1228 Pr1200 2.436 . S
O1228 Pr1201 2.695 . S
O1228 C1218 1.270 . S
O1229 Pr1201 2.512 . S
O1229 C1218 1.248 . S
O1230 Pr1200 2.438 . S
O1230 C1219 1.267 . S
O1231 Pr1201 2.437 . S
O1231 C1219 1.278 . S
H1232 C1204 0.929 . S
H1233 C1205 0.929 . S
H1234 C1207 0.931 . S
H1235 C1208 0.930 . S
H1236 C1213 0.929 . S
H1237 C1214 0.929 . S
H1238 C1216 0.931 . S
H1239 C1217 0.930 . S
Pr1240 C1242 2.880 . S
Pr1240 O1260 2.562 . S
Pr1240 O1261 2.490 . S
Pr1240 O1262 2.695 . S
Pr1240 O1263 2.512 . S
Pr1240 O1265 2.437 . S
Pr1240 O1268 2.436 . S
Pr1240 O1270 2.438 . S
Pr1241 C1251 2.880 . S
Pr1241 O1262 2.436 . S
Pr1241 O1264 2.438 . S
Pr1241 O1266 2.562 . S
Pr1241 O1267 2.490 . S
Pr1241 O1268 2.695 . S
Pr1241 O1269 2.512 . S
Pr1241 O1271 2.437 . S
C1242 Pr1240 2.880 . S
C1242 C1243 1.491 . S
C1242 O1260 1.254 . S
C1242 O1261 1.225 . S
C1243 C1242 1.491 . S
C1243 C1244 1.392 . S
C1243 C1248 1.356 . S
C1244 C1243 1.392 . S
C1244 C1245 1.368 . S
C1244 H1272 0.929 . S
C1245 C1244 1.368 . S
C1245 C1246 1.386 . S
C1245 H1273 0.929 . S
C1246 C1245 1.386 . S
C1246 C1247 1.373 . S
C1247 C1246 1.373 . S
C1247 C1248 1.409 . S
C1247 H1274 0.931 . S
C1248 C1243 1.356 . S
C1248 C1247 1.409 . S
C1248 H1275 0.930 . S
C1249 O1262 1.270 . S
C1249 O1263 1.248 . S
C1250 O1264 1.267 . S
C1250 O1265 1.278 . S
C1251 Pr1241 2.880 . S
C1251 C1252 1.491 . S
C1251 O1266 1.254 . S
C1251 O1267 1.225 . S
C1252 C1251 1.491 . S
C1252 C1253 1.392 . S
C1252 C1257 1.356 . S
C1253 C1252 1.392 . S
C1253 C1254 1.368 . S
C1253 H1276 0.929 . S
C1254 C1253 1.368 . S
C1254 C1255 1.386 . S
C1254 H1277 0.929 . S
C1255 C1254 1.386 . S
C1255 C1256 1.373 . S
C1256 C1255 1.373 . S
C1256 C1257 1.409 . S
C1256 H1278 0.931 . S
C1257 C1252 1.356 . S
C1257 C1256 1.409 . S
C1257 H1279 0.930 . S
C1258 O1268 1.270 . S
C1258 O1269 1.248 . S
C1259 O1270 1.267 . S
C1259 O1271 1.278 . S
O1260 Pr1240 2.562 . S
O1260 C1242 1.254 . S
O1261 Pr1240 2.490 . S
O1261 C1242 1.225 . S
O1262 Pr1240 2.695 . S
O1262 Pr1241 2.436 . S
O1262 C1249 1.270 . S
O1263 Pr1240 2.512 . S
O1263 C1249 1.248 . S
O1264 Pr1241 2.438 . S
O1264 C1250 1.267 . S
O1265 Pr1240 2.437 . S
O1265 C1250 1.278 . S
O1266 Pr1241 2.562 . S
O1266 C1251 1.254 . S
O1267 Pr1241 2.490 . S
O1267 C1251 1.225 . S
O1268 Pr1240 2.436 . S
O1268 Pr1241 2.695 . S
O1268 C1258 1.270 . S
O1269 Pr1241 2.512 . S
O1269 C1258 1.248 . S
O1270 Pr1240 2.438 . S
O1270 C1259 1.267 . S
O1271 Pr1241 2.437 . S
O1271 C1259 1.278 . S
H1272 C1244 0.929 . S
H1273 C1245 0.929 . S
H1274 C1247 0.931 . S
H1275 C1248 0.930 . S
H1276 C1253 0.929 . S
H1277 C1254 0.929 . S
H1278 C1256 0.931 . S
H1279 C1257 0.930 . S
C1280 C1281 1.387 . S
C1280 H1284 0.950 . S
C1280 C1289 1.390 . S
C1281 C1280 1.387 . S
C1281 C1283 1.387 . S
H1282 C1289 0.950 . S
C1283 C1281 1.387 . S
C1283 C1285 1.390 . S
C1283 H1287 0.950 . S
H1284 C1280 0.950 . S
C1285 C1283 1.390 . S
C1285 C1286 1.387 . S
C1285 H1288 0.950 . S
C1286 C1285 1.387 . S
C1286 C1289 1.387 . S
H1287 C1283 0.950 . S
H1288 C1285 0.950 . S
C1289 C1280 1.390 . S
C1289 H1282 0.950 . S
C1289 C1286 1.387 . S
C1290 C1291 1.387 . S
C1290 H1294 0.950 . S
C1290 C1299 1.390 . S
C1291 C1290 1.387 . S
C1291 C1293 1.387 . S
H1292 C1299 0.950 . S
C1293 C1291 1.387 . S
C1293 C1295 1.390 . S
C1293 H1297 0.950 . S
H1294 C1290 0.950 . S
C1295 C1293 1.390 . S
C1295 C1296 1.387 . S
C1295 H1298 0.950 . S
C1296 C1295 1.387 . S
C1296 C1299 1.387 . S
H1297 C1293 0.950 . S
H1298 C1295 0.950 . S
C1299 C1290 1.390 . S
C1299 H1292 0.950 . S
C1299 C1296 1.387 . S
C1300 C1301 1.387 . S
C1300 H1304 0.950 . S
C1300 C1309 1.390 . S
C1301 C1300 1.387 . S
C1301 C1303 1.387 . S
H1302 C1309 0.950 . S
C1303 C1301 1.387 . S
C1303 C1305 1.390 . S
C1303 H1307 0.950 . S
H1304 C1300 0.950 . S
C1305 C1303 1.390 . S
C1305 C1306 1.387 . S
C1305 H1308 0.950 . S
C1306 C1305 1.387 . S
C1306 C1309 1.387 . S
H1307 C1303 0.950 . S
H1308 C1305 0.950 . S
C1309 C1300 1.390 . S
C1309 H1302 0.950 . S
C1309 C1306 1.387 . S
C1310 C1311 1.387 . S
C1310 H1314 0.950 . S
C1310 C1319 1.390 . S
C1311 C1310 1.387 . S
C1311 C1313 1.387 . S
H1312 C1319 0.950 . S
C1313 C1311 1.387 . S
C1313 C1315 1.390 . S
C1313 H1317 0.950 . S
H1314 C1310 0.950 . S
C1315 C1313 1.390 . S
C1315 C1316 1.387 . S
C1315 H1318 0.950 . S
C1316 C1315 1.387 . S
C1316 C1319 1.387 . S
H1317 C1313 0.950 . S
H1318 C1315 0.950 . S
C1319 C1310 1.390 . S
C1319 H1312 0.950 . S
C1319 C1316 1.387 . S
C1320 C1321 1.387 . S
C1320 H1324 0.950 . S
C1320 C1329 1.390 . S
C1321 C1320 1.387 . S
C1321 C1323 1.387 . S
H1322 C1329 0.950 . S
C1323 C1321 1.387 . S
C1323 C1325 1.390 . S
C1323 H1327 0.950 . S
H1324 C1320 0.950 . S
C1325 C1323 1.390 . S
C1325 C1326 1.387 . S
C1325 H1328 0.950 . S
C1326 C1325 1.387 . S
C1326 C1329 1.387 . S
H1327 C1323 0.950 . S
H1328 C1325 0.950 . S
C1329 C1320 1.390 . S
C1329 H1322 0.950 . S
C1329 C1326 1.387 . S
C1330 C1331 1.387 . S
C1330 H1334 0.950 . S
C1330 C1339 1.390 . S
C1331 C1330 1.387 . S
C1331 C1333 1.387 . S
H1332 C1339 0.950 . S
C1333 C1331 1.387 . S
C1333 C1335 1.390 . S
C1333 H1337 0.950 . S
H1334 C1330 0.950 . S
C1335 C1333 1.390 . S
C1335 C1336 1.387 . S
C1335 H1338 0.950 . S
C1336 C1335 1.387 . S
C1336 C1339 1.387 . S
H1337 C1333 0.950 . S
H1338 C1335 0.950 . S
C1339 C1330 1.390 . S
C1339 H1332 0.950 . S
C1339 C1336 1.387 . S
C1340 C1341 1.387 . S
C1340 H1344 0.950 . S
C1340 C1349 1.390 . S
C1341 C1340 1.387 . S
C1341 C1343 1.387 . S
H1342 C1349 0.950 . S
C1343 C1341 1.387 . S
C1343 C1345 1.390 . S
C1343 H1347 0.950 . S
H1344 C1340 0.950 . S
C1345 C1343 1.390 . S
C1345 C1346 1.387 . S
C1345 H1348 0.950 . S
C1346 C1345 1.387 . S
C1346 C1349 1.387 . S
H1347 C1343 0.950 . S
H1348 C1345 0.950 . S
C1349 C1340 1.390 . S
C1349 H1342 0.950 . S
C1349 C1346 1.387 . S
C1350 C1351 1.387 . S
C1350 H1354 0.950 . S
C1350 C1359 1.390 . S
C1351 C1350 1.387 . S
C1351 C1353 1.387 . S
H1352 C1359 0.950 . S
C1353 C1351 1.387 . S
C1353 C1355 1.390 . S
C1353 H1357 0.950 . S
H1354 C1350 0.950 . S
C1355 C1353 1.390 . S
C1355 C1356 1.387 . S
C1355 H1358 0.950 . S
C1356 C1355 1.387 . S
C1356 C1359 1.387 . S
H1357 C1353 0.950 . S
H1358 C1355 0.950 . S
C1359 C1350 1.390 . S
C1359 H1352 0.950 . S
C1359 C1356 1.387 . S
C1360 C1361 1.387 . S
C1360 H1364 0.950 . S
C1360 C1369 1.390 . S
C1361 C1360 1.387 . S
C1361 C1363 1.387 . S
H1362 C1369 0.950 . S
C1363 C1361 1.387 . S
C1363 C1365 1.390 . S
C1363 H1367 0.950 . S
H1364 C1360 0.950 . S
C1365 C1363 1.390 . S
C1365 C1366 1.387 . S
C1365 H1368 0.950 . S
C1366 C1365 1.387 . S
C1366 C1369 1.387 . S
H1367 C1363 0.950 . S
H1368 C1365 0.950 . S
C1369 C1360 1.390 . S
C1369 H1362 0.950 . S
C1369 C1366 1.387 . S
C1370 C1371 1.387 . S
C1370 H1374 0.950 . S
C1370 C1379 1.390 . S
C1371 C1370 1.387 . S
C1371 C1373 1.387 . S
H1372 C1379 0.950 . S
C1373 C1371 1.387 . S
C1373 C1375 1.390 . S
C1373 H1377 0.950 . S
H1374 C1370 0.950 . S
C1375 C1373 1.390 . S
C1375 C1376 1.387 . S
C1375 H1378 0.950 . S
C1376 C1375 1.387 . S
C1376 C1379 1.387 . S
H1377 C1373 0.950 . S
H1378 C1375 0.950 . S
C1379 C1370 1.390 . S
C1379 H1372 0.950 . S
C1379 C1376 1.387 . S
C1380 C1381 1.387 . S
C1380 H1384 0.950 . S
C1380 C1389 1.390 . S
C1381 C1380 1.387 . S
C1381 C1383 1.387 . S
H1382 C1389 0.950 . S
C1383 C1381 1.387 . S
C1383 C1385 1.390 . S
C1383 H1387 0.950 . S
H1384 C1380 0.950 . S
C1385 C1383 1.390 . S
C1385 C1386 1.387 . S
C1385 H1388 0.950 . S
C1386 C1385 1.387 . S
C1386 C1389 1.387 . S
H1387 C1383 0.950 . S
H1388 C1385 0.950 . S
C1389 C1380 1.390 . S
C1389 H1382 0.950 . S
C1389 C1386 1.387 . S
C1390 C1391 1.387 . S
C1390 H1394 0.950 . S
C1390 C1399 1.390 . S
C1391 C1390 1.387 . S
C1391 C1393 1.387 . S
H1392 C1399 0.950 . S
C1393 C1391 1.387 . S
C1393 C1395 1.390 . S
C1393 H1397 0.950 . S
H1394 C1390 0.950 . S
C1395 C1393 1.390 . S
C1395 C1396 1.387 . S
C1395 H1398 0.950 . S
C1396 C1395 1.387 . S
C1396 C1399 1.387 . S
H1397 C1393 0.950 . S
H1398 C1395 0.950 . S
C1399 C1390 1.390 . S
C1399 H1392 0.950 . S
C1399 C1396 1.387 . S
C1400 C1401 1.387 . S
C1400 H1404 0.950 . S
C1400 C1409 1.390 . S
C1401 C1400 1.387 . S
C1401 C1403 1.387 . S
H1402 C1409 0.950 . S
C1403 C1401 1.387 . S
C1403 C1405 1.390 . S
C1403 H1407 0.950 . S
H1404 C1400 0.950 . S
C1405 C1403 1.390 . S
C1405 C1406 1.387 . S
C1405 H1408 0.950 . S
C1406 C1405 1.387 . S
C1406 C1409 1.387 . S
H1407 C1403 0.950 . S
H1408 C1405 0.950 . S
C1409 C1400 1.390 . S
C1409 H1402 0.950 . S
C1409 C1406 1.387 . S
C1410 C1411 1.387 . S
C1410 H1414 0.950 . S
C1410 C1419 1.390 . S
C1411 C1410 1.387 . S
C1411 C1413 1.387 . S
H1412 C1419 0.950 . S
C1413 C1411 1.387 . S
C1413 C1415 1.390 . S
C1413 H1417 0.950 . S
H1414 C1410 0.950 . S
C1415 C1413 1.390 . S
C1415 C1416 1.387 . S
C1415 H1418 0.950 . S
C1416 C1415 1.387 . S
C1416 C1419 1.387 . S
H1417 C1413 0.950 . S
H1418 C1415 0.950 . S
C1419 C1410 1.390 . S
C1419 H1412 0.950 . S
C1419 C1416 1.387 . S
C1420 C1421 1.387 . S
C1420 H1424 0.950 . S
C1420 C1429 1.390 . S
C1421 C1420 1.387 . S
C1421 C1423 1.387 . S
H1422 C1429 0.950 . S
C1423 C1421 1.387 . S
C1423 C1425 1.390 . S
C1423 H1427 0.950 . S
H1424 C1420 0.950 . S
C1425 C1423 1.390 . S
C1425 C1426 1.387 . S
C1425 H1428 0.950 . S
C1426 C1425 1.387 . S
C1426 C1429 1.387 . S
H1427 C1423 0.950 . S
H1428 C1425 0.950 . S
C1429 C1420 1.390 . S
C1429 H1422 0.950 . S
C1429 C1426 1.387 . S
C1430 C1431 1.387 . S
C1430 H1434 0.950 . S
C1430 C1439 1.390 . S
C1431 C1430 1.387 . S
C1431 C1433 1.387 . S
H1432 C1439 0.950 . S
C1433 C1431 1.387 . S
C1433 C1435 1.390 . S
C1433 H1437 0.950 . S
H1434 C1430 0.950 . S
C1435 C1433 1.390 . S
C1435 C1436 1.387 . S
C1435 H1438 0.950 . S
C1436 C1435 1.387 . S
C1436 C1439 1.387 . S
H1437 C1433 0.950 . S
H1438 C1435 0.950 . S
C1439 C1430 1.390 . S
C1439 H1432 0.950 . S
C1439 C1436 1.387 . S
C1440 C1441 1.387 . S
C1440 H1444 0.950 . S
C1440 C1449 1.390 . S
C1441 C1440 1.387 . S
C1441 C1443 1.387 . S
H1442 C1449 0.950 . S
C1443 C1441 1.387 . S
C1443 C1445 1.390 . S
C1443 H1447 0.950 . S
H1444 C1440 0.950 . S
C1445 C1443 1.390 . S
C1445 C1446 1.387 . S
C1445 H1448 0.950 . S
C1446 C1445 1.387 . S
C1446 C1449 1.387 . S
H1447 C1443 0.950 . S
H1448 C1445 0.950 . S
C1449 C1440 1.390 . S
C1449 H1442 0.950 . S
C1449 C1446 1.387 . S
C1450 C1451 1.387 . S
C1450 H1454 0.950 . S
C1450 C1459 1.390 . S
C1451 C1450 1.387 . S
C1451 C1453 1.387 . S
H1452 C1459 0.950 . S
C1453 C1451 1.387 . S
C1453 C1455 1.390 . S
C1453 H1457 0.950 . S
H1454 C1450 0.950 . S
C1455 C1453 1.390 . S
C1455 C1456 1.387 . S
C1455 H1458 0.950 . S
C1456 C1455 1.387 . S
C1456 C1459 1.387 . S
H1457 C1453 0.950 . S
H1458 C1455 0.950 . S
C1459 C1450 1.390 . S
C1459 H1452 0.950 . S
C1459 C1456 1.387 . S
C1460 C1461 1.387 . S
C1460 H1464 0.950 . S
C1460 C1469 1.390 . S
C1461 C1460 1.387 . S
C1461 C1463 1.387 . S
H1462 C1469 0.950 . S
C1463 C1461 1.387 . S
C1463 C1465 1.390 . S
C1463 H1467 0.950 . S
H1464 C1460 0.950 . S
C1465 C1463 1.390 . S
C1465 C1466 1.387 . S
C1465 H1468 0.950 . S
C1466 C1465 1.387 . S
C1466 C1469 1.387 . S
H1467 C1463 0.950 . S
H1468 C1465 0.950 . S
C1469 C1460 1.390 . S
C1469 H1462 0.950 . S
C1469 C1466 1.387 . S
C1470 C1471 1.387 . S
C1470 H1474 0.950 . S
C1470 C1479 1.390 . S
C1471 C1470 1.387 . S
C1471 C1473 1.387 . S
H1472 C1479 0.950 . S
C1473 C1471 1.387 . S
C1473 C1475 1.390 . S
C1473 H1477 0.950 . S
H1474 C1470 0.950 . S
C1475 C1473 1.390 . S
C1475 C1476 1.387 . S
C1475 H1478 0.950 . S
C1476 C1475 1.387 . S
C1476 C1479 1.387 . S
H1477 C1473 0.950 . S
H1478 C1475 0.950 . S
C1479 C1470 1.390 . S
C1479 H1472 0.950 . S
C1479 C1476 1.387 . S
C1480 C1481 1.387 . S
C1480 H1484 0.950 . S
C1480 C1489 1.390 . S
C1481 C1480 1.387 . S
C1481 C1483 1.387 . S
H1482 C1489 0.950 . S
C1483 C1481 1.387 . S
C1483 C1485 1.390 . S
C1483 H1487 0.950 . S
H1484 C1480 0.950 . S
C1485 C1483 1.390 . S
C1485 C1486 1.387 . S
C1485 H1488 0.950 . S
C1486 C1485 1.387 . S
C1486 C1489 1.387 . S
H1487 C1483 0.950 . S
H1488 C1485 0.950 . S
C1489 C1480 1.390 . S
C1489 H1482 0.950 . S
C1489 C1486 1.387 . S
C1490 C1491 1.387 . S
C1490 H1494 0.950 . S
C1490 C1499 1.390 . S
C1491 C1490 1.387 . S
C1491 C1493 1.387 . S
H1492 C1499 0.950 . S
C1493 C1491 1.387 . S
C1493 C1495 1.390 . S
C1493 H1497 0.950 . S
H1494 C1490 0.950 . S
C1495 C1493 1.390 . S
C1495 C1496 1.387 . S
C1495 H1498 0.950 . S
C1496 C1495 1.387 . S
C1496 C1499 1.387 . S
H1497 C1493 0.950 . S
H1498 C1495 0.950 . S
C1499 C1490 1.390 . S
C1499 H1492 0.950 . S
C1499 C1496 1.387 . S
C1500 C1501 1.387 . S
C1500 H1504 0.950 . S
C1500 C1509 1.390 . S
C1501 C1500 1.387 . S
C1501 C1503 1.387 . S
H1502 C1509 0.950 . S
C1503 C1501 1.387 . S
C1503 C1505 1.390 . S
C1503 H1507 0.950 . S
H1504 C1500 0.950 . S
C1505 C1503 1.390 . S
C1505 C1506 1.387 . S
C1505 H1508 0.950 . S
C1506 C1505 1.387 . S
C1506 C1509 1.387 . S
H1507 C1503 0.950 . S
H1508 C1505 0.950 . S
C1509 C1500 1.390 . S
C1509 H1502 0.950 . S
C1509 C1506 1.387 . S
C1510 C1511 1.387 . S
C1510 H1514 0.950 . S
C1510 C1519 1.390 . S
C1511 C1510 1.387 . S
C1511 C1513 1.387 . S
H1512 C1519 0.950 . S
C1513 C1511 1.387 . S
C1513 C1515 1.390 . S
C1513 H1517 0.950 . S
H1514 C1510 0.950 . S
C1515 C1513 1.390 . S
C1515 C1516 1.387 . S
C1515 H1518 0.950 . S
C1516 C1515 1.387 . S
C1516 C1519 1.387 . S
H1517 C1513 0.950 . S
H1518 C1515 0.950 . S
C1519 C1510 1.390 . S
C1519 H1512 0.950 . S
C1519 C1516 1.387 . S
C1520 C1521 1.387 . S
C1520 H1524 0.950 . S
C1520 C1529 1.390 . S
C1521 C1520 1.387 . S
C1521 C1523 1.387 . S
H1522 C1529 0.950 . S
C1523 C1521 1.387 . S
C1523 C1525 1.390 . S
C1523 H1527 0.950 . S
H1524 C1520 0.950 . S
C1525 C1523 1.390 . S
C1525 C1526 1.387 . S
C1525 H1528 0.950 . S
C1526 C1525 1.387 . S
C1526 C1529 1.387 . S
H1527 C1523 0.950 . S
H1528 C1525 0.950 . S
C1529 C1520 1.390 . S
C1529 H1522 0.950 . S
C1529 C1526 1.387 . S
C1530 C1531 1.387 . S
C1530 H1534 0.950 . S
C1530 C1539 1.390 . S
C1531 C1530 1.387 . S
C1531 C1533 1.387 . S
H1532 C1539 0.950 . S
C1533 C1531 1.387 . S
C1533 C1535 1.390 . S
C1533 H1537 0.950 . S
H1534 C1530 0.950 . S
C1535 C1533 1.390 . S
C1535 C1536 1.387 . S
C1535 H1538 0.950 . S
C1536 C1535 1.387 . S
C1536 C1539 1.387 . S
H1537 C1533 0.950 . S
H1538 C1535 0.950 . S
C1539 C1530 1.390 . S
C1539 H1532 0.950 . S
C1539 C1536 1.387 . S
C1540 C1541 1.387 . S
C1540 H1544 0.950 . S
C1540 C1549 1.390 . S
C1541 C1540 1.387 . S
C1541 C1543 1.387 . S
H1542 C1549 0.950 . S
C1543 C1541 1.387 . S
C1543 C1545 1.390 . S
C1543 H1547 0.950 . S
H1544 C1540 0.950 . S
C1545 C1543 1.390 . S
C1545 C1546 1.387 . S
C1545 H1548 0.950 . S
C1546 C1545 1.387 . S
C1546 C1549 1.387 . S
H1547 C1543 0.950 . S
H1548 C1545 0.950 . S
C1549 C1540 1.390 . S
C1549 H1542 0.950 . S
C1549 C1546 1.387 . S
C1550 C1551 1.387 . S
C1550 H1554 0.950 . S
C1550 C1559 1.390 . S
C1551 C1550 1.387 . S
C1551 C1553 1.387 . S
H1552 C1559 0.950 . S
C1553 C1551 1.387 . S
C1553 C1555 1.390 . S
C1553 H1557 0.950 . S
H1554 C1550 0.950 . S
C1555 C1553 1.390 . S
C1555 C1556 1.387 . S
C1555 H1558 0.950 . S
C1556 C1555 1.387 . S
C1556 C1559 1.387 . S
H1557 C1553 0.950 . S
H1558 C1555 0.950 . S
C1559 C1550 1.390 . S
C1559 H1552 0.950 . S
C1559 C1556 1.387 . S
C1560 C1561 1.387 . S
C1560 H1564 0.950 . S
C1560 C1569 1.390 . S
C1561 C1560 1.387 . S
C1561 C1563 1.387 . S
H1562 C1569 0.950 . S
C1563 C1561 1.387 . S
C1563 C1565 1.390 . S
C1563 H1567 0.950 . S
H1564 C1560 0.950 . S
C1565 C1563 1.390 . S
C1565 C1566 1.387 . S
C1565 H1568 0.950 . S
C1566 C1565 1.387 . S
C1566 C1569 1.387 . S
H1567 C1563 0.950 . S
H1568 C1565 0.950 . S
C1569 C1560 1.390 . S
C1569 H1562 0.950 . S
C1569 C1566 1.387 . S
C1570 C1571 1.387 . S
C1570 H1574 0.950 . S
C1570 C1579 1.390 . S
C1571 C1570 1.387 . S
C1571 C1573 1.387 . S
H1572 C1579 0.950 . S
C1573 C1571 1.387 . S
C1573 C1575 1.390 . S
C1573 H1577 0.950 . S
H1574 C1570 0.950 . S
C1575 C1573 1.390 . S
C1575 C1576 1.387 . S
C1575 H1578 0.950 . S
C1576 C1575 1.387 . S
C1576 C1579 1.387 . S
H1577 C1573 0.950 . S
H1578 C1575 0.950 . S
C1579 C1570 1.390 . S
C1579 H1572 0.950 . S
C1579 C1576 1.387 . S
C1580 C1581 1.387 . S
C1580 H1584 0.950 . S
C1580 C1589 1.390 . S
C1581 C1580 1.387 . S
C1581 C1583 1.387 . S
H1582 C1589 0.950 . S
C1583 C1581 1.387 . S
C1583 C1585 1.390 . S
C1583 H1587 0.950 . S
H1584 C1580 0.950 . S
C1585 C1583 1.390 . S
C1585 C1586 1.387 . S
C1585 H1588 0.950 . S
C1586 C1585 1.387 . S
C1586 C1589 1.387 . S
H1587 C1583 0.950 . S
H1588 C1585 0.950 . S
C1589 C1580 1.390 . S
C1589 H1582 0.950 . S
C1589 C1586 1.387 . S
C1590 C1591 1.387 . S
C1590 H1594 0.950 . S
C1590 C1599 1.390 . S
C1591 C1590 1.387 . S
C1591 C1593 1.387 . S
H1592 C1599 0.950 . S
C1593 C1591 1.387 . S
C1593 C1595 1.390 . S
C1593 H1597 0.950 . S
H1594 C1590 0.950 . S
C1595 C1593 1.390 . S
C1595 C1596 1.387 . S
C1595 H1598 0.950 . S
C1596 C1595 1.387 . S
C1596 C1599 1.387 . S
H1597 C1593 0.950 . S
H1598 C1595 0.950 . S
C1599 C1590 1.390 . S
C1599 H1592 0.950 . S
C1599 C1596 1.387 . S
C1600 C1601 1.387 . S
C1600 H1604 0.950 . S
C1600 C1609 1.390 1_455 S
C1601 C1600 1.387 . S
C1601 C1603 1.387 . S
H1602 C1609 0.950 . S
C1603 C1601 1.387 . S
C1603 C1605 1.390 1_455 S
C1603 H1607 0.950 . S
H1604 C1600 0.950 . S
C1605 C1603 1.390 1_655 S
C1605 C1606 1.387 . S
C1605 H1608 0.950 . S
C1606 C1605 1.387 . S
C1606 C1609 1.387 . S
H1607 C1603 0.950 . S
H1608 C1605 0.950 . S
C1609 C1600 1.390 1_655 S
C1609 H1602 0.950 . S
C1609 C1606 1.387 . S
C1610 C1611 1.388 . S
C1610 H1614 0.951 . S
C1610 C1619 1.389 1_455 S
C1611 C1610 1.388 . S
C1611 C1613 1.388 . S
H1612 C1619 0.951 . S
C1613 C1611 1.388 . S
C1613 C1615 1.389 1_455 S
C1613 H1617 0.951 . S
H1614 C1610 0.951 . S
C1615 C1613 1.389 1_655 S
C1615 C1616 1.388 . S
C1615 H1618 0.951 . S
C1616 C1615 1.388 . S
C1616 C1619 1.388 . S
H1617 C1613 0.951 . S
H1618 C1615 0.951 . S
C1619 C1610 1.389 1_655 S
C1619 H1612 0.951 . S
C1619 C1616 1.388 . S
C1620 C1621 1.387 . S
C1620 H1624 0.950 . S
C1620 C1629 1.390 . S
C1621 C1620 1.387 . S
C1621 C1623 1.387 . S
H1622 C1629 0.950 . S
C1623 C1621 1.387 . S
C1623 C1625 1.390 . S
C1623 H1627 0.950 . S
H1624 C1620 0.950 . S
C1625 C1623 1.390 . S
C1625 C1626 1.387 . S
C1625 H1628 0.950 . S
C1626 C1625 1.387 . S
C1626 C1629 1.387 . S
H1627 C1623 0.950 . S
H1628 C1625 0.950 . S
C1629 C1620 1.390 . S
C1629 H1622 0.950 . S
C1629 C1626 1.387 . S
C1630 C1631 1.387 . S
C1630 H1634 0.950 . S
C1630 C1639 1.390 . S
C1631 C1630 1.387 . S
C1631 C1633 1.387 . S
H1632 C1639 0.950 . S
C1633 C1631 1.387 . S
C1633 C1635 1.390 . S
C1633 H1637 0.950 . S
H1634 C1630 0.950 . S
C1635 C1633 1.390 . S
C1635 C1636 1.387 . S
C1635 H1638 0.950 . S
C1636 C1635 1.387 . S
C1636 C1639 1.387 . S
H1637 C1633 0.950 . S
H1638 C1635 0.950 . S
C1639 C1630 1.390 . S
C1639 H1632 0.950 . S
C1639 C1636 1.387 . S
C1640 C1641 1.387 . S
C1640 H1644 0.950 . S
C1640 C1649 1.390 1_655 S
C1641 C1640 1.387 . S
C1641 C1643 1.387 . S
H1642 C1649 0.950 . S
C1643 C1641 1.387 . S
C1643 C1645 1.390 1_655 S
C1643 H1647 0.950 . S
H1644 C1640 0.950 . S
C1645 C1643 1.390 1_455 S
C1645 C1646 1.387 . S
C1645 H1648 0.950 . S
C1646 C1645 1.387 . S
C1646 C1649 1.387 . S
H1647 C1643 0.950 . S
H1648 C1645 0.950 . S
C1649 C1640 1.390 1_455 S
C1649 H1642 0.950 . S
C1649 C1646 1.387 . S
C1650 C1651 1.387 . S
C1650 H1654 0.950 . S
C1650 C1659 1.390 . S
C1651 C1650 1.387 . S
C1651 C1653 1.387 . S
H1652 C1659 0.950 . S
C1653 C1651 1.387 . S
C1653 C1655 1.390 . S
C1653 H1657 0.950 . S
H1654 C1650 0.950 . S
C1655 C1653 1.390 . S
C1655 C1656 1.387 . S
C1655 H1658 0.950 . S
C1656 C1655 1.387 . S
C1656 C1659 1.387 . S
H1657 C1653 0.950 . S
H1658 C1655 0.950 . S
C1659 C1650 1.390 . S
C1659 H1652 0.950 . S
C1659 C1656 1.387 . S
C1660 C1661 1.387 . S
C1660 H1664 0.950 . S
C1660 C1669 1.390 . S
C1661 C1660 1.387 . S
C1661 C1663 1.387 . S
H1662 C1669 0.950 . S
C1663 C1661 1.387 . S
C1663 C1665 1.390 . S
C1663 H1667 0.950 . S
H1664 C1660 0.950 . S
C1665 C1663 1.390 . S
C1665 C1666 1.387 . S
C1665 H1668 0.950 . S
C1666 C1665 1.387 . S
C1666 C1669 1.387 . S
H1667 C1663 0.950 . S
H1668 C1665 0.950 . S
C1669 C1660 1.390 . S
C1669 H1662 0.950 . S
C1669 C1666 1.387 . S
C1670 C1671 1.388 . S
C1670 H1674 0.950 . S
C1670 C1679 1.390 1_655 S
C1671 C1670 1.388 . S
C1671 C1673 1.388 . S
H1672 C1679 0.950 . S
C1673 C1671 1.388 . S
C1673 C1675 1.390 1_655 S
C1673 H1677 0.950 . S
H1674 C1670 0.950 . S
C1675 C1673 1.390 1_455 S
C1675 C1676 1.388 . S
C1675 H1678 0.950 . S
C1676 C1675 1.388 . S
C1676 C1679 1.388 . S
H1677 C1673 0.950 . S
H1678 C1675 0.950 . S
C1679 C1670 1.390 1_455 S
C1679 H1672 0.950 . S
C1679 C1676 1.388 . S
C1680 C1681 1.387 . S
C1680 H1684 0.950 . S
C1680 C1689 1.390 1_455 S
C1681 C1680 1.387 . S
C1681 C1683 1.387 . S
H1682 C1689 0.950 . S
C1683 C1681 1.387 . S
C1683 C1685 1.390 1_455 S
C1683 H1687 0.950 . S
H1684 C1680 0.950 . S
C1685 C1683 1.390 1_655 S
C1685 C1686 1.387 . S
C1685 H1688 0.950 . S
C1686 C1685 1.387 . S
C1686 C1689 1.387 . S
H1687 C1683 0.950 . S
H1688 C1685 0.950 . S
C1689 C1680 1.390 1_655 S
C1689 H1682 0.950 . S
C1689 C1686 1.387 . S
C1690 C1691 1.388 . S
C1690 H1694 0.951 . S
C1690 C1699 1.389 1_455 S
C1691 C1690 1.388 . S
C1691 C1693 1.388 . S
H1692 C1699 0.951 . S
C1693 C1691 1.388 . S
C1693 C1695 1.389 1_455 S
C1693 H1697 0.951 . S
H1694 C1690 0.951 . S
C1695 C1693 1.389 1_655 S
C1695 C1696 1.388 . S
C1695 H1698 0.951 . S
C1696 C1695 1.388 . S
C1696 C1699 1.388 . S
H1697 C1693 0.951 . S
H1698 C1695 0.951 . S
C1699 C1690 1.389 1_655 S
C1699 H1692 0.951 . S
C1699 C1696 1.388 . S
C1700 C1701 1.387 . S
C1700 H1704 0.950 . S
C1700 C1709 1.390 . S
C1701 C1700 1.387 . S
C1701 C1703 1.387 . S
H1702 C1709 0.950 . S
C1703 C1701 1.387 . S
C1703 C1705 1.390 . S
C1703 H1707 0.950 . S
H1704 C1700 0.950 . S
C1705 C1703 1.390 . S
C1705 C1706 1.387 . S
C1705 H1708 0.950 . S
C1706 C1705 1.387 . S
C1706 C1709 1.387 . S
H1707 C1703 0.950 . S
H1708 C1705 0.950 . S
C1709 C1700 1.390 . S
C1709 H1702 0.950 . S
C1709 C1706 1.387 . S
C1710 C1711 1.387 . S
C1710 H1714 0.950 . S
C1710 C1719 1.390 . S
C1711 C1710 1.387 . S
C1711 C1713 1.387 . S
H1712 C1719 0.950 . S
C1713 C1711 1.387 . S
C1713 C1715 1.390 . S
C1713 H1717 0.950 . S
H1714 C1710 0.950 . S
C1715 C1713 1.390 . S
C1715 C1716 1.387 . S
C1715 H1718 0.950 . S
C1716 C1715 1.387 . S
C1716 C1719 1.387 . S
H1717 C1713 0.950 . S
H1718 C1715 0.950 . S
C1719 C1710 1.390 . S
C1719 H1712 0.950 . S
C1719 C1716 1.387 . S
C1720 C1721 1.387 . S
C1720 H1724 0.950 . S
C1720 C1729 1.390 1_455 S
C1721 C1720 1.387 . S
C1721 C1723 1.387 . S
H1722 C1729 0.950 . S
C1723 C1721 1.387 . S
C1723 C1725 1.390 1_455 S
C1723 H1727 0.950 . S
H1724 C1720 0.950 . S
C1725 C1723 1.390 1_655 S
C1725 C1726 1.387 . S
C1725 H1728 0.950 . S
C1726 C1725 1.387 . S
C1726 C1729 1.387 . S
H1727 C1723 0.950 . S
H1728 C1725 0.950 . S
C1729 C1720 1.390 1_655 S
C1729 H1722 0.950 . S
C1729 C1726 1.387 . S
C1730 C1731 1.387 . S
C1730 H1734 0.950 . S
C1730 C1739 1.390 . S
C1731 C1730 1.387 . S
C1731 C1733 1.387 . S
H1732 C1739 0.950 . S
C1733 C1731 1.387 . S
C1733 C1735 1.390 . S
C1733 H1737 0.950 . S
H1734 C1730 0.950 . S
C1735 C1733 1.390 . S
C1735 C1736 1.387 . S
C1735 H1738 0.950 . S
C1736 C1735 1.387 . S
C1736 C1739 1.387 . S
H1737 C1733 0.950 . S
H1738 C1735 0.950 . S
C1739 C1730 1.390 . S
C1739 H1732 0.950 . S
C1739 C1736 1.387 . S
C1740 C1741 1.387 . S
C1740 H1744 0.950 . S
C1740 C1749 1.390 . S
C1741 C1740 1.387 . S
C1741 C1743 1.387 . S
H1742 C1749 0.950 . S
C1743 C1741 1.387 . S
C1743 C1745 1.390 . S
C1743 H1747 0.950 . S
H1744 C1740 0.950 . S
C1745 C1743 1.390 . S
C1745 C1746 1.387 . S
C1745 H1748 0.950 . S
C1746 C1745 1.387 . S
C1746 C1749 1.387 . S
H1747 C1743 0.950 . S
H1748 C1745 0.950 . S
C1749 C1740 1.390 . S
C1749 H1742 0.950 . S
C1749 C1746 1.387 . S
C1750 C1751 1.388 . S
C1750 H1754 0.951 . S
C1750 C1759 1.389 1_455 S
C1751 C1750 1.388 . S
C1751 C1753 1.388 . S
H1752 C1759 0.951 . S
C1753 C1751 1.388 . S
C1753 C1755 1.389 1_455 S
C1753 H1757 0.951 . S
H1754 C1750 0.951 . S
C1755 C1753 1.389 1_655 S
C1755 C1756 1.388 . S
C1755 H1758 0.951 . S
C1756 C1755 1.388 . S
C1756 C1759 1.388 . S
H1757 C1753 0.951 . S
H1758 C1755 0.951 . S
C1759 C1750 1.389 1_655 S
C1759 H1752 0.951 . S
C1759 C1756 1.388 . S
C1760 C1761 1.387 . S
C1760 H1764 0.950 . S
C1760 C1769 1.390 . S
C1761 C1760 1.387 . S
C1761 C1763 1.387 . S
H1762 C1769 0.950 . S
C1763 C1761 1.387 . S
C1763 C1765 1.390 . S
C1763 H1767 0.950 . S
H1764 C1760 0.950 . S
C1765 C1763 1.390 . S
C1765 C1766 1.387 . S
C1765 H1768 0.950 . S
C1766 C1765 1.387 . S
C1766 C1769 1.387 . S
H1767 C1763 0.950 . S
H1768 C1765 0.950 . S
C1769 C1760 1.390 . S
C1769 H1762 0.950 . S
C1769 C1766 1.387 . S
C1770 C1771 1.387 1_445 S
C1770 H1774 0.950 . S
C1770 C1779 1.390 . S
C1771 C1770 1.387 1_665 S
C1771 C1773 1.387 . S
H1772 C1779 0.950 . S
C1773 C1771 1.387 . S
C1773 C1775 1.390 . S
C1773 H1777 0.950 . S
H1774 C1770 0.950 . S
C1775 C1773 1.390 . S
C1775 C1776 1.387 1_665 S
C1775 H1778 0.950 . S
C1776 C1775 1.387 1_445 S
C1776 C1779 1.387 . S
H1777 C1773 0.950 . S
H1778 C1775 0.950 . S
C1779 C1770 1.390 . S
C1779 H1772 0.950 . S
C1779 C1776 1.387 . S
C1780 C1781 1.387 . S
C1780 H1784 0.950 . S
C1780 C1789 1.390 . S
C1781 C1780 1.387 . S
C1781 C1783 1.387 . S
H1782 C1789 0.950 . S
C1783 C1781 1.387 . S
C1783 C1785 1.390 . S
C1783 H1787 0.950 . S
H1784 C1780 0.950 . S
C1785 C1783 1.390 . S
C1785 C1786 1.387 . S
C1785 H1788 0.950 . S
C1786 C1785 1.387 . S
C1786 C1789 1.387 . S
H1787 C1783 0.950 . S
H1788 C1785 0.950 . S
C1789 C1780 1.390 . S
C1789 H1782 0.950 . S
C1789 C1786 1.387 . S
C1790 C1791 1.387 . S
C1790 H1794 0.950 . S
C1790 C1799 1.390 1_554 S
C1791 C1790 1.387 . S
C1791 C1793 1.387 1_565 S
H1792 C1799 0.950 . S
C1793 C1791 1.387 1_545 S
C1793 C1795 1.390 1_554 S
C1793 H1797 0.950 . S
H1794 C1790 0.950 . S
C1795 C1793 1.390 1_556 S
C1795 C1796 1.387 . S
C1795 H1798 0.950 . S
C1796 C1795 1.387 . S
C1796 C1799 1.387 1_545 S
H1797 C1793 0.950 . S
H1798 C1795 0.950 . S
C1799 C1790 1.390 1_556 S
C1799 H1792 0.950 . S
C1799 C1796 1.387 1_565 S
C1800 C1801 1.387 . S
C1800 H1804 0.950 . S
C1800 C1809 1.390 . S
C1801 C1800 1.387 . S
C1801 C1803 1.387 . S
H1802 C1809 0.950 . S
C1803 C1801 1.387 . S
C1803 C1805 1.390 . S
C1803 H1807 0.950 . S
H1804 C1800 0.950 . S
C1805 C1803 1.390 . S
C1805 C1806 1.387 . S
C1805 H1808 0.950 . S
C1806 C1805 1.387 . S
C1806 C1809 1.387 . S
H1807 C1803 0.950 . S
H1808 C1805 0.950 . S
C1809 C1800 1.390 . S
C1809 H1802 0.950 . S
C1809 C1806 1.387 . S
C1810 C1811 1.387 . S
C1810 H1814 0.950 . S
C1810 C1819 1.390 . S
C1811 C1810 1.387 . S
C1811 C1813 1.387 1_565 S
H1812 C1819 0.950 . S
C1813 C1811 1.387 1_545 S
C1813 C1815 1.390 . S
C1813 H1817 0.950 . S
H1814 C1810 0.950 . S
C1815 C1813 1.390 . S
C1815 C1816 1.387 . S
C1815 H1818 0.950 . S
C1816 C1815 1.387 . S
C1816 C1819 1.387 1_545 S
H1817 C1813 0.950 . S
H1818 C1815 0.950 . S
C1819 C1810 1.390 . S
C1819 H1812 0.950 . S
C1819 C1816 1.387 1_565 S
C1820 C1821 1.387 . S
C1820 H1824 0.950 . S
C1820 C1829 1.390 . S
C1821 C1820 1.387 . S
C1821 C1823 1.387 . S
H1822 C1829 0.950 . S
C1823 C1821 1.387 . S
C1823 C1825 1.390 . S
C1823 H1827 0.950 . S
H1824 C1820 0.950 . S
C1825 C1823 1.390 . S
C1825 C1826 1.387 . S
C1825 H1828 0.950 . S
C1826 C1825 1.387 . S
C1826 C1829 1.387 . S
H1827 C1823 0.950 . S
H1828 C1825 0.950 . S
C1829 C1820 1.390 . S
C1829 H1822 0.950 . S
C1829 C1826 1.387 . S
C1830 C1831 1.387 1_545 S
C1830 H1834 0.950 . S
C1830 C1839 1.390 1_556 S
C1831 C1830 1.387 1_565 S
C1831 C1833 1.387 1_455 S
H1832 C1839 0.950 . S
C1833 C1831 1.387 1_655 S
C1833 C1835 1.390 1_556 S
C1833 H1837 0.950 . S
H1834 C1830 0.950 . S
C1835 C1833 1.390 1_554 S
C1835 C1836 1.387 1_565 S
C1835 H1838 0.950 . S
C1836 C1835 1.387 1_545 S
C1836 C1839 1.387 1_655 S
H1837 C1833 0.950 . S
H1838 C1835 0.950 . S
C1839 C1830 1.390 1_554 S
C1839 H1832 0.950 . S
C1839 C1836 1.387 1_455 S
C1840 C1841 1.387 . S
C1840 H1844 0.950 . S
C1840 C1849 1.390 . S
C1841 C1840 1.387 . S
C1841 C1843 1.387 . S
H1842 C1849 0.950 . S
C1843 C1841 1.387 . S
C1843 C1845 1.390 . S
C1843 H1847 0.950 . S
H1844 C1840 0.950 . S
C1845 C1843 1.390 . S
C1845 C1846 1.387 . S
C1845 H1848 0.950 . S
C1846 C1845 1.387 . S
C1846 C1849 1.387 . S
H1847 C1843 0.950 . S
H1848 C1845 0.950 . S
C1849 C1840 1.390 . S
C1849 H1842 0.950 . S
C1849 C1846 1.387 . S
C1850 C1851 1.387 . S
C1850 H1854 0.950 . S
C1850 C1859 1.390 . S
C1851 C1850 1.387 . S
C1851 C1853 1.387 . S
H1852 C1859 0.950 . S
C1853 C1851 1.387 . S
C1853 C1855 1.390 . S
C1853 H1857 0.950 . S
H1854 C1850 0.950 . S
C1855 C1853 1.390 . S
C1855 C1856 1.387 . S
C1855 H1858 0.950 . S
C1856 C1855 1.387 . S
C1856 C1859 1.387 . S
H1857 C1853 0.950 . S
H1858 C1855 0.950 . S
C1859 C1850 1.390 . S
C1859 H1852 0.950 . S
C1859 C1856 1.387 . S
C1860 C1861 1.387 . S
C1860 H1864 0.950 . S
C1860 C1869 1.390 . S
C1861 C1860 1.387 . S
C1861 C1863 1.387 . S
H1862 C1869 0.950 . S
C1863 C1861 1.387 . S
C1863 C1865 1.390 . S
C1863 H1867 0.950 . S
H1864 C1860 0.950 . S
C1865 C1863 1.390 . S
C1865 C1866 1.387 . S
C1865 H1868 0.950 . S
C1866 C1865 1.387 . S
C1866 C1869 1.387 . S
H1867 C1863 0.950 . S
H1868 C1865 0.950 . S
C1869 C1860 1.390 . S
C1869 H1862 0.950 . S
C1869 C1866 1.387 . S
C1870 C1871 1.387 . S
C1870 H1874 0.950 . S
C1870 C1879 1.390 . S
C1871 C1870 1.387 . S
C1871 C1873 1.387 . S
H1872 C1879 0.950 . S
C1873 C1871 1.387 . S
C1873 C1875 1.390 . S
C1873 H1877 0.950 . S
H1874 C1870 0.950 . S
C1875 C1873 1.390 . S
C1875 C1876 1.387 . S
C1875 H1878 0.950 . S
C1876 C1875 1.387 . S
C1876 C1879 1.387 . S
H1877 C1873 0.950 . S
H1878 C1875 0.950 . S
C1879 C1870 1.390 . S
C1879 H1872 0.950 . S
C1879 C1876 1.387 . S
C1880 C1881 1.387 . S
C1880 H1884 0.950 . S
C1880 C1889 1.390 1_554 S
C1881 C1880 1.387 . S
C1881 C1883 1.387 . S
H1882 C1889 0.950 . S
C1883 C1881 1.387 . S
C1883 C1885 1.390 1_554 S
C1883 H1887 0.950 . S
H1884 C1880 0.950 . S
C1885 C1883 1.390 1_556 S
C1885 C1886 1.387 . S
C1885 H1888 0.950 . S
C1886 C1885 1.387 . S
C1886 C1889 1.387 . S
H1887 C1883 0.950 . S
H1888 C1885 0.950 . S
C1889 C1880 1.390 1_556 S
C1889 H1882 0.950 . S
C1889 C1886 1.387 . S
C1890 C1891 1.388 . S
C1890 H1894 0.950 . S
C1890 C1899 1.389 1_655 S
C1891 C1890 1.388 . S
C1891 C1893 1.387 . S
H1892 C1899 0.950 . S
C1893 C1891 1.387 . S
C1893 C1895 1.389 1_655 S
C1893 H1897 0.950 . S
H1894 C1890 0.950 . S
C1895 C1893 1.389 1_455 S
C1895 C1896 1.388 . S
C1895 H1898 0.950 . S
C1896 C1895 1.388 . S
C1896 C1899 1.387 . S
H1897 C1893 0.950 . S
H1898 C1895 0.950 . S
C1899 C1890 1.389 1_455 S
C1899 H1892 0.950 . S
C1899 C1896 1.387 . S
C1900 C1901 1.387 1_655 S
C1900 H1904 0.950 . S
C1900 C1909 1.390 1_554 S
C1901 C1900 1.387 1_455 S
C1901 C1903 1.387 . S
H1902 C1909 0.950 . S
C1903 C1901 1.387 . S
C1903 C1905 1.390 1_554 S
C1903 H1907 0.950 . S
H1904 C1900 0.950 . S
C1905 C1903 1.390 1_556 S
C1905 C1906 1.387 1_455 S
C1905 H1908 0.950 . S
C1906 C1905 1.387 1_655 S
C1906 C1909 1.387 . S
H1907 C1903 0.950 . S
H1908 C1905 0.950 . S
C1909 C1900 1.390 1_556 S
C1909 H1902 0.950 . S
C1909 C1906 1.387 . S
C1910 C1911 1.387 . S
C1910 H1914 0.950 . S
C1910 C1919 1.390 . S
C1911 C1910 1.387 . S
C1911 C1913 1.387 . S
H1912 C1919 0.950 . S
C1913 C1911 1.387 . S
C1913 C1915 1.390 . S
C1913 H1917 0.950 . S
H1914 C1910 0.950 . S
C1915 C1913 1.390 . S
C1915 C1916 1.387 . S
C1915 H1918 0.950 . S
C1916 C1915 1.387 . S
C1916 C1919 1.387 . S
H1917 C1913 0.950 . S
H1918 C1915 0.950 . S
C1919 C1910 1.390 . S
C1919 H1912 0.950 . S
C1919 C1916 1.387 . S
C1920 C1921 1.387 . S
C1920 H1924 0.950 . S
C1920 C1929 1.390 . S
C1921 C1920 1.387 . S
C1921 C1923 1.387 . S
H1922 C1929 0.950 . S
C1923 C1921 1.387 . S
C1923 C1925 1.390 . S
C1923 H1927 0.950 . S
H1924 C1920 0.950 . S
C1925 C1923 1.390 . S
C1925 C1926 1.387 . S
C1925 H1928 0.950 . S
C1926 C1925 1.387 . S
C1926 C1929 1.387 . S
H1927 C1923 0.950 . S
H1928 C1925 0.950 . S
C1929 C1920 1.390 . S
C1929 H1922 0.950 . S
C1929 C1926 1.387 . S
C1930 C1931 1.387 . S
C1930 H1934 0.950 . S
C1930 C1939 1.390 . S
C1931 C1930 1.387 . S
C1931 C1933 1.387 . S
H1932 C1939 0.950 . S
C1933 C1931 1.387 . S
C1933 C1935 1.390 . S
C1933 H1937 0.950 . S
H1934 C1930 0.950 . S
C1935 C1933 1.390 . S
C1935 C1936 1.387 . S
C1935 H1938 0.950 . S
C1936 C1935 1.387 . S
C1936 C1939 1.387 . S
H1937 C1933 0.950 . S
H1938 C1935 0.950 . S
C1939 C1930 1.390 . S
C1939 H1932 0.950 . S
C1939 C1936 1.387 . S
C1940 C1941 1.387 . S
C1940 H1944 0.950 . S
C1940 C1949 1.390 . S
C1941 C1940 1.387 . S
C1941 C1943 1.387 . S
H1942 C1949 0.950 . S
C1943 C1941 1.387 . S
C1943 C1945 1.390 . S
C1943 H1947 0.950 . S
H1944 C1940 0.950 . S
C1945 C1943 1.390 . S
C1945 C1946 1.387 . S
C1945 H1948 0.950 . S
C1946 C1945 1.387 . S
C1946 C1949 1.387 . S
H1947 C1943 0.950 . S
H1948 C1945 0.950 . S
C1949 C1940 1.390 . S
C1949 H1942 0.950 . S
C1949 C1946 1.387 . S
C1950 C1951 1.387 . S
C1950 H1954 0.950 . S
C1950 C1959 1.390 . S
C1951 C1950 1.387 . S
C1951 C1953 1.387 . S
H1952 C1959 0.950 . S
C1953 C1951 1.387 . S
C1953 C1955 1.390 . S
C1953 H1957 0.950 . S
H1954 C1950 0.950 . S
C1955 C1953 1.390 . S
C1955 C1956 1.387 . S
C1955 H1958 0.950 . S
C1956 C1955 1.387 . S
C1956 C1959 1.387 . S
H1957 C1953 0.950 . S
H1958 C1955 0.950 . S
C1959 C1950 1.390 . S
C1959 H1952 0.950 . S
C1959 C1956 1.387 . S
C1960 C1961 1.387 . S
C1960 H1964 0.950 . S
C1960 C1969 1.390 . S
C1961 C1960 1.387 . S
C1961 C1963 1.387 . S
H1962 C1969 0.950 . S
C1963 C1961 1.387 . S
C1963 C1965 1.390 . S
C1963 H1967 0.950 . S
H1964 C1960 0.950 . S
C1965 C1963 1.390 . S
C1965 C1966 1.387 . S
C1965 H1968 0.950 . S
C1966 C1965 1.387 . S
C1966 C1969 1.387 . S
H1967 C1963 0.950 . S
H1968 C1965 0.950 . S
C1969 C1960 1.390 . S
C1969 H1962 0.950 . S
C1969 C1966 1.387 . S
C1970 C1971 1.387 . S
C1970 H1974 0.950 . S
C1970 C1979 1.390 . S
C1971 C1970 1.387 . S
C1971 C1973 1.387 . S
H1972 C1979 0.950 . S
C1973 C1971 1.387 . S
C1973 C1975 1.390 . S
C1973 H1977 0.950 . S
H1974 C1970 0.950 . S
C1975 C1973 1.390 . S
C1975 C1976 1.387 . S
C1975 H1978 0.950 . S
C1976 C1975 1.387 . S
C1976 C1979 1.387 . S
H1977 C1973 0.950 . S
H1978 C1975 0.950 . S
C1979 C1970 1.390 . S
C1979 H1972 0.950 . S
C1979 C1976 1.387 . S
C1980 C1981 1.387 . S
C1980 H1984 0.950 . S
C1980 C1989 1.390 . S
C1981 C1980 1.387 . S
C1981 C1983 1.387 . S
H1982 C1989 0.950 . S
C1983 C1981 1.387 . S
C1983 C1985 1.390 . S
C1983 H1987 0.950 . S
H1984 C1980 0.950 . S
C1985 C1983 1.390 . S
C1985 C1986 1.387 . S
C1985 H1988 0.950 . S
C1986 C1985 1.387 . S
C1986 C1989 1.387 . S
H1987 C1983 0.950 . S
H1988 C1985 0.950 . S
C1989 C1980 1.390 . S
C1989 H1982 0.950 . S
C1989 C1986 1.387 . S
C1990 C1991 1.387 . S
C1990 H1994 0.950 . S
C1990 C1999 1.390 . S
C1991 C1990 1.387 . S
C1991 C1993 1.387 . S
H1992 C1999 0.950 . S
C1993 C1991 1.387 . S
C1993 C1995 1.390 . S
C1993 H1997 0.950 . S
H1994 C1990 0.950 . S
C1995 C1993 1.390 . S
C1995 C1996 1.387 . S
C1995 H1998 0.950 . S
C1996 C1995 1.387 . S
C1996 C1999 1.387 . S
H1997 C1993 0.950 . S
H1998 C1995 0.950 . S
C1999 C1990 1.390 . S
C1999 H1992 0.950 . S
C1999 C1996 1.387 . S
C2000 C2001 1.387 . S
C2000 H2004 0.950 . S
C2000 C2009 1.390 . S
C2001 C2000 1.387 . S
C2001 C2003 1.387 . S
H2002 C2009 0.950 . S
C2003 C2001 1.387 . S
C2003 C2005 1.390 . S
C2003 H2007 0.950 . S
H2004 C2000 0.950 . S
C2005 C2003 1.390 . S
C2005 C2006 1.387 . S
C2005 H2008 0.950 . S
C2006 C2005 1.387 . S
C2006 C2009 1.387 . S
H2007 C2003 0.950 . S
H2008 C2005 0.950 . S
C2009 C2000 1.390 . S
C2009 H2002 0.950 . S
C2009 C2006 1.387 . S
C2010 C2011 1.387 . S
C2010 H2014 0.950 . S
C2010 C2019 1.390 . S
C2011 C2010 1.387 . S
C2011 C2013 1.387 . S
H2012 C2019 0.950 . S
C2013 C2011 1.387 . S
C2013 C2015 1.390 . S
C2013 H2017 0.950 . S
H2014 C2010 0.950 . S
C2015 C2013 1.390 . S
C2015 C2016 1.387 . S
C2015 H2018 0.950 . S
C2016 C2015 1.387 . S
C2016 C2019 1.387 . S
H2017 C2013 0.950 . S
H2018 C2015 0.950 . S
C2019 C2010 1.390 . S
C2019 H2012 0.950 . S
C2019 C2016 1.387 . S
C2020 C2021 1.387 . S
C2020 H2024 0.950 . S
C2020 C2029 1.390 . S
C2021 C2020 1.387 . S
C2021 C2023 1.387 . S
H2022 C2029 0.950 . S
C2023 C2021 1.387 . S
C2023 C2025 1.390 . S
C2023 H2027 0.950 . S
H2024 C2020 0.950 . S
C2025 C2023 1.390 . S
C2025 C2026 1.387 . S
C2025 H2028 0.950 . S
C2026 C2025 1.387 . S
C2026 C2029 1.387 . S
H2027 C2023 0.950 . S
H2028 C2025 0.950 . S
C2029 C2020 1.390 . S
C2029 H2022 0.950 . S
C2029 C2026 1.387 . S
C2030 C2031 1.387 . S
C2030 H2034 0.950 . S
C2030 C2039 1.390 . S
C2031 C2030 1.387 . S
C2031 C2033 1.387 . S
H2032 C2039 0.950 . S
C2033 C2031 1.387 . S
C2033 C2035 1.390 . S
C2033 H2037 0.950 . S
H2034 C2030 0.950 . S
C2035 C2033 1.390 . S
C2035 C2036 1.387 . S
C2035 H2038 0.950 . S
C2036 C2035 1.387 . S
C2036 C2039 1.387 . S
H2037 C2033 0.950 . S
H2038 C2035 0.950 . S
C2039 C2030 1.390 . S
C2039 H2032 0.950 . S
C2039 C2036 1.387 . S
C2040 C2041 1.387 . S
C2040 H2044 0.950 . S
C2040 C2049 1.390 . S
C2041 C2040 1.387 . S
C2041 C2043 1.387 . S
H2042 C2049 0.950 . S
C2043 C2041 1.387 . S
C2043 C2045 1.390 . S
C2043 H2047 0.950 . S
H2044 C2040 0.950 . S
C2045 C2043 1.390 . S
C2045 C2046 1.387 . S
C2045 H2048 0.950 . S
C2046 C2045 1.387 . S
C2046 C2049 1.387 . S
H2047 C2043 0.950 . S
H2048 C2045 0.950 . S
C2049 C2040 1.390 . S
C2049 H2042 0.950 . S
C2049 C2046 1.387 . S
C2050 C2051 1.387 . S
C2050 H2054 0.950 . S
C2050 C2059 1.390 . S
C2051 C2050 1.387 . S
C2051 C2053 1.387 . S
H2052 C2059 0.950 . S
C2053 C2051 1.387 . S
C2053 C2055 1.390 . S
C2053 H2057 0.950 . S
H2054 C2050 0.950 . S
C2055 C2053 1.390 . S
C2055 C2056 1.387 . S
C2055 H2058 0.950 . S
C2056 C2055 1.387 . S
C2056 C2059 1.387 . S
H2057 C2053 0.950 . S
H2058 C2055 0.950 . S
C2059 C2050 1.390 . S
C2059 H2052 0.950 . S
C2059 C2056 1.387 . S
C2060 C2061 1.387 . S
C2060 H2064 0.950 . S
C2060 C2069 1.390 . S
C2061 C2060 1.387 . S
C2061 C2063 1.387 . S
H2062 C2069 0.950 . S
C2063 C2061 1.387 . S
C2063 C2065 1.390 . S
C2063 H2067 0.950 . S
H2064 C2060 0.950 . S
C2065 C2063 1.390 . S
C2065 C2066 1.387 . S
C2065 H2068 0.950 . S
C2066 C2065 1.387 . S
C2066 C2069 1.387 . S
H2067 C2063 0.950 . S
H2068 C2065 0.950 . S
C2069 C2060 1.390 . S
C2069 H2062 0.950 . S
C2069 C2066 1.387 . S
C2070 C2071 1.387 . S
C2070 H2074 0.950 . S
C2070 C2079 1.390 . S
C2071 C2070 1.387 . S
C2071 C2073 1.387 . S
H2072 C2079 0.950 . S
C2073 C2071 1.387 . S
C2073 C2075 1.390 . S
C2073 H2077 0.950 . S
H2074 C2070 0.950 . S
C2075 C2073 1.390 . S
C2075 C2076 1.387 . S
C2075 H2078 0.950 . S
C2076 C2075 1.387 . S
C2076 C2079 1.387 . S
H2077 C2073 0.950 . S
H2078 C2075 0.950 . S
C2079 C2070 1.390 . S
C2079 H2072 0.950 . S
C2079 C2076 1.387 . S
C2080 C2081 1.387 . S
C2080 H2084 0.950 . S
C2080 C2089 1.390 1_545 S
C2081 C2080 1.387 . S
C2081 C2083 1.387 . S
H2082 C2089 0.950 . S
C2083 C2081 1.387 . S
C2083 C2085 1.390 1_545 S
C2083 H2087 0.950 . S
H2084 C2080 0.950 . S
C2085 C2083 1.390 1_565 S
C2085 C2086 1.387 . S
C2085 H2088 0.950 . S
C2086 C2085 1.387 . S
C2086 C2089 1.387 . S
H2087 C2083 0.950 . S
H2088 C2085 0.950 . S
C2089 C2080 1.390 1_565 S
C2089 H2082 0.950 . S
C2089 C2086 1.387 . S
C2090 C2091 1.387 1_545 S
C2090 H2094 0.950 . S
C2090 C2099 1.390 . S
C2091 C2090 1.387 1_565 S
C2091 C2093 1.387 . S
H2092 C2099 0.950 . S
C2093 C2091 1.387 . S
C2093 C2095 1.390 . S
C2093 H2097 0.950 . S
H2094 C2090 0.950 . S
C2095 C2093 1.390 . S
C2095 C2096 1.387 . S
C2095 H2098 0.950 . S
C2096 C2095 1.387 . S
C2096 C2099 1.387 1_565 S
H2097 C2093 0.950 . S
H2098 C2095 0.950 . S
C2099 C2090 1.390 . S
C2099 H2092 0.950 . S
C2099 C2096 1.387 1_545 S
C2100 C2101 1.387 . S
C2100 H2104 0.950 . S
C2100 C2109 1.390 1_545 S
C2101 C2100 1.387 . S
C2101 C2103 1.387 . S
H2102 C2109 0.950 . S
C2103 C2101 1.387 . S
C2103 C2105 1.390 1_545 S
C2103 H2107 0.950 . S
H2104 C2100 0.950 . S
C2105 C2103 1.390 1_565 S
C2105 C2106 1.387 . S
C2105 H2108 0.950 . S
C2106 C2105 1.387 . S
C2106 C2109 1.387 . S
H2107 C2103 0.950 . S
H2108 C2105 0.950 . S
C2109 C2100 1.390 1_565 S
C2109 H2102 0.950 . S
C2109 C2106 1.387 . S
C2110 C2111 1.387 1_565 S
C2110 H2114 0.950 . S
C2110 C2119 1.389 1_556 S
C2111 C2110 1.387 1_545 S
C2111 C2113 1.387 . S
H2112 C2119 0.950 . S
C2113 C2111 1.387 . S
C2113 C2115 1.389 1_556 S
C2113 H2117 0.950 . S
H2114 C2110 0.950 . S
C2115 C2113 1.389 1_554 S
C2115 C2116 1.387 . S
C2115 H2118 0.950 . S
C2116 C2115 1.387 . S
C2116 C2119 1.387 1_545 S
H2117 C2113 0.950 . S
H2118 C2115 0.950 . S
C2119 C2110 1.389 1_554 S
C2119 H2112 0.950 . S
C2119 C2116 1.387 1_565 S
C2120 C2121 1.387 . S
C2120 H2124 0.950 . S
C2120 C2129 1.390 1_565 S
C2121 C2120 1.387 . S
C2121 C2123 1.387 . S
H2122 C2129 0.950 . S
C2123 C2121 1.387 . S
C2123 C2125 1.390 1_565 S
C2123 H2127 0.950 . S
H2124 C2120 0.950 . S
C2125 C2123 1.390 1_545 S
C2125 C2126 1.387 . S
C2125 H2128 0.950 . S
C2126 C2125 1.387 . S
C2126 C2129 1.387 . S
H2127 C2123 0.950 . S
H2128 C2125 0.950 . S
C2129 C2120 1.390 1_545 S
C2129 H2122 0.950 . S
C2129 C2126 1.387 . S
C2130 C2131 1.387 . S
C2130 H2134 0.950 . S
C2130 C2139 1.390 . S
C2131 C2130 1.387 . S
C2131 C2133 1.387 1_545 S
H2132 C2139 0.950 . S
C2133 C2131 1.387 1_565 S
C2133 C2135 1.390 . S
C2133 H2137 0.950 . S
H2134 C2130 0.950 . S
C2135 C2133 1.390 . S
C2135 C2136 1.387 1_565 S
C2135 H2138 0.950 . S
C2136 C2135 1.387 1_545 S
C2136 C2139 1.387 . S
H2137 C2133 0.950 . S
H2138 C2135 0.950 . S
C2139 C2130 1.390 . S
C2139 H2132 0.950 . S
C2139 C2136 1.387 . S
C2140 C2141 1.387 . S
C2140 H2144 0.950 . S
C2140 C2149 1.390 1_565 S
C2141 C2140 1.387 . S
C2141 C2143 1.387 . S
H2142 C2149 0.950 . S
C2143 C2141 1.387 . S
C2143 C2145 1.390 1_565 S
C2143 H2147 0.950 . S
H2144 C2140 0.950 . S
C2145 C2143 1.390 1_545 S
C2145 C2146 1.387 . S
C2145 H2148 0.950 . S
C2146 C2145 1.387 . S
C2146 C2149 1.387 . S
H2147 C2143 0.950 . S
H2148 C2145 0.950 . S
C2149 C2140 1.390 1_545 S
C2149 H2142 0.950 . S
C2149 C2146 1.387 . S
C2150 C2151 1.387 . S
C2150 H2154 0.950 . S
C2150 C2159 1.389 1_554 S
C2151 C2150 1.387 . S
C2151 C2153 1.387 1_565 S
H2152 C2159 0.950 . S
C2153 C2151 1.387 1_545 S
C2153 C2155 1.389 1_554 S
C2153 H2157 0.950 . S
H2154 C2150 0.950 . S
C2155 C2153 1.389 1_556 S
C2155 C2156 1.387 1_545 S
C2155 H2158 0.950 . S
C2156 C2155 1.387 1_565 S
C2156 C2159 1.387 . S
H2157 C2153 0.950 . S
H2158 C2155 0.950 . S
C2159 C2150 1.389 1_556 S
C2159 H2152 0.950 . S
C2159 C2156 1.387 . S
C2160 C2161 1.387 . S
C2160 H2164 0.950 . S
C2160 C2169 1.390 . S
C2161 C2160 1.387 . S
C2161 C2163 1.387 . S
H2162 C2169 0.950 . S
C2163 C2161 1.387 . S
C2163 C2165 1.390 . S
C2163 H2167 0.950 . S
H2164 C2160 0.950 . S
C2165 C2163 1.390 . S
C2165 C2166 1.387 . S
C2165 H2168 0.950 . S
C2166 C2165 1.387 . S
C2166 C2169 1.387 . S
H2167 C2163 0.950 . S
H2168 C2165 0.950 . S
C2169 C2160 1.390 . S
C2169 H2162 0.950 . S
C2169 C2166 1.387 . S
C2170 C2171 1.387 . S
C2170 H2174 0.950 . S
C2170 C2179 1.389 1_556 S
C2171 C2170 1.387 . S
C2171 C2173 1.387 . S
H2172 C2179 0.950 . S
C2173 C2171 1.387 . S
C2173 C2175 1.389 1_556 S
C2173 H2177 0.950 . S
H2174 C2170 0.950 . S
C2175 C2173 1.389 1_554 S
C2175 C2176 1.387 . S
C2175 H2178 0.950 . S
C2176 C2175 1.387 . S
C2176 C2179 1.387 . S
H2177 C2173 0.950 . S
H2178 C2175 0.950 . S
C2179 C2170 1.389 1_554 S
C2179 H2172 0.950 . S
C2179 C2176 1.387 . S
C2180 C2181 1.387 . S
C2180 H2184 0.950 . S
C2180 C2189 1.390 . S
C2181 C2180 1.387 . S
C2181 C2183 1.387 . S
H2182 C2189 0.950 . S
C2183 C2181 1.387 . S
C2183 C2185 1.390 . S
C2183 H2187 0.950 . S
H2184 C2180 0.950 . S
C2185 C2183 1.390 . S
C2185 C2186 1.387 . S
C2185 H2188 0.950 . S
C2186 C2185 1.387 . S
C2186 C2189 1.387 . S
H2187 C2183 0.950 . S
H2188 C2185 0.950 . S
C2189 C2180 1.390 . S
C2189 H2182 0.950 . S
C2189 C2186 1.387 . S
C2190 C2191 1.387 . S
C2190 H2194 0.950 . S
C2190 C2199 1.390 . S
C2191 C2190 1.387 . S
C2191 C2193 1.387 . S
H2192 C2199 0.950 . S
C2193 C2191 1.387 . S
C2193 C2195 1.390 . S
C2193 H2197 0.950 . S
H2194 C2190 0.950 . S
C2195 C2193 1.390 . S
C2195 C2196 1.387 . S
C2195 H2198 0.950 . S
C2196 C2195 1.387 . S
C2196 C2199 1.387 . S
H2197 C2193 0.950 . S
H2198 C2195 0.950 . S
C2199 C2190 1.390 . S
C2199 H2192 0.950 . S
C2199 C2196 1.387 . S
C2200 C2201 1.387 . S
C2200 H2204 0.950 . S
C2200 C2209 1.390 . S
C2201 C2200 1.387 . S
C2201 C2203 1.387 . S
H2202 C2209 0.950 . S
C2203 C2201 1.387 . S
C2203 C2205 1.390 . S
C2203 H2207 0.950 . S
H2204 C2200 0.950 . S
C2205 C2203 1.390 . S
C2205 C2206 1.387 . S
C2205 H2208 0.950 . S
C2206 C2205 1.387 . S
C2206 C2209 1.387 . S
H2207 C2203 0.950 . S
H2208 C2205 0.950 . S
C2209 C2200 1.390 . S
C2209 H2202 0.950 . S
C2209 C2206 1.387 . S
C2210 C2211 1.387 . S
C2210 H2214 0.949 . S
C2210 C2219 1.388 1_556 S
C2211 C2210 1.387 . S
C2211 C2213 1.387 . S
H2212 C2219 0.949 . S
C2213 C2211 1.387 . S
C2213 C2215 1.388 1_556 S
C2213 H2217 0.949 . S
H2214 C2210 0.949 . S
C2215 C2213 1.388 1_554 S
C2215 C2216 1.387 . S
C2215 H2218 0.949 . S
C2216 C2215 1.387 . S
C2216 C2219 1.387 . S
H2217 C2213 0.949 . S
H2218 C2215 0.949 . S
C2219 C2210 1.388 1_554 S
C2219 H2212 0.949 . S
C2219 C2216 1.387 . S
C2220 C2221 1.387 . S
C2220 H2224 0.950 . S
C2220 C2229 1.390 . S
C2221 C2220 1.387 . S
C2221 C2223 1.387 . S
H2222 C2229 0.950 . S
C2223 C2221 1.387 . S
C2223 C2225 1.390 . S
C2223 H2227 0.950 . S
H2224 C2220 0.950 . S
C2225 C2223 1.390 . S
C2225 C2226 1.387 . S
C2225 H2228 0.950 . S
C2226 C2225 1.387 . S
C2226 C2229 1.387 . S
H2227 C2223 0.950 . S
H2228 C2225 0.950 . S
C2229 C2220 1.390 . S
C2229 H2222 0.950 . S
C2229 C2226 1.387 . S
C2230 C2231 1.387 . S
C2230 H2234 0.950 . S
C2230 C2239 1.390 . S
C2231 C2230 1.387 . S
C2231 C2233 1.387 . S
H2232 C2239 0.950 . S
C2233 C2231 1.387 . S
C2233 C2235 1.390 . S
C2233 H2237 0.950 . S
H2234 C2230 0.950 . S
C2235 C2233 1.390 . S
C2235 C2236 1.387 . S
C2235 H2238 0.950 . S
C2236 C2235 1.387 . S
C2236 C2239 1.387 . S
H2237 C2233 0.950 . S
H2238 C2235 0.950 . S
C2239 C2230 1.390 . S
C2239 H2232 0.950 . S
C2239 C2236 1.387 . S
C1281 C6 1.006 . S
C1286 C1099 0.959 . S
C1291 C46 1.009 . S
C1296 C339 0.963 . S
C1301 C86 1.010 . S
C1306 C1019 0.964 . S
C1311 C419 0.955 . S
C1316 C126 1.002 . S
C1321 C166 1.002 . S
C1326 C1179 0.954 . S
C1331 C579 0.960 . S
C1336 C206 1.007 . S
C1341 C1259 0.954 . S
C1346 C246 1.002 . S
C1351 C286 1.004 . S
C1356 C499 0.957 . S
C1361 C335 1.002 . S
C1366 C770 0.954 . S
C1371 C375 1.009 . S
C1376 C10 0.962 . S
C1381 C690 0.964 . S
C1386 C415 1.010 . S
C1391 C90 0.962 . S
C1396 C455 1.008 . S
C1401 C495 1.010 . S
C1406 C850 0.963 . S
C1411 C535 1.009 . S
C1416 C250 0.962 . S
C1421 C575 1.010 . S
C1426 C930 0.963 . S
C1431 C170 0.959 . S
C1436 C615 1.006 . S
C1441 C459 0.963 . S
C1446 C646 1.010 . S
C1451 C979 0.962 . S
C1456 C686 1.009 . S
C1461 C379 0.963 . S
C1466 C726 1.010 . S
C1471 C766 1.006 . S
C1476 C1059 0.959 . S
C1481 C539 0.955 . S
C1486 C806 1.002 . S
C1491 C1219 0.955 . S
C1496 C846 1.002 . S
C1501 C619 0.954 . S
C1506 C886 1.002 . S
C1511 C926 1.003 . S
C1516 C1139 0.956 . S
C1521 C975 1.002 . S
C1526 C130 0.954 . S
C1531 C1015 1.003 . S
C1536 C650 0.956 . S
C1541 C1055 1.009 . S
C1546 C50 0.962 . S
C1551 C1095 1.008 . S
C1556 C730 0.961 . S
C1561 C210 0.954 . S
C1566 C1135 1.002 . S
C1571 C890 0.955 . S
C1576 C1175 1.002 . S
C1581 C1215 1.002 . S
C1586 C290 0.954 . S
C1591 C1255 1.008 . S
C1596 C810 0.962 . S
C1601 C18 3.007 . S
C1606 C738 3.007 . S
C1611 C778 3.010 1_455 S
C1616 C58 3.010 1_655 S
C1621 C98 3.007 . S
C1626 C658 3.007 . S
C1631 C138 3.010 . S
C1636 C698 3.010 . S
C1641 C898 3.007 . S
C1646 C178 3.007 . S
C1651 C218 3.010 . S
C1656 C938 3.010 . S
C1661 C818 3.010 . S
C1666 C258 3.010 . S
C1671 C298 3.007 1_655 S
C1676 C858 3.007 1_455 S
C1681 C1049 3.010 . S
C1686 C329 3.010 . S
C1691 C369 3.010 1_455 S
C1696 C1089 3.010 1_655 S
C1701 C409 3.007 . S
C1706 C969 3.007 . S
C1711 C449 3.007 . S
C1716 C1009 3.007 . S
C1721 C1209 3.010 . S
C1726 C489 3.010 . S
C1731 C1249 3.010 . S
C1736 C529 3.010 . S
C1741 C569 3.007 . S
C1746 C1129 3.007 . S
C1751 C609 3.010 1_455 S
C1756 C1169 3.010 1_655 S
C1761 C19 3.528 . S
C1766 C970 3.528 . S
C1771 C370 3.528 1_565 S
C1776 C59 3.528 1_545 S
C1781 C99 3.527 . S
C1786 C1050 3.527 . S
C1791 C139 3.527 1_565 S
C1796 C450 3.527 1_545 S
C1801 C1130 3.528 . S
C1806 C179 3.528 . S
C1811 C530 3.528 1_565 S
C1816 C219 3.528 1_545 S
C1821 C259 3.527 . S
C1826 C1210 3.527 . S
C1831 C299 3.528 1_565 S
C1836 C610 3.528 1_545 S
C1841 C659 3.528 . S
C1846 C330 3.528 . S
C1851 C739 3.528 . S
C1856 C410 3.528 . S
C1861 C819 3.527 . S
C1866 C490 3.527 . S
C1871 C570 3.527 . S
C1876 C899 3.527 . S
C1881 C699 3.527 . S
C1886 C1010 3.527 . S
C1891 C779 3.527 . S
C1896 C1090 3.527 . S
C1901 C1170 3.528 . S
C1906 C859 3.528 . S
C1911 C1250 3.528 . S
C1916 C939 3.528 . S
C1921 C9 4.597 . S
C1926 C209 4.597 . S
C1931 C249 4.597 . S
C1936 C49 4.597 . S
C1941 C289 4.598 . S
C1946 C89 4.598 . S
C1951 C169 4.597 . S
C1956 C129 4.597 . S
C1961 C338 4.598 . S
C1966 C538 4.598 . S
C1971 C378 4.598 . S
C1976 C578 4.598 . S
C1981 C618 4.598 . S
C1986 C418 4.598 . S
C1991 C458 4.597 . S
C1996 C498 4.597 . S
C2001 C649 4.598 . S
C2006 C849 4.598 . S
C2011 C689 4.598 . S
C2016 C889 4.598 . S
C2021 C729 4.597 . S
C2026 C929 4.597 . S
C2031 C809 4.598 . S
C2036 C769 4.597 . S
C2041 C978 4.597 . S
C2046 C1178 4.597 . S
C2051 C1018 4.598 . S
C2056 C1218 4.598 . S
C2061 C1258 4.598 . S
C2066 C1058 4.598 . S
C2071 C1098 4.597 . S
C2076 C1138 4.597 . S
C2081 C15 0.698 . S
C2086 C175 0.698 . S
C2091 C55 0.698 . S
C2096 C215 0.698 . S
C2101 C255 0.688 . S
C2106 C95 0.688 . S
C2111 C295 0.740 . S
C2116 C135 0.740 . S
C2121 C326 0.698 . S
C2126 C486 0.698 . S
C2131 C526 0.698 . S
C2136 C366 0.698 . S
C2141 C566 0.688 . S
C2146 C406 0.688 . S
C2151 C606 0.740 . S
C2156 C446 0.740 . S
C2161 C655 0.688 . S
C2166 C815 0.688 . S
C2171 C855 0.740 . S
C2176 C695 0.740 . S
C2181 C735 0.698 . S
C2186 C895 0.698 . S
C2191 C935 0.689 . S
C2196 C775 0.689 . S
C2201 C1126 0.698 . S
C2206 C966 0.698 . S
C2211 C1006 0.740 . S
C2216 C1166 0.740 . S
C2221 C1046 0.698 . S
C2226 C1206 0.698 . S
C2231 C1086 0.689 . S
C2236 C1246 0.689 . S
