# Generated by pormake.
# Topology wjf, (4)-cn, num edge types: 1
# Building blocks:
#     Node 0, Type 0, BuildingBlock: NAHDIM_clean_sbu_0, # of connection points: 4
#     Node 1, Type 0, BuildingBlock: NAHDIM_clean_sbu_0, # of connection points: 4
#     Node 2, Type 0, BuildingBlock: NAHDIM_clean_sbu_0, # of connection points: 4
#     Node 3, Type 0, BuildingBlock: NAHDIM_clean_sbu_0, # of connection points: 4
#     Node 4, Type 0, BuildingBlock: NAHDIM_clean_sbu_0, # of connection points: 4
#     Node 5, Type 0, BuildingBlock: NAHDIM_clean_sbu_0, # of connection points: 4
#     Node 6, Type 0, BuildingBlock: NAHDIM_clean_sbu_0, # of connection points: 4
#     Node 7, Type 0, BuildingBlock: NAHDIM_clean_sbu_0, # of connection points: 4
#     Node 8, Type 0, BuildingBlock: NAHDIM_clean_sbu_0, # of connection points: 4
#     Node 9, Type 0, BuildingBlock: NAHDIM_clean_sbu_0, # of connection points: 4
#     Node 10, Type 0, BuildingBlock: NAHDIM_clean_sbu_0, # of connection points: 4
#     Node 11, Type 0, BuildingBlock: NAHDIM_clean_sbu_0, # of connection points: 4
#     Edge 12, Type (0, 0), BuildingBlock: XIVTED_clean_linker_0, # of connection points: 2
#     Edge 13, Type (0, 0), BuildingBlock: XIVTED_clean_linker_0, # of connection points: 2
#     Edge 14, Type (0, 0), BuildingBlock: XIVTED_clean_linker_0, # of connection points: 2
#     Edge 15, Type (0, 0), BuildingBlock: XIVTED_clean_linker_0, # of connection points: 2
#     Edge 16, Type (0, 0), BuildingBlock: XIVTED_clean_linker_0, # of connection points: 2
#     Edge 17, Type (0, 0), BuildingBlock: XIVTED_clean_linker_0, # of connection points: 2
#     Edge 18, Type (0, 0), BuildingBlock: XIVTED_clean_linker_0, # of connection points: 2
#     Edge 19, Type (0, 0), BuildingBlock: XIVTED_clean_linker_0, # of connection points: 2
#     Edge 20, Type (0, 0), BuildingBlock: XIVTED_clean_linker_0, # of connection points: 2
#     Edge 21, Type (0, 0), BuildingBlock: XIVTED_clean_linker_0, # of connection points: 2
#     Edge 22, Type (0, 0), BuildingBlock: XIVTED_clean_linker_0, # of connection points: 2
#     Edge 23, Type (0, 0), BuildingBlock: XIVTED_clean_linker_0, # of connection points: 2
#     Edge 24, Type (0, 0), BuildingBlock: XIVTED_clean_linker_0, # of connection points: 2
#     Edge 25, Type (0, 0), BuildingBlock: XIVTED_clean_linker_0, # of connection points: 2
#     Edge 26, Type (0, 0), BuildingBlock: XIVTED_clean_linker_0, # of connection points: 2
#     Edge 27, Type (0, 0), BuildingBlock: XIVTED_clean_linker_0, # of connection points: 2
#     Edge 28, Type (0, 0), BuildingBlock: XIVTED_clean_linker_0, # of connection points: 2
#     Edge 29, Type (0, 0), BuildingBlock: XIVTED_clean_linker_0, # of connection points: 2
#     Edge 30, Type (0, 0), BuildingBlock: XIVTED_clean_linker_0, # of connection points: 2
#     Edge 31, Type (0, 0), BuildingBlock: XIVTED_clean_linker_0, # of connection points: 2
#     Edge 32, Type (0, 0), BuildingBlock: XIVTED_clean_linker_0, # of connection points: 2
#     Edge 33, Type (0, 0), BuildingBlock: XIVTED_clean_linker_0, # of connection points: 2
#     Edge 34, Type (0, 0), BuildingBlock: XIVTED_clean_linker_0, # of connection points: 2
#     Edge 35, Type (0, 0), BuildingBlock: XIVTED_clean_linker_0, # of connection points: 2
# Relax obj value: 0.236
# Max RMSD: 0.248
# Mean RMSD: 0.248
data_MOF--net-wjf--node1-NAHDIM_clean_sbu_0--edge1-XIVTED_clean_linker_0
_symmetry_space_group_name_H-M    P1
_symmetry_Int_Tables_number       1
_symmetry_cell_setting            triclinic
loop_
_symmetry_equiv_pos_as_xyz
'x, y, z'
_cell_length_a     51.916007
_cell_length_b     51.927583
_cell_length_c     25.75681
_cell_angle_alpha  90.009957
_cell_angle_beta   90.00494
_cell_angle_gamma 119.90905
loop_
_atom_site_label
_atom_site_type_symbol
_atom_site_fract_x
_atom_site_fract_y
_atom_site_fract_z
_atom_type_partial_charge
C0 C 0.31128 0.43953 0.06712 0.0
O1 O 0.31308 0.43443 0.11658 0.0
O2 O 0.32537 0.38081 0.10875 0.0
Zn3 Zn 0.34499 0.40895 0.04895 0.0
O4 O 0.34249 0.38776 0.98221 0.0
C5 C 0.40284 0.42728 0.09092 0.0
O6 O 0.39046 0.39878 0.10117 0.0
O7 O 0.32378 0.43142 0.03375 0.0
C8 C 0.35599 0.37397 0.9695 0.0
O9 O 0.37392 0.37172 0.00279 0.0
C10 C 0.31669 0.3532 0.10796 0.0
O11 O 0.31857 0.34086 0.06471 0.0
O12 O 0.38768 0.43711 0.06834 0.0
C13 C 0.87099 0.28101 0.46965 0.0
O14 O 0.89113 0.27528 0.48845 0.0
O15 O 0.93264 0.32566 0.55175 0.0
Zn16 Zn 0.91922 0.33673 0.48604 0.0
O17 O 0.94127 0.33437 0.42428 0.0
C18 C 0.94725 0.39735 0.52126 0.0
O19 O 0.95765 0.38701 0.55719 0.0
O20 O 0.87664 0.30779 0.46905 0.0
C21 C 0.96797 0.3538 0.41435 0.0
O22 O 0.98289 0.37529 0.44781 0.0
C23 C 0.95196 0.31741 0.55239 0.0
O24 O 0.9629 0.31429 0.50841 0.0
O25 O 0.92853 0.37939 0.48858 0.0
C26 C 0.5794 0.88454 0.65897 0.0
O27 O 0.60239 0.90727 0.63735 0.0
O28 O 0.61038 0.95289 0.75173 0.0
Zn29 Zn 0.57595 0.9325 0.7024 0.0
O30 O 0.58709 0.95182 0.63232 0.0
C31 C 0.54687 0.95852 0.7592 0.0
O32 O 0.574 0.97579 0.77642 0.0
O33 O 0.56399 0.88936 0.69184 0.0
C34 C 0.6135 0.96973 0.6178 0.0
O35 O 0.6355 0.97787 0.65082 0.0
C36 C 0.6153 0.93975 0.78873 0.0
O37 O 0.59834 0.91086 0.7938 0.0
O38 O 0.5419 0.93741 0.72824 0.0
C39 C 0.72914 0.62411 0.09161 0.0
O40 O 0.73068 0.64988 0.09903 0.0
O41 O 0.68609 0.6281 0.20745 0.0
Zn42 Zn 0.67486 0.608 0.1377 0.0
O43 O 0.66976 0.63332 0.08409 0.0
C44 C 0.61593 0.56879 0.17397 0.0
O45 O 0.62301 0.59125 0.20548 0.0
O46 O 0.70666 0.60079 0.10881 0.0
C47 C 0.64679 0.63584 0.07895 0.0
O48 O 0.62516 0.62322 0.11292 0.0
C49 C 0.69287 0.65496 0.21496 0.0
O50 O 0.69457 0.6715 0.17509 0.0
O51 O 0.63543 0.56993 0.14269 0.0
C52 C 0.14459 0.69292 0.37194 0.0
O53 O 0.14454 0.68759 0.42181 0.0
O54 O 0.08024 0.68742 0.4495 0.0
Zn55 Zn 0.07984 0.6681 0.38145 0.0
O56 O 0.05425 0.67292 0.32876 0.0
C57 C 0.0639 0.61463 0.439 0.0
O58 O 0.07953 0.63371 0.4756 0.0
O59 O 0.12027 0.686 0.34931 0.0
C60 C 0.02622 0.65624 0.32785 0.0
O61 O 0.01318 0.63641 0.36474 0.0
C62 C 0.06355 0.69824 0.45923 0.0
O63 O 0.04738 0.70009 0.42178 0.0
O64 O 0.06218 0.62426 0.39452 0.0
C65 C 0.38306 0.09063 0.73327 0.0
O66 O 0.40606 0.09062 0.75447 0.0
O67 O 0.33163 0.02672 0.8459 0.0
Zn68 Zn 0.34681 0.02975 0.77334 0.0
O69 O 0.31691 -0.00169 0.7268 0.0
C70 C 0.39912 0.02687 0.8103 0.0
O71 O 0.39647 0.03857 0.85379 0.0
O72 O 0.35723 0.06832 0.73915 0.0
C73 C 0.31367 0.97241 0.72715 0.0
O74 O 0.32628 0.96525 0.76434 0.0
C75 C 0.30521 0.00825 0.85965 0.0
O76 O 0.2859 0.99108 0.82457 0.0
O77 O 0.38158 0.02276 0.77282 0.0
C78 C 0.55538 0.68702 0.57739 0.0
O79 O 0.56152 0.68043 0.53147 0.0
O80 O 0.60938 0.65891 0.57305 0.0
Zn81 Zn 0.57435 0.64652 0.62053 0.0
O82 O 0.58603 0.64647 0.69448 0.0
C83 C 0.55418 0.58664 0.60397 0.0
O84 O 0.58108 0.5964 0.62246 0.0
O85 O 0.55828 0.67449 0.61749 0.0
C86 C 0.61046 0.66677 0.71298 0.0
O87 O 0.62957 0.68786 0.6823 0.0
C88 C 0.62688 0.68427 0.55371 0.0
O89 O 0.62388 0.70718 0.56599 0.0
O90 O 0.54448 0.60473 0.59988 0.0
C91 C 0.88598 0.61847 0.8761 0.0
O92 O 0.90879 0.64487 0.86625 0.0
O93 O 0.95389 0.6349 0.81343 0.0
Zn94 Zn 0.93313 0.60794 0.87375 0.0
O95 O 0.95015 0.62922 0.94093 0.0
C96 C 0.95063 0.56594 0.83539 0.0
O97 O 0.95446 0.57969 0.79084 0.0
O98 O 0.89 0.59626 0.8762 0.0
C99 C 0.93473 0.61625 0.98088 0.0
O100 O 0.90974 0.59102 0.97505 0.0
C101 C 0.9821 0.6491 0.81159 0.0
O102 O -0.00279 0.64632 0.84998 0.0
O103 O 0.94012 0.57312 0.87375 0.0
C104 C 0.31535 0.86488 0.22433 0.0
O105 O 0.3117 0.87659 0.18171 0.0
O106 O 0.33218 0.94242 0.2152 0.0
Zn107 Zn 0.34851 0.92591 0.26757 0.0
O108 O 0.33735 0.933 0.33838 0.0
C109 C 0.40248 0.95067 0.21196 0.0
O110 O 0.3834 0.93794 0.17388 0.0
O111 O 0.33094 0.88177 0.26106 0.0
C112 C 0.33463 0.91553 0.37521 0.0
O113 O 0.3411 0.89444 0.3669 0.0
C114 C 0.30517 0.9338 0.20479 0.0
O115 O 0.2839 0.91073 0.22905 0.0
O116 O 0.3928 0.94768 0.25817 0.0
C117 C 0.39409 0.25634 0.52267 0.0
O118 O 0.36892 0.24997 0.50004 0.0
O119 O 0.37335 0.30254 0.45723 0.0
Zn120 Zn 0.39796 0.3122 0.52255 0.0
O121 O 0.37484 0.3089 0.58712 0.0
C122 C 0.4284 0.3741 0.49594 0.0
O123 O 0.40425 0.36566 0.46822 0.0
O124 O 0.41248 0.28328 0.5334 0.0
C125 C 0.36696 0.32764 0.5995 0.0
O126 O 0.37129 0.34874 0.56659 0.0
C127 C 0.34692 0.29793 0.455 0.0
O128 O 0.3334 0.29839 0.49775 0.0
O129 O 0.43165 0.35461 0.52036 0.0
C130 C 0.13751 0.44755 0.93619 0.0
O131 O 0.13236 0.45182 0.88793 0.0
O132 O 0.05264 0.38277 0.90925 0.0
Zn133 Zn 0.07188 0.41537 0.96203 0.0
O134 O 0.05734 0.39881 0.03255 0.0
C135 C 0.05515 0.45063 0.89995 0.0
O136 O 0.06219 0.43848 0.86182 0.0
O137 O 0.11604 0.43375 0.96751 0.0
C138 C 0.03045 0.38177 0.04529 0.0
O139 O 0.00948 0.37352 0.01008 0.0
C140 C 0.06476 0.3739 0.87643 0.0
O141 O 0.09376 0.38547 0.87655 0.0
O142 O 0.05895 0.44517 0.94657 0.0
C143 C 0.73259 0.12866 0.21785 0.0
O144 O 0.7355 0.10518 0.21066 0.0
O145 O 0.68879 0.07401 0.11226 0.0
Zn146 Zn 0.67822 0.08715 0.17868 0.0
O147 O 0.67508 0.06094 0.2384 0.0
C148 C 0.61995 0.0686 0.1365 0.0
O149 O 0.62984 0.05984 0.09725 0.0
O150 O 0.70913 0.12792 0.20161 0.0
C151 C 0.65136 0.0369 0.24859 0.0
O152 O 0.62885 0.02708 0.21624 0.0
C153 C 0.69327 0.05208 0.1105 0.0
O154 O 0.69364 0.03901 0.15392 0.0
O155 O 0.6376 0.08299 0.17337 0.0
H156 H 0.29957 0.36645 0.19973 0.0
H157 H 0.35989 0.28148 0.36248 0.0
H158 H 0.31988 0.30329 0.12912 0.0
H159 H 0.30399 0.31186 0.43127 0.0
H160 H 0.34349 0.28714 0.27643 0.0
H161 H 0.29844 0.34497 0.28472 0.0
C162 C 0.30325 0.3477 0.20205 0.0
C163 C 0.31022 0.33687 0.15748 0.0
C164 C 0.33436 0.29202 0.31036 0.0
C165 C 0.30949 0.31259 0.25447 0.0
C166 C 0.34381 0.28892 0.35943 0.0
C167 C 0.33353 0.29657 0.40389 0.0
C168 C 0.31507 0.30353 0.30577 0.0
C169 C 0.31254 0.30585 0.39789 0.0
C170 C 0.30253 0.3354 0.25052 0.0
C171 C 0.31459 0.31242 0.16256 0.0
N172 N 0.30444 0.30968 0.3496 0.0
N173 N 0.31479 0.30149 0.21039 0.0
H174 H 0.92965 0.31396 0.64973 0.0
H175 H 0.08359 0.3609 0.78544 0.0
H176 H 0.00378 0.3168 0.56865 0.0
H177 H 0.00436 0.34415 0.86808 0.0
H178 H 0.05336 0.33813 0.70799 0.0
H179 H 0.95482 0.31843 0.73191 0.0
C180 C 0.95109 0.31515 0.64929 0.0
C181 C 0.96485 0.31547 0.60229 0.0
C182 C 0.04254 0.33897 0.74337 0.0
C183 C 0.99405 0.32101 0.69624 0.0
C184 C 0.05979 0.35191 0.78764 0.0
C185 C 0.04657 0.355 0.83296 0.0
C186 C 0.01196 0.32926 0.74452 0.0
C187 C 0.0156 0.34277 0.83368 0.0
C188 C 0.96546 0.31766 0.69626 0.0
C189 C 0.99248 0.31671 0.60402 0.0
N190 N -0.00056 0.33088 0.78992 0.0
N191 N 0.00643 0.31996 0.65023 0.0
H192 H 0.6508 0.00016 0.79317 0.0
H193 H 0.68912 -0.00187 0.09251 0.0
H194 H 0.62772 0.92013 0.87915 0.0
H195 H 0.69491 0.07411 0.01328 0.0
H196 H 0.67842 0.97188 0.00955 0.0
H197 H 0.67871 0.02959 0.86808 0.0
C198 C 0.65195 0.98874 0.82752 0.0
C199 C 0.63639 0.95758 0.83023 0.0
C200 C 0.68248 0.99446 0.01026 0.0
C201 C 0.66823 0.99123 0.91625 0.0
C202 C 0.6887 0.00952 0.05758 0.0
C203 C 0.69239 0.03818 0.05996 0.0
C204 C 0.68006 0.00821 0.96506 0.0
C205 C 0.69178 0.05187 0.01338 0.0
C206 C 0.66787 0.00559 0.87033 0.0
C207 C 0.63903 0.94408 0.87558 0.0
N208 N 0.68535 0.03663 0.96794 0.0
N209 N 0.6543 0.96099 0.91709 0.0
H210 H 0.69631 0.70709 0.24651 0.0
H211 H 0.64706 0.64595 0.5333 0.0
H212 H 0.69143 0.62698 0.30567 0.0
H213 H 0.65223 0.7268 0.47777 0.0
H214 H 0.67246 0.64409 0.45513 0.0
H215 H 0.68925 0.71988 0.33476 0.0
C216 C 0.69427 0.69244 0.27813 0.0
C217 C 0.69389 0.66563 0.26855 0.0
C218 C 0.66846 0.66251 0.46021 0.0
C219 C 0.68566 0.68006 0.36947 0.0
C220 C 0.65395 0.66358 0.50492 0.0
C221 C 0.64709 0.6863 0.51158 0.0
C222 C 0.6758 0.68406 0.4214 0.0
C223 C 0.6569 0.70877 0.47394 0.0
C224 C 0.69019 0.69974 0.32851 0.0
C225 C 0.69138 0.64764 0.31107 0.0
N226 N 0.67031 0.7068 0.42992 0.0
N227 N 0.68698 0.65499 0.3595 0.0
H228 H 0.95855 0.66381 0.72948 0.0
H229 H 0.09407 0.69829 0.54593 0.0
H230 H 0.04049 0.67141 0.78514 0.0
H231 H 0.01905 0.70671 0.49713 0.0
H232 H 0.07777 0.69454 0.63585 0.0
H233 H 0.98258 0.68497 0.6466 0.0
C234 C 0.98171 0.67024 0.72447 0.0
C235 C -0.00258 0.66543 0.764 0.0
C236 C 0.06514 0.69772 0.6056 0.0
C237 C 0.02502 0.68946 0.66905 0.0
C238 C 0.07447 0.6999 0.5542 0.0
C239 C 0.05761 0.7023 0.51385 0.0
C240 C 0.03856 0.69755 0.61665 0.0
C241 C 0.03257 0.70456 0.52692 0.0
C242 C 0.99546 0.68242 0.67715 0.0
C243 C 0.02746 0.67448 0.75557 0.0
N244 N 0.0235 0.70159 0.57712 0.0
N245 N 0.04016 0.68565 0.70872 0.0
H246 H 0.2548 0.91144 0.14465 0.0
H247 H 0.33713 0.04316 0.94113 0.0
H248 H 0.34055 0.98957 0.16788 0.0
H249 H 0.25767 0.96048 0.90532 0.0
H250 H 0.33112 0.02901 0.03235 0.0
H251 H 0.24855 0.93394 0.06527 0.0
C252 C 0.27202 0.93353 0.13359 0.0
C253 C 0.29848 0.94846 0.16214 0.0
C254 C 0.31472 0.0141 0.00472 0.0
C255 C 0.29151 0.97421 0.07201 0.0
C256 C 0.31813 0.0222 0.95259 0.0
C257 C 0.29825 0.00265 0.91546 0.0
C258 C 0.29148 0.98608 0.01978 0.0
C259 C 0.27375 0.97604 0.93264 0.0
C260 C 0.26848 0.94631 0.08831 0.0
C261 C 0.32005 0.97705 0.14636 0.0
N262 N 0.27135 0.96823 0.98354 0.0
N263 N 0.31621 0.98884 0.10211 0.0
H264 H 0.18702 0.46089 0.87773 0.0
H265 H 0.27485 0.45215 0.12574 0.0
H266 H 0.15666 0.45318 0.03599 0.0
H267 H 0.30207 0.4515 0.96755 0.0
H268 H 0.23671 0.46258 0.09373 0.0
H269 H 0.23434 0.46734 0.91011 0.0
C270 C 0.19049 0.46105 0.91922 0.0
C271 C 0.16773 0.45598 0.95417 0.0
C272 C 0.25126 0.46051 0.06603 0.0
C273 C 0.22152 0.46322 0.99141 0.0
C274 C 0.2731 0.45461 0.08434 0.0
C275 C 0.29133 0.45041 0.04926 0.0
C276 C 0.24756 0.46211 0.01226 0.0
C277 C 0.2882 0.45412 0.99601 0.0
C278 C 0.21742 0.46463 0.9377 0.0
C279 C 0.17341 0.45648 0.00758 0.0
N280 N 0.26647 0.45938 0.97909 0.0
N281 N 0.19958 0.4597 0.0245 0.0
H282 H 0.83073 0.28687 0.40827 0.0
H283 H 0.77954 0.13169 0.27017 0.0
H284 H 0.85473 0.22264 0.46076 0.0
H285 H 0.73272 0.17994 0.24592 0.0
H286 H 0.8103 0.16799 0.33512 0.0
H287 H 0.79587 0.25006 0.34633 0.0
C288 C 0.82832 0.26492 0.40745 0.0
C289 C 0.84593 0.25792 0.43935 0.0
C290 C 0.79332 0.17072 0.31564 0.0
C291 C 0.8067 0.21617 0.36812 0.0
C292 C 0.77589 0.1501 0.27811 0.0
C293 C 0.75344 0.15271 0.25259 0.0
C294 C 0.78856 0.19438 0.32765 0.0
C295 C 0.74978 0.17709 0.26471 0.0
C296 C 0.80855 0.24402 0.37191 0.0
C297 C 0.84189 0.22916 0.4366 0.0
N298 N 0.76721 0.19706 0.30146 0.0
N299 N 0.82299 0.20951 0.40119 0.0
H300 H 0.59865 0.86792 0.57397 0.0
H301 H 0.53341 0.70097 0.66254 0.0
H302 H 0.54174 0.83186 0.70797 0.0
H303 H 0.5678 0.73197 0.50864 0.0
H304 H 0.5345 0.74781 0.67931 0.0
H305 H 0.58686 0.81793 0.54928 0.0
C306 C 0.58361 0.84944 0.59823 0.0
C307 C 0.57136 0.85407 0.6434 0.0
C308 C 0.54136 0.74419 0.6416 0.0
C309 C 0.55778 0.79667 0.61526 0.0
C310 C 0.54075 0.71746 0.63196 0.0
C311 C 0.55083 0.71271 0.58428 0.0
C312 C 0.55256 0.7665 0.60357 0.0
C313 C 0.55991 0.73473 0.54598 0.0
C314 C 0.57673 0.82086 0.58386 0.0
C315 C 0.55176 0.82926 0.67296 0.0
N316 N 0.56101 0.76088 0.55677 0.0
N317 N 0.54582 0.8016 0.65868 0.0
H318 H 0.77564 0.6694 0.0408 0.0
H319 H 0.83924 0.57015 0.92289 0.0
H320 H 0.73327 0.57475 0.06639 0.0
H321 H 0.87095 0.66171 0.8816 0.0
H322 H 0.79924 0.57018 0.97331 0.0
H323 H 0.81077 0.66628 0.98247 0.0
C324 C 0.7738 0.64793 0.03438 0.0
C325 C 0.7515 0.6223 0.05869 0.0
C326 C 0.81476 0.59012 0.95267 0.0
C327 C 0.79172 0.61853 0.99131 0.0
C328 C 0.83748 0.59007 0.92361 0.0
C329 C 0.85865 0.61607 0.89837 0.0
C330 C 0.81335 0.61637 0.95661 0.0
C331 C 0.85533 0.64124 0.90078 0.0
C332 C 0.79379 0.64613 0.0007 0.0
C333 C 0.75018 0.59508 0.04857 0.0
N334 N 0.83334 0.64084 0.92982 0.0
N335 N 0.77009 0.59391 0.01569 0.0
H336 H 0.15188 0.70548 0.26814 0.0
H337 H 0.3193 0.83341 0.30591 0.0
H338 H 0.20155 0.72066 0.41026 0.0
H339 H 0.26688 0.82367 0.16946 0.0
H340 H 0.28065 0.7848 0.33587 0.0
H341 H 0.19742 0.74108 0.22404 0.0
C342 C 0.17245 0.716 0.28998 0.0
C343 C 0.17278 0.71054 0.34333 0.0
C344 C 0.27781 0.79303 0.29892 0.0
C345 C 0.22504 0.75148 0.29292 0.0
C346 C 0.29992 0.82078 0.28166 0.0
C347 C 0.296 0.83293 0.23564 0.0
C348 C 0.2515 0.77738 0.27014 0.0
C349 C 0.27067 0.81536 0.2055 0.0
C350 C 0.19847 0.73633 0.26468 0.0
C351 C 0.20017 0.72448 0.3693 0.0
N352 N 0.2491 0.78868 0.22378 0.0
N353 N 0.22514 0.74467 0.34402 0.0
H354 H 0.34293 0.09026 0.66499 0.0
H355 H 0.438 0.26065 0.58807 0.0
H356 H 0.4322 0.14626 0.72196 0.0
H357 H 0.35852 0.1968 0.50781 0.0
H358 H 0.43807 0.21982 0.63562 0.0
H359 H 0.34917 0.12986 0.60712 0.0
C360 C 0.36388 0.11099 0.66549 0.0
C361 C 0.38701 0.11504 0.69871 0.0
C362 C 0.4209 0.21478 0.60704 0.0
C363 C 0.39436 0.16068 0.63205 0.0
C364 C 0.42088 0.23805 0.57974 0.0
C365 C 0.39794 0.23215 0.54445 0.0
C366 C 0.39772 0.18555 0.59911 0.0
C367 C 0.37641 0.20246 0.53513 0.0
C368 C 0.36751 0.13356 0.63204 0.0
C369 C 0.41376 0.14228 0.69708 0.0
N370 N 0.37663 0.18035 0.56276 0.0
N371 N 0.41665 0.16423 0.66455 0.0
H372 H 0.3442 0.36119 0.63824 0.0
H373 H 0.37658 0.33847 0.93031 0.0
H374 H 0.36943 0.29675 0.68356 0.0
H375 H 0.32742 0.38219 0.88768 0.0
H376 H 0.3734 0.32205 0.84031 0.0
H377 H 0.33647 0.36808 0.72958 0.0
C378 C 0.34773 0.34821 0.66734 0.0
C379 C 0.35777 0.32862 0.65333 0.0
C380 C 0.36304 0.33498 0.85084 0.0
C381 C 0.34941 0.3367 0.75785 0.0
C382 C 0.36496 0.34445 0.90214 0.0
C383 C 0.35251 0.36197 0.9164 0.0
C384 C 0.34891 0.34342 0.81354 0.0
C385 C 0.33751 0.36887 0.87838 0.0
C386 C 0.34331 0.35214 0.71948 0.0
C387 C 0.36182 0.31222 0.69263 0.0
N388 N 0.33642 0.35986 0.82858 0.0
N389 N 0.35806 0.31696 0.7432 0.0
H390 H 0.02411 0.39179 0.3789 0.0
H391 H 0.06904 0.39306 0.12545 0.0
H392 H 0.94004 0.31725 0.33184 0.0
H393 H 0.97533 0.35113 0.09056 0.0
H394 H 0.05714 0.38299 0.2172 0.0
H395 H 0.04204 0.39617 0.29018 0.0
C396 C 0.00964 0.37597 0.35012 0.0
C397 C 0.98052 0.35422 0.36276 0.0
C398 C 0.03917 0.37629 0.18967 0.0
C399 C 0.00099 0.35876 0.26108 0.0
C400 C 0.04591 0.38179 0.13711 0.0
C401 C 0.02313 0.37341 0.10033 0.0
C402 C 0.0094 0.36252 0.20569 0.0
C403 C 0.99359 0.3583 0.11764 0.0
C404 C 0.01997 0.37831 0.29941 0.0
C405 C 0.96266 0.3344 0.32381 0.0
N406 N 0.98758 0.35349 0.16921 0.0
N407 N 0.97305 0.33742 0.27454 0.0
H408 H 0.57338 0.95221 0.53841 0.0
H409 H 0.69325 0.05186 0.3247 0.0
H410 H 0.66698 0.00715 0.57149 0.0
H411 H 0.60073 0.99137 0.29081 0.0
H412 H 0.68476 0.03407 0.41421 0.0
H413 H 0.58344 0.96554 0.44708 0.0
C414 C 0.59607 0.96718 0.52652 0.0
C415 C 0.61938 0.97869 0.56274 0.0
C416 C 0.66638 0.0245 0.38708 0.0
C417 C 0.63107 0.99391 0.45791 0.0
C418 C 0.67122 0.03456 0.3359 0.0
C419 C 0.64758 0.02326 0.30032 0.0
C420 C 0.63768 0.00309 0.40286 0.0
C421 C 0.61957 0.00081 0.31695 0.0
C422 C 0.60182 0.97466 0.47424 0.0
C423 C 0.64834 -0.00216 0.54494 0.0
N424 N 0.61534 0.99167 0.36717 0.0
N425 N 0.65336 0.00493 0.49374 0.0
H426 H 0.66384 0.6986 0.76318 0.0
H427 H 0.59514 0.63062 0.0413 0.0
H428 H 0.57116 0.63554 0.79002 0.0
H429 H 0.68822 0.66805 0.00481 0.0
H430 H 0.58665 0.64294 0.95374 0.0
H431 H 0.67349 0.69706 0.85601 0.0
C432 C 0.64552 0.68458 0.78861 0.0
C433 C 0.61672 0.66692 0.76885 0.0
C434 C 0.60899 0.64876 0.96518 0.0
C435 C 0.62751 0.6654 0.87469 0.0
C436 C 0.61389 0.64192 0.01524 0.0
C437 C 0.64236 0.64794 0.03007 0.0
C438 C 0.63274 0.66188 0.92995 0.0
C439 C 0.66584 0.66267 0.9947 0.0
C440 C 0.65104 0.68373 0.84146 0.0
C441 C 0.59377 0.64924 0.80351 0.0
N442 N 0.66047 0.66893 0.94604 0.0
N443 N 0.59967 0.64891 0.85473 0.0
H444 H 0.96704 0.61972 0.30715 0.0
H445 H 0.98727 0.66547 0.00842 0.0
H446 H 0.04715 0.69251 0.2429 0.0
H447 H 0.90701 0.59318 0.07324 0.0
H448 H 0.00691 0.68056 0.09624 0.0
H449 H 0.94193 0.61479 0.22452 0.0
C450 C 0.97923 0.63495 0.27595 0.0
C451 C 0.00939 0.65619 0.28162 0.0
C452 C 0.98487 0.66159 0.09127 0.0
C453 C 0.9809 0.65049 0.18683 0.0
C454 C 0.97366 0.65296 0.04112 0.0
C455 C 0.94568 0.62774 0.03349 0.0
C456 C 0.96801 0.64478 0.13396 0.0
C457 C 0.92888 0.61252 0.07727 0.0
C458 C 0.9649 0.63209 0.22871 0.0
C459 C 0.02399 0.67551 0.24002 0.0
N460 N 0.94044 0.62108 0.1256 0.0
N461 N 0.00972 0.67193 0.19415 0.0
H462 H 0.31324 0.95225 0.40269 0.0
H463 H 0.31583 0.92203 0.70367 0.0
H464 H 0.33124 0.88554 0.46461 0.0
H465 H 0.29011 0.98286 0.6401 0.0
H466 H 0.31315 0.90212 0.61676 0.0
H467 H 0.29787 0.95868 0.48891 0.0
C468 C 0.31388 0.93888 0.43442 0.0
C469 C 0.32401 0.91869 0.42666 0.0
C470 C 0.30754 0.91944 0.62196 0.0
C471 C 0.30636 0.92587 0.5255 0.0
C472 C 0.3089 0.93071 0.67169 0.0
C473 C 0.30395 0.95468 0.67894 0.0
C474 C 0.30139 0.9324 0.57935 0.0
C475 C 0.29474 0.9648 0.63614 0.0
C476 C 0.30491 0.94242 0.48361 0.0
C477 C 0.32393 0.90164 0.46899 0.0
N478 N 0.29434 0.95401 0.588 0.0
N479 N 0.31559 0.90587 0.51676 0.0
H480 H 0.43008 0.48723 0.10686 0.0
H481 H 0.59348 0.51395 0.12849 0.0
H482 H 0.44649 0.41353 0.10855 0.0
H483 H 0.56685 0.57104 0.20462 0.0
H484 H 0.54097 0.4782 0.11107 0.0
H485 H 0.48192 0.52046 0.13182 0.0
C486 C 0.44462 0.47808 0.11235 0.0
C487 C 0.43404 0.44762 0.10568 0.0
C488 C 0.54672 0.49844 0.13205 0.0
C489 C 0.49323 0.48544 0.13365 0.0
C490 C 0.5766 0.51881 0.14195 0.0
C491 C 0.5845 0.54546 0.16805 0.0
C492 C 0.52479 0.5052 0.14726 0.0
C493 C 0.56176 0.55071 0.18461 0.0
C494 C 0.47408 0.49698 0.12689 0.0
C495 C 0.45377 0.43688 0.11354 0.0
N496 N 0.53296 0.53095 0.17331 0.0
N497 N 0.48256 0.45583 0.12665 0.0
H498 H 0.02394 0.56983 0.3763 0.0
H499 H 0.98676 0.44179 0.58469 0.0
H500 H 0.06338 0.58632 0.529 0.0
H501 H 0.94016 0.42686 0.43911 0.0
H502 H 0.01449 0.49489 0.56562 0.0
H503 H 0.99336 0.5173 0.39834 0.0
C504 C 0.0263 0.5624 0.41438 0.0
C505 C 0.04634 0.58252 0.45081 0.0
C506 C -0.00197 0.48004 0.53802 0.0
C507 C 0.01119 0.52239 0.47643 0.0
C508 C 0.9821 0.4497 0.54896 0.0
C509 C 0.96117 0.42979 0.51335 0.0
C510 C 0.99317 0.49059 0.49093 0.0
C511 C 0.95607 0.44136 0.46771 0.0
C512 C 0.00869 0.5324 0.42704 0.0
C513 C 0.04828 0.57162 0.49965 0.0
N514 N 0.97214 0.47096 0.45762 0.0
N515 N 0.03097 0.5423 0.51099 0.0
H516 H 0.49138 0.93468 0.71604 0.0
H517 H 0.44557 0.03819 0.87536 0.0
H518 H 0.54875 -0.00111 0.82965 0.0
H519 H 0.4019 0.99146 0.7348 0.0
H520 H 0.48052 0.01962 0.86668 0.0
H521 H 0.45469 0.95026 0.73103 0.0
C522 C 0.49616 0.95185 0.74449 0.0
C523 C 0.52328 0.96564 0.77137 0.0
C524 C 0.46327 0.01349 0.83779 0.0
C525 C 0.48141 0.98367 0.78855 0.0
C526 C 0.44334 0.02407 0.84271 0.0
C527 C 0.42089 0.01651 0.8056 0.0
C528 C 0.46047 0.99496 0.79582 0.0
C529 C 0.41899 -0.00193 0.76413 0.0
C530 C 0.47527 0.96086 0.75283 0.0
C531 C 0.52823 0.98779 0.80779 0.0
N532 N 0.43845 0.98789 0.76047 0.0
N533 N 0.50753 0.99618 0.81523 0.0
H534 H 0.56713 0.54207 0.6154 0.0
H535 H 0.42287 0.42123 0.46312 0.0
H536 H 0.50075 0.56021 0.55234 0.0
H537 H 0.48055 0.39984 0.55103 0.0
H538 H 0.45412 0.47337 0.48714 0.0
H539 H 0.53818 0.49092 0.58494 0.0
C540 C 0.54643 0.5353 0.59518 0.0
C541 C 0.5363 0.55546 0.58656 0.0
C542 C 0.46002 0.45729 0.50094 0.0
C543 C 0.5031 0.49686 0.55124 0.0
C544 C 0.44229 0.42751 0.487 0.0
C545 C 0.44902 0.40607 0.5053 0.0
C546 C 0.48476 0.46575 0.53319 0.0
C547 C 0.47445 0.41557 0.53619 0.0
C548 C 0.52991 0.50606 0.57778 0.0
C549 C 0.50933 0.5454 0.56005 0.0
N550 N 0.49133 0.44469 0.54931 0.0
N551 N 0.49368 0.51679 0.54326 0.0
H552 H 0.95151 0.53831 0.92529 0.0
H553 H 0.04487 0.46793 0.80527 0.0
H554 H 0.97772 0.54789 0.76416 0.0
H555 H 0.03075 0.47224 0.9695 0.0
H556 H 0.01739 0.49397 0.78799 0.0
H557 H 0.97645 0.50973 0.9403 0.0
C558 C 0.96225 0.53417 0.89289 0.0
C559 C 0.96264 0.54569 0.8434 0.0
C560 C 0.02039 0.48928 0.82779 0.0
C561 C 0.99152 0.51312 0.86054 0.0
C562 C 0.03613 0.47447 0.83771 0.0
C563 C 0.04019 0.46795 0.88894 0.0
C564 C 0.00844 0.49743 0.86936 0.0
C565 C 0.02829 0.47689 0.92941 0.0
C566 C 0.97665 0.51797 0.90159 0.0
C567 C 0.97692 0.53953 0.80297 0.0
N568 N 0.01289 0.49107 0.91872 0.0
N569 N 0.99091 0.52377 0.81248 0.0
H570 H 0.57553 0.03654 0.06665 0.0
H571 H 0.44733 0.98543 0.27954 0.0
H572 H 0.59061 0.07167 0.22259 0.0
H573 H 0.43052 0.95953 0.11831 0.0
H574 H 0.4999 0.01761 0.2591 0.0
H575 H 0.52215 0.00957 0.08377 0.0
C576 C 0.56761 0.03893 0.10425 0.0
C577 C 0.58762 0.05625 0.14334 0.0
C578 C 0.48469 0.00495 0.22816 0.0
C579 C 0.52655 0.02503 0.16348 0.0
C580 C 0.45469 0.98644 0.23986 0.0
C581 C 0.4345 0.96965 0.20062 0.0
C582 C 0.49464 0.00657 0.17689 0.0
C583 C 0.44529 0.97201 0.14984 0.0
C584 C 0.53712 0.02343 0.11407 0.0
C585 C 0.57604 0.05854 0.1913 0.0
N586 N 0.47463 0.99003 0.13949 0.0
N587 N 0.5463 0.04285 0.20019 0.0
loop_
_geom_bond_atom_site_label_1
_geom_bond_atom_site_label_2
_geom_bond_distance
_geom_bond_site_symmetry_2
_ccdc_geom_bond_type
C0 O1 1.160 . S
C0 O7 1.185 . S
O1 C0 1.160 . S
O2 Zn3 1.899 . S
O2 C10 1.284 . S
Zn3 O2 1.899 . S
Zn3 O4 2.032 . S
Zn3 O7 2.086 . S
Zn3 O12 1.977 . S
O4 Zn3 2.032 . S
O4 C8 1.278 1_554 S
C5 O6 1.203 . S
C5 O12 1.267 . S
O6 C5 1.203 . S
O7 C0 1.185 . S
O7 Zn3 2.086 . S
C8 O4 1.278 1_556 S
C8 O9 1.211 . S
O9 C8 1.211 . S
C10 O2 1.284 . S
C10 O11 1.273 . S
O11 C10 1.273 . S
O12 Zn3 1.977 . S
O12 C5 1.267 . S
C13 O14 1.160 . S
C13 O20 1.185 . S
O14 C13 1.160 . S
O15 Zn16 1.899 . S
O15 C23 1.284 . S
Zn16 O15 1.899 . S
Zn16 O17 2.032 . S
Zn16 O20 2.086 . S
Zn16 O25 1.977 . S
O17 Zn16 2.032 . S
O17 C21 1.278 . S
C18 O19 1.203 . S
C18 O25 1.267 . S
O19 C18 1.203 . S
O20 C13 1.185 . S
O20 Zn16 2.086 . S
C21 O17 1.278 . S
C21 O22 1.211 1_655 S
O22 C21 1.211 1_455 S
C23 O15 1.284 . S
C23 O24 1.273 1_655 S
O24 C23 1.273 1_455 S
O25 Zn16 1.977 . S
O25 C18 1.267 . S
C26 O27 1.160 . S
C26 O33 1.185 . S
O27 C26 1.160 . S
O28 Zn29 1.899 . S
O28 C36 1.284 . S
Zn29 O28 1.899 . S
Zn29 O30 2.032 . S
Zn29 O33 2.086 . S
Zn29 O38 1.977 . S
O30 Zn29 2.032 . S
O30 C34 1.278 . S
C31 O32 1.203 . S
C31 O38 1.267 . S
O32 C31 1.203 . S
O33 C26 1.185 . S
O33 Zn29 2.086 . S
C34 O30 1.278 . S
C34 O35 1.211 1_565 S
O35 C34 1.211 1_545 S
C36 O28 1.284 . S
C36 O37 1.273 1_565 S
O37 C36 1.273 1_545 S
O38 Zn29 1.977 . S
O38 C31 1.267 . S
C39 O40 1.160 . S
C39 O46 1.185 . S
O40 C39 1.160 . S
O41 Zn42 1.899 . S
O41 C49 1.284 . S
Zn42 O41 1.899 . S
Zn42 O43 2.032 . S
Zn42 O46 2.086 . S
Zn42 O51 1.977 . S
O43 Zn42 2.032 . S
O43 C47 1.278 1_554 S
C44 O45 1.203 . S
C44 O51 1.267 . S
O45 C44 1.203 . S
O46 C39 1.185 . S
O46 Zn42 2.086 . S
C47 O43 1.278 1_556 S
C47 O48 1.211 . S
O48 C47 1.211 . S
C49 O41 1.284 . S
C49 O50 1.273 . S
O50 C49 1.273 . S
O51 Zn42 1.977 . S
O51 C44 1.267 . S
C52 O53 1.160 . S
C52 O59 1.185 . S
O53 C52 1.160 . S
O54 Zn55 1.899 . S
O54 C62 1.284 . S
Zn55 O54 1.899 . S
Zn55 O56 2.032 . S
Zn55 O59 2.086 . S
Zn55 O64 1.977 . S
O56 Zn55 2.032 . S
O56 C60 1.278 . S
C57 O58 1.203 . S
C57 O64 1.267 . S
O58 C57 1.203 . S
O59 C52 1.185 . S
O59 Zn55 2.086 . S
C60 O56 1.278 . S
C60 O61 1.211 1_455 S
O61 C60 1.211 1_655 S
C62 O54 1.284 . S
C62 O63 1.273 1_455 S
O63 C62 1.273 1_655 S
O64 Zn55 1.977 . S
O64 C57 1.267 . S
C65 O66 1.160 . S
C65 O72 1.185 . S
O66 C65 1.160 . S
O67 Zn68 1.899 . S
O67 C75 1.284 . S
Zn68 O67 1.899 . S
Zn68 O69 2.032 . S
Zn68 O72 2.086 . S
Zn68 O77 1.977 . S
O69 Zn68 2.032 . S
O69 C73 1.278 . S
C70 O71 1.203 . S
C70 O77 1.267 . S
O71 C70 1.203 . S
O72 C65 1.185 . S
O72 Zn68 2.086 . S
C73 O69 1.278 . S
C73 O74 1.211 1_545 S
O74 C73 1.211 1_565 S
C75 O67 1.284 . S
C75 O76 1.273 1_545 S
O76 C75 1.273 1_565 S
O77 Zn68 1.977 . S
O77 C70 1.267 . S
C78 O79 1.160 . S
C78 O85 1.185 . S
O79 C78 1.160 . S
O80 Zn81 1.899 . S
O80 C88 1.284 . S
Zn81 O80 1.899 . S
Zn81 O82 2.032 . S
Zn81 O85 2.086 . S
Zn81 O90 1.977 . S
O82 Zn81 2.032 . S
O82 C86 1.278 . S
C83 O84 1.203 . S
C83 O90 1.267 . S
O84 C83 1.203 . S
O85 C78 1.185 . S
O85 Zn81 2.086 . S
C86 O82 1.278 . S
C86 O87 1.211 . S
O87 C86 1.211 . S
C88 O80 1.284 . S
C88 O89 1.273 . S
O89 C88 1.273 . S
O90 Zn81 1.977 . S
O90 C83 1.267 . S
C91 O92 1.160 . S
C91 O98 1.185 . S
O92 C91 1.160 . S
O93 Zn94 1.899 . S
O93 C101 1.284 . S
Zn94 O93 1.899 . S
Zn94 O95 2.032 . S
Zn94 O98 2.086 . S
Zn94 O103 1.977 . S
O95 Zn94 2.032 . S
O95 C99 1.278 1_556 S
C96 O97 1.203 . S
C96 O103 1.267 . S
O97 C96 1.203 . S
O98 C91 1.185 . S
O98 Zn94 2.086 . S
C99 O95 1.278 1_554 S
C99 O100 1.211 1_655 S
O100 C99 1.211 1_455 S
C101 O93 1.284 . S
C101 O102 1.273 1_655 S
O102 C101 1.273 1_455 S
O103 Zn94 1.977 . S
O103 C96 1.267 . S
C104 O105 1.160 . S
C104 O111 1.185 . S
O105 C104 1.160 . S
O106 Zn107 1.899 . S
O106 C114 1.284 . S
Zn107 O106 1.899 . S
Zn107 O108 2.032 . S
Zn107 O111 2.086 . S
Zn107 O116 1.977 . S
O108 Zn107 2.032 . S
O108 C112 1.278 . S
C109 O110 1.203 . S
C109 O116 1.267 . S
O110 C109 1.203 . S
O111 C104 1.185 . S
O111 Zn107 2.086 . S
C112 O108 1.278 . S
C112 O113 1.211 1_565 S
O113 C112 1.211 1_545 S
C114 O106 1.284 . S
C114 O115 1.273 1_565 S
O115 C114 1.273 1_545 S
O116 Zn107 1.977 . S
O116 C109 1.267 . S
C117 O118 1.160 . S
C117 O124 1.185 . S
O118 C117 1.160 . S
O119 Zn120 1.899 . S
O119 C127 1.284 . S
Zn120 O119 1.899 . S
Zn120 O121 2.032 . S
Zn120 O124 2.086 . S
Zn120 O129 1.977 . S
O121 Zn120 2.032 . S
O121 C125 1.278 . S
C122 O123 1.203 . S
C122 O129 1.267 . S
O123 C122 1.203 . S
O124 C117 1.185 . S
O124 Zn120 2.086 . S
C125 O121 1.278 . S
C125 O126 1.211 . S
O126 C125 1.211 . S
C127 O119 1.284 . S
C127 O128 1.273 . S
O128 C127 1.273 . S
O129 Zn120 1.977 . S
O129 C122 1.267 . S
C130 O131 1.160 . S
C130 O137 1.185 . S
O131 C130 1.160 . S
O132 Zn133 1.899 . S
O132 C140 1.284 . S
Zn133 O132 1.899 . S
Zn133 O134 2.032 . S
Zn133 O137 2.086 . S
Zn133 O142 1.977 . S
O134 Zn133 2.032 . S
O134 C138 1.278 1_556 S
C135 O136 1.203 . S
C135 O142 1.267 . S
O136 C135 1.203 . S
O137 C130 1.185 . S
O137 Zn133 2.086 . S
C138 O134 1.278 1_554 S
C138 O139 1.211 1_455 S
O139 C138 1.211 1_655 S
C140 O132 1.284 . S
C140 O141 1.273 1_455 S
O141 C140 1.273 1_655 S
O142 Zn133 1.977 . S
O142 C135 1.267 . S
C143 O144 1.160 . S
C143 O150 1.185 . S
O144 C143 1.160 . S
O145 Zn146 1.899 . S
O145 C153 1.284 . S
Zn146 O145 1.899 . S
Zn146 O147 2.032 . S
Zn146 O150 2.086 . S
Zn146 O155 1.977 . S
O147 Zn146 2.032 . S
O147 C151 1.278 . S
C148 O149 1.203 . S
C148 O155 1.267 . S
O149 C148 1.203 . S
O150 C143 1.185 . S
O150 Zn146 2.086 . S
C151 O147 1.278 . S
C151 O152 1.211 1_545 S
O152 C151 1.211 1_565 S
C153 O145 1.284 . S
C153 O154 1.273 1_545 S
O154 C153 1.273 1_565 S
O155 Zn146 1.977 . S
O155 C148 1.267 . S
H156 C162 0.930 . S
H157 C166 0.930 . S
H158 C171 0.929 . S
H159 C169 0.929 . S
H160 C164 0.929 . S
H161 C170 0.929 . S
C162 H156 0.930 . S
C162 C163 1.367 . S
C162 C170 1.378 . S
C163 C162 1.367 . S
C163 C171 1.433 . S
C164 H160 0.929 . S
C164 C166 1.378 . S
C164 C168 1.350 . S
C165 C168 1.463 . S
C165 C170 1.350 . S
C165 N173 1.427 . S
C166 H157 0.930 . S
C166 C164 1.378 . S
C166 C167 1.367 . S
C167 C166 1.367 . S
C167 C169 1.433 . S
C168 C164 1.350 . S
C168 C165 1.463 . S
C168 N172 1.427 . S
C169 H159 0.929 . S
C169 C167 1.433 . S
C169 N172 1.384 . S
C170 H161 0.929 . S
C170 C162 1.378 . S
C170 C165 1.350 . S
C171 H158 0.929 . S
C171 C163 1.433 . S
C171 N173 1.384 . S
N172 C168 1.427 . S
N172 C169 1.384 . S
N173 C165 1.427 . S
N173 C171 1.384 . S
H174 C180 0.930 . S
H175 C184 0.930 . S
H176 C189 0.929 . S
H177 C187 0.929 . S
H178 C182 0.929 . S
H179 C188 0.929 . S
C180 H174 0.930 . S
C180 C181 1.367 . S
C180 C188 1.378 . S
C181 C180 1.367 . S
C181 C189 1.433 1_655 S
C182 H178 0.929 . S
C182 C184 1.378 . S
C182 C186 1.350 . S
C183 C186 1.463 1_655 S
C183 C188 1.350 . S
C183 N191 1.427 1_655 S
C184 H175 0.930 . S
C184 C182 1.378 . S
C184 C185 1.367 . S
C185 C184 1.367 . S
C185 C187 1.433 1_455 S
C186 C182 1.350 . S
C186 C183 1.463 1_455 S
C186 N190 1.427 1_455 S
C187 H177 0.929 . S
C187 C185 1.433 1_655 S
C187 N190 1.384 . S
C188 H179 0.929 . S
C188 C180 1.378 . S
C188 C183 1.350 . S
C189 H176 0.929 . S
C189 C181 1.433 1_455 S
C189 N191 1.384 . S
N190 C186 1.427 1_655 S
N190 C187 1.384 . S
N191 C183 1.427 1_455 S
N191 C189 1.384 . S
H192 C198 0.930 . S
H193 C202 0.930 . S
H194 C207 0.929 . S
H195 C205 0.929 . S
H196 C200 0.929 . S
H197 C206 0.929 . S
C198 H192 0.930 . S
C198 C199 1.367 1_545 S
C198 C206 1.378 . S
C199 C198 1.367 1_565 S
C199 C207 1.433 . S
C200 H196 0.929 . S
C200 C202 1.378 . S
C200 C204 1.350 1_565 S
C201 C204 1.463 1_566 S
C201 C206 1.350 1_565 S
C201 N209 1.427 . S
C202 H193 0.930 . S
C202 C200 1.378 . S
C202 C203 1.367 1_565 S
C203 C202 1.367 1_545 S
C203 C205 1.433 . S
C204 C200 1.350 1_545 S
C204 C201 1.463 1_544 S
C204 N208 1.427 . S
C205 H195 0.929 . S
C205 C203 1.433 . S
C205 N208 1.384 . S
C206 H197 0.929 . S
C206 C198 1.378 . S
C206 C201 1.350 1_545 S
C207 H194 0.929 . S
C207 C199 1.433 . S
C207 N209 1.384 . S
N208 C204 1.427 . S
N208 C205 1.384 . S
N209 C201 1.427 . S
N209 C207 1.384 . S
H210 C216 0.930 . S
H211 C220 0.930 . S
H212 C225 0.929 . S
H213 C223 0.929 . S
H214 C218 0.929 . S
H215 C224 0.929 . S
C216 H210 0.930 . S
C216 C217 1.367 . S
C216 C224 1.378 . S
C217 C216 1.367 . S
C217 C225 1.433 . S
C218 H214 0.929 . S
C218 C220 1.378 . S
C218 C222 1.350 . S
C219 C222 1.463 . S
C219 C224 1.350 . S
C219 N227 1.427 . S
C220 H211 0.930 . S
C220 C218 1.378 . S
C220 C221 1.367 . S
C221 C220 1.367 . S
C221 C223 1.433 . S
C222 C218 1.350 . S
C222 C219 1.463 . S
C222 N226 1.427 . S
C223 H213 0.929 . S
C223 C221 1.433 . S
C223 N226 1.384 . S
C224 H215 0.929 . S
C224 C216 1.378 . S
C224 C219 1.350 . S
C225 H212 0.929 . S
C225 C217 1.433 . S
C225 N227 1.384 . S
N226 C222 1.427 . S
N226 C223 1.384 . S
N227 C219 1.427 . S
N227 C225 1.384 . S
H228 C234 0.930 . S
H229 C238 0.930 . S
H230 C243 0.929 . S
H231 C241 0.929 . S
H232 C236 0.929 . S
H233 C242 0.929 . S
C234 H228 0.930 . S
C234 C235 1.367 . S
C234 C242 1.378 . S
C235 C234 1.367 . S
C235 C243 1.433 1_655 S
C236 H232 0.929 . S
C236 C238 1.378 . S
C236 C240 1.350 . S
C237 C240 1.463 1_655 S
C237 C242 1.350 . S
C237 N245 1.427 1_655 S
C238 H229 0.930 . S
C238 C236 1.378 . S
C238 C239 1.367 . S
C239 C238 1.367 . S
C239 C241 1.433 1_455 S
C240 C236 1.350 . S
C240 C237 1.463 1_455 S
C240 N244 1.427 1_455 S
C241 H231 0.929 . S
C241 C239 1.433 1_655 S
C241 N244 1.384 . S
C242 H233 0.929 . S
C242 C234 1.378 . S
C242 C237 1.350 . S
C243 H230 0.929 . S
C243 C235 1.433 1_455 S
C243 N245 1.384 . S
N244 C240 1.427 1_655 S
N244 C241 1.384 . S
N245 C237 1.427 1_455 S
N245 C243 1.384 . S
H246 C252 0.930 . S
H247 C256 0.930 . S
H248 C261 0.929 . S
H249 C259 0.929 . S
H250 C254 0.929 . S
H251 C260 0.929 . S
C252 H246 0.930 . S
C252 C253 1.367 . S
C252 C260 1.378 . S
C253 C252 1.367 . S
C253 C261 1.433 1_565 S
C254 H250 0.929 . S
C254 C256 1.378 . S
C254 C258 1.350 . S
C255 C258 1.463 1_564 S
C255 C260 1.350 . S
C255 N263 1.427 1_565 S
C256 H247 0.930 . S
C256 C254 1.378 . S
C256 C257 1.367 . S
C257 C256 1.367 . S
C257 C259 1.433 1_545 S
C258 C254 1.350 . S
C258 C255 1.463 1_546 S
C258 N262 1.427 1_545 S
C259 H249 0.929 . S
C259 C257 1.433 1_565 S
C259 N262 1.384 . S
C260 H251 0.929 . S
C260 C252 1.378 . S
C260 C255 1.350 . S
C261 H248 0.929 . S
C261 C253 1.433 1_545 S
C261 N263 1.384 . S
N262 C258 1.427 1_565 S
N262 C259 1.384 . S
N263 C255 1.427 1_545 S
N263 C261 1.384 . S
H264 C270 0.930 . S
H265 C274 0.930 . S
H266 C279 0.929 . S
H267 C277 0.929 . S
H268 C272 0.929 . S
H269 C278 0.929 . S
C270 H264 0.930 . S
C270 C271 1.367 . S
C270 C278 1.378 . S
C271 C270 1.367 . S
C271 C279 1.433 1_556 S
C272 H268 0.929 . S
C272 C274 1.378 . S
C272 C276 1.350 . S
C273 C276 1.463 1_556 S
C273 C278 1.350 . S
C273 N281 1.427 1_556 S
C274 H265 0.930 . S
C274 C272 1.378 . S
C274 C275 1.367 . S
C275 C274 1.367 . S
C275 C277 1.433 1_554 S
C276 C272 1.350 . S
C276 C273 1.463 1_554 S
C276 N280 1.427 1_554 S
C277 H267 0.929 . S
C277 C275 1.433 1_556 S
C277 N280 1.384 . S
C278 H269 0.929 . S
C278 C270 1.378 . S
C278 C273 1.350 . S
C279 H266 0.929 . S
C279 C271 1.433 1_554 S
C279 N281 1.384 . S
N280 C276 1.427 1_556 S
N280 C277 1.384 . S
N281 C273 1.427 1_554 S
N281 C279 1.384 . S
H282 C288 0.930 . S
H283 C292 0.930 . S
H284 C297 0.929 . S
H285 C295 0.929 . S
H286 C290 0.929 . S
H287 C296 0.929 . S
C288 H282 0.930 . S
C288 C289 1.367 . S
C288 C296 1.378 . S
C289 C288 1.367 . S
C289 C297 1.433 . S
C290 H286 0.929 . S
C290 C292 1.378 . S
C290 C294 1.350 . S
C291 C294 1.463 . S
C291 C296 1.350 . S
C291 N299 1.427 . S
C292 H283 0.930 . S
C292 C290 1.378 . S
C292 C293 1.367 . S
C293 C292 1.367 . S
C293 C295 1.433 . S
C294 C290 1.350 . S
C294 C291 1.463 . S
C294 N298 1.427 . S
C295 H285 0.929 . S
C295 C293 1.433 . S
C295 N298 1.384 . S
C296 H287 0.929 . S
C296 C288 1.378 . S
C296 C291 1.350 . S
C297 H284 0.929 . S
C297 C289 1.433 . S
C297 N299 1.384 . S
N298 C294 1.427 . S
N298 C295 1.384 . S
N299 C291 1.427 . S
N299 C297 1.384 . S
H300 C306 0.930 . S
H301 C310 0.930 . S
H302 C315 0.929 . S
H303 C313 0.929 . S
H304 C308 0.929 . S
H305 C314 0.929 . S
C306 H300 0.930 . S
C306 C307 1.367 . S
C306 C314 1.378 . S
C307 C306 1.367 . S
C307 C315 1.433 . S
C308 H304 0.929 . S
C308 C310 1.378 . S
C308 C312 1.350 . S
C309 C312 1.463 . S
C309 C314 1.350 . S
C309 N317 1.427 . S
C310 H301 0.930 . S
C310 C308 1.378 . S
C310 C311 1.367 . S
C311 C310 1.367 . S
C311 C313 1.433 . S
C312 C308 1.350 . S
C312 C309 1.463 . S
C312 N316 1.427 . S
C313 H303 0.929 . S
C313 C311 1.433 . S
C313 N316 1.384 . S
C314 H305 0.929 . S
C314 C306 1.378 . S
C314 C309 1.350 . S
C315 H302 0.929 . S
C315 C307 1.433 . S
C315 N317 1.384 . S
N316 C312 1.427 . S
N316 C313 1.384 . S
N317 C309 1.427 . S
N317 C315 1.384 . S
H318 C324 0.930 . S
H319 C328 0.930 . S
H320 C333 0.929 . S
H321 C331 0.929 . S
H322 C326 0.929 . S
H323 C332 0.929 . S
C324 H318 0.930 . S
C324 C325 1.367 . S
C324 C332 1.378 . S
C325 C324 1.367 . S
C325 C333 1.433 . S
C326 H322 0.929 . S
C326 C328 1.378 . S
C326 C330 1.350 . S
C327 C330 1.463 1_554 S
C327 C332 1.350 . S
C327 N335 1.427 . S
C328 H319 0.930 . S
C328 C326 1.378 . S
C328 C329 1.367 . S
C329 C328 1.367 . S
C329 C331 1.433 . S
C330 C326 1.350 . S
C330 C327 1.463 1_556 S
C330 N334 1.427 . S
C331 H321 0.929 . S
C331 C329 1.433 . S
C331 N334 1.384 . S
C332 H323 0.929 . S
C332 C324 1.378 . S
C332 C327 1.350 . S
C333 H320 0.929 . S
C333 C325 1.433 . S
C333 N335 1.384 . S
N334 C330 1.427 . S
N334 C331 1.384 . S
N335 C327 1.427 . S
N335 C333 1.384 . S
H336 C342 0.930 . S
H337 C346 0.930 . S
H338 C351 0.929 . S
H339 C349 0.929 . S
H340 C344 0.929 . S
H341 C350 0.929 . S
C342 H336 0.930 . S
C342 C343 1.367 . S
C342 C350 1.378 . S
C343 C342 1.367 . S
C343 C351 1.433 . S
C344 H340 0.929 . S
C344 C346 1.378 . S
C344 C348 1.350 . S
C345 C348 1.463 . S
C345 C350 1.350 . S
C345 N353 1.427 . S
C346 H337 0.930 . S
C346 C344 1.378 . S
C346 C347 1.367 . S
C347 C346 1.367 . S
C347 C349 1.433 . S
C348 C344 1.350 . S
C348 C345 1.463 . S
C348 N352 1.427 . S
C349 H339 0.929 . S
C349 C347 1.433 . S
C349 N352 1.384 . S
C350 H341 0.929 . S
C350 C342 1.378 . S
C350 C345 1.350 . S
C351 H338 0.929 . S
C351 C343 1.433 . S
C351 N353 1.384 . S
N352 C348 1.427 . S
N352 C349 1.384 . S
N353 C345 1.427 . S
N353 C351 1.384 . S
H354 C360 0.930 . S
H355 C364 0.930 . S
H356 C369 0.929 . S
H357 C367 0.929 . S
H358 C362 0.929 . S
H359 C368 0.929 . S
C360 H354 0.930 . S
C360 C361 1.367 . S
C360 C368 1.378 . S
C361 C360 1.367 . S
C361 C369 1.433 . S
C362 H358 0.929 . S
C362 C364 1.378 . S
C362 C366 1.350 . S
C363 C366 1.463 . S
C363 C368 1.350 . S
C363 N371 1.427 . S
C364 H355 0.930 . S
C364 C362 1.378 . S
C364 C365 1.367 . S
C365 C364 1.367 . S
C365 C367 1.433 . S
C366 C362 1.350 . S
C366 C363 1.463 . S
C366 N370 1.427 . S
C367 H357 0.929 . S
C367 C365 1.433 . S
C367 N370 1.384 . S
C368 H359 0.929 . S
C368 C360 1.378 . S
C368 C363 1.350 . S
C369 H356 0.929 . S
C369 C361 1.433 . S
C369 N371 1.384 . S
N370 C366 1.427 . S
N370 C367 1.384 . S
N371 C363 1.427 . S
N371 C369 1.384 . S
H372 C378 0.930 . S
H373 C382 0.930 . S
H374 C387 0.929 . S
H375 C385 0.929 . S
H376 C380 0.929 . S
H377 C386 0.929 . S
C378 H372 0.930 . S
C378 C379 1.367 . S
C378 C386 1.378 . S
C379 C378 1.367 . S
C379 C387 1.433 . S
C380 H376 0.929 . S
C380 C382 1.378 . S
C380 C384 1.350 . S
C381 C384 1.463 . S
C381 C386 1.350 . S
C381 N389 1.427 . S
C382 H373 0.930 . S
C382 C380 1.378 . S
C382 C383 1.367 . S
C383 C382 1.367 . S
C383 C385 1.433 . S
C384 C380 1.350 . S
C384 C381 1.463 . S
C384 N388 1.427 . S
C385 H375 0.929 . S
C385 C383 1.433 . S
C385 N388 1.384 . S
C386 H377 0.929 . S
C386 C378 1.378 . S
C386 C381 1.350 . S
C387 H374 0.929 . S
C387 C379 1.433 . S
C387 N389 1.384 . S
N388 C384 1.427 . S
N388 C385 1.384 . S
N389 C381 1.427 . S
N389 C387 1.384 . S
H390 C396 0.930 . S
H391 C400 0.930 . S
H392 C405 0.929 . S
H393 C403 0.929 . S
H394 C398 0.929 . S
H395 C404 0.929 . S
C396 H390 0.930 . S
C396 C397 1.367 1_455 S
C396 C404 1.378 . S
C397 C396 1.367 1_655 S
C397 C405 1.433 . S
C398 H394 0.929 . S
C398 C400 1.378 . S
C398 C402 1.346 1_655 S
C399 C402 1.461 1_655 S
C399 C404 1.346 1_655 S
C399 N407 1.433 . S
C400 H391 0.930 . S
C400 C398 1.378 . S
C400 C401 1.367 1_655 S
C401 C400 1.367 1_455 S
C401 C403 1.433 . S
C402 C398 1.346 1_455 S
C402 C399 1.461 1_455 S
C402 N406 1.433 . S
C403 H393 0.929 . S
C403 C401 1.433 . S
C403 N406 1.384 . S
C404 H395 0.929 . S
C404 C396 1.378 . S
C404 C399 1.346 1_455 S
C405 H392 0.929 . S
C405 C397 1.433 . S
C405 N407 1.384 . S
N406 C402 1.433 . S
N406 C403 1.384 . S
N407 C399 1.433 . S
N407 C405 1.384 . S
H408 C414 0.930 . S
H409 C418 0.930 . S
H410 C423 0.929 . S
H411 C421 0.929 . S
H412 C416 0.929 . S
H413 C422 0.929 . S
C414 H408 0.930 . S
C414 C415 1.367 . S
C414 C422 1.378 . S
C415 C414 1.367 . S
C415 C423 1.433 1_565 S
C416 H412 0.929 . S
C416 C418 1.378 . S
C416 C420 1.350 . S
C417 C420 1.463 1_565 S
C417 C422 1.350 . S
C417 N425 1.427 1_565 S
C418 H409 0.930 . S
C418 C416 1.378 . S
C418 C419 1.367 . S
C419 C418 1.367 . S
C419 C421 1.433 1_545 S
C420 C416 1.350 . S
C420 C417 1.463 1_545 S
C420 N424 1.427 1_545 S
C421 H411 0.929 . S
C421 C419 1.433 1_565 S
C421 N424 1.384 . S
C422 H413 0.929 . S
C422 C414 1.378 . S
C422 C417 1.350 . S
C423 H410 0.929 . S
C423 C415 1.433 1_545 S
C423 N425 1.384 . S
N424 C420 1.427 1_565 S
N424 C421 1.384 . S
N425 C417 1.427 1_545 S
N425 C423 1.384 . S
H426 C432 0.930 . S
H427 C436 0.930 . S
H428 C441 0.929 . S
H429 C439 0.929 . S
H430 C434 0.929 . S
H431 C440 0.929 . S
C432 H426 0.930 . S
C432 C433 1.367 . S
C432 C440 1.378 . S
C433 C432 1.367 . S
C433 C441 1.433 . S
C434 H430 0.929 . S
C434 C436 1.378 . S
C434 C438 1.350 . S
C435 C438 1.463 . S
C435 C440 1.350 . S
C435 N443 1.427 . S
C436 H427 0.930 . S
C436 C434 1.378 . S
C436 C437 1.367 . S
C437 C436 1.367 . S
C437 C439 1.433 . S
C438 C434 1.350 . S
C438 C435 1.463 . S
C438 N442 1.427 . S
C439 H429 0.929 . S
C439 C437 1.433 . S
C439 N442 1.384 . S
C440 H431 0.929 . S
C440 C432 1.378 . S
C440 C435 1.350 . S
C441 H428 0.929 . S
C441 C433 1.433 . S
C441 N443 1.384 . S
N442 C438 1.427 . S
N442 C439 1.384 . S
N443 C435 1.427 . S
N443 C441 1.384 . S
H444 C450 0.930 . S
H445 C454 0.930 . S
H446 C459 0.929 . S
H447 C457 0.929 . S
H448 C452 0.929 . S
H449 C458 0.929 . S
C450 H444 0.930 . S
C450 C451 1.367 1_655 S
C450 C458 1.378 . S
C451 C450 1.367 1_455 S
C451 C459 1.433 . S
C452 H448 0.929 . S
C452 C454 1.378 . S
C452 C456 1.345 1_455 S
C453 C456 1.461 1_455 S
C453 C458 1.345 1_455 S
C453 N461 1.434 . S
C454 H445 0.930 . S
C454 C452 1.378 . S
C454 C455 1.367 1_455 S
C455 C454 1.367 1_655 S
C455 C457 1.433 . S
C456 C452 1.345 1_655 S
C456 C453 1.461 1_655 S
C456 N460 1.434 . S
C457 H447 0.929 . S
C457 C455 1.433 . S
C457 N460 1.384 . S
C458 H449 0.929 . S
C458 C450 1.378 . S
C458 C453 1.345 1_655 S
C459 H446 0.929 . S
C459 C451 1.433 . S
C459 N461 1.384 . S
N460 C456 1.434 . S
N460 C457 1.384 . S
N461 C453 1.434 . S
N461 C459 1.384 . S
H462 C468 0.930 . S
H463 C472 0.930 . S
H464 C477 0.929 . S
H465 C475 0.929 . S
H466 C470 0.929 . S
H467 C476 0.929 . S
C468 H462 0.930 . S
C468 C469 1.367 1_545 S
C468 C476 1.378 . S
C469 C468 1.367 1_565 S
C469 C477 1.433 . S
C470 H466 0.929 . S
C470 C472 1.378 . S
C470 C474 1.324 1_565 S
C471 C474 1.463 1_565 S
C471 C476 1.324 1_565 S
C471 N479 1.457 . S
C472 H463 0.930 . S
C472 C470 1.378 . S
C472 C473 1.367 1_565 S
C473 C472 1.367 1_545 S
C473 C475 1.433 . S
C474 C470 1.324 1_545 S
C474 C471 1.463 1_545 S
C474 N478 1.457 . S
C475 H465 0.929 . S
C475 C473 1.433 . S
C475 N478 1.384 . S
C476 H467 0.929 . S
C476 C468 1.378 . S
C476 C471 1.324 1_545 S
C477 H464 0.929 . S
C477 C469 1.433 . S
C477 N479 1.384 . S
N478 C474 1.457 . S
N478 C475 1.384 . S
N479 C471 1.457 . S
N479 C477 1.384 . S
H480 C486 0.930 . S
H481 C490 0.930 . S
H482 C495 0.929 . S
H483 C493 0.929 . S
H484 C488 0.929 . S
H485 C494 0.929 . S
C486 H480 0.930 . S
C486 C487 1.367 . S
C486 C494 1.378 . S
C487 C486 1.367 . S
C487 C495 1.433 . S
C488 H484 0.929 . S
C488 C490 1.378 . S
C488 C492 1.350 . S
C489 C492 1.463 . S
C489 C494 1.350 . S
C489 N497 1.427 . S
C490 H481 0.930 . S
C490 C488 1.378 . S
C490 C491 1.367 . S
C491 C490 1.367 . S
C491 C493 1.433 . S
C492 C488 1.350 . S
C492 C489 1.463 . S
C492 N496 1.427 . S
C493 H483 0.929 . S
C493 C491 1.433 . S
C493 N496 1.384 . S
C494 H485 0.929 . S
C494 C486 1.378 . S
C494 C489 1.350 . S
C495 H482 0.929 . S
C495 C487 1.433 . S
C495 N497 1.384 . S
N496 C492 1.427 . S
N496 C493 1.384 . S
N497 C489 1.427 . S
N497 C495 1.384 . S
H498 C504 0.930 . S
H499 C508 0.930 . S
H500 C513 0.929 . S
H501 C511 0.929 . S
H502 C506 0.929 . S
H503 C512 0.929 . S
C504 H498 0.930 . S
C504 C505 1.367 . S
C504 C512 1.378 . S
C505 C504 1.367 . S
C505 C513 1.433 . S
C506 H502 0.929 . S
C506 C508 1.378 . S
C506 C510 1.350 . S
C507 C510 1.463 1_455 S
C507 C512 1.350 . S
C507 N515 1.427 . S
C508 H499 0.930 . S
C508 C506 1.378 . S
C508 C509 1.367 . S
C509 C508 1.367 . S
C509 C511 1.433 . S
C510 C506 1.350 . S
C510 C507 1.463 1_655 S
C510 N514 1.427 . S
C511 H501 0.929 . S
C511 C509 1.433 . S
C511 N514 1.384 . S
C512 H503 0.929 . S
C512 C504 1.378 . S
C512 C507 1.350 . S
C513 H500 0.929 . S
C513 C505 1.433 . S
C513 N515 1.384 . S
N514 C510 1.427 . S
N514 C511 1.384 . S
N515 C507 1.427 . S
N515 C513 1.384 . S
H516 C522 0.930 . S
H517 C526 0.930 . S
H518 C531 0.929 . S
H519 C529 0.929 . S
H520 C524 0.929 . S
H521 C530 0.929 . S
C522 H516 0.930 . S
C522 C523 1.367 . S
C522 C530 1.378 . S
C523 C522 1.367 . S
C523 C531 1.433 . S
C524 H520 0.929 . S
C524 C526 1.378 . S
C524 C528 1.350 . S
C525 C528 1.463 1_565 S
C525 C530 1.350 . S
C525 N533 1.427 . S
C526 H517 0.930 . S
C526 C524 1.378 . S
C526 C527 1.367 . S
C527 C526 1.367 . S
C527 C529 1.433 . S
C528 C524 1.350 . S
C528 C525 1.463 1_545 S
C528 N532 1.427 . S
C529 H519 0.929 . S
C529 C527 1.433 . S
C529 N532 1.384 . S
C530 H521 0.929 . S
C530 C522 1.378 . S
C530 C525 1.350 . S
C531 H518 0.929 . S
C531 C523 1.433 . S
C531 N533 1.384 . S
N532 C528 1.427 . S
N532 C529 1.384 . S
N533 C525 1.427 . S
N533 C531 1.384 . S
H534 C540 0.930 . S
H535 C544 0.930 . S
H536 C549 0.929 . S
H537 C547 0.929 . S
H538 C542 0.929 . S
H539 C548 0.929 . S
C540 H534 0.930 . S
C540 C541 1.367 . S
C540 C548 1.378 . S
C541 C540 1.367 . S
C541 C549 1.433 . S
C542 H538 0.929 . S
C542 C544 1.378 . S
C542 C546 1.350 . S
C543 C546 1.463 . S
C543 C548 1.350 . S
C543 N551 1.427 . S
C544 H535 0.930 . S
C544 C542 1.378 . S
C544 C545 1.367 . S
C545 C544 1.367 . S
C545 C547 1.433 . S
C546 C542 1.350 . S
C546 C543 1.463 . S
C546 N550 1.427 . S
C547 H537 0.929 . S
C547 C545 1.433 . S
C547 N550 1.384 . S
C548 H539 0.929 . S
C548 C540 1.378 . S
C548 C543 1.350 . S
C549 H536 0.929 . S
C549 C541 1.433 . S
C549 N551 1.384 . S
N550 C546 1.427 . S
N550 C547 1.384 . S
N551 C543 1.427 . S
N551 C549 1.384 . S
H552 C558 0.930 1_554 S
H553 C562 0.930 . S
H554 C567 0.929 . S
H555 C565 0.929 1_554 S
H556 C560 0.929 . S
H557 C566 0.929 1_554 S
C558 H552 0.930 1_556 S
C558 C559 1.367 . S
C558 C566 1.378 . S
C559 C558 1.367 . S
C559 C567 1.433 . S
C560 H556 0.929 . S
C560 C562 1.378 . S
C560 C564 1.350 . S
C561 C564 1.463 1_655 S
C561 C566 1.350 . S
C561 N569 1.427 . S
C562 H553 0.930 . S
C562 C560 1.378 . S
C562 C563 1.367 . S
C563 C562 1.367 . S
C563 C565 1.433 . S
C564 C560 1.350 . S
C564 C561 1.463 1_455 S
C564 N568 1.427 . S
C565 H555 0.929 1_556 S
C565 C563 1.433 . S
C565 N568 1.384 . S
C566 H557 0.929 1_556 S
C566 C558 1.378 . S
C566 C561 1.350 . S
C567 H554 0.929 . S
C567 C559 1.433 . S
C567 N569 1.384 . S
N568 C564 1.427 . S
N568 C565 1.384 . S
N569 C561 1.427 . S
N569 C567 1.384 . S
H570 C576 0.930 . S
H571 C580 0.930 . S
H572 C585 0.929 . S
H573 C583 0.929 . S
H574 C578 0.929 . S
H575 C584 0.929 . S
C576 H570 0.930 . S
C576 C577 1.367 . S
C576 C584 1.378 . S
C577 C576 1.367 . S
C577 C585 1.433 . S
C578 H574 0.929 . S
C578 C580 1.378 . S
C578 C582 1.350 . S
C579 C582 1.463 1_545 S
C579 C584 1.350 . S
C579 N587 1.427 . S
C580 H571 0.930 . S
C580 C578 1.378 . S
C580 C581 1.367 . S
C581 C580 1.367 . S
C581 C583 1.433 . S
C582 C578 1.350 . S
C582 C579 1.463 1_565 S
C582 N586 1.427 . S
C583 H573 0.929 . S
C583 C581 1.433 . S
C583 N586 1.384 . S
C584 H575 0.929 . S
C584 C576 1.378 . S
C584 C579 1.350 . S
C585 H572 0.929 . S
C585 C577 1.433 . S
C585 N587 1.384 . S
N586 C582 1.427 . S
N586 C583 1.384 . S
N587 C579 1.427 . S
N587 C585 1.384 . S
C163 C10 1.344 . S
C167 C127 1.347 . S
C181 C23 1.344 . S
C185 C140 1.349 . S
C199 C36 1.345 . S
C203 C153 1.350 . S
C217 C49 1.349 . S
C221 C88 1.346 . S
C235 C101 1.346 . S
C239 C62 1.346 . S
C253 C114 1.348 . S
C257 C75 1.344 . S
C271 C130 1.355 . S
C275 C0 1.356 . S
C289 C13 1.362 . S
C293 C143 1.356 . S
C307 C26 1.358 . S
C311 C78 1.362 . S
C325 C39 1.354 . S
C329 C91 1.362 . S
C343 C52 1.360 . S
C347 C104 1.360 . S
C361 C65 1.359 . S
C365 C117 1.361 . S
C379 C125 0.725 . S
C383 C8 0.722 . S
C397 C21 0.707 . S
C401 C138 0.734 . S
C415 C34 0.696 . S
C419 C151 0.718 . S
C433 C86 0.734 . S
C437 C47 0.707 . S
C451 C60 0.709 . S
C455 C99 0.734 . S
C469 C112 0.735 . S
C473 C73 0.700 . S
C487 C5 1.368 . S
C491 C44 1.365 . S
C505 C57 1.363 . S
C509 C18 1.358 . S
C523 C31 1.362 . S
C527 C70 1.357 . S
C541 C83 1.351 . S
C545 C122 1.349 . S
C559 C96 1.363 . S
C563 C135 1.358 . S
C577 C148 1.357 . S
C581 C109 1.362 . S
