# Generated by pormake.
# Topology why, (6)-cn, num edge types: 1
# Building blocks:
#     Node 0, Type 0, BuildingBlock: HISSIN_clean_sbu_0, # of connection points: 6
#     Node 1, Type 0, BuildingBlock: HISSIN_clean_sbu_0, # of connection points: 6
#     Node 2, Type 0, BuildingBlock: HISSIN_clean_sbu_0, # of connection points: 6
#     Node 3, Type 0, BuildingBlock: HISSIN_clean_sbu_0, # of connection points: 6
#     Node 4, Type 0, BuildingBlock: HISSIN_clean_sbu_0, # of connection points: 6
#     Node 5, Type 0, BuildingBlock: HISSIN_clean_sbu_0, # of connection points: 6
#     Node 6, Type 0, BuildingBlock: HISSIN_clean_sbu_0, # of connection points: 6
#     Node 7, Type 0, BuildingBlock: HISSIN_clean_sbu_0, # of connection points: 6
#     Node 8, Type 0, BuildingBlock: HISSIN_clean_sbu_0, # of connection points: 6
#     Node 9, Type 0, BuildingBlock: HISSIN_clean_sbu_0, # of connection points: 6
#     Node 10, Type 0, BuildingBlock: HISSIN_clean_sbu_0, # of connection points: 6
#     Node 11, Type 0, BuildingBlock: HISSIN_clean_sbu_0, # of connection points: 6
#     Node 12, Type 0, BuildingBlock: HISSIN_clean_sbu_0, # of connection points: 6
#     Node 13, Type 0, BuildingBlock: HISSIN_clean_sbu_0, # of connection points: 6
#     Node 14, Type 0, BuildingBlock: HISSIN_clean_sbu_0, # of connection points: 6
#     Node 15, Type 0, BuildingBlock: HISSIN_clean_sbu_0, # of connection points: 6
#     Edge 16, Type (0, 0), BuildingBlock: OJICUG_clean_linker_0, # of connection points: 2
#     Edge 17, Type (0, 0), BuildingBlock: OJICUG_clean_linker_0, # of connection points: 2
#     Edge 18, Type (0, 0), BuildingBlock: OJICUG_clean_linker_0, # of connection points: 2
#     Edge 19, Type (0, 0), BuildingBlock: OJICUG_clean_linker_0, # of connection points: 2
#     Edge 20, Type (0, 0), BuildingBlock: OJICUG_clean_linker_0, # of connection points: 2
#     Edge 21, Type (0, 0), BuildingBlock: OJICUG_clean_linker_0, # of connection points: 2
#     Edge 22, Type (0, 0), BuildingBlock: OJICUG_clean_linker_0, # of connection points: 2
#     Edge 23, Type (0, 0), BuildingBlock: OJICUG_clean_linker_0, # of connection points: 2
#     Edge 24, Type (0, 0), BuildingBlock: OJICUG_clean_linker_0, # of connection points: 2
#     Edge 25, Type (0, 0), BuildingBlock: OJICUG_clean_linker_0, # of connection points: 2
#     Edge 26, Type (0, 0), BuildingBlock: OJICUG_clean_linker_0, # of connection points: 2
#     Edge 27, Type (0, 0), BuildingBlock: OJICUG_clean_linker_0, # of connection points: 2
#     Edge 28, Type (0, 0), BuildingBlock: OJICUG_clean_linker_0, # of connection points: 2
#     Edge 29, Type (0, 0), BuildingBlock: OJICUG_clean_linker_0, # of connection points: 2
#     Edge 30, Type (0, 0), BuildingBlock: OJICUG_clean_linker_0, # of connection points: 2
#     Edge 31, Type (0, 0), BuildingBlock: OJICUG_clean_linker_0, # of connection points: 2
#     Edge 32, Type (0, 0), BuildingBlock: OJICUG_clean_linker_0, # of connection points: 2
#     Edge 33, Type (0, 0), BuildingBlock: OJICUG_clean_linker_0, # of connection points: 2
#     Edge 34, Type (0, 0), BuildingBlock: OJICUG_clean_linker_0, # of connection points: 2
#     Edge 35, Type (0, 0), BuildingBlock: OJICUG_clean_linker_0, # of connection points: 2
#     Edge 36, Type (0, 0), BuildingBlock: OJICUG_clean_linker_0, # of connection points: 2
#     Edge 37, Type (0, 0), BuildingBlock: OJICUG_clean_linker_0, # of connection points: 2
#     Edge 38, Type (0, 0), BuildingBlock: OJICUG_clean_linker_0, # of connection points: 2
#     Edge 39, Type (0, 0), BuildingBlock: OJICUG_clean_linker_0, # of connection points: 2
#     Edge 40, Type (0, 0), BuildingBlock: OJICUG_clean_linker_0, # of connection points: 2
#     Edge 41, Type (0, 0), BuildingBlock: OJICUG_clean_linker_0, # of connection points: 2
#     Edge 42, Type (0, 0), BuildingBlock: OJICUG_clean_linker_0, # of connection points: 2
#     Edge 43, Type (0, 0), BuildingBlock: OJICUG_clean_linker_0, # of connection points: 2
#     Edge 44, Type (0, 0), BuildingBlock: OJICUG_clean_linker_0, # of connection points: 2
#     Edge 45, Type (0, 0), BuildingBlock: OJICUG_clean_linker_0, # of connection points: 2
#     Edge 46, Type (0, 0), BuildingBlock: OJICUG_clean_linker_0, # of connection points: 2
#     Edge 47, Type (0, 0), BuildingBlock: OJICUG_clean_linker_0, # of connection points: 2
#     Edge 48, Type (0, 0), BuildingBlock: OJICUG_clean_linker_0, # of connection points: 2
#     Edge 49, Type (0, 0), BuildingBlock: OJICUG_clean_linker_0, # of connection points: 2
#     Edge 50, Type (0, 0), BuildingBlock: OJICUG_clean_linker_0, # of connection points: 2
#     Edge 51, Type (0, 0), BuildingBlock: OJICUG_clean_linker_0, # of connection points: 2
#     Edge 52, Type (0, 0), BuildingBlock: OJICUG_clean_linker_0, # of connection points: 2
#     Edge 53, Type (0, 0), BuildingBlock: OJICUG_clean_linker_0, # of connection points: 2
#     Edge 54, Type (0, 0), BuildingBlock: OJICUG_clean_linker_0, # of connection points: 2
#     Edge 55, Type (0, 0), BuildingBlock: OJICUG_clean_linker_0, # of connection points: 2
#     Edge 56, Type (0, 0), BuildingBlock: OJICUG_clean_linker_0, # of connection points: 2
#     Edge 57, Type (0, 0), BuildingBlock: OJICUG_clean_linker_0, # of connection points: 2
#     Edge 58, Type (0, 0), BuildingBlock: OJICUG_clean_linker_0, # of connection points: 2
#     Edge 59, Type (0, 0), BuildingBlock: OJICUG_clean_linker_0, # of connection points: 2
#     Edge 60, Type (0, 0), BuildingBlock: OJICUG_clean_linker_0, # of connection points: 2
#     Edge 61, Type (0, 0), BuildingBlock: OJICUG_clean_linker_0, # of connection points: 2
#     Edge 62, Type (0, 0), BuildingBlock: OJICUG_clean_linker_0, # of connection points: 2
#     Edge 63, Type (0, 0), BuildingBlock: OJICUG_clean_linker_0, # of connection points: 2
# Relax obj value: 0.534
# Max RMSD: 0.259
# Mean RMSD: 0.259
data_MOF--net-why--node1-HISSIN_clean_sbu_0--edge1-OJICUG_clean_linker_0
_symmetry_space_group_name_H-M    P1
_symmetry_Int_Tables_number       1
_symmetry_cell_setting            triclinic
loop_
_symmetry_equiv_pos_as_xyz
'x, y, z'
_cell_length_a     36.915472
_cell_length_b     36.964968
_cell_length_c     32.008405
_cell_angle_alpha  90.039182
_cell_angle_beta   89.921069
_cell_angle_gamma 90.441463
loop_
_atom_site_label
_atom_site_type_symbol
_atom_site_fract_x
_atom_site_fract_y
_atom_site_fract_z
_atom_type_partial_charge
Eu0 Eu 0.52032 0.22993 0.06653 0.0
Eu1 Eu 0.47603 0.27307 0.12598 0.0
C2 C 0.49153 0.30788 0.03622 0.0
C3 C 0.57322 0.1976 0.9731 0.0
C4 C 0.56512 0.2299 0.95229 0.0
C5 C 0.60901 0.17839 0.91367 0.0
C6 C 0.5792 0.23663 0.91259 0.0
C7 C 0.59492 0.17172 0.95352 0.0
C8 C 0.60158 0.21111 0.89303 0.0
C9 C 0.55877 0.19097 1.01503 0.0
O10 O 0.42912 0.25812 0.07737 0.0
O11 O 0.46466 0.23225 0.02793 0.0
C12 C 0.43181 0.24453 0.03867 0.0
O13 O 0.51093 0.18488 0.11904 0.0
O14 O 0.42428 0.28449 0.15579 0.0
O15 O 0.4737 0.30885 0.17999 0.0
O16 O 0.48692 0.22086 0.16785 0.0
C17 C 0.49855 0.188 0.15793 0.0
O18 O 0.56446 0.27613 0.08513 0.0
O19 O 0.5274 0.31314 0.1217 0.0
O20 O 0.47232 0.3103 0.0706 0.0
O21 O 0.57285 0.21047 0.04495 0.0
O22 O 0.52358 0.18925 0.01748 0.0
O23 O 0.5133 0.28069 0.02941 0.0
C24 C 0.43195 0.28407 0.22837 0.0
C25 C 0.45954 0.26902 0.25312 0.0
C26 C 0.3877 0.26515 0.27976 0.0
C27 C 0.45132 0.25343 0.29181 0.0
C28 C 0.39597 0.28105 0.2415 0.0
C29 C 0.41536 0.25223 0.3061 0.0
C30 C 0.43989 0.30039 0.18746 0.0
C31 C 0.55996 0.30849 0.1039 0.0
H32 H 0.5481 0.25002 0.96685 0.0
H33 H 0.62657 0.15846 0.89955 0.0
H34 H 0.57276 0.26191 0.8973 0.0
H35 H 0.60129 0.1466 0.96921 0.0
H36 H 0.48757 0.26998 0.24309 0.0
H37 H 0.3597 0.26541 0.28983 0.0
H38 H 0.47317 0.24397 0.31144 0.0
H39 H 0.37424 0.29171 0.22251 0.0
Eu40 Eu 0.76247 0.77112 0.31831 0.0
Eu41 Eu 0.71667 0.72544 0.37528 0.0
C42 C 0.68639 0.74265 0.28322 0.0
C43 C 0.79669 0.82655 0.22824 0.0
C44 C 0.76393 0.81928 0.20769 0.0
C45 C 0.81563 0.86435 0.1702 0.0
C46 C 0.75681 0.83468 0.16892 0.0
C47 C 0.82265 0.84897 0.20928 0.0
C48 C 0.78246 0.85756 0.1499 0.0
C49 C 0.80346 0.81038 0.26923 0.0
O50 O 0.7335 0.67948 0.32663 0.0
O51 O 0.76076 0.71574 0.27862 0.0
C52 C 0.74811 0.68263 0.28847 0.0
O53 O 0.80513 0.76091 0.37291 0.0
O54 O 0.67426 0.72143 0.42253 0.0
O55 O 0.70359 0.6734 0.40376 0.0
O56 O 0.76787 0.73502 0.42008 0.0
C57 C 0.80108 0.74755 0.41131 0.0
O58 O 0.71634 0.81497 0.33605 0.0
O59 O 0.67824 0.77753 0.3712 0.0
O60 O 0.68434 0.7214 0.31581 0.0
O61 O 0.78484 0.82373 0.3002 0.0
O62 O 0.80365 0.77514 0.26971 0.0
O63 O 0.71225 0.76677 0.27968 0.0
C64 C 0.64047 0.66862 0.40707 0.0
C65 C 0.63597 0.63141 0.41282 0.0
C66 C 0.58309 0.67047 0.3696 0.0
C67 C 0.60514 0.61392 0.39772 0.0
C68 C 0.61432 0.68791 0.38424 0.0
C69 C 0.57786 0.63337 0.37682 0.0
C70 C 0.67427 0.68614 0.4209 0.0
C71 C 0.6836 0.81025 0.35411 0.0
H72 H 0.74381 0.80172 0.22168 0.0
H73 H 0.83571 0.8822 0.15635 0.0
H74 H 0.73123 0.82866 0.15378 0.0
H75 H 0.84813 0.85475 0.22476 0.0
H76 H 0.65617 0.6159 0.4294 0.0
H77 H 0.56239 0.68617 0.35414 0.0
H78 H 0.60176 0.58546 0.40478 0.0
H79 H 0.61771 0.71656 0.37814 0.0
Eu80 Eu 0.22318 1.01116 0.56797 0.0
Eu81 Eu 0.26726 0.96765 0.62656 0.0
C82 C 0.25305 0.93401 0.53585 0.0
C83 C 0.17092 1.04451 0.47511 0.0
C84 C 0.17997 1.01276 0.45367 0.0
C85 C 0.13473 1.06357 0.41616 0.0
C86 C 0.16612 1.00617 0.41392 0.0
C87 C 0.14857 1.07008 0.45611 0.0
C88 C 0.14305 1.03132 0.39497 0.0
C89 C 0.18474 1.05067 0.51731 0.0
O90 O 0.31439 0.98305 0.5782 0.0
O91 O 0.27891 1.0093 0.52915 0.0
C92 C 0.31178 0.99694 0.53964 0.0
O93 O 0.23216 1.0559 0.62083 0.0
O94 O 0.31891 0.95492 0.65564 0.0
O95 O 0.26907 0.93228 0.68094 0.0
O96 O 0.25699 1.01991 0.6689 0.0
C97 C 0.24488 1.05271 0.65949 0.0
O98 O 0.17873 0.96518 0.5863 0.0
O99 O 0.21577 0.92765 0.6219 0.0
O100 O 0.27166 0.93104 0.57055 0.0
O101 O 0.17062 1.03031 0.54644 0.0
O102 O 0.21987 1.0529 0.52022 0.0
O103 O 0.23109 0.96113 0.52951 0.0
C104 C 0.31201 0.95649 0.7283 0.0
C105 C 0.28503 0.97192 0.75374 0.0
C106 C 0.35753 0.97647 0.77757 0.0
C107 C 0.29422 0.98836 0.79167 0.0
C108 C 0.34831 0.95972 0.7401 0.0
C109 C 0.33055 0.99007 0.80449 0.0
C110 C 0.30317 0.93985 0.68778 0.0
C111 C 0.1831 0.93263 0.60459 0.0
H112 H 0.19749 0.99291 0.46782 0.0
H113 H 1.11664 1.08318 0.40243 0.0
H114 H 0.1732 0.98127 0.39813 0.0
H115 H 0.14144 1.09476 0.47234 0.0
H116 H 0.25677 0.97076 0.74476 0.0
H117 H 0.38578 0.97651 0.78659 0.0
H118 H 0.27289 0.99825 0.81184 0.0
H119 H 0.36958 0.94873 0.72058 0.0
Eu120 Eu 0.98163 0.47057 0.81744 0.0
Eu121 Eu 1.02516 0.51566 0.87595 0.0
C122 C 1.05956 0.50106 0.78597 0.0
C123 C 0.94927 0.41836 0.72377 0.0
C124 C 0.98201 0.42687 0.70368 0.0
C125 C 0.93037 0.38372 0.66323 0.0
C126 C 0.98915 0.4135 0.66385 0.0
C127 C 0.92329 0.39707 0.70327 0.0
C128 C 0.96359 0.39145 0.64342 0.0
C129 C 0.9425 0.43174 0.76606 0.0
O130 O 1.0096 0.56238 0.82771 0.0
O131 O 0.98396 0.5261 0.77853 0.0
C132 C 0.99608 0.55923 0.789 0.0
O133 O 0.93671 0.47887 0.87044 0.0
O134 O 1.04212 0.56678 0.90382 0.0
O135 O 1.05706 0.51612 0.93325 0.0
O136 O 0.9719 0.50714 0.91728 0.0
C137 C 0.93941 0.49346 0.90837 0.0
O138 O 1.0271 0.42665 0.83641 0.0
O139 O 1.06495 0.46452 0.87119 0.0
O140 O 1.06251 0.51976 0.82063 0.0
O141 O 0.96263 0.41787 0.79533 0.0
O142 O 0.94007 0.46676 0.76936 0.0
O143 O 1.03218 0.47901 0.77939 0.0
C144 C 1.03477 0.56177 0.97672 0.0
C145 C 1.05157 0.55551 1.01506 0.0
C146 C 0.98244 0.58635 1.01309 0.0
C147 C 1.03447 0.56547 0.05208 0.0
C148 C 0.99949 0.57602 0.97601 0.0
C149 C 1.00023 0.58225 0.05149 0.0
C150 C 1.05304 0.55092 0.93793 0.0
C151 C 1.05975 0.43159 0.85444 0.0
H152 H 1.00221 0.44356 0.71895 0.0
H153 H 0.91038 0.36641 0.64834 0.0
H154 H 1.01481 0.42013 0.64916 0.0
H155 H 0.89784 0.39039 0.71841 0.0
H156 H 1.07834 0.54372 0.01632 0.0
H157 H 0.95625 0.59931 1.01161 0.0
H158 H 1.04942 0.56236 0.08091 0.0
H159 H 0.98541 0.58005 0.94673 0.0
Eu160 Eu 0.76927 0.96686 0.90714 0.0
Eu161 Eu 0.72438 1.01243 0.96416 0.0
C162 C 0.74747 1.0509 0.87073 0.0
C163 C 0.82198 0.88909 0.87405 0.0
C164 C 0.81617 0.85834 0.84955 0.0
C165 C 0.85256 0.85219 0.92603 0.0
C166 C 0.82903 0.82491 0.86267 0.0
C167 C 0.83925 0.88564 0.91307 0.0
C168 C 0.8483 0.82157 0.90052 0.0
C169 C 0.80659 0.92378 0.86085 0.0
O170 O 0.67989 0.96626 0.94708 0.0
O171 O 0.71682 0.92837 0.91177 0.0
C172 C 0.68421 0.93363 0.92901 0.0
O173 O 0.77292 0.93474 0.96676 0.0
O174 O 0.67224 1.03599 0.98045 0.0
O175 O 0.7205 1.05244 1.01397 0.0
O176 O 0.72787 0.96237 1.00318 0.0
C177 C 0.75177 0.93668 0.99951 0.0
O178 O 0.81563 0.98313 0.9559 0.0
O179 O 0.77983 1.01094 1.00365 0.0
O180 O 0.73481 1.05506 0.90942 0.0
O181 O 0.77129 0.92444 0.85988 0.0
O182 O 0.82059 0.9528 0.87783 0.0
O183 O 0.75972 1.01778 0.86203 0.0
C184 C 0.66748 1.04509 0.05268 0.0
C185 C 0.66565 1.00923 0.06673 0.0
C186 C 0.63791 1.06481 0.11628 0.0
C187 C 0.65013 1.00113 0.10523 0.0
C188 C 0.65375 1.07292 0.07764 0.0
C189 C 0.63582 1.02876 0.1303 0.0
C190 C 0.68524 1.05312 1.01286 0.0
C191 C 0.81267 0.99783 0.99403 0.0
H192 H 0.8021 0.86025 0.81995 0.0
H193 H 0.86749 0.85053 0.95507 0.0
H194 H 0.82578 0.80214 0.84168 0.0
H195 H 0.84301 0.90886 0.9333 0.0
H196 H 0.67624 0.98744 0.0479 0.0
H197 H 0.6267 1.0866 0.13476 0.0
H198 H 0.64938 0.97319 0.1154 0.0
H199 H 0.65519 1.10078 0.06724 0.0
Eu200 Eu 0.52713 0.51554 0.65563 0.0
Eu201 Eu 0.48342 0.47266 0.71649 0.0
C202 C 0.44172 0.4936 0.62433 0.0
C203 C 0.5407 0.55303 0.55058 0.0
C204 C 0.50427 0.56255 0.54401 0.0
C205 C 0.54849 0.54643 0.47598 0.0
C206 C 0.49044 0.56522 0.50353 0.0
C207 C 0.56228 0.54395 0.51634 0.0
C208 C 0.51277 0.55838 0.46891 0.0
C209 C 0.55555 0.54966 0.59301 0.0
O210 O 0.53124 0.42952 0.70348 0.0
O211 O 0.56378 0.46189 0.65628 0.0
C212 C 0.56113 0.43164 0.67934 0.0
O213 O 0.56431 0.52106 0.71095 0.0
O214 O 0.46204 0.42041 0.73719 0.0
O215 O 0.44313 0.46982 0.76602 0.0
O216 O 0.53417 0.48126 0.7537 0.0
C217 C 0.56161 0.50295 0.74605 0.0
O218 O 0.51332 0.56296 0.70455 0.0
O219 O 0.48478 0.52872 0.75366 0.0
O220 O 0.43875 0.4808 0.6631 0.0
O221 O 0.53781 0.56606 0.6227 0.0
O222 O 0.56526 0.51707 0.60353 0.0
O223 O 0.47452 0.50568 0.61432 0.0
C224 C 0.45018 0.41968 0.80921 0.0
C225 C 0.4832 0.42683 0.82926 0.0
C226 C 0.43027 0.38463 0.86897 0.0
C227 C 0.48989 0.41273 0.86881 0.0
C228 C 0.42361 0.39881 0.82928 0.0
C229 C 0.46363 0.39121 0.8889 0.0
C230 C 0.44346 0.43462 0.76772 0.0
C231 C 0.4983 0.56112 0.7428 0.0
H232 H 0.48661 0.56874 0.57005 0.0
H233 H 0.56688 0.54139 0.4503 0.0
H234 H 0.46293 0.57449 0.49921 0.0
H235 H 0.59013 0.53571 0.52075 0.0
H236 H 0.50388 0.4432 0.81426 0.0
H237 H 0.40976 0.36772 0.88354 0.0
H238 H 0.51568 0.4185 0.88359 0.0
H239 H 0.39793 0.39322 0.81414 0.0
Eu240 Eu 0.97814 0.27534 0.4054 0.0
Eu241 Eu 1.02266 0.23206 0.46377 0.0
C242 C 1.00063 0.19033 0.37242 0.0
C243 C 0.93175 0.28467 0.30485 0.0
C244 C 0.93763 0.30206 0.26672 0.0
C245 C 0.90733 0.23228 0.26795 0.0
C246 C 0.92753 0.2852 0.22955 0.0
C247 C 0.91781 0.24908 0.30518 0.0
C248 C 0.91099 0.25063 0.2298 0.0
C249 C 0.94249 0.30279 0.34383 0.0
O250 O 1.06681 0.27817 0.44559 0.0
O251 O 1.02948 0.3155 0.41009 0.0
C252 C 1.06216 0.31067 0.42741 0.0
O253 O 0.97532 0.31306 0.46039 0.0
O254 O 1.07531 0.21274 0.48461 0.0
O255 O 1.02624 0.19062 0.51185 0.0
O256 O 1.01505 0.28234 0.50196 0.0
C257 C 0.99384 0.30997 0.49511 0.0
O258 O 0.93133 0.25981 0.45414 0.0
O259 O 0.96734 0.23427 0.5032 0.0
O260 O 1.01406 0.18735 0.41078 0.0
O261 O 0.92677 0.29111 0.37785 0.0
O262 O 0.9773 0.30768 0.34844 0.0
O263 O 0.98769 0.22285 0.36335 0.0
C264 C 1.07565 0.19949 0.55607 0.0
C265 C 1.06794 0.23218 0.57632 0.0
C266 C 1.11114 0.18063 0.61561 0.0
C267 C 1.08209 0.23931 0.61578 0.0
C268 C 1.097 0.17358 0.57595 0.0
C269 C 1.10411 0.21376 0.63561 0.0
C270 C 1.06141 0.19276 0.51423 0.0
C271 C 0.93437 0.24644 0.49291 0.0
H272 H 0.94916 0.3291 0.26575 0.0
H273 H 0.89455 0.20582 0.26917 0.0
H274 H 0.93028 0.30057 0.20093 0.0
H275 H 0.91409 0.23457 0.33427 0.0
H276 H 1.05123 0.25232 0.56147 0.0
H277 H 0.12841 0.16069 0.63009 0.0
H278 H 1.07601 0.26488 0.63068 0.0
H279 H 1.10308 0.14819 0.56062 0.0
Eu280 Eu 0.21843 0.72687 0.15896 0.0
Eu281 Eu 0.26539 0.77239 0.21536 0.0
C282 C 0.30365 0.74753 0.12278 0.0
C283 C 0.13732 0.67988 0.12124 0.0
C284 C 1.11193 0.7058 0.13447 0.0
C285 C 1.09237 0.63285 0.13171 0.0
C286 C 1.07657 0.69535 0.14481 0.0
C287 C 0.12742 0.64333 0.12086 0.0
C288 C 1.06621 0.65879 0.14283 0.0
C289 C 0.17503 0.69011 0.1118 0.0
O290 O 0.21878 0.81605 0.19826 0.0
O291 O 0.1803 0.77885 0.1635 0.0
C292 C 0.18593 0.8115 0.18047 0.0
O293 O 0.18325 0.72716 0.21678 0.0
O294 O 0.28525 0.82565 0.23459 0.0
O295 O 0.30882 0.77759 0.2612 0.0
O296 O 0.21892 0.76269 0.25834 0.0
C297 C 0.18965 0.74337 0.25243 0.0
O298 O 0.23533 0.68074 0.20712 0.0
O299 O 0.26388 0.71673 0.25454 0.0
O300 O 0.30787 0.76163 0.16077 0.0
O301 O 0.18153 0.72451 0.10594 0.0
O302 O 0.19928 0.67481 0.13538 0.0
O303 O 0.2704 0.73476 0.11454 0.0
C304 C 0.29987 0.82684 0.30584 0.0
C305 C 0.26656 0.82018 0.32549 0.0
C306 C 0.31965 0.8609 0.36662 0.0
C307 C 0.25964 0.83382 0.36518 0.0
C308 C 0.32661 0.84696 0.32671 0.0
C309 C 0.28585 0.85481 0.38596 0.0
C310 C 0.30616 0.81265 0.26367 0.0
C311 C 0.2505 0.68379 0.24496 0.0
H312 H 0.11916 0.73421 0.13624 0.0
H313 H 1.08527 0.60449 0.1288 0.0
H314 H 1.05695 0.7159 0.15272 0.0
H315 H 0.14672 0.62286 0.11165 0.0
H316 H 0.24562 0.8048 0.30994 0.0
H317 H 0.34022 0.87731 0.38176 0.0
H318 H 0.23355 0.82827 0.37942 0.0
H319 H 0.35254 0.85229 0.31196 0.0
Eu320 Eu 1.02033 0.72965 0.56792 0.0
Eu321 Eu 0.97671 0.77371 0.62628 0.0
C322 C 0.99248 0.807 0.53549 0.0
C323 C 1.07384 0.6933 0.47628 0.0
C324 C 1.05668 0.71498 0.44628 0.0
C325 C 0.12351 0.68345 0.42831 0.0
C326 C 1.07302 0.721 0.4075 0.0
C327 C 1.10699 0.6771 0.46684 0.0
C328 C 1.1069 0.70588 0.39865 0.0
C329 C 1.05845 0.68893 0.51818 0.0
O330 O 0.92954 0.75884 0.5778 0.0
O331 O 0.96479 0.73188 0.52894 0.0
C332 C 0.93204 0.74466 0.53935 0.0
O333 O 1.01055 0.68529 0.62089 0.0
O334 O 0.92508 0.78455 0.6567 0.0
O335 O 0.97408 0.81123 0.67869 0.0
O336 O 0.98797 0.72227 0.66946 0.0
C337 C 0.99896 0.68909 0.65996 0.0
O338 O 1.06509 0.77554 0.58606 0.0
O339 O 1.02842 0.8133 0.62203 0.0
O340 O 0.97345 0.81008 0.56997 0.0
O341 O 1.07276 0.70911 0.54734 0.0
O342 O 1.02322 0.68769 0.52041 0.0
O343 O 1.01399 0.77951 0.5291 0.0
C344 C 0.93428 0.78619 0.729 0.0
C345 C 0.96294 0.77264 0.75329 0.0
C346 C 0.89184 0.76618 0.78187 0.0
C347 C 0.95612 0.75722 0.79242 0.0
C348 C 0.8987 0.78193 0.74316 0.0
C349 C 0.92053 0.75468 0.80765 0.0
C350 C 0.94075 0.80181 0.68738 0.0
C351 C 1.06099 0.80811 0.60453 0.0
H352 H 1.03116 0.72799 0.45319 0.0
H353 H 0.14967 0.67153 0.42198 0.0
H354 H 1.06002 0.73872 0.38523 0.0
H355 H 0.12054 0.66034 0.48967 0.0
H356 H 0.99071 0.77454 0.74248 0.0
H357 H 0.86404 0.76537 0.79265 0.0
H358 H 0.97873 0.74888 0.81159 0.0
H359 H 0.87617 0.79138 0.72454 0.0
Eu360 Eu 0.2621 0.27139 0.81822 0.0
Eu361 Eu 0.21665 0.22581 0.87562 0.0
C362 C 0.18544 0.24347 0.78439 0.0
C363 C 0.29577 0.32704 0.72832 0.0
C364 C 0.26212 0.3213 0.70911 0.0
C365 C 0.31504 0.36321 0.66911 0.0
C366 C 0.2548 0.33655 0.67034 0.0
C367 C 0.32232 0.34788 0.70812 0.0
C368 C 0.28107 0.35786 0.65005 0.0
C369 C 0.30296 0.31056 0.76899 0.0
O370 O 0.23308 0.18006 0.82635 0.0
O371 O 0.26018 0.21629 0.77824 0.0
C372 C 0.24754 0.18321 0.78809 0.0
O373 O 0.30493 0.26088 0.87256 0.0
O374 O 0.17324 0.22066 0.92152 0.0
O375 O 0.20548 0.17383 0.90527 0.0
O376 O 0.26765 0.23585 0.92031 0.0
C377 C 0.3009 0.24794 0.91115 0.0
O378 O 0.21623 0.31535 0.83612 0.0
O379 O 0.17862 0.2783 0.87257 0.0
O380 O 0.18408 0.22176 0.81657 0.0
O381 O 0.28492 0.32388 0.80044 0.0
O382 O 0.30275 0.27532 0.76906 0.0
O383 O 0.21118 0.26769 0.78058 0.0
C384 C 0.14264 0.16589 0.90641 0.0
C385 C 0.13953 0.12877 0.9138 0.0
C386 C 1.08676 0.16381 0.86601 0.0
C387 C 1.11008 1.1094 0.89809 0.0
C388 C 1.11662 0.18313 0.88129 0.0
C389 C 1.08281 0.12683 0.87491 0.0
C390 C 0.17508 0.1854 0.92097 0.0
C391 C 0.18381 0.31088 0.85497 0.0
H392 H 0.24146 0.305 0.72408 0.0
H393 H 0.33563 0.37986 0.6543 0.0
H394 H 0.22857 0.33162 0.65619 0.0
H395 H 0.34849 0.35242 0.72257 0.0
H396 H 0.15973 1.1148 0.93214 0.0
H397 H 1.06604 0.17799 0.84872 0.0
H398 H 1.10764 1.08111 0.90644 0.0
H399 H 0.11903 0.21164 0.87391 0.0
Eu400 Eu 0.7205 0.51285 0.06735 0.0
Eu401 Eu 0.76585 0.4674 0.12437 0.0
C402 C 0.74678 0.43632 0.03263 0.0
C403 C 0.67003 0.5486 0.97473 0.0
C404 C 0.68208 0.51877 0.95158 0.0
C405 C 0.6316 0.56599 0.91688 0.0
C406 C 0.66848 0.51215 0.9117 0.0
C407 C 0.64505 0.57244 0.95707 0.0
C408 C 0.64281 0.53545 0.89416 0.0
C409 C 0.68311 0.55412 0.01747 0.0
O410 O 0.8123 0.48406 0.07599 0.0
O411 O 0.7759 0.50992 0.02754 0.0
C412 C 0.80901 0.49768 0.03743 0.0
O413 O 0.72972 0.55532 0.12252 0.0
O414 O 0.76711 0.43006 0.17695 0.0
O415 O 0.81748 0.44883 0.14905 0.0
O416 O 0.7588 0.5195 0.16818 0.0
C417 C 0.74482 0.55199 0.1601 0.0
O418 O 0.67588 0.46705 0.08574 0.0
O419 O 0.71336 0.42892 0.11977 0.0
O420 O 0.76705 0.4334 0.06597 0.0
O421 O 0.66839 0.53337 0.04585 0.0
O422 O 0.71819 0.55614 0.02134 0.0
O423 O 0.72455 0.46331 0.02789 0.0
C424 C 0.81203 0.38667 0.16221 0.0
C425 C 0.7861 0.3608 0.14928 0.0
C426 C 0.85926 0.34275 0.15105 0.0
C427 C 0.79667 0.32573 0.13869 0.0
C428 C 0.84867 0.3775 0.16214 0.0
C429 C 0.83334 0.31614 0.14015 0.0
C430 C 0.80166 0.42411 0.17187 0.0
C431 C 0.68049 0.43425 0.10333 0.0
H432 H 0.70171 0.50036 0.96454 0.0
H433 H 0.61152 0.58414 0.90418 0.0
H434 H 0.67777 0.4886 0.89472 0.0
H435 H 0.63555 0.59561 0.97456 0.0
H436 H 0.7576 0.36741 0.14791 0.0
H437 H 0.88771 0.33622 0.15358 0.0
H438 H 0.77613 0.30574 0.13098 0.0
H439 H 0.86915 0.39717 0.17116 0.0
Eu440 Eu 0.47995 0.9697 0.31767 0.0
Eu441 Eu 0.52643 1.01545 0.3734 0.0
C442 C 0.55528 0.99713 0.28014 0.0
C443 C 0.44186 0.91501 0.2283 0.0
C444 C 0.45912 0.93482 0.19635 0.0
C445 C 0.4374 0.86329 0.18202 0.0
C446 C 0.46554 0.91887 0.15752 0.0
C447 C 0.43052 0.87938 0.22064 0.0
C448 C 0.4554 0.88277 0.15042 0.0
C449 C 0.4378 0.93032 0.27039 0.0
O450 O 0.51011 1.06092 0.32417 0.0
O451 O 0.4817 1.02463 0.27716 0.0
C452 C 0.49501 1.05764 0.28636 0.0
O453 O 0.4378 0.98053 0.37254 0.0
O454 O 0.57035 1.02151 0.41838 0.0
O455 O 0.53744 1.06783 0.40215 0.0
O456 O 0.47586 1.0055 0.41934 0.0
C457 C 0.44237 0.99354 0.41095 0.0
O458 O 0.5263 0.92597 0.3355 0.0
O459 O 0.56458 0.9633 0.37053 0.0
O460 O 0.55885 1.01735 0.31356 0.0
O461 O 0.45869 0.91671 0.29912 0.0
O462 O 0.436 0.96546 0.27269 0.0
O463 O 0.52815 0.97451 0.27607 0.0
C464 C 0.60013 1.0767 0.403 0.0
C465 C 0.60296 1.11373 0.41112 0.0
C466 C 0.6558 1.07981 0.36215 0.0
C467 C 0.63218 0.13357 0.39555 0.0
C468 C 0.62616 1.06002 0.3773 0.0
C469 C 0.65948 1.11669 0.37176 0.0
C470 C 0.56802 1.05673 0.41772 0.0
C471 C 0.55907 0.93059 0.35353 0.0
H472 H 0.46852 0.96227 0.20171 0.0
H473 H 0.42933 0.83537 0.17705 0.0
H474 H 0.47983 0.93418 0.13371 0.0
H475 H 0.41727 0.8637 0.24493 0.0
H476 H 0.58275 0.12726 0.42996 0.0
H477 H 0.67657 1.06605 0.34438 0.0
H478 H 0.63445 0.16175 0.40449 0.0
H479 H 0.62394 1.03159 0.36941 0.0
Eu480 Eu 0.26868 0.46859 0.40842 0.0
Eu481 Eu 0.22333 0.51379 0.46604 0.0
C482 C 0.24737 0.55308 0.37317 0.0
C483 C 0.31978 0.39015 0.37387 0.0
C484 C 0.3135 0.36017 0.34825 0.0
C485 C 0.3486 0.35115 0.42514 0.0
C486 C 0.32525 0.32608 0.36049 0.0
C487 C 0.33642 0.38527 0.41304 0.0
C488 C 0.3438 0.32129 0.39859 0.0
C489 C 0.30557 0.42558 0.36154 0.0
O490 O 0.17867 0.46826 0.44734 0.0
O491 O 0.21596 0.43041 0.41241 0.0
C492 C 0.18314 0.4357 0.42913 0.0
O493 O 0.27183 0.43576 0.46752 0.0
O494 O 0.17115 0.53515 0.48635 0.0
O495 O 0.22066 0.55542 0.51412 0.0
O496 O 0.22673 0.4632 0.50407 0.0
C497 C 0.25051 0.43744 0.50013 0.0
O498 O 0.31489 0.48461 0.45727 0.0
O499 O 0.27871 0.51119 0.50561 0.0
O500 O 0.23321 0.5566 0.41129 0.0
O501 O 0.27033 0.42727 0.35983 0.0
O502 O 0.32007 0.45375 0.37981 0.0
O503 O 0.26049 0.52033 0.36446 0.0
C504 C 0.17069 0.54776 0.55822 0.0
C505 C 0.17984 0.51603 0.57962 0.0
C506 C 0.13278 0.5656 0.6165 0.0
C507 C 0.16516 0.5088 0.61887 0.0
C508 C 0.14736 0.5727 0.57694 0.0
C509 C 0.14123 0.53334 0.63754 0.0
C510 C 0.18544 0.55439 0.51637 0.0
C511 C 0.31169 0.4986 0.49571 0.0
H512 H 0.29993 0.36321 0.31847 0.0
H513 H 0.36306 0.34836 0.45438 0.0
H514 H 0.32171 0.30391 0.33872 0.0
H515 H 0.34056 0.40789 0.43408 0.0
H516 H 0.19816 0.4967 0.56586 0.0
H517 H 1.11408 0.58478 0.63007 0.0
H518 H 0.17239 0.48392 0.63456 0.0
H519 H 0.14012 0.59737 0.56081 0.0
Eu520 Eu 1.02736 1.01568 0.15657 0.0
Eu521 Eu 0.98319 0.97169 0.21538 0.0
C522 C 0.94227 0.99321 0.1236 0.0
C523 C 1.04324 1.05145 0.05109 0.0
C524 C 1.00676 1.05951 0.04256 0.0
C525 C 1.05371 1.04273 0.97722 0.0
C526 C 0.99418 1.06034 1.00141 0.0
C527 C 1.06624 1.04211 0.01821 0.0
C528 C 1.01782 1.05305 0.9681 0.0
C529 C 1.0567 1.04937 0.09423 0.0
O530 O 1.02883 0.92735 0.19759 0.0
O531 O 1.06669 0.96434 0.16158 0.0
C532 C 1.06148 0.93182 0.17924 0.0
O533 O 1.06312 1.02168 0.21289 0.0
O534 O 0.96205 0.91925 0.23579 0.0
O535 O 0.94272 0.96836 0.26475 0.0
O536 O 1.03432 0.9787 0.25249 0.0
C537 C 1.061 1.00175 0.24667 0.0
O538 O 1.01254 1.06278 0.2051 0.0
O539 O 0.98556 1.02723 0.25411 0.0
O540 O 0.93847 0.98162 0.16273 0.0
O541 O 1.0376 1.06587 0.12273 0.0
O542 O 1.06684 1.01722 0.10593 0.0
O543 O 0.97566 1.00392 0.11382 0.0
C544 C 0.95015 0.91811 0.30779 0.0
C545 C 0.98344 0.92476 0.32749 0.0
C546 C 0.93031 0.8832 0.36774 0.0
C547 C 0.9903 0.91046 0.3669 0.0
C548 C 0.92349 0.89754 0.32814 0.0
C549 C 0.96394 0.88926 0.38727 0.0
C550 C 0.94332 0.93317 0.26634 0.0
C551 C 0.99829 1.0601 0.24362 0.0
H552 H 0.98805 1.06585 0.06755 0.0
H553 H 1.07309 1.03746 0.9526 0.0
H554 H 0.96651 1.06842 0.99551 0.0
H555 H 1.09418 1.03495 0.02417 0.0
H556 H 1.00418 0.94089 0.31231 0.0
H557 H 0.9097 0.86656 0.38254 0.0
H558 H 1.0163 0.91584 0.38138 0.0
H559 H 0.8976 0.89232 0.3133 0.0
Eu560 Eu 0.47793 0.77614 0.90791 0.0
Eu561 Eu 0.52275 0.72965 0.96422 0.0
C562 C 0.49931 0.69183 0.87103 0.0
C563 C 0.42836 0.85558 0.8734 0.0
C564 C 0.43411 0.8849 0.84667 0.0
C565 C 0.40143 0.896 0.92472 0.0
C566 C 0.42291 0.91935 0.85835 0.0
C567 C 0.41305 0.86152 0.91314 0.0
C568 C 0.40542 0.92515 0.89701 0.0
C569 C 0.44151 0.81966 0.86133 0.0
O570 O 0.56712 0.77614 0.94726 0.0
O571 O 0.53022 0.81454 0.91289 0.0
C572 C 0.56284 0.80898 0.9297 0.0
O573 O 0.4757 0.80915 0.96734 0.0
O574 O 0.57547 0.70791 0.98135 0.0
O575 O 0.52707 0.6877 1.01176 0.0
O576 O 0.51634 0.7774 1.00603 0.0
C577 C 0.49443 0.80467 1.00166 0.0
O578 O 0.43133 0.75932 0.95605 0.0
O579 O 0.46688 0.73065 1.00329 0.0
O580 O 0.51217 0.6874 0.90948 0.0
O581 O 0.47666 0.81706 0.85892 0.0
O582 O 0.42655 0.79209 0.88032 0.0
O583 O 0.48707 0.72503 0.86268 0.0
C584 C 0.57845 0.69597 0.05309 0.0
C585 C 0.5765 0.73088 0.06993 0.0
C586 C 0.60964 0.67584 0.11538 0.0
C587 C 0.59076 0.7383 0.10919 0.0
C588 C 0.59487 0.66835 0.07603 0.0
C589 C 0.6079 0.71102 0.13219 0.0
C590 C 0.56235 0.68876 1.01215 0.0
C591 C 0.4341 0.744 0.99382 0.0
H592 H 0.44671 0.88104 0.8164 0.0
H593 H 0.38786 0.89956 0.95445 0.0
H594 H 0.42588 0.94094 0.83574 0.0
H595 H 0.4094 0.83943 0.935 0.0
H596 H 0.56408 0.75254 0.05262 0.0
H597 H 0.62309 0.65437 0.13218 0.0
H598 H 0.58847 0.76551 0.12144 0.0
H599 H 0.59649 0.6412 0.06341 0.0
Eu600 Eu 0.71936 0.22714 0.65478 0.0
Eu601 Eu 0.76334 0.26978 0.71509 0.0
C602 C 0.80443 0.24953 0.62243 0.0
C603 C 0.70292 0.19174 0.54896 0.0
C604 C 0.7393 0.18443 0.53884 0.0
C605 C 0.69012 0.20039 0.47561 0.0
C606 C 0.75066 0.18387 0.49718 0.0
C607 C 0.67879 0.20073 0.51711 0.0
C608 C 0.72589 0.19072 0.46495 0.0
C609 C 0.6905 0.19272 0.59264 0.0
O610 O 0.71527 0.31282 0.70285 0.0
O611 O 0.68301 0.28097 0.65505 0.0
C612 C 0.6855 0.31098 0.67856 0.0
O613 O 0.68244 0.22167 0.71053 0.0
O614 O 0.78624 0.3221 0.73301 0.0
O615 O 0.80216 0.27359 0.766 0.0
O616 O 0.71242 0.26222 0.75231 0.0
C617 C 0.68502 0.24039 0.74524 0.0
O618 O 0.73289 0.17983 0.70405 0.0
O619 O 0.76231 0.21389 0.75258 0.0
O620 O 0.80796 0.26081 0.66176 0.0
O621 O 0.71125 0.17704 0.62007 0.0
O622 O 0.67879 0.22404 0.60541 0.0
O623 O 0.77123 0.23863 0.61237 0.0
C624 C 0.79442 0.32581 0.80544 0.0
C625 C 0.75892 0.32394 0.82089 0.0
C626 C 0.81329 0.35758 0.86795 0.0
C627 C 0.75058 0.33878 0.85964 0.0
C628 C 0.82164 0.34251 0.8291 0.0
C629 C 0.77762 0.35593 0.88347 0.0
C630 C 0.80291 0.30884 0.76546 0.0
C631 C 0.7483 0.1816 0.74209 0.0
H632 H 0.75884 0.1783 0.56297 0.0
H633 H 0.66992 0.20523 0.45181 0.0
H634 H 0.77826 0.17623 0.49005 0.0
H635 H 0.65088 0.20723 0.52427 0.0
H636 H 0.73766 0.31092 0.80304 0.0
H637 H 0.83454 0.37109 0.88545 0.0
H638 H 0.72298 0.33673 0.87098 0.0
H639 H 0.84921 0.34395 0.81753 0.0
C640 C 0.6296 0.33496 0.1032 0.0
C641 C 0.59108 0.34065 0.10415 0.0
H642 H 0.68522 0.35611 0.10357 0.0
C643 C 0.58329 0.37883 0.10478 0.0
H644 H 0.63907 0.30734 0.10257 0.0
C645 C 0.61074 0.4079 0.10384 0.0
C646 C 0.64927 0.4022 0.1038 0.0
H647 H 0.55512 0.38673 0.10524 0.0
H648 H 0.60127 0.43554 0.10376 0.0
C649 C 0.65705 0.36402 0.10382 0.0
C650 C 0.65793 0.87983 0.35375 0.0
C651 C 0.65176 0.84132 0.35437 0.0
H652 H 0.63749 0.93535 0.35436 0.0
C653 C 0.6134 0.83351 0.35469 0.0
H654 H 0.68572 0.88937 0.35337 0.0
C655 C 0.58463 0.8609 0.35376 0.0
C656 C 0.59081 0.89941 0.35405 0.0
H657 H 0.60509 0.80537 0.3549 0.0
H658 H 0.55684 0.85137 0.35342 0.0
C659 C 0.62917 0.90721 0.35438 0.0
C660 C 0.15889 0.86248 0.60551 0.0
C661 C 0.1516 0.90077 0.60498 0.0
H662 H 0.1402 0.80599 0.60452 0.0
C663 C 1.11313 0.90689 0.60427 0.0
H664 H 0.18695 0.85423 0.6058 0.0
C665 C 1.08531 0.87816 0.60501 0.0
C666 C 1.09259 0.83988 0.6049 0.0
H667 H 1.10399 0.93464 0.60372 0.0
H668 H 1.05725 0.88643 0.6049 0.0
C669 C 0.13106 0.83374 0.60469 0.0
C670 C 1.08517 0.36201 0.85733 0.0
C671 C 1.09149 0.40046 0.85508 0.0
H672 H 1.10542 0.30649 0.86054 0.0
C673 C 0.12983 0.40806 0.85287 0.0
H674 H 1.05736 0.35265 0.85908 0.0
C675 C 0.15842 0.38051 0.85225 0.0
C676 C 0.15214 0.3421 0.85542 0.0
H677 H 0.13822 0.43612 0.85071 0.0
H678 H 0.1862 0.38984 0.84972 0.0
C679 C 1.11382 0.33454 0.85826 0.0
C680 C 0.61442 0.9078 0.9298 0.0
C681 C 0.65286 0.90177 0.92893 0.0
H682 H 0.55866 0.88709 0.92939 0.0
C683 C 0.66039 0.86355 0.92845 0.0
H684 H 0.60517 0.93551 0.9303 0.0
C685 C 0.63274 0.8347 0.92942 0.0
C686 C 0.59428 0.84075 0.92938 0.0
H687 H 0.6885 0.85544 0.92804 0.0
H688 H 0.64198 0.80699 0.92957 0.0
C689 C 0.58676 0.87897 0.92923 0.0
C690 C 0.61202 0.3881 0.71542 0.0
C691 C 0.59276 0.40033 0.67897 0.0
H692 H 0.65379 0.35469 0.74467 0.0
C693 C 0.60588 0.382 0.64223 0.0
H694 H 0.60486 0.40001 0.74518 0.0
C695 C 0.63414 0.35405 0.64215 0.0
C696 C 0.65391 0.34235 0.67848 0.0
H697 H 0.59366 0.38886 0.61259 0.0
H698 H 0.64096 0.34181 0.61247 0.0
C699 C 0.64129 0.36123 0.71508 0.0
C700 C 1.08571 0.3809 0.42728 0.0
C701 C 1.09334 0.34271 0.42736 0.0
H702 H 1.10399 0.43749 0.42899 0.0
C703 C 0.13181 0.33678 0.42808 0.0
H704 H 1.05758 0.38894 0.42707 0.0
C705 C 0.15939 0.36567 0.42774 0.0
C706 C 0.15178 0.40386 0.4283 0.0
H707 H 0.14112 0.30909 0.42832 0.0
H708 H 0.18752 0.35762 0.42781 0.0
C709 C 1.1133 0.4098 0.42849 0.0
C710 C 0.16041 0.88119 0.18019 0.0
C711 C 0.15422 0.84268 0.17999 0.0
H712 H 0.13997 0.9367 0.17881 0.0
C713 C 1.11586 0.83487 0.17952 0.0
H714 H 0.18821 0.89071 0.18057 0.0
C715 C 1.08711 0.86225 0.17997 0.0
C716 C 1.0933 0.90076 0.17925 0.0
H717 H 1.10754 0.80673 0.17952 0.0
H718 H 1.05932 0.85273 0.18024 0.0
C719 C 0.13166 0.90856 0.17907 0.0
C720 C 0.33026 0.2452 0.98877 0.0
C721 C 0.33434 0.24685 0.94419 0.0
H722 H 0.3542 0.24414 0.05126 0.0
C723 C 0.37183 0.24741 0.9322 0.0
H724 H 0.30308 0.24476 1.00148 0.0
C725 C 0.40205 0.24585 0.96159 0.0
C726 C 0.39801 0.24468 1.00616 0.0
H727 H 0.37822 0.24865 0.89922 0.0
H728 H 0.42923 0.24625 0.94886 0.0
C729 C 0.36053 0.2448 0.01824 0.0
C730 C 0.74447 0.62288 0.18156 0.0
C731 C 0.74608 0.58542 0.19328 0.0
H732 H 0.74476 0.68022 0.19854 0.0
C733 C 0.7488 0.58136 0.23779 0.0
H734 H 0.74232 0.62928 0.14867 0.0
C735 C 0.74915 0.61155 0.26742 0.0
C736 C 0.74825 0.64901 0.2556 0.0
H737 H 0.75005 0.55422 0.25034 0.0
H738 H 0.75056 0.60517 0.30037 0.0
C739 C 0.74606 0.65308 0.21109 0.0
C740 C 0.41333 0.99642 0.48903 0.0
C741 C 0.40914 0.99477 0.44446 0.0
H742 H 0.38955 0.99743 0.55171 0.0
C743 C 0.37158 0.99417 0.43279 0.0
H744 H 0.44055 0.99686 0.50154 0.0
C745 C 0.34144 0.99569 0.46239 0.0
C746 C 0.34558 0.99687 0.50694 0.0
H747 H 0.36507 0.99288 0.39986 0.0
H748 H 0.31423 0.99523 0.44984 0.0
C749 C 0.38312 0.99679 0.51873 0.0
C750 C 0.99872 0.61832 0.68176 0.0
C751 C 0.99814 0.65585 0.69329 0.0
H752 H 0.99771 0.56113 0.69916 0.0
C753 C 0.99653 0.66027 0.73785 0.0
H754 H 0.9999 0.61167 0.64885 0.0
C755 C 0.99621 0.6303 0.76771 0.0
C756 C 0.99616 0.59276 0.7561 0.0
H757 H 0.99601 0.68751 0.75023 0.0
H758 H 0.99555 0.63691 0.80064 0.0
C759 C 0.99728 0.58837 0.71155 0.0
C760 C 0.88364 0.99665 0.01581 0.0
C761 C 0.84602 0.99748 0.02725 0.0
H762 H 0.94085 0.99584 0.03345 0.0
C763 C 0.84146 0.99652 0.0718 0.0
H764 H 0.89039 0.99705 0.9829 0.0
C765 C 0.87131 0.99457 0.10172 0.0
C766 C 0.90896 0.9944 0.09032 0.0
H767 H 0.81412 0.99659 0.08409 0.0
H768 H 0.86453 0.99359 0.13461 0.0
C769 C 0.91353 0.99584 0.04577 0.0
C770 C 0.49894 0.62122 0.84924 0.0
C771 C 0.49865 0.65869 0.83748 0.0
H772 H 0.49812 0.56394 0.83234 0.0
C773 C 0.49814 0.66282 0.79284 0.0
H774 H 0.49941 0.61476 0.88221 0.0
C775 C 0.4985 0.6326 0.76318 0.0
C776 C 0.49808 0.59513 0.7751 0.0
H777 H 0.49807 0.68998 0.78027 0.0
H778 H 0.49864 0.63895 0.73018 0.0
C779 C 0.4981 0.59109 0.81969 0.0
C780 C 0.83335 0.24713 0.54463 0.0
C781 C 0.83784 0.24884 0.58917 0.0
H782 H 0.85659 0.24596 0.48173 0.0
C783 C 0.87544 0.24938 0.60054 0.0
H784 H 0.80604 0.24657 0.53235 0.0
C785 C 0.90536 0.24785 0.57059 0.0
C786 C 0.90088 0.24663 0.52604 0.0
H787 H 0.88216 0.25059 0.63342 0.0
H788 H 0.93268 0.24826 0.58285 0.0
C789 C 0.86329 0.24671 0.51462 0.0
C790 C 0.2478 0.62405 0.35188 0.0
C791 C 0.24857 0.58655 0.34005 0.0
H792 H 0.24876 0.6814 0.33501 0.0
C793 C 0.25043 0.58249 0.29548 0.0
H794 H 0.24634 0.63047 0.38484 0.0
C795 C 0.25078 0.61268 0.2659 0.0
C796 C 0.25072 0.65017 0.27779 0.0
H797 H 0.25102 0.55534 0.28284 0.0
H798 H 0.25151 0.60629 0.23291 0.0
C799 C 0.24938 0.65424 0.32238 0.0
C800 C 0.83041 0.74499 0.48913 0.0
C801 C 0.8345 0.74654 0.44453 0.0
H802 H 0.85428 0.74418 0.5517 0.0
C803 C 0.87205 0.74715 0.43267 0.0
H804 H 0.80322 0.74454 0.50181 0.0
C805 C 0.90225 0.74573 0.46214 0.0
C806 C 0.8982 0.74469 0.50674 0.0
H807 H 0.8785 0.74834 0.3997 0.0
H808 H 0.92945 0.74614 0.44945 0.0
C809 C 0.86067 0.74476 0.5187 0.0
C810 C 0.24774 1.11214 0.76688 0.0
C811 C 0.24766 0.14964 0.75514 0.0
H812 H 0.24811 1.05485 0.74968 0.0
C813 C 0.24641 0.15381 0.71057 0.0
H814 H 0.24846 1.10567 0.79984 0.0
C815 C 0.24495 0.1237 0.68091 0.0
C816 C 0.2457 1.0862 0.6926 0.0
H817 H 0.24584 0.181 0.69807 0.0
H818 H 0.24364 0.13018 0.64799 0.0
C819 C 0.24747 1.08203 0.73717 0.0
C820 C 0.83819 0.49377 0.95983 0.0
C821 C 0.84248 0.49745 1.00423 0.0
H822 H 0.86172 0.48865 0.89734 0.0
C823 C 0.88004 0.49956 0.01566 0.0
H824 H 0.81094 0.49152 0.94759 0.0
C825 C 0.91008 0.49892 0.98579 0.0
C826 C 0.90584 0.49465 0.94144 0.0
H827 H 0.88661 0.50223 0.04846 0.0
H828 H 0.93731 0.50132 0.99805 0.0
C829 C 0.86828 0.49191 0.93008 0.0
C830 C 0.49589 1.08683 0.20872 0.0
C831 C 0.49499 1.09106 0.2533 0.0
H832 H 0.49861 1.11043 0.14612 0.0
C833 C 0.49558 0.12855 0.26508 0.0
H834 H 0.49598 1.05962 0.19619 0.0
C835 C 0.49612 0.15864 0.23543 0.0
C836 C 0.49755 0.15443 0.19085 0.0
H837 H 0.4952 0.13504 0.29806 0.0
H838 H 0.49597 0.18583 0.248 0.0
C839 C 0.49762 1.11692 0.17908 0.0
C840 C 0.34059 0.49586 0.57333 0.0
C841 C 0.34504 0.49808 0.52883 0.0
H842 H 0.36395 0.49182 0.63593 0.0
C843 C 0.3826 0.49836 0.5172 0.0
H844 H 0.31329 0.49503 0.5857 0.0
C845 C 0.41257 0.49743 0.54698 0.0
C846 C 0.40816 0.49474 0.59146 0.0
H847 H 0.38924 0.49977 0.48429 0.0
H848 H 0.43985 0.49837 0.53456 0.0
C849 C 0.37058 0.49378 0.60306 0.0
C850 C 1.00215 0.1195 0.35068 0.0
C851 C 0.99995 0.15695 0.3392 0.0
H852 H 1.0025 1.06229 0.33329 0.0
C853 C 0.99691 0.16121 0.29473 0.0
H854 H 1.00449 1.11297 0.38352 0.0
C855 C 0.99682 0.1312 0.26487 0.0
C856 C 0.99836 1.09373 0.27645 0.0
H857 H 0.99503 0.18839 0.2824 0.0
H858 H 0.99498 0.13771 0.23198 0.0
C859 C 1.00084 1.08948 0.32094 0.0
C860 C 0.33274 0.74425 0.04482 0.0
C861 C 0.33697 0.74608 0.08937 0.0
H862 H 0.35642 0.74317 0.98212 0.0
C863 C 0.37455 0.74677 0.10098 0.0
H864 H 0.30551 0.74378 0.03234 0.0
C865 C 0.40468 0.74514 0.07132 0.0
C866 C 0.40047 0.74381 0.02677 0.0
H867 H 0.3811 0.74823 0.1339 0.0
H868 H 0.43192 0.74572 0.0838 0.0
C869 C 0.36291 0.74385 1.01508 0.0
C870 C 0.74893 0.15172 0.81916 0.0
C871 C 0.74851 0.14762 0.77455 0.0
H872 H 0.748 0.1282 0.88179 0.0
C873 C 0.74767 1.1101 0.76277 0.0
H874 H 0.74927 0.1789 0.83177 0.0
C875 C 0.74805 1.07994 0.79251 0.0
C876 C 0.74797 1.08412 0.83717 0.0
H877 H 0.74719 1.10364 0.72979 0.0
H878 H 0.74781 1.05274 0.77996 0.0
C879 C 0.74809 0.12165 0.84883 0.0
C880 C 0.63541 0.25379 0.84665 0.0
C881 C 0.61916 0.21971 0.85262 0.0
H882 H 0.66859 0.28714 0.80753 0.0
C883 C 0.62169 0.19359 0.82081 0.0
H884 H 0.63421 0.27436 0.87073 0.0
C885 C 0.64132 0.20101 0.78436 0.0
C886 C 0.65904 0.23449 0.7795 0.0
H887 H 0.60912 0.16721 0.82451 0.0
H888 H 0.64411 0.17996 0.76103 0.0
C889 C 0.65524 0.26105 0.81053 0.0
C890 C 0.79938 0.87693 0.07734 0.0
C891 C 0.77383 0.87542 0.10985 0.0
H892 H 0.81208 0.8969 0.01624 0.0
C893 C 0.73999 0.89186 0.10437 0.0
H894 H 0.82554 0.86416 0.08066 0.0
C895 C 0.73226 0.9105 0.06767 0.0
C896 C 0.75812 0.91284 0.03557 0.0
H897 H 0.71989 0.89134 0.12906 0.0
H898 H 0.70633 0.9238 0.06488 0.0
C899 C 0.79151 0.8953 0.04035 0.0
C900 C 1.10368 1.04146 0.2865 0.0
C901 C 1.0864 1.00779 0.28133 0.0
H902 H 0.13528 1.07545 0.32698 0.0
C903 C 1.09024 0.98115 0.3122 0.0
H904 H 1.10085 1.06257 0.2633 0.0
C905 C 1.1098 0.98849 0.34841 0.0
C906 C 0.12567 1.02271 0.3546 0.0
H907 H 1.07718 0.95495 0.30898 0.0
H908 H 1.11115 0.96787 0.37238 0.0
C909 C 0.12301 1.04896 0.32304 0.0
C910 C 0.95501 0.35374 0.5338 0.0
C911 C 0.98808 0.33555 0.52963 0.0
H912 H 0.92116 0.38578 0.57356 0.0
C913 C 1.014 0.3384 0.56153 0.0
H914 H 0.93444 0.35168 0.5098 0.0
C915 C 1.00643 0.35777 0.59778 0.0
C916 C 0.97268 0.37444 0.60299 0.0
H917 H 1.03973 0.32464 0.55909 0.0
H918 H 1.02642 0.35828 0.62253 0.0
C919 C 0.94727 0.37287 0.57038 0.0
C920 C 0.59384 0.98954 0.17162 0.0
C921 C 0.61734 1.01955 0.16997 0.0
H922 H 0.55641 0.95858 0.20784 0.0
C923 C 0.62232 1.04078 0.20598 0.0
H924 H 0.58908 0.97291 0.14426 0.0
C925 C 0.6034 1.0326 0.24267 0.0
C926 C 0.57909 1.00317 0.2438 0.0
H927 H 0.64063 1.06382 0.20569 0.0
H928 H 0.60703 1.04995 0.26967 0.0
C929 C 0.575 0.98139 0.20811 0.0
C930 C 0.44624 0.37194 0.96142 0.0
C931 C 0.47205 0.37363 0.92914 0.0
H932 H 0.4325 0.35016 0.02149 0.0
C933 C 0.50558 0.35659 0.93449 0.0
H934 H 0.42031 0.38516 0.95819 0.0
C935 C 0.51256 0.33682 0.97053 0.0
C936 C 0.48622 0.33381 1.00203 0.0
H937 H 0.52587 0.35715 0.91001 0.0
H938 H 0.53817 0.32288 0.97306 0.0
C939 C 0.45336 0.3523 0.99776 0.0
C940 C 0.15824 0.26372 0.71739 0.0
C941 C 0.16057 0.23768 0.74915 0.0
H942 H 0.1386 0.27635 0.65644 0.0
C943 C 0.14185 0.20466 0.74478 0.0
H944 H 0.17229 0.28946 0.72 0.0
C945 C 0.12266 0.19711 0.70823 0.0
C946 C 0.12155 0.22263 0.67581 0.0
H947 H 0.14326 0.18405 0.76876 0.0
H948 H 1.1092 0.17111 0.70501 0.0
C949 C 0.13883 0.25629 0.68109 0.0
C950 C 0.23457 0.90722 0.46793 0.0
C951 C 0.25986 0.90941 0.50055 0.0
H952 H 0.22323 0.88876 0.40616 0.0
C953 C 0.29322 0.89171 0.49639 0.0
H954 H 0.20868 0.92069 0.4702 0.0
C955 C 0.30168 0.87339 0.4594 0.0
C956 C 0.27672 0.8722 0.42628 0.0
H957 H 0.31339 0.89337 0.52089 0.0
H958 H 0.32784 0.86056 0.45649 0.0
C959 C 0.24289 0.88881 0.43126 0.0
C960 C 1.11145 0.71209 0.32068 0.0
C961 C 0.12677 0.71634 0.36057 0.0
H962 H 0.11966 0.71713 0.25442 0.0
C963 C 0.16165 0.73103 0.36448 0.0
H964 H 1.08444 0.70085 0.31715 0.0
C965 C 0.18128 0.74085 0.32921 0.0
C966 C 0.16664 0.73581 0.28908 0.0
H967 H 0.1738 0.73492 0.39498 0.0
H968 H 0.20846 0.75141 0.33355 0.0
C969 C 0.13149 0.72139 0.28501 0.0
C970 C 0.23893 0.39312 0.60518 0.0
C971 C 0.27231 0.37565 0.61002 0.0
H972 H 0.20562 0.42585 0.56627 0.0
C973 C 0.29732 0.37613 0.57691 0.0
H974 H 0.21925 0.39344 0.63032 0.0
C975 C 0.28945 0.39465 0.54003 0.0
C976 C 0.25659 0.41326 0.53592 0.0
H977 H 0.32308 0.36252 0.57971 0.0
H978 H 0.30968 0.39552 0.51549 0.0
C979 C 0.23117 0.41177 0.56854 0.0
C980 C 0.60229 0.54457 0.78603 0.0
C981 C 0.58723 0.50993 0.78028 0.0
H982 H 0.6316 0.58003 0.8272 0.0
C983 C 0.59291 0.48319 0.81062 0.0
H984 H 0.59782 0.56577 0.76329 0.0
C985 C 0.61224 0.49125 0.84684 0.0
C986 C 0.6258 0.52635 0.85367 0.0
H987 H 0.58143 0.45631 0.80693 0.0
H988 H 0.61516 0.47042 0.87036 0.0
C989 C 0.6212 0.55282 0.82269 0.0
C990 C 0.46696 0.85922 0.03592 0.0
C991 C 0.48685 0.82704 0.03879 0.0
H992 H 0.44156 0.90259 0.06953 0.0
C993 C 0.49703 0.81427 0.07842 0.0
H994 H 0.45861 0.86958 1.00581 0.0
C995 C 0.48671 0.83256 0.11442 0.0
C996 C 0.46643 0.86431 0.11167 0.0
H997 H 0.51202 0.78939 0.08193 0.0
H998 H 0.49453 0.8218 0.14455 0.0
C999 C 0.45715 0.87799 0.0722 0.0
C1000 C 1.10784 0.48976 0.68324 0.0
C1001 C 0.1235 0.52417 0.67766 0.0
H1002 H 1.07558 0.45539 0.72227 0.0
C1003 C 0.12077 0.54989 0.70982 0.0
H1004 H 1.10929 0.46952 0.65881 0.0
C1005 C 1.10177 0.54164 0.74646 0.0
C1006 C 1.08478 0.50775 0.75113 0.0
H1007 H 0.13285 0.57652 0.70635 0.0
H1008 H 1.09893 0.56235 0.77018 0.0
C1009 C 1.08849 0.48171 0.71951 0.0
C1010 C 0.94707 0.87065 0.4602 0.0
C1011 C 0.97247 0.87161 0.42746 0.0
H1012 H 0.93384 0.84987 0.52087 0.0
C1013 C 1.00574 0.85398 0.43243 0.0
H1014 H 0.92135 0.88431 0.45724 0.0
C1015 C 1.01288 0.83448 0.46863 0.0
C1016 C 0.987 0.83237 0.50073 0.0
H1017 H 1.0257 0.85397 0.40758 0.0
H1018 H 1.03827 0.8201 0.47089 0.0
C1019 C 0.95438 0.85133 0.49672 0.0
C1020 C 0.62365 0.69616 0.20661 0.0
C1021 C 0.62548 0.72001 0.17247 0.0
H1022 H 0.64105 0.68493 0.26906 0.0
C1023 C 0.64504 0.75257 0.17657 0.0
H1024 H 0.60837 0.6711 0.20452 0.0
C1025 C 0.66317 0.76071 0.21348 0.0
C1026 C 0.66251 0.73634 0.24708 0.0
H1027 H 0.64737 0.77137 0.15074 0.0
H1028 H 0.6786 0.7857 0.21514 0.0
C1029 C 0.64197 0.7043 0.24368 0.0
C1030 C 0.72864 0.41312 0.96276 0.0
C1031 C 0.75222 0.4117 0.99709 0.0
H1032 H 0.71857 0.39712 0.89979 0.0
C1033 C 0.78302 0.38969 0.99498 0.0
H1034 H 0.70462 0.42976 0.96347 0.0
C1035 C 0.79097 0.37081 0.95834 0.0
C1036 C 0.76813 0.37351 0.92342 0.0
H1037 H 0.80173 0.38814 0.02094 0.0
H1038 H 0.81523 0.35454 0.95711 0.0
C1039 C 0.73654 0.39427 0.9263 0.0
C1040 C 0.42434 0.27176 0.37845 0.0
C1041 C 0.40713 0.24735 0.3511 0.0
H1042 H 0.41529 0.31647 0.41896 0.0
C1043 C 0.37256 0.23432 0.36228 0.0
H1044 H 0.45188 0.28078 0.37263 0.0
C1045 C 0.35122 0.25512 0.38905 0.0
C1046 C 0.3653 0.28801 0.40434 0.0
H1047 H 0.35936 0.21375 0.34343 0.0
H1048 H 0.32232 0.24984 0.39003 0.0
C1049 C 0.40312 0.29247 0.4053 0.0
C1050 C 0.53923 0.57933 0.36438 0.0
C1051 C 0.54147 0.61659 0.373 0.0
H1052 H 0.52457 0.52818 0.3907 0.0
C1053 C 0.51412 0.63192 0.39771 0.0
H1054 H 0.55855 0.56694 0.34336 0.0
C1055 C 0.49478 0.60967 0.42512 0.0
C1056 C 0.50337 0.5727 0.42701 0.0
H1057 H 0.51342 0.66086 0.40304 0.0
H1058 H 0.48003 0.62258 0.45024 0.0
C1059 C 0.51971 0.55704 0.3917 0.0
C1060 C 0.37475 1.01034 0.858 0.0
C1061 C 0.34005 0.99651 0.84886 0.0
H1062 H 0.42588 0.99653 0.88457 0.0
C1063 C 0.32389 0.97299 0.87801 0.0
H1064 H 0.38717 1.03029 0.83763 0.0
C1065 C 0.34608 0.95363 0.90507 0.0
C1066 C 0.38382 0.95844 0.90238 0.0
H1067 H 0.29633 0.96342 0.8737 0.0
H1068 H 0.33458 0.93007 0.9204 0.0
C1069 C 0.39704 0.99089 0.885 0.0
C1070 C 1.01779 0.61319 0.15525 0.0
C1071 C 1.0275 0.64807 0.1415 0.0
H1072 H 0.99782 0.5618 0.13468 0.0
C1073 C 1.00668 0.66375 0.10968 0.0
H1074 H 1.03184 0.60108 0.18138 0.0
C1075 C 0.9871 0.64119 0.08288 0.0
C1076 C 0.989 0.60353 0.08851 0.0
H1077 H 1.01179 0.69134 0.09975 0.0
H1078 H 0.97801 0.65248 0.05352 0.0
C1079 C 0.99819 0.5906 0.12838 0.0
C1080 C 0.90866 0.79503 0.90686 0.0
C1081 C 0.871 0.78916 0.90679 0.0
H1082 H 0.95722 0.78506 0.87307 0.0
C1083 C 0.85797 0.75558 0.89229 0.0
H1084 H 0.92013 0.81956 0.92005 0.0
C1085 C 0.87958 0.73547 0.86509 0.0
C1086 C 0.91338 0.74979 0.85289 0.0
H1087 H 0.82931 0.7492 0.89408 0.0
H1088 H 0.8668 0.71429 0.84676 0.0
C1089 C 0.93017 0.77497 0.87964 0.0
C1090 C 0.82891 0.25634 0.17281 0.0
C1091 C 0.84431 0.2777 0.14104 0.0
H1092 H 0.84068 0.22727 0.22841 0.0
C1093 C 0.87915 0.26878 0.12673 0.0
H1094 H 0.80136 0.26087 0.18317 0.0
C1095 C 0.90202 0.2493 0.15304 0.0
C1096 C 0.88939 0.23945 0.19293 0.0
H1097 H 0.89105 0.28329 0.10064 0.0
H1098 H 0.93081 0.24949 0.14638 0.0
C1099 C 0.85174 0.23685 0.19902 0.0
C1100 C 1.0185 0.12356 0.89291 0.0
C1101 C 1.04728 1.10841 0.87031 0.0
H1102 H 0.9831 1.11497 0.94445 0.0
C1103 C 1.04682 1.07079 0.8637 0.0
H1104 H 1.01644 0.15261 0.89654 0.0
C1105 C 1.0273 1.04886 0.8914 0.0
C1106 C 1.0092 1.06525 0.92509 0.0
H1107 H 1.06733 1.05837 0.84427 0.0
H1108 H 1.03331 1.02022 0.89222 0.0
C1109 C 0.99918 1.10167 0.92072 0.0
C1110 C 0.71451 0.19508 0.38865 0.0
C1111 C 0.73338 0.17859 0.42161 0.0
H1112 H 0.67397 0.18566 0.34224 0.0
C1113 C 0.74345 0.14222 0.4167 0.0
H1114 H 0.70831 0.22366 0.39002 0.0
C1115 C 0.7239 0.12042 0.38905 0.0
C1116 C 0.69478 0.13554 0.36713 0.0
H1117 H 0.75998 0.12892 0.43993 0.0
H1118 H 0.7262 1.09135 0.39233 0.0
C1119 C 0.69482 0.17322 0.36107 0.0
loop_
_geom_bond_atom_site_label_1
_geom_bond_atom_site_label_2
_geom_bond_distance
_geom_bond_site_symmetry_2
_ccdc_geom_bond_type
Eu0 C9 2.828 . S
Eu0 O11 2.392 . S
Eu0 O13 2.418 1_556 S
Eu0 O18 2.373 1_556 S
Eu0 O21 2.488 . S
Eu0 O22 2.471 . S
Eu0 O23 2.349 . S
Eu1 O10 2.373 . S
Eu1 O14 2.488 . S
Eu1 O15 2.471 . S
Eu1 O16 2.349 . S
Eu1 O19 2.392 . S
Eu1 O20 2.418 . S
Eu1 C30 2.828 . S
C2 O20 1.244 1_556 S
C2 O23 1.265 . S
C3 C4 1.379 . S
C3 C7 1.373 . S
C3 C9 1.505 . S
C4 C3 1.379 . S
C4 C6 1.369 . S
C4 H32 0.930 . S
C5 C7 1.383 . S
C5 C8 1.382 . S
C5 H33 0.930 . S
C6 C4 1.369 . S
C6 C8 1.392 . S
C6 H34 0.930 . S
C7 C3 1.373 . S
C7 C5 1.383 . S
C7 H35 0.931 . S
C8 C5 1.382 . S
C8 C6 1.392 . S
C9 Eu0 2.828 . S
C9 C3 1.505 . S
C9 O21 1.249 . S
C9 O22 1.244 . S
O10 Eu1 2.373 . S
O10 C12 1.258 . S
O11 Eu0 2.392 . S
O11 C12 1.242 1_556 S
C12 O10 1.258 . S
C12 O11 1.242 1_554 S
O13 Eu0 2.418 1_554 S
O13 C17 1.244 . S
O14 Eu1 2.488 . S
O14 C30 1.249 . S
O15 Eu1 2.471 . S
O15 C30 1.244 . S
O16 Eu1 2.349 . S
O16 C17 1.265 . S
C17 O13 1.244 . S
C17 O16 1.265 . S
O18 Eu0 2.373 1_554 S
O18 C31 1.258 . S
O19 Eu1 2.392 . S
O19 C31 1.242 . S
O20 Eu1 2.418 . S
O20 C2 1.244 1_554 S
O21 Eu0 2.488 . S
O21 C9 1.249 . S
O22 Eu0 2.471 . S
O22 C9 1.244 . S
O23 Eu0 2.349 . S
O23 C2 1.265 . S
C24 C25 1.379 . S
C24 C28 1.373 . S
C24 C30 1.505 . S
C25 C24 1.379 . S
C25 C27 1.369 . S
C25 H36 0.930 . S
C26 C28 1.383 . S
C26 C29 1.382 . S
C26 H37 0.930 . S
C27 C25 1.369 . S
C27 C29 1.392 . S
C27 H38 0.930 . S
C28 C24 1.373 . S
C28 C26 1.383 . S
C28 H39 0.931 . S
C29 C26 1.382 . S
C29 C27 1.392 . S
C30 Eu1 2.828 . S
C30 O14 1.249 . S
C30 O15 1.244 . S
C30 C24 1.505 . S
C31 O18 1.258 . S
C31 O19 1.242 . S
H32 C4 0.930 . S
H33 C5 0.930 . S
H34 C6 0.930 . S
H35 C7 0.931 . S
H36 C25 0.930 . S
H37 C26 0.930 . S
H38 C27 0.930 . S
H39 C28 0.931 . S
Eu40 C49 2.828 . S
Eu40 O51 2.392 . S
Eu40 O53 2.418 . S
Eu40 O58 2.373 . S
Eu40 O61 2.488 . S
Eu40 O62 2.471 . S
Eu40 O63 2.349 . S
Eu41 O50 2.373 . S
Eu41 O54 2.488 . S
Eu41 O55 2.471 . S
Eu41 O56 2.349 . S
Eu41 O59 2.392 . S
Eu41 O60 2.418 . S
Eu41 C70 2.828 . S
C42 O60 1.244 . S
C42 O63 1.265 . S
C43 C44 1.379 . S
C43 C47 1.373 . S
C43 C49 1.505 . S
C44 C43 1.379 . S
C44 C46 1.369 . S
C44 H72 0.930 . S
C45 C47 1.383 . S
C45 C48 1.382 . S
C45 H73 0.930 . S
C46 C44 1.369 . S
C46 C48 1.392 . S
C46 H74 0.930 . S
C47 C43 1.373 . S
C47 C45 1.383 . S
C47 H75 0.931 . S
C48 C45 1.382 . S
C48 C46 1.392 . S
C49 Eu40 2.828 . S
C49 C43 1.505 . S
C49 O61 1.249 . S
C49 O62 1.244 . S
O50 Eu41 2.373 . S
O50 C52 1.258 . S
O51 Eu40 2.392 . S
O51 C52 1.242 . S
C52 O50 1.258 . S
C52 O51 1.242 . S
O53 Eu40 2.418 . S
O53 C57 1.244 . S
O54 Eu41 2.488 . S
O54 C70 1.249 . S
O55 Eu41 2.471 . S
O55 C70 1.244 . S
O56 Eu41 2.349 . S
O56 C57 1.265 . S
C57 O53 1.244 . S
C57 O56 1.265 . S
O58 Eu40 2.373 . S
O58 C71 1.258 . S
O59 Eu41 2.392 . S
O59 C71 1.242 . S
O60 Eu41 2.418 . S
O60 C42 1.244 . S
O61 Eu40 2.488 . S
O61 C49 1.249 . S
O62 Eu40 2.471 . S
O62 C49 1.244 . S
O63 Eu40 2.349 . S
O63 C42 1.265 . S
C64 C65 1.379 . S
C64 C68 1.373 . S
C64 C70 1.505 . S
C65 C64 1.379 . S
C65 C67 1.369 . S
C65 H76 0.930 . S
C66 C68 1.383 . S
C66 C69 1.382 . S
C66 H77 0.930 . S
C67 C65 1.369 . S
C67 C69 1.392 . S
C67 H78 0.930 . S
C68 C64 1.373 . S
C68 C66 1.383 . S
C68 H79 0.931 . S
C69 C66 1.382 . S
C69 C67 1.392 . S
C70 Eu41 2.828 . S
C70 O54 1.249 . S
C70 O55 1.244 . S
C70 C64 1.505 . S
C71 O58 1.258 . S
C71 O59 1.242 . S
H72 C44 0.930 . S
H73 C45 0.930 . S
H74 C46 0.930 . S
H75 C47 0.931 . S
H76 C65 0.930 . S
H77 C66 0.930 . S
H78 C67 0.930 . S
H79 C68 0.931 . S
Eu80 C89 2.828 . S
Eu80 O91 2.392 . S
Eu80 O93 2.418 . S
Eu80 O98 2.373 . S
Eu80 O101 2.488 . S
Eu80 O102 2.471 . S
Eu80 O103 2.349 . S
Eu81 O90 2.373 . S
Eu81 O94 2.488 . S
Eu81 O95 2.471 . S
Eu81 O96 2.349 . S
Eu81 O99 2.392 . S
Eu81 O100 2.418 . S
Eu81 C110 2.828 . S
C82 O100 1.244 . S
C82 O103 1.265 . S
C83 C84 1.379 . S
C83 C87 1.373 . S
C83 C89 1.505 . S
C84 C83 1.379 . S
C84 C86 1.369 1_455 S
C84 H112 0.930 . S
C85 C87 1.383 1_655 S
C85 C88 1.382 . S
C85 H113 0.930 . S
C86 C84 1.369 1_655 S
C86 C88 1.392 . S
C86 H114 0.930 . S
C87 C83 1.373 . S
C87 C85 1.383 1_455 S
C87 H115 0.931 . S
C88 C85 1.382 . S
C88 C86 1.392 . S
C89 Eu80 2.828 . S
C89 C83 1.505 . S
C89 O101 1.249 . S
C89 O102 1.244 . S
O90 Eu81 2.373 . S
O90 C92 1.258 . S
O91 Eu80 2.392 . S
O91 C92 1.242 . S
C92 O90 1.258 . S
C92 O91 1.242 . S
O93 Eu80 2.418 . S
O93 C97 1.244 . S
O94 Eu81 2.488 . S
O94 C110 1.249 . S
O95 Eu81 2.471 . S
O95 C110 1.244 . S
O96 Eu81 2.349 . S
O96 C97 1.265 . S
C97 O93 1.244 . S
C97 O96 1.265 . S
O98 Eu80 2.373 . S
O98 C111 1.258 . S
O99 Eu81 2.392 . S
O99 C111 1.242 . S
O100 Eu81 2.418 . S
O100 C82 1.244 . S
O101 Eu80 2.488 . S
O101 C89 1.249 . S
O102 Eu80 2.471 . S
O102 C89 1.244 . S
O103 Eu80 2.349 . S
O103 C82 1.265 . S
C104 C105 1.379 . S
C104 C108 1.373 . S
C104 C110 1.505 . S
C105 C104 1.379 . S
C105 C107 1.369 . S
C105 H116 0.930 . S
C106 C108 1.383 . S
C106 C109 1.382 . S
C106 H117 0.930 . S
C107 C105 1.369 . S
C107 C109 1.392 . S
C107 H118 0.930 . S
C108 C104 1.373 . S
C108 C106 1.383 . S
C108 H119 0.931 . S
C109 C106 1.382 . S
C109 C107 1.392 . S
C110 Eu81 2.828 . S
C110 O94 1.249 . S
C110 O95 1.244 . S
C110 C104 1.505 . S
C111 O98 1.258 . S
C111 O99 1.242 . S
H112 C84 0.930 . S
H113 C85 0.930 . S
H114 C86 0.930 . S
H115 C87 0.931 . S
H116 C105 0.930 . S
H117 C106 0.930 . S
H118 C107 0.930 . S
H119 C108 0.931 . S
Eu120 C129 2.828 . S
Eu120 O131 2.392 . S
Eu120 O133 2.418 . S
Eu120 O138 2.373 . S
Eu120 O141 2.488 . S
Eu120 O142 2.471 . S
Eu120 O143 2.349 . S
Eu121 O130 2.373 . S
Eu121 O134 2.488 . S
Eu121 O135 2.471 . S
Eu121 O136 2.349 . S
Eu121 O139 2.392 . S
Eu121 O140 2.418 . S
Eu121 C150 2.828 . S
C122 O140 1.244 . S
C122 O143 1.265 . S
C123 C124 1.379 . S
C123 C127 1.373 . S
C123 C129 1.505 . S
C124 C123 1.379 . S
C124 C126 1.369 . S
C124 H152 0.930 . S
C125 C127 1.383 . S
C125 C128 1.382 . S
C125 H153 0.930 . S
C126 C124 1.369 . S
C126 C128 1.392 . S
C126 H154 0.930 . S
C127 C123 1.373 . S
C127 C125 1.383 . S
C127 H155 0.931 . S
C128 C125 1.382 . S
C128 C126 1.392 . S
C129 Eu120 2.828 . S
C129 C123 1.505 . S
C129 O141 1.249 . S
C129 O142 1.244 . S
O130 Eu121 2.373 . S
O130 C132 1.258 . S
O131 Eu120 2.392 . S
O131 C132 1.242 . S
C132 O130 1.258 . S
C132 O131 1.242 . S
O133 Eu120 2.418 . S
O133 C137 1.244 . S
O134 Eu121 2.488 . S
O134 C150 1.249 . S
O135 Eu121 2.471 . S
O135 C150 1.244 . S
O136 Eu121 2.349 . S
O136 C137 1.265 . S
C137 O133 1.244 . S
C137 O136 1.265 . S
O138 Eu120 2.373 . S
O138 C151 1.258 . S
O139 Eu121 2.392 . S
O139 C151 1.242 . S
O140 Eu121 2.418 . S
O140 C122 1.244 . S
O141 Eu120 2.488 . S
O141 C129 1.249 . S
O142 Eu120 2.471 . S
O142 C129 1.244 . S
O143 Eu120 2.349 . S
O143 C122 1.265 . S
C144 C145 1.379 . S
C144 C148 1.373 . S
C144 C150 1.505 . S
C145 C144 1.379 . S
C145 C147 1.369 . S
C145 H156 0.930 . S
C146 C148 1.383 . S
C146 C149 1.382 . S
C146 H157 0.930 . S
C147 C145 1.369 . S
C147 C149 1.392 . S
C147 H158 0.930 . S
C148 C144 1.373 . S
C148 C146 1.383 . S
C148 H159 0.931 . S
C149 C146 1.382 . S
C149 C147 1.392 . S
C150 Eu121 2.828 . S
C150 O134 1.249 . S
C150 O135 1.244 . S
C150 C144 1.505 . S
C151 O138 1.258 . S
C151 O139 1.242 . S
H152 C124 0.930 . S
H153 C125 0.930 . S
H154 C126 0.930 . S
H155 C127 0.931 . S
H156 C145 0.930 . S
H157 C146 0.930 . S
H158 C147 0.930 . S
H159 C148 0.931 . S
Eu160 C169 2.828 . S
Eu160 O171 2.392 . S
Eu160 O173 2.418 . S
Eu160 O178 2.373 . S
Eu160 O181 2.488 . S
Eu160 O182 2.471 . S
Eu160 O183 2.349 . S
Eu161 O170 2.373 1_554 S
Eu161 O174 2.488 . S
Eu161 O175 2.471 . S
Eu161 O176 2.349 . S
Eu161 O179 2.392 . S
Eu161 O180 2.418 1_554 S
Eu161 C190 2.828 . S
C162 O180 1.244 . S
C162 O183 1.265 . S
C163 C164 1.379 . S
C163 C167 1.373 . S
C163 C169 1.505 . S
C164 C163 1.379 . S
C164 C166 1.369 . S
C164 H192 0.930 . S
C165 C167 1.383 . S
C165 C168 1.382 . S
C165 H193 0.930 . S
C166 C164 1.369 . S
C166 C168 1.392 . S
C166 H194 0.930 . S
C167 C163 1.373 . S
C167 C165 1.383 . S
C167 H195 0.931 . S
C168 C165 1.382 . S
C168 C166 1.392 . S
C169 Eu160 2.828 . S
C169 C163 1.505 . S
C169 O181 1.249 . S
C169 O182 1.244 . S
O170 Eu161 2.373 1_556 S
O170 C172 1.258 . S
O171 Eu160 2.392 . S
O171 C172 1.242 . S
C172 O170 1.258 . S
C172 O171 1.242 . S
O173 Eu160 2.418 . S
O173 C177 1.244 1_556 S
O174 Eu161 2.488 . S
O174 C190 1.249 . S
O175 Eu161 2.471 . S
O175 C190 1.244 . S
O176 Eu161 2.349 . S
O176 C177 1.265 . S
C177 O173 1.244 1_554 S
C177 O176 1.265 . S
O178 Eu160 2.373 . S
O178 C191 1.258 . S
O179 Eu161 2.392 . S
O179 C191 1.242 1_554 S
O180 Eu161 2.418 1_556 S
O180 C162 1.244 . S
O181 Eu160 2.488 . S
O181 C169 1.249 . S
O182 Eu160 2.471 . S
O182 C169 1.244 . S
O183 Eu160 2.349 . S
O183 C162 1.265 . S
C184 C185 1.379 . S
C184 C188 1.373 . S
C184 C190 1.505 . S
C185 C184 1.379 . S
C185 C187 1.369 . S
C185 H196 0.930 . S
C186 C188 1.383 . S
C186 C189 1.382 . S
C186 H197 0.930 . S
C187 C185 1.369 . S
C187 C189 1.392 . S
C187 H198 0.930 . S
C188 C184 1.373 . S
C188 C186 1.383 . S
C188 H199 0.931 . S
C189 C186 1.382 . S
C189 C187 1.392 . S
C190 Eu161 2.828 . S
C190 O174 1.249 . S
C190 O175 1.244 . S
C190 C184 1.505 . S
C191 O178 1.258 . S
C191 O179 1.242 1_556 S
H192 C164 0.930 . S
H193 C165 0.930 . S
H194 C166 0.930 . S
H195 C167 0.931 . S
H196 C185 0.930 . S
H197 C186 0.930 . S
H198 C187 0.930 . S
H199 C188 0.931 . S
Eu200 C209 2.828 . S
Eu200 O211 2.392 . S
Eu200 O213 2.418 . S
Eu200 O218 2.373 . S
Eu200 O221 2.488 . S
Eu200 O222 2.471 . S
Eu200 O223 2.349 . S
Eu201 O210 2.373 . S
Eu201 O214 2.488 . S
Eu201 O215 2.471 . S
Eu201 O216 2.349 . S
Eu201 O219 2.392 . S
Eu201 O220 2.418 . S
Eu201 C230 2.828 . S
C202 O220 1.244 . S
C202 O223 1.265 . S
C203 C204 1.379 . S
C203 C207 1.373 . S
C203 C209 1.505 . S
C204 C203 1.379 . S
C204 C206 1.369 . S
C204 H232 0.930 . S
C205 C207 1.383 . S
C205 C208 1.382 . S
C205 H233 0.930 . S
C206 C204 1.369 . S
C206 C208 1.392 . S
C206 H234 0.930 . S
C207 C203 1.373 . S
C207 C205 1.383 . S
C207 H235 0.931 . S
C208 C205 1.382 . S
C208 C206 1.392 . S
C209 Eu200 2.828 . S
C209 C203 1.505 . S
C209 O221 1.249 . S
C209 O222 1.244 . S
O210 Eu201 2.373 . S
O210 C212 1.258 . S
O211 Eu200 2.392 . S
O211 C212 1.242 . S
C212 O210 1.258 . S
C212 O211 1.242 . S
O213 Eu200 2.418 . S
O213 C217 1.244 . S
O214 Eu201 2.488 . S
O214 C230 1.249 . S
O215 Eu201 2.471 . S
O215 C230 1.244 . S
O216 Eu201 2.349 . S
O216 C217 1.265 . S
C217 O213 1.244 . S
C217 O216 1.265 . S
O218 Eu200 2.373 . S
O218 C231 1.258 . S
O219 Eu201 2.392 . S
O219 C231 1.242 . S
O220 Eu201 2.418 . S
O220 C202 1.244 . S
O221 Eu200 2.488 . S
O221 C209 1.249 . S
O222 Eu200 2.471 . S
O222 C209 1.244 . S
O223 Eu200 2.349 . S
O223 C202 1.265 . S
C224 C225 1.379 . S
C224 C228 1.373 . S
C224 C230 1.505 . S
C225 C224 1.379 . S
C225 C227 1.369 . S
C225 H236 0.930 . S
C226 C228 1.383 . S
C226 C229 1.382 . S
C226 H237 0.930 . S
C227 C225 1.369 . S
C227 C229 1.392 . S
C227 H238 0.930 . S
C228 C224 1.373 . S
C228 C226 1.383 . S
C228 H239 0.931 . S
C229 C226 1.382 . S
C229 C227 1.392 . S
C230 Eu201 2.828 . S
C230 O214 1.249 . S
C230 O215 1.244 . S
C230 C224 1.505 . S
C231 O218 1.258 . S
C231 O219 1.242 . S
H232 C204 0.930 . S
H233 C205 0.930 . S
H234 C206 0.930 . S
H235 C207 0.931 . S
H236 C225 0.930 . S
H237 C226 0.930 . S
H238 C227 0.930 . S
H239 C228 0.931 . S
Eu240 C249 2.828 . S
Eu240 O251 2.392 . S
Eu240 O253 2.418 . S
Eu240 O258 2.373 . S
Eu240 O261 2.488 . S
Eu240 O262 2.471 . S
Eu240 O263 2.349 . S
Eu241 O250 2.373 . S
Eu241 O254 2.488 . S
Eu241 O255 2.471 . S
Eu241 O256 2.349 . S
Eu241 O259 2.392 . S
Eu241 O260 2.418 . S
Eu241 C270 2.828 . S
C242 O260 1.244 . S
C242 O263 1.265 . S
C243 C244 1.379 . S
C243 C247 1.373 . S
C243 C249 1.505 . S
C244 C243 1.379 . S
C244 C246 1.369 . S
C244 H272 0.930 . S
C245 C247 1.383 . S
C245 C248 1.382 . S
C245 H273 0.930 . S
C246 C244 1.369 . S
C246 C248 1.392 . S
C246 H274 0.930 . S
C247 C243 1.373 . S
C247 C245 1.383 . S
C247 H275 0.931 . S
C248 C245 1.382 . S
C248 C246 1.392 . S
C249 Eu240 2.828 . S
C249 C243 1.505 . S
C249 O261 1.249 . S
C249 O262 1.244 . S
O250 Eu241 2.373 . S
O250 C252 1.258 . S
O251 Eu240 2.392 . S
O251 C252 1.242 . S
C252 O250 1.258 . S
C252 O251 1.242 . S
O253 Eu240 2.418 . S
O253 C257 1.244 . S
O254 Eu241 2.488 . S
O254 C270 1.249 . S
O255 Eu241 2.471 . S
O255 C270 1.244 . S
O256 Eu241 2.349 . S
O256 C257 1.265 . S
C257 O253 1.244 . S
C257 O256 1.265 . S
O258 Eu240 2.373 . S
O258 C271 1.258 . S
O259 Eu241 2.392 . S
O259 C271 1.242 . S
O260 Eu241 2.418 . S
O260 C242 1.244 . S
O261 Eu240 2.488 . S
O261 C249 1.249 . S
O262 Eu240 2.471 . S
O262 C249 1.244 . S
O263 Eu240 2.349 . S
O263 C242 1.265 . S
C264 C265 1.379 . S
C264 C268 1.373 . S
C264 C270 1.505 . S
C265 C264 1.379 . S
C265 C267 1.369 1_655 S
C265 H276 0.930 . S
C266 C268 1.383 1_455 S
C266 C269 1.382 . S
C266 H277 0.930 . S
C267 C265 1.369 1_455 S
C267 C269 1.392 . S
C267 H278 0.930 . S
C268 C264 1.373 . S
C268 C266 1.383 1_655 S
C268 H279 0.931 . S
C269 C266 1.382 . S
C269 C267 1.392 . S
C270 Eu241 2.828 . S
C270 O254 1.249 . S
C270 O255 1.244 . S
C270 C264 1.505 . S
C271 O258 1.258 . S
C271 O259 1.242 . S
H272 C244 0.930 . S
H273 C245 0.930 . S
H274 C246 0.930 . S
H275 C247 0.931 . S
H276 C265 0.930 . S
H277 C266 0.930 . S
H278 C267 0.930 . S
H279 C268 0.931 . S
Eu280 C289 2.828 . S
Eu280 O291 2.392 . S
Eu280 O293 2.418 . S
Eu280 O298 2.373 . S
Eu280 O301 2.488 . S
Eu280 O302 2.471 . S
Eu280 O303 2.349 . S
Eu281 O290 2.373 . S
Eu281 O294 2.488 . S
Eu281 O295 2.471 . S
Eu281 O296 2.349 . S
Eu281 O299 2.392 . S
Eu281 O300 2.418 . S
Eu281 C310 2.828 . S
C282 O300 1.244 . S
C282 O303 1.265 . S
C283 C284 1.379 . S
C283 C287 1.373 . S
C283 C289 1.505 . S
C284 C283 1.379 . S
C284 C286 1.369 . S
C284 H312 0.930 . S
C285 C287 1.383 . S
C285 C288 1.382 . S
C285 H313 0.930 . S
C286 C284 1.369 . S
C286 C288 1.392 . S
C286 H314 0.930 . S
C287 C283 1.373 . S
C287 C285 1.383 . S
C287 H315 0.931 . S
C288 C285 1.382 . S
C288 C286 1.392 . S
C289 Eu280 2.828 . S
C289 C283 1.505 . S
C289 O301 1.249 . S
C289 O302 1.244 . S
O290 Eu281 2.373 . S
O290 C292 1.258 . S
O291 Eu280 2.392 . S
O291 C292 1.242 . S
C292 O290 1.258 . S
C292 O291 1.242 . S
O293 Eu280 2.418 . S
O293 C297 1.244 . S
O294 Eu281 2.488 . S
O294 C310 1.249 . S
O295 Eu281 2.471 . S
O295 C310 1.244 . S
O296 Eu281 2.349 . S
O296 C297 1.265 . S
C297 O293 1.244 . S
C297 O296 1.265 . S
O298 Eu280 2.373 . S
O298 C311 1.258 . S
O299 Eu281 2.392 . S
O299 C311 1.242 . S
O300 Eu281 2.418 . S
O300 C282 1.244 . S
O301 Eu280 2.488 . S
O301 C289 1.249 . S
O302 Eu280 2.471 . S
O302 C289 1.244 . S
O303 Eu280 2.349 . S
O303 C282 1.265 . S
C304 C305 1.379 . S
C304 C308 1.373 . S
C304 C310 1.505 . S
C305 C304 1.379 . S
C305 C307 1.369 . S
C305 H316 0.930 . S
C306 C308 1.383 . S
C306 C309 1.382 . S
C306 H317 0.930 . S
C307 C305 1.369 . S
C307 C309 1.392 . S
C307 H318 0.930 . S
C308 C304 1.373 . S
C308 C306 1.383 . S
C308 H319 0.931 . S
C309 C306 1.382 . S
C309 C307 1.392 . S
C310 Eu281 2.828 . S
C310 O294 1.249 . S
C310 O295 1.244 . S
C310 C304 1.505 . S
C311 O298 1.258 . S
C311 O299 1.242 . S
H312 C284 0.930 . S
H313 C285 0.930 . S
H314 C286 0.930 . S
H315 C287 0.931 . S
H316 C305 0.930 . S
H317 C306 0.930 . S
H318 C307 0.930 . S
H319 C308 0.931 . S
Eu320 C329 2.828 . S
Eu320 O331 2.392 . S
Eu320 O333 2.418 . S
Eu320 O338 2.373 . S
Eu320 O341 2.488 . S
Eu320 O342 2.471 . S
Eu320 O343 2.349 . S
Eu321 O330 2.373 . S
Eu321 O334 2.488 . S
Eu321 O335 2.471 . S
Eu321 O336 2.349 . S
Eu321 O339 2.392 . S
Eu321 O340 2.418 . S
Eu321 C350 2.828 . S
C322 O340 1.244 . S
C322 O343 1.265 . S
C323 C324 1.379 . S
C323 C327 1.373 . S
C323 C329 1.505 . S
C324 C323 1.379 . S
C324 C326 1.369 1_655 S
C324 H352 0.930 . S
C325 C327 1.383 1_455 S
C325 C328 1.382 . S
C325 H353 0.930 . S
C326 C324 1.369 1_455 S
C326 C328 1.392 . S
C326 H354 0.930 . S
C327 C323 1.373 . S
C327 C325 1.383 1_655 S
C327 H355 0.931 . S
C328 C325 1.382 . S
C328 C326 1.392 . S
C329 Eu320 2.828 . S
C329 C323 1.505 . S
C329 O341 1.249 . S
C329 O342 1.244 . S
O330 Eu321 2.373 . S
O330 C332 1.258 . S
O331 Eu320 2.392 . S
O331 C332 1.242 . S
C332 O330 1.258 . S
C332 O331 1.242 . S
O333 Eu320 2.418 . S
O333 C337 1.244 . S
O334 Eu321 2.488 . S
O334 C350 1.249 . S
O335 Eu321 2.471 . S
O335 C350 1.244 . S
O336 Eu321 2.349 . S
O336 C337 1.265 . S
C337 O333 1.244 . S
C337 O336 1.265 . S
O338 Eu320 2.373 . S
O338 C351 1.258 . S
O339 Eu321 2.392 . S
O339 C351 1.242 . S
O340 Eu321 2.418 . S
O340 C322 1.244 . S
O341 Eu320 2.488 . S
O341 C329 1.249 . S
O342 Eu320 2.471 . S
O342 C329 1.244 . S
O343 Eu320 2.349 . S
O343 C322 1.265 . S
C344 C345 1.379 . S
C344 C348 1.373 . S
C344 C350 1.505 . S
C345 C344 1.379 . S
C345 C347 1.369 . S
C345 H356 0.930 . S
C346 C348 1.383 . S
C346 C349 1.382 . S
C346 H357 0.930 . S
C347 C345 1.369 . S
C347 C349 1.392 . S
C347 H358 0.930 . S
C348 C344 1.373 . S
C348 C346 1.383 . S
C348 H359 0.931 . S
C349 C346 1.382 . S
C349 C347 1.392 . S
C350 Eu321 2.828 . S
C350 O334 1.249 . S
C350 O335 1.244 . S
C350 C344 1.505 . S
C351 O338 1.258 . S
C351 O339 1.242 . S
H352 C324 0.930 . S
H353 C325 0.930 . S
H354 C326 0.930 . S
H355 C327 0.931 . S
H356 C345 0.930 . S
H357 C346 0.930 . S
H358 C347 0.930 . S
H359 C348 0.931 . S
Eu360 C369 2.828 . S
Eu360 O371 2.392 . S
Eu360 O373 2.418 . S
Eu360 O378 2.373 . S
Eu360 O381 2.488 . S
Eu360 O382 2.471 . S
Eu360 O383 2.349 . S
Eu361 O370 2.373 . S
Eu361 O374 2.488 . S
Eu361 O375 2.471 . S
Eu361 O376 2.349 . S
Eu361 O379 2.392 . S
Eu361 O380 2.418 . S
Eu361 C390 2.828 . S
C362 O380 1.244 . S
C362 O383 1.265 . S
C363 C364 1.379 . S
C363 C367 1.373 . S
C363 C369 1.505 . S
C364 C363 1.379 . S
C364 C366 1.369 . S
C364 H392 0.930 . S
C365 C367 1.383 . S
C365 C368 1.382 . S
C365 H393 0.930 . S
C366 C364 1.369 . S
C366 C368 1.392 . S
C366 H394 0.930 . S
C367 C363 1.373 . S
C367 C365 1.383 . S
C367 H395 0.931 . S
C368 C365 1.382 . S
C368 C366 1.392 . S
C369 Eu360 2.828 . S
C369 C363 1.505 . S
C369 O381 1.249 . S
C369 O382 1.244 . S
O370 Eu361 2.373 . S
O370 C372 1.258 . S
O371 Eu360 2.392 . S
O371 C372 1.242 . S
C372 O370 1.258 . S
C372 O371 1.242 . S
O373 Eu360 2.418 . S
O373 C377 1.244 . S
O374 Eu361 2.488 . S
O374 C390 1.249 . S
O375 Eu361 2.471 . S
O375 C390 1.244 . S
O376 Eu361 2.349 . S
O376 C377 1.265 . S
C377 O373 1.244 . S
C377 O376 1.265 . S
O378 Eu360 2.373 . S
O378 C391 1.258 . S
O379 Eu361 2.392 . S
O379 C391 1.242 . S
O380 Eu361 2.418 . S
O380 C362 1.244 . S
O381 Eu360 2.488 . S
O381 C369 1.249 . S
O382 Eu360 2.471 . S
O382 C369 1.244 . S
O383 Eu360 2.349 . S
O383 C362 1.265 . S
C384 C385 1.379 . S
C384 C388 1.373 . S
C384 C390 1.505 . S
C385 C384 1.379 . S
C385 C387 1.369 . S
C385 H396 0.930 . S
C386 C388 1.390 . S
C386 C389 1.379 1_545 S
C386 H397 0.927 1_545 S
C387 C385 1.369 . S
C387 C389 1.392 1_545 S
C387 H398 0.930 1_545 S
C388 C384 1.373 . S
C388 C386 1.390 . S
C388 H399 0.931 . S
C389 C386 1.379 1_565 S
C389 C387 1.392 1_565 S
C390 Eu361 2.828 . S
C390 O374 1.249 . S
C390 O375 1.244 . S
C390 C384 1.505 . S
C391 O378 1.258 . S
C391 O379 1.242 . S
H392 C364 0.930 . S
H393 C365 0.930 . S
H394 C366 0.930 . S
H395 C367 0.931 . S
H396 C385 0.930 . S
H397 C386 0.927 1_565 S
H398 C387 0.930 1_565 S
H399 C388 0.931 . S
Eu400 C409 2.828 . S
Eu400 O411 2.392 . S
Eu400 O413 2.418 1_556 S
Eu400 O418 2.373 1_556 S
Eu400 O421 2.488 . S
Eu400 O422 2.471 . S
Eu400 O423 2.349 . S
Eu401 O410 2.373 . S
Eu401 O414 2.488 . S
Eu401 O415 2.471 . S
Eu401 O416 2.349 . S
Eu401 O419 2.392 . S
Eu401 O420 2.418 . S
Eu401 C430 2.828 . S
C402 O420 1.244 1_556 S
C402 O423 1.265 . S
C403 C404 1.379 . S
C403 C407 1.373 . S
C403 C409 1.505 . S
C404 C403 1.379 . S
C404 C406 1.369 . S
C404 H432 0.930 . S
C405 C407 1.383 . S
C405 C408 1.382 . S
C405 H433 0.930 . S
C406 C404 1.369 . S
C406 C408 1.392 . S
C406 H434 0.930 . S
C407 C403 1.373 . S
C407 C405 1.383 . S
C407 H435 0.931 . S
C408 C405 1.382 . S
C408 C406 1.392 . S
C409 Eu400 2.828 . S
C409 C403 1.505 . S
C409 O421 1.249 . S
C409 O422 1.244 . S
O410 Eu401 2.373 . S
O410 C412 1.258 . S
O411 Eu400 2.392 . S
O411 C412 1.242 1_556 S
C412 O410 1.258 . S
C412 O411 1.242 1_554 S
O413 Eu400 2.418 1_554 S
O413 C417 1.244 . S
O414 Eu401 2.488 . S
O414 C430 1.249 . S
O415 Eu401 2.471 . S
O415 C430 1.244 . S
O416 Eu401 2.349 . S
O416 C417 1.265 . S
C417 O413 1.244 . S
C417 O416 1.265 . S
O418 Eu400 2.373 1_554 S
O418 C431 1.258 . S
O419 Eu401 2.392 . S
O419 C431 1.242 . S
O420 Eu401 2.418 . S
O420 C402 1.244 1_554 S
O421 Eu400 2.488 . S
O421 C409 1.249 . S
O422 Eu400 2.471 . S
O422 C409 1.244 . S
O423 Eu400 2.349 . S
O423 C402 1.265 . S
C424 C425 1.379 . S
C424 C428 1.373 . S
C424 C430 1.505 . S
C425 C424 1.379 . S
C425 C427 1.369 . S
C425 H436 0.930 . S
C426 C428 1.383 . S
C426 C429 1.382 . S
C426 H437 0.930 . S
C427 C425 1.369 . S
C427 C429 1.392 . S
C427 H438 0.930 . S
C428 C424 1.373 . S
C428 C426 1.383 . S
C428 H439 0.931 . S
C429 C426 1.382 . S
C429 C427 1.392 . S
C430 Eu401 2.828 . S
C430 O414 1.249 . S
C430 O415 1.244 . S
C430 C424 1.505 . S
C431 O418 1.258 . S
C431 O419 1.242 . S
H432 C404 0.930 . S
H433 C405 0.930 . S
H434 C406 0.930 . S
H435 C407 0.931 . S
H436 C425 0.930 . S
H437 C426 0.930 . S
H438 C427 0.930 . S
H439 C428 0.931 . S
Eu440 C449 2.828 . S
Eu440 O451 2.392 . S
Eu440 O453 2.418 . S
Eu440 O458 2.373 . S
Eu440 O461 2.488 . S
Eu440 O462 2.471 . S
Eu440 O463 2.349 . S
Eu441 O450 2.373 . S
Eu441 O454 2.488 . S
Eu441 O455 2.471 . S
Eu441 O456 2.349 . S
Eu441 O459 2.392 . S
Eu441 O460 2.418 . S
Eu441 C470 2.828 . S
C442 O460 1.244 . S
C442 O463 1.265 . S
C443 C444 1.379 . S
C443 C447 1.373 . S
C443 C449 1.505 . S
C444 C443 1.379 . S
C444 C446 1.369 . S
C444 H472 0.930 . S
C445 C447 1.383 . S
C445 C448 1.382 . S
C445 H473 0.930 . S
C446 C444 1.369 . S
C446 C448 1.392 . S
C446 H474 0.930 . S
C447 C443 1.373 . S
C447 C445 1.383 . S
C447 H475 0.931 . S
C448 C445 1.382 . S
C448 C446 1.392 . S
C449 Eu440 2.828 . S
C449 C443 1.505 . S
C449 O461 1.249 . S
C449 O462 1.244 . S
O450 Eu441 2.373 . S
O450 C452 1.258 . S
O451 Eu440 2.392 . S
O451 C452 1.242 . S
C452 O450 1.258 . S
C452 O451 1.242 . S
O453 Eu440 2.418 . S
O453 C457 1.244 . S
O454 Eu441 2.488 . S
O454 C470 1.249 . S
O455 Eu441 2.471 . S
O455 C470 1.244 . S
O456 Eu441 2.349 . S
O456 C457 1.265 . S
C457 O453 1.244 . S
C457 O456 1.265 . S
O458 Eu440 2.373 . S
O458 C471 1.258 . S
O459 Eu441 2.392 . S
O459 C471 1.242 . S
O460 Eu441 2.418 . S
O460 C442 1.244 . S
O461 Eu440 2.488 . S
O461 C449 1.249 . S
O462 Eu440 2.471 . S
O462 C449 1.244 . S
O463 Eu440 2.349 . S
O463 C442 1.265 . S
C464 C465 1.379 . S
C464 C468 1.373 . S
C464 C470 1.505 . S
C465 C464 1.379 . S
C465 C467 1.369 . S
C465 H476 0.930 . S
C466 C468 1.390 . S
C466 C469 1.379 1_565 S
C466 H477 0.927 1_565 S
C467 C465 1.369 . S
C467 C469 1.392 1_565 S
C467 H478 0.930 1_565 S
C468 C464 1.373 . S
C468 C466 1.390 . S
C468 H479 0.931 . S
C469 C466 1.379 1_545 S
C469 C467 1.392 1_545 S
C470 Eu441 2.828 . S
C470 O454 1.249 . S
C470 O455 1.244 . S
C470 C464 1.505 . S
C471 O458 1.258 . S
C471 O459 1.242 . S
H472 C444 0.930 . S
H473 C445 0.930 . S
H474 C446 0.930 . S
H475 C447 0.931 . S
H476 C465 0.930 . S
H477 C466 0.927 1_545 S
H478 C467 0.930 1_545 S
H479 C468 0.931 . S
Eu480 C489 2.828 . S
Eu480 O491 2.392 . S
Eu480 O493 2.418 . S
Eu480 O498 2.373 . S
Eu480 O501 2.488 . S
Eu480 O502 2.471 . S
Eu480 O503 2.349 . S
Eu481 O490 2.373 . S
Eu481 O494 2.488 . S
Eu481 O495 2.471 . S
Eu481 O496 2.349 . S
Eu481 O499 2.392 . S
Eu481 O500 2.418 . S
Eu481 C510 2.828 . S
C482 O500 1.244 . S
C482 O503 1.265 . S
C483 C484 1.379 . S
C483 C487 1.373 . S
C483 C489 1.505 . S
C484 C483 1.379 . S
C484 C486 1.369 . S
C484 H512 0.930 . S
C485 C487 1.383 . S
C485 C488 1.382 . S
C485 H513 0.930 . S
C486 C484 1.369 . S
C486 C488 1.392 . S
C486 H514 0.930 . S
C487 C483 1.373 . S
C487 C485 1.383 . S
C487 H515 0.931 . S
C488 C485 1.382 . S
C488 C486 1.392 . S
C489 Eu480 2.828 . S
C489 C483 1.505 . S
C489 O501 1.249 . S
C489 O502 1.244 . S
O490 Eu481 2.373 . S
O490 C492 1.258 . S
O491 Eu480 2.392 . S
O491 C492 1.242 . S
C492 O490 1.258 . S
C492 O491 1.242 . S
O493 Eu480 2.418 . S
O493 C497 1.244 . S
O494 Eu481 2.488 . S
O494 C510 1.249 . S
O495 Eu481 2.471 . S
O495 C510 1.244 . S
O496 Eu481 2.349 . S
O496 C497 1.265 . S
C497 O493 1.244 . S
C497 O496 1.265 . S
O498 Eu480 2.373 . S
O498 C511 1.258 . S
O499 Eu481 2.392 . S
O499 C511 1.242 . S
O500 Eu481 2.418 . S
O500 C482 1.244 . S
O501 Eu480 2.488 . S
O501 C489 1.249 . S
O502 Eu480 2.471 . S
O502 C489 1.244 . S
O503 Eu480 2.349 . S
O503 C482 1.265 . S
C504 C505 1.379 . S
C504 C508 1.373 . S
C504 C510 1.505 . S
C505 C504 1.379 . S
C505 C507 1.369 1_455 S
C505 H516 0.930 . S
C506 C508 1.383 1_655 S
C506 C509 1.382 . S
C506 H517 0.930 . S
C507 C505 1.369 1_655 S
C507 C509 1.392 . S
C507 H518 0.930 . S
C508 C504 1.373 . S
C508 C506 1.383 1_455 S
C508 H519 0.931 . S
C509 C506 1.382 . S
C509 C507 1.392 . S
C510 Eu481 2.828 . S
C510 O494 1.249 . S
C510 O495 1.244 . S
C510 C504 1.505 . S
C511 O498 1.258 . S
C511 O499 1.242 . S
H512 C484 0.930 . S
H513 C485 0.930 . S
H514 C486 0.930 . S
H515 C487 0.931 . S
H516 C505 0.930 . S
H517 C506 0.930 . S
H518 C507 0.930 . S
H519 C508 0.931 . S
Eu520 C529 2.828 . S
Eu520 O531 2.392 . S
Eu520 O533 2.418 . S
Eu520 O538 2.373 . S
Eu520 O541 2.488 . S
Eu520 O542 2.471 . S
Eu520 O543 2.349 . S
Eu521 O530 2.373 . S
Eu521 O534 2.488 . S
Eu521 O535 2.471 . S
Eu521 O536 2.349 . S
Eu521 O539 2.392 . S
Eu521 O540 2.418 . S
Eu521 C550 2.828 . S
C522 O540 1.244 . S
C522 O543 1.265 . S
C523 C524 1.379 . S
C523 C527 1.373 . S
C523 C529 1.505 . S
C524 C523 1.379 . S
C524 C526 1.369 . S
C524 H552 0.930 . S
C525 C527 1.390 . S
C525 C528 1.379 1_565 S
C525 H553 0.927 1_565 S
C526 C524 1.369 . S
C526 C528 1.392 1_565 S
C526 H554 0.930 1_565 S
C527 C523 1.373 . S
C527 C525 1.390 . S
C527 H555 0.931 . S
C528 C525 1.379 1_545 S
C528 C526 1.392 1_545 S
C529 Eu520 2.828 . S
C529 C523 1.505 . S
C529 O541 1.249 . S
C529 O542 1.244 . S
O530 Eu521 2.373 . S
O530 C532 1.258 . S
O531 Eu520 2.392 . S
O531 C532 1.242 . S
C532 O530 1.258 . S
C532 O531 1.242 . S
O533 Eu520 2.418 . S
O533 C537 1.244 . S
O534 Eu521 2.488 . S
O534 C550 1.249 . S
O535 Eu521 2.471 . S
O535 C550 1.244 . S
O536 Eu521 2.349 . S
O536 C537 1.265 . S
C537 O533 1.244 . S
C537 O536 1.265 . S
O538 Eu520 2.373 . S
O538 C551 1.258 . S
O539 Eu521 2.392 . S
O539 C551 1.242 . S
O540 Eu521 2.418 . S
O540 C522 1.244 . S
O541 Eu520 2.488 . S
O541 C529 1.249 . S
O542 Eu520 2.471 . S
O542 C529 1.244 . S
O543 Eu520 2.349 . S
O543 C522 1.265 . S
C544 C545 1.379 . S
C544 C548 1.373 . S
C544 C550 1.505 . S
C545 C544 1.379 . S
C545 C547 1.369 . S
C545 H556 0.930 . S
C546 C548 1.383 . S
C546 C549 1.382 . S
C546 H557 0.930 . S
C547 C545 1.369 . S
C547 C549 1.392 . S
C547 H558 0.930 . S
C548 C544 1.373 . S
C548 C546 1.383 . S
C548 H559 0.931 . S
C549 C546 1.382 . S
C549 C547 1.392 . S
C550 Eu521 2.828 . S
C550 O534 1.249 . S
C550 O535 1.244 . S
C550 C544 1.505 . S
C551 O538 1.258 . S
C551 O539 1.242 . S
H552 C524 0.930 . S
H553 C525 0.927 1_545 S
H554 C526 0.930 1_545 S
H555 C527 0.931 . S
H556 C545 0.930 . S
H557 C546 0.930 . S
H558 C547 0.930 . S
H559 C548 0.931 . S
Eu560 C569 2.828 . S
Eu560 O571 2.392 . S
Eu560 O573 2.418 . S
Eu560 O578 2.373 . S
Eu560 O581 2.488 . S
Eu560 O582 2.471 . S
Eu560 O583 2.349 . S
Eu561 O570 2.373 1_554 S
Eu561 O574 2.488 . S
Eu561 O575 2.471 . S
Eu561 O576 2.349 . S
Eu561 O579 2.392 . S
Eu561 O580 2.418 1_554 S
Eu561 C590 2.828 . S
C562 O580 1.244 . S
C562 O583 1.265 . S
C563 C564 1.379 . S
C563 C567 1.373 . S
C563 C569 1.505 . S
C564 C563 1.379 . S
C564 C566 1.369 . S
C564 H592 0.930 . S
C565 C567 1.383 . S
C565 C568 1.382 . S
C565 H593 0.930 . S
C566 C564 1.369 . S
C566 C568 1.392 . S
C566 H594 0.930 . S
C567 C563 1.373 . S
C567 C565 1.383 . S
C567 H595 0.931 . S
C568 C565 1.382 . S
C568 C566 1.392 . S
C569 Eu560 2.828 . S
C569 C563 1.505 . S
C569 O581 1.249 . S
C569 O582 1.244 . S
O570 Eu561 2.373 1_556 S
O570 C572 1.258 . S
O571 Eu560 2.392 . S
O571 C572 1.242 . S
C572 O570 1.258 . S
C572 O571 1.242 . S
O573 Eu560 2.418 . S
O573 C577 1.244 1_556 S
O574 Eu561 2.488 . S
O574 C590 1.249 . S
O575 Eu561 2.471 . S
O575 C590 1.244 . S
O576 Eu561 2.349 . S
O576 C577 1.265 . S
C577 O573 1.244 1_554 S
C577 O576 1.265 . S
O578 Eu560 2.373 . S
O578 C591 1.258 . S
O579 Eu561 2.392 . S
O579 C591 1.242 1_554 S
O580 Eu561 2.418 1_556 S
O580 C562 1.244 . S
O581 Eu560 2.488 . S
O581 C569 1.249 . S
O582 Eu560 2.471 . S
O582 C569 1.244 . S
O583 Eu560 2.349 . S
O583 C562 1.265 . S
C584 C585 1.379 . S
C584 C588 1.373 . S
C584 C590 1.505 . S
C585 C584 1.379 . S
C585 C587 1.369 . S
C585 H596 0.930 . S
C586 C588 1.383 . S
C586 C589 1.382 . S
C586 H597 0.930 . S
C587 C585 1.369 . S
C587 C589 1.392 . S
C587 H598 0.930 . S
C588 C584 1.373 . S
C588 C586 1.383 . S
C588 H599 0.931 . S
C589 C586 1.382 . S
C589 C587 1.392 . S
C590 Eu561 2.828 . S
C590 O574 1.249 . S
C590 O575 1.244 . S
C590 C584 1.505 . S
C591 O578 1.258 . S
C591 O579 1.242 1_556 S
H592 C564 0.930 . S
H593 C565 0.930 . S
H594 C566 0.930 . S
H595 C567 0.931 . S
H596 C585 0.930 . S
H597 C586 0.930 . S
H598 C587 0.930 . S
H599 C588 0.931 . S
Eu600 C609 2.828 . S
Eu600 O611 2.392 . S
Eu600 O613 2.418 . S
Eu600 O618 2.373 . S
Eu600 O621 2.488 . S
Eu600 O622 2.471 . S
Eu600 O623 2.349 . S
Eu601 O610 2.373 . S
Eu601 O614 2.488 . S
Eu601 O615 2.471 . S
Eu601 O616 2.349 . S
Eu601 O619 2.392 . S
Eu601 O620 2.418 . S
Eu601 C630 2.828 . S
C602 O620 1.244 . S
C602 O623 1.265 . S
C603 C604 1.379 . S
C603 C607 1.373 . S
C603 C609 1.505 . S
C604 C603 1.379 . S
C604 C606 1.369 . S
C604 H632 0.930 . S
C605 C607 1.390 . S
C605 C608 1.379 1_545 S
C605 H633 0.927 1_545 S
C606 C604 1.369 . S
C606 C608 1.392 1_545 S
C606 H634 0.930 1_545 S
C607 C603 1.373 . S
C607 C605 1.390 . S
C607 H635 0.931 . S
C608 C605 1.379 1_565 S
C608 C606 1.392 1_565 S
C609 Eu600 2.828 . S
C609 C603 1.505 . S
C609 O621 1.249 . S
C609 O622 1.244 . S
O610 Eu601 2.373 . S
O610 C612 1.258 . S
O611 Eu600 2.392 . S
O611 C612 1.242 . S
C612 O610 1.258 . S
C612 O611 1.242 . S
O613 Eu600 2.418 . S
O613 C617 1.244 . S
O614 Eu601 2.488 . S
O614 C630 1.249 . S
O615 Eu601 2.471 . S
O615 C630 1.244 . S
O616 Eu601 2.349 . S
O616 C617 1.265 . S
C617 O613 1.244 . S
C617 O616 1.265 . S
O618 Eu600 2.373 . S
O618 C631 1.258 . S
O619 Eu601 2.392 . S
O619 C631 1.242 . S
O620 Eu601 2.418 . S
O620 C602 1.244 . S
O621 Eu600 2.488 . S
O621 C609 1.249 . S
O622 Eu600 2.471 . S
O622 C609 1.244 . S
O623 Eu600 2.349 . S
O623 C602 1.265 . S
C624 C625 1.379 . S
C624 C628 1.373 . S
C624 C630 1.505 . S
C625 C624 1.379 . S
C625 C627 1.369 . S
C625 H636 0.930 . S
C626 C628 1.383 . S
C626 C629 1.382 . S
C626 H637 0.930 . S
C627 C625 1.369 . S
C627 C629 1.392 . S
C627 H638 0.930 . S
C628 C624 1.373 . S
C628 C626 1.383 . S
C628 H639 0.931 . S
C629 C626 1.382 . S
C629 C627 1.392 . S
C630 Eu601 2.828 . S
C630 O614 1.249 . S
C630 O615 1.244 . S
C630 C624 1.505 . S
C631 O618 1.258 . S
C631 O619 1.242 . S
H632 C604 0.930 . S
H633 C605 0.927 1_565 S
H634 C606 0.930 1_565 S
H635 C607 0.931 . S
H636 C625 0.930 . S
H637 C626 0.930 . S
H638 C627 0.930 . S
H639 C628 0.931 . S
C640 C641 1.387 . S
C640 H644 0.950 . S
C640 C649 1.390 . S
C641 C640 1.387 . S
C641 C643 1.387 . S
H642 C649 0.950 . S
C643 C641 1.387 . S
C643 C645 1.390 . S
C643 H647 0.950 1_554 S
H644 C640 0.950 . S
C645 C643 1.390 . S
C645 C646 1.387 . S
C645 H648 0.950 1_554 S
C646 C645 1.387 . S
C646 C649 1.387 . S
H647 C643 0.950 1_556 S
H648 C645 0.950 1_556 S
C649 C640 1.390 . S
C649 H642 0.950 . S
C649 C646 1.387 . S
C650 C651 1.387 . S
C650 H654 0.950 . S
C650 C659 1.390 . S
C651 C650 1.387 . S
C651 C653 1.387 . S
H652 C659 0.950 . S
C653 C651 1.387 . S
C653 C655 1.390 . S
C653 H657 0.950 . S
H654 C650 0.950 . S
C655 C653 1.390 . S
C655 C656 1.387 . S
C655 H658 0.950 . S
C656 C655 1.387 . S
C656 C659 1.387 . S
H657 C653 0.950 . S
H658 C655 0.950 . S
C659 C650 1.390 . S
C659 H652 0.950 . S
C659 C656 1.387 . S
C660 C661 1.387 . S
C660 H664 0.950 . S
C660 C669 1.390 1_455 S
C661 C660 1.387 . S
C661 C663 1.387 . S
H662 C669 0.950 . S
C663 C661 1.387 . S
C663 C665 1.390 1_455 S
C663 H667 0.950 . S
H664 C660 0.950 . S
C665 C663 1.390 1_655 S
C665 C666 1.387 . S
C665 H668 0.950 . S
C666 C665 1.387 . S
C666 C669 1.387 . S
H667 C663 0.950 . S
H668 C665 0.950 . S
C669 C660 1.390 1_655 S
C669 H662 0.950 . S
C669 C666 1.387 . S
C670 C671 1.387 . S
C670 H674 0.950 . S
C670 C679 1.390 1_655 S
C671 C670 1.387 . S
C671 C673 1.387 . S
H672 C679 0.950 . S
C673 C671 1.387 . S
C673 C675 1.390 1_655 S
C673 H677 0.950 . S
H674 C670 0.950 . S
C675 C673 1.390 1_455 S
C675 C676 1.387 . S
C675 H678 0.950 . S
C676 C675 1.387 . S
C676 C679 1.387 . S
H677 C673 0.950 . S
H678 C675 0.950 . S
C679 C670 1.390 1_455 S
C679 H672 0.950 . S
C679 C676 1.387 . S
C680 C681 1.387 . S
C680 H684 0.950 . S
C680 C689 1.390 . S
C681 C680 1.387 . S
C681 C683 1.387 . S
H682 C689 0.950 . S
C683 C681 1.387 . S
C683 C685 1.390 . S
C683 H687 0.950 1_556 S
H684 C680 0.950 . S
C685 C683 1.390 . S
C685 C686 1.387 . S
C685 H688 0.950 1_556 S
C686 C685 1.387 . S
C686 C689 1.387 . S
H687 C683 0.950 1_554 S
H688 C685 0.950 1_554 S
C689 C680 1.390 . S
C689 H682 0.950 . S
C689 C686 1.387 . S
C690 C691 1.387 . S
C690 H694 0.950 . S
C690 C699 1.390 . S
C691 C690 1.387 . S
C691 C693 1.387 . S
H692 C699 0.950 . S
C693 C691 1.387 . S
C693 C695 1.390 . S
C693 H697 0.950 . S
H694 C690 0.950 . S
C695 C693 1.390 . S
C695 C696 1.387 . S
C695 H698 0.950 . S
C696 C695 1.387 . S
C696 C699 1.387 . S
H697 C693 0.950 . S
H698 C695 0.950 . S
C699 C690 1.390 . S
C699 H692 0.950 . S
C699 C696 1.387 . S
C700 C701 1.387 . S
C700 H704 0.950 . S
C700 C709 1.390 1_655 S
C701 C700 1.387 . S
C701 C703 1.387 . S
H702 C709 0.950 . S
C703 C701 1.387 . S
C703 C705 1.390 1_655 S
C703 H707 0.950 . S
H704 C700 0.950 . S
C705 C703 1.390 1_455 S
C705 C706 1.387 . S
C705 H708 0.950 . S
C706 C705 1.387 . S
C706 C709 1.387 . S
H707 C703 0.950 . S
H708 C705 0.950 . S
C709 C700 1.390 1_455 S
C709 H702 0.950 . S
C709 C706 1.387 . S
C710 C711 1.387 . S
C710 H714 0.950 . S
C710 C719 1.390 1_455 S
C711 C710 1.387 . S
C711 C713 1.387 . S
H712 C719 0.950 . S
C713 C711 1.387 . S
C713 C715 1.390 1_455 S
C713 H717 0.950 . S
H714 C710 0.950 . S
C715 C713 1.390 1_655 S
C715 C716 1.387 . S
C715 H718 0.950 . S
C716 C715 1.387 . S
C716 C719 1.387 . S
H717 C713 0.950 . S
H718 C715 0.950 . S
C719 C710 1.390 1_655 S
C719 H712 0.950 . S
C719 C716 1.387 . S
C720 C721 1.387 . S
C720 H724 0.950 . S
C720 C729 1.390 . S
C721 C720 1.387 . S
C721 C723 1.387 . S
H722 C729 0.950 . S
C723 C721 1.387 . S
C723 C725 1.390 . S
C723 H727 0.950 . S
H724 C720 0.950 . S
C725 C723 1.390 . S
C725 C726 1.387 . S
C725 H728 0.950 . S
C726 C725 1.387 . S
C726 C729 1.387 . S
H727 C723 0.950 . S
H728 C725 0.950 . S
C729 C720 1.390 . S
C729 H722 0.950 . S
C729 C726 1.387 . S
C730 C731 1.387 . S
C730 H734 0.950 . S
C730 C739 1.390 . S
C731 C730 1.387 . S
C731 C733 1.387 . S
H732 C739 0.950 . S
C733 C731 1.387 . S
C733 C735 1.390 . S
C733 H737 0.950 . S
H734 C730 0.950 . S
C735 C733 1.390 . S
C735 C736 1.387 . S
C735 H738 0.950 . S
C736 C735 1.387 . S
C736 C739 1.387 . S
H737 C733 0.950 . S
H738 C735 0.950 . S
C739 C730 1.390 . S
C739 H732 0.950 . S
C739 C736 1.387 . S
C740 C741 1.387 . S
C740 H744 0.950 . S
C740 C749 1.390 . S
C741 C740 1.387 . S
C741 C743 1.387 . S
H742 C749 0.950 . S
C743 C741 1.387 . S
C743 C745 1.390 . S
C743 H747 0.950 . S
H744 C740 0.950 . S
C745 C743 1.390 . S
C745 C746 1.387 . S
C745 H748 0.950 . S
C746 C745 1.387 . S
C746 C749 1.387 . S
H747 C743 0.950 . S
H748 C745 0.950 . S
C749 C740 1.390 . S
C749 H742 0.950 . S
C749 C746 1.387 . S
C750 C751 1.387 . S
C750 H754 0.950 . S
C750 C759 1.390 . S
C751 C750 1.387 . S
C751 C753 1.387 . S
H752 C759 0.950 . S
C753 C751 1.387 . S
C753 C755 1.390 . S
C753 H757 0.950 . S
H754 C750 0.950 . S
C755 C753 1.390 . S
C755 C756 1.387 . S
C755 H758 0.950 . S
C756 C755 1.387 . S
C756 C759 1.387 . S
H757 C753 0.950 . S
H758 C755 0.950 . S
C759 C750 1.390 . S
C759 H752 0.950 . S
C759 C756 1.387 . S
C760 C761 1.387 . S
C760 H764 0.950 . S
C760 C769 1.390 . S
C761 C760 1.387 . S
C761 C763 1.387 . S
H762 C769 0.950 . S
C763 C761 1.387 . S
C763 C765 1.390 . S
C763 H767 0.950 . S
H764 C760 0.950 . S
C765 C763 1.390 . S
C765 C766 1.387 . S
C765 H768 0.950 . S
C766 C765 1.387 . S
C766 C769 1.387 . S
H767 C763 0.950 . S
H768 C765 0.950 . S
C769 C760 1.390 . S
C769 H762 0.950 . S
C769 C766 1.387 . S
C770 C771 1.387 . S
C770 H774 0.950 . S
C770 C779 1.390 . S
C771 C770 1.387 . S
C771 C773 1.387 . S
H772 C779 0.950 . S
C773 C771 1.387 . S
C773 C775 1.390 . S
C773 H777 0.950 . S
H774 C770 0.950 . S
C775 C773 1.390 . S
C775 C776 1.387 . S
C775 H778 0.950 . S
C776 C775 1.387 . S
C776 C779 1.387 . S
H777 C773 0.950 . S
H778 C775 0.950 . S
C779 C770 1.390 . S
C779 H772 0.950 . S
C779 C776 1.387 . S
C780 C781 1.387 . S
C780 H784 0.950 . S
C780 C789 1.390 . S
C781 C780 1.387 . S
C781 C783 1.387 . S
H782 C789 0.950 . S
C783 C781 1.387 . S
C783 C785 1.390 . S
C783 H787 0.950 . S
H784 C780 0.950 . S
C785 C783 1.390 . S
C785 C786 1.387 . S
C785 H788 0.950 . S
C786 C785 1.387 . S
C786 C789 1.387 . S
H787 C783 0.950 . S
H788 C785 0.950 . S
C789 C780 1.390 . S
C789 H782 0.950 . S
C789 C786 1.387 . S
C790 C791 1.387 . S
C790 H794 0.950 . S
C790 C799 1.390 . S
C791 C790 1.387 . S
C791 C793 1.387 . S
H792 C799 0.950 . S
C793 C791 1.387 . S
C793 C795 1.390 . S
C793 H797 0.950 . S
H794 C790 0.950 . S
C795 C793 1.390 . S
C795 C796 1.387 . S
C795 H798 0.950 . S
C796 C795 1.387 . S
C796 C799 1.387 . S
H797 C793 0.950 . S
H798 C795 0.950 . S
C799 C790 1.390 . S
C799 H792 0.950 . S
C799 C796 1.387 . S
C800 C801 1.387 . S
C800 H804 0.950 . S
C800 C809 1.390 . S
C801 C800 1.387 . S
C801 C803 1.387 . S
H802 C809 0.950 . S
C803 C801 1.387 . S
C803 C805 1.390 . S
C803 H807 0.950 . S
H804 C800 0.950 . S
C805 C803 1.390 . S
C805 C806 1.387 . S
C805 H808 0.950 . S
C806 C805 1.387 . S
C806 C809 1.387 . S
H807 C803 0.950 . S
H808 C805 0.950 . S
C809 C800 1.390 . S
C809 H802 0.950 . S
C809 C806 1.387 . S
C810 C811 1.387 1_565 S
C810 H814 0.950 . S
C810 C819 1.390 . S
C811 C810 1.387 1_545 S
C811 C813 1.387 . S
H812 C819 0.950 . S
C813 C811 1.387 . S
C813 C815 1.390 1_545 S
C813 H817 0.950 . S
H814 C810 0.950 . S
C815 C813 1.390 1_565 S
C815 C816 1.387 . S
C815 H818 0.950 . S
C816 C815 1.387 . S
C816 C819 1.387 . S
H817 C813 0.950 . S
H818 C815 0.950 . S
C819 C810 1.390 . S
C819 H812 0.950 . S
C819 C816 1.387 . S
C820 C821 1.387 . S
C820 H824 0.950 . S
C820 C829 1.390 . S
C821 C820 1.387 . S
C821 C823 1.387 . S
H822 C829 0.950 . S
C823 C821 1.387 . S
C823 C825 1.390 . S
C823 H827 0.950 . S
H824 C820 0.950 . S
C825 C823 1.390 . S
C825 C826 1.387 . S
C825 H828 0.950 . S
C826 C825 1.387 . S
C826 C829 1.387 . S
H827 C823 0.950 . S
H828 C825 0.950 . S
C829 C820 1.390 . S
C829 H822 0.950 . S
C829 C826 1.387 . S
C830 C831 1.387 1_545 S
C830 H834 0.950 1_545 S
C830 C839 1.390 . S
C831 C830 1.387 1_565 S
C831 C833 1.387 1_565 S
H832 C839 0.950 . S
C833 C831 1.387 1_545 S
C833 C835 1.390 . S
C833 H837 0.950 1_545 S
H834 C830 0.950 1_565 S
C835 C833 1.390 . S
C835 C836 1.387 . S
C835 H838 0.950 . S
C836 C835 1.387 . S
C836 C839 1.387 . S
H837 C833 0.950 1_565 S
H838 C835 0.950 . S
C839 C830 1.390 . S
C839 H832 0.950 . S
C839 C836 1.387 . S
C840 C841 1.387 . S
C840 H844 0.950 . S
C840 C849 1.390 . S
C841 C840 1.387 . S
C841 C843 1.387 . S
H842 C849 0.950 . S
C843 C841 1.387 . S
C843 C845 1.390 . S
C843 H847 0.950 . S
H844 C840 0.950 . S
C845 C843 1.390 . S
C845 C846 1.387 . S
C845 H848 0.950 . S
C846 C845 1.387 . S
C846 C849 1.387 . S
H847 C843 0.950 . S
H848 C845 0.950 . S
C849 C840 1.390 . S
C849 H842 0.950 . S
C849 C846 1.387 . S
C850 C851 1.387 . S
C850 H854 0.950 . S
C850 C859 1.390 . S
C851 C850 1.387 . S
C851 C853 1.387 . S
H852 C859 0.950 1_565 S
C853 C851 1.387 . S
C853 C855 1.390 . S
C853 H857 0.950 . S
H854 C850 0.950 . S
C855 C853 1.390 . S
C855 C856 1.387 1_545 S
C855 H858 0.950 1_545 S
C856 C855 1.387 1_565 S
C856 C859 1.387 1_565 S
H857 C853 0.950 . S
H858 C855 0.950 1_565 S
C859 C850 1.390 . S
C859 H852 0.950 1_545 S
C859 C856 1.387 1_545 S
C860 C861 1.387 . S
C860 H864 0.950 . S
C860 C869 1.390 . S
C861 C860 1.387 . S
C861 C863 1.387 . S
H862 C869 0.950 . S
C863 C861 1.387 . S
C863 C865 1.390 . S
C863 H867 0.950 . S
H864 C860 0.950 . S
C865 C863 1.390 . S
C865 C866 1.387 . S
C865 H868 0.950 . S
C866 C865 1.387 . S
C866 C869 1.387 . S
H867 C863 0.950 . S
H868 C865 0.950 . S
C869 C860 1.390 . S
C869 H862 0.950 . S
C869 C866 1.387 . S
C870 C871 1.387 . S
C870 H874 0.950 . S
C870 C879 1.390 1_545 S
C871 C870 1.387 . S
C871 C873 1.387 1_545 S
H872 C879 0.950 . S
C873 C871 1.387 1_565 S
C873 C875 1.390 . S
C873 H877 0.950 . S
H874 C870 0.950 . S
C875 C873 1.390 . S
C875 C876 1.387 . S
C875 H878 0.950 . S
C876 C875 1.387 . S
C876 C879 1.387 . S
H877 C873 0.950 . S
H878 C875 0.950 . S
C879 C870 1.390 1_565 S
C879 H872 0.950 . S
C879 C876 1.387 . S
C880 C881 1.387 . S
C880 H884 0.950 . S
C880 C889 1.390 . S
C881 C880 1.387 . S
C881 C883 1.387 . S
H882 C889 0.950 . S
C883 C881 1.387 . S
C883 C885 1.390 . S
C883 H887 0.950 . S
H884 C880 0.950 . S
C885 C883 1.390 . S
C885 C886 1.387 . S
C885 H888 0.950 . S
C886 C885 1.387 . S
C886 C889 1.387 . S
H887 C883 0.950 . S
H888 C885 0.950 . S
C889 C880 1.390 . S
C889 H882 0.950 . S
C889 C886 1.387 . S
C890 C891 1.387 . S
C890 H894 0.950 . S
C890 C899 1.390 . S
C891 C890 1.387 . S
C891 C893 1.387 . S
H892 C899 0.950 . S
C893 C891 1.387 . S
C893 C895 1.390 . S
C893 H897 0.950 . S
H894 C890 0.950 . S
C895 C893 1.390 . S
C895 C896 1.387 . S
C895 H898 0.950 . S
C896 C895 1.387 . S
C896 C899 1.387 . S
H897 C893 0.950 . S
H898 C895 0.950 . S
C899 C890 1.390 . S
C899 H892 0.950 . S
C899 C896 1.387 . S
C900 C901 1.387 . S
C900 H904 0.978 . S
C900 C909 1.390 . S
C901 C900 1.387 . S
C901 C903 1.387 . S
H902 C909 0.928 1_455 S
C903 C901 1.387 . S
C903 C905 1.390 . S
C903 H907 0.950 . S
H904 C900 0.978 . S
C905 C903 1.390 . S
C905 C906 1.387 . S
C905 H908 0.950 . S
C906 C905 1.387 . S
C906 C909 1.387 . S
H907 C903 0.950 . S
H908 C905 0.950 . S
C909 C900 1.390 . S
C909 H902 0.928 1_655 S
C909 C906 1.387 . S
C910 C911 1.387 . S
C910 H914 0.950 . S
C910 C919 1.390 . S
C911 C910 1.387 . S
C911 C913 1.387 . S
H912 C919 0.950 . S
C913 C911 1.387 . S
C913 C915 1.390 . S
C913 H917 0.950 . S
H914 C910 0.950 . S
C915 C913 1.390 . S
C915 C916 1.387 . S
C915 H918 0.950 . S
C916 C915 1.387 . S
C916 C919 1.387 . S
H917 C913 0.950 . S
H918 C915 0.950 . S
C919 C910 1.390 . S
C919 H912 0.950 . S
C919 C916 1.387 . S
C920 C921 1.387 . S
C920 H924 0.950 . S
C920 C929 1.390 . S
C921 C920 1.387 . S
C921 C923 1.387 . S
H922 C929 0.950 . S
C923 C921 1.387 . S
C923 C925 1.390 . S
C923 H927 0.950 . S
H924 C920 0.950 . S
C925 C923 1.390 . S
C925 C926 1.387 . S
C925 H928 0.950 . S
C926 C925 1.387 . S
C926 C929 1.387 . S
H927 C923 0.950 . S
H928 C925 0.950 . S
C929 C920 1.390 . S
C929 H922 0.950 . S
C929 C926 1.387 . S
C930 C931 1.387 . S
C930 H934 0.950 . S
C930 C939 1.390 . S
C931 C930 1.387 . S
C931 C933 1.387 . S
H932 C939 0.950 . S
C933 C931 1.387 . S
C933 C935 1.390 . S
C933 H937 0.950 . S
H934 C930 0.950 . S
C935 C933 1.390 . S
C935 C936 1.387 . S
C935 H938 0.950 . S
C936 C935 1.387 . S
C936 C939 1.387 . S
H937 C933 0.950 . S
H938 C935 0.950 . S
C939 C930 1.390 . S
C939 H932 0.950 . S
C939 C936 1.387 . S
C940 C941 1.387 . S
C940 H944 0.950 . S
C940 C949 1.390 . S
C941 C940 1.387 . S
C941 C943 1.387 . S
H942 C949 0.950 . S
C943 C941 1.387 . S
C943 C945 1.390 . S
C943 H947 0.950 . S
H944 C940 0.950 . S
C945 C943 1.390 . S
C945 C946 1.387 . S
C945 H948 0.938 1_455 S
C946 C945 1.387 . S
C946 C949 1.387 . S
H947 C943 0.950 . S
H948 C945 0.938 1_655 S
C949 C940 1.390 . S
C949 H942 0.950 . S
C949 C946 1.387 . S
C950 C951 1.387 . S
C950 H954 0.950 . S
C950 C959 1.390 . S
C951 C950 1.387 . S
C951 C953 1.387 . S
H952 C959 0.950 . S
C953 C951 1.387 . S
C953 C955 1.390 . S
C953 H957 0.950 . S
H954 C950 0.950 . S
C955 C953 1.390 . S
C955 C956 1.387 . S
C955 H958 0.950 . S
C956 C955 1.387 . S
C956 C959 1.387 . S
H957 C953 0.950 . S
H958 C955 0.950 . S
C959 C950 1.390 . S
C959 H952 0.950 . S
C959 C956 1.387 . S
C960 C961 1.387 . S
C960 H964 0.950 . S
C960 C969 1.390 . S
C961 C960 1.387 . S
C961 C963 1.387 . S
H962 C969 0.950 . S
C963 C961 1.387 . S
C963 C965 1.390 . S
C963 H967 0.950 . S
H964 C960 0.950 . S
C965 C963 1.390 . S
C965 C966 1.387 . S
C965 H968 0.950 . S
C966 C965 1.387 . S
C966 C969 1.387 . S
H967 C963 0.950 . S
H968 C965 0.950 . S
C969 C960 1.390 . S
C969 H962 0.950 . S
C969 C966 1.387 . S
C970 C971 1.387 . S
C970 H974 0.950 . S
C970 C979 1.390 . S
C971 C970 1.387 . S
C971 C973 1.387 . S
H972 C979 0.950 . S
C973 C971 1.387 . S
C973 C975 1.390 . S
C973 H977 0.950 . S
H974 C970 0.950 . S
C975 C973 1.390 . S
C975 C976 1.387 . S
C975 H978 0.950 . S
C976 C975 1.387 . S
C976 C979 1.387 . S
H977 C973 0.950 . S
H978 C975 0.950 . S
C979 C970 1.390 . S
C979 H972 0.950 . S
C979 C976 1.387 . S
C980 C981 1.387 . S
C980 H984 0.950 . S
C980 C989 1.390 . S
C981 C980 1.387 . S
C981 C983 1.387 . S
H982 C989 0.950 . S
C983 C981 1.387 . S
C983 C985 1.390 . S
C983 H987 0.950 . S
H984 C980 0.950 . S
C985 C983 1.390 . S
C985 C986 1.387 . S
C985 H988 0.950 . S
C986 C985 1.387 . S
C986 C989 1.387 . S
H987 C983 0.950 . S
H988 C985 0.950 . S
C989 C980 1.390 . S
C989 H982 0.950 . S
C989 C986 1.387 . S
C990 C991 1.387 . S
C990 H994 0.950 . S
C990 C999 1.390 . S
C991 C990 1.387 . S
C991 C993 1.387 . S
H992 C999 0.950 . S
C993 C991 1.387 . S
C993 C995 1.390 . S
C993 H997 0.950 . S
H994 C990 0.950 . S
C995 C993 1.390 . S
C995 C996 1.387 . S
C995 H998 0.950 . S
C996 C995 1.387 . S
C996 C999 1.387 . S
H997 C993 0.950 . S
H998 C995 0.950 . S
C999 C990 1.390 . S
C999 H992 0.950 . S
C999 C996 1.387 . S
C1000 C1001 1.387 . S
C1000 H1004 0.950 . S
C1000 C1009 1.390 . S
C1001 C1000 1.387 . S
C1001 C1003 1.387 . S
H1002 C1009 0.950 . S
C1003 C1001 1.387 . S
C1003 C1005 1.390 . S
C1003 H1007 0.947 1_655 S
H1004 C1000 0.950 . S
C1005 C1003 1.390 . S
C1005 C1006 1.387 . S
C1005 H1008 0.950 . S
C1006 C1005 1.387 . S
C1006 C1009 1.387 . S
H1007 C1003 0.947 1_455 S
H1008 C1005 0.950 . S
C1009 C1000 1.390 . S
C1009 H1002 0.950 . S
C1009 C1006 1.387 . S
C1010 C1011 1.387 . S
C1010 H1014 0.950 . S
C1010 C1019 1.390 . S
C1011 C1010 1.387 . S
C1011 C1013 1.387 . S
H1012 C1019 0.950 . S
C1013 C1011 1.387 . S
C1013 C1015 1.390 . S
C1013 H1017 0.950 . S
H1014 C1010 0.950 . S
C1015 C1013 1.390 . S
C1015 C1016 1.387 . S
C1015 H1018 0.950 . S
C1016 C1015 1.387 . S
C1016 C1019 1.387 . S
H1017 C1013 0.950 . S
H1018 C1015 0.950 . S
C1019 C1010 1.390 . S
C1019 H1012 0.950 . S
C1019 C1016 1.387 . S
C1020 C1021 1.387 . S
C1020 H1024 0.950 . S
C1020 C1029 1.390 . S
C1021 C1020 1.387 . S
C1021 C1023 1.387 . S
H1022 C1029 0.950 . S
C1023 C1021 1.387 . S
C1023 C1025 1.390 . S
C1023 H1027 0.950 . S
H1024 C1020 0.950 . S
C1025 C1023 1.390 . S
C1025 C1026 1.387 . S
C1025 H1028 0.950 . S
C1026 C1025 1.387 . S
C1026 C1029 1.387 . S
H1027 C1023 0.950 . S
H1028 C1025 0.950 . S
C1029 C1020 1.390 . S
C1029 H1022 0.950 . S
C1029 C1026 1.387 . S
C1030 C1031 1.387 . S
C1030 H1034 0.950 . S
C1030 C1039 1.390 . S
C1031 C1030 1.387 . S
C1031 C1033 1.387 . S
H1032 C1039 0.950 . S
C1033 C1031 1.387 . S
C1033 C1035 1.390 . S
C1033 H1037 0.950 . S
H1034 C1030 0.950 . S
C1035 C1033 1.390 . S
C1035 C1036 1.387 . S
C1035 H1038 0.950 . S
C1036 C1035 1.387 . S
C1036 C1039 1.387 . S
H1037 C1033 0.950 . S
H1038 C1035 0.950 . S
C1039 C1030 1.390 . S
C1039 H1032 0.950 . S
C1039 C1036 1.387 . S
C1040 C1041 1.387 . S
C1040 H1044 0.950 . S
C1040 C1049 1.390 . S
C1041 C1040 1.387 . S
C1041 C1043 1.387 . S
H1042 C1049 0.950 . S
C1043 C1041 1.387 . S
C1043 C1045 1.390 . S
C1043 H1047 0.950 . S
H1044 C1040 0.950 . S
C1045 C1043 1.390 . S
C1045 C1046 1.387 . S
C1045 H1048 0.950 . S
C1046 C1045 1.387 . S
C1046 C1049 1.387 . S
H1047 C1043 0.950 . S
H1048 C1045 0.950 . S
C1049 C1040 1.390 . S
C1049 H1042 0.950 . S
C1049 C1046 1.387 . S
C1050 C1051 1.387 . S
C1050 H1054 0.950 . S
C1050 C1059 1.390 . S
C1051 C1050 1.387 . S
C1051 C1053 1.387 . S
H1052 C1059 0.950 . S
C1053 C1051 1.387 . S
C1053 C1055 1.390 . S
C1053 H1057 0.950 . S
H1054 C1050 0.950 . S
C1055 C1053 1.390 . S
C1055 C1056 1.387 . S
C1055 H1058 0.950 . S
C1056 C1055 1.387 . S
C1056 C1059 1.387 . S
H1057 C1053 0.950 . S
H1058 C1055 0.950 . S
C1059 C1050 1.390 . S
C1059 H1052 0.950 . S
C1059 C1056 1.387 . S
C1060 C1061 1.387 . S
C1060 H1064 0.950 . S
C1060 C1069 1.390 . S
C1061 C1060 1.387 . S
C1061 C1063 1.387 . S
H1062 C1069 0.950 . S
C1063 C1061 1.387 . S
C1063 C1065 1.390 . S
C1063 H1067 0.950 . S
H1064 C1060 0.950 . S
C1065 C1063 1.390 . S
C1065 C1066 1.387 . S
C1065 H1068 0.950 . S
C1066 C1065 1.387 . S
C1066 C1069 1.387 . S
H1067 C1063 0.950 . S
H1068 C1065 0.950 . S
C1069 C1060 1.390 . S
C1069 H1062 0.950 . S
C1069 C1066 1.387 . S
C1070 C1071 1.387 . S
C1070 H1074 0.950 . S
C1070 C1079 1.390 1_455 S
C1071 C1070 1.387 . S
C1071 C1073 1.387 1_554 S
H1072 C1079 0.950 . S
C1073 C1071 1.387 1_556 S
C1073 C1075 1.390 1_455 S
C1073 H1077 0.950 . S
H1074 C1070 0.950 . S
C1075 C1073 1.390 1_655 S
C1075 C1076 1.387 . S
C1075 H1078 0.950 . S
C1076 C1075 1.387 . S
C1076 C1079 1.387 1_556 S
H1077 C1073 0.950 . S
H1078 C1075 0.950 . S
C1079 C1070 1.390 1_655 S
C1079 H1072 0.950 . S
C1079 C1076 1.387 1_554 S
C1080 C1081 1.387 . S
C1080 H1084 0.950 . S
C1080 C1089 1.390 . S
C1081 C1080 1.387 . S
C1081 C1083 1.387 . S
H1082 C1089 0.950 . S
C1083 C1081 1.387 . S
C1083 C1085 1.390 . S
C1083 H1087 0.950 . S
H1084 C1080 0.950 . S
C1085 C1083 1.390 . S
C1085 C1086 1.387 . S
C1085 H1088 0.950 . S
C1086 C1085 1.387 . S
C1086 C1089 1.387 . S
H1087 C1083 0.950 . S
H1088 C1085 0.950 . S
C1089 C1080 1.390 . S
C1089 H1082 0.950 . S
C1089 C1086 1.387 . S
C1090 C1091 1.387 . S
C1090 H1094 0.950 . S
C1090 C1099 1.390 . S
C1091 C1090 1.387 . S
C1091 C1093 1.387 . S
H1092 C1099 0.950 . S
C1093 C1091 1.387 . S
C1093 C1095 1.390 . S
C1093 H1097 0.950 . S
H1094 C1090 0.950 . S
C1095 C1093 1.390 . S
C1095 C1096 1.387 . S
C1095 H1098 0.950 . S
C1096 C1095 1.387 . S
C1096 C1099 1.387 . S
H1097 C1093 0.950 . S
H1098 C1095 0.950 . S
C1099 C1090 1.390 . S
C1099 H1092 0.950 . S
C1099 C1096 1.387 . S
C1100 C1101 1.387 1_545 S
C1100 H1104 0.950 . S
C1100 C1109 1.390 1_455 S
C1101 C1100 1.387 1_565 S
C1101 C1103 1.387 1_556 S
H1102 C1109 0.950 . S
C1103 C1101 1.387 1_554 S
C1103 C1105 1.390 1_455 S
C1103 H1107 0.950 . S
H1104 C1100 0.950 . S
C1105 C1103 1.390 1_655 S
C1105 C1106 1.387 1_565 S
C1105 H1108 0.950 . S
C1106 C1105 1.387 1_545 S
C1106 C1109 1.387 1_554 S
H1107 C1103 0.950 . S
H1108 C1105 0.950 . S
C1109 C1100 1.390 1_655 S
C1109 H1102 0.950 . S
C1109 C1106 1.387 1_556 S
C1110 C1111 1.387 1_545 S
C1110 H1114 0.950 . S
C1110 C1119 1.390 . S
C1111 C1110 1.387 1_565 S
C1111 C1113 1.387 . S
H1112 C1119 0.950 . S
C1113 C1111 1.387 . S
C1113 C1115 1.390 . S
C1113 H1117 0.950 . S
H1114 C1110 0.950 . S
C1115 C1113 1.390 . S
C1115 C1116 1.387 1_565 S
C1115 H1118 0.950 . S
C1116 C1115 1.387 1_545 S
C1116 C1119 1.387 . S
H1117 C1113 0.950 . S
H1118 C1115 0.950 . S
C1119 C1110 1.390 . S
C1119 H1112 0.950 . S
C1119 C1116 1.387 . S
C641 C31 3.350 . S
C646 C431 3.350 . S
C651 C71 3.351 . S
C656 C471 3.351 . S
C661 C111 3.350 . S
C666 C351 3.350 . S
C671 C151 3.350 . S
C676 C391 3.350 . S
C681 C172 3.352 . S
C686 C572 3.352 . S
C691 C212 3.350 . S
C696 C612 3.350 . S
C701 C252 3.350 . S
C706 C492 3.350 . S
C711 C292 3.350 . S
C716 C532 3.350 . S
C721 C377 3.785 . S
C726 C12 3.754 1_556 S
C731 C417 3.786 . S
C736 C52 3.753 . S
C741 C457 3.785 . S
C746 C92 3.754 . S
C751 C337 3.785 . S
C756 C132 3.754 . S
C761 C191 3.753 1_554 S
C766 C522 3.786 . S
C771 C562 3.785 . S
C776 C231 3.755 . S
C781 C602 3.785 . S
C786 C271 3.754 . S
C791 C482 3.785 . S
C796 C311 3.755 . S
C801 C57 3.786 . S
C806 C332 3.753 . S
C811 C372 3.755 . S
C816 C97 3.785 . S
C821 C412 3.753 1_556 S
C826 C137 3.786 . S
C831 C452 3.753 . S
C836 C17 3.786 . S
C841 C511 3.753 . S
C846 C202 3.786 . S
C851 C242 3.785 . S
C856 C551 3.755 . S
C861 C282 3.786 . S
C866 C591 3.753 1_554 S
C871 C631 3.755 . S
C876 C162 3.785 . S
C881 C8 0.694 . S
C886 C617 0.639 . S
C891 C48 0.703 . S
C896 C177 0.648 . S
C901 C537 0.647 . S
C906 C88 0.700 . S
C911 C257 0.647 . S
C916 C128 0.701 . S
C921 C189 0.701 . S
C926 C442 0.647 . S
C931 C229 0.697 . S
C936 C2 0.640 . S
C941 C362 0.646 . S
C946 C269 0.700 . S
C951 C82 0.647 . S
C956 C309 0.701 . S
C961 C328 0.697 . S
C966 C297 0.644 . S
C971 C368 0.697 . S
C976 C497 0.640 . S
C981 C217 0.645 . S
C986 C408 0.703 . S
C991 C577 0.644 . S
C996 C448 0.696 . S
C1001 C509 0.700 . S
C1006 C122 0.646 . S
C1011 C549 0.693 . S
C1016 C322 0.641 . S
C1021 C589 0.697 . S
C1026 C42 0.640 . S
C1031 C402 0.647 . S
C1036 C629 0.701 . S
C1041 C29 2.157 . S
C1046 C488 2.157 . S
C1051 C69 2.155 . S
C1056 C208 2.155 . S
C1061 C109 2.154 . S
C1066 C568 2.154 . S
C1071 C288 2.156 . S
C1076 C149 2.156 . S
C1081 C168 2.158 . S
C1086 C349 2.158 . S
C1091 C429 2.157 . S
C1096 C248 2.157 . S
C1101 C389 2.155 . S
C1106 C528 2.155 . S
C1111 C608 2.156 . S
C1116 C469 2.156 . S
