# Generated by pormake.
# Topology vby, (6)-cn, num edge types: 1
# Building blocks:
#     Node 0, Type 0, BuildingBlock: BETDIP_clean_sbu_0, # of connection points: 6
#     Node 1, Type 0, BuildingBlock: BETDIP_clean_sbu_0, # of connection points: 6
#     Node 2, Type 0, BuildingBlock: BETDIP_clean_sbu_0, # of connection points: 6
#     Node 3, Type 0, BuildingBlock: BETDIP_clean_sbu_0, # of connection points: 6
#     Node 4, Type 0, BuildingBlock: BETDIP_clean_sbu_0, # of connection points: 6
#     Node 5, Type 0, BuildingBlock: BETDIP_clean_sbu_0, # of connection points: 6
#     Node 6, Type 0, BuildingBlock: BETDIP_clean_sbu_0, # of connection points: 6
#     Node 7, Type 0, BuildingBlock: BETDIP_clean_sbu_0, # of connection points: 6
#     Edge 8, Type (0, 0), BuildingBlock: KIFKEQ_clean_linker_1, # of connection points: 2
#     Edge 9, Type (0, 0), BuildingBlock: KIFKEQ_clean_linker_1, # of connection points: 2
#     Edge 10, Type (0, 0), BuildingBlock: KIFKEQ_clean_linker_1, # of connection points: 2
#     Edge 11, Type (0, 0), BuildingBlock: KIFKEQ_clean_linker_1, # of connection points: 2
#     Edge 12, Type (0, 0), BuildingBlock: KIFKEQ_clean_linker_1, # of connection points: 2
#     Edge 13, Type (0, 0), BuildingBlock: KIFKEQ_clean_linker_1, # of connection points: 2
#     Edge 14, Type (0, 0), BuildingBlock: KIFKEQ_clean_linker_1, # of connection points: 2
#     Edge 15, Type (0, 0), BuildingBlock: KIFKEQ_clean_linker_1, # of connection points: 2
#     Edge 16, Type (0, 0), BuildingBlock: KIFKEQ_clean_linker_1, # of connection points: 2
#     Edge 17, Type (0, 0), BuildingBlock: KIFKEQ_clean_linker_1, # of connection points: 2
#     Edge 18, Type (0, 0), BuildingBlock: KIFKEQ_clean_linker_1, # of connection points: 2
#     Edge 19, Type (0, 0), BuildingBlock: KIFKEQ_clean_linker_1, # of connection points: 2
#     Edge 20, Type (0, 0), BuildingBlock: KIFKEQ_clean_linker_1, # of connection points: 2
#     Edge 21, Type (0, 0), BuildingBlock: KIFKEQ_clean_linker_1, # of connection points: 2
#     Edge 22, Type (0, 0), BuildingBlock: KIFKEQ_clean_linker_1, # of connection points: 2
#     Edge 23, Type (0, 0), BuildingBlock: KIFKEQ_clean_linker_1, # of connection points: 2
#     Edge 24, Type (0, 0), BuildingBlock: KIFKEQ_clean_linker_1, # of connection points: 2
#     Edge 25, Type (0, 0), BuildingBlock: KIFKEQ_clean_linker_1, # of connection points: 2
#     Edge 26, Type (0, 0), BuildingBlock: KIFKEQ_clean_linker_1, # of connection points: 2
#     Edge 27, Type (0, 0), BuildingBlock: KIFKEQ_clean_linker_1, # of connection points: 2
#     Edge 28, Type (0, 0), BuildingBlock: KIFKEQ_clean_linker_1, # of connection points: 2
#     Edge 29, Type (0, 0), BuildingBlock: KIFKEQ_clean_linker_1, # of connection points: 2
#     Edge 30, Type (0, 0), BuildingBlock: KIFKEQ_clean_linker_1, # of connection points: 2
#     Edge 31, Type (0, 0), BuildingBlock: KIFKEQ_clean_linker_1, # of connection points: 2
# Relax obj value: 0.628
# Max RMSD: 0.254
# Mean RMSD: 0.212
data_MOF--net-vby--node1-BETDIP_clean_sbu_0--edge1-KIFKEQ_clean_linker_1
_symmetry_space_group_name_H-M    P1
_symmetry_Int_Tables_number       1
_symmetry_cell_setting            triclinic
loop_
_symmetry_equiv_pos_as_xyz
'x, y, z'
_cell_length_a     18.415914
_cell_length_b     73.450677
_cell_length_c     30.797824
_cell_angle_alpha  86.66043
_cell_angle_beta   93.039453
_cell_angle_gamma 77.756286
loop_
_atom_site_label
_atom_site_type_symbol
_atom_site_fract_x
_atom_site_fract_y
_atom_site_fract_z
_atom_type_partial_charge
Tb0 Tb 0.1103 0.45764 0.97383 0.0
Tb1 Tb 0.24535 0.46 0.98016 0.0
C2 C 0.97497 0.45692 0.97257 0.0
C3 C 0.9399 0.44349 0.95001 0.0
C4 C 0.89709 0.43302 0.97276 0.0
C5 C 0.87287 0.41844 0.95334 0.0
C6 C 0.89235 0.41374 0.91103 0.0
C7 C 0.93471 0.42443 0.88826 0.0
C8 C 0.95724 0.43927 0.90727 0.0
C9 C 0.16494 0.45261 0.89486 0.0
C10 C 0.13751 0.50259 0.97831 0.0
C11 C 0.38048 0.45421 0.96622 0.0
C12 C 0.42119 0.4388 0.94249 0.0
C13 C 0.39205 0.4347 0.90187 0.0
C14 C 0.42812 0.41935 0.88077 0.0
C15 C 0.49316 0.40761 0.90029 0.0
C16 C 0.52075 0.41136 0.94158 0.0
C17 C 0.48518 0.42684 0.96242 0.0
C18 C 0.1955 0.46274 0.06051 0.0
C19 C 0.21919 0.41511 0.97852 0.0
O20 O 1.00125 0.46856 0.94749 0.0
O21 O 1.02198 0.44971 0.00543 0.0
O22 O 0.1747 0.46503 0.92039 0.0
O23 O 0.12689 0.44241 0.91484 0.0
O24 O 0.08962 0.49071 0.98097 0.0
O25 O 0.20807 0.49279 0.97565 0.0
O26 O 0.3298 0.46666 0.94317 0.0
O27 O 0.35656 0.44908 0.00307 0.0
O28 O 0.18164 0.45151 0.03281 0.0
O29 O 0.23739 0.47278 0.04283 0.0
O30 O 0.26659 0.42696 0.97527 0.0
O31 O 0.14875 0.42489 0.98109 0.0
H32 H 0.88332 0.43595 0.00577 0.0
H33 H 0.83812 0.411 0.97152 0.0
H34 H 0.95125 0.42131 0.85584 0.0
H35 H 0.98966 0.44718 0.88861 0.0
H36 H 0.34142 0.44335 0.88628 0.0
H37 H 0.4061 0.41686 0.84886 0.0
H38 H 0.5719 0.40279 0.95696 0.0
H39 H 0.50771 0.4295 -0.00593 0.0
Tb40 Tb 0.86535 0.70796 0.97876 0.0
Tb41 Tb 0.99993 0.71066 -0.0144 0.0
C42 C 0.73152 0.71311 -0.0048 0.0
C43 C 0.69352 0.72719 0.02339 0.0
C44 C 0.72165 0.72796 0.06657 0.0
C45 C 0.68833 0.74206 0.09221 0.0
C46 C 0.62688 0.75578 0.07503 0.0
C47 C 0.60051 0.75535 0.03142 0.0
C48 C 0.63341 0.74117 0.00591 0.0
C49 C 0.91448 0.7057 0.89834 0.0
C50 C 0.89037 0.75304 0.97995 0.0
C51 C 0.13534 0.71145 -0.01006 0.0
C52 C 0.1695 0.72453 0.01433 0.0
C53 C 0.2177 0.73426 -0.0057 0.0
C54 C 0.24371 0.7481 0.01586 0.0
C55 C 0.2208 0.75276 0.05761 0.0
C56 C 0.17237 0.74293 0.07746 0.0
C57 C 0.14784 0.72885 0.05634 0.0
C58 C 0.9417 0.71553 0.06349 0.0
C59 C 0.97405 0.66558 0.97983 0.0
O60 O 0.78281 0.69966 0.01466 0.0
O61 O 0.75328 0.7198 0.95919 0.0
O62 O 0.92921 0.71668 0.92636 0.0
O63 O 0.87175 0.69576 0.91548 0.0
O64 O 0.84332 0.74108 0.98353 0.0
O65 O 0.96095 0.74336 0.97745 0.0
O66 O 0.10773 0.69961 0.0136 0.0
O67 O 0.08996 0.71898 0.95662 0.0
O68 O 0.93603 0.70278 0.03827 0.0
O69 O 0.97725 0.72639 0.04372 0.0
O70 O 1.02156 0.67759 0.97755 0.0
O71 O 0.90332 0.67524 0.98231 0.0
H72 H 0.76918 0.71764 0.08078 0.0
H73 H 0.70935 0.74197 0.12577 0.0
H74 H 0.552 0.76547 0.01757 0.0
H75 H 0.61167 0.74107 0.97256 0.0
H76 H 0.23485 0.73125 0.9619 0.0
H77 H 0.28288 0.75489 -8e-05 0.0
H78 H 0.15306 0.74609 0.10932 0.0
H79 H 0.11114 0.7215 0.07296 0.0
Tb80 Tb 0.91457 0.73986 0.47543 0.0
Tb81 Tb 0.95035 0.70531 0.4842 0.0
C82 C 0.91236 0.77375 0.48581 0.0
C83 C 0.97026 0.78481 0.48242 0.0
C84 C 0.98496 0.79535 0.51706 0.0
C85 C 0.04496 0.80424 0.51683 0.0
C86 C 0.09136 0.80288 0.48172 0.0
C87 C 0.07527 0.79265 0.44654 0.0
C88 C 1.01568 0.78362 0.44699 0.0
C89 C 0.91161 0.72716 0.39553 0.0
C90 C 0.10653 0.72221 0.47736 0.0
C91 C 0.95862 0.6707 0.48348 0.0
C92 C 0.92414 0.65851 0.51116 0.0
C93 C 0.95196 0.63922 0.51339 0.0
C94 C 0.92798 0.62773 0.54461 0.0
C95 C 0.87568 0.63537 0.57388 0.0
C96 C 0.84567 0.6546 0.57071 0.0
C97 C 0.87052 0.66617 0.53978 0.0
C98 C 0.94837 0.71788 0.56431 0.0
C99 C 0.7575 0.72338 0.47968 0.0
O100 O 0.92498 0.76074 0.51763 0.0
O101 O 0.88816 0.76782 0.44986 0.0
O102 O 0.96255 0.72146 0.42585 0.0
O103 O 0.86081 0.73981 0.41033 0.0
O104 O 0.04866 0.73731 0.47947 0.0
O105 O 0.07721 0.70673 0.47521 0.0
O106 O 0.91392 0.68297 0.45662 0.0
O107 O 1.00684 0.67808 0.50449 0.0
O108 O 0.89898 0.72309 0.5331 0.0
O109 O 1.00197 0.70621 0.54962 0.0
O110 O 0.81572 0.70812 0.47965 0.0
O111 O 0.78638 0.73898 0.48004 0.0
H112 H 0.95125 0.79625 0.54497 0.0
H113 H 0.05617 0.81172 0.54483 0.0
H114 H 0.1089 0.79153 0.41863 0.0
H115 H 1.00619 0.77541 0.41999 0.0
H116 H 0.9941 0.63314 0.49206 0.0
H117 H 0.95123 0.61283 0.54645 0.0
H118 H 0.80538 0.66069 0.59306 0.0
H119 H 0.84998 0.68111 0.53936 0.0
Tb120 Tb 0.16381 0.46405 0.47829 0.0
Tb121 Tb 0.20032 0.42872 0.48159 0.0
C122 C 0.14585 0.49669 0.50195 0.0
C123 C 0.08934 0.50645 0.52947 0.0
C124 C 1.01551 0.50413 0.52538 0.0
C125 C 0.9634 0.51236 0.55361 0.0
C126 C 0.98388 0.5232 0.58632 0.0
C127 C 0.0584 0.52509 0.59103 0.0
C128 C 0.11064 0.51673 0.56293 0.0
C129 C 0.16417 0.45416 0.39605 0.0
C130 C 0.35652 0.4459 0.47873 0.0
C131 C 0.20278 0.39519 0.46735 0.0
C132 C 0.1456 0.38393 0.47145 0.0
C133 C 0.12834 0.37385 0.4365 0.0
C134 C 0.06867 0.36484 0.43771 0.0
C135 C 1.02516 0.36565 0.47409 0.0
C136 C 0.04385 0.37543 0.50953 0.0
C137 C 0.10307 0.38457 0.50812 0.0
C138 C 0.19847 0.44023 0.56269 0.0
C139 C 1.00796 0.44644 0.48024 0.0
O140 O 0.12208 0.49277 0.4636 0.0
O141 O 0.19289 0.48254 0.52212 0.0
O142 O 0.21341 0.44746 0.42683 0.0
O143 O 0.11327 0.46649 0.41167 0.0
O144 O 0.29845 0.46119 0.47985 0.0
O145 O 0.32791 0.43026 0.47738 0.0
O146 O 0.18679 0.40889 0.4371 0.0
O147 O 0.23052 0.40031 0.50337 0.0
O148 O 0.14888 0.44557 0.53166 0.0
O149 O 0.25243 0.42843 0.54793 0.0
O150 O 0.06601 0.43134 0.47802 0.0
O151 O 1.03669 0.46198 0.4828 0.0
H152 H 0.99765 0.49609 0.50017 0.0
H153 H 0.90661 0.5106 0.54918 0.0
H154 H 0.07583 0.53368 0.61524 0.0
H155 H 0.16759 0.51841 0.56711 0.0
H156 H 0.15973 0.3734 0.40765 0.0
H157 H 0.0554 0.35772 0.40952 0.0
H158 H 1.01254 0.37613 0.53838 0.0
H159 H 0.11451 0.39244 0.53539 0.0
Tb160 Tb 0.61241 0.95737 0.97791 0.0
Tb161 Tb 0.74851 0.9599 0.98366 0.0
C162 C 0.4788 0.96179 -0.00459 0.0
C163 C 0.43709 0.97572 0.02269 0.0
C164 C 0.41288 0.96967 0.0623 0.0
C165 C 0.38033 0.98259 0.09085 0.0
C166 C 0.37151 1.00192 0.08059 0.0
C167 C 0.39701 1.00793 0.04117 0.0
C168 C 0.4287 0.99499 0.01233 0.0
C169 C 0.66104 0.95278 0.89797 0.0
C170 C 0.63866 1.00248 0.97894 0.0
C171 C 0.88463 0.9603 -0.01324 0.0
C172 C 0.9214 0.9719 0.0142 0.0
C173 C 0.99343 0.96487 0.03303 0.0
C174 C 1.0237 0.97466 0.06442 0.0
C175 C 0.98182 0.99151 0.07817 0.0
C176 C 0.90988 0.99851 0.05887 0.0
C177 C 0.88039 0.98889 0.02709 0.0
C178 C 0.69413 0.96251 0.06343 0.0
C179 C 0.72266 0.9151 0.97907 0.0
O180 O 0.53243 0.94951 0.0166 0.0
O181 O 0.49944 0.96802 0.95849 0.0
O182 O 0.67725 0.96453 0.92394 0.0
O183 O 0.61635 0.94391 0.91672 0.0
O184 O 0.59158 0.99054 0.98275 0.0
O185 O 0.70865 0.99266 0.97557 0.0
O186 O 0.8575 0.94792 0.00876 0.0
O187 O 0.83727 0.96913 0.95552 0.0
O188 O 0.68566 0.95098 0.03565 0.0
O189 O 0.7315 0.97348 0.04553 0.0
O190 O 0.77005 0.92704 0.97533 0.0
O191 O 0.65205 0.92468 0.98267 0.0
H192 H 0.41928 0.9549 0.07125 0.0
H193 H 0.35939 0.97735 0.12019 0.0
H194 H 0.39105 1.02267 0.03212 0.0
H195 H 0.44678 1.00015 0.98203 0.0
H196 H 1.02572 0.95168 0.02405 0.0
H197 H 0.08026 0.96907 0.07758 0.0
H198 H 0.87577 1.01132 0.06862 0.0
H199 H 0.82461 0.99462 0.01352 0.0
Tb200 Tb 0.36513 0.20786 0.97723 0.0
Tb201 Tb 0.4984 0.21093 -0.01565 0.0
C202 C 0.23023 0.21316 -0.00881 0.0
C203 C 0.1899 0.22834 0.01577 0.0
C204 C 0.21658 0.23118 0.05806 0.0
C205 C 0.18178 0.24645 0.07986 0.0
C206 C 0.12036 0.25933 0.05959 0.0
C207 C 0.09521 0.25678 0.01685 0.0
C208 C 0.12954 0.24141 -0.00478 0.0
C209 C 0.4163 0.20554 0.89722 0.0
C210 C 0.38838 0.25314 0.97864 0.0
C211 C 0.63326 0.2123 -0.01268 0.0
C212 C 0.66636 0.22642 0.0084 0.0
C213 C 0.71417 0.23551 -0.01395 0.0
C214 C 0.73894 0.25033 0.00407 0.0
C215 C 0.71511 0.25662 0.04451 0.0
C216 C 0.66708 0.24743 0.06672 0.0
C217 C 0.64383 0.23238 0.04916 0.0
C218 C 0.44005 0.21579 0.06226 0.0
C219 C 0.47412 0.16558 0.97948 0.0
O220 O 0.28116 0.20056 0.01363 0.0
O221 O 0.25367 0.21855 0.9544 0.0
O222 O 0.42781 0.21698 0.92488 0.0
O223 O 0.37705 0.1948 0.91489 0.0
O224 O 0.34179 0.24105 0.98185 0.0
O225 O 0.45912 0.24358 0.97644 0.0
O226 O 0.60636 0.20117 0.01344 0.0
O227 O 0.58772 0.21859 0.95325 0.0
O228 O 0.43488 0.20293 0.03721 0.0
O229 O 0.47491 0.22675 0.04224 0.0
O230 O 0.52124 0.17771 0.97725 0.0
O231 O 0.40322 0.17516 0.9816 0.0
H232 H 0.26435 0.2216 0.07448 0.0
H233 H 0.20183 0.248 0.11286 0.0
H234 H 0.04673 0.26623 0.00078 0.0
H235 H 0.10895 0.23974 0.96241 0.0
H236 H 0.73196 0.23124 0.95452 0.0
H237 H 0.77787 0.25659 -0.01351 0.0
H238 H 0.64712 0.25182 0.09768 0.0
H239 H 0.60747 0.22557 0.06754 0.0
Tb240 Tb 0.4098 0.24005 0.47563 0.0
Tb241 Tb 0.44387 0.20468 0.47979 0.0
C242 C 0.40826 0.27378 0.48841 0.0
C243 C 0.46438 0.28514 0.48222 0.0
C244 C 0.46597 0.30023 0.50784 0.0
C245 C 0.52386 0.30984 0.50531 0.0
C246 C 0.58157 0.30427 0.47758 0.0
C247 C 0.57874 0.28944 0.4512 0.0
C248 C 0.52039 0.28006 0.45324 0.0
C249 C 0.40869 0.22864 0.39439 0.0
C250 C 0.60151 0.22152 0.47702 0.0
C251 C 0.44315 0.17135 0.46584 0.0
C252 C 0.38745 0.16025 0.47458 0.0
C253 C 0.38467 0.1448 0.4507 0.0
C254 C 0.33205 0.13411 0.45893 0.0
C255 C 0.28035 0.13884 0.49089 0.0
C256 C 0.2817 0.15484 0.51356 0.0
C257 C 0.33524 0.16534 0.50577 0.0
C258 C 0.44594 0.21497 0.56157 0.0
C259 C 0.252 0.22342 0.47859 0.0
O260 O 0.42675 0.26015 0.51872 0.0
O261 O 0.37935 0.26837 0.45316 0.0
O262 O 0.45838 0.22259 0.42512 0.0
O263 O 0.35768 0.24115 0.40944 0.0
O264 O 0.54416 0.23672 0.47953 0.0
O265 O 0.57194 0.20604 0.47428 0.0
O266 O 0.42157 0.18524 0.43642 0.0
O267 O 0.47719 0.17622 0.50004 0.0
O268 O 0.39615 0.22181 0.53104 0.0
O269 O 0.49637 0.20272 0.5454 0.0
O270 O 0.30935 0.20817 0.47656 0.0
O271 O 0.28158 0.2389 0.4808 0.0
H272 H 0.42346 0.3043 0.53053 0.0
H273 H 0.52492 0.32119 0.52612 0.0
H274 H 0.622 0.28502 0.42916 0.0
H275 H 0.51994 0.26857 0.43281 0.0
H276 H 0.42426 0.14076 0.42635 0.0
H277 H 0.33448 0.12164 0.4415 0.0
H278 H 0.24268 0.15901 0.5381 0.0
H279 H 0.33655 0.17726 0.52464 0.0
Tb280 Tb 0.66629 0.96377 0.47891 0.0
Tb281 Tb 0.70343 0.92863 0.48599 0.0
C282 C 0.63899 0.99767 0.49283 0.0
C283 C 0.56877 1.00878 0.50709 0.0
C284 C 0.54859 1.00665 0.55029 0.0
C285 C 0.47842 1.01561 0.56213 0.0
C286 C 0.42691 1.02669 0.53094 0.0
C287 C 0.44717 1.02884 0.4879 0.0
C288 C 0.51743 1.02009 0.47618 0.0
C289 C 0.66563 0.95186 0.3985 0.0
C290 C 0.85916 0.94592 0.48167 0.0
C291 C 0.70882 0.89445 0.47679 0.0
C292 C 0.65329 0.88293 0.48302 0.0
C293 C 0.65369 0.86749 0.45827 0.0
C294 C 0.59594 0.85782 0.46029 0.0
C295 C 0.53642 0.86369 0.48659 0.0
C296 C 0.53736 0.87883 0.51226 0.0
C297 C 0.59555 0.88828 0.51075 0.0
C298 C 0.70163 0.94148 0.56582 0.0
C299 C 0.5105 0.94649 0.4826 0.0
O300 O 0.63474 0.99169 0.45393 0.0
O301 O 0.67699 0.98468 0.52098 0.0
O302 O 0.71622 0.94624 0.42913 0.0
O303 O 0.6123 0.96354 0.41393 0.0
O304 O 0.80087 0.96117 0.4825 0.0
O305 O 0.83072 0.93024 0.48071 0.0
O306 O 0.69146 0.90743 0.44496 0.0
O307 O 0.73459 0.90076 0.51179 0.0
O308 O 0.65186 0.94637 0.53471 0.0
O309 O 0.75575 0.92955 0.55165 0.0
O310 O 0.56886 0.93135 0.48166 0.0
O311 O 0.53899 0.9621 0.48372 0.0
H312 H 0.58655 0.9979 0.57492 0.0
H313 H 0.46446 1.01396 0.59565 0.0
H314 H 0.40939 1.03778 0.46347 0.0
H315 H 0.53124 1.02198 0.44268 0.0
H316 H 0.69756 0.86322 0.43652 0.0
H317 H 0.59633 0.84623 0.44005 0.0
H318 H 0.49262 0.88349 0.5332 0.0
H319 H 0.59441 0.90005 0.5305 0.0
H320 H 0.55962 0.371 0.9251 0.0
H321 H 0.53329 0.4126 0.81754 0.0
H322 H 0.67882 0.35563 0.90032 0.0
H323 H 0.65233 0.3982 0.79407 0.0
H324 H 0.85347 0.41163 0.82366 0.0
H325 H 0.77243 0.39296 0.79449 0.0
H326 H 0.78161 0.36359 0.92138 0.0
H327 H 0.86893 0.3808 0.94876 0.0
C328 C 0.57858 0.37655 0.89543 0.0
C329 C 0.54044 0.39375 0.87511 0.0
C330 C 0.64762 0.36793 0.88139 0.0
C331 C 0.68107 0.37734 0.8494 0.0
C332 C 0.63302 0.39139 0.82183 0.0
C333 C 0.56336 0.39978 0.83512 0.0
C334 C 0.84035 0.40075 0.84509 0.0
C335 C 0.86279 0.39883 0.8898 0.0
C336 C 0.79229 0.3901 0.82837 0.0
C337 C 0.76149 0.37843 0.85673 0.0
C338 C 0.79781 0.37353 0.89868 0.0
C339 C 0.84771 0.38371 0.91503 0.0
H340 H 0.25402 0.75287 0.14625 0.0
H341 H 0.2573 0.78492 0.02453 0.0
H342 H 0.34033 0.76913 0.18024 0.0
H343 H 0.34942 0.7996 0.05673 0.0
H344 H 0.56744 0.79355 0.06223 0.0
H345 H 0.44746 0.80796 0.08801 0.0
H346 H 0.46173 0.7596 0.17779 0.0
H347 H 0.58137 0.74609 0.15386 0.0
C348 C 0.27201 0.76361 0.12668 0.0
C349 C 0.25315 0.76653 0.08155 0.0
C350 C 0.32271 0.77285 0.14623 0.0
C351 C 0.3591 0.78415 0.12039 0.0
C352 C 0.32744 0.79008 0.07778 0.0
C353 C 0.27503 0.78132 0.05861 0.0
C354 C 0.54594 0.7865 0.08895 0.0
C355 C 0.58066 0.76814 0.10389 0.0
C356 C 0.47669 0.79464 0.10354 0.0
C357 C 0.44 0.78384 0.1306 0.0
C358 C 0.48442 0.76791 0.15412 0.0
C359 C 0.55426 0.75997 0.14039 0.0
H360 H 0.66357 0.69343 0.47854 0.0
H361 H 0.61229 0.75274 0.47999 0.0
H362 H 0.52951 0.69329 0.47793 0.0
H363 H 0.47833 0.7526 0.47948 0.0
H364 H 0.20023 0.7522 0.47959 0.0
H365 H 0.3342 0.75243 0.48002 0.0
H366 H 0.3856 0.69319 0.47612 0.0
H367 H 0.25173 0.69298 0.47558 0.0
C368 C 0.62615 0.70694 0.47875 0.0
C369 C 0.6618 0.72311 0.47934 0.0
C370 C 0.54347 0.70686 0.47838 0.0
C371 C 0.47989 0.72292 0.47859 0.0
C372 C 0.51564 0.73908 0.47923 0.0
C373 C 0.59827 0.73917 0.47955 0.0
C374 C 0.23768 0.73873 0.47876 0.0
C375 C 0.20214 0.72254 0.47747 0.0
C376 C 0.32032 0.73886 0.47904 0.0
C377 C 0.38393 0.72283 0.47819 0.0
C378 C 0.34825 0.70668 0.47692 0.0
C379 C 0.26568 0.70655 0.47656 0.0
H380 H 0.86352 0.47565 0.48373 0.0
H381 H 0.91353 0.41658 0.47644 0.0
H382 H 0.72952 0.4756 0.48333 0.0
H383 H 0.77941 0.41652 0.47614 0.0
H384 H 0.50105 0.41655 0.47599 0.0
H385 H 0.63512 0.41653 0.47632 0.0
H386 H 0.58554 0.47566 0.48228 0.0
H387 H 0.45137 0.47567 0.48192 0.0
C388 C 0.84917 0.46216 0.48197 0.0
C389 C 0.91234 0.44615 0.48008 0.0
C390 C 0.76654 0.46212 0.48173 0.0
C391 C 0.73042 0.44607 0.47963 0.0
C392 C 0.79366 0.43002 0.47782 0.0
C393 C 0.87638 0.43005 0.478 0.0
C394 C 0.51545 0.43005 0.47739 0.0
C395 C 0.45228 0.44611 0.47885 0.0
C396 C 0.59815 0.43004 0.4776 0.0
C397 C 0.63437 0.44609 0.47936 0.0
C398 C 0.57118 0.46216 0.48084 0.0
C399 C 0.48842 0.46218 0.4806 0.0
H400 H 0.07612 0.97814 0.15017 0.0
H401 H 0.96183 1.02976 0.07999 0.0
H402 H 0.16421 0.99404 0.1829 0.0
H403 H 0.04638 1.04616 0.11582 0.0
H404 H 0.36349 1.00118 0.17018 0.0
H405 H 0.24686 1.01187 0.20393 0.0
H406 H 0.15619 1.0444 0.08446 0.0
H407 H 0.27023 1.03383 0.05139 0.0
C408 C 0.06853 0.99305 0.14268 0.0
C409 C 1.0158 1.00234 0.10982 0.0
C410 C 0.1184 1.00242 0.16233 0.0
C411 C 0.11671 1.02123 0.14895 0.0
C412 C 0.05267 1.03138 0.12446 0.0
C413 C 1.00373 1.02192 0.10389 0.0
C414 C 0.31923 1.01118 0.15177 0.0
C415 C 0.32355 1.01534 0.10693 0.0
C416 C 0.25237 1.01742 0.17121 0.0
C417 C 0.18923 1.0271 0.14519 0.0
C418 C 0.20145 1.03571 0.10489 0.0
C419 C 0.26795 1.02955 0.08544 0.0
H420 H 0.0613 0.29658 0.03712 0.0
H421 H 0.07265 0.25355 0.14012 0.0
H422 H 0.94104 0.31261 0.05961 0.0
H423 H 0.95273 0.26859 0.16107 0.0
H424 H 0.74628 0.26043 0.132 0.0
H425 H 0.83142 0.27812 0.16138 0.0
H426 H 0.84194 0.30365 0.03224 0.0
H427 H 0.75078 0.28764 0.00431 0.0
C428 C 0.03907 0.29088 0.06548 0.0
C429 C 0.07323 0.27317 0.08492 0.0
C430 C 0.96963 0.29993 0.07823 0.0
C431 C 0.93211 0.29058 0.1081 0.0
C432 C 0.97594 0.27566 0.13524 0.0
C433 C 0.04595 0.26684 0.12328 0.0
C434 C 0.76433 0.27039 0.11008 0.0
C435 C 0.74627 0.27147 0.06489 0.0
C436 C 0.81444 0.28045 0.12698 0.0
C437 C 0.85118 0.29067 0.09859 0.0
C438 C 0.81995 0.29494 0.05534 0.0
C439 C 0.76806 0.28539 0.03872 0.0
H440 H 0.10654 0.25258 0.48189 0.0
H441 H 0.15841 0.19351 0.4749 0.0
H442 H 0.97274 0.25224 0.48155 0.0
H443 H 1.02458 0.19316 0.47453 0.0
H444 H 0.74702 0.19245 0.47319 0.0
H445 H 0.88075 0.19284 0.47357 0.0
H446 H 0.82876 0.25186 0.48165 0.0
H447 H 0.69499 0.25146 0.48134 0.0
C448 C 0.0927 0.23903 0.48023 0.0
C449 C 0.15633 0.22311 0.47845 0.0
C450 C 1.01017 0.23882 0.48001 0.0
C451 C 0.97464 0.22265 0.47796 0.0
C452 C 0.03833 0.20672 0.47619 0.0
C453 C 0.12089 0.20693 0.47642 0.0
C454 C 0.7608 0.206 0.4751 0.0
C455 C 0.69714 0.22188 0.47719 0.0
C456 C 0.8433 0.20624 0.47535 0.0
C457 C 0.87878 0.22241 0.47768 0.0
C458 C 0.81506 0.2383 0.47974 0.0
C459 C 0.73252 0.23806 0.47953 0.0
H460 H 1.00381 0.91654 0.48002 0.0
H461 H 0.9538 0.97577 0.48357 0.0
H462 H 0.13785 0.91653 0.48023 0.0
H463 H 0.08795 0.97577 0.48378 0.0
H464 H 0.36586 0.97579 0.48439 0.0
H465 H 0.23189 0.97574 0.48416 0.0
H466 H 0.28215 0.9165 0.48036 0.0
H467 H 0.41626 0.91656 0.48056 0.0
C468 C 1.01813 0.93007 0.48086 0.0
C469 C 0.95488 0.94615 0.48174 0.0
C470 C 0.10081 0.93006 0.48099 0.0
C471 C 0.13694 0.94614 0.48204 0.0
C472 C 0.07368 0.96224 0.48292 0.0
C473 C 0.99093 0.96225 0.48279 0.0
C474 C 0.35161 0.96226 0.48346 0.0
C475 C 0.41489 0.9462 0.48249 0.0
C476 C 0.26899 0.96223 0.48332 0.0
C477 C 0.23298 0.94612 0.4822 0.0
C478 C 0.29632 0.93004 0.48126 0.0
C479 C 0.37903 0.93007 0.48139 0.0
H480 H 0.89034 0.63475 0.98401 0.0
H481 H 0.11843 0.6374 0.97471 0.0
H482 H 0.92444 0.60042 0.98375 0.0
H483 H 0.15271 0.60302 0.97444 0.0
H484 H 0.22157 0.5334 0.97382 0.0
H485 H 0.18757 0.56774 0.97405 0.0
H486 H 0.95934 0.56519 0.98375 0.0
H487 H 0.99351 0.53082 0.98353 0.0
C488 C 0.94877 0.62862 0.98181 0.0
C489 C 0.99884 0.6416 0.97935 0.0
C490 C 0.96958 0.60769 0.98168 0.0
C491 C 0.04413 0.59612 0.97906 0.0
C492 C 0.09427 0.60912 0.97658 0.0
C493 C 0.07343 0.63007 0.97673 0.0
C494 C 0.16318 0.53955 0.97609 0.0
C495 C 0.11305 0.52658 0.97867 0.0
C496 C 0.14243 0.56048 0.97622 0.0
C497 C 0.06792 0.57207 0.97893 0.0
C498 C 1.01775 0.55908 0.98152 0.0
C499 C 0.03853 0.53813 0.9814 0.0
H500 H 0.98996 0.53095 0.67279 0.0
H501 H 0.84674 0.54249 0.55439 0.0
H502 H 0.92052 0.55934 0.70118 0.0
H503 H 0.77932 0.57056 0.58166 0.0
H504 H 0.7409 0.6262 0.58251 0.0
H505 H 0.72531 0.59657 0.617 0.0
H506 H 0.95165 0.58658 0.67371 0.0
H507 H 0.96499 0.61612 0.64065 0.0
C508 C 0.94213 0.5392 0.65345 0.0
C509 C 0.92637 0.53508 0.61042 0.0
C510 C 0.90202 0.55543 0.66977 0.0
C511 C 0.84767 0.568 0.64258 0.0
C512 C 0.8222 0.5617 0.60341 0.0
C513 C 0.86159 0.54544 0.58734 0.0
C514 C 0.7855 0.61801 0.60436 0.0
C515 C 0.85509 0.62284 0.60778 0.0
C516 C 0.77688 0.60101 0.62402 0.0
C517 C 0.83874 0.58853 0.64573 0.0
C518 C 0.903 0.59537 0.65628 0.0
C519 C 0.91131 0.61234 0.63697 0.0
H520 H 0.72256 1.03333 0.97396 0.0
H521 H 0.49463 1.03073 -0.01593 0.0
H522 H 0.68845 1.06768 0.97399 0.0
H523 H 0.46036 1.06508 -0.01581 0.0
H524 H 0.39087 0.13467 0.98378 0.0
H525 H 0.42521 0.10034 0.98371 0.0
H526 H 0.6534 0.10303 0.9745 0.0
H527 H 0.61888 0.13741 0.97462 0.0
C528 C 0.66416 1.03947 0.97623 0.0
C529 C 0.6141 1.02649 0.97897 0.0
C530 C 0.64334 1.06041 0.97628 0.0
C531 C 0.56883 1.072 0.97907 0.0
C532 C 0.51876 1.05899 0.98185 0.0
C533 C 0.53961 1.03804 0.98182 0.0
C534 C 0.44934 0.12856 0.98166 0.0
C535 C 0.49927 0.14159 0.97918 0.0
C536 C 0.4703 0.10763 0.98163 0.0
C537 C 0.54491 0.09607 0.9791 0.0
C538 C 0.59493 0.1091 0.9766 0.0
C539 C 0.57393 0.13007 0.97665 0.0
H540 H 0.24068 0.13031 0.57355 0.0
H541 H 0.21232 0.117 0.43979 0.0
H542 H 0.21465 0.10065 0.5982 0.0
H543 H 0.19468 1.08666 0.46421 0.0
H544 H 0.28651 1.03116 0.4915 0.0
H545 H 0.18642 1.05857 0.49539 0.0
H546 H 0.3124 1.07598 0.60214 0.0
H547 H 0.40859 1.04848 0.59923 0.0
C548 C 0.22675 0.12136 0.54917 0.0
C549 C 0.23425 0.12542 0.50462 0.0
C550 C 0.21258 0.10412 0.56344 0.0
C551 C 0.21 0.09042 0.5336 0.0
C552 C 0.20032 0.09627 0.48883 0.0
C553 C 0.21187 0.11372 0.47452 0.0
C554 C 0.29071 1.04056 0.5169 0.0
C555 C 0.35653 1.03826 0.54376 0.0
C556 C 0.23357 1.05634 0.51908 0.0
C557 C 0.24322 1.07035 0.54685 0.0
C558 C 0.30276 1.06601 0.5792 0.0
C559 C 0.35899 1.05011 0.57755 0.0
H560 H 0.3631 0.38756 0.97155 0.0
H561 H 0.1365 0.38425 -0.01479 0.0
H562 H 0.39873 0.35321 0.97163 0.0
H563 H 0.17195 0.34991 -0.01469 0.0
H564 H 0.24384 0.28063 -0.01452 0.0
H565 H 0.208 0.31499 -0.01459 0.0
H566 H 0.43475 0.31837 0.97199 0.0
H567 H 0.47039 0.28405 0.9721 0.0
C568 C 0.31884 0.38005 0.97473 0.0
C569 C 0.24425 0.39127 0.9785 0.0
C570 C 0.34043 0.35916 0.97476 0.0
C571 C 0.291 0.34608 0.97855 0.0
C572 C 0.21639 0.35736 0.98223 0.0
C573 C 0.19481 0.37823 0.98219 0.0
C574 C 0.28804 0.28817 0.98235 0.0
C575 C 0.36272 0.27697 0.97865 0.0
C576 C 0.26632 0.30905 0.98234 0.0
C577 C 0.31569 0.32216 0.97862 0.0
C578 C 0.39035 0.31091 0.97501 0.0
C579 C 0.41205 0.29005 0.97505 0.0
H580 H 0.63999 0.88427 -0.01405 0.0
H581 H 0.86663 0.88744 0.97208 0.0
H582 H 0.67513 0.84993 -0.01381 0.0
H583 H 0.90197 0.85308 0.97231 0.0
H584 H 0.97295 0.78387 0.97301 0.0
H585 H 0.93769 0.81821 0.97271 0.0
H586 H 0.71085 0.81502 -0.01348 0.0
H587 H 0.74631 0.78065 -0.0132 0.0
C588 C 0.69824 0.87823 0.98282 0.0
C589 C 0.74774 0.89125 0.97892 0.0
C590 C 0.71964 0.85735 0.98298 0.0
C591 C 0.79416 0.84602 0.9793 0.0
C592 C 0.84369 0.85908 0.97539 0.0
C593 C 0.82227 0.87997 0.97523 0.0
C594 C 0.91467 0.78991 0.97603 0.0
C595 C 0.86517 0.77688 0.97983 0.0
C596 C 0.89319 0.81079 0.97586 0.0
C597 C 0.81864 0.8221 0.97951 0.0
C598 C 0.76913 0.80903 0.98341 0.0
C599 C 0.79062 0.78814 0.98356 0.0
H600 H 0.10312 0.83641 0.51323 0.0
H601 H 0.22904 0.78947 0.45174 0.0
H602 H 0.21116 0.85043 0.51621 0.0
H603 H 0.33529 0.80421 0.45151 0.0
H604 H 0.53787 0.82637 0.49577 0.0
H605 H 0.43104 0.81156 0.49556 0.0
H606 H 0.28282 0.86593 0.47336 0.0
H607 H 0.3896 0.88058 0.4756 0.0
C608 C 0.15374 0.82908 0.50021 0.0
C609 C 0.15701 0.81178 0.48223 0.0
C610 C 0.21561 0.83728 0.50129 0.0
C611 C 0.28226 0.82856 0.48388 0.0
C612 C 0.28544 0.81128 0.46574 0.0
C613 C 0.22384 0.80295 0.46518 0.0
C614 C 0.4823 0.83508 0.49088 0.0
C615 C 0.47188 0.85459 0.48598 0.0
C616 C 0.42098 0.82662 0.4905 0.0
C617 C 0.34787 0.8375 0.48449 0.0
C618 C 0.33792 0.85706 0.47906 0.0
C619 C 0.39913 0.8655 0.48012 0.0
H620 H 0.89036 0.37846 0.50812 0.0
H621 H 1.01099 0.33254 0.44116 0.0
H622 H 0.78473 0.36355 0.51044 0.0
H623 H 0.90329 0.31836 0.44039 0.0
H624 H 0.72879 0.28747 0.48432 0.0
H625 H 0.83531 0.30223 0.4845 0.0
H626 H 0.68588 0.35658 0.46842 0.0
H627 H 0.57952 0.34165 0.47022 0.0
C628 C 0.89454 0.36516 0.49392 0.0
C629 C 0.95975 0.35667 0.47473 0.0
C630 C 0.83323 0.35674 0.49458 0.0
C631 C 0.835 0.33969 0.47558 0.0
C632 C 0.89999 0.33131 0.45602 0.0
C633 C 0.96161 0.33961 0.45584 0.0
C634 C 0.71892 0.30257 0.48072 0.0
C635 C 0.64599 0.31343 0.47716 0.0
C636 C 0.77998 0.31107 0.48059 0.0
C637 C 0.76964 0.33066 0.47626 0.0
C638 C 0.69633 0.34149 0.47258 0.0
C639 C 0.63524 0.33297 0.47337 0.0
H640 H 0.10135 0.44545 0.10849 0.0
H641 H 0.28079 0.47419 0.12536 0.0
H642 H 0.0952 0.44216 0.18823 0.0
H643 H 0.27623 0.47044 0.2046 0.0
H644 H 0.29177 0.44498 0.3493 0.0
H645 H 0.30002 0.44623 0.26956 0.0
H646 H 0.06078 0.46226 0.25175 0.0
H647 H 0.0529 0.46153 0.33093 0.0
C648 C 0.13986 0.45098 0.12903 0.0
C649 C 0.19147 0.46014 0.10974 0.0
C650 C 0.13628 0.44914 0.17505 0.0
C651 C 0.18546 0.45594 0.20375 0.0
C652 C 0.23777 0.4648 0.18428 0.0
C653 C 0.24008 0.46705 0.13842 0.0
C654 C 0.24088 0.44862 0.32844 0.0
C655 C 0.17159 0.4531 0.3472 0.0
C656 C 0.24554 0.44947 0.28242 0.0
C657 C 0.18104 0.45436 0.25333 0.0
C658 C 0.11188 0.4583 0.27236 0.0
C659 C 0.10738 0.45791 0.31815 0.0
H660 H 0.94041 0.68628 0.12626 0.0
H661 H 0.92273 0.74575 0.11175 0.0
H662 H 0.93509 0.68799 0.20601 0.0
H663 H 0.91577 0.74756 0.19033 0.0
H664 H 0.82629 0.74776 0.32695 0.0
H665 H 0.83104 0.74399 0.24893 0.0
H666 H 1.01059 0.69567 0.27449 0.0
H667 H 1.00668 0.69972 0.35346 0.0
C668 C 0.9344 0.69974 0.13985 0.0
C669 C 0.93162 0.71589 0.11204 0.0
C670 C 0.93204 0.70073 0.1858 0.0
C671 C 0.92499 0.71795 0.20539 0.0
C672 C 0.92064 0.73404 0.17715 0.0
C673 C 0.92469 0.73299 0.13172 0.0
C674 C 0.86717 0.73631 0.31627 0.0
C675 C 0.91643 0.72416 0.34722 0.0
C676 C 0.86998 0.73416 0.27108 0.0
C677 C 0.9213 0.71953 0.25454 0.0
C678 C 0.96985 0.70707 0.28549 0.0
C679 C 0.96798 0.70946 0.33099 0.0
H680 H 0.83531 0.69292 0.83268 0.0
H681 H 1.00258 0.72526 0.85188 0.0
H682 H 0.83963 0.6976 0.75362 0.0
H683 H 1.0081 0.72968 0.77241 0.0
H684 H 0.05783 0.71343 0.62956 0.0
H685 H 0.04882 0.71168 0.70855 0.0
H686 H 0.80969 0.72144 0.68965 0.0
H687 H 0.819 0.72356 0.61001 0.0
C688 C 0.87326 0.70105 0.82015 0.0
C689 C 0.91866 0.70867 0.84935 0.0
C690 C 0.87535 0.70386 0.77443 0.0
C691 C 0.92406 0.7141 0.75575 0.0
C692 C 0.96996 0.72163 0.785 0.0
C693 C 0.96676 0.71913 0.83086 0.0
C694 C 1.00304 0.71549 0.6421 0.0
C695 C 0.9392 0.7188 0.61285 0.0
C696 C 0.99785 0.71451 0.68775 0.0
C697 C 0.92854 0.71636 0.70637 0.0
C698 C 0.86431 0.71981 0.67706 0.0
C699 C 0.86948 0.7212 0.63115 0.0
H700 H 0.31093 0.43601 0.62735 0.0
H701 H 0.07234 0.45316 0.60761 0.0
H702 H 0.30319 0.44093 0.70532 0.0
H703 H 0.06428 0.45739 0.68611 0.0
H704 H 0.08709 0.43612 0.83637 0.0
H705 H 0.09305 0.43509 0.75764 0.0
H706 H 0.26226 0.46754 0.76057 0.0
H707 H 0.25363 0.4694 0.8401 0.0
C708 C 0.2566 0.44087 0.63953 0.0
C709 C 0.1923 0.4441 0.61056 0.0
C710 C 0.25222 0.44378 0.68451 0.0
C711 C 0.18311 0.44958 0.7028 0.0
C712 C 0.11868 0.45288 0.67375 0.0
C713 C 0.12325 0.45047 0.62846 0.0
C714 C 0.12513 0.44333 0.82054 0.0
C715 C 0.16959 0.45295 0.8455 0.0
C716 C 0.1284 0.44272 0.77489 0.0
C717 C 0.17801 0.45122 0.75191 0.0
C718 C 0.22327 0.46076 0.77672 0.0
C719 C 0.21826 0.46187 0.82255 0.0
H720 H 0.77561 0.97503 0.12829 0.0
H721 H 0.60499 0.94355 0.11091 0.0
H722 H 0.77196 0.97077 0.20752 0.0
H723 H 0.59984 0.93966 0.19059 0.0
H724 H 0.55413 0.9573 0.3338 0.0
H725 H 0.56156 0.9586 0.25459 0.0
H726 H 0.80115 0.94665 0.2718 0.0
H727 H 0.79347 0.94489 0.35155 0.0
C728 C 0.73706 0.96718 0.14127 0.0
C729 C 0.69068 0.95963 0.11253 0.0
C730 C 0.73532 0.96462 0.18709 0.0
C731 C 0.68579 0.95478 0.20636 0.0
C732 C 0.63875 0.94737 0.17755 0.0
C733 C 0.64179 0.94955 0.13158 0.0
C734 C 0.60865 0.95467 0.32086 0.0
C735 C 0.67313 0.95087 0.34971 0.0
C736 C 0.61291 0.95539 0.27507 0.0
C737 C 0.68194 0.9528 0.2559 0.0
C738 C 0.74673 0.94886 0.28479 0.0
C739 C 0.74244 0.9477 0.3308 0.0
H740 H 0.43907 0.18675 0.12588 0.0
H741 H 0.42036 0.24623 0.10988 0.0
H742 H 0.43343 0.18883 0.20552 0.0
H743 H 0.41324 0.24839 0.18834 0.0
H744 H 0.3251 0.24941 0.32531 0.0
H745 H 0.33004 0.24538 0.24737 0.0
H746 H 0.50701 0.19654 0.27392 0.0
H747 H 0.50279 0.20084 0.35276 0.0
C748 C 0.43276 0.2003 0.1391 0.0
C749 C 0.42976 0.21633 0.11085 0.0
C750 C 0.43023 0.2015 0.18503 0.0
C751 C 0.42282 0.21883 0.20422 0.0
C752 C 0.41831 0.23479 0.17555 0.0
C753 C 0.42247 0.23354 0.13014 0.0
C754 C 0.36547 0.23779 0.31484 0.0
C755 C 0.41389 0.22558 0.34606 0.0
C756 C 0.36843 0.23548 0.26969 0.0
C757 C 0.41905 0.22062 0.2534 0.0
C758 C 0.46679 0.20812 0.28465 0.0
C759 C 0.46477 0.21066 0.3301 0.0
H760 H 0.43241 0.23667 0.84484 0.0
H761 H 0.41056 0.17971 0.83721 0.0
H762 H 0.43473 0.24001 0.76474 0.0
H763 H 0.41473 0.18284 0.75791 0.0
H764 H 0.51521 0.18816 0.62417 0.0
H765 H 0.50726 0.18674 0.70288 0.0
H766 H 0.35247 0.24001 0.69158 0.0
H767 H 0.35904 0.24123 0.61144 0.0
C768 C 0.42867 0.22479 0.82628 0.0
C769 C 0.42169 0.20785 0.84814 0.0
C770 C 0.42937 0.22676 0.78007 0.0
C771 C 0.42494 0.21172 0.75404 0.0
C772 C 0.41876 0.19478 0.7762 0.0
C773 C 0.41635 0.19296 0.82204 0.0
C774 C 0.47891 0.19963 0.63803 0.0
C775 C 0.43748 0.21478 0.61056 0.0
C776 C 0.47423 0.19876 0.68367 0.0
C777 C 0.42915 0.2132 0.70449 0.0
C778 C 0.38821 0.22858 0.67723 0.0
C779 C 0.39157 0.22926 0.63103 0.0
H780 H 0.57543 0.95609 0.6093 0.0
H781 H 0.81201 0.9352 0.63197 0.0
H782 H 0.56573 0.96013 0.68772 0.0
H783 H 0.80281 0.93963 0.70992 0.0
H784 H 0.76523 0.96489 0.84634 0.0
H785 H 0.77489 0.96343 0.76689 0.0
H786 H 0.57852 0.94037 0.75815 0.0
H787 H 0.57015 0.94137 0.83677 0.0
C788 C 0.62558 0.95249 0.63081 0.0
C789 C 0.6945 0.9452 0.6137 0.0
C790 C 0.62007 0.95475 0.67612 0.0
C791 C 0.68349 0.95024 0.70606 0.0
C792 C 0.75257 0.94345 0.68854 0.0
C793 C 0.7578 0.94081 0.6435 0.0
C794 C 0.72389 0.95961 0.82746 0.0
C795 C 0.6668 0.9533 0.84872 0.0
C796 C 0.72957 0.95867 0.78166 0.0
C797 C 0.67731 0.95182 0.75519 0.0
C798 C 0.61957 0.94593 0.77658 0.0
C799 C 0.61499 0.94645 0.82219 0.0
loop_
_geom_bond_atom_site_label_1
_geom_bond_atom_site_label_2
_geom_bond_distance
_geom_bond_site_symmetry_2
_ccdc_geom_bond_type
Tb0 C2 2.809 . S
Tb0 O20 2.484 . S
Tb0 O21 2.440 1_554 S
Tb0 O22 2.658 1_654 S
Tb0 O23 2.409 1_654 S
Tb0 O24 2.378 1_554 S
Tb0 O28 2.325 1_655 S
Tb0 O31 2.341 1_655 S
Tb1 C11 2.809 . S
Tb1 O22 2.325 1_554 S
Tb1 O25 2.341 . S
Tb1 O26 2.484 1_554 S
Tb1 O27 2.440 . S
Tb1 O28 2.658 . S
Tb1 O29 2.409 . S
Tb1 O30 2.378 . S
C2 Tb0 2.809 . S
C2 C3 1.514 . S
C2 O20 1.248 . S
C2 O21 1.266 1_554 S
C3 C2 1.514 . S
C3 C4 1.359 . S
C3 C8 1.348 1_554 S
C4 C3 1.359 . S
C4 C5 1.380 . S
C4 H32 0.929 . S
C5 C4 1.380 . S
C5 C6 1.347 . S
C5 H33 0.931 . S
C6 C5 1.347 . S
C6 C7 1.369 1_554 S
C7 C6 1.369 1_556 S
C7 C8 1.408 . S
C7 H34 0.930 . S
C8 C3 1.348 1_556 S
C8 C7 1.408 . S
C8 H35 0.930 . S
C9 O22 1.281 . S
C9 O23 1.254 . S
C10 O24 1.236 1_454 S
C10 O25 1.266 . S
C11 Tb1 2.809 . S
C11 C12 1.514 . S
C11 O26 1.248 1_554 S
C11 O27 1.266 . S
C12 C11 1.514 . S
C12 C13 1.359 1_554 S
C12 C17 1.348 . S
C13 C12 1.359 1_556 S
C13 C14 1.380 . S
C13 H36 0.929 . S
C14 C13 1.380 . S
C14 C15 1.347 1_556 S
C14 H37 0.931 . S
C15 C14 1.347 1_554 S
C15 C16 1.369 . S
C16 C15 1.369 . S
C16 C17 1.408 . S
C16 H38 0.930 . S
C17 C12 1.348 . S
C17 C16 1.408 . S
C17 H39 0.930 . S
C18 O28 1.281 . S
C18 O29 1.254 . S
C19 O30 1.236 . S
C19 O31 1.266 . S
O20 Tb0 2.484 . S
O20 C2 1.248 . S
O21 Tb0 2.440 1_556 S
O21 C2 1.266 1_556 S
O22 Tb0 2.658 1_456 S
O22 Tb1 2.325 1_556 S
O22 C9 1.281 . S
O23 Tb0 2.409 1_456 S
O23 C9 1.254 . S
O24 Tb0 2.378 1_556 S
O24 C10 1.236 1_656 S
O25 Tb1 2.341 . S
O25 C10 1.266 . S
O26 Tb1 2.484 1_556 S
O26 C11 1.248 1_556 S
O27 Tb1 2.440 . S
O27 C11 1.266 . S
O28 Tb0 2.325 1_455 S
O28 Tb1 2.658 . S
O28 C18 1.281 . S
O29 Tb1 2.409 . S
O29 C18 1.254 . S
O30 Tb1 2.378 . S
O30 C19 1.236 . S
O31 Tb0 2.341 1_455 S
O31 C19 1.266 . S
H32 C4 0.929 . S
H33 C5 0.931 . S
H34 C7 0.930 . S
H35 C8 0.930 . S
H36 C13 0.929 . S
H37 C14 0.931 . S
H38 C16 0.930 . S
H39 C17 0.930 . S
Tb40 C42 2.809 . S
Tb40 O60 2.484 . S
Tb40 O61 2.440 1_554 S
Tb40 O62 2.658 1_554 S
Tb40 O63 2.409 1_554 S
Tb40 O64 2.378 1_554 S
Tb40 O68 2.325 . S
Tb40 O71 2.341 . S
Tb41 C51 2.809 . S
Tb41 O62 2.325 1_454 S
Tb41 O65 2.341 1_455 S
Tb41 O66 2.484 1_554 S
Tb41 O67 2.440 . S
Tb41 O68 2.658 1_455 S
Tb41 O69 2.409 1_455 S
Tb41 O70 2.378 . S
C42 Tb40 2.809 . S
C42 C43 1.514 . S
C42 O60 1.248 . S
C42 O61 1.266 1_554 S
C43 C42 1.514 . S
C43 C44 1.359 . S
C43 C48 1.348 1_554 S
C44 C43 1.359 . S
C44 C45 1.380 . S
C44 H72 0.929 . S
C45 C44 1.380 . S
C45 C46 1.347 . S
C45 H73 0.931 . S
C46 C45 1.347 . S
C46 C47 1.369 1_554 S
C47 C46 1.369 1_556 S
C47 C48 1.408 . S
C47 H74 0.930 . S
C48 C43 1.348 1_556 S
C48 C47 1.408 . S
C48 H75 0.930 . S
C49 O62 1.281 . S
C49 O63 1.254 . S
C50 O64 1.229 1_554 S
C50 O65 1.269 . S
C51 Tb41 2.809 . S
C51 C52 1.514 . S
C51 O66 1.248 1_554 S
C51 O67 1.266 . S
C52 C51 1.514 . S
C52 C53 1.359 1_554 S
C52 C57 1.348 . S
C53 C52 1.359 1_556 S
C53 C54 1.380 . S
C53 H76 0.929 . S
C54 C53 1.380 . S
C54 C55 1.347 1_556 S
C54 H77 0.931 . S
C55 C54 1.347 1_554 S
C55 C56 1.369 . S
C56 C55 1.369 . S
C56 C57 1.408 . S
C56 H78 0.930 . S
C57 C52 1.348 . S
C57 C56 1.408 . S
C57 H79 0.930 . S
C58 O68 1.281 . S
C58 O69 1.254 . S
C59 O70 1.236 1_655 S
C59 O71 1.266 . S
O60 Tb40 2.484 . S
O60 C42 1.248 . S
O61 Tb40 2.440 1_556 S
O61 C42 1.266 1_556 S
O62 Tb40 2.658 1_556 S
O62 Tb41 2.325 1_656 S
O62 C49 1.281 . S
O63 Tb40 2.409 1_556 S
O63 C49 1.254 . S
O64 Tb40 2.378 1_556 S
O64 C50 1.229 1_556 S
O65 Tb41 2.341 1_655 S
O65 C50 1.269 . S
O66 Tb41 2.484 1_556 S
O66 C51 1.248 1_556 S
O67 Tb41 2.440 . S
O67 C51 1.266 . S
O68 Tb40 2.325 . S
O68 Tb41 2.658 1_655 S
O68 C58 1.281 . S
O69 Tb41 2.409 1_655 S
O69 C58 1.254 . S
O70 Tb41 2.378 . S
O70 C59 1.236 1_455 S
O71 Tb40 2.341 . S
O71 C59 1.266 . S
H72 C44 0.929 . S
H73 C45 0.931 . S
H74 C47 0.930 . S
H75 C48 0.930 . S
H76 C53 0.929 . S
H77 C54 0.931 . S
H78 C56 0.930 . S
H79 C57 0.930 . S
Tb80 C82 2.809 . S
Tb80 O100 2.484 . S
Tb80 O101 2.440 . S
Tb80 O102 2.658 . S
Tb80 O103 2.409 . S
Tb80 O104 2.378 . S
Tb80 O108 2.325 . S
Tb80 O111 2.341 1_455 S
Tb81 C91 2.809 . S
Tb81 O102 2.325 . S
Tb81 O105 2.341 . S
Tb81 O106 2.484 . S
Tb81 O107 2.440 . S
Tb81 O108 2.658 . S
Tb81 O109 2.409 . S
Tb81 O110 2.378 1_455 S
C82 Tb80 2.809 . S
C82 C83 1.514 . S
C82 O100 1.248 . S
C82 O101 1.266 . S
C83 C82 1.514 . S
C83 C84 1.359 . S
C83 C88 1.348 . S
C84 C83 1.359 . S
C84 C85 1.380 . S
C84 H112 0.929 . S
C85 C84 1.380 . S
C85 C86 1.347 . S
C85 H113 0.931 . S
C86 C85 1.347 . S
C86 C87 1.369 . S
C87 C86 1.369 . S
C87 C88 1.408 . S
C87 H114 0.930 . S
C88 C83 1.348 . S
C88 C87 1.408 . S
C88 H115 0.930 . S
C89 O102 1.281 . S
C89 O103 1.254 . S
C90 O104 1.236 . S
C90 O105 1.266 . S
C91 Tb81 2.809 . S
C91 C92 1.514 1_455 S
C91 O106 1.248 . S
C91 O107 1.266 . S
C92 C91 1.514 1_655 S
C92 C93 1.359 . S
C92 C97 1.348 . S
C93 C92 1.359 . S
C93 C94 1.380 . S
C93 H116 0.929 . S
C94 C93 1.380 . S
C94 C95 1.347 . S
C94 H117 0.931 . S
C95 C94 1.347 . S
C95 C96 1.369 . S
C96 C95 1.369 . S
C96 C97 1.408 . S
C96 H118 0.930 . S
C97 C92 1.348 . S
C97 C96 1.408 . S
C97 H119 0.930 . S
C98 O108 1.281 . S
C98 O109 1.254 . S
C99 O110 1.236 . S
C99 O111 1.266 . S
O100 Tb80 2.484 . S
O100 C82 1.248 . S
O101 Tb80 2.440 . S
O101 C82 1.266 . S
O102 Tb80 2.658 . S
O102 Tb81 2.325 . S
O102 C89 1.281 . S
O103 Tb80 2.409 . S
O103 C89 1.254 . S
O104 Tb80 2.378 . S
O104 C90 1.236 . S
O105 Tb81 2.341 . S
O105 C90 1.266 . S
O106 Tb81 2.484 . S
O106 C91 1.248 . S
O107 Tb81 2.440 . S
O107 C91 1.266 . S
O108 Tb80 2.325 . S
O108 Tb81 2.658 . S
O108 C98 1.281 . S
O109 Tb81 2.409 . S
O109 C98 1.254 . S
O110 Tb81 2.378 1_655 S
O110 C99 1.236 . S
O111 Tb80 2.341 1_655 S
O111 C99 1.266 . S
H112 C84 0.929 . S
H113 C85 0.931 . S
H114 C87 0.930 . S
H115 C88 0.930 . S
H116 C93 0.929 . S
H117 C94 0.931 . S
H118 C96 0.930 . S
H119 C97 0.930 . S
Tb120 C122 2.809 . S
Tb120 O140 2.484 . S
Tb120 O141 2.440 . S
Tb120 O142 2.658 . S
Tb120 O143 2.409 . S
Tb120 O144 2.378 1_655 S
Tb120 O148 2.325 . S
Tb120 O151 2.341 . S
Tb121 C131 2.809 . S
Tb121 O142 2.325 . S
Tb121 O145 2.341 1_655 S
Tb121 O146 2.484 . S
Tb121 O147 2.440 . S
Tb121 O148 2.658 . S
Tb121 O149 2.409 . S
Tb121 O150 2.378 . S
C122 Tb120 2.809 . S
C122 C123 1.514 1_655 S
C122 O140 1.248 . S
C122 O141 1.266 . S
C123 C122 1.514 1_455 S
C123 C124 1.359 . S
C123 C128 1.348 . S
C124 C123 1.359 . S
C124 C125 1.380 . S
C124 H152 0.929 . S
C125 C124 1.380 . S
C125 C126 1.347 . S
C125 H153 0.931 . S
C126 C125 1.347 . S
C126 C127 1.369 . S
C127 C126 1.369 . S
C127 C128 1.408 . S
C127 H154 0.930 . S
C128 C123 1.348 . S
C128 C127 1.408 . S
C128 H155 0.930 . S
C129 O142 1.281 . S
C129 O143 1.254 . S
C130 O144 1.236 . S
C130 O145 1.266 . S
C131 Tb121 2.809 . S
C131 C132 1.514 . S
C131 O146 1.248 . S
C131 O147 1.266 . S
C132 C131 1.514 . S
C132 C133 1.359 . S
C132 C137 1.348 . S
C133 C132 1.359 . S
C133 C134 1.380 . S
C133 H156 0.929 . S
C134 C133 1.380 . S
C134 C135 1.347 . S
C134 H157 0.931 . S
C135 C134 1.347 . S
C135 C136 1.369 . S
C136 C135 1.369 . S
C136 C137 1.408 . S
C136 H158 0.930 . S
C137 C132 1.348 . S
C137 C136 1.408 . S
C137 H159 0.930 . S
C138 O148 1.281 . S
C138 O149 1.254 . S
C139 O150 1.236 . S
C139 O151 1.266 . S
O140 Tb120 2.484 . S
O140 C122 1.248 . S
O141 Tb120 2.440 . S
O141 C122 1.266 . S
O142 Tb120 2.658 . S
O142 Tb121 2.325 . S
O142 C129 1.281 . S
O143 Tb120 2.409 . S
O143 C129 1.254 . S
O144 Tb120 2.378 1_455 S
O144 C130 1.236 . S
O145 Tb121 2.341 1_455 S
O145 C130 1.266 . S
O146 Tb121 2.484 . S
O146 C131 1.248 . S
O147 Tb121 2.440 . S
O147 C131 1.266 . S
O148 Tb120 2.325 . S
O148 Tb121 2.658 . S
O148 C138 1.281 . S
O149 Tb121 2.409 . S
O149 C138 1.254 . S
O150 Tb121 2.378 . S
O150 C139 1.236 . S
O151 Tb120 2.341 . S
O151 C139 1.266 . S
H152 C124 0.929 . S
H153 C125 0.931 . S
H154 C127 0.930 . S
H155 C128 0.930 . S
H156 C133 0.929 . S
H157 C134 0.931 . S
H158 C136 0.930 . S
H159 C137 0.930 . S
Tb160 C162 2.809 . S
Tb160 O180 2.484 . S
Tb160 O181 2.440 1_554 S
Tb160 O182 2.658 1_554 S
Tb160 O183 2.409 1_554 S
Tb160 O184 2.378 1_554 S
Tb160 O188 2.325 . S
Tb160 O191 2.341 . S
Tb161 C171 2.809 . S
Tb161 O182 2.325 1_554 S
Tb161 O185 2.341 . S
Tb161 O186 2.484 1_554 S
Tb161 O187 2.440 . S
Tb161 O188 2.658 . S
Tb161 O189 2.409 . S
Tb161 O190 2.378 . S
C162 Tb160 2.809 . S
C162 C163 1.514 . S
C162 O180 1.248 . S
C162 O181 1.266 1_554 S
C163 C162 1.514 . S
C163 C164 1.359 . S
C163 C168 1.348 1_554 S
C164 C163 1.359 . S
C164 C165 1.380 . S
C164 H192 0.929 . S
C165 C164 1.380 . S
C165 C166 1.347 . S
C165 H193 0.931 . S
C166 C165 1.347 . S
C166 C167 1.369 1_554 S
C167 C166 1.369 1_556 S
C167 C168 1.408 . S
C167 H194 0.930 . S
C168 C163 1.348 1_556 S
C168 C167 1.408 . S
C168 H195 0.930 . S
C169 O182 1.281 . S
C169 O183 1.254 . S
C170 O184 1.236 1_554 S
C170 O185 1.266 . S
C171 Tb161 2.809 . S
C171 C172 1.514 . S
C171 O186 1.248 1_554 S
C171 O187 1.266 . S
C172 C171 1.514 . S
C172 C173 1.359 1_554 S
C172 C177 1.348 . S
C173 C172 1.359 1_556 S
C173 C174 1.380 . S
C173 H196 0.929 . S
C174 C173 1.380 . S
C174 C175 1.347 1_556 S
C174 H197 0.931 . S
C175 C174 1.347 1_554 S
C175 C176 1.369 . S
C176 C175 1.369 . S
C176 C177 1.408 . S
C176 H198 0.930 . S
C177 C172 1.348 . S
C177 C176 1.408 . S
C177 H199 0.930 . S
C178 O188 1.281 . S
C178 O189 1.254 . S
C179 O190 1.236 . S
C179 O191 1.266 . S
O180 Tb160 2.484 . S
O180 C162 1.248 . S
O181 Tb160 2.440 1_556 S
O181 C162 1.266 1_556 S
O182 Tb160 2.658 1_556 S
O182 Tb161 2.325 1_556 S
O182 C169 1.281 . S
O183 Tb160 2.409 1_556 S
O183 C169 1.254 . S
O184 Tb160 2.378 1_556 S
O184 C170 1.236 1_556 S
O185 Tb161 2.341 . S
O185 C170 1.266 . S
O186 Tb161 2.484 1_556 S
O186 C171 1.248 1_556 S
O187 Tb161 2.440 . S
O187 C171 1.266 . S
O188 Tb160 2.325 . S
O188 Tb161 2.658 . S
O188 C178 1.281 . S
O189 Tb161 2.409 . S
O189 C178 1.254 . S
O190 Tb161 2.378 . S
O190 C179 1.236 . S
O191 Tb160 2.341 . S
O191 C179 1.266 . S
H192 C164 0.929 . S
H193 C165 0.931 . S
H194 C167 0.930 . S
H195 C168 0.930 . S
H196 C173 0.929 . S
H197 C174 0.931 . S
H198 C176 0.930 . S
H199 C177 0.930 . S
Tb200 C202 2.809 . S
Tb200 O220 2.484 . S
Tb200 O221 2.440 1_554 S
Tb200 O222 2.658 1_554 S
Tb200 O223 2.409 1_554 S
Tb200 O224 2.378 1_554 S
Tb200 O228 2.325 . S
Tb200 O231 2.341 . S
Tb201 C211 2.809 . S
Tb201 O222 2.325 1_554 S
Tb201 O225 2.341 . S
Tb201 O226 2.484 1_554 S
Tb201 O227 2.440 . S
Tb201 O228 2.658 . S
Tb201 O229 2.409 . S
Tb201 O230 2.378 . S
C202 Tb200 2.809 . S
C202 C203 1.514 . S
C202 O220 1.248 . S
C202 O221 1.266 1_554 S
C203 C202 1.514 . S
C203 C204 1.359 . S
C203 C208 1.348 1_554 S
C204 C203 1.359 . S
C204 C205 1.380 . S
C204 H232 0.929 . S
C205 C204 1.380 . S
C205 C206 1.347 . S
C205 H233 0.931 . S
C206 C205 1.347 . S
C206 C207 1.369 1_554 S
C207 C206 1.369 1_556 S
C207 C208 1.408 . S
C207 H234 0.930 . S
C208 C203 1.348 1_556 S
C208 C207 1.408 . S
C208 H235 0.930 . S
C209 O222 1.281 . S
C209 O223 1.254 . S
C210 O224 1.229 1_554 S
C210 O225 1.269 . S
C211 Tb201 2.809 . S
C211 C212 1.514 . S
C211 O226 1.248 1_554 S
C211 O227 1.266 . S
C212 C211 1.514 . S
C212 C213 1.359 1_554 S
C212 C217 1.348 . S
C213 C212 1.359 1_556 S
C213 C214 1.380 . S
C213 H236 0.929 . S
C214 C213 1.380 . S
C214 C215 1.347 1_556 S
C214 H237 0.931 . S
C215 C214 1.347 1_554 S
C215 C216 1.369 . S
C216 C215 1.369 . S
C216 C217 1.408 . S
C216 H238 0.930 . S
C217 C212 1.348 . S
C217 C216 1.408 . S
C217 H239 0.930 . S
C218 O228 1.281 . S
C218 O229 1.254 . S
C219 O230 1.236 . S
C219 O231 1.266 . S
O220 Tb200 2.484 . S
O220 C202 1.248 . S
O221 Tb200 2.440 1_556 S
O221 C202 1.266 1_556 S
O222 Tb200 2.658 1_556 S
O222 Tb201 2.325 1_556 S
O222 C209 1.281 . S
O223 Tb200 2.409 1_556 S
O223 C209 1.254 . S
O224 Tb200 2.378 1_556 S
O224 C210 1.229 1_556 S
O225 Tb201 2.341 . S
O225 C210 1.269 . S
O226 Tb201 2.484 1_556 S
O226 C211 1.248 1_556 S
O227 Tb201 2.440 . S
O227 C211 1.266 . S
O228 Tb200 2.325 . S
O228 Tb201 2.658 . S
O228 C218 1.281 . S
O229 Tb201 2.409 . S
O229 C218 1.254 . S
O230 Tb201 2.378 . S
O230 C219 1.236 . S
O231 Tb200 2.341 . S
O231 C219 1.266 . S
H232 C204 0.929 . S
H233 C205 0.931 . S
H234 C207 0.930 . S
H235 C208 0.930 . S
H236 C213 0.929 . S
H237 C214 0.931 . S
H238 C216 0.930 . S
H239 C217 0.930 . S
Tb240 C242 2.809 . S
Tb240 O260 2.484 . S
Tb240 O261 2.440 . S
Tb240 O262 2.658 . S
Tb240 O263 2.409 . S
Tb240 O264 2.378 . S
Tb240 O268 2.325 . S
Tb240 O271 2.341 . S
Tb241 C251 2.809 . S
Tb241 O262 2.325 . S
Tb241 O265 2.341 . S
Tb241 O266 2.484 . S
Tb241 O267 2.440 . S
Tb241 O268 2.658 . S
Tb241 O269 2.409 . S
Tb241 O270 2.378 . S
C242 Tb240 2.809 . S
C242 C243 1.514 . S
C242 O260 1.248 . S
C242 O261 1.266 . S
C243 C242 1.514 . S
C243 C244 1.359 . S
C243 C248 1.348 . S
C244 C243 1.359 . S
C244 C245 1.380 . S
C244 H272 0.929 . S
C245 C244 1.380 . S
C245 C246 1.347 . S
C245 H273 0.931 . S
C246 C245 1.347 . S
C246 C247 1.369 . S
C247 C246 1.369 . S
C247 C248 1.408 . S
C247 H274 0.930 . S
C248 C243 1.348 . S
C248 C247 1.408 . S
C248 H275 0.930 . S
C249 O262 1.281 . S
C249 O263 1.254 . S
C250 O264 1.236 . S
C250 O265 1.266 . S
C251 Tb241 2.809 . S
C251 C252 1.514 . S
C251 O266 1.248 . S
C251 O267 1.266 . S
C252 C251 1.514 . S
C252 C253 1.359 . S
C252 C257 1.348 . S
C253 C252 1.359 . S
C253 C254 1.380 . S
C253 H276 0.929 . S
C254 C253 1.380 . S
C254 C255 1.347 . S
C254 H277 0.931 . S
C255 C254 1.347 . S
C255 C256 1.369 . S
C256 C255 1.369 . S
C256 C257 1.408 . S
C256 H278 0.930 . S
C257 C252 1.348 . S
C257 C256 1.408 . S
C257 H279 0.930 . S
C258 O268 1.281 . S
C258 O269 1.254 . S
C259 O270 1.236 . S
C259 O271 1.266 . S
O260 Tb240 2.484 . S
O260 C242 1.248 . S
O261 Tb240 2.440 . S
O261 C242 1.266 . S
O262 Tb240 2.658 . S
O262 Tb241 2.325 . S
O262 C249 1.281 . S
O263 Tb240 2.409 . S
O263 C249 1.254 . S
O264 Tb240 2.378 . S
O264 C250 1.236 . S
O265 Tb241 2.341 . S
O265 C250 1.266 . S
O266 Tb241 2.484 . S
O266 C251 1.248 . S
O267 Tb241 2.440 . S
O267 C251 1.266 . S
O268 Tb240 2.325 . S
O268 Tb241 2.658 . S
O268 C258 1.281 . S
O269 Tb241 2.409 . S
O269 C258 1.254 . S
O270 Tb241 2.378 . S
O270 C259 1.236 . S
O271 Tb240 2.341 . S
O271 C259 1.266 . S
H272 C244 0.929 . S
H273 C245 0.931 . S
H274 C247 0.930 . S
H275 C248 0.930 . S
H276 C253 0.929 . S
H277 C254 0.931 . S
H278 C256 0.930 . S
H279 C257 0.930 . S
Tb280 C282 2.809 . S
Tb280 O300 2.484 . S
Tb280 O301 2.440 . S
Tb280 O302 2.658 . S
Tb280 O303 2.409 . S
Tb280 O304 2.378 . S
Tb280 O308 2.325 . S
Tb280 O311 2.341 . S
Tb281 C291 2.809 . S
Tb281 O302 2.325 . S
Tb281 O305 2.341 . S
Tb281 O306 2.484 . S
Tb281 O307 2.440 . S
Tb281 O308 2.658 . S
Tb281 O309 2.409 . S
Tb281 O310 2.378 . S
C282 Tb280 2.809 . S
C282 C283 1.514 . S
C282 O300 1.248 . S
C282 O301 1.266 . S
C283 C282 1.514 . S
C283 C284 1.359 . S
C283 C288 1.348 . S
C284 C283 1.359 . S
C284 C285 1.380 . S
C284 H312 0.929 . S
C285 C284 1.380 . S
C285 C286 1.347 . S
C285 H313 0.931 . S
C286 C285 1.347 . S
C286 C287 1.369 . S
C287 C286 1.369 . S
C287 C288 1.408 . S
C287 H314 0.930 . S
C288 C283 1.348 . S
C288 C287 1.408 . S
C288 H315 0.930 . S
C289 O302 1.281 . S
C289 O303 1.254 . S
C290 O304 1.236 . S
C290 O305 1.266 . S
C291 Tb281 2.809 . S
C291 C292 1.514 . S
C291 O306 1.248 . S
C291 O307 1.266 . S
C292 C291 1.514 . S
C292 C293 1.359 . S
C292 C297 1.348 . S
C293 C292 1.359 . S
C293 C294 1.380 . S
C293 H316 0.929 . S
C294 C293 1.380 . S
C294 C295 1.347 . S
C294 H317 0.931 . S
C295 C294 1.347 . S
C295 C296 1.369 . S
C296 C295 1.369 . S
C296 C297 1.408 . S
C296 H318 0.930 . S
C297 C292 1.348 . S
C297 C296 1.408 . S
C297 H319 0.930 . S
C298 O308 1.281 . S
C298 O309 1.254 . S
C299 O310 1.236 . S
C299 O311 1.266 . S
O300 Tb280 2.484 . S
O300 C282 1.248 . S
O301 Tb280 2.440 . S
O301 C282 1.266 . S
O302 Tb280 2.658 . S
O302 Tb281 2.325 . S
O302 C289 1.281 . S
O303 Tb280 2.409 . S
O303 C289 1.254 . S
O304 Tb280 2.378 . S
O304 C290 1.236 . S
O305 Tb281 2.341 . S
O305 C290 1.266 . S
O306 Tb281 2.484 . S
O306 C291 1.248 . S
O307 Tb281 2.440 . S
O307 C291 1.266 . S
O308 Tb280 2.325 . S
O308 Tb281 2.658 . S
O308 C298 1.281 . S
O309 Tb281 2.409 . S
O309 C298 1.254 . S
O310 Tb281 2.378 . S
O310 C299 1.236 . S
O311 Tb280 2.341 . S
O311 C299 1.266 . S
H312 C284 0.929 . S
H313 C285 0.931 . S
H314 C287 0.930 . S
H315 C288 0.930 . S
H316 C293 0.929 . S
H317 C294 0.931 . S
H318 C296 0.930 . S
H319 C297 0.930 . S
H320 C328 0.950 . S
H321 C333 0.950 . S
H322 C330 0.950 . S
H323 C332 0.950 . S
H324 C334 0.950 . S
H325 C336 0.950 . S
H326 C338 0.950 . S
H327 C339 0.950 . S
C328 H320 0.950 . S
C328 C329 1.386 . S
C328 C330 1.391 . S
C329 C328 1.386 . S
C329 C333 1.393 1_554 S
C330 H322 0.950 . S
C330 C328 1.391 . S
C330 C331 1.400 . S
C331 C330 1.400 . S
C331 C332 1.398 1_554 S
C331 C337 1.491 . S
C332 H323 0.950 . S
C332 C331 1.398 1_556 S
C332 C333 1.391 . S
C333 H321 0.950 . S
C333 C329 1.393 1_556 S
C333 C332 1.391 . S
C334 H324 0.950 . S
C334 C335 1.386 1_556 S
C334 C336 1.391 . S
C335 C334 1.386 1_554 S
C335 C339 1.393 . S
C336 H325 0.950 . S
C336 C334 1.391 . S
C336 C337 1.400 1_556 S
C337 C331 1.491 . S
C337 C336 1.400 1_554 S
C337 C338 1.398 . S
C338 H326 0.950 . S
C338 C337 1.398 . S
C338 C339 1.391 . S
C339 H327 0.950 . S
C339 C335 1.393 . S
C339 C338 1.391 . S
H340 C348 0.950 . S
H341 C353 0.950 . S
H342 C350 0.950 . S
H343 C352 0.950 . S
H344 C354 0.950 1_556 S
H345 C356 0.950 . S
H346 C358 0.950 . S
H347 C359 0.950 . S
C348 H340 0.950 . S
C348 C349 1.386 1_554 S
C348 C350 1.391 . S
C349 C348 1.386 1_556 S
C349 C353 1.393 . S
C350 H342 0.950 . S
C350 C348 1.391 . S
C350 C351 1.400 . S
C351 C350 1.400 . S
C351 C352 1.398 1_554 S
C351 C357 1.491 . S
C352 H343 0.950 . S
C352 C351 1.398 1_556 S
C352 C353 1.391 . S
C353 H341 0.950 . S
C353 C349 1.393 . S
C353 C352 1.391 . S
C354 H344 0.950 1_554 S
C354 C355 1.386 . S
C354 C356 1.391 1_554 S
C355 C354 1.386 . S
C355 C359 1.393 . S
C356 H345 0.950 . S
C356 C354 1.391 1_556 S
C356 C357 1.400 1_556 S
C357 C351 1.491 . S
C357 C356 1.400 1_554 S
C357 C358 1.398 . S
C358 H346 0.950 . S
C358 C357 1.398 . S
C358 C359 1.391 . S
C359 H347 0.950 . S
C359 C355 1.393 . S
C359 C358 1.391 . S
H360 C368 0.950 . S
H361 C373 0.950 . S
H362 C370 0.950 . S
H363 C372 0.950 . S
H364 C374 0.950 . S
H365 C376 0.950 . S
H366 C378 0.950 . S
H367 C379 0.950 . S
C368 H360 0.950 . S
C368 C369 1.386 . S
C368 C370 1.391 . S
C369 C368 1.386 . S
C369 C373 1.393 . S
C370 H362 0.950 . S
C370 C368 1.391 . S
C370 C371 1.400 . S
C371 C370 1.400 . S
C371 C372 1.398 . S
C371 C377 1.491 . S
C372 H363 0.950 . S
C372 C371 1.398 . S
C372 C373 1.391 . S
C373 H361 0.950 . S
C373 C369 1.393 . S
C373 C372 1.391 . S
C374 H364 0.950 . S
C374 C375 1.386 . S
C374 C376 1.391 . S
C375 C374 1.386 . S
C375 C379 1.393 . S
C376 H365 0.950 . S
C376 C374 1.391 . S
C376 C377 1.400 . S
C377 C371 1.491 . S
C377 C376 1.400 . S
C377 C378 1.398 . S
C378 H366 0.950 . S
C378 C377 1.398 . S
C378 C379 1.391 . S
C379 H367 0.950 . S
C379 C375 1.393 . S
C379 C378 1.391 . S
H380 C388 0.950 . S
H381 C393 0.950 . S
H382 C390 0.950 . S
H383 C392 0.950 . S
H384 C394 0.950 . S
H385 C396 0.950 . S
H386 C398 0.950 . S
H387 C399 0.950 . S
C388 H380 0.950 . S
C388 C389 1.386 . S
C388 C390 1.391 . S
C389 C388 1.386 . S
C389 C393 1.393 . S
C390 H382 0.950 . S
C390 C388 1.391 . S
C390 C391 1.400 . S
C391 C390 1.400 . S
C391 C392 1.398 . S
C391 C397 1.491 . S
C392 H383 0.950 . S
C392 C391 1.398 . S
C392 C393 1.391 . S
C393 H381 0.950 . S
C393 C389 1.393 . S
C393 C392 1.391 . S
C394 H384 0.950 . S
C394 C395 1.386 . S
C394 C396 1.391 . S
C395 C394 1.386 . S
C395 C399 1.393 . S
C396 H385 0.950 . S
C396 C394 1.391 . S
C396 C397 1.400 . S
C397 C391 1.491 . S
C397 C396 1.400 . S
C397 C398 1.398 . S
C398 H386 0.950 . S
C398 C397 1.398 . S
C398 C399 1.391 . S
C399 H387 0.950 . S
C399 C395 1.393 . S
C399 C398 1.391 . S
H400 C408 0.950 . S
H401 C413 0.950 . S
H402 C410 0.950 . S
H403 C412 0.953 . S
H404 C414 0.950 . S
H405 C416 0.950 . S
H406 C418 0.950 . S
H407 C419 0.950 . S
C408 H400 0.950 . S
C408 C409 1.386 1_456 S
C408 C410 1.391 . S
C409 C408 1.386 1_654 S
C409 C413 1.393 . S
C410 H402 0.950 . S
C410 C408 1.391 . S
C410 C411 1.400 1_556 S
C411 C410 1.400 1_554 S
C411 C412 1.387 1_455 S
C411 C417 1.491 . S
C412 H403 0.953 . S
C412 C411 1.387 1_655 S
C412 C413 1.400 . S
C413 H401 0.950 . S
C413 C409 1.393 . S
C413 C412 1.400 . S
C414 H404 0.950 . S
C414 C415 1.386 . S
C414 C416 1.391 . S
C415 C414 1.386 . S
C415 C419 1.393 1_554 S
C416 H405 0.950 . S
C416 C414 1.391 . S
C416 C417 1.400 . S
C417 C411 1.491 . S
C417 C416 1.400 . S
C417 C418 1.398 1_554 S
C418 H406 0.950 . S
C418 C417 1.398 1_556 S
C418 C419 1.391 . S
C419 H407 0.950 . S
C419 C415 1.393 1_556 S
C419 C418 1.391 . S
H420 C428 0.950 . S
H421 C433 0.950 . S
H422 C430 0.950 . S
H423 C432 0.950 . S
H424 C434 0.950 . S
H425 C436 0.950 . S
H426 C438 0.950 . S
H427 C439 0.950 . S
C428 H420 0.950 . S
C428 C429 1.386 1_656 S
C428 C430 1.391 . S
C429 C428 1.386 1_454 S
C429 C433 1.393 . S
C430 H422 0.950 . S
C430 C428 1.391 . S
C430 C431 1.400 1_556 S
C431 C430 1.400 1_554 S
C431 C432 1.398 1_655 S
C431 C437 1.491 . S
C432 H423 0.950 . S
C432 C431 1.398 1_455 S
C432 C433 1.391 . S
C433 H421 0.950 . S
C433 C429 1.393 . S
C433 C432 1.391 . S
C434 H424 0.950 . S
C434 C435 1.386 . S
C434 C436 1.391 . S
C435 C434 1.386 . S
C435 C439 1.393 1_554 S
C436 H425 0.950 . S
C436 C434 1.391 . S
C436 C437 1.400 . S
C437 C431 1.491 . S
C437 C436 1.400 . S
C437 C438 1.398 1_554 S
C438 H426 0.950 . S
C438 C437 1.398 1_556 S
C438 C439 1.391 . S
C439 H427 0.950 . S
C439 C435 1.393 1_556 S
C439 C438 1.391 . S
H440 C448 0.950 . S
H441 C453 0.950 . S
H442 C450 0.950 . S
H443 C452 0.950 . S
H444 C454 0.950 . S
H445 C456 0.950 1_455 S
H446 C458 0.950 . S
H447 C459 0.950 . S
C448 H440 0.950 . S
C448 C449 1.386 . S
C448 C450 1.391 . S
C449 C448 1.386 . S
C449 C453 1.393 . S
C450 H442 0.950 . S
C450 C448 1.391 . S
C450 C451 1.400 . S
C451 C450 1.400 . S
C451 C452 1.398 . S
C451 C457 1.491 . S
C452 H443 0.950 . S
C452 C451 1.398 . S
C452 C453 1.391 . S
C453 H441 0.950 . S
C453 C449 1.393 . S
C453 C452 1.391 . S
C454 H444 0.950 . S
C454 C455 1.386 . S
C454 C456 1.391 . S
C455 C454 1.386 . S
C455 C459 1.393 . S
C456 H445 0.950 1_655 S
C456 C454 1.391 . S
C456 C457 1.400 1_655 S
C457 C451 1.491 . S
C457 C456 1.400 1_455 S
C457 C458 1.398 1_455 S
C458 H446 0.950 . S
C458 C457 1.398 1_655 S
C458 C459 1.391 . S
C459 H447 0.950 . S
C459 C455 1.393 . S
C459 C458 1.391 . S
H460 C468 0.950 . S
H461 C473 0.950 . S
H462 C470 0.950 . S
H463 C472 0.950 . S
H464 C474 0.950 . S
H465 C476 0.950 1_655 S
H466 C478 0.950 . S
H467 C479 0.950 . S
C468 H460 0.950 . S
C468 C469 1.386 . S
C468 C470 1.391 . S
C469 C468 1.386 . S
C469 C473 1.393 . S
C470 H462 0.950 . S
C470 C468 1.391 . S
C470 C471 1.400 . S
C471 C470 1.400 . S
C471 C472 1.398 . S
C471 C477 1.491 . S
C472 H463 0.950 . S
C472 C471 1.398 . S
C472 C473 1.391 . S
C473 H461 0.950 . S
C473 C469 1.393 . S
C473 C472 1.391 . S
C474 H464 0.950 . S
C474 C475 1.386 . S
C474 C476 1.391 . S
C475 C474 1.386 . S
C475 C479 1.393 . S
C476 H465 0.950 1_455 S
C476 C474 1.391 . S
C476 C477 1.400 1_455 S
C477 C471 1.491 . S
C477 C476 1.400 1_655 S
C477 C478 1.398 1_655 S
C478 H466 0.950 . S
C478 C477 1.398 1_455 S
C478 C479 1.391 . S
C479 H467 0.950 . S
C479 C475 1.393 . S
C479 C478 1.391 . S
H480 C488 0.950 . S
H481 C493 0.950 . S
H482 C490 0.950 . S
H483 C492 0.950 . S
H484 C494 0.950 . S
H485 C496 0.950 . S
H486 C498 0.950 . S
H487 C499 0.950 . S
C488 H480 0.950 . S
C488 C489 1.386 1_655 S
C488 C490 1.391 . S
C489 C488 1.386 1_455 S
C489 C493 1.393 1_554 S
C490 H482 0.950 . S
C490 C488 1.391 . S
C490 C491 1.399 . S
C491 C490 1.399 . S
C491 C492 1.400 1_654 S
C491 C497 1.490 1_655 S
C492 H483 0.950 . S
C492 C491 1.400 1_456 S
C492 C493 1.391 . S
C493 H481 0.950 . S
C493 C489 1.393 1_556 S
C493 C492 1.391 . S
C494 H484 0.950 . S
C494 C495 1.386 1_456 S
C494 C496 1.391 . S
C495 C494 1.386 1_654 S
C495 C499 1.393 . S
C496 H485 0.950 . S
C496 C494 1.391 . S
C496 C497 1.400 1_556 S
C497 C491 1.490 1_455 S
C497 C496 1.400 1_554 S
C497 C498 1.399 1_455 S
C498 H486 0.950 . S
C498 C497 1.399 1_655 S
C498 C499 1.391 . S
C499 H487 0.950 . S
C499 C495 1.393 . S
C499 C498 1.391 . S
H500 C508 0.950 . S
H501 C513 0.950 . S
H502 C510 0.950 . S
H503 C512 0.950 1_655 S
H504 C514 0.950 . S
H505 C516 0.950 . S
H506 C518 0.950 1_455 S
H507 C519 0.950 . S
C508 H500 0.950 . S
C508 C509 1.386 . S
C508 C510 1.391 . S
C509 C508 1.386 . S
C509 C513 1.393 . S
C510 H502 0.950 . S
C510 C508 1.391 . S
C510 C511 1.400 . S
C511 C510 1.400 . S
C511 C512 1.398 . S
C511 C517 1.491 1_455 S
C512 H503 0.950 1_455 S
C512 C511 1.398 . S
C512 C513 1.391 . S
C513 H501 0.950 . S
C513 C509 1.393 . S
C513 C512 1.391 . S
C514 H504 0.950 . S
C514 C515 1.386 . S
C514 C516 1.391 . S
C515 C514 1.386 . S
C515 C519 1.393 . S
C516 H505 0.950 . S
C516 C514 1.391 . S
C516 C517 1.400 . S
C517 C511 1.491 1_655 S
C517 C516 1.400 . S
C517 C518 1.398 . S
C518 H506 0.950 1_655 S
C518 C517 1.398 . S
C518 C519 1.391 . S
C519 H507 0.950 . S
C519 C515 1.393 . S
C519 C518 1.391 . S
H520 C528 0.950 . S
H521 C533 0.950 . S
H522 C530 0.950 . S
H523 C532 0.950 . S
H524 C534 0.950 . S
H525 C536 0.950 . S
H526 C538 0.950 . S
H527 C539 0.956 . S
C528 H520 0.950 . S
C528 C529 1.386 1_556 S
C528 C530 1.391 . S
C529 C528 1.386 1_554 S
C529 C533 1.393 . S
C530 H522 0.950 . S
C530 C528 1.391 . S
C530 C531 1.400 1_556 S
C531 C530 1.400 1_554 S
C531 C532 1.398 . S
C531 C537 1.491 1_565 S
C532 H523 0.950 . S
C532 C531 1.398 . S
C532 C533 1.391 . S
C533 H521 0.950 . S
C533 C529 1.393 . S
C533 C532 1.391 . S
C534 H524 0.950 . S
C534 C535 1.386 . S
C534 C536 1.391 . S
C535 C534 1.386 . S
C535 C539 1.385 1_554 S
C536 H525 0.950 . S
C536 C534 1.391 . S
C536 C537 1.400 . S
C537 C531 1.491 1_545 S
C537 C536 1.400 . S
C537 C538 1.398 1_554 S
C538 H526 0.950 . S
C538 C537 1.398 1_556 S
C538 C539 1.392 . S
C539 H527 0.956 . S
C539 C535 1.385 1_556 S
C539 C538 1.392 . S
H540 C548 0.950 . S
H541 C553 0.950 . S
H542 C550 0.950 . S
H543 C552 0.950 1_565 S
H544 C554 0.950 . S
H545 C556 0.950 . S
H546 C558 0.950 1_545 S
H547 C559 0.950 . S
C548 H540 0.950 . S
C548 C549 1.386 . S
C548 C550 1.391 . S
C549 C548 1.386 . S
C549 C553 1.393 . S
C550 H542 0.950 . S
C550 C548 1.391 . S
C550 C551 1.400 . S
C551 C550 1.400 . S
C551 C552 1.398 . S
C551 C557 1.491 1_545 S
C552 H543 0.950 1_545 S
C552 C551 1.398 . S
C552 C553 1.391 . S
C553 H541 0.950 . S
C553 C549 1.393 . S
C553 C552 1.391 . S
C554 H544 0.950 . S
C554 C555 1.386 . S
C554 C556 1.391 . S
C555 C554 1.386 . S
C555 C559 1.393 . S
C556 H545 0.950 . S
C556 C554 1.391 . S
C556 C557 1.400 . S
C557 C551 1.491 1_565 S
C557 C556 1.400 . S
C557 C558 1.398 . S
C558 H546 0.950 1_565 S
C558 C557 1.398 . S
C558 C559 1.391 . S
C559 H547 0.950 . S
C559 C555 1.393 . S
C559 C558 1.391 . S
H560 C568 0.950 . S
H561 C573 0.950 . S
H562 C570 0.950 . S
H563 C572 0.950 . S
H564 C574 0.950 . S
H565 C576 0.950 . S
H566 C578 0.950 . S
H567 C579 0.950 . S
C568 H560 0.950 . S
C568 C569 1.386 1_556 S
C568 C570 1.391 . S
C569 C568 1.386 1_554 S
C569 C573 1.393 . S
C570 H562 0.950 . S
C570 C568 1.391 . S
C570 C571 1.400 1_556 S
C571 C570 1.400 1_554 S
C571 C572 1.398 . S
C571 C577 1.491 . S
C572 H563 0.950 . S
C572 C571 1.398 . S
C572 C573 1.391 . S
C573 H561 0.950 . S
C573 C569 1.393 . S
C573 C572 1.391 . S
C574 H564 0.950 . S
C574 C575 1.386 . S
C574 C576 1.391 . S
C575 C574 1.386 . S
C575 C579 1.393 1_554 S
C576 H565 0.950 . S
C576 C574 1.391 . S
C576 C577 1.400 . S
C577 C571 1.491 . S
C577 C576 1.400 . S
C577 C578 1.398 1_554 S
C578 H566 0.950 . S
C578 C577 1.398 1_556 S
C578 C579 1.391 . S
C579 H567 0.950 . S
C579 C575 1.393 1_556 S
C579 C578 1.391 . S
H580 C588 0.950 . S
H581 C593 0.950 . S
H582 C590 0.950 . S
H583 C592 0.950 . S
H584 C594 0.950 . S
H585 C596 0.950 . S
H586 C598 0.950 . S
H587 C599 0.950 . S
C588 H580 0.950 . S
C588 C589 1.386 1_556 S
C588 C590 1.391 . S
C589 C588 1.386 1_554 S
C589 C593 1.393 . S
C590 H582 0.950 . S
C590 C588 1.391 . S
C590 C591 1.400 1_556 S
C591 C590 1.400 1_554 S
C591 C592 1.398 . S
C591 C597 1.491 . S
C592 H583 0.950 . S
C592 C591 1.398 . S
C592 C593 1.391 . S
C593 H581 0.950 . S
C593 C589 1.393 . S
C593 C592 1.391 . S
C594 H584 0.950 . S
C594 C595 1.386 . S
C594 C596 1.391 . S
C595 C594 1.386 . S
C595 C599 1.393 1_554 S
C596 H585 0.950 . S
C596 C594 1.391 . S
C596 C597 1.400 . S
C597 C591 1.491 . S
C597 C596 1.400 . S
C597 C598 1.398 1_554 S
C598 H586 0.950 . S
C598 C597 1.398 1_556 S
C598 C599 1.391 . S
C599 H587 0.950 . S
C599 C595 1.393 1_556 S
C599 C598 1.391 . S
H600 C608 0.950 . S
H601 C613 0.950 . S
H602 C610 0.950 . S
H603 C612 0.950 . S
H604 C614 0.950 . S
H605 C616 0.950 . S
H606 C618 0.950 . S
H607 C619 0.950 . S
C608 H600 0.950 . S
C608 C609 1.386 . S
C608 C610 1.391 . S
C609 C608 1.386 . S
C609 C613 1.393 . S
C610 H602 0.950 . S
C610 C608 1.391 . S
C610 C611 1.400 . S
C611 C610 1.400 . S
C611 C612 1.398 . S
C611 C617 1.491 . S
C612 H603 0.950 . S
C612 C611 1.398 . S
C612 C613 1.391 . S
C613 H601 0.950 . S
C613 C609 1.393 . S
C613 C612 1.391 . S
C614 H604 0.950 . S
C614 C615 1.386 . S
C614 C616 1.391 . S
C615 C614 1.386 . S
C615 C619 1.393 . S
C616 H605 0.950 . S
C616 C614 1.391 . S
C616 C617 1.400 . S
C617 C611 1.491 . S
C617 C616 1.400 . S
C617 C618 1.398 . S
C618 H606 0.950 . S
C618 C617 1.398 . S
C618 C619 1.391 . S
C619 H607 0.950 . S
C619 C615 1.393 . S
C619 C618 1.391 . S
H620 C628 0.950 . S
H621 C633 0.950 . S
H622 C630 0.950 . S
H623 C632 0.950 . S
H624 C634 0.950 . S
H625 C636 0.950 . S
H626 C638 0.950 . S
H627 C639 0.950 . S
C628 H620 0.950 . S
C628 C629 1.386 . S
C628 C630 1.391 . S
C629 C628 1.386 . S
C629 C633 1.393 . S
C630 H622 0.950 . S
C630 C628 1.391 . S
C630 C631 1.400 . S
C631 C630 1.400 . S
C631 C632 1.398 . S
C631 C637 1.491 . S
C632 H623 0.950 . S
C632 C631 1.398 . S
C632 C633 1.391 . S
C633 H621 0.950 . S
C633 C629 1.393 . S
C633 C632 1.391 . S
C634 H624 0.950 . S
C634 C635 1.386 . S
C634 C636 1.391 . S
C635 C634 1.386 . S
C635 C639 1.393 . S
C636 H625 0.950 . S
C636 C634 1.391 . S
C636 C637 1.400 . S
C637 C631 1.491 . S
C637 C636 1.400 . S
C637 C638 1.398 . S
C638 H626 0.950 . S
C638 C637 1.398 . S
C638 C639 1.391 . S
C639 H627 0.950 . S
C639 C635 1.393 . S
C639 C638 1.391 . S
H640 C648 0.950 . S
H641 C653 0.950 . S
H642 C650 0.950 1_655 S
H643 C652 0.950 . S
H644 C654 0.950 1_455 S
H645 C656 0.950 . S
H646 C658 0.950 . S
H647 C659 0.950 . S
C648 H640 0.950 . S
C648 C649 1.386 . S
C648 C650 1.391 . S
C649 C648 1.386 . S
C649 C653 1.393 . S
C650 H642 0.950 1_455 S
C650 C648 1.391 . S
C650 C651 1.400 . S
C651 C650 1.400 . S
C651 C652 1.398 . S
C651 C657 1.491 . S
C652 H643 0.950 . S
C652 C651 1.398 . S
C652 C653 1.391 . S
C653 H641 0.950 . S
C653 C649 1.393 . S
C653 C652 1.391 . S
C654 H644 0.950 1_655 S
C654 C655 1.386 . S
C654 C656 1.391 1_655 S
C655 C654 1.386 . S
C655 C659 1.393 . S
C656 H645 0.950 . S
C656 C654 1.391 1_455 S
C656 C657 1.401 . S
C657 C651 1.491 . S
C657 C656 1.401 . S
C657 C658 1.397 1_455 S
C658 H646 0.950 . S
C658 C657 1.397 1_655 S
C658 C659 1.391 . S
C659 H647 0.950 . S
C659 C655 1.393 . S
C659 C658 1.391 . S
H660 C668 0.950 1_455 S
H661 C673 0.950 . S
H662 C670 0.950 . S
H663 C672 0.950 . S
H664 C674 0.950 . S
H665 C676 0.950 . S
H666 C678 0.950 . S
H667 C679 0.950 . S
C668 H660 0.950 1_655 S
C668 C669 1.386 . S
C668 C670 1.391 1_655 S
C669 C668 1.386 . S
C669 C673 1.393 . S
C670 H662 0.950 . S
C670 C668 1.391 1_455 S
C670 C671 1.400 1_455 S
C671 C670 1.400 1_655 S
C671 C672 1.398 . S
C671 C677 1.491 . S
C672 H663 0.950 . S
C672 C671 1.398 . S
C672 C673 1.391 . S
C673 H661 0.950 . S
C673 C669 1.393 . S
C673 C672 1.391 . S
C674 H664 0.950 . S
C674 C675 1.386 1_655 S
C674 C676 1.391 . S
C675 C674 1.386 1_455 S
C675 C679 1.393 . S
C676 H665 0.950 . S
C676 C674 1.391 . S
C676 C677 1.400 . S
C677 C671 1.491 . S
C677 C676 1.400 . S
C677 C678 1.398 1_655 S
C678 H666 0.950 . S
C678 C677 1.398 1_455 S
C678 C679 1.391 . S
C679 H667 0.950 . S
C679 C675 1.393 . S
C679 C678 1.391 . S
H680 C688 0.950 . S
H681 C693 0.950 1_455 S
H682 C690 0.950 . S
H683 C692 0.950 . S
H684 C694 0.950 . S
H685 C696 0.950 . S
H686 C698 0.950 . S
H687 C699 0.950 . S
C688 H680 0.950 . S
C688 C689 1.386 . S
C688 C690 1.391 . S
C689 C688 1.386 . S
C689 C693 1.393 . S
C690 H682 0.950 . S
C690 C688 1.391 . S
C690 C691 1.400 . S
C691 C690 1.400 . S
C691 C692 1.398 1_655 S
C691 C697 1.494 . S
C692 H683 0.950 . S
C692 C691 1.398 1_455 S
C692 C693 1.391 1_455 S
C693 H681 0.950 1_655 S
C693 C689 1.393 . S
C693 C692 1.391 1_655 S
C694 H684 0.950 . S
C694 C695 1.386 . S
C694 C696 1.391 . S
C695 C694 1.386 . S
C695 C699 1.393 1_455 S
C696 H685 0.950 . S
C696 C694 1.391 . S
C696 C697 1.393 1_455 S
C697 C691 1.494 . S
C697 C696 1.393 1_655 S
C697 C698 1.403 . S
C698 H686 0.950 . S
C698 C697 1.403 . S
C698 C699 1.391 . S
C699 H687 0.950 . S
C699 C695 1.393 1_655 S
C699 C698 1.391 . S
H700 C708 0.950 . S
H701 C713 0.950 . S
H702 C710 0.950 . S
H703 C712 0.950 . S
H704 C714 0.950 . S
H705 C716 0.950 1_655 S
H706 C718 0.950 . S
H707 C719 0.950 . S
C708 H700 0.950 . S
C708 C709 1.386 1_455 S
C708 C710 1.391 . S
C709 C708 1.386 1_655 S
C709 C713 1.393 . S
C710 H702 0.950 . S
C710 C708 1.391 . S
C710 C711 1.400 . S
C711 C710 1.400 . S
C711 C712 1.398 1_455 S
C711 C717 1.491 . S
C712 H703 0.950 . S
C712 C711 1.398 1_655 S
C712 C713 1.391 . S
C713 H701 0.950 . S
C713 C709 1.393 . S
C713 C712 1.391 . S
C714 H704 0.950 . S
C714 C715 1.386 . S
C714 C716 1.391 . S
C715 C714 1.386 . S
C715 C719 1.393 . S
C716 H705 0.950 1_455 S
C716 C714 1.391 . S
C716 C717 1.400 . S
C717 C711 1.491 . S
C717 C716 1.400 . S
C717 C718 1.398 . S
C718 H706 0.950 . S
C718 C717 1.398 . S
C718 C719 1.391 . S
C719 H707 0.950 . S
C719 C715 1.393 . S
C719 C718 1.391 . S
H720 C728 0.950 . S
H721 C733 0.950 . S
H722 C730 0.950 . S
H723 C732 0.950 . S
H724 C734 0.950 . S
H725 C736 0.950 . S
H726 C738 0.950 . S
H727 C739 0.950 . S
C728 H720 0.950 . S
C728 C729 1.386 . S
C728 C730 1.391 . S
C729 C728 1.386 . S
C729 C733 1.393 . S
C730 H722 0.950 . S
C730 C728 1.391 . S
C730 C731 1.400 . S
C731 C730 1.400 . S
C731 C732 1.398 . S
C731 C737 1.491 . S
C732 H723 0.950 . S
C732 C731 1.398 . S
C732 C733 1.391 . S
C733 H721 0.950 . S
C733 C729 1.393 . S
C733 C732 1.391 . S
C734 H724 0.950 . S
C734 C735 1.386 . S
C734 C736 1.391 . S
C735 C734 1.386 . S
C735 C739 1.393 . S
C736 H725 0.950 . S
C736 C734 1.391 . S
C736 C737 1.400 . S
C737 C731 1.491 . S
C737 C736 1.400 . S
C737 C738 1.398 . S
C738 H726 0.950 . S
C738 C737 1.398 . S
C738 C739 1.391 . S
C739 H727 0.950 . S
C739 C735 1.393 . S
C739 C738 1.391 . S
H740 C748 0.950 . S
H741 C753 0.950 . S
H742 C750 0.950 . S
H743 C752 0.950 . S
H744 C754 0.950 . S
H745 C756 0.950 . S
H746 C758 0.950 . S
H747 C759 0.950 . S
C748 H740 0.950 . S
C748 C749 1.386 . S
C748 C750 1.391 . S
C749 C748 1.386 . S
C749 C753 1.393 . S
C750 H742 0.950 . S
C750 C748 1.391 . S
C750 C751 1.400 . S
C751 C750 1.400 . S
C751 C752 1.398 . S
C751 C757 1.491 . S
C752 H743 0.950 . S
C752 C751 1.398 . S
C752 C753 1.391 . S
C753 H741 0.950 . S
C753 C749 1.393 . S
C753 C752 1.391 . S
C754 H744 0.950 . S
C754 C755 1.386 . S
C754 C756 1.391 . S
C755 C754 1.386 . S
C755 C759 1.393 . S
C756 H745 0.950 . S
C756 C754 1.391 . S
C756 C757 1.400 . S
C757 C751 1.491 . S
C757 C756 1.400 . S
C757 C758 1.398 . S
C758 H746 0.950 . S
C758 C757 1.398 . S
C758 C759 1.391 . S
C759 H747 0.950 . S
C759 C755 1.393 . S
C759 C758 1.391 . S
H760 C768 0.950 . S
H761 C773 0.950 . S
H762 C770 0.950 . S
H763 C772 0.950 . S
H764 C774 0.950 . S
H765 C776 0.950 . S
H766 C778 0.950 . S
H767 C779 0.950 . S
C768 H760 0.950 . S
C768 C769 1.386 . S
C768 C770 1.391 . S
C769 C768 1.386 . S
C769 C773 1.393 . S
C770 H762 0.950 . S
C770 C768 1.391 . S
C770 C771 1.400 . S
C771 C770 1.400 . S
C771 C772 1.398 . S
C771 C777 1.491 . S
C772 H763 0.950 . S
C772 C771 1.398 . S
C772 C773 1.391 . S
C773 H761 0.950 . S
C773 C769 1.393 . S
C773 C772 1.391 . S
C774 H764 0.950 . S
C774 C775 1.386 . S
C774 C776 1.391 . S
C775 C774 1.386 . S
C775 C779 1.393 . S
C776 H765 0.950 . S
C776 C774 1.391 . S
C776 C777 1.400 . S
C777 C771 1.491 . S
C777 C776 1.400 . S
C777 C778 1.398 . S
C778 H766 0.950 . S
C778 C777 1.398 . S
C778 C779 1.391 . S
C779 H767 0.950 . S
C779 C775 1.393 . S
C779 C778 1.391 . S
H780 C788 0.950 . S
H781 C793 0.950 . S
H782 C790 0.950 . S
H783 C792 0.950 . S
H784 C794 0.950 . S
H785 C796 0.950 . S
H786 C798 0.950 . S
H787 C799 0.950 . S
C788 H780 0.950 . S
C788 C789 1.386 . S
C788 C790 1.391 . S
C789 C788 1.386 . S
C789 C793 1.393 . S
C790 H782 0.950 . S
C790 C788 1.391 . S
C790 C791 1.400 . S
C791 C790 1.400 . S
C791 C792 1.398 . S
C791 C797 1.491 . S
C792 H783 0.950 . S
C792 C791 1.398 . S
C792 C793 1.391 . S
C793 H781 0.950 . S
C793 C789 1.393 . S
C793 C792 1.391 . S
C794 H784 0.950 . S
C794 C795 1.386 . S
C794 C796 1.391 . S
C795 C794 1.386 . S
C795 C799 1.393 . S
C796 H785 0.950 . S
C796 C794 1.391 . S
C796 C797 1.400 . S
C797 C791 1.491 . S
C797 C796 1.400 . S
C797 C798 1.398 . S
C798 H786 0.950 . S
C798 C797 1.398 . S
C798 C799 1.391 . S
C799 H787 0.950 . S
C799 C795 1.393 . S
C799 C798 1.391 . S
C329 C15 0.739 . S
C335 C6 0.739 . S
C349 C55 0.721 1_556 S
C355 C46 0.721 . S
C369 C99 5.050 . S
C375 C90 5.050 . S
C389 C139 5.053 . S
C395 C130 5.053 . S
C409 C175 0.667 . S
C415 C166 0.667 . S
C429 C206 0.666 . S
C435 C215 0.666 . S
C449 C259 5.053 . S
C455 C250 5.053 . S
C469 C290 5.048 . S
C475 C299 5.048 . S
C489 C59 4.822 1_455 S
C495 C10 4.822 1_655 S
C509 C126 0.722 . S
C515 C95 0.722 . S
C529 C170 4.824 . S
C535 C219 4.824 . S
C549 C255 0.773 . S
C555 C286 0.773 . S
C569 C19 4.322 . S
C575 C210 4.324 . S
C589 C179 4.324 . S
C595 C50 4.327 . S
C609 C86 0.401 . S
C615 C295 0.401 . S
C629 C135 0.410 . S
C635 C246 0.410 . S
C649 C18 1.693 . S
C655 C129 1.639 . S
C669 C58 1.470 . S
C675 C89 1.559 . S
C689 C49 1.697 . S
C695 C98 1.633 . S
C709 C138 1.565 . S
C715 C9 1.490 . S
C729 C178 1.695 . S
C735 C289 1.646 . S
C749 C218 1.464 . S
C755 C249 1.552 . S
C769 C209 1.695 . S
C775 C258 1.645 . S
C789 C298 1.538 . S
C795 C169 1.484 . S
