# Generated by pormake.
# Topology vcc, (6)-cn, num edge types: 1
# Building blocks:
#     Node 0, Type 0, BuildingBlock: MIFKUJ_clean_sbu_0, # of connection points: 6
#     Node 1, Type 0, BuildingBlock: MIFKUJ_clean_sbu_0, # of connection points: 6
#     Node 2, Type 0, BuildingBlock: MIFKUJ_clean_sbu_0, # of connection points: 6
#     Node 3, Type 0, BuildingBlock: MIFKUJ_clean_sbu_0, # of connection points: 6
#     Node 4, Type 0, BuildingBlock: MIFKUJ_clean_sbu_0, # of connection points: 6
#     Node 5, Type 0, BuildingBlock: MIFKUJ_clean_sbu_0, # of connection points: 6
#     Node 6, Type 0, BuildingBlock: MIFKUJ_clean_sbu_0, # of connection points: 6
#     Node 7, Type 0, BuildingBlock: MIFKUJ_clean_sbu_0, # of connection points: 6
#     Node 8, Type 0, BuildingBlock: MIFKUJ_clean_sbu_0, # of connection points: 6
#     Node 9, Type 0, BuildingBlock: MIFKUJ_clean_sbu_0, # of connection points: 6
#     Node 10, Type 0, BuildingBlock: MIFKUJ_clean_sbu_0, # of connection points: 6
#     Node 11, Type 0, BuildingBlock: MIFKUJ_clean_sbu_0, # of connection points: 6
#     Node 12, Type 0, BuildingBlock: MIFKUJ_clean_sbu_0, # of connection points: 6
#     Node 13, Type 0, BuildingBlock: MIFKUJ_clean_sbu_0, # of connection points: 6
#     Node 14, Type 0, BuildingBlock: MIFKUJ_clean_sbu_0, # of connection points: 6
#     Node 15, Type 0, BuildingBlock: MIFKUJ_clean_sbu_0, # of connection points: 6
#     Node 16, Type 0, BuildingBlock: MIFKUJ_clean_sbu_0, # of connection points: 6
#     Node 17, Type 0, BuildingBlock: MIFKUJ_clean_sbu_0, # of connection points: 6
#     Node 18, Type 0, BuildingBlock: MIFKUJ_clean_sbu_0, # of connection points: 6
#     Node 19, Type 0, BuildingBlock: MIFKUJ_clean_sbu_0, # of connection points: 6
#     Node 20, Type 0, BuildingBlock: MIFKUJ_clean_sbu_0, # of connection points: 6
#     Node 21, Type 0, BuildingBlock: MIFKUJ_clean_sbu_0, # of connection points: 6
#     Node 22, Type 0, BuildingBlock: MIFKUJ_clean_sbu_0, # of connection points: 6
#     Node 23, Type 0, BuildingBlock: MIFKUJ_clean_sbu_0, # of connection points: 6
#     Node 24, Type 0, BuildingBlock: MIFKUJ_clean_sbu_0, # of connection points: 6
#     Node 25, Type 0, BuildingBlock: MIFKUJ_clean_sbu_0, # of connection points: 6
#     Node 26, Type 0, BuildingBlock: MIFKUJ_clean_sbu_0, # of connection points: 6
#     Node 27, Type 0, BuildingBlock: MIFKUJ_clean_sbu_0, # of connection points: 6
#     Node 28, Type 0, BuildingBlock: MIFKUJ_clean_sbu_0, # of connection points: 6
#     Node 29, Type 0, BuildingBlock: MIFKUJ_clean_sbu_0, # of connection points: 6
#     Node 30, Type 0, BuildingBlock: MIFKUJ_clean_sbu_0, # of connection points: 6
#     Node 31, Type 0, BuildingBlock: MIFKUJ_clean_sbu_0, # of connection points: 6
#     Edge 32, Type (0, 0), BuildingBlock: CIFDUS_clean_linker_0, # of connection points: 2
#     Edge 33, Type (0, 0), BuildingBlock: CIFDUS_clean_linker_0, # of connection points: 2
#     Edge 34, Type (0, 0), BuildingBlock: CIFDUS_clean_linker_0, # of connection points: 2
#     Edge 35, Type (0, 0), BuildingBlock: CIFDUS_clean_linker_0, # of connection points: 2
#     Edge 36, Type (0, 0), BuildingBlock: CIFDUS_clean_linker_0, # of connection points: 2
#     Edge 37, Type (0, 0), BuildingBlock: CIFDUS_clean_linker_0, # of connection points: 2
#     Edge 38, Type (0, 0), BuildingBlock: CIFDUS_clean_linker_0, # of connection points: 2
#     Edge 39, Type (0, 0), BuildingBlock: CIFDUS_clean_linker_0, # of connection points: 2
#     Edge 40, Type (0, 0), BuildingBlock: CIFDUS_clean_linker_0, # of connection points: 2
#     Edge 41, Type (0, 0), BuildingBlock: CIFDUS_clean_linker_0, # of connection points: 2
#     Edge 42, Type (0, 0), BuildingBlock: CIFDUS_clean_linker_0, # of connection points: 2
#     Edge 43, Type (0, 0), BuildingBlock: CIFDUS_clean_linker_0, # of connection points: 2
#     Edge 44, Type (0, 0), BuildingBlock: CIFDUS_clean_linker_0, # of connection points: 2
#     Edge 45, Type (0, 0), BuildingBlock: CIFDUS_clean_linker_0, # of connection points: 2
#     Edge 46, Type (0, 0), BuildingBlock: CIFDUS_clean_linker_0, # of connection points: 2
#     Edge 47, Type (0, 0), BuildingBlock: CIFDUS_clean_linker_0, # of connection points: 2
#     Edge 48, Type (0, 0), BuildingBlock: CIFDUS_clean_linker_0, # of connection points: 2
#     Edge 49, Type (0, 0), BuildingBlock: CIFDUS_clean_linker_0, # of connection points: 2
#     Edge 50, Type (0, 0), BuildingBlock: CIFDUS_clean_linker_0, # of connection points: 2
#     Edge 51, Type (0, 0), BuildingBlock: CIFDUS_clean_linker_0, # of connection points: 2
#     Edge 52, Type (0, 0), BuildingBlock: CIFDUS_clean_linker_0, # of connection points: 2
#     Edge 53, Type (0, 0), BuildingBlock: CIFDUS_clean_linker_0, # of connection points: 2
#     Edge 54, Type (0, 0), BuildingBlock: CIFDUS_clean_linker_0, # of connection points: 2
#     Edge 55, Type (0, 0), BuildingBlock: CIFDUS_clean_linker_0, # of connection points: 2
#     Edge 56, Type (0, 0), BuildingBlock: CIFDUS_clean_linker_0, # of connection points: 2
#     Edge 57, Type (0, 0), BuildingBlock: CIFDUS_clean_linker_0, # of connection points: 2
#     Edge 58, Type (0, 0), BuildingBlock: CIFDUS_clean_linker_0, # of connection points: 2
#     Edge 59, Type (0, 0), BuildingBlock: CIFDUS_clean_linker_0, # of connection points: 2
#     Edge 60, Type (0, 0), BuildingBlock: CIFDUS_clean_linker_0, # of connection points: 2
#     Edge 61, Type (0, 0), BuildingBlock: CIFDUS_clean_linker_0, # of connection points: 2
#     Edge 62, Type (0, 0), BuildingBlock: CIFDUS_clean_linker_0, # of connection points: 2
#     Edge 63, Type (0, 0), BuildingBlock: CIFDUS_clean_linker_0, # of connection points: 2
#     Edge 64, Type (0, 0), BuildingBlock: CIFDUS_clean_linker_0, # of connection points: 2
#     Edge 65, Type (0, 0), BuildingBlock: CIFDUS_clean_linker_0, # of connection points: 2
#     Edge 66, Type (0, 0), BuildingBlock: CIFDUS_clean_linker_0, # of connection points: 2
#     Edge 67, Type (0, 0), BuildingBlock: CIFDUS_clean_linker_0, # of connection points: 2
#     Edge 68, Type (0, 0), BuildingBlock: CIFDUS_clean_linker_0, # of connection points: 2
#     Edge 69, Type (0, 0), BuildingBlock: CIFDUS_clean_linker_0, # of connection points: 2
#     Edge 70, Type (0, 0), BuildingBlock: CIFDUS_clean_linker_0, # of connection points: 2
#     Edge 71, Type (0, 0), BuildingBlock: CIFDUS_clean_linker_0, # of connection points: 2
#     Edge 72, Type (0, 0), BuildingBlock: CIFDUS_clean_linker_0, # of connection points: 2
#     Edge 73, Type (0, 0), BuildingBlock: CIFDUS_clean_linker_0, # of connection points: 2
#     Edge 74, Type (0, 0), BuildingBlock: CIFDUS_clean_linker_0, # of connection points: 2
#     Edge 75, Type (0, 0), BuildingBlock: CIFDUS_clean_linker_0, # of connection points: 2
#     Edge 76, Type (0, 0), BuildingBlock: CIFDUS_clean_linker_0, # of connection points: 2
#     Edge 77, Type (0, 0), BuildingBlock: CIFDUS_clean_linker_0, # of connection points: 2
#     Edge 78, Type (0, 0), BuildingBlock: CIFDUS_clean_linker_0, # of connection points: 2
#     Edge 79, Type (0, 0), BuildingBlock: CIFDUS_clean_linker_0, # of connection points: 2
#     Edge 80, Type (0, 0), BuildingBlock: CIFDUS_clean_linker_0, # of connection points: 2
#     Edge 81, Type (0, 0), BuildingBlock: CIFDUS_clean_linker_0, # of connection points: 2
#     Edge 82, Type (0, 0), BuildingBlock: CIFDUS_clean_linker_0, # of connection points: 2
#     Edge 83, Type (0, 0), BuildingBlock: CIFDUS_clean_linker_0, # of connection points: 2
#     Edge 84, Type (0, 0), BuildingBlock: CIFDUS_clean_linker_0, # of connection points: 2
#     Edge 85, Type (0, 0), BuildingBlock: CIFDUS_clean_linker_0, # of connection points: 2
#     Edge 86, Type (0, 0), BuildingBlock: CIFDUS_clean_linker_0, # of connection points: 2
#     Edge 87, Type (0, 0), BuildingBlock: CIFDUS_clean_linker_0, # of connection points: 2
#     Edge 88, Type (0, 0), BuildingBlock: CIFDUS_clean_linker_0, # of connection points: 2
#     Edge 89, Type (0, 0), BuildingBlock: CIFDUS_clean_linker_0, # of connection points: 2
#     Edge 90, Type (0, 0), BuildingBlock: CIFDUS_clean_linker_0, # of connection points: 2
#     Edge 91, Type (0, 0), BuildingBlock: CIFDUS_clean_linker_0, # of connection points: 2
#     Edge 92, Type (0, 0), BuildingBlock: CIFDUS_clean_linker_0, # of connection points: 2
#     Edge 93, Type (0, 0), BuildingBlock: CIFDUS_clean_linker_0, # of connection points: 2
#     Edge 94, Type (0, 0), BuildingBlock: CIFDUS_clean_linker_0, # of connection points: 2
#     Edge 95, Type (0, 0), BuildingBlock: CIFDUS_clean_linker_0, # of connection points: 2
#     Edge 96, Type (0, 0), BuildingBlock: CIFDUS_clean_linker_0, # of connection points: 2
#     Edge 97, Type (0, 0), BuildingBlock: CIFDUS_clean_linker_0, # of connection points: 2
#     Edge 98, Type (0, 0), BuildingBlock: CIFDUS_clean_linker_0, # of connection points: 2
#     Edge 99, Type (0, 0), BuildingBlock: CIFDUS_clean_linker_0, # of connection points: 2
#     Edge 100, Type (0, 0), BuildingBlock: CIFDUS_clean_linker_0, # of connection points: 2
#     Edge 101, Type (0, 0), BuildingBlock: CIFDUS_clean_linker_0, # of connection points: 2
#     Edge 102, Type (0, 0), BuildingBlock: CIFDUS_clean_linker_0, # of connection points: 2
#     Edge 103, Type (0, 0), BuildingBlock: CIFDUS_clean_linker_0, # of connection points: 2
#     Edge 104, Type (0, 0), BuildingBlock: CIFDUS_clean_linker_0, # of connection points: 2
#     Edge 105, Type (0, 0), BuildingBlock: CIFDUS_clean_linker_0, # of connection points: 2
#     Edge 106, Type (0, 0), BuildingBlock: CIFDUS_clean_linker_0, # of connection points: 2
#     Edge 107, Type (0, 0), BuildingBlock: CIFDUS_clean_linker_0, # of connection points: 2
#     Edge 108, Type (0, 0), BuildingBlock: CIFDUS_clean_linker_0, # of connection points: 2
#     Edge 109, Type (0, 0), BuildingBlock: CIFDUS_clean_linker_0, # of connection points: 2
#     Edge 110, Type (0, 0), BuildingBlock: CIFDUS_clean_linker_0, # of connection points: 2
#     Edge 111, Type (0, 0), BuildingBlock: CIFDUS_clean_linker_0, # of connection points: 2
#     Edge 112, Type (0, 0), BuildingBlock: CIFDUS_clean_linker_0, # of connection points: 2
#     Edge 113, Type (0, 0), BuildingBlock: CIFDUS_clean_linker_0, # of connection points: 2
#     Edge 114, Type (0, 0), BuildingBlock: CIFDUS_clean_linker_0, # of connection points: 2
#     Edge 115, Type (0, 0), BuildingBlock: CIFDUS_clean_linker_0, # of connection points: 2
#     Edge 116, Type (0, 0), BuildingBlock: CIFDUS_clean_linker_0, # of connection points: 2
#     Edge 117, Type (0, 0), BuildingBlock: CIFDUS_clean_linker_0, # of connection points: 2
#     Edge 118, Type (0, 0), BuildingBlock: CIFDUS_clean_linker_0, # of connection points: 2
#     Edge 119, Type (0, 0), BuildingBlock: CIFDUS_clean_linker_0, # of connection points: 2
#     Edge 120, Type (0, 0), BuildingBlock: CIFDUS_clean_linker_0, # of connection points: 2
#     Edge 121, Type (0, 0), BuildingBlock: CIFDUS_clean_linker_0, # of connection points: 2
#     Edge 122, Type (0, 0), BuildingBlock: CIFDUS_clean_linker_0, # of connection points: 2
#     Edge 123, Type (0, 0), BuildingBlock: CIFDUS_clean_linker_0, # of connection points: 2
#     Edge 124, Type (0, 0), BuildingBlock: CIFDUS_clean_linker_0, # of connection points: 2
#     Edge 125, Type (0, 0), BuildingBlock: CIFDUS_clean_linker_0, # of connection points: 2
#     Edge 126, Type (0, 0), BuildingBlock: CIFDUS_clean_linker_0, # of connection points: 2
#     Edge 127, Type (0, 0), BuildingBlock: CIFDUS_clean_linker_0, # of connection points: 2
# Relax obj value: 0.071
# Max RMSD: 0.140
# Mean RMSD: 0.140
data_MOF--net-vcc--node1-MIFKUJ_clean_sbu_0--edge1-CIFDUS_clean_linker_0
_symmetry_space_group_name_H-M    P1
_symmetry_Int_Tables_number       1
_symmetry_cell_setting            triclinic
loop_
_symmetry_equiv_pos_as_xyz
'x, y, z'
_cell_length_a     43.826171
_cell_length_b     46.225977
_cell_length_c     41.81168
_cell_angle_alpha  90.032947
_cell_angle_beta   89.933092
_cell_angle_gamma 89.992519
loop_
_atom_site_label
_atom_site_type_symbol
_atom_site_fract_x
_atom_site_fract_y
_atom_site_fract_z
_atom_type_partial_charge
Zn0 Zn 0.32245 0.99315 0.10661 0.0
Zn1 Zn 0.3345 0.00586 0.0295 0.0
C2 C 0.37505 0.98641 0.14571 0.0
O3 O 0.35584 0.96882 0.15991 0.0
C4 C 0.27277 0.01472 0.0116 0.0
O5 O 0.28375 0.04101 0.00837 0.0
O6 O 0.29791 0.98812 0.14699 0.0
O7 O 0.30279 0.02727 0.08481 0.0
O8 O 0.34013 0.04253 0.0544 0.0
C9 C 0.30008 0.00858 0.16725 0.0
O10 O 0.31717 0.03108 0.16028 0.0
O11 O 0.36639 0.00054 0.12114 0.0
C12 C 0.34554 0.98719 0.96832 0.0
O13 O 0.33531 0.9642 0.98338 0.0
O14 O 0.34885 0.01057 0.98401 0.0
O15 O 0.35843 0.97286 0.04745 0.0
O16 O 0.32459 0.95587 0.08186 0.0
O17 O 0.28986 0.99518 0.02332 0.0
C18 C 0.31995 0.04758 0.07539 0.0
C19 C 0.34803 0.95226 0.06431 0.0
Zn20 Zn 0.92039 0.24768 0.111 0.0
Zn21 Zn 0.9099 0.241 0.01835 0.0
C22 C 0.87962 0.24554 0.16458 0.0
O23 O 0.90082 0.26194 0.17731 0.0
C24 C 0.96239 0.23206 0.97948 0.0
O25 O 0.9429 0.21484 0.96512 0.0
O26 O 0.95505 0.25623 0.14046 0.0
O27 O 0.93455 0.21913 0.079 0.0
O28 O 0.90311 0.20356 0.04269 0.0
C29 C 0.96149 0.23774 0.16184 0.0
O30 O 0.94594 0.21348 0.16324 0.0
O31 O 0.88331 0.23558 0.13647 0.0
C32 C 0.88793 0.25878 0.95794 0.0
O33 O 0.90031 0.28308 0.96783 0.0
O34 O 0.88723 0.23727 0.9768 0.0
O35 O 0.89546 0.27893 0.03901 0.0
O36 O 0.90578 0.28384 0.09106 0.0
O37 O 0.95435 0.24495 0.00507 0.0
C38 C 0.91642 0.19983 0.06924 0.0
C39 C 0.89539 0.29361 0.06487 0.0
Zn40 Zn 0.32936 0.24944 0.1517 0.0
Zn41 Zn 0.35575 0.2346 0.22014 0.0
C42 C 0.37102 0.26022 0.09961 0.0
O43 O 0.34828 0.27619 0.08939 0.0
C44 C 0.29643 0.22573 0.24426 0.0
O45 O 0.3113 0.20492 0.25883 0.0
O46 O 0.29627 0.25785 0.1196 0.0
O47 O 0.31974 0.20969 0.16958 0.0
O48 O 0.36316 0.19978 0.19336 0.0
C49 C 0.29311 0.23969 0.09698 0.0
O50 O 0.30958 0.21593 0.09739 0.0
O51 O 0.36869 0.24671 0.12603 0.0
C52 C 0.36467 0.25047 0.28371 0.0
O53 O 0.35252 0.27383 0.27114 0.0
O54 O 0.37038 0.22906 0.26551 0.0
O55 O 0.37702 0.26886 0.20249 0.0
O56 O 0.33482 0.28471 0.18003 0.0
O57 O 0.31046 0.24213 0.22482 0.0
C58 C 0.34128 0.19209 0.17547 0.0
C59 C 0.36145 0.28943 0.19095 0.0
Zn60 Zn 0.92773 0.99792 0.15 0.0
Zn61 Zn 0.90412 0.01238 0.21992 0.0
C62 C 0.87758 0.9841 0.10732 0.0
O63 O 0.89793 0.9668 0.09442 0.0
C64 C 0.95772 0.99568 0.2569 0.0
O65 O 0.93687 0.98708 0.27735 0.0
O66 O 0.95612 0.98935 0.11359 0.0
O67 O 0.93876 0.03844 0.16423 0.0
O68 O 0.8998 0.04935 0.19548 0.0
C69 C 0.95346 0.00416 0.08815 0.0
O70 O 0.93248 0.0244 0.08676 0.0
O71 O 0.88484 -0.00066 0.13151 0.0
C72 C 0.86924 0.99347 0.27393 0.0
O73 O 0.86757 0.9699 0.25651 0.0
O74 O 0.88273 0.01564 0.26265 0.0
O75 O 0.88498 0.97858 0.1974 0.0
O76 O 0.92908 0.96341 0.17988 0.0
O77 O 0.94931 0.00609 0.23008 0.0
C78 C 0.91984 0.05686 0.17514 0.0
C79 C 0.90232 0.95786 0.18962 0.0
Zn80 Zn 0.66753 0.98822 0.97461 0.0
Zn81 Zn 0.67138 0.00064 0.88246 0.0
C82 C 0.72043 0.97398 0.01266 0.0
O83 O 0.69995 0.95995 0.02954 0.0
C84 C 0.62183 0.99786 0.83814 0.0
O85 O 0.63964 0.01616 0.823 0.0
O86 O 0.64282 0.9865 0.01473 0.0
O87 O 0.65723 0.02788 0.95568 0.0
O88 O 0.66111 0.03791 0.90358 0.0
C89 C 0.6507 0.00413 0.03648 0.0
O90 O 0.67364 0.02185 0.03142 0.0
O91 O 0.71237 0.98713 0.98729 0.0
C92 C 0.70364 0.98834 0.82508 0.0
O93 O 0.68682 0.96485 0.82657 0.0
O94 O 0.7014 0.0071 0.84715 0.0
O95 O 0.68875 0.97469 0.91518 0.0
O96 O 0.65794 0.95292 0.94774 0.0
O97 O 0.63102 0.98671 0.86427 0.0
C98 C 0.65515 0.04542 0.93223 0.0
C99 C 0.67244 0.95292 0.92158 0.0
Zn100 Zn 0.08929 0.75387 0.97791 0.0
Zn101 Zn 0.07413 0.75613 0.88807 0.0
C102 C 0.03784 0.7663 0.01756 0.0
O103 O 0.05938 0.77977 0.03349 0.0
C104 C 0.11639 0.75964 0.83611 0.0
O105 O 0.09376 0.74659 0.8215 0.0
O106 O 0.11106 0.75074 0.02033 0.0
O107 O 0.09809 0.71625 0.95376 0.0
O108 O 0.08345 0.71582 0.90265 0.0
C109 C 0.10643 0.72767 0.03619 0.0
O110 O 0.09098 0.70652 0.02285 0.0
O111 O 0.04421 0.75492 0.99059 0.0
C112 C 0.03593 0.77697 0.83779 0.0
O113 O 0.05157 0.80077 0.84297 0.0
O114 O 0.04032 0.75523 0.8558 0.0
O115 O 0.06383 0.78224 0.92441 0.0
O116 O 0.10264 0.79083 0.95533 0.0
O117 O 0.11318 0.76745 0.86515 0.0
C118 C 0.0944 0.70316 0.92714 0.0
C119 C 0.08543 0.79877 0.93265 0.0
Zn120 Zn 0.64647 0.75865 0.78373 0.0
Zn121 Zn 0.66962 0.75042 0.85613 0.0
C122 C 0.706 0.77881 0.76824 0.0
O123 O 0.69041 0.80285 0.7645 0.0
C124 C 0.6225 0.73396 0.89968 0.0
O125 O 0.64177 0.71257 0.90423 0.0
O126 O 0.63233 0.76198 0.73772 0.0
O127 O 0.6301 0.72085 0.80026 0.0
O128 O 0.6709 0.71374 0.82981 0.0
C129 C 0.6403 0.73989 0.72152 0.0
O130 O 0.65446 0.71867 0.73624 0.0
O131 O 0.69239 0.75631 0.77835 0.0
C132 C 0.69803 0.75916 0.91729 0.0
O133 O 0.677 0.77933 0.91954 0.0
O134 O 0.70014 0.74461 0.89156 0.0
O135 O 0.67814 0.78923 0.83612 0.0
O136 O 0.6346 0.79349 0.81042 0.0
O137 O 0.62871 0.75291 0.8786 0.0
C138 C 0.64789 0.70378 0.81495 0.0
C139 C 0.65519 0.80435 0.82813 0.0
Zn140 Zn 0.08716 0.97949 0.77713 0.0
Zn141 Zn 0.07496 0.99663 0.8679 0.0
C142 C 0.03393 0.97098 0.73594 0.0
O143 O 0.05463 0.96103 0.71608 0.0
C144 C 0.11652 0.01142 0.91363 0.0
O145 O 0.0965 0.03254 0.91203 0.0
O146 O 0.11145 0.97527 0.73647 0.0
O147 O 0.09745 0.0204 0.79434 0.0
O148 O 0.08549 0.03277 0.84446 0.0
C149 C 0.11108 0.99706 0.71795 0.0
O150 O 0.09641 0.02044 0.72701 0.0
O151 O 0.04196 0.97905 0.76389 0.0
C152 C 0.03925 0.98562 0.9215 0.0
O153 O 0.059 0.96425 0.92255 0.0
O154 O 0.04016 0.00307 0.89808 0.0
O155 O 0.06371 0.96672 0.83624 0.0
O156 O 0.09652 0.94485 0.80624 0.0
O157 O 0.1127 0.98948 0.89554 0.0
C158 C 0.09601 0.03904 0.81692 0.0
C159 C 0.08143 0.94552 0.83207 0.0
Zn160 Zn 0.31354 0.50556 0.60454 0.0
Zn161 Zn 0.34647 0.51169 0.54026 0.0
C162 C 0.36443 0.48947 0.64199 0.0
O163 O 0.34724 0.46631 0.64468 0.0
C164 C 0.29598 0.52085 0.50019 0.0
O165 O 0.31607 0.53867 0.48771 0.0
O166 O 0.28524 0.50219 0.6425 0.0
O167 O 0.30241 0.54198 0.58081 0.0
O168 O 0.34919 0.54962 0.56382 0.0
C169 C 0.2859 0.52225 0.66335 0.0
O170 O 0.3034 0.54487 0.65828 0.0
O171 O 0.35516 0.51041 0.62484 0.0
C172 C 0.37149 0.48796 0.48422 0.0
O173 O 0.36051 0.46488 0.49848 0.0
O174 O 0.37036 0.51218 0.49868 0.0
O175 O 0.36006 0.47646 0.56438 0.0
O176 O 0.31336 0.46751 0.58068 0.0
O177 O 0.30305 0.50654 0.52507 0.0
C178 C 0.32406 0.55937 0.57461 0.0
C179 C 0.33954 0.45845 0.57226 0.0
Zn180 Zn 0.90804 0.75023 0.62942 0.0
Zn181 Zn 0.92445 0.74055 0.52911 0.0
C182 C 0.86225 0.75842 0.67421 0.0
O183 O 0.88071 0.78038 0.67915 0.0
C184 C 0.97518 0.74343 0.48486 0.0
O185 O 0.95439 0.73422 0.4647 0.0
O186 O 0.94173 0.75121 0.66163 0.0
O187 O 0.91602 0.72635 0.59161 0.0
O188 O 0.92426 0.70028 0.54979 0.0
C189 C 0.94259 0.73103 0.68223 0.0
O190 O 0.92386 0.70901 0.67919 0.0
O191 O 0.86899 0.74028 0.65243 0.0
C192 C 0.8936 0.76589 0.47703 0.0
O193 O 0.9052 0.78911 0.49041 0.0
O194 O 0.89763 0.74145 0.49026 0.0
O195 O 0.91092 0.77326 0.56006 0.0
O196 O 0.90206 0.78899 0.60945 0.0
O197 O 0.96785 0.74784 0.51395 0.0
C198 C 0.92075 0.70176 0.57979 0.0
C199 C 0.90264 0.79325 0.57932 0.0
Zn200 Zn 0.32748 0.74892 0.63338 0.0
Zn201 Zn 0.33423 0.73776 0.72939 0.0
C202 C 0.37581 0.74357 0.58731 0.0
O203 O 0.35642 0.75835 0.56984 0.0
C204 C 0.28449 0.72969 0.77269 0.0
O205 O 0.30508 0.71353 0.78687 0.0
O206 O 0.29641 0.75267 0.59792 0.0
O207 O 0.31374 0.72478 0.66943 0.0
O208 O 0.33978 0.70104 0.70464 0.0
C209 C 0.29389 0.7316 0.57854 0.0
O210 O 0.31022 0.70823 0.58346 0.0
O211 O 0.36795 0.73553 0.61525 0.0
C212 C 0.36365 0.75595 0.78699 0.0
O213 O 0.35256 0.78119 0.77841 0.0
O214 O 0.36054 0.73449 0.76835 0.0
O215 O 0.34492 0.77492 0.70473 0.0
O216 O 0.33778 0.78713 0.65332 0.0
O217 O 0.29093 0.7414 0.74598 0.0
C218 C 0.32847 0.70229 0.67695 0.0
C219 C 0.34676 0.79299 0.68165 0.0
Zn220 Zn 0.92713 0.50325 0.65019 0.0
Zn221 Zn 0.90223 0.51106 0.72226 0.0
C222 C 0.87721 0.49669 0.60452 0.0
O223 O 0.89954 0.4904 0.58478 0.0
C224 C 0.95737 0.49303 0.75236 0.0
O225 O 0.93812 0.47487 0.76568 0.0
O226 O 0.95475 0.50099 0.61149 0.0
O227 O 0.93582 0.54112 0.67247 0.0
O228 O 0.89105 0.54526 0.69545 0.0
C229 C 0.95898 0.52321 0.59411 0.0
O230 O 0.94697 0.54801 0.60294 0.0
O231 O 0.88337 0.5033 0.63341 0.0
C232 C 0.86774 0.49466 0.77876 0.0
O233 O 0.86107 0.47182 0.76143 0.0
O234 O 0.88344 0.51489 0.76636 0.0
O235 O 0.88917 0.47364 0.70271 0.0
O236 O 0.93159 0.46628 0.67542 0.0
O237 O 0.94759 0.5104 0.73109 0.0
C238 C 0.91247 0.55623 0.67906 0.0
C239 C 0.90757 0.4566 0.68873 0.0
Zn240 Zn 0.66218 0.48436 0.48073 0.0
Zn241 Zn 0.67666 0.49327 0.38916 0.0
C242 C 0.71703 0.4741 0.51728 0.0
O243 O 0.69765 0.46075 0.53615 0.0
C244 C 0.63473 0.49799 0.33847 0.0
O245 O 0.65555 0.51696 0.33009 0.0
O246 O 0.64036 0.48227 0.52327 0.0
O247 O 0.65098 0.52298 0.46036 0.0
O248 O 0.66514 0.53121 0.40952 0.0
C249 C 0.64458 0.50286 0.54297 0.0
O250 O 0.66104 0.52518 0.53394 0.0
O251 O 0.70761 0.48462 0.49093 0.0
C252 C 0.7134 0.48057 0.3344 0.0
O253 O 0.69463 0.45843 0.33324 0.0
O254 O 0.71138 0.49821 0.3577 0.0
O255 O 0.6867 0.46426 0.42268 0.0
O256 O 0.65034 0.44964 0.45421 0.0
O257 O 0.63857 0.48326 0.36389 0.0
C258 C 0.65355 0.53942 0.436 0.0
C259 C 0.66602 0.44608 0.42908 0.0
Zn260 Zn 0.07814 0.25929 0.47771 0.0
Zn261 Zn 0.09065 0.25449 0.37749 0.0
C262 C 0.02925 0.27817 0.51502 0.0
O263 O 0.04973 0.29868 0.51855 0.0
C264 C 0.13851 0.24734 0.33309 0.0
O265 O 0.11926 0.22757 0.32296 0.0
O266 O 0.104 0.2567 0.51752 0.0
O267 O 0.08748 0.22172 0.4488 0.0
O268 O 0.09375 0.21568 0.3958 0.0
C269 C 0.10737 0.23189 0.53016 0.0
O270 O 0.09673 0.20902 0.51524 0.0
O271 O 0.03539 0.25695 0.49665 0.0
C272 C 0.05824 0.26648 0.31923 0.0
O273 O 0.0821 0.28283 0.31332 0.0
O274 O 0.05617 0.25373 0.34604 0.0
O275 O 0.08436 0.27551 0.41655 0.0
O276 O 0.08146 0.3013 0.45849 0.0
O277 O 0.13106 0.2631 0.35678 0.0
C278 C 0.09259 0.20559 0.42416 0.0
C279 C 0.08269 0.30042 0.42834 0.0
Zn280 Zn 0.66278 0.26315 0.27327 0.0
Zn281 Zn 0.65953 0.25467 0.3749 0.0
C282 C 0.71043 0.26649 0.22756 0.0
O283 O 0.6895 0.28201 0.21308 0.0
C284 C 0.61953 0.25502 0.42973 0.0
O285 O 0.64391 0.24516 0.44432 0.0
O286 O 0.6354 0.26027 0.23444 0.0
O287 O 0.65392 0.22988 0.30533 0.0
O288 O 0.65353 0.21529 0.35613 0.0
C289 C 0.63301 0.23549 0.22143 0.0
O290 O 0.6442 0.21284 0.23633 0.0
O291 O 0.70493 0.25644 0.25529 0.0
C292 C 0.6986 0.27901 0.42219 0.0
O293 O 0.67904 0.30035 0.41887 0.0
O294 O 0.69624 0.25712 0.40392 0.0
O295 O 0.66146 0.27871 0.33618 0.0
O296 O 0.66291 0.30401 0.29297 0.0
O297 O 0.62103 0.26175 0.40025 0.0
C298 C 0.64905 0.21043 0.32646 0.0
C299 C 0.66351 0.30323 0.32324 0.0
Zn300 Zn 0.0761 0.49081 0.28315 0.0
Zn301 Zn 0.0849 0.50508 0.38382 0.0
C302 C 0.0273 0.46969 0.24795 0.0
O303 O 0.04808 0.44931 0.24539 0.0
C304 C 0.12555 0.4996 0.43875 0.0
O305 O 0.10031 0.4997 0.45568 0.0
O306 O 0.10075 0.4916 0.24189 0.0
O307 O 0.08651 0.52908 0.30911 0.0
O308 O 0.08919 0.5423 0.36063 0.0
C309 C 0.09621 0.51398 0.22481 0.0
O310 O 0.07853 0.53457 0.23601 0.0
O311 O 0.03295 0.49147 0.26567 0.0
C312 C 0.03824 0.48348 0.42767 0.0
O313 O 0.04758 0.45796 0.418 0.0
O314 O 0.04921 0.50601 0.41454 0.0
O315 O 0.08277 0.47804 0.34802 0.0
O316 O 0.08185 0.45121 0.30626 0.0
O317 O 0.12408 0.50089 0.40841 0.0
C318 C 0.09126 0.54828 0.33088 0.0
C319 C 0.08384 0.45289 0.33644 0.0
Zn320 Zn 0.8232 0.99155 0.60081 0.0
Zn321 Zn 0.83967 0.01002 0.52676 0.0
C322 C 0.87322 0.98106 0.64639 0.0
O323 O 0.85183 0.96853 0.66345 0.0
C324 C 0.77929 0.02745 0.51209 0.0
O325 O 0.79334 0.05253 0.513 0.0
O326 O 0.79462 0.98154 0.63662 0.0
O327 O 0.81172 0.03251 0.58871 0.0
O328 O 0.84831 0.04391 0.55484 0.0
C329 C 0.79268 -0.00028 0.65933 0.0
O330 O 0.80912 0.02346 0.65798 0.0
O331 O 0.86647 0.99192 0.61925 0.0
C332 C 0.84785 -0.00074 0.46278 0.0
O333 O 0.83297 0.97631 0.47284 0.0
O334 O 0.85535 0.01851 0.48296 0.0
O335 O 0.8606 0.97397 0.54095 0.0
O336 O 0.82064 0.95943 0.56803 0.0
O337 O 0.79406 0.0047 0.5194 0.0
C338 C 0.83035 0.0509 0.57736 0.0
C339 C 0.84528 0.95369 0.55339 0.0
Zn340 Zn 0.4272 0.24872 0.6039 0.0
Zn341 Zn 0.39868 0.24478 0.53176 0.0
C342 C 0.38377 0.25945 0.65332 0.0
O343 O 0.40715 0.27421 0.66421 0.0
C344 C 0.45074 0.2308 0.4953 0.0
O345 O 0.43022 0.21349 0.48274 0.0
O346 O 0.45855 0.24718 0.63898 0.0
O347 O 0.43424 0.21367 0.57663 0.0
O348 O 0.38862 0.20884 0.5565 0.0
C349 C 0.4559 0.22754 0.66012 0.0
O350 O 0.43424 0.20809 0.65701 0.0
O351 O 0.38605 0.24643 0.62655 0.0
C352 C 0.38005 0.26802 0.47281 0.0
O353 O 0.39232 0.29081 0.48647 0.0
O354 O 0.37766 0.24471 0.48877 0.0
O355 O 0.3867 0.28145 0.55425 0.0
O356 O 0.42879 0.2878 0.58251 0.0
O357 O 0.4435 0.24606 0.51949 0.0
C358 C 0.41073 0.19825 0.57213 0.0
C359 C 0.40499 0.29794 0.56921 0.0
Zn360 Zn 0.81518 0.25308 0.64086 0.0
Zn361 Zn 0.83759 0.24525 0.71255 0.0
C362 C 0.87154 0.26796 0.61078 0.0
O363 O 0.85656 0.2924 0.60752 0.0
C364 C 0.78546 0.22743 0.74366 0.0
O365 O 0.80485 0.20599 0.7473 0.0
O366 O 0.79152 0.25776 0.59989 0.0
O367 O 0.80012 0.21687 0.66239 0.0
O368 O 0.84322 0.20835 0.68772 0.0
C369 C 0.79635 0.23999 0.5772 0.0
O370 O 0.81538 0.21842 0.58182 0.0
O371 O 0.85895 0.24723 0.62585 0.0
C372 C 0.85381 0.2673 0.77101 0.0
O373 O 0.8395 0.28871 0.75681 0.0
O374 O 0.8582 0.2439 0.75559 0.0
O375 O 0.8539 0.28088 0.69137 0.0
O376 O 0.81184 0.2907 0.665 0.0
O377 O 0.79329 0.24884 0.72635 0.0
C378 C 0.82015 0.19924 0.67236 0.0
C379 C 0.83599 0.29915 0.67885 0.0
Zn380 Zn 0.42979 0.99488 0.65509 0.0
Zn381 Zn 0.40176 0.01403 0.72105 0.0
C382 C 0.38381 0.97213 0.61584 0.0
O383 O 0.40275 0.95027 0.61889 0.0
C384 C 0.45736 0.01025 0.75967 0.0
O385 O 0.43916 0.01997 0.78215 0.0
O386 O 0.46079 0.98514 0.62138 0.0
O387 O 0.44161 0.03501 0.67017 0.0
O388 O 0.39803 0.04811 0.69183 0.0
C389 C 0.45985 0.00193 0.59731 0.0
O390 O 0.44045 0.02362 0.59753 0.0
O391 O 0.38988 0.99577 0.63016 0.0
C392 C 0.37594 0.0002 0.7807 0.0
O393 O 0.38307 0.97452 0.76946 0.0
O394 O 0.38048 0.02221 0.76308 0.0
O395 O 0.38205 0.97863 0.7028 0.0
O396 O 0.42606 0.9615 0.68639 0.0
O397 O 0.44697 0.00647 0.73148 0.0
C398 C 0.42146 0.05419 0.67532 0.0
C399 C 0.39876 0.95723 0.69554 0.0
Zn400 Zn 0.17894 0.99159 0.47698 0.0
Zn401 Zn 0.17243 0.999 0.38104 0.0
C402 C 0.23433 0.97479 0.50659 0.0
O403 O 0.21698 0.95255 0.51383 0.0
C404 C 0.12144 0.99739 0.34032 0.0
O405 O 0.13861 0.017 0.3264 0.0
O406 O 0.1589 0.99177 0.52002 0.0
O407 O 0.16557 0.02909 0.45378 0.0
O408 O 0.16324 0.03772 0.40115 0.0
C409 C 0.16294 0.01454 0.53649 0.0
O410 O 0.17774 0.0364 0.52374 0.0
O411 O 0.22372 0.99425 0.4882 0.0
C412 C 0.20054 0.98017 0.3241 0.0
O413 O 0.18181 0.95862 0.32987 0.0
O414 O 0.20138 0.00129 0.3436 0.0
O415 O 0.19019 0.97512 0.41529 0.0
O416 O 0.16861 0.95339 0.45493 0.0
O417 O 0.13142 0.98479 0.36529 0.0
C418 C 0.16011 0.04592 0.43018 0.0
C419 C 0.17638 0.95311 0.4258 0.0
Zn420 Zn 0.59463 0.7616 0.4701 0.0
Zn421 Zn 0.57469 0.7429 0.39851 0.0
C422 C 0.53758 0.76151 0.50459 0.0
O423 O 0.55323 0.77893 0.52315 0.0
C424 C 0.62773 0.72819 0.3636 0.0
O425 O 0.61275 0.70356 0.36371 0.0
O426 O 0.61297 0.77077 0.51358 0.0
O427 O 0.6171 0.72631 0.45414 0.0
O428 O 0.57787 0.70845 0.42796 0.0
C429 C 0.61424 0.74936 0.53267 0.0
O430 O 0.6062 0.72371 0.52205 0.0
O431 O 0.54985 0.75169 0.47914 0.0
C432 C 0.54858 0.74955 0.33764 0.0
O433 O 0.56478 0.77338 0.34005 0.0
O434 O 0.54839 0.73191 0.36097 0.0
O435 O 0.557 0.78029 0.41506 0.0
O436 O 0.59696 0.7965 0.44112 0.0
O437 O 0.61644 0.74966 0.37861 0.0
C438 C 0.60294 0.70471 0.44265 0.0
C439 C 0.5747 0.80101 0.42231 0.0
Zn440 Zn 0.16442 0.76163 0.28254 0.0
Zn441 Zn 0.1876 0.75491 0.35466 0.0
C442 C 0.21893 0.76679 0.24298 0.0
O443 O 0.19953 0.77977 0.22389 0.0
C444 C 0.13586 0.74986 0.39608 0.0
O445 O 0.15578 0.73492 0.4127 0.0
O446 O 0.14213 0.76567 0.24043 0.0
O447 O 0.14894 0.72396 0.30191 0.0
O448 O 0.18818 0.71574 0.33358 0.0
C449 C 0.14145 0.74333 0.22264 0.0
O450 O 0.15263 0.71894 0.23369 0.0
O451 O 0.20972 0.75767 0.27016 0.0
C452 C 0.21436 0.77387 0.41353 0.0
O453 O 0.20093 0.79817 0.40531 0.0
O454 O 0.21287 0.75226 0.39475 0.0
O455 O 0.20268 0.79017 0.33093 0.0
O456 O 0.15821 0.7985 0.30903 0.0
O457 O 0.14397 0.76104 0.36957 0.0
C458 C 0.16475 0.70663 0.3187 0.0
C459 C 0.1817 0.80784 0.32357 0.0
Zn460 Zn 0.58428 0.99087 0.28091 0.0
Zn461 Zn 0.57593 0.00303 0.37127 0.0
C462 C 0.53038 0.97677 0.24381 0.0
O463 O 0.55 0.9601 0.22879 0.0
C464 C 0.62517 0.01151 0.41222 0.0
O465 O 0.60855 0.03493 0.41602 0.0
O466 O 0.60823 0.98797 0.24036 0.0
O467 O 0.59624 0.03014 0.29838 0.0
O468 O 0.58533 0.04061 0.3493 0.0
C469 C 0.59982 0.00484 0.21811 0.0
O470 O 0.57679 0.02252 0.22285 0.0
O471 O 0.53914 0.99085 0.26837 0.0
C472 C 0.54582 0.9916 0.42951 0.0
O473 O 0.5649 0.96968 0.42862 0.0
O474 O 0.54537 0.00931 0.40627 0.0
O475 O 0.56065 0.9724 0.34173 0.0
O476 O 0.59525 0.9567 0.30851 0.0
O477 O 0.61585 0.9922 0.39282 0.0
C478 C 0.59512 0.04774 0.32177 0.0
C479 C 0.5802 0.9535 0.33409 0.0
Zn480 Zn 0.82488 0.5014 0.10491 0.0
Zn481 Zn 0.84727 0.51786 0.03303 0.0
C482 C 0.87836 0.48362 0.13881 0.0
O483 O 0.86499 0.45835 0.13555 0.0
C484 C 0.79035 0.53898 0.01371 0.0
O485 O 0.80733 0.56232 0.0116 0.0
O486 O 0.79605 0.49201 0.1413 0.0
O487 O 0.81233 0.54051 0.08752 0.0
O488 O 0.85581 0.55074 0.0635 0.0
C489 C 0.79879 0.50558 0.16763 0.0
O490 O 0.81932 0.52618 0.16987 0.0
O491 O 0.86606 0.50579 0.12626 0.0
C492 C 0.85382 0.50711 0.96873 0.0
O493 O 0.8374 0.48544 0.97959 0.0
O494 O 0.86343 0.52595 0.98856 0.0
O495 O 0.86362 0.47887 0.04433 0.0
O496 O 0.82606 0.46588 0.07646 0.0
O497 O 0.80199 0.51589 0.02483 0.0
C498 C 0.83294 0.55866 0.08006 0.0
C499 C 0.84767 0.45931 0.05748 0.0
Zn500 Zn 0.4324 0.75296 0.1107 0.0
Zn501 Zn 0.41966 0.73803 0.03132 0.0
C502 C 0.38151 0.75875 0.15647 0.0
O503 O 0.40312 0.76656 0.17638 0.0
C504 C 0.47951 0.7206 0.01655 0.0
O505 O 0.46515 0.69568 0.01747 0.0
O506 O 0.4607 0.76044 0.14786 0.0
O507 O 0.44308 0.71312 0.09503 0.0
O508 O 0.41152 0.70159 0.05546 0.0
C509 C 0.46492 0.74051 0.16836 0.0
O510 O 0.45102 0.71558 0.16448 0.0
O511 O 0.3885 0.75231 0.12771 0.0
C512 C 0.4101 0.75949 0.97118 0.0
O513 O 0.4235 0.7807 0.98669 0.0
O514 O 0.40435 0.73609 0.98606 0.0
O515 O 0.39791 0.77196 0.05034 0.0
O516 O 0.43624 0.78634 0.08016 0.0
O517 O 0.46516 0.74348 0.0244 0.0
C518 C 0.42666 0.69485 0.08023 0.0
C519 C 0.4116 0.79173 0.06554 0.0
Zn520 Zn 0.82561 0.75104 0.13484 0.0
Zn521 Zn 0.83251 0.73863 0.23096 0.0
C522 C 0.8677 0.75475 0.08346 0.0
O523 O 0.84644 0.77273 0.07375 0.0
C524 C 0.77924 0.71415 0.25783 0.0
O525 O 0.79803 0.69202 0.25877 0.0
O526 O 0.78996 0.75542 0.10477 0.0
O527 O 0.81715 0.72517 0.17096 0.0
O528 O 0.84407 0.70276 0.20632 0.0
C529 C 0.78755 0.73757 0.08176 0.0
O530 O 0.80674 0.71578 0.08009 0.0
O531 O 0.86385 0.74107 0.10961 0.0
C532 C 0.84764 0.75642 0.29323 0.0
O533 O 0.82838 0.77696 0.28523 0.0
O534 O 0.85484 0.73744 0.27259 0.0
O535 O 0.84294 0.77681 0.20777 0.0
O536 O 0.83618 0.78857 0.15613 0.0
O537 O 0.7881 0.73744 0.24455 0.0
C538 C 0.83414 0.70404 0.17803 0.0
C539 C 0.84451 0.79484 0.18459 0.0
Zn540 Zn 0.43079 0.49647 0.1538 0.0
Zn541 Zn 0.4139 0.50942 0.23269 0.0
C542 C 0.37815 0.4816 0.11785 0.0
O543 O 0.39785 0.46296 0.10618 0.0
C544 C 0.46822 0.51742 0.26776 0.0
O545 O 0.45043 0.53703 0.28076 0.0
O546 O 0.45603 0.49139 0.11325 0.0
O547 O 0.44486 0.53385 0.17313 0.0
O548 O 0.40808 0.54523 0.20682 0.0
C549 C 0.44868 0.50585 0.08847 0.0
O550 O 0.4251 0.52334 0.08991 0.0
O551 O 0.38655 0.49902 0.13973 0.0
C552 C 0.39769 0.49414 0.2955 0.0
O553 O 0.41187 0.47072 0.28563 0.0
O554 O 0.39343 0.51463 0.2757 0.0
O555 O 0.39521 0.47411 0.21295 0.0
O556 O 0.43347 0.46109 0.18157 0.0
O557 O 0.45862 0.50302 0.24383 0.0
C558 C 0.42611 0.55216 0.18434 0.0
C559 C 0.40917 0.45497 0.19677 0.0
Zn560 Zn 0.17048 0.48583 0.98026 0.0
Zn561 Zn 0.16823 0.49275 0.88367 0.0
C562 C 0.22257 0.47472 0.02015 0.0
O563 O 0.20152 0.46217 0.03765 0.0
C564 C 0.11529 0.49737 0.84726 0.0
O565 O 0.13089 0.5205 0.83905 0.0
O566 O 0.14662 0.48381 0.02199 0.0
O567 O 0.16013 0.52444 0.95875 0.0
O568 O 0.16099 0.53089 0.90578 0.0
C569 C 0.14823 0.50473 0.04172 0.0
O570 O 0.16312 0.52821 0.03336 0.0
O571 O 0.2153 0.48566 0.99324 0.0
C572 C 0.19098 0.48106 0.82043 0.0
O573 O 0.17008 0.4608 0.82251 0.0
O574 O 0.19502 0.49804 0.84408 0.0
O575 O 0.18741 0.46412 0.91352 0.0
O576 O 0.1609 0.44963 0.95479 0.0
O577 O 0.12664 0.48024 0.86792 0.0
C578 C 0.15714 0.54051 0.9341 0.0
C579 C 0.17104 0.44494 0.92679 0.0
Zn580 Zn 0.58018 0.25937 0.97293 0.0
Zn581 Zn 0.57772 0.25426 0.87633 0.0
C582 C 0.53302 0.27561 0.01528 0.0
O583 O 0.555 0.29313 0.02426 0.0
C584 C 0.63249 0.24491 0.84563 0.0
O585 O 0.61699 0.22077 0.84228 0.0
O586 O 0.60604 0.25977 0.01313 0.0
O587 O 0.5875 0.21999 0.94889 0.0
O588 O 0.58269 0.21591 0.89566 0.0
C589 C 0.60054 0.23998 0.03352 0.0
O590 O 0.58226 0.21869 0.02537 0.0
O591 O 0.53728 0.25924 0.99118 0.0
C592 C 0.55873 0.26469 0.81195 0.0
O593 O 0.58265 0.28177 0.81304 0.0
O594 O 0.55072 0.25113 0.83711 0.0
O595 O 0.56033 0.27573 0.91251 0.0
O596 O 0.58598 0.29795 0.94895 0.0
O597 O 0.62046 0.26558 0.86144 0.0
C598 C 0.58755 0.20491 0.92308 0.0
C599 C 0.57374 0.29839 0.92153 0.0
Zn600 Zn 0.17119 0.25297 0.77679 0.0
Zn601 Zn 0.17842 0.25097 0.8717 0.0
C602 C 0.21965 0.26824 0.73509 0.0
O603 O 0.19775 0.28509 0.72449 0.0
C604 C 0.13384 0.2521 0.92208 0.0
O605 O 0.15483 0.23651 0.93632 0.0
O606 O 0.14603 0.2544 0.73631 0.0
O607 O 0.16089 0.21396 0.79817 0.0
O608 O 0.16834 0.21361 0.85087 0.0
C609 C 0.15086 0.23489 0.71543 0.0
O610 O 0.16917 0.21333 0.7226 0.0
O611 O 0.21491 0.25291 0.75994 0.0
C612 C 0.21518 0.2633 0.92663 0.0
O613 O 0.20025 0.28792 0.92507 0.0
O614 O 0.21059 0.24425 0.90523 0.0
O615 O 0.19336 0.2805 0.84082 0.0
O616 O 0.16249 0.29049 0.8012 0.0
O617 O 0.13879 0.26178 0.89403 0.0
C618 C 0.16114 0.20083 0.82504 0.0
C619 C 0.17457 0.29752 0.8277 0.0
Zn620 Zn 0.56634 0.48885 0.77977 0.0
Zn621 Zn 0.58578 0.50011 0.88002 0.0
C622 C 0.51675 0.46953 0.74402 0.0
O623 O 0.53615 0.44797 0.7415 0.0
C624 C 0.6372 0.51784 0.91434 0.0
O625 O 0.61919 0.54041 0.91735 0.0
O626 O 0.59258 0.49019 0.74013 0.0
O627 O 0.57615 0.5247 0.80867 0.0
O628 O 0.58412 0.53866 0.85918 0.0
C629 C 0.59928 0.51441 0.72758 0.0
O630 O 0.5917 0.53836 0.74254 0.0
O631 O 0.52379 0.49108 0.76146 0.0
C632 C 0.56353 0.48337 0.94177 0.0
O633 O 0.5907 0.47144 0.9426 0.0
O634 O 0.55509 0.49632 0.91636 0.0
O635 O 0.57882 0.4754 0.84288 0.0
O636 O 0.57149 0.449 0.80142 0.0
O637 O 0.6282 0.49644 0.89776 0.0
C638 C 0.58178 0.54442 0.82942 0.0
C639 C 0.57722 0.45041 0.83105 0.0
H640 H 0.43488 0.84417 0.05251 0.0
H641 H 0.3545 0.80095 0.08756 0.0
H642 H 0.32783 0.84734 0.0922 0.0
H643 H 0.32686 0.89993 0.08386 0.0
H644 H 0.40622 0.94246 0.04463 0.0
H645 H 0.43375 0.8967 0.0437 0.0
C646 C 0.41163 0.84515 0.0614 0.0
C647 C 0.39653 0.81963 0.06985 0.0
C648 C 0.39622 0.87166 0.0629 0.0
C649 C 0.36632 0.82064 0.08092 0.0
C650 C 0.35114 0.84704 0.08353 0.0
C651 C 0.35021 0.89915 0.07527 0.0
C652 C 0.36443 0.92446 0.0643 0.0
C653 C 0.36575 0.87266 0.07419 0.0
C654 C 0.39466 0.92318 0.05301 0.0
C655 C 0.41049 0.89706 0.05256 0.0
H656 H 0.83587 0.41392 0.09647 0.0
H657 H 0.87741 0.43605 0.00618 0.0
H658 H 0.89349 0.38581 0.99873 0.0
H659 H 0.89867 0.33606 0.01977 0.0
H660 H 0.86076 0.31573 0.1123 0.0
H661 H 0.84018 0.36458 0.11692 0.0
C662 C 0.84818 0.40769 0.07502 0.0
C663 C 0.85551 0.42863 0.05198 0.0
C664 C 0.85814 0.37904 0.07138 0.0
C665 C 0.87169 0.4203 0.0244 0.0
C666 C 0.88086 0.39159 0.0201 0.0
C667 C 0.8856 0.34236 0.04069 0.0
C668 C 0.88127 0.32251 0.06568 0.0
C669 C 0.87466 0.37085 0.04369 0.0
C670 C 0.86456 0.33084 0.09288 0.0
C671 C 0.85277 0.35872 0.09555 0.0
H672 H 0.43885 0.40405 0.19025 0.0
H673 H 0.34897 0.44157 0.19682 0.0
H674 H 0.32589 0.39355 0.19361 0.0
H675 H 0.33143 0.34071 0.19108 0.0
H676 H 0.42152 0.30314 0.18832 0.0
H677 H 0.44439 0.35126 0.18787 0.0
C678 C 0.41424 0.40161 0.19079 0.0
C679 C 0.3956 0.42607 0.19389 0.0
C680 C 0.40119 0.37395 0.18978 0.0
C681 C 0.36373 0.42285 0.1948 0.0
C682 C 0.35053 0.39547 0.19288 0.0
C683 C 0.35603 0.34315 0.1902 0.0
C684 C 0.37478 0.31858 0.18985 0.0
C685 C 0.36905 0.37084 0.19072 0.0
C686 C 0.40665 0.32187 0.18893 0.0
C687 C 0.41975 0.34933 0.18857 0.0
H688 H 0.8278 0.84539 0.15734 0.0
H689 H 0.89124 0.80851 0.22467 0.0
H690 H 0.91642 0.85551 0.23071 0.0
H691 H 0.92064 0.90729 0.21612 0.0
H692 H 0.85327 0.9447 0.15369 0.0
H693 H 0.82954 0.89742 0.14601 0.0
C694 C 0.84706 0.84775 0.17343 0.0
C695 C 0.8578 0.82365 0.19041 0.0
C696 C 0.86089 0.87486 0.17732 0.0
C697 C 0.8825 0.82691 0.2115 0.0
C698 C 0.89701 0.85369 0.21479 0.0
C699 C 0.90092 0.90484 0.20069 0.0
C700 C 0.88906 0.92905 0.18478 0.0
C701 C 0.88653 0.87779 0.19764 0.0
C702 C 0.86303 0.9261 0.16557 0.0
C703 C 0.84937 0.89915 0.16136 0.0
H704 H 0.62076 0.07618 0.89185 0.0
H705 H 0.66166 0.07998 0.98543 0.0
H706 H 0.64242 0.12956 0.99253 0.0
H707 H 0.61622 0.17294 0.97005 0.0
H708 H 0.57417 0.16613 0.87684 0.0
H709 H 0.59127 0.11658 0.872 0.0
C710 C 0.62558 0.08788 0.9138 0.0
C711 C 0.64311 0.07481 0.93776 0.0
C712 C 0.61409 0.11584 0.91784 0.0
C713 C 0.64843 0.08983 0.96647 0.0
C714 C 0.63742 0.11811 0.97052 0.0
C715 C 0.61045 0.16042 0.94896 0.0
C716 C 0.59438 0.17353 0.92365 0.0
C717 C 0.62048 0.13152 0.94613 0.0
C718 C 0.58695 0.1569 0.89652 0.0
C719 C 0.59673 0.12847 0.89362 0.0
H720 H 0.11582 0.66684 0.9738 0.0
H721 H 0.09637 0.67078 0.87259 0.0
H722 H 0.11488 0.62156 0.86589 0.0
H723 H 0.1365 0.57734 0.88833 0.0
H724 H 0.15526 0.57237 0.98951 0.0
H725 H 0.13721 0.62199 0.99649 0.0
C726 C 0.11552 0.65692 0.95029 0.0
C727 C 0.10458 0.67264 0.9238 0.0
C728 C 0.1262 0.62841 0.9465 0.0
C729 C 0.10445 0.65931 0.89351 0.0
C730 C 0.11515 0.63112 0.88957 0.0
C731 C 0.13686 0.58709 0.91193 0.0
C732 C 0.14736 0.57106 0.93832 0.0
C733 C 0.12614 0.61549 0.91584 0.0
C734 C 0.14731 0.58411 0.96874 0.0
C735 C 0.13696 0.61252 0.97277 0.0
H736 H 0.60041 0.67426 0.78735 0.0
H737 H 0.68042 0.66261 0.84635 0.0
H738 H 0.6675 0.61201 0.85405 0.0
H739 H 0.63188 0.57208 0.84774 0.0
H740 H 0.55237 0.5816 0.78825 0.0
H741 H 0.56667 0.63212 0.77687 0.0
C742 C 0.61512 0.66058 0.80167 0.0
C743 C 0.64113 0.67242 0.81663 0.0
C744 C 0.60754 0.63126 0.80611 0.0
C745 C 0.66012 0.65427 0.83481 0.0
C746 C 0.65276 0.62528 0.83929 0.0
C747 C 0.61778 0.58523 0.83212 0.0
C748 C 0.59095 0.57358 0.8192 0.0
C749 C 0.62626 0.61377 0.82567 0.0
C750 C 0.57309 0.59037 0.79849 0.0
C751 C 0.58124 0.61917 0.79214 0.0
H752 H 0.14719 0.16237 0.77666 0.0
H753 H 0.15018 0.17076 0.87965 0.0
H754 H 0.13009 0.12231 0.88566 0.0
H755 H 0.11114 0.07775 0.86259 0.0
H756 H 0.10877 0.06706 0.76013 0.0
H757 H 0.12913 0.116 0.75316 0.0
C758 C 0.14356 0.15353 0.80038 0.0
C759 C 0.15029 0.17043 0.82758 0.0
C760 C 0.13197 0.12521 0.80389 0.0
C761 C 0.14544 0.15846 0.85816 0.0
C762 C 0.13379 0.13067 0.86174 0.0
C763 C 0.11485 0.08606 0.83863 0.0
C764 C 0.10811 0.06872 0.81193 0.0
C765 C 0.12684 0.11394 0.83486 0.0
C766 C 0.11366 0.07986 0.78115 0.0
C767 C 0.12531 0.1079 0.77716 0.0
H768 H 0.3495 0.32289 0.56394 0.0
H769 H 0.44444 0.34254 0.58053 0.0
H770 H 0.43239 0.3942 0.5831 0.0
H771 H 0.39496 0.43364 0.57944 0.0
H772 H 0.29973 0.41363 0.56555 0.0
H773 H 0.3118 0.362 0.56321 0.0
C774 C 0.36758 0.33849 0.56803 0.0
C775 C 0.39785 0.32902 0.57168 0.0
C776 C 0.36042 0.36797 0.56997 0.0
C777 C 0.42097 0.34937 0.57758 0.0
C778 C 0.4141 0.37886 0.57899 0.0
C779 C 0.37688 0.41794 0.57586 0.0
C780 C 0.34656 0.42731 0.57234 0.0
C781 C 0.38394 0.38838 0.57501 0.0
C782 C 0.32324 0.40684 0.56831 0.0
C783 C 0.33013 0.37738 0.56688 0.0
H784 H 0.83167 0.90166 0.52747 0.0
H785 H 0.89303 0.94461 0.59232 0.0
H786 H 0.91739 0.89857 0.60538 0.0
H787 H 0.91963 0.84578 0.59993 0.0
H788 H 0.86061 0.80263 0.53285 0.0
H789 H 0.83734 0.84898 0.5182 0.0
C790 C 0.85046 0.90072 0.5443 0.0
C791 C 0.86036 0.92605 0.55948 0.0
C792 C 0.86491 0.87428 0.55089 0.0
C793 C 0.88494 0.92509 0.58087 0.0
C794 C 0.8989 0.89886 0.58819 0.0
C795 C 0.90201 0.84673 0.58175 0.0
C796 C 0.89198 0.82119 0.56714 0.0
C797 C 0.88888 0.87331 0.57357 0.0
C798 C 0.86907 0.82232 0.54376 0.0
C799 C 0.85554 0.8487 0.53572 0.0
H800 H 0.4226 0.90538 0.71253 0.0
H801 H 0.34339 0.94531 0.67041 0.0
H802 H 0.32044 0.89784 0.66139 0.0
H803 H 0.32329 0.84477 0.66482 0.0
H804 H 0.39938 0.80494 0.71283 0.0
H805 H 0.4232 0.85241 0.72055 0.0
C806 C 0.40031 0.90352 0.70148 0.0
C807 C 0.38479 0.92854 0.69179 0.0
C808 C 0.38674 0.87623 0.69753 0.0
C809 C 0.35568 0.92618 0.67801 0.0
C810 C 0.34259 0.8991 0.6728 0.0
C811 C 0.34502 0.84664 0.67704 0.0
C812 C 0.35983 0.82166 0.68799 0.0
C813 C 0.35796 0.87397 0.68234 0.0
C814 C 0.38771 0.82409 0.70426 0.0
C815 C 0.40132 0.85114 0.70856 0.0
H816 H 0.89278 0.32147 0.68024 0.0
H817 H 0.7977 0.34554 0.67779 0.0
H818 H 0.81173 0.39672 0.68098 0.0
H819 H 0.85099 0.43423 0.68571 0.0
H820 H 0.94617 0.41045 0.68485 0.0
H821 H 0.93218 0.35921 0.68166 0.0
C822 C 0.87517 0.33797 0.68046 0.0
C823 C 0.84428 0.32993 0.67917 0.0
C824 C 0.88343 0.36719 0.68175 0.0
C825 C 0.82162 0.35136 0.6788 0.0
C826 C 0.82963 0.38053 0.68072 0.0
C827 C 0.86865 0.41778 0.68494 0.0
C828 C 0.89953 0.42587 0.68594 0.0
C829 C 0.86044 0.38862 0.68246 0.0
C830 C 0.92226 0.40456 0.6842 0.0
C831 C 0.91426 0.37536 0.68243 0.0
H832 H 0.68125 0.59 0.45072 0.0
H833 H 0.59496 0.55262 0.42409 0.0
H834 H 0.57117 0.6006 0.4242 0.0
H835 H 0.57536 0.65318 0.43071 0.0
H836 H 0.66153 0.69074 0.45848 0.0
H837 H 0.68496 0.64282 0.45919 0.0
C838 C 0.65724 0.59256 0.4451 0.0
C839 C 0.6397 0.56821 0.43737 0.0
C840 C 0.64379 0.62016 0.44536 0.0
C841 C 0.60867 0.57135 0.43011 0.0
C842 C 0.59515 0.59869 0.43014 0.0
C843 C 0.59925 0.65089 0.43699 0.0
C844 C 0.61666 0.67551 0.44442 0.0
C845 C 0.61253 0.62327 0.43754 0.0
C846 C 0.64755 0.67213 0.45274 0.0
C847 C 0.66102 0.64473 0.45307 0.0
H848 H 0.11916 0.07528 0.3949 0.0
H849 H 0.17378 0.08245 0.48011 0.0
H850 H 0.15507 0.13197 0.48864 0.0
H851 H 0.12597 0.17487 0.46879 0.0
H852 H 0.07043 0.1653 0.38429 0.0
H853 H 0.08621 0.11515 0.37894 0.0
C854 C 0.12698 0.08768 0.41536 0.0
C855 C 0.14823 0.07545 0.43648 0.0
C856 C 0.11574 0.11575 0.42037 0.0
C857 C 0.15756 0.09149 0.46335 0.0
C858 C 0.14685 0.1198 0.46823 0.0
C859 C 0.11667 0.1615 0.44986 0.0
C860 C 0.09712 0.17389 0.4269 0.0
C861 C 0.12619 0.13238 0.44661 0.0
C862 C 0.08562 0.15636 0.40218 0.0
C863 C 0.09476 0.12768 0.39894 0.0
H864 H 0.67735 0.15867 0.32724 0.0
H865 H 0.5915 0.2 0.30704 0.0
H866 H 0.56654 0.15271 0.30241 0.0
H867 H 0.56859 0.09949 0.309 0.0
H868 H 0.655 0.05837 0.32727 0.0
H869 H 0.68061 0.10546 0.32732 0.0
C870 C 0.65337 0.15712 0.32103 0.0
C871 C 0.63616 0.18241 0.31725 0.0
C872 C 0.63934 0.12994 0.31834 0.0
C873 C 0.60509 0.18055 0.30956 0.0
C874 C 0.59082 0.15359 0.3072 0.0
C875 C 0.59305 0.10103 0.31255 0.0
C876 C 0.61006 0.0759 0.31837 0.0
C877 C 0.60758 0.12814 0.31229 0.0
C878 C 0.64169 0.07772 0.32287 0.0
C879 C 0.65625 0.10455 0.32294 0.0
H880 H 0.13102 0.67198 0.27877 0.0
H881 H 0.17354 0.67425 0.37182 0.0
H882 H 0.15378 0.62619 0.38364 0.0
H883 H 0.12459 0.58379 0.36814 0.0
H884 H 0.08355 0.57897 0.27461 0.0
H885 H 0.10287 0.62756 0.26218 0.0
C886 C 0.13603 0.66182 0.30153 0.0
C887 C 0.15385 0.67668 0.32435 0.0
C888 C 0.12493 0.63375 0.30806 0.0
C889 C 0.16025 0.66322 0.3537 0.0
C890 C 0.14881 0.63577 0.36056 0.0
C891 C 0.11961 0.59332 0.34502 0.0
C892 C 0.10238 0.57773 0.3224 0.0
C893 C 0.13111 0.62091 0.338 0.0
C894 C 0.09679 0.59036 0.29241 0.0
C895 C 0.10777 0.61821 0.28537 0.0
H896 H 0.26092 0.96697 0.18794 0.0
H897 H 0.30479 0.04627 0.21727 0.0
H898 H 0.27884 0.04398 0.26886 0.0
H899 H 0.24248 0.02023 0.30513 0.0
H900 H 0.19869 0.94094 0.27555 0.0
H901 H 0.22584 0.94252 0.22471 0.0
C902 C 0.26484 0.98374 0.20562 0.0
C903 C 0.28457 0.00685 0.19862 0.0
C904 C 0.2498 0.98236 0.23523 0.0
C905 C 0.2895 0.02834 0.22189 0.0
C906 C 0.27471 0.02705 0.25146 0.0
C907 C 0.23897 0.00324 0.28761 0.0
C908 C 0.21846 0.9806 0.29412 0.0
C909 C 0.25462 0.00428 0.2583 0.0
C910 C 0.2143 0.95867 0.2712 0.0
C911 C 0.22979 0.95955 0.24205 0.0
H912 H 0.05932 0.28573 0.258 0.0
H913 H 0.0075 0.23241 0.3232 0.0
H914 H 0.97365 0.21799 0.27977 0.0
H915 H 0.95956 0.21956 0.22308 0.0
H916 H 0.01024 0.27394 0.15821 0.0
H917 H 0.04416 0.28861 0.20174 0.0
C918 C 0.04049 0.27113 0.26279 0.0
C919 C 0.03604 0.26007 0.29373 0.0
C920 C 0.02121 0.26281 0.23772 0.0
C921 C 0.01149 0.2412 0.29955 0.0
C922 C 0.99219 0.23283 0.27473 0.0
C923 C 0.97822 0.23441 0.21847 0.0
C924 C 0.98275 0.24545 0.18757 0.0
C925 C 0.99709 0.24321 0.24367 0.0
C926 C 0.00651 0.26514 0.1819 0.0
C927 C 0.0258 0.27357 0.20674 0.0
H928 H 0.21587 0.29177 0.9835 0.0
H929 H 0.25396 0.21773 0.93475 0.0
H930 H 0.28046 0.20336 0.98356 0.0
H931 H 0.29239 0.21152 0.04005 0.0
H932 H 0.25427 0.28543 0.08901 0.0
H933 H 0.22782 0.29992 0.04016 0.0
C934 C 0.23019 0.27264 0.98345 0.0
C935 C 0.23304 0.25592 0.95547 0.0
C936 C 0.24503 0.26427 0.01171 0.0
C937 C 0.25142 0.23101 0.95594 0.0
C938 C 0.26649 0.22271 0.98387 0.0
C939 C 0.27811 0.23068 0.04017 0.0
C940 C 0.27524 0.24731 0.0682 0.0
C941 C 0.26327 0.23906 0.01194 0.0
C942 C 0.25683 0.27221 0.06779 0.0
C943 C 0.24179 0.28057 0.03983 0.0
H944 H 0.94935 0.02838 0.02921 0.0
H945 H 0.99924 0.96438 0.08327 0.0
H946 H 0.02919 0.95221 0.03592 0.0
H947 H 0.04144 0.95997 0.97955 0.0
H948 H 0.99235 0.02446 0.92551 0.0
H949 H 0.9615 0.03598 0.97257 0.0
C950 C 0.9668 0.01179 0.03067 0.0
C951 C 0.97206 0.99731 0.05972 0.0
C952 C 0.98388 0.00485 0.00337 0.0
C953 C 0.99472 0.97585 0.06119 0.0
C954 C 0.01182 0.96883 0.03412 0.0
C955 C 0.02383 0.97638 0.97794 0.0
C956 C 0.01912 0.99129 0.94908 0.0
C957 C 0.00655 0.98316 0.00512 0.0
C958 C 0.99639 0.01267 0.94748 0.0
C959 C 0.97881 0.01932 0.97438 0.0
H960 H 0.70982 0.95479 0.77216 0.0
H961 H 0.74023 0.0351 0.81426 0.0
H962 H 0.77007 0.04578 0.76645 0.0
H963 H 0.78709 0.03263 0.71265 0.0
H964 H 0.75677 0.95239 0.67035 0.0
H965 H 0.72713 0.94148 0.71835 0.0
C966 C 0.72307 0.97457 0.77096 0.0
C967 C 0.7228 0.99409 0.79674 0.0
C968 C 0.74004 0.98068 0.74333 0.0
C969 C 0.74005 0.01967 0.79476 0.0
C970 C 0.75708 0.02584 0.7674 0.0
C971 C 0.77397 0.01276 0.71386 0.0
C972 C 0.77412 0.99338 0.68796 0.0
C973 C 0.75712 0.00657 0.74152 0.0
C974 C 0.75702 0.96772 0.68996 0.0
C975 C 0.74011 0.96143 0.71741 0.0
H976 H 0.00664 0.72872 0.81697 0.0
H977 H 0.02563 0.81742 0.79138 0.0
H978 H -8e-05 0.8105 0.74017 0.0
H979 H 0.97228 0.77925 0.70263 0.0
H980 H 0.95302 0.69069 0.72849 0.0
H981 H 0.97907 0.69753 0.77952 0.0
C982 C 0.00497 0.74664 0.80033 0.0
C983 C 0.01795 0.77358 0.8081 0.0
C984 C 0.99044 0.74246 0.77082 0.0
C985 C 0.0157 0.79649 0.78613 0.0
C986 C 0.00115 0.79252 0.75674 0.0
C987 C 0.97403 0.76135 0.71927 0.0
C988 C 0.96081 0.73447 0.7117 0.0
C989 C 0.98861 0.76555 0.74877 0.0
C990 C 0.96305 0.71159 0.73369 0.0
C991 C 0.97782 0.71551 0.76294 0.0
H992 H 0.69619 0.78321 0.9767 0.0
H993 H 0.74298 0.71834 0.92074 0.0
H994 H 0.77354 0.705 0.96718 0.0
H995 H 0.78739 0.712 0.02336 0.0
H996 H 0.74147 0.77742 0.07925 0.0
H997 H 0.70989 0.79003 0.03317 0.0
C998 C 0.71313 0.76621 0.9746 0.0
C999 C 0.71732 0.75188 0.9452 0.0
C1000 C 0.73062 0.75858 1.00143 0.0
C1001 C 0.73931 0.72982 0.94301 0.0
C1002 C 0.75676 0.72209 0.96959 0.0
C1003 C 0.77028 0.72885 0.0256 0.0
C1004 C 0.76674 0.74369 0.05476 0.0
C1005 C 0.75258 0.7363 0.99891 0.0
C1006 C 0.74465 0.76563 0.0571 0.0
C1007 C 0.72664 0.77292 0.03073 0.0
H1008 H 0.22361 0.52795 0.7999 0.0
H1009 H 0.19731 0.44129 0.77309 0.0
H1010 H 0.22381 0.44646 0.72215 0.0
H1011 H 0.25399 0.47559 0.68479 0.0
H1012 H 0.28007 0.56247 0.71089 0.0
H1013 H 0.25398 0.55728 0.7622 0.0
C1014 C 0.22386 0.51017 0.78297 0.0
C1015 C 0.20848 0.4843 0.79032 0.0
C1016 C 0.2389 0.51338 0.75341 0.0
C1017 C 0.20883 0.46152 0.76801 0.0
C1018 C 0.22398 0.46443 0.73882 0.0
C1019 C 0.25387 0.49345 0.70161 0.0
C1020 C 0.26895 0.51938 0.69391 0.0
C1021 C 0.23892 0.49031 0.73116 0.0
C1022 C 0.26866 0.54224 0.71614 0.0
C1023 C 0.25378 0.53929 0.74557 0.0
H1024 H 0.23302 0.72438 0.44246 0.0
H1025 H 0.22716 0.81674 0.45648 0.0
H1026 H 0.24952 0.81171 0.50971 0.0
H1027 H 0.27179 0.78112 0.55181 0.0
H1028 H 0.27771 0.68881 0.5373 0.0
H1029 H 0.25387 0.69379 0.48491 0.0
C1030 C 0.23675 0.74345 0.45708 0.0
C1031 C 0.22864 0.77091 0.4454 0.0
C1032 C 0.24939 0.74039 0.4877 0.0
C1033 C 0.2333 0.79534 0.46484 0.0
C1034 C 0.24601 0.79249 0.49532 0.0
C1035 C 0.26754 0.76207 0.53734 0.0
C1036 C 0.27657 0.73465 0.54842 0.0
C1037 C 0.25419 0.76511 0.50699 0.0
C1038 C 0.27109 0.71019 0.52928 0.0
C1039 C 0.25753 0.71301 0.49927 0.0
H1040 H 0.02174 0.53294 0.4586 0.0
H1041 H 0.01468 0.43991 0.46432 0.0
H1042 H 0.99021 0.44398 0.5166 0.0
H1043 H 0.97234 0.47382 0.56151 0.0
H1044 H 0.97912 0.56683 0.55559 0.0
H1045 H 0.00246 0.56281 0.50271 0.0
C1046 C 0.01457 0.51353 0.47108 0.0
C1047 C 0.02009 0.48616 0.45747 0.0
C1048 C 0.00081 0.51599 0.50132 0.0
C1049 C 0.01068 0.46128 0.47412 0.0
C1050 C 0.99683 0.46356 0.50414 0.0
C1051 C 0.97909 0.49322 0.54874 0.0
C1052 C 0.97423 0.52058 0.56263 0.0
C1053 C 0.99216 0.49078 0.51816 0.0
C1054 C 0.98271 0.54549 0.54554 0.0
C1055 C 0.99599 0.54323 0.51524 0.0
H1056 H 0.8027 0.52749 0.22785 0.0
H1057 H 0.75315 0.46525 0.17104 0.0
H1058 H 0.72334 0.45123 0.21795 0.0
H1059 H 0.71106 0.4569 0.27494 0.0
H1060 H 0.76 0.51974 0.33148 0.0
H1061 H 0.79057 0.53303 0.28483 0.0
C1062 C 0.78535 0.51088 0.22566 0.0
C1063 C 0.78019 0.49748 0.1959 0.0
C1064 C 0.76833 0.50288 0.25273 0.0
C1065 C 0.75763 0.47594 0.19361 0.0
C1066 C 0.7406 0.46787 0.22045 0.0
C1067 C 0.72861 0.47331 0.27717 0.0
C1068 C 0.73334 0.4872 0.30673 0.0
C1069 C 0.74579 0.48115 0.25014 0.0
C1070 C 0.75593 0.50867 0.30904 0.0
C1071 C 0.77336 0.51634 0.28235 0.0
H1072 H 0.73832 0.23625 0.43908 0.0
H1073 H 0.70326 0.31899 0.46999 0.0
H1074 H 0.73057 0.31433 0.5205 0.0
H1075 H 0.76213 0.28567 0.55716 0.0
H1076 H 0.79741 0.20304 0.52625 0.0
H1077 H 0.77227 0.20881 0.47459 0.0
C1078 C 0.73693 0.25344 0.45668 0.0
C1079 C 0.71859 0.27785 0.45074 0.0
C1080 C 0.75248 0.25053 0.48588 0.0
C1081 C 0.71715 0.29993 0.47386 0.0
C1082 C 0.73266 0.29724 0.50287 0.0
C1083 C 0.76433 0.26891 0.53914 0.0
C1084 C 0.78137 0.24382 0.54574 0.0
C1085 C 0.74994 0.27241 0.50937 0.0
C1086 C 0.78427 0.2225 0.52193 0.0
C1087 C 0.76994 0.22579 0.49232 0.0
H1088 H 0.51241 0.22704 0.79887 0.0
H1089 H 0.56888 0.29309 0.75601 0.0
H1090 H 0.54317 0.28634 0.70499 0.0
H1091 H 0.50401 0.26263 0.6727 0.0
H1092 H 0.44752 0.19635 0.71493 0.0
H1093 H 0.47404 0.20212 0.76586 0.0
C1094 C 0.519 0.24002 0.7784 0.0
C1095 C 0.54237 0.26068 0.78137 0.0
C1096 C 0.50423 0.23593 0.74893 0.0
C1097 C 0.55085 0.27712 0.7545 0.0
C1098 C 0.53621 0.27326 0.72523 0.0
C1099 C 0.49761 0.24931 0.69297 0.0
C1100 C 0.47379 0.22917 0.69 0.0
C1101 C 0.51281 0.25282 0.7222 0.0
C1102 C 0.46587 0.21198 0.7165 0.0
C1103 C 0.48092 0.21535 0.74571 0.0
H1104 H 0.45685 0.02955 0.5403 0.0
H1105 H 0.50554 0.96208 0.59015 0.0
H1106 H 0.53612 0.95269 0.54233 0.0
H1107 H 0.54881 0.96357 0.48643 0.0
H1108 H 0.50005 0.03115 0.43681 0.0
H1109 H 0.46949 0.04042 0.48458 0.0
C1110 C 0.47421 0.01283 0.5408 0.0
C1111 C 0.47893 0.99655 0.56877 0.0
C1112 C 0.49154 0.00746 0.51323 0.0
C1113 C 0.50142 0.97489 0.56891 0.0
C1114 C 0.51889 0.9695 0.54158 0.0
C1115 C 0.5314 0.98024 0.48599 0.0
C1116 C 0.52666 0.99659 0.45807 0.0
C1117 C 0.51406 0.98559 0.51359 0.0
C1118 C 0.50416 0.01825 0.45799 0.0
C1119 C 0.4867 0.02359 0.4853 0.0
H1120 H 0.47075 0.70562 0.22028 0.0
H1121 H 0.49971 0.78794 0.18209 0.0
H1122 H 0.52822 0.7978 0.23103 0.0
H1123 H 0.54423 0.78345 0.28485 0.0
H1124 H 0.51476 0.70145 0.32346 0.0
H1125 H 0.48703 0.69113 0.27409 0.0
C1126 C 0.4834 0.72567 0.22257 0.0
C1127 C 0.4831 0.74601 0.19753 0.0
C1128 C 0.49952 0.73133 0.25088 0.0
C1129 C 0.49952 0.77193 0.20099 0.0
C1130 C 0.51582 0.7776 0.22899 0.0
C1131 C 0.53175 0.7633 0.28253 0.0
C1132 C 0.53154 0.74328 0.30788 0.0
C1133 C 0.51583 0.75753 0.25414 0.0
C1134 C 0.51525 0.71728 0.30438 0.0
C1135 C 0.49941 0.71134 0.27613 0.0
H1136 H 0.50313 0.47874 0.07886 0.0
H1137 H 0.43278 0.52654 0.02974 0.0
H1138 H 0.4613 0.52294 0.97975 0.0
H1139 H 0.50701 0.50735 0.9501 0.0
H1140 H 0.57757 0.46014 0.99972 0.0
H1141 H 0.54824 0.46243 0.04911 0.0
C1142 C 0.49398 0.48826 0.0572 0.0
C1143 C 0.46591 0.50294 0.05813 0.0
C1144 C 0.51059 0.4863 0.02851 0.0
C1145 C 0.45444 0.51524 0.02981 0.0
C1146 C 0.47071 0.51318 1.00114 0.0
C1147 C 0.51587 0.4974 0.97166 0.0
C1148 C 0.54446 0.48358 0.97107 0.0
C1149 C 0.49893 0.49892 1.00022 0.0
C1150 C 0.5556 0.47087 0.99933 0.0
C1151 C 0.53887 0.4722 0.02771 0.0
H1152 H 0.35321 0.03187 0.92605 0.0
H1153 H 0.35082 0.93864 0.9325 0.0
H1154 H 0.35843 0.93473 0.87506 0.0
H1155 H 0.36602 0.9573 0.82319 0.0
H1156 H 0.36867 0.05034 0.81528 0.0
H1157 H 0.36023 0.05478 0.87299 0.0
C1158 C 0.35454 0.01074 0.91485 0.0
C1159 C 0.35155 0.9856 0.93358 0.0
C1160 C 0.35864 0.00857 0.88154 0.0
C1161 C 0.35302 0.95836 0.9187 0.0
C1162 C 0.35732 0.95606 0.8858 0.0
C1163 C 0.36457 0.97861 0.83396 0.0
C1164 C 0.36795 0.00342 0.81492 0.0
C1165 C 0.36008 0.98097 0.86702 0.0
C1166 C 0.36598 0.03085 0.82937 0.0
C1167 C 0.36134 0.03341 0.8624 0.0
H1168 H 0.87928 0.30117 0.91431 0.0
H1169 H 0.87843 0.20835 0.92518 0.0
H1170 H 0.86944 0.20257 0.86786 0.0
H1171 H 0.86242 0.22403 0.81434 0.0
H1172 H 0.86172 0.31695 0.8044 0.0
H1173 H 0.87099 0.32251 0.86155 0.0
C1174 C 0.87696 0.27968 0.90417 0.0
C1175 C 0.87952 0.25527 0.92395 0.0
C1176 C 0.87183 0.27651 0.87127 0.0
C1177 C 0.87631 0.22754 0.9105 0.0
C1178 C 0.8714 0.2242 0.87768 0.0
C1179 C 0.86467 0.24545 0.82469 0.0
C1180 C 0.86173 0.27003 0.80516 0.0
C1181 C 0.86936 0.24853 0.85777 0.0
C1182 C 0.86405 0.29768 0.81893 0.0
C1183 C 0.86925 0.3009 0.85162 0.0
H1184 H 0.35957 0.29398 0.32672 0.0
H1185 H 0.379 0.20268 0.3195 0.0
H1186 H 0.38335 0.19958 0.37775 0.0
H1187 H 0.38206 0.22307 0.43079 0.0
H1188 H 0.36477 0.31478 0.43713 0.0
H1189 H 0.35871 0.31737 0.37915 0.0
C1190 C 0.3648 0.27337 0.33783 0.0
C1191 C 0.36897 0.24861 0.31876 0.0
C1192 C 0.36734 0.27178 0.37122 0.0
C1193 C 0.37585 0.22212 0.3336 0.0
C1194 C 0.37818 0.2203 0.36692 0.0
C1195 C 0.37651 0.24351 0.41946 0.0
C1196 C 0.37349 0.26865 0.43819 0.0
C1197 C 0.37388 0.24499 0.38598 0.0
C1198 C 0.36701 0.29512 0.4232 0.0
C1199 C 0.36367 0.29664 0.39006 0.0
H1200 H 0.88204 0.03253 0.32087 0.0
H1201 H 0.83697 0.95096 0.30334 0.0
H1202 H 0.82676 0.94559 0.36026 0.0
H1203 H 0.83193 0.96306 0.41492 0.0
H1204 H 0.87719 0.04432 0.43334 0.0
H1205 H 0.88615 0.05071 0.37603 0.0
C1206 C 0.86963 0.01379 0.32947 0.0
C1207 C 0.86024 0.99222 0.30789 0.0
C1208 C 0.86414 0.01061 0.36235 0.0
C1209 C 0.84443 0.96791 0.31943 0.0
C1210 C 0.83866 0.96474 0.352 0.0
C1211 C 0.84379 0.98219 0.40648 0.0
C1212 C 0.85399 0.00311 0.42835 0.0
C1213 C 0.84872 0.98577 0.37366 0.0
C1214 C 0.86922 0.02781 0.41697 0.0
C1215 C 0.87427 0.03153 0.38422 0.0
H1216 H 0.67934 0.00594 0.09315 0.0
H1217 H 0.59042 0.99854 0.04999 0.0
H1218 H 0.56652 0.99826 0.10305 0.0
H1219 H 0.57119 0.00169 0.16159 0.0
H1220 H 0.66037 0.00409 0.2048 0.0
H1221 H 0.68427 0.00463 0.15173 0.0
C1222 C 0.65474 0.00434 0.09552 0.0
C1223 C 0.63644 0.00281 0.06809 0.0
C1224 C 0.6414 0.00329 0.12593 0.0
C1225 C 0.60473 -6e-05 0.07105 0.0
C1226 C 0.59114 -0.00018 0.10126 0.0
C1227 C 0.59585 0.0023 0.15919 0.0
C1228 C 0.61418 0.00332 0.18661 0.0
C1229 C 0.60926 0.00176 0.12881 0.0
C1230 C 0.64603 0.00343 0.18371 0.0
C1231 C 0.6596 0.00381 0.15351 0.0
H1232 H 0.11471 0.77231 0.07771 0.0
H1233 H 0.11453 0.67912 0.07174 0.0
H1234 H 0.12413 0.67578 0.12916 0.0
H1235 H 0.13264 0.69923 0.18093 0.0
H1236 H 0.13113 0.79239 0.18759 0.0
H1237 H 0.12163 0.79584 0.13011 0.0
C1238 C 0.11713 0.7513 0.08895 0.0
C1239 C 0.11434 0.72599 0.07047 0.0
C1240 C 0.12194 0.74952 0.12213 0.0
C1241 C 0.11681 0.6989 0.08545 0.0
C1242 C 0.12218 0.69697 0.11828 0.0
C1243 C 0.13008 0.72031 0.16987 0.0
C1244 C 0.13267 0.7455 0.18854 0.0
C1245 C 0.12469 0.72212 0.13685 0.0
C1246 C 0.12909 0.77263 0.17382 0.0
C1247 C 0.12386 0.77463 0.14091 0.0
H1248 H 0.63041 0.78371 0.67849 0.0
H1249 H 0.63887 0.69092 0.68623 0.0
H1250 H 0.63272 0.68596 0.62868 0.0
H1251 H 0.62488 0.7075 0.57623 0.0
H1252 H 0.61737 0.80015 0.56681 0.0
H1253 H 0.6236 0.80566 0.62474 0.0
C1254 C 0.63065 0.76244 0.66753 0.0
C1255 C 0.6349 0.73771 0.68667 0.0
C1256 C 0.62758 0.75971 0.63409 0.0
C1257 C 0.63563 0.71031 0.67209 0.0
C1258 C 0.63215 0.70742 0.63914 0.0
C1259 C 0.62473 0.72896 0.58676 0.0
C1260 C 0.62066 0.75335 0.56719 0.0
C1261 C 0.62822 0.73192 0.61992 0.0
C1262 C 0.62067 0.78099 0.58129 0.0
C1263 C 0.62404 0.78414 0.61446 0.0
H1264 H 0.12435 0.04147 0.67844 0.0
H1265 H 0.12424 0.94825 0.68363 0.0
H1266 H 0.1394 0.94537 0.62739 0.0
H1267 H 0.15143 0.96949 0.57641 0.0
H1268 H 0.15328 0.06276 0.57222 0.0
H1269 H 0.13845 0.06549 0.62844 0.0
C1270 C 0.1278 0.02052 0.6673 0.0
C1271 C 0.12311 0.99513 0.68507 0.0
C1272 C 0.13654 0.01905 0.63511 0.0
C1273 C 0.1279 0.96812 0.67046 0.0
C1274 C 0.13636 0.96646 0.63827 0.0
C1275 C 0.14837 0.99039 0.58779 0.0
C1276 C 0.15309 0.0159 0.57017 0.0
C1277 C 0.14044 0.99179 0.62029 0.0
C1278 C 0.14964 0.04283 0.5853 0.0
C1279 C 0.14122 0.04441 0.61743 0.0
H1280 H 0.3677 0.52968 0.43836 0.0
H1281 H 0.39474 0.44107 0.45397 0.0
H1282 H 0.40481 0.43512 0.39692 0.0
H1283 H 0.40449 0.45445 0.34258 0.0
H1284 H 0.3758 0.54248 0.32594 0.0
H1285 H 0.36742 0.54918 0.38333 0.0
C1286 C 0.37628 0.50925 0.42927 0.0
C1287 C 0.3808 0.48592 0.45034 0.0
C1288 C 0.38123 0.50573 0.39623 0.0
C1289 C 0.39125 0.45937 0.43821 0.0
C1290 C 0.39688 0.45591 0.40559 0.0
C1291 C 0.3963 0.47511 0.35142 0.0
C1292 C 0.39069 0.49788 0.32993 0.0
C1293 C 0.39159 0.47881 0.38435 0.0
C1294 C 0.38012 0.5245 0.3419 0.0
C1295 C 0.37549 0.52841 0.37475 0.0
H1296 H 0.89531 0.72473 0.43105 0.0
H1297 H 0.86434 0.81162 0.45012 0.0
H1298 H 0.84717 0.81638 0.39468 0.0
H1299 H 0.84245 0.79629 0.34056 0.0
H1300 H 0.87633 0.71039 0.32088 0.0
H1301 H 0.89131 0.70493 0.37676 0.0
C1302 C 0.88444 0.74456 0.42313 0.0
C1303 C 0.88078 0.76772 0.44457 0.0
C1304 C 0.87559 0.74745 0.39107 0.0
C1305 C 0.86725 0.7935 0.43395 0.0
C1306 C 0.85756 0.79625 0.40229 0.0
C1307 C 0.85316 0.7764 0.34848 0.0
C1308 C 0.85828 0.75381 0.3266 0.0
C1309 C 0.86194 0.77348 0.38057 0.0
C1310 C 0.8723 0.7282 0.3372 0.0
C1311 C 0.88073 0.72498 0.36919 0.0
H1312 H 0.3818 0.79682 0.82935 0.0
H1313 H 0.36951 0.70469 0.8188 0.0
H1314 H 0.38224 0.69751 0.87505 0.0
H1315 H 0.39525 0.71765 0.92787 0.0
H1316 H 0.40889 0.80972 0.93761 0.0
H1317 H 0.39723 0.81661 0.8812 0.0
C1318 C 0.38216 0.77516 0.83931 0.0
C1319 C 0.37468 0.7514 0.81996 0.0
C1320 C 0.38952 0.77116 0.87164 0.0
C1321 C 0.37539 0.7234 0.83314 0.0
C1322 C 0.38247 0.71926 0.86538 0.0
C1323 C 0.39556 0.7392 0.91763 0.0
C1324 C 0.40264 0.76313 0.93698 0.0
C1325 C 0.38923 0.74303 0.88497 0.0
C1326 C 0.40339 0.79091 0.92329 0.0
C1327 C 0.39676 0.79491 0.89099 0.0
H1328 H 0.88824 0.53235 0.82436 0.0
H1329 H 0.83092 0.45731 0.81097 0.0
H1330 H 0.82176 0.45482 0.86837 0.0
H1331 H 0.83108 0.47275 0.92224 0.0
H1332 H 0.88842 0.5475 0.93681 0.0
H1333 H 0.8966 0.55122 0.87896 0.0
C1334 C 0.87349 0.51564 0.83397 0.0
C1335 C 0.86027 0.49504 0.81332 0.0
C1336 C 0.86854 0.51411 0.86718 0.0
C1337 C 0.8414 0.47342 0.82624 0.0
C1338 C 0.8362 0.47192 0.8591 0.0
C1339 C 0.84544 0.48989 0.91289 0.0
C1340 C 0.85928 0.50973 0.93389 0.0
C1341 C 0.84991 0.49193 0.87978 0.0
C1342 C 0.8776 0.53188 0.9212 0.0
C1343 C 0.88223 0.53404 0.88812 0.0
H1344 H 0.59691 0.47272 0.68174 0.0
H1345 H 0.62858 0.55966 0.69939 0.0
H1346 H 0.64527 0.56375 0.6438 0.0
H1347 H 0.64961 0.54318 0.58994 0.0
H1348 H 0.61636 0.45684 0.57165 0.0
H1349 H 0.60125 0.4521 0.62767 0.0
C1350 C 0.6078 0.49243 0.67351 0.0
C1351 C 0.61168 0.5158 0.6947 0.0
C1352 C 0.61669 0.49488 0.64132 0.0
C1353 C 0.62538 0.54136 0.68355 0.0
C1354 C 0.63484 0.54374 0.65175 0.0
C1355 C 0.63899 0.52333 0.59814 0.0
C1356 C 0.63407 0.50044 0.57655 0.0
C1357 C 0.63032 0.52076 0.63035 0.0
C1358 C 0.62028 0.47488 0.58767 0.0
C1359 C 0.61175 0.47209 0.61975 0.0
H1360 H 0.15533 0.19638 0.66659 0.0
H1361 H 0.12238 0.28197 0.68933 0.0
H1362 H 0.10797 0.28936 0.63351 0.0
H1363 H 0.10465 0.27147 0.57811 0.0
H1364 H 0.1355 0.18511 0.55609 0.0
H1365 H 0.15126 0.17823 0.61165 0.0
C1366 C 0.14486 0.21661 0.6594 0.0
C1367 C 0.1399 0.23854 0.68217 0.0
C1368 C 0.1366 0.22071 0.62729 0.0
C1369 C 0.12628 0.26462 0.67239 0.0
C1370 C 0.1182 0.26896 0.64041 0.0
C1371 C 0.1152 0.25131 0.58544 0.0
C1372 C 0.11924 0.22893 0.56303 0.0
C1373 C 0.12339 0.24721 0.61762 0.0
C1374 C 0.13231 0.20268 0.57293 0.0
C1375 C 0.1412 0.1987 0.60469 0.0
H1376 H 0.59606 0.20018 0.08102 0.0
H1377 H 0.62512 0.28778 0.06242 0.0
H1378 H 0.63552 0.29484 0.11931 0.0
H1379 H 0.63603 0.27619 0.17451 0.0
H1380 H 0.60928 0.18789 0.19252 0.0
H1381 H 0.59774 0.18122 0.13579 0.0
C1382 C 0.60486 0.22077 0.08935 0.0
C1383 C 0.60986 0.24337 0.06741 0.0
C1384 C 0.61077 0.2247 0.12209 0.0
C1385 C 0.62131 0.26991 0.07868 0.0
C1386 C 0.62703 0.27405 0.11128 0.0
C1387 C 0.62729 0.25562 0.16607 0.0
C1388 C 0.62313 0.23266 0.18775 0.0
C1389 C 0.62163 0.25166 0.13324 0.0
C1390 C 0.61243 0.20594 0.17633 0.0
C1391 C 0.606 0.20207 0.14388 0.0
H1392 H 0.13922 0.54713 0.08562 0.0
H1393 H 0.1329 0.45471 0.07292 0.0
H1394 H 0.11833 0.44903 0.12907 0.0
H1395 H 0.10724 0.4705 0.18208 0.0
H1396 H 0.11097 0.56318 0.19333 0.0
H1397 H 0.12701 0.56855 0.13771 0.0
C1398 C 0.13455 0.52574 0.09508 0.0
C1399 C 0.13714 0.50141 0.07506 0.0
C1400 C 0.12599 0.52266 0.1273 0.0
C1401 C 0.13085 0.47386 0.08772 0.0
C1402 C 0.12271 0.47056 0.11991 0.0
C1403 C 0.11197 0.49179 0.17239 0.0
C1404 C 0.1083 0.51639 0.19186 0.0
C1405 C 0.12033 0.49481 0.14 0.0
C1406 C 0.1138 0.54392 0.17884 0.0
C1407 C 0.12287 0.54702 0.14701 0.0
H1408 H 0.29342 0.16101 0.15357 0.0
H1409 H 0.39174 0.16146 0.15851 0.0
H1410 H 0.3939 0.11776 0.12564 0.0
H1411 H 0.36774 0.07954 0.09527 0.0
H1412 H 0.26946 0.07671 0.09427 0.0
H1413 H 0.26723 0.12145 0.12558 0.0
C1414 C 0.31528 0.15138 0.14758 0.0
C1415 C 0.34236 0.1643 0.15837 0.0
C1416 C 0.31632 0.1261 0.12912 0.0
C1417 C 0.37057 0.15164 0.15069 0.0
C1418 C 0.37184 0.12683 0.13171 0.0
C1419 C 0.34591 0.08903 0.10161 0.0
C1420 C 0.3188 0.07543 0.09212 0.0
C1421 C 0.34486 0.11399 0.12063 0.0
C1422 C 0.29057 0.0872 0.10115 0.0
C1423 C 0.2893 0.11262 0.11911 0.0
H1424 H 0.93789 0.07223 0.11578 0.0
H1425 H 0.89919 0.10699 0.2025 0.0
H1426 H 0.89491 0.15467 0.17722 0.0
H1427 H 0.90129 0.18579 0.12994 0.0
H1428 H 0.93461 0.14958 0.04171 0.0
H1429 H 0.94122 0.10248 0.06778 0.0
C1430 C 0.92851 0.09018 0.12916 0.0
C1431 C 0.91899 0.08613 0.16098 0.0
C1432 C 0.92479 0.11699 0.11402 0.0
C1433 C 0.90675 0.10963 0.17799 0.0
C1434 C 0.9042 0.1368 0.16352 0.0
C1435 C 0.90981 0.16759 0.11646 0.0
C1436 C 0.91745 0.17101 0.08408 0.0
C1437 C 0.9129 0.14062 0.13146 0.0
C1438 C 0.92831 0.14722 0.06664 0.0
C1439 C 0.9323 0.12045 0.08158 0.0
H1440 H 0.69768 0.8461 0.83218 0.0
H1441 H 0.60464 0.82625 0.85713 0.0
H1442 H 0.60111 0.87112 0.8883 0.0
H1443 H 0.62606 0.91454 0.91129 0.0
H1444 H 0.71822 0.93522 0.8831 0.0
H1445 H 0.72052 0.89175 0.85012 0.0
C1446 C 0.67652 0.85194 0.84406 0.0
C1447 C 0.65146 0.83316 0.84251 0.0
C1448 C 0.6746 0.87781 0.86147 0.0
C1449 C 0.62408 0.84072 0.85781 0.0
C1450 C 0.62216 0.8662 0.87581 0.0
C1451 C 0.64648 0.90954 0.89769 0.0
C1452 C 0.672 0.92787 0.89974 0.0
C1453 C 0.64749 0.88468 0.87827 0.0
C1454 C 0.69828 0.92141 0.88183 0.0
C1455 C 0.69966 0.89654 0.86304 0.0
H1456 H 0.04488 0.84045 0.92017 0.0
H1457 H 0.13871 0.81679 0.90454 0.0
H1458 H 0.14618 0.86008 0.87122 0.0
H1459 H 0.12501 0.90443 0.84546 0.0
H1460 H 0.03214 0.92922 0.86634 0.0
H1461 H 0.02536 0.88611 0.89888 0.0
C1462 C 0.067 0.84495 0.90958 0.0
C1463 C 0.09116 0.82557 0.91448 0.0
C1464 C 0.07125 0.87015 0.89143 0.0
C1465 C 0.11984 0.8316 0.90106 0.0
C1466 C 0.12403 0.85625 0.88197 0.0
C1467 C 0.10341 0.90036 0.85729 0.0
C1468 C 0.07908 0.91995 0.85329 0.0
C1469 C 0.0998 0.87565 0.8768 0.0
C1470 C 0.05127 0.91458 0.86903 0.0
C1471 C 0.04729 0.88985 0.8876 0.0
H1472 H 0.28721 0.67669 0.63914 0.0
H1473 H 0.38239 0.67538 0.66456 0.0
H1474 H 0.39044 0.63264 0.63086 0.0
H1475 H 0.36908 0.59302 0.59863 0.0
H1476 H 0.27287 0.59225 0.57717 0.0
H1477 H 0.26648 0.63877 0.6042 0.0
C1478 C 0.30979 0.66729 0.63668 0.0
C1479 C 0.33428 0.6791 0.65378 0.0
C1480 C 0.31395 0.64237 0.61806 0.0
C1481 C 0.36333 0.66657 0.65127 0.0
C1482 C 0.36789 0.64219 0.63209 0.0
C1483 C 0.3469 0.60342 0.59925 0.0
C1484 C 0.32148 0.58941 0.58594 0.0
C1485 C 0.34321 0.62954 0.61593 0.0
C1486 C 0.29272 0.60274 0.58734 0.0
C1487 C 0.28904 0.62922 0.60289 0.0
H1488 H 0.87735 0.66196 0.59187 0.0
H1489 H 0.96997 0.68582 0.61373 0.0
H1490 H 0.9755 0.64301 0.6478 0.0
H1491 H 0.95437 0.59785 0.66952 0.0
H1492 H 0.86075 0.5753 0.65035 0.0
H1493 H 0.85494 0.6185 0.61702 0.0
C1494 C 0.89864 0.65757 0.60416 0.0
C1495 C 0.92344 0.67632 0.6002 0.0
C1496 C 0.90136 0.6333 0.62408 0.0
C1497 C 0.95086 0.67114 0.61638 0.0
C1498 C 0.95396 0.64682 0.63582 0.0
C1499 C 0.93266 0.60269 0.65829 0.0
C1500 C 0.908 0.58373 0.66227 0.0
C1501 C 0.92945 0.62764 0.6396 0.0
C1502 C 0.87988 0.58998 0.64782 0.0
C1503 C 0.87664 0.61449 0.62861 0.0
H1504 H 0.62187 0.34398 0.33986 0.0
H1505 H 0.7164 0.32017 0.34969 0.0
H1506 H 0.72598 0.36342 0.38204 0.0
H1507 H 0.70725 0.40772 0.40798 0.0
H1508 H 0.61187 0.42954 0.40275 0.0
H1509 H 0.60263 0.38775 0.36774 0.0
C1510 C 0.6445 0.34851 0.34907 0.0
C1511 C 0.66854 0.32938 0.34238 0.0
C1512 C 0.64961 0.37306 0.36824 0.0
C1513 C 0.69774 0.33494 0.35453 0.0
C1514 C 0.70318 0.35957 0.37297 0.0
C1515 C 0.68451 0.40329 0.39897 0.0
C1516 C 0.66027 0.42153 0.40754 0.0
C1517 C 0.6793 0.37877 0.37997 0.0
C1518 C 0.63078 0.41558 0.39634 0.0
C1519 C 0.62555 0.39176 0.37638 0.0
H1520 H 0.10303 0.35552 0.44176 0.0
H1521 H 0.05882 0.30453 0.36938 0.0
H1522 H 0.05712 0.34603 0.33349 0.0
H1523 H 0.06678 0.39758 0.32312 0.0
H1524 H 0.10958 0.4495 0.39581 0.0
H1525 H 0.1132 0.40751 0.43103 0.0
C1526 C 0.09315 0.35357 0.41809 0.0
C1527 C 0.0819 0.32662 0.40775 0.0
C1528 C 0.09185 0.37793 0.39768 0.0
C1529 C 0.06886 0.32459 0.3772 0.0
C1530 C 0.06749 0.34849 0.35686 0.0
C1531 C 0.07712 0.39964 0.34657 0.0
C1532 C 0.08764 0.42681 0.35692 0.0
C1533 C 0.07894 0.37531 0.36679 0.0
C1534 C 0.10096 0.42902 0.38739 0.0
C1535 C 0.10306 0.40492 0.40757 0.0
H1536 H 0.79503 0.07284 0.625 0.0
H1537 H 0.86869 0.09505 0.56082 0.0
H1538 H 0.87303 0.14251 0.58598 0.0
H1539 H 0.85617 0.17762 0.62656 0.0
H1540 H 0.78169 0.15614 0.68947 0.0
H1541 H 0.77785 0.10795 0.66506 0.0
C1542 C 0.8121 0.08799 0.61652 0.0
C1543 C 0.83165 0.08029 0.59121 0.0
C1544 C 0.8146 0.11514 0.6312 0.0
C1545 C 0.85338 0.10038 0.5803 0.0
C1546 C 0.85598 0.12748 0.59475 0.0
C1547 C 0.83943 0.1621 0.63506 0.0
C1548 C 0.81957 0.16975 0.65993 0.0
C1549 C 0.83689 0.13497 0.62036 0.0
C1550 C 0.79737 0.15018 0.67051 0.0
C1551 C 0.7951 0.12286 0.65647 0.0
H1552 H 0.45572 0.16674 0.59919 0.0
H1553 H 0.35812 0.16885 0.58571 0.0
H1554 H 0.35262 0.12555 0.6188 0.0
H1555 H 0.37572 0.08689 0.65128 0.0
H1556 H 0.47351 0.08354 0.662 0.0
H1557 H 0.47878 0.12797 0.63077 0.0
C1558 C 0.43324 0.15767 0.6034 0.0
C1559 C 0.40738 0.17094 0.59003 0.0
C1560 C 0.43028 0.13281 0.62228 0.0
C1561 C 0.37842 0.15889 0.59556 0.0
C1562 C 0.37523 0.13428 0.61465 0.0
C1563 C 0.3981 0.09618 0.6471 0.0
C1564 C 0.42418 0.0823 0.65912 0.0
C1565 C 0.401 0.12112 0.62822 0.0
C1566 C 0.45314 0.09405 0.65303 0.0
C1567 C 0.45616 0.11931 0.6351 0.0
H1568 H 0.13749 0.83741 0.35573 0.0
H1569 H 0.23001 0.84417 0.32158 0.0
H1570 H 0.23543 0.89126 0.34774 0.0
H1571 H 0.21522 0.92882 0.38363 0.0
H1572 H 0.12484 0.91986 0.42291 0.0
H1573 H 0.11702 0.87552 0.39162 0.0
C1574 C 0.15857 0.84955 0.35357 0.0
C1575 C 0.18319 0.83765 0.33636 0.0
C1576 C 0.16195 0.87607 0.36991 0.0
C1577 C 0.21071 0.85309 0.33447 0.0
C1578 C 0.21384 0.87993 0.34953 0.0
C1579 C 0.19366 0.91733 0.38493 0.0
C1580 C 0.17047 0.9277 0.40516 0.0
C1581 C 0.18983 0.89139 0.36778 0.0
C1582 C 0.14292 0.91231 0.40731 0.0
C1583 C 0.13849 0.88698 0.38945 0.0
H1584 H 0.61462 0.8463 0.41987 0.0
H1585 H 0.52515 0.81923 0.38871 0.0
H1586 H 0.51867 0.8645 0.35971 0.0
H1587 H 0.53879 0.91144 0.34193 0.0
H1588 H 0.62956 0.93713 0.369 0.0
H1589 H 0.6351 0.8931 0.4013 0.0
C1590 C 0.59358 0.85047 0.40704 0.0
C1591 C 0.57033 0.82947 0.40672 0.0
C1592 C 0.59025 0.87634 0.38971 0.0
C1593 C 0.54338 0.83504 0.38954 0.0
C1594 C 0.53963 0.86092 0.37287 0.0
C1595 C 0.55969 0.90729 0.35505 0.0
C1596 C 0.58369 0.92726 0.35347 0.0
C1597 C 0.56296 0.88163 0.37261 0.0
C1598 C 0.61086 0.92185 0.37008 0.0
C1599 C 0.61398 0.89675 0.38847 0.0
H1600 H 0.87713 0.59239 0.10538 0.0
H1601 H 0.78184 0.59157 0.08011 0.0
H1602 H 0.7751 0.63954 0.10392 0.0
H1603 H 0.79503 0.67902 0.13717 0.0
H1604 H 0.8885 0.67677 0.16879 0.0
H1605 H 0.8976 0.63302 0.13701 0.0
C1606 C 0.8551 0.60307 0.10463 0.0
C1607 C 0.83002 0.58875 0.09105 0.0
C1608 C 0.85113 0.63001 0.11966 0.0
C1609 C 0.80138 0.60234 0.09061 0.0
C1610 C 0.79755 0.62969 0.1042 0.0
C1611 C 0.81755 0.66928 0.13638 0.0
C1612 C 0.84118 0.68106 0.15486 0.0
C1613 C 0.82207 0.64338 0.1195 0.0
C1614 C 0.87008 0.668 0.15449 0.0
C1615 C 0.87521 0.64298 0.13649 0.0
H1616 H 0.44282 0.56653 0.12433 0.0
H1617 H 0.40408 0.6019 0.21083 0.0
H1618 H 0.39962 0.6493 0.18522 0.0
H1619 H 0.40755 0.68053 0.13849 0.0
H1620 H 0.44282 0.64451 0.0509 0.0
H1621 H 0.44683 0.59673 0.07628 0.0
C1622 C 0.43322 0.58455 0.13749 0.0
C1623 C 0.42391 0.58086 0.1694 0.0
C1624 C 0.42976 0.61128 0.1223 0.0
C1625 C 0.41146 0.60434 0.18624 0.0
C1626 C 0.40883 0.63134 0.17162 0.0
C1627 C 0.41592 0.66206 0.12505 0.0
C1628 C 0.42515 0.66562 0.0932 0.0
C1629 C 0.41795 0.63499 0.13971 0.0
C1630 C 0.43552 0.64187 0.07549 0.0
C1631 C 0.43803 0.61478 0.09005 0.0
H1632 H 0.18715 0.42852 0.86657 0.0
H1633 H 0.14735 0.39595 0.95374 0.0
H1634 H 0.14434 0.34761 0.93044 0.0
H1635 H 0.1549 0.31425 0.88596 0.0
H1636 H 0.18968 0.34733 0.79688 0.0
H1637 H 0.19196 0.39622 0.81975 0.0
C1638 C 0.17702 0.41108 0.88011 0.0
C1639 C 0.16725 0.41605 0.91173 0.0
C1640 C 0.17444 0.38349 0.86618 0.0
C1641 C 0.15497 0.39288 0.92933 0.0
C1642 C 0.15324 0.36518 0.91603 0.0
C1643 C 0.16253 0.33224 0.87148 0.0
C1644 C 0.17211 0.32735 0.83989 0.0
C1645 C 0.16315 0.3602 0.88459 0.0
C1646 C 0.18196 0.35077 0.82121 0.0
C1647 C 0.18344 0.37861 0.83435 0.0
H1648 H 0.59975 0.35148 0.93289 0.0
H1649 H 0.54882 0.30325 0.86267 0.0
H1650 H 0.54806 0.34477 0.82724 0.0
H1651 H 0.55867 0.3959 0.81738 0.0
H1652 H 0.60549 0.44602 0.88888 0.0
H1653 H 0.61043 0.40327 0.92285 0.0
C1654 C 0.58885 0.35 0.90968 0.0
C1655 C 0.57532 0.32383 0.9 0.0
C1656 C 0.58718 0.37463 0.88988 0.0
C1657 C 0.56058 0.32261 0.87017 0.0
C1658 C 0.55968 0.34656 0.85003 0.0
C1659 C 0.57018 0.3974 0.84028 0.0
C1660 C 0.58147 0.42416 0.85078 0.0
C1661 C 0.57257 0.37278 0.85977 0.0
C1662 C 0.59615 0.42578 0.88058 0.0
C1663 C 0.59915 0.40126 0.89991 0.0
H1664 H 0.22558 0.051 1.00149 0.0
H1665 H 0.25342 0.96239 0.98815 0.0
H1666 H 0.2072 0.95287 0.95684 0.0
H1667 H 0.16013 0.97098 0.9302 0.0
H1668 H 0.1331 0.05981 0.94559 0.0
H1669 H 0.17747 0.06781 0.97897 0.0
C1670 C 0.22136 0.0295 0.99206 0.0
C1671 C 0.24291 0.0075 0.99704 0.0
C1672 C 0.1949 0.02424 0.9741 0.0
C1673 C 0.23703 0.97968 0.98486 0.0
C1674 C 0.21072 0.97429 0.96672 0.0
C1675 C 0.16395 0.992 0.94098 0.0
C1676 C 0.14334 0.01477 0.93502 0.0
C1677 C 0.18971 0.99658 0.96065 0.0
C1678 C 0.14851 0.04183 0.94951 0.0
C1679 C 0.17397 0.04653 0.9687 0.0
H1680 H 0.079 0.2482 0.89292 0.0
H1681 H 0.12122 0.25974 0.98505 0.0
H1682 H 0.07131 0.25679 0.01125 0.0
H1683 H 0.01596 0.24714 0.00815 0.0
H1684 H 0.97509 0.23055 0.91615 0.0
H1685 H 0.02391 0.23914 0.88974 0.0
C1686 C 0.0771 0.25066 0.91866 0.0
C1687 C 0.10352 0.2545 0.93707 0.0
C1688 C 0.04857 0.24757 0.93361 0.0
C1689 C 0.10102 0.25693 0.97046 0.0
C1690 C 0.07255 0.2551 0.98543 0.0
C1691 C 0.01781 0.24562 0.98233 0.0
C1692 C 0.99208 0.23809 0.96414 0.0
C1693 C 0.04622 0.24979 0.96731 0.0
C1694 C 0.99471 0.23598 0.93071 0.0
C1695 C 0.02257 0.24103 0.91555 0.0
H1696 H 0.27773 0.25478 0.29619 0.0
H1697 H 0.24515 0.20898 0.2133 0.0
H1698 H 0.19245 0.21315 0.23276 0.0
H1699 H 0.15653 0.22663 0.27544 0.0
H1700 H 0.18917 0.27312 0.35814 0.0
H1701 H 0.24102 0.27226 0.33659 0.0
C1702 C 0.25889 0.24622 0.28226 0.0
C1703 C 0.26484 0.2317 0.25347 0.0
C1704 C 0.22888 0.24866 0.29366 0.0
C1705 C 0.2407 0.2204 0.23546 0.0
C1706 C 0.21074 0.22267 0.24666 0.0
C1707 C 0.17496 0.23677 0.28861 0.0
C1708 C 0.16912 0.24961 0.3185 0.0
C1709 C 0.20465 0.23624 0.27604 0.0
C1710 C 0.19311 0.26304 0.33511 0.0
C1711 C 0.22277 0.26247 0.32286 0.0
H1712 H 0.98178 0.97635 0.31288 0.0
H1713 H 0.00709 0.01457 0.22245 0.0
H1714 H 0.06025 0.01715 0.23988 0.0
H1715 H 0.09901 0.01076 0.28175 0.0
H1716 H 0.07372 0.97224 0.37195 0.0
H1717 H 0.021 0.96752 0.35358 0.0
C1718 C 0.99891 0.98506 0.29682 0.0
C1719 C 0.99035 0.99536 0.2664 0.0
C1720 C 0.0294 0.98654 0.30702 0.0
C1721 C 0.01296 0.00653 0.24598 0.0
C1722 C 0.04337 0.00806 0.25596 0.0
C1723 C 0.082 0.00115 0.29732 0.0
C1724 C 0.09024 0.99199 0.32824 0.0
C1725 C 0.05177 0.99847 0.28657 0.0
C1726 C 0.06801 0.97936 0.34801 0.0
C1727 C 0.03783 0.97677 0.33756 0.0
H1728 H 0.86077 0.97666 0.04565 0.0
H1729 H 0.82461 0.9938 0.13974 0.0
H1730 H 0.77256 0.99168 0.11867 0.0
H1731 H 0.73738 0.98335 0.07369 0.0
H1732 H 0.77345 0.97084 0.97875 0.0
H1733 H 0.82565 0.9728 0.99981 0.0
C1734 C 0.84144 0.98 0.06146 0.0
C1735 C 0.84636 0.98499 0.09423 0.0
C1736 C 0.81169 0.97949 0.04902 0.0
C1737 C 0.82128 0.98987 0.11444 0.0
C1738 C 0.79157 0.98855 0.10243 0.0
C1739 C 0.75675 0.98106 0.05769 0.0
C1740 C 0.75182 0.97651 0.02487 0.0
C1741 C 0.78652 0.98308 0.06983 0.0
C1742 C 0.77689 0.97423 0.00413 0.0
C1743 C 0.80663 0.9753 0.01618 0.0
H1744 H 0.98102 0.76565 0.99073 0.0
H1745 H 0.02864 0.75491 0.0801 0.0
H1746 H 0.98037 0.74699 0.10795 0.0
H1747 H 0.92435 0.74587 0.10763 0.0
H1748 H 0.87615 0.76155 0.01954 0.0
H1749 H 0.92455 0.76458 0.99048 0.0
C1750 C 0.98069 0.7614 0.01624 0.0
C1751 C 0.00822 0.76096 0.03338 0.0
C1752 C 0.95269 0.75776 0.03235 0.0
C1753 C 0.00763 0.75567 0.06648 0.0
C1754 C 0.98006 0.75102 0.08241 0.0
C1755 C 0.9245 0.74946 0.08199 0.0
C1756 C 0.8968 0.75322 0.06567 0.0
C1757 C 0.95242 0.75236 0.0657 0.0
C1758 C 0.89726 0.75849 0.03256 0.0
C1759 C 0.92492 0.76031 0.01596 0.0
H1760 H 0.83747 0.79897 0.71297 0.0
H1761 H 0.8226 0.71258 0.67706 0.0
H1762 H 0.77414 0.71003 0.70617 0.0
H1763 H 0.73447 0.73373 0.73911 0.0
H1764 H 0.74826 0.82144 0.77114 0.0
H1765 H 0.79895 0.82198 0.74667 0.0
C1766 C 0.82379 0.77946 0.71166 0.0
C1767 C 0.83359 0.75604 0.69278 0.0
C1768 C 0.79578 0.7784 0.72786 0.0
C1769 C 0.81548 0.73098 0.69128 0.0
C1770 C 0.7878 0.7295 0.70796 0.0
C1771 C 0.74888 0.75272 0.74118 0.0
C1772 C 0.73787 0.77747 0.75702 0.0
C1773 C 0.77754 0.75323 0.726 0.0
C1774 C 0.75637 0.80217 0.75906 0.0
C1775 C 0.78526 0.80251 0.745 0.0
H1776 H 0.8922 0.97575 0.70799 0.0
H1777 H 0.92566 0.98757 0.61177 0.0
H1778 H 0.97821 0.9853 0.63116 0.0
H1779 H 0.01461 0.97865 0.67517 0.0
H1780 H 0.98161 0.97001 0.7719 0.0
H1781 H 0.92883 0.97247 0.75265 0.0
C1782 C 0.91101 0.97787 0.69127 0.0
C1783 C 0.90502 0.98148 0.6584 0.0
C1784 C 0.94119 0.97708 0.70269 0.0
C1785 C 0.92962 0.98469 0.63713 0.0
C1786 C 0.95968 0.98332 0.64821 0.0
C1787 C 0.99585 0.97728 0.69205 0.0
C1788 C 0.00196 0.97378 0.72488 0.0
C1789 C 0.96571 0.97928 0.68087 0.0
C1790 C 0.97747 0.97263 0.74653 0.0
C1791 C 0.94733 0.97397 0.73551 0.0
H1792 H 0.24242 0.50336 0.52694 0.0
H1793 H 0.28347 0.52895 0.43746 0.0
H1794 H 0.2347 0.52296 0.41023 0.0
H1795 H 0.18027 0.51201 0.41203 0.0
H1796 H 0.13793 0.48909 0.50175 0.0
H1797 H 0.18729 0.49246 0.5287 0.0
C1798 C 0.24061 0.50748 0.50147 0.0
C1799 C 0.26637 0.51665 0.48423 0.0
C1800 C 0.21231 0.50455 0.48604 0.0
C1801 C 0.26382 0.52214 0.45129 0.0
C1802 C 0.236 0.51863 0.43567 0.0
C1803 C 0.18184 0.50751 0.43744 0.0
C1804 C 0.15551 0.5002 0.45483 0.0
C1805 C 0.21007 0.51007 0.45285 0.0
C1806 C 0.1579 0.49475 0.48781 0.0
C1807 C 0.1861 0.49669 0.50324 0.0
H1808 H 0.1166 0.74706 0.45747 0.0
H1809 H 0.08417 0.75812 0.36088 0.0
H1810 H 0.03137 0.75783 0.38009 0.0
H1811 H 0.99455 0.75199 0.42406 0.0
H1812 H 0.0271 0.74313 0.52092 0.0
H1813 H 0.07986 0.74522 0.50191 0.0
C1814 C 0.09795 0.74956 0.44066 0.0
C1815 C 0.10417 0.75233 0.40779 0.0
C1816 C 0.06777 0.74972 0.45192 0.0
C1817 C 0.07989 0.75599 0.3863 0.0
C1818 C 0.04974 0.7557 0.39725 0.0
C1819 C 0.01321 0.75066 0.44102 0.0
C1820 C 0.00698 0.74712 0.47381 0.0
C1821 C 0.04342 0.7522 0.42996 0.0
C1822 C 0.03133 0.74585 0.49557 0.0
C1823 C 0.06148 0.74694 0.4847 0.0
H1824 H 0.23135 0.74922 0.74651 0.0
H1825 H 0.27258 0.72462 0.83615 0.0
H1826 H 0.22518 0.73532 0.86432 0.0
H1827 H 0.17119 0.74938 0.86334 0.0
H1828 H 0.12833 0.76959 0.77339 0.0
H1829 H 0.17713 0.76349 0.74557 0.0
C1830 C 0.22993 0.74632 0.77221 0.0
C1831 C 0.25539 0.73604 0.78917 0.0
C1832 C 0.20234 0.75197 0.78825 0.0
C1833 C 0.25321 0.73222 0.82246 0.0
C1834 C 0.22615 0.73849 0.83865 0.0
C1835 C 0.17276 0.75303 0.83776 0.0
C1836 C 0.14647 0.7603 0.82042 0.0
C1837 C 0.20051 0.74817 0.8218 0.0
C1838 C 0.14847 0.76422 0.78718 0.0
C1839 C 0.17628 0.76056 0.77127 0.0
H1840 H 0.09118 0.52428 0.79558 0.0
H1841 H 0.07241 0.4572 0.86462 0.0
H1842 H 0.02238 0.44902 0.84029 0.0
H1843 H 0.98338 0.4622 0.80064 0.0
H1844 H 0.00253 0.52931 0.73166 0.0
H1845 H 0.05322 0.53598 0.75463 0.0
C1846 C 0.07619 0.50783 0.80534 0.0
C1847 C 0.08543 0.49152 0.83205 0.0
C1848 C 0.04758 0.5032 0.79119 0.0
C1849 C 0.06584 0.47009 0.84412 0.0
C1850 C 0.03723 0.46542 0.83023 0.0
C1851 C 0.9987 0.47814 0.79043 0.0
C1852 C 0.98905 0.49531 0.76451 0.0
C1853 C 0.02778 0.48201 0.8039 0.0
C1854 C 0.00928 0.51583 0.75162 0.0
C1855 C 0.03827 0.51972 0.7648 0.0
H1856 H 0.73702 0.47648 0.57841 0.0
H1857 H 0.76777 0.48365 0.48069 0.0
H1858 H 0.82007 0.49187 0.49922 0.0
H1859 H 0.85702 0.49615 0.54321 0.0
H1860 H 0.82569 0.49133 0.64096 0.0
H1861 H 0.77346 0.48337 0.62239 0.0
C1862 C 0.75521 0.47969 0.56116 0.0
C1863 C 0.74867 0.47907 0.52821 0.0
C1864 C 0.785 0.485 0.57201 0.0
C1865 C 0.7723 0.4839 0.50616 0.0
C1866 C 0.80216 0.4886 0.51675 0.0
C1867 C 0.83875 0.49345 0.56047 0.0
C1868 C 0.84526 0.49414 0.59344 0.0
C1869 C 0.80877 0.4891 0.54961 0.0
C1870 C 0.82128 0.49095 0.61548 0.0
C1871 C 0.79145 0.48626 0.60487 0.0
H1872 H 0.99088 0.23433 0.53348 0.0
H1873 H 0.00245 0.32699 0.53702 0.0
H1874 H 0.95544 0.33182 0.56767 0.0
H1875 H 0.91068 0.31013 0.59299 0.0
H1876 H 0.89935 0.21748 0.59231 0.0
H1877 H 0.94664 0.21219 0.56146 0.0
C1878 C 0.98292 0.25554 0.5408 0.0
C1879 C -1e-05 0.28028 0.53266 0.0
C1880 C 0.95602 0.25817 0.55916 0.0
C1881 C 0.98972 0.3076 0.54284 0.0
C1882 C 0.96283 0.31041 0.56043 0.0
C1883 C 0.91861 0.28875 0.58619 0.0
C1884 C 0.90146 0.26427 0.59476 0.0
C1885 C 0.9458 0.2859 0.5687 0.0
C1886 C 0.91222 0.23669 0.58612 0.0
C1887 C 0.93916 0.23367 0.5683 0.0
H1888 H 0.76474 0.25165 0.25439 0.0
H1889 H 0.72098 0.26728 0.16363 0.0
H1890 H 0.76901 0.2584 0.13573 0.0
H1891 H 0.82412 0.24929 0.13727 0.0
H1892 H 0.86909 0.23848 0.22806 0.0
H1893 H 0.81996 0.24181 0.25585 0.0
C1894 C 0.76574 0.25287 0.22851 0.0
C1895 C 0.73946 0.2602 0.21109 0.0
C1896 C 0.79362 0.24846 0.21264 0.0
C1897 C 0.74103 0.26194 0.17758 0.0
C1898 C 0.76843 0.25675 0.16158 0.0
C1899 C 0.82297 0.24705 0.16308 0.0
C1900 C 0.8499 0.2433 0.18069 0.0
C1901 C 0.79494 0.25034 0.17888 0.0
C1902 C 0.84845 0.24119 0.21414 0.0
C1903 C 0.82045 0.24324 0.22999 0.0
H1904 H 0.91699 0.44086 0.15659 0.0
H1905 H 0.90132 0.53253 0.16678 0.0
H1906 H 0.94508 0.53628 0.20287 0.0
H1907 H 0.98799 0.5133 0.23167 0.0
H1908 H 0.00416 0.42185 0.21928 0.0
H1909 H 0.96005 0.41827 0.18413 0.0
C1910 C 0.92317 0.46169 0.16666 0.0
C1911 C 0.90592 0.48635 0.15903 0.0
C1912 C 0.94841 0.46371 0.18718 0.0
C1913 C 0.91438 0.51322 0.17208 0.0
C1914 C 0.9393 0.51536 0.19288 0.0
C1915 C 0.98164 0.49256 0.22152 0.0
C1916 C 0.99922 0.46784 0.22837 0.0
C1917 C 0.95645 0.4907 0.20071 0.0
C1918 C 0.99099 0.44121 0.21456 0.0
C1919 C 0.96578 0.43912 0.19437 0.0
H1920 H 0.7541 0.98525 0.47472 0.0
H1921 H 0.73472 0.06726 0.51961 0.0
H1922 H 0.6849 0.06881 0.49363 0.0
H1923 H 0.64821 0.0485 0.45611 0.0
H1924 H 0.66754 0.96765 0.40858 0.0
H1925 H 0.71608 0.96407 0.43741 0.0
C1926 C 0.73866 0.00314 0.4792 0.0
C1927 C 0.7479 0.02601 0.49927 0.0
C1928 C 0.71028 0.00431 0.46337 0.0
C1929 C 0.72804 0.0494 0.50435 0.0
C1930 C 0.69961 0.05035 0.48941 0.0
C1931 C 0.6629 0.02997 0.45207 0.0
C1932 C 0.65421 0.0084 0.43014 0.0
C1933 C 0.69073 0.02819 0.46849 0.0
C1934 C 0.67363 0.98457 0.42532 0.0
C1935 C 0.7014 0.98252 0.44183 0.0
H1936 H 0.50483 0.24865 0.52095 0.0
H1937 H 0.46257 0.22223 0.43245 0.0
H1938 H 0.51043 0.22976 0.40391 0.0
H1939 H 0.56459 0.24274 0.40408 0.0
H1940 H 0.6086 0.26491 0.49289 0.0
H1941 H 0.55987 0.26046 0.52131 0.0
C1942 C 0.50619 0.24459 0.49543 0.0
C1943 C 0.48027 0.23486 0.47886 0.0
C1944 C 0.53406 0.24836 0.4792 0.0
C1945 C 0.48231 0.22946 0.44583 0.0
C1946 C 0.50962 0.23391 0.42942 0.0
C1947 C 0.56337 0.24697 0.42958 0.0
C1948 C 0.5899 0.25452 0.44638 0.0
C1949 C 0.53564 0.24328 0.44585 0.0
C1950 C 0.5883 0.25924 0.47952 0.0
C1951 C 0.56051 0.25662 0.49574 0.0
H1952 H 0.75023 0.2733 0.76324 0.0
H1953 H 0.75614 0.18008 0.76554 0.0
H1954 H 0.71055 0.17771 0.79867 0.0
H1955 H 0.66894 0.20155 0.82662 0.0
H1956 H 0.66212 0.29458 0.82646 0.0
H1957 H 0.70838 0.29768 0.79333 0.0
C1958 C 0.74125 0.25252 0.77072 0.0
C1959 C 0.75636 0.22687 0.76162 0.0
C1960 C 0.71513 0.25128 0.79044 0.0
C1961 C 0.74488 0.20011 0.77205 0.0
C1962 C 0.71885 0.19871 0.7911 0.0
C1963 C 0.67759 0.22257 0.81946 0.0
C1964 C 0.66208 0.24779 0.82883 0.0
C1965 C 0.70386 0.22409 0.80046 0.0
C1966 C 0.67379 0.27485 0.81969 0.0
C1967 C 0.70007 0.27658 0.80055 0.0
H1968 H 0.4799 0.99401 0.8169 0.0
H1969 H 0.50716 0.01378 0.72023 0.0
H1970 H 0.56099 0.00976 0.73563 0.0
H1971 H 0.60006 0.00449 0.77779 0.0
H1972 H 0.57228 0.98266 0.87383 0.0
H1973 H 0.51879 0.98331 0.8574 0.0
C1974 C 0.49764 0.99721 0.79914 0.0
C1975 C 0.48967 0.00457 0.76759 0.0
C1976 C 0.52837 0.99455 0.80809 0.0
C1977 C 0.5128 0.00815 0.74467 0.0
C1978 C 0.54353 0.00597 0.75351 0.0
C1979 C 0.58228 -0.00049 0.795 0.0
C1980 C 0.59007 0.99381 0.82705 0.0
C1981 C 0.55156 -0.00026 0.78531 0.0
C1982 C 0.56689 0.98705 0.84903 0.0
C1983 C 0.53629 0.9876 0.83969 0.0
H1984 H 0.26747 0.93422 0.53782 0.0
H1985 H 0.267 0.02491 0.51363 0.0
H1986 H 0.31261 0.03257 0.54625 0.0
H1987 H 0.35203 0.01354 0.58313 0.0
H1988 H 0.35349 0.92222 0.60435 0.0
H1989 H 0.308 0.91487 0.57189 0.0
C1990 C 0.27746 0.95563 0.53949 0.0
C1991 C 0.26379 0.97894 0.52337 0.0
C1992 C 0.30372 0.95984 0.55813 0.0
C1993 C 0.27716 0.00653 0.52563 0.0
C1994 C 0.30314 0.01097 0.54448 0.0
C1995 C 0.34223 0.9921 0.58071 0.0
C1996 C 0.35587 0.96852 0.59644 0.0
C1997 C 0.31645 0.98784 0.56115 0.0
C1998 C 0.34333 0.94076 0.59263 0.0
C1999 C 0.31734 0.93649 0.574 0.0
H2000 H 0.39679 0.74187 0.52625 0.0
H2001 H 0.42657 0.74017 0.62455 0.0
H2002 H 0.47966 0.74436 0.60727 0.0
H2003 H 0.51707 0.75287 0.56452 0.0
H2004 H 0.48821 0.75196 0.46601 0.0
H2005 H 0.43519 0.74419 0.48297 0.0
C2006 C 0.41499 0.74197 0.54381 0.0
C2007 C 0.40781 0.74099 0.57661 0.0
C2008 C 0.44549 0.74416 0.53367 0.0
C2009 C 0.43153 0.74081 0.59916 0.0
C2010 C 0.46187 0.74342 0.58931 0.0
C2011 C 0.49916 0.75071 0.54678 0.0
C2012 C 0.50629 0.75341 0.51412 0.0
C2013 C 0.46902 0.74581 0.5567 0.0
C2014 C 0.48313 0.75003 0.49128 0.0
C2015 C 0.45288 0.74571 0.50099 0.0
H2016 H 0.36089 0.75809 0.21783 0.0
H2017 H 0.32977 0.75804 0.11993 0.0
H2018 H 0.2768 0.76001 0.13825 0.0
H2019 H 0.23945 0.76355 0.18202 0.0
H2020 H 0.27017 0.76132 0.27995 0.0
H2021 H 0.32326 0.75831 0.26169 0.0
C2022 C 0.34252 0.75846 0.20048 0.0
C2023 C 0.34933 0.75825 0.16752 0.0
C2024 C 0.31209 0.75923 0.21121 0.0
C2025 C 0.32522 0.75829 0.1454 0.0
C2026 C 0.29491 0.75947 0.15587 0.0
C2027 C 0.25777 0.76235 0.19939 0.0
C2028 C 0.25094 0.76295 0.23232 0.0
C2029 C 0.28811 0.76025 0.1887 0.0
C2030 C 0.27485 0.76088 0.2545 0.0
C2031 C 0.30519 0.75927 0.24406 0.0
H2032 H 0.51313 0.96958 0.182 0.0
H2033 H 0.47887 0.99546 0.27447 0.0
H2034 H 0.42797 0.00251 0.25165 0.0
H2035 H 0.39262 0.99879 0.20586 0.0
H2036 H 0.42747 0.97597 0.11285 0.0
H2037 H 0.47887 0.97029 0.13529 0.0
C2038 C 0.49449 0.97666 0.19719 0.0
C2039 C 0.49961 0.98144 0.23005 0.0
C2040 C 0.4655 0.98133 0.18374 0.0
C2041 C 0.47543 0.99134 0.24922 0.0
C2042 C 0.44635 0.9954 0.23617 0.0
C2043 C 0.41168 0.9931 0.1905 0.0
C2044 C 0.40655 0.98798 0.1578 0.0
C2045 C 0.44107 0.99019 0.20354 0.0
C2046 C 0.43115 0.98049 0.13799 0.0
C2047 C 0.4604 0.97697 0.15089 0.0
H2048 H 0.66486 0.56182 0.94571 0.0
H2049 H 0.67497 0.47132 0.92248 0.0
H2050 H 0.72227 0.46933 0.95334 0.0
H2051 H 0.76114 0.49359 0.98633 0.0
H2052 H 0.75189 0.58455 0.00728 0.0
H2053 H 0.70353 0.58599 0.97829 0.0
C2054 C 0.67737 0.54163 0.9474 0.0
C2055 C 0.66641 0.51676 0.93187 0.0
C2056 C 0.70453 0.54068 0.96502 0.0
C2057 C 0.683 0.49082 0.93412 0.0
C2058 C 0.70996 0.48963 0.95189 0.0
C2059 C 0.74824 0.51358 0.98494 0.0
C2060 C 0.75979 0.53887 0.99913 0.0
C2061 C 0.72091 0.51442 0.96748 0.0
C2062 C 0.7433 0.56481 0.99661 0.0
C2063 C 0.71575 0.56566 0.97996 0.0
H2064 H 0.60392 0.69735 0.94653 0.0
H2065 H 0.5797 0.77726 0.89963 0.0
H2066 H 0.53494 0.78196 0.93427 0.0
H2067 H 0.50131 0.76207 0.97643 0.0
H2068 H 0.52468 0.68094 0.02093 0.0
H2069 H 0.57147 0.67832 0.98922 0.0
C2070 C 0.58891 0.71584 0.94384 0.0
C2071 C 0.59511 0.73681 0.92033 0.0
C2072 C 0.5632 0.71834 0.96372 0.0
C2073 C 0.57539 0.76067 0.91735 0.0
C2074 C 0.54984 0.76344 0.93726 0.0
C2075 C 0.51705 0.7442 0.97963 0.0
C2076 C 0.50983 0.72188 1.00121 0.0
C2077 C 0.54341 0.74232 0.96043 0.0
C2078 C 0.52994 0.69844 0.0046 0.0
C2079 C 0.55657 0.69685 0.98634 0.0
H2080 H 0.66071 0.68484 0.33696 0.0
H2081 H 0.65863 0.7777 0.34724 0.0
H2082 H 0.70431 0.78182 0.31373 0.0
H2083 H 0.74521 0.75879 0.28175 0.0
H2084 H 0.74764 0.66574 0.27363 0.0
H2085 H 0.70129 0.66201 0.30572 0.0
C2086 C 0.67021 0.70602 0.33192 0.0
C2087 C 0.65622 0.73092 0.34461 0.0
C2088 C 0.69646 0.7082 0.31278 0.0
C2089 C 0.66901 0.75816 0.33794 0.0
C2090 C 0.69505 0.76053 0.31864 0.0
C2091 C 0.73535 0.73774 0.2867 0.0
C2092 C 0.74973 0.71258 0.27508 0.0
C2093 C 0.70896 0.73569 0.30585 0.0
C2094 C 0.73699 0.68544 0.28218 0.0
C2095 C 0.71052 0.68327 0.30062 0.0
H2096 H 0.52497 0.5108 0.2423 0.0
H2097 H 0.47447 0.50646 0.33064 0.0
H2098 H 0.52133 0.49608 0.36017 0.0
H2099 H 0.57728 0.492 0.36148 0.0
H2100 H 0.62852 0.50209 0.2742 0.0
H2101 H 0.58115 0.50617 0.2436 0.0
C2102 C 0.52437 0.50722 0.26794 0.0
C2103 C 0.49654 0.50931 0.28438 0.0
C2104 C 0.5516 0.50235 0.28493 0.0
C2105 C 0.49583 0.50507 0.31763 0.0
C2106 C 0.52256 0.4991 0.33449 0.0
C2107 C 0.57794 0.49449 0.33569 0.0
C2108 C 0.60617 0.49643 0.31998 0.0
C2109 C 0.55066 0.49817 0.3185 0.0
C2110 C 0.60691 0.5004 0.28668 0.0
C2111 C 0.57987 0.50284 0.26922 0.0
H2112 H 0.36246 0.47693 0.05571 0.0
H2113 H 0.32476 0.48928 0.14999 0.0
H2114 H 0.27298 0.48807 0.12784 0.0
H2115 H 0.23867 0.48191 0.08181 0.0
H2116 H 0.27628 0.47368 0.98692 0.0
H2117 H 0.3281 0.47505 0.00901 0.0
C2118 C 0.34283 0.47943 0.0713 0.0
C2119 C 0.34716 0.48289 0.1044 0.0
C2120 C 0.31331 0.47943 0.05828 0.0
C2121 C 0.32179 0.48664 0.12444 0.0
C2122 C 0.29228 0.48583 0.11179 0.0
C2123 C 0.25826 0.48045 0.066 0.0
C2124 C 0.25383 0.47728 0.03287 0.0
C2125 C 0.2878 0.48198 0.0788 0.0
C2126 C 0.27926 0.47603 0.01251 0.0
C2127 C 0.3088 0.47674 0.02514 0.0
H2128 H 0.42844 0.2715 0.11919 0.0
H2129 H 0.37553 0.24666 0.03692 0.0
H2130 H 0.42142 0.24763 0.00337 0.0
H2131 H 0.47638 0.2577 0.99711 0.0
H2132 H 0.52799 0.28729 0.07861 0.0
H2133 H 0.48305 0.28259 0.1127 0.0
C2134 C 0.42722 0.26595 0.094 0.0
C2135 C 0.39903 0.25865 0.08043 0.0
C2136 C 0.45339 0.26778 0.07468 0.0
C2137 C 0.39724 0.25216 0.0477 0.0
C2138 C 0.42339 0.2528 0.02857 0.0
C2139 C 0.47771 0.26303 0.02234 0.0
C2140 C 0.50538 0.27289 0.0353 0.0
C2141 C 0.45155 0.26095 0.0417 0.0
C2142 C 0.50683 0.27993 0.06799 0.0
C2143 C 0.48119 0.27711 0.08756 0.0
H2144 H 0.3251 0.26002 0.63246 0.0
H2145 H 0.37995 0.25582 0.7178 0.0
H2146 H 0.33396 0.25604 0.75101 0.0
H2147 H 0.27792 0.25978 0.75592 0.0
H2148 H 0.22365 0.26894 0.6706 0.0
H2149 H 0.26927 0.2644 0.63736 0.0
C2150 C 0.32684 0.25884 0.65831 0.0
C2151 C 0.35571 0.25777 0.67273 0.0
C2152 C 0.30034 0.26009 0.67729 0.0
C2153 C 0.35785 0.25674 0.70624 0.0
C2154 C 0.33159 0.25686 0.72523 0.0
C2155 C 0.2762 0.26061 0.73006 0.0
C2156 C 0.2476 0.26475 0.71571 0.0
C2157 C 0.3027 0.25891 0.71107 0.0
C2158 C 0.24555 0.26605 0.68218 0.0
C2159 C 0.27159 0.26336 0.66314 0.0
H2160 H 0.4823 0.51533 0.72419 0.0
H2161 H 0.48757 0.42215 0.72115 0.0
H2162 H 0.44137 0.42022 0.68877 0.0
H2163 H 0.39919 0.44477 0.66176 0.0
H2164 H 0.39477 0.53796 0.66186 0.0
H2165 H 0.44103 0.54019 0.69466 0.0
C2166 C 0.47313 0.49464 0.71664 0.0
C2167 C 0.48809 0.4689 0.72542 0.0
C2168 C 0.44685 0.4937 0.69734 0.0
C2169 C 0.47638 0.44225 0.71488 0.0
C2170 C 0.44999 0.44111 0.69632 0.0
C2171 C 0.40838 0.46558 0.66896 0.0
C2172 C 0.39351 0.49115 0.6597 0.0
C2173 C 0.43503 0.46666 0.68746 0.0
C2174 C 0.4059 0.51797 0.66869 0.0
C2175 C 0.43223 0.51924 0.68757 0.0
loop_
_geom_bond_atom_site_label_1
_geom_bond_atom_site_label_2
_geom_bond_distance
_geom_bond_site_symmetry_2
_ccdc_geom_bond_type
Zn0 O6 1.969 . S
Zn0 O7 1.965 1_565 S
Zn0 O11 2.024 1_565 S
Zn0 O16 1.969 . S
Zn1 O8 1.969 . S
Zn1 O14 1.969 1_554 S
Zn1 O15 1.965 1_545 S
Zn1 O17 2.024 1_545 S
C2 O3 1.229 . S
C2 O11 1.058 1_565 S
O3 C2 1.229 . S
C4 O5 1.236 . S
C4 O17 1.049 1_546 S
O5 C4 1.236 . S
O6 Zn0 1.969 . S
O6 C9 1.267 1_565 S
O7 Zn0 1.965 1_545 S
O7 C18 1.260 . S
O8 Zn1 1.969 . S
O8 C18 1.258 . S
C9 O6 1.267 1_545 S
C9 O10 1.228 . S
O10 C9 1.228 . S
O11 Zn0 2.024 1_545 S
O11 C2 1.058 1_545 S
C12 O13 1.228 1_545 S
C12 O14 1.267 . S
O13 C12 1.228 1_565 S
O14 Zn1 1.969 1_556 S
O14 C12 1.267 . S
O15 Zn1 1.965 1_565 S
O15 C19 1.260 . S
O16 Zn0 1.969 . S
O16 C19 1.258 . S
O17 Zn1 2.024 1_565 S
O17 C4 1.049 1_564 S
C18 O7 1.260 . S
C18 O8 1.258 . S
C19 O15 1.260 . S
C19 O16 1.258 . S
Zn20 O26 1.969 . S
Zn20 O27 1.965 . S
Zn20 O31 2.024 . S
Zn20 O36 1.969 . S
Zn21 O28 1.969 . S
Zn21 O34 1.969 1_554 S
Zn21 O35 1.965 . S
Zn21 O37 2.024 . S
C22 O23 1.229 . S
C22 O31 1.058 . S
O23 C22 1.229 . S
C24 O25 1.236 . S
C24 O37 1.049 1_556 S
O25 C24 1.236 . S
O26 Zn20 1.969 . S
O26 C29 1.267 . S
O27 Zn20 1.965 . S
O27 C38 1.260 . S
O28 Zn21 1.969 . S
O28 C38 1.258 . S
C29 O26 1.267 . S
C29 O30 1.228 . S
O30 C29 1.228 . S
O31 Zn20 2.024 . S
O31 C22 1.058 . S
C32 O33 1.228 . S
C32 O34 1.267 . S
O33 C32 1.228 . S
O34 Zn21 1.969 1_556 S
O34 C32 1.267 . S
O35 Zn21 1.965 . S
O35 C39 1.260 . S
O36 Zn20 1.969 . S
O36 C39 1.258 . S
O37 Zn21 2.024 . S
O37 C24 1.049 1_554 S
C38 O27 1.260 . S
C38 O28 1.258 . S
C39 O35 1.260 . S
C39 O36 1.258 . S
Zn40 O46 1.969 . S
Zn40 O47 1.965 . S
Zn40 O51 2.024 . S
Zn40 O56 1.969 . S
Zn41 O48 1.969 . S
Zn41 O54 1.969 . S
Zn41 O55 1.965 . S
Zn41 O57 2.024 . S
C42 O43 1.229 . S
C42 O51 1.058 . S
O43 C42 1.229 . S
C44 O45 1.229 . S
C44 O57 1.058 . S
O45 C44 1.229 . S
O46 Zn40 1.969 . S
O46 C49 1.267 . S
O47 Zn40 1.965 . S
O47 C58 1.260 . S
O48 Zn41 1.969 . S
O48 C58 1.258 . S
C49 O46 1.267 . S
C49 O50 1.228 . S
O50 C49 1.228 . S
O51 Zn40 2.024 . S
O51 C42 1.058 . S
C52 O53 1.228 . S
C52 O54 1.267 . S
O53 C52 1.228 . S
O54 Zn41 1.969 . S
O54 C52 1.267 . S
O55 Zn41 1.965 . S
O55 C59 1.260 . S
O56 Zn40 1.969 . S
O56 C59 1.258 . S
O57 Zn41 2.024 . S
O57 C44 1.058 . S
C58 O47 1.260 . S
C58 O48 1.258 . S
C59 O55 1.260 . S
C59 O56 1.258 . S
Zn60 O66 1.969 . S
Zn60 O67 1.965 1_565 S
Zn60 O71 2.024 1_565 S
Zn60 O76 1.969 . S
Zn61 O68 1.969 . S
Zn61 O74 1.969 . S
Zn61 O75 1.965 1_545 S
Zn61 O77 2.024 1_545 S
C62 O63 1.229 . S
C62 O71 1.058 1_565 S
O63 C62 1.229 . S
C64 O65 1.229 . S
C64 O77 1.058 1_545 S
O65 C64 1.229 . S
O66 Zn60 1.969 . S
O66 C69 1.267 1_565 S
O67 Zn60 1.965 1_545 S
O67 C78 1.260 . S
O68 Zn61 1.969 . S
O68 C78 1.258 . S
C69 O66 1.267 1_545 S
C69 O70 1.228 . S
O70 C69 1.228 . S
O71 Zn60 2.024 1_545 S
O71 C62 1.058 1_545 S
C72 O73 1.228 1_545 S
C72 O74 1.267 . S
O73 C72 1.228 1_565 S
O74 Zn61 1.969 . S
O74 C72 1.267 . S
O75 Zn61 1.965 1_565 S
O75 C79 1.260 . S
O76 Zn60 1.969 . S
O76 C79 1.258 . S
O77 Zn61 2.024 1_565 S
O77 C64 1.058 1_565 S
C78 O67 1.260 . S
C78 O68 1.258 . S
C79 O75 1.260 . S
C79 O76 1.258 . S
Zn80 O86 1.969 1_556 S
Zn80 O87 1.965 1_565 S
Zn80 O91 2.024 1_565 S
Zn80 O96 1.969 . S
Zn81 O88 1.969 . S
Zn81 O94 1.969 . S
Zn81 O95 1.965 1_545 S
Zn81 O97 2.024 1_545 S
C82 O83 1.236 . S
C82 O91 1.049 1_564 S
O83 C82 1.236 . S
C84 O85 1.229 . S
C84 O97 1.058 1_545 S
O85 C84 1.229 . S
O86 Zn80 1.969 1_554 S
O86 C89 1.267 . S
O87 Zn80 1.965 1_545 S
O87 C98 1.260 . S
O88 Zn81 1.969 . S
O88 C98 1.258 . S
C89 O86 1.267 . S
C89 O90 1.228 1_565 S
O90 C89 1.228 1_545 S
O91 Zn80 2.024 1_545 S
O91 C82 1.049 1_546 S
C92 O93 1.228 . S
C92 O94 1.267 1_565 S
O93 C92 1.228 . S
O94 Zn81 1.969 . S
O94 C92 1.267 1_545 S
O95 Zn81 1.965 1_565 S
O95 C99 1.260 . S
O96 Zn80 1.969 . S
O96 C99 1.258 . S
O97 Zn81 2.024 1_565 S
O97 C84 1.058 1_565 S
C98 O87 1.260 . S
C98 O88 1.258 . S
C99 O95 1.260 . S
C99 O96 1.258 . S
Zn100 O106 1.969 1_556 S
Zn100 O107 1.965 . S
Zn100 O111 2.024 . S
Zn100 O116 1.969 . S
Zn101 O108 1.969 . S
Zn101 O114 1.969 . S
Zn101 O115 1.965 . S
Zn101 O117 2.024 . S
C102 O103 1.236 . S
C102 O111 1.049 1_554 S
O103 C102 1.236 . S
C104 O105 1.229 . S
C104 O117 1.058 . S
O105 C104 1.229 . S
O106 Zn100 1.969 1_554 S
O106 C109 1.267 . S
O107 Zn100 1.965 . S
O107 C118 1.260 . S
O108 Zn101 1.969 . S
O108 C118 1.258 . S
C109 O106 1.267 . S
C109 O110 1.228 . S
O110 C109 1.228 . S
O111 Zn100 2.024 . S
O111 C102 1.049 1_556 S
C112 O113 1.228 . S
C112 O114 1.267 . S
O113 C112 1.228 . S
O114 Zn101 1.969 . S
O114 C112 1.267 . S
O115 Zn101 1.965 . S
O115 C119 1.260 . S
O116 Zn100 1.969 . S
O116 C119 1.258 . S
O117 Zn101 2.024 . S
O117 C104 1.058 . S
C118 O107 1.260 . S
C118 O108 1.258 . S
C119 O115 1.260 . S
C119 O116 1.258 . S
Zn120 O126 1.969 . S
Zn120 O127 1.965 . S
Zn120 O131 2.024 . S
Zn120 O136 1.969 . S
Zn121 O128 1.969 . S
Zn121 O134 1.969 . S
Zn121 O135 1.965 . S
Zn121 O137 2.024 . S
C122 O123 1.229 . S
C122 O131 1.058 . S
O123 C122 1.229 . S
C124 O125 1.229 . S
C124 O137 1.058 . S
O125 C124 1.229 . S
O126 Zn120 1.969 . S
O126 C129 1.267 . S
O127 Zn120 1.965 . S
O127 C138 1.260 . S
O128 Zn121 1.969 . S
O128 C138 1.258 . S
C129 O126 1.267 . S
C129 O130 1.228 . S
O130 C129 1.228 . S
O131 Zn120 2.024 . S
O131 C122 1.058 . S
C132 O133 1.228 . S
C132 O134 1.267 . S
O133 C132 1.228 . S
O134 Zn121 1.969 . S
O134 C132 1.267 . S
O135 Zn121 1.965 . S
O135 C139 1.260 . S
O136 Zn120 1.969 . S
O136 C139 1.258 . S
O137 Zn121 2.024 . S
O137 C124 1.058 . S
C138 O127 1.260 . S
C138 O128 1.258 . S
C139 O135 1.260 . S
C139 O136 1.258 . S
Zn140 O146 1.969 . S
Zn140 O147 1.965 1_565 S
Zn140 O151 2.024 1_565 S
Zn140 O156 1.969 . S
Zn141 O148 1.969 . S
Zn141 O154 1.969 . S
Zn141 O155 1.965 1_545 S
Zn141 O157 2.024 1_545 S
C142 O143 1.229 . S
C142 O151 1.058 1_565 S
O143 C142 1.229 . S
C144 O145 1.229 . S
C144 O157 1.058 1_545 S
O145 C144 1.229 . S
O146 Zn140 1.969 . S
O146 C149 1.267 . S
O147 Zn140 1.965 1_545 S
O147 C158 1.260 . S
O148 Zn141 1.969 . S
O148 C158 1.258 . S
C149 O146 1.267 . S
C149 O150 1.228 1_565 S
O150 C149 1.228 1_545 S
O151 Zn140 2.024 1_545 S
O151 C142 1.058 1_545 S
C152 O153 1.228 . S
C152 O154 1.267 1_565 S
O153 C152 1.228 . S
O154 Zn141 1.969 . S
O154 C152 1.267 1_545 S
O155 Zn141 1.965 1_565 S
O155 C159 1.260 . S
O156 Zn140 1.969 . S
O156 C159 1.258 . S
O157 Zn141 2.024 1_565 S
O157 C144 1.058 1_565 S
C158 O147 1.260 . S
C158 O148 1.258 . S
C159 O155 1.260 . S
C159 O156 1.258 . S
Zn160 O166 1.969 . S
Zn160 O167 1.965 . S
Zn160 O171 2.024 . S
Zn160 O176 1.969 . S
Zn161 O168 1.969 . S
Zn161 O174 1.969 . S
Zn161 O175 1.965 . S
Zn161 O177 2.024 . S
C162 O163 1.229 . S
C162 O171 1.058 . S
O163 C162 1.229 . S
C164 O165 1.229 . S
C164 O177 1.058 . S
O165 C164 1.229 . S
O166 Zn160 1.969 . S
O166 C169 1.267 . S
O167 Zn160 1.965 . S
O167 C178 1.260 . S
O168 Zn161 1.969 . S
O168 C178 1.258 . S
C169 O166 1.267 . S
C169 O170 1.228 . S
O170 C169 1.228 . S
O171 Zn160 2.024 . S
O171 C162 1.058 . S
C172 O173 1.228 . S
C172 O174 1.267 . S
O173 C172 1.228 . S
O174 Zn161 1.969 . S
O174 C172 1.267 . S
O175 Zn161 1.965 . S
O175 C179 1.260 . S
O176 Zn160 1.969 . S
O176 C179 1.258 . S
O177 Zn161 2.024 . S
O177 C164 1.058 . S
C178 O167 1.260 . S
C178 O168 1.258 . S
C179 O175 1.260 . S
C179 O176 1.258 . S
Zn180 O186 1.969 . S
Zn180 O187 1.965 . S
Zn180 O191 2.024 . S
Zn180 O196 1.969 . S
Zn181 O188 1.969 . S
Zn181 O194 1.969 . S
Zn181 O195 1.965 . S
Zn181 O197 2.024 . S
C182 O183 1.229 . S
C182 O191 1.058 . S
O183 C182 1.229 . S
C184 O185 1.229 . S
C184 O197 1.058 . S
O185 C184 1.229 . S
O186 Zn180 1.969 . S
O186 C189 1.267 . S
O187 Zn180 1.965 . S
O187 C198 1.260 . S
O188 Zn181 1.969 . S
O188 C198 1.258 . S
C189 O186 1.267 . S
C189 O190 1.228 . S
O190 C189 1.228 . S
O191 Zn180 2.024 . S
O191 C182 1.058 . S
C192 O193 1.228 . S
C192 O194 1.267 . S
O193 C192 1.228 . S
O194 Zn181 1.969 . S
O194 C192 1.267 . S
O195 Zn181 1.965 . S
O195 C199 1.260 . S
O196 Zn180 1.969 . S
O196 C199 1.258 . S
O197 Zn181 2.024 . S
O197 C184 1.058 . S
C198 O187 1.260 . S
C198 O188 1.258 . S
C199 O195 1.260 . S
C199 O196 1.258 . S
Zn200 O206 1.969 . S
Zn200 O207 1.965 . S
Zn200 O211 2.024 . S
Zn200 O216 1.969 . S
Zn201 O208 1.969 . S
Zn201 O214 1.969 . S
Zn201 O215 1.965 . S
Zn201 O217 2.024 . S
C202 O203 1.229 . S
C202 O211 1.058 . S
O203 C202 1.229 . S
C204 O205 1.229 . S
C204 O217 1.058 . S
O205 C204 1.229 . S
O206 Zn200 1.969 . S
O206 C209 1.267 . S
O207 Zn200 1.965 . S
O207 C218 1.260 . S
O208 Zn201 1.969 . S
O208 C218 1.258 . S
C209 O206 1.267 . S
C209 O210 1.228 . S
O210 C209 1.228 . S
O211 Zn200 2.024 . S
O211 C202 1.058 . S
C212 O213 1.228 . S
C212 O214 1.267 . S
O213 C212 1.228 . S
O214 Zn201 1.969 . S
O214 C212 1.267 . S
O215 Zn201 1.965 . S
O215 C219 1.260 . S
O216 Zn200 1.969 . S
O216 C219 1.258 . S
O217 Zn201 2.024 . S
O217 C204 1.058 . S
C218 O207 1.260 . S
C218 O208 1.258 . S
C219 O215 1.260 . S
C219 O216 1.258 . S
Zn220 O226 1.969 . S
Zn220 O227 1.965 . S
Zn220 O231 2.024 . S
Zn220 O236 1.969 . S
Zn221 O228 1.969 . S
Zn221 O234 1.969 . S
Zn221 O235 1.965 . S
Zn221 O237 2.024 . S
C222 O223 1.229 . S
C222 O231 1.058 . S
O223 C222 1.229 . S
C224 O225 1.229 . S
C224 O237 1.058 . S
O225 C224 1.229 . S
O226 Zn220 1.969 . S
O226 C229 1.267 . S
O227 Zn220 1.965 . S
O227 C238 1.260 . S
O228 Zn221 1.969 . S
O228 C238 1.258 . S
C229 O226 1.267 . S
C229 O230 1.228 . S
O230 C229 1.228 . S
O231 Zn220 2.024 . S
O231 C222 1.058 . S
C232 O233 1.228 . S
C232 O234 1.267 . S
O233 C232 1.228 . S
O234 Zn221 1.969 . S
O234 C232 1.267 . S
O235 Zn221 1.965 . S
O235 C239 1.260 . S
O236 Zn220 1.969 . S
O236 C239 1.258 . S
O237 Zn221 2.024 . S
O237 C224 1.058 . S
C238 O227 1.260 . S
C238 O228 1.258 . S
C239 O235 1.260 . S
C239 O236 1.258 . S
Zn240 O246 1.969 . S
Zn240 O247 1.965 . S
Zn240 O251 2.024 . S
Zn240 O256 1.969 . S
Zn241 O248 1.969 . S
Zn241 O254 1.969 . S
Zn241 O255 1.965 . S
Zn241 O257 2.024 . S
C242 O243 1.229 . S
C242 O251 1.058 . S
O243 C242 1.229 . S
C244 O245 1.229 . S
C244 O257 1.058 . S
O245 C244 1.229 . S
O246 Zn240 1.969 . S
O246 C249 1.267 . S
O247 Zn240 1.965 . S
O247 C258 1.260 . S
O248 Zn241 1.969 . S
O248 C258 1.258 . S
C249 O246 1.267 . S
C249 O250 1.228 . S
O250 C249 1.228 . S
O251 Zn240 2.024 . S
O251 C242 1.058 . S
C252 O253 1.228 . S
C252 O254 1.267 . S
O253 C252 1.228 . S
O254 Zn241 1.969 . S
O254 C252 1.267 . S
O255 Zn241 1.965 . S
O255 C259 1.260 . S
O256 Zn240 1.969 . S
O256 C259 1.258 . S
O257 Zn241 2.024 . S
O257 C244 1.058 . S
C258 O247 1.260 . S
C258 O248 1.258 . S
C259 O255 1.260 . S
C259 O256 1.258 . S
Zn260 O266 1.969 . S
Zn260 O267 1.965 . S
Zn260 O271 2.024 . S
Zn260 O276 1.969 . S
Zn261 O268 1.969 . S
Zn261 O274 1.969 . S
Zn261 O275 1.965 . S
Zn261 O277 2.024 . S
C262 O263 1.229 . S
C262 O271 1.058 . S
O263 C262 1.229 . S
C264 O265 1.229 . S
C264 O277 1.058 . S
O265 C264 1.229 . S
O266 Zn260 1.969 . S
O266 C269 1.267 . S
O267 Zn260 1.965 . S
O267 C278 1.260 . S
O268 Zn261 1.969 . S
O268 C278 1.258 . S
C269 O266 1.267 . S
C269 O270 1.228 . S
O270 C269 1.228 . S
O271 Zn260 2.024 . S
O271 C262 1.058 . S
C272 O273 1.228 . S
C272 O274 1.267 . S
O273 C272 1.228 . S
O274 Zn261 1.969 . S
O274 C272 1.267 . S
O275 Zn261 1.965 . S
O275 C279 1.260 . S
O276 Zn260 1.969 . S
O276 C279 1.258 . S
O277 Zn261 2.024 . S
O277 C264 1.058 . S
C278 O267 1.260 . S
C278 O268 1.258 . S
C279 O275 1.260 . S
C279 O276 1.258 . S
Zn280 O286 1.969 . S
Zn280 O287 1.965 . S
Zn280 O291 2.024 . S
Zn280 O296 1.969 . S
Zn281 O288 1.969 . S
Zn281 O294 1.969 . S
Zn281 O295 1.965 . S
Zn281 O297 2.024 . S
C282 O283 1.229 . S
C282 O291 1.058 . S
O283 C282 1.229 . S
C284 O285 1.229 . S
C284 O297 1.058 . S
O285 C284 1.229 . S
O286 Zn280 1.969 . S
O286 C289 1.267 . S
O287 Zn280 1.965 . S
O287 C298 1.260 . S
O288 Zn281 1.969 . S
O288 C298 1.258 . S
C289 O286 1.267 . S
C289 O290 1.228 . S
O290 C289 1.228 . S
O291 Zn280 2.024 . S
O291 C282 1.058 . S
C292 O293 1.228 . S
C292 O294 1.267 . S
O293 C292 1.228 . S
O294 Zn281 1.969 . S
O294 C292 1.267 . S
O295 Zn281 1.965 . S
O295 C299 1.260 . S
O296 Zn280 1.969 . S
O296 C299 1.258 . S
O297 Zn281 2.024 . S
O297 C284 1.058 . S
C298 O287 1.260 . S
C298 O288 1.258 . S
C299 O295 1.260 . S
C299 O296 1.258 . S
Zn300 O306 1.969 . S
Zn300 O307 1.965 . S
Zn300 O311 2.024 . S
Zn300 O316 1.969 . S
Zn301 O308 1.969 . S
Zn301 O314 1.969 . S
Zn301 O315 1.965 . S
Zn301 O317 2.024 . S
C302 O303 1.229 . S
C302 O311 1.058 . S
O303 C302 1.229 . S
C304 O305 1.229 . S
C304 O317 1.058 . S
O305 C304 1.229 . S
O306 Zn300 1.969 . S
O306 C309 1.267 . S
O307 Zn300 1.965 . S
O307 C318 1.260 . S
O308 Zn301 1.969 . S
O308 C318 1.258 . S
C309 O306 1.267 . S
C309 O310 1.228 . S
O310 C309 1.228 . S
O311 Zn300 2.024 . S
O311 C302 1.058 . S
C312 O313 1.228 . S
C312 O314 1.267 . S
O313 C312 1.228 . S
O314 Zn301 1.969 . S
O314 C312 1.267 . S
O315 Zn301 1.965 . S
O315 C319 1.260 . S
O316 Zn300 1.969 . S
O316 C319 1.258 . S
O317 Zn301 2.024 . S
O317 C304 1.058 . S
C318 O307 1.260 . S
C318 O308 1.258 . S
C319 O315 1.260 . S
C319 O316 1.258 . S
Zn320 O326 1.969 . S
Zn320 O327 1.965 1_565 S
Zn320 O331 2.024 1_565 S
Zn320 O336 1.969 . S
Zn321 O328 1.969 . S
Zn321 O334 1.969 . S
Zn321 O335 1.965 1_545 S
Zn321 O337 2.024 1_545 S
C322 O323 1.229 . S
C322 O331 1.058 1_565 S
O323 C322 1.229 . S
C324 O325 1.229 . S
C324 O337 1.058 1_545 S
O325 C324 1.229 . S
O326 Zn320 1.969 . S
O326 C329 1.267 1_565 S
O327 Zn320 1.965 1_545 S
O327 C338 1.260 . S
O328 Zn321 1.969 . S
O328 C338 1.258 . S
C329 O326 1.267 1_545 S
C329 O330 1.228 . S
O330 C329 1.228 . S
O331 Zn320 2.024 1_545 S
O331 C322 1.058 1_545 S
C332 O333 1.228 1_545 S
C332 O334 1.267 . S
O333 C332 1.228 1_565 S
O334 Zn321 1.969 . S
O334 C332 1.267 . S
O335 Zn321 1.965 1_565 S
O335 C339 1.260 . S
O336 Zn320 1.969 . S
O336 C339 1.258 . S
O337 Zn321 2.024 1_565 S
O337 C324 1.058 1_565 S
C338 O327 1.260 . S
C338 O328 1.258 . S
C339 O335 1.260 . S
C339 O336 1.258 . S
Zn340 O346 1.969 . S
Zn340 O347 1.965 . S
Zn340 O351 2.024 . S
Zn340 O356 1.969 . S
Zn341 O348 1.969 . S
Zn341 O354 1.969 . S
Zn341 O355 1.965 . S
Zn341 O357 2.024 . S
C342 O343 1.229 . S
C342 O351 1.058 . S
O343 C342 1.229 . S
C344 O345 1.229 . S
C344 O357 1.058 . S
O345 C344 1.229 . S
O346 Zn340 1.969 . S
O346 C349 1.267 . S
O347 Zn340 1.965 . S
O347 C358 1.260 . S
O348 Zn341 1.969 . S
O348 C358 1.258 . S
C349 O346 1.267 . S
C349 O350 1.228 . S
O350 C349 1.228 . S
O351 Zn340 2.024 . S
O351 C342 1.058 . S
C352 O353 1.228 . S
C352 O354 1.267 . S
O353 C352 1.228 . S
O354 Zn341 1.969 . S
O354 C352 1.267 . S
O355 Zn341 1.965 . S
O355 C359 1.260 . S
O356 Zn340 1.969 . S
O356 C359 1.258 . S
O357 Zn341 2.024 . S
O357 C344 1.058 . S
C358 O347 1.260 . S
C358 O348 1.258 . S
C359 O355 1.260 . S
C359 O356 1.258 . S
Zn360 O366 1.969 . S
Zn360 O367 1.965 . S
Zn360 O371 2.024 . S
Zn360 O376 1.969 . S
Zn361 O368 1.969 . S
Zn361 O374 1.969 . S
Zn361 O375 1.965 . S
Zn361 O377 2.024 . S
C362 O363 1.229 . S
C362 O371 1.058 . S
O363 C362 1.229 . S
C364 O365 1.229 . S
C364 O377 1.058 . S
O365 C364 1.229 . S
O366 Zn360 1.969 . S
O366 C369 1.267 . S
O367 Zn360 1.965 . S
O367 C378 1.260 . S
O368 Zn361 1.969 . S
O368 C378 1.258 . S
C369 O366 1.267 . S
C369 O370 1.228 . S
O370 C369 1.228 . S
O371 Zn360 2.024 . S
O371 C362 1.058 . S
C372 O373 1.228 . S
C372 O374 1.267 . S
O373 C372 1.228 . S
O374 Zn361 1.969 . S
O374 C372 1.267 . S
O375 Zn361 1.965 . S
O375 C379 1.260 . S
O376 Zn360 1.969 . S
O376 C379 1.258 . S
O377 Zn361 2.024 . S
O377 C364 1.058 . S
C378 O367 1.260 . S
C378 O368 1.258 . S
C379 O375 1.260 . S
C379 O376 1.258 . S
Zn380 O386 1.969 . S
Zn380 O387 1.965 1_565 S
Zn380 O391 2.024 1_565 S
Zn380 O396 1.969 . S
Zn381 O388 1.969 . S
Zn381 O394 1.969 . S
Zn381 O395 1.965 1_545 S
Zn381 O397 2.024 1_545 S
C382 O383 1.229 . S
C382 O391 1.058 1_565 S
O383 C382 1.229 . S
C384 O385 1.229 . S
C384 O397 1.058 1_545 S
O385 C384 1.229 . S
O386 Zn380 1.969 . S
O386 C389 1.267 1_565 S
O387 Zn380 1.965 1_545 S
O387 C398 1.260 . S
O388 Zn381 1.969 . S
O388 C398 1.258 . S
C389 O386 1.267 1_545 S
C389 O390 1.228 . S
O390 C389 1.228 . S
O391 Zn380 2.024 1_545 S
O391 C382 1.058 1_545 S
C392 O393 1.228 1_545 S
C392 O394 1.267 . S
O393 C392 1.228 1_565 S
O394 Zn381 1.969 . S
O394 C392 1.267 . S
O395 Zn381 1.965 1_565 S
O395 C399 1.260 . S
O396 Zn380 1.969 . S
O396 C399 1.258 . S
O397 Zn381 2.024 1_565 S
O397 C384 1.058 1_565 S
C398 O387 1.260 . S
C398 O388 1.258 . S
C399 O395 1.260 . S
C399 O396 1.258 . S
Zn400 O406 1.969 . S
Zn400 O407 1.965 1_565 S
Zn400 O411 2.024 1_565 S
Zn400 O416 1.969 . S
Zn401 O408 1.969 . S
Zn401 O414 1.969 . S
Zn401 O415 1.965 1_545 S
Zn401 O417 2.024 1_545 S
C402 O403 1.229 . S
C402 O411 1.058 1_565 S
O403 C402 1.229 . S
C404 O405 1.229 . S
C404 O417 1.058 1_545 S
O405 C404 1.229 . S
O406 Zn400 1.969 . S
O406 C409 1.267 . S
O407 Zn400 1.965 1_545 S
O407 C418 1.260 . S
O408 Zn401 1.969 . S
O408 C418 1.258 . S
C409 O406 1.267 . S
C409 O410 1.228 1_565 S
O410 C409 1.228 1_545 S
O411 Zn400 2.024 1_545 S
O411 C402 1.058 1_545 S
C412 O413 1.228 . S
C412 O414 1.267 1_565 S
O413 C412 1.228 . S
O414 Zn401 1.969 . S
O414 C412 1.267 1_545 S
O415 Zn401 1.965 1_565 S
O415 C419 1.260 . S
O416 Zn400 1.969 . S
O416 C419 1.258 . S
O417 Zn401 2.024 1_565 S
O417 C404 1.058 1_565 S
C418 O407 1.260 . S
C418 O408 1.258 . S
C419 O415 1.260 . S
C419 O416 1.258 . S
Zn420 O426 1.969 . S
Zn420 O427 1.965 . S
Zn420 O431 2.024 . S
Zn420 O436 1.969 . S
Zn421 O428 1.969 . S
Zn421 O434 1.969 . S
Zn421 O435 1.965 . S
Zn421 O437 2.024 . S
C422 O423 1.229 . S
C422 O431 1.058 . S
O423 C422 1.229 . S
C424 O425 1.229 . S
C424 O437 1.058 . S
O425 C424 1.229 . S
O426 Zn420 1.969 . S
O426 C429 1.267 . S
O427 Zn420 1.965 . S
O427 C438 1.260 . S
O428 Zn421 1.969 . S
O428 C438 1.258 . S
C429 O426 1.267 . S
C429 O430 1.228 . S
O430 C429 1.228 . S
O431 Zn420 2.024 . S
O431 C422 1.058 . S
C432 O433 1.228 . S
C432 O434 1.267 . S
O433 C432 1.228 . S
O434 Zn421 1.969 . S
O434 C432 1.267 . S
O435 Zn421 1.965 . S
O435 C439 1.260 . S
O436 Zn420 1.969 . S
O436 C439 1.258 . S
O437 Zn421 2.024 . S
O437 C424 1.058 . S
C438 O427 1.260 . S
C438 O428 1.258 . S
C439 O435 1.260 . S
C439 O436 1.258 . S
Zn440 O446 1.969 . S
Zn440 O447 1.965 . S
Zn440 O451 2.024 . S
Zn440 O456 1.969 . S
Zn441 O448 1.969 . S
Zn441 O454 1.969 . S
Zn441 O455 1.965 . S
Zn441 O457 2.024 . S
C442 O443 1.229 . S
C442 O451 1.058 . S
O443 C442 1.229 . S
C444 O445 1.229 . S
C444 O457 1.058 . S
O445 C444 1.229 . S
O446 Zn440 1.969 . S
O446 C449 1.267 . S
O447 Zn440 1.965 . S
O447 C458 1.260 . S
O448 Zn441 1.969 . S
O448 C458 1.258 . S
C449 O446 1.267 . S
C449 O450 1.228 . S
O450 C449 1.228 . S
O451 Zn440 2.024 . S
O451 C442 1.058 . S
C452 O453 1.228 . S
C452 O454 1.267 . S
O453 C452 1.228 . S
O454 Zn441 1.969 . S
O454 C452 1.267 . S
O455 Zn441 1.965 . S
O455 C459 1.260 . S
O456 Zn440 1.969 . S
O456 C459 1.258 . S
O457 Zn441 2.024 . S
O457 C444 1.058 . S
C458 O447 1.260 . S
C458 O448 1.258 . S
C459 O455 1.260 . S
C459 O456 1.258 . S
Zn460 O466 1.969 . S
Zn460 O467 1.965 1_565 S
Zn460 O471 2.024 1_565 S
Zn460 O476 1.969 . S
Zn461 O468 1.969 . S
Zn461 O474 1.969 . S
Zn461 O475 1.965 1_545 S
Zn461 O477 2.024 1_545 S
C462 O463 1.229 . S
C462 O471 1.058 1_565 S
O463 C462 1.229 . S
C464 O465 1.229 . S
C464 O477 1.058 1_545 S
O465 C464 1.229 . S
O466 Zn460 1.969 . S
O466 C469 1.267 . S
O467 Zn460 1.965 1_545 S
O467 C478 1.260 . S
O468 Zn461 1.969 . S
O468 C478 1.258 . S
C469 O466 1.267 . S
C469 O470 1.228 1_565 S
O470 C469 1.228 1_545 S
O471 Zn460 2.024 1_545 S
O471 C462 1.058 1_545 S
C472 O473 1.228 . S
C472 O474 1.267 1_565 S
O473 C472 1.228 . S
O474 Zn461 1.969 . S
O474 C472 1.267 1_545 S
O475 Zn461 1.965 1_565 S
O475 C479 1.260 . S
O476 Zn460 1.969 . S
O476 C479 1.258 . S
O477 Zn461 2.024 1_565 S
O477 C464 1.058 1_565 S
C478 O467 1.260 . S
C478 O468 1.258 . S
C479 O475 1.260 . S
C479 O476 1.258 . S
Zn480 O486 1.969 . S
Zn480 O487 1.965 . S
Zn480 O491 2.024 . S
Zn480 O496 1.969 . S
Zn481 O488 1.969 . S
Zn481 O494 1.969 1_554 S
Zn481 O495 1.965 . S
Zn481 O497 2.024 . S
C482 O483 1.229 . S
C482 O491 1.058 . S
O483 C482 1.229 . S
C484 O485 1.236 . S
C484 O497 1.049 1_556 S
O485 C484 1.236 . S
O486 Zn480 1.969 . S
O486 C489 1.267 . S
O487 Zn480 1.965 . S
O487 C498 1.260 . S
O488 Zn481 1.969 . S
O488 C498 1.258 . S
C489 O486 1.267 . S
C489 O490 1.228 . S
O490 C489 1.228 . S
O491 Zn480 2.024 . S
O491 C482 1.058 . S
C492 O493 1.228 . S
C492 O494 1.267 . S
O493 C492 1.228 . S
O494 Zn481 1.969 1_556 S
O494 C492 1.267 . S
O495 Zn481 1.965 . S
O495 C499 1.260 . S
O496 Zn480 1.969 . S
O496 C499 1.258 . S
O497 Zn481 2.024 . S
O497 C484 1.049 1_554 S
C498 O487 1.260 . S
C498 O488 1.258 . S
C499 O495 1.260 . S
C499 O496 1.258 . S
Zn500 O506 1.969 . S
Zn500 O507 1.965 . S
Zn500 O511 2.024 . S
Zn500 O516 1.969 . S
Zn501 O508 1.969 . S
Zn501 O514 1.969 1_554 S
Zn501 O515 1.965 . S
Zn501 O517 2.024 . S
C502 O503 1.229 . S
C502 O511 1.058 . S
O503 C502 1.229 . S
C504 O505 1.236 . S
C504 O517 1.049 1_556 S
O505 C504 1.236 . S
O506 Zn500 1.969 . S
O506 C509 1.267 . S
O507 Zn500 1.965 . S
O507 C518 1.260 . S
O508 Zn501 1.969 . S
O508 C518 1.258 . S
C509 O506 1.267 . S
C509 O510 1.228 . S
O510 C509 1.228 . S
O511 Zn500 2.024 . S
O511 C502 1.058 . S
C512 O513 1.228 . S
C512 O514 1.267 . S
O513 C512 1.228 . S
O514 Zn501 1.969 1_556 S
O514 C512 1.267 . S
O515 Zn501 1.965 . S
O515 C519 1.260 . S
O516 Zn500 1.969 . S
O516 C519 1.258 . S
O517 Zn501 2.024 . S
O517 C504 1.049 1_554 S
C518 O507 1.260 . S
C518 O508 1.258 . S
C519 O515 1.260 . S
C519 O516 1.258 . S
Zn520 O526 1.969 . S
Zn520 O527 1.965 . S
Zn520 O531 2.024 . S
Zn520 O536 1.969 . S
Zn521 O528 1.969 . S
Zn521 O534 1.969 . S
Zn521 O535 1.965 . S
Zn521 O537 2.024 . S
C522 O523 1.229 . S
C522 O531 1.058 . S
O523 C522 1.229 . S
C524 O525 1.229 . S
C524 O537 1.058 . S
O525 C524 1.229 . S
O526 Zn520 1.969 . S
O526 C529 1.267 . S
O527 Zn520 1.965 . S
O527 C538 1.260 . S
O528 Zn521 1.969 . S
O528 C538 1.258 . S
C529 O526 1.267 . S
C529 O530 1.228 . S
O530 C529 1.228 . S
O531 Zn520 2.024 . S
O531 C522 1.058 . S
C532 O533 1.228 . S
C532 O534 1.267 . S
O533 C532 1.228 . S
O534 Zn521 1.969 . S
O534 C532 1.267 . S
O535 Zn521 1.965 . S
O535 C539 1.260 . S
O536 Zn520 1.969 . S
O536 C539 1.258 . S
O537 Zn521 2.024 . S
O537 C524 1.058 . S
C538 O527 1.260 . S
C538 O528 1.258 . S
C539 O535 1.260 . S
C539 O536 1.258 . S
Zn540 O546 1.969 . S
Zn540 O547 1.965 . S
Zn540 O551 2.024 . S
Zn540 O556 1.969 . S
Zn541 O548 1.969 . S
Zn541 O554 1.969 . S
Zn541 O555 1.965 . S
Zn541 O557 2.024 . S
C542 O543 1.229 . S
C542 O551 1.058 . S
O543 C542 1.229 . S
C544 O545 1.229 . S
C544 O557 1.058 . S
O545 C544 1.229 . S
O546 Zn540 1.969 . S
O546 C549 1.267 . S
O547 Zn540 1.965 . S
O547 C558 1.260 . S
O548 Zn541 1.969 . S
O548 C558 1.258 . S
C549 O546 1.267 . S
C549 O550 1.228 . S
O550 C549 1.228 . S
O551 Zn540 2.024 . S
O551 C542 1.058 . S
C552 O553 1.228 . S
C552 O554 1.267 . S
O553 C552 1.228 . S
O554 Zn541 1.969 . S
O554 C552 1.267 . S
O555 Zn541 1.965 . S
O555 C559 1.260 . S
O556 Zn540 1.969 . S
O556 C559 1.258 . S
O557 Zn541 2.024 . S
O557 C544 1.058 . S
C558 O547 1.260 . S
C558 O548 1.258 . S
C559 O555 1.260 . S
C559 O556 1.258 . S
Zn560 O566 1.969 1_556 S
Zn560 O567 1.965 . S
Zn560 O571 2.024 . S
Zn560 O576 1.969 . S
Zn561 O568 1.969 . S
Zn561 O574 1.969 . S
Zn561 O575 1.965 . S
Zn561 O577 2.024 . S
C562 O563 1.236 . S
C562 O571 1.049 1_554 S
O563 C562 1.236 . S
C564 O565 1.229 . S
C564 O577 1.058 . S
O565 C564 1.229 . S
O566 Zn560 1.969 1_554 S
O566 C569 1.267 . S
O567 Zn560 1.965 . S
O567 C578 1.260 . S
O568 Zn561 1.969 . S
O568 C578 1.258 . S
C569 O566 1.267 . S
C569 O570 1.228 . S
O570 C569 1.228 . S
O571 Zn560 2.024 . S
O571 C562 1.049 1_556 S
C572 O573 1.228 . S
C572 O574 1.267 . S
O573 C572 1.228 . S
O574 Zn561 1.969 . S
O574 C572 1.267 . S
O575 Zn561 1.965 . S
O575 C579 1.260 . S
O576 Zn560 1.969 . S
O576 C579 1.258 . S
O577 Zn561 2.024 . S
O577 C564 1.058 . S
C578 O567 1.260 . S
C578 O568 1.258 . S
C579 O575 1.260 . S
C579 O576 1.258 . S
Zn580 O586 1.969 1_556 S
Zn580 O587 1.965 . S
Zn580 O591 2.024 . S
Zn580 O596 1.969 . S
Zn581 O588 1.969 . S
Zn581 O594 1.969 . S
Zn581 O595 1.965 . S
Zn581 O597 2.024 . S
C582 O583 1.236 . S
C582 O591 1.049 1_554 S
O583 C582 1.236 . S
C584 O585 1.229 . S
C584 O597 1.058 . S
O585 C584 1.229 . S
O586 Zn580 1.969 1_554 S
O586 C589 1.267 . S
O587 Zn580 1.965 . S
O587 C598 1.260 . S
O588 Zn581 1.969 . S
O588 C598 1.258 . S
C589 O586 1.267 . S
C589 O590 1.228 . S
O590 C589 1.228 . S
O591 Zn580 2.024 . S
O591 C582 1.049 1_556 S
C592 O593 1.228 . S
C592 O594 1.267 . S
O593 C592 1.228 . S
O594 Zn581 1.969 . S
O594 C592 1.267 . S
O595 Zn581 1.965 . S
O595 C599 1.260 . S
O596 Zn580 1.969 . S
O596 C599 1.258 . S
O597 Zn581 2.024 . S
O597 C584 1.058 . S
C598 O587 1.260 . S
C598 O588 1.258 . S
C599 O595 1.260 . S
C599 O596 1.258 . S
Zn600 O606 1.969 . S
Zn600 O607 1.965 . S
Zn600 O611 2.024 . S
Zn600 O616 1.969 . S
Zn601 O608 1.969 . S
Zn601 O614 1.969 . S
Zn601 O615 1.965 . S
Zn601 O617 2.024 . S
C602 O603 1.229 . S
C602 O611 1.058 . S
O603 C602 1.229 . S
C604 O605 1.229 . S
C604 O617 1.058 . S
O605 C604 1.229 . S
O606 Zn600 1.969 . S
O606 C609 1.267 . S
O607 Zn600 1.965 . S
O607 C618 1.260 . S
O608 Zn601 1.969 . S
O608 C618 1.258 . S
C609 O606 1.267 . S
C609 O610 1.228 . S
O610 C609 1.228 . S
O611 Zn600 2.024 . S
O611 C602 1.058 . S
C612 O613 1.228 . S
C612 O614 1.267 . S
O613 C612 1.228 . S
O614 Zn601 1.969 . S
O614 C612 1.267 . S
O615 Zn601 1.965 . S
O615 C619 1.260 . S
O616 Zn600 1.969 . S
O616 C619 1.258 . S
O617 Zn601 2.024 . S
O617 C604 1.058 . S
C618 O607 1.260 . S
C618 O608 1.258 . S
C619 O615 1.260 . S
C619 O616 1.258 . S
Zn620 O626 1.969 . S
Zn620 O627 1.965 . S
Zn620 O631 2.024 . S
Zn620 O636 1.969 . S
Zn621 O628 1.969 . S
Zn621 O634 1.969 . S
Zn621 O635 1.965 . S
Zn621 O637 2.024 . S
C622 O623 1.229 . S
C622 O631 1.058 . S
O623 C622 1.229 . S
C624 O625 1.229 . S
C624 O637 1.058 . S
O625 C624 1.229 . S
O626 Zn620 1.969 . S
O626 C629 1.267 . S
O627 Zn620 1.965 . S
O627 C638 1.260 . S
O628 Zn621 1.969 . S
O628 C638 1.258 . S
C629 O626 1.267 . S
C629 O630 1.228 . S
O630 C629 1.228 . S
O631 Zn620 2.024 . S
O631 C622 1.058 . S
C632 O633 1.228 . S
C632 O634 1.267 . S
O633 C632 1.228 . S
O634 Zn621 1.969 . S
O634 C632 1.267 . S
O635 Zn621 1.965 . S
O635 C639 1.260 . S
O636 Zn620 1.969 . S
O636 C639 1.258 . S
O637 Zn621 2.024 . S
O637 C624 1.058 . S
C638 O627 1.260 . S
C638 O628 1.258 . S
C639 O635 1.260 . S
C639 O636 1.258 . S
H640 C646 0.930 . S
H641 C649 0.930 . S
H642 C650 0.930 . S
H643 C651 0.930 . S
H644 C654 0.930 . S
H645 C655 0.930 . S
C646 H640 0.930 . S
C646 C647 1.355 . S
C646 C648 1.415 . S
C647 C646 1.355 . S
C647 C649 1.419 . S
C648 C646 1.415 . S
C648 C653 1.425 . S
C648 C655 1.409 . S
C649 H641 0.930 . S
C649 C647 1.419 . S
C649 C650 1.362 . S
C650 H642 0.930 . S
C650 C649 1.362 . S
C650 C653 1.409 . S
C651 H643 0.930 . S
C651 C652 1.355 . S
C651 C653 1.415 . S
C652 C651 1.355 . S
C652 C654 1.419 . S
C653 C648 1.425 . S
C653 C650 1.409 . S
C653 C651 1.415 . S
C654 H644 0.930 . S
C654 C652 1.419 . S
C654 C655 1.362 . S
C655 H645 0.930 . S
C655 C648 1.409 . S
C655 C654 1.362 . S
H656 C662 0.930 . S
H657 C665 0.930 . S
H658 C666 0.930 . S
H659 C667 0.930 . S
H660 C670 0.930 . S
H661 C671 0.930 . S
C662 H656 0.930 . S
C662 C663 1.355 . S
C662 C664 1.415 . S
C663 C662 1.355 . S
C663 C665 1.419 . S
C664 C662 1.415 . S
C664 C669 1.425 . S
C664 C671 1.409 . S
C665 H657 0.930 . S
C665 C663 1.419 . S
C665 C666 1.362 . S
C666 H658 0.930 . S
C666 C665 1.362 . S
C666 C669 1.409 . S
C667 H659 0.930 . S
C667 C668 1.355 . S
C667 C669 1.415 . S
C668 C667 1.355 . S
C668 C670 1.419 . S
C669 C664 1.425 . S
C669 C666 1.409 . S
C669 C667 1.415 . S
C670 H660 0.930 . S
C670 C668 1.419 . S
C670 C671 1.362 . S
C671 H661 0.930 . S
C671 C664 1.409 . S
C671 C670 1.362 . S
H672 C678 0.930 . S
H673 C681 0.930 . S
H674 C682 0.930 . S
H675 C683 0.930 . S
H676 C686 0.930 . S
H677 C687 0.930 . S
C678 H672 0.930 . S
C678 C679 1.355 . S
C678 C680 1.415 . S
C679 C678 1.355 . S
C679 C681 1.419 . S
C680 C678 1.415 . S
C680 C685 1.425 . S
C680 C687 1.409 . S
C681 H673 0.930 . S
C681 C679 1.419 . S
C681 C682 1.362 . S
C682 H674 0.930 . S
C682 C681 1.362 . S
C682 C685 1.409 . S
C683 H675 0.930 . S
C683 C684 1.355 . S
C683 C685 1.415 . S
C684 C683 1.355 . S
C684 C686 1.419 . S
C685 C680 1.425 . S
C685 C682 1.409 . S
C685 C683 1.415 . S
C686 H676 0.930 . S
C686 C684 1.419 . S
C686 C687 1.362 . S
C687 H677 0.930 . S
C687 C680 1.409 . S
C687 C686 1.362 . S
H688 C694 0.930 . S
H689 C697 0.930 . S
H690 C698 0.930 . S
H691 C699 0.930 . S
H692 C702 0.930 . S
H693 C703 0.930 . S
C694 H688 0.930 . S
C694 C695 1.355 . S
C694 C696 1.415 . S
C695 C694 1.355 . S
C695 C697 1.419 . S
C696 C694 1.415 . S
C696 C701 1.425 . S
C696 C703 1.409 . S
C697 H689 0.930 . S
C697 C695 1.419 . S
C697 C698 1.362 . S
C698 H690 0.930 . S
C698 C697 1.362 . S
C698 C701 1.409 . S
C699 H691 0.930 . S
C699 C700 1.355 . S
C699 C701 1.415 . S
C700 C699 1.355 . S
C700 C702 1.419 . S
C701 C696 1.425 . S
C701 C698 1.409 . S
C701 C699 1.415 . S
C702 H692 0.930 . S
C702 C700 1.419 . S
C702 C703 1.362 . S
C703 H693 0.930 . S
C703 C696 1.409 . S
C703 C702 1.362 . S
H704 C710 0.930 . S
H705 C713 0.930 . S
H706 C714 0.930 . S
H707 C715 0.930 . S
H708 C718 0.930 . S
H709 C719 0.930 . S
C710 H704 0.930 . S
C710 C711 1.355 . S
C710 C712 1.415 . S
C711 C710 1.355 . S
C711 C713 1.419 . S
C712 C710 1.415 . S
C712 C717 1.425 . S
C712 C719 1.409 . S
C713 H705 0.930 . S
C713 C711 1.419 . S
C713 C714 1.362 . S
C714 H706 0.930 . S
C714 C713 1.362 . S
C714 C717 1.409 . S
C715 H707 0.930 . S
C715 C716 1.355 . S
C715 C717 1.415 . S
C716 C715 1.355 . S
C716 C718 1.419 . S
C717 C712 1.425 . S
C717 C714 1.409 . S
C717 C715 1.415 . S
C718 H708 0.930 . S
C718 C716 1.419 . S
C718 C719 1.362 . S
C719 H709 0.930 . S
C719 C712 1.409 . S
C719 C718 1.362 . S
H720 C726 0.930 . S
H721 C729 0.930 . S
H722 C730 0.930 . S
H723 C731 0.930 . S
H724 C734 0.930 . S
H725 C735 0.930 . S
C726 H720 0.930 . S
C726 C727 1.355 . S
C726 C728 1.415 . S
C727 C726 1.355 . S
C727 C729 1.419 . S
C728 C726 1.415 . S
C728 C733 1.425 . S
C728 C735 1.409 . S
C729 H721 0.930 . S
C729 C727 1.419 . S
C729 C730 1.362 . S
C730 H722 0.930 . S
C730 C729 1.362 . S
C730 C733 1.409 . S
C731 H723 0.930 . S
C731 C732 1.355 . S
C731 C733 1.415 . S
C732 C731 1.355 . S
C732 C734 1.419 . S
C733 C728 1.425 . S
C733 C730 1.409 . S
C733 C731 1.415 . S
C734 H724 0.930 . S
C734 C732 1.419 . S
C734 C735 1.362 . S
C735 H725 0.930 . S
C735 C728 1.409 . S
C735 C734 1.362 . S
H736 C742 0.930 . S
H737 C745 0.930 . S
H738 C746 0.930 . S
H739 C747 0.930 . S
H740 C750 0.930 . S
H741 C751 0.930 . S
C742 H736 0.930 . S
C742 C743 1.355 . S
C742 C744 1.415 . S
C743 C742 1.355 . S
C743 C745 1.419 . S
C744 C742 1.415 . S
C744 C749 1.425 . S
C744 C751 1.409 . S
C745 H737 0.930 . S
C745 C743 1.419 . S
C745 C746 1.362 . S
C746 H738 0.930 . S
C746 C745 1.362 . S
C746 C749 1.409 . S
C747 H739 0.930 . S
C747 C748 1.355 . S
C747 C749 1.415 . S
C748 C747 1.355 . S
C748 C750 1.419 . S
C749 C744 1.425 . S
C749 C746 1.409 . S
C749 C747 1.415 . S
C750 H740 0.930 . S
C750 C748 1.419 . S
C750 C751 1.362 . S
C751 H741 0.930 . S
C751 C744 1.409 . S
C751 C750 1.362 . S
H752 C758 0.930 . S
H753 C761 0.930 . S
H754 C762 0.930 . S
H755 C763 0.930 . S
H756 C766 0.930 . S
H757 C767 0.930 . S
C758 H752 0.930 . S
C758 C759 1.355 . S
C758 C760 1.415 . S
C759 C758 1.355 . S
C759 C761 1.419 . S
C760 C758 1.415 . S
C760 C765 1.425 . S
C760 C767 1.409 . S
C761 H753 0.930 . S
C761 C759 1.419 . S
C761 C762 1.362 . S
C762 H754 0.930 . S
C762 C761 1.362 . S
C762 C765 1.409 . S
C763 H755 0.930 . S
C763 C764 1.355 . S
C763 C765 1.415 . S
C764 C763 1.355 . S
C764 C766 1.419 . S
C765 C760 1.425 . S
C765 C762 1.409 . S
C765 C763 1.415 . S
C766 H756 0.930 . S
C766 C764 1.419 . S
C766 C767 1.362 . S
C767 H757 0.930 . S
C767 C760 1.409 . S
C767 C766 1.362 . S
H768 C774 0.930 . S
H769 C777 0.930 . S
H770 C778 0.930 . S
H771 C779 0.930 . S
H772 C782 0.930 . S
H773 C783 0.930 . S
C774 H768 0.930 . S
C774 C775 1.355 . S
C774 C776 1.415 . S
C775 C774 1.355 . S
C775 C777 1.419 . S
C776 C774 1.415 . S
C776 C781 1.425 . S
C776 C783 1.409 . S
C777 H769 0.930 . S
C777 C775 1.419 . S
C777 C778 1.362 . S
C778 H770 0.930 . S
C778 C777 1.362 . S
C778 C781 1.409 . S
C779 H771 0.930 . S
C779 C780 1.355 . S
C779 C781 1.415 . S
C780 C779 1.355 . S
C780 C782 1.419 . S
C781 C776 1.425 . S
C781 C778 1.409 . S
C781 C779 1.415 . S
C782 H772 0.930 . S
C782 C780 1.419 . S
C782 C783 1.362 . S
C783 H773 0.930 . S
C783 C776 1.409 . S
C783 C782 1.362 . S
H784 C790 0.930 . S
H785 C793 0.930 . S
H786 C794 0.930 . S
H787 C795 0.930 . S
H788 C798 0.930 . S
H789 C799 0.930 . S
C790 H784 0.930 . S
C790 C791 1.355 . S
C790 C792 1.415 . S
C791 C790 1.355 . S
C791 C793 1.419 . S
C792 C790 1.415 . S
C792 C797 1.425 . S
C792 C799 1.409 . S
C793 H785 0.930 . S
C793 C791 1.419 . S
C793 C794 1.362 . S
C794 H786 0.930 . S
C794 C793 1.362 . S
C794 C797 1.409 . S
C795 H787 0.930 . S
C795 C796 1.355 . S
C795 C797 1.415 . S
C796 C795 1.355 . S
C796 C798 1.419 . S
C797 C792 1.425 . S
C797 C794 1.409 . S
C797 C795 1.415 . S
C798 H788 0.930 . S
C798 C796 1.419 . S
C798 C799 1.362 . S
C799 H789 0.930 . S
C799 C792 1.409 . S
C799 C798 1.362 . S
H800 C806 0.930 . S
H801 C809 0.930 . S
H802 C810 0.930 . S
H803 C811 0.930 . S
H804 C814 0.930 . S
H805 C815 0.930 . S
C806 H800 0.930 . S
C806 C807 1.355 . S
C806 C808 1.415 . S
C807 C806 1.355 . S
C807 C809 1.419 . S
C808 C806 1.415 . S
C808 C813 1.425 . S
C808 C815 1.409 . S
C809 H801 0.930 . S
C809 C807 1.419 . S
C809 C810 1.362 . S
C810 H802 0.930 . S
C810 C809 1.362 . S
C810 C813 1.409 . S
C811 H803 0.930 . S
C811 C812 1.355 . S
C811 C813 1.415 . S
C812 C811 1.355 . S
C812 C814 1.419 . S
C813 C808 1.425 . S
C813 C810 1.409 . S
C813 C811 1.415 . S
C814 H804 0.930 . S
C814 C812 1.419 . S
C814 C815 1.362 . S
C815 H805 0.930 . S
C815 C808 1.409 . S
C815 C814 1.362 . S
H816 C822 0.930 . S
H817 C825 0.930 . S
H818 C826 0.930 . S
H819 C827 0.930 . S
H820 C830 0.930 . S
H821 C831 0.930 . S
C822 H816 0.930 . S
C822 C823 1.355 . S
C822 C824 1.415 . S
C823 C822 1.355 . S
C823 C825 1.419 . S
C824 C822 1.415 . S
C824 C829 1.425 . S
C824 C831 1.409 . S
C825 H817 0.930 . S
C825 C823 1.419 . S
C825 C826 1.362 . S
C826 H818 0.930 . S
C826 C825 1.362 . S
C826 C829 1.409 . S
C827 H819 0.930 . S
C827 C828 1.355 . S
C827 C829 1.415 . S
C828 C827 1.355 . S
C828 C830 1.419 . S
C829 C824 1.425 . S
C829 C826 1.409 . S
C829 C827 1.415 . S
C830 H820 0.930 . S
C830 C828 1.419 . S
C830 C831 1.362 . S
C831 H821 0.930 . S
C831 C824 1.409 . S
C831 C830 1.362 . S
H832 C838 0.930 . S
H833 C841 0.930 . S
H834 C842 0.930 . S
H835 C843 0.930 . S
H836 C846 0.930 . S
H837 C847 0.930 . S
C838 H832 0.930 . S
C838 C839 1.355 . S
C838 C840 1.415 . S
C839 C838 1.355 . S
C839 C841 1.419 . S
C840 C838 1.415 . S
C840 C845 1.425 . S
C840 C847 1.409 . S
C841 H833 0.930 . S
C841 C839 1.419 . S
C841 C842 1.362 . S
C842 H834 0.930 . S
C842 C841 1.362 . S
C842 C845 1.409 . S
C843 H835 0.930 . S
C843 C844 1.355 . S
C843 C845 1.415 . S
C844 C843 1.355 . S
C844 C846 1.419 . S
C845 C840 1.425 . S
C845 C842 1.409 . S
C845 C843 1.415 . S
C846 H836 0.930 . S
C846 C844 1.419 . S
C846 C847 1.362 . S
C847 H837 0.930 . S
C847 C840 1.409 . S
C847 C846 1.362 . S
H848 C854 0.930 . S
H849 C857 0.930 . S
H850 C858 0.930 . S
H851 C859 0.930 . S
H852 C862 0.930 . S
H853 C863 0.930 . S
C854 H848 0.930 . S
C854 C855 1.355 . S
C854 C856 1.415 . S
C855 C854 1.355 . S
C855 C857 1.419 . S
C856 C854 1.415 . S
C856 C861 1.425 . S
C856 C863 1.409 . S
C857 H849 0.930 . S
C857 C855 1.419 . S
C857 C858 1.362 . S
C858 H850 0.930 . S
C858 C857 1.362 . S
C858 C861 1.409 . S
C859 H851 0.930 . S
C859 C860 1.355 . S
C859 C861 1.415 . S
C860 C859 1.355 . S
C860 C862 1.419 . S
C861 C856 1.425 . S
C861 C858 1.409 . S
C861 C859 1.415 . S
C862 H852 0.930 . S
C862 C860 1.419 . S
C862 C863 1.362 . S
C863 H853 0.930 . S
C863 C856 1.409 . S
C863 C862 1.362 . S
H864 C870 0.930 . S
H865 C873 0.930 . S
H866 C874 0.930 . S
H867 C875 0.930 . S
H868 C878 0.930 . S
H869 C879 0.930 . S
C870 H864 0.930 . S
C870 C871 1.355 . S
C870 C872 1.415 . S
C871 C870 1.355 . S
C871 C873 1.419 . S
C872 C870 1.415 . S
C872 C877 1.425 . S
C872 C879 1.409 . S
C873 H865 0.930 . S
C873 C871 1.419 . S
C873 C874 1.362 . S
C874 H866 0.930 . S
C874 C873 1.362 . S
C874 C877 1.409 . S
C875 H867 0.930 . S
C875 C876 1.355 . S
C875 C877 1.415 . S
C876 C875 1.355 . S
C876 C878 1.419 . S
C877 C872 1.425 . S
C877 C874 1.409 . S
C877 C875 1.415 . S
C878 H868 0.930 . S
C878 C876 1.419 . S
C878 C879 1.362 . S
C879 H869 0.930 . S
C879 C872 1.409 . S
C879 C878 1.362 . S
H880 C886 0.930 . S
H881 C889 0.930 . S
H882 C890 0.930 . S
H883 C891 0.930 . S
H884 C894 0.930 . S
H885 C895 0.930 . S
C886 H880 0.930 . S
C886 C887 1.355 . S
C886 C888 1.415 . S
C887 C886 1.355 . S
C887 C889 1.419 . S
C888 C886 1.415 . S
C888 C893 1.425 . S
C888 C895 1.409 . S
C889 H881 0.930 . S
C889 C887 1.419 . S
C889 C890 1.362 . S
C890 H882 0.930 . S
C890 C889 1.362 . S
C890 C893 1.409 . S
C891 H883 0.930 . S
C891 C892 1.355 . S
C891 C893 1.415 . S
C892 C891 1.355 . S
C892 C894 1.419 . S
C893 C888 1.425 . S
C893 C890 1.409 . S
C893 C891 1.415 . S
C894 H884 0.930 . S
C894 C892 1.419 . S
C894 C895 1.362 . S
C895 H885 0.930 . S
C895 C888 1.409 . S
C895 C894 1.362 . S
H896 C902 0.930 . S
H897 C905 0.930 . S
H898 C906 0.930 . S
H899 C907 0.930 . S
H900 C910 0.930 . S
H901 C911 0.930 . S
C902 H896 0.930 . S
C902 C903 1.355 1_545 S
C902 C904 1.415 . S
C903 C902 1.355 1_565 S
C903 C905 1.419 . S
C904 C902 1.415 . S
C904 C909 1.425 1_545 S
C904 C911 1.409 . S
C905 H897 0.930 . S
C905 C903 1.419 . S
C905 C906 1.362 . S
C906 H898 0.930 . S
C906 C905 1.362 . S
C906 C909 1.409 . S
C907 H899 0.930 . S
C907 C908 1.355 1_565 S
C907 C909 1.415 . S
C908 C907 1.355 1_545 S
C908 C910 1.419 . S
C909 C904 1.425 1_565 S
C909 C906 1.409 . S
C909 C907 1.415 . S
C910 H900 0.930 . S
C910 C908 1.419 . S
C910 C911 1.362 . S
C911 H901 0.930 . S
C911 C904 1.409 . S
C911 C910 1.362 . S
H912 C918 0.930 . S
H913 C921 0.930 1_655 S
H914 C922 0.930 . S
H915 C923 0.930 . S
H916 C926 0.930 1_455 S
H917 C927 0.930 . S
C918 H912 0.930 . S
C918 C919 1.355 . S
C918 C920 1.415 . S
C919 C918 1.355 . S
C919 C921 1.419 . S
C920 C918 1.415 . S
C920 C925 1.425 1_455 S
C920 C927 1.409 . S
C921 H913 0.930 1_455 S
C921 C919 1.419 . S
C921 C922 1.362 1_455 S
C922 H914 0.930 . S
C922 C921 1.362 1_655 S
C922 C925 1.409 . S
C923 H915 0.930 . S
C923 C924 1.355 . S
C923 C925 1.415 . S
C924 C923 1.355 . S
C924 C926 1.419 . S
C925 C920 1.425 1_655 S
C925 C922 1.409 . S
C925 C923 1.415 . S
C926 H916 0.930 1_655 S
C926 C924 1.419 . S
C926 C927 1.362 1_655 S
C927 H917 0.930 . S
C927 C920 1.409 . S
C927 C926 1.362 1_455 S
H928 C934 0.930 . S
H929 C937 0.930 . S
H930 C938 0.930 . S
H931 C939 0.930 . S
H932 C942 0.930 . S
H933 C943 0.930 . S
C934 H928 0.930 . S
C934 C935 1.355 . S
C934 C936 1.415 1_556 S
C935 C934 1.355 . S
C935 C937 1.419 . S
C936 C934 1.415 1_554 S
C936 C941 1.425 1_554 S
C936 C943 1.409 . S
C937 H929 0.930 . S
C937 C935 1.419 . S
C937 C938 1.362 . S
C938 H930 0.930 . S
C938 C937 1.362 . S
C938 C941 1.409 . S
C939 H931 0.930 . S
C939 C940 1.355 . S
C939 C941 1.415 1_554 S
C940 C939 1.355 . S
C940 C942 1.419 . S
C941 C936 1.425 1_556 S
C941 C938 1.409 . S
C941 C939 1.415 1_556 S
C942 H932 0.930 . S
C942 C940 1.419 . S
C942 C943 1.362 . S
C943 H933 0.930 . S
C943 C936 1.409 . S
C943 C942 1.362 . S
H944 C950 0.930 . S
H945 C953 0.935 . S
H946 C954 0.930 . S
H947 C955 0.930 . S
H948 C958 0.935 . S
H949 C959 0.930 . S
C950 H944 0.930 . S
C950 C951 1.355 . S
C950 C952 1.415 1_554 S
C951 C950 1.355 . S
C951 C953 1.401 1_665 S
C952 C950 1.415 1_556 S
C952 C957 1.425 1_666 S
C952 C959 1.409 . S
C953 H945 0.935 . S
C953 C951 1.401 1_445 S
C953 C954 1.376 . S
C954 H946 0.930 . S
C954 C953 1.376 . S
C954 C957 1.409 . S
C955 H947 0.930 . S
C955 C956 1.355 . S
C955 C957 1.415 1_556 S
C956 C955 1.355 . S
C956 C958 1.401 1_445 S
C957 C952 1.425 1_444 S
C957 C954 1.409 . S
C957 C955 1.415 1_554 S
C958 H948 0.935 . S
C958 C956 1.401 1_665 S
C958 C959 1.376 . S
C959 H949 0.930 . S
C959 C952 1.409 . S
C959 C958 1.376 . S
H960 C966 0.930 . S
H961 C969 0.930 . S
H962 C970 0.930 . S
H963 C971 0.930 . S
H964 C974 0.930 . S
H965 C975 0.930 . S
C966 H960 0.930 . S
C966 C967 1.355 1_565 S
C966 C968 1.415 . S
C967 C966 1.355 1_545 S
C967 C969 1.419 . S
C968 C966 1.415 . S
C968 C973 1.425 1_565 S
C968 C975 1.409 . S
C969 H961 0.930 . S
C969 C967 1.419 . S
C969 C970 1.362 . S
C970 H962 0.930 . S
C970 C969 1.362 . S
C970 C973 1.409 . S
C971 H963 0.930 . S
C971 C972 1.355 1_545 S
C971 C973 1.415 . S
C972 C971 1.355 1_565 S
C972 C974 1.419 . S
C973 C968 1.425 1_545 S
C973 C970 1.409 . S
C973 C971 1.415 . S
C974 H964 0.930 . S
C974 C972 1.419 . S
C974 C975 1.362 . S
C975 H965 0.930 . S
C975 C968 1.409 . S
C975 C974 1.362 . S
H976 C982 0.936 . S
H977 C985 0.930 . S
H978 C986 0.930 . S
H979 C987 0.936 . S
H980 C990 0.930 . S
H981 C991 0.930 . S
C982 H976 0.936 . S
C982 C983 1.355 . S
C982 C984 1.415 1_455 S
C983 C982 1.355 . S
C983 C985 1.419 . S
C984 C982 1.415 1_655 S
C984 C989 1.425 1_655 S
C984 C991 1.409 . S
C985 H977 0.930 . S
C985 C983 1.419 . S
C985 C986 1.362 . S
C986 H978 0.930 . S
C986 C985 1.362 . S
C986 C989 1.409 . S
C987 H979 0.936 . S
C987 C988 1.355 . S
C987 C989 1.415 1_655 S
C988 C987 1.355 . S
C988 C990 1.419 . S
C989 C984 1.425 1_455 S
C989 C986 1.409 . S
C989 C987 1.415 1_455 S
C990 H980 0.930 . S
C990 C988 1.419 . S
C990 C991 1.362 . S
C991 H981 0.930 . S
C991 C984 1.409 . S
C991 C990 1.362 . S
H992 C998 0.930 . S
H993 C1001 0.930 . S
H994 C1002 0.930 . S
H995 C1003 0.930 . S
H996 C1006 0.930 . S
H997 C1007 0.930 . S
C998 H992 0.930 . S
C998 C999 1.355 . S
C998 C1000 1.415 1_556 S
C999 C998 1.355 . S
C999 C1001 1.419 . S
C1000 C998 1.415 1_554 S
C1000 C1005 1.425 1_554 S
C1000 C1007 1.409 . S
C1001 H993 0.930 . S
C1001 C999 1.419 . S
C1001 C1002 1.362 . S
C1002 H994 0.930 . S
C1002 C1001 1.362 . S
C1002 C1005 1.409 . S
C1003 H995 0.930 . S
C1003 C1004 1.355 . S
C1003 C1005 1.415 1_554 S
C1004 C1003 1.355 . S
C1004 C1006 1.419 . S
C1005 C1000 1.425 1_556 S
C1005 C1002 1.409 . S
C1005 C1003 1.415 1_556 S
C1006 H996 0.930 . S
C1006 C1004 1.419 . S
C1006 C1007 1.362 . S
C1007 H997 0.930 . S
C1007 C1000 1.409 . S
C1007 C1006 1.362 . S
H1008 C1014 0.930 . S
H1009 C1017 0.930 . S
H1010 C1018 0.930 . S
H1011 C1019 0.930 . S
H1012 C1022 0.930 . S
H1013 C1023 0.930 . S
C1014 H1008 0.930 . S
C1014 C1015 1.355 . S
C1014 C1016 1.415 . S
C1015 C1014 1.355 . S
C1015 C1017 1.419 . S
C1016 C1014 1.415 . S
C1016 C1021 1.425 . S
C1016 C1023 1.409 . S
C1017 H1009 0.930 . S
C1017 C1015 1.419 . S
C1017 C1018 1.362 . S
C1018 H1010 0.930 . S
C1018 C1017 1.362 . S
C1018 C1021 1.409 . S
C1019 H1011 0.930 . S
C1019 C1020 1.355 . S
C1019 C1021 1.415 . S
C1020 C1019 1.355 . S
C1020 C1022 1.419 . S
C1021 C1016 1.425 . S
C1021 C1018 1.409 . S
C1021 C1019 1.415 . S
C1022 H1012 0.930 . S
C1022 C1020 1.419 . S
C1022 C1023 1.362 . S
C1023 H1013 0.930 . S
C1023 C1016 1.409 . S
C1023 C1022 1.362 . S
H1024 C1030 0.930 . S
H1025 C1033 0.930 . S
H1026 C1034 0.930 . S
H1027 C1035 0.930 . S
H1028 C1038 0.930 . S
H1029 C1039 0.930 . S
C1030 H1024 0.930 . S
C1030 C1031 1.355 . S
C1030 C1032 1.415 . S
C1031 C1030 1.355 . S
C1031 C1033 1.419 . S
C1032 C1030 1.415 . S
C1032 C1037 1.425 . S
C1032 C1039 1.409 . S
C1033 H1025 0.930 . S
C1033 C1031 1.419 . S
C1033 C1034 1.362 . S
C1034 H1026 0.930 . S
C1034 C1033 1.362 . S
C1034 C1037 1.409 . S
C1035 H1027 0.930 . S
C1035 C1036 1.355 . S
C1035 C1037 1.415 . S
C1036 C1035 1.355 . S
C1036 C1038 1.419 . S
C1037 C1032 1.425 . S
C1037 C1034 1.409 . S
C1037 C1035 1.415 . S
C1038 H1028 0.930 . S
C1038 C1036 1.419 . S
C1038 C1039 1.362 . S
C1039 H1029 0.930 . S
C1039 C1032 1.409 . S
C1039 C1038 1.362 . S
H1040 C1046 0.930 . S
H1041 C1049 0.930 . S
H1042 C1050 0.930 . S
H1043 C1051 0.930 . S
H1044 C1054 0.930 . S
H1045 C1055 0.930 . S
C1046 H1040 0.930 . S
C1046 C1047 1.355 . S
C1046 C1048 1.415 . S
C1047 C1046 1.355 . S
C1047 C1049 1.419 . S
C1048 C1046 1.415 . S
C1048 C1053 1.425 1_455 S
C1048 C1055 1.409 . S
C1049 H1041 0.930 . S
C1049 C1047 1.419 . S
C1049 C1050 1.362 1_455 S
C1050 H1042 0.930 . S
C1050 C1049 1.362 1_655 S
C1050 C1053 1.409 . S
C1051 H1043 0.930 . S
C1051 C1052 1.355 . S
C1051 C1053 1.415 . S
C1052 C1051 1.355 . S
C1052 C1054 1.419 . S
C1053 C1048 1.425 1_655 S
C1053 C1050 1.409 . S
C1053 C1051 1.415 . S
C1054 H1044 0.930 . S
C1054 C1052 1.419 . S
C1054 C1055 1.362 1_655 S
C1055 H1045 0.930 . S
C1055 C1048 1.409 . S
C1055 C1054 1.362 1_455 S
H1056 C1062 0.930 . S
H1057 C1065 0.930 . S
H1058 C1066 0.930 . S
H1059 C1067 0.930 . S
H1060 C1070 0.930 . S
H1061 C1071 0.930 . S
C1062 H1056 0.930 . S
C1062 C1063 1.355 . S
C1062 C1064 1.415 . S
C1063 C1062 1.355 . S
C1063 C1065 1.419 . S
C1064 C1062 1.415 . S
C1064 C1069 1.425 . S
C1064 C1071 1.409 . S
C1065 H1057 0.930 . S
C1065 C1063 1.419 . S
C1065 C1066 1.362 . S
C1066 H1058 0.930 . S
C1066 C1065 1.362 . S
C1066 C1069 1.409 . S
C1067 H1059 0.930 . S
C1067 C1068 1.355 . S
C1067 C1069 1.415 . S
C1068 C1067 1.355 . S
C1068 C1070 1.419 . S
C1069 C1064 1.425 . S
C1069 C1066 1.409 . S
C1069 C1067 1.415 . S
C1070 H1060 0.930 . S
C1070 C1068 1.419 . S
C1070 C1071 1.362 . S
C1071 H1061 0.930 . S
C1071 C1064 1.409 . S
C1071 C1070 1.362 . S
H1072 C1078 0.930 . S
H1073 C1081 0.930 . S
H1074 C1082 0.930 . S
H1075 C1083 0.930 . S
H1076 C1086 0.930 . S
H1077 C1087 0.930 . S
C1078 H1072 0.930 . S
C1078 C1079 1.355 . S
C1078 C1080 1.415 . S
C1079 C1078 1.355 . S
C1079 C1081 1.419 . S
C1080 C1078 1.415 . S
C1080 C1085 1.425 . S
C1080 C1087 1.409 . S
C1081 H1073 0.930 . S
C1081 C1079 1.419 . S
C1081 C1082 1.362 . S
C1082 H1074 0.930 . S
C1082 C1081 1.362 . S
C1082 C1085 1.409 . S
C1083 H1075 0.930 . S
C1083 C1084 1.355 . S
C1083 C1085 1.415 . S
C1084 C1083 1.355 . S
C1084 C1086 1.419 . S
C1085 C1080 1.425 . S
C1085 C1082 1.409 . S
C1085 C1083 1.415 . S
C1086 H1076 0.930 . S
C1086 C1084 1.419 . S
C1086 C1087 1.362 . S
C1087 H1077 0.930 . S
C1087 C1080 1.409 . S
C1087 C1086 1.362 . S
H1088 C1094 0.930 . S
H1089 C1097 0.930 . S
H1090 C1098 0.930 . S
H1091 C1099 0.930 . S
H1092 C1102 0.930 . S
H1093 C1103 0.930 . S
C1094 H1088 0.930 . S
C1094 C1095 1.355 . S
C1094 C1096 1.415 . S
C1095 C1094 1.355 . S
C1095 C1097 1.419 . S
C1096 C1094 1.415 . S
C1096 C1101 1.425 . S
C1096 C1103 1.409 . S
C1097 H1089 0.930 . S
C1097 C1095 1.419 . S
C1097 C1098 1.362 . S
C1098 H1090 0.930 . S
C1098 C1097 1.362 . S
C1098 C1101 1.409 . S
C1099 H1091 0.930 . S
C1099 C1100 1.355 . S
C1099 C1101 1.415 . S
C1100 C1099 1.355 . S
C1100 C1102 1.419 . S
C1101 C1096 1.425 . S
C1101 C1098 1.409 . S
C1101 C1099 1.415 . S
C1102 H1092 0.930 . S
C1102 C1100 1.419 . S
C1102 C1103 1.362 . S
C1103 H1093 0.930 . S
C1103 C1096 1.409 . S
C1103 C1102 1.362 . S
H1104 C1110 0.930 . S
H1105 C1113 0.930 . S
H1106 C1114 0.930 . S
H1107 C1115 0.930 . S
H1108 C1118 0.930 . S
H1109 C1119 0.930 . S
C1110 H1104 0.930 . S
C1110 C1111 1.367 . S
C1110 C1112 1.415 . S
C1111 C1110 1.367 . S
C1111 C1113 1.404 1_565 S
C1112 C1110 1.415 . S
C1112 C1117 1.425 1_565 S
C1112 C1119 1.409 . S
C1113 H1105 0.930 . S
C1113 C1111 1.404 1_545 S
C1113 C1114 1.362 . S
C1114 H1106 0.930 . S
C1114 C1113 1.362 . S
C1114 C1117 1.409 . S
C1115 H1107 0.930 . S
C1115 C1116 1.367 . S
C1115 C1117 1.415 . S
C1116 C1115 1.367 . S
C1116 C1118 1.404 1_545 S
C1117 C1112 1.425 1_545 S
C1117 C1114 1.409 . S
C1117 C1115 1.415 . S
C1118 H1108 0.930 . S
C1118 C1116 1.404 1_565 S
C1118 C1119 1.362 . S
C1119 H1109 0.930 . S
C1119 C1112 1.409 . S
C1119 C1118 1.362 . S
H1120 C1126 0.930 . S
H1121 C1129 0.930 . S
H1122 C1130 0.930 . S
H1123 C1131 0.930 . S
H1124 C1134 0.930 . S
H1125 C1135 0.930 . S
C1126 H1120 0.930 . S
C1126 C1127 1.355 . S
C1126 C1128 1.415 . S
C1127 C1126 1.355 . S
C1127 C1129 1.419 . S
C1128 C1126 1.415 . S
C1128 C1133 1.425 . S
C1128 C1135 1.409 . S
C1129 H1121 0.930 . S
C1129 C1127 1.419 . S
C1129 C1130 1.362 . S
C1130 H1122 0.930 . S
C1130 C1129 1.362 . S
C1130 C1133 1.409 . S
C1131 H1123 0.930 . S
C1131 C1132 1.355 . S
C1131 C1133 1.415 . S
C1132 C1131 1.355 . S
C1132 C1134 1.419 . S
C1133 C1128 1.425 . S
C1133 C1130 1.409 . S
C1133 C1131 1.415 . S
C1134 H1124 0.930 . S
C1134 C1132 1.419 . S
C1134 C1135 1.362 . S
C1135 H1125 0.930 . S
C1135 C1128 1.409 . S
C1135 C1134 1.362 . S
H1136 C1142 0.930 . S
H1137 C1145 0.930 . S
H1138 C1146 0.930 . S
H1139 C1147 0.930 . S
H1140 C1150 0.930 . S
H1141 C1151 0.930 . S
C1142 H1136 0.930 . S
C1142 C1143 1.355 . S
C1142 C1144 1.415 . S
C1143 C1142 1.355 . S
C1143 C1145 1.419 . S
C1144 C1142 1.415 . S
C1144 C1149 1.425 1_554 S
C1144 C1151 1.409 . S
C1145 H1137 0.930 . S
C1145 C1143 1.419 . S
C1145 C1146 1.362 1_554 S
C1146 H1138 0.930 . S
C1146 C1145 1.362 1_556 S
C1146 C1149 1.409 . S
C1147 H1139 0.930 . S
C1147 C1148 1.355 . S
C1147 C1149 1.415 . S
C1148 C1147 1.355 . S
C1148 C1150 1.419 . S
C1149 C1144 1.425 1_556 S
C1149 C1146 1.409 . S
C1149 C1147 1.415 . S
C1150 H1140 0.930 . S
C1150 C1148 1.419 . S
C1150 C1151 1.362 1_556 S
C1151 H1141 0.930 . S
C1151 C1144 1.409 . S
C1151 C1150 1.362 1_554 S
H1152 C1158 0.930 . S
H1153 C1161 0.930 . S
H1154 C1162 0.930 . S
H1155 C1163 0.930 . S
H1156 C1166 0.930 . S
H1157 C1167 0.930 . S
C1158 H1152 0.930 . S
C1158 C1159 1.355 . S
C1158 C1160 1.415 . S
C1159 C1158 1.355 . S
C1159 C1161 1.419 1_545 S
C1160 C1158 1.415 . S
C1160 C1165 1.425 1_545 S
C1160 C1167 1.409 . S
C1161 H1153 0.930 . S
C1161 C1159 1.419 1_565 S
C1161 C1162 1.362 . S
C1162 H1154 0.930 . S
C1162 C1161 1.362 . S
C1162 C1165 1.409 . S
C1163 H1155 0.930 . S
C1163 C1164 1.355 1_565 S
C1163 C1165 1.415 . S
C1164 C1163 1.355 1_545 S
C1164 C1166 1.419 . S
C1165 C1160 1.425 1_565 S
C1165 C1162 1.409 . S
C1165 C1163 1.415 . S
C1166 H1156 0.930 . S
C1166 C1164 1.419 . S
C1166 C1167 1.362 . S
C1167 H1157 0.930 . S
C1167 C1160 1.409 . S
C1167 C1166 1.362 . S
H1168 C1174 0.930 . S
H1169 C1177 0.930 . S
H1170 C1178 0.930 . S
H1171 C1179 0.930 . S
H1172 C1182 0.930 . S
H1173 C1183 0.930 . S
C1174 H1168 0.930 . S
C1174 C1175 1.355 . S
C1174 C1176 1.415 . S
C1175 C1174 1.355 . S
C1175 C1177 1.419 . S
C1176 C1174 1.415 . S
C1176 C1181 1.425 . S
C1176 C1183 1.409 . S
C1177 H1169 0.930 . S
C1177 C1175 1.419 . S
C1177 C1178 1.362 . S
C1178 H1170 0.930 . S
C1178 C1177 1.362 . S
C1178 C1181 1.409 . S
C1179 H1171 0.930 . S
C1179 C1180 1.355 . S
C1179 C1181 1.415 . S
C1180 C1179 1.355 . S
C1180 C1182 1.419 . S
C1181 C1176 1.425 . S
C1181 C1178 1.409 . S
C1181 C1179 1.415 . S
C1182 H1172 0.930 . S
C1182 C1180 1.419 . S
C1182 C1183 1.362 . S
C1183 H1173 0.930 . S
C1183 C1176 1.409 . S
C1183 C1182 1.362 . S
H1184 C1190 0.930 . S
H1185 C1193 0.930 . S
H1186 C1194 0.930 . S
H1187 C1195 0.930 . S
H1188 C1198 0.930 . S
H1189 C1199 0.930 . S
C1190 H1184 0.930 . S
C1190 C1191 1.355 . S
C1190 C1192 1.415 . S
C1191 C1190 1.355 . S
C1191 C1193 1.419 . S
C1192 C1190 1.415 . S
C1192 C1197 1.425 . S
C1192 C1199 1.409 . S
C1193 H1185 0.930 . S
C1193 C1191 1.419 . S
C1193 C1194 1.362 . S
C1194 H1186 0.930 . S
C1194 C1193 1.362 . S
C1194 C1197 1.409 . S
C1195 H1187 0.930 . S
C1195 C1196 1.355 . S
C1195 C1197 1.415 . S
C1196 C1195 1.355 . S
C1196 C1198 1.419 . S
C1197 C1192 1.425 . S
C1197 C1194 1.409 . S
C1197 C1195 1.415 . S
C1198 H1188 0.930 . S
C1198 C1196 1.419 . S
C1198 C1199 1.362 . S
C1199 H1189 0.930 . S
C1199 C1192 1.409 . S
C1199 C1198 1.362 . S
H1200 C1206 0.930 . S
H1201 C1209 0.930 . S
H1202 C1210 0.930 . S
H1203 C1211 0.930 . S
H1204 C1214 0.930 . S
H1205 C1215 0.930 . S
C1206 H1200 0.930 . S
C1206 C1207 1.355 . S
C1206 C1208 1.415 . S
C1207 C1206 1.355 . S
C1207 C1209 1.419 1_545 S
C1208 C1206 1.415 . S
C1208 C1213 1.425 1_545 S
C1208 C1215 1.409 . S
C1209 H1201 0.930 . S
C1209 C1207 1.419 1_565 S
C1209 C1210 1.362 . S
C1210 H1202 0.930 . S
C1210 C1209 1.362 . S
C1210 C1213 1.409 . S
C1211 H1203 0.930 . S
C1211 C1212 1.355 1_565 S
C1211 C1213 1.415 . S
C1212 C1211 1.355 1_545 S
C1212 C1214 1.419 . S
C1213 C1208 1.425 1_565 S
C1213 C1210 1.409 . S
C1213 C1211 1.415 . S
C1214 H1204 0.930 . S
C1214 C1212 1.419 . S
C1214 C1215 1.362 . S
C1215 H1205 0.930 . S
C1215 C1208 1.409 . S
C1215 C1214 1.362 . S
H1216 C1222 0.930 1_545 S
H1217 C1225 0.930 . S
H1218 C1226 0.930 . S
H1219 C1227 0.930 . S
H1220 C1230 0.930 . S
H1221 C1231 0.930 . S
C1222 H1216 0.930 1_565 S
C1222 C1223 1.355 . S
C1222 C1224 1.415 . S
C1223 C1222 1.355 . S
C1223 C1225 1.419 . S
C1224 C1222 1.415 . S
C1224 C1229 1.425 . S
C1224 C1231 1.409 1_565 S
C1225 H1217 0.930 . S
C1225 C1223 1.419 . S
C1225 C1226 1.362 . S
C1226 H1218 0.930 . S
C1226 C1225 1.362 . S
C1226 C1229 1.409 . S
C1227 H1219 0.930 . S
C1227 C1228 1.355 . S
C1227 C1229 1.415 . S
C1228 C1227 1.355 . S
C1228 C1230 1.419 1_565 S
C1229 C1224 1.425 . S
C1229 C1226 1.409 . S
C1229 C1227 1.415 . S
C1230 H1220 0.930 . S
C1230 C1228 1.419 1_545 S
C1230 C1231 1.362 . S
C1231 H1221 0.930 . S
C1231 C1224 1.409 1_545 S
C1231 C1230 1.362 . S
H1232 C1238 0.930 . S
H1233 C1241 0.930 . S
H1234 C1242 0.930 . S
H1235 C1243 0.930 . S
H1236 C1246 0.930 . S
H1237 C1247 0.930 . S
C1238 H1232 0.930 . S
C1238 C1239 1.355 . S
C1238 C1240 1.415 . S
C1239 C1238 1.355 . S
C1239 C1241 1.419 . S
C1240 C1238 1.415 . S
C1240 C1245 1.425 . S
C1240 C1247 1.409 . S
C1241 H1233 0.930 . S
C1241 C1239 1.419 . S
C1241 C1242 1.362 . S
C1242 H1234 0.930 . S
C1242 C1241 1.362 . S
C1242 C1245 1.409 . S
C1243 H1235 0.930 . S
C1243 C1244 1.355 . S
C1243 C1245 1.415 . S
C1244 C1243 1.355 . S
C1244 C1246 1.419 . S
C1245 C1240 1.425 . S
C1245 C1242 1.409 . S
C1245 C1243 1.415 . S
C1246 H1236 0.930 . S
C1246 C1244 1.419 . S
C1246 C1247 1.362 . S
C1247 H1237 0.930 . S
C1247 C1240 1.409 . S
C1247 C1246 1.362 . S
H1248 C1254 0.930 . S
H1249 C1257 0.930 . S
H1250 C1258 0.930 . S
H1251 C1259 0.930 . S
H1252 C1262 0.930 . S
H1253 C1263 0.930 . S
C1254 H1248 0.930 . S
C1254 C1255 1.355 . S
C1254 C1256 1.415 . S
C1255 C1254 1.355 . S
C1255 C1257 1.419 . S
C1256 C1254 1.415 . S
C1256 C1261 1.425 . S
C1256 C1263 1.409 . S
C1257 H1249 0.930 . S
C1257 C1255 1.419 . S
C1257 C1258 1.362 . S
C1258 H1250 0.930 . S
C1258 C1257 1.362 . S
C1258 C1261 1.409 . S
C1259 H1251 0.930 . S
C1259 C1260 1.355 . S
C1259 C1261 1.415 . S
C1260 C1259 1.355 . S
C1260 C1262 1.419 . S
C1261 C1256 1.425 . S
C1261 C1258 1.409 . S
C1261 C1259 1.415 . S
C1262 H1252 0.930 . S
C1262 C1260 1.419 . S
C1262 C1263 1.362 . S
C1263 H1253 0.930 . S
C1263 C1256 1.409 . S
C1263 C1262 1.362 . S
H1264 C1270 0.930 . S
H1265 C1273 0.930 . S
H1266 C1274 0.930 . S
H1267 C1275 0.930 . S
H1268 C1278 0.930 . S
H1269 C1279 0.930 . S
C1270 H1264 0.930 . S
C1270 C1271 1.355 1_545 S
C1270 C1272 1.415 . S
C1271 C1270 1.355 1_565 S
C1271 C1273 1.419 . S
C1272 C1270 1.415 . S
C1272 C1277 1.425 1_545 S
C1272 C1279 1.409 . S
C1273 H1265 0.930 . S
C1273 C1271 1.419 . S
C1273 C1274 1.362 . S
C1274 H1266 0.930 . S
C1274 C1273 1.362 . S
C1274 C1277 1.409 . S
C1275 H1267 0.930 . S
C1275 C1276 1.355 . S
C1275 C1277 1.415 . S
C1276 C1275 1.355 . S
C1276 C1278 1.419 1_565 S
C1277 C1272 1.425 1_565 S
C1277 C1274 1.409 . S
C1277 C1275 1.415 . S
C1278 H1268 0.930 . S
C1278 C1276 1.419 1_545 S
C1278 C1279 1.362 . S
C1279 H1269 0.930 . S
C1279 C1272 1.409 . S
C1279 C1278 1.362 . S
H1280 C1286 0.930 . S
H1281 C1289 0.930 . S
H1282 C1290 0.930 . S
H1283 C1291 0.930 . S
H1284 C1294 0.930 . S
H1285 C1295 0.930 . S
C1286 H1280 0.930 . S
C1286 C1287 1.355 . S
C1286 C1288 1.415 . S
C1287 C1286 1.355 . S
C1287 C1289 1.419 . S
C1288 C1286 1.415 . S
C1288 C1293 1.425 . S
C1288 C1295 1.409 . S
C1289 H1281 0.930 . S
C1289 C1287 1.419 . S
C1289 C1290 1.362 . S
C1290 H1282 0.930 . S
C1290 C1289 1.362 . S
C1290 C1293 1.409 . S
C1291 H1283 0.930 . S
C1291 C1292 1.355 . S
C1291 C1293 1.415 . S
C1292 C1291 1.355 . S
C1292 C1294 1.419 . S
C1293 C1288 1.425 . S
C1293 C1290 1.409 . S
C1293 C1291 1.415 . S
C1294 H1284 0.930 . S
C1294 C1292 1.419 . S
C1294 C1295 1.362 . S
C1295 H1285 0.930 . S
C1295 C1288 1.409 . S
C1295 C1294 1.362 . S
H1296 C1302 0.930 . S
H1297 C1305 0.930 . S
H1298 C1306 0.930 . S
H1299 C1307 0.930 . S
H1300 C1310 0.930 . S
H1301 C1311 0.930 . S
C1302 H1296 0.930 . S
C1302 C1303 1.355 . S
C1302 C1304 1.415 . S
C1303 C1302 1.355 . S
C1303 C1305 1.419 . S
C1304 C1302 1.415 . S
C1304 C1309 1.425 . S
C1304 C1311 1.409 . S
C1305 H1297 0.930 . S
C1305 C1303 1.419 . S
C1305 C1306 1.362 . S
C1306 H1298 0.930 . S
C1306 C1305 1.362 . S
C1306 C1309 1.409 . S
C1307 H1299 0.930 . S
C1307 C1308 1.355 . S
C1307 C1309 1.415 . S
C1308 C1307 1.355 . S
C1308 C1310 1.419 . S
C1309 C1304 1.425 . S
C1309 C1306 1.409 . S
C1309 C1307 1.415 . S
C1310 H1300 0.930 . S
C1310 C1308 1.419 . S
C1310 C1311 1.362 . S
C1311 H1301 0.930 . S
C1311 C1304 1.409 . S
C1311 C1310 1.362 . S
H1312 C1318 0.930 . S
H1313 C1321 0.930 . S
H1314 C1322 0.930 . S
H1315 C1323 0.930 . S
H1316 C1326 0.930 . S
H1317 C1327 0.930 . S
C1318 H1312 0.930 . S
C1318 C1319 1.355 . S
C1318 C1320 1.415 . S
C1319 C1318 1.355 . S
C1319 C1321 1.419 . S
C1320 C1318 1.415 . S
C1320 C1325 1.425 . S
C1320 C1327 1.409 . S
C1321 H1313 0.930 . S
C1321 C1319 1.419 . S
C1321 C1322 1.362 . S
C1322 H1314 0.930 . S
C1322 C1321 1.362 . S
C1322 C1325 1.409 . S
C1323 H1315 0.930 . S
C1323 C1324 1.355 . S
C1323 C1325 1.415 . S
C1324 C1323 1.355 . S
C1324 C1326 1.419 . S
C1325 C1320 1.425 . S
C1325 C1322 1.409 . S
C1325 C1323 1.415 . S
C1326 H1316 0.930 . S
C1326 C1324 1.419 . S
C1326 C1327 1.362 . S
C1327 H1317 0.930 . S
C1327 C1320 1.409 . S
C1327 C1326 1.362 . S
H1328 C1334 0.930 . S
H1329 C1337 0.930 . S
H1330 C1338 0.930 . S
H1331 C1339 0.930 . S
H1332 C1342 0.930 . S
H1333 C1343 0.930 . S
C1334 H1328 0.930 . S
C1334 C1335 1.355 . S
C1334 C1336 1.415 . S
C1335 C1334 1.355 . S
C1335 C1337 1.419 . S
C1336 C1334 1.415 . S
C1336 C1341 1.425 . S
C1336 C1343 1.409 . S
C1337 H1329 0.930 . S
C1337 C1335 1.419 . S
C1337 C1338 1.362 . S
C1338 H1330 0.930 . S
C1338 C1337 1.362 . S
C1338 C1341 1.409 . S
C1339 H1331 0.930 . S
C1339 C1340 1.355 . S
C1339 C1341 1.415 . S
C1340 C1339 1.355 . S
C1340 C1342 1.419 . S
C1341 C1336 1.425 . S
C1341 C1338 1.409 . S
C1341 C1339 1.415 . S
C1342 H1332 0.930 . S
C1342 C1340 1.419 . S
C1342 C1343 1.362 . S
C1343 H1333 0.930 . S
C1343 C1336 1.409 . S
C1343 C1342 1.362 . S
H1344 C1350 0.930 . S
H1345 C1353 0.930 . S
H1346 C1354 0.930 . S
H1347 C1355 0.930 . S
H1348 C1358 0.930 . S
H1349 C1359 0.930 . S
C1350 H1344 0.930 . S
C1350 C1351 1.355 . S
C1350 C1352 1.415 . S
C1351 C1350 1.355 . S
C1351 C1353 1.419 . S
C1352 C1350 1.415 . S
C1352 C1357 1.425 . S
C1352 C1359 1.409 . S
C1353 H1345 0.930 . S
C1353 C1351 1.419 . S
C1353 C1354 1.362 . S
C1354 H1346 0.930 . S
C1354 C1353 1.362 . S
C1354 C1357 1.409 . S
C1355 H1347 0.930 . S
C1355 C1356 1.355 . S
C1355 C1357 1.415 . S
C1356 C1355 1.355 . S
C1356 C1358 1.419 . S
C1357 C1352 1.425 . S
C1357 C1354 1.409 . S
C1357 C1355 1.415 . S
C1358 H1348 0.930 . S
C1358 C1356 1.419 . S
C1358 C1359 1.362 . S
C1359 H1349 0.930 . S
C1359 C1352 1.409 . S
C1359 C1358 1.362 . S
H1360 C1366 0.930 . S
H1361 C1369 0.930 . S
H1362 C1370 0.930 . S
H1363 C1371 0.930 . S
H1364 C1374 0.930 . S
H1365 C1375 0.930 . S
C1366 H1360 0.930 . S
C1366 C1367 1.355 . S
C1366 C1368 1.415 . S
C1367 C1366 1.355 . S
C1367 C1369 1.419 . S
C1368 C1366 1.415 . S
C1368 C1373 1.425 . S
C1368 C1375 1.409 . S
C1369 H1361 0.930 . S
C1369 C1367 1.419 . S
C1369 C1370 1.362 . S
C1370 H1362 0.930 . S
C1370 C1369 1.362 . S
C1370 C1373 1.409 . S
C1371 H1363 0.930 . S
C1371 C1372 1.355 . S
C1371 C1373 1.415 . S
C1372 C1371 1.355 . S
C1372 C1374 1.419 . S
C1373 C1368 1.425 . S
C1373 C1370 1.409 . S
C1373 C1371 1.415 . S
C1374 H1364 0.930 . S
C1374 C1372 1.419 . S
C1374 C1375 1.362 . S
C1375 H1365 0.930 . S
C1375 C1368 1.409 . S
C1375 C1374 1.362 . S
H1376 C1382 0.930 . S
H1377 C1385 0.930 . S
H1378 C1386 0.930 . S
H1379 C1387 0.930 . S
H1380 C1390 0.930 . S
H1381 C1391 0.930 . S
C1382 H1376 0.930 . S
C1382 C1383 1.355 . S
C1382 C1384 1.415 . S
C1383 C1382 1.355 . S
C1383 C1385 1.419 . S
C1384 C1382 1.415 . S
C1384 C1389 1.425 . S
C1384 C1391 1.409 . S
C1385 H1377 0.930 . S
C1385 C1383 1.419 . S
C1385 C1386 1.362 . S
C1386 H1378 0.930 . S
C1386 C1385 1.362 . S
C1386 C1389 1.409 . S
C1387 H1379 0.930 . S
C1387 C1388 1.355 . S
C1387 C1389 1.415 . S
C1388 C1387 1.355 . S
C1388 C1390 1.419 . S
C1389 C1384 1.425 . S
C1389 C1386 1.409 . S
C1389 C1387 1.415 . S
C1390 H1380 0.930 . S
C1390 C1388 1.419 . S
C1390 C1391 1.362 . S
C1391 H1381 0.930 . S
C1391 C1384 1.409 . S
C1391 C1390 1.362 . S
H1392 C1398 0.930 . S
H1393 C1401 0.930 . S
H1394 C1402 0.930 . S
H1395 C1403 0.930 . S
H1396 C1406 0.930 . S
H1397 C1407 0.930 . S
C1398 H1392 0.930 . S
C1398 C1399 1.355 . S
C1398 C1400 1.415 . S
C1399 C1398 1.355 . S
C1399 C1401 1.419 . S
C1400 C1398 1.415 . S
C1400 C1405 1.425 . S
C1400 C1407 1.409 . S
C1401 H1393 0.930 . S
C1401 C1399 1.419 . S
C1401 C1402 1.362 . S
C1402 H1394 0.930 . S
C1402 C1401 1.362 . S
C1402 C1405 1.409 . S
C1403 H1395 0.930 . S
C1403 C1404 1.355 . S
C1403 C1405 1.415 . S
C1404 C1403 1.355 . S
C1404 C1406 1.419 . S
C1405 C1400 1.425 . S
C1405 C1402 1.409 . S
C1405 C1403 1.415 . S
C1406 H1396 0.930 . S
C1406 C1404 1.419 . S
C1406 C1407 1.362 . S
C1407 H1397 0.930 . S
C1407 C1400 1.409 . S
C1407 C1406 1.362 . S
H1408 C1414 0.930 . S
H1409 C1417 0.930 . S
H1410 C1418 0.930 . S
H1411 C1419 0.930 . S
H1412 C1422 0.930 . S
H1413 C1423 0.930 . S
C1414 H1408 0.930 . S
C1414 C1415 1.355 . S
C1414 C1416 1.415 . S
C1415 C1414 1.355 . S
C1415 C1417 1.419 . S
C1416 C1414 1.415 . S
C1416 C1421 1.425 . S
C1416 C1423 1.409 . S
C1417 H1409 0.930 . S
C1417 C1415 1.419 . S
C1417 C1418 1.362 . S
C1418 H1410 0.930 . S
C1418 C1417 1.362 . S
C1418 C1421 1.409 . S
C1419 H1411 0.930 . S
C1419 C1420 1.355 . S
C1419 C1421 1.415 . S
C1420 C1419 1.355 . S
C1420 C1422 1.419 . S
C1421 C1416 1.425 . S
C1421 C1418 1.409 . S
C1421 C1419 1.415 . S
C1422 H1412 0.930 . S
C1422 C1420 1.419 . S
C1422 C1423 1.362 . S
C1423 H1413 0.930 . S
C1423 C1416 1.409 . S
C1423 C1422 1.362 . S
H1424 C1430 0.930 . S
H1425 C1433 0.930 . S
H1426 C1434 0.930 . S
H1427 C1435 0.930 . S
H1428 C1438 0.930 . S
H1429 C1439 0.930 . S
C1430 H1424 0.930 . S
C1430 C1431 1.355 . S
C1430 C1432 1.415 . S
C1431 C1430 1.355 . S
C1431 C1433 1.419 . S
C1432 C1430 1.415 . S
C1432 C1437 1.425 . S
C1432 C1439 1.409 . S
C1433 H1425 0.930 . S
C1433 C1431 1.419 . S
C1433 C1434 1.362 . S
C1434 H1426 0.930 . S
C1434 C1433 1.362 . S
C1434 C1437 1.409 . S
C1435 H1427 0.930 . S
C1435 C1436 1.355 . S
C1435 C1437 1.415 . S
C1436 C1435 1.355 . S
C1436 C1438 1.419 . S
C1437 C1432 1.425 . S
C1437 C1434 1.409 . S
C1437 C1435 1.415 . S
C1438 H1428 0.930 . S
C1438 C1436 1.419 . S
C1438 C1439 1.362 . S
C1439 H1429 0.930 . S
C1439 C1432 1.409 . S
C1439 C1438 1.362 . S
H1440 C1446 0.930 . S
H1441 C1449 0.930 . S
H1442 C1450 0.930 . S
H1443 C1451 0.930 . S
H1444 C1454 0.930 . S
H1445 C1455 0.930 . S
C1446 H1440 0.930 . S
C1446 C1447 1.355 . S
C1446 C1448 1.415 . S
C1447 C1446 1.355 . S
C1447 C1449 1.419 . S
C1448 C1446 1.415 . S
C1448 C1453 1.425 . S
C1448 C1455 1.409 . S
C1449 H1441 0.930 . S
C1449 C1447 1.419 . S
C1449 C1450 1.362 . S
C1450 H1442 0.930 . S
C1450 C1449 1.362 . S
C1450 C1453 1.409 . S
C1451 H1443 0.930 . S
C1451 C1452 1.355 . S
C1451 C1453 1.415 . S
C1452 C1451 1.355 . S
C1452 C1454 1.419 . S
C1453 C1448 1.425 . S
C1453 C1450 1.409 . S
C1453 C1451 1.415 . S
C1454 H1444 0.930 . S
C1454 C1452 1.419 . S
C1454 C1455 1.362 . S
C1455 H1445 0.930 . S
C1455 C1448 1.409 . S
C1455 C1454 1.362 . S
H1456 C1462 0.930 . S
H1457 C1465 0.930 . S
H1458 C1466 0.930 . S
H1459 C1467 0.930 . S
H1460 C1470 0.930 . S
H1461 C1471 0.930 . S
C1462 H1456 0.930 . S
C1462 C1463 1.355 . S
C1462 C1464 1.415 . S
C1463 C1462 1.355 . S
C1463 C1465 1.419 . S
C1464 C1462 1.415 . S
C1464 C1469 1.425 . S
C1464 C1471 1.409 . S
C1465 H1457 0.930 . S
C1465 C1463 1.419 . S
C1465 C1466 1.362 . S
C1466 H1458 0.930 . S
C1466 C1465 1.362 . S
C1466 C1469 1.409 . S
C1467 H1459 0.930 . S
C1467 C1468 1.355 . S
C1467 C1469 1.415 . S
C1468 C1467 1.355 . S
C1468 C1470 1.419 . S
C1469 C1464 1.425 . S
C1469 C1466 1.409 . S
C1469 C1467 1.415 . S
C1470 H1460 0.930 . S
C1470 C1468 1.419 . S
C1470 C1471 1.362 . S
C1471 H1461 0.930 . S
C1471 C1464 1.409 . S
C1471 C1470 1.362 . S
H1472 C1478 0.930 . S
H1473 C1481 0.930 . S
H1474 C1482 0.930 . S
H1475 C1483 0.930 . S
H1476 C1486 0.930 . S
H1477 C1487 0.930 . S
C1478 H1472 0.930 . S
C1478 C1479 1.355 . S
C1478 C1480 1.415 . S
C1479 C1478 1.355 . S
C1479 C1481 1.419 . S
C1480 C1478 1.415 . S
C1480 C1485 1.425 . S
C1480 C1487 1.409 . S
C1481 H1473 0.930 . S
C1481 C1479 1.419 . S
C1481 C1482 1.362 . S
C1482 H1474 0.930 . S
C1482 C1481 1.362 . S
C1482 C1485 1.409 . S
C1483 H1475 0.930 . S
C1483 C1484 1.355 . S
C1483 C1485 1.415 . S
C1484 C1483 1.355 . S
C1484 C1486 1.419 . S
C1485 C1480 1.425 . S
C1485 C1482 1.409 . S
C1485 C1483 1.415 . S
C1486 H1476 0.930 . S
C1486 C1484 1.419 . S
C1486 C1487 1.362 . S
C1487 H1477 0.930 . S
C1487 C1480 1.409 . S
C1487 C1486 1.362 . S
H1488 C1494 0.930 . S
H1489 C1497 0.930 . S
H1490 C1498 0.930 . S
H1491 C1499 0.930 . S
H1492 C1502 0.930 . S
H1493 C1503 0.930 . S
C1494 H1488 0.930 . S
C1494 C1495 1.355 . S
C1494 C1496 1.415 . S
C1495 C1494 1.355 . S
C1495 C1497 1.419 . S
C1496 C1494 1.415 . S
C1496 C1501 1.425 . S
C1496 C1503 1.409 . S
C1497 H1489 0.930 . S
C1497 C1495 1.419 . S
C1497 C1498 1.362 . S
C1498 H1490 0.930 . S
C1498 C1497 1.362 . S
C1498 C1501 1.409 . S
C1499 H1491 0.930 . S
C1499 C1500 1.355 . S
C1499 C1501 1.415 . S
C1500 C1499 1.355 . S
C1500 C1502 1.419 . S
C1501 C1496 1.425 . S
C1501 C1498 1.409 . S
C1501 C1499 1.415 . S
C1502 H1492 0.930 . S
C1502 C1500 1.419 . S
C1502 C1503 1.362 . S
C1503 H1493 0.930 . S
C1503 C1496 1.409 . S
C1503 C1502 1.362 . S
H1504 C1510 0.930 . S
H1505 C1513 0.930 . S
H1506 C1514 0.930 . S
H1507 C1515 0.930 . S
H1508 C1518 0.930 . S
H1509 C1519 0.930 . S
C1510 H1504 0.930 . S
C1510 C1511 1.355 . S
C1510 C1512 1.415 . S
C1511 C1510 1.355 . S
C1511 C1513 1.419 . S
C1512 C1510 1.415 . S
C1512 C1517 1.425 . S
C1512 C1519 1.409 . S
C1513 H1505 0.930 . S
C1513 C1511 1.419 . S
C1513 C1514 1.362 . S
C1514 H1506 0.930 . S
C1514 C1513 1.362 . S
C1514 C1517 1.409 . S
C1515 H1507 0.930 . S
C1515 C1516 1.355 . S
C1515 C1517 1.415 . S
C1516 C1515 1.355 . S
C1516 C1518 1.419 . S
C1517 C1512 1.425 . S
C1517 C1514 1.409 . S
C1517 C1515 1.415 . S
C1518 H1508 0.930 . S
C1518 C1516 1.419 . S
C1518 C1519 1.362 . S
C1519 H1509 0.930 . S
C1519 C1512 1.409 . S
C1519 C1518 1.362 . S
H1520 C1526 0.930 . S
H1521 C1529 0.930 . S
H1522 C1530 0.930 . S
H1523 C1531 0.930 . S
H1524 C1534 0.930 . S
H1525 C1535 0.930 . S
C1526 H1520 0.930 . S
C1526 C1527 1.355 . S
C1526 C1528 1.415 . S
C1527 C1526 1.355 . S
C1527 C1529 1.419 . S
C1528 C1526 1.415 . S
C1528 C1533 1.425 . S
C1528 C1535 1.409 . S
C1529 H1521 0.930 . S
C1529 C1527 1.419 . S
C1529 C1530 1.362 . S
C1530 H1522 0.930 . S
C1530 C1529 1.362 . S
C1530 C1533 1.409 . S
C1531 H1523 0.930 . S
C1531 C1532 1.355 . S
C1531 C1533 1.415 . S
C1532 C1531 1.355 . S
C1532 C1534 1.419 . S
C1533 C1528 1.425 . S
C1533 C1530 1.409 . S
C1533 C1531 1.415 . S
C1534 H1524 0.930 . S
C1534 C1532 1.419 . S
C1534 C1535 1.362 . S
C1535 H1525 0.930 . S
C1535 C1528 1.409 . S
C1535 C1534 1.362 . S
H1536 C1542 0.930 . S
H1537 C1545 0.930 . S
H1538 C1546 0.930 . S
H1539 C1547 0.930 . S
H1540 C1550 0.930 . S
H1541 C1551 0.930 . S
C1542 H1536 0.930 . S
C1542 C1543 1.355 . S
C1542 C1544 1.415 . S
C1543 C1542 1.355 . S
C1543 C1545 1.419 . S
C1544 C1542 1.415 . S
C1544 C1549 1.425 . S
C1544 C1551 1.409 . S
C1545 H1537 0.930 . S
C1545 C1543 1.419 . S
C1545 C1546 1.362 . S
C1546 H1538 0.930 . S
C1546 C1545 1.362 . S
C1546 C1549 1.409 . S
C1547 H1539 0.930 . S
C1547 C1548 1.355 . S
C1547 C1549 1.415 . S
C1548 C1547 1.355 . S
C1548 C1550 1.419 . S
C1549 C1544 1.425 . S
C1549 C1546 1.409 . S
C1549 C1547 1.415 . S
C1550 H1540 0.930 . S
C1550 C1548 1.419 . S
C1550 C1551 1.362 . S
C1551 H1541 0.930 . S
C1551 C1544 1.409 . S
C1551 C1550 1.362 . S
H1552 C1558 0.930 . S
H1553 C1561 0.930 . S
H1554 C1562 0.930 . S
H1555 C1563 0.930 . S
H1556 C1566 0.930 . S
H1557 C1567 0.930 . S
C1558 H1552 0.930 . S
C1558 C1559 1.355 . S
C1558 C1560 1.415 . S
C1559 C1558 1.355 . S
C1559 C1561 1.419 . S
C1560 C1558 1.415 . S
C1560 C1565 1.425 . S
C1560 C1567 1.409 . S
C1561 H1553 0.930 . S
C1561 C1559 1.419 . S
C1561 C1562 1.362 . S
C1562 H1554 0.930 . S
C1562 C1561 1.362 . S
C1562 C1565 1.409 . S
C1563 H1555 0.930 . S
C1563 C1564 1.355 . S
C1563 C1565 1.415 . S
C1564 C1563 1.355 . S
C1564 C1566 1.419 . S
C1565 C1560 1.425 . S
C1565 C1562 1.409 . S
C1565 C1563 1.415 . S
C1566 H1556 0.930 . S
C1566 C1564 1.419 . S
C1566 C1567 1.362 . S
C1567 H1557 0.930 . S
C1567 C1560 1.409 . S
C1567 C1566 1.362 . S
H1568 C1574 0.930 . S
H1569 C1577 0.930 . S
H1570 C1578 0.930 . S
H1571 C1579 0.930 . S
H1572 C1582 0.930 . S
H1573 C1583 0.930 . S
C1574 H1568 0.930 . S
C1574 C1575 1.355 . S
C1574 C1576 1.415 . S
C1575 C1574 1.355 . S
C1575 C1577 1.419 . S
C1576 C1574 1.415 . S
C1576 C1581 1.425 . S
C1576 C1583 1.409 . S
C1577 H1569 0.930 . S
C1577 C1575 1.419 . S
C1577 C1578 1.362 . S
C1578 H1570 0.930 . S
C1578 C1577 1.362 . S
C1578 C1581 1.409 . S
C1579 H1571 0.930 . S
C1579 C1580 1.355 . S
C1579 C1581 1.415 . S
C1580 C1579 1.355 . S
C1580 C1582 1.419 . S
C1581 C1576 1.425 . S
C1581 C1578 1.409 . S
C1581 C1579 1.415 . S
C1582 H1572 0.930 . S
C1582 C1580 1.419 . S
C1582 C1583 1.362 . S
C1583 H1573 0.930 . S
C1583 C1576 1.409 . S
C1583 C1582 1.362 . S
H1584 C1590 0.930 . S
H1585 C1593 0.930 . S
H1586 C1594 0.930 . S
H1587 C1595 0.930 . S
H1588 C1598 0.930 . S
H1589 C1599 0.930 . S
C1590 H1584 0.930 . S
C1590 C1591 1.355 . S
C1590 C1592 1.415 . S
C1591 C1590 1.355 . S
C1591 C1593 1.419 . S
C1592 C1590 1.415 . S
C1592 C1597 1.425 . S
C1592 C1599 1.409 . S
C1593 H1585 0.930 . S
C1593 C1591 1.419 . S
C1593 C1594 1.362 . S
C1594 H1586 0.930 . S
C1594 C1593 1.362 . S
C1594 C1597 1.409 . S
C1595 H1587 0.930 . S
C1595 C1596 1.355 . S
C1595 C1597 1.415 . S
C1596 C1595 1.355 . S
C1596 C1598 1.419 . S
C1597 C1592 1.425 . S
C1597 C1594 1.409 . S
C1597 C1595 1.415 . S
C1598 H1588 0.930 . S
C1598 C1596 1.419 . S
C1598 C1599 1.362 . S
C1599 H1589 0.930 . S
C1599 C1592 1.409 . S
C1599 C1598 1.362 . S
H1600 C1606 0.930 . S
H1601 C1609 0.930 . S
H1602 C1610 0.930 . S
H1603 C1611 0.930 . S
H1604 C1614 0.930 . S
H1605 C1615 0.930 . S
C1606 H1600 0.930 . S
C1606 C1607 1.355 . S
C1606 C1608 1.415 . S
C1607 C1606 1.355 . S
C1607 C1609 1.419 . S
C1608 C1606 1.415 . S
C1608 C1613 1.425 . S
C1608 C1615 1.409 . S
C1609 H1601 0.930 . S
C1609 C1607 1.419 . S
C1609 C1610 1.362 . S
C1610 H1602 0.930 . S
C1610 C1609 1.362 . S
C1610 C1613 1.409 . S
C1611 H1603 0.930 . S
C1611 C1612 1.355 . S
C1611 C1613 1.415 . S
C1612 C1611 1.355 . S
C1612 C1614 1.419 . S
C1613 C1608 1.425 . S
C1613 C1610 1.409 . S
C1613 C1611 1.415 . S
C1614 H1604 0.930 . S
C1614 C1612 1.419 . S
C1614 C1615 1.362 . S
C1615 H1605 0.930 . S
C1615 C1608 1.409 . S
C1615 C1614 1.362 . S
H1616 C1622 0.930 . S
H1617 C1625 0.930 . S
H1618 C1626 0.930 . S
H1619 C1627 0.930 . S
H1620 C1630 0.930 . S
H1621 C1631 0.930 . S
C1622 H1616 0.930 . S
C1622 C1623 1.355 . S
C1622 C1624 1.415 . S
C1623 C1622 1.355 . S
C1623 C1625 1.419 . S
C1624 C1622 1.415 . S
C1624 C1629 1.425 . S
C1624 C1631 1.409 . S
C1625 H1617 0.930 . S
C1625 C1623 1.419 . S
C1625 C1626 1.362 . S
C1626 H1618 0.930 . S
C1626 C1625 1.362 . S
C1626 C1629 1.409 . S
C1627 H1619 0.930 . S
C1627 C1628 1.355 . S
C1627 C1629 1.415 . S
C1628 C1627 1.355 . S
C1628 C1630 1.419 . S
C1629 C1624 1.425 . S
C1629 C1626 1.409 . S
C1629 C1627 1.415 . S
C1630 H1620 0.930 . S
C1630 C1628 1.419 . S
C1630 C1631 1.362 . S
C1631 H1621 0.930 . S
C1631 C1624 1.409 . S
C1631 C1630 1.362 . S
H1632 C1638 0.930 . S
H1633 C1641 0.930 . S
H1634 C1642 0.930 . S
H1635 C1643 0.930 . S
H1636 C1646 0.930 . S
H1637 C1647 0.930 . S
C1638 H1632 0.930 . S
C1638 C1639 1.355 . S
C1638 C1640 1.415 . S
C1639 C1638 1.355 . S
C1639 C1641 1.419 . S
C1640 C1638 1.415 . S
C1640 C1645 1.425 . S
C1640 C1647 1.409 . S
C1641 H1633 0.930 . S
C1641 C1639 1.419 . S
C1641 C1642 1.362 . S
C1642 H1634 0.930 . S
C1642 C1641 1.362 . S
C1642 C1645 1.409 . S
C1643 H1635 0.930 . S
C1643 C1644 1.355 . S
C1643 C1645 1.415 . S
C1644 C1643 1.355 . S
C1644 C1646 1.419 . S
C1645 C1640 1.425 . S
C1645 C1642 1.409 . S
C1645 C1643 1.415 . S
C1646 H1636 0.930 . S
C1646 C1644 1.419 . S
C1646 C1647 1.362 . S
C1647 H1637 0.930 . S
C1647 C1640 1.409 . S
C1647 C1646 1.362 . S
H1648 C1654 0.930 . S
H1649 C1657 0.930 . S
H1650 C1658 0.930 . S
H1651 C1659 0.930 . S
H1652 C1662 0.930 . S
H1653 C1663 0.930 . S
C1654 H1648 0.930 . S
C1654 C1655 1.355 . S
C1654 C1656 1.415 . S
C1655 C1654 1.355 . S
C1655 C1657 1.419 . S
C1656 C1654 1.415 . S
C1656 C1661 1.425 . S
C1656 C1663 1.409 . S
C1657 H1649 0.930 . S
C1657 C1655 1.419 . S
C1657 C1658 1.362 . S
C1658 H1650 0.930 . S
C1658 C1657 1.362 . S
C1658 C1661 1.409 . S
C1659 H1651 0.930 . S
C1659 C1660 1.355 . S
C1659 C1661 1.415 . S
C1660 C1659 1.355 . S
C1660 C1662 1.419 . S
C1661 C1656 1.425 . S
C1661 C1658 1.409 . S
C1661 C1659 1.415 . S
C1662 H1652 0.930 . S
C1662 C1660 1.419 . S
C1662 C1663 1.362 . S
C1663 H1653 0.930 . S
C1663 C1656 1.409 . S
C1663 C1662 1.362 . S
H1664 C1670 0.930 1_554 S
H1665 C1673 0.930 . S
H1666 C1674 0.930 . S
H1667 C1675 0.930 . S
H1668 C1678 0.930 . S
H1669 C1679 0.930 . S
C1670 H1664 0.930 1_556 S
C1670 C1671 1.342 1_545 S
C1670 C1672 1.415 . S
C1671 C1670 1.342 1_565 S
C1671 C1673 1.437 . S
C1672 C1670 1.415 . S
C1672 C1677 1.425 1_545 S
C1672 C1679 1.409 . S
C1673 H1665 0.930 . S
C1673 C1671 1.437 . S
C1673 C1674 1.362 . S
C1674 H1666 0.930 . S
C1674 C1673 1.362 . S
C1674 C1677 1.409 . S
C1675 H1667 0.930 . S
C1675 C1676 1.348 1_565 S
C1675 C1677 1.415 . S
C1676 C1675 1.348 1_545 S
C1676 C1678 1.429 . S
C1677 C1672 1.425 1_565 S
C1677 C1674 1.409 . S
C1677 C1675 1.415 . S
C1678 H1668 0.930 . S
C1678 C1676 1.429 . S
C1678 C1679 1.362 . S
C1679 H1669 0.930 . S
C1679 C1672 1.409 . S
C1679 C1678 1.362 . S
H1680 C1686 0.930 . S
H1681 C1689 0.930 . S
H1682 C1690 0.930 . S
H1683 C1691 0.930 1_554 S
H1684 C1694 0.930 . S
H1685 C1695 0.915 1_655 S
C1686 H1680 0.930 . S
C1686 C1687 1.355 . S
C1686 C1688 1.415 . S
C1687 C1686 1.355 . S
C1687 C1689 1.419 . S
C1688 C1686 1.415 . S
C1688 C1693 1.425 . S
C1688 C1695 1.409 . S
C1689 H1681 0.930 . S
C1689 C1687 1.419 . S
C1689 C1690 1.362 . S
C1690 H1682 0.930 . S
C1690 C1689 1.362 . S
C1690 C1693 1.409 . S
C1691 H1683 0.930 1_556 S
C1691 C1692 1.355 . S
C1691 C1693 1.415 . S
C1692 C1691 1.355 . S
C1692 C1694 1.419 1_455 S
C1693 C1688 1.425 . S
C1693 C1690 1.409 . S
C1693 C1691 1.415 . S
C1694 H1684 0.930 . S
C1694 C1692 1.419 1_655 S
C1694 C1695 1.362 1_655 S
C1695 H1685 0.915 1_455 S
C1695 C1688 1.409 . S
C1695 C1694 1.362 1_455 S
H1696 C1702 0.930 . S
H1697 C1705 0.930 . S
H1698 C1706 0.930 . S
H1699 C1707 0.930 . S
H1700 C1710 0.930 . S
H1701 C1711 0.930 . S
C1702 H1696 0.930 . S
C1702 C1703 1.355 . S
C1702 C1704 1.415 . S
C1703 C1702 1.355 . S
C1703 C1705 1.419 . S
C1704 C1702 1.415 . S
C1704 C1709 1.425 . S
C1704 C1711 1.409 . S
C1705 H1697 0.930 . S
C1705 C1703 1.419 . S
C1705 C1706 1.362 . S
C1706 H1698 0.930 . S
C1706 C1705 1.362 . S
C1706 C1709 1.409 . S
C1707 H1699 0.930 . S
C1707 C1708 1.355 . S
C1707 C1709 1.415 . S
C1708 C1707 1.355 . S
C1708 C1710 1.419 . S
C1709 C1704 1.425 . S
C1709 C1706 1.409 . S
C1709 C1707 1.415 . S
C1710 H1700 0.930 . S
C1710 C1708 1.419 . S
C1710 C1711 1.362 . S
C1711 H1701 0.930 . S
C1711 C1704 1.409 . S
C1711 C1710 1.362 . S
H1712 C1718 0.929 1_655 S
H1713 C1721 0.930 . S
H1714 C1722 0.930 . S
H1715 C1723 0.929 1_545 S
H1716 C1726 0.930 . S
H1717 C1727 0.930 . S
C1718 H1712 0.929 1_455 S
C1718 C1719 1.355 1_565 S
C1718 C1720 1.415 . S
C1719 C1718 1.355 1_545 S
C1719 C1721 1.419 . S
C1720 C1718 1.415 . S
C1720 C1725 1.423 1_565 S
C1720 C1727 1.409 . S
C1721 H1713 0.930 . S
C1721 C1719 1.419 . S
C1721 C1722 1.362 . S
C1722 H1714 0.930 . S
C1722 C1721 1.362 . S
C1722 C1725 1.414 . S
C1723 H1715 0.929 1_565 S
C1723 C1724 1.356 . S
C1723 C1725 1.413 1_565 S
C1724 C1723 1.356 . S
C1724 C1726 1.419 . S
C1725 C1720 1.423 1_545 S
C1725 C1722 1.414 . S
C1725 C1723 1.413 1_545 S
C1726 H1716 0.930 . S
C1726 C1724 1.419 . S
C1726 C1727 1.362 . S
C1727 H1717 0.930 . S
C1727 C1720 1.409 . S
C1727 C1726 1.362 . S
H1728 C1734 0.930 . S
H1729 C1737 0.930 . S
H1730 C1738 0.930 . S
H1731 C1739 0.930 . S
H1732 C1742 0.930 . S
H1733 C1743 0.930 . S
C1734 H1728 0.930 . S
C1734 C1735 1.355 1_565 S
C1734 C1736 1.415 . S
C1735 C1734 1.355 1_545 S
C1735 C1737 1.419 . S
C1736 C1734 1.415 . S
C1736 C1741 1.425 1_565 S
C1736 C1743 1.409 . S
C1737 H1729 0.930 . S
C1737 C1735 1.419 . S
C1737 C1738 1.362 . S
C1738 H1730 0.930 . S
C1738 C1737 1.362 . S
C1738 C1741 1.409 . S
C1739 H1731 0.930 . S
C1739 C1740 1.355 1_545 S
C1739 C1741 1.415 . S
C1740 C1739 1.355 1_565 S
C1740 C1742 1.419 1_554 S
C1741 C1736 1.425 1_545 S
C1741 C1738 1.409 . S
C1741 C1739 1.415 . S
C1742 H1732 0.930 . S
C1742 C1740 1.419 1_556 S
C1742 C1743 1.362 1_556 S
C1743 H1733 0.930 . S
C1743 C1736 1.409 . S
C1743 C1742 1.362 1_554 S
H1744 C1750 0.930 1_556 S
H1745 C1753 0.930 . S
H1746 C1754 0.930 . S
H1747 C1755 0.930 . S
H1748 C1758 0.930 . S
H1749 C1759 0.930 . S
C1750 H1744 0.930 1_554 S
C1750 C1751 1.355 . S
C1750 C1752 1.415 . S
C1751 C1750 1.355 . S
C1751 C1753 1.419 1_655 S
C1752 C1750 1.415 . S
C1752 C1757 1.425 . S
C1752 C1759 1.409 . S
C1753 H1745 0.930 . S
C1753 C1751 1.419 1_455 S
C1753 C1754 1.362 1_455 S
C1754 H1746 0.930 . S
C1754 C1753 1.362 1_655 S
C1754 C1757 1.409 . S
C1755 H1747 0.930 . S
C1755 C1756 1.355 . S
C1755 C1757 1.415 . S
C1756 C1755 1.355 . S
C1756 C1758 1.419 . S
C1757 C1752 1.425 . S
C1757 C1754 1.409 . S
C1757 C1755 1.415 . S
C1758 H1748 0.930 . S
C1758 C1756 1.419 . S
C1758 C1759 1.362 . S
C1759 H1749 0.930 . S
C1759 C1752 1.409 . S
C1759 C1758 1.362 . S
H1760 C1766 0.930 . S
H1761 C1769 0.930 . S
H1762 C1770 0.930 . S
H1763 C1771 0.930 . S
H1764 C1774 0.930 . S
H1765 C1775 0.930 . S
C1766 H1760 0.930 . S
C1766 C1767 1.355 . S
C1766 C1768 1.415 . S
C1767 C1766 1.355 . S
C1767 C1769 1.419 . S
C1768 C1766 1.415 . S
C1768 C1773 1.425 . S
C1768 C1775 1.409 . S
C1769 H1761 0.930 . S
C1769 C1767 1.419 . S
C1769 C1770 1.362 . S
C1770 H1762 0.930 . S
C1770 C1769 1.362 . S
C1770 C1773 1.409 . S
C1771 H1763 0.930 . S
C1771 C1772 1.355 . S
C1771 C1773 1.415 . S
C1772 C1771 1.355 . S
C1772 C1774 1.419 . S
C1773 C1768 1.425 . S
C1773 C1770 1.409 . S
C1773 C1771 1.415 . S
C1774 H1764 0.930 . S
C1774 C1772 1.419 . S
C1774 C1775 1.362 . S
C1775 H1765 0.930 . S
C1775 C1768 1.409 . S
C1775 C1774 1.362 . S
H1776 C1782 0.933 . S
H1777 C1785 0.930 . S
H1778 C1786 0.930 . S
H1779 C1787 0.930 1_455 S
H1780 C1790 0.930 . S
H1781 C1791 0.930 . S
C1782 H1776 0.933 . S
C1782 C1783 1.351 1_565 S
C1782 C1784 1.416 . S
C1783 C1782 1.351 1_545 S
C1783 C1785 1.419 . S
C1784 C1782 1.416 . S
C1784 C1789 1.425 1_565 S
C1784 C1791 1.409 . S
C1785 H1777 0.930 . S
C1785 C1783 1.419 . S
C1785 C1786 1.362 . S
C1786 H1778 0.930 . S
C1786 C1785 1.362 . S
C1786 C1789 1.409 . S
C1787 H1779 0.930 1_655 S
C1787 C1788 1.355 1_545 S
C1787 C1789 1.415 . S
C1788 C1787 1.355 1_565 S
C1788 C1790 1.419 . S
C1789 C1784 1.425 1_545 S
C1789 C1786 1.409 . S
C1789 C1787 1.415 . S
C1790 H1780 0.930 . S
C1790 C1788 1.419 . S
C1790 C1791 1.362 . S
C1791 H1781 0.930 . S
C1791 C1784 1.409 . S
C1791 C1790 1.362 . S
H1792 C1798 0.930 . S
H1793 C1801 0.930 . S
H1794 C1802 0.930 . S
H1795 C1803 0.930 . S
H1796 C1806 0.930 . S
H1797 C1807 0.930 . S
C1798 H1792 0.930 . S
C1798 C1799 1.355 . S
C1798 C1800 1.415 . S
C1799 C1798 1.355 . S
C1799 C1801 1.419 . S
C1800 C1798 1.415 . S
C1800 C1805 1.425 . S
C1800 C1807 1.409 . S
C1801 H1793 0.930 . S
C1801 C1799 1.419 . S
C1801 C1802 1.362 . S
C1802 H1794 0.930 . S
C1802 C1801 1.362 . S
C1802 C1805 1.409 . S
C1803 H1795 0.930 . S
C1803 C1804 1.355 . S
C1803 C1805 1.415 . S
C1804 C1803 1.355 . S
C1804 C1806 1.419 . S
C1805 C1800 1.425 . S
C1805 C1802 1.409 . S
C1805 C1803 1.415 . S
C1806 H1796 0.930 . S
C1806 C1804 1.419 . S
C1806 C1807 1.362 . S
C1807 H1797 0.930 . S
C1807 C1800 1.409 . S
C1807 C1806 1.362 . S
H1808 C1814 0.930 . S
H1809 C1817 0.930 . S
H1810 C1818 0.930 . S
H1811 C1819 0.930 1_655 S
H1812 C1822 0.930 . S
H1813 C1823 0.930 . S
C1814 H1808 0.930 . S
C1814 C1815 1.355 . S
C1814 C1816 1.415 . S
C1815 C1814 1.355 . S
C1815 C1817 1.419 . S
C1816 C1814 1.415 . S
C1816 C1821 1.425 . S
C1816 C1823 1.409 . S
C1817 H1809 0.930 . S
C1817 C1815 1.419 . S
C1817 C1818 1.362 . S
C1818 H1810 0.930 . S
C1818 C1817 1.362 . S
C1818 C1821 1.409 . S
C1819 H1811 0.930 1_455 S
C1819 C1820 1.355 . S
C1819 C1821 1.415 . S
C1820 C1819 1.355 . S
C1820 C1822 1.419 . S
C1821 C1816 1.425 . S
C1821 C1818 1.409 . S
C1821 C1819 1.415 . S
C1822 H1812 0.930 . S
C1822 C1820 1.419 . S
C1822 C1823 1.362 . S
C1823 H1813 0.930 . S
C1823 C1816 1.409 . S
C1823 C1822 1.362 . S
H1824 C1830 0.930 . S
H1825 C1833 0.930 . S
H1826 C1834 0.930 . S
H1827 C1835 0.930 . S
H1828 C1838 0.930 . S
H1829 C1839 0.930 . S
C1830 H1824 0.930 . S
C1830 C1831 1.355 . S
C1830 C1832 1.415 . S
C1831 C1830 1.355 . S
C1831 C1833 1.419 . S
C1832 C1830 1.415 . S
C1832 C1837 1.425 . S
C1832 C1839 1.409 . S
C1833 H1825 0.930 . S
C1833 C1831 1.419 . S
C1833 C1834 1.362 . S
C1834 H1826 0.930 . S
C1834 C1833 1.362 . S
C1834 C1837 1.409 . S
C1835 H1827 0.930 . S
C1835 C1836 1.355 . S
C1835 C1837 1.415 . S
C1836 C1835 1.355 . S
C1836 C1838 1.419 . S
C1837 C1832 1.425 . S
C1837 C1834 1.409 . S
C1837 C1835 1.415 . S
C1838 H1828 0.930 . S
C1838 C1836 1.419 . S
C1838 C1839 1.362 . S
C1839 H1829 0.930 . S
C1839 C1832 1.409 . S
C1839 C1838 1.362 . S
H1840 C1846 0.930 . S
H1841 C1849 0.930 . S
H1842 C1850 0.930 . S
H1843 C1851 0.930 1_655 S
H1844 C1854 0.930 . S
H1845 C1855 0.930 . S
C1846 H1840 0.930 . S
C1846 C1847 1.355 . S
C1846 C1848 1.415 . S
C1847 C1846 1.355 . S
C1847 C1849 1.419 . S
C1848 C1846 1.415 . S
C1848 C1853 1.425 . S
C1848 C1855 1.409 . S
C1849 H1841 0.930 . S
C1849 C1847 1.419 . S
C1849 C1850 1.362 . S
C1850 H1842 0.930 . S
C1850 C1849 1.362 . S
C1850 C1853 1.409 . S
C1851 H1843 0.930 1_455 S
C1851 C1852 1.355 . S
C1851 C1853 1.415 . S
C1852 C1851 1.355 . S
C1852 C1854 1.419 . S
C1853 C1848 1.425 . S
C1853 C1850 1.409 . S
C1853 C1851 1.415 . S
C1854 H1844 0.930 . S
C1854 C1852 1.419 . S
C1854 C1855 1.362 . S
C1855 H1845 0.930 . S
C1855 C1848 1.409 . S
C1855 C1854 1.362 . S
H1856 C1862 0.930 . S
H1857 C1865 0.930 . S
H1858 C1866 0.930 . S
H1859 C1867 0.930 . S
H1860 C1870 0.930 . S
H1861 C1871 0.930 . S
C1862 H1856 0.930 . S
C1862 C1863 1.355 . S
C1862 C1864 1.415 . S
C1863 C1862 1.355 . S
C1863 C1865 1.419 . S
C1864 C1862 1.415 . S
C1864 C1869 1.425 . S
C1864 C1871 1.409 . S
C1865 H1857 0.930 . S
C1865 C1863 1.419 . S
C1865 C1866 1.362 . S
C1866 H1858 0.930 . S
C1866 C1865 1.362 . S
C1866 C1869 1.409 . S
C1867 H1859 0.930 . S
C1867 C1868 1.355 . S
C1867 C1869 1.415 . S
C1868 C1867 1.355 . S
C1868 C1870 1.419 . S
C1869 C1864 1.425 . S
C1869 C1866 1.409 . S
C1869 C1867 1.415 . S
C1870 H1860 0.930 . S
C1870 C1868 1.419 . S
C1870 C1871 1.362 . S
C1871 H1861 0.930 . S
C1871 C1864 1.409 . S
C1871 C1870 1.362 . S
H1872 C1878 0.930 . S
H1873 C1881 0.930 . S
H1874 C1882 0.930 . S
H1875 C1883 0.930 . S
H1876 C1886 0.930 . S
H1877 C1887 0.930 . S
C1878 H1872 0.930 . S
C1878 C1879 1.355 . S
C1878 C1880 1.415 . S
C1879 C1878 1.355 . S
C1879 C1881 1.419 1_655 S
C1880 C1878 1.415 . S
C1880 C1885 1.425 . S
C1880 C1887 1.409 . S
C1881 H1873 0.930 . S
C1881 C1879 1.419 1_455 S
C1881 C1882 1.362 1_455 S
C1882 H1874 0.930 . S
C1882 C1881 1.362 1_655 S
C1882 C1885 1.409 . S
C1883 H1875 0.930 . S
C1883 C1884 1.355 . S
C1883 C1885 1.415 . S
C1884 C1883 1.355 . S
C1884 C1886 1.419 . S
C1885 C1880 1.425 . S
C1885 C1882 1.409 . S
C1885 C1883 1.415 . S
C1886 H1876 0.930 . S
C1886 C1884 1.419 . S
C1886 C1887 1.362 . S
C1887 H1877 0.930 . S
C1887 C1880 1.409 . S
C1887 C1886 1.362 . S
H1888 C1894 0.930 . S
H1889 C1897 0.930 . S
H1890 C1898 0.930 . S
H1891 C1899 0.930 . S
H1892 C1902 0.930 . S
H1893 C1903 0.930 . S
C1894 H1888 0.930 . S
C1894 C1895 1.355 . S
C1894 C1896 1.415 . S
C1895 C1894 1.355 . S
C1895 C1897 1.419 . S
C1896 C1894 1.415 . S
C1896 C1901 1.425 . S
C1896 C1903 1.409 . S
C1897 H1889 0.930 . S
C1897 C1895 1.419 . S
C1897 C1898 1.362 . S
C1898 H1890 0.930 . S
C1898 C1897 1.362 . S
C1898 C1901 1.409 . S
C1899 H1891 0.930 . S
C1899 C1900 1.355 . S
C1899 C1901 1.415 . S
C1900 C1899 1.355 . S
C1900 C1902 1.419 . S
C1901 C1896 1.425 . S
C1901 C1898 1.409 . S
C1901 C1899 1.415 . S
C1902 H1892 0.930 . S
C1902 C1900 1.419 . S
C1902 C1903 1.362 . S
C1903 H1893 0.930 . S
C1903 C1896 1.409 . S
C1903 C1902 1.362 . S
H1904 C1910 0.930 . S
H1905 C1913 0.930 . S
H1906 C1914 0.930 . S
H1907 C1915 0.930 . S
H1908 C1918 0.930 . S
H1909 C1919 0.930 . S
C1910 H1904 0.930 . S
C1910 C1911 1.355 . S
C1910 C1912 1.415 . S
C1911 C1910 1.355 . S
C1911 C1913 1.419 . S
C1912 C1910 1.415 . S
C1912 C1917 1.425 . S
C1912 C1919 1.409 . S
C1913 H1905 0.930 . S
C1913 C1911 1.419 . S
C1913 C1914 1.362 . S
C1914 H1906 0.930 . S
C1914 C1913 1.362 . S
C1914 C1917 1.409 . S
C1915 H1907 0.930 . S
C1915 C1916 1.355 . S
C1915 C1917 1.415 . S
C1916 C1915 1.355 . S
C1916 C1918 1.419 1_655 S
C1917 C1912 1.425 . S
C1917 C1914 1.409 . S
C1917 C1915 1.415 . S
C1918 H1908 0.930 . S
C1918 C1916 1.419 1_455 S
C1918 C1919 1.362 1_455 S
C1919 H1909 0.930 . S
C1919 C1912 1.409 . S
C1919 C1918 1.362 1_655 S
H1920 C1926 0.930 . S
H1921 C1929 0.930 . S
H1922 C1930 0.930 . S
H1923 C1931 0.930 . S
H1924 C1934 0.930 . S
H1925 C1935 0.930 . S
C1926 H1920 0.930 . S
C1926 C1927 1.355 1_565 S
C1926 C1928 1.415 . S
C1927 C1926 1.355 1_545 S
C1927 C1929 1.419 . S
C1928 C1926 1.415 . S
C1928 C1933 1.425 1_565 S
C1928 C1935 1.409 . S
C1929 H1921 0.930 . S
C1929 C1927 1.419 . S
C1929 C1930 1.362 . S
C1930 H1922 0.930 . S
C1930 C1929 1.362 . S
C1930 C1933 1.409 . S
C1931 H1923 0.930 . S
C1931 C1932 1.355 1_545 S
C1931 C1933 1.415 . S
C1932 C1931 1.355 1_565 S
C1932 C1934 1.419 . S
C1933 C1928 1.425 1_545 S
C1933 C1930 1.409 . S
C1933 C1931 1.415 . S
C1934 H1924 0.930 . S
C1934 C1932 1.419 . S
C1934 C1935 1.362 . S
C1935 H1925 0.930 . S
C1935 C1928 1.409 . S
C1935 C1934 1.362 . S
H1936 C1942 0.930 . S
H1937 C1945 0.930 . S
H1938 C1946 0.930 . S
H1939 C1947 0.930 . S
H1940 C1950 0.930 . S
H1941 C1951 0.930 . S
C1942 H1936 0.930 . S
C1942 C1943 1.355 . S
C1942 C1944 1.415 . S
C1943 C1942 1.355 . S
C1943 C1945 1.419 . S
C1944 C1942 1.415 . S
C1944 C1949 1.425 . S
C1944 C1951 1.409 . S
C1945 H1937 0.930 . S
C1945 C1943 1.419 . S
C1945 C1946 1.362 . S
C1946 H1938 0.930 . S
C1946 C1945 1.362 . S
C1946 C1949 1.409 . S
C1947 H1939 0.930 . S
C1947 C1948 1.355 . S
C1947 C1949 1.415 . S
C1948 C1947 1.355 . S
C1948 C1950 1.419 . S
C1949 C1944 1.425 . S
C1949 C1946 1.409 . S
C1949 C1947 1.415 . S
C1950 H1940 0.930 . S
C1950 C1948 1.419 . S
C1950 C1951 1.362 . S
C1951 H1941 0.930 . S
C1951 C1944 1.409 . S
C1951 C1950 1.362 . S
H1952 C1958 0.930 . S
H1953 C1961 0.930 . S
H1954 C1962 0.930 . S
H1955 C1963 0.930 . S
H1956 C1966 0.930 . S
H1957 C1967 0.930 . S
C1958 H1952 0.930 . S
C1958 C1959 1.355 . S
C1958 C1960 1.415 . S
C1959 C1958 1.355 . S
C1959 C1961 1.419 . S
C1960 C1958 1.415 . S
C1960 C1965 1.425 . S
C1960 C1967 1.409 . S
C1961 H1953 0.930 . S
C1961 C1959 1.419 . S
C1961 C1962 1.362 . S
C1962 H1954 0.930 . S
C1962 C1961 1.362 . S
C1962 C1965 1.409 . S
C1963 H1955 0.930 . S
C1963 C1964 1.355 . S
C1963 C1965 1.415 . S
C1964 C1963 1.355 . S
C1964 C1966 1.419 . S
C1965 C1960 1.425 . S
C1965 C1962 1.409 . S
C1965 C1963 1.415 . S
C1966 H1956 0.930 . S
C1966 C1964 1.419 . S
C1966 C1967 1.362 . S
C1967 H1957 0.930 . S
C1967 C1960 1.409 . S
C1967 C1966 1.362 . S
H1968 C1974 0.930 . S
H1969 C1977 0.930 . S
H1970 C1978 0.930 . S
H1971 C1979 0.930 . S
H1972 C1982 0.933 . S
H1973 C1983 0.930 . S
C1974 H1968 0.930 . S
C1974 C1975 1.355 . S
C1974 C1976 1.415 . S
C1975 C1974 1.355 . S
C1975 C1977 1.419 1_545 S
C1976 C1974 1.415 . S
C1976 C1981 1.425 1_545 S
C1976 C1983 1.409 . S
C1977 H1969 0.930 . S
C1977 C1975 1.419 1_565 S
C1977 C1978 1.362 . S
C1978 H1970 0.930 . S
C1978 C1977 1.362 . S
C1978 C1981 1.409 . S
C1979 H1971 0.930 . S
C1979 C1980 1.355 . S
C1979 C1981 1.415 . S
C1980 C1979 1.355 . S
C1980 C1982 1.416 1_565 S
C1981 C1976 1.425 1_565 S
C1981 C1978 1.409 . S
C1981 C1979 1.415 . S
C1982 H1972 0.933 . S
C1982 C1980 1.416 1_545 S
C1982 C1983 1.365 . S
C1983 H1973 0.930 . S
C1983 C1976 1.409 . S
C1983 C1982 1.365 . S
H1984 C1990 0.930 . S
H1985 C1993 0.930 . S
H1986 C1994 0.930 . S
H1987 C1995 0.930 . S
H1988 C1998 0.930 . S
H1989 C1999 0.930 . S
C1990 H1984 0.930 . S
C1990 C1991 1.355 1_565 S
C1990 C1992 1.415 . S
C1991 C1990 1.355 1_545 S
C1991 C1993 1.419 . S
C1992 C1990 1.415 . S
C1992 C1997 1.425 1_565 S
C1992 C1999 1.409 . S
C1993 H1985 0.930 . S
C1993 C1991 1.419 . S
C1993 C1994 1.362 . S
C1994 H1986 0.930 . S
C1994 C1993 1.362 . S
C1994 C1997 1.409 . S
C1995 H1987 0.930 . S
C1995 C1996 1.329 1_545 S
C1995 C1997 1.415 . S
C1996 C1995 1.329 1_565 S
C1996 C1998 1.453 . S
C1997 C1992 1.425 1_545 S
C1997 C1994 1.409 . S
C1997 C1995 1.415 . S
C1998 H1988 0.930 . S
C1998 C1996 1.453 . S
C1998 C1999 1.362 . S
C1999 H1989 0.930 . S
C1999 C1992 1.409 . S
C1999 C1998 1.362 . S
H2000 C2006 0.930 . S
H2001 C2009 0.930 . S
H2002 C2010 0.930 . S
H2003 C2011 0.930 . S
H2004 C2014 0.930 . S
H2005 C2015 0.930 . S
C2006 H2000 0.930 . S
C2006 C2007 1.355 . S
C2006 C2008 1.415 . S
C2007 C2006 1.355 . S
C2007 C2009 1.419 . S
C2008 C2006 1.415 . S
C2008 C2013 1.425 . S
C2008 C2015 1.409 . S
C2009 H2001 0.930 . S
C2009 C2007 1.419 . S
C2009 C2010 1.362 . S
C2010 H2002 0.930 . S
C2010 C2009 1.362 . S
C2010 C2013 1.409 . S
C2011 H2003 0.930 . S
C2011 C2012 1.355 . S
C2011 C2013 1.415 . S
C2012 C2011 1.355 . S
C2012 C2014 1.419 . S
C2013 C2008 1.425 . S
C2013 C2010 1.409 . S
C2013 C2011 1.415 . S
C2014 H2004 0.930 . S
C2014 C2012 1.419 . S
C2014 C2015 1.362 . S
C2015 H2005 0.930 . S
C2015 C2008 1.409 . S
C2015 C2014 1.362 . S
H2016 C2022 0.930 . S
H2017 C2025 0.930 . S
H2018 C2026 0.930 . S
H2019 C2027 0.930 . S
H2020 C2030 0.930 . S
H2021 C2031 0.930 . S
C2022 H2016 0.930 . S
C2022 C2023 1.355 . S
C2022 C2024 1.415 . S
C2023 C2022 1.355 . S
C2023 C2025 1.419 . S
C2024 C2022 1.415 . S
C2024 C2029 1.425 . S
C2024 C2031 1.409 . S
C2025 H2017 0.930 . S
C2025 C2023 1.419 . S
C2025 C2026 1.362 . S
C2026 H2018 0.930 . S
C2026 C2025 1.362 . S
C2026 C2029 1.409 . S
C2027 H2019 0.930 . S
C2027 C2028 1.355 . S
C2027 C2029 1.415 . S
C2028 C2027 1.355 . S
C2028 C2030 1.419 . S
C2029 C2024 1.425 . S
C2029 C2026 1.409 . S
C2029 C2027 1.415 . S
C2030 H2020 0.930 . S
C2030 C2028 1.419 . S
C2030 C2031 1.362 . S
C2031 H2021 0.930 . S
C2031 C2024 1.409 . S
C2031 C2030 1.362 . S
H2032 C2038 0.930 . S
H2033 C2041 0.930 . S
H2034 C2042 0.930 . S
H2035 C2043 0.930 . S
H2036 C2046 0.930 . S
H2037 C2047 0.930 . S
C2038 H2032 0.930 . S
C2038 C2039 1.355 1_565 S
C2038 C2040 1.415 . S
C2039 C2038 1.355 1_545 S
C2039 C2041 1.419 . S
C2040 C2038 1.415 . S
C2040 C2045 1.425 1_565 S
C2040 C2047 1.409 . S
C2041 H2033 0.930 . S
C2041 C2039 1.419 . S
C2041 C2042 1.362 . S
C2042 H2034 0.930 . S
C2042 C2041 1.362 . S
C2042 C2045 1.409 . S
C2043 H2035 0.930 . S
C2043 C2044 1.355 1_545 S
C2043 C2045 1.415 . S
C2044 C2043 1.355 1_565 S
C2044 C2046 1.419 . S
C2045 C2040 1.425 1_545 S
C2045 C2042 1.409 . S
C2045 C2043 1.415 . S
C2046 H2036 0.930 . S
C2046 C2044 1.419 . S
C2046 C2047 1.362 . S
C2047 H2037 0.930 . S
C2047 C2040 1.409 . S
C2047 C2046 1.362 . S
H2048 C2054 0.930 . S
H2049 C2057 0.930 . S
H2050 C2058 0.930 . S
H2051 C2059 0.930 . S
H2052 C2062 0.932 . S
H2053 C2063 0.930 . S
C2054 H2048 0.930 . S
C2054 C2055 1.355 . S
C2054 C2056 1.415 . S
C2055 C2054 1.355 . S
C2055 C2057 1.419 . S
C2056 C2054 1.415 . S
C2056 C2061 1.425 . S
C2056 C2063 1.409 . S
C2057 H2049 0.930 . S
C2057 C2055 1.419 . S
C2057 C2058 1.362 . S
C2058 H2050 0.930 . S
C2058 C2057 1.362 . S
C2058 C2061 1.409 . S
C2059 H2051 0.930 . S
C2059 C2060 1.355 . S
C2059 C2061 1.415 . S
C2060 C2059 1.355 . S
C2060 C2062 1.419 . S
C2061 C2056 1.425 . S
C2061 C2058 1.409 . S
C2061 C2059 1.415 . S
C2062 H2052 0.932 . S
C2062 C2060 1.419 . S
C2062 C2063 1.362 . S
C2063 H2053 0.930 . S
C2063 C2056 1.409 . S
C2063 C2062 1.362 . S
H2064 C2070 0.930 . S
H2065 C2073 0.930 . S
H2066 C2074 0.930 . S
H2067 C2075 0.930 . S
H2068 C2078 0.930 1_554 S
H2069 C2079 0.930 . S
C2070 H2064 0.930 . S
C2070 C2071 1.355 . S
C2070 C2072 1.415 . S
C2071 C2070 1.355 . S
C2071 C2073 1.419 . S
C2072 C2070 1.415 . S
C2072 C2077 1.425 . S
C2072 C2079 1.409 . S
C2073 H2065 0.930 . S
C2073 C2071 1.419 . S
C2073 C2074 1.362 . S
C2074 H2066 0.930 . S
C2074 C2073 1.362 . S
C2074 C2077 1.409 . S
C2075 H2067 0.930 . S
C2075 C2076 1.355 . S
C2075 C2077 1.415 . S
C2076 C2075 1.355 . S
C2076 C2078 1.419 . S
C2077 C2072 1.425 . S
C2077 C2074 1.409 . S
C2077 C2075 1.415 . S
C2078 H2068 0.930 1_556 S
C2078 C2076 1.419 . S
C2078 C2079 1.362 . S
C2079 H2069 0.930 . S
C2079 C2072 1.409 . S
C2079 C2078 1.362 . S
H2080 C2086 0.930 . S
H2081 C2089 0.930 . S
H2082 C2090 0.930 . S
H2083 C2091 0.930 . S
H2084 C2094 0.930 . S
H2085 C2095 0.930 . S
C2086 H2080 0.930 . S
C2086 C2087 1.355 . S
C2086 C2088 1.415 . S
C2087 C2086 1.355 . S
C2087 C2089 1.419 . S
C2088 C2086 1.415 . S
C2088 C2093 1.425 . S
C2088 C2095 1.409 . S
C2089 H2081 0.930 . S
C2089 C2087 1.419 . S
C2089 C2090 1.362 . S
C2090 H2082 0.930 . S
C2090 C2089 1.362 . S
C2090 C2093 1.409 . S
C2091 H2083 0.930 . S
C2091 C2092 1.355 . S
C2091 C2093 1.415 . S
C2092 C2091 1.355 . S
C2092 C2094 1.419 . S
C2093 C2088 1.425 . S
C2093 C2090 1.409 . S
C2093 C2091 1.415 . S
C2094 H2084 0.930 . S
C2094 C2092 1.419 . S
C2094 C2095 1.362 . S
C2095 H2085 0.930 . S
C2095 C2088 1.409 . S
C2095 C2094 1.362 . S
H2096 C2102 0.930 . S
H2097 C2105 0.930 . S
H2098 C2106 0.930 . S
H2099 C2107 0.930 . S
H2100 C2110 0.930 . S
H2101 C2111 0.930 . S
C2102 H2096 0.930 . S
C2102 C2103 1.355 . S
C2102 C2104 1.415 . S
C2103 C2102 1.355 . S
C2103 C2105 1.419 . S
C2104 C2102 1.415 . S
C2104 C2109 1.425 . S
C2104 C2111 1.409 . S
C2105 H2097 0.930 . S
C2105 C2103 1.419 . S
C2105 C2106 1.362 . S
C2106 H2098 0.930 . S
C2106 C2105 1.362 . S
C2106 C2109 1.409 . S
C2107 H2099 0.930 . S
C2107 C2108 1.355 . S
C2107 C2109 1.415 . S
C2108 C2107 1.355 . S
C2108 C2110 1.419 . S
C2109 C2104 1.425 . S
C2109 C2106 1.409 . S
C2109 C2107 1.415 . S
C2110 H2100 0.930 . S
C2110 C2108 1.419 . S
C2110 C2111 1.362 . S
C2111 H2101 0.930 . S
C2111 C2104 1.409 . S
C2111 C2110 1.362 . S
H2112 C2118 0.930 . S
H2113 C2121 0.930 . S
H2114 C2122 0.930 . S
H2115 C2123 0.930 . S
H2116 C2126 0.930 . S
H2117 C2127 0.936 . S
C2118 H2112 0.930 . S
C2118 C2119 1.355 . S
C2118 C2120 1.415 . S
C2119 C2118 1.355 . S
C2119 C2121 1.419 . S
C2120 C2118 1.415 . S
C2120 C2125 1.425 . S
C2120 C2127 1.409 . S
C2121 H2113 0.930 . S
C2121 C2119 1.419 . S
C2121 C2122 1.362 . S
C2122 H2114 0.930 . S
C2122 C2121 1.362 . S
C2122 C2125 1.409 . S
C2123 H2115 0.930 . S
C2123 C2124 1.355 . S
C2123 C2125 1.415 . S
C2124 C2123 1.355 . S
C2124 C2126 1.419 1_554 S
C2125 C2120 1.425 . S
C2125 C2122 1.409 . S
C2125 C2123 1.415 . S
C2126 H2116 0.930 . S
C2126 C2124 1.419 1_556 S
C2126 C2127 1.362 1_556 S
C2127 H2117 0.936 . S
C2127 C2120 1.409 . S
C2127 C2126 1.362 1_554 S
H2128 C2134 0.930 . S
H2129 C2137 0.930 . S
H2130 C2138 0.930 . S
H2131 C2139 0.930 1_556 S
H2132 C2142 0.930 . S
H2133 C2143 0.930 . S
C2134 H2128 0.930 . S
C2134 C2135 1.355 . S
C2134 C2136 1.415 . S
C2135 C2134 1.355 . S
C2135 C2137 1.419 . S
C2136 C2134 1.415 . S
C2136 C2141 1.425 . S
C2136 C2143 1.409 . S
C2137 H2129 0.930 . S
C2137 C2135 1.419 . S
C2137 C2138 1.362 . S
C2138 H2130 0.930 . S
C2138 C2137 1.362 . S
C2138 C2141 1.409 . S
C2139 H2131 0.930 1_554 S
C2139 C2140 1.355 . S
C2139 C2141 1.415 . S
C2140 C2139 1.355 . S
C2140 C2142 1.419 . S
C2141 C2136 1.425 . S
C2141 C2138 1.409 . S
C2141 C2139 1.415 . S
C2142 H2132 0.930 . S
C2142 C2140 1.419 . S
C2142 C2143 1.362 . S
C2143 H2133 0.930 . S
C2143 C2136 1.409 . S
C2143 C2142 1.362 . S
H2144 C2150 0.930 . S
H2145 C2153 0.930 . S
H2146 C2154 0.930 . S
H2147 C2155 0.930 . S
H2148 C2158 0.930 . S
H2149 C2159 0.930 . S
C2150 H2144 0.930 . S
C2150 C2151 1.355 . S
C2150 C2152 1.415 . S
C2151 C2150 1.355 . S
C2151 C2153 1.419 . S
C2152 C2150 1.415 . S
C2152 C2157 1.425 . S
C2152 C2159 1.409 . S
C2153 H2145 0.930 . S
C2153 C2151 1.419 . S
C2153 C2154 1.362 . S
C2154 H2146 0.930 . S
C2154 C2153 1.362 . S
C2154 C2157 1.409 . S
C2155 H2147 0.930 . S
C2155 C2156 1.355 . S
C2155 C2157 1.415 . S
C2156 C2155 1.355 . S
C2156 C2158 1.419 . S
C2157 C2152 1.425 . S
C2157 C2154 1.409 . S
C2157 C2155 1.415 . S
C2158 H2148 0.930 . S
C2158 C2156 1.419 . S
C2158 C2159 1.362 . S
C2159 H2149 0.930 . S
C2159 C2152 1.409 . S
C2159 C2158 1.362 . S
H2160 C2166 0.930 . S
H2161 C2169 0.930 . S
H2162 C2170 0.930 . S
H2163 C2171 0.930 . S
H2164 C2174 0.930 . S
H2165 C2175 0.930 . S
C2166 H2160 0.930 . S
C2166 C2167 1.355 . S
C2166 C2168 1.415 . S
C2167 C2166 1.355 . S
C2167 C2169 1.419 . S
C2168 C2166 1.415 . S
C2168 C2173 1.425 . S
C2168 C2175 1.409 . S
C2169 H2161 0.930 . S
C2169 C2167 1.419 . S
C2169 C2170 1.362 . S
C2170 H2162 0.930 . S
C2170 C2169 1.362 . S
C2170 C2173 1.409 . S
C2171 H2163 0.930 . S
C2171 C2172 1.355 . S
C2171 C2173 1.415 . S
C2172 C2171 1.355 . S
C2172 C2174 1.419 . S
C2173 C2168 1.425 . S
C2173 C2170 1.409 . S
C2173 C2171 1.415 . S
C2174 H2164 0.930 . S
C2174 C2172 1.419 . S
C2174 C2175 1.362 . S
C2175 H2165 0.930 . S
C2175 C2168 1.409 . S
C2175 C2174 1.362 . S
C647 C519 1.639 . S
C652 C19 1.680 . S
C663 C499 1.665 . S
C668 C39 1.634 . S
C679 C559 1.633 . S
C684 C59 1.659 . S
C695 C539 1.647 . S
C700 C79 1.636 . S
C711 C98 1.705 . S
C716 C598 1.665 . S
C727 C118 1.637 . S
C732 C578 1.676 . S
C743 C138 1.698 . S
C748 C638 1.704 . S
C759 C618 1.636 . S
C764 C158 1.675 . S
C775 C359 1.706 . S
C780 C179 1.694 . S
C791 C339 1.637 . S
C796 C199 1.676 . S
C807 C399 1.639 . S
C812 C219 1.681 . S
C823 C379 1.701 . S
C828 C239 1.701 . S
C839 C258 1.644 . S
C844 C438 1.638 . S
C855 C418 1.705 . S
C860 C278 1.666 . S
C871 C298 1.651 . S
C876 C478 1.635 . S
C887 C458 1.634 . S
C892 C318 1.667 . S
C903 C9 1.341 1_565 S
C908 C412 1.341 1_545 S
C919 C272 1.351 . S
C924 C29 1.351 . S
C935 C612 1.363 . S
C940 C49 1.363 . S
C951 C69 1.368 1_565 S
C956 C152 1.368 1_545 S
C967 C92 1.374 1_545 S
C972 C329 1.374 1_565 S
C983 C112 1.336 . S
C988 C189 1.336 . S
C999 C132 1.357 . S
C1004 C529 1.357 . S
C1015 C572 1.336 . S
C1020 C169 1.336 . S
C1031 C452 1.334 . S
C1036 C209 1.334 . S
C1047 C312 1.338 . S
C1052 C229 1.338 . S
C1063 C489 1.364 . S
C1068 C252 1.364 . S
C1079 C292 1.339 . S
C1084 C369 1.339 . S
C1095 C592 1.347 . S
C1100 C349 1.347 . S
C1111 C389 1.360 1_565 S
C1116 C472 1.360 1_545 S
C1127 C509 1.365 . S
C1132 C432 1.365 . S
C1143 C549 1.347 . S
C1148 C632 1.347 . S
C1159 C12 1.613 . S
C1164 C392 1.625 . S
C1175 C32 1.639 . S
C1180 C372 1.619 . S
C1191 C52 1.679 . S
C1196 C352 1.654 . S
C1207 C72 1.658 . S
C1212 C332 1.682 . S
C1223 C89 1.692 . S
C1228 C469 1.678 . S
C1239 C109 1.636 . S
C1244 C449 1.662 . S
C1255 C129 1.632 . S
C1260 C429 1.659 . S
C1271 C149 1.624 . S
C1276 C409 1.613 . S
C1287 C172 1.636 . S
C1292 C552 1.663 . S
C1303 C192 1.649 . S
C1308 C532 1.675 . S
C1319 C212 1.633 . S
C1324 C512 1.616 . S
C1335 C232 1.663 . S
C1340 C492 1.685 . S
C1351 C629 1.669 . S
C1356 C249 1.688 . S
C1367 C609 1.677 . S
C1372 C269 1.652 . S
C1383 C589 1.658 . S
C1388 C289 1.632 . S
C1399 C569 1.627 . S
C1404 C309 1.613 . S
C1415 C58 1.695 . S
C1420 C18 1.684 . S
C1431 C78 1.700 . S
C1436 C38 1.699 . S
C1447 C139 1.682 . S
C1452 C99 1.683 . S
C1463 C119 1.685 . S
C1468 C159 1.681 . S
C1479 C218 1.701 . S
C1484 C178 1.693 . S
C1495 C198 1.681 . S
C1500 C238 1.684 . S
C1511 C299 1.683 . S
C1516 C259 1.693 . S
C1527 C279 1.681 . S
C1532 C319 1.684 . S
C1543 C338 1.699 . S
C1548 C378 1.700 . S
C1559 C358 1.697 . S
C1564 C398 1.686 . S
C1575 C459 1.685 . S
C1580 C419 1.697 . S
C1591 C439 1.681 . S
C1596 C479 1.686 . S
C1607 C498 1.683 . S
C1612 C538 1.694 . S
C1623 C558 1.699 . S
C1628 C518 1.700 . S
C1639 C579 1.701 . S
C1644 C619 1.696 . S
C1655 C599 1.681 . S
C1660 C639 1.686 . S
C1671 C4 1.146 1_565 S
C1676 C144 1.120 . S
C1687 C604 1.131 . S
C1692 C24 1.124 1_455 S
C1703 C44 1.182 . S
C1708 C264 1.209 . S
C1719 C64 1.211 1_455 S
C1724 C404 1.222 1_565 S
C1735 C62 1.217 1_545 S
C1740 C82 1.199 . S
C1751 C102 1.127 1_655 S
C1756 C522 1.115 . S
C1767 C182 1.194 . S
C1772 C122 1.162 . S
C1783 C322 1.222 1_545 S
C1788 C142 1.209 1_655 S
C1799 C164 1.124 . S
C1804 C304 1.114 . S
C1815 C444 1.196 . S
C1820 C184 1.220 1_455 S
C1831 C204 1.122 . S
C1836 C104 1.115 . S
C1847 C564 1.222 . S
C1852 C224 1.215 1_455 S
C1863 C242 1.222 . S
C1868 C222 1.217 . S
C1879 C262 1.130 1_655 S
C1884 C362 1.157 . S
C1895 C282 1.119 . S
C1900 C22 1.134 . S
C1911 C482 1.117 . S
C1916 C302 1.119 1_655 S
C1927 C324 1.183 . S
C1932 C464 1.210 1_565 S
C1943 C344 1.121 . S
C1948 C284 1.115 . S
C1959 C364 1.117 . S
C1964 C584 1.128 . S
C1975 C384 1.217 . S
C1980 C84 1.222 1_565 S
C1991 C402 1.158 1_545 S
C1996 C382 1.125 . S
C2007 C202 1.219 . S
C2012 C422 1.221 . S
C2023 C502 1.219 . S
C2028 C442 1.201 . S
C2039 C462 1.206 1_545 S
C2044 C2 1.171 . S
C2055 C624 1.211 . S
C2060 C484 1.189 . S
C2071 C124 1.221 . S
C2076 C504 1.212 . S
C2087 C424 1.175 . S
C2092 C524 1.144 . S
C2103 C544 1.128 . S
C2108 C244 1.113 . S
C2119 C542 1.220 . S
C2124 C562 1.223 . S
C2135 C42 1.116 . S
C2140 C582 1.126 . S
C2151 C342 1.113 . S
C2156 C602 1.126 . S
C2167 C622 1.132 . S
C2172 C162 1.160 . S
