# Generated by pormake.
# Topology sxi, (6)-cn, num edge types: 1
# Building blocks:
#     Node 0, Type 0, BuildingBlock: OJICUG_clean_sbu_0, # of connection points: 6
#     Node 1, Type 0, BuildingBlock: OJICUG_clean_sbu_0, # of connection points: 6
#     Node 2, Type 0, BuildingBlock: OJICUG_clean_sbu_0, # of connection points: 6
#     Node 3, Type 0, BuildingBlock: OJICUG_clean_sbu_0, # of connection points: 6
#     Node 4, Type 0, BuildingBlock: OJICUG_clean_sbu_0, # of connection points: 6
#     Node 5, Type 0, BuildingBlock: OJICUG_clean_sbu_0, # of connection points: 6
#     Node 6, Type 0, BuildingBlock: OJICUG_clean_sbu_0, # of connection points: 6
#     Node 7, Type 0, BuildingBlock: OJICUG_clean_sbu_0, # of connection points: 6
#     Node 8, Type 0, BuildingBlock: OJICUG_clean_sbu_0, # of connection points: 6
#     Node 9, Type 0, BuildingBlock: OJICUG_clean_sbu_0, # of connection points: 6
#     Node 10, Type 0, BuildingBlock: OJICUG_clean_sbu_0, # of connection points: 6
#     Node 11, Type 0, BuildingBlock: OJICUG_clean_sbu_0, # of connection points: 6
#     Node 12, Type 0, BuildingBlock: OJICUG_clean_sbu_0, # of connection points: 6
#     Node 13, Type 0, BuildingBlock: OJICUG_clean_sbu_0, # of connection points: 6
#     Node 14, Type 0, BuildingBlock: OJICUG_clean_sbu_0, # of connection points: 6
#     Node 15, Type 0, BuildingBlock: OJICUG_clean_sbu_0, # of connection points: 6
#     Node 16, Type 0, BuildingBlock: OJICUG_clean_sbu_0, # of connection points: 6
#     Node 17, Type 0, BuildingBlock: OJICUG_clean_sbu_0, # of connection points: 6
#     Node 18, Type 0, BuildingBlock: OJICUG_clean_sbu_0, # of connection points: 6
#     Node 19, Type 0, BuildingBlock: OJICUG_clean_sbu_0, # of connection points: 6
#     Node 20, Type 0, BuildingBlock: OJICUG_clean_sbu_0, # of connection points: 6
#     Node 21, Type 0, BuildingBlock: OJICUG_clean_sbu_0, # of connection points: 6
#     Node 22, Type 0, BuildingBlock: OJICUG_clean_sbu_0, # of connection points: 6
#     Node 23, Type 0, BuildingBlock: OJICUG_clean_sbu_0, # of connection points: 6
#     Edge 24, Type (0, 0), BuildingBlock: XIVTED_clean_linker_0, # of connection points: 2
#     Edge 25, Type (0, 0), BuildingBlock: XIVTED_clean_linker_0, # of connection points: 2
#     Edge 26, Type (0, 0), BuildingBlock: XIVTED_clean_linker_0, # of connection points: 2
#     Edge 27, Type (0, 0), BuildingBlock: XIVTED_clean_linker_0, # of connection points: 2
#     Edge 28, Type (0, 0), BuildingBlock: XIVTED_clean_linker_0, # of connection points: 2
#     Edge 29, Type (0, 0), BuildingBlock: XIVTED_clean_linker_0, # of connection points: 2
#     Edge 30, Type (0, 0), BuildingBlock: XIVTED_clean_linker_0, # of connection points: 2
#     Edge 31, Type (0, 0), BuildingBlock: XIVTED_clean_linker_0, # of connection points: 2
#     Edge 32, Type (0, 0), BuildingBlock: XIVTED_clean_linker_0, # of connection points: 2
#     Edge 33, Type (0, 0), BuildingBlock: XIVTED_clean_linker_0, # of connection points: 2
#     Edge 34, Type (0, 0), BuildingBlock: XIVTED_clean_linker_0, # of connection points: 2
#     Edge 35, Type (0, 0), BuildingBlock: XIVTED_clean_linker_0, # of connection points: 2
#     Edge 36, Type (0, 0), BuildingBlock: XIVTED_clean_linker_0, # of connection points: 2
#     Edge 37, Type (0, 0), BuildingBlock: XIVTED_clean_linker_0, # of connection points: 2
#     Edge 38, Type (0, 0), BuildingBlock: XIVTED_clean_linker_0, # of connection points: 2
#     Edge 39, Type (0, 0), BuildingBlock: XIVTED_clean_linker_0, # of connection points: 2
#     Edge 40, Type (0, 0), BuildingBlock: XIVTED_clean_linker_0, # of connection points: 2
#     Edge 41, Type (0, 0), BuildingBlock: XIVTED_clean_linker_0, # of connection points: 2
#     Edge 42, Type (0, 0), BuildingBlock: XIVTED_clean_linker_0, # of connection points: 2
#     Edge 43, Type (0, 0), BuildingBlock: XIVTED_clean_linker_0, # of connection points: 2
#     Edge 44, Type (0, 0), BuildingBlock: XIVTED_clean_linker_0, # of connection points: 2
#     Edge 45, Type (0, 0), BuildingBlock: XIVTED_clean_linker_0, # of connection points: 2
#     Edge 46, Type (0, 0), BuildingBlock: XIVTED_clean_linker_0, # of connection points: 2
#     Edge 47, Type (0, 0), BuildingBlock: XIVTED_clean_linker_0, # of connection points: 2
#     Edge 48, Type (0, 0), BuildingBlock: XIVTED_clean_linker_0, # of connection points: 2
#     Edge 49, Type (0, 0), BuildingBlock: XIVTED_clean_linker_0, # of connection points: 2
#     Edge 50, Type (0, 0), BuildingBlock: XIVTED_clean_linker_0, # of connection points: 2
#     Edge 51, Type (0, 0), BuildingBlock: XIVTED_clean_linker_0, # of connection points: 2
#     Edge 52, Type (0, 0), BuildingBlock: XIVTED_clean_linker_0, # of connection points: 2
#     Edge 53, Type (0, 0), BuildingBlock: XIVTED_clean_linker_0, # of connection points: 2
#     Edge 54, Type (0, 0), BuildingBlock: XIVTED_clean_linker_0, # of connection points: 2
#     Edge 55, Type (0, 0), BuildingBlock: XIVTED_clean_linker_0, # of connection points: 2
#     Edge 56, Type (0, 0), BuildingBlock: XIVTED_clean_linker_0, # of connection points: 2
#     Edge 57, Type (0, 0), BuildingBlock: XIVTED_clean_linker_0, # of connection points: 2
#     Edge 58, Type (0, 0), BuildingBlock: XIVTED_clean_linker_0, # of connection points: 2
#     Edge 59, Type (0, 0), BuildingBlock: XIVTED_clean_linker_0, # of connection points: 2
#     Edge 60, Type (0, 0), BuildingBlock: XIVTED_clean_linker_0, # of connection points: 2
#     Edge 61, Type (0, 0), BuildingBlock: XIVTED_clean_linker_0, # of connection points: 2
#     Edge 62, Type (0, 0), BuildingBlock: XIVTED_clean_linker_0, # of connection points: 2
#     Edge 63, Type (0, 0), BuildingBlock: XIVTED_clean_linker_0, # of connection points: 2
#     Edge 64, Type (0, 0), BuildingBlock: XIVTED_clean_linker_0, # of connection points: 2
#     Edge 65, Type (0, 0), BuildingBlock: XIVTED_clean_linker_0, # of connection points: 2
#     Edge 66, Type (0, 0), BuildingBlock: XIVTED_clean_linker_0, # of connection points: 2
#     Edge 67, Type (0, 0), BuildingBlock: XIVTED_clean_linker_0, # of connection points: 2
#     Edge 68, Type (0, 0), BuildingBlock: XIVTED_clean_linker_0, # of connection points: 2
#     Edge 69, Type (0, 0), BuildingBlock: XIVTED_clean_linker_0, # of connection points: 2
#     Edge 70, Type (0, 0), BuildingBlock: XIVTED_clean_linker_0, # of connection points: 2
#     Edge 71, Type (0, 0), BuildingBlock: XIVTED_clean_linker_0, # of connection points: 2
#     Edge 72, Type (0, 0), BuildingBlock: XIVTED_clean_linker_0, # of connection points: 2
#     Edge 73, Type (0, 0), BuildingBlock: XIVTED_clean_linker_0, # of connection points: 2
#     Edge 74, Type (0, 0), BuildingBlock: XIVTED_clean_linker_0, # of connection points: 2
#     Edge 75, Type (0, 0), BuildingBlock: XIVTED_clean_linker_0, # of connection points: 2
#     Edge 76, Type (0, 0), BuildingBlock: XIVTED_clean_linker_0, # of connection points: 2
#     Edge 77, Type (0, 0), BuildingBlock: XIVTED_clean_linker_0, # of connection points: 2
#     Edge 78, Type (0, 0), BuildingBlock: XIVTED_clean_linker_0, # of connection points: 2
#     Edge 79, Type (0, 0), BuildingBlock: XIVTED_clean_linker_0, # of connection points: 2
#     Edge 80, Type (0, 0), BuildingBlock: XIVTED_clean_linker_0, # of connection points: 2
#     Edge 81, Type (0, 0), BuildingBlock: XIVTED_clean_linker_0, # of connection points: 2
#     Edge 82, Type (0, 0), BuildingBlock: XIVTED_clean_linker_0, # of connection points: 2
#     Edge 83, Type (0, 0), BuildingBlock: XIVTED_clean_linker_0, # of connection points: 2
#     Edge 84, Type (0, 0), BuildingBlock: XIVTED_clean_linker_0, # of connection points: 2
#     Edge 85, Type (0, 0), BuildingBlock: XIVTED_clean_linker_0, # of connection points: 2
#     Edge 86, Type (0, 0), BuildingBlock: XIVTED_clean_linker_0, # of connection points: 2
#     Edge 87, Type (0, 0), BuildingBlock: XIVTED_clean_linker_0, # of connection points: 2
#     Edge 88, Type (0, 0), BuildingBlock: XIVTED_clean_linker_0, # of connection points: 2
#     Edge 89, Type (0, 0), BuildingBlock: XIVTED_clean_linker_0, # of connection points: 2
#     Edge 90, Type (0, 0), BuildingBlock: XIVTED_clean_linker_0, # of connection points: 2
#     Edge 91, Type (0, 0), BuildingBlock: XIVTED_clean_linker_0, # of connection points: 2
#     Edge 92, Type (0, 0), BuildingBlock: XIVTED_clean_linker_0, # of connection points: 2
#     Edge 93, Type (0, 0), BuildingBlock: XIVTED_clean_linker_0, # of connection points: 2
#     Edge 94, Type (0, 0), BuildingBlock: XIVTED_clean_linker_0, # of connection points: 2
#     Edge 95, Type (0, 0), BuildingBlock: XIVTED_clean_linker_0, # of connection points: 2
# Relax obj value: 0.447
# Max RMSD: 0.271
# Mean RMSD: 0.271
data_MOF--net-sxi--node1-OJICUG_clean_sbu_0--edge1-XIVTED_clean_linker_0
_symmetry_space_group_name_H-M    P1
_symmetry_Int_Tables_number       1
_symmetry_cell_setting            triclinic
loop_
_symmetry_equiv_pos_as_xyz
'x, y, z'
_cell_length_a     48.122264
_cell_length_b     48.125052
_cell_length_c     48.085465
_cell_angle_alpha  89.974618
_cell_angle_beta   90.079343
_cell_angle_gamma 89.946698
loop_
_atom_site_label
_atom_site_type_symbol
_atom_site_fract_x
_atom_site_fract_y
_atom_site_fract_z
_atom_type_partial_charge
Sc0 Sc 0.02162 0.30621 0.40021 0.0
Sc1 Sc 0.07214 0.34155 0.36382 0.0
Sc2 Sc 0.00853 0.37326 0.37709 0.0
O3 O 0.03395 0.34089 0.38062 0.0
C4 C 0.97104 0.32056 0.36161 0.0
C5 C 0.05106 0.28329 0.34787 0.0
C6 C 0.04019 0.3813 0.32082 0.0
C7 C 0.08068 0.30786 0.42064 0.0
C8 C 0.98945 0.3513 0.43599 0.0
C9 C 0.06751 0.39877 0.39566 0.0
O10 O 0.98671 0.30209 0.37247 0.0
O11 O 0.05919 0.3065 0.33799 0.0
O12 O 0.01759 0.38052 0.3342 0.0
O13 O 0.0556 0.31055 0.42811 0.0
O14 O 0.99505 0.37123 0.41966 0.0
O15 O 0.08259 0.37769 0.38924 0.0
O16 O 0.99588 0.32637 0.43058 0.0
O17 O 0.08873 0.31364 0.39599 0.0
O18 O 0.04153 0.40032 0.39026 0.0
O19 O 0.04669 0.28024 0.37366 0.0
O20 O 0.97542 0.34663 0.3637 0.0
O21 O 0.06215 0.3696 0.32976 0.0
Sc22 Sc 0.932 0.78198 0.66454 0.0
Sc23 Sc 0.91172 0.83412 0.61772 0.0
Sc24 Sc 0.86248 0.78741 0.64553 0.0
O25 O 0.90199 0.80103 0.64229 0.0
C26 C 0.89783 0.73114 0.64262 0.0
C27 C 0.96446 0.79721 0.60824 0.0
C28 C 0.8643 0.80364 0.58151 0.0
C29 C 0.9481 0.84416 0.6727 0.0
C30 C 0.88167 0.77578 0.70722 0.0
C31 C 0.85598 0.85337 0.64762 0.0
O32 O 0.92136 0.74211 0.64778 0.0
O33 O 0.94534 0.81178 0.59699 0.0
O34 O 0.85628 0.78845 0.60151 0.0
O35 O 0.94334 0.82038 0.68305 0.0
O36 O 0.86314 0.78398 0.69027 0.0
O37 O 0.87976 0.8591 0.63752 0.0
O38 O 0.90689 0.77316 0.70024 0.0
O39 O 0.94093 0.85094 0.64806 0.0
O40 O 0.84665 0.82881 0.65012 0.0
O41 O 0.96251 0.78752 0.6327 0.0
O42 O 0.87518 0.74481 0.64201 0.0
O43 O 0.88328 0.82195 0.58433 0.0
Sc44 Sc 0.482 0.67444 0.91355 0.0
Sc45 Sc 0.42572 0.65371 0.87387 0.0
Sc46 Sc 0.46012 0.6065 0.91553 0.0
O47 O 0.45626 0.64479 0.9009 0.0
C48 C 0.52168 0.62109 0.90977 0.0
C49 C 0.47507 0.69325 0.85362 0.0
C50 C 0.44757 0.59853 0.85 0.0
C51 C 0.42242 0.70271 0.91498 0.0
C52 C 0.47527 0.64356 0.96939 0.0
C53 C 0.39718 0.60859 0.91301 0.0
O54 O 0.51705 0.64648 0.91567 0.0
O55 O 0.44914 0.68771 0.85426 0.0
O56 O 0.44968 0.58898 0.87482 0.0
O57 O 0.44884 0.70506 0.91413 0.0
O58 O 0.47238 0.62025 0.95701 0.0
O59 O 0.39807 0.62094 0.88957 0.0
O60 O 0.47427 0.66664 0.95661 0.0
O61 O 0.40946 0.68261 0.90358 0.0
O62 O 0.41801 0.60773 0.92902 0.0
O63 O 0.49191 0.68333 0.87128 0.0
O64 O 0.50262 0.604 0.90365 0.0
O65 O 0.44235 0.62404 0.84489 0.0
Sc66 Sc 0.56582 0.23735 0.14051 0.0
Sc67 Sc 0.58738 0.172 0.1178 0.0
Sc68 Sc 0.63388 0.21611 0.15012 0.0
O69 O 0.59559 0.20875 0.13635 0.0
C70 C 0.61868 0.27319 0.12267 0.0
C71 C 0.54398 0.21167 0.08698 0.0
C72 C 0.64191 0.18998 0.08904 0.0
C73 C 0.53873 0.17895 0.15926 0.0
C74 C 0.59726 0.24493 0.19772 0.0
C75 C 0.63139 0.1541 0.16354 0.0
O76 O 0.59269 0.27054 0.12691 0.0
O77 O 0.55182 0.18741 0.09387 0.0
O78 O 0.65144 0.19745 0.11277 0.0
O79 O 0.53714 0.20514 0.1546 0.0
O80 O 0.62012 0.23575 0.1881 0.0
O81 O 0.62003 0.14897 0.14016 0.0
O82 O 0.57504 0.24584 0.18348 0.0
O83 O 0.55829 0.16351 0.15008 0.0
O84 O 0.63324 0.17849 0.1729 0.0
O85 O 0.5546 0.23303 0.0978 0.0
O86 O 0.63646 0.25486 0.12917 0.0
O87 O 0.61679 0.18212 0.08548 0.0
Sc88 Sc 0.52473 0.11361 0.60478 0.0
Sc89 Sc 0.57167 0.15952 0.63594 0.0
Sc90 Sc 0.5125 0.18363 0.60121 0.0
O91 O 0.53653 0.15228 0.61416 0.0
C92 C 0.50713 0.14723 0.54966 0.0
C93 C 0.5884 0.11196 0.59234 0.0
C94 C 0.57302 0.20929 0.59418 0.0
C95 C 0.54937 0.10599 0.66622 0.0
C96 C 0.46753 0.1366 0.61519 0.0
C97 C 0.52722 0.203 0.66085 0.0
O98 O 0.50701 0.12569 0.56506 0.0
O99 O 0.59479 0.12731 0.61311 0.0
O100 O 0.54672 0.21133 0.59453 0.0
O101 O 0.53949 0.09666 0.64353 0.0
O102 O 0.47488 0.15986 0.60506 0.0
O103 O 0.552 0.19335 0.65964 0.0
O104 O 0.48508 0.11892 0.62377 0.0
O105 O 0.55993 0.13019 0.66822 0.0
O106 O 0.50853 0.19739 0.64306 0.0
O107 O 0.56354 0.10705 0.585 0.0
O108 O 0.51511 0.17081 0.55843 0.0
O109 O 0.58596 0.18919 0.60553 0.0
Sc110 Sc 0.13964 0.29036 0.85045 0.0
Sc111 Sc 0.08592 0.32384 0.88421 0.0
Sc112 Sc 0.07399 0.26134 0.84975 0.0
O113 O 0.09975 0.29151 0.86143 0.0
C114 C 0.11124 0.26372 0.7963 0.0
C115 C 0.13011 0.35253 0.84452 0.0
C116 C 0.04166 0.31838 0.83706 0.0
C117 C 0.14034 0.30796 0.91444 0.0
C118 C 0.12943 0.22915 0.86829 0.0
C119 C 0.04703 0.27489 0.90631 0.0
O120 O 0.13212 0.2725 0.80995 0.0
O121 O 0.11705 0.35289 0.86756 0.0
O122 O 0.04255 0.2918 0.83799 0.0
O123 O 0.15225 0.30684 0.8907 0.0
O124 O 0.10398 0.22962 0.86079 0.0
O125 O 0.05207 0.30076 0.90409 0.0
O126 O 0.14539 0.25007 0.86742 0.0
O127 O 0.11426 0.31211 0.91705 0.0
O128 O 0.05862 0.25706 0.89095 0.0
O129 O 0.13513 0.33013 0.83183 0.0
O130 O 0.08734 0.26132 0.80712 0.0
O131 O 0.05809 0.33403 0.85088 0.0
Sc132 Sc 0.96254 0.89022 0.08691 0.0
Sc133 Sc 0.9263 0.84162 0.12618 0.0
Sc134 Sc 0.98331 0.82175 0.08618 0.0
O135 O 0.95741 0.85124 0.09984 0.0
C136 C 0.97667 0.85486 0.03174 0.0
C137 C 0.89829 0.88537 0.08491 0.0
C138 C 0.92437 0.79213 0.08465 0.0
C139 C 0.94788 0.89736 0.15166 0.0
C140 C 0.0236 0.8744 0.09199 0.0
C141 C 0.97673 0.80274 0.14683 0.0
O142 O 0.97451 0.8776 0.04521 0.0
O143 O 0.89713 0.87161 0.10759 0.0
O144 O 0.9508 0.79074 0.08422 0.0
O145 O 0.95213 0.9071 0.12734 0.0
O146 O 0.01852 0.84946 0.08484 0.0
O147 O 0.95098 0.80929 0.14719 0.0
O148 O 0.00486 0.8912 0.09958 0.0
O149 O 0.94063 0.87222 0.1559 0.0
O150 O 0.9932 0.81115 0.12806 0.0
O151 O 0.9209 0.89118 0.07286 0.0
O152 O 0.97556 0.83121 0.0434 0.0
O153 O 0.91128 0.81151 0.09699 0.0
Sc154 Sc 0.3635 0.71561 0.36121 0.0
Sc155 Sc 0.4139 0.66787 0.38543 0.0
Sc156 Sc 0.43337 0.72539 0.3451 0.0
O157 O 0.40349 0.70289 0.36401 0.0
C158 C 0.38408 0.73398 0.30147 0.0
C159 C 0.35972 0.65013 0.35142 0.0
C160 C 0.45284 0.66518 0.33094 0.0
C161 C 0.36517 0.69323 0.42351 0.0
C162 C 0.39668 0.77149 0.37373 0.0
C163 C 0.4647 0.706 0.40052 0.0
O164 O 0.3653 0.72437 0.31728 0.0
O165 O 0.38299 0.64399 0.36258 0.0
O166 O 0.4478 0.68989 0.32313 0.0
O167 O 0.3562 0.70917 0.40452 0.0
O168 O 0.42031 0.76211 0.36647 0.0
O169 O 0.44622 0.68917 0.40926 0.0
O170 O 0.37424 0.75772 0.37132 0.0
O171 O 0.38497 0.67605 0.41956 0.0
O172 O 0.46312 0.71811 0.37719 0.0
O173 O 0.3498 0.6746 0.35064 0.0
O174 O 0.40905 0.73663 0.30935 0.0
O175 O 0.44407 0.65524 0.35395 0.0
Sc176 Sc 0.3942 0.02796 0.38006 0.0
Sc177 Sc 0.36524 0.07639 0.33455 0.0
Sc178 Sc 0.40113 0.01833 0.30974 0.0
O179 O 0.38672 0.04106 0.34132 0.0
C180 C 0.45042 0.00982 0.3489 0.0
C181 C 0.40633 0.09109 0.38498 0.0
C182 C 0.40984 0.08043 0.28774 0.0
C183 C 0.3327 0.05244 0.38547 0.0
C184 C 0.38156 0.9722 0.35354 0.0
C185 C 0.34305 0.03502 0.28688 0.0
O186 O 0.43394 0.00923 0.36959 0.0
O187 O 0.38568 0.09753 0.36948 0.0
O188 O 0.41034 0.05418 0.28483 0.0
O189 O 0.35517 0.0433 0.39605 0.0
O190 O 0.39394 0.97972 0.33139 0.0
O191 O 0.34357 0.05898 0.29835 0.0
O192 O 0.37423 0.98922 0.37227 0.0
O193 O 0.33164 0.06267 0.36106 0.0
O194 O 0.36048 0.01595 0.29228 0.0
O195 O 0.41462 0.06628 0.38859 0.0
O196 O 0.44306 0.0191 0.3253 0.0
O197 O 0.39708 0.09243 0.30754 0.0
Sc198 Sc 0.22897 0.1484 0.55176 0.0
Sc199 Sc 0.17263 0.11451 0.58124 0.0
Sc200 Sc 0.23087 0.13064 0.62098 0.0
O201 O 0.21073 0.13106 0.58493 0.0
C202 C 0.27647 0.11279 0.57623 0.0
C203 C 0.19851 0.09716 0.52508 0.0
C204 C 0.20222 0.07235 0.62411 0.0
C205 C 0.17011 0.17113 0.54602 0.0
C206 C 0.25099 0.18817 0.59917 0.0
C207 C 0.16859 0.14588 0.63854 0.0
O208 O 0.26283 0.11951 0.55453 0.0
O209 O 0.18767 0.08828 0.54754 0.0
O210 O 0.2237 0.08735 0.62674 0.0
O211 O 0.19556 0.17714 0.54939 0.0
O212 O 0.23963 0.17446 0.61862 0.0
O213 O 0.1571 0.1401 0.61527 0.0
O214 O 0.2527 0.17884 0.57459 0.0
O215 O 0.15992 0.1473 0.55199 0.0
O216 O 0.19409 0.14102 0.64367 0.0
O217 O 0.20791 0.12164 0.52278 0.0
O218 O 0.26898 0.11936 0.60078 0.0
O219 O 0.18095 0.08029 0.61029 0.0
Sc220 Sc 0.11278 0.00043 0.81139 0.0
Sc221 Sc 0.13227 0.93426 0.835 0.0
Sc222 Sc 0.10725 0.98351 0.88144 0.0
O223 O 0.11745 0.97292 0.84253 0.0
C224 C 0.13758 0.03743 0.86063 0.0
C225 C 0.16412 0.96973 0.7885 0.0
C226 C 0.16576 0.95186 0.88792 0.0
C227 C 0.08792 0.94301 0.78821 0.0
C228 C 0.05868 0.01293 0.8466 0.0
C229 C 0.08677 0.9224 0.88109 0.0
O230 O 0.13093 0.03378 0.83525 0.0
O231 O 0.15686 0.94655 0.79889 0.0
O232 O 0.14403 0.9634 0.89783 0.0
O233 O 0.09415 0.96866 0.78508 0.0
O234 O 0.0696 0.00459 0.86921 0.0
O235 O 0.10806 0.914 0.86784 0.0
O236 O 0.07127 0.01211 0.82344 0.0
O237 O 0.09819 0.92765 0.80727 0.0
O238 O 0.08197 0.94782 0.88538 0.0
O239 O 0.15371 0.9925 0.79637 0.0
O240 O 0.13109 0.02062 0.87984 0.0
O241 O 0.16663 0.94157 0.8634 0.0
Sc242 Sc 0.26278 0.85238 0.05044 0.0
Sc243 Sc 0.31864 0.88185 0.08539 0.0
Sc244 Sc 0.25716 0.86681 0.12064 0.0
O245 O 0.27955 0.86709 0.08579 0.0
C246 C 0.21574 0.89 0.07397 0.0
C247 C 0.29693 0.90375 0.02881 0.0
C248 C 0.2897 0.92274 0.12967 0.0
C249 C 0.32105 0.82802 0.04573 0.0
C250 C 0.23556 0.81137 0.09386 0.0
C251 C 0.31684 0.84479 0.1399 0.0
O252 O 0.22985 0.88225 0.05297 0.0
O253 O 0.30702 0.91076 0.05232 0.0
O254 O 0.26747 0.9087 0.13097 0.0
O255 O 0.29528 0.82273 0.04758 0.0
O256 O 0.24488 0.82432 0.11481 0.0
O257 O 0.33046 0.85335 0.11872 0.0
O258 O 0.23695 0.82113 0.06945 0.0
O259 O 0.33174 0.85049 0.05508 0.0
O260 O 0.2914 0.85072 0.14409 0.0
O261 O 0.28625 0.88008 0.02462 0.0
O262 O 0.22162 0.88307 0.0989 0.0
O263 O 0.31069 0.91474 0.11562 0.0
Sc264 Sc 0.90619 0.47549 0.68893 0.0
Sc265 Sc 0.86407 0.42218 0.66319 0.0
Sc266 Sc 0.8821 0.4785 0.62099 0.0
O267 O 0.88408 0.4588 0.65765 0.0
C268 C 0.87766 0.52852 0.66423 0.0
C269 C 0.85191 0.45201 0.71948 0.0
C270 C 0.82253 0.45402 0.62118 0.0
C271 C 0.92008 0.41347 0.6983 0.0
C272 C 0.94438 0.49125 0.63708 0.0
C273 C 0.88977 0.41452 0.60396 0.0
O274 O 0.8856 0.51498 0.68553 0.0
O275 O 0.84148 0.43939 0.69854 0.0
O276 O 0.83787 0.47533 0.61937 0.0
O277 O 0.92881 0.43791 0.69396 0.0
O278 O 0.92649 0.48461 0.61875 0.0
O279 O 0.88603 0.40402 0.62808 0.0
O280 O 0.93925 0.49036 0.66293 0.0
O281 O 0.89569 0.40569 0.69144 0.0
O282 O 0.88665 0.44025 0.59864 0.0
O283 O 0.87606 0.46272 0.71928 0.0
O284 O 0.87705 0.5183 0.6399 0.0
O285 O 0.8299 0.43258 0.63495 0.0
Sc286 Sc 0.75889 0.62614 0.87638 0.0
Sc287 Sc 0.82029 0.61457 0.91368 0.0
Sc288 Sc 0.76279 0.64428 0.9463 0.0
O289 O 0.78063 0.62819 0.91199 0.0
C290 C 0.737 0.6835 0.89991 0.0
C291 C 0.81834 0.64859 0.85723 0.0
C292 C 0.82155 0.66866 0.95291 0.0
C293 C 0.7932 0.5709 0.87065 0.0
C294 C 0.7157 0.606 0.92247 0.0
C295 C 0.79777 0.59362 0.97068 0.0
O296 O 0.74522 0.66865 0.87972 0.0
O297 O 0.83156 0.64227 0.87947 0.0
O298 O 0.79568 0.67342 0.95113 0.0
O299 O 0.77043 0.58396 0.86825 0.0
O300 O 0.72889 0.61561 0.94328 0.0
O301 O 0.8099 0.58681 0.94809 0.0
O302 O 0.72291 0.61042 0.89739 0.0
O303 O 0.81353 0.58032 0.88481 0.0
O304 O 0.78366 0.61573 0.97326 0.0
O305 O 0.79327 0.64141 0.85288 0.0
O306 O 0.73947 0.67594 0.92502 0.0
O307 O 0.83275 0.64678 0.94297 0.0
Sc308 Sc 0.60531 0.52485 0.11258 0.0
Sc309 Sc 0.63405 0.56698 0.16532 0.0
Sc310 Sc 0.60251 0.50246 0.18166 0.0
O311 O 0.61403 0.53146 0.15329 0.0
C312 C 0.55091 0.49924 0.14029 0.0
C313 C 0.59146 0.58868 0.11868 0.0
C314 C 0.58606 0.55964 0.21085 0.0
C315 C 0.6669 0.55024 0.11021 0.0
C316 C 0.6268 0.46593 0.13213 0.0
C317 C 0.66 0.52255 0.20751 0.0
O318 O 0.56364 0.51037 0.12004 0.0
O319 O 0.60859 0.59346 0.13834 0.0
O320 O 0.58339 0.5335 0.20765 0.0
O321 O 0.64595 0.53789 0.09997 0.0
O322 O 0.62117 0.46946 0.15776 0.0
O323 O 0.66114 0.54598 0.19524 0.0
O324 O 0.6215 0.48382 0.11353 0.0
O325 O 0.66642 0.56191 0.13403 0.0
O326 O 0.64045 0.50539 0.204 0.0
O327 O 0.588 0.56497 0.10796 0.0
O328 O 0.5624 0.49487 0.16361 0.0
O329 O 0.60348 0.57424 0.19725 0.0
Sc330 Sc 0.71864 0.33399 0.36885 0.0
Sc331 Sc 0.6773 0.37248 0.41369 0.0
Sc332 Sc 0.73661 0.3387 0.43818 0.0
O333 O 0.71092 0.34836 0.40686 0.0
C334 C 0.73506 0.28185 0.40764 0.0
C335 C 0.6546 0.32903 0.36899 0.0
C336 C 0.67628 0.33383 0.46519 0.0
C337 C 0.69992 0.39741 0.35823 0.0
C338 C 0.77887 0.34405 0.3871 0.0
C339 C 0.72291 0.39823 0.45523 0.0
O340 O 0.73208 0.29374 0.38411 0.0
O341 O 0.65156 0.35195 0.38195 0.0
O342 O 0.70263 0.33545 0.46734 0.0
O343 O 0.7066 0.37312 0.34985 0.0
O344 O 0.77317 0.33902 0.41242 0.0
O345 O 0.69775 0.39559 0.44725 0.0
O346 O 0.76036 0.34879 0.36896 0.0
O347 O 0.69132 0.40217 0.3829 0.0
O348 O 0.742 0.3819 0.44724 0.0
O349 O 0.67797 0.31731 0.36632 0.0
O350 O 0.73358 0.29483 0.43063 0.0
O351 O 0.6629 0.34328 0.44431 0.0
Sc352 Sc 0.2985 0.38748 0.0162 0.0
Sc353 Sc 0.33179 0.35907 0.07557 0.0
Sc354 Sc 0.37003 0.37867 0.01594 0.0
O355 O 0.3334 0.37498 0.03607 0.0
C356 C 0.33122 0.353 0.97003 0.0
C357 C 0.27794 0.3328 0.04752 0.0
C358 C 0.38044 0.32227 0.04988 0.0
C359 C 0.28771 0.40916 0.07726 0.0
C360 C 0.33929 0.43271 0.99217 0.0
C361 C 0.38329 0.40173 0.07615 0.0
O362 O 0.30943 0.36478 0.97932 0.0
O363 O 0.29738 0.33096 0.06551 0.0
O364 O 0.38608 0.34062 0.03192 0.0
O365 O 0.28497 0.41063 0.0511 0.0
O366 O 0.36056 0.41747 0.99541 0.0
O367 O 0.36588 0.38618 0.08887 0.0
O368 O 0.3154 0.42549 0.00032 0.0
O369 O 0.30287 0.39107 0.08936 0.0
O370 O 0.38642 0.40181 0.0499 0.0
O371 O 0.27638 0.35203 0.02966 0.0
O372 O 0.35492 0.35546 0.9814 0.0
O373 O 0.36054 0.325 0.06709 0.0
Sc374 Sc 0.87747 0.08996 0.96132 0.0
Sc375 Sc 0.83337 0.12852 0.91943 0.0
Sc376 Sc 0.80993 0.1019 0.98232 0.0
O377 O 0.84021 0.10652 0.9546 0.0
C378 C 0.83755 0.0427 0.98627 0.0
C379 C 0.87695 0.08328 0.8986 0.0
C380 C 0.78254 0.08938 0.92215 0.0
C381 C 0.88918 0.15249 0.93985 0.0
C382 C 0.86307 0.11273 0.02069 0.0
C383 C 0.79275 0.15914 0.96157 0.0
O384 O 0.86117 0.05148 0.97815 0.0
O385 O 0.86597 0.10717 0.8955 0.0
O386 O 0.78081 0.09269 0.94858 0.0
O387 O 0.89726 0.12781 0.94587 0.0
O388 O 0.83694 0.1104 0.01712 0.0
O389 O 0.79906 0.15328 0.93659 0.0
O390 O 0.88082 0.10722 0.00201 0.0
O391 O 0.86423 0.15811 0.93258 0.0
O392 O 0.80236 0.1454 0.9817 0.0
O393 O 0.87595 0.07066 0.92159 0.0
O394 O 0.8161 0.05804 0.98728 0.0
O395 O 0.80285 0.09842 0.90765 0.0
Sc396 Sc 0.14781 0.56258 0.23555 0.0
Sc397 Sc 0.11821 0.58845 0.17493 0.0
Sc398 Sc 0.15574 0.63158 0.21822 0.0
O399 O 0.14055 0.59426 0.20982 0.0
C400 C 0.14088 0.6137 0.27753 0.0
C401 C 0.08951 0.54645 0.21777 0.0
C402 C 0.0936 0.64383 0.19609 0.0
C403 C 0.15739 0.53749 0.17521 0.0
C404 C 0.20544 0.59156 0.23859 0.0
C405 C 0.16304 0.63278 0.15519 0.0
O406 O 0.14541 0.58824 0.27201 0.0
O407 O 0.09423 0.55409 0.19284 0.0
O408 O 0.11804 0.65153 0.20317 0.0
O409 O 0.15284 0.53395 0.20112 0.0
O410 O 0.19448 0.61538 0.23471 0.0
O411 O 0.13947 0.6213 0.1515 0.0
O412 O 0.19201 0.56897 0.23587 0.0
O413 O 0.14877 0.55873 0.16184 0.0
O414 O 0.17509 0.63258 0.17857 0.0
O415 O 0.10413 0.55496 0.23795 0.0
O416 O 0.13815 0.63213 0.25888 0.0
O417 O 0.08813 0.61901 0.18839 0.0
Sc418 Sc 0.6879 0.89648 0.48568 0.0
Sc419 Sc 0.66409 0.86748 0.42307 0.0
Sc420 Sc 0.61798 0.90064 0.46789 0.0
O421 O 0.65677 0.88823 0.45903 0.0
C422 C 0.63836 0.8778 0.52571 0.0
C423 C 0.70957 0.83987 0.46344 0.0
C424 C 0.61001 0.83852 0.44403 0.0
C425 C 0.71227 0.91131 0.425 0.0
C426 C 0.6531 0.95179 0.49205 0.0
C427 C 0.6173 0.91105 0.40461 0.0
O428 O 0.66385 0.88328 0.52113 0.0
O429 O 0.69916 0.84326 0.43933 0.0
O430 O 0.60071 0.86186 0.45261 0.0
O431 O 0.71413 0.91007 0.45152 0.0
O432 O 0.63047 0.94035 0.48462 0.0
O433 O 0.63107 0.88892 0.39986 0.0
O434 O 0.67618 0.93906 0.49215 0.0
O435 O 0.69329 0.89901 0.41109 0.0
O436 O 0.61437 0.92089 0.42877 0.0
O437 O 0.7032 0.85506 0.48385 0.0
O438 O 0.61918 0.88205 0.50809 0.0
O439 O 0.63475 0.83546 0.43489 0.0
Sc440 Sc 0.34595 0.36727 0.72537 0.0
Sc441 Sc 0.37774 0.41071 0.67807 0.0
Sc442 Sc 0.34544 0.43697 0.73735 0.0
O443 O 0.35644 0.40516 0.71334 0.0
C444 C 0.29327 0.40296 0.74564 0.0
C445 C 0.33263 0.36361 0.66331 0.0
C446 C 0.33542 0.45994 0.67626 0.0
C447 C 0.40614 0.35709 0.69996 0.0
C448 C 0.3617 0.3896 0.78113 0.0
C449 C 0.405 0.45421 0.72088 0.0
O450 O 0.30811 0.381 0.74616 0.0
O451 O 0.35489 0.37684 0.657 0.0
O452 O 0.33825 0.46413 0.70226 0.0
O453 O 0.38243 0.34819 0.70754 0.0
O454 O 0.3503 0.41279 0.77515 0.0
O455 O 0.40228 0.44516 0.69597 0.0
O456 O 0.36892 0.37243 0.7626 0.0
O457 O 0.40973 0.38183 0.69123 0.0
O458 O 0.3877 0.44905 0.74006 0.0
O459 O 0.32331 0.36236 0.68795 0.0
O460 O 0.30235 0.42574 0.736 0.0
O461 O 0.34635 0.43928 0.66384 0.0
Sc462 Sc 0.12323 0.62871 0.51451 0.0
Sc463 Sc 0.16231 0.63716 0.5751 0.0
Sc464 Sc 0.19081 0.60303 0.51786 0.0
O465 O 0.15867 0.623 0.53575 0.0
C466 C 0.14002 0.56859 0.49312 0.0
C467 C 0.10332 0.6086 0.57476 0.0
C468 C 0.1976 0.58043 0.57719 0.0
C469 C 0.12184 0.68369 0.54876 0.0
C470 C 0.17002 0.64262 0.46991 0.0
C471 C 0.22001 0.65296 0.55036 0.0
O472 O 0.12184 0.58629 0.5004 0.0
O473 O 0.12648 0.61223 0.58739 0.0
O474 O 0.1939 0.57466 0.55174 0.0
O475 O 0.11977 0.67156 0.52551 0.0
O476 O 0.1898 0.63037 0.48254 0.0
O477 O 0.19836 0.66196 0.56287 0.0
O478 O 0.14495 0.64191 0.47816 0.0
O479 O 0.13496 0.67292 0.56913 0.0
O480 O 0.22049 0.63017 0.53703 0.0
O481 O 0.09911 0.61619 0.54972 0.0
O482 O 0.16584 0.57264 0.49653 0.0
O483 O 0.18996 0.60352 0.58769 0.0
Sc484 Sc 0.6384 0.9353 0.76262 0.0
Sc485 Sc 0.6154 0.90872 0.82587 0.0
Sc486 Sc 0.65254 0.86734 0.78047 0.0
O487 O 0.63558 0.90387 0.78934 0.0
C488 C 0.62599 0.88338 0.72313 0.0
C489 C 0.58232 0.951 0.78707 0.0
C490 C 0.59199 0.85283 0.80541 0.0
C491 C 0.65348 0.96049 0.82311 0.0
C492 C 0.69764 0.90873 0.75434 0.0
C493 C 0.66276 0.86552 0.84235 0.0
O494 O 0.62844 0.90939 0.72743 0.0
O495 O 0.58931 0.94334 0.8114 0.0
O496 O 0.61657 0.84607 0.79775 0.0
O497 O 0.64894 0.9632 0.79694 0.0
O498 O 0.68946 0.88476 0.76189 0.0
O499 O 0.63878 0.87567 0.84718 0.0
O500 O 0.68213 0.93008 0.75505 0.0
O501 O 0.64549 0.93945 0.83722 0.0
O502 O 0.6742 0.86847 0.81894 0.0
O503 O 0.59484 0.94215 0.76586 0.0
O504 O 0.63264 0.86501 0.74089 0.0
O505 O 0.5857 0.87741 0.81339 0.0
Sc506 Sc 0.85609 0.06094 0.25959 0.0
Sc507 Sc 0.88626 0.08427 0.32262 0.0
Sc508 Sc 0.85353 0.13145 0.27656 0.0
O509 O 0.86542 0.09218 0.28629 0.0
C510 C 0.87598 0.10897 0.21878 0.0
C511 C 0.91534 0.04122 0.28133 0.0
C512 C 0.91454 0.14076 0.30241 0.0
C513 C 0.84201 0.03479 0.31896 0.0
C514 C 0.80151 0.0976 0.25314 0.0
C515 C 0.84053 0.12914 0.34103 0.0
O516 O 0.87264 0.0834 0.22463 0.0
O517 O 0.9157 0.05522 0.30378 0.0
O518 O 0.89314 0.14844 0.28885 0.0
O519 O 0.83906 0.03621 0.29267 0.0
O520 O 0.81239 0.1196 0.26287 0.0
O521 O 0.85916 0.11131 0.34709 0.0
O522 O 0.81489 0.0751 0.25054 0.0
O523 O 0.8584 0.05052 0.33262 0.0
O524 O 0.83597 0.13764 0.31653 0.0
O525 O 0.89549 0.04194 0.26415 0.0
O526 O 0.86953 0.12856 0.23523 0.0
O527 O 0.91576 0.11763 0.31533 0.0
H528 H 0.93982 0.27565 0.37636 0.0
H529 H 0.8038 0.36109 0.3387 0.0
H530 H 0.94006 0.34736 0.32246 0.0
H531 H 0.81715 0.3112 0.41226 0.0
H532 H 0.84903 0.34551 0.3209 0.0
H533 H 0.88916 0.27516 0.37436 0.0
C534 C 0.92928 0.29056 0.36314 0.0
C535 C 0.94385 0.31236 0.35058 0.0
C536 C 0.8418 0.33792 0.34083 0.0
C537 C 0.88642 0.31232 0.3488 0.0
C538 C 0.81632 0.34708 0.35116 0.0
C539 C 0.80711 0.338 0.3773 0.0
C540 C 0.85774 0.31922 0.35658 0.0
C541 C 0.82377 0.31938 0.39236 0.0
C542 C 0.90038 0.29047 0.36227 0.0
C543 C 0.92929 0.33086 0.33332 0.0
N544 N 0.84828 0.31064 0.38178 0.0
N545 N 0.90115 0.331 0.33359 0.0
H546 H 0.8433 0.5609 0.63313 0.0
H547 H 0.93502 0.69371 0.66347 0.0
H548 H 0.90447 0.56433 0.69875 0.0
H549 H 0.85524 0.69947 0.62249 0.0
H550 H 0.92645 0.64455 0.67215 0.0
H551 H 0.84756 0.61114 0.62709 0.0
C552 C 0.85706 0.57241 0.64676 0.0
C553 C 0.87371 0.5586 0.66633 0.0
C554 C 0.91089 0.6566 0.66117 0.0
C555 C 0.87938 0.61551 0.65889 0.0
C556 C 0.91596 0.68452 0.65577 0.0
C557 C 0.89574 0.70069 0.64232 0.0
C558 C 0.88562 0.64477 0.65278 0.0
C559 C 0.87131 0.68773 0.63306 0.0
C560 C 0.85963 0.60096 0.64317 0.0
C561 C 0.89122 0.57429 0.6835 0.0
N562 N 0.86687 0.66046 0.63853 0.0
N563 N 0.89403 0.60196 0.67899 0.0
H564 H 0.68479 0.60567 0.9702 0.0
H565 H 0.54776 0.57826 0.88283 0.0
H566 H 0.68499 0.57567 0.88553 0.0
H567 H 0.55792 0.63784 0.94915 0.0
H568 H 0.59479 0.56056 0.89251 0.0
H569 H 0.63484 0.59755 0.97225 0.0
C570 C 0.67452 0.5966 0.95232 0.0
C571 C 0.68868 0.59265 0.92717 0.0
C572 C 0.5864 0.57722 0.90511 0.0
C573 C 0.63191 0.58363 0.92939 0.0
C574 C 0.55989 0.58749 0.89942 0.0
C575 C 0.5496 0.61011 0.91461 0.0
C576 C 0.60214 0.58935 0.92648 0.0
C577 C 0.56561 0.62101 0.93632 0.0
C578 C 0.64603 0.59204 0.9535 0.0
C579 C 0.67451 0.58014 0.90493 0.0
N580 N 0.59119 0.61061 0.94152 0.0
N581 N 0.64661 0.57675 0.90627 0.0
H582 H 0.59233 0.30979 0.08835 0.0
H583 H 0.62712 0.4451 0.07934 0.0
H584 H 0.66851 0.29705 0.13415 0.0
H585 H 0.6516 0.42555 0.16364 0.0
H586 H 0.63586 0.3969 0.06619 0.0
H587 H 0.60587 0.35798 0.0803 0.0
C588 C 0.61222 0.31701 0.09606 0.0
C589 C 0.62905 0.29985 0.11244 0.0
C590 C 0.63988 0.40345 0.08736 0.0
C591 C 0.64459 0.3545 0.10346 0.0
C592 C 0.6349 0.43085 0.09497 0.0
C593 C 0.63761 0.43895 0.12292 0.0
C594 C 0.64771 0.38433 0.10784 0.0
C595 C 0.64833 0.41985 0.1421 0.0
C596 C 0.62014 0.34433 0.09116 0.0
C597 C 0.65481 0.30989 0.1217 0.0
N598 N 0.6526 0.39316 0.13427 0.0
N599 N 0.66139 0.33698 0.11792 0.0
H600 H 0.44083 0.08974 0.63435 0.0
H601 H 0.31334 0.12106 0.53403 0.0
H602 H 0.43025 0.16115 0.58071 0.0
H603 H 0.30317 0.0785 0.61237 0.0
H604 H 0.3637 0.11783 0.53966 0.0
H605 H 0.39603 0.0717 0.61749 0.0
C606 C 0.42906 0.10169 0.61929 0.0
C607 C 0.4391 0.12718 0.60925 0.0
C608 C 0.35036 0.10841 0.55515 0.0
C609 C 0.38926 0.10599 0.58896 0.0
C610 C 0.32169 0.11002 0.55182 0.0
C611 C 0.30438 0.10107 0.57337 0.0
C612 C 0.36131 0.09787 0.58012 0.0
C613 C 0.31613 0.08656 0.59582 0.0
C614 C 0.40388 0.09117 0.6094 0.0
C615 C 0.42324 0.14165 0.58945 0.0
N616 N 0.34408 0.08608 0.5991 0.0
N617 N 0.39922 0.13076 0.57988 0.0
H618 H 0.17891 0.208 0.85169 0.0
H619 H 0.13937 0.06048 0.91241 0.0
H620 H 0.10743 0.19038 0.90275 0.0
H621 H 0.16568 0.07424 0.82763 0.0
H622 H 0.15006 0.10885 0.92304 0.0
H623 H 0.19456 0.15978 0.85783 0.0
C624 C 0.16704 0.19416 0.86489 0.0
C625 C 0.1416 0.20258 0.87627 0.0
C626 C 0.15437 0.1009 0.90241 0.0
C627 C 0.15965 0.14851 0.88393 0.0
C628 C 0.14819 0.0734 0.89622 0.0
C629 C 0.15062 0.06377 0.86877 0.0
C630 C 0.16328 0.11854 0.88109 0.0
C631 C 0.16261 0.08123 0.8488 0.0
C632 C 0.17602 0.16689 0.86843 0.0
C633 C 0.12686 0.18422 0.89322 0.0
N634 N 0.16803 0.1081 0.85524 0.0
N635 N 0.136 0.1578 0.89636 0.0
H636 H 0.05028 0.91724 0.11834 0.0
H637 H 0.18414 0.89053 0.02666 0.0
H638 H 0.05852 0.85833 0.05115 0.0
H639 H 0.18666 0.92168 0.11082 0.0
H640 H 0.13416 0.89903 0.02562 0.0
H641 H 0.09644 0.93583 0.10677 0.0
C642 C 0.06182 0.9083 0.1012 0.0
C643 C 0.05126 0.8856 0.08631 0.0
C644 C 0.14586 0.90478 0.044 0.0
C645 C 0.10281 0.90739 0.0723 0.0
C646 C 0.17436 0.90004 0.04458 0.0
C647 C 0.1891 0.90412 0.06938 0.0
C648 C 0.13239 0.91346 0.06838 0.0
C649 C 0.17563 0.91711 0.09172 0.0
C650 C 0.08782 0.9191 0.09441 0.0
C651 C 0.06647 0.87515 0.06382 0.0
N652 N 0.14772 0.92062 0.09102 0.0
N653 N 0.09159 0.88603 0.0576 0.0
H654 H 0.43929 0.80834 0.38025 0.0
H655 H 0.34506 0.94372 0.38691 0.0
H656 H 0.34987 0.8017 0.38607 0.0
H657 H 0.41888 0.93397 0.33682 0.0
H658 H 0.34914 0.89457 0.401 0.0
H659 H 0.43498 0.85869 0.38197 0.0
C660 C 0.41878 0.81738 0.38242 0.0
C661 C 0.39481 0.80086 0.38194 0.0
C662 C 0.36433 0.90346 0.38698 0.0
C663 C 0.38992 0.85822 0.38389 0.0
C664 C 0.36192 0.9312 0.3788 0.0
C665 C 0.38137 0.94258 0.36032 0.0
C666 C 0.38681 0.8877 0.37724 0.0
C667 C 0.40309 0.92582 0.35062 0.0
C668 C 0.41639 0.84608 0.38337 0.0
C669 C 0.36884 0.81375 0.38559 0.0
N670 N 0.40531 0.89925 0.35935 0.0
N671 N 0.36699 0.84188 0.38586 0.0
H672 H 0.28736 0.35209 0.93374 0.0
H673 H 0.39062 0.3473 0.8059 0.0
H674 H 0.37276 0.32555 0.94237 0.0
H675 H 0.3235 0.4055 0.8192 0.0
H676 H 0.37811 0.32392 0.84959 0.0
H677 H 0.29276 0.3512 0.88344 0.0
C678 C 0.30697 0.34516 0.92512 0.0
C679 C 0.33024 0.34068 0.94212 0.0
C680 C 0.36616 0.3417 0.84264 0.0
C681 C 0.33644 0.33996 0.88511 0.0
C682 C 0.37352 0.35531 0.81816 0.0
C683 C 0.35835 0.37862 0.80928 0.0
C684 C 0.34316 0.35121 0.85772 0.0
C685 C 0.33612 0.38797 0.82555 0.0
C686 C 0.31004 0.34478 0.89643 0.0
C687 C 0.35473 0.33063 0.92986 0.0
N688 N 0.32912 0.37411 0.84894 0.0
N689 N 0.35759 0.33155 0.90187 0.0
H690 H 0.91126 0.09591 0.04521 0.0
H691 H 0.86754 0.15809 0.19177 0.0
H692 H 0.83815 0.14608 0.05905 0.0
H693 H 0.90432 0.07683 0.1814 0.0
H694 H 0.87317 0.16645 0.14201 0.0
H695 H 0.9241 0.10199 0.09417 0.0
C696 C 0.8983 0.10876 0.0584 0.0
C697 C 0.87333 0.12009 0.04842 0.0
C698 C 0.88062 0.14711 0.15086 0.0
C699 C 0.88814 0.12741 0.10374 0.0
C700 C 0.87747 0.14228 0.17919 0.0
C701 C 0.88482 0.1164 0.1905 0.0
C702 C 0.8915 0.12607 0.13398 0.0
C703 C 0.89777 0.09679 0.1733 0.0
C704 C 0.90565 0.11217 0.08619 0.0
C705 C 0.85728 0.13658 0.06621 0.0
N706 N 0.90039 0.10189 0.14569 0.0
N707 N 0.86486 0.13958 0.09319 0.0
H708 H 0.17135 0.58699 0.31652 0.0
H709 H 0.13735 0.67852 0.44032 0.0
H710 H 0.12481 0.66257 0.3024 0.0
H711 H 0.21359 0.6314 0.43529 0.0
H712 H 0.13489 0.67919 0.38969 0.0
H713 H 0.18712 0.60527 0.36062 0.0
C714 C 0.164 0.60729 0.32294 0.0
C715 C 0.14628 0.6231 0.30602 0.0
C716 C 0.15268 0.66959 0.39966 0.0
C717 C 0.16499 0.64448 0.35633 0.0
C718 C 0.15412 0.66917 0.42854 0.0
C719 C 0.17492 0.65357 0.44186 0.0
C720 C 0.17196 0.65399 0.38446 0.0
C721 C 0.19661 0.64276 0.42579 0.0
C722 C 0.17361 0.618 0.34784 0.0
C723 C 0.13815 0.6496 0.31511 0.0
N724 N 0.19407 0.6423 0.39776 0.0
N725 N 0.14728 0.65939 0.33999 0.0
H726 H 0.67009 0.84968 0.5635 0.0
H727 H 0.59279 0.91031 0.68586 0.0
H728 H 0.58824 0.88445 0.55107 0.0
H729 H 0.64128 0.8356 0.69702 0.0
H730 H 0.58804 0.89924 0.6365 0.0
H731 H 0.6586 0.84148 0.61232 0.0
C732 C 0.64957 0.85515 0.57098 0.0
C733 C 0.6303 0.8683 0.55354 0.0
C734 C 0.59906 0.88488 0.64993 0.0
C735 C 0.61721 0.8593 0.60901 0.0
C736 C 0.60193 0.8913 0.67798 0.0
C737 C 0.61793 0.87413 0.69523 0.0
C738 C 0.61302 0.86167 0.63913 0.0
C739 C 0.62903 0.84953 0.68423 0.0
C740 C 0.64293 0.85024 0.59869 0.0
C741 C 0.60381 0.87457 0.56401 0.0
N742 N 0.62705 0.84439 0.65659 0.0
N743 N 0.59826 0.87069 0.59135 0.0
H744 H 0.17207 0.52615 0.47174 0.0
H745 H 0.03928 0.44109 0.4201 0.0
H746 H 0.08672 0.55113 0.48402 0.0
H747 H 0.12293 0.41132 0.40653 0.0
H748 H 0.05755 0.48088 0.44432 0.0
H749 H 0.15571 0.48371 0.44878 0.0
C750 C 0.14992 0.52274 0.46971 0.0
C751 C 0.13074 0.54239 0.47979 0.0
C752 C 0.07208 0.46577 0.43612 0.0
C753 C 0.11201 0.49389 0.45354 0.0
C754 C 0.06163 0.44288 0.42209 0.0
C755 C 0.07958 0.42273 0.41091 0.0
C756 C 0.10085 0.46896 0.43918 0.0
C757 C 0.10832 0.42634 0.4147 0.0
C758 C 0.14065 0.49849 0.45658 0.0
C759 C 0.10234 0.53677 0.47655 0.0
N760 N 0.11811 0.44914 0.42846 0.0
N761 N 0.09392 0.51314 0.46371 0.0
H762 H 0.86359 0.87283 0.69946 0.0
H763 H 0.71192 0.9391 0.7087 0.0
H764 H 0.81006 0.88023 0.62799 0.0
H765 H 0.74561 0.8826 0.76971 0.0
H766 H 0.75537 0.93538 0.6821 0.0
H767 H 0.82783 0.89539 0.72802 0.0
C768 C 0.84481 0.88045 0.68958 0.0
C769 C 0.83971 0.87509 0.6614 0.0
C770 C 0.75339 0.92441 0.70167 0.0
C771 C 0.79889 0.90031 0.69376 0.0
C772 C 0.72877 0.92659 0.7169 0.0
C773 C 0.72525 0.91097 0.7413 0.0
C774 C 0.77475 0.90709 0.71139 0.0
C775 C 0.74752 0.8948 0.75088 0.0
C776 C 0.82438 0.89297 0.70588 0.0
C777 C 0.81478 0.88445 0.6496 0.0
N778 N 0.77135 0.89321 0.73584 0.0
N779 N 0.79507 0.89645 0.66593 0.0
H780 H 0.36613 0.60404 0.95994 0.0
H781 H 0.37439 0.44504 0.94954 0.0
H782 H 0.38194 0.56503 0.88092 0.0
H783 H 0.31064 0.48104 0.00123 0.0
H784 H 0.37932 0.48966 0.92551 0.0
H785 H 0.34512 0.56072 0.97663 0.0
C786 C 0.36399 0.5867 0.94573 0.0
C787 C 0.37542 0.58807 0.91896 0.0
C788 C 0.36404 0.48767 0.94191 0.0
C789 C 0.35309 0.53828 0.93833 0.0
C790 C 0.36147 0.46238 0.95583 0.0
C791 C 0.34227 0.4595 0.97752 0.0
C792 C 0.34785 0.51046 0.95027 0.0
C793 C 0.32575 0.4825 0.98463 0.0
C794 C 0.35229 0.56195 0.95532 0.0
C795 C 0.37292 0.56486 0.90154 0.0
N796 N 0.32927 0.50723 0.97137 0.0
N797 N 0.36274 0.54059 0.9118 0.0
H798 H 0.63434 0.14777 0.21921 0.0
H799 H 0.77801 0.06567 0.21242 0.0
H800 H 0.66647 0.11421 0.14261 0.0
H801 H 0.75922 0.13153 0.27034 0.0
H802 H 0.73116 0.07028 0.19273 0.0
H803 H 0.67302 0.12663 0.24439 0.0
C804 C 0.64903 0.13503 0.20785 0.0
C805 C 0.64749 0.13298 0.17878 0.0
C806 C 0.73725 0.08338 0.21 0.0
C807 C 0.69205 0.10936 0.20734 0.0
C808 C 0.76389 0.0808 0.22129 0.0
C809 C 0.77257 0.09849 0.24288 0.0
C810 C 0.71903 0.10337 0.2208 0.0
C811 C 0.75349 0.11774 0.2535 0.0
C812 C 0.67122 0.12325 0.22219 0.0
C813 C 0.66697 0.11624 0.16503 0.0
N814 N 0.72762 0.11969 0.24232 0.0
N815 N 0.68891 0.10548 0.1794 0.0
H816 H 0.68536 0.97474 0.53294 0.0
H817 H 0.59297 0.1123 0.53664 0.0
H818 H 0.61796 0.99359 0.47675 0.0
H819 H 0.63086 0.07816 0.61038 0.0
H820 H 0.61676 0.07738 0.50859 0.0
H821 H 0.6784 0.02001 0.5556 0.0
C822 C 0.66953 0.98866 0.52499 0.0
C823 C 0.652 0.98038 0.50311 0.0
C824 C 0.62048 0.07794 0.53081 0.0
C825 C 0.64432 0.03201 0.52858 0.0
C826 C 0.60714 0.09798 0.54678 0.0
C827 C 0.60988 0.09787 0.5758 0.0
C828 C 0.63646 0.05743 0.54399 0.0
C829 C 0.62835 0.0789 0.58801 0.0
C830 C 0.66555 0.01436 0.53798 0.0
C831 C 0.63171 -0.00094 0.49373 0.0
N832 N 0.64059 0.05894 0.57205 0.0
N833 N 0.62838 0.02395 0.50657 0.0
H834 H 0.24472 0.43068 0.73333 0.0
H835 H 0.17198 0.37745 0.87245 0.0
H836 H 0.28244 0.37631 0.79395 0.0
H837 H 0.12771 0.37867 0.79455 0.0
H838 H 0.21211 0.3986 0.84931 0.0
H839 H 0.20135 0.43 0.7608 0.0
C840 C 0.24389 0.41879 0.75244 0.0
C841 C 0.26688 0.40308 0.76118 0.0
C842 C 0.19314 0.39532 0.8376 0.0
C843 C 0.21841 0.40345 0.79304 0.0
C844 C 0.17013 0.38372 0.85087 0.0
C845 C 0.14665 0.37639 0.83529 0.0
C846 C 0.19236 0.39982 0.80875 0.0
C847 C 0.14552 0.38419 0.80719 0.0
C848 C 0.21935 0.41859 0.7681 0.0
C849 C 0.26498 0.38826 0.78622 0.0
N850 N 0.16832 0.39507 0.79459 0.0
N851 N 0.24121 0.38889 0.80132 0.0
H852 H 0.88046 0.87755 0.03252 0.0
H853 H 0.8059 0.02517 0.02993 0.0
H854 H 0.86215 0.92311 0.10737 0.0
H855 H 0.86557 0.99616 0.96967 0.0
H856 H 0.8091 0.98021 0.05397 0.0
H857 H 0.8553 0.91244 0.00545 0.0
C858 C 0.86987 0.8942 0.04338 0.0
C859 C 0.87342 0.89765 0.07213 0.0
C860 C 0.82092 0.98356 0.03511 0.0
C861 C 0.84544 0.9379 0.0413 0.0
C862 C 0.8191 0.00908 0.02134 0.0
C863 C 0.83572 0.01438 0.99792 0.0
C864 C 0.83895 0.96308 0.02493 0.0
C865 C 0.85263 0.99297 0.9878 0.0
C866 C 0.85587 0.91426 0.0279 0.0
C867 C 0.8597 0.91972 0.08524 0.0
N868 N 0.85388 0.96827 0.00143 0.0
N869 N 0.84677 0.93951 0.0696 0.0
H870 H 0.36626 0.64171 0.29668 0.0
H871 H 0.22401 0.55807 0.28038 0.0
H872 H 0.31837 0.61447 0.36718 0.0
H873 H 0.25003 0.62402 0.22557 0.0
H874 H 0.26718 0.56388 0.30714 0.0
H875 H 0.33257 0.61945 0.26557 0.0
C876 C 0.34922 0.62999 0.30557 0.0
C877 C 0.3451 0.62952 0.3344 0.0
C878 C 0.26367 0.57654 0.28883 0.0
C879 C 0.30639 0.60466 0.29914 0.0
C880 C 0.23924 0.57313 0.27345 0.0
C881 C 0.23356 0.59064 0.25078 0.0
C882 C 0.28271 0.59715 0.28103 0.0
C883 C 0.25367 0.61017 0.24296 0.0
C884 C 0.32992 0.61759 0.28787 0.0
C885 C 0.32236 0.61483 0.34502 0.0
N886 N 0.27735 0.61296 0.25812 0.0
N887 N 0.3036 0.60313 0.32733 0.0
H888 H 0.46067 0.10583 0.38515 0.0
H889 H 0.45702 0.12396 0.54177 0.0
H890 H 0.38264 0.12163 0.426 0.0
H891 H 0.52189 0.1675 0.49801 0.0
H892 H 0.43048 0.12078 0.49866 0.0
H893 H 0.48509 0.12817 0.42402 0.0
C894 C 0.44868 0.11506 0.40183 0.0
C895 C 0.41969 0.11217 0.40248 0.0
C896 C 0.45037 0.13131 0.49849 0.0
C897 C 0.44735 0.13636 0.44722 0.0
C898 C 0.46564 0.13285 0.52298 0.0
C899 C 0.49173 0.14576 0.52325 0.0
C900 C 0.46163 0.14193 0.47383 0.0
C901 C 0.50188 0.15724 0.49846 0.0
C902 C 0.46258 0.12767 0.42397 0.0
C903 C 0.405 0.12381 0.4247 0.0
N904 N 0.48704 0.1545 0.47443 0.0
N905 N 0.41907 0.13474 0.44665 0.0
H906 H 0.17951 0.14444 0.69361 0.0
H907 H 0.07248 0.24494 0.75823 0.0
H908 H 0.1234 0.18156 0.63403 0.0
H909 H 0.16092 0.25431 0.77073 0.0
H910 H 0.0821 0.21612 0.71701 0.0
H911 H 0.16259 0.17632 0.72889 0.0
C912 C 0.16327 0.15904 0.68801 0.0
C913 C 0.15323 0.16071 0.66064 0.0
C914 C 0.0992 0.22508 0.7286 0.0
C915 C 0.1338 0.1972 0.70119 0.0
C916 C 0.09384 0.24147 0.75207 0.0
C917 C 0.11596 0.25176 0.76829 0.0
C918 C 0.12676 0.2186 0.72189 0.0
C919 C 0.14318 0.24669 0.75918 0.0
C920 C 0.15378 0.17728 0.70816 0.0
C921 C 0.13175 0.17971 0.65486 0.0
N922 N 0.14778 0.22998 0.73699 0.0
N923 N 0.12279 0.19756 0.67504 0.0
H924 H 0.0311 0.92749 0.88088 0.0
H925 H 0.01098 0.81904 0.00419 0.0
H926 H 0.0968 0.87366 0.90964 0.0
H927 H 0.96387 0.89459 0.99327 0.0
H928 H 0.0344 0.82786 0.95978 0.0
H929 H -0.00151 0.9034 0.91121 0.0
C930 C 0.03848 0.91006 0.89314 0.0
C931 C 0.06671 0.90279 0.89323 0.0
C932 C 0.01844 0.84208 0.96683 0.0
C933 C 0.02963 0.87552 0.9283 0.0
C934 C 0.00491 0.83701 0.99202 0.0
C935 C 0.98563 0.8563 0.00246 0.0
C936 C 0.01224 0.86634 0.9519 0.0
C937 C 0.97878 0.87936 0.98606 0.0
C938 C 0.01989 0.89642 0.91048 0.0
C939 C 0.07519 0.87992 0.90916 0.0
N940 N 0.99224 0.88384 0.96168 0.0
N941 N 0.05677 0.86737 0.92662 0.0
H942 H 0.37244 0.83759 0.15382 0.0
H943 H 0.33376 0.72983 0.27501 0.0
H944 H 0.29002 0.80705 0.17167 0.0
H945 H 0.41626 0.76358 0.26473 0.0
H946 H 0.31944 0.7533 0.23249 0.0
H947 H 0.39091 0.80642 0.19017 0.0
C948 C 0.35832 0.82427 0.16519 0.0
C949 C 0.32962 0.82535 0.16009 0.0
C950 C 0.34077 0.75544 0.23938 0.0
C951 C 0.35043 0.78967 0.2012 0.0
C952 C 0.34897 0.74195 0.2637 0.0
C953 C 0.37616 0.74497 0.27374 0.0
C954 C 0.35978 0.77233 0.22499 0.0
C955 C 0.39499 0.7608 0.25792 0.0
C956 C 0.36881 0.80654 0.1859 0.0
C957 C 0.31224 0.80748 0.17528 0.0
N958 N 0.38637 0.77415 0.23449 0.0
N959 N 0.32288 0.79057 0.19511 0.0
H960 H 0.98722 0.32036 0.484 0.0
H961 H 0.87226 0.41877 0.55098 0.0
H962 H 0.95544 0.39536 0.44624 0.0
H963 H 0.92838 0.37202 0.60312 0.0
H964 H 0.89477 0.3996 0.50996 0.0
H965 H 0.95955 0.33042 0.52582 0.0
C966 C 0.97442 0.33888 0.48449 0.0
C967 C 0.9737 0.35716 0.46167 0.0
C968 C 0.90198 0.39321 0.53034 0.0
C969 C 0.94178 0.36824 0.50889 0.0
C970 C 0.88904 0.40397 0.55375 0.0
C971 C 0.8988 0.39723 0.58039 0.0
C972 C 0.92496 0.37561 0.53349 0.0
C973 C 0.92033 0.37771 0.58286 0.0
C974 C 0.95872 0.34454 0.5083 0.0
C975 C 0.95683 0.38083 0.46339 0.0
N976 N 0.93309 0.3678 0.55956 0.0
N977 N 0.94144 0.38558 0.4865 0.0
H978 H 0.79785 0.65978 0.80578 0.0
H979 H 0.91485 0.75913 0.75084 0.0
H980 H 0.86663 0.68028 0.8599 0.0
H981 H 0.82894 0.76455 0.72525 0.0
H982 H 0.90087 0.7293 0.78974 0.0
H983 H 0.81317 0.69483 0.77331 0.0
C984 C 0.81636 0.67154 0.81088 0.0
C985 C 0.83078 0.66715 0.83596 0.0
C986 C 0.88512 0.73752 0.77587 0.0
C987 C 0.84845 0.70778 0.79831 0.0
C988 C 0.89299 0.7546 0.7537 0.0
C989 C 0.87307 0.76406 0.7344 0.0
C990 C 0.85724 0.72956 0.77843 0.0
C991 C 0.84509 0.75763 0.73934 0.0
C992 C 0.82494 0.69179 0.79229 0.0
C993 C 0.85486 0.68294 0.84089 0.0
N994 N 0.83811 0.74038 0.76053 0.0
N995 N 0.86303 0.70264 0.82215 0.0
H996 H 0.6031 0.63312 0.08513 0.0
H997 H 0.46562 0.60491 0.01013 0.0
H998 H 0.5364 0.59044 0.12669 0.0
H999 H 0.50898 0.68173 0.99427 0.0
H1000 H 0.49039 0.60082 0.05445 0.0
H1001 H 0.56895 0.65459 0.05367 0.0
C1002 C 0.58115 0.62944 0.08851 0.0
C1003 C 0.5724 0.61023 0.10853 0.0
C1004 C 0.49398 0.61893 0.04157 0.0
C1005 C 0.53364 0.63331 0.07203 0.0
C1006 C 0.47988 0.62121 0.01627 0.0
C1007 C 0.4853 0.64361 -0.00152 0.0
C1008 C 0.51428 0.63872 0.04867 0.0
C1009 C 0.50409 0.66414 0.00742 0.0
C1010 C 0.56169 0.64139 0.07039 0.0
C1011 C 0.54382 0.60536 0.11156 0.0
N1012 N 0.51845 0.66086 0.03158 0.0
N1013 N 0.5255 0.61621 0.09303 0.0
H1014 H 0.64038 0.27488 0.36703 0.0
H1015 H 0.5679 0.28916 0.21843 0.0
H1016 H 0.6193 0.35469 0.33221 0.0
H1017 H 0.62592 0.22505 0.24227 0.0
H1018 H 0.57169 0.30916 0.26545 0.0
H1019 H 0.61763 0.25219 0.32773 0.0
C1020 C 0.6299 0.2876 0.35164 0.0
C1021 C 0.63187 0.31665 0.35266 0.0
C1022 C 0.58317 0.29047 0.2604 0.0
C1023 C 0.60663 0.29088 0.30729 0.0
C1024 C 0.58102 0.27905 0.23371 0.0
C1025 C 0.59688 0.25561 0.22649 0.0
C1026 C 0.6007 0.27786 0.28005 0.0
C1027 C 0.61363 0.24333 0.24692 0.0
C1028 C 0.61724 0.27466 0.32908 0.0
C1029 C 0.61812 0.33223 0.33216 0.0
N1030 N 0.6151 0.2546 0.27275 0.0
N1031 N 0.60655 0.31912 0.30984 0.0
H1032 H 0.52083 0.46317 0.1727 0.0
H1033 H 0.39886 0.45331 0.0607 0.0
H1034 H 0.51525 0.51273 0.098 0.0
H1035 H 0.40931 0.39342 0.12664 0.0
H1036 H 0.43571 0.48143 0.08083 0.0
H1037 H 0.4752 0.44329 0.16216 0.0
C1038 C 0.50989 0.47016 0.15428 0.0
C1039 C 0.52209 0.4894 0.13598 0.0
C1040 C 0.42983 0.46233 0.09117 0.0
C1041 C 0.46989 0.46677 0.12395 0.0
C1042 C 0.40873 0.4463 0.07973 0.0
C1043 C 0.4014 0.42082 0.09183 0.0
C1044 C 0.44407 0.45271 0.11475 0.0
C1045 C 0.41449 0.41291 0.11666 0.0
C1046 C 0.48387 0.45874 0.14829 0.0
C1047 C 0.50689 0.4977 0.1125 0.0
N1048 N 0.43563 0.4286 0.12711 0.0
N1049 N 0.48171 0.48621 0.1071 0.0
H1050 H 0.03431 0.05495 0.81633 0.0
H1051 H 0.88687 0.02904 0.88746 0.0
H1052 H 0.01688 0.99259 0.87833 0.0
H1053 H 0.91309 0.1116 0.8646 0.0
H1054 H 0.92958 0.01035 0.86758 0.0
H1055 H 0.98582 0.07135 0.82003 0.0
C1056 C 0.02022 0.04459 0.83048 0.0
C1057 C 0.02958 0.02265 0.84734 0.0
C1058 C 0.92568 0.03249 0.86628 0.0
C1059 C 0.97442 0.04057 0.85093 0.0
C1060 C 0.90121 0.04315 0.87736 0.0
C1061 C 0.89666 0.07193 0.87802 0.0
C1062 C 0.94582 0.05072 0.8558 0.0
C1063 C 0.91586 0.08927 0.86454 0.0
C1064 C 0.99269 0.05392 0.83254 0.0
C1065 C 0.01059 0.00985 0.86529 0.0
N1066 N 0.94002 0.07844 0.85443 0.0
N1067 N 0.98394 0.01894 0.86654 0.0
H1068 H 0.2175 0.64302 0.14591 0.0
H1069 H 0.19478 0.78492 0.06386 0.0
H1070 H 0.1355 0.66694 0.1185 0.0
H1071 H 0.25181 0.77331 0.13223 0.0
H1072 H 0.17786 0.73704 0.07075 0.0
H1073 H 0.23628 0.68517 0.12496 0.0
C1074 C 0.20358 0.65672 0.13463 0.0
C1075 C 0.17486 0.65179 0.1343 0.0
C1076 C 0.19416 0.74509 0.08404 0.0
C1077 C 0.19615 0.70017 0.1108 0.0
C1078 C 0.20375 0.77228 0.08021 0.0
C1079 C 0.22449 0.78308 0.09774 0.0
C1080 C 0.20609 0.72855 0.10489 0.0
C1081 C 0.23554 0.76592 0.11853 0.0
C1082 C 0.21427 0.68085 0.12294 0.0
C1083 C 0.15777 0.67008 0.11925 0.0
N1084 N 0.22632 0.73947 0.12141 0.0
N1085 N 0.16862 0.69392 0.1085 0.0
H1086 H 0.45871 0.96018 0.37369 0.0
H1087 H 0.61728 0.96455 0.38668 0.0
H1088 H 0.50197 0.02442 0.32867 0.0
H1089 H 0.57504 0.88632 0.37675 0.0
H1090 H 0.57735 0.98833 0.36554 0.0
H1091 H 0.50208 0.934 0.37739 0.0
C1092 C 0.47746 0.96883 0.36473 0.0
C1093 C 0.47696 0.99465 0.35123 0.0
C1094 C 0.57725 0.96588 0.36706 0.0
C1095 C 0.5266 0.9648 0.35539 0.0
C1096 C 0.60007 0.9523 0.37889 0.0
C1097 C 0.59944 0.92346 0.38312 0.0
C1098 C 0.55338 0.95053 0.36049 0.0
C1099 C 0.57642 0.90853 0.37342 0.0
C1100 C 0.50208 0.95371 0.3665 0.0
C1101 C 0.50167 0.00466 0.33944 0.0
N1102 N 0.55391 0.92233 0.36326 0.0
N1103 N 0.52575 0.98995 0.34228 0.0
H1104 H 0.35653 0.33108 0.62283 0.0
H1105 H 0.23507 0.22395 0.64014 0.0
H1106 H 0.27773 0.35239 0.65976 0.0
H1107 H 0.2918 0.2163 0.57112 0.0
H1108 H 0.25283 0.27065 0.64888 0.0
H1109 H 0.33493 0.28946 0.60244 0.0
C1110 C 0.33449 0.32759 0.62573 0.0
C1111 C 0.31892 0.34495 0.64323 0.0
C1112 C 0.26128 0.25884 0.63168 0.0
C1113 C 0.29455 0.29726 0.62102 0.0
C1114 C 0.25134 0.23208 0.62689 0.0
C1115 C 0.26205 0.21621 0.60496 0.0
C1116 C 0.28249 0.26966 0.6148 0.0
C1117 C 0.28296 0.22791 0.58824 0.0
C1118 C 0.32226 0.30371 0.61439 0.0
C1119 C 0.29053 0.3393 0.64666 0.0
N1120 N 0.29277 0.25386 0.5937 0.0
N1121 N 0.27941 0.31565 0.63621 0.0
H1122 H 0.99124 0.50086 0.66841 0.0
H1123 H 0.04915 0.60889 0.55925 0.0
H1124 H 0.95775 0.5116 0.58572 0.0
H1125 H 0.10472 0.57248 0.6198 0.0
H1126 H 0.01266 0.57786 0.57449 0.0
H1127 H 0.03131 0.5295 0.65528 0.0
C1128 C 0.99248 0.50887 0.64739 0.0
C1129 C 0.97092 0.50399 0.62818 0.0
C1130 C 0.0328 0.57661 0.58451 0.0
C1131 C 0.01629 0.53712 0.61343 0.0
C1132 C 0.05369 0.59449 0.57598 0.0
C1133 C 0.08029 0.59307 0.58798 0.0
C1134 C 0.03817 0.55718 0.6055 0.0
C1135 C 0.08456 0.57425 0.60994 0.0
C1136 C 0.01532 0.52521 0.64 0.0
C1137 C 0.97373 0.51479 0.60125 0.0
N1138 N 0.06367 0.55686 0.61799 0.0
N1139 N 0.99575 0.53116 0.59484 0.0
H1140 H 0.74936 0.7174 0.85633 0.0
H1141 H 0.63679 0.83175 0.88065 0.0
H1142 H 0.69967 0.71343 0.93089 0.0
H1143 H 0.71692 0.85012 0.84489 0.0
H1144 H 0.65582 0.78784 0.89876 0.0
H1145 H 0.73297 0.76484 0.84859 0.0
C1146 C 0.7348 0.72645 0.87093 0.0
C1147 C 0.72579 0.7115 0.89423 0.0
C1148 C 0.6693 0.80191 0.88751 0.0
C1149 C 0.70701 0.76571 0.88553 0.0
C1150 C 0.65857 0.82705 0.87742 0.0
C1151 C 0.6752 0.84438 0.86086 0.0
C1152 C 0.69657 0.79415 0.88054 0.0
C1153 C 0.70323 0.83714 0.85713 0.0
C1154 C 0.72572 0.7536 0.8667 0.0
C1155 C 0.70713 0.72435 0.91269 0.0
N1156 N 0.71284 0.8123 0.8663 0.0
N1157 N 0.69807 0.75072 0.9078 0.0
H1158 H 0.77291 0.25748 0.44233 0.0
H1159 H 0.7848 0.12654 0.34185 0.0
H1160 H 0.71946 0.24043 0.37235 0.0
H1161 H 0.85458 0.15944 0.38733 0.0
H1162 H 0.75392 0.15793 0.36704 0.0
H1163 H 0.79593 0.21246 0.43511 0.0
C1164 C 0.76543 0.24386 0.42603 0.0
C1165 C 0.74442 0.25267 0.40773 0.0
C1166 C 0.77586 0.1578 0.37212 0.0
C1167 C 0.77046 0.20143 0.39953 0.0
C1168 C 0.79343 0.13975 0.35795 0.0
C1169 C 0.82217 0.14061 0.36254 0.0
C1170 C 0.78719 0.17716 0.39071 0.0
C1171 C 0.83246 0.15817 0.38337 0.0
C1172 C 0.77869 0.21833 0.42184 0.0
C1173 C 0.73574 0.23447 0.38674 0.0
N1174 N 0.81499 0.17628 0.39638 0.0
N1175 N 0.74892 0.2098 0.3831 0.0
H1176 H 0.0475 0.5407 0.25516 0.0
H1177 H 0.08272 0.38758 0.28287 0.0
H1178 H 0.09539 0.49553 0.19452 0.0
H1179 H 0.00152 0.41948 0.30401 0.0
H1180 H 0.08832 0.42609 0.24989 0.0
H1181 H 0.02977 0.49653 0.27331 0.0
C1182 C 0.05345 0.52147 0.24507 0.0
C1183 C 0.07251 0.52164 0.22311 0.0
C1184 C 0.06904 0.42419 0.26133 0.0
C1185 C 0.05366 0.47117 0.2446 0.0
C1186 C 0.06585 0.40226 0.2802 0.0
C1187 C 0.04179 0.40041 0.29659 0.0
C1188 C 0.04834 0.44471 0.25939 0.0
C1189 C 0.02057 0.42008 0.29208 0.0
C1190 C 0.04351 0.4963 0.25549 0.0
C1191 C 0.08027 0.49618 0.21117 0.0
N1192 N 0.02462 0.44175 0.27445 0.0
N1193 N 0.07138 0.47186 0.22254 0.0
H1194 H 0.86383 0.8396 0.53659 0.0
H1195 H 0.71417 0.79372 0.49569 0.0
H1196 H 0.82718 0.76336 0.5664 0.0
H1197 H 0.76136 0.84932 0.44396 0.0
H1198 H 0.75729 0.77815 0.5177 0.0
H1199 H 0.82942 0.84058 0.49891 0.0
C1200 C 0.84903 0.82275 0.5349 0.0
C1201 C 0.84813 0.80171 0.55514 0.0
C1202 C 0.75845 0.79306 0.50087 0.0
C1203 C 0.80844 0.8029 0.51229 0.0
C1204 C 0.73381 0.80163 0.48806 0.0
C1205 C 0.73433 0.82242 0.46769 0.0
C1206 C 0.78365 0.80618 0.494 0.0
C1207 C 0.76023 0.8328 0.45923 0.0
C1208 C 0.82934 0.82332 0.51338 0.0
C1209 C 0.82842 0.78037 0.55172 0.0
N1210 N 0.78382 0.82514 0.47293 0.0
N1211 N 0.80911 0.78182 0.53115 0.0
H1212 H 0.40891 0.50739 0.70233 0.0
H1213 H 0.46859 0.54571 0.85108 0.0
H1214 H 0.44615 0.44869 0.75876 0.0
H1215 H 0.43283 0.60613 0.79509 0.0
H1216 H 0.46924 0.51193 0.8134 0.0
H1217 H 0.42754 0.54553 0.73053 0.0
C1218 C 0.42232 0.50257 0.7198 0.0
C1219 C 0.42617 0.47493 0.72822 0.0
C1220 C 0.46149 0.53264 0.80919 0.0
C1221 C 0.44638 0.51822 0.76129 0.0
C1222 C 0.46096 0.55195 0.83081 0.0
C1223 C 0.45014 0.57871 0.82646 0.0
C1224 C 0.45079 0.53987 0.78296 0.0
C1225 C 0.44107 0.58567 0.79953 0.0
C1226 C 0.43252 0.52433 0.73623 0.0
C1227 C 0.44294 0.46976 0.7515 0.0
N1228 N 0.4412 0.56625 0.77892 0.0
N1229 N 0.45195 0.49117 0.76753 0.0
H1230 H 0.63567 0.16708 0.03661 0.0
H1231 H 0.79162 0.20374 0.99578 0.0
H1232 H 0.69208 0.21611 0.0863 0.0
H1233 H 0.73923 0.15153 0.94543 0.0
H1234 H 0.75112 0.21773 0.02285 0.0
H1235 H 0.66946 0.16826 -0.00165 0.0
C1236 C 0.65502 0.17819 0.03946 0.0
C1237 C 0.66122 0.19102 0.06497 0.0
C1238 C 0.74819 0.20382 0.00539 0.0
C1239 C 0.69972 0.19284 0.02118 0.0
C1240 C 0.77128 0.19627 0.98962 0.0
C1241 C 0.76866 0.17666 0.96828 0.0
C1242 C 0.7224 0.19106 0.00025 0.0
C1243 C 0.74197 0.16702 0.96153 0.0
C1244 C 0.67424 0.17897 0.01757 0.0
C1245 C 0.68653 0.20539 0.0673 0.0
N1246 N 0.71992 0.17376 0.97794 0.0
N1247 N 0.7048 0.20573 0.04585 0.0
H1248 H 0.53537 0.95542 0.75623 0.0
H1249 H 0.57888 0.10898 0.71567 0.0
H1250 H 0.59348 0.0034 0.80447 0.0
H1251 H 0.51654 0.06048 0.67311 0.0
H1252 H 0.57888 0.07452 0.75346 0.0
H1253 H 0.5209 0.99767 0.73216 0.0
C1254 C 0.54412 0.97516 0.76264 0.0
C1255 C 0.5654 0.97604 0.7825 0.0
C1256 C 0.56494 0.0717 0.73599 0.0
C1257 C 0.55041 0.02431 0.75377 0.0
C1258 C 0.56499 0.09133 0.71439 0.0
C1259 C 0.54815 0.08735 0.69084 0.0
C1260 C 0.54786 0.04804 0.73401 0.0
C1261 C 0.53039 0.06418 0.69047 0.0
C1262 C 0.53624 -0.00073 0.74857 0.0
C1263 C 0.57666 0.002 0.78954 0.0
N1264 N 0.53093 0.04538 0.71149 0.0
N1265 N 0.56958 0.02505 0.77467 0.0
H1266 H 0.2253 0.33618 0.06677 0.0
H1267 H 0.19069 0.28232 0.91705 0.0
H1268 H 0.28014 0.28479 0.01844 0.0
H1269 H 0.12972 0.32253 0.96907 0.0
H1270 H 0.22049 0.27601 0.9574 0.0
H1271 H 0.18651 0.32213 0.03714 0.0
C1272 C 0.22883 0.32047 0.05102 0.0
C1273 C 0.25601 0.31183 0.04485 0.0
C1274 C 0.20052 0.286 0.96019 0.0
C1275 C 0.21212 0.29685 0.00988 0.0
C1276 C 0.18356 0.28993 0.93701 0.0
C1277 C 0.15788 0.30359 0.9395 0.0
C1278 C 0.19212 0.29619 0.98621 0.0
C1279 C 0.14951 0.31225 0.9661 0.0
C1280 C 0.20676 0.31296 0.03363 0.0
C1281 C 0.2595 0.29194 0.02388 0.0
N1282 N 0.1668 0.30884 0.98835 0.0
N1283 N 0.23803 0.28586 0.00652 0.0
H1284 H 0.91908 0.9889 0.30138 0.0
H1285 H 0.97427 0.94755 0.15181 0.0
H1286 H 0.95677 0.04579 0.24364 0.0
H1287 H 0.93117 0.89079 0.20627 0.0
H1288 H 0.97814 0.98052 0.18989 0.0
H1289 H 0.93516 0.94992 0.27289 0.0
C1290 C 0.93223 0.9931 0.28359 0.0
C1291 C 0.93679 0.02055 0.27489 0.0
C1292 C 0.96803 0.96079 0.19368 0.0
C1293 C 0.95401 0.97628 0.24145 0.0
C1294 C 0.96562 0.94194 0.17182 0.0
C1295 C 0.95179 0.91651 0.17559 0.0
C1296 C 0.95631 0.95448 0.21963 0.0
C1297 C 0.94166 0.91027 0.20227 0.0
C1298 C 0.94088 0.97086 0.26697 0.0
C1299 C 0.95311 0.02491 0.25119 0.0
N1300 N 0.94375 0.9293 0.22316 0.0
N1301 N 0.96059 0.00305 0.23495 0.0
H1302 H 0.22392 0.70525 0.52895 0.0
H1303 H 0.33512 0.73624 0.44505 0.0
H1304 H 0.27305 0.6375 0.5607 0.0
H1305 H 0.36101 0.65243 0.46366 0.0
H1306 H 0.30441 0.73536 0.48515 0.0
H1307 H 0.26429 0.72206 0.50355 0.0
C1308 C 0.24371 0.69487 0.53186 0.0
C1309 C 0.2452 0.67003 0.54696 0.0
C1310 C 0.31657 0.71704 0.48055 0.0
C1311 C 0.29167 0.6885 0.51723 0.0
C1312 C 0.3344 0.7176 0.45768 0.0
C1313 C 0.35024 0.69409 0.45053 0.0
C1314 C 0.31409 0.69257 0.49626 0.0
C1315 C 0.34898 0.6709 0.46814 0.0
C1316 C 0.2669 0.70425 0.517 0.0
C1317 C 0.27114 0.65682 0.5493 0.0
N1318 N 0.33087 0.67058 0.48991 0.0
N1319 N 0.29312 0.66579 0.53405 0.0
H1320 H 0.18713 0.10556 0.47058 0.0
H1321 H 0.32485 0.02406 0.43413 0.0
H1322 H 0.22744 0.04855 0.52669 0.0
H1323 H 0.28224 0.07823 0.37652 0.0
H1324 H 0.28463 0.02564 0.46475 0.0
H1325 H 0.21516 0.0874 0.43239 0.0
C1326 C 0.20103 0.08827 0.47455 0.0
C1327 C 0.20503 0.0785 0.50176 0.0
C1328 C 0.28388 0.03694 0.44528 0.0
C1329 C 0.23824 0.05858 0.45851 0.0
C1330 C 0.30697 0.03621 0.42779 0.0
C1331 C 0.30723 0.05151 0.40287 0.0
C1332 C 0.26082 0.05331 0.43807 0.0
C1333 C 0.28317 0.06639 0.39564 0.0
C1334 C 0.21735 0.07818 0.45282 0.0
C1335 C 0.22358 0.05644 0.50594 0.0
N1336 N 0.26112 0.06723 0.41334 0.0
N1337 N 0.24005 0.04769 0.48467 0.0
H1338 H 0.14667 0.9474 0.74003 0.0
H1339 H 0.24485 0.04828 0.65306 0.0
H1340 H 0.21203 0.99701 0.77579 0.0
H1341 H 0.15758 0.03769 0.63479 0.0
H1342 H 0.24108 0.01345 0.6896 0.0
H1343 H 0.15959 0.96451 0.69365 0.0
C1344 C 0.1647 0.96072 0.73793 0.0
C1345 C 0.17859 0.97062 0.76162 0.0
C1346 C 0.22294 0.01834 0.67717 0.0
C1347 C 0.19309 0.99041 0.70901 0.0
C1348 C 0.22496 0.03826 0.65625 0.0
C1349 C 0.20127 0.04658 0.64118 0.0
C1350 C 0.19715 0.00626 0.68295 0.0
C1351 C 0.17629 0.03229 0.64608 0.0
C1352 C 0.17172 0.97077 0.71157 0.0
C1353 C 0.20111 0.98865 0.75796 0.0
N1354 N 0.17477 0.01308 0.66687 0.0
N1355 N 0.20755 -0.00185 0.73214 0.0
H1356 H 0.17402 0.98017 0.93643 0.0
H1357 H 0.31176 0.89842 0.97481 0.0
H1358 H 0.21508 0.92301 0.88076 0.0
H1359 H 0.26817 0.95233 0.03133 0.0
H1360 H 0.28398 0.91669 0.93637 0.0
H1361 H 0.21376 0.97796 0.96753 0.0
C1362 C 0.1914 0.96709 0.93065 0.0
C1363 C 0.19082 0.95125 0.90607 0.0
C1364 C 0.28106 0.92527 0.95698 0.0
C1365 C 0.23688 0.94888 0.94189 0.0
C1366 C 0.29732 0.91523 0.97886 0.0
C1367 C 0.2922 0.92388 0.00627 0.0
C1368 C 0.25932 0.94387 0.96266 0.0
C1369 C 0.27292 0.94528 0.01048 0.0
C1370 C 0.21427 0.96604 0.94844 0.0
C1371 C 0.21438 0.93528 0.8996 0.0
N1372 N 0.25664 0.95403 0.98902 0.0
N1373 N 0.23629 0.93423 0.91758 0.0
H1374 H 0.24916 0.94549 0.16257 0.0
H1375 H 0.29578 0.00422 0.28469 0.0
H1376 H 0.335 0.95671 0.13892 0.0
H1377 H 0.35265 0.05116 0.23414 0.0
H1378 H 0.27682 0.98279 0.2426 0.0
H1379 H 0.25503 0.98047 0.19873 0.0
C1380 C 0.26922 0.95547 0.16472 0.0
C1381 C 0.29186 0.94754 0.14799 0.0
C1382 C 0.2926 -0.00134 0.2405 0.0
C1383 C 0.29865 0.9875 0.18977 0.0
C1384 C 0.30328 0.01097 0.26455 0.0
C1385 C 0.32522 0.02992 0.26266 0.0
C1386 C 0.30462 0.00479 0.21454 0.0
C1387 C 0.3352 0.03712 0.23624 0.0
C1388 C 0.27252 0.97535 0.18555 0.0
C1389 C 0.31709 0.96177 0.15153 0.0
N1390 N 0.32529 0.02404 0.21321 0.0
N1391 N 0.31988 0.98087 0.17224 0.0
H1392 H 0.76375 0.43711 0.45993 0.0
H1393 H 0.80385 0.49404 0.58513 0.0
H1394 H 0.69846 0.39679 0.50594 0.0
H1395 H 0.78642 0.41026 0.61228 0.0
H1396 H 0.77341 0.48694 0.54516 0.0
H1397 H 0.78138 0.45702 0.50348 0.0
C1398 C 0.75261 0.43329 0.47912 0.0
C1399 C 0.72935 0.41585 0.47941 0.0
C1400 C 0.77594 0.47033 0.56017 0.0
C1401 C 0.7499 0.43747 0.52925 0.0
C1402 C 0.79317 0.47433 0.58316 0.0
C1403 C 0.79835 0.45244 0.60191 0.0
C1404 C 0.76345 0.4444 0.55599 0.0
C1405 C 0.78344 0.42759 0.59824 0.0
C1406 C 0.76265 0.44456 0.50393 0.0
C1407 C 0.7161 0.41072 0.5049 0.0
N1408 N 0.76689 0.42412 0.57549 0.0
N1409 N 0.727 0.42089 0.52898 0.0
H1410 H 0.79823 0.47096 0.72441 0.0
H1411 H 0.83676 0.53382 0.87163 0.0
H1412 H 0.86981 0.44632 0.7724 0.0
H1413 H 0.75839 0.54964 0.8307 0.0
H1414 H 0.84563 0.4963 0.83867 0.0
H1415 H 0.77902 0.49359 0.76599 0.0
C1416 C 0.80934 0.46938 0.74396 0.0
C1417 C 0.83569 0.45699 0.74502 0.0
C1418 C 0.82628 0.5077 0.83712 0.0
C1419 C 0.81446 0.48343 0.79226 0.0
C1420 C 0.82123 0.5292 0.85598 0.0
C1421 C 0.797 0.54529 0.85377 0.0
C1422 C 0.80718 0.50243 0.81556 0.0
C1423 C 0.77753 0.53805 0.83312 0.0
C1424 C 0.79858 0.48257 0.76762 0.0
C1425 C 0.8495 0.4559 0.77073 0.0
N1426 N 0.78325 0.51751 0.81456 0.0
N1427 N 0.83899 0.46937 0.79315 0.0
H1428 H 0.6786 0.51747 0.06543 0.0
H1429 H 0.81278 0.60279 0.0241 0.0
H1430 H 0.71477 0.58152 0.11683 0.0
H1431 H 0.77286 0.543 0.97089 0.0
H1432 H 0.78563 0.58563 0.0634 0.0
H1433 H 0.7194 0.5186 0.03578 0.0
C1434 C 0.69515 0.53182 0.07058 0.0
C1435 C 0.69285 0.54993 0.09343 0.0
C1436 C 0.78346 0.57553 0.04339 0.0
C1437 C 0.7401 0.5511 0.05929 0.0
C1438 C 0.79941 0.58493 0.02106 0.0
C1439 C 0.79497 0.57432 0.99421 0.0
C1440 C 0.76277 0.55554 0.03872 0.0
C1441 C 0.77703 0.55161 0.99127 0.0
C1442 C 0.71862 0.53226 0.05366 0.0
C1443 C 0.71541 0.56747 0.09927 0.0
N1444 N 0.76099 0.54347 0.01309 0.0
N1445 N 0.73792 0.5679 0.08207 0.0
H1446 H 0.7257 0.39698 0.30764 0.0
H1447 H 0.66253 0.54246 0.26016 0.0
H1448 H 0.67927 0.45094 0.36226 0.0
H1449 H 0.69951 0.48263 0.20493 0.0
H1450 H 0.67936 0.5154 0.30005 0.0
H1451 H 0.72595 0.43336 0.27256 0.0
C1452 C 0.7156 0.41653 0.31237 0.0
C1453 C 0.70194 0.42061 0.33787 0.0
C1454 C 0.68465 0.50868 0.27923 0.0
C1455 C 0.70225 0.46268 0.29742 0.0
C1456 C 0.67551 0.52442 0.25648 0.0
C1457 C 0.68002 0.51489 0.22929 0.0
C1458 C 0.6982 0.48321 0.2746 0.0
C1459 C 0.69601 0.49085 0.22559 0.0
C1460 C 0.71589 0.43741 0.29228 0.0
C1461 C 0.68977 0.4467 0.34283 0.0
N1462 N 0.70416 0.47561 0.24796 0.0
N1463 N 0.68989 0.46661 0.32265 0.0
H1464 H 0.49365 0.19215 0.10299 0.0
H1465 H 0.41563 0.30474 0.00927 0.0
H1466 H 0.53347 0.2435 0.04146 0.0
H1467 H 0.38814 0.28353 0.09205 0.0
H1468 H 0.45197 0.26981 0.0128 0.0
H1469 H 0.44864 0.21303 0.0905 0.0
C1470 C 0.49268 0.20682 0.08591 0.0
C1471 C 0.51715 0.21593 0.07291 0.0
C1472 C 0.43777 0.27252 0.03006 0.0
C1473 C 0.46614 0.24009 0.05899 0.0
C1474 C 0.41698 0.29253 0.02816 0.0
C1475 C 0.39911 0.29764 0.05072 0.0
C1476 C 0.44087 0.25723 0.05464 0.0
C1477 C 0.40161 0.28056 0.07429 0.0
C1478 C 0.46712 0.21903 0.07916 0.0
C1479 C 0.515 0.2357 0.05166 0.0
N1480 N 0.42244 0.26132 0.07582 0.0
N1481 N 0.48997 0.24724 0.04546 0.0
H1482 H 0.99554 0.29835 0.91315 0.0
H1483 H 0.88407 0.20676 0.92196 0.0
H1484 H 0.04484 0.22711 0.93601 0.0
H1485 H 0.94209 0.15009 0.96052 0.0
H1486 H 0.92004 0.24237 0.92145 0.0
H1487 H 0.95364 0.27329 0.92728 0.0
C1488 C 0.99758 0.27775 0.92201 0.0
C1489 C 0.0236 0.26464 0.92319 0.0
C1490 C 0.92489 0.22243 0.93058 0.0
C1491 C 0.97576 0.23517 0.93804 0.0
C1492 C 0.90428 0.2019 0.93062 0.0
C1493 C 0.91009 0.17517 0.94089 0.0
C1494 C 0.95154 0.21622 0.94103 0.0
C1495 C 0.93665 0.17019 0.95196 0.0
C1496 C 0.97354 0.26311 0.9295 0.0
C1497 C 0.02511 0.23785 0.93455 0.0
N1498 N 0.95633 0.19036 0.95149 0.0
N1499 N 0.00154 0.22392 0.94115 0.0
H1500 H 0.95149 0.75418 0.16247 0.0
H1501 H 0.03969 0.63991 0.1764 0.0
H1502 H 0.02743 0.80074 0.17147 0.0
H1503 H 0.09696 0.69726 0.21493 0.0
H1504 H 0.00591 0.67769 0.1719 0.0
H1505 H 0.97532 0.71289 0.18073 0.0
C1506 C 0.97294 0.75589 0.16911 0.0
C1507 C 0.98761 0.7808 0.16534 0.0
C1508 C 0.02556 0.68187 0.182 0.0
C1509 C 0.0153 0.73358 0.18508 0.0
C1510 C 0.04501 0.66028 0.18433 0.0
C1511 C 0.07143 0.66539 0.19569 0.0
C1512 C 0.03264 0.70876 0.19111 0.0
C1513 C 0.07708 0.69227 0.20564 0.0
C1514 C 0.98672 0.73217 0.17897 0.0
C1515 C 0.01544 0.78186 0.17392 0.0
N1516 N 0.05806 0.7129 0.20277 0.0
N1517 N 0.02841 0.75856 0.18314 0.0
H1518 H 0.46503 0.7292 0.4526 0.0
H1519 H 0.55913 0.83529 0.46914 0.0
H1520 H 0.51868 0.70337 0.38582 0.0
H1521 H 0.61657 0.78655 0.42045 0.0
H1522 H 0.52597 0.79754 0.46726 0.0
H1523 H 0.50285 0.75777 0.47123 0.0
C1524 C 0.48512 0.72882 0.44246 0.0
C1525 C 0.4888 0.71406 0.41764 0.0
C1526 C 0.54599 0.79455 0.45756 0.0
C1527 C 0.53157 0.74811 0.4375 0.0
C1528 C 0.56496 0.81646 0.45828 0.0
C1529 C 0.5907 0.81437 0.44461 0.0
C1530 C 0.55261 0.77014 0.44298 0.0
C1531 C 0.59698 0.78926 0.43114 0.0
C1532 C 0.50656 0.74573 0.45263 0.0
C1533 C 0.51507 0.71457 0.40502 0.0
N1534 N 0.57792 0.76833 0.43034 0.0
N1535 N 0.53527 0.73166 0.4148 0.0
H1536 H 0.48948 0.20199 0.70254 0.0
H1537 H 0.45831 0.36136 0.67605 0.0
H1538 H 0.54655 0.25578 0.65962 0.0
H1539 H 0.40798 0.30747 0.72711 0.0
H1540 H 0.49478 0.32559 0.67569 0.0
H1541 H 0.46438 0.2427 0.71943 0.0
C1542 C 0.49743 0.22251 0.69778 0.0
C1543 C 0.52023 0.22565 0.68003 0.0
C1544 C 0.47586 0.32181 0.68726 0.0
C1545 C 0.49063 0.27238 0.69761 0.0
C1546 C 0.45501 0.34219 0.68738 0.0
C1547 C 0.42974 0.33721 0.70109 0.0
C1548 C 0.47138 0.29636 0.70097 0.0
C1549 C 0.42678 0.31207 0.71568 0.0
C1550 C 0.48287 0.2458 0.70701 0.0
C1551 C 0.52928 0.25262 0.6737 0.0
N1552 N 0.44714 0.29259 0.71498 0.0
N1553 N 0.51405 0.27501 0.68191 0.0
H1554 H 0.97194 0.78191 0.55334 0.0
H1555 H 0.09167 0.71301 0.51002 0.0
H1556 H 0.01607 0.79602 0.6301 0.0
H1557 H 0.11182 0.71187 0.59754 0.0
H1558 H 0.05607 0.74782 0.519 0.0
H1559 H 0.01384 0.76036 0.53401 0.0
C1560 C 0.99074 0.78129 0.56574 0.0
C1561 C 0.9905 0.79047 0.59339 0.0
C1562 C 0.06815 0.74002 0.5363 0.0
C1563 C 0.03864 0.76592 0.57164 0.0
C1564 C 0.08885 0.72027 0.53114 0.0
C1565 C 0.10453 0.70895 0.55316 0.0
C1566 C 0.06293 0.74848 0.56374 0.0
C1567 C 0.10014 0.71966 0.57992 0.0
C1568 C 0.01478 0.76892 0.55476 0.0
C1569 C 0.01529 0.78885 0.60876 0.0
N1570 N 0.07957 0.73853 0.58446 0.0
N1571 N 0.03812 0.77646 0.59786 0.0
H1572 H 0.45293 0.74497 0.84568 0.0
H1573 H 0.59651 0.80069 0.78372 0.0
H1574 H 0.52267 0.69331 0.82359 0.0
H1575 H 0.53885 0.85366 0.82761 0.0
H1576 H 0.56386 0.76249 0.78762 0.0
H1577 H 0.47826 0.78577 0.82813 0.0
C1578 C 0.47311 0.7421 0.83614 0.0
C1579 C 0.48578 0.71581 0.83593 0.0
C1580 C 0.55821 0.78249 0.79626 0.0
C1581 C 0.51488 0.76214 0.81641 0.0
C1582 C 0.57692 0.80441 0.79413 0.0
C1583 C 0.57074 0.83044 0.80585 0.0
C1584 C 0.53297 0.78636 0.81027 0.0
C1585 C 0.54467 0.83391 0.81855 0.0
C1586 C 0.48768 0.76539 0.82652 0.0
C1587 C 0.5122 0.71324 0.82403 0.0
N1588 N 0.52682 0.812 0.8207 0.0
N1589 N 0.52594 0.73611 0.81493 0.0
H1590 H 0.92019 0.19119 0.27631 0.0
H1591 H 0.06118 0.2283 0.35452 0.0
H1592 H 0.96455 0.13424 0.32981 0.0
H1593 H 0.01645 0.2863 0.30292 0.0
H1594 H 0.03123 0.1909 0.33785 0.0
H1595 H 0.95898 0.22359 0.27946 0.0
C1596 C 0.93812 0.18536 0.28865 0.0
C1597 C 0.93881 0.15994 0.30313 0.0
C1598 C 0.02834 0.21162 0.32955 0.0
C1599 C 0.98361 0.19719 0.30663 0.0
C1600 C 0.04573 0.23291 0.33876 0.0
C1601 C 0.04135 0.26038 0.32996 0.0
C1602 C 0.00605 0.21791 0.31175 0.0
C1603 C 0.02075 0.26534 0.30991 0.0
C1604 C 0.96036 0.20391 0.29031 0.0
C1605 C 0.96285 0.15362 0.31849 0.0
N1606 N 0.00345 0.2444 0.30192 0.0
N1607 N 0.98414 0.17219 0.32001 0.0
H1608 H 0.11461 0.26497 0.40648 0.0
H1609 H 0.16372 0.22574 0.55807 0.0
H1610 H 0.08555 0.31238 0.47679 0.0
H1611 H 0.14087 0.16294 0.49841 0.0
H1612 H 0.14358 0.2614 0.52746 0.0
H1613 H 0.13531 0.23112 0.43866 0.0
C1614 C 0.11336 0.26866 0.42867 0.0
C1615 C 0.09859 0.29146 0.43914 0.0
C1616 C 0.1427 0.23977 0.52132 0.0
C1617 C 0.12171 0.25298 0.47569 0.0
C1618 C 0.15392 0.21951 0.53876 0.0
C1619 C 0.15341 0.19152 0.53078 0.0
C1620 C 0.1319 0.23192 0.49541 0.0
C1621 C 0.14108 0.18433 0.5054 0.0
C1622 C 0.12472 0.24919 0.44693 0.0
C1623 C 0.09694 0.29505 0.46804 0.0
N1624 N 0.13113 0.20453 0.48832 0.0
N1625 N 0.10843 0.27598 0.48541 0.0
H1626 H 0.06852 0.9624 0.73787 0.0
H1627 H 0.95351 0.84353 0.72881 0.0
H1628 H 0.05808 0.89601 0.79746 0.0
H1629 H 0.97974 0.88886 0.6559 0.0
H1630 H 0.98581 0.87033 0.75676 0.0
H1631 H 0.03128 0.94189 0.70946 0.0
C1632 C 0.05846 0.94355 0.74494 0.0
C1633 C 0.06651 0.93079 0.76999 0.0
C1634 C 0.98446 0.87457 0.73467 0.0
C1635 C 0.0239 0.90777 0.73805 0.0
C1636 C 0.96595 0.85932 0.71869 0.0
C1637 C 0.96434 0.86362 0.68989 0.0
C1638 C 0.00163 0.89427 0.72186 0.0
C1639 C 0.98053 0.88479 0.67803 0.0
C1640 C 0.03728 0.93194 0.72877 0.0
C1641 C 0.05281 0.90645 0.77821 0.0
N1642 N -0.00114 0.8992 0.69407 0.0
N1643 N 0.03215 0.89584 0.76234 0.0
H1644 H 0.36743 0.70102 0.92935 0.0
H1645 H 0.37458 0.83524 0.02704 0.0
H1646 H 0.44181 0.75025 0.93961 0.0
H1647 H 0.30605 0.77728 0.02545 0.0
H1648 H 0.3994 0.80565 0.99393 0.0
H1649 H 0.34358 0.73134 0.96211 0.0
C1650 C 0.37868 0.71839 0.93821 0.0
C1651 C 0.40672 0.72298 0.9318 0.0
C1652 C 0.37899 0.7994 0.00101 0.0
C1653 C 0.37962 0.75756 0.96967 0.0
C1654 C 0.36489 0.81618 0.02003 0.0
C1655 C 0.3381 0.80887 0.0289 0.0
C1656 C 0.36611 0.77528 0.99078 0.0
C1657 C 0.32655 0.78394 0.01905 0.0
C1658 C 0.3651 0.73557 0.95712 0.0
C1659 C 0.42021 0.74581 0.94404 0.0
N1660 N 0.34053 0.76819 0.0004 0.0
N1661 N 0.40656 0.7622 0.96249 0.0
H1662 H 0.52539 0.1241 0.16072 0.0
H1663 H 0.42137 0.1366 0.28866 0.0
H1664 H 0.50245 0.20341 0.19593 0.0
H1665 H 0.43356 0.06224 0.23977 0.0
H1666 H 0.45021 0.16226 0.25534 0.0
H1667 H 0.49125 0.10161 0.19017 0.0
C1668 C 0.5131 0.13682 0.17465 0.0
C1669 C 0.5169 0.16564 0.17604 0.0
C1670 C 0.4463 0.14038 0.25191 0.0
C1671 C 0.47768 0.13995 0.21 0.0
C1672 C 0.4299 0.12573 0.27089 0.0
C1673 C 0.42535 0.09714 0.26723 0.0
C1674 C 0.45819 0.12623 0.22931 0.0
C1675 C 0.43679 0.08414 0.24376 0.0
C1676 C 0.49348 0.12396 0.19141 0.0
C1677 C 0.50014 0.1811 0.19425 0.0
N1678 N 0.45278 0.09873 0.22587 0.0
N1679 N 0.48136 0.168 0.2108 0.0
H1680 H 0.5517 0.25337 0.5654 0.0
H1681 H 0.69836 0.30575 0.50947 0.0
H1682 H 0.62962 0.21432 0.58741 0.0
H1683 H 0.61986 0.328 0.47174 0.0
H1684 H 0.67359 0.27809 0.54381 0.0
H1685 H 0.5768 0.28659 0.53687 0.0
C1686 C 0.57413 0.25183 0.56442 0.0
C1687 C 0.58856 0.23075 0.57867 0.0
C1688 C 0.66181 0.28916 0.52811 0.0
C1689 C 0.61736 0.26894 0.5459 0.0
C1690 C 0.67589 0.30506 0.5085 0.0
C1691 C 0.66117 0.31909 0.48746 0.0
C1692 C 0.63279 0.28737 0.52684 0.0
C1693 C 0.63207 0.31741 0.48741 0.0
C1694 C 0.58841 0.27083 0.54803 0.0
C1695 C 0.61763 0.23006 0.57665 0.0
N1696 N 0.61883 0.30171 0.50676 0.0
N1697 N 0.6311 0.24883 0.56043 0.0
H1698 H 0.90695 0.36407 0.72452 0.0
H1699 H 0.04231 0.37188 0.81841 0.0
H1700 H 0.97473 0.42121 0.71051 0.0
H1701 H 0.99677 0.29495 0.81036 0.0
H1702 H 0.01288 0.39242 0.78278 0.0
H1703 H 0.93607 0.33916 0.75845 0.0
C1704 C 0.928 0.37111 0.72819 0.0
C1705 C 0.93824 0.39502 0.71493 0.0
C1706 C 0.0093 0.37103 0.7888 0.0
C1707 C 0.97114 0.36714 0.75389 0.0
C1708 C 0.02593 0.35935 0.80937 0.0
C1709 C 0.02208 0.3316 0.81737 0.0
C1710 C 0.98839 0.35504 0.77626 0.0
C1711 C 0.00055 0.31639 0.80471 0.0
C1712 C 0.94451 0.35699 0.74762 0.0
C1713 C 0.9657 0.40319 0.72051 0.0
N1714 N 0.9844 0.32834 0.78475 0.0
N1715 N 0.981 0.38952 0.73978 0.0
H1716 H 0.86857 0.79202 0.07337 0.0
H1717 H 0.87635 0.66345 0.96836 0.0
H1718 H 0.94424 0.7465 0.0569 0.0
H1719 H 0.80489 0.71715 0.97731 0.0
H1720 H 0.90146 0.6924 0.00177 0.0
H1721 H 0.84416 0.76222 0.04052 0.0
C1722 C 0.88001 0.77555 0.06314 0.0
C1723 C 0.90856 0.77188 0.06784 0.0
C1724 C 0.88033 0.69787 0.99626 0.0
C1725 C 0.88076 0.73792 0.02985 0.0
C1726 C 0.86603 0.68146 0.97706 0.0
C1727 C 0.83839 0.68775 0.97009 0.0
C1728 C 0.86683 0.72062 0.00861 0.0
C1729 C 0.82609 0.71134 0.98212 0.0
C1730 C 0.86609 0.75867 0.04419 0.0
C1731 C 0.92225 0.7502 0.05385 0.0
N1732 N 0.84034 0.72678 0.00089 0.0
N1733 N 0.90824 0.73411 0.03539 0.0
H1734 H 0.47832 0.68135 0.28301 0.0
H1735 H 0.55136 0.5367 0.25007 0.0
H1736 H 0.46936 0.61054 0.3376 0.0
H1737 H 0.57714 0.61547 0.21558 0.0
H1738 H 0.51813 0.56135 0.27979 0.0
H1739 H 0.51064 0.65505 0.25484 0.0
C1740 C 0.48301 0.66018 0.2891 0.0
C1741 C 0.47112 0.64823 0.31293 0.0
C1742 C 0.53122 0.57314 0.2658 0.0
C1743 C 0.50851 0.61791 0.28047 0.0
C1744 C 0.55015 0.55914 0.24881 0.0
C1745 C 0.56707 0.57403 0.23024 0.0
C1746 C 0.52899 0.60214 0.26388 0.0
C1747 C 0.56464 0.60307 0.22957 0.0
C1748 C 0.50166 0.64521 0.27298 0.0
C1749 C 0.47809 0.62063 0.3195 0.0
N1750 N 0.54584 0.61611 0.24599 0.0
N1751 N 0.49639 0.60634 0.30332 0.0
H1752 H 0.26926 0.45959 0.06036 0.0
H1753 H 0.17856 0.48878 0.19601 0.0
H1754 H 0.26872 0.40431 0.13111 0.0
H1755 H 0.17719 0.53965 0.12194 0.0
H1756 H 0.21198 0.4579 0.17359 0.0
H1757 H 0.23726 0.49021 0.08433 0.0
C1758 C 0.2625 0.45396 0.0811 0.0
C1759 C 0.27142 0.4292 0.09368 0.0
C1760 C 0.20425 0.47575 0.16225 0.0
C1761 C 0.23442 0.46423 0.12124 0.0
C1762 C 0.18507 0.49336 0.17495 0.0
C1763 C 0.17507 0.51695 0.16085 0.0
C1764 C 0.21354 0.48182 0.13531 0.0
C1765 C 0.18426 0.52176 0.13363 0.0
C1766 C 0.24413 0.47147 0.09475 0.0
C1767 C 0.26232 0.42321 0.12071 0.0
N1768 N 0.20306 0.50442 0.12182 0.0
N1769 N 0.24405 0.44055 0.13357 0.0
H1770 H 0.74043 0.05908 0.94567 0.0
H1771 H 0.68178 0.00423 0.80001 0.0
H1772 H 0.77416 0.08332 0.86606 0.0
H1773 H 0.66167 0.96689 0.87919 0.0
H1774 H 0.71056 0.03834 0.82415 0.0
H1775 H 0.70626 0.03025 0.92169 0.0
C1776 C 0.74054 0.05856 0.92316 0.0
C1777 C 0.76039 0.07351 0.90788 0.0
C1778 C 0.69972 0.02275 0.83622 0.0
C1779 C 0.7213 0.04049 0.88034 0.0
C1780 C 0.68321 0.00329 0.82247 0.0
C1781 C 0.66943 0.98247 0.83756 0.0
C1782 C 0.70236 0.02151 0.86527 0.0
C1783 C 0.67208 0.98238 0.86665 0.0
C1784 C 0.72106 0.042 0.90949 0.0
C1785 C 0.75944 0.07198 0.87872 0.0
N1786 N 0.6883 0.00154 0.87954 0.0
N1787 N 0.74029 0.05568 0.86591 0.0
H1788 H 0.80464 0.9975 0.29767 0.0
H1789 H 0.75503 0.94242 0.44643 0.0
H1790 H 0.8398 0.02581 0.37538 0.0
H1791 H 0.71693 0.91851 0.36862 0.0
H1792 H 0.78821 0.97084 0.42075 0.0
H1793 H 0.77451 0.96609 0.32338 0.0
C1794 C 0.80616 0.99707 0.32014 0.0
C1795 C 0.82476 0.01451 0.33436 0.0
C1796 C 0.77262 0.95931 0.40931 0.0
C1797 C 0.79011 0.97849 0.36397 0.0
C1798 C 0.75364 0.94305 0.42396 0.0
C1799 C 0.73301 0.92809 0.4097 0.0
C1800 C 0.77102 0.96063 0.38019 0.0
C1801 C 0.73235 0.92973 0.38055 0.0
C1802 C 0.78888 0.9791 0.33482 0.0
C1803 C 0.82576 0.01285 0.36351 0.0
N1804 N 0.75103 0.94575 0.36679 0.0
N1805 N 0.80859 0.99524 0.37735 0.0
H1806 H 0.31617 0.45405 0.62285 0.0
H1807 H 0.21725 0.58761 0.63039 0.0
H1808 H 0.31115 0.50813 0.69438 0.0
H1809 H 0.21786 0.52954 0.56187 0.0
H1810 H 0.25125 0.55856 0.65452 0.0
H1811 H 0.28099 0.48239 0.59968 0.0
C1812 C 0.30793 0.47204 0.63358 0.0
C1813 C 0.31664 0.47865 0.66064 0.0
C1814 C 0.24377 0.55211 0.63428 0.0
C1815 C 0.27604 0.51096 0.63437 0.0
C1816 C 0.22421 0.5686 0.62056 0.0
C1817 C 0.21478 0.56116 0.59394 0.0
C1818 C 0.25404 0.52807 0.62127 0.0
C1819 C 0.22463 0.53627 0.58226 0.0
C1820 C 0.28766 0.48809 0.62042 0.0
C1821 C 0.30505 0.50215 0.67355 0.0
N1822 N 0.24385 0.52076 0.5959 0.0
N1823 N 0.2853 0.5174 0.66032 0.0
loop_
_geom_bond_atom_site_label_1
_geom_bond_atom_site_label_2
_geom_bond_distance
_geom_bond_site_symmetry_2
_ccdc_geom_bond_type
Sc0 O3 2.025 . S
Sc0 O10 2.105 1_455 S
Sc0 O13 2.105 . S
Sc0 O16 2.105 . S
Sc0 O19 2.105 . S
Sc1 O3 2.025 . S
Sc1 O11 2.105 . S
Sc1 O15 2.105 . S
Sc1 O17 2.105 . S
Sc1 O21 2.105 . S
Sc2 O3 2.025 . S
Sc2 O12 2.105 . S
Sc2 O14 2.105 . S
Sc2 O18 2.105 . S
Sc2 O20 2.105 1_455 S
O3 Sc0 2.025 . S
O3 Sc1 2.025 . S
O3 Sc2 2.025 . S
C4 O10 1.268 . S
C4 O20 1.268 . S
C5 O11 1.268 . S
C5 O19 1.268 . S
C6 O12 1.268 . S
C6 O21 1.268 . S
C7 O13 1.268 . S
C7 O17 1.268 . S
C8 O14 1.268 . S
C8 O16 1.268 . S
C9 O15 1.268 . S
C9 O18 1.268 . S
O10 Sc0 2.105 1_655 S
O10 C4 1.268 . S
O11 Sc1 2.105 . S
O11 C5 1.268 . S
O12 Sc2 2.105 . S
O12 C6 1.268 . S
O13 Sc0 2.105 . S
O13 C7 1.268 . S
O14 Sc2 2.105 . S
O14 C8 1.268 . S
O15 Sc1 2.105 . S
O15 C9 1.268 . S
O16 Sc0 2.105 . S
O16 C8 1.268 . S
O17 Sc1 2.105 . S
O17 C7 1.268 . S
O18 Sc2 2.105 . S
O18 C9 1.268 . S
O19 Sc0 2.105 . S
O19 C5 1.268 . S
O20 Sc2 2.105 1_655 S
O20 C4 1.268 . S
O21 Sc1 2.105 . S
O21 C6 1.268 . S
Sc22 O25 2.025 . S
Sc22 O32 2.105 . S
Sc22 O35 2.105 . S
Sc22 O38 2.105 . S
Sc22 O41 2.105 . S
Sc23 O25 2.025 . S
Sc23 O33 2.105 . S
Sc23 O37 2.105 . S
Sc23 O39 2.105 . S
Sc23 O43 2.105 . S
Sc24 O25 2.025 . S
Sc24 O34 2.105 . S
Sc24 O36 2.105 . S
Sc24 O40 2.105 . S
Sc24 O42 2.105 . S
O25 Sc22 2.025 . S
O25 Sc23 2.025 . S
O25 Sc24 2.025 . S
C26 O32 1.268 . S
C26 O42 1.268 . S
C27 O33 1.268 . S
C27 O41 1.268 . S
C28 O34 1.268 . S
C28 O43 1.268 . S
C29 O35 1.268 . S
C29 O39 1.268 . S
C30 O36 1.268 . S
C30 O38 1.268 . S
C31 O37 1.268 . S
C31 O40 1.268 . S
O32 Sc22 2.105 . S
O32 C26 1.268 . S
O33 Sc23 2.105 . S
O33 C27 1.268 . S
O34 Sc24 2.105 . S
O34 C28 1.268 . S
O35 Sc22 2.105 . S
O35 C29 1.268 . S
O36 Sc24 2.105 . S
O36 C30 1.268 . S
O37 Sc23 2.105 . S
O37 C31 1.268 . S
O38 Sc22 2.105 . S
O38 C30 1.268 . S
O39 Sc23 2.105 . S
O39 C29 1.268 . S
O40 Sc24 2.105 . S
O40 C31 1.268 . S
O41 Sc22 2.105 . S
O41 C27 1.268 . S
O42 Sc24 2.105 . S
O42 C26 1.268 . S
O43 Sc23 2.105 . S
O43 C28 1.268 . S
Sc44 O47 2.025 . S
Sc44 O54 2.105 . S
Sc44 O57 2.105 . S
Sc44 O60 2.105 . S
Sc44 O63 2.105 . S
Sc45 O47 2.025 . S
Sc45 O55 2.105 . S
Sc45 O59 2.105 . S
Sc45 O61 2.105 . S
Sc45 O65 2.105 . S
Sc46 O47 2.025 . S
Sc46 O56 2.105 . S
Sc46 O58 2.105 . S
Sc46 O62 2.105 . S
Sc46 O64 2.105 . S
O47 Sc44 2.025 . S
O47 Sc45 2.025 . S
O47 Sc46 2.025 . S
C48 O54 1.268 . S
C48 O64 1.268 . S
C49 O55 1.268 . S
C49 O63 1.268 . S
C50 O56 1.268 . S
C50 O65 1.268 . S
C51 O57 1.268 . S
C51 O61 1.268 . S
C52 O58 1.268 . S
C52 O60 1.268 . S
C53 O59 1.268 . S
C53 O62 1.268 . S
O54 Sc44 2.105 . S
O54 C48 1.268 . S
O55 Sc45 2.105 . S
O55 C49 1.268 . S
O56 Sc46 2.105 . S
O56 C50 1.268 . S
O57 Sc44 2.105 . S
O57 C51 1.268 . S
O58 Sc46 2.105 . S
O58 C52 1.268 . S
O59 Sc45 2.105 . S
O59 C53 1.268 . S
O60 Sc44 2.105 . S
O60 C52 1.268 . S
O61 Sc45 2.105 . S
O61 C51 1.268 . S
O62 Sc46 2.105 . S
O62 C53 1.268 . S
O63 Sc44 2.105 . S
O63 C49 1.268 . S
O64 Sc46 2.105 . S
O64 C48 1.268 . S
O65 Sc45 2.105 . S
O65 C50 1.268 . S
Sc66 O69 2.025 . S
Sc66 O76 2.105 . S
Sc66 O79 2.105 . S
Sc66 O82 2.105 . S
Sc66 O85 2.105 . S
Sc67 O69 2.025 . S
Sc67 O77 2.105 . S
Sc67 O81 2.105 . S
Sc67 O83 2.105 . S
Sc67 O87 2.105 . S
Sc68 O69 2.025 . S
Sc68 O78 2.105 . S
Sc68 O80 2.105 . S
Sc68 O84 2.105 . S
Sc68 O86 2.105 . S
O69 Sc66 2.025 . S
O69 Sc67 2.025 . S
O69 Sc68 2.025 . S
C70 O76 1.268 . S
C70 O86 1.268 . S
C71 O77 1.268 . S
C71 O85 1.268 . S
C72 O78 1.268 . S
C72 O87 1.268 . S
C73 O79 1.268 . S
C73 O83 1.268 . S
C74 O80 1.268 . S
C74 O82 1.268 . S
C75 O81 1.268 . S
C75 O84 1.268 . S
O76 Sc66 2.105 . S
O76 C70 1.268 . S
O77 Sc67 2.105 . S
O77 C71 1.268 . S
O78 Sc68 2.105 . S
O78 C72 1.268 . S
O79 Sc66 2.105 . S
O79 C73 1.268 . S
O80 Sc68 2.105 . S
O80 C74 1.268 . S
O81 Sc67 2.105 . S
O81 C75 1.268 . S
O82 Sc66 2.105 . S
O82 C74 1.268 . S
O83 Sc67 2.105 . S
O83 C73 1.268 . S
O84 Sc68 2.105 . S
O84 C75 1.268 . S
O85 Sc66 2.105 . S
O85 C71 1.268 . S
O86 Sc68 2.105 . S
O86 C70 1.268 . S
O87 Sc67 2.105 . S
O87 C72 1.268 . S
Sc88 O91 2.025 . S
Sc88 O98 2.105 . S
Sc88 O101 2.105 . S
Sc88 O104 2.105 . S
Sc88 O107 2.105 . S
Sc89 O91 2.025 . S
Sc89 O99 2.105 . S
Sc89 O103 2.105 . S
Sc89 O105 2.105 . S
Sc89 O109 2.105 . S
Sc90 O91 2.025 . S
Sc90 O100 2.105 . S
Sc90 O102 2.105 . S
Sc90 O106 2.105 . S
Sc90 O108 2.105 . S
O91 Sc88 2.025 . S
O91 Sc89 2.025 . S
O91 Sc90 2.025 . S
C92 O98 1.268 . S
C92 O108 1.268 . S
C93 O99 1.268 . S
C93 O107 1.268 . S
C94 O100 1.268 . S
C94 O109 1.268 . S
C95 O101 1.268 . S
C95 O105 1.268 . S
C96 O102 1.268 . S
C96 O104 1.268 . S
C97 O103 1.268 . S
C97 O106 1.268 . S
O98 Sc88 2.105 . S
O98 C92 1.268 . S
O99 Sc89 2.105 . S
O99 C93 1.268 . S
O100 Sc90 2.105 . S
O100 C94 1.268 . S
O101 Sc88 2.105 . S
O101 C95 1.268 . S
O102 Sc90 2.105 . S
O102 C96 1.268 . S
O103 Sc89 2.105 . S
O103 C97 1.268 . S
O104 Sc88 2.105 . S
O104 C96 1.268 . S
O105 Sc89 2.105 . S
O105 C95 1.268 . S
O106 Sc90 2.105 . S
O106 C97 1.268 . S
O107 Sc88 2.105 . S
O107 C93 1.268 . S
O108 Sc90 2.105 . S
O108 C92 1.268 . S
O109 Sc89 2.105 . S
O109 C94 1.268 . S
Sc110 O113 2.025 . S
Sc110 O120 2.105 . S
Sc110 O123 2.105 . S
Sc110 O126 2.105 . S
Sc110 O129 2.105 . S
Sc111 O113 2.025 . S
Sc111 O121 2.105 . S
Sc111 O125 2.105 . S
Sc111 O127 2.105 . S
Sc111 O131 2.105 . S
Sc112 O113 2.025 . S
Sc112 O122 2.105 . S
Sc112 O124 2.105 . S
Sc112 O128 2.105 . S
Sc112 O130 2.105 . S
O113 Sc110 2.025 . S
O113 Sc111 2.025 . S
O113 Sc112 2.025 . S
C114 O120 1.268 . S
C114 O130 1.268 . S
C115 O121 1.268 . S
C115 O129 1.268 . S
C116 O122 1.268 . S
C116 O131 1.268 . S
C117 O123 1.268 . S
C117 O127 1.268 . S
C118 O124 1.268 . S
C118 O126 1.268 . S
C119 O125 1.268 . S
C119 O128 1.268 . S
O120 Sc110 2.105 . S
O120 C114 1.268 . S
O121 Sc111 2.105 . S
O121 C115 1.268 . S
O122 Sc112 2.105 . S
O122 C116 1.268 . S
O123 Sc110 2.105 . S
O123 C117 1.268 . S
O124 Sc112 2.105 . S
O124 C118 1.268 . S
O125 Sc111 2.105 . S
O125 C119 1.268 . S
O126 Sc110 2.105 . S
O126 C118 1.268 . S
O127 Sc111 2.105 . S
O127 C117 1.268 . S
O128 Sc112 2.105 . S
O128 C119 1.268 . S
O129 Sc110 2.105 . S
O129 C115 1.268 . S
O130 Sc112 2.105 . S
O130 C114 1.268 . S
O131 Sc111 2.105 . S
O131 C116 1.268 . S
Sc132 O135 2.025 . S
Sc132 O142 2.105 . S
Sc132 O145 2.105 . S
Sc132 O148 2.105 1_655 S
Sc132 O151 2.105 . S
Sc133 O135 2.025 . S
Sc133 O143 2.105 . S
Sc133 O147 2.105 . S
Sc133 O149 2.105 . S
Sc133 O153 2.105 . S
Sc134 O135 2.025 . S
Sc134 O144 2.105 . S
Sc134 O146 2.105 1_655 S
Sc134 O150 2.105 . S
Sc134 O152 2.105 . S
O135 Sc132 2.025 . S
O135 Sc133 2.025 . S
O135 Sc134 2.025 . S
C136 O142 1.268 . S
C136 O152 1.268 . S
C137 O143 1.268 . S
C137 O151 1.268 . S
C138 O144 1.268 . S
C138 O153 1.268 . S
C139 O145 1.268 . S
C139 O149 1.268 . S
C140 O146 1.268 . S
C140 O148 1.268 . S
C141 O147 1.268 . S
C141 O150 1.268 . S
O142 Sc132 2.105 . S
O142 C136 1.268 . S
O143 Sc133 2.105 . S
O143 C137 1.268 . S
O144 Sc134 2.105 . S
O144 C138 1.268 . S
O145 Sc132 2.105 . S
O145 C139 1.268 . S
O146 Sc134 2.105 1_455 S
O146 C140 1.268 . S
O147 Sc133 2.105 . S
O147 C141 1.268 . S
O148 Sc132 2.105 1_455 S
O148 C140 1.268 . S
O149 Sc133 2.105 . S
O149 C139 1.268 . S
O150 Sc134 2.105 . S
O150 C141 1.268 . S
O151 Sc132 2.105 . S
O151 C137 1.268 . S
O152 Sc134 2.105 . S
O152 C136 1.268 . S
O153 Sc133 2.105 . S
O153 C138 1.268 . S
Sc154 O157 2.025 . S
Sc154 O164 2.105 . S
Sc154 O167 2.105 . S
Sc154 O170 2.105 . S
Sc154 O173 2.105 . S
Sc155 O157 2.025 . S
Sc155 O165 2.105 . S
Sc155 O169 2.105 . S
Sc155 O171 2.105 . S
Sc155 O175 2.105 . S
Sc156 O157 2.025 . S
Sc156 O166 2.105 . S
Sc156 O168 2.105 . S
Sc156 O172 2.105 . S
Sc156 O174 2.105 . S
O157 Sc154 2.025 . S
O157 Sc155 2.025 . S
O157 Sc156 2.025 . S
C158 O164 1.268 . S
C158 O174 1.268 . S
C159 O165 1.268 . S
C159 O173 1.268 . S
C160 O166 1.268 . S
C160 O175 1.268 . S
C161 O167 1.268 . S
C161 O171 1.268 . S
C162 O168 1.268 . S
C162 O170 1.268 . S
C163 O169 1.268 . S
C163 O172 1.268 . S
O164 Sc154 2.105 . S
O164 C158 1.268 . S
O165 Sc155 2.105 . S
O165 C159 1.268 . S
O166 Sc156 2.105 . S
O166 C160 1.268 . S
O167 Sc154 2.105 . S
O167 C161 1.268 . S
O168 Sc156 2.105 . S
O168 C162 1.268 . S
O169 Sc155 2.105 . S
O169 C163 1.268 . S
O170 Sc154 2.105 . S
O170 C162 1.268 . S
O171 Sc155 2.105 . S
O171 C161 1.268 . S
O172 Sc156 2.105 . S
O172 C163 1.268 . S
O173 Sc154 2.105 . S
O173 C159 1.268 . S
O174 Sc156 2.105 . S
O174 C158 1.268 . S
O175 Sc155 2.105 . S
O175 C160 1.268 . S
Sc176 O179 2.025 . S
Sc176 O186 2.105 . S
Sc176 O189 2.105 . S
Sc176 O192 2.105 1_545 S
Sc176 O195 2.105 . S
Sc177 O179 2.025 . S
Sc177 O187 2.105 . S
Sc177 O191 2.105 . S
Sc177 O193 2.105 . S
Sc177 O197 2.105 . S
Sc178 O179 2.025 . S
Sc178 O188 2.105 . S
Sc178 O190 2.105 1_545 S
Sc178 O194 2.105 . S
Sc178 O196 2.105 . S
O179 Sc176 2.025 . S
O179 Sc177 2.025 . S
O179 Sc178 2.025 . S
C180 O186 1.268 . S
C180 O196 1.268 . S
C181 O187 1.268 . S
C181 O195 1.268 . S
C182 O188 1.268 . S
C182 O197 1.268 . S
C183 O189 1.268 . S
C183 O193 1.268 . S
C184 O190 1.268 . S
C184 O192 1.268 . S
C185 O191 1.268 . S
C185 O194 1.268 . S
O186 Sc176 2.105 . S
O186 C180 1.268 . S
O187 Sc177 2.105 . S
O187 C181 1.268 . S
O188 Sc178 2.105 . S
O188 C182 1.268 . S
O189 Sc176 2.105 . S
O189 C183 1.268 . S
O190 Sc178 2.105 1_565 S
O190 C184 1.268 . S
O191 Sc177 2.105 . S
O191 C185 1.268 . S
O192 Sc176 2.105 1_565 S
O192 C184 1.268 . S
O193 Sc177 2.105 . S
O193 C183 1.268 . S
O194 Sc178 2.105 . S
O194 C185 1.268 . S
O195 Sc176 2.105 . S
O195 C181 1.268 . S
O196 Sc178 2.105 . S
O196 C180 1.268 . S
O197 Sc177 2.105 . S
O197 C182 1.268 . S
Sc198 O201 2.025 . S
Sc198 O208 2.105 . S
Sc198 O211 2.105 . S
Sc198 O214 2.105 . S
Sc198 O217 2.105 . S
Sc199 O201 2.025 . S
Sc199 O209 2.105 . S
Sc199 O213 2.105 . S
Sc199 O215 2.105 . S
Sc199 O219 2.105 . S
Sc200 O201 2.025 . S
Sc200 O210 2.105 . S
Sc200 O212 2.105 . S
Sc200 O216 2.105 . S
Sc200 O218 2.105 . S
O201 Sc198 2.025 . S
O201 Sc199 2.025 . S
O201 Sc200 2.025 . S
C202 O208 1.268 . S
C202 O218 1.268 . S
C203 O209 1.268 . S
C203 O217 1.268 . S
C204 O210 1.268 . S
C204 O219 1.268 . S
C205 O211 1.268 . S
C205 O215 1.268 . S
C206 O212 1.268 . S
C206 O214 1.268 . S
C207 O213 1.268 . S
C207 O216 1.268 . S
O208 Sc198 2.105 . S
O208 C202 1.268 . S
O209 Sc199 2.105 . S
O209 C203 1.268 . S
O210 Sc200 2.105 . S
O210 C204 1.268 . S
O211 Sc198 2.105 . S
O211 C205 1.268 . S
O212 Sc200 2.105 . S
O212 C206 1.268 . S
O213 Sc199 2.105 . S
O213 C207 1.268 . S
O214 Sc198 2.105 . S
O214 C206 1.268 . S
O215 Sc199 2.105 . S
O215 C205 1.268 . S
O216 Sc200 2.105 . S
O216 C207 1.268 . S
O217 Sc198 2.105 . S
O217 C203 1.268 . S
O218 Sc200 2.105 . S
O218 C202 1.268 . S
O219 Sc199 2.105 . S
O219 C204 1.268 . S
Sc220 O223 2.025 . S
Sc220 O230 2.105 1_565 S
Sc220 O233 2.105 . S
Sc220 O236 2.105 . S
Sc220 O239 2.105 . S
Sc221 O223 2.025 . S
Sc221 O231 2.105 . S
Sc221 O235 2.105 . S
Sc221 O237 2.105 . S
Sc221 O241 2.105 . S
Sc222 O223 2.025 . S
Sc222 O232 2.105 . S
Sc222 O234 2.105 . S
Sc222 O238 2.105 . S
Sc222 O240 2.105 1_565 S
O223 Sc220 2.025 . S
O223 Sc221 2.025 . S
O223 Sc222 2.025 . S
C224 O230 1.268 . S
C224 O240 1.268 . S
C225 O231 1.268 . S
C225 O239 1.268 . S
C226 O232 1.268 . S
C226 O241 1.268 . S
C227 O233 1.268 . S
C227 O237 1.268 . S
C228 O234 1.268 . S
C228 O236 1.268 . S
C229 O235 1.268 . S
C229 O238 1.268 . S
O230 Sc220 2.105 1_545 S
O230 C224 1.268 . S
O231 Sc221 2.105 . S
O231 C225 1.268 . S
O232 Sc222 2.105 . S
O232 C226 1.268 . S
O233 Sc220 2.105 . S
O233 C227 1.268 . S
O234 Sc222 2.105 . S
O234 C228 1.268 . S
O235 Sc221 2.105 . S
O235 C229 1.268 . S
O236 Sc220 2.105 . S
O236 C228 1.268 . S
O237 Sc221 2.105 . S
O237 C227 1.268 . S
O238 Sc222 2.105 . S
O238 C229 1.268 . S
O239 Sc220 2.105 . S
O239 C225 1.268 . S
O240 Sc222 2.105 1_545 S
O240 C224 1.268 . S
O241 Sc221 2.105 . S
O241 C226 1.268 . S
Sc242 O245 2.025 . S
Sc242 O252 2.105 . S
Sc242 O255 2.105 . S
Sc242 O258 2.105 . S
Sc242 O261 2.105 . S
Sc243 O245 2.025 . S
Sc243 O253 2.105 . S
Sc243 O257 2.105 . S
Sc243 O259 2.105 . S
Sc243 O263 2.105 . S
Sc244 O245 2.025 . S
Sc244 O254 2.105 . S
Sc244 O256 2.105 . S
Sc244 O260 2.105 . S
Sc244 O262 2.105 . S
O245 Sc242 2.025 . S
O245 Sc243 2.025 . S
O245 Sc244 2.025 . S
C246 O252 1.268 . S
C246 O262 1.268 . S
C247 O253 1.268 . S
C247 O261 1.268 . S
C248 O254 1.268 . S
C248 O263 1.268 . S
C249 O255 1.268 . S
C249 O259 1.268 . S
C250 O256 1.268 . S
C250 O258 1.268 . S
C251 O257 1.268 . S
C251 O260 1.268 . S
O252 Sc242 2.105 . S
O252 C246 1.268 . S
O253 Sc243 2.105 . S
O253 C247 1.268 . S
O254 Sc244 2.105 . S
O254 C248 1.268 . S
O255 Sc242 2.105 . S
O255 C249 1.268 . S
O256 Sc244 2.105 . S
O256 C250 1.268 . S
O257 Sc243 2.105 . S
O257 C251 1.268 . S
O258 Sc242 2.105 . S
O258 C250 1.268 . S
O259 Sc243 2.105 . S
O259 C249 1.268 . S
O260 Sc244 2.105 . S
O260 C251 1.268 . S
O261 Sc242 2.105 . S
O261 C247 1.268 . S
O262 Sc244 2.105 . S
O262 C246 1.268 . S
O263 Sc243 2.105 . S
O263 C248 1.268 . S
Sc264 O267 2.025 . S
Sc264 O274 2.105 . S
Sc264 O277 2.105 . S
Sc264 O280 2.105 . S
Sc264 O283 2.105 . S
Sc265 O267 2.025 . S
Sc265 O275 2.105 . S
Sc265 O279 2.105 . S
Sc265 O281 2.105 . S
Sc265 O285 2.105 . S
Sc266 O267 2.025 . S
Sc266 O276 2.105 . S
Sc266 O278 2.105 . S
Sc266 O282 2.105 . S
Sc266 O284 2.105 . S
O267 Sc264 2.025 . S
O267 Sc265 2.025 . S
O267 Sc266 2.025 . S
C268 O274 1.268 . S
C268 O284 1.268 . S
C269 O275 1.268 . S
C269 O283 1.268 . S
C270 O276 1.268 . S
C270 O285 1.268 . S
C271 O277 1.268 . S
C271 O281 1.268 . S
C272 O278 1.268 . S
C272 O280 1.268 . S
C273 O279 1.268 . S
C273 O282 1.268 . S
O274 Sc264 2.105 . S
O274 C268 1.268 . S
O275 Sc265 2.105 . S
O275 C269 1.268 . S
O276 Sc266 2.105 . S
O276 C270 1.268 . S
O277 Sc264 2.105 . S
O277 C271 1.268 . S
O278 Sc266 2.105 . S
O278 C272 1.268 . S
O279 Sc265 2.105 . S
O279 C273 1.268 . S
O280 Sc264 2.105 . S
O280 C272 1.268 . S
O281 Sc265 2.105 . S
O281 C271 1.268 . S
O282 Sc266 2.105 . S
O282 C273 1.268 . S
O283 Sc264 2.105 . S
O283 C269 1.268 . S
O284 Sc266 2.105 . S
O284 C268 1.268 . S
O285 Sc265 2.105 . S
O285 C270 1.268 . S
Sc286 O289 2.025 . S
Sc286 O296 2.105 . S
Sc286 O299 2.105 . S
Sc286 O302 2.105 . S
Sc286 O305 2.105 . S
Sc287 O289 2.025 . S
Sc287 O297 2.105 . S
Sc287 O301 2.105 . S
Sc287 O303 2.105 . S
Sc287 O307 2.105 . S
Sc288 O289 2.025 . S
Sc288 O298 2.105 . S
Sc288 O300 2.105 . S
Sc288 O304 2.105 . S
Sc288 O306 2.105 . S
O289 Sc286 2.025 . S
O289 Sc287 2.025 . S
O289 Sc288 2.025 . S
C290 O296 1.268 . S
C290 O306 1.268 . S
C291 O297 1.268 . S
C291 O305 1.268 . S
C292 O298 1.268 . S
C292 O307 1.268 . S
C293 O299 1.268 . S
C293 O303 1.268 . S
C294 O300 1.268 . S
C294 O302 1.268 . S
C295 O301 1.268 . S
C295 O304 1.268 . S
O296 Sc286 2.105 . S
O296 C290 1.268 . S
O297 Sc287 2.105 . S
O297 C291 1.268 . S
O298 Sc288 2.105 . S
O298 C292 1.268 . S
O299 Sc286 2.105 . S
O299 C293 1.268 . S
O300 Sc288 2.105 . S
O300 C294 1.268 . S
O301 Sc287 2.105 . S
O301 C295 1.268 . S
O302 Sc286 2.105 . S
O302 C294 1.268 . S
O303 Sc287 2.105 . S
O303 C293 1.268 . S
O304 Sc288 2.105 . S
O304 C295 1.268 . S
O305 Sc286 2.105 . S
O305 C291 1.268 . S
O306 Sc288 2.105 . S
O306 C290 1.268 . S
O307 Sc287 2.105 . S
O307 C292 1.268 . S
Sc308 O311 2.025 . S
Sc308 O318 2.105 . S
Sc308 O321 2.105 . S
Sc308 O324 2.105 . S
Sc308 O327 2.105 . S
Sc309 O311 2.025 . S
Sc309 O319 2.105 . S
Sc309 O323 2.105 . S
Sc309 O325 2.105 . S
Sc309 O329 2.105 . S
Sc310 O311 2.025 . S
Sc310 O320 2.105 . S
Sc310 O322 2.105 . S
Sc310 O326 2.105 . S
Sc310 O328 2.105 . S
O311 Sc308 2.025 . S
O311 Sc309 2.025 . S
O311 Sc310 2.025 . S
C312 O318 1.268 . S
C312 O328 1.268 . S
C313 O319 1.268 . S
C313 O327 1.268 . S
C314 O320 1.268 . S
C314 O329 1.268 . S
C315 O321 1.268 . S
C315 O325 1.268 . S
C316 O322 1.268 . S
C316 O324 1.268 . S
C317 O323 1.268 . S
C317 O326 1.268 . S
O318 Sc308 2.105 . S
O318 C312 1.268 . S
O319 Sc309 2.105 . S
O319 C313 1.268 . S
O320 Sc310 2.105 . S
O320 C314 1.268 . S
O321 Sc308 2.105 . S
O321 C315 1.268 . S
O322 Sc310 2.105 . S
O322 C316 1.268 . S
O323 Sc309 2.105 . S
O323 C317 1.268 . S
O324 Sc308 2.105 . S
O324 C316 1.268 . S
O325 Sc309 2.105 . S
O325 C315 1.268 . S
O326 Sc310 2.105 . S
O326 C317 1.268 . S
O327 Sc308 2.105 . S
O327 C313 1.268 . S
O328 Sc310 2.105 . S
O328 C312 1.268 . S
O329 Sc309 2.105 . S
O329 C314 1.268 . S
Sc330 O333 2.025 . S
Sc330 O340 2.105 . S
Sc330 O343 2.105 . S
Sc330 O346 2.105 . S
Sc330 O349 2.105 . S
Sc331 O333 2.025 . S
Sc331 O341 2.105 . S
Sc331 O345 2.105 . S
Sc331 O347 2.105 . S
Sc331 O351 2.105 . S
Sc332 O333 2.025 . S
Sc332 O342 2.105 . S
Sc332 O344 2.105 . S
Sc332 O348 2.105 . S
Sc332 O350 2.105 . S
O333 Sc330 2.025 . S
O333 Sc331 2.025 . S
O333 Sc332 2.025 . S
C334 O340 1.268 . S
C334 O350 1.268 . S
C335 O341 1.268 . S
C335 O349 1.268 . S
C336 O342 1.268 . S
C336 O351 1.268 . S
C337 O343 1.268 . S
C337 O347 1.268 . S
C338 O344 1.268 . S
C338 O346 1.268 . S
C339 O345 1.268 . S
C339 O348 1.268 . S
O340 Sc330 2.105 . S
O340 C334 1.268 . S
O341 Sc331 2.105 . S
O341 C335 1.268 . S
O342 Sc332 2.105 . S
O342 C336 1.268 . S
O343 Sc330 2.105 . S
O343 C337 1.268 . S
O344 Sc332 2.105 . S
O344 C338 1.268 . S
O345 Sc331 2.105 . S
O345 C339 1.268 . S
O346 Sc330 2.105 . S
O346 C338 1.268 . S
O347 Sc331 2.105 . S
O347 C337 1.268 . S
O348 Sc332 2.105 . S
O348 C339 1.268 . S
O349 Sc330 2.105 . S
O349 C335 1.268 . S
O350 Sc332 2.105 . S
O350 C334 1.268 . S
O351 Sc331 2.105 . S
O351 C336 1.268 . S
Sc352 O355 2.025 . S
Sc352 O362 2.105 1_554 S
Sc352 O365 2.105 . S
Sc352 O368 2.105 . S
Sc352 O371 2.105 . S
Sc353 O355 2.025 . S
Sc353 O363 2.105 . S
Sc353 O367 2.105 . S
Sc353 O369 2.105 . S
Sc353 O373 2.105 . S
Sc354 O355 2.025 . S
Sc354 O364 2.105 . S
Sc354 O366 2.105 . S
Sc354 O370 2.105 . S
Sc354 O372 2.105 1_554 S
O355 Sc352 2.025 . S
O355 Sc353 2.025 . S
O355 Sc354 2.025 . S
C356 O362 1.268 . S
C356 O372 1.268 . S
C357 O363 1.268 . S
C357 O371 1.268 . S
C358 O364 1.268 . S
C358 O373 1.268 . S
C359 O365 1.268 . S
C359 O369 1.268 . S
C360 O366 1.268 . S
C360 O368 1.268 . S
C361 O367 1.268 . S
C361 O370 1.268 . S
O362 Sc352 2.105 1_556 S
O362 C356 1.268 . S
O363 Sc353 2.105 . S
O363 C357 1.268 . S
O364 Sc354 2.105 . S
O364 C358 1.268 . S
O365 Sc352 2.105 . S
O365 C359 1.268 . S
O366 Sc354 2.105 . S
O366 C360 1.268 . S
O367 Sc353 2.105 . S
O367 C361 1.268 . S
O368 Sc352 2.105 . S
O368 C360 1.268 . S
O369 Sc353 2.105 . S
O369 C359 1.268 . S
O370 Sc354 2.105 . S
O370 C361 1.268 . S
O371 Sc352 2.105 . S
O371 C357 1.268 . S
O372 Sc354 2.105 1_556 S
O372 C356 1.268 . S
O373 Sc353 2.105 . S
O373 C358 1.268 . S
Sc374 O377 2.025 . S
Sc374 O384 2.105 . S
Sc374 O387 2.105 . S
Sc374 O390 2.105 1_556 S
Sc374 O393 2.105 . S
Sc375 O377 2.025 . S
Sc375 O385 2.105 . S
Sc375 O389 2.105 . S
Sc375 O391 2.105 . S
Sc375 O395 2.105 . S
Sc376 O377 2.025 . S
Sc376 O386 2.105 . S
Sc376 O388 2.105 1_556 S
Sc376 O392 2.105 . S
Sc376 O394 2.105 . S
O377 Sc374 2.025 . S
O377 Sc375 2.025 . S
O377 Sc376 2.025 . S
C378 O384 1.268 . S
C378 O394 1.268 . S
C379 O385 1.268 . S
C379 O393 1.268 . S
C380 O386 1.268 . S
C380 O395 1.268 . S
C381 O387 1.268 . S
C381 O391 1.268 . S
C382 O388 1.268 . S
C382 O390 1.268 . S
C383 O389 1.268 . S
C383 O392 1.268 . S
O384 Sc374 2.105 . S
O384 C378 1.268 . S
O385 Sc375 2.105 . S
O385 C379 1.268 . S
O386 Sc376 2.105 . S
O386 C380 1.268 . S
O387 Sc374 2.105 . S
O387 C381 1.268 . S
O388 Sc376 2.105 1_554 S
O388 C382 1.268 . S
O389 Sc375 2.105 . S
O389 C383 1.268 . S
O390 Sc374 2.105 1_554 S
O390 C382 1.268 . S
O391 Sc375 2.105 . S
O391 C381 1.268 . S
O392 Sc376 2.105 . S
O392 C383 1.268 . S
O393 Sc374 2.105 . S
O393 C379 1.268 . S
O394 Sc376 2.105 . S
O394 C378 1.268 . S
O395 Sc375 2.105 . S
O395 C380 1.268 . S
Sc396 O399 2.025 . S
Sc396 O406 2.105 . S
Sc396 O409 2.105 . S
Sc396 O412 2.105 . S
Sc396 O415 2.105 . S
Sc397 O399 2.025 . S
Sc397 O407 2.105 . S
Sc397 O411 2.105 . S
Sc397 O413 2.105 . S
Sc397 O417 2.105 . S
Sc398 O399 2.025 . S
Sc398 O408 2.105 . S
Sc398 O410 2.105 . S
Sc398 O414 2.105 . S
Sc398 O416 2.105 . S
O399 Sc396 2.025 . S
O399 Sc397 2.025 . S
O399 Sc398 2.025 . S
C400 O406 1.268 . S
C400 O416 1.268 . S
C401 O407 1.268 . S
C401 O415 1.268 . S
C402 O408 1.268 . S
C402 O417 1.268 . S
C403 O409 1.268 . S
C403 O413 1.268 . S
C404 O410 1.268 . S
C404 O412 1.268 . S
C405 O411 1.268 . S
C405 O414 1.268 . S
O406 Sc396 2.105 . S
O406 C400 1.268 . S
O407 Sc397 2.105 . S
O407 C401 1.268 . S
O408 Sc398 2.105 . S
O408 C402 1.268 . S
O409 Sc396 2.105 . S
O409 C403 1.268 . S
O410 Sc398 2.105 . S
O410 C404 1.268 . S
O411 Sc397 2.105 . S
O411 C405 1.268 . S
O412 Sc396 2.105 . S
O412 C404 1.268 . S
O413 Sc397 2.105 . S
O413 C403 1.268 . S
O414 Sc398 2.105 . S
O414 C405 1.268 . S
O415 Sc396 2.105 . S
O415 C401 1.268 . S
O416 Sc398 2.105 . S
O416 C400 1.268 . S
O417 Sc397 2.105 . S
O417 C402 1.268 . S
Sc418 O421 2.025 . S
Sc418 O428 2.105 . S
Sc418 O431 2.105 . S
Sc418 O434 2.105 . S
Sc418 O437 2.105 . S
Sc419 O421 2.025 . S
Sc419 O429 2.105 . S
Sc419 O433 2.105 . S
Sc419 O435 2.105 . S
Sc419 O439 2.105 . S
Sc420 O421 2.025 . S
Sc420 O430 2.105 . S
Sc420 O432 2.105 . S
Sc420 O436 2.105 . S
Sc420 O438 2.105 . S
O421 Sc418 2.025 . S
O421 Sc419 2.025 . S
O421 Sc420 2.025 . S
C422 O428 1.268 . S
C422 O438 1.268 . S
C423 O429 1.268 . S
C423 O437 1.268 . S
C424 O430 1.268 . S
C424 O439 1.268 . S
C425 O431 1.268 . S
C425 O435 1.268 . S
C426 O432 1.268 . S
C426 O434 1.268 . S
C427 O433 1.268 . S
C427 O436 1.268 . S
O428 Sc418 2.105 . S
O428 C422 1.268 . S
O429 Sc419 2.105 . S
O429 C423 1.268 . S
O430 Sc420 2.105 . S
O430 C424 1.268 . S
O431 Sc418 2.105 . S
O431 C425 1.268 . S
O432 Sc420 2.105 . S
O432 C426 1.268 . S
O433 Sc419 2.105 . S
O433 C427 1.268 . S
O434 Sc418 2.105 . S
O434 C426 1.268 . S
O435 Sc419 2.105 . S
O435 C425 1.268 . S
O436 Sc420 2.105 . S
O436 C427 1.268 . S
O437 Sc418 2.105 . S
O437 C423 1.268 . S
O438 Sc420 2.105 . S
O438 C422 1.268 . S
O439 Sc419 2.105 . S
O439 C424 1.268 . S
Sc440 O443 2.025 . S
Sc440 O450 2.105 . S
Sc440 O453 2.105 . S
Sc440 O456 2.105 . S
Sc440 O459 2.105 . S
Sc441 O443 2.025 . S
Sc441 O451 2.105 . S
Sc441 O455 2.105 . S
Sc441 O457 2.105 . S
Sc441 O461 2.105 . S
Sc442 O443 2.025 . S
Sc442 O452 2.105 . S
Sc442 O454 2.105 . S
Sc442 O458 2.105 . S
Sc442 O460 2.105 . S
O443 Sc440 2.025 . S
O443 Sc441 2.025 . S
O443 Sc442 2.025 . S
C444 O450 1.268 . S
C444 O460 1.268 . S
C445 O451 1.268 . S
C445 O459 1.268 . S
C446 O452 1.268 . S
C446 O461 1.268 . S
C447 O453 1.268 . S
C447 O457 1.268 . S
C448 O454 1.268 . S
C448 O456 1.268 . S
C449 O455 1.268 . S
C449 O458 1.268 . S
O450 Sc440 2.105 . S
O450 C444 1.268 . S
O451 Sc441 2.105 . S
O451 C445 1.268 . S
O452 Sc442 2.105 . S
O452 C446 1.268 . S
O453 Sc440 2.105 . S
O453 C447 1.268 . S
O454 Sc442 2.105 . S
O454 C448 1.268 . S
O455 Sc441 2.105 . S
O455 C449 1.268 . S
O456 Sc440 2.105 . S
O456 C448 1.268 . S
O457 Sc441 2.105 . S
O457 C447 1.268 . S
O458 Sc442 2.105 . S
O458 C449 1.268 . S
O459 Sc440 2.105 . S
O459 C445 1.268 . S
O460 Sc442 2.105 . S
O460 C444 1.268 . S
O461 Sc441 2.105 . S
O461 C446 1.268 . S
Sc462 O465 2.025 . S
Sc462 O472 2.105 . S
Sc462 O475 2.105 . S
Sc462 O478 2.105 . S
Sc462 O481 2.105 . S
Sc463 O465 2.025 . S
Sc463 O473 2.105 . S
Sc463 O477 2.105 . S
Sc463 O479 2.105 . S
Sc463 O483 2.105 . S
Sc464 O465 2.025 . S
Sc464 O474 2.105 . S
Sc464 O476 2.105 . S
Sc464 O480 2.105 . S
Sc464 O482 2.105 . S
O465 Sc462 2.025 . S
O465 Sc463 2.025 . S
O465 Sc464 2.025 . S
C466 O472 1.268 . S
C466 O482 1.268 . S
C467 O473 1.268 . S
C467 O481 1.268 . S
C468 O474 1.268 . S
C468 O483 1.268 . S
C469 O475 1.268 . S
C469 O479 1.268 . S
C470 O476 1.268 . S
C470 O478 1.268 . S
C471 O477 1.268 . S
C471 O480 1.268 . S
O472 Sc462 2.105 . S
O472 C466 1.268 . S
O473 Sc463 2.105 . S
O473 C467 1.268 . S
O474 Sc464 2.105 . S
O474 C468 1.268 . S
O475 Sc462 2.105 . S
O475 C469 1.268 . S
O476 Sc464 2.105 . S
O476 C470 1.268 . S
O477 Sc463 2.105 . S
O477 C471 1.268 . S
O478 Sc462 2.105 . S
O478 C470 1.268 . S
O479 Sc463 2.105 . S
O479 C469 1.268 . S
O480 Sc464 2.105 . S
O480 C471 1.268 . S
O481 Sc462 2.105 . S
O481 C467 1.268 . S
O482 Sc464 2.105 . S
O482 C466 1.268 . S
O483 Sc463 2.105 . S
O483 C468 1.268 . S
Sc484 O487 2.025 . S
Sc484 O494 2.105 . S
Sc484 O497 2.105 . S
Sc484 O500 2.105 . S
Sc484 O503 2.105 . S
Sc485 O487 2.025 . S
Sc485 O495 2.105 . S
Sc485 O499 2.105 . S
Sc485 O501 2.105 . S
Sc485 O505 2.105 . S
Sc486 O487 2.025 . S
Sc486 O496 2.105 . S
Sc486 O498 2.105 . S
Sc486 O502 2.105 . S
Sc486 O504 2.105 . S
O487 Sc484 2.025 . S
O487 Sc485 2.025 . S
O487 Sc486 2.025 . S
C488 O494 1.268 . S
C488 O504 1.268 . S
C489 O495 1.268 . S
C489 O503 1.268 . S
C490 O496 1.268 . S
C490 O505 1.268 . S
C491 O497 1.268 . S
C491 O501 1.268 . S
C492 O498 1.268 . S
C492 O500 1.268 . S
C493 O499 1.268 . S
C493 O502 1.268 . S
O494 Sc484 2.105 . S
O494 C488 1.268 . S
O495 Sc485 2.105 . S
O495 C489 1.268 . S
O496 Sc486 2.105 . S
O496 C490 1.268 . S
O497 Sc484 2.105 . S
O497 C491 1.268 . S
O498 Sc486 2.105 . S
O498 C492 1.268 . S
O499 Sc485 2.105 . S
O499 C493 1.268 . S
O500 Sc484 2.105 . S
O500 C492 1.268 . S
O501 Sc485 2.105 . S
O501 C491 1.268 . S
O502 Sc486 2.105 . S
O502 C493 1.268 . S
O503 Sc484 2.105 . S
O503 C489 1.268 . S
O504 Sc486 2.105 . S
O504 C488 1.268 . S
O505 Sc485 2.105 . S
O505 C490 1.268 . S
Sc506 O509 2.025 . S
Sc506 O516 2.105 . S
Sc506 O519 2.105 . S
Sc506 O522 2.105 . S
Sc506 O525 2.105 . S
Sc507 O509 2.025 . S
Sc507 O517 2.105 . S
Sc507 O521 2.105 . S
Sc507 O523 2.105 . S
Sc507 O527 2.105 . S
Sc508 O509 2.025 . S
Sc508 O518 2.105 . S
Sc508 O520 2.105 . S
Sc508 O524 2.105 . S
Sc508 O526 2.105 . S
O509 Sc506 2.025 . S
O509 Sc507 2.025 . S
O509 Sc508 2.025 . S
C510 O516 1.268 . S
C510 O526 1.268 . S
C511 O517 1.268 . S
C511 O525 1.268 . S
C512 O518 1.268 . S
C512 O527 1.268 . S
C513 O519 1.268 . S
C513 O523 1.268 . S
C514 O520 1.268 . S
C514 O522 1.268 . S
C515 O521 1.268 . S
C515 O524 1.268 . S
O516 Sc506 2.105 . S
O516 C510 1.268 . S
O517 Sc507 2.105 . S
O517 C511 1.268 . S
O518 Sc508 2.105 . S
O518 C512 1.268 . S
O519 Sc506 2.105 . S
O519 C513 1.268 . S
O520 Sc508 2.105 . S
O520 C514 1.268 . S
O521 Sc507 2.105 . S
O521 C515 1.268 . S
O522 Sc506 2.105 . S
O522 C514 1.268 . S
O523 Sc507 2.105 . S
O523 C513 1.268 . S
O524 Sc508 2.105 . S
O524 C515 1.268 . S
O525 Sc506 2.105 . S
O525 C511 1.268 . S
O526 Sc508 2.105 . S
O526 C510 1.268 . S
O527 Sc507 2.105 . S
O527 C512 1.268 . S
H528 C534 0.930 . S
H529 C538 0.930 . S
H530 C543 0.929 . S
H531 C541 0.929 . S
H532 C536 0.929 . S
H533 C542 0.929 . S
C534 H528 0.930 . S
C534 C535 1.367 . S
C534 C542 1.378 . S
C535 C534 1.367 . S
C535 C543 1.433 . S
C536 H532 0.929 . S
C536 C538 1.378 . S
C536 C540 1.350 . S
C537 C540 1.463 . S
C537 C542 1.350 . S
C537 N545 1.427 . S
C538 H529 0.930 . S
C538 C536 1.378 . S
C538 C539 1.367 . S
C539 C538 1.367 . S
C539 C541 1.433 . S
C540 C536 1.350 . S
C540 C537 1.463 . S
C540 N544 1.427 . S
C541 H531 0.929 . S
C541 C539 1.433 . S
C541 N544 1.384 . S
C542 H533 0.929 . S
C542 C534 1.378 . S
C542 C537 1.350 . S
C543 H530 0.929 . S
C543 C535 1.433 . S
C543 N545 1.384 . S
N544 C540 1.427 . S
N544 C541 1.384 . S
N545 C537 1.427 . S
N545 C543 1.384 . S
H546 C552 0.930 . S
H547 C556 0.930 . S
H548 C561 0.929 . S
H549 C559 0.929 . S
H550 C554 0.929 . S
H551 C560 0.929 . S
C552 H546 0.930 . S
C552 C553 1.367 . S
C552 C560 1.378 . S
C553 C552 1.367 . S
C553 C561 1.433 . S
C554 H550 0.929 . S
C554 C556 1.378 . S
C554 C558 1.350 . S
C555 C558 1.463 . S
C555 C560 1.350 . S
C555 N563 1.427 . S
C556 H547 0.930 . S
C556 C554 1.378 . S
C556 C557 1.367 . S
C557 C556 1.367 . S
C557 C559 1.433 . S
C558 C554 1.350 . S
C558 C555 1.463 . S
C558 N562 1.427 . S
C559 H549 0.929 . S
C559 C557 1.433 . S
C559 N562 1.384 . S
C560 H551 0.929 . S
C560 C552 1.378 . S
C560 C555 1.350 . S
C561 H548 0.929 . S
C561 C553 1.433 . S
C561 N563 1.384 . S
N562 C558 1.427 . S
N562 C559 1.384 . S
N563 C555 1.427 . S
N563 C561 1.384 . S
H564 C570 0.930 . S
H565 C574 0.930 . S
H566 C579 0.929 . S
H567 C577 0.929 . S
H568 C572 0.929 . S
H569 C578 0.929 . S
C570 H564 0.930 . S
C570 C571 1.367 . S
C570 C578 1.378 . S
C571 C570 1.367 . S
C571 C579 1.433 . S
C572 H568 0.929 . S
C572 C574 1.378 . S
C572 C576 1.350 . S
C573 C576 1.463 . S
C573 C578 1.350 . S
C573 N581 1.427 . S
C574 H565 0.930 . S
C574 C572 1.378 . S
C574 C575 1.367 . S
C575 C574 1.367 . S
C575 C577 1.433 . S
C576 C572 1.350 . S
C576 C573 1.463 . S
C576 N580 1.427 . S
C577 H567 0.929 . S
C577 C575 1.433 . S
C577 N580 1.384 . S
C578 H569 0.929 . S
C578 C570 1.378 . S
C578 C573 1.350 . S
C579 H566 0.929 . S
C579 C571 1.433 . S
C579 N581 1.384 . S
N580 C576 1.427 . S
N580 C577 1.384 . S
N581 C573 1.427 . S
N581 C579 1.384 . S
H582 C588 0.930 . S
H583 C592 0.930 . S
H584 C597 0.929 . S
H585 C595 0.929 . S
H586 C590 0.929 . S
H587 C596 0.929 . S
C588 H582 0.930 . S
C588 C589 1.367 . S
C588 C596 1.378 . S
C589 C588 1.367 . S
C589 C597 1.433 . S
C590 H586 0.929 . S
C590 C592 1.378 . S
C590 C594 1.350 . S
C591 C594 1.463 . S
C591 C596 1.350 . S
C591 N599 1.427 . S
C592 H583 0.930 . S
C592 C590 1.378 . S
C592 C593 1.367 . S
C593 C592 1.367 . S
C593 C595 1.433 . S
C594 C590 1.350 . S
C594 C591 1.463 . S
C594 N598 1.427 . S
C595 H585 0.929 . S
C595 C593 1.433 . S
C595 N598 1.384 . S
C596 H587 0.929 . S
C596 C588 1.378 . S
C596 C591 1.350 . S
C597 H584 0.929 . S
C597 C589 1.433 . S
C597 N599 1.384 . S
N598 C594 1.427 . S
N598 C595 1.384 . S
N599 C591 1.427 . S
N599 C597 1.384 . S
H600 C606 0.930 . S
H601 C610 0.930 . S
H602 C615 0.929 . S
H603 C613 0.929 . S
H604 C608 0.929 . S
H605 C614 0.929 . S
C606 H600 0.930 . S
C606 C607 1.367 . S
C606 C614 1.378 . S
C607 C606 1.367 . S
C607 C615 1.433 . S
C608 H604 0.929 . S
C608 C610 1.378 . S
C608 C612 1.350 . S
C609 C612 1.463 . S
C609 C614 1.350 . S
C609 N617 1.427 . S
C610 H601 0.930 . S
C610 C608 1.378 . S
C610 C611 1.367 . S
C611 C610 1.367 . S
C611 C613 1.433 . S
C612 C608 1.350 . S
C612 C609 1.463 . S
C612 N616 1.427 . S
C613 H603 0.929 . S
C613 C611 1.433 . S
C613 N616 1.384 . S
C614 H605 0.929 . S
C614 C606 1.378 . S
C614 C609 1.350 . S
C615 H602 0.929 . S
C615 C607 1.433 . S
C615 N617 1.384 . S
N616 C612 1.427 . S
N616 C613 1.384 . S
N617 C609 1.427 . S
N617 C615 1.384 . S
H618 C624 0.930 . S
H619 C628 0.930 . S
H620 C633 0.929 . S
H621 C631 0.929 . S
H622 C626 0.929 . S
H623 C632 0.929 . S
C624 H618 0.930 . S
C624 C625 1.367 . S
C624 C632 1.378 . S
C625 C624 1.367 . S
C625 C633 1.433 . S
C626 H622 0.929 . S
C626 C628 1.378 . S
C626 C630 1.350 . S
C627 C630 1.463 . S
C627 C632 1.350 . S
C627 N635 1.427 . S
C628 H619 0.930 . S
C628 C626 1.378 . S
C628 C629 1.367 . S
C629 C628 1.367 . S
C629 C631 1.433 . S
C630 C626 1.350 . S
C630 C627 1.463 . S
C630 N634 1.427 . S
C631 H621 0.929 . S
C631 C629 1.433 . S
C631 N634 1.384 . S
C632 H623 0.929 . S
C632 C624 1.378 . S
C632 C627 1.350 . S
C633 H620 0.929 . S
C633 C625 1.433 . S
C633 N635 1.384 . S
N634 C630 1.427 . S
N634 C631 1.384 . S
N635 C627 1.427 . S
N635 C633 1.384 . S
H636 C642 0.930 . S
H637 C646 0.930 . S
H638 C651 0.929 . S
H639 C649 0.929 . S
H640 C644 0.929 . S
H641 C650 0.929 . S
C642 H636 0.930 . S
C642 C643 1.367 . S
C642 C650 1.378 . S
C643 C642 1.367 . S
C643 C651 1.433 . S
C644 H640 0.929 . S
C644 C646 1.378 . S
C644 C648 1.350 . S
C645 C648 1.463 . S
C645 C650 1.350 . S
C645 N653 1.427 . S
C646 H637 0.930 . S
C646 C644 1.378 . S
C646 C647 1.367 . S
C647 C646 1.367 . S
C647 C649 1.433 . S
C648 C644 1.350 . S
C648 C645 1.463 . S
C648 N652 1.427 . S
C649 H639 0.929 . S
C649 C647 1.433 . S
C649 N652 1.384 . S
C650 H641 0.929 . S
C650 C642 1.378 . S
C650 C645 1.350 . S
C651 H638 0.929 . S
C651 C643 1.433 . S
C651 N653 1.384 . S
N652 C648 1.427 . S
N652 C649 1.384 . S
N653 C645 1.427 . S
N653 C651 1.384 . S
H654 C660 0.930 . S
H655 C664 0.930 . S
H656 C669 0.929 . S
H657 C667 0.929 . S
H658 C662 0.929 . S
H659 C668 0.929 . S
C660 H654 0.930 . S
C660 C661 1.367 . S
C660 C668 1.378 . S
C661 C660 1.367 . S
C661 C669 1.433 . S
C662 H658 0.929 . S
C662 C664 1.378 . S
C662 C666 1.350 . S
C663 C666 1.463 . S
C663 C668 1.350 . S
C663 N671 1.427 . S
C664 H655 0.930 . S
C664 C662 1.378 . S
C664 C665 1.367 . S
C665 C664 1.367 . S
C665 C667 1.433 . S
C666 C662 1.350 . S
C666 C663 1.463 . S
C666 N670 1.427 . S
C667 H657 0.929 . S
C667 C665 1.433 . S
C667 N670 1.384 . S
C668 H659 0.929 . S
C668 C660 1.378 . S
C668 C663 1.350 . S
C669 H656 0.929 . S
C669 C661 1.433 . S
C669 N671 1.384 . S
N670 C666 1.427 . S
N670 C667 1.384 . S
N671 C663 1.427 . S
N671 C669 1.384 . S
H672 C678 0.930 . S
H673 C682 0.930 . S
H674 C687 0.929 . S
H675 C685 0.929 . S
H676 C680 0.929 . S
H677 C686 0.929 . S
C678 H672 0.930 . S
C678 C679 1.367 . S
C678 C686 1.378 . S
C679 C678 1.367 . S
C679 C687 1.433 . S
C680 H676 0.929 . S
C680 C682 1.378 . S
C680 C684 1.350 . S
C681 C684 1.463 . S
C681 C686 1.350 . S
C681 N689 1.427 . S
C682 H673 0.930 . S
C682 C680 1.378 . S
C682 C683 1.367 . S
C683 C682 1.367 . S
C683 C685 1.433 . S
C684 C680 1.350 . S
C684 C681 1.463 . S
C684 N688 1.427 . S
C685 H675 0.929 . S
C685 C683 1.433 . S
C685 N688 1.384 . S
C686 H677 0.929 . S
C686 C678 1.378 . S
C686 C681 1.350 . S
C687 H674 0.929 . S
C687 C679 1.433 . S
C687 N689 1.384 . S
N688 C684 1.427 . S
N688 C685 1.384 . S
N689 C681 1.427 . S
N689 C687 1.384 . S
H690 C696 0.930 . S
H691 C700 0.930 . S
H692 C705 0.929 . S
H693 C703 0.929 . S
H694 C698 0.929 . S
H695 C704 0.929 . S
C696 H690 0.930 . S
C696 C697 1.367 . S
C696 C704 1.378 . S
C697 C696 1.367 . S
C697 C705 1.433 . S
C698 H694 0.929 . S
C698 C700 1.378 . S
C698 C702 1.350 . S
C699 C702 1.463 . S
C699 C704 1.350 . S
C699 N707 1.427 . S
C700 H691 0.930 . S
C700 C698 1.378 . S
C700 C701 1.367 . S
C701 C700 1.367 . S
C701 C703 1.433 . S
C702 C698 1.350 . S
C702 C699 1.463 . S
C702 N706 1.427 . S
C703 H693 0.929 . S
C703 C701 1.433 . S
C703 N706 1.384 . S
C704 H695 0.929 . S
C704 C696 1.378 . S
C704 C699 1.350 . S
C705 H692 0.929 . S
C705 C697 1.433 . S
C705 N707 1.384 . S
N706 C702 1.427 . S
N706 C703 1.384 . S
N707 C699 1.427 . S
N707 C705 1.384 . S
H708 C714 0.930 . S
H709 C718 0.930 . S
H710 C723 0.929 . S
H711 C721 0.929 . S
H712 C716 0.929 . S
H713 C722 0.929 . S
C714 H708 0.930 . S
C714 C715 1.367 . S
C714 C722 1.378 . S
C715 C714 1.367 . S
C715 C723 1.433 . S
C716 H712 0.929 . S
C716 C718 1.378 . S
C716 C720 1.350 . S
C717 C720 1.463 . S
C717 C722 1.350 . S
C717 N725 1.427 . S
C718 H709 0.930 . S
C718 C716 1.378 . S
C718 C719 1.367 . S
C719 C718 1.367 . S
C719 C721 1.433 . S
C720 C716 1.350 . S
C720 C717 1.463 . S
C720 N724 1.427 . S
C721 H711 0.929 . S
C721 C719 1.433 . S
C721 N724 1.384 . S
C722 H713 0.929 . S
C722 C714 1.378 . S
C722 C717 1.350 . S
C723 H710 0.929 . S
C723 C715 1.433 . S
C723 N725 1.384 . S
N724 C720 1.427 . S
N724 C721 1.384 . S
N725 C717 1.427 . S
N725 C723 1.384 . S
H726 C732 0.930 . S
H727 C736 0.930 . S
H728 C741 0.929 . S
H729 C739 0.929 . S
H730 C734 0.929 . S
H731 C740 0.929 . S
C732 H726 0.930 . S
C732 C733 1.367 . S
C732 C740 1.378 . S
C733 C732 1.367 . S
C733 C741 1.433 . S
C734 H730 0.929 . S
C734 C736 1.378 . S
C734 C738 1.350 . S
C735 C738 1.463 . S
C735 C740 1.350 . S
C735 N743 1.427 . S
C736 H727 0.930 . S
C736 C734 1.378 . S
C736 C737 1.367 . S
C737 C736 1.367 . S
C737 C739 1.433 . S
C738 C734 1.350 . S
C738 C735 1.463 . S
C738 N742 1.427 . S
C739 H729 0.929 . S
C739 C737 1.433 . S
C739 N742 1.384 . S
C740 H731 0.929 . S
C740 C732 1.378 . S
C740 C735 1.350 . S
C741 H728 0.929 . S
C741 C733 1.433 . S
C741 N743 1.384 . S
N742 C738 1.427 . S
N742 C739 1.384 . S
N743 C735 1.427 . S
N743 C741 1.384 . S
H744 C750 0.930 . S
H745 C754 0.930 . S
H746 C759 0.929 . S
H747 C757 0.929 . S
H748 C752 0.929 . S
H749 C758 0.929 . S
C750 H744 0.930 . S
C750 C751 1.367 . S
C750 C758 1.378 . S
C751 C750 1.367 . S
C751 C759 1.433 . S
C752 H748 0.929 . S
C752 C754 1.378 . S
C752 C756 1.350 . S
C753 C756 1.463 . S
C753 C758 1.350 . S
C753 N761 1.427 . S
C754 H745 0.930 . S
C754 C752 1.378 . S
C754 C755 1.367 . S
C755 C754 1.367 . S
C755 C757 1.433 . S
C756 C752 1.350 . S
C756 C753 1.463 . S
C756 N760 1.427 . S
C757 H747 0.929 . S
C757 C755 1.433 . S
C757 N760 1.384 . S
C758 H749 0.929 . S
C758 C750 1.378 . S
C758 C753 1.350 . S
C759 H746 0.929 . S
C759 C751 1.433 . S
C759 N761 1.384 . S
N760 C756 1.427 . S
N760 C757 1.384 . S
N761 C753 1.427 . S
N761 C759 1.384 . S
H762 C768 0.930 . S
H763 C772 0.930 . S
H764 C777 0.929 . S
H765 C775 0.929 . S
H766 C770 0.929 . S
H767 C776 0.929 . S
C768 H762 0.930 . S
C768 C769 1.367 . S
C768 C776 1.378 . S
C769 C768 1.367 . S
C769 C777 1.433 . S
C770 H766 0.929 . S
C770 C772 1.378 . S
C770 C774 1.350 . S
C771 C774 1.463 . S
C771 C776 1.350 . S
C771 N779 1.427 . S
C772 H763 0.930 . S
C772 C770 1.378 . S
C772 C773 1.367 . S
C773 C772 1.367 . S
C773 C775 1.433 . S
C774 C770 1.350 . S
C774 C771 1.463 . S
C774 N778 1.427 . S
C775 H765 0.929 . S
C775 C773 1.433 . S
C775 N778 1.384 . S
C776 H767 0.929 . S
C776 C768 1.378 . S
C776 C771 1.350 . S
C777 H764 0.929 . S
C777 C769 1.433 . S
C777 N779 1.384 . S
N778 C774 1.427 . S
N778 C775 1.384 . S
N779 C771 1.427 . S
N779 C777 1.384 . S
H780 C786 0.930 . S
H781 C790 0.930 . S
H782 C795 0.929 . S
H783 C793 0.929 . S
H784 C788 0.929 . S
H785 C794 0.929 . S
C786 H780 0.930 . S
C786 C787 1.367 . S
C786 C794 1.378 . S
C787 C786 1.367 . S
C787 C795 1.433 . S
C788 H784 0.929 . S
C788 C790 1.378 . S
C788 C792 1.350 . S
C789 C792 1.463 . S
C789 C794 1.350 . S
C789 N797 1.427 . S
C790 H781 0.930 . S
C790 C788 1.378 . S
C790 C791 1.367 . S
C791 C790 1.367 . S
C791 C793 1.433 1_556 S
C792 C788 1.350 . S
C792 C789 1.463 . S
C792 N796 1.427 . S
C793 H783 0.929 . S
C793 C791 1.433 1_554 S
C793 N796 1.384 1_554 S
C794 H785 0.929 . S
C794 C786 1.378 . S
C794 C789 1.350 . S
C795 H782 0.929 . S
C795 C787 1.433 . S
C795 N797 1.384 . S
N796 C792 1.427 . S
N796 C793 1.384 1_556 S
N797 C789 1.427 . S
N797 C795 1.384 . S
H798 C804 0.930 . S
H799 C808 0.930 . S
H800 C813 0.929 . S
H801 C811 0.929 . S
H802 C806 0.929 . S
H803 C812 0.929 . S
C804 H798 0.930 . S
C804 C805 1.367 . S
C804 C812 1.378 . S
C805 C804 1.367 . S
C805 C813 1.433 . S
C806 H802 0.929 . S
C806 C808 1.378 . S
C806 C810 1.350 . S
C807 C810 1.463 . S
C807 C812 1.350 . S
C807 N815 1.427 . S
C808 H799 0.930 . S
C808 C806 1.378 . S
C808 C809 1.367 . S
C809 C808 1.367 . S
C809 C811 1.433 . S
C810 C806 1.350 . S
C810 C807 1.463 . S
C810 N814 1.427 . S
C811 H801 0.929 . S
C811 C809 1.433 . S
C811 N814 1.384 . S
C812 H803 0.929 . S
C812 C804 1.378 . S
C812 C807 1.350 . S
C813 H800 0.929 . S
C813 C805 1.433 . S
C813 N815 1.384 . S
N814 C810 1.427 . S
N814 C811 1.384 . S
N815 C807 1.427 . S
N815 C813 1.384 . S
H816 C822 0.930 . S
H817 C826 0.930 . S
H818 C831 0.929 . S
H819 C829 0.929 . S
H820 C824 0.929 . S
H821 C830 0.928 1_545 S
C822 H816 0.930 . S
C822 C823 1.367 . S
C822 C830 1.398 . S
C823 C822 1.367 . S
C823 C831 1.433 . S
C824 H820 0.929 . S
C824 C826 1.378 . S
C824 C828 1.350 . S
C825 C828 1.463 . S
C825 C830 1.331 1_545 S
C825 N833 1.427 . S
C826 H817 0.930 . S
C826 C824 1.378 . S
C826 C827 1.367 . S
C827 C826 1.367 . S
C827 C829 1.433 . S
C828 C824 1.350 . S
C828 C825 1.463 . S
C828 N832 1.427 . S
C829 H819 0.929 . S
C829 C827 1.433 . S
C829 N832 1.384 . S
C830 H821 0.928 1_565 S
C830 C822 1.398 . S
C830 C825 1.331 1_565 S
C831 H818 0.929 . S
C831 C823 1.433 . S
C831 N833 1.384 1_565 S
N832 C828 1.427 . S
N832 C829 1.384 . S
N833 C825 1.427 . S
N833 C831 1.384 1_545 S
H834 C840 0.930 . S
H835 C844 0.930 . S
H836 C849 0.929 . S
H837 C847 0.929 . S
H838 C842 0.929 . S
H839 C848 0.929 . S
C840 H834 0.930 . S
C840 C841 1.367 . S
C840 C848 1.378 . S
C841 C840 1.367 . S
C841 C849 1.433 . S
C842 H838 0.929 . S
C842 C844 1.378 . S
C842 C846 1.350 . S
C843 C846 1.463 . S
C843 C848 1.350 . S
C843 N851 1.427 . S
C844 H835 0.930 . S
C844 C842 1.378 . S
C844 C845 1.367 . S
C845 C844 1.367 . S
C845 C847 1.433 . S
C846 C842 1.350 . S
C846 C843 1.463 . S
C846 N850 1.427 . S
C847 H837 0.929 . S
C847 C845 1.433 . S
C847 N850 1.384 . S
C848 H839 0.929 . S
C848 C840 1.378 . S
C848 C843 1.350 . S
C849 H836 0.929 . S
C849 C841 1.433 . S
C849 N851 1.384 . S
N850 C846 1.427 . S
N850 C847 1.384 . S
N851 C843 1.427 . S
N851 C849 1.384 . S
H852 C858 0.930 . S
H853 C862 0.930 . S
H854 C867 0.929 . S
H855 C865 0.929 . S
H856 C860 0.929 . S
H857 C866 0.929 . S
C858 H852 0.930 . S
C858 C859 1.367 . S
C858 C866 1.378 . S
C859 C858 1.367 . S
C859 C867 1.433 . S
C860 H856 0.929 . S
C860 C862 1.378 . S
C860 C864 1.350 1_545 S
C861 C864 1.463 . S
C861 C866 1.350 . S
C861 N869 1.427 . S
C862 H853 0.930 . S
C862 C860 1.378 . S
C862 C863 1.367 . S
C863 C862 1.367 . S
C863 C865 1.458 1_554 S
C864 C860 1.350 1_565 S
C864 C861 1.463 . S
C864 N868 1.427 . S
C865 H855 0.929 . S
C865 C863 1.458 1_556 S
C865 N868 1.359 1_546 S
C866 H857 0.929 . S
C866 C858 1.378 . S
C866 C861 1.350 . S
C867 H854 0.929 . S
C867 C859 1.433 . S
C867 N869 1.384 . S
N868 C864 1.427 . S
N868 C865 1.359 1_564 S
N869 C861 1.427 . S
N869 C867 1.384 . S
H870 C876 0.930 . S
H871 C880 0.930 . S
H872 C885 0.929 . S
H873 C883 0.929 . S
H874 C878 0.929 . S
H875 C884 0.929 . S
C876 H870 0.930 . S
C876 C877 1.367 . S
C876 C884 1.378 . S
C877 C876 1.367 . S
C877 C885 1.433 . S
C878 H874 0.929 . S
C878 C880 1.378 . S
C878 C882 1.350 . S
C879 C882 1.463 . S
C879 C884 1.350 . S
C879 N887 1.427 . S
C880 H871 0.930 . S
C880 C878 1.378 . S
C880 C881 1.367 . S
C881 C880 1.367 . S
C881 C883 1.433 . S
C882 C878 1.350 . S
C882 C879 1.463 . S
C882 N886 1.427 . S
C883 H873 0.929 . S
C883 C881 1.433 . S
C883 N886 1.384 . S
C884 H875 0.929 . S
C884 C876 1.378 . S
C884 C879 1.350 . S
C885 H872 0.929 . S
C885 C877 1.433 . S
C885 N887 1.384 . S
N886 C882 1.427 . S
N886 C883 1.384 . S
N887 C879 1.427 . S
N887 C885 1.384 . S
H888 C894 0.930 . S
H889 C898 0.930 . S
H890 C903 0.929 . S
H891 C901 0.929 . S
H892 C896 0.929 . S
H893 C902 0.929 . S
C894 H888 0.930 . S
C894 C895 1.367 . S
C894 C902 1.378 . S
C895 C894 1.367 . S
C895 C903 1.433 . S
C896 H892 0.929 . S
C896 C898 1.378 . S
C896 C900 1.350 . S
C897 C900 1.463 . S
C897 C902 1.350 . S
C897 N905 1.427 . S
C898 H889 0.930 . S
C898 C896 1.378 . S
C898 C899 1.367 . S
C899 C898 1.367 . S
C899 C901 1.433 . S
C900 C896 1.350 . S
C900 C897 1.463 . S
C900 N904 1.427 . S
C901 H891 0.929 . S
C901 C899 1.433 . S
C901 N904 1.384 . S
C902 H893 0.929 . S
C902 C894 1.378 . S
C902 C897 1.350 . S
C903 H890 0.929 . S
C903 C895 1.433 . S
C903 N905 1.384 . S
N904 C900 1.427 . S
N904 C901 1.384 . S
N905 C897 1.427 . S
N905 C903 1.384 . S
H906 C912 0.930 . S
H907 C916 0.930 . S
H908 C921 0.929 . S
H909 C919 0.929 . S
H910 C914 0.929 . S
H911 C920 0.929 . S
C912 H906 0.930 . S
C912 C913 1.367 . S
C912 C920 1.378 . S
C913 C912 1.367 . S
C913 C921 1.433 . S
C914 H910 0.929 . S
C914 C916 1.378 . S
C914 C918 1.350 . S
C915 C918 1.463 . S
C915 C920 1.350 . S
C915 N923 1.427 . S
C916 H907 0.930 . S
C916 C914 1.378 . S
C916 C917 1.367 . S
C917 C916 1.367 . S
C917 C919 1.433 . S
C918 C914 1.350 . S
C918 C915 1.463 . S
C918 N922 1.427 . S
C919 H909 0.929 . S
C919 C917 1.433 . S
C919 N922 1.384 . S
C920 H911 0.929 . S
C920 C912 1.378 . S
C920 C915 1.350 . S
C921 H908 0.929 . S
C921 C913 1.433 . S
C921 N923 1.384 . S
N922 C918 1.427 . S
N922 C919 1.384 . S
N923 C915 1.427 . S
N923 C921 1.384 . S
H924 C930 0.930 . S
H925 C934 0.930 . S
H926 C939 0.929 . S
H927 C937 0.930 . S
H928 C932 0.929 . S
H929 C938 0.929 . S
C930 H924 0.930 . S
C930 C931 1.367 . S
C930 C938 1.378 . S
C931 C930 1.367 . S
C931 C939 1.433 . S
C932 H928 0.929 . S
C932 C934 1.378 . S
C932 C936 1.350 1_554 S
C933 C936 1.463 . S
C933 C938 1.350 . S
C933 N941 1.427 . S
C934 H925 0.930 . S
C934 C932 1.378 . S
C934 C935 1.367 . S
C935 C934 1.367 . S
C935 C937 1.415 1_454 S
C936 C932 1.350 1_556 S
C936 C933 1.463 . S
C936 N940 1.427 . S
C937 H927 0.930 . S
C937 C935 1.415 1_656 S
C937 N940 1.401 1_655 S
C938 H929 0.929 . S
C938 C930 1.378 . S
C938 C933 1.350 . S
C939 H926 0.929 . S
C939 C931 1.433 . S
C939 N941 1.384 . S
N940 C936 1.427 . S
N940 C937 1.401 1_455 S
N941 C933 1.427 . S
N941 C939 1.384 . S
H942 C948 0.930 . S
H943 C952 0.930 . S
H944 C957 0.929 . S
H945 C955 0.929 . S
H946 C950 0.929 . S
H947 C956 0.929 . S
C948 H942 0.930 . S
C948 C949 1.367 . S
C948 C956 1.378 . S
C949 C948 1.367 . S
C949 C957 1.433 . S
C950 H946 0.929 . S
C950 C952 1.378 . S
C950 C954 1.350 . S
C951 C954 1.463 . S
C951 C956 1.350 . S
C951 N959 1.427 . S
C952 H943 0.930 . S
C952 C950 1.378 . S
C952 C953 1.367 . S
C953 C952 1.367 . S
C953 C955 1.433 . S
C954 C950 1.350 . S
C954 C951 1.463 . S
C954 N958 1.427 . S
C955 H945 0.929 . S
C955 C953 1.433 . S
C955 N958 1.384 . S
C956 H947 0.929 . S
C956 C948 1.378 . S
C956 C951 1.350 . S
C957 H944 0.929 . S
C957 C949 1.433 . S
C957 N959 1.384 . S
N958 C954 1.427 . S
N958 C955 1.384 . S
N959 C951 1.427 . S
N959 C957 1.384 . S
H960 C966 0.930 1_455 S
H961 C970 0.930 . S
H962 C975 0.929 . S
H963 C973 0.929 . S
H964 C968 0.929 . S
H965 C974 0.929 . S
C966 H960 0.930 1_655 S
C966 C967 1.368 . S
C966 C974 1.378 . S
C967 C966 1.368 . S
C967 C975 1.445 . S
C968 H964 0.929 . S
C968 C970 1.378 . S
C968 C972 1.350 . S
C969 C972 1.463 . S
C969 C974 1.350 . S
C969 N977 1.427 . S
C970 H961 0.930 . S
C970 C968 1.378 . S
C970 C971 1.367 . S
C971 C970 1.367 . S
C971 C973 1.433 . S
C972 C968 1.350 . S
C972 C969 1.463 . S
C972 N976 1.427 . S
C973 H963 0.929 . S
C973 C971 1.433 . S
C973 N976 1.384 . S
C974 H965 0.929 . S
C974 C966 1.378 . S
C974 C969 1.350 . S
C975 H962 0.929 . S
C975 C967 1.445 . S
C975 N977 1.384 . S
N976 C972 1.427 . S
N976 C973 1.384 . S
N977 C969 1.427 . S
N977 C975 1.384 . S
H978 C984 0.930 . S
H979 C988 0.930 . S
H980 C993 0.929 . S
H981 C991 0.929 . S
H982 C986 0.929 . S
H983 C992 0.929 . S
C984 H978 0.930 . S
C984 C985 1.367 . S
C984 C992 1.378 . S
C985 C984 1.367 . S
C985 C993 1.433 . S
C986 H982 0.929 . S
C986 C988 1.378 . S
C986 C990 1.350 . S
C987 C990 1.463 . S
C987 C992 1.350 . S
C987 N995 1.427 . S
C988 H979 0.930 . S
C988 C986 1.378 . S
C988 C989 1.367 . S
C989 C988 1.367 . S
C989 C991 1.433 . S
C990 C986 1.350 . S
C990 C987 1.463 . S
C990 N994 1.427 . S
C991 H981 0.929 . S
C991 C989 1.433 . S
C991 N994 1.384 . S
C992 H983 0.929 . S
C992 C984 1.378 . S
C992 C987 1.350 . S
C993 H980 0.929 . S
C993 C985 1.433 . S
C993 N995 1.384 . S
N994 C990 1.427 . S
N994 C991 1.384 . S
N995 C987 1.427 . S
N995 C993 1.384 . S
H996 C1002 0.930 . S
H997 C1006 0.930 . S
H998 C1011 0.929 . S
H999 C1009 0.929 . S
H1000 C1004 0.929 . S
H1001 C1010 0.929 . S
C1002 H996 0.930 . S
C1002 C1003 1.367 . S
C1002 C1010 1.378 . S
C1003 C1002 1.367 . S
C1003 C1011 1.433 . S
C1004 H1000 0.929 . S
C1004 C1006 1.378 1_554 S
C1004 C1008 1.350 . S
C1005 C1008 1.463 . S
C1005 C1010 1.350 . S
C1005 N1013 1.427 . S
C1006 H997 0.930 . S
C1006 C1004 1.378 1_556 S
C1006 C1007 1.367 . S
C1007 C1006 1.367 . S
C1007 C1009 1.433 . S
C1008 C1004 1.350 . S
C1008 C1005 1.463 . S
C1008 N1012 1.427 . S
C1009 H999 0.929 . S
C1009 C1007 1.433 . S
C1009 N1012 1.384 1_556 S
C1010 H1001 0.929 . S
C1010 C1002 1.378 . S
C1010 C1005 1.350 . S
C1011 H998 0.929 . S
C1011 C1003 1.433 . S
C1011 N1013 1.384 . S
N1012 C1008 1.427 . S
N1012 C1009 1.384 1_554 S
N1013 C1005 1.427 . S
N1013 C1011 1.384 . S
H1014 C1020 0.930 . S
H1015 C1024 0.930 . S
H1016 C1029 0.929 . S
H1017 C1027 0.929 . S
H1018 C1022 0.929 . S
H1019 C1028 0.929 . S
C1020 H1014 0.930 . S
C1020 C1021 1.367 . S
C1020 C1028 1.378 . S
C1021 C1020 1.367 . S
C1021 C1029 1.433 . S
C1022 H1018 0.929 . S
C1022 C1024 1.378 . S
C1022 C1026 1.350 . S
C1023 C1026 1.463 . S
C1023 C1028 1.350 . S
C1023 N1031 1.427 . S
C1024 H1015 0.930 . S
C1024 C1022 1.378 . S
C1024 C1025 1.367 . S
C1025 C1024 1.367 . S
C1025 C1027 1.433 . S
C1026 C1022 1.350 . S
C1026 C1023 1.463 . S
C1026 N1030 1.427 . S
C1027 H1017 0.929 . S
C1027 C1025 1.433 . S
C1027 N1030 1.384 . S
C1028 H1019 0.929 . S
C1028 C1020 1.378 . S
C1028 C1023 1.350 . S
C1029 H1016 0.929 . S
C1029 C1021 1.433 . S
C1029 N1031 1.384 . S
N1030 C1026 1.427 . S
N1030 C1027 1.384 . S
N1031 C1023 1.427 . S
N1031 C1029 1.384 . S
H1032 C1038 0.930 . S
H1033 C1042 0.930 . S
H1034 C1047 0.929 . S
H1035 C1045 0.929 . S
H1036 C1040 0.929 . S
H1037 C1046 0.929 . S
C1038 H1032 0.930 . S
C1038 C1039 1.367 . S
C1038 C1046 1.378 . S
C1039 C1038 1.367 . S
C1039 C1047 1.433 . S
C1040 H1036 0.929 . S
C1040 C1042 1.378 . S
C1040 C1044 1.350 . S
C1041 C1044 1.463 . S
C1041 C1046 1.350 . S
C1041 N1049 1.427 . S
C1042 H1033 0.930 . S
C1042 C1040 1.378 . S
C1042 C1043 1.367 . S
C1043 C1042 1.367 . S
C1043 C1045 1.433 . S
C1044 C1040 1.350 . S
C1044 C1041 1.463 . S
C1044 N1048 1.427 . S
C1045 H1035 0.929 . S
C1045 C1043 1.433 . S
C1045 N1048 1.384 . S
C1046 H1037 0.929 . S
C1046 C1038 1.378 . S
C1046 C1041 1.350 . S
C1047 H1034 0.929 . S
C1047 C1039 1.433 . S
C1047 N1049 1.384 . S
N1048 C1044 1.427 . S
N1048 C1045 1.384 . S
N1049 C1041 1.427 . S
N1049 C1047 1.384 . S
H1050 C1056 0.930 . S
H1051 C1060 0.930 . S
H1052 C1065 0.929 1_565 S
H1053 C1063 0.929 . S
H1054 C1058 0.929 . S
H1055 C1064 0.929 . S
C1056 H1050 0.930 . S
C1056 C1057 1.387 . S
C1056 C1064 1.378 1_455 S
C1057 C1056 1.387 . S
C1057 C1065 1.434 . S
C1058 H1054 0.929 . S
C1058 C1060 1.378 . S
C1058 C1062 1.350 . S
C1059 C1062 1.463 . S
C1059 C1064 1.350 . S
C1059 N1067 1.427 . S
C1060 H1051 0.930 . S
C1060 C1058 1.378 . S
C1060 C1061 1.367 . S
C1061 C1060 1.367 . S
C1061 C1063 1.433 . S
C1062 C1058 1.350 . S
C1062 C1059 1.463 . S
C1062 N1066 1.427 . S
C1063 H1053 0.929 . S
C1063 C1061 1.433 . S
C1063 N1066 1.384 . S
C1064 H1055 0.929 . S
C1064 C1056 1.378 1_655 S
C1064 C1059 1.350 . S
C1065 H1052 0.929 1_545 S
C1065 C1057 1.434 . S
C1065 N1067 1.384 1_455 S
N1066 C1062 1.427 . S
N1066 C1063 1.384 . S
N1067 C1059 1.427 . S
N1067 C1065 1.384 1_655 S
H1068 C1074 0.930 . S
H1069 C1078 0.930 . S
H1070 C1083 0.929 . S
H1071 C1081 0.929 . S
H1072 C1076 0.929 . S
H1073 C1082 0.929 . S
C1074 H1068 0.930 . S
C1074 C1075 1.367 . S
C1074 C1082 1.378 . S
C1075 C1074 1.367 . S
C1075 C1083 1.433 . S
C1076 H1072 0.929 . S
C1076 C1078 1.378 . S
C1076 C1080 1.350 . S
C1077 C1080 1.463 . S
C1077 C1082 1.350 . S
C1077 N1085 1.427 . S
C1078 H1069 0.930 . S
C1078 C1076 1.378 . S
C1078 C1079 1.367 . S
C1079 C1078 1.367 . S
C1079 C1081 1.433 . S
C1080 C1076 1.350 . S
C1080 C1077 1.463 . S
C1080 N1084 1.427 . S
C1081 H1071 0.929 . S
C1081 C1079 1.433 . S
C1081 N1084 1.384 . S
C1082 H1073 0.929 . S
C1082 C1074 1.378 . S
C1082 C1077 1.350 . S
C1083 H1070 0.929 . S
C1083 C1075 1.433 . S
C1083 N1085 1.384 . S
N1084 C1080 1.427 . S
N1084 C1081 1.384 . S
N1085 C1077 1.427 . S
N1085 C1083 1.384 . S
H1086 C1092 0.930 . S
H1087 C1096 0.930 . S
H1088 C1101 0.929 . S
H1089 C1099 0.929 . S
H1090 C1094 0.929 . S
H1091 C1100 0.929 . S
C1092 H1086 0.930 . S
C1092 C1093 1.367 . S
C1092 C1100 1.378 . S
C1093 C1092 1.367 . S
C1093 C1101 1.433 1_565 S
C1094 H1090 0.929 . S
C1094 C1096 1.378 . S
C1094 C1098 1.350 . S
C1095 C1098 1.463 . S
C1095 C1100 1.350 . S
C1095 N1103 1.427 . S
C1096 H1087 0.930 . S
C1096 C1094 1.378 . S
C1096 C1097 1.367 . S
C1097 C1096 1.367 . S
C1097 C1099 1.433 . S
C1098 C1094 1.350 . S
C1098 C1095 1.463 . S
C1098 N1102 1.427 . S
C1099 H1089 0.929 . S
C1099 C1097 1.433 . S
C1099 N1102 1.384 . S
C1100 H1091 0.929 . S
C1100 C1092 1.378 . S
C1100 C1095 1.350 . S
C1101 H1088 0.929 . S
C1101 C1093 1.433 1_545 S
C1101 N1103 1.384 1_545 S
N1102 C1098 1.427 . S
N1102 C1099 1.384 . S
N1103 C1095 1.427 . S
N1103 C1101 1.384 1_565 S
H1104 C1110 0.930 . S
H1105 C1114 0.930 . S
H1106 C1119 0.929 . S
H1107 C1117 0.929 . S
H1108 C1112 0.929 . S
H1109 C1118 0.929 . S
C1110 H1104 0.930 . S
C1110 C1111 1.367 . S
C1110 C1118 1.378 . S
C1111 C1110 1.367 . S
C1111 C1119 1.433 . S
C1112 H1108 0.929 . S
C1112 C1114 1.378 . S
C1112 C1116 1.350 . S
C1113 C1116 1.463 . S
C1113 C1118 1.350 . S
C1113 N1121 1.427 . S
C1114 H1105 0.930 . S
C1114 C1112 1.378 . S
C1114 C1115 1.367 . S
C1115 C1114 1.367 . S
C1115 C1117 1.433 . S
C1116 C1112 1.350 . S
C1116 C1113 1.463 . S
C1116 N1120 1.427 . S
C1117 H1107 0.929 . S
C1117 C1115 1.433 . S
C1117 N1120 1.384 . S
C1118 H1109 0.929 . S
C1118 C1110 1.378 . S
C1118 C1113 1.350 . S
C1119 H1106 0.929 . S
C1119 C1111 1.433 . S
C1119 N1121 1.384 . S
N1120 C1116 1.427 . S
N1120 C1117 1.384 . S
N1121 C1113 1.427 . S
N1121 C1119 1.384 . S
H1122 C1128 0.930 . S
H1123 C1132 0.930 . S
H1124 C1137 0.929 . S
H1125 C1135 0.929 . S
H1126 C1130 0.929 . S
H1127 C1136 0.929 . S
C1128 H1122 0.930 . S
C1128 C1129 1.367 . S
C1128 C1136 1.378 1_655 S
C1129 C1128 1.367 . S
C1129 C1137 1.433 . S
C1130 H1126 0.929 . S
C1130 C1132 1.378 . S
C1130 C1134 1.350 . S
C1131 C1134 1.463 . S
C1131 C1136 1.350 . S
C1131 N1139 1.427 1_455 S
C1132 H1123 0.930 . S
C1132 C1130 1.378 . S
C1132 C1133 1.367 . S
C1133 C1132 1.367 . S
C1133 C1135 1.433 . S
C1134 C1130 1.350 . S
C1134 C1131 1.463 . S
C1134 N1138 1.427 . S
C1135 H1125 0.929 . S
C1135 C1133 1.433 . S
C1135 N1138 1.384 . S
C1136 H1127 0.929 . S
C1136 C1128 1.378 1_455 S
C1136 C1131 1.350 . S
C1137 H1124 0.929 . S
C1137 C1129 1.433 . S
C1137 N1139 1.384 . S
N1138 C1134 1.427 . S
N1138 C1135 1.384 . S
N1139 C1131 1.427 1_655 S
N1139 C1137 1.384 . S
H1140 C1146 0.930 . S
H1141 C1150 0.930 . S
H1142 C1155 0.929 . S
H1143 C1153 0.929 . S
H1144 C1148 0.929 . S
H1145 C1154 0.929 . S
C1146 H1140 0.930 . S
C1146 C1147 1.367 . S
C1146 C1154 1.378 . S
C1147 C1146 1.367 . S
C1147 C1155 1.433 . S
C1148 H1144 0.929 . S
C1148 C1150 1.378 . S
C1148 C1152 1.350 . S
C1149 C1152 1.463 . S
C1149 C1154 1.350 . S
C1149 N1157 1.427 . S
C1150 H1141 0.930 . S
C1150 C1148 1.378 . S
C1150 C1151 1.367 . S
C1151 C1150 1.367 . S
C1151 C1153 1.433 . S
C1152 C1148 1.350 . S
C1152 C1149 1.463 . S
C1152 N1156 1.427 . S
C1153 H1143 0.929 . S
C1153 C1151 1.433 . S
C1153 N1156 1.384 . S
C1154 H1145 0.929 . S
C1154 C1146 1.378 . S
C1154 C1149 1.350 . S
C1155 H1142 0.929 . S
C1155 C1147 1.433 . S
C1155 N1157 1.384 . S
N1156 C1152 1.427 . S
N1156 C1153 1.384 . S
N1157 C1149 1.427 . S
N1157 C1155 1.384 . S
H1158 C1164 0.930 . S
H1159 C1168 0.930 . S
H1160 C1173 0.929 . S
H1161 C1171 0.929 . S
H1162 C1166 0.929 . S
H1163 C1172 0.929 . S
C1164 H1158 0.930 . S
C1164 C1165 1.367 . S
C1164 C1172 1.378 . S
C1165 C1164 1.367 . S
C1165 C1173 1.433 . S
C1166 H1162 0.929 . S
C1166 C1168 1.378 . S
C1166 C1170 1.350 . S
C1167 C1170 1.463 . S
C1167 C1172 1.350 . S
C1167 N1175 1.427 . S
C1168 H1159 0.930 . S
C1168 C1166 1.378 . S
C1168 C1169 1.367 . S
C1169 C1168 1.367 . S
C1169 C1171 1.433 . S
C1170 C1166 1.350 . S
C1170 C1167 1.463 . S
C1170 N1174 1.427 . S
C1171 H1161 0.929 . S
C1171 C1169 1.433 . S
C1171 N1174 1.384 . S
C1172 H1163 0.929 . S
C1172 C1164 1.378 . S
C1172 C1167 1.350 . S
C1173 H1160 0.929 . S
C1173 C1165 1.433 . S
C1173 N1175 1.384 . S
N1174 C1170 1.427 . S
N1174 C1171 1.384 . S
N1175 C1167 1.427 . S
N1175 C1173 1.384 . S
H1176 C1182 0.930 . S
H1177 C1186 0.930 . S
H1178 C1191 0.929 . S
H1179 C1189 0.929 . S
H1180 C1184 0.929 . S
H1181 C1190 0.929 . S
C1182 H1176 0.930 . S
C1182 C1183 1.367 . S
C1182 C1190 1.378 . S
C1183 C1182 1.367 . S
C1183 C1191 1.433 . S
C1184 H1180 0.929 . S
C1184 C1186 1.378 . S
C1184 C1188 1.350 . S
C1185 C1188 1.463 . S
C1185 C1190 1.350 . S
C1185 N1193 1.427 . S
C1186 H1177 0.930 . S
C1186 C1184 1.378 . S
C1186 C1187 1.367 . S
C1187 C1186 1.367 . S
C1187 C1189 1.433 . S
C1188 C1184 1.350 . S
C1188 C1185 1.463 . S
C1188 N1192 1.427 . S
C1189 H1179 0.929 . S
C1189 C1187 1.433 . S
C1189 N1192 1.384 . S
C1190 H1181 0.929 . S
C1190 C1182 1.378 . S
C1190 C1185 1.350 . S
C1191 H1178 0.929 . S
C1191 C1183 1.433 . S
C1191 N1193 1.384 . S
N1192 C1188 1.427 . S
N1192 C1189 1.384 . S
N1193 C1185 1.427 . S
N1193 C1191 1.384 . S
H1194 C1200 0.930 . S
H1195 C1204 0.930 . S
H1196 C1209 0.929 . S
H1197 C1207 0.929 . S
H1198 C1202 0.929 . S
H1199 C1208 0.929 . S
C1200 H1194 0.930 . S
C1200 C1201 1.367 . S
C1200 C1208 1.378 . S
C1201 C1200 1.367 . S
C1201 C1209 1.433 . S
C1202 H1198 0.929 . S
C1202 C1204 1.378 . S
C1202 C1206 1.350 . S
C1203 C1206 1.463 . S
C1203 C1208 1.350 . S
C1203 N1211 1.427 . S
C1204 H1195 0.930 . S
C1204 C1202 1.378 . S
C1204 C1205 1.367 . S
C1205 C1204 1.367 . S
C1205 C1207 1.433 . S
C1206 C1202 1.350 . S
C1206 C1203 1.463 . S
C1206 N1210 1.427 . S
C1207 H1197 0.929 . S
C1207 C1205 1.433 . S
C1207 N1210 1.384 . S
C1208 H1199 0.929 . S
C1208 C1200 1.378 . S
C1208 C1203 1.350 . S
C1209 H1196 0.929 . S
C1209 C1201 1.433 . S
C1209 N1211 1.384 . S
N1210 C1206 1.427 . S
N1210 C1207 1.384 . S
N1211 C1203 1.427 . S
N1211 C1209 1.384 . S
H1212 C1218 0.930 . S
H1213 C1222 0.930 . S
H1214 C1227 0.929 . S
H1215 C1225 0.929 . S
H1216 C1220 0.929 . S
H1217 C1226 0.929 . S
C1218 H1212 0.930 . S
C1218 C1219 1.367 . S
C1218 C1226 1.378 . S
C1219 C1218 1.367 . S
C1219 C1227 1.433 . S
C1220 H1216 0.929 . S
C1220 C1222 1.378 . S
C1220 C1224 1.350 . S
C1221 C1224 1.463 . S
C1221 C1226 1.350 . S
C1221 N1229 1.427 . S
C1222 H1213 0.930 . S
C1222 C1220 1.378 . S
C1222 C1223 1.367 . S
C1223 C1222 1.367 . S
C1223 C1225 1.433 . S
C1224 C1220 1.350 . S
C1224 C1221 1.463 . S
C1224 N1228 1.427 . S
C1225 H1215 0.929 . S
C1225 C1223 1.433 . S
C1225 N1228 1.384 . S
C1226 H1217 0.929 . S
C1226 C1218 1.378 . S
C1226 C1221 1.350 . S
C1227 H1214 0.929 . S
C1227 C1219 1.433 . S
C1227 N1229 1.384 . S
N1228 C1224 1.427 . S
N1228 C1225 1.384 . S
N1229 C1221 1.427 . S
N1229 C1227 1.384 . S
H1230 C1236 0.930 . S
H1231 C1240 0.930 . S
H1232 C1245 0.929 . S
H1233 C1243 0.929 . S
H1234 C1238 0.929 . S
H1235 C1244 0.929 . S
C1236 H1230 0.930 . S
C1236 C1237 1.367 . S
C1236 C1244 1.378 . S
C1237 C1236 1.367 . S
C1237 C1245 1.433 . S
C1238 H1234 0.929 . S
C1238 C1240 1.378 1_554 S
C1238 C1242 1.350 . S
C1239 C1242 1.463 . S
C1239 C1244 1.350 . S
C1239 N1247 1.427 . S
C1240 H1231 0.930 . S
C1240 C1238 1.378 1_556 S
C1240 C1241 1.367 . S
C1241 C1240 1.367 . S
C1241 C1243 1.433 . S
C1242 C1238 1.350 . S
C1242 C1239 1.463 . S
C1242 N1246 1.427 . S
C1243 H1233 0.929 . S
C1243 C1241 1.433 . S
C1243 N1246 1.384 1_556 S
C1244 H1235 0.929 . S
C1244 C1236 1.378 . S
C1244 C1239 1.350 . S
C1245 H1232 0.929 . S
C1245 C1237 1.433 . S
C1245 N1247 1.384 . S
N1246 C1242 1.427 . S
N1246 C1243 1.384 1_554 S
N1247 C1239 1.427 . S
N1247 C1245 1.384 . S
H1248 C1254 0.930 . S
H1249 C1258 0.930 . S
H1250 C1263 0.929 . S
H1251 C1261 0.929 . S
H1252 C1256 0.929 . S
H1253 C1262 0.929 . S
C1254 H1248 0.930 . S
C1254 C1255 1.367 . S
C1254 C1262 1.378 1_565 S
C1255 C1254 1.367 . S
C1255 C1263 1.433 1_565 S
C1256 H1252 0.929 . S
C1256 C1258 1.378 . S
C1256 C1260 1.350 . S
C1257 C1260 1.463 . S
C1257 C1262 1.350 . S
C1257 N1265 1.427 . S
C1258 H1249 0.930 . S
C1258 C1256 1.378 . S
C1258 C1259 1.367 . S
C1259 C1258 1.367 . S
C1259 C1261 1.433 . S
C1260 C1256 1.350 . S
C1260 C1257 1.463 . S
C1260 N1264 1.427 . S
C1261 H1251 0.929 . S
C1261 C1259 1.433 . S
C1261 N1264 1.384 . S
C1262 H1253 0.929 . S
C1262 C1254 1.378 1_545 S
C1262 C1257 1.350 . S
C1263 H1250 0.929 . S
C1263 C1255 1.433 1_545 S
C1263 N1265 1.384 . S
N1264 C1260 1.427 . S
N1264 C1261 1.384 . S
N1265 C1257 1.427 . S
N1265 C1263 1.384 . S
H1266 C1272 0.930 . S
H1267 C1276 0.930 . S
H1268 C1281 0.929 . S
H1269 C1279 0.929 . S
H1270 C1274 0.929 . S
H1271 C1280 0.929 . S
C1272 H1266 0.930 . S
C1272 C1273 1.367 . S
C1272 C1280 1.378 1_554 S
C1273 C1272 1.367 . S
C1273 C1281 1.433 . S
C1274 H1270 0.929 . S
C1274 C1276 1.378 . S
C1274 C1278 1.350 . S
C1275 C1278 1.463 . S
C1275 C1280 1.350 . S
C1275 N1283 1.427 1_556 S
C1276 H1267 0.930 . S
C1276 C1274 1.378 . S
C1276 C1277 1.367 . S
C1277 C1276 1.367 . S
C1277 C1279 1.433 . S
C1278 C1274 1.350 . S
C1278 C1275 1.463 . S
C1278 N1282 1.427 . S
C1279 H1269 0.929 . S
C1279 C1277 1.433 . S
C1279 N1282 1.384 . S
C1280 H1271 0.929 . S
C1280 C1272 1.378 1_556 S
C1280 C1275 1.350 . S
C1281 H1268 0.929 . S
C1281 C1273 1.433 . S
C1281 N1283 1.384 . S
N1282 C1278 1.427 . S
N1282 C1279 1.384 . S
N1283 C1275 1.427 1_554 S
N1283 C1281 1.384 . S
H1284 C1290 0.930 . S
H1285 C1294 0.930 . S
H1286 C1299 0.929 . S
H1287 C1297 0.929 . S
H1288 C1292 0.929 . S
H1289 C1298 0.929 . S
C1290 H1284 0.930 . S
C1290 C1291 1.367 1_565 S
C1290 C1298 1.378 . S
C1291 C1290 1.367 1_545 S
C1291 C1299 1.433 . S
C1292 H1288 0.929 . S
C1292 C1294 1.378 . S
C1292 C1296 1.350 . S
C1293 C1296 1.463 . S
C1293 C1298 1.350 . S
C1293 N1301 1.427 . S
C1294 H1285 0.930 . S
C1294 C1292 1.378 . S
C1294 C1295 1.367 . S
C1295 C1294 1.367 . S
C1295 C1297 1.433 . S
C1296 C1292 1.350 . S
C1296 C1293 1.463 . S
C1296 N1300 1.427 . S
C1297 H1287 0.929 . S
C1297 C1295 1.433 . S
C1297 N1300 1.384 . S
C1298 H1289 0.929 . S
C1298 C1290 1.378 . S
C1298 C1293 1.350 . S
C1299 H1286 0.929 . S
C1299 C1291 1.433 . S
C1299 N1301 1.384 1_545 S
N1300 C1296 1.427 . S
N1300 C1297 1.384 . S
N1301 C1293 1.427 . S
N1301 C1299 1.384 1_565 S
H1302 C1308 0.930 . S
H1303 C1312 0.930 . S
H1304 C1317 0.929 . S
H1305 C1315 0.929 . S
H1306 C1310 0.929 . S
H1307 C1316 0.929 . S
C1308 H1302 0.930 . S
C1308 C1309 1.367 . S
C1308 C1316 1.378 . S
C1309 C1308 1.367 . S
C1309 C1317 1.433 . S
C1310 H1306 0.929 . S
C1310 C1312 1.378 . S
C1310 C1314 1.350 . S
C1311 C1314 1.463 . S
C1311 C1316 1.350 . S
C1311 N1319 1.427 . S
C1312 H1303 0.930 . S
C1312 C1310 1.378 . S
C1312 C1313 1.367 . S
C1313 C1312 1.367 . S
C1313 C1315 1.433 . S
C1314 C1310 1.350 . S
C1314 C1311 1.463 . S
C1314 N1318 1.427 . S
C1315 H1305 0.929 . S
C1315 C1313 1.433 . S
C1315 N1318 1.384 . S
C1316 H1307 0.929 . S
C1316 C1308 1.378 . S
C1316 C1311 1.350 . S
C1317 H1304 0.929 . S
C1317 C1309 1.433 . S
C1317 N1319 1.384 . S
N1318 C1314 1.427 . S
N1318 C1315 1.384 . S
N1319 C1311 1.427 . S
N1319 C1317 1.384 . S
H1320 C1326 0.930 . S
H1321 C1330 0.930 . S
H1322 C1335 0.929 . S
H1323 C1333 0.929 . S
H1324 C1328 0.929 . S
H1325 C1334 0.929 . S
C1326 H1320 0.930 . S
C1326 C1327 1.367 . S
C1326 C1334 1.378 . S
C1327 C1326 1.367 . S
C1327 C1335 1.433 . S
C1328 H1324 0.929 . S
C1328 C1330 1.378 . S
C1328 C1332 1.350 . S
C1329 C1332 1.463 . S
C1329 C1334 1.350 . S
C1329 N1337 1.427 . S
C1330 H1321 0.930 . S
C1330 C1328 1.378 . S
C1330 C1331 1.367 . S
C1331 C1330 1.367 . S
C1331 C1333 1.433 . S
C1332 C1328 1.350 . S
C1332 C1329 1.463 . S
C1332 N1336 1.427 . S
C1333 H1323 0.929 . S
C1333 C1331 1.433 . S
C1333 N1336 1.384 . S
C1334 H1325 0.929 . S
C1334 C1326 1.378 . S
C1334 C1329 1.350 . S
C1335 H1322 0.929 . S
C1335 C1327 1.433 . S
C1335 N1337 1.384 . S
N1336 C1332 1.427 . S
N1336 C1333 1.384 . S
N1337 C1329 1.427 . S
N1337 C1335 1.384 . S
H1338 C1344 0.930 . S
H1339 C1348 0.930 . S
H1340 C1353 0.929 . S
H1341 C1351 0.929 . S
H1342 C1346 0.929 . S
H1343 C1352 0.929 . S
C1344 H1338 0.930 . S
C1344 C1345 1.367 . S
C1344 C1352 1.378 . S
C1345 C1344 1.367 . S
C1345 C1353 1.433 1_565 S
C1346 H1342 0.929 . S
C1346 C1348 1.378 . S
C1346 C1350 1.350 . S
C1347 C1350 1.463 . S
C1347 C1352 1.350 1_545 S
C1347 N1355 1.427 . S
C1348 H1339 0.930 . S
C1348 C1346 1.378 . S
C1348 C1349 1.367 . S
C1349 C1348 1.367 . S
C1349 C1351 1.433 . S
C1350 C1346 1.350 . S
C1350 C1347 1.463 . S
C1350 N1354 1.427 . S
C1351 H1341 0.929 . S
C1351 C1349 1.433 . S
C1351 N1354 1.384 . S
C1352 H1343 0.929 . S
C1352 C1344 1.378 . S
C1352 C1347 1.350 1_565 S
C1353 H1340 0.929 . S
C1353 C1345 1.433 1_545 S
C1353 N1355 1.384 . S
N1354 C1350 1.427 . S
N1354 C1351 1.384 . S
N1355 C1347 1.427 . S
N1355 C1353 1.384 . S
H1356 C1362 0.930 . S
H1357 C1366 0.930 1_554 S
H1358 C1371 0.929 . S
H1359 C1369 0.929 . S
H1360 C1364 0.929 . S
H1361 C1370 0.929 . S
C1362 H1356 0.930 . S
C1362 C1363 1.367 . S
C1362 C1370 1.378 . S
C1363 C1362 1.367 . S
C1363 C1371 1.433 . S
C1364 H1360 0.929 . S
C1364 C1366 1.382 . S
C1364 C1368 1.350 . S
C1365 C1368 1.463 . S
C1365 C1370 1.350 . S
C1365 N1373 1.427 . S
C1366 H1357 0.930 1_556 S
C1366 C1364 1.382 . S
C1366 C1367 1.363 1_556 S
C1367 C1366 1.363 1_554 S
C1367 C1369 1.433 . S
C1368 C1364 1.350 . S
C1368 C1365 1.463 . S
C1368 N1372 1.427 . S
C1369 H1359 0.929 . S
C1369 C1367 1.433 . S
C1369 N1372 1.384 1_554 S
C1370 H1361 0.929 . S
C1370 C1362 1.378 . S
C1370 C1365 1.350 . S
C1371 H1358 0.929 . S
C1371 C1363 1.433 . S
C1371 N1373 1.384 . S
N1372 C1368 1.427 . S
N1372 C1369 1.384 1_556 S
N1373 C1365 1.427 . S
N1373 C1371 1.384 . S
H1374 C1380 0.930 . S
H1375 C1384 0.930 . S
H1376 C1389 0.929 . S
H1377 C1387 0.929 . S
H1378 C1382 0.929 . S
H1379 C1388 0.929 1_545 S
C1380 H1374 0.930 . S
C1380 C1381 1.367 . S
C1380 C1388 1.378 . S
C1381 C1380 1.367 . S
C1381 C1389 1.433 . S
C1382 H1378 0.929 . S
C1382 C1384 1.378 . S
C1382 C1386 1.350 . S
C1383 C1386 1.463 . S
C1383 C1388 1.350 . S
C1383 N1391 1.427 . S
C1384 H1375 0.930 . S
C1384 C1382 1.378 . S
C1384 C1385 1.367 1_565 S
C1385 C1384 1.367 1_545 S
C1385 C1387 1.433 . S
C1386 C1382 1.350 . S
C1386 C1383 1.463 . S
C1386 N1390 1.427 1_565 S
C1387 H1377 0.929 . S
C1387 C1385 1.433 . S
C1387 N1390 1.384 . S
C1388 H1379 0.929 1_565 S
C1388 C1380 1.378 . S
C1388 C1383 1.350 . S
C1389 H1376 0.929 . S
C1389 C1381 1.433 . S
C1389 N1391 1.384 . S
N1390 C1386 1.427 1_545 S
N1390 C1387 1.384 . S
N1391 C1383 1.427 . S
N1391 C1389 1.384 . S
H1392 C1398 0.930 . S
H1393 C1402 0.930 . S
H1394 C1407 0.929 . S
H1395 C1405 0.929 . S
H1396 C1400 0.929 . S
H1397 C1406 0.929 . S
C1398 H1392 0.930 . S
C1398 C1399 1.367 . S
C1398 C1406 1.378 . S
C1399 C1398 1.367 . S
C1399 C1407 1.433 . S
C1400 H1396 0.929 . S
C1400 C1402 1.378 . S
C1400 C1404 1.350 . S
C1401 C1404 1.463 . S
C1401 C1406 1.350 . S
C1401 N1409 1.427 . S
C1402 H1393 0.930 . S
C1402 C1400 1.378 . S
C1402 C1403 1.367 . S
C1403 C1402 1.367 . S
C1403 C1405 1.433 . S
C1404 C1400 1.350 . S
C1404 C1401 1.463 . S
C1404 N1408 1.427 . S
C1405 H1395 0.929 . S
C1405 C1403 1.433 . S
C1405 N1408 1.384 . S
C1406 H1397 0.929 . S
C1406 C1398 1.378 . S
C1406 C1401 1.350 . S
C1407 H1394 0.929 . S
C1407 C1399 1.433 . S
C1407 N1409 1.384 . S
N1408 C1404 1.427 . S
N1408 C1405 1.384 . S
N1409 C1401 1.427 . S
N1409 C1407 1.384 . S
H1410 C1416 0.930 . S
H1411 C1420 0.930 . S
H1412 C1425 0.929 . S
H1413 C1423 0.929 . S
H1414 C1418 0.929 . S
H1415 C1424 0.929 . S
C1416 H1410 0.930 . S
C1416 C1417 1.367 . S
C1416 C1424 1.378 . S
C1417 C1416 1.367 . S
C1417 C1425 1.433 . S
C1418 H1414 0.929 . S
C1418 C1420 1.378 . S
C1418 C1422 1.350 . S
C1419 C1422 1.463 . S
C1419 C1424 1.350 . S
C1419 N1427 1.427 . S
C1420 H1411 0.930 . S
C1420 C1418 1.378 . S
C1420 C1421 1.367 . S
C1421 C1420 1.367 . S
C1421 C1423 1.433 . S
C1422 C1418 1.350 . S
C1422 C1419 1.463 . S
C1422 N1426 1.427 . S
C1423 H1413 0.929 . S
C1423 C1421 1.433 . S
C1423 N1426 1.384 . S
C1424 H1415 0.929 . S
C1424 C1416 1.378 . S
C1424 C1419 1.350 . S
C1425 H1412 0.929 . S
C1425 C1417 1.433 . S
C1425 N1427 1.384 . S
N1426 C1422 1.427 . S
N1426 C1423 1.384 . S
N1427 C1419 1.427 . S
N1427 C1425 1.384 . S
H1428 C1434 0.930 . S
H1429 C1438 0.930 . S
H1430 C1443 0.929 . S
H1431 C1441 0.929 . S
H1432 C1436 0.929 . S
H1433 C1442 0.929 . S
C1434 H1428 0.930 . S
C1434 C1435 1.367 . S
C1434 C1442 1.378 . S
C1435 C1434 1.367 . S
C1435 C1443 1.433 . S
C1436 H1432 0.929 . S
C1436 C1438 1.378 . S
C1436 C1440 1.350 . S
C1437 C1440 1.463 . S
C1437 C1442 1.350 . S
C1437 N1445 1.427 . S
C1438 H1429 0.930 . S
C1438 C1436 1.378 . S
C1438 C1439 1.367 1_554 S
C1439 C1438 1.367 1_556 S
C1439 C1441 1.433 . S
C1440 C1436 1.350 . S
C1440 C1437 1.463 . S
C1440 N1444 1.427 . S
C1441 H1431 0.929 . S
C1441 C1439 1.433 . S
C1441 N1444 1.384 1_556 S
C1442 H1433 0.929 . S
C1442 C1434 1.378 . S
C1442 C1437 1.350 . S
C1443 H1430 0.929 . S
C1443 C1435 1.433 . S
C1443 N1445 1.384 . S
N1444 C1440 1.427 . S
N1444 C1441 1.384 1_554 S
N1445 C1437 1.427 . S
N1445 C1443 1.384 . S
H1446 C1452 0.930 . S
H1447 C1456 0.930 . S
H1448 C1461 0.929 . S
H1449 C1459 0.929 . S
H1450 C1454 0.929 . S
H1451 C1460 0.929 . S
C1452 H1446 0.930 . S
C1452 C1453 1.367 . S
C1452 C1460 1.378 . S
C1453 C1452 1.367 . S
C1453 C1461 1.433 . S
C1454 H1450 0.929 . S
C1454 C1456 1.378 . S
C1454 C1458 1.350 . S
C1455 C1458 1.463 . S
C1455 C1460 1.350 . S
C1455 N1463 1.427 . S
C1456 H1447 0.930 . S
C1456 C1454 1.378 . S
C1456 C1457 1.367 . S
C1457 C1456 1.367 . S
C1457 C1459 1.433 . S
C1458 C1454 1.350 . S
C1458 C1455 1.463 . S
C1458 N1462 1.427 . S
C1459 H1449 0.929 . S
C1459 C1457 1.433 . S
C1459 N1462 1.384 . S
C1460 H1451 0.929 . S
C1460 C1452 1.378 . S
C1460 C1455 1.350 . S
C1461 H1448 0.929 . S
C1461 C1453 1.433 . S
C1461 N1463 1.384 . S
N1462 C1458 1.427 . S
N1462 C1459 1.384 . S
N1463 C1455 1.427 . S
N1463 C1461 1.384 . S
H1464 C1470 0.930 . S
H1465 C1474 0.930 . S
H1466 C1479 0.929 . S
H1467 C1477 0.929 . S
H1468 C1472 0.929 . S
H1469 C1478 0.929 . S
C1470 H1464 0.930 . S
C1470 C1471 1.367 . S
C1470 C1478 1.378 . S
C1471 C1470 1.367 . S
C1471 C1479 1.433 . S
C1472 H1468 0.929 . S
C1472 C1474 1.378 . S
C1472 C1476 1.350 . S
C1473 C1476 1.463 . S
C1473 C1478 1.350 . S
C1473 N1481 1.427 . S
C1474 H1465 0.930 . S
C1474 C1472 1.378 . S
C1474 C1475 1.367 . S
C1475 C1474 1.367 . S
C1475 C1477 1.433 . S
C1476 C1472 1.350 . S
C1476 C1473 1.463 . S
C1476 N1480 1.427 . S
C1477 H1467 0.929 . S
C1477 C1475 1.433 . S
C1477 N1480 1.384 . S
C1478 H1469 0.929 . S
C1478 C1470 1.378 . S
C1478 C1473 1.350 . S
C1479 H1466 0.929 . S
C1479 C1471 1.433 . S
C1479 N1481 1.384 . S
N1480 C1476 1.427 . S
N1480 C1477 1.384 . S
N1481 C1473 1.427 . S
N1481 C1479 1.384 . S
H1482 C1488 0.930 . S
H1483 C1492 0.930 . S
H1484 C1497 0.929 . S
H1485 C1495 0.929 . S
H1486 C1490 0.929 . S
H1487 C1496 0.929 . S
C1488 H1482 0.930 . S
C1488 C1489 1.367 . S
C1488 C1496 1.378 1_455 S
C1489 C1488 1.367 . S
C1489 C1497 1.433 . S
C1490 H1486 0.929 . S
C1490 C1492 1.378 . S
C1490 C1494 1.350 . S
C1491 C1494 1.463 . S
C1491 C1496 1.350 . S
C1491 N1499 1.427 . S
C1492 H1483 0.930 . S
C1492 C1490 1.378 . S
C1492 C1493 1.367 . S
C1493 C1492 1.367 . S
C1493 C1495 1.433 . S
C1494 C1490 1.350 . S
C1494 C1491 1.463 . S
C1494 N1498 1.427 . S
C1495 H1485 0.929 . S
C1495 C1493 1.433 . S
C1495 N1498 1.384 . S
C1496 H1487 0.929 . S
C1496 C1488 1.378 1_655 S
C1496 C1491 1.350 . S
C1497 H1484 0.929 . S
C1497 C1489 1.433 . S
C1497 N1499 1.384 1_455 S
N1498 C1494 1.427 . S
N1498 C1495 1.384 . S
N1499 C1491 1.427 . S
N1499 C1497 1.384 1_655 S
H1500 C1506 0.930 . S
H1501 C1510 0.930 . S
H1502 C1515 0.929 . S
H1503 C1513 0.929 . S
H1504 C1508 0.929 . S
H1505 C1514 0.929 . S
C1506 H1500 0.930 . S
C1506 C1507 1.367 . S
C1506 C1514 1.378 . S
C1507 C1506 1.367 . S
C1507 C1515 1.433 1_655 S
C1508 H1504 0.929 . S
C1508 C1510 1.378 . S
C1508 C1512 1.350 . S
C1509 C1512 1.463 . S
C1509 C1514 1.350 1_455 S
C1509 N1517 1.427 . S
C1510 H1501 0.930 . S
C1510 C1508 1.378 . S
C1510 C1511 1.367 . S
C1511 C1510 1.367 . S
C1511 C1513 1.433 . S
C1512 C1508 1.350 . S
C1512 C1509 1.463 . S
C1512 N1516 1.427 . S
C1513 H1503 0.929 . S
C1513 C1511 1.433 . S
C1513 N1516 1.384 . S
C1514 H1505 0.929 . S
C1514 C1506 1.378 . S
C1514 C1509 1.350 1_655 S
C1515 H1502 0.929 . S
C1515 C1507 1.433 1_455 S
C1515 N1517 1.384 . S
N1516 C1512 1.427 . S
N1516 C1513 1.384 . S
N1517 C1509 1.427 . S
N1517 C1515 1.384 . S
H1518 C1524 0.930 . S
H1519 C1528 0.930 . S
H1520 C1533 0.929 . S
H1521 C1531 0.929 . S
H1522 C1526 0.929 . S
H1523 C1532 0.929 . S
C1524 H1518 0.930 . S
C1524 C1525 1.367 . S
C1524 C1532 1.378 . S
C1525 C1524 1.367 . S
C1525 C1533 1.433 . S
C1526 H1522 0.929 . S
C1526 C1528 1.378 . S
C1526 C1530 1.350 . S
C1527 C1530 1.463 . S
C1527 C1532 1.350 . S
C1527 N1535 1.427 . S
C1528 H1519 0.930 . S
C1528 C1526 1.378 . S
C1528 C1529 1.367 . S
C1529 C1528 1.367 . S
C1529 C1531 1.433 . S
C1530 C1526 1.350 . S
C1530 C1527 1.463 . S
C1530 N1534 1.427 . S
C1531 H1521 0.929 . S
C1531 C1529 1.433 . S
C1531 N1534 1.384 . S
C1532 H1523 0.929 . S
C1532 C1524 1.378 . S
C1532 C1527 1.350 . S
C1533 H1520 0.929 . S
C1533 C1525 1.433 . S
C1533 N1535 1.384 . S
N1534 C1530 1.427 . S
N1534 C1531 1.384 . S
N1535 C1527 1.427 . S
N1535 C1533 1.384 . S
H1536 C1542 0.930 . S
H1537 C1546 0.930 . S
H1538 C1551 0.929 . S
H1539 C1549 0.929 . S
H1540 C1544 0.929 . S
H1541 C1550 0.929 . S
C1542 H1536 0.930 . S
C1542 C1543 1.367 . S
C1542 C1550 1.378 . S
C1543 C1542 1.367 . S
C1543 C1551 1.433 . S
C1544 H1540 0.929 . S
C1544 C1546 1.378 . S
C1544 C1548 1.350 . S
C1545 C1548 1.463 . S
C1545 C1550 1.350 . S
C1545 N1553 1.427 . S
C1546 H1537 0.930 . S
C1546 C1544 1.378 . S
C1546 C1547 1.367 . S
C1547 C1546 1.367 . S
C1547 C1549 1.433 . S
C1548 C1544 1.350 . S
C1548 C1545 1.463 . S
C1548 N1552 1.427 . S
C1549 H1539 0.929 . S
C1549 C1547 1.433 . S
C1549 N1552 1.384 . S
C1550 H1541 0.929 . S
C1550 C1542 1.378 . S
C1550 C1545 1.350 . S
C1551 H1538 0.929 . S
C1551 C1543 1.433 . S
C1551 N1553 1.384 . S
N1552 C1548 1.427 . S
N1552 C1549 1.384 . S
N1553 C1545 1.427 . S
N1553 C1551 1.384 . S
H1554 C1560 0.930 . S
H1555 C1564 0.930 . S
H1556 C1569 0.929 . S
H1557 C1567 0.929 . S
H1558 C1562 0.929 . S
H1559 C1568 0.929 . S
C1560 H1554 0.930 . S
C1560 C1561 1.367 . S
C1560 C1568 1.378 1_655 S
C1561 C1560 1.367 . S
C1561 C1569 1.433 . S
C1562 H1558 0.929 . S
C1562 C1564 1.378 . S
C1562 C1566 1.350 . S
C1563 C1566 1.463 . S
C1563 C1568 1.350 . S
C1563 N1571 1.427 . S
C1564 H1555 0.930 . S
C1564 C1562 1.378 . S
C1564 C1565 1.367 . S
C1565 C1564 1.367 . S
C1565 C1567 1.433 . S
C1566 C1562 1.350 . S
C1566 C1563 1.463 . S
C1566 N1570 1.427 . S
C1567 H1557 0.929 . S
C1567 C1565 1.433 . S
C1567 N1570 1.384 . S
C1568 H1559 0.929 . S
C1568 C1560 1.378 1_455 S
C1568 C1563 1.350 . S
C1569 H1556 0.929 . S
C1569 C1561 1.433 . S
C1569 N1571 1.384 1_655 S
N1570 C1566 1.427 . S
N1570 C1567 1.384 . S
N1571 C1563 1.427 . S
N1571 C1569 1.384 1_455 S
H1572 C1578 0.930 . S
H1573 C1582 0.930 . S
H1574 C1587 0.929 . S
H1575 C1585 0.929 . S
H1576 C1580 0.929 . S
H1577 C1586 0.929 . S
C1578 H1572 0.930 . S
C1578 C1579 1.367 . S
C1578 C1586 1.378 . S
C1579 C1578 1.367 . S
C1579 C1587 1.433 . S
C1580 H1576 0.929 . S
C1580 C1582 1.378 . S
C1580 C1584 1.350 . S
C1581 C1584 1.463 . S
C1581 C1586 1.350 . S
C1581 N1589 1.427 . S
C1582 H1573 0.930 . S
C1582 C1580 1.378 . S
C1582 C1583 1.367 . S
C1583 C1582 1.367 . S
C1583 C1585 1.433 . S
C1584 C1580 1.350 . S
C1584 C1581 1.463 . S
C1584 N1588 1.427 . S
C1585 H1575 0.929 . S
C1585 C1583 1.433 . S
C1585 N1588 1.384 . S
C1586 H1577 0.929 . S
C1586 C1578 1.378 . S
C1586 C1581 1.350 . S
C1587 H1574 0.929 . S
C1587 C1579 1.433 . S
C1587 N1589 1.384 . S
N1588 C1584 1.427 . S
N1588 C1585 1.384 . S
N1589 C1581 1.427 . S
N1589 C1587 1.384 . S
H1590 C1596 0.930 . S
H1591 C1600 0.930 . S
H1592 C1605 0.929 . S
H1593 C1603 0.929 . S
H1594 C1598 0.929 . S
H1595 C1604 0.929 . S
C1596 H1590 0.930 . S
C1596 C1597 1.367 . S
C1596 C1604 1.378 . S
C1597 C1596 1.367 . S
C1597 C1605 1.433 . S
C1598 H1594 0.929 . S
C1598 C1600 1.378 . S
C1598 C1602 1.350 1_455 S
C1599 C1602 1.463 . S
C1599 C1604 1.350 . S
C1599 N1607 1.427 . S
C1600 H1591 0.930 . S
C1600 C1598 1.378 . S
C1600 C1601 1.367 . S
C1601 C1600 1.367 . S
C1601 C1603 1.433 1_455 S
C1602 C1598 1.350 1_655 S
C1602 C1599 1.463 . S
C1602 N1606 1.427 . S
C1603 H1593 0.929 . S
C1603 C1601 1.433 1_655 S
C1603 N1606 1.384 . S
C1604 H1595 0.929 . S
C1604 C1596 1.378 . S
C1604 C1599 1.350 . S
C1605 H1592 0.929 . S
C1605 C1597 1.433 . S
C1605 N1607 1.384 . S
N1606 C1602 1.427 . S
N1606 C1603 1.384 . S
N1607 C1599 1.427 . S
N1607 C1605 1.384 . S
H1608 C1614 0.930 . S
H1609 C1618 0.930 . S
H1610 C1623 0.929 . S
H1611 C1621 0.929 . S
H1612 C1616 0.929 . S
H1613 C1622 0.929 . S
C1614 H1608 0.930 . S
C1614 C1615 1.367 . S
C1614 C1622 1.378 . S
C1615 C1614 1.367 . S
C1615 C1623 1.433 . S
C1616 H1612 0.929 . S
C1616 C1618 1.378 . S
C1616 C1620 1.350 . S
C1617 C1620 1.463 . S
C1617 C1622 1.350 . S
C1617 N1625 1.427 . S
C1618 H1609 0.930 . S
C1618 C1616 1.378 . S
C1618 C1619 1.367 . S
C1619 C1618 1.367 . S
C1619 C1621 1.433 . S
C1620 C1616 1.350 . S
C1620 C1617 1.463 . S
C1620 N1624 1.427 . S
C1621 H1611 0.929 . S
C1621 C1619 1.433 . S
C1621 N1624 1.384 . S
C1622 H1613 0.929 . S
C1622 C1614 1.378 . S
C1622 C1617 1.350 . S
C1623 H1610 0.929 . S
C1623 C1615 1.433 . S
C1623 N1625 1.384 . S
N1624 C1620 1.427 . S
N1624 C1621 1.384 . S
N1625 C1617 1.427 . S
N1625 C1623 1.384 . S
H1626 C1632 0.930 . S
H1627 C1636 0.930 . S
H1628 C1641 0.929 . S
H1629 C1639 0.929 . S
H1630 C1634 0.929 . S
H1631 C1640 0.929 . S
C1632 H1626 0.930 . S
C1632 C1633 1.367 . S
C1632 C1640 1.378 . S
C1633 C1632 1.367 . S
C1633 C1641 1.433 . S
C1634 H1630 0.929 . S
C1634 C1636 1.378 . S
C1634 C1638 1.350 . S
C1635 C1638 1.463 1_455 S
C1635 C1640 1.350 . S
C1635 N1643 1.427 . S
C1636 H1627 0.930 . S
C1636 C1634 1.378 . S
C1636 C1637 1.367 . S
C1637 C1636 1.367 . S
C1637 C1639 1.433 . S
C1638 C1634 1.350 . S
C1638 C1635 1.463 1_655 S
C1638 N1642 1.427 . S
C1639 H1629 0.929 . S
C1639 C1637 1.433 . S
C1639 N1642 1.384 . S
C1640 H1631 0.929 . S
C1640 C1632 1.378 . S
C1640 C1635 1.350 . S
C1641 H1628 0.929 . S
C1641 C1633 1.433 . S
C1641 N1643 1.384 . S
N1642 C1638 1.427 . S
N1642 C1639 1.384 . S
N1643 C1635 1.427 . S
N1643 C1641 1.384 . S
H1644 C1650 0.930 . S
H1645 C1654 0.930 . S
H1646 C1659 0.929 . S
H1647 C1657 0.929 . S
H1648 C1652 0.948 . S
H1649 C1658 0.925 1_554 S
C1650 H1644 0.930 . S
C1650 C1651 1.367 . S
C1650 C1658 1.378 . S
C1651 C1650 1.367 . S
C1651 C1659 1.433 . S
C1652 H1648 0.948 . S
C1652 C1654 1.361 1_556 S
C1652 C1656 1.348 1_556 S
C1653 C1656 1.463 1_556 S
C1653 C1658 1.350 . S
C1653 N1661 1.427 . S
C1654 H1645 0.930 . S
C1654 C1652 1.361 1_554 S
C1654 C1655 1.367 . S
C1655 C1654 1.367 . S
C1655 C1657 1.433 . S
C1656 C1652 1.348 1_554 S
C1656 C1653 1.463 1_554 S
C1656 N1660 1.427 . S
C1657 H1647 0.929 . S
C1657 C1655 1.433 . S
C1657 N1660 1.384 . S
C1658 H1649 0.925 1_556 S
C1658 C1650 1.378 . S
C1658 C1653 1.350 . S
C1659 H1646 0.929 . S
C1659 C1651 1.433 . S
C1659 N1661 1.384 . S
N1660 C1656 1.427 . S
N1660 C1657 1.384 . S
N1661 C1653 1.427 . S
N1661 C1659 1.384 . S
H1662 C1668 0.930 . S
H1663 C1672 0.930 . S
H1664 C1677 0.929 . S
H1665 C1675 0.929 . S
H1666 C1670 0.929 . S
H1667 C1676 0.929 . S
C1668 H1662 0.930 . S
C1668 C1669 1.367 . S
C1668 C1676 1.378 . S
C1669 C1668 1.367 . S
C1669 C1677 1.433 . S
C1670 H1666 0.929 . S
C1670 C1672 1.378 . S
C1670 C1674 1.350 . S
C1671 C1674 1.463 . S
C1671 C1676 1.350 . S
C1671 N1679 1.427 . S
C1672 H1663 0.930 . S
C1672 C1670 1.378 . S
C1672 C1673 1.367 . S
C1673 C1672 1.367 . S
C1673 C1675 1.433 . S
C1674 C1670 1.350 . S
C1674 C1671 1.463 . S
C1674 N1678 1.427 . S
C1675 H1665 0.929 . S
C1675 C1673 1.433 . S
C1675 N1678 1.384 . S
C1676 H1667 0.929 . S
C1676 C1668 1.378 . S
C1676 C1671 1.350 . S
C1677 H1664 0.929 . S
C1677 C1669 1.433 . S
C1677 N1679 1.384 . S
N1678 C1674 1.427 . S
N1678 C1675 1.384 . S
N1679 C1671 1.427 . S
N1679 C1677 1.384 . S
H1680 C1686 0.930 . S
H1681 C1690 0.930 . S
H1682 C1695 0.929 . S
H1683 C1693 0.929 . S
H1684 C1688 0.929 . S
H1685 C1694 0.929 . S
C1686 H1680 0.930 . S
C1686 C1687 1.367 . S
C1686 C1694 1.378 . S
C1687 C1686 1.367 . S
C1687 C1695 1.433 . S
C1688 H1684 0.929 . S
C1688 C1690 1.378 . S
C1688 C1692 1.350 . S
C1689 C1692 1.463 . S
C1689 C1694 1.350 . S
C1689 N1697 1.427 . S
C1690 H1681 0.930 . S
C1690 C1688 1.378 . S
C1690 C1691 1.367 . S
C1691 C1690 1.367 . S
C1691 C1693 1.433 . S
C1692 C1688 1.350 . S
C1692 C1689 1.463 . S
C1692 N1696 1.427 . S
C1693 H1683 0.929 . S
C1693 C1691 1.433 . S
C1693 N1696 1.384 . S
C1694 H1685 0.929 . S
C1694 C1686 1.378 . S
C1694 C1689 1.350 . S
C1695 H1682 0.929 . S
C1695 C1687 1.433 . S
C1695 N1697 1.384 . S
N1696 C1692 1.427 . S
N1696 C1693 1.384 . S
N1697 C1689 1.427 . S
N1697 C1695 1.384 . S
H1698 C1704 0.930 . S
H1699 C1708 0.930 . S
H1700 C1713 0.929 . S
H1701 C1711 0.929 . S
H1702 C1706 0.929 . S
H1703 C1712 0.929 . S
C1704 H1698 0.930 . S
C1704 C1705 1.367 . S
C1704 C1712 1.378 . S
C1705 C1704 1.367 . S
C1705 C1713 1.433 . S
C1706 H1702 0.929 . S
C1706 C1708 1.378 . S
C1706 C1710 1.350 . S
C1707 C1710 1.463 1_655 S
C1707 C1712 1.350 . S
C1707 N1715 1.427 . S
C1708 H1699 0.930 . S
C1708 C1706 1.378 . S
C1708 C1709 1.367 . S
C1709 C1708 1.367 . S
C1709 C1711 1.433 . S
C1710 C1706 1.350 . S
C1710 C1707 1.463 1_455 S
C1710 N1714 1.427 1_455 S
C1711 H1701 0.929 . S
C1711 C1709 1.433 . S
C1711 N1714 1.384 1_455 S
C1712 H1703 0.929 . S
C1712 C1704 1.378 . S
C1712 C1707 1.350 . S
C1713 H1700 0.929 . S
C1713 C1705 1.433 . S
C1713 N1715 1.384 . S
N1714 C1710 1.427 1_655 S
N1714 C1711 1.384 1_655 S
N1715 C1707 1.427 . S
N1715 C1713 1.384 . S
H1716 C1722 0.930 . S
H1717 C1726 0.945 . S
H1718 C1731 0.929 . S
H1719 C1729 0.929 . S
H1720 C1724 0.929 . S
H1721 C1730 0.929 1_556 S
C1722 H1716 0.930 . S
C1722 C1723 1.367 . S
C1722 C1730 1.378 . S
C1723 C1722 1.367 . S
C1723 C1731 1.433 . S
C1724 H1720 0.929 . S
C1724 C1726 1.378 1_554 S
C1724 C1728 1.350 1_554 S
C1725 C1728 1.463 1_554 S
C1725 C1730 1.350 . S
C1725 N1733 1.427 . S
C1726 H1717 0.945 . S
C1726 C1724 1.378 1_556 S
C1726 C1727 1.367 . S
C1727 C1726 1.367 . S
C1727 C1729 1.433 . S
C1728 C1724 1.350 1_556 S
C1728 C1725 1.463 1_556 S
C1728 N1732 1.427 . S
C1729 H1719 0.929 . S
C1729 C1727 1.433 . S
C1729 N1732 1.384 . S
C1730 H1721 0.929 1_554 S
C1730 C1722 1.378 . S
C1730 C1725 1.350 . S
C1731 H1718 0.929 . S
C1731 C1723 1.433 . S
C1731 N1733 1.384 . S
N1732 C1728 1.427 . S
N1732 C1729 1.384 . S
N1733 C1725 1.427 . S
N1733 C1731 1.384 . S
H1734 C1740 0.930 . S
H1735 C1744 0.930 . S
H1736 C1749 0.929 . S
H1737 C1747 0.929 . S
H1738 C1742 0.929 . S
H1739 C1748 0.929 . S
C1740 H1734 0.930 . S
C1740 C1741 1.367 . S
C1740 C1748 1.378 . S
C1741 C1740 1.367 . S
C1741 C1749 1.433 . S
C1742 H1738 0.929 . S
C1742 C1744 1.378 . S
C1742 C1746 1.350 . S
C1743 C1746 1.463 . S
C1743 C1748 1.350 . S
C1743 N1751 1.427 . S
C1744 H1735 0.930 . S
C1744 C1742 1.378 . S
C1744 C1745 1.367 . S
C1745 C1744 1.367 . S
C1745 C1747 1.433 . S
C1746 C1742 1.350 . S
C1746 C1743 1.463 . S
C1746 N1750 1.427 . S
C1747 H1737 0.929 . S
C1747 C1745 1.433 . S
C1747 N1750 1.384 . S
C1748 H1739 0.929 . S
C1748 C1740 1.378 . S
C1748 C1743 1.350 . S
C1749 H1736 0.929 . S
C1749 C1741 1.433 . S
C1749 N1751 1.384 . S
N1750 C1746 1.427 . S
N1750 C1747 1.384 . S
N1751 C1743 1.427 . S
N1751 C1749 1.384 . S
H1752 C1758 0.930 . S
H1753 C1762 0.930 . S
H1754 C1767 0.929 . S
H1755 C1765 0.929 . S
H1756 C1760 0.929 . S
H1757 C1766 0.929 . S
C1758 H1752 0.930 . S
C1758 C1759 1.367 . S
C1758 C1766 1.378 . S
C1759 C1758 1.367 . S
C1759 C1767 1.433 . S
C1760 H1756 0.929 . S
C1760 C1762 1.378 . S
C1760 C1764 1.350 . S
C1761 C1764 1.463 . S
C1761 C1766 1.350 . S
C1761 N1769 1.427 . S
C1762 H1753 0.930 . S
C1762 C1760 1.378 . S
C1762 C1763 1.367 . S
C1763 C1762 1.367 . S
C1763 C1765 1.433 . S
C1764 C1760 1.350 . S
C1764 C1761 1.463 . S
C1764 N1768 1.427 . S
C1765 H1755 0.929 . S
C1765 C1763 1.433 . S
C1765 N1768 1.384 . S
C1766 H1757 0.929 . S
C1766 C1758 1.378 . S
C1766 C1761 1.350 . S
C1767 H1754 0.929 . S
C1767 C1759 1.433 . S
C1767 N1769 1.384 . S
N1768 C1764 1.427 . S
N1768 C1765 1.384 . S
N1769 C1761 1.427 . S
N1769 C1767 1.384 . S
H1770 C1776 0.930 . S
H1771 C1780 0.930 . S
H1772 C1785 0.929 . S
H1773 C1783 0.929 . S
H1774 C1778 0.929 . S
H1775 C1784 0.929 1_565 S
C1776 H1770 0.930 . S
C1776 C1777 1.367 . S
C1776 C1784 1.378 . S
C1777 C1776 1.367 . S
C1777 C1785 1.433 . S
C1778 H1774 0.929 . S
C1778 C1780 1.378 1_545 S
C1778 C1782 1.350 1_545 S
C1779 C1782 1.463 1_545 S
C1779 C1784 1.350 . S
C1779 N1787 1.427 . S
C1780 H1771 0.930 . S
C1780 C1778 1.378 1_565 S
C1780 C1781 1.367 . S
C1781 C1780 1.367 . S
C1781 C1783 1.433 . S
C1782 C1778 1.350 1_565 S
C1782 C1779 1.463 1_565 S
C1782 N1786 1.427 . S
C1783 H1773 0.929 . S
C1783 C1781 1.433 . S
C1783 N1786 1.384 . S
C1784 H1775 0.929 1_545 S
C1784 C1776 1.378 . S
C1784 C1779 1.350 . S
C1785 H1772 0.929 . S
C1785 C1777 1.433 . S
C1785 N1787 1.384 . S
N1786 C1782 1.427 . S
N1786 C1783 1.384 . S
N1787 C1779 1.427 . S
N1787 C1785 1.384 . S
H1788 C1794 0.937 . S
H1789 C1798 0.930 . S
H1790 C1803 0.929 . S
H1791 C1801 0.929 . S
H1792 C1796 0.929 1_545 S
H1793 C1802 0.929 . S
C1794 H1788 0.937 . S
C1794 C1795 1.367 . S
C1794 C1802 1.378 1_545 S
C1795 C1794 1.367 . S
C1795 C1803 1.433 . S
C1796 H1792 0.929 1_565 S
C1796 C1798 1.378 . S
C1796 C1800 1.350 . S
C1797 C1800 1.463 1_545 S
C1797 C1802 1.350 1_545 S
C1797 N1805 1.427 . S
C1798 H1789 0.930 . S
C1798 C1796 1.378 . S
C1798 C1799 1.367 . S
C1799 C1798 1.367 . S
C1799 C1801 1.433 . S
C1800 C1796 1.350 . S
C1800 C1797 1.463 1_565 S
C1800 N1804 1.427 . S
C1801 H1791 0.929 . S
C1801 C1799 1.433 . S
C1801 N1804 1.384 . S
C1802 H1793 0.929 . S
C1802 C1794 1.378 1_565 S
C1802 C1797 1.350 1_565 S
C1803 H1790 0.929 . S
C1803 C1795 1.433 . S
C1803 N1805 1.384 . S
N1804 C1800 1.427 . S
N1804 C1801 1.384 . S
N1805 C1797 1.427 . S
N1805 C1803 1.384 . S
H1806 C1812 0.930 . S
H1807 C1816 0.930 . S
H1808 C1821 0.929 . S
H1809 C1819 0.929 . S
H1810 C1814 0.929 . S
H1811 C1820 0.929 . S
C1812 H1806 0.930 . S
C1812 C1813 1.367 . S
C1812 C1820 1.378 . S
C1813 C1812 1.367 . S
C1813 C1821 1.433 . S
C1814 H1810 0.929 . S
C1814 C1816 1.378 . S
C1814 C1818 1.350 . S
C1815 C1818 1.463 . S
C1815 C1820 1.350 . S
C1815 N1823 1.427 . S
C1816 H1807 0.930 . S
C1816 C1814 1.378 . S
C1816 C1817 1.367 . S
C1817 C1816 1.367 . S
C1817 C1819 1.433 . S
C1818 C1814 1.350 . S
C1818 C1815 1.463 . S
C1818 N1822 1.427 . S
C1819 H1809 0.929 . S
C1819 C1817 1.433 . S
C1819 N1822 1.384 . S
C1820 H1811 0.929 . S
C1820 C1812 1.378 . S
C1820 C1815 1.350 . S
C1821 H1808 0.929 . S
C1821 C1813 1.433 . S
C1821 N1823 1.384 . S
N1822 C1818 1.427 . S
N1822 C1819 1.384 . S
N1823 C1815 1.427 . S
N1823 C1821 1.384 . S
C535 C4 1.025 . S
C539 C338 1.041 . S
C553 C268 1.034 . S
C557 C26 1.020 . S
C571 C294 1.024 . S
C575 C48 1.040 . S
C589 C70 1.019 . S
C593 C316 1.029 . S
C607 C96 1.033 . S
C611 C202 1.020 . S
C625 C118 1.020 . S
C629 C224 1.025 . S
C643 C140 1.031 . S
C647 C246 1.019 . S
C661 C162 1.020 . S
C665 C184 1.032 . S
C679 C356 1.019 . S
C683 C448 1.026 . S
C697 C382 1.019 . S
C701 C510 1.026 . S
C715 C400 1.029 . S
C719 C470 1.044 . S
C733 C422 1.047 . S
C737 C488 1.040 . S
C751 C466 1.067 . S
C755 C9 1.060 . S
C769 C31 1.063 . S
C773 C492 1.065 . S
C787 C53 1.075 . S
C791 C360 1.063 1_556 S
C805 C75 1.073 . S
C809 C514 1.062 . S
C823 C426 1.063 . S
C827 C93 1.067 . S
C841 C444 1.081 . S
C845 C115 1.060 . S
C859 C137 1.069 . S
C863 C378 1.062 1_554 S
C877 C159 1.072 . S
C881 C404 1.062 . S
C895 C181 1.077 . S
C899 C92 1.065 . S
C913 C207 1.057 . S
C917 C114 1.079 . S
C931 C229 1.071 . S
C935 C136 1.062 1_455 S
C949 C251 1.074 . S
C953 C158 1.062 . S
C967 C8 1.071 1_655 S
C971 C273 1.056 . S
C985 C291 1.059 . S
C989 C30 1.081 . S
C1003 C313 1.073 . S
C1007 C52 1.077 . S
C1021 C335 1.064 . S
C1025 C74 1.064 . S
C1039 C312 1.071 . S
C1043 C361 1.058 . S
C1057 C228 1.062 1_545 S
C1061 C379 1.058 . S
C1075 C405 1.063 . S
C1079 C250 1.065 . S
C1093 C180 1.062 1_565 S
C1097 C427 1.069 . S
C1111 C445 1.073 . S
C1115 C206 1.077 . S
C1129 C272 1.077 . S
C1133 C467 1.057 . S
C1147 C290 1.074 . S
C1151 C493 1.076 . S
C1165 C334 1.067 . S
C1169 C515 1.061 . S
C1183 C401 1.566 . S
C1187 C6 1.532 . S
C1201 C28 1.529 . S
C1205 C423 1.570 . S
C1219 C449 1.560 . S
C1223 C50 1.527 . S
C1237 C72 1.523 . S
C1241 C383 1.574 . S
C1255 C489 1.573 . S
C1259 C95 1.524 . S
C1273 C357 1.559 . S
C1277 C117 1.530 . S
C1291 C511 1.569 . S
C1295 C139 1.515 . S
C1309 C471 1.561 . S
C1313 C161 1.534 . S
C1327 C203 1.563 . S
C1331 C183 1.521 . S
C1345 C225 1.568 . S
C1349 C204 1.516 . S
C1363 C226 1.527 . S
C1367 C247 1.559 . S
C1381 C248 1.534 . S
C1385 C185 1.563 . S
C1399 C339 1.560 . S
C1403 C270 1.533 . S
C1417 C269 1.573 . S
C1421 C293 1.526 . S
C1435 C315 1.524 . S
C1439 C295 1.561 . S
C1453 C337 1.527 . S
C1457 C317 1.560 . S
C1471 C71 1.566 . S
C1475 C358 1.518 . S
C1489 C119 1.575 . S
C1493 C381 1.515 . S
C1507 C141 1.575 . S
C1511 C402 1.517 . S
C1525 C163 1.561 . S
C1529 C424 1.534 . S
C1543 C97 1.575 . S
C1547 C447 1.518 . S
C1561 C27 1.560 . S
C1565 C469 1.533 . S
C1579 C49 1.560 . S
C1583 C490 1.526 . S
C1597 C512 1.518 . S
C1601 C5 1.565 . S
C1615 C7 1.514 . S
C1619 C205 1.521 . S
C1633 C227 1.515 . S
C1637 C29 1.519 . S
C1651 C51 1.521 . S
C1655 C249 1.515 . S
C1669 C73 1.518 . S
C1673 C182 1.519 . S
C1687 C94 1.520 . S
C1691 C336 1.514 . S
C1705 C271 1.514 . S
C1709 C116 1.521 . S
C1723 C138 1.521 . S
C1727 C292 1.514 . S
C1741 C160 1.521 . S
C1745 C314 1.514 . S
C1759 C359 1.517 . S
C1763 C403 1.517 . S
C1777 C380 1.519 . S
C1781 C491 1.515 . S
C1795 C513 1.514 . S
C1799 C425 1.521 . S
C1813 C446 1.516 . S
C1817 C468 1.520 . S
