# Generated by pormake.
# Topology wse, (4)-cn, num edge types: 1
# Building blocks:
#     Node 0, Type 0, BuildingBlock: QUQFOY_clean_sbu_1, # of connection points: 4
#     Node 1, Type 0, BuildingBlock: QUQFOY_clean_sbu_1, # of connection points: 4
#     Node 2, Type 0, BuildingBlock: QUQFOY_clean_sbu_1, # of connection points: 4
#     Node 3, Type 0, BuildingBlock: QUQFOY_clean_sbu_1, # of connection points: 4
#     Node 4, Type 0, BuildingBlock: QUQFOY_clean_sbu_1, # of connection points: 4
#     Node 5, Type 0, BuildingBlock: QUQFOY_clean_sbu_1, # of connection points: 4
#     Node 6, Type 0, BuildingBlock: QUQFOY_clean_sbu_1, # of connection points: 4
#     Node 7, Type 0, BuildingBlock: QUQFOY_clean_sbu_1, # of connection points: 4
#     Node 8, Type 0, BuildingBlock: QUQFOY_clean_sbu_1, # of connection points: 4
#     Node 9, Type 0, BuildingBlock: QUQFOY_clean_sbu_1, # of connection points: 4
#     Node 10, Type 0, BuildingBlock: QUQFOY_clean_sbu_1, # of connection points: 4
#     Node 11, Type 0, BuildingBlock: QUQFOY_clean_sbu_1, # of connection points: 4
#     Node 12, Type 0, BuildingBlock: QUQFOY_clean_sbu_1, # of connection points: 4
#     Node 13, Type 0, BuildingBlock: QUQFOY_clean_sbu_1, # of connection points: 4
#     Node 14, Type 0, BuildingBlock: QUQFOY_clean_sbu_1, # of connection points: 4
#     Node 15, Type 0, BuildingBlock: QUQFOY_clean_sbu_1, # of connection points: 4
#     Node 16, Type 0, BuildingBlock: QUQFOY_clean_sbu_1, # of connection points: 4
#     Node 17, Type 0, BuildingBlock: QUQFOY_clean_sbu_1, # of connection points: 4
#     Node 18, Type 0, BuildingBlock: QUQFOY_clean_sbu_1, # of connection points: 4
#     Node 19, Type 0, BuildingBlock: QUQFOY_clean_sbu_1, # of connection points: 4
#     Node 20, Type 0, BuildingBlock: QUQFOY_clean_sbu_1, # of connection points: 4
#     Node 21, Type 0, BuildingBlock: QUQFOY_clean_sbu_1, # of connection points: 4
#     Node 22, Type 0, BuildingBlock: QUQFOY_clean_sbu_1, # of connection points: 4
#     Node 23, Type 0, BuildingBlock: QUQFOY_clean_sbu_1, # of connection points: 4
#     Node 24, Type 0, BuildingBlock: QUQFOY_clean_sbu_1, # of connection points: 4
#     Node 25, Type 0, BuildingBlock: QUQFOY_clean_sbu_1, # of connection points: 4
#     Node 26, Type 0, BuildingBlock: QUQFOY_clean_sbu_1, # of connection points: 4
#     Node 27, Type 0, BuildingBlock: QUQFOY_clean_sbu_1, # of connection points: 4
#     Node 28, Type 0, BuildingBlock: QUQFOY_clean_sbu_1, # of connection points: 4
#     Node 29, Type 0, BuildingBlock: QUQFOY_clean_sbu_1, # of connection points: 4
#     Node 30, Type 0, BuildingBlock: QUQFOY_clean_sbu_1, # of connection points: 4
#     Node 31, Type 0, BuildingBlock: QUQFOY_clean_sbu_1, # of connection points: 4
#     Node 32, Type 0, BuildingBlock: QUQFOY_clean_sbu_1, # of connection points: 4
#     Node 33, Type 0, BuildingBlock: QUQFOY_clean_sbu_1, # of connection points: 4
#     Node 34, Type 0, BuildingBlock: QUQFOY_clean_sbu_1, # of connection points: 4
#     Node 35, Type 0, BuildingBlock: QUQFOY_clean_sbu_1, # of connection points: 4
#     Node 36, Type 0, BuildingBlock: QUQFOY_clean_sbu_1, # of connection points: 4
#     Node 37, Type 0, BuildingBlock: QUQFOY_clean_sbu_1, # of connection points: 4
#     Node 38, Type 0, BuildingBlock: QUQFOY_clean_sbu_1, # of connection points: 4
#     Node 39, Type 0, BuildingBlock: QUQFOY_clean_sbu_1, # of connection points: 4
#     Node 40, Type 0, BuildingBlock: QUQFOY_clean_sbu_1, # of connection points: 4
#     Node 41, Type 0, BuildingBlock: QUQFOY_clean_sbu_1, # of connection points: 4
#     Node 42, Type 0, BuildingBlock: QUQFOY_clean_sbu_1, # of connection points: 4
#     Node 43, Type 0, BuildingBlock: QUQFOY_clean_sbu_1, # of connection points: 4
#     Node 44, Type 0, BuildingBlock: QUQFOY_clean_sbu_1, # of connection points: 4
#     Node 45, Type 0, BuildingBlock: QUQFOY_clean_sbu_1, # of connection points: 4
#     Node 46, Type 0, BuildingBlock: QUQFOY_clean_sbu_1, # of connection points: 4
#     Node 47, Type 0, BuildingBlock: QUQFOY_clean_sbu_1, # of connection points: 4
#     Node 48, Type 0, BuildingBlock: QUQFOY_clean_sbu_1, # of connection points: 4
#     Node 49, Type 0, BuildingBlock: QUQFOY_clean_sbu_1, # of connection points: 4
#     Node 50, Type 0, BuildingBlock: QUQFOY_clean_sbu_1, # of connection points: 4
#     Node 51, Type 0, BuildingBlock: QUQFOY_clean_sbu_1, # of connection points: 4
#     Node 52, Type 0, BuildingBlock: QUQFOY_clean_sbu_1, # of connection points: 4
#     Node 53, Type 0, BuildingBlock: QUQFOY_clean_sbu_1, # of connection points: 4
#     Node 54, Type 0, BuildingBlock: QUQFOY_clean_sbu_1, # of connection points: 4
#     Node 55, Type 0, BuildingBlock: QUQFOY_clean_sbu_1, # of connection points: 4
#     Node 56, Type 0, BuildingBlock: QUQFOY_clean_sbu_1, # of connection points: 4
#     Node 57, Type 0, BuildingBlock: QUQFOY_clean_sbu_1, # of connection points: 4
#     Node 58, Type 0, BuildingBlock: QUQFOY_clean_sbu_1, # of connection points: 4
#     Node 59, Type 0, BuildingBlock: QUQFOY_clean_sbu_1, # of connection points: 4
#     Node 60, Type 0, BuildingBlock: QUQFOY_clean_sbu_1, # of connection points: 4
#     Node 61, Type 0, BuildingBlock: QUQFOY_clean_sbu_1, # of connection points: 4
#     Node 62, Type 0, BuildingBlock: QUQFOY_clean_sbu_1, # of connection points: 4
#     Node 63, Type 0, BuildingBlock: QUQFOY_clean_sbu_1, # of connection points: 4
#     Node 64, Type 0, BuildingBlock: QUQFOY_clean_sbu_1, # of connection points: 4
#     Node 65, Type 0, BuildingBlock: QUQFOY_clean_sbu_1, # of connection points: 4
#     Node 66, Type 0, BuildingBlock: QUQFOY_clean_sbu_1, # of connection points: 4
#     Node 67, Type 0, BuildingBlock: QUQFOY_clean_sbu_1, # of connection points: 4
#     Node 68, Type 0, BuildingBlock: QUQFOY_clean_sbu_1, # of connection points: 4
#     Node 69, Type 0, BuildingBlock: QUQFOY_clean_sbu_1, # of connection points: 4
#     Node 70, Type 0, BuildingBlock: QUQFOY_clean_sbu_1, # of connection points: 4
#     Node 71, Type 0, BuildingBlock: QUQFOY_clean_sbu_1, # of connection points: 4
#     Node 72, Type 0, BuildingBlock: QUQFOY_clean_sbu_1, # of connection points: 4
#     Node 73, Type 0, BuildingBlock: QUQFOY_clean_sbu_1, # of connection points: 4
#     Node 74, Type 0, BuildingBlock: QUQFOY_clean_sbu_1, # of connection points: 4
#     Node 75, Type 0, BuildingBlock: QUQFOY_clean_sbu_1, # of connection points: 4
#     Node 76, Type 0, BuildingBlock: QUQFOY_clean_sbu_1, # of connection points: 4
#     Node 77, Type 0, BuildingBlock: QUQFOY_clean_sbu_1, # of connection points: 4
#     Node 78, Type 0, BuildingBlock: QUQFOY_clean_sbu_1, # of connection points: 4
#     Node 79, Type 0, BuildingBlock: QUQFOY_clean_sbu_1, # of connection points: 4
#     Node 80, Type 0, BuildingBlock: QUQFOY_clean_sbu_1, # of connection points: 4
#     Node 81, Type 0, BuildingBlock: QUQFOY_clean_sbu_1, # of connection points: 4
#     Node 82, Type 0, BuildingBlock: QUQFOY_clean_sbu_1, # of connection points: 4
#     Node 83, Type 0, BuildingBlock: QUQFOY_clean_sbu_1, # of connection points: 4
#     Node 84, Type 0, BuildingBlock: QUQFOY_clean_sbu_1, # of connection points: 4
#     Node 85, Type 0, BuildingBlock: QUQFOY_clean_sbu_1, # of connection points: 4
#     Node 86, Type 0, BuildingBlock: QUQFOY_clean_sbu_1, # of connection points: 4
#     Node 87, Type 0, BuildingBlock: QUQFOY_clean_sbu_1, # of connection points: 4
#     Node 88, Type 0, BuildingBlock: QUQFOY_clean_sbu_1, # of connection points: 4
#     Node 89, Type 0, BuildingBlock: QUQFOY_clean_sbu_1, # of connection points: 4
#     Node 90, Type 0, BuildingBlock: QUQFOY_clean_sbu_1, # of connection points: 4
#     Node 91, Type 0, BuildingBlock: QUQFOY_clean_sbu_1, # of connection points: 4
#     Node 92, Type 0, BuildingBlock: QUQFOY_clean_sbu_1, # of connection points: 4
#     Node 93, Type 0, BuildingBlock: QUQFOY_clean_sbu_1, # of connection points: 4
#     Node 94, Type 0, BuildingBlock: QUQFOY_clean_sbu_1, # of connection points: 4
#     Node 95, Type 0, BuildingBlock: QUQFOY_clean_sbu_1, # of connection points: 4
#     Edge 96, Type (0, 0), BuildingBlock: AJUNOK_clean_linker_0, # of connection points: 2
#     Edge 97, Type (0, 0), BuildingBlock: AJUNOK_clean_linker_0, # of connection points: 2
#     Edge 98, Type (0, 0), BuildingBlock: AJUNOK_clean_linker_0, # of connection points: 2
#     Edge 99, Type (0, 0), BuildingBlock: AJUNOK_clean_linker_0, # of connection points: 2
#     Edge 100, Type (0, 0), BuildingBlock: AJUNOK_clean_linker_0, # of connection points: 2
#     Edge 101, Type (0, 0), BuildingBlock: AJUNOK_clean_linker_0, # of connection points: 2
#     Edge 102, Type (0, 0), BuildingBlock: AJUNOK_clean_linker_0, # of connection points: 2
#     Edge 103, Type (0, 0), BuildingBlock: AJUNOK_clean_linker_0, # of connection points: 2
#     Edge 104, Type (0, 0), BuildingBlock: AJUNOK_clean_linker_0, # of connection points: 2
#     Edge 105, Type (0, 0), BuildingBlock: AJUNOK_clean_linker_0, # of connection points: 2
#     Edge 106, Type (0, 0), BuildingBlock: AJUNOK_clean_linker_0, # of connection points: 2
#     Edge 107, Type (0, 0), BuildingBlock: AJUNOK_clean_linker_0, # of connection points: 2
#     Edge 108, Type (0, 0), BuildingBlock: AJUNOK_clean_linker_0, # of connection points: 2
#     Edge 109, Type (0, 0), BuildingBlock: AJUNOK_clean_linker_0, # of connection points: 2
#     Edge 110, Type (0, 0), BuildingBlock: AJUNOK_clean_linker_0, # of connection points: 2
#     Edge 111, Type (0, 0), BuildingBlock: AJUNOK_clean_linker_0, # of connection points: 2
#     Edge 112, Type (0, 0), BuildingBlock: AJUNOK_clean_linker_0, # of connection points: 2
#     Edge 113, Type (0, 0), BuildingBlock: AJUNOK_clean_linker_0, # of connection points: 2
#     Edge 114, Type (0, 0), BuildingBlock: AJUNOK_clean_linker_0, # of connection points: 2
#     Edge 115, Type (0, 0), BuildingBlock: AJUNOK_clean_linker_0, # of connection points: 2
#     Edge 116, Type (0, 0), BuildingBlock: AJUNOK_clean_linker_0, # of connection points: 2
#     Edge 117, Type (0, 0), BuildingBlock: AJUNOK_clean_linker_0, # of connection points: 2
#     Edge 118, Type (0, 0), BuildingBlock: AJUNOK_clean_linker_0, # of connection points: 2
#     Edge 119, Type (0, 0), BuildingBlock: AJUNOK_clean_linker_0, # of connection points: 2
#     Edge 120, Type (0, 0), BuildingBlock: AJUNOK_clean_linker_0, # of connection points: 2
#     Edge 121, Type (0, 0), BuildingBlock: AJUNOK_clean_linker_0, # of connection points: 2
#     Edge 122, Type (0, 0), BuildingBlock: AJUNOK_clean_linker_0, # of connection points: 2
#     Edge 123, Type (0, 0), BuildingBlock: AJUNOK_clean_linker_0, # of connection points: 2
#     Edge 124, Type (0, 0), BuildingBlock: AJUNOK_clean_linker_0, # of connection points: 2
#     Edge 125, Type (0, 0), BuildingBlock: AJUNOK_clean_linker_0, # of connection points: 2
#     Edge 126, Type (0, 0), BuildingBlock: AJUNOK_clean_linker_0, # of connection points: 2
#     Edge 127, Type (0, 0), BuildingBlock: AJUNOK_clean_linker_0, # of connection points: 2
#     Edge 128, Type (0, 0), BuildingBlock: AJUNOK_clean_linker_0, # of connection points: 2
#     Edge 129, Type (0, 0), BuildingBlock: AJUNOK_clean_linker_0, # of connection points: 2
#     Edge 130, Type (0, 0), BuildingBlock: AJUNOK_clean_linker_0, # of connection points: 2
#     Edge 131, Type (0, 0), BuildingBlock: AJUNOK_clean_linker_0, # of connection points: 2
#     Edge 132, Type (0, 0), BuildingBlock: AJUNOK_clean_linker_0, # of connection points: 2
#     Edge 133, Type (0, 0), BuildingBlock: AJUNOK_clean_linker_0, # of connection points: 2
#     Edge 134, Type (0, 0), BuildingBlock: AJUNOK_clean_linker_0, # of connection points: 2
#     Edge 135, Type (0, 0), BuildingBlock: AJUNOK_clean_linker_0, # of connection points: 2
#     Edge 136, Type (0, 0), BuildingBlock: AJUNOK_clean_linker_0, # of connection points: 2
#     Edge 137, Type (0, 0), BuildingBlock: AJUNOK_clean_linker_0, # of connection points: 2
#     Edge 138, Type (0, 0), BuildingBlock: AJUNOK_clean_linker_0, # of connection points: 2
#     Edge 139, Type (0, 0), BuildingBlock: AJUNOK_clean_linker_0, # of connection points: 2
#     Edge 140, Type (0, 0), BuildingBlock: AJUNOK_clean_linker_0, # of connection points: 2
#     Edge 141, Type (0, 0), BuildingBlock: AJUNOK_clean_linker_0, # of connection points: 2
#     Edge 142, Type (0, 0), BuildingBlock: AJUNOK_clean_linker_0, # of connection points: 2
#     Edge 143, Type (0, 0), BuildingBlock: AJUNOK_clean_linker_0, # of connection points: 2
#     Edge 144, Type (0, 0), BuildingBlock: AJUNOK_clean_linker_0, # of connection points: 2
#     Edge 145, Type (0, 0), BuildingBlock: AJUNOK_clean_linker_0, # of connection points: 2
#     Edge 146, Type (0, 0), BuildingBlock: AJUNOK_clean_linker_0, # of connection points: 2
#     Edge 147, Type (0, 0), BuildingBlock: AJUNOK_clean_linker_0, # of connection points: 2
#     Edge 148, Type (0, 0), BuildingBlock: AJUNOK_clean_linker_0, # of connection points: 2
#     Edge 149, Type (0, 0), BuildingBlock: AJUNOK_clean_linker_0, # of connection points: 2
#     Edge 150, Type (0, 0), BuildingBlock: AJUNOK_clean_linker_0, # of connection points: 2
#     Edge 151, Type (0, 0), BuildingBlock: AJUNOK_clean_linker_0, # of connection points: 2
#     Edge 152, Type (0, 0), BuildingBlock: AJUNOK_clean_linker_0, # of connection points: 2
#     Edge 153, Type (0, 0), BuildingBlock: AJUNOK_clean_linker_0, # of connection points: 2
#     Edge 154, Type (0, 0), BuildingBlock: AJUNOK_clean_linker_0, # of connection points: 2
#     Edge 155, Type (0, 0), BuildingBlock: AJUNOK_clean_linker_0, # of connection points: 2
#     Edge 156, Type (0, 0), BuildingBlock: AJUNOK_clean_linker_0, # of connection points: 2
#     Edge 157, Type (0, 0), BuildingBlock: AJUNOK_clean_linker_0, # of connection points: 2
#     Edge 158, Type (0, 0), BuildingBlock: AJUNOK_clean_linker_0, # of connection points: 2
#     Edge 159, Type (0, 0), BuildingBlock: AJUNOK_clean_linker_0, # of connection points: 2
#     Edge 160, Type (0, 0), BuildingBlock: AJUNOK_clean_linker_0, # of connection points: 2
#     Edge 161, Type (0, 0), BuildingBlock: AJUNOK_clean_linker_0, # of connection points: 2
#     Edge 162, Type (0, 0), BuildingBlock: AJUNOK_clean_linker_0, # of connection points: 2
#     Edge 163, Type (0, 0), BuildingBlock: AJUNOK_clean_linker_0, # of connection points: 2
#     Edge 164, Type (0, 0), BuildingBlock: AJUNOK_clean_linker_0, # of connection points: 2
#     Edge 165, Type (0, 0), BuildingBlock: AJUNOK_clean_linker_0, # of connection points: 2
#     Edge 166, Type (0, 0), BuildingBlock: AJUNOK_clean_linker_0, # of connection points: 2
#     Edge 167, Type (0, 0), BuildingBlock: AJUNOK_clean_linker_0, # of connection points: 2
#     Edge 168, Type (0, 0), BuildingBlock: AJUNOK_clean_linker_0, # of connection points: 2
#     Edge 169, Type (0, 0), BuildingBlock: AJUNOK_clean_linker_0, # of connection points: 2
#     Edge 170, Type (0, 0), BuildingBlock: AJUNOK_clean_linker_0, # of connection points: 2
#     Edge 171, Type (0, 0), BuildingBlock: AJUNOK_clean_linker_0, # of connection points: 2
#     Edge 172, Type (0, 0), BuildingBlock: AJUNOK_clean_linker_0, # of connection points: 2
#     Edge 173, Type (0, 0), BuildingBlock: AJUNOK_clean_linker_0, # of connection points: 2
#     Edge 174, Type (0, 0), BuildingBlock: AJUNOK_clean_linker_0, # of connection points: 2
#     Edge 175, Type (0, 0), BuildingBlock: AJUNOK_clean_linker_0, # of connection points: 2
#     Edge 176, Type (0, 0), BuildingBlock: AJUNOK_clean_linker_0, # of connection points: 2
#     Edge 177, Type (0, 0), BuildingBlock: AJUNOK_clean_linker_0, # of connection points: 2
#     Edge 178, Type (0, 0), BuildingBlock: AJUNOK_clean_linker_0, # of connection points: 2
#     Edge 179, Type (0, 0), BuildingBlock: AJUNOK_clean_linker_0, # of connection points: 2
#     Edge 180, Type (0, 0), BuildingBlock: AJUNOK_clean_linker_0, # of connection points: 2
#     Edge 181, Type (0, 0), BuildingBlock: AJUNOK_clean_linker_0, # of connection points: 2
#     Edge 182, Type (0, 0), BuildingBlock: AJUNOK_clean_linker_0, # of connection points: 2
#     Edge 183, Type (0, 0), BuildingBlock: AJUNOK_clean_linker_0, # of connection points: 2
#     Edge 184, Type (0, 0), BuildingBlock: AJUNOK_clean_linker_0, # of connection points: 2
#     Edge 185, Type (0, 0), BuildingBlock: AJUNOK_clean_linker_0, # of connection points: 2
#     Edge 186, Type (0, 0), BuildingBlock: AJUNOK_clean_linker_0, # of connection points: 2
#     Edge 187, Type (0, 0), BuildingBlock: AJUNOK_clean_linker_0, # of connection points: 2
#     Edge 188, Type (0, 0), BuildingBlock: AJUNOK_clean_linker_0, # of connection points: 2
#     Edge 189, Type (0, 0), BuildingBlock: AJUNOK_clean_linker_0, # of connection points: 2
#     Edge 190, Type (0, 0), BuildingBlock: AJUNOK_clean_linker_0, # of connection points: 2
#     Edge 191, Type (0, 0), BuildingBlock: AJUNOK_clean_linker_0, # of connection points: 2
#     Edge 192, Type (0, 0), BuildingBlock: AJUNOK_clean_linker_0, # of connection points: 2
#     Edge 193, Type (0, 0), BuildingBlock: AJUNOK_clean_linker_0, # of connection points: 2
#     Edge 194, Type (0, 0), BuildingBlock: AJUNOK_clean_linker_0, # of connection points: 2
#     Edge 195, Type (0, 0), BuildingBlock: AJUNOK_clean_linker_0, # of connection points: 2
#     Edge 196, Type (0, 0), BuildingBlock: AJUNOK_clean_linker_0, # of connection points: 2
#     Edge 197, Type (0, 0), BuildingBlock: AJUNOK_clean_linker_0, # of connection points: 2
#     Edge 198, Type (0, 0), BuildingBlock: AJUNOK_clean_linker_0, # of connection points: 2
#     Edge 199, Type (0, 0), BuildingBlock: AJUNOK_clean_linker_0, # of connection points: 2
#     Edge 200, Type (0, 0), BuildingBlock: AJUNOK_clean_linker_0, # of connection points: 2
#     Edge 201, Type (0, 0), BuildingBlock: AJUNOK_clean_linker_0, # of connection points: 2
#     Edge 202, Type (0, 0), BuildingBlock: AJUNOK_clean_linker_0, # of connection points: 2
#     Edge 203, Type (0, 0), BuildingBlock: AJUNOK_clean_linker_0, # of connection points: 2
#     Edge 204, Type (0, 0), BuildingBlock: AJUNOK_clean_linker_0, # of connection points: 2
#     Edge 205, Type (0, 0), BuildingBlock: AJUNOK_clean_linker_0, # of connection points: 2
#     Edge 206, Type (0, 0), BuildingBlock: AJUNOK_clean_linker_0, # of connection points: 2
#     Edge 207, Type (0, 0), BuildingBlock: AJUNOK_clean_linker_0, # of connection points: 2
#     Edge 208, Type (0, 0), BuildingBlock: AJUNOK_clean_linker_0, # of connection points: 2
#     Edge 209, Type (0, 0), BuildingBlock: AJUNOK_clean_linker_0, # of connection points: 2
#     Edge 210, Type (0, 0), BuildingBlock: AJUNOK_clean_linker_0, # of connection points: 2
#     Edge 211, Type (0, 0), BuildingBlock: AJUNOK_clean_linker_0, # of connection points: 2
#     Edge 212, Type (0, 0), BuildingBlock: AJUNOK_clean_linker_0, # of connection points: 2
#     Edge 213, Type (0, 0), BuildingBlock: AJUNOK_clean_linker_0, # of connection points: 2
#     Edge 214, Type (0, 0), BuildingBlock: AJUNOK_clean_linker_0, # of connection points: 2
#     Edge 215, Type (0, 0), BuildingBlock: AJUNOK_clean_linker_0, # of connection points: 2
#     Edge 216, Type (0, 0), BuildingBlock: AJUNOK_clean_linker_0, # of connection points: 2
#     Edge 217, Type (0, 0), BuildingBlock: AJUNOK_clean_linker_0, # of connection points: 2
#     Edge 218, Type (0, 0), BuildingBlock: AJUNOK_clean_linker_0, # of connection points: 2
#     Edge 219, Type (0, 0), BuildingBlock: AJUNOK_clean_linker_0, # of connection points: 2
#     Edge 220, Type (0, 0), BuildingBlock: AJUNOK_clean_linker_0, # of connection points: 2
#     Edge 221, Type (0, 0), BuildingBlock: AJUNOK_clean_linker_0, # of connection points: 2
#     Edge 222, Type (0, 0), BuildingBlock: AJUNOK_clean_linker_0, # of connection points: 2
#     Edge 223, Type (0, 0), BuildingBlock: AJUNOK_clean_linker_0, # of connection points: 2
#     Edge 224, Type (0, 0), BuildingBlock: AJUNOK_clean_linker_0, # of connection points: 2
#     Edge 225, Type (0, 0), BuildingBlock: AJUNOK_clean_linker_0, # of connection points: 2
#     Edge 226, Type (0, 0), BuildingBlock: AJUNOK_clean_linker_0, # of connection points: 2
#     Edge 227, Type (0, 0), BuildingBlock: AJUNOK_clean_linker_0, # of connection points: 2
#     Edge 228, Type (0, 0), BuildingBlock: AJUNOK_clean_linker_0, # of connection points: 2
#     Edge 229, Type (0, 0), BuildingBlock: AJUNOK_clean_linker_0, # of connection points: 2
#     Edge 230, Type (0, 0), BuildingBlock: AJUNOK_clean_linker_0, # of connection points: 2
#     Edge 231, Type (0, 0), BuildingBlock: AJUNOK_clean_linker_0, # of connection points: 2
#     Edge 232, Type (0, 0), BuildingBlock: AJUNOK_clean_linker_0, # of connection points: 2
#     Edge 233, Type (0, 0), BuildingBlock: AJUNOK_clean_linker_0, # of connection points: 2
#     Edge 234, Type (0, 0), BuildingBlock: AJUNOK_clean_linker_0, # of connection points: 2
#     Edge 235, Type (0, 0), BuildingBlock: AJUNOK_clean_linker_0, # of connection points: 2
#     Edge 236, Type (0, 0), BuildingBlock: AJUNOK_clean_linker_0, # of connection points: 2
#     Edge 237, Type (0, 0), BuildingBlock: AJUNOK_clean_linker_0, # of connection points: 2
#     Edge 238, Type (0, 0), BuildingBlock: AJUNOK_clean_linker_0, # of connection points: 2
#     Edge 239, Type (0, 0), BuildingBlock: AJUNOK_clean_linker_0, # of connection points: 2
#     Edge 240, Type (0, 0), BuildingBlock: AJUNOK_clean_linker_0, # of connection points: 2
#     Edge 241, Type (0, 0), BuildingBlock: AJUNOK_clean_linker_0, # of connection points: 2
#     Edge 242, Type (0, 0), BuildingBlock: AJUNOK_clean_linker_0, # of connection points: 2
#     Edge 243, Type (0, 0), BuildingBlock: AJUNOK_clean_linker_0, # of connection points: 2
#     Edge 244, Type (0, 0), BuildingBlock: AJUNOK_clean_linker_0, # of connection points: 2
#     Edge 245, Type (0, 0), BuildingBlock: AJUNOK_clean_linker_0, # of connection points: 2
#     Edge 246, Type (0, 0), BuildingBlock: AJUNOK_clean_linker_0, # of connection points: 2
#     Edge 247, Type (0, 0), BuildingBlock: AJUNOK_clean_linker_0, # of connection points: 2
#     Edge 248, Type (0, 0), BuildingBlock: AJUNOK_clean_linker_0, # of connection points: 2
#     Edge 249, Type (0, 0), BuildingBlock: AJUNOK_clean_linker_0, # of connection points: 2
#     Edge 250, Type (0, 0), BuildingBlock: AJUNOK_clean_linker_0, # of connection points: 2
#     Edge 251, Type (0, 0), BuildingBlock: AJUNOK_clean_linker_0, # of connection points: 2
#     Edge 252, Type (0, 0), BuildingBlock: AJUNOK_clean_linker_0, # of connection points: 2
#     Edge 253, Type (0, 0), BuildingBlock: AJUNOK_clean_linker_0, # of connection points: 2
#     Edge 254, Type (0, 0), BuildingBlock: AJUNOK_clean_linker_0, # of connection points: 2
#     Edge 255, Type (0, 0), BuildingBlock: AJUNOK_clean_linker_0, # of connection points: 2
#     Edge 256, Type (0, 0), BuildingBlock: AJUNOK_clean_linker_0, # of connection points: 2
#     Edge 257, Type (0, 0), BuildingBlock: AJUNOK_clean_linker_0, # of connection points: 2
#     Edge 258, Type (0, 0), BuildingBlock: AJUNOK_clean_linker_0, # of connection points: 2
#     Edge 259, Type (0, 0), BuildingBlock: AJUNOK_clean_linker_0, # of connection points: 2
#     Edge 260, Type (0, 0), BuildingBlock: AJUNOK_clean_linker_0, # of connection points: 2
#     Edge 261, Type (0, 0), BuildingBlock: AJUNOK_clean_linker_0, # of connection points: 2
#     Edge 262, Type (0, 0), BuildingBlock: AJUNOK_clean_linker_0, # of connection points: 2
#     Edge 263, Type (0, 0), BuildingBlock: AJUNOK_clean_linker_0, # of connection points: 2
#     Edge 264, Type (0, 0), BuildingBlock: AJUNOK_clean_linker_0, # of connection points: 2
#     Edge 265, Type (0, 0), BuildingBlock: AJUNOK_clean_linker_0, # of connection points: 2
#     Edge 266, Type (0, 0), BuildingBlock: AJUNOK_clean_linker_0, # of connection points: 2
#     Edge 267, Type (0, 0), BuildingBlock: AJUNOK_clean_linker_0, # of connection points: 2
#     Edge 268, Type (0, 0), BuildingBlock: AJUNOK_clean_linker_0, # of connection points: 2
#     Edge 269, Type (0, 0), BuildingBlock: AJUNOK_clean_linker_0, # of connection points: 2
#     Edge 270, Type (0, 0), BuildingBlock: AJUNOK_clean_linker_0, # of connection points: 2
#     Edge 271, Type (0, 0), BuildingBlock: AJUNOK_clean_linker_0, # of connection points: 2
#     Edge 272, Type (0, 0), BuildingBlock: AJUNOK_clean_linker_0, # of connection points: 2
#     Edge 273, Type (0, 0), BuildingBlock: AJUNOK_clean_linker_0, # of connection points: 2
#     Edge 274, Type (0, 0), BuildingBlock: AJUNOK_clean_linker_0, # of connection points: 2
#     Edge 275, Type (0, 0), BuildingBlock: AJUNOK_clean_linker_0, # of connection points: 2
#     Edge 276, Type (0, 0), BuildingBlock: AJUNOK_clean_linker_0, # of connection points: 2
#     Edge 277, Type (0, 0), BuildingBlock: AJUNOK_clean_linker_0, # of connection points: 2
#     Edge 278, Type (0, 0), BuildingBlock: AJUNOK_clean_linker_0, # of connection points: 2
#     Edge 279, Type (0, 0), BuildingBlock: AJUNOK_clean_linker_0, # of connection points: 2
#     Edge 280, Type (0, 0), BuildingBlock: AJUNOK_clean_linker_0, # of connection points: 2
#     Edge 281, Type (0, 0), BuildingBlock: AJUNOK_clean_linker_0, # of connection points: 2
#     Edge 282, Type (0, 0), BuildingBlock: AJUNOK_clean_linker_0, # of connection points: 2
#     Edge 283, Type (0, 0), BuildingBlock: AJUNOK_clean_linker_0, # of connection points: 2
#     Edge 284, Type (0, 0), BuildingBlock: AJUNOK_clean_linker_0, # of connection points: 2
#     Edge 285, Type (0, 0), BuildingBlock: AJUNOK_clean_linker_0, # of connection points: 2
#     Edge 286, Type (0, 0), BuildingBlock: AJUNOK_clean_linker_0, # of connection points: 2
#     Edge 287, Type (0, 0), BuildingBlock: AJUNOK_clean_linker_0, # of connection points: 2
# Relax obj value: 0.259
# Max RMSD: 0.178
# Mean RMSD: 0.175
data_MOF--net-wse--node1-QUQFOY_clean_sbu_1--edge1-AJUNOK_clean_linker_0
_symmetry_space_group_name_H-M    P1
_symmetry_Int_Tables_number       1
_symmetry_cell_setting            triclinic
loop_
_symmetry_equiv_pos_as_xyz
'x, y, z'
_cell_length_a     79.976652
_cell_length_b     79.95859
_cell_length_c     79.976104
_cell_angle_alpha  90.000453
_cell_angle_beta   90.00192
_cell_angle_gamma 90.0004
loop_
_atom_site_label
_atom_site_type_symbol
_atom_site_fract_x
_atom_site_fract_y
_atom_site_fract_z
_atom_type_partial_charge
O0 O 0.05166 0.17992 0.42511 0.0
Cd1 Cd 0.0752 0.18682 0.43337 0.0
Cd2 Cd 0.074 0.15039 0.43194 0.0
O3 O 0.05085 0.15273 0.42083 0.0
O4 O 0.06777 0.20912 0.4412 0.0
O5 O 0.0865 0.20658 0.42137 0.0
C6 C 0.07747 0.21621 0.43061 0.0
C7 C 0.09749 0.13777 0.42027 0.0
C8 C 0.04375 0.16694 0.42046 0.0
C9 C 0.08032 0.16606 0.46489 0.0
O10 O 0.07449 0.15325 0.45753 0.0
O11 O 0.08359 0.17928 0.45669 0.0
O12 O 0.0853 0.12895 0.42619 0.0
O13 O 0.09579 0.15387 0.42007 0.0
O14 O 0.85001 0.07377 0.45842 0.0
Cd15 Cd 0.85188 0.07261 0.43277 0.0
Cd16 Cd 0.81666 0.07591 0.43497 0.0
O17 O 0.82553 0.08624 0.45698 0.0
O18 O 0.87298 0.08382 0.42572 0.0
O19 O 0.84773 0.09418 0.42082 0.0
C20 C 0.86381 0.09601 0.4203 0.0
C21 C 0.78781 0.0816 0.43251 0.0
C22 C 0.83826 0.08185 0.46539 0.0
C23 C 0.83383 0.04245 0.42408 0.0
O24 O 0.82147 0.05102 0.42929 0.0
O25 O 0.84808 0.04929 0.42246 0.0
O26 O 0.79386 0.07221 0.44398 0.0
O27 O 0.7981 0.08785 0.42181 0.0
O28 O 0.95142 0.82094 0.435 0.0
Cd29 Cd 0.92631 0.81611 0.43867 0.0
Cd30 Cd 0.93036 0.85083 0.43511 0.0
O31 O 0.95418 0.84679 0.42599 0.0
O32 O 0.93018 0.79335 0.44769 0.0
O33 O 0.91581 0.79721 0.4247 0.0
C34 C 0.92218 0.78697 0.43539 0.0
C35 C 0.90781 0.86345 0.42181 0.0
C36 C 0.96062 0.83274 0.42968 0.0
C37 C 0.92047 0.8378 0.46835 0.0
O38 O 0.92852 0.84922 0.46079 0.0
O39 O 0.91547 0.825 0.46038 0.0
O40 O 0.92002 0.87224 0.42772 0.0
O41 O 0.9091 0.84731 0.4224 0.0
O42 O 0.1545 0.93218 0.45861 0.0
Cd43 Cd 0.15055 0.93247 0.43316 0.0
Cd44 Cd 0.18695 0.93127 0.43286 0.0
O45 O 0.18026 0.92254 0.4563 0.0
O46 O 0.12961 0.92 0.42794 0.0
O47 O 0.1549 0.91087 0.42126 0.0
C48 C 0.13894 0.90826 0.42189 0.0
C49 C 0.21624 0.92943 0.42922 0.0
C50 C 0.16752 0.92588 0.46518 0.0
C51 C 0.16636 0.96262 0.42068 0.0
O52 O 0.17952 0.95473 0.42481 0.0
O53 O 0.15217 0.95558 0.42184 0.0
O54 O 0.20934 0.93916 0.4399 0.0
O55 O 0.20649 0.92008 0.42043 0.0
O56 O 0.04876 0.82466 0.57731 0.0
Cd57 Cd 0.07249 0.81771 0.56967 0.0
Cd58 Cd 0.07124 0.85409 0.57026 0.0
O59 O 0.04758 0.85198 0.58045 0.0
O60 O 0.06519 0.7949 0.56342 0.0
O61 O 0.08424 0.799 0.58279 0.0
C62 C 0.07492 0.78876 0.57455 0.0
C63 C 0.09434 0.86675 0.58261 0.0
C64 C 0.04065 0.83771 0.58134 0.0
C65 C 0.07897 0.83772 0.53783 0.0
O66 O 0.07322 0.85079 0.54479 0.0
O67 O 0.08127 0.82444 0.54626 0.0
O68 O 0.08244 0.87556 0.57612 0.0
O69 O 0.09247 0.85068 0.58311 0.0
O70 O 0.15274 0.07219 0.5449 0.0
Cd71 Cd 0.14974 0.07153 0.57047 0.0
Cd72 Cd 0.18614 0.07333 0.56943 0.0
O73 O 0.17858 0.08174 0.54615 0.0
O74 O 0.1283 0.08287 0.57627 0.0
O75 O 0.15323 0.09331 0.58238 0.0
C76 C 0.13714 0.09506 0.58217 0.0
C77 C 0.21544 0.07644 0.57219 0.0
C78 C 0.16553 0.07832 0.53776 0.0
C79 C 0.16678 0.04148 0.58202 0.0
O80 O 0.17967 0.04959 0.5775 0.0
O81 O 0.15244 0.0483 0.58144 0.0
O82 O 0.20865 0.06649 0.56165 0.0
O83 O 0.20555 0.08513 0.58149 0.0
O84 O 0.9584 0.17925 0.58082 0.0
Cd85 Cd 0.93668 0.1883 0.57045 0.0
Cd86 Cd 0.93256 0.15204 0.56939 0.0
O87 O 0.95674 0.15177 0.57898 0.0
O88 O 0.94546 0.2113 0.56752 0.0
O89 O 0.92287 0.20645 0.58229 0.0
C90 C 0.93353 0.21706 0.57651 0.0
C91 C 0.90924 0.13967 0.5818 0.0
C92 C 0.96493 0.16489 0.58274 0.0
C93 C 0.93054 0.17036 0.53697 0.0
O94 O 0.93018 0.15614 0.54404 0.0
O95 O 0.93269 0.18365 0.54539 0.0
O96 O 0.92056 0.13078 0.57446 0.0
O97 O 0.91183 0.15559 0.58308 0.0
O98 O 0.85044 0.93046 0.54581 0.0
Cd99 Cd 0.85176 0.93173 0.57151 0.0
Cd100 Cd 0.81658 0.92883 0.56852 0.0
O101 O 0.82535 0.91916 0.54619 0.0
O102 O 0.87304 0.92106 0.57887 0.0
O103 O 0.84801 0.91019 0.5837 0.0
C104 C 0.86412 0.90879 0.58446 0.0
C105 C 0.78779 0.92289 0.5713 0.0
C106 C 0.83849 0.92324 0.53826 0.0
C107 C 0.83369 0.96214 0.57968 0.0
O108 O 0.82133 0.95366 0.57434 0.0
O109 O 0.84787 0.9552 0.58152 0.0
O110 O 0.79363 0.93244 0.55985 0.0
O111 O 0.79828 0.91657 0.58178 0.0
O112 O 0.45832 0.07285 0.15803 0.0
Cd113 Cd 0.43302 0.07141 0.15322 0.0
Cd114 Cd 0.43136 0.06765 0.18941 0.0
O115 O 0.45669 0.07091 0.18557 0.0
O116 O 0.42894 0.08322 0.13164 0.0
O117 O 0.41996 0.0927 0.15605 0.0
C118 C 0.42163 0.09486 0.14011 0.0
C119 C 0.42353 0.07112 0.21759 0.0
C120 C 0.46528 0.07252 0.17231 0.0
C121 C 0.41837 0.03975 0.16585 0.0
O122 O 0.42063 0.04625 0.18014 0.0
O123 O 0.42251 0.04766 0.15269 0.0
O124 O 0.43264 0.05895 0.21257 0.0
O125 O 0.419 0.08207 0.20667 0.0
O126 O 0.95546 0.42271 0.17782 0.0
Cd127 Cd 0.93363 0.43313 0.18649 0.0
Cd128 Cd 0.93095 0.43491 0.15004 0.0
O129 O 0.95493 0.42477 0.15033 0.0
O130 O 0.94257 0.4363 0.20937 0.0
O131 O 0.91995 0.42148 0.20493 0.0
C132 C 0.93073 0.42736 0.21536 0.0
C133 C 0.90739 0.42302 0.13758 0.0
C134 C 0.96256 0.42083 0.16374 0.0
C135 C 0.92894 0.46702 0.16877 0.0
O136 O 0.9292 0.46029 0.15439 0.0
O137 O 0.92998 0.45824 0.18196 0.0
O138 O 0.91894 0.43006 0.12873 0.0
O139 O 0.90987 0.42173 0.15352 0.0
O140 O 0.54589 0.93004 0.15563 0.0
Cd141 Cd 0.5713 0.9324 0.15184 0.0
Cd142 Cd 0.57199 0.93484 0.18861 0.0
O143 O 0.54709 0.93082 0.18326 0.0
O144 O 0.57665 0.9212 0.13023 0.0
O145 O 0.58478 0.91144 0.15484 0.0
C146 C 0.58383 0.90953 0.1388 0.0
C147 C 0.57693 0.9322 0.21765 0.0
C148 C 0.53876 0.92952 0.16981 0.0
C149 C 0.58483 0.96391 0.16627 0.0
O150 O 0.58261 0.95667 0.18023 0.0
O151 O 0.58115 0.95647 0.1527 0.0
O152 O 0.56795 0.94384 0.21132 0.0
O153 O 0.58328 0.92145 0.20747 0.0
O154 O 0.04745 0.58235 0.17835 0.0
Cd155 Cd 0.07015 0.57315 0.18665 0.0
Cd156 Cd 0.07019 0.57138 0.15048 0.0
O157 O 0.04731 0.58322 0.15084 0.0
O158 O 0.06171 0.56945 0.20965 0.0
O159 O 0.08284 0.58633 0.20469 0.0
C160 C 0.0725 0.57989 0.21523 0.0
C161 C 0.09481 0.58208 0.13926 0.0
C162 C 0.04009 0.58586 0.16472 0.0
C163 C 0.07446 0.53956 0.16891 0.0
O164 O 0.06995 0.54604 0.15512 0.0
O165 O 0.07679 0.54858 0.18178 0.0
O166 O 0.08329 0.57586 0.12977 0.0
O167 O 0.0918 0.58313 0.15513 0.0
O168 O 0.45969 0.93203 0.85027 0.0
Cd169 Cd 0.43417 0.93214 0.85379 0.0
Cd170 Cd 0.43435 0.92963 0.81782 0.0
O171 O 0.45738 0.92048 0.82534 0.0
O172 O 0.42852 0.91988 0.87476 0.0
O173 O 0.4227 0.91034 0.84939 0.0
C174 C 0.42294 0.90793 0.8654 0.0
C175 C 0.43155 0.92633 0.78858 0.0
C176 C 0.46627 0.92473 0.83779 0.0
C177 C 0.42214 0.96181 0.83688 0.0
O178 O 0.42671 0.9536 0.82406 0.0
O179 O 0.42265 0.95505 0.85124 0.0
O180 O 0.44235 0.93606 0.7953 0.0
O181 O 0.42196 0.91801 0.79851 0.0
O182 O 0.04825 0.42507 0.81982 0.0
Cd183 Cd 0.07282 0.43203 0.81521 0.0
Cd184 Cd 0.06908 0.43191 0.85045 0.0
O185 O 0.04627 0.42043 0.84689 0.0
O186 O 0.06926 0.43974 0.79195 0.0
O187 O 0.08602 0.4187 0.79768 0.0
C188 C 0.07952 0.4286 0.78675 0.0
C189 C 0.09294 0.4206 0.86266 0.0
C190 C 0.03975 0.42035 0.8324 0.0
C191 C 0.07713 0.46399 0.83525 0.0
O192 O 0.06927 0.45749 0.84739 0.0
O193 O 0.0818 0.45502 0.82302 0.0
O194 O 0.08065 0.42595 0.87171 0.0
O195 O 0.0911 0.42066 0.84658 0.0
O196 O 0.54575 0.07057 0.853 0.0
Cd197 Cd 0.57143 0.07017 0.85457 0.0
Cd198 Cd 0.56904 0.07362 0.81928 0.0
O199 O 0.54643 0.08248 0.8282 0.0
O200 O 0.57867 0.08216 0.87519 0.0
O201 O 0.58267 0.09194 0.84957 0.0
C202 C 0.58355 0.09422 0.86557 0.0
C203 C 0.57098 0.07946 0.79042 0.0
C204 C 0.53832 0.07796 0.84108 0.0
C205 C 0.58171 0.04062 0.83615 0.0
O206 O 0.57636 0.04913 0.82383 0.0
O207 O 0.58242 0.04715 0.85062 0.0
O208 O 0.56014 0.0694 0.79655 0.0
O209 O 0.58126 0.08646 0.80067 0.0
O210 O 0.95682 0.57666 0.82333 0.0
Cd211 Cd 0.93263 0.56902 0.81796 0.0
Cd212 Cd 0.936 0.56952 0.8537 0.0
O213 O 0.95884 0.58098 0.85045 0.0
O214 O 0.938 0.56095 0.79519 0.0
O215 O 0.92023 0.58147 0.7992 0.0
C216 C 0.92798 0.57176 0.78893 0.0
C217 C 0.91216 0.58099 0.86579 0.0
C218 C 0.96529 0.58135 0.83594 0.0
C219 C 0.92848 0.53719 0.83822 0.0
O220 O 0.93584 0.54396 0.85055 0.0
O221 O 0.92385 0.54596 0.82582 0.0
O222 O 0.92433 0.57548 0.8749 0.0
O223 O 0.91408 0.58092 0.84971 0.0
O224 O 0.15367 0.46019 0.06727 0.0
Cd225 Cd 0.15031 0.43464 0.06771 0.0
Cd226 Cd 0.18572 0.43476 0.07187 0.0
O227 O 0.17778 0.45791 0.08035 0.0
O228 O 0.12926 0.42894 0.07978 0.0
O229 O 0.15459 0.42376 0.0898 0.0
C230 C 0.13855 0.42377 0.09198 0.0
C231 C 0.2145 0.43222 0.07756 0.0
C232 C 0.16578 0.46686 0.07507 0.0
C233 C 0.16846 0.4219 0.03907 0.0
O234 O 0.18095 0.42673 0.04765 0.0
O235 O 0.15385 0.4225 0.04527 0.0
O236 O 0.20859 0.44291 0.0672 0.0
O237 O 0.20407 0.42239 0.08492 0.0
O238 O 0.15264 0.543 0.9356 0.0
Cd239 Cd 0.14909 0.56853 0.93559 0.0
Cd240 Cd 0.18501 0.56866 0.93245 0.0
O241 O 0.17763 0.54525 0.92417 0.0
O242 O 0.12817 0.57427 0.92335 0.0
O243 O 0.15358 0.57993 0.91378 0.0
C244 C 0.13756 0.57988 0.91144 0.0
C245 C 0.21426 0.57111 0.9292 0.0
C246 C 0.16523 0.53635 0.92859 0.0
C247 C 0.16629 0.58146 0.96469 0.0
O248 O 0.17903 0.57721 0.95619 0.0
O249 O 0.15178 0.58029 0.95835 0.0
O250 O 0.20739 0.56089 0.93942 0.0
O251 O 0.20447 0.58027 0.92027 0.0
O252 O 0.45836 0.15223 0.93173 0.0
Cd253 Cd 0.43271 0.15014 0.93271 0.0
Cd254 Cd 0.43474 0.18539 0.92862 0.0
O255 O 0.45651 0.17607 0.91816 0.0
O256 O 0.42569 0.12917 0.92123 0.0
O257 O 0.42102 0.15453 0.91105 0.0
C258 C 0.42046 0.13847 0.90906 0.0
C259 C 0.43303 0.21432 0.92306 0.0
C260 C 0.46512 0.16367 0.92306 0.0
C261 C 0.42351 0.16876 0.96233 0.0
O262 O 0.4287 0.18095 0.95351 0.0
O263 O 0.42214 0.15431 0.95586 0.0
O264 O 0.44436 0.2079 0.93239 0.0
O265 O 0.42215 0.20431 0.91665 0.0
O266 O 0.84344 0.45909 0.93012 0.0
Cd267 Cd 0.84845 0.43391 0.93216 0.0
Cd268 Cd 0.81304 0.43194 0.93793 0.0
O269 O 0.81614 0.45731 0.93397 0.0
O270 O 0.86962 0.42989 0.91964 0.0
O271 O 0.84504 0.42022 0.91139 0.0
C272 C 0.86082 0.42224 0.90847 0.0
C273 C 0.78519 0.42316 0.93429 0.0
C274 C 0.82917 0.46597 0.93117 0.0
C275 C 0.83776 0.42027 0.96508 0.0
O276 O 0.82302 0.42192 0.95943 0.0
O277 O 0.85031 0.42438 0.95622 0.0
O278 O 0.78979 0.43251 0.94646 0.0
O279 O 0.79638 0.41881 0.92354 0.0
O280 O 0.54506 0.84341 0.93176 0.0
Cd281 Cd 0.5704 0.84788 0.93356 0.0
Cd282 Cd 0.57228 0.8131 0.9381 0.0
O283 O 0.54672 0.81629 0.93652 0.0
O284 O 0.57457 0.86968 0.92218 0.0
O285 O 0.5837 0.84547 0.91236 0.0
C286 C 0.58201 0.86145 0.91047 0.0
C287 C 0.58039 0.78677 0.92816 0.0
C288 C 0.53806 0.82928 0.93364 0.0
C289 C 0.58516 0.8357 0.96584 0.0
O290 O 0.58373 0.82112 0.95969 0.0
O291 O 0.58047 0.84843 0.95752 0.0
O292 O 0.57287 0.7886 0.9422 0.0
O293 O 0.5839 0.79998 0.91961 0.0
O294 O 0.85262 0.54759 0.07081 0.0
Cd295 Cd 0.85389 0.57328 0.07025 0.0
Cd296 Cd 0.81881 0.57068 0.07424 0.0
O297 O 0.82815 0.54831 0.08333 0.0
O298 O 0.87455 0.58076 0.08195 0.0
O299 O 0.84898 0.58446 0.09203 0.0
C300 C 0.865 0.58548 0.09413 0.0
C301 C 0.79005 0.57234 0.08051 0.0
C302 C 0.84096 0.5402 0.07862 0.0
C303 C 0.83507 0.58317 0.0409 0.0
O304 O 0.82288 0.57779 0.0496 0.0
O305 O 0.84957 0.58418 0.04731 0.0
O306 O 0.79616 0.56137 0.07056 0.0
O307 O 0.80027 0.58289 0.08714 0.0
O308 O 0.46029 0.85177 0.0719 0.0
Cd309 Cd 0.43464 0.85403 0.07118 0.0
Cd310 Cd 0.43619 0.81804 0.07517 0.0
O311 O 0.45873 0.82715 0.08417 0.0
O312 O 0.42768 0.87485 0.08296 0.0
O313 O 0.42318 0.84936 0.0929 0.0
C314 C 0.42252 0.8654 0.09504 0.0
C315 C 0.43498 0.78893 0.07975 0.0
C316 C 0.4672 0.83986 0.0798 0.0
C317 C 0.42286 0.83527 0.04239 0.0
O318 O 0.42778 0.82294 0.05114 0.0
O319 O 0.42337 0.84999 0.04834 0.0
O320 O 0.44552 0.79575 0.06979 0.0
O321 O 0.42473 0.79866 0.08749 0.0
O322 O 0.54405 0.1555 0.07007 0.0
Cd323 Cd 0.56955 0.15193 0.06965 0.0
Cd324 Cd 0.56936 0.18756 0.07276 0.0
O325 O 0.54666 0.1799 0.08259 0.0
O326 O 0.57531 0.13086 0.08163 0.0
O327 O 0.58126 0.15615 0.09134 0.0
C328 C 0.58102 0.14012 0.09361 0.0
C329 C 0.57258 0.21668 0.07659 0.0
C330 C 0.53763 0.16769 0.07797 0.0
C331 C 0.58071 0.16913 0.03996 0.0
O332 O 0.57605 0.18177 0.04839 0.0
O333 O 0.58078 0.15472 0.04666 0.0
O334 O 0.56125 0.21029 0.06726 0.0
O335 O 0.58247 0.20648 0.08421 0.0
O336 O 0.90845 0.82297 0.54808 0.0
Cd337 Cd 0.90739 0.8206 0.57376 0.0
Cd338 Cd 0.94217 0.82032 0.57043 0.0
O339 O 0.93507 0.83009 0.54755 0.0
O340 O 0.8863 0.83189 0.58072 0.0
O341 O 0.9115 0.84189 0.58633 0.0
C342 C 0.89544 0.84393 0.58642 0.0
C343 C 0.96959 0.82743 0.57856 0.0
C344 C 0.92102 0.82869 0.54024 0.0
C345 C 0.92281 0.78835 0.5812 0.0
O346 O 0.93586 0.79562 0.57568 0.0
O347 O 0.90942 0.79663 0.58345 0.0
O348 O 0.96661 0.8169 0.56682 0.0
O349 O 0.957 0.83432 0.58589 0.0
O350 O 0.20924 0.93645 0.57708 0.0
Cd351 Cd 0.18563 0.94376 0.56879 0.0
Cd352 Cd 0.18322 0.90861 0.57025 0.0
O353 O 0.20717 0.90906 0.57986 0.0
O354 O 0.18999 0.96823 0.56717 0.0
O355 O 0.17012 0.95799 0.58331 0.0
C356 C 0.17818 0.9708 0.57774 0.0
C357 C 0.15962 0.89709 0.58281 0.0
C358 C 0.2157 0.92242 0.58094 0.0
C359 C 0.17818 0.92413 0.5369 0.0
O360 O 0.18115 0.91068 0.54479 0.0
O361 O 0.17833 0.93814 0.54445 0.0
O362 O 0.1712 0.88773 0.57654 0.0
O363 O 0.1622 0.91306 0.58316 0.0
O364 O 0.0937 0.1817 0.54425 0.0
Cd365 Cd 0.09512 0.184 0.56991 0.0
Cd366 Cd 0.06107 0.18332 0.56776 0.0
O367 O 0.06731 0.1738 0.54453 0.0
O368 O 0.11599 0.17235 0.57696 0.0
O369 O 0.09059 0.16277 0.58241 0.0
C370 C 0.10661 0.16046 0.5826 0.0
C371 C 0.03515 0.17403 0.57807 0.0
C372 C 0.08105 0.17566 0.53677 0.0
C373 C 0.07927 0.21598 0.57766 0.0
O374 O 0.06625 0.20843 0.57246 0.0
O375 O 0.09286 0.20795 0.57963 0.0
O376 O 0.03625 0.18458 0.56602 0.0
O377 O 0.04882 0.16848 0.58457 0.0
O378 O 0.79506 0.06912 0.57152 0.0
Cd379 Cd 0.81956 0.06195 0.56683 0.0
Cd380 Cd 0.82103 0.09672 0.57092 0.0
O381 O 0.79692 0.09519 0.58034 0.0
O382 O 0.81496 0.03788 0.56238 0.0
O383 O 0.83216 0.04588 0.58229 0.0
C384 C 0.82484 0.03389 0.57438 0.0
C385 C 0.84418 0.10888 0.58374 0.0
C386 C 0.7882 0.08223 0.57739 0.0
C387 C 0.82881 0.08314 0.53715 0.0
O388 O 0.82349 0.09573 0.54524 0.0
O389 O 0.83 0.06896 0.54425 0.0
O390 O 0.83216 0.11791 0.57784 0.0
O391 O 0.8423 0.0928 0.58364 0.0
O392 O 0.91383 0.17928 0.45734 0.0
Cd393 Cd 0.9103 0.18267 0.43196 0.0
Cd394 Cd 0.94582 0.18569 0.43252 0.0
O395 O 0.94147 0.17974 0.45719 0.0
O396 O 0.88829 0.17209 0.42696 0.0
O397 O 0.91239 0.16186 0.41801 0.0
C398 C 0.89636 0.16026 0.41952 0.0
C399 C 0.97293 0.17849 0.42334 0.0
C400 C 0.92772 0.17805 0.46495 0.0
C401 C 0.924 0.21584 0.4222 0.0
O402 O 0.9381 0.20918 0.42526 0.0
O403 O 0.91065 0.2072 0.42308 0.0
O404 O 0.9702 0.19065 0.43345 0.0
O405 O 0.96019 0.17009 0.41814 0.0
O406 O 0.79475 0.93557 0.43232 0.0
Cd407 Cd 0.81937 0.94269 0.43659 0.0
Cd408 Cd 0.82041 0.9077 0.4334 0.0
O409 O 0.79621 0.90923 0.42429 0.0
O410 O 0.81484 0.96678 0.44108 0.0
O411 O 0.83174 0.95873 0.42092 0.0
C412 C 0.82457 0.97074 0.42895 0.0
C413 C 0.84338 0.8954 0.4204 0.0
C414 C 0.78768 0.92238 0.42693 0.0
C415 C 0.82923 0.92194 0.4665 0.0
O416 O 0.82334 0.90923 0.459 0.0
O417 O 0.83034 0.9359 0.45899 0.0
O418 O 0.83148 0.88643 0.42666 0.0
O419 O 0.84139 0.91146 0.42018 0.0
O420 O 0.09601 0.82082 0.45925 0.0
Cd421 Cd 0.0975 0.81892 0.43357 0.0
Cd422 Cd 0.06216 0.81918 0.43656 0.0
O423 O 0.07042 0.83087 0.45811 0.0
O424 O 0.11855 0.83035 0.42671 0.0
O425 O 0.09328 0.84038 0.42134 0.0
C426 C 0.10934 0.8424 0.42112 0.0
C427 C 0.03302 0.8234 0.43314 0.0
C428 C 0.08383 0.82825 0.46619 0.0
C429 C 0.08169 0.78704 0.42609 0.0
O430 O 0.0688 0.79442 0.43183 0.0
O431 O 0.09508 0.7952 0.42352 0.0
O432 O 0.03926 0.81437 0.4448 0.0
O433 O 0.04341 0.83032 0.42293 0.0
O434 O 0.20902 0.06545 0.42969 0.0
Cd435 Cd 0.18413 0.06003 0.43484 0.0
Cd436 Cd 0.18548 0.09471 0.43346 0.0
O437 O 0.20958 0.09242 0.4243 0.0
O438 O 0.18685 0.03542 0.43744 0.0
O439 O 0.16988 0.0463 0.41863 0.0
C440 C 0.17643 0.03324 0.42543 0.0
C441 C 0.16246 0.10666 0.42036 0.0
C442 C 0.21711 0.07846 0.42537 0.0
C443 C 0.17629 0.07991 0.46608 0.0
O444 O 0.1825 0.09268 0.45896 0.0
O445 O 0.17454 0.06629 0.45806 0.0
O446 O 0.17425 0.11583 0.42656 0.0
O447 O 0.16462 0.09062 0.42028 0.0
O448 O 0.54576 0.90875 0.82449 0.0
Cd449 Cd 0.57116 0.90606 0.82247 0.0
Cd450 Cd 0.56995 0.94185 0.81882 0.0
O451 O 0.54559 0.93632 0.8262 0.0
O452 O 0.57654 0.88472 0.83417 0.0
O453 O 0.5841 0.90958 0.84368 0.0
C454 C 0.58308 0.8936 0.84596 0.0
C455 C 0.5782 0.96951 0.82489 0.0
C456 C 0.53797 0.92236 0.82691 0.0
C457 C 0.58238 0.9192 0.78973 0.0
O458 O 0.57871 0.93348 0.79574 0.0
O459 O 0.58085 0.90606 0.79855 0.0
O460 O 0.56787 0.96603 0.81311 0.0
O461 O 0.58395 0.95726 0.83368 0.0
O462 O 0.09523 0.54316 0.82283 0.0
Cd463 Cd 0.09832 0.56849 0.82091 0.0
Cd464 Cd 0.0631 0.56843 0.81713 0.0
O465 O 0.06767 0.54372 0.824 0.0
O466 O 0.11899 0.57394 0.83368 0.0
O467 O 0.09363 0.58148 0.84183 0.0
C468 C 0.10948 0.58049 0.84497 0.0
C469 C 0.03597 0.57767 0.82385 0.0
C470 C 0.08138 0.53571 0.82489 0.0
C471 C 0.086 0.58031 0.78815 0.0
O472 O 0.07156 0.57727 0.79411 0.0
O473 O 0.09904 0.57811 0.79697 0.0
O474 O 0.03881 0.56752 0.81174 0.0
O475 O 0.04857 0.58271 0.83256 0.0
O476 O 0.45937 0.09245 0.82505 0.0
Cd477 Cd 0.43386 0.09441 0.82156 0.0
Cd478 Cd 0.43639 0.05966 0.82034 0.0
O479 O 0.45906 0.06558 0.83121 0.0
O480 O 0.42732 0.11595 0.83229 0.0
O481 O 0.42016 0.09118 0.84236 0.0
C482 C 0.42059 0.10726 0.84412 0.0
C483 C 0.42672 0.0326 0.82668 0.0
C484 C 0.46671 0.07949 0.8306 0.0
C485 C 0.42759 0.07988 0.78851 0.0
O486 O 0.4326 0.06652 0.79556 0.0
O487 O 0.42519 0.09304 0.79712 0.0
O488 O 0.43903 0.03515 0.81672 0.0
O489 O 0.41967 0.04543 0.83343 0.0
O490 O 0.90932 0.45911 0.82382 0.0
Cd491 Cd 0.90501 0.43405 0.82067 0.0
Cd492 Cd 0.9411 0.4329 0.81681 0.0
O493 O 0.93686 0.45727 0.82494 0.0
O494 O 0.88335 0.42935 0.83205 0.0
O495 O 0.90773 0.42003 0.84133 0.0
C496 C 0.89179 0.42172 0.84351 0.0
C497 C 0.96861 0.42378 0.82212 0.0
C498 C 0.92349 0.46578 0.82638 0.0
C499 C 0.91747 0.42269 0.78764 0.0
O500 O 0.93201 0.42486 0.79374 0.0
O501 O 0.90448 0.42536 0.79639 0.0
O502 O 0.96516 0.43434 0.81052 0.0
O503 O 0.95641 0.41821 0.83107 0.0
O504 O 0.54487 0.08985 0.178 0.0
Cd505 Cd 0.56991 0.09457 0.18121 0.0
Cd506 Cd 0.57097 0.05995 0.18769 0.0
O507 O 0.54544 0.06291 0.18408 0.0
O508 O 0.57366 0.11647 0.1699 0.0
O509 O 0.58411 0.09265 0.16051 0.0
C510 C 0.5817 0.1085 0.15841 0.0
C511 C 0.58138 0.03401 0.17847 0.0
C512 C 0.53741 0.07598 0.17989 0.0
C513 C 0.58216 0.084 0.21512 0.0
O514 O 0.58095 0.06906 0.2098 0.0
O515 O 0.57835 0.09628 0.20574 0.0
O516 O 0.57289 0.0355 0.19202 0.0
O517 O 0.5843 0.04736 0.1699 0.0
O518 O 0.91266 0.54632 0.17828 0.0
Cd519 Cd 0.90897 0.57169 0.18169 0.0
Cd520 Cd 0.94387 0.57202 0.18391 0.0
O521 O 0.94028 0.5472 0.1781 0.0
O522 O 0.88731 0.57709 0.17067 0.0
O523 O 0.9118 0.58584 0.16115 0.0
C524 C 0.89579 0.58461 0.15916 0.0
C525 C 0.97002 0.58261 0.17557 0.0
C526 C 0.92671 0.53904 0.17686 0.0
C527 C 0.92275 0.58158 0.21464 0.0
O528 O 0.93679 0.57887 0.20771 0.0
O529 O 0.9093 0.58046 0.20622 0.0
O530 O 0.96845 0.5723 0.18775 0.0
O531 O 0.95669 0.58713 0.16773 0.0
O532 O 0.45929 0.91302 0.17937 0.0
Cd533 Cd 0.43388 0.90972 0.18276 0.0
Cd534 Cd 0.43418 0.94446 0.18477 0.0
O535 O 0.4589 0.94064 0.17868 0.0
O536 O 0.42848 0.88798 0.17185 0.0
O537 O 0.42011 0.91244 0.16195 0.0
C538 C 0.42134 0.89641 0.16008 0.0
C539 C 0.42303 0.96999 0.17539 0.0
C540 C 0.46678 0.92691 0.17751 0.0
C541 C 0.42436 0.92388 0.21574 0.0
O542 O 0.42756 0.93782 0.2088 0.0
O543 O 0.42493 0.9104 0.20728 0.0
O544 O 0.4336 0.9692 0.18743 0.0
O545 O 0.41852 0.95622 0.16833 0.0
O546 O 0.09117 0.46003 0.17953 0.0
Cd547 Cd 0.09445 0.43466 0.18072 0.0
Cd548 Cd 0.05928 0.43437 0.18344 0.0
O549 O 0.06361 0.45944 0.17783 0.0
O550 O 0.11606 0.42995 0.16922 0.0
O551 O 0.0915 0.42207 0.15918 0.0
C552 C 0.10751 0.42331 0.15724 0.0
C553 C 0.03296 0.42458 0.17448 0.0
C554 C 0.07732 0.46752 0.17762 0.0
C555 C 0.08119 0.42228 0.213 0.0
O556 O 0.06686 0.42525 0.20672 0.0
O557 O 0.09441 0.42463 0.20449 0.0
O558 O 0.03465 0.4342 0.18722 0.0
O559 O 0.04629 0.42026 0.16649 0.0
O560 O 0.79273 0.58228 0.93242 0.0
Cd561 Cd 0.81381 0.57156 0.94292 0.0
Cd562 Cd 0.82251 0.57094 0.90833 0.0
O563 O 0.79845 0.58035 0.90543 0.0
O564 O 0.80743 0.57222 0.96699 0.0
O565 O 0.83037 0.58421 0.95764 0.0
C566 C 0.82082 0.58054 0.97011 0.0
C567 C 0.84651 0.58207 0.89588 0.0
C568 C 0.78843 0.58411 0.91722 0.0
C569 C 0.82187 0.53813 0.92647 0.0
O570 O 0.82459 0.54572 0.91281 0.0
O571 O 0.81731 0.54611 0.93944 0.0
O572 O 0.83521 0.57454 0.88716 0.0
O573 O 0.84351 0.58444 0.91159 0.0
O574 O 0.79612 0.43586 0.06459 0.0
Cd575 Cd 0.82172 0.43828 0.0604 0.0
Cd576 Cd 0.81996 0.43608 0.0941 0.0
O577 O 0.79558 0.42775 0.09091 0.0
O578 O 0.82231 0.44051 0.03561 0.0
O579 O 0.83479 0.41971 0.0488 0.0
C580 C 0.83116 0.42714 0.03495 0.0
C581 C 0.84245 0.42237 0.10642 0.0
C582 C 0.78794 0.43086 0.0773 0.0
C583 C 0.83091 0.46854 0.08063 0.0
O584 O 0.82361 0.46157 0.0929 0.0
O585 O 0.83308 0.46051 0.0671 0.0
O586 O 0.83045 0.42844 0.11537 0.0
O587 O 0.8408 0.4227 0.09031 0.0
O588 O 0.54667 0.82426 0.09481 0.0
Cd589 Cd 0.57231 0.82149 0.09603 0.0
Cd590 Cd 0.56951 0.8221 0.06228 0.0
O591 O 0.5467 0.83253 0.06857 0.0
O592 O 0.57955 0.83281 0.11698 0.0
O593 O 0.5852 0.84249 0.09165 0.0
C594 C 0.58538 0.84468 0.10768 0.0
C595 C 0.58012 0.83039 0.0362 0.0
C596 C 0.53904 0.83048 0.08234 0.0
C597 C 0.57835 0.78924 0.0805 0.0
O598 O 0.57296 0.7969 0.06762 0.0
O599 O 0.58141 0.7973 0.09385 0.0
O600 O 0.56728 0.82086 0.03751 0.0
O601 O 0.58722 0.83552 0.04973 0.0
O602 O 0.2111 0.57923 0.0706 0.0
Cd603 Cd 0.18772 0.57118 0.06216 0.0
Cd604 Cd 0.18403 0.57012 0.0976 0.0
O605 O 0.20825 0.57912 0.09809 0.0
O606 O 0.19266 0.57034 0.03777 0.0
O607 O 0.17225 0.58577 0.04799 0.0
C608 C 0.18045 0.58044 0.03516 0.0
C609 C 0.16081 0.58239 0.11018 0.0
C610 C 0.21717 0.58151 0.08514 0.0
C611 C 0.1786 0.53818 0.07961 0.0
O612 O 0.1811 0.54493 0.09375 0.0
O613 O 0.18002 0.54667 0.06624 0.0
O614 O 0.17225 0.57513 0.11897 0.0
O615 O 0.16328 0.58383 0.09425 0.0
O616 O 0.45834 0.18137 0.09476 0.0
Cd617 Cd 0.43297 0.18364 0.09732 0.0
Cd618 Cd 0.43408 0.18764 0.06156 0.0
O619 O 0.45839 0.18018 0.06718 0.0
O620 O 0.4273 0.17163 0.11841 0.0
O621 O 0.41989 0.1626 0.09332 0.0
C622 C 0.42077 0.16003 0.10927 0.0
C623 C 0.42649 0.1814 0.03369 0.0
C624 C 0.46606 0.17913 0.08108 0.0
C625 C 0.42188 0.21661 0.08443 0.0
O626 O 0.42526 0.2107 0.07003 0.0
O627 O 0.4236 0.2077 0.09748 0.0
O628 O 0.43661 0.1933 0.0374 0.0
O629 O 0.42033 0.17281 0.04588 0.0
O630 O 0.20975 0.42365 0.93165 0.0
Cd631 Cd 0.18681 0.43195 0.94093 0.0
Cd632 Cd 0.18211 0.43299 0.90526 0.0
O633 O 0.20624 0.42375 0.90422 0.0
O634 O 0.19289 0.43301 0.96506 0.0
O635 O 0.172 0.41753 0.95595 0.0
C636 C 0.18089 0.42285 0.96831 0.0
C637 C 0.1585 0.42104 0.89295 0.0
C638 C 0.21543 0.42126 0.91697 0.0
C639 C 0.17742 0.46495 0.92357 0.0
O640 O 0.17953 0.45819 0.90937 0.0
O641 O 0.17906 0.45646 0.93692 0.0
O642 O 0.16984 0.42832 0.88405 0.0
O643 O 0.16131 0.41935 0.9088 0.0
O644 O 0.54453 0.17978 0.90834 0.0
Cd645 Cd 0.57014 0.18293 0.9071 0.0
Cd646 Cd 0.56652 0.18458 0.94159 0.0
O647 O 0.54386 0.17395 0.93525 0.0
O648 O 0.5772 0.17173 0.88599 0.0
O649 O 0.58347 0.16204 0.91115 0.0
C650 C 0.5835 0.15997 0.8951 0.0
C651 C 0.57561 0.17869 0.96894 0.0
C652 C 0.53663 0.17462 0.92113 0.0
C653 C 0.57625 0.21607 0.92136 0.0
O654 O 0.57067 0.20922 0.93459 0.0
O655 O 0.57909 0.20729 0.90841 0.0
O656 O 0.56335 0.18861 0.96595 0.0
O657 O 0.58285 0.17164 0.95638 0.0
O658 O 0.45861 0.82264 0.91527 0.0
Cd659 Cd 0.43356 0.81969 0.91034 0.0
Cd660 Cd 0.43266 0.81206 0.9454 0.0
O661 O 0.45807 0.81591 0.94206 0.0
O662 O 0.43012 0.83129 0.88851 0.0
O663 O 0.41958 0.84055 0.91233 0.0
C664 C 0.42212 0.84278 0.89652 0.0
C665 C 0.42337 0.81968 0.97228 0.0
C666 C 0.46608 0.82044 0.9291 0.0
C667 C 0.42066 0.78573 0.9203 0.0
O668 O 0.42217 0.79059 0.93537 0.0
O669 O 0.4247 0.7953 0.90824 0.0
O670 O 0.43174 0.80623 0.96961 0.0
O671 O 0.4199 0.82901 0.95959 0.0
O672 O 0.54776 0.6815 0.91825 0.0
Cd673 Cd 0.56957 0.68916 0.92941 0.0
Cd674 Cd 0.572 0.65324 0.93037 0.0
O675 O 0.54809 0.65399 0.92007 0.0
O676 O 0.56325 0.71318 0.93025 0.0
O677 O 0.58639 0.70471 0.91798 0.0
C678 C 0.57656 0.71679 0.92211 0.0
C679 C 0.59515 0.63977 0.91885 0.0
C680 C 0.54061 0.66748 0.91613 0.0
C681 C 0.57352 0.67136 0.96301 0.0
O682 O 0.57385 0.65724 0.95577 0.0
O683 O 0.57192 0.68482 0.95472 0.0
O684 O 0.58315 0.63142 0.92571 0.0
O685 O 0.5934 0.6558 0.91751 0.0
O686 O 0.34908 0.56934 0.95877 0.0
Cd687 Cd 0.35294 0.56801 0.93329 0.0
Cd688 Cd 0.31617 0.56656 0.93158 0.0
O689 O 0.32155 0.56976 0.95656 0.0
O690 O 0.37438 0.57955 0.928 0.0
O691 O 0.34954 0.58945 0.92074 0.0
C692 C 0.36559 0.59142 0.92144 0.0
C693 C 0.28698 0.56977 0.92828 0.0
C694 C 0.33469 0.57009 0.96543 0.0
C695 C 0.33793 0.53745 0.91808 0.0
O696 O 0.32408 0.54495 0.92014 0.0
O697 O 0.35156 0.54441 0.92245 0.0
O698 O 0.29362 0.5577 0.93641 0.0
O699 O 0.29697 0.58033 0.92132 0.0
O700 O 0.45931 0.32473 0.92004 0.0
Cd701 Cd 0.43801 0.31515 0.93079 0.0
Cd702 Cd 0.43309 0.35127 0.93234 0.0
O703 O 0.45698 0.35214 0.92213 0.0
O704 O 0.44709 0.29218 0.93296 0.0
O705 O 0.42401 0.29714 0.91899 0.0
C706 C 0.43492 0.28651 0.92424 0.0
C707 C 0.40952 0.36406 0.92083 0.0
C708 C 0.46541 0.33927 0.9181 0.0
C709 C 0.43241 0.33248 0.96462 0.0
O710 O 0.43158 0.34673 0.95767 0.0
O711 O 0.43456 0.3193 0.95602 0.0
O712 O 0.42107 0.37271 0.92807 0.0
O713 O 0.41186 0.34813 0.91925 0.0
O714 O 0.65155 0.43235 0.95627 0.0
Cd715 Cd 0.65055 0.43262 0.93056 0.0
Cd716 Cd 0.6855 0.42853 0.93339 0.0
O717 O 0.67619 0.42015 0.95602 0.0
O718 O 0.6298 0.42108 0.92306 0.0
O719 O 0.65526 0.41066 0.91961 0.0
C720 C 0.63922 0.40875 0.91849 0.0
C721 C 0.71394 0.42118 0.93153 0.0
C722 C 0.66325 0.42485 0.96392 0.0
C723 C 0.6697 0.46181 0.92043 0.0
O724 O 0.68185 0.45314 0.92596 0.0
O725 O 0.65518 0.45544 0.91947 0.0
O726 O 0.70839 0.4316 0.94235 0.0
O727 O 0.70342 0.41485 0.92111 0.0
O728 O 0.55061 0.32485 0.07746 0.0
Cd729 Cd 0.57397 0.31816 0.06869 0.0
Cd730 Cd 0.572 0.3546 0.06939 0.0
O731 O 0.5488 0.35214 0.08053 0.0
O732 O 0.56633 0.29551 0.06226 0.0
O733 O 0.586 0.29908 0.08104 0.0
C734 C 0.57639 0.28904 0.07289 0.0
C735 C 0.5957 0.36688 0.08111 0.0
C736 C 0.54233 0.33769 0.08179 0.0
C737 C 0.57839 0.33832 0.03661 0.0
O738 O 0.57276 0.3513 0.04384 0.0
O739 O 0.58154 0.32514 0.04491 0.0
O740 O 0.58368 0.37588 0.07512 0.0
O741 O 0.59365 0.35082 0.08144 0.0
O742 O 0.66037 0.5755 0.04225 0.0
Cd743 Cd 0.65434 0.57363 0.06724 0.0
Cd744 Cd 0.6899 0.56708 0.07097 0.0
O745 O 0.68726 0.57008 0.04543 0.0
O746 O 0.63253 0.58538 0.07023 0.0
O747 O 0.65626 0.59461 0.08105 0.0
C748 C 0.64045 0.59678 0.07846 0.0
C749 C 0.71814 0.57008 0.07898 0.0
C750 C 0.67483 0.57327 0.03608 0.0
C751 C 0.66438 0.54068 0.08207 0.0
O752 O 0.67925 0.54622 0.08165 0.0
O753 O 0.6523 0.5495 0.07666 0.0
O754 O 0.71281 0.55765 0.07041 0.0
O755 O 0.70737 0.58125 0.08333 0.0
O756 O 0.46 0.67826 0.08124 0.0
Cd757 Cd 0.43901 0.68792 0.07 0.0
Cd758 Cd 0.43438 0.65172 0.06861 0.0
O759 O 0.45799 0.65081 0.07935 0.0
O760 O 0.44834 0.71076 0.06762 0.0
O761 O 0.42528 0.70615 0.08175 0.0
C762 C 0.43632 0.71663 0.07643 0.0
C763 C 0.41032 0.63991 0.08004 0.0
C764 C 0.4661 0.6638 0.08363 0.0
C765 C 0.43373 0.67031 0.03621 0.0
O766 O 0.43319 0.65608 0.04324 0.0
O767 O 0.43557 0.68358 0.04476 0.0
O768 O 0.4217 0.63075 0.07314 0.0
O769 O 0.41319 0.65577 0.08142 0.0
O770 O 0.34695 0.43174 0.04296 0.0
Cd771 Cd 0.35161 0.43338 0.06828 0.0
Cd772 Cd 0.31519 0.43619 0.07021 0.0
O773 O 0.31939 0.43266 0.045 0.0
O774 O 0.37296 0.42134 0.07283 0.0
O775 O 0.34823 0.41222 0.08131 0.0
C776 C 0.36415 0.40977 0.07987 0.0
C777 C 0.28654 0.4331 0.0766 0.0
C778 C 0.33257 0.43144 0.03622 0.0
C779 C 0.33823 0.46463 0.08318 0.0
O780 O 0.32411 0.45768 0.08111 0.0
O781 O 0.35158 0.45712 0.07888 0.0
O782 O 0.29225 0.44514 0.06773 0.0
O783 O 0.29712 0.42221 0.08199 0.0
O784 O 0.9602 0.57028 0.65534 0.0
Cd785 Cd 0.93478 0.5697 0.65112 0.0
Cd786 Cd 0.93382 0.57162 0.68743 0.0
O787 O 0.95752 0.5799 0.68109 0.0
O788 O 0.92944 0.58213 0.63017 0.0
O789 O 0.92273 0.59121 0.65548 0.0
C790 C 0.92331 0.59382 0.63951 0.0
C791 C 0.92941 0.5739 0.71652 0.0
C792 C 0.96657 0.57662 0.66845 0.0
C793 C 0.92168 0.53997 0.66725 0.0
O794 O 0.92546 0.54817 0.68031 0.0
O795 O 0.92345 0.54658 0.65292 0.0
O796 O 0.94006 0.56384 0.71007 0.0
O797 O 0.92119 0.58344 0.70645 0.0
O798 O 0.45502 0.92363 0.68013 0.0
Cd799 Cd 0.43156 0.93233 0.68672 0.0
Cd800 Cd 0.4342 0.93248 0.65021 0.0
O801 O 0.45723 0.92116 0.65281 0.0
O802 O 0.43904 0.93942 0.70921 0.0
O803 O 0.41973 0.92021 0.70605 0.0
C804 C 0.42907 0.92885 0.71594 0.0
C805 C 0.41045 0.92103 0.63796 0.0
C806 C 0.46348 0.91955 0.66732 0.0
C807 C 0.42681 0.9646 0.66674 0.0
O808 O 0.43345 0.95796 0.65393 0.0
O809 O 0.42334 0.95583 0.67952 0.0
O810 O 0.42248 0.92696 0.62893 0.0
O811 O 0.4125 0.92062 0.65401 0.0
O812 O 0.04364 0.43283 0.65588 0.0
Cd813 Cd 0.069 0.43367 0.65122 0.0
Cd814 Cd 0.07049 0.43154 0.68712 0.0
O815 O 0.04634 0.4239 0.68189 0.0
O816 O 0.07366 0.42233 0.6295 0.0
O817 O 0.08137 0.41204 0.65405 0.0
C818 C 0.0803 0.41028 0.63799 0.0
C819 C 0.07763 0.42766 0.71541 0.0
C820 C 0.03726 0.42699 0.66922 0.0
C821 C 0.08147 0.46373 0.66742 0.0
O822 O 0.07802 0.45539 0.6805 0.0
O823 O 0.07998 0.45699 0.65311 0.0
O824 O 0.06646 0.43809 0.71066 0.0
O825 O 0.08464 0.41851 0.70415 0.0
O826 O 0.54563 0.08325 0.67961 0.0
Cd827 Cd 0.56678 0.07252 0.68957 0.0
Cd828 Cd 0.57162 0.06952 0.65342 0.0
O829 O 0.54773 0.07972 0.65233 0.0
O830 O 0.55724 0.07072 0.71238 0.0
O831 O 0.58063 0.08427 0.70777 0.0
C832 C 0.56947 0.07923 0.71824 0.0
C833 C 0.59531 0.08065 0.64045 0.0
C834 C 0.53941 0.08445 0.66504 0.0
C835 C 0.57175 0.03797 0.6733 0.0
O836 O 0.57292 0.04433 0.65879 0.0
O837 O 0.56979 0.04715 0.6861 0.0
O838 O 0.58382 0.07311 0.63195 0.0
O839 O 0.59277 0.08278 0.65628 0.0
O840 O 0.95673 0.43477 0.3493 0.0
Cd841 Cd 0.93114 0.43453 0.35224 0.0
Cd842 Cd 0.93195 0.43138 0.31668 0.0
O843 O 0.95494 0.42257 0.32468 0.0
O844 O 0.92507 0.42232 0.3731 0.0
O845 O 0.91991 0.41267 0.34763 0.0
C846 C 0.91972 0.41032 0.36364 0.0
C847 C 0.92967 0.42651 0.28767 0.0
C848 C 0.96363 0.42742 0.33704 0.0
C849 C 0.91941 0.46392 0.33471 0.0
O850 O 0.92432 0.45561 0.32207 0.0
O851 O 0.9195 0.45726 0.34913 0.0
O852 O 0.94033 0.43663 0.294 0.0
O853 O 0.91971 0.41892 0.29781 0.0
O854 O 0.54884 0.92695 0.32468 0.0
Cd855 Cd 0.57292 0.93482 0.31909 0.0
Cd856 Cd 0.56977 0.93468 0.35494 0.0
O857 O 0.54704 0.92297 0.35186 0.0
O858 O 0.56734 0.94282 0.29635 0.0
O859 O 0.58538 0.92251 0.30027 0.0
C860 C 0.57754 0.93221 0.29006 0.0
C861 C 0.59349 0.92347 0.36755 0.0
C862 C 0.5405 0.92234 0.3374 0.0
C863 C 0.57687 0.96692 0.33897 0.0
O864 O 0.56969 0.96022 0.35144 0.0
O865 O 0.58152 0.95804 0.32666 0.0
O866 O 0.58121 0.92919 0.37638 0.0
O867 O 0.59178 0.92326 0.35145 0.0
O868 O 0.04277 0.5715 0.34836 0.0
Cd869 Cd 0.06842 0.57066 0.3505 0.0
Cd870 Cd 0.06703 0.57488 0.31529 0.0
O871 O 0.04436 0.58398 0.32388 0.0
O872 O 0.0753 0.58203 0.3716 0.0
O873 O 0.07999 0.59245 0.34635 0.0
C874 C 0.0805 0.5943 0.36243 0.0
C875 C 0.07011 0.58172 0.28681 0.0
C876 C 0.03586 0.57947 0.33651 0.0
C877 C 0.0789 0.5414 0.33163 0.0
O878 O 0.07385 0.55018 0.31937 0.0
O879 O 0.07935 0.54766 0.34624 0.0
O880 O 0.05882 0.57169 0.29214 0.0
O881 O 0.08025 0.58801 0.29764 0.0
O882 O 0.4541 0.07541 0.32105 0.0
Cd883 Cd 0.42938 0.06847 0.31722 0.0
Cd884 Cd 0.4338 0.06975 0.35231 0.0
O885 O 0.45671 0.08074 0.34794 0.0
O886 O 0.4322 0.06027 0.29401 0.0
O887 O 0.41594 0.0817 0.29983 0.0
C888 C 0.42203 0.07154 0.2889 0.0
C889 C 0.41025 0.08198 0.3642 0.0
C890 C 0.4629 0.08043 0.3333 0.0
C891 C 0.4249 0.03721 0.33839 0.0
O892 O 0.43292 0.04408 0.35024 0.0
O893 O 0.42039 0.04577 0.32581 0.0
O894 O 0.4225 0.07676 0.37339 0.0
O895 O 0.41206 0.08135 0.34812 0.0
O896 O 0.65536 0.95876 0.57315 0.0
Cd897 Cd 0.65116 0.93338 0.57209 0.0
Cd898 Cd 0.68744 0.93255 0.57176 0.0
O899 O 0.68211 0.95662 0.57974 0.0
O900 O 0.63006 0.92841 0.58436 0.0
O901 O 0.65514 0.92087 0.59341 0.0
C902 C 0.6392 0.92189 0.59599 0.0
C903 C 0.71607 0.92593 0.57395 0.0
C904 C 0.66897 0.9654 0.57796 0.0
C905 C 0.66573 0.92101 0.5411 0.0
O906 O 0.67931 0.92459 0.54851 0.0
O907 O 0.65184 0.9227 0.54862 0.0
O908 O 0.71049 0.93696 0.56377 0.0
O909 O 0.70549 0.9188 0.5838 0.0
O910 O 0.65516 0.04621 0.43205 0.0
Cd911 Cd 0.65126 0.07163 0.43302 0.0
Cd912 Cd 0.68737 0.07216 0.43313 0.0
O913 O 0.68182 0.04816 0.42509 0.0
O914 O 0.63043 0.07691 0.42044 0.0
O915 O 0.65576 0.08401 0.41174 0.0
C916 C 0.63985 0.08322 0.40891 0.0
C917 C 0.71601 0.07863 0.43067 0.0
C918 C 0.66866 0.03947 0.42706 0.0
C919 C 0.66599 0.08382 0.46396 0.0
O920 O 0.67949 0.08008 0.45647 0.0
O921 O 0.65206 0.08235 0.45648 0.0
O922 O 0.71047 0.0676 0.44087 0.0
O923 O 0.70537 0.08585 0.42096 0.0
O924 O 0.95733 0.65261 0.43199 0.0
Cd925 Cd 0.93177 0.64949 0.43298 0.0
Cd926 Cd 0.93258 0.6857 0.43213 0.0
O927 O 0.9563 0.67905 0.42406 0.0
O928 O 0.92574 0.62865 0.42076 0.0
O929 O 0.91939 0.65408 0.41173 0.0
C930 C 0.91957 0.63809 0.40917 0.0
C931 C 0.9278 0.71477 0.43013 0.0
C932 C 0.96457 0.66572 0.42669 0.0
C933 C 0.92015 0.66527 0.46345 0.0
O934 O 0.92438 0.6784 0.45555 0.0
O935 O 0.921 0.6511 0.45634 0.0
O936 O 0.93874 0.70839 0.43992 0.0
O937 O 0.91967 0.70468 0.42055 0.0
O938 O 0.35217 0.9574 0.43317 0.0
Cd939 Cd 0.35406 0.93172 0.43387 0.0
Cd940 Cd 0.31822 0.93423 0.43132 0.0
O941 O 0.32674 0.95704 0.42254 0.0
O942 O 0.37522 0.92496 0.42258 0.0
O943 O 0.35005 0.92001 0.4121 0.0
C944 C 0.36614 0.91954 0.41036 0.0
C945 C 0.28897 0.93196 0.42741 0.0
C946 C 0.33994 0.96497 0.42645 0.0
C947 C 0.33629 0.92161 0.46386 0.0
O948 O 0.32378 0.9267 0.45548 0.0
O949 O 0.35065 0.92097 0.45709 0.0
O950 O 0.29569 0.94273 0.43717 0.0
O951 O 0.29891 0.9222 0.41931 0.0
O952 O 0.04305 0.35063 0.42952 0.0
Cd953 Cd 0.06856 0.35394 0.43106 0.0
Cd954 Cd 0.06794 0.31794 0.42932 0.0
O955 O 0.04509 0.32505 0.4194 0.0
O956 O 0.07454 0.37513 0.41941 0.0
O957 O 0.08108 0.34996 0.40975 0.0
C958 C 0.08076 0.36601 0.40759 0.0
C959 C 0.07211 0.28876 0.42698 0.0
C960 C 0.03641 0.33797 0.4226 0.0
C961 C 0.0786 0.33758 0.46174 0.0
O962 O 0.07436 0.32468 0.45348 0.0
O963 O 0.07878 0.3518 0.45466 0.0
O964 O 0.06056 0.29525 0.43598 0.0
O965 O 0.08138 0.29887 0.41853 0.0
O966 O 0.35043 0.04604 0.57127 0.0
Cd967 Cd 0.35406 0.07154 0.57115 0.0
Cd968 Cd 0.31752 0.07106 0.57245 0.0
O969 O 0.32457 0.04759 0.58079 0.0
O970 O 0.37567 0.07657 0.58252 0.0
O971 O 0.35096 0.08324 0.59311 0.0
C972 C 0.36704 0.08259 0.59478 0.0
C973 C 0.2882 0.0744 0.57461 0.0
C974 C 0.33749 0.03905 0.57725 0.0
C975 C 0.3377 0.08372 0.54107 0.0
O976 O 0.32465 0.07925 0.54895 0.0
O977 O 0.35192 0.08294 0.54811 0.0
O978 O 0.2951 0.06385 0.56475 0.0
O979 O 0.29796 0.08323 0.5839 0.0
O980 O 0.9568 0.35161 0.57074 0.0
Cd981 Cd 0.93119 0.35392 0.56983 0.0
Cd982 Cd 0.9331 0.31849 0.5733 0.0
O983 O 0.95487 0.32757 0.58396 0.0
O984 O 0.92454 0.37507 0.58116 0.0
O985 O 0.91945 0.34984 0.59151 0.0
C986 C 0.91912 0.36593 0.59335 0.0
C987 C 0.9315 0.28939 0.57809 0.0
C988 C 0.96353 0.34 0.57922 0.0
C989 C 0.92194 0.33592 0.53993 0.0
O990 O 0.9271 0.32356 0.54854 0.0
O991 O 0.92056 0.35023 0.54667 0.0
O992 O 0.94275 0.2961 0.56888 0.0
O993 O 0.92063 0.2992 0.58483 0.0
O994 O 0.04574 0.65422 0.57343 0.0
Cd995 Cd 0.07129 0.65174 0.57138 0.0
Cd996 Cd 0.07115 0.68798 0.56911 0.0
O997 O 0.04652 0.68184 0.57337 0.0
O998 O 0.07764 0.6308 0.58327 0.0
O999 O 0.08412 0.65613 0.59243 0.0
C1000 C 0.08385 0.64014 0.59491 0.0
C1001 C 0.0744 0.7168 0.57438 0.0
C1002 C 0.03839 0.66825 0.57435 0.0
C1003 C 0.08406 0.66669 0.5396 0.0
O1004 O 0.08134 0.68068 0.54665 0.0
O1005 O 0.08127 0.65308 0.54739 0.0
O1006 O 0.06557 0.71113 0.56229 0.0
O1007 O 0.08233 0.70614 0.58348 0.0
O1008 O 0.41522 0.32607 0.04425 0.0
Cd1009 Cd 0.41054 0.32269 0.06926 0.0
Cd1010 Cd 0.44552 0.31541 0.0699 0.0
O1011 O 0.44208 0.3196 0.04453 0.0
O1012 O 0.38858 0.3339 0.07298 0.0
O1013 O 0.41232 0.34336 0.08353 0.0
C1014 C 0.39647 0.34539 0.08108 0.0
C1015 C 0.47217 0.32336 0.07963 0.0
C1016 C 0.42901 0.3241 0.03666 0.0
C1017 C 0.42079 0.2885 0.08121 0.0
O1018 O 0.43583 0.2935 0.07985 0.0
O1019 O 0.40866 0.29814 0.07757 0.0
O1020 O 0.46985 0.31005 0.07093 0.0
O1021 O 0.45928 0.33241 0.08311 0.0
O1022 O 0.7067 0.44089 0.06871 0.0
Cd1023 Cd 0.68112 0.44499 0.06575 0.0
Cd1024 Cd 0.68295 0.4112 0.06852 0.0
O1025 O 0.70714 0.41468 0.07722 0.0
O1026 O 0.68029 0.46973 0.06281 0.0
O1027 O 0.66777 0.457 0.08387 0.0
C1028 C 0.67128 0.47067 0.07606 0.0
C1029 C 0.66042 0.39864 0.08196 0.0
C1030 C 0.7148 0.42826 0.07406 0.0
C1031 C 0.67248 0.42412 0.03572 0.0
O1032 O 0.67976 0.41201 0.04297 0.0
O1033 O 0.6701 0.43775 0.0435 0.0
O1034 O 0.67265 0.38983 0.07614 0.0
O1035 O 0.66184 0.41477 0.08154 0.0
O1036 O 0.59131 0.6807 0.04206 0.0
Cd1037 Cd 0.59496 0.684 0.06739 0.0
Cd1038 Cd 0.56042 0.68427 0.0682 0.0
O1039 O 0.56377 0.67877 0.04327 0.0
O1040 O 0.61654 0.67282 0.07289 0.0
O1041 O 0.59186 0.66321 0.08101 0.0
C1042 C 0.60785 0.66106 0.07978 0.0
C1043 C 0.53542 0.67383 0.07958 0.0
C1044 C 0.5773 0.67834 0.03496 0.0
C1045 C 0.57977 0.71624 0.07738 0.0
O1046 O 0.56611 0.7085 0.07497 0.0
O1047 O 0.59364 0.7085 0.07626 0.0
O1048 O 0.53563 0.68602 0.06916 0.0
O1049 O 0.54949 0.66722 0.08383 0.0
O1050 O 0.29513 0.56952 0.08131 0.0
Cd1051 Cd 0.31737 0.56057 0.07142 0.0
Cd1052 Cd 0.32261 0.59531 0.06859 0.0
O1053 O 0.29797 0.59664 0.07685 0.0
O1054 O 0.31298 0.53616 0.07356 0.0
O1055 O 0.33519 0.54803 0.08479 0.0
C1056 C 0.3266 0.53468 0.08194 0.0
C1057 C 0.34527 0.60906 0.08068 0.0
C1058 C 0.2892 0.58427 0.08168 0.0
C1059 C 0.32486 0.5755 0.03709 0.0
O1060 O 0.32633 0.58982 0.04377 0.0
O1061 O 0.32107 0.56279 0.04585 0.0
O1062 O 0.33401 0.61713 0.0724 0.0
O1063 O 0.34297 0.59324 0.08315 0.0
O1064 O 0.41507 0.67641 0.95695 0.0
Cd1065 Cd 0.40993 0.67967 0.932 0.0
Cd1066 Cd 0.44431 0.68698 0.93047 0.0
O1067 O 0.44189 0.68293 0.95598 0.0
O1068 O 0.38845 0.66752 0.9284 0.0
O1069 O 0.41252 0.65918 0.91764 0.0
C1070 C 0.39682 0.65636 0.92029 0.0
C1071 C 0.47033 0.67853 0.91961 0.0
C1072 C 0.42904 0.67844 0.9642 0.0
C1073 C 0.41938 0.71395 0.91992 0.0
O1074 O 0.43446 0.709 0.92096 0.0
O1075 O 0.40739 0.70418 0.9237 0.0
O1076 O 0.4686 0.69197 0.92825 0.0
O1077 O 0.45716 0.66967 0.91675 0.0
O1078 O 0.29308 0.43293 0.92071 0.0
Cd1079 Cd 0.31532 0.44178 0.93066 0.0
Cd1080 Cd 0.3209 0.40718 0.93235 0.0
O1081 O 0.29633 0.40566 0.92387 0.0
O1082 O 0.31119 0.46624 0.92865 0.0
O1083 O 0.33317 0.45414 0.91721 0.0
C1084 C 0.32474 0.46758 0.92013 0.0
C1085 C 0.34423 0.39459 0.92022 0.0
C1086 C 0.28737 0.41813 0.91965 0.0
C1087 C 0.32303 0.42609 0.96449 0.0
O1088 O 0.32436 0.41199 0.95733 0.0
O1089 O 0.31915 0.43909 0.95619 0.0
O1090 O 0.33308 0.38586 0.92799 0.0
O1091 O 0.34131 0.41036 0.91808 0.0
O1092 O 0.59347 0.32336 0.95738 0.0
Cd1093 Cd 0.5955 0.32086 0.93176 0.0
Cd1094 Cd 0.56126 0.32169 0.93315 0.0
O1095 O 0.56698 0.33092 0.95662 0.0
O1096 O 0.61697 0.33166 0.92521 0.0
O1097 O 0.59211 0.34203 0.91875 0.0
C1098 C 0.60821 0.34368 0.9189 0.0
C1099 C 0.5355 0.33105 0.92253 0.0
C1100 C 0.58059 0.32917 0.96464 0.0
C1101 C 0.57953 0.28899 0.92356 0.0
O1102 O 0.56639 0.29663 0.92833 0.0
O1103 O 0.59324 0.29691 0.92214 0.0
O1104 O 0.53644 0.32042 0.93452 0.0
O1105 O 0.54926 0.33666 0.91626 0.0
O1106 O 0.71226 0.57017 0.91927 0.0
Cd1107 Cd 0.69115 0.56005 0.93033 0.0
Cd1108 Cd 0.68336 0.59501 0.93134 0.0
O1109 O 0.70751 0.59728 0.92202 0.0
O1110 O 0.69752 0.53595 0.93004 0.0
O1111 O 0.67451 0.54507 0.91804 0.0
C1112 C 0.68409 0.53267 0.92187 0.0
C1113 C 0.65978 0.60777 0.91971 0.0
C1114 C 0.71702 0.58526 0.9177 0.0
C1115 C 0.68372 0.57673 0.96397 0.0
O1116 O 0.68109 0.59051 0.95655 0.0
O1117 O 0.68789 0.56376 0.95578 0.0
O1118 O 0.67108 0.61637 0.92737 0.0
O1119 O 0.6625 0.59196 0.9176 0.0
O1120 O 0.04208 0.41052 0.32191 0.0
Cd1121 Cd 0.06725 0.40716 0.31859 0.0
Cd1122 Cd 0.06714 0.44281 0.31402 0.0
O1123 O 0.04299 0.43811 0.32252 0.0
O1124 O 0.07292 0.3862 0.33079 0.0
O1125 O 0.08137 0.41127 0.33893 0.0
C1126 C 0.08021 0.3954 0.34188 0.0
C1127 C 0.07598 0.47037 0.31964 0.0
C1128 C 0.03496 0.4245 0.32431 0.0
C1129 C 0.07748 0.41912 0.285 0.0
O1130 O 0.07492 0.43373 0.29079 0.0
O1131 O 0.07563 0.40628 0.29419 0.0
O1132 O 0.06539 0.46696 0.30806 0.0
O1133 O 0.08182 0.45809 0.32831 0.0
O1134 O 0.59427 0.0452 0.32314 0.0
Cd1135 Cd 0.59784 0.07041 0.32008 0.0
Cd1136 Cd 0.56179 0.07061 0.31609 0.0
O1137 O 0.56671 0.04641 0.32434 0.0
O1138 O 0.6192 0.07573 0.33176 0.0
O1139 O 0.59443 0.08424 0.34076 0.0
C1140 C 0.61039 0.08302 0.34316 0.0
C1141 C 0.53402 0.07883 0.32153 0.0
C1142 C 0.58027 0.03822 0.32579 0.0
C1143 C 0.58521 0.08169 0.28704 0.0
O1144 O 0.57071 0.07902 0.29305 0.0
O1145 O 0.59822 0.07934 0.29586 0.0
O1146 O 0.53775 0.06845 0.30987 0.0
O1147 O 0.54609 0.0848 0.33041 0.0
O1148 O 0.95605 0.59477 0.32263 0.0
Cd1149 Cd 0.93036 0.59639 0.32034 0.0
Cd1150 Cd 0.93344 0.56202 0.31869 0.0
O1151 O 0.95655 0.56788 0.32862 0.0
O1152 O 0.92393 0.61753 0.33178 0.0
O1153 O 0.91755 0.59239 0.34151 0.0
C1154 C 0.91777 0.60844 0.34362 0.0
C1155 C 0.92401 0.5348 0.32471 0.0
C1156 C 0.96396 0.5819 0.32755 0.0
C1157 C 0.9233 0.58254 0.28748 0.0
O1158 O 0.9289 0.56925 0.29419 0.0
O1159 O 0.92071 0.59549 0.29631 0.0
O1160 O 0.93601 0.53762 0.31443 0.0
O1161 O 0.91722 0.54745 0.33203 0.0
O1162 O 0.40959 0.95749 0.3239 0.0
Cd1163 Cd 0.40805 0.93181 0.32144 0.0
Cd1164 Cd 0.44249 0.93487 0.32018 0.0
O1165 O 0.43644 0.95797 0.33005 0.0
O1166 O 0.3871 0.92512 0.33315 0.0
O1167 O 0.41239 0.91893 0.34252 0.0
C1168 C 0.39639 0.91907 0.34491 0.0
C1169 C 0.46971 0.9257 0.32663 0.0
C1170 C 0.42243 0.96538 0.32894 0.0
C1171 C 0.42234 0.92478 0.28866 0.0
O1172 O 0.43558 0.93024 0.29559 0.0
O1173 O 0.40923 0.92231 0.29731 0.0
O1174 O 0.46693 0.93761 0.31623 0.0
O1175 O 0.45701 0.91882 0.33379 0.0
O1176 O 0.0458 0.59445 0.68092 0.0
Cd1177 Cd 0.07116 0.59737 0.6833 0.0
Cd1178 Cd 0.07071 0.56194 0.6871 0.0
O1179 O 0.04608 0.56685 0.68026 0.0
O1180 O 0.0767 0.61874 0.67176 0.0
O1181 O 0.08464 0.59392 0.66239 0.0
C1182 C 0.08373 0.60993 0.6602 0.0
C1183 C 0.07927 0.53467 0.67983 0.0
C1184 C 0.03822 0.58063 0.6791 0.0
C1185 C 0.0823 0.5846 0.7163 0.0
O1186 O 0.07943 0.57013 0.71031 0.0
O1187 O 0.0803 0.59762 0.70741 0.0
O1188 O 0.06938 0.53757 0.69214 0.0
O1189 O 0.08466 0.54732 0.67141 0.0
O1190 O 0.41162 0.04433 0.6814 0.0
Cd1191 Cd 0.41008 0.07001 0.68339 0.0
Cd1192 Cd 0.44394 0.06781 0.68313 0.0
O1193 O 0.4382 0.04421 0.67421 0.0
O1194 O 0.38905 0.07675 0.67183 0.0
O1195 O 0.41432 0.08247 0.66207 0.0
C1196 C 0.39829 0.0825 0.65988 0.0
C1197 C 0.46946 0.07877 0.67352 0.0
C1198 C 0.4244 0.03655 0.67607 0.0
C1199 C 0.42555 0.0779 0.71551 0.0
O1200 O 0.43866 0.07267 0.70814 0.0
O1201 O 0.41207 0.07985 0.7073 0.0
O1202 O 0.4688 0.06682 0.68422 0.0
O1203 O 0.45556 0.08478 0.66798 0.0
O1204 O 0.95778 0.41005 0.68084 0.0
Cd1205 Cd 0.93236 0.40731 0.68268 0.0
Cd1206 Cd 0.93291 0.44236 0.68685 0.0
O1207 O 0.95766 0.43766 0.68032 0.0
O1208 O 0.92677 0.38641 0.67034 0.0
O1209 O 0.91919 0.41161 0.66175 0.0
C1210 C 0.92003 0.39569 0.65897 0.0
C1211 C 0.92381 0.46938 0.67945 0.0
C1212 C 0.96547 0.42383 0.67925 0.0
C1213 C 0.921 0.41951 0.71572 0.0
O1214 O 0.9241 0.43402 0.70995 0.0
O1215 O 0.92287 0.4066 0.70663 0.0
O1216 O 0.93371 0.46677 0.69182 0.0
O1217 O 0.91885 0.4566 0.67094 0.0
O1218 O 0.58915 0.95883 0.68021 0.0
Cd1219 Cd 0.59424 0.93389 0.68363 0.0
Cd1220 Cd 0.55967 0.93215 0.69073 0.0
O1221 O 0.56239 0.95765 0.68691 0.0
O1222 O 0.61603 0.93015 0.67211 0.0
O1223 O 0.59217 0.91932 0.66321 0.0
C1224 C 0.60798 0.92181 0.66089 0.0
C1225 C 0.53335 0.92187 0.68243 0.0
C1226 C 0.57519 0.966 0.68251 0.0
C1227 C 0.58437 0.92173 0.71781 0.0
O1228 O 0.56933 0.92237 0.71269 0.0
O1229 O 0.59639 0.9259 0.70826 0.0
O1230 O 0.53535 0.93045 0.69587 0.0
O1231 O 0.5464 0.9188 0.67346 0.0
O1232 O 0.29679 0.07105 0.43674 0.0
Cd1233 Cd 0.32155 0.06754 0.44378 0.0
Cd1234 Cd 0.32305 0.06987 0.40931 0.0
O1235 O 0.29877 0.07889 0.41035 0.0
O1236 O 0.31802 0.06566 0.46837 0.0
O1237 O 0.33476 0.08465 0.45742 0.0
C1238 C 0.32805 0.07802 0.47049 0.0
C1239 C 0.34569 0.08263 0.39612 0.0
C1240 C 0.28999 0.07622 0.42332 0.0
C1241 C 0.33132 0.03689 0.42452 0.0
O1242 O 0.32598 0.04428 0.4115 0.0
O1243 O 0.33218 0.04464 0.43835 0.0
O1244 O 0.33373 0.07588 0.38762 0.0
O1245 O 0.34407 0.08331 0.4122 0.0
O1246 O 0.29369 0.92775 0.57038 0.0
Cd1247 Cd 0.3173 0.93507 0.56196 0.0
Cd1248 Cd 0.32121 0.93496 0.59712 0.0
O1249 O 0.2969 0.92644 0.59782 0.0
O1250 O 0.31221 0.93642 0.53762 0.0
O1251 O 0.33206 0.92006 0.54743 0.0
C1252 C 0.3239 0.92578 0.53476 0.0
C1253 C 0.34466 0.92207 0.60859 0.0
C1254 C 0.28779 0.92494 0.58489 0.0
C1255 C 0.32671 0.96741 0.58021 0.0
O1256 O 0.32407 0.96023 0.5941 0.0
O1257 O 0.32551 0.95934 0.56655 0.0
O1258 O 0.33352 0.92908 0.61795 0.0
O1259 O 0.34169 0.92116 0.59271 0.0
O1260 O 0.04303 0.32414 0.5938 0.0
Cd1261 Cd 0.06868 0.32166 0.59503 0.0
Cd1262 Cd 0.06539 0.32069 0.56046 0.0
O1263 O 0.04248 0.33066 0.56705 0.0
O1264 O 0.07554 0.33325 0.61601 0.0
O1265 O 0.08129 0.34291 0.59072 0.0
C1266 C 0.08127 0.34518 0.60674 0.0
C1267 C 0.0738 0.3273 0.53299 0.0
C1268 C 0.03514 0.32947 0.58109 0.0
C1269 C 0.07573 0.28897 0.58023 0.0
O1270 O 0.07021 0.296 0.56706 0.0
O1271 O 0.07818 0.29753 0.59341 0.0
O1272 O 0.06198 0.31689 0.53609 0.0
O1273 O 0.08109 0.33433 0.54553 0.0
O1274 O 0.70796 0.07457 0.56706 0.0
Cd1275 Cd 0.68333 0.06889 0.56114 0.0
Cd1276 Cd 0.68353 0.07092 0.59568 0.0
O1277 O 0.70715 0.08141 0.59374 0.0
O1278 O 0.68622 0.06695 0.53647 0.0
O1279 O 0.6685 0.08483 0.54771 0.0
C1280 C 0.67533 0.07857 0.53452 0.0
C1281 C 0.66006 0.08251 0.60847 0.0
C1282 C 0.7153 0.07981 0.58018 0.0
C1283 C 0.67716 0.03745 0.58078 0.0
O1284 O 0.68237 0.04523 0.59361 0.0
O1285 O 0.67491 0.04516 0.56707 0.0
O1286 O 0.6724 0.0768 0.6172 0.0
O1287 O 0.66169 0.08283 0.59237 0.0
O1288 O 0.95934 0.67834 0.59192 0.0
Cd1289 Cd 0.93402 0.68197 0.59565 0.0
Cd1290 Cd 0.93409 0.68487 0.56052 0.0
O1291 O 0.95858 0.67806 0.5643 0.0
O1292 O 0.92897 0.67084 0.61738 0.0
O1293 O 0.92011 0.66122 0.59298 0.0
C1294 C 0.92167 0.65916 0.60896 0.0
C1295 C 0.92388 0.67734 0.53392 0.0
C1296 C 0.9666 0.67651 0.57791 0.0
C1297 C 0.92492 0.71539 0.5822 0.0
O1298 O 0.92798 0.70875 0.56809 0.0
O1299 O 0.92535 0.70663 0.59549 0.0
O1300 O 0.9344 0.68927 0.53603 0.0
O1301 O 0.9188 0.66941 0.547 0.0
O1302 O 0.7076 0.93048 0.43805 0.0
Cd1303 Cd 0.68296 0.93607 0.44406 0.0
Cd1304 Cd 0.68287 0.93386 0.40985 0.0
O1305 O 0.70647 0.92332 0.41147 0.0
O1306 O 0.68579 0.9379 0.46873 0.0
O1307 O 0.66815 0.92001 0.45735 0.0
C1308 C 0.67492 0.92624 0.47059 0.0
C1309 C 0.6589 0.92216 0.3982 0.0
C1310 C 0.71478 0.92509 0.4249 0.0
C1311 C 0.67662 0.96742 0.42443 0.0
O1312 O 0.68178 0.95957 0.41162 0.0
O1313 O 0.67444 0.95977 0.43819 0.0
O1314 O 0.67092 0.92766 0.38889 0.0
O1315 O 0.66124 0.922 0.41421 0.0
O1316 O 0.0437 0.67983 0.41045 0.0
Cd1317 Cd 0.06931 0.68199 0.4077 0.0
Cd1318 Cd 0.06821 0.68211 0.44239 0.0
O1319 O 0.04471 0.67273 0.43707 0.0
O1320 O 0.07491 0.67116 0.38595 0.0
O1321 O 0.08213 0.66058 0.4105 0.0
C1322 C 0.08137 0.659 0.39441 0.0
C1323 C 0.07855 0.67462 0.46892 0.0
C1324 C 0.03656 0.67432 0.42353 0.0
C1325 C 0.07778 0.71416 0.42284 0.0
O1326 O 0.07302 0.70688 0.43616 0.0
O1327 O 0.0792 0.70592 0.40931 0.0
O1328 O 0.06666 0.68524 0.46705 0.0
O1329 O 0.08478 0.66784 0.45569 0.0
O1330 O 0.95671 0.3233 0.40717 0.0
Cd1331 Cd 0.93101 0.32129 0.40572 0.0
Cd1332 Cd 0.93428 0.3202 0.44045 0.0
O1333 O 0.95716 0.33023 0.43384 0.0
O1334 O 0.92452 0.33266 0.38453 0.0
O1335 O 0.91849 0.34268 0.40963 0.0
C1336 C 0.9186 0.34467 0.39357 0.0
C1337 C 0.9265 0.32581 0.46838 0.0
C1338 C 0.96459 0.32867 0.41988 0.0
C1339 C 0.92386 0.28873 0.42021 0.0
O1340 O 0.9295 0.29568 0.43336 0.0
O1341 O 0.92122 0.29732 0.40711 0.0
O1342 O 0.93832 0.31564 0.46461 0.0
O1343 O 0.91885 0.33318 0.45625 0.0
C1344 C 0.12847 0.13943 0.41627 0.0
C1345 C 0.11376 0.12979 0.4161 0.0
C1346 C 0.1443 0.13184 0.41629 0.0
C1347 C 0.14606 0.11431 0.41599 0.0
H1348 H 0.12783 0.1529 0.41755 0.0
H1349 H 0.15519 0.1398 0.41752 0.0
S1350 S 0.11144 0.08358 0.41213 0.0
N1351 N 0.10197 0.1019 0.41319 0.0
N1352 N 0.13166 0.08765 0.41307 0.0
C1353 C 0.13147 0.10461 0.41417 0.0
C1354 C 0.11534 0.11234 0.41429 0.0
C1355 C 0.88917 0.11369 0.41515 0.0
C1356 C 0.87161 0.11233 0.41587 0.0
C1357 C 0.89711 0.12934 0.41481 0.0
C1358 C 0.88782 0.14428 0.41536 0.0
H1359 H 0.89692 0.1026 0.41578 0.0
H1360 H 0.91064 0.12967 0.41533 0.0
S1361 S 0.84155 0.14771 0.41426 0.0
N1362 N 0.84518 0.12739 0.41473 0.0
N1363 N 0.86012 0.15674 0.41429 0.0
C1364 C 0.87028 0.14311 0.41461 0.0
C1365 C 0.86217 0.12717 0.41479 0.0
C1366 C 0.86122 0.86996 0.41661 0.0
C1367 C 0.85971 0.88751 0.41618 0.0
C1368 C 0.87693 0.86215 0.41693 0.0
C1369 C 0.89179 0.87159 0.41697 0.0
H1370 H 0.85021 0.86216 0.41774 0.0
H1371 H 0.87736 0.84869 0.41837 0.0
S1372 S 0.8948 0.91772 0.41259 0.0
N1373 N 0.87452 0.91394 0.41323 0.0
N1374 N 0.904 0.89929 0.41397 0.0
C1375 C 0.89048 0.88903 0.41493 0.0
C1376 C 0.87446 0.89699 0.41448 0.0
C1377 C 0.10691 0.87344 0.41798 0.0
C1378 C 0.11687 0.85895 0.41717 0.0
C1379 C 0.11412 0.88944 0.41836 0.0
C1380 C 0.1316 0.89163 0.41777 0.0
H1381 H 0.09348 0.87245 0.41948 0.0
H1382 H 0.10593 0.9001 0.41998 0.0
S1383 S 0.16304 0.85785 0.41246 0.0
N1384 N 0.14497 0.84793 0.41352 0.0
N1385 N 0.15852 0.87794 0.41405 0.0
C1386 C 0.1416 0.87732 0.41542 0.0
C1387 C 0.13424 0.861 0.41517 0.0
C1388 C 0.14111 0.87224 0.58721 0.0
C1389 C 0.14307 0.88975 0.58711 0.0
C1390 C 0.1252 0.86484 0.58723 0.0
C1391 C 0.1106 0.87465 0.58697 0.0
H1392 H 0.15192 0.86413 0.58633 0.0
H1393 H 0.12442 0.85135 0.58626 0.0
S1394 S 0.10878 0.92096 0.58972 0.0
N1395 N 0.12895 0.91664 0.58916 0.0
N1396 N 0.0991 0.90273 0.58901 0.0
C1397 C 0.11236 0.89211 0.58837 0.0
C1398 C 0.12858 0.89966 0.5885 0.0
C1399 C 0.13153 0.14192 0.58667 0.0
C1400 C 0.11402 0.14386 0.5867 0.0
C1401 C 0.13897 0.12601 0.58656 0.0
C1402 C 0.12919 0.11137 0.58633 0.0
H1403 H 0.13962 0.15275 0.58579 0.0
H1404 H 0.15245 0.12526 0.58554 0.0
S1405 S 0.0829 0.10948 0.58934 0.0
N1406 N 0.08718 0.12967 0.58882 0.0
N1407 N 0.10113 0.09984 0.58848 0.0
C1408 C 0.11173 0.11311 0.58781 0.0
C1409 C 0.10415 0.12933 0.58805 0.0
C1410 C 0.89109 0.11446 0.58585 0.0
C1411 C 0.89296 0.13197 0.58653 0.0
C1412 C 0.87526 0.10693 0.58653 0.0
C1413 C 0.86061 0.11661 0.58772 0.0
H1414 H 0.90187 0.1065 0.58386 0.0
H1415 H 0.87448 0.0935 0.58488 0.0
S1416 S 0.85873 0.16271 0.59292 0.0
N1417 N 0.87886 0.1586 0.59085 0.0
N1418 N 0.84913 0.14446 0.59191 0.0
C1419 C 0.86238 0.134 0.58988 0.0
C1420 C 0.87853 0.14167 0.58936 0.0
C1421 C 0.87018 0.86212 0.58986 0.0
C1422 C 0.88771 0.86042 0.59036 0.0
C1423 C 0.86255 0.87791 0.58937 0.0
C1424 C 0.87212 0.89268 0.58925 0.0
H1425 H 0.86227 0.85117 0.58883 0.0
H1426 H 0.84909 0.87846 0.58793 0.0
S1427 S 0.91827 0.89524 0.59367 0.0
N1428 N 0.91428 0.87499 0.5932 0.0
N1429 N 0.89994 0.90462 0.59218 0.0
C1430 C 0.88955 0.8912 0.59131 0.0
C1431 C 0.89734 0.87509 0.59191 0.0
C1432 C 0.4169 0.12575 0.14179 0.0
C1433 C 0.41738 0.11108 0.13208 0.0
C1434 C 0.41672 0.14161 0.13427 0.0
C1435 C 0.4168 0.14345 0.11675 0.0
H1436 H 0.41781 0.12505 0.15528 0.0
H1437 H 0.41742 0.1525 0.14229 0.0
S1438 S 0.41494 0.10888 0.08578 0.0
N1439 N 0.41571 0.09935 0.10408 0.0
N1440 N 0.41514 0.1291 0.08995 0.0
C1441 C 0.41571 0.12886 0.10694 0.0
C1442 C 0.41609 0.1127 0.1146 0.0
C1443 C 0.88929 0.41927 0.11229 0.0
C1444 C 0.89104 0.41862 0.12981 0.0
C1445 C 0.87348 0.41888 0.10467 0.0
C1446 C 0.85875 0.41803 0.11427 0.0
H1447 H 0.90015 0.421 0.10439 0.0
H1448 H 0.87282 0.42049 0.09124 0.0
S1449 S 0.85652 0.41305 0.16037 0.0
N1450 N 0.8767 0.4147 0.15636 0.0
N1451 N 0.84704 0.41419 0.14206 0.0
C1452 C 0.86038 0.4159 0.13167 0.0
C1453 C 0.8765 0.41613 0.13943 0.0
C1454 C 0.5893 0.87877 0.14034 0.0
C1455 C 0.58856 0.89348 0.13071 0.0
C1456 C 0.58968 0.86295 0.13275 0.0
C1457 C 0.58951 0.8612 0.11521 0.0
H1458 H 0.58837 0.87937 0.15384 0.0
H1459 H 0.5891 0.85201 0.14072 0.0
S1460 S 0.59106 0.89595 0.08443 0.0
N1461 N 0.59017 0.90537 0.10278 0.0
N1462 N 0.59107 0.87571 0.0885 0.0
C1463 C 0.59048 0.87585 0.10548 0.0
C1464 C 0.58993 0.89197 0.11323 0.0
C1465 C 0.11389 0.58626 0.11477 0.0
C1466 C 0.11159 0.58602 0.13223 0.0
C1467 C 0.12994 0.58657 0.10768 0.0
C1468 C 0.14435 0.58644 0.11777 0.0
H1469 H 0.10323 0.58537 0.10645 0.0
H1470 H 0.13101 0.58574 0.0942 0.0
S1471 S 0.14525 0.58857 0.16412 0.0
N1472 N 0.12516 0.58785 0.15941 0.0
N1473 N 0.15528 0.58819 0.14608 0.0
C1474 C 0.14223 0.58754 0.13521 0.0
C1475 C 0.12587 0.58741 0.14244 0.0
C1476 C 0.41801 0.88956 0.89033 0.0
C1477 C 0.4189 0.89133 0.87282 0.0
C1478 C 0.41762 0.87372 0.8979 0.0
C1479 C 0.41832 0.859 0.88828 0.0
H1480 H 0.41843 0.90048 0.89833 0.0
H1481 H 0.41791 0.87306 0.91143 0.0
S1482 S 0.41809 0.85664 0.84193 0.0
N1483 N 0.41835 0.87687 0.84603 0.0
N1484 N 0.41787 0.84718 0.86028 0.0
C1485 C 0.41792 0.86057 0.87076 0.0
C1486 C 0.41812 0.8767 0.86303 0.0
C1487 C 0.12402 0.41762 0.86057 0.0
C1488 C 0.10943 0.41679 0.87038 0.0
C1489 C 0.13995 0.41778 0.86794 0.0
C1490 C 0.14198 0.41693 0.88542 0.0
H1491 H 0.12316 0.41924 0.84715 0.0
H1492 H 0.1507 0.41944 0.85988 0.0
S1493 S 0.10788 0.41165 0.9165 0.0
N1494 N 0.09812 0.41298 0.89835 0.0
N1495 N 0.12801 0.41309 0.91218 0.0
C1496 C 0.12756 0.41461 0.89526 0.0
C1497 C 0.11131 0.41461 0.88776 0.0
C1498 C 0.58772 0.11306 0.89028 0.0
C1499 C 0.58778 0.11088 0.8728 0.0
C1500 C 0.58786 0.12907 0.89749 0.0
C1501 C 0.58794 0.14357 0.88752 0.0
H1502 H 0.58659 0.10237 0.89852 0.0
H1503 H 0.58671 0.13003 0.91096 0.0
S1504 S 0.59142 0.14478 0.84124 0.0
N1505 N 0.59046 0.12466 0.84578 0.0
N1506 N 0.59057 0.15468 0.85933 0.0
C1507 C 0.58955 0.14156 0.8701 0.0
C1508 C 0.58952 0.12524 0.86274 0.0
C1509 C 0.8652 0.58461 0.8709 0.0
C1510 C 0.86313 0.58573 0.88836 0.0
C1511 C 0.88114 0.5844 0.86358 0.0
C1512 C 0.8957 0.5851 0.87343 0.0
H1513 H 0.85443 0.58305 0.86283 0.0
H1514 H 0.882 0.58261 0.85019 0.0
S1515 S 0.89722 0.59072 0.91949 0.0
N1516 N 0.87707 0.58961 0.91513 0.0
N1517 N 0.90701 0.58901 0.9014 0.0
C1518 C 0.89382 0.5875 0.89078 0.0
C1519 C 0.87756 0.5879 0.89823 0.0
C1520 C 0.11346 0.4198 0.11037 0.0
C1521 C 0.13099 0.41992 0.10857 0.0
C1522 C 0.10591 0.41953 0.12621 0.0
C1523 C 0.11558 0.41955 0.14092 0.0
H1524 H 0.10546 0.42074 0.09949 0.0
H1525 H 0.09241 0.42041 0.1269 0.0
S1526 S 0.16187 0.41704 0.14315 0.0
N1527 N 0.15775 0.41786 0.12294 0.0
N1528 N 0.14355 0.41755 0.15265 0.0
C1529 C 0.13306 0.41835 0.1393 0.0
C1530 C 0.14077 0.41847 0.12315 0.0
C1531 C 0.1338 0.58385 0.86439 0.0
C1532 C 0.11638 0.58444 0.8618 0.0
C1533 C 0.14063 0.58371 0.88054 0.0
C1534 C 0.13033 0.58398 0.8948 0.0
H1535 H 0.14224 0.5826 0.85387 0.0
H1536 H 0.15404 0.5823 0.8818 0.0
S1537 S 0.08411 0.58841 0.89496 0.0
N1538 N 0.08911 0.58753 0.87495 0.0
N1539 N 0.10195 0.5871 0.90528 0.0
C1540 C 0.11299 0.58595 0.89241 0.0
C1541 C 0.10603 0.58625 0.87593 0.0
C1542 C 0.416 0.10569 0.87503 0.0
C1543 C 0.41614 0.11531 0.86029 0.0
C1544 C 0.41612 0.11331 0.89085 0.0
C1545 C 0.41623 0.13085 0.89259 0.0
H1546 H 0.41702 0.0922 0.87442 0.0
H1547 H 0.4171 0.10535 0.90176 0.0
S1548 S 0.41326 0.16158 0.85787 0.0
N1549 N 0.41394 0.14323 0.84845 0.0
N1550 N 0.414 0.15754 0.8781 0.0
C1551 C 0.41472 0.14056 0.87796 0.0
C1552 C 0.41473 0.13279 0.86184 0.0
C1553 C 0.88591 0.41797 0.89027 0.0
C1554 C 0.86839 0.41794 0.89205 0.0
C1555 C 0.89348 0.41765 0.87444 0.0
C1556 C 0.88381 0.41754 0.85975 0.0
H1557 H 0.89388 0.41913 0.90116 0.0
H1558 H 0.90696 0.41872 0.87375 0.0
S1559 S 0.83755 0.41466 0.8575 0.0
N1560 N 0.84165 0.41556 0.87771 0.0
N1561 N 0.85587 0.41525 0.84799 0.0
C1562 C 0.86634 0.41614 0.86135 0.0
C1563 C 0.85863 0.41624 0.87749 0.0
C1564 C 0.58703 0.86821 0.86388 0.0
C1565 C 0.58698 0.88577 0.86239 0.0
C1566 C 0.58683 0.86037 0.87958 0.0
C1567 C 0.58634 0.86979 0.89443 0.0
H1568 H 0.58634 0.86042 0.85282 0.0
H1569 H 0.58589 0.84687 0.88 0.0
S1570 S 0.58883 0.91604 0.89758 0.0
N1571 N 0.58865 0.91228 0.87728 0.0
N1572 N 0.58802 0.89754 0.90673 0.0
C1573 C 0.58765 0.8873 0.89317 0.0
C1574 C 0.58806 0.89529 0.87718 0.0
C1575 C 0.89739 0.59014 0.12843 0.0
C1576 C 0.88771 0.58923 0.14308 0.0
C1577 C 0.88988 0.59024 0.11257 0.0
C1578 C 0.87236 0.58959 0.11073 0.0
H1579 H 0.91091 0.58955 0.12911 0.0
H1580 H 0.89793 0.58984 0.10169 0.0
S1581 S 0.84137 0.59056 0.14531 0.0
N1582 N 0.85968 0.59018 0.15483 0.0
N1583 N 0.84554 0.59055 0.12509 0.0
C1584 C 0.86253 0.59037 0.12533 0.0
C1585 C 0.8702 0.59013 0.14148 0.0
C1586 C 0.41743 0.89036 0.11331 0.0
C1587 C 0.4181 0.87284 0.11153 0.0
C1588 C 0.41696 0.89792 0.12915 0.0
C1589 C 0.41731 0.88827 0.14386 0.0
H1590 H 0.4182 0.89838 0.10242 0.0
H1591 H 0.41752 0.91144 0.12981 0.0
S1592 S 0.41599 0.84192 0.14615 0.0
N1593 N 0.4167 0.84604 0.12593 0.0
N1594 N 0.416 0.86027 0.15562 0.0
C1595 C 0.41651 0.87076 0.14226 0.0
C1596 C 0.41684 0.86304 0.12613 0.0
C1597 C 0.58599 0.11504 0.11174 0.0
C1598 C 0.58514 0.13256 0.11012 0.0
C1599 C 0.58636 0.10733 0.12751 0.0
C1600 C 0.58566 0.11685 0.1423 0.0
H1601 H 0.58553 0.10712 0.10076 0.0
H1602 H 0.58601 0.0938 0.12806 0.0
S1603 S 0.58606 0.16318 0.14504 0.0
N1604 N 0.58579 0.15924 0.12478 0.0
N1605 N 0.58622 0.14475 0.15435 0.0
C1606 C 0.58614 0.13438 0.14088 0.0
C1607 C 0.58596 0.14224 0.12481 0.0
C1608 C 0.64191 0.63315 0.91566 0.0
C1609 C 0.64344 0.6156 0.91548 0.0
C1610 C 0.62619 0.64095 0.91531 0.0
C1611 C 0.61135 0.6315 0.91501 0.0
H1612 H 0.65291 0.64096 0.91691 0.0
H1613 H 0.6257 0.65444 0.91642 0.0
S1614 S 0.60847 0.58528 0.91185 0.0
N1615 N 0.62873 0.58909 0.9129 0.0
N1616 N 0.59922 0.60373 0.91251 0.0
C1617 C 0.61272 0.61401 0.91354 0.0
C1618 C 0.62875 0.60606 0.91368 0.0
C1619 C 0.37148 0.63822 0.91741 0.0
C1620 C 0.38898 0.63994 0.91639 0.0
C1621 C 0.36387 0.62241 0.91762 0.0
C1622 C 0.37347 0.60767 0.91709 0.0
H1623 H 0.36362 0.64915 0.91891 0.0
H1624 H 0.35045 0.62178 0.91938 0.0
S1625 S 0.41951 0.60526 0.91172 0.0
N1626 N 0.41551 0.6255 0.91271 0.0
N1627 N 0.40122 0.59582 0.91338 0.0
C1628 C 0.39085 0.60921 0.91474 0.0
C1629 C 0.3986 0.62534 0.9143 0.0
C1630 C 0.37857 0.36209 0.91673 0.0
C1631 C 0.39319 0.37188 0.91662 0.0
C1632 C 0.36267 0.36953 0.91665 0.0
C1633 C 0.36075 0.38704 0.91619 0.0
H1634 H 0.37936 0.34863 0.91805 0.0
H1635 H 0.35183 0.3615 0.91782 0.0
S1636 S 0.39511 0.4181 0.91284 0.0
N1637 N 0.40475 0.39987 0.91396 0.0
N1638 N 0.37492 0.41385 0.91352 0.0
C1639 C 0.37526 0.39688 0.91454 0.0
C1640 C 0.39146 0.38931 0.91486 0.0
C1641 C 0.60659 0.37459 0.91423 0.0
C1642 C 0.61624 0.35987 0.91448 0.0
C1643 C 0.61415 0.39042 0.91424 0.0
C1644 C 0.63168 0.39221 0.91438 0.0
H1645 H 0.59309 0.37394 0.9152 0.0
H1646 H 0.60615 0.40132 0.91511 0.0
S1647 S 0.66252 0.35757 0.91164 0.0
N1648 N 0.6442 0.34809 0.91238 0.0
N1649 N 0.65841 0.3778 0.91226 0.0
C1650 C 0.64144 0.3776 0.91299 0.0
C1651 C 0.63372 0.36146 0.91309 0.0
C1652 C 0.61363 0.39228 0.08506 0.0
C1653 C 0.61203 0.37474 0.08544 0.0
C1654 C 0.62937 0.40004 0.08549 0.0
C1655 C 0.64419 0.39056 0.08616 0.0
H1656 H 0.6027 0.40012 0.08351 0.0
H1657 H 0.6299 0.4135 0.08409 0.0
S1658 S 0.64686 0.34441 0.09049 0.0
N1659 N 0.62663 0.34825 0.08895 0.0
N1660 N 0.65616 0.36282 0.08958 0.0
C1661 C 0.64273 0.37311 0.08803 0.0
C1662 C 0.62667 0.36521 0.08773 0.0
C1663 C 0.64133 0.62766 0.08346 0.0
C1664 C 0.63201 0.61275 0.08281 0.0
C1665 C 0.63338 0.64332 0.08375 0.0
C1666 C 0.61581 0.64469 0.08367 0.0
H1667 H 0.65484 0.62732 0.08256 0.0
H1668 H 0.64109 0.65444 0.08314 0.0
S1669 S 0.5858 0.60926 0.08505 0.0
N1670 N 0.60436 0.60024 0.08423 0.0
N1671 N 0.58941 0.62959 0.08509 0.0
C1672 C 0.6064 0.62982 0.08458 0.0
C1673 C 0.6145 0.61388 0.08404 0.0
C1674 C 0.37612 0.60751 0.08536 0.0
C1675 C 0.36145 0.6172 0.08478 0.0
C1676 C 0.39197 0.61503 0.08498 0.0
C1677 C 0.39378 0.63254 0.08427 0.0
H1678 H 0.37541 0.59399 0.08489 0.0
H1679 H 0.40286 0.607 0.0844 0.0
S1680 S 0.35924 0.66355 0.08551 0.0
N1681 N 0.34971 0.64523 0.08557 0.0
N1682 N 0.37946 0.65939 0.08517 0.0
C1683 C 0.37922 0.64239 0.08525 0.0
C1684 C 0.36306 0.63471 0.0854 0.0
C1685 C 0.39741 0.37636 0.08518 0.0
C1686 C 0.38805 0.36147 0.085 0.0
C1687 C 0.38953 0.39204 0.08466 0.0
C1688 C 0.37197 0.39345 0.0842 0.0
H1689 H 0.41093 0.37595 0.08451 0.0
H1690 H 0.39729 0.4031 0.08377 0.0
S1691 S 0.34179 0.35824 0.08647 0.0
N1692 N 0.36031 0.34913 0.0864 0.0
N1693 N 0.34548 0.37854 0.08573 0.0
C1694 C 0.36248 0.37868 0.08556 0.0
C1695 C 0.37052 0.36271 0.08585 0.0
C1696 C 0.91777 0.62817 0.60722 0.0
C1697 C 0.91786 0.64282 0.61697 0.0
C1698 C 0.91841 0.61228 0.61466 0.0
C1699 C 0.91897 0.61038 0.63216 0.0
H1700 H 0.91838 0.62895 0.59371 0.0
H1701 H 0.91933 0.60146 0.60657 0.0
S1702 S 0.91648 0.64474 0.66332 0.0
N1703 N 0.91642 0.65436 0.64506 0.0
N1704 N 0.91739 0.62456 0.65905 0.0
C1705 C 0.91754 0.62488 0.64206 0.0
C1706 C 0.91707 0.64108 0.63447 0.0
C1707 C 0.36347 0.91762 0.63319 0.0
C1708 C 0.36124 0.91754 0.61572 0.0
C1709 C 0.37949 0.91732 0.64035 0.0
C1710 C 0.39395 0.91713 0.63032 0.0
H1711 H 0.3528 0.91884 0.64145 0.0
H1712 H 0.3805 0.91841 0.65381 0.0
S1713 S 0.39498 0.91389 0.58402 0.0
N1714 N 0.37489 0.91494 0.58865 0.0
N1715 N 0.40495 0.91457 0.60209 0.0
C1716 C 0.39188 0.9156 0.6129 0.0
C1717 C 0.37554 0.91574 0.60561 0.0
C1718 C 0.08512 0.37936 0.63941 0.0
C1719 C 0.08447 0.39409 0.6298 0.0
C1720 C 0.08538 0.36354 0.6318 0.0
C1721 C 0.08519 0.36177 0.61427 0.0
H1722 H 0.08432 0.37996 0.65291 0.0
H1723 H 0.08483 0.3526 0.63978 0.0
S1724 S 0.08661 0.39653 0.58348 0.0
N1725 N 0.08589 0.40596 0.60183 0.0
N1726 N 0.08656 0.37629 0.58755 0.0
C1727 C 0.08608 0.37643 0.60454 0.0
C1728 C 0.08565 0.39256 0.61229 0.0
C1729 C 0.61317 0.08399 0.61492 0.0
C1730 C 0.61158 0.08491 0.63244 0.0
C1731 C 0.62888 0.08465 0.60712 0.0
C1732 C 0.64368 0.08604 0.61654 0.0
H1733 H 0.60226 0.08195 0.60716 0.0
H1734 H 0.62945 0.08294 0.5937 0.0
S1735 S 0.64631 0.0915 0.66256 0.0
N1736 N 0.62612 0.08938 0.6588 0.0
N1737 N 0.65561 0.09038 0.64416 0.0
C1738 C 0.6422 0.08825 0.63394 0.0
C1739 C 0.62617 0.08776 0.64188 0.0
C1740 C 0.91522 0.37569 0.3958 0.0
C1741 C 0.91468 0.36115 0.3859 0.0
C1742 C 0.91569 0.39165 0.38849 0.0
C1743 C 0.91549 0.39374 0.371 0.0
H1744 H 0.91644 0.37478 0.40926 0.0
H1745 H 0.9171 0.40237 0.39666 0.0
S1746 S 0.91091 0.35976 0.33965 0.0
N1747 N 0.91164 0.34994 0.3578 0.0
N1748 N 0.91236 0.37987 0.34408 0.0
C1749 C 0.9134 0.37936 0.36103 0.0
C1750 C 0.91304 0.36309 0.36848 0.0
C1751 C 0.64032 0.9188 0.3732 0.0
C1752 C 0.64224 0.91851 0.39072 0.0
C1753 C 0.62444 0.91913 0.36575 0.0
C1754 C 0.60979 0.91933 0.3755 0.0
H1755 H 0.65117 0.91965 0.36514 0.0
H1756 H 0.62371 0.92028 0.35228 0.0
S1757 S 0.6078 0.91583 0.42176 0.0
N1758 N 0.62799 0.91623 0.41752 0.0
N1759 N 0.59819 0.91698 0.40352 0.0
C1760 C 0.61148 0.91767 0.39296 0.0
C1761 C 0.62768 0.91721 0.40055 0.0
C1762 C 0.0853 0.62796 0.39556 0.0
C1763 C 0.08531 0.64282 0.38612 0.0
C1764 C 0.08496 0.61223 0.38776 0.0
C1765 C 0.08476 0.61069 0.37021 0.0
H1766 H 0.0844 0.62844 0.40906 0.0
H1767 H 0.08393 0.60124 0.39561 0.0
S1768 S 0.08788 0.64572 0.33986 0.0
N1769 N 0.08742 0.65495 0.35832 0.0
N1770 N 0.08695 0.62546 0.34368 0.0
C1771 C 0.08633 0.62542 0.36066 0.0
C1772 C 0.08655 0.64145 0.36861 0.0
C1773 C 0.39238 0.08657 0.38953 0.0
C1774 C 0.3939 0.08635 0.37197 0.0
C1775 C 0.37665 0.08689 0.39732 0.0
C1776 C 0.36181 0.08685 0.38788 0.0
H1777 H 0.40337 0.08554 0.39737 0.0
H1778 H 0.37618 0.08596 0.41083 0.0
S1779 S 0.35888 0.08951 0.34163 0.0
N1780 N 0.37914 0.08859 0.34544 0.0
N1781 N 0.34966 0.08902 0.36009 0.0
C1782 C 0.36316 0.08815 0.37038 0.0
C1783 C 0.37919 0.08796 0.36243 0.0
C1784 C 0.60656 0.91696 0.63004 0.0
C1785 C 0.61617 0.91759 0.64477 0.0
C1786 C 0.61418 0.91718 0.61423 0.0
C1787 C 0.6317 0.91778 0.61251 0.0
H1788 H 0.59304 0.91752 0.63067 0.0
H1789 H 0.60621 0.91775 0.60329 0.0
S1790 S 0.66248 0.91654 0.64726 0.0
N1791 N 0.64411 0.91667 0.65667 0.0
N1792 N 0.65844 0.91679 0.62702 0.0
C1793 C 0.64145 0.91684 0.62715 0.0
C1794 C 0.63368 0.91684 0.64325 0.0
C1795 C 0.61521 0.08739 0.39002 0.0
C1796 C 0.63269 0.0873 0.39222 0.0
C1797 C 0.60802 0.08752 0.37401 0.0
C1798 C 0.61802 0.08735 0.35954 0.0
H1799 H 0.60696 0.08647 0.40073 0.0
H1800 H 0.59454 0.08655 0.37303 0.0
S1801 S 0.66434 0.08997 0.35834 0.0
N1802 N 0.65976 0.08934 0.37846 0.0
N1803 N 0.64624 0.08934 0.34843 0.0
C1804 C 0.63546 0.08867 0.36154 0.0
C1805 C 0.64279 0.08872 0.37786 0.0
C1806 C 0.91442 0.60606 0.3746 0.0
C1807 C 0.91377 0.61602 0.36011 0.0
C1808 C 0.91506 0.61331 0.39056 0.0
C1809 C 0.91492 0.63081 0.39269 0.0
H1810 H 0.91566 0.59261 0.37362 0.0
H1811 H 0.91661 0.60512 0.40124 0.0
S1812 S 0.90994 0.66227 0.35889 0.0
N1813 N 0.91057 0.64415 0.34901 0.0
N1814 N 0.91159 0.65778 0.37897 0.0
C1815 C 0.91261 0.64082 0.37839 0.0
C1816 C 0.9121 0.63343 0.36211 0.0
C1817 C 0.37143 0.91539 0.36347 0.0
C1818 C 0.38893 0.91489 0.36146 0.0
C1819 C 0.36406 0.9155 0.37939 0.0
C1820 C 0.37388 0.91523 0.39399 0.0
H1821 H 0.36333 0.91668 0.35268 0.0
H1822 H 0.35061 0.91692 0.3802 0.0
S1823 S 0.42007 0.91076 0.39567 0.0
N1824 N 0.41574 0.91172 0.37551 0.0
N1825 N 0.4019 0.91204 0.40539 0.0
C1826 C 0.39129 0.91323 0.39217 0.0
C1827 C 0.3988 0.91301 0.37592 0.0
C1828 C 0.08435 0.37069 0.36064 0.0
C1829 C 0.08474 0.38816 0.35842 0.0
C1830 C 0.08454 0.36351 0.37665 0.0
C1831 C 0.08495 0.37353 0.39111 0.0
H1832 H 0.08292 0.36247 0.34997 0.0
H1833 H 0.08317 0.35007 0.37766 0.0
S1834 S 0.08913 0.41976 0.39217 0.0
N1835 N 0.08795 0.41517 0.37208 0.0
N1836 N 0.08812 0.4017 0.40213 0.0
C1837 C 0.08683 0.39092 0.38906 0.0
C1838 C 0.0868 0.39823 0.37272 0.0
C1839 C 0.36556 0.08661 0.6258 0.0
C1840 C 0.37518 0.0865 0.61106 0.0
C1841 C 0.37316 0.08658 0.64162 0.0
C1842 C 0.3907 0.0866 0.64337 0.0
H1843 H 0.35207 0.08562 0.62518 0.0
H1844 H 0.36519 0.08564 0.65253 0.0
S1845 S 0.42145 0.08943 0.60868 0.0
N1846 N 0.40311 0.08867 0.59924 0.0
N1847 N 0.41739 0.08878 0.62891 0.0
C1848 C 0.40041 0.08803 0.62875 0.0
C1849 C 0.39266 0.08791 0.61262 0.0
C1850 C 0.91569 0.36363 0.62434 0.0
C1851 C 0.91512 0.37357 0.60982 0.0
C1852 C 0.91601 0.37089 0.6403 0.0
C1853 C 0.9156 0.38838 0.64244 0.0
H1854 H 0.91706 0.35019 0.6234 0.0
H1855 H 0.9175 0.36272 0.651 0.0
S1856 S 0.91083 0.41979 0.60856 0.0
N1857 N 0.91179 0.40168 0.59869 0.0
N1858 N 0.91222 0.41531 0.62867 0.0
C1859 C 0.91341 0.39837 0.6281 0.0
C1860 C 0.91323 0.39097 0.61181 0.0
C1861 C 0.08824 0.60786 0.62934 0.0
C1862 C 0.08817 0.6177 0.64392 0.0
C1863 C 0.08817 0.61525 0.61342 0.0
C1864 C 0.08819 0.63276 0.61144 0.0
H1865 H 0.08713 0.59438 0.63016 0.0
H1866 H 0.08712 0.60714 0.60262 0.0
S1867 S 0.09138 0.66398 0.64568 0.0
N1868 N 0.09056 0.64576 0.65537 0.0
N1869 N 0.09062 0.65965 0.62551 0.0
C1870 C 0.0898 0.64267 0.62591 0.0
C1871 C 0.08971 0.63514 0.64213 0.0
C1872 C 0.06736 0.24379 0.44049 0.0
C1873 C 0.07743 0.23473 0.42927 0.0
C1874 C 0.06594 0.26111 0.43951 0.0
C1875 C 0.07456 0.27037 0.4273 0.0
H1876 H 0.06028 0.23748 0.45016 0.0
H1877 H 0.05792 0.26726 0.44852 0.0
S1878 S 0.10301 0.2529 0.39508 0.0
N1879 N 0.09651 0.23635 0.40562 0.0
N1880 N 0.09391 0.26925 0.40385 0.0
C1881 C 0.08497 0.26162 0.41611 0.0
C1882 C 0.08638 0.24375 0.41707 0.0
C1883 C 0.7609 0.08532 0.41655 0.0
C1884 C 0.76955 0.08441 0.43187 0.0
C1885 C 0.74328 0.08457 0.41608 0.0
C1886 C 0.73397 0.08284 0.43091 0.0
H1887 H 0.76776 0.08559 0.40488 0.0
H1888 H 0.73703 0.08429 0.40407 0.0
S1889 S 0.75059 0.0833 0.4742 0.0
N1890 N 0.76734 0.08423 0.46219 0.0
N1891 N 0.73451 0.08269 0.46128 0.0
C1892 C 0.74247 0.0833 0.44626 0.0
C1893 C 0.76021 0.08412 0.44675 0.0
C1894 C 0.92756 0.75876 0.447 0.0
C1895 C 0.92142 0.7685 0.43371 0.0
C1896 C 0.92913 0.74147 0.44564 0.0
C1897 C 0.92453 0.73298 0.43097 0.0
H1898 H 0.93162 0.76453 0.45857 0.0
H1899 H 0.93422 0.73473 0.45624 0.0
S1900 S 0.90658 0.75229 0.39283 0.0
N1901 N 0.90985 0.76825 0.40556 0.0
N1902 N 0.91264 0.73541 0.4031 0.0
C1903 C 0.91763 0.74234 0.41777 0.0
C1904 C 0.91612 0.76017 0.41911 0.0
C1905 C 0.24367 0.94224 0.43576 0.0
C1906 C 0.2347 0.92964 0.4274 0.0
C1907 C 0.26106 0.94292 0.43523 0.0
C1908 C 0.27046 0.931 0.42635 0.0
H1909 H 0.23725 0.95175 0.44296 0.0
H1910 H 0.26714 0.95288 0.44211 0.0
S1911 S 0.25314 0.89576 0.4016 0.0
N1912 N 0.23648 0.9052 0.40937 0.0
N1913 N 0.26947 0.90643 0.40843 0.0
C1914 C 0.26174 0.91849 0.41754 0.0
C1915 C 0.24381 0.91782 0.41805 0.0
C1916 C 0.08923 0.74381 0.581 0.0
C1917 C 0.07439 0.73494 0.5777 0.0
C1918 C 0.08935 0.76146 0.58098 0.0
C1919 C 0.07464 0.77055 0.57765 0.0
H1920 H 0.1009 0.73714 0.58264 0.0
H1921 H 0.10112 0.76795 0.58264 0.0
S1922 S 0.03212 0.753 0.5716 0.0
N1923 N 0.04436 0.73649 0.57341 0.0
N1924 N 0.04456 0.76936 0.57342 0.0
C1925 C 0.05959 0.76172 0.57568 0.0
C1926 C 0.05947 0.74396 0.57569 0.0
C1927 C 0.24331 0.0682 0.56143 0.0
C1928 C 0.23396 0.07724 0.57326 0.0
C1929 C 0.26069 0.06764 0.56206 0.0
C1930 C 0.26971 0.0761 0.57456 0.0
H1931 H 0.23718 0.06129 0.55151 0.0
H1932 H 0.26707 0.06036 0.55258 0.0
S1933 S 0.2514 0.10207 0.60838 0.0
N1934 N 0.23503 0.09525 0.59776 0.0
N1935 N 0.26803 0.09422 0.59894 0.0
C1936 C 0.26065 0.08551 0.58637 0.0
C1937 C 0.24273 0.08607 0.58573 0.0
C1938 C 0.94648 0.26235 0.5771 0.0
C1939 C 0.93154 0.27101 0.58036 0.0
C1940 C 0.94696 0.24494 0.57671 0.0
C1941 C 0.93253 0.23531 0.57954 0.0
H1942 H 0.95792 0.26907 0.57436 0.0
H1943 H 0.95876 0.239 0.57369 0.0
S1944 S 0.89048 0.25178 0.59011 0.0
N1945 N 0.90211 0.2687 0.58767 0.0
N1946 N 0.90302 0.23567 0.58691 0.0
C1947 C 0.91765 0.2437 0.58376 0.0
C1948 C 0.91715 0.26163 0.58418 0.0
C1949 C 0.76109 0.91918 0.5876 0.0
C1950 C 0.76956 0.91999 0.57217 0.0
C1951 C 0.74348 0.91997 0.58827 0.0
C1952 C 0.734 0.92161 0.57353 0.0
H1953 H 0.76809 0.91901 0.59919 0.0
H1954 H 0.73737 0.92036 0.60035 0.0
S1955 S 0.75011 0.92084 0.53006 0.0
N1956 N 0.767 0.91997 0.54188 0.0
N1957 N 0.73418 0.92155 0.54316 0.0
C1958 C 0.74232 0.92102 0.55809 0.0
C1959 C 0.76005 0.92018 0.5574 0.0
C1960 C 0.41937 0.08737 0.26193 0.0
C1961 C 0.41795 0.07233 0.27096 0.0
C1962 C 0.41983 0.08725 0.24431 0.0
C1963 C 0.4189 0.07209 0.23541 0.0
H1964 H 0.4214 0.09905 0.26848 0.0
H1965 H 0.42215 0.09886 0.23773 0.0
S1966 S 0.41161 0.02993 0.25333 0.0
N1967 N 0.4131 0.04238 0.26973 0.0
N1968 N 0.41388 0.04214 0.23684 0.0
C1969 C 0.41591 0.05727 0.24435 0.0
C1970 C 0.41546 0.05739 0.2621 0.0
C1971 C 0.94448 0.42774 0.24306 0.0
C1972 C 0.92999 0.42451 0.23365 0.0
C1973 C 0.94423 0.42753 0.26046 0.0
C1974 C 0.92949 0.42402 0.26934 0.0
H1975 H 0.95615 0.43095 0.23695 0.0
H1976 H 0.95569 0.43059 0.26702 0.0
S1977 S 0.8884 0.4132 0.2508 0.0
N1978 N 0.90065 0.41651 0.23448 0.0
N1979 N 0.90021 0.41605 0.26753 0.0
C1980 C 0.91507 0.41979 0.26021 0.0
C1981 C 0.91531 0.42005 0.24228 0.0
C1982 C 0.5756 0.9462 0.2626 0.0
C1983 C 0.57983 0.93179 0.27171 0.0
C1984 C 0.57542 0.94619 0.2452 0.0
C1985 C 0.57943 0.93175 0.236 0.0
H1986 H 0.572 0.95761 0.26897 0.0
H1987 H 0.57171 0.95761 0.23893 0.0
S1988 S 0.59266 0.89099 0.25378 0.0
N1989 N 0.58918 0.90288 0.27033 0.0
N1990 N 0.58881 0.90283 0.23728 0.0
C1991 C 0.58452 0.9174 0.24486 0.0
C1992 C 0.58473 0.91743 0.26279 0.0
C1993 C 0.08714 0.58495 0.24263 0.0
C1994 C 0.07232 0.58419 0.23317 0.0
C1995 C 0.08654 0.58547 0.26025 0.0
C1996 C 0.07111 0.58527 0.26873 0.0
H1997 H 0.09918 0.58401 0.23649 0.0
H1998 H 0.09814 0.58488 0.26723 0.0
S1999 S 0.02898 0.58681 0.24943 0.0
N2000 N 0.04199 0.58578 0.23345 0.0
N2001 N 0.04087 0.5868 0.2663 0.0
C2002 C 0.05634 0.58601 0.25928 0.0
C2003 C 0.05694 0.58545 0.24154 0.0
C2004 C 0.44318 0.93322 0.76072 0.0
C2005 C 0.43053 0.92538 0.77008 0.0
C2006 C 0.44251 0.93393 0.74335 0.0
C2007 C 0.42919 0.92681 0.73437 0.0
H2008 H 0.45373 0.93911 0.76684 0.0
H2009 H 0.45262 0.94028 0.73693 0.0
S2010 S 0.39315 0.90406 0.7527 0.0
N2011 N 0.40443 0.90975 0.76906 0.0
N2012 N 0.40323 0.91104 0.73606 0.0
C2013 C 0.41662 0.91845 0.74342 0.0
C2014 C 0.41728 0.91774 0.76134 0.0
C2015 C 0.08294 0.41245 0.75999 0.0
C2016 C 0.08333 0.42773 0.76874 0.0
C2017 C 0.08246 0.4122 0.74236 0.0
C2018 C 0.08235 0.42723 0.7332 0.0
H2019 H 0.08179 0.40078 0.76677 0.0
H2020 H 0.08095 0.40035 0.73598 0.0
S2021 S 0.08656 0.47013 0.75025 0.0
N2022 N 0.08605 0.45794 0.7669 0.0
N2023 N 0.08511 0.45746 0.73402 0.0
C2024 C 0.08424 0.44238 0.74184 0.0
C2025 C 0.08474 0.44263 0.75958 0.0
C2026 C 0.55572 0.07998 0.74596 0.0
C2027 C 0.57035 0.08231 0.73649 0.0
C2028 C 0.55609 0.08001 0.76337 0.0
C2029 C 0.57109 0.08245 0.77218 0.0
H2030 H 0.54386 0.07751 0.73988 0.0
H2031 H 0.54453 0.07756 0.76999 0.0
S2032 S 0.61267 0.09082 0.75348 0.0
N2033 N 0.60014 0.08845 0.73721 0.0
N2034 N 0.6008 0.0886 0.77025 0.0
C2035 C 0.58569 0.0859 0.76299 0.0
C2036 C 0.58533 0.08581 0.74506 0.0
C2037 C 0.93188 0.55937 0.74367 0.0
C2038 C 0.92684 0.5737 0.73484 0.0
C2039 C 0.93147 0.55882 0.76106 0.0
C2040 C 0.92601 0.57258 0.77053 0.0
H2041 H 0.93652 0.54845 0.73711 0.0
H2042 H 0.93584 0.54751 0.76713 0.0
S2043 S 0.91027 0.61278 0.75353 0.0
N2044 N 0.91522 0.60174 0.73676 0.0
N2045 N 0.91447 0.60073 0.76979 0.0
C2046 C 0.92015 0.58679 0.76193 0.0
C2047 C 0.92055 0.58734 0.74401 0.0
C2048 C 0.24162 0.44687 0.07837 0.0
C2049 C 0.23272 0.43189 0.08055 0.0
C2050 C 0.25902 0.44707 0.0781 0.0
C2051 C 0.26836 0.43229 0.07993 0.0
H2052 H 0.23506 0.45854 0.07626 0.0
H2053 H 0.26519 0.45893 0.07584 0.0
S2054 S 0.2511 0.38994 0.08767 0.0
N2055 N 0.23441 0.40202 0.08596 0.0
N2056 N 0.26747 0.40237 0.08539 0.0
C2057 C 0.25971 0.41732 0.08323 0.0
C2058 C 0.24179 0.41713 0.08356 0.0
C2059 C 0.24193 0.56186 0.9395 0.0
C2060 C 0.23277 0.57186 0.92831 0.0
C2061 C 0.25931 0.56154 0.93928 0.0
C2062 C 0.26852 0.57125 0.92789 0.0
H2063 H 0.23568 0.55403 0.94861 0.0
H2064 H 0.26554 0.55353 0.94825 0.0
S2065 S 0.25078 0.5999 0.89601 0.0
N2066 N 0.23423 0.59199 0.90553 0.0
N2067 N 0.26726 0.59144 0.90517 0.0
C2068 C 0.25967 0.58157 0.91671 0.0
C2069 C 0.24173 0.58185 0.9169 0.0
C2070 C 0.44806 0.24132 0.92267 0.0
C2071 C 0.43297 0.23262 0.92036 0.0
C2072 C 0.44851 0.25874 0.92297 0.0
C2073 C 0.4339 0.2683 0.921 0.0
H2074 H 0.45964 0.23462 0.92482 0.0
H2075 H 0.46043 0.26473 0.92532 0.0
S2076 S 0.39136 0.25167 0.9129 0.0
N2077 N 0.40318 0.2348 0.91471 0.0
N2078 N 0.40402 0.26784 0.9153 0.0
C2079 C 0.41883 0.25986 0.91761 0.0
C2080 C 0.41837 0.24193 0.91728 0.0
C2081 C 0.75905 0.41864 0.91743 0.0
C2082 C 0.76744 0.41831 0.93291 0.0
C2083 C 0.74145 0.41807 0.91673 0.0
C2084 C 0.73192 0.41715 0.9315 0.0
H2085 H 0.766 0.42059 0.90598 0.0
H2086 H 0.73529 0.41964 0.90477 0.0
S2087 S 0.74813 0.41242 0.97465 0.0
N2088 N 0.76501 0.41434 0.96294 0.0
N2089 N 0.73215 0.41337 0.96162 0.0
C2090 C 0.74028 0.41523 0.9468 0.0
C2091 C 0.75802 0.41578 0.94751 0.0
C2092 C 0.59539 0.75951 0.92744 0.0
C2093 C 0.58246 0.76982 0.92146 0.0
C2094 C 0.59444 0.74202 0.92583 0.0
C2095 C 0.58032 0.73445 0.91861 0.0
H2096 H 0.60563 0.7649 0.93449 0.0
H2097 H 0.60399 0.73438 0.93167 0.0
S2098 S 0.54391 0.75609 0.89985 0.0
N2099 N 0.55597 0.77136 0.9068 0.0
N2100 N 0.5539 0.73855 0.90423 0.0
C2101 C 0.56793 0.74471 0.91159 0.0
C2102 C 0.56906 0.76242 0.91293 0.0
C2103 C 0.74583 0.55657 0.08176 0.0
C2104 C 0.73621 0.57125 0.08282 0.0
C2105 C 0.76324 0.55712 0.08213 0.0
C2106 C 0.77185 0.57235 0.08365 0.0
H2107 H 0.73989 0.54453 0.07992 0.0
H2108 H 0.77004 0.5455 0.08053 0.0
S2109 S 0.75264 0.61422 0.08885 0.0
N2110 N 0.73653 0.60139 0.08701 0.0
N2111 N 0.76955 0.60238 0.08778 0.0
C2112 C 0.76248 0.58705 0.086 0.0
C2113 C 0.74457 0.5865 0.08557 0.0
C2114 C 0.44995 0.74444 0.0764 0.0
C2115 C 0.4356 0.73485 0.07975 0.0
C2116 C 0.44966 0.76183 0.07727 0.0
C2117 C 0.43501 0.77052 0.08159 0.0
H2118 H 0.46153 0.73851 0.0726 0.0
H2119 H 0.46099 0.76855 0.07408 0.0
S2120 S 0.39436 0.7514 0.09307 0.0
N2121 N 0.40654 0.73527 0.08875 0.0
N2122 N 0.40601 0.76827 0.09044 0.0
C2123 C 0.42076 0.76117 0.08593 0.0
C2124 C 0.42104 0.74326 0.08499 0.0
C2125 C 0.56041 0.24474 0.07192 0.0
C2126 C 0.57389 0.23513 0.07782 0.0
C2127 C 0.5614 0.26209 0.07088 0.0
C2128 C 0.5759 0.27075 0.07573 0.0
H2129 H 0.54898 0.23882 0.06769 0.0
H2130 H 0.55066 0.26875 0.06598 0.0
S2131 S 0.6144 0.25172 0.09322 0.0
N2132 N 0.602 0.2356 0.08948 0.0
N2133 N 0.6038 0.26856 0.08761 0.0
C2134 C 0.58928 0.26147 0.0824 0.0
C2135 C 0.58829 0.24359 0.08342 0.0
C2136 C 0.93354 0.76073 0.57186 0.0
C2137 C 0.92299 0.7698 0.58262 0.0
C2138 C 0.93377 0.74326 0.57188 0.0
C2139 C 0.92373 0.73393 0.5829 0.0
H2140 H 0.94153 0.76717 0.56301 0.0
H2141 H 0.94211 0.73701 0.56322 0.0
S2142 S 0.89418 0.75144 0.61403 0.0
N2143 N 0.90219 0.76809 0.60475 0.0
N2144 N 0.90312 0.73502 0.6052 0.0
C2145 C 0.91332 0.74273 0.59402 0.0
C2146 C 0.91278 0.76069 0.59373 0.0
C2147 C 0.24372 0.90859 0.57834 0.0
C2148 C 0.23385 0.92171 0.58477 0.0
C2149 C 0.26129 0.90927 0.57902 0.0
C2150 C 0.26953 0.92278 0.58667 0.0
H2151 H 0.23789 0.89824 0.57184 0.0
H2152 H 0.26848 0.89943 0.57309 0.0
S2153 S 0.24955 0.95969 0.6063 0.0
N2154 N 0.23371 0.94829 0.59953 0.0
N2155 N 0.26662 0.94916 0.60137 0.0
C2156 C 0.25983 0.93549 0.59391 0.0
C2157 C 0.24201 0.93505 0.59283 0.0
C2158 C 0.06722 0.24355 0.56957 0.0
C2159 C 0.07874 0.23453 0.57935 0.0
C2160 C 0.06663 0.26103 0.56992 0.0
C2161 C 0.07729 0.27041 0.58031 0.0
H2162 H 0.05871 0.23708 0.56125 0.0
H2163 H 0.05752 0.26724 0.56204 0.0
S2164 S 0.10952 0.253 0.60877 0.0
N2165 N 0.10113 0.23634 0.59985 0.0
N2166 N 0.09961 0.26935 0.60091 0.0
C2167 C 0.08872 0.26163 0.59042 0.0
C2168 C 0.08958 0.24369 0.5898 0.0
C2169 C 0.76034 0.07295 0.56727 0.0
C2170 C 0.76966 0.08256 0.57867 0.0
C2171 C 0.74288 0.07267 0.5677 0.0
C2172 C 0.73381 0.08173 0.57976 0.0
H2173 H 0.76659 0.0656 0.55776 0.0
H2174 H 0.73648 0.06488 0.55865 0.0
S2175 S 0.75216 0.10911 0.61244 0.0
N2176 N 0.76855 0.10178 0.60219 0.0
N2177 N 0.73553 0.10083 0.60338 0.0
C2178 C 0.74292 0.09148 0.59128 0.0
C2179 C 0.76086 0.09205 0.59061 0.0
C2180 C 0.93572 0.24382 0.42872 0.0
C2181 C 0.92341 0.23435 0.42044 0.0
C2182 C 0.93547 0.26127 0.42856 0.0
C2183 C 0.92311 0.27018 0.41982 0.0
H2184 H 0.94553 0.23772 0.4358 0.0
H2185 H 0.94524 0.26784 0.43527 0.0
S2186 S 0.8882 0.25158 0.39563 0.0
N2187 N 0.89842 0.23524 0.40314 0.0
N2188 N 0.89834 0.26832 0.4023 0.0
C2189 C 0.91086 0.261 0.41114 0.0
C2190 C 0.91087 0.24304 0.41164 0.0
C2191 C 0.74254 0.9327 0.43668 0.0
C2192 C 0.73329 0.9232 0.42511 0.0
C2193 C 0.76 0.93234 0.43691 0.0
C2194 C 0.76913 0.9222 0.42581 0.0
H2195 H 0.73627 0.94086 0.44549 0.0
H2196 H 0.7664 0.94002 0.44605 0.0
S2197 S 0.75108 0.89445 0.39332 0.0
N2198 N 0.73461 0.90319 0.40224 0.0
N2199 N 0.76763 0.90208 0.40307 0.0
C2200 C 0.76013 0.91232 0.41435 0.0
C2201 C 0.74219 0.91296 0.41387 0.0
C2202 C 0.07054 0.75938 0.435 0.0
C2203 C 0.08125 0.76851 0.42442 0.0
C2204 C 0.06987 0.74192 0.43445 0.0
C2205 C 0.0796 0.73268 0.42307 0.0
H2206 H 0.06273 0.76576 0.44404 0.0
H2207 H 0.06137 0.73562 0.44292 0.0
S2208 S 0.10957 0.75043 0.39243 0.0
N2209 N 0.10197 0.76697 0.40223 0.0
N2210 N 0.10026 0.73398 0.40081 0.0
C2211 C 0.09027 0.74158 0.41225 0.0
C2212 C 0.09123 0.75949 0.41306 0.0
C2213 C 0.24503 0.09114 0.4174 0.0
C2214 C 0.23565 0.07735 0.42325 0.0
C2215 C 0.26266 0.09067 0.41683 0.0
C2216 C 0.2715 0.07654 0.42244 0.0
H2217 H 0.23874 0.10248 0.41349 0.0
H2218 H 0.26941 0.1016 0.41253 0.0
S2219 S 0.25326 0.0367 0.43761 0.0
N2220 N 0.23694 0.04868 0.43364 0.0
N2221 N 0.26977 0.04815 0.43295 0.0
C2222 C 0.26235 0.06257 0.42783 0.0
C2223 C 0.24452 0.06288 0.42812 0.0
C2224 C 0.57889 0.90603 0.74435 0.0
C2225 C 0.58729 0.91896 0.73588 0.0
C2226 C 0.57861 0.90535 0.76192 0.0
C2227 C 0.58621 0.91793 0.77162 0.0
H2228 H 0.5719 0.89677 0.73734 0.0
H2229 H 0.57137 0.89559 0.7679 0.0
S2230 S 0.61043 0.95404 0.75549 0.0
N2231 N 0.60427 0.94401 0.73852 0.0
N2232 N 0.60313 0.94316 0.77146 0.0
C2233 C 0.59522 0.93052 0.76329 0.0
C2234 C 0.59592 0.93093 0.74544 0.0
C2235 C 0.09684 0.57514 0.74239 0.0
C2236 C 0.08564 0.58615 0.73446 0.0
C2237 C 0.09794 0.57437 0.75992 0.0
C2238 C 0.08744 0.58416 0.77011 0.0
H2239 H 0.10439 0.56666 0.73499 0.0
H2240 H 0.10624 0.56524 0.76552 0.0
S2241 S 0.05645 0.61538 0.75554 0.0
N2242 N 0.06456 0.60773 0.73815 0.0
N2243 N 0.06605 0.60567 0.77104 0.0
C2244 C 0.07661 0.5956 0.76234 0.0
C2245 C 0.07587 0.59676 0.74452 0.0
C2246 C 0.43713 0.06967 0.74323 0.0
C2247 C 0.4258 0.07954 0.73406 0.0
C2248 C 0.43735 0.06986 0.76072 0.0
C2249 C 0.42651 0.08019 0.76994 0.0
H2250 H 0.44574 0.06136 0.73686 0.0
H2251 H 0.44629 0.06189 0.76706 0.0
S2252 S 0.39471 0.10887 0.75212 0.0
N2253 N 0.40343 0.10008 0.73557 0.0
N2254 N 0.40426 0.10086 0.7686 0.0
C2255 C 0.4153 0.09042 0.76102 0.0
C2256 C 0.41481 0.08995 0.74307 0.0
C2257 C 0.90674 0.42891 0.74196 0.0
C2258 C 0.91763 0.41773 0.73384 0.0
C2259 C 0.9057 0.42944 0.75951 0.0
C2260 C 0.91595 0.41922 0.76951 0.0
H2261 H 0.89942 0.43771 0.73472 0.0
H2262 H 0.89766 0.43871 0.76526 0.0
S2263 S 0.94603 0.38737 0.7544 0.0
N2264 N 0.9381 0.39552 0.73715 0.0
N2265 N 0.93673 0.3971 0.77007 0.0
C2266 C 0.92644 0.4076 0.76155 0.0
C2267 C 0.92712 0.4067 0.74371 0.0
C2268 C 0.59725 0.07657 0.24153 0.0
C2269 C 0.58544 0.0866 0.23319 0.0
C2270 C 0.59808 0.07617 0.25909 0.0
C2271 C 0.58673 0.08535 0.26893 0.0
H2272 H 0.60545 0.06843 0.23444 0.0
H2273 H 0.60687 0.0677 0.26498 0.0
S2274 S 0.55411 0.11431 0.25324 0.0
N2275 N 0.56298 0.10686 0.23614 0.0
N2276 N 0.56405 0.10553 0.26908 0.0
C2277 C 0.57538 0.09598 0.26075 0.0
C2278 C 0.57486 0.09676 0.24289 0.0
C2279 C 0.93504 0.57507 0.24238 0.0
C2280 C 0.92241 0.58316 0.23316 0.0
C2281 C 0.93496 0.57497 0.25983 0.0
C2282 C 0.92247 0.58327 0.26897 0.0
H2283 H 0.94495 0.56831 0.23607 0.0
H2284 H 0.94493 0.56839 0.26622 0.0
S2285 S 0.8868 0.60687 0.25108 0.0
N2286 N 0.89703 0.59985 0.23454 0.0
N2287 N 0.89728 0.60022 0.26762 0.0
C2288 C 0.90993 0.5918 0.26005 0.0
C2289 C 0.90977 0.59155 0.24209 0.0
C2290 C 0.43117 0.93585 0.24357 0.0
C2291 C 0.42264 0.92359 0.23426 0.0
C2292 C 0.43098 0.93586 0.26103 0.0
C2293 C 0.42196 0.92382 0.27011 0.0
H2294 H 0.43846 0.94542 0.23733 0.0
H2295 H 0.43791 0.94556 0.26748 0.0
S2296 S 0.39703 0.88919 0.25196 0.0
N2297 N 0.40479 0.899 0.23549 0.0
N2298 N 0.4039 0.89942 0.26856 0.0
C2299 C 0.41303 0.91163 0.26108 0.0
C2300 C 0.41355 0.91137 0.24313 0.0
C2301 C 0.09215 0.42773 0.25873 0.0
C2302 C 0.08059 0.41725 0.26683 0.0
C2303 C 0.09323 0.42821 0.24119 0.0
C2304 C 0.08236 0.41868 0.23114 0.0
H2305 H 0.10005 0.43601 0.26599 0.0
H2306 H 0.10187 0.43694 0.23547 0.0
S2307 S 0.05032 0.38879 0.24623 0.0
N2308 N 0.05875 0.39639 0.2635 0.0
N2309 N 0.0602 0.39794 0.23057 0.0
C2310 C 0.07113 0.40776 0.2391 0.0
C2311 C 0.0704 0.40688 0.25694 0.0
C2312 C 0.74415 0.59921 0.92413 0.0
C2313 C 0.73487 0.58837 0.91384 0.0
C2314 C 0.76172 0.59878 0.92421 0.0
C2315 C 0.77062 0.58786 0.91366 0.0
H2316 H 0.73784 0.60702 0.93322 0.0
H2317 H 0.76835 0.60633 0.9333 0.0
S2318 S 0.75213 0.55877 0.88262 0.0
N2319 N 0.73582 0.56762 0.8917 0.0
N2320 N 0.7688 0.56727 0.89136 0.0
C2321 C 0.76148 0.57814 0.90219 0.0
C2322 C 0.74361 0.57826 0.90242 0.0
C2323 C 0.76008 0.4193 0.08685 0.0
C2324 C 0.76932 0.43009 0.07642 0.0
C2325 C 0.74246 0.41866 0.08606 0.0
C2326 C 0.73341 0.42913 0.07514 0.0
H2327 H 0.7665 0.41113 0.09554 0.0
H2328 H 0.73589 0.41003 0.09416 0.0
S2329 S 0.75164 0.4599 0.04545 0.0
N2330 N 0.76797 0.45155 0.0549 0.0
N2331 N 0.73516 0.45061 0.05366 0.0
C2332 C 0.74254 0.4401 0.0648 0.0
C2333 C 0.76039 0.4405 0.06537 0.0
C2334 C 0.59188 0.74382 0.08739 0.0
C2335 C 0.57923 0.73481 0.07903 0.0
C2336 C 0.5915 0.76147 0.08822 0.0
C2337 C 0.57876 0.77067 0.08025 0.0
H2338 H 0.60208 0.7372 0.09335 0.0
H2339 H 0.60141 0.76795 0.09479 0.0
S2340 S 0.54273 0.75317 0.05679 0.0
N2341 N 0.5535 0.73665 0.06282 0.0
N2342 N 0.55306 0.76945 0.0641 0.0
C2343 C 0.56609 0.76179 0.07192 0.0
C2344 C 0.56626 0.74397 0.07137 0.0
C2345 C 0.26114 0.59586 0.07427 0.0
C2346 C 0.27112 0.58639 0.08524 0.0
C2347 C 0.24358 0.59492 0.07485 0.0
C2348 C 0.23537 0.58489 0.08676 0.0
H2349 H 0.26691 0.60312 0.06439 0.0
H2350 H 0.2364 0.60161 0.06551 0.0
S2351 S 0.25584 0.55905 0.11942 0.0
N2352 N 0.27154 0.56751 0.109 0.0
N2353 N 0.23862 0.56629 0.11059 0.0
C2354 C 0.24522 0.57631 0.09856 0.0
C2355 C 0.26307 0.57691 0.09766 0.0
C2356 C 0.42764 0.24445 0.09735 0.0
C2357 C 0.4184 0.23475 0.08593 0.0
C2358 C 0.42758 0.26201 0.09646 0.0
C2359 C 0.41785 0.2705 0.0845 0.0
H2360 H 0.43591 0.23844 0.10624 0.0
H2361 H 0.43576 0.26898 0.10472 0.0
S2362 S 0.39014 0.25085 0.05292 0.0
N2363 N 0.39852 0.23488 0.06301 0.0
N2364 N 0.39779 0.26785 0.06183 0.0
C2365 C 0.40762 0.26095 0.07384 0.0
C2366 C 0.40807 0.24308 0.07442 0.0
C2367 C 0.24184 0.40736 0.92658 0.0
C2368 C 0.23355 0.41767 0.91496 0.0
C2369 C 0.25939 0.40632 0.92696 0.0
C2370 C 0.2693 0.41597 0.91609 0.0
H2371 H 0.23472 0.40055 0.93589 0.0
H2372 H 0.26523 0.39887 0.93666 0.0
S2373 S 0.2538 0.44405 0.88262 0.0
N2374 N 0.23664 0.4367 0.89146 0.0
N2375 N 0.26957 0.43532 0.8927 0.0
C2376 C 0.26117 0.42571 0.90392 0.0
C2377 C 0.24331 0.4264 0.90321 0.0
C2378 C 0.56682 0.26151 0.93087 0.0
C2379 C 0.57892 0.27047 0.92176 0.0
C2380 C 0.56626 0.24403 0.93061 0.0
C2381 C 0.57755 0.23462 0.92095 0.0
H2382 H 0.55785 0.26802 0.93867 0.0
H2383 H 0.55675 0.23785 0.93801 0.0
S2384 S 0.61136 0.25184 0.89429 0.0
N2385 N 0.60245 0.26854 0.90258 0.0
N2386 N 0.60101 0.23553 0.90166 0.0
C2387 C 0.58951 0.24333 0.91143 0.0
C2388 C 0.59032 0.26126 0.91198 0.0
C2389 C 0.42693 0.75864 0.90606 0.0
C2390 C 0.41689 0.76782 0.91722 0.0
C2391 C 0.42682 0.74106 0.90611 0.0
C2392 C 0.41631 0.73202 0.91697 0.0
H2393 H 0.43591 0.76503 0.89817 0.0
H2394 H 0.43565 0.73449 0.89821 0.0
S2395 S 0.38607 0.75026 0.94706 0.0
N2396 N 0.39517 0.76665 0.93839 0.0
N2397 N 0.39446 0.73367 0.93804 0.0
C2398 C 0.40518 0.7411 0.92715 0.0
C2399 C 0.40562 0.75898 0.92741 0.0
C2400 C 0.01884 0.18497 0.4156 0.0
C2401 C 0.02555 0.16872 0.41693 0.0
C2402 C 1.00163 0.18781 0.41655 0.0
C2403 C 0.99032 0.17454 0.41851 0.0
H2404 H 0.02697 0.19578 0.41485 0.0
H2405 H 0.9972 0.20062 0.41652 0.0
S2406 S 1.00093 0.12946 0.42003 0.0
N2407 N 0.01921 0.13896 0.41847 0.0
N2408 N 0.98668 0.14442 0.41986 0.0
C2409 C 0.99659 0.15813 0.41827 0.0
C2410 C 0.01426 0.15518 0.41754 0.0
C2411 C 0.81591 0.017 0.42614 0.0
C2412 C 0.83158 0.02403 0.42217 0.0
C2413 C 0.81374 0.99973 0.42756 0.0
C2414 C 0.82702 0.9886 0.42475 0.0
H2415 H 0.80528 0.0249 0.42898 0.0
H2416 H 0.80159 0.99507 0.43135 0.0
S2417 S 0.87009 1.00007 0.41206 0.0
N2418 N 0.86037 0.0182 0.41408 0.0
N2419 N 0.85605 0.98554 0.41641 0.0
C2420 C 0.84247 0.99522 0.41962 0.0
C2421 C 0.84481 0.01297 0.41841 0.0
C2422 C 0.98993 0.83932 0.41961 0.0
C2423 C 0.97905 0.8303 0.43011 0.0
C2424 C 0.00739 0.83692 0.42039 0.0
C2425 C 0.01457 0.82563 0.43189 0.0
H2426 H 0.98492 0.84817 0.41067 0.0
H2427 H 0.0153 0.84409 0.41206 0.0
S2428 S 0.99149 0.79971 0.46288 0.0
N2429 N 0.97684 0.81011 0.4528 0.0
N2430 N 0.00924 0.80567 0.45429 0.0
C2431 C 0.00375 0.81671 0.44256 0.0
C2432 C 0.98612 0.81903 0.44167 0.0
C2433 C 0.15433 0.99174 0.42031 0.0
C2434 C 0.16786 0.98084 0.4172 0.0
C2435 C 0.15679 0.00915 0.42153 0.0
C2436 C 0.17283 0.0161 0.41971 0.0
H2437 H 0.14205 0.98675 0.42306 0.0
H2438 H 0.14637 0.01702 0.42515 0.0
S2439 S 0.21166 0.99362 0.40835 0.0
N2440 N 0.19734 0.97881 0.40974 0.0
N2441 N 0.20187 0.01129 0.41256 0.0
C2442 C 0.18607 0.00558 0.41519 0.0
C2443 C 0.1836 0.988 0.41374 0.0
C2444 C 0.99394 0.84699 0.58151 0.0
C2445 C 0.98707 0.83091 0.58333 0.0
C2446 C 0.01138 0.84948 0.58219 0.0
C2447 C 0.02242 0.83596 0.58478 0.0
H2448 H 0.98593 0.85746 0.5784 0.0
H2449 H 0.01624 0.86185 0.57957 0.0
S2450 S 0.01002 0.79197 0.59337 0.0
N2451 N 0.9922 0.80177 0.58985 0.0
N2452 N 0.02474 0.80635 0.59167 0.0
C2453 C 0.01541 0.82012 0.58812 0.0
C2454 C 0.99779 0.81761 0.58721 0.0
C2455 C 0.15538 0.01209 0.58249 0.0
C2456 C 0.16871 0.02327 0.58541 0.0
C2457 C 0.15817 0.99472 0.58135 0.0
C2458 C 0.17437 0.98808 0.583 0.0
H2459 H 0.14296 0.01682 0.57987 0.0
H2460 H 0.14785 0.98662 0.57795 0.0
S2461 S 0.2128 0.01143 0.59408 0.0
N2462 N 0.19819 0.02594 0.59264 0.0
N2463 N 0.20335 0.99354 0.59001 0.0
C2464 C 0.18744 0.99891 0.58735 0.0
C2465 C 0.18462 0.01645 0.58873 0.0
C2466 C 0.00822 0.18129 0.59131 0.0
C2467 C 0.01848 0.16905 0.58409 0.0
C2468 C 0.99093 0.1789 0.59266 0.0
C2469 C 0.98317 0.16432 0.58645 0.0
H2470 H 0.01344 0.19327 0.5949 0.0
H2471 H 0.98347 0.18917 0.59739 0.0
S2472 S 0.00511 0.12762 0.56837 0.0
N2473 N 0.02021 0.14113 0.5724 0.0
N2474 N 0.98758 0.13661 0.5746 0.0
C2475 C 0.99356 0.15134 0.58059 0.0
C2476 C 0.01126 0.15376 0.5794 0.0
C2477 C 0.81386 0.00496 0.57592 0.0
C2478 C 0.82721 0.01603 0.57863 0.0
C2479 C 0.81592 0.98768 0.57747 0.0
C2480 C 0.83155 0.98059 0.58149 0.0
H2481 H 0.80174 0.00966 0.57212 0.0
H2482 H 0.80524 0.97983 0.57471 0.0
S2483 S 0.87022 0.00438 0.59139 0.0
N2484 N 0.85627 0.01896 0.58694 0.0
N2485 N 0.86039 0.98629 0.58951 0.0
C2486 C 0.84485 0.9916 0.58515 0.0
C2487 C 0.84263 0.00935 0.5838 0.0
C2488 C 0.42106 0.01129 0.15292 0.0
C2489 C 0.41409 0.02168 0.16534 0.0
C2490 C 0.42234 0.99389 0.15535 0.0
C2491 C 0.41662 0.98645 0.17022 0.0
H2492 H 0.42701 0.01673 0.14204 0.0
H2493 H 0.42917 0.9865 0.14629 0.0
S2494 S 0.39432 0.00749 0.20488 0.0
N2495 N 0.39884 0.0227 0.19167 0.0
N2496 N 0.40167 0.99021 0.19629 0.0
C2497 C 0.40809 0.9964 0.18183 0.0
C2498 C 0.40664 0.01398 0.17933 0.0
C2499 C 0.00528 0.41299 0.18191 0.0
C2500 C 0.01605 0.41912 0.16951 0.0
C2501 C 0.98807 0.4117 0.17911 0.0
C2502 C 0.9808 0.41697 0.16392 0.0
H2503 H 0.01009 0.41007 0.19424 0.0
H2504 H 0.98028 0.40775 0.18947 0.0
S2505 S 0.00411 0.43179 0.1266 0.0
N2506 N 0.01877 0.42853 0.14079 0.0
N2507 N 0.98621 0.42664 0.13555 0.0
C2508 C 0.99167 0.42171 0.15086 0.0
C2509 C 0.00935 0.42273 0.15368 0.0
C2510 C 0.59431 0.98902 0.18202 0.0
C2511 C 0.58884 0.98209 0.16675 0.0
C2512 C 0.59311 0.00618 0.18518 0.0
C2513 C 0.58683 0.01721 0.17308 0.0
H2514 H 0.59834 0.981 0.19217 0.0
H2515 H 0.59619 0.01072 0.19758 0.0
S2516 S 0.57372 0.00618 0.13005 0.0
N2517 N 0.57892 0.98809 0.13859 0.0
N2518 N 0.57716 0.02054 0.1445 0.0
C2519 C 0.58308 0.01085 0.15714 0.0
C2520 C 0.58403 0.99323 0.15395 0.0
C2521 C 0.0111 0.5853 0.1526 0.0
C2522 C 0.02204 0.59021 0.16553 0.0
C2523 C 0.99372 0.58446 0.15529 0.0
C2524 C 0.98686 0.58848 0.17096 0.0
H2525 H 0.01604 0.5807 0.14086 0.0
H2526 H 0.98583 0.57927 0.14557 0.0
S2527 S 0.00953 0.60545 0.20758 0.0
N2528 N 0.02427 0.60193 0.19355 0.0
N2529 N 0.99179 0.59988 0.1986 0.0
C2530 C 0.99742 0.59498 0.18332 0.0
C2531 C 0.01498 0.59602 0.18059 0.0
C2532 C 0.42068 0.99107 0.84854 0.0
C2533 C 0.41881 0.98003 0.8349 0.0
C2534 C 0.42181 0.00848 0.84606 0.0
C2535 C 0.42117 0.01531 0.82988 0.0
H2536 H 0.42247 0.98621 0.86105 0.0
H2537 H 0.42442 0.01647 0.85668 0.0
S2538 S 0.4132 0.99241 0.79044 0.0
N2539 N 0.41372 0.97772 0.80493 0.0
N2540 N 0.41639 0.01021 0.8004 0.0
C2541 C 0.41791 0.00463 0.81639 0.0
C2542 C 0.41653 0.98704 0.81887 0.0
C2543 C 0.01042 0.41828 0.84378 0.0
C2544 C 0.02154 0.41714 0.83012 0.0
C2545 C 0.993 0.41912 0.84129 0.0
C2546 C 0.9862 0.41897 0.82508 0.0
H2547 H 0.01519 0.4196 0.85638 0.0
H2548 H 0.98494 0.42106 0.852 0.0
S2549 S 0.00941 0.4128 0.78546 0.0
N2550 N 0.02405 0.41321 0.80001 0.0
N2551 N 0.99153 0.41525 0.79546 0.0
C2552 C 0.99702 0.41645 0.81151 0.0
C2553 C 0.01463 0.41538 0.814 0.0
C2554 C 0.58374 0.01111 0.84713 0.0
C2555 C 0.58479 0.02242 0.83362 0.0
C2556 C 0.58282 0.99372 0.8444 0.0
C2557 C 0.58279 0.98714 0.82809 0.0
H2558 H 0.58257 0.01572 0.85981 0.0
H2559 H 0.58102 0.9855 0.85502 0.0
S2560 S 0.58862 0.01093 0.78875 0.0
N2561 N 0.58838 0.02535 0.80351 0.0
N2562 N 0.58622 0.9929 0.79851 0.0
C2563 C 0.58518 0.99815 0.81465 0.0
C2564 C 0.58632 0.01573 0.81738 0.0
C2565 C 0.01217 0.58168 0.8439 0.0
C2566 C 0.01859 0.58271 0.82756 0.0
C2567 C 0.99483 0.58263 0.84685 0.0
C2568 C 0.98344 0.58475 0.83355 0.0
H2569 H 0.02044 0.57893 0.85427 0.0
H2570 H 0.9903 0.58054 0.85944 0.0
S2571 S 0.99459 0.5917 0.78897 0.0
N2572 N 0.01266 0.58836 0.79836 0.0
N2573 N 0.98029 0.59061 0.80381 0.0
C2574 C 0.99 0.58745 0.81741 0.0
C2575 C 0.00752 0.58627 0.81444 0.0
C2576 C 0.15784 0.41914 0.00952 0.0
C2577 C 0.17111 0.4179 0.02107 0.0
C2578 C 0.16086 0.41934 0.99217 0.0
C2579 C 0.17725 0.41844 0.98588 0.0
H2580 H 0.14516 0.42108 0.01388 0.0
H2581 H 0.15047 0.42144 0.98375 0.0
S2582 S 0.21593 0.41163 0.01046 0.0
N2583 N 0.20098 0.413 0.02462 0.0
N2584 N 0.20656 0.41386 0.99221 0.0
C2585 C 0.1904 0.41576 0.99716 0.0
C2586 C 0.18736 0.41533 0.01472 0.0
C2587 C 0.18531 0.58679 0.98881 0.0
C2588 C 0.16881 0.58539 0.98274 0.0
C2589 C 0.18879 0.58634 0.00593 0.0
C2590 C 0.17594 0.58484 0.01778 0.0
H2591 H 0.19581 0.58722 0.98026 0.0
H2592 H 0.20175 0.58639 0.00988 0.0
S2593 S 0.13049 0.5833 0.00889 0.0
N2594 N 0.13931 0.58425 0.99023 0.0
N2595 N 0.14598 0.58379 0.02256 0.0
C2596 C 0.15931 0.58499 0.01211 0.0
C2597 C 0.15571 0.5852 0.99454 0.0
C2598 C 0.42421 0.19088 0.00421 0.0
C2599 C 0.42272 0.17784 0.01588 0.0
C2600 C 0.42329 0.18786 0.98702 0.0
C2601 C 0.42108 0.17157 0.98062 0.0
H2602 H 0.42662 0.20355 0.00837 0.0
H2603 H 0.42507 0.19839 0.9787 0.0
S2604 S 0.41481 0.13321 0.00606 0.0
N2605 N 0.41747 0.1482 0.02003 0.0
N2606 N 0.41601 0.14235 0.98758 0.0
C2607 C 0.41858 0.1585 0.9922 0.0
C2608 C 0.41933 0.16166 0.00985 0.0
C2609 C 0.85132 0.42621 0.99256 0.0
C2610 C 0.83957 0.41698 0.98324 0.0
C2611 C 0.84953 0.42815 0.00994 0.0
C2612 C 0.83621 0.42058 0.01854 0.0
H2613 H 0.86094 0.43336 0.98625 0.0
H2614 H 0.85783 0.43665 0.01645 0.0
S2615 S 0.80384 0.3929 1.00046 0.0
N2616 N 0.81545 0.39847 0.98431 0.0
N2617 N 0.81232 0.40201 0.01695 0.0
C2618 C 0.82544 0.40999 0.00968 0.0
C2619 C 0.82711 0.40815 0.99201 0.0
C2620 C 0.57993 0.84853 0.01096 0.0
C2621 C 0.58641 0.83459 0.01944 0.0
C2622 C 0.58132 0.84988 0.99348 0.0
C2623 C 0.58896 0.83715 0.98397 0.0
H2624 H 0.57262 0.85774 0.01767 0.0
H2625 H 0.57498 0.86015 0.98733 0.0
S2626 S 0.61024 0.79952 1.0009 0.0
N2627 N 0.6025 0.80898 0.01755 0.0
N2628 N 0.6052 0.81141 0.98478 0.0
C2629 C 0.59687 0.82399 0.99261 0.0
C2630 C 0.59549 0.82269 0.01035 0.0
C2631 C 0.81565 0.58613 0.01669 0.0
C2632 C 0.83219 0.58619 0.02274 0.0
C2633 C 0.8122 0.5853 0.99958 0.0
C2634 C 0.8251 0.5847 0.98767 0.0
H2635 H 0.80516 0.58588 0.02526 0.0
H2636 H 0.79924 0.58447 0.99569 0.0
S2637 S 0.87057 0.58683 0.99659 0.0
N2638 N 0.86168 0.58726 0.01523 0.0
N2639 N 0.8551 0.58593 0.98293 0.0
C2640 C 0.84169 0.58611 0.99336 0.0
C2641 C 0.84526 0.58682 0.01092 0.0
C2642 C 0.42123 0.84099 0.99523 0.0
C2643 C 0.41909 0.82444 0.98964 0.0
C2644 C 0.4211 0.84482 0.01242 0.0
C2645 C 0.41872 0.83221 0.02452 0.0
H2646 H 0.42423 0.8508 0.98638 0.0
H2647 H 0.42403 0.85747 0.01625 0.0
S2648 S 0.40891 0.78761 0.01588 0.0
N2649 N 0.41203 0.79592 0.99725 0.0
N2650 N 0.41141 0.80304 0.02937 0.0
C2651 C 0.41492 0.81595 0.01887 0.0
C2652 C 0.41522 0.81208 1.00148 0.0
C2653 C 0.58138 0.1598 0.99329 0.0
C2654 C 0.58093 0.17595 0.98638 0.0
C2655 C 0.58263 0.15749 0.01071 0.0
C2656 C 0.58358 0.17128 0.02168 0.0
H2657 H 0.5796 0.14897 0.98534 0.0
H2658 H 0.58176 0.14489 0.01562 0.0
S2659 S 0.58617 0.21598 0.00908 0.0
N2660 N 0.58369 0.20572 0.99134 0.0
N2661 N 0.58659 0.20155 0.02384 0.0
C2662 C 0.58472 0.1874 0.0146 0.0
C2663 C 0.58321 0.18969 0.997 0.0
C2664 C 0.51528 0.68306 0.90687 0.0
C2665 C 0.52243 0.66778 0.91205 0.0
C2666 C 0.49808 0.68593 0.90809 0.0
C2667 C 0.48721 0.67352 0.91405 0.0
H2668 H 0.52316 0.69342 0.90311 0.0
H2669 H 0.49337 0.69832 0.90526 0.0
S2670 S 0.49885 0.63035 0.92618 0.0
N2671 N 0.51682 0.63929 0.92126 0.0
N2672 N 0.48429 0.64467 0.92302 0.0
C2673 C 0.4938 0.6576 0.91745 0.0
C2674 C 0.51147 0.6547 0.91651 0.0
C2675 C 0.3218 0.51281 0.90799 0.0
C2676 C 0.33719 0.51939 0.91356 0.0
C2677 C 0.3184 0.49568 0.90884 0.0
C2678 C 0.33037 0.48434 0.91482 0.0
H2679 H 0.31174 0.52106 0.90421 0.0
H2680 H 0.30591 0.49139 0.90575 0.0
S2681 S 0.37367 0.49444 0.92779 0.0
N2682 N 0.36535 0.51276 0.92307 0.0
N2683 N 0.35897 0.48038 0.92416 0.0
C2684 C 0.34643 0.49038 0.91857 0.0
C2685 C 0.34987 0.50797 0.91799 0.0
C2686 C 0.49154 0.32616 0.90736 0.0
C2687 C 0.48356 0.34036 0.91414 0.0
C2688 C 0.50887 0.324 0.90863 0.0
C2689 C 0.51892 0.3361 0.91637 0.0
H2690 H 0.48422 0.31595 0.90228 0.0
H2691 H 0.51427 0.31223 0.90464 0.0
S2692 S 0.5049 0.37668 0.93365 0.0
N2693 N 0.48752 0.36767 0.92702 0.0
N2694 N 0.52021 0.36357 0.92912 0.0
C2695 C 0.51147 0.35109 0.92161 0.0
C2696 C 0.49374 0.35329 0.92046 0.0
C2697 C 0.69267 0.50308 0.91775 0.0
C2698 C 0.67979 0.51502 0.91805 0.0
C2699 C 0.68919 0.48595 0.91722 0.0
C2700 C 0.67264 0.47993 0.91716 0.0
H2701 H 0.70563 0.50695 0.91858 0.0
H2702 H 0.69966 0.47736 0.91769 0.0
S2703 S 0.63432 0.50615 0.91582 0.0
N2704 N 0.64981 0.5198 0.91657 0.0
N2705 N 0.64317 0.48748 0.91578 0.0
C2706 C 0.6596 0.49177 0.91625 0.0
C2707 C 0.6632 0.50934 0.91666 0.0
C2708 C 0.51256 0.34803 0.08233 0.0
C2709 C 0.52432 0.33536 0.08584 0.0
C2710 C 0.49531 0.34447 0.08173 0.0
C2711 C 0.48935 0.32815 0.0845 0.0
H2712 H 0.51675 0.36042 0.0788 0.0
H2713 H 0.48676 0.35423 0.07781 0.0
S2714 S 0.51449 0.29148 0.09759 0.0
N2715 N 0.52833 0.30656 0.09491 0.0
N2716 N 0.49614 0.29992 0.09329 0.0
C2717 C 0.50079 0.31583 0.08951 0.0
C2718 C 0.51822 0.31945 0.09034 0.0
C2719 C 0.65152 0.51326 0.07467 0.0
C2720 C 0.66216 0.52253 0.0852 0.0
C2721 C 0.65347 0.49589 0.07291 0.0
C2722 C 0.66576 0.4872 0.08196 0.0
H2723 H 0.64281 0.51962 0.06648 0.0
H2724 H 0.64616 0.48943 0.06351 0.0
S2725 S 0.69479 0.50511 0.11322 0.0
N2726 N 0.68402 0.52134 0.10632 0.0
N2727 N 0.68733 0.48865 0.1032 0.0
C2728 C 0.67527 0.496 0.09375 0.0
C2729 C 0.6735 0.5137 0.09538 0.0
C2730 C 0.49447 0.65093 0.08048 0.0
C2731 C 0.48405 0.66287 0.08821 0.0
C2732 C 0.51184 0.6535 0.07936 0.0
C2733 C 0.51923 0.66798 0.08606 0.0
H2734 H 0.48905 0.64049 0.07376 0.0
H2735 H 0.51924 0.64497 0.07187 0.0
S2736 S 0.49809 0.70102 0.11059 0.0
N2737 N 0.48291 0.68812 0.10516 0.0
N2738 N 0.51541 0.69297 0.10275 0.0
C2739 C 0.50926 0.67894 0.09539 0.0
C2740 C 0.49169 0.67632 0.09662 0.0
C2741 C 0.32323 0.48957 0.0942 0.0
C2742 C 0.33816 0.48266 0.08784 0.0
C2743 C 0.3202 0.50678 0.09362 0.0
C2744 C 0.33214 0.51785 0.0871 0.0
H2745 H 0.31317 0.48152 0.0984 0.0
H2746 H 0.30798 0.51134 0.0973 0.0
S2747 S 0.37444 0.5068 0.07183 0.0
N2748 N 0.36594 0.48866 0.07691 0.0
N2749 N 0.3603 0.52119 0.0763 0.0
C2750 C 0.34784 0.51146 0.08252 0.0
C2751 C 0.35087 0.4938 0.08284 0.0
C2752 C 0.92093 0.51048 0.65609 0.0
C2753 C 0.91771 0.52188 0.66917 0.0
C2754 C 0.92148 0.49312 0.65909 0.0
C2755 C 0.91895 0.48669 0.67526 0.0
H2756 H 0.92423 0.51502 0.64377 0.0
H2757 H 0.92516 0.48485 0.64901 0.0
S2758 S 0.90677 0.5107 0.71295 0.0
N2759 N 0.90921 0.52501 0.69827 0.0
N2760 N 0.91081 0.49262 0.70385 0.0
C2761 C 0.91429 0.49776 0.68802 0.0
C2762 C 0.91348 0.5153 0.68498 0.0
C2763 C 0.51053 0.91982 0.66102 0.0
C2764 C 0.51632 0.91681 0.67736 0.0
C2765 C 0.49332 0.9192 0.65728 0.0
C2766 C 0.48145 0.91544 0.66977 0.0
H2767 H 0.51915 0.92397 0.65144 0.0
H2768 H 0.48925 0.92294 0.64492 0.0
S2769 S 0.49087 0.90295 0.71351 0.0
N2770 N 0.50928 0.90747 0.70535 0.0
N2771 N 0.47717 0.90584 0.69835 0.0
C2772 C 0.4874 0.91067 0.68565 0.0
C2773 C 0.50478 0.91151 0.68946 0.0
C2774 C 0.08547 0.50568 0.68881 0.0
C2775 C 0.08365 0.51718 0.67568 0.0
C2776 C 0.08625 0.48849 0.68575 0.0
C2777 C 0.08487 0.48196 0.66943 0.0
H2778 H 0.08559 0.50996 0.70166 0.0
H2779 H 0.08698 0.48024 0.69648 0.0
S2780 S 0.08193 0.5071 0.63049 0.0
N2781 N 0.08226 0.52117 0.64562 0.0
N2782 N 0.08331 0.48869 0.63976 0.0
C2783 C 0.08428 0.49343 0.65604 0.0
C2784 C 0.08374 0.51108 0.6592 0.0
C2785 C 0.49583 0.09331 0.68031 0.0
C2786 C 0.4859 0.08522 0.66835 0.0
C2787 C 0.51311 0.09494 0.67805 0.0
C2788 C 0.5212 0.08814 0.66391 0.0
H2789 H 0.49039 0.09732 0.69205 0.0
H2790 H 0.52036 0.10029 0.68818 0.0
S2791 S 0.50008 0.06792 0.62784 0.0
N2792 N 0.48474 0.07222 0.64099 0.0
N2793 N 0.51736 0.07496 0.63672 0.0
C2794 C 0.51108 0.0815 0.65109 0.0
C2795 C 0.49339 0.08001 0.65337 0.0
C2796 C 0.91749 0.49317 0.34628 0.0
C2797 C 0.91616 0.48213 0.33258 0.0
C2798 C 0.91863 0.51058 0.34386 0.0
C2799 C 0.9186 0.51742 0.32768 0.0
H2800 H 0.9188 0.48832 0.35886 0.0
H2801 H 0.92078 0.51858 0.35459 0.0
S2802 S 0.91209 0.49451 0.28796 0.0
N2803 N 0.91217 0.47981 0.30245 0.0
N2804 N 0.91486 0.51231 0.29804 0.0
C2805 C 0.91586 0.50673 0.31407 0.0
C2806 C 0.91446 0.48913 0.31648 0.0
C2807 C 0.49377 0.92121 0.34617 0.0
C2808 C 0.48709 0.92052 0.32994 0.0
C2809 C 0.51118 0.92039 0.34878 0.0
C2810 C 0.52236 0.91877 0.33522 0.0
H2811 H 0.48566 0.92362 0.35675 0.0
H2812 H 0.5159 0.9222 0.36135 0.0
S2813 S 0.51044 0.91302 0.29066 0.0
N2814 N 0.49251 0.91587 0.30049 0.0
N2815 N 0.525 0.9138 0.30527 0.0
C2816 C 0.51552 0.91642 0.31914 0.0
C2817 C 0.49793 0.91748 0.31652 0.0
C2818 C 0.08135 0.51177 0.34222 0.0
C2819 C 0.08205 0.52324 0.32883 0.0
C2820 C 0.08066 0.4944 0.3393 0.0
C2821 C 0.08052 0.48799 0.32293 0.0
H2822 H 0.0803 0.51622 0.35496 0.0
H2823 H 0.0791 0.48605 0.34986 0.0
S2824 S 0.08544 0.51228 0.28377 0.0
N2825 N 0.08519 0.52654 0.29869 0.0
N2826 N 0.08343 0.49412 0.29337 0.0
C2827 C 0.08255 0.49919 0.30958 0.0
C2828 C 0.08347 0.51675 0.31249 0.0
C2829 C 0.50983 0.0831 0.34106 0.0
C2830 C 0.51628 0.08296 0.32471 0.0
C2831 C 0.49245 0.08345 0.34391 0.0
C2832 C 0.48101 0.0838 0.33048 0.0
H2833 H 0.51817 0.08183 0.35165 0.0
H2834 H 0.48799 0.08245 0.35665 0.0
S2835 S 0.49203 0.08701 0.28543 0.0
N2836 N 0.51019 0.08549 0.2951 0.0
N2837 N 0.47773 0.08658 0.3003 0.0
C2838 C 0.48751 0.08519 0.31415 0.0
C2839 C 0.5051 0.08463 0.3113 0.0
C2840 C 0.65539 0.92366 0.49488 0.0
C2841 C 0.671 0.92028 0.48756 0.0
C2842 C 0.65313 0.92231 0.5123 0.0
C2843 C 0.66645 0.91757 0.52284 0.0
H2844 H 0.64529 0.9286 0.48732 0.0
H2845 H 0.64132 0.92629 0.51761 0.0
S2846 S 0.70877 0.90432 0.50902 0.0
N2847 N 0.69917 0.90992 0.49162 0.0
N2848 N 0.69498 0.90696 0.52415 0.0
C2849 C 0.68158 0.91259 0.51531 0.0
C2850 C 0.68387 0.91411 0.49771 0.0
C2851 C 0.65578 0.08135 0.51023 0.0
C2852 C 0.67147 0.08447 0.5175 0.0
C2853 C 0.65348 0.08271 0.49282 0.0
C2854 C 0.66685 0.08722 0.48222 0.0
H2855 H 0.64562 0.07661 0.51784 0.0
H2856 H 0.64159 0.07894 0.48756 0.0
S2857 S 0.70944 0.09975 0.49589 0.0
N2858 N 0.69981 0.09433 0.51332 0.0
N2859 N 0.69555 0.09732 0.48081 0.0
C2860 C 0.68209 0.09193 0.4897 0.0
C2861 C 0.68441 0.09039 0.50729 0.0
C2862 C 0.91456 0.68316 0.48829 0.0
C2863 C 0.91662 0.66696 0.48164 0.0
C2864 C 0.91568 0.68615 0.50546 0.0
C2865 C 0.91851 0.67307 0.51679 0.0
H2866 H 0.91316 0.69387 0.48011 0.0
H2867 H 0.91519 0.69898 0.50983 0.0
S2868 S 0.92208 0.62806 0.50641 0.0
N2869 N 0.91971 0.63735 0.48811 0.0
N2870 N 0.9214 0.64309 0.52058 0.0
C2871 C 0.91894 0.65662 0.51062 0.0
C2872 C 0.91805 0.65353 0.49299 0.0
C2873 C 0.31749 0.91908 0.48859 0.0
C2874 C 0.33389 0.91872 0.48212 0.0
C2875 C 0.31448 0.92034 0.50575 0.0
C2876 C 0.32768 0.92096 0.5173 0.0
H2877 H 0.30678 0.91933 0.48029 0.0
H2878 H 0.30165 0.92153 0.50997 0.0
S2879 S 0.37285 0.91805 0.50739 0.0
N2880 N 0.36354 0.91739 0.48896 0.0
N2881 N 0.35772 0.91939 0.5214 0.0
C2882 C 0.34409 0.91916 0.51127 0.0
C2883 C 0.34723 0.9181 0.49364 0.0
C2884 C 0.07877 0.31699 0.50428 0.0
C2885 C 0.07859 0.33051 0.51544 0.0
C2886 C 0.08018 0.31948 0.48705 0.0
C2887 C 0.08107 0.33568 0.48012 0.0
H2888 H 0.07719 0.30433 0.50886 0.0
H2889 H 0.07965 0.30853 0.47909 0.0
S2890 S 0.08285 0.37529 0.50433 0.0
N2891 N 0.08103 0.36059 0.51874 0.0
N2892 N 0.08324 0.36547 0.48615 0.0
C2893 C 0.082 0.34932 0.49127 0.0
C2894 C 0.08084 0.3467 0.50898 0.0
C2895 C 0.34979 0.08433 0.51199 0.0
C2896 C 0.33613 0.08706 0.52283 0.0
C2897 C 0.34742 0.08288 0.49459 0.0
C2898 C 0.33135 0.08407 0.48758 0.0
H2899 H 0.36214 0.08203 0.51703 0.0
H2900 H 0.35798 0.07954 0.48679 0.0
S2901 S 0.2921 0.09435 0.50986 0.0
N2902 N 0.30642 0.09357 0.52471 0.0
N2903 N 0.30207 0.0903 0.49225 0.0
C2904 C 0.31793 0.08824 0.49803 0.0
C2905 C 0.32031 0.08994 0.5156 0.0
C2906 C 0.92448 0.31526 0.49743 0.0
C2907 C 0.92224 0.32855 0.48618 0.0
C2908 C 0.92313 0.31765 0.51468 0.0
C2909 C 0.91981 0.33354 0.52156 0.0
H2910 H 0.9278 0.30293 0.49289 0.0
H2911 H 0.92554 0.30698 0.52268 0.0
S2912 S 0.91126 0.3722 0.49724 0.0
N2913 N 0.91505 0.35786 0.48285 0.0
N2914 N 0.91286 0.36258 0.51545 0.0
C2915 C 0.91656 0.3468 0.51037 0.0
C2916 C 0.9177 0.34425 0.49265 0.0
C2917 C 0.08912 0.6844 0.49622 0.0
C2918 C 0.08465 0.67095 0.48591 0.0
C2919 C 0.09078 0.68236 0.51351 0.0
C2920 C 0.08753 0.66686 0.52129 0.0
H2921 H 0.09041 0.69684 0.49099 0.0
H2922 H 0.09338 0.6934 0.52093 0.0
S2923 S 0.07763 0.62718 0.49925 0.0
N2924 N 0.07898 0.64121 0.48414 0.0
N2925 N 0.08162 0.63729 0.51683 0.0
C2926 C 0.08449 0.65294 0.51087 0.0
C2927 C 0.08308 0.65503 0.49312 0.0
C2928 C 0.09302 0.18038 0.50828 0.0
C2929 C 0.08199 0.17154 0.51874 0.0
C2930 C 0.09285 0.17802 0.49091 0.0
C2931 C 0.0819 0.16649 0.48335 0.0
H2932 H 0.10136 0.18971 0.51345 0.0
H2933 H 0.10112 0.1856 0.4833 0.0
S2934 S 0.05172 0.13897 0.50542 0.0
N2935 N 0.06061 0.14998 0.52045 0.0
N2936 N 0.06051 0.14532 0.48785 0.0
C2937 C 0.07144 0.15691 0.49377 0.0
C2938 C 0.07141 0.15951 0.51144 0.0
C2939 C 0.84587 0.07242 0.49417 0.0
C2940 C 0.83804 0.08423 0.48375 0.0
C2941 C 0.84323 0.07251 0.5115 0.0
C2942 C 0.83291 0.08458 0.51911 0.0
H2943 H 0.85335 0.06247 0.48884 0.0
H2944 H 0.84901 0.06276 0.51893 0.0
S2945 S 0.81112 0.11944 0.49752 0.0
N2946 N 0.82065 0.10913 0.48238 0.0
N2947 N 0.81592 0.10949 0.51497 0.0
C2948 C 0.82586 0.0971 0.50894 0.0
C2949 C 0.82836 0.09685 0.49126 0.0
C2950 C 0.90775 0.82483 0.51217 0.0
C2951 C 0.91962 0.83297 0.52227 0.0
C2952 C 0.90753 0.82715 0.49479 0.0
C2953 C 0.91897 0.83794 0.48686 0.0
H2954 H 0.89905 0.81598 0.51761 0.0
H2955 H 0.89865 0.82001 0.48746 0.0
S2956 S 0.95122 0.86384 0.508 0.0
N2957 N 0.94215 0.85337 0.52331 0.0
N2958 N 0.9416 0.85795 0.49072 0.0
C2959 C 0.93021 0.84699 0.49696 0.0
C2960 C 0.93059 0.84442 0.51463 0.0
C2961 C 0.16144 0.93602 0.49408 0.0
C2962 C 0.16876 0.92401 0.48352 0.0
C2963 C 0.16447 0.9359 0.51136 0.0
C2964 C 0.17461 0.92355 0.51874 0.0
H2965 H 0.1539 0.946 0.48889 0.0
H2966 H 0.15891 0.94563 0.51897 0.0
S2967 S 0.19569 0.8886 0.49664 0.0
N2968 N 0.186 0.89905 0.4817 0.0
N2969 N 0.19133 0.89853 0.51421 0.0
C2970 C 0.18143 0.91106 0.50839 0.0
C2971 C 0.17861 0.91138 0.49077 0.0
C2972 C 0.09373 0.82267 0.49531 0.0
C2973 C 0.08441 0.83259 0.48418 0.0
C2974 C 0.09238 0.82487 0.51265 0.0
C2975 C 0.0819 0.83726 0.51952 0.0
H2976 H 0.10147 0.81258 0.49064 0.0
H2977 H 0.09928 0.81648 0.52074 0.0
S2978 S 0.05643 0.86782 0.49559 0.0
N2979 N 0.06543 0.85615 0.48113 0.0
N2980 N 0.06311 0.86048 0.51369 0.0
C2981 C 0.07333 0.84795 0.50847 0.0
C2982 C 0.07452 0.84554 0.49082 0.0
C2983 C 0.18033 0.09165 0.49476 0.0
C2984 C 0.17185 0.08057 0.48405 0.0
C2985 C 0.17766 0.09129 0.51207 0.0
C2986 C 0.16618 0.08009 0.51933 0.0
H2987 H 0.18962 0.10018 0.48983 0.0
H2988 H 0.18498 0.09961 0.51988 0.0
S2989 S 0.1395 0.04971 0.49654 0.0
N2990 N 0.15063 0.0589 0.48177 0.0
N2991 N 0.14541 0.05843 0.51429 0.0
C2992 C 0.15693 0.06959 0.50866 0.0
C2993 C 0.15985 0.06976 0.49104 0.0
C2994 C 0.9403 0.18276 0.51025 0.0
C2995 C 0.92954 0.17166 0.51861 0.0
C2996 C 0.93975 0.18449 0.49285 0.0
C2997 C 0.92807 0.17556 0.48322 0.0
H2998 H 0.94937 0.19004 0.5172 0.0
H2999 H 0.94835 0.19313 0.48692 0.0
S3000 S 0.897 0.14504 0.49911 0.0
N3001 N 0.907 0.15144 0.51602 0.0
N3002 N 0.90548 0.15522 0.48325 0.0
C3003 C 0.91711 0.16453 0.49141 0.0
C3004 C 0.918 0.16241 0.50914 0.0
C3005 C 0.82549 0.90937 0.49487 0.0
C3006 C 0.83372 0.92089 0.48444 0.0
C3007 C 0.8278 0.90965 0.51224 0.0
C3008 C 0.83866 0.92126 0.51983 0.0
H3009 H 0.81656 0.9006 0.48969 0.0
H3010 H 0.82059 0.90105 0.51982 0.0
S3011 S 0.86477 0.95269 0.49781 0.0
N3012 N 0.85426 0.94326 0.48276 0.0
N3013 N 0.85881 0.94362 0.51537 0.0
C3014 C 0.8478 0.93211 0.50943 0.0
C3015 C 0.84525 0.932 0.49175 0.0
C3016 C 0.49196 0.0641 0.18606 0.0
C3017 C 0.48368 0.07347 0.17369 0.0
C3018 C 0.50939 0.06471 0.18775 0.0
C3019 C 0.51912 0.0751 0.17744 0.0
H3020 H 0.48493 0.05606 0.1944 0.0
H3021 H 0.51526 0.05726 0.19743 0.0
S3022 S 0.5035 0.10219 0.14316 0.0
N3023 N 0.48651 0.09326 0.15079 0.0
N3024 N 0.51926 0.09488 0.15434 0.0
C3025 C 0.511 0.08461 0.16506 0.0
C3026 C 0.49328 0.08366 0.16307 0.0
C3027 C 0.91715 0.49512 0.16139 0.0
C3028 C 0.92862 0.48537 0.17046 0.0
C3029 C 0.91638 0.51254 0.16364 0.0
C3030 C 0.92744 0.52074 0.17461 0.0
H3031 H 0.90849 0.4892 0.15281 0.0
H3032 H 0.90723 0.51967 0.15663 0.0
S3033 S 0.96008 0.5008 0.20083 0.0
N3034 N 0.95128 0.48511 0.19071 0.0
N3035 N 0.95026 0.51781 0.19446 0.0
C3036 C 0.93916 0.51111 0.18347 0.0
C3037 C 0.93963 0.49342 0.18152 0.0
C3038 C 0.49467 0.93905 0.18373 0.0
C3039 C 0.48503 0.92729 0.17493 0.0
C3040 C 0.51207 0.93956 0.18198 0.0
C3041 C 0.52039 0.92867 0.17098 0.0
H3042 H 0.48875 0.94772 0.19231 0.0
H3043 H 0.51905 0.94865 0.1892 0.0
S3044 S 0.50084 0.89595 0.14465 0.0
N3045 N 0.485 0.90453 0.15478 0.0
N3046 N 0.51778 0.90599 0.15094 0.0
C3047 C 0.51091 0.91708 0.16182 0.0
C3048 C 0.49319 0.91623 0.16397 0.0
C3049 C 0.06476 0.51062 0.16215 0.0
C3050 C 0.0761 0.52121 0.17043 0.0
C3051 C 0.06514 0.49325 0.16464 0.0
C3052 C 0.07716 0.48585 0.17513 0.0
H3053 H 0.0552 0.51583 0.15409 0.0
H3054 H 0.05602 0.48555 0.15822 0.0
S3055 S 0.11005 0.50807 0.19916 0.0
N3056 N 0.09982 0.52308 0.18934 0.0
N3057 N 0.10089 0.49041 0.19359 0.0
C3058 C 0.08883 0.49628 0.18314 0.0
C3059 C 0.0882 0.51397 0.18091 0.0
C3060 C 0.49521 0.93518 0.84319 0.0
C3061 C 0.48462 0.92276 0.83665 0.0
C3062 C 0.51247 0.93491 0.84005 0.0
C3063 C 0.51981 0.92201 0.83058 0.0
H3064 H 0.49005 0.94559 0.85017 0.0
H3065 H 0.5201 0.94495 0.845 0.0
S3066 S 0.49761 0.88588 0.81169 0.0
N3067 N 0.48273 0.89684 0.82089 0.0
N3068 N 0.51518 0.89607 0.81535 0.0
C3069 C 0.50942 0.90914 0.82456 0.0
C3070 C 0.49182 0.90959 0.8275 0.0
C3071 C 0.06794 0.51042 0.83756 0.0
C3072 C 0.08117 0.51751 0.82836 0.0
C3073 C 0.0672 0.49315 0.84058 0.0
C3074 C 0.07949 0.48231 0.8342 0.0
H3075 H 0.05801 0.51827 0.84239 0.0
H3076 H 0.05657 0.4882 0.84736 0.0
S3077 S 0.11705 0.49458 0.80988 0.0
N3078 N 0.10721 0.51237 0.81349 0.0
N3079 N 0.1056 0.47991 0.81883 0.0
C3080 C 0.09297 0.48926 0.8253 0.0
C3081 C 0.09387 0.50686 0.82248 0.0
C3082 C 0.49513 0.09219 0.82788 0.0
C3083 C 0.4846 0.08026 0.83536 0.0
C3084 C 0.51244 0.09186 0.8305 0.0
C3085 C 0.51988 0.0798 0.84096 0.0
H3086 H 0.49008 0.10138 0.81929 0.0
H3087 H 0.52012 0.10084 0.82386 0.0
S3088 S 0.49755 0.04706 0.86511 0.0
N3089 N 0.48264 0.05693 0.85478 0.0
N3090 N 0.51517 0.05648 0.85992 0.0
C3091 C 0.50937 0.06847 0.84936 0.0
C3092 C 0.49175 0.06864 0.84648 0.0
C3093 C 0.91205 0.49481 0.82494 0.0
C3094 C 0.92443 0.48375 0.83075 0.0
C3095 C 0.91317 0.51203 0.82795 0.0
C3096 C 0.92648 0.51882 0.83723 0.0
H3097 H 0.90169 0.49021 0.81751 0.0
H3098 H 0.90366 0.52014 0.82271 0.0
S3099 S 0.96147 0.49508 0.85631 0.0
N3100 N 0.95003 0.4807 0.8469 0.0
N3101 N 0.95191 0.51306 0.85287 0.0
C3102 C 0.93856 0.50783 0.84374 0.0
C3103 C 0.93761 0.49031 0.84039 0.0
C3104 C 0.1762 0.49202 0.0903 0.0
C3105 C 0.16705 0.48524 0.07688 0.0
C3106 C 0.17949 0.5092 0.0913 0.0
C3107 C 0.17409 0.52023 0.07871 0.0
H3108 H 0.18111 0.48393 0.1 0.0
H3109 H 0.18678 0.51379 0.10176 0.0
S3110 S 0.14901 0.50894 0.04131 0.0
N3111 N 0.15199 0.491 0.05111 0.0
N3112 N 0.15845 0.52327 0.05279 0.0
C3113 C 0.16459 0.51369 0.06541 0.0
C3114 C 0.16096 0.49621 0.06457 0.0
C3115 C 0.17896 0.49404 0.91224 0.0
C3116 C 0.17313 0.48294 0.92457 0.0
C3117 C 0.17587 0.51126 0.91338 0.0
C3118 C 0.16647 0.51799 0.92665 0.0
H3119 H 0.18643 0.48947 0.9019 0.0
H3120 H 0.1811 0.51941 0.9039 0.0
S3121 S 0.14739 0.49412 0.96154 0.0
N3122 N 0.15692 0.47979 0.95012 0.0
N3123 N 0.15078 0.51213 0.95202 0.0
C3124 C 0.15999 0.50696 0.9387 0.0
C3125 C 0.16343 0.48945 0.93774 0.0
C3126 C 0.49405 0.15718 0.93281 0.0
C3127 C 0.48346 0.1641 0.92061 0.0
C3128 C 0.51131 0.16022 0.93255 0.0
C3129 C 0.51869 0.17005 0.91993 0.0
H3130 H 0.48889 0.15015 0.94318 0.0
H3131 H 0.51887 0.15516 0.94259 0.0
S3132 S 0.49659 0.18926 0.88389 0.0
N3133 N 0.48168 0.17999 0.89475 0.0
N3134 N 0.51414 0.18547 0.89408 0.0
C3135 C 0.50835 0.17612 0.90705 0.0
C3136 C 0.49074 0.17321 0.90744 0.0
C3137 C 0.81367 0.51027 0.93792 0.0
C3138 C 0.82399 0.51978 0.92734 0.0
C3139 C 0.8153 0.49284 0.93888 0.0
C3140 C 0.82761 0.48433 0.92963 0.0
H3141 H 0.80409 0.5163 0.94537 0.0
H3142 H 0.80702 0.48601 0.94715 0.0
S3143 S 0.858 0.5035 0.90029 0.0
N3144 N 0.84694 0.51944 0.90739 0.0
N3145 N 0.85033 0.48671 0.90957 0.0
C3146 C 0.83814 0.49371 0.91913 0.0
C3147 C 0.83623 0.51142 0.91787 0.0
C3148 C 0.49402 0.8134 0.9411 0.0
C3149 C 0.48434 0.82317 0.93016 0.0
C3150 C 0.51139 0.81548 0.9421 0.0
C3151 C 0.51967 0.82771 0.93253 0.0
H3152 H 0.48818 0.80384 0.94873 0.0
H3153 H 0.51838 0.80751 0.95054 0.0
S3154 S 0.49994 0.85693 0.90239 0.0
N3155 N 0.48424 0.84568 0.9097 0.0
N3156 N 0.51685 0.8499 0.91194 0.0
C3157 C 0.5101 0.8378 0.92178 0.0
C3158 C 0.49245 0.83543 0.92048 0.0
C3159 C 0.8276 0.49707 0.09293 0.0
C3160 C 0.83571 0.48642 0.08153 0.0
C3161 C 0.83011 0.5144 0.09247 0.0
C3162 C 0.841 0.52177 0.08076 0.0
H3163 H 0.81861 0.49211 0.10176 0.0
H3164 H 0.82298 0.52213 0.10101 0.0
S3165 S 0.86701 0.49915 0.04967 0.0
N3166 N 0.85634 0.4843 0.05926 0.0
N3167 N 0.86117 0.51687 0.05851 0.0
C3168 C 0.85008 0.51116 0.07005 0.0
C3169 C 0.84737 0.4935 0.07039 0.0
C3170 C 0.49615 0.84731 0.07064 0.0
C3171 C 0.48554 0.83957 0.08233 0.0
C3172 C 0.51349 0.84473 0.07108 0.0
C3173 C 0.52093 0.83452 0.08338 0.0
H3174 H 0.49097 0.85471 0.06055 0.0
H3175 H 0.52108 0.85045 0.06142 0.0
S3176 S 0.49874 0.81308 0.11808 0.0
N3177 N 0.48378 0.82245 0.10739 0.0
N3178 N 0.51634 0.81778 0.10839 0.0
C3179 C 0.51053 0.82756 0.09576 0.0
C3180 C 0.49286 0.83003 0.09517 0.0
C3181 C 0.5086 0.16291 0.06753 0.0
C3182 C 0.51931 0.16889 0.08013 0.0
C3183 C 0.49137 0.16619 0.068 0.0
C3184 C 0.48418 0.17526 0.08127 0.0
H3185 H 0.51364 0.15629 0.05684 0.0
H3186 H 0.48366 0.1617 0.05781 0.0
S3187 S 0.50672 0.19253 0.118 0.0
N3188 N 0.52146 0.18362 0.10662 0.0
N3189 N 0.48906 0.18943 0.10775 0.0
C3190 C 0.49468 0.18068 0.09431 0.0
C3191 C 0.51225 0.17759 0.09367 0.0
C3192 C 0.5636 0.6831 0.99001 0.0
C3193 C 0.57452 0.67237 0.98137 0.0
C3194 C 0.5644 0.68465 0.00742 0.0
C3195 C 0.5765 0.67594 0.01672 0.0
H3196 H 0.55428 0.69024 0.98325 0.0
H3197 H 0.55572 0.69301 0.01361 0.0
S3198 S 0.60804 0.64637 1.00003 0.0
N3199 N 0.59758 0.65268 0.98336 0.0
N3200 N 0.59958 0.65618 0.01613 0.0
C3201 C 0.58757 0.66525 0.00825 0.0
C3202 C 0.58643 0.66329 0.99054 0.0
C3203 C 0.33995 0.58314 0.01074 0.0
C3204 C 0.3276 0.5736 0.01892 0.0
C3205 C 0.34268 0.58155 0.99346 0.0
C3206 C 0.3328 0.57073 0.98377 0.0
H3207 H 0.34763 0.59181 0.01777 0.0
H3208 H 0.35222 0.58916 0.98759 0.0
S3209 S 0.29897 0.54296 0.99915 0.0
N3210 N 0.30572 0.55272 0.01605 0.0
N3211 N 0.31043 0.55015 0.98355 0.0
C3212 C 0.32047 0.56111 0.9918 0.0
C3213 C 0.31798 0.56243 0.00939 0.0
C3214 C 0.44041 0.31678 0.00858 0.0
C3215 C 0.42983 0.3268 0.0184 0.0
C3216 C 0.44105 0.31869 0.99119 0.0
C3217 C 0.43148 0.33099 0.98301 0.0
H3218 H 0.44802 0.30716 0.01434 0.0
H3219 H 0.44924 0.31056 0.98409 0.0
S3220 S 0.40221 0.36081 0.0031 0.0
N3221 N 0.40967 0.34958 0.01875 0.0
N3222 N 0.4113 0.35351 0.98605 0.0
C3223 C 0.42109 0.34132 0.9927 0.0
C3224 C 0.42014 0.33912 0.0104 0.0
C3225 C 0.67634 0.41145 0.00742 0.0
C3226 C 0.66794 0.4229 0.01778 0.0
C3227 C 0.67403 0.41161 0.99006 0.0
C3228 C 0.66306 0.42305 0.98238 0.0
H3229 H 0.68539 0.40282 0.01263 0.0
H3230 H 0.68137 0.40304 0.98255 0.0
S3231 S 0.6364 0.45416 0.00419 0.0
N3232 N 0.64701 0.44494 0.01931 0.0
N3233 N 0.64256 0.44511 0.98669 0.0
C3234 C 0.65373 0.43381 0.9927 0.0
C3235 C 0.65623 0.43379 0.0104 0.0
C3236 C 0.59129 0.32636 0.01075 0.0
C3237 C 0.58016 0.33783 0.01816 0.0
C3238 C 0.59186 0.32417 0.99337 0.0
C3239 C 0.58107 0.33309 0.98274 0.0
H3240 H 0.59942 0.31876 0.01848 0.0
H3241 H 0.60035 0.31491 0.9883 0.0
S3242 S 0.55036 0.36541 0.99567 0.0
N3243 N 0.55878 0.35894 0.01337 0.0
N3244 N 0.55963 0.35457 0.98074 0.0
C3245 C 0.57027 0.34499 0.98991 0.0
C3246 C 0.56989 0.34744 0.0076 0.0
C3247 C 0.66987 0.58583 0.99053 0.0
C3248 C 0.68174 0.57573 0.98235 0.0
C3249 C 0.66752 0.58483 0.00789 0.0
C3250 C 0.67728 0.574 0.01774 0.0
H3251 H 0.66214 0.5944 0.98343 0.0
H3252 H 0.65817 0.59275 0.01367 0.0
S3253 S 0.71021 0.54508 0.00243 0.0
N3254 N 0.70332 0.55453 0.98542 0.0
N3255 N 0.69924 0.55296 0.01805 0.0
C3256 C 0.6893 0.56396 0.00973 0.0
C3257 C 0.69144 0.56473 0.99204 0.0
C3258 C 0.44183 0.68413 0.00946 0.0
C3259 C 0.43261 0.67169 0.01782 0.0
C3260 C 0.44088 0.68599 0.99206 0.0
C3261 C 0.4303 0.67577 0.98244 0.0
H3262 H 0.44997 0.69244 0.01641 0.0
H3263 H 0.4482 0.69574 0.98615 0.0
S3264 S 0.40358 0.64128 0.99826 0.0
N3265 N 0.41281 0.64878 0.01514 0.0
N3266 N 0.41058 0.65261 0.98247 0.0
C3267 C 0.42099 0.66328 0.99063 0.0
C3268 C 0.42227 0.66113 0.00831 0.0
C3269 C 0.31604 0.43817 0.99237 0.0
C3270 C 0.32597 0.4274 0.98267 0.0
C3271 C 0.31827 0.43932 0.0097 0.0
C3272 C 0.33086 0.43014 0.01789 0.0
H3273 H 0.30622 0.44549 0.98657 0.0
H3274 H 0.31016 0.44758 0.01674 0.0
S3275 S 0.36064 0.40067 0.99806 0.0
N3276 N 0.34899 0.40752 0.98243 0.0
N3277 N 0.35358 0.41018 0.01499 0.0
C3278 C 0.34114 0.41962 0.0083 0.0
C3279 C 0.33858 0.41811 0.99069 0.0
C3280 C 0.99574 0.56693 0.6629 0.0
C3281 C 0.98486 0.57888 0.66982 0.0
C3282 C 0.01301 0.56762 0.66592 0.0
C3283 C 0.02004 0.58051 0.67562 0.0
H3284 H 0.99082 0.5566 0.65565 0.0
H3285 H 0.0209 0.55794 0.66067 0.0
S3286 S 0.99698 0.61543 0.69568 0.0
N3287 N 0.98234 0.60428 0.68632 0.0
N3288 N 0.01482 0.60587 0.69159 0.0
C3289 C 0.00935 0.59289 0.68208 0.0
C3290 C 0.99175 0.59198 0.6793 0.0
C3291 C 0.43529 0.01096 0.66171 0.0
C3292 C 0.42356 0.01836 0.67256 0.0
C3293 C 0.43567 0.99361 0.65916 0.0
C3294 C 0.42453 0.98296 0.66763 0.0
H3295 H 0.44446 0.01861 0.6553 0.0
H3296 H 0.44524 0.98847 0.65107 0.0
S3297 S 0.39067 0.99604 0.69654 0.0
N3298 N 0.39986 0.0137 0.69107 0.0
N3299 N 0.40079 0.98109 0.68653 0.0
C3300 C 0.41237 0.99022 0.67808 0.0
C3301 C 0.41182 0.0079 0.68047 0.0
C3302 C 0.00823 0.43689 0.66333 0.0
C3303 C 0.01895 0.42504 0.67069 0.0
C3304 C 0.99093 0.43643 0.66618 0.0
C3305 C 0.98369 0.42384 0.67613 0.0
H3306 H 0.01331 0.44696 0.65582 0.0
H3307 H 0.98316 0.44599 0.66055 0.0
S3308 S 0.00625 0.38939 0.69751 0.0
N3309 N 0.02109 0.40015 0.688 0.0
N3310 N 0.98853 0.39895 0.69292 0.0
C3311 C 0.99422 0.4116 0.6831 0.0
C3312 C 0.01186 0.4123 0.68051 0.0
C3313 C 0.58372 0.99234 0.66793 0.0
C3314 C 0.57387 0.98428 0.68011 0.0
C3315 C 0.58272 0.0097 0.6655 0.0
C3316 C 0.5722 0.01963 0.67548 0.0
H3317 H 0.59214 0.98516 0.66012 0.0
H3318 H 0.5905 0.01542 0.656 0.0
S3319 S 0.54386 0.00462 0.70903 0.0
N3320 N 0.55309 0.98752 0.70205 0.0
N3321 N 0.55157 0.02015 0.69782 0.0
C3322 C 0.56232 0.01172 0.6877 0.0
C3323 C 0.56305 0.99404 0.68992 0.0
C3324 C 0.0063 0.4121 0.32343 0.0
C3325 C 0.01704 0.42489 0.32895 0.0
C3326 C 0.9891 0.41269 0.3267 0.0
C3327 C 0.98203 0.42588 0.33596 0.0
H3328 H 0.01112 0.40183 0.31602 0.0
H3329 H 0.98122 0.4029 0.32164 0.0
S3330 S 0.00494 0.46176 0.35441 0.0
N3331 N 0.01953 0.4507 0.34486 0.0
N3332 N 0.98722 0.45161 0.35132 0.0
C3333 C 0.99273 0.43835 0.34222 0.0
C3334 C 0.01022 0.43793 0.3386 0.0
C3335 C 0.5923 0.00939 0.32472 0.0
C3336 C 0.57975 0.0203 0.33045 0.0
C3337 C 0.59158 0.9922 0.32808 0.0
C3338 C 0.57851 0.98531 0.33765 0.0
H3339 H 0.60247 0.01406 0.31709 0.0
H3340 H 0.60119 0.98419 0.32289 0.0
S3341 S 0.54325 0.0087 0.35666 0.0
N3342 N 0.55428 0.02313 0.34683 0.0
N3343 N 0.55314 0.99086 0.35346 0.0
C3344 C 0.56628 0.99618 0.34408 0.0
C3345 C 0.56682 0.01365 0.34037 0.0
C3346 C 0.98961 0.57056 0.34146 0.0
C3347 C 0.9821 0.58287 0.33135 0.0
C3348 C 0.00696 0.57017 0.34396 0.0
C3349 C 0.0175 0.58191 0.33619 0.0
H3350 H 0.98206 0.56089 0.34722 0.0
H3351 H 0.0122 0.5601 0.35134 0.0
S3352 S 0.00407 0.61753 0.30962 0.0
N3353 N 0.98651 0.60782 0.31449 0.0
N3354 N 0.01912 0.60691 0.31895 0.0
C3355 C 0.01011 0.59471 0.32664 0.0
C3356 C 0.99242 0.59525 0.32428 0.0
C3357 C 0.43369 0.99091 0.34313 0.0
C3358 C 0.42144 0.98348 0.33288 0.0
C3359 C 0.43408 0.00825 0.34576 0.0
C3360 C 0.42241 0.01886 0.338 0.0
H3361 H 0.44331 0.98331 0.3489 0.0
H3362 H 0.44412 0.01343 0.35324 0.0
S3363 S 0.38695 0.00565 0.31111 0.0
N3364 N 0.3966 0.98804 0.31591 0.0
N3365 N 0.39751 0.02062 0.32062 0.0
C3366 C 0.40965 0.01155 0.32832 0.0
C3367 C 0.40911 0.99387 0.32583 0.0
C3368 C 0.66034 0.99438 0.57013 0.0
C3369 C 0.67003 0.98373 0.58022 0.0
C3370 C 0.66254 0.01177 0.5706 0.0
C3371 C 0.67423 0.01918 0.58147 0.0
H3372 H 0.65145 0.98922 0.5613 0.0
H3373 H 0.65513 0.01945 0.56226 0.0
S3374 S 0.70182 0.99685 0.61137 0.0
N3375 N 0.69122 0.98184 0.60194 0.0
N3376 N 0.69506 0.01455 0.60315 0.0
C3377 C 0.68349 0.00871 0.59215 0.0
C3378 C 0.68148 0.99099 0.59143 0.0
C3379 C 0.66217 0.99317 0.43466 0.0
C3380 C 0.67368 0.98568 0.42366 0.0
C3381 C 0.66001 0.01056 0.4351 0.0
C3382 C 0.66958 0.02114 0.42481 0.0
H3383 H 0.65488 0.98554 0.44317 0.0
H3384 H 0.65129 0.01578 0.44405 0.0
S3385 S 0.70079 0.00781 0.39318 0.0
N3386 N 0.69414 0.99017 0.4016 0.0
N3387 N 0.69039 0.02288 0.40272 0.0
C3388 C 0.68081 0.01381 0.41344 0.0
C3389 C 0.68277 0.99608 0.41277 0.0
C3390 C 0.00772 0.67965 0.41272 0.0
C3391 C 0.01842 0.67058 0.42331 0.0
C3392 C 0.99032 0.67761 0.41354 0.0
C3393 C 0.98299 0.66614 0.4247 0.0
H3394 H 0.01275 0.6889 0.4042 0.0
H3395 H 0.98254 0.68531 0.40556 0.0
S3396 S 0.00566 0.63826 0.45407 0.0
N3397 N 0.02055 0.64901 0.44464 0.0
N3398 N 0.98789 0.6449 0.44592 0.0
C3399 C 0.99361 0.6564 0.43479 0.0
C3400 C 0.01131 0.6587 0.43418 0.0
C3401 C 0.32739 0.00841 0.41227 0.0
C3402 C 0.33548 0.01885 0.42388 0.0
C3403 C 0.3295 0.99102 0.41273 0.0
C3404 C 0.34005 0.98341 0.42459 0.0
H3405 H 0.31875 0.01362 0.40323 0.0
H3406 H 0.32245 0.98344 0.40399 0.0
S3407 S 0.3655 0.00536 0.45661 0.0
N3408 N 0.3554 0.02047 0.4468 0.0
N3409 N 0.35961 0.9878 0.44748 0.0
C3410 C 0.34898 0.99378 0.43565 0.0
C3411 C 0.3466 0.01149 0.43536 0.0
C3412 C 0.99005 0.34339 0.43051 0.0
C3413 C 0.98271 0.33242 0.41885 0.0
C3414 C 0.00739 0.34591 0.43097 0.0
C3415 C 0.01809 0.3373 0.41999 0.0
H3416 H 0.98236 0.34984 0.43961 0.0
H3417 H 0.01248 0.35403 0.44054 0.0
S3418 S 0.00516 0.3082 0.38623 0.0
N3419 N 0.98746 0.31378 0.39527 0.0
N3420 N 0.02007 0.31826 0.39637 0.0
C3421 C 0.01089 0.32682 0.40783 0.0
C3422 C 0.9932 0.32446 0.40718 0.0
C3423 C 0.32639 0.01348 0.59127 0.0
C3424 C 0.33659 0.02065 0.57885 0.0
C3425 C 0.32371 0.99617 0.59193 0.0
C3426 C 0.33077 0.98544 0.57992 0.0
H3427 H 0.32023 0.02134 0.60042 0.0
H3428 H 0.31557 0.99124 0.60157 0.0
S3429 S 0.359 0.99781 0.54526 0.0
N3430 N 0.3544 0.01558 0.55473 0.0
N3431 N 0.34898 0.98307 0.5557 0.0
C3432 C 0.34128 0.99238 0.56765 0.0
C3433 C 0.34431 0.00997 0.5672 0.0
C3434 C 0.99246 0.3468 0.56966 0.0
C3435 C 0.98187 0.3395 0.58165 0.0
C3436 C 0.00973 0.34387 0.5699 0.0
C3437 C 0.01713 0.33376 0.58227 0.0
H3438 H 0.98729 0.3541 0.5595 0.0
H3439 H 0.01729 0.34928 0.56003 0.0
S3440 S 0.99506 0.31339 0.61768 0.0
N3441 N 0.98012 0.32287 0.60704 0.0
N3442 N 0.01262 0.31758 0.60765 0.0
C3443 C 0.0068 0.32724 0.59494 0.0
C3444 C 0.98917 0.33005 0.59457 0.0
C3445 C 0.9943 0.68212 0.56514 0.0
C3446 C 0.98478 0.67361 0.57721 0.0
C3447 C 0.01164 0.68016 0.56434 0.0
C3448 C 0.02004 0.66923 0.57523 0.0
H3449 H 0.98833 0.69068 0.55649 0.0
H3450 H 0.01855 0.68724 0.55507 0.0
S3451 S 1.00084 0.64354 0.60864 0.0
N3452 N 0.98494 0.65373 0.60021 0.0
N3453 N 0.01765 0.64951 0.5982 0.0
C3454 C 0.01069 0.6603 0.58709 0.0
C3455 C 0.99301 0.66266 0.58823 0.0
loop_
_geom_bond_atom_site_label_1
_geom_bond_atom_site_label_2
_geom_bond_distance
_geom_bond_site_symmetry_2
_ccdc_geom_bond_type
O0 Cd1 2.223 . S
O0 C8 1.315 . S
Cd1 O0 2.223 . S
Cd1 O4 2.297 . S
Cd1 O5 2.439 . S
Cd1 O11 2.240 . S
Cd2 O3 2.240 . S
Cd2 O10 2.223 . S
Cd2 O12 2.297 . S
Cd2 O13 2.439 . S
O3 Cd2 2.240 . S
O3 C8 1.279 . S
O4 Cd1 2.297 . S
O4 C6 1.247 . S
O5 Cd1 2.439 . S
O5 C6 1.208 . S
C6 O4 1.247 . S
C6 O5 1.208 . S
C7 O12 1.247 . S
C7 O13 1.208 . S
C8 O0 1.315 . S
C8 O3 1.279 . S
C9 O10 1.315 . S
C9 O11 1.279 . S
O10 Cd2 2.223 . S
O10 C9 1.315 . S
O11 Cd1 2.240 . S
O11 C9 1.279 . S
O12 Cd2 2.297 . S
O12 C7 1.247 . S
O13 Cd2 2.439 . S
O13 C7 1.208 . S
O14 Cd15 2.223 . S
O14 C22 1.315 . S
Cd15 O14 2.223 . S
Cd15 O18 2.297 . S
Cd15 O19 2.439 . S
Cd15 O25 2.240 . S
Cd16 O17 2.240 . S
Cd16 O24 2.223 . S
Cd16 O26 2.297 . S
Cd16 O27 2.439 . S
O17 Cd16 2.240 . S
O17 C22 1.279 . S
O18 Cd15 2.297 . S
O18 C20 1.247 . S
O19 Cd15 2.439 . S
O19 C20 1.208 . S
C20 O18 1.247 . S
C20 O19 1.208 . S
C21 O26 1.247 . S
C21 O27 1.208 . S
C22 O14 1.315 . S
C22 O17 1.279 . S
C23 O24 1.315 . S
C23 O25 1.279 . S
O24 Cd16 2.223 . S
O24 C23 1.315 . S
O25 Cd15 2.240 . S
O25 C23 1.279 . S
O26 Cd16 2.297 . S
O26 C21 1.247 . S
O27 Cd16 2.439 . S
O27 C21 1.208 . S
O28 Cd29 2.223 . S
O28 C36 1.315 . S
Cd29 O28 2.223 . S
Cd29 O32 2.297 . S
Cd29 O33 2.439 . S
Cd29 O39 2.240 . S
Cd30 O31 2.240 . S
Cd30 O38 2.223 . S
Cd30 O40 2.297 . S
Cd30 O41 2.439 . S
O31 Cd30 2.240 . S
O31 C36 1.279 . S
O32 Cd29 2.297 . S
O32 C34 1.247 . S
O33 Cd29 2.439 . S
O33 C34 1.208 . S
C34 O32 1.247 . S
C34 O33 1.208 . S
C35 O40 1.247 . S
C35 O41 1.208 . S
C36 O28 1.315 . S
C36 O31 1.279 . S
C37 O38 1.315 . S
C37 O39 1.279 . S
O38 Cd30 2.223 . S
O38 C37 1.315 . S
O39 Cd29 2.240 . S
O39 C37 1.279 . S
O40 Cd30 2.297 . S
O40 C35 1.247 . S
O41 Cd30 2.439 . S
O41 C35 1.208 . S
O42 Cd43 2.223 . S
O42 C50 1.315 . S
Cd43 O42 2.223 . S
Cd43 O46 2.297 . S
Cd43 O47 2.439 . S
Cd43 O53 2.240 . S
Cd44 O45 2.240 . S
Cd44 O52 2.223 . S
Cd44 O54 2.297 . S
Cd44 O55 2.439 . S
O45 Cd44 2.240 . S
O45 C50 1.279 . S
O46 Cd43 2.297 . S
O46 C48 1.247 . S
O47 Cd43 2.439 . S
O47 C48 1.208 . S
C48 O46 1.247 . S
C48 O47 1.208 . S
C49 O54 1.247 . S
C49 O55 1.208 . S
C50 O42 1.315 . S
C50 O45 1.279 . S
C51 O52 1.315 . S
C51 O53 1.279 . S
O52 Cd44 2.223 . S
O52 C51 1.315 . S
O53 Cd43 2.240 . S
O53 C51 1.279 . S
O54 Cd44 2.297 . S
O54 C49 1.247 . S
O55 Cd44 2.439 . S
O55 C49 1.208 . S
O56 Cd57 2.223 . S
O56 C64 1.315 . S
Cd57 O56 2.223 . S
Cd57 O60 2.297 . S
Cd57 O61 2.439 . S
Cd57 O67 2.240 . S
Cd58 O59 2.240 . S
Cd58 O66 2.223 . S
Cd58 O68 2.297 . S
Cd58 O69 2.439 . S
O59 Cd58 2.240 . S
O59 C64 1.279 . S
O60 Cd57 2.297 . S
O60 C62 1.247 . S
O61 Cd57 2.439 . S
O61 C62 1.208 . S
C62 O60 1.247 . S
C62 O61 1.208 . S
C63 O68 1.247 . S
C63 O69 1.208 . S
C64 O56 1.315 . S
C64 O59 1.279 . S
C65 O66 1.315 . S
C65 O67 1.279 . S
O66 Cd58 2.223 . S
O66 C65 1.315 . S
O67 Cd57 2.240 . S
O67 C65 1.279 . S
O68 Cd58 2.297 . S
O68 C63 1.247 . S
O69 Cd58 2.439 . S
O69 C63 1.208 . S
O70 Cd71 2.223 . S
O70 C78 1.315 . S
Cd71 O70 2.223 . S
Cd71 O74 2.297 . S
Cd71 O75 2.439 . S
Cd71 O81 2.240 . S
Cd72 O73 2.240 . S
Cd72 O80 2.223 . S
Cd72 O82 2.297 . S
Cd72 O83 2.439 . S
O73 Cd72 2.240 . S
O73 C78 1.279 . S
O74 Cd71 2.297 . S
O74 C76 1.247 . S
O75 Cd71 2.439 . S
O75 C76 1.208 . S
C76 O74 1.247 . S
C76 O75 1.208 . S
C77 O82 1.247 . S
C77 O83 1.208 . S
C78 O70 1.315 . S
C78 O73 1.279 . S
C79 O80 1.315 . S
C79 O81 1.279 . S
O80 Cd72 2.223 . S
O80 C79 1.315 . S
O81 Cd71 2.240 . S
O81 C79 1.279 . S
O82 Cd72 2.297 . S
O82 C77 1.247 . S
O83 Cd72 2.439 . S
O83 C77 1.208 . S
O84 Cd85 2.223 . S
O84 C92 1.315 . S
Cd85 O84 2.223 . S
Cd85 O88 2.297 . S
Cd85 O89 2.439 . S
Cd85 O95 2.240 . S
Cd86 O87 2.240 . S
Cd86 O94 2.223 . S
Cd86 O96 2.297 . S
Cd86 O97 2.439 . S
O87 Cd86 2.240 . S
O87 C92 1.279 . S
O88 Cd85 2.297 . S
O88 C90 1.247 . S
O89 Cd85 2.439 . S
O89 C90 1.208 . S
C90 O88 1.247 . S
C90 O89 1.208 . S
C91 O96 1.247 . S
C91 O97 1.208 . S
C92 O84 1.315 . S
C92 O87 1.279 . S
C93 O94 1.315 . S
C93 O95 1.279 . S
O94 Cd86 2.223 . S
O94 C93 1.315 . S
O95 Cd85 2.240 . S
O95 C93 1.279 . S
O96 Cd86 2.297 . S
O96 C91 1.247 . S
O97 Cd86 2.439 . S
O97 C91 1.208 . S
O98 Cd99 2.223 . S
O98 C106 1.315 . S
Cd99 O98 2.223 . S
Cd99 O102 2.297 . S
Cd99 O103 2.439 . S
Cd99 O109 2.240 . S
Cd100 O101 2.240 . S
Cd100 O108 2.223 . S
Cd100 O110 2.297 . S
Cd100 O111 2.439 . S
O101 Cd100 2.240 . S
O101 C106 1.279 . S
O102 Cd99 2.297 . S
O102 C104 1.247 . S
O103 Cd99 2.439 . S
O103 C104 1.208 . S
C104 O102 1.247 . S
C104 O103 1.208 . S
C105 O110 1.247 . S
C105 O111 1.208 . S
C106 O98 1.315 . S
C106 O101 1.279 . S
C107 O108 1.315 . S
C107 O109 1.279 . S
O108 Cd100 2.223 . S
O108 C107 1.315 . S
O109 Cd99 2.240 . S
O109 C107 1.279 . S
O110 Cd100 2.297 . S
O110 C105 1.247 . S
O111 Cd100 2.439 . S
O111 C105 1.208 . S
O112 Cd113 2.223 . S
O112 C120 1.315 . S
Cd113 O112 2.223 . S
Cd113 O116 2.297 . S
Cd113 O117 2.439 . S
Cd113 O123 2.240 . S
Cd114 O115 2.240 . S
Cd114 O122 2.223 . S
Cd114 O124 2.297 . S
Cd114 O125 2.439 . S
O115 Cd114 2.240 . S
O115 C120 1.279 . S
O116 Cd113 2.297 . S
O116 C118 1.247 . S
O117 Cd113 2.439 . S
O117 C118 1.208 . S
C118 O116 1.247 . S
C118 O117 1.208 . S
C119 O124 1.247 . S
C119 O125 1.208 . S
C120 O112 1.315 . S
C120 O115 1.279 . S
C121 O122 1.315 . S
C121 O123 1.279 . S
O122 Cd114 2.223 . S
O122 C121 1.315 . S
O123 Cd113 2.240 . S
O123 C121 1.279 . S
O124 Cd114 2.297 . S
O124 C119 1.247 . S
O125 Cd114 2.439 . S
O125 C119 1.208 . S
O126 Cd127 2.223 . S
O126 C134 1.315 . S
Cd127 O126 2.223 . S
Cd127 O130 2.297 . S
Cd127 O131 2.439 . S
Cd127 O137 2.240 . S
Cd128 O129 2.240 . S
Cd128 O136 2.223 . S
Cd128 O138 2.297 . S
Cd128 O139 2.439 . S
O129 Cd128 2.240 . S
O129 C134 1.279 . S
O130 Cd127 2.297 . S
O130 C132 1.247 . S
O131 Cd127 2.439 . S
O131 C132 1.208 . S
C132 O130 1.247 . S
C132 O131 1.208 . S
C133 O138 1.247 . S
C133 O139 1.208 . S
C134 O126 1.315 . S
C134 O129 1.279 . S
C135 O136 1.315 . S
C135 O137 1.279 . S
O136 Cd128 2.223 . S
O136 C135 1.315 . S
O137 Cd127 2.240 . S
O137 C135 1.279 . S
O138 Cd128 2.297 . S
O138 C133 1.247 . S
O139 Cd128 2.439 . S
O139 C133 1.208 . S
O140 Cd141 2.223 . S
O140 C148 1.315 . S
Cd141 O140 2.223 . S
Cd141 O144 2.297 . S
Cd141 O145 2.439 . S
Cd141 O151 2.240 . S
Cd142 O143 2.240 . S
Cd142 O150 2.223 . S
Cd142 O152 2.297 . S
Cd142 O153 2.439 . S
O143 Cd142 2.240 . S
O143 C148 1.279 . S
O144 Cd141 2.297 . S
O144 C146 1.247 . S
O145 Cd141 2.439 . S
O145 C146 1.208 . S
C146 O144 1.247 . S
C146 O145 1.208 . S
C147 O152 1.247 . S
C147 O153 1.208 . S
C148 O140 1.315 . S
C148 O143 1.279 . S
C149 O150 1.315 . S
C149 O151 1.279 . S
O150 Cd142 2.223 . S
O150 C149 1.315 . S
O151 Cd141 2.240 . S
O151 C149 1.279 . S
O152 Cd142 2.297 . S
O152 C147 1.247 . S
O153 Cd142 2.439 . S
O153 C147 1.208 . S
O154 Cd155 2.223 . S
O154 C162 1.315 . S
Cd155 O154 2.223 . S
Cd155 O158 2.297 . S
Cd155 O159 2.439 . S
Cd155 O165 2.240 . S
Cd156 O157 2.240 . S
Cd156 O164 2.223 . S
Cd156 O166 2.297 . S
Cd156 O167 2.439 . S
O157 Cd156 2.240 . S
O157 C162 1.279 . S
O158 Cd155 2.297 . S
O158 C160 1.247 . S
O159 Cd155 2.439 . S
O159 C160 1.208 . S
C160 O158 1.247 . S
C160 O159 1.208 . S
C161 O166 1.247 . S
C161 O167 1.208 . S
C162 O154 1.315 . S
C162 O157 1.279 . S
C163 O164 1.315 . S
C163 O165 1.279 . S
O164 Cd156 2.223 . S
O164 C163 1.315 . S
O165 Cd155 2.240 . S
O165 C163 1.279 . S
O166 Cd156 2.297 . S
O166 C161 1.247 . S
O167 Cd156 2.439 . S
O167 C161 1.208 . S
O168 Cd169 2.223 . S
O168 C176 1.315 . S
Cd169 O168 2.223 . S
Cd169 O172 2.297 . S
Cd169 O173 2.439 . S
Cd169 O179 2.240 . S
Cd170 O171 2.240 . S
Cd170 O178 2.223 . S
Cd170 O180 2.297 . S
Cd170 O181 2.439 . S
O171 Cd170 2.240 . S
O171 C176 1.279 . S
O172 Cd169 2.297 . S
O172 C174 1.247 . S
O173 Cd169 2.439 . S
O173 C174 1.208 . S
C174 O172 1.247 . S
C174 O173 1.208 . S
C175 O180 1.247 . S
C175 O181 1.208 . S
C176 O168 1.315 . S
C176 O171 1.279 . S
C177 O178 1.315 . S
C177 O179 1.279 . S
O178 Cd170 2.223 . S
O178 C177 1.315 . S
O179 Cd169 2.240 . S
O179 C177 1.279 . S
O180 Cd170 2.297 . S
O180 C175 1.247 . S
O181 Cd170 2.439 . S
O181 C175 1.208 . S
O182 Cd183 2.223 . S
O182 C190 1.315 . S
Cd183 O182 2.223 . S
Cd183 O186 2.297 . S
Cd183 O187 2.439 . S
Cd183 O193 2.240 . S
Cd184 O185 2.240 . S
Cd184 O192 2.223 . S
Cd184 O194 2.297 . S
Cd184 O195 2.439 . S
O185 Cd184 2.240 . S
O185 C190 1.279 . S
O186 Cd183 2.297 . S
O186 C188 1.247 . S
O187 Cd183 2.439 . S
O187 C188 1.208 . S
C188 O186 1.247 . S
C188 O187 1.208 . S
C189 O194 1.247 . S
C189 O195 1.208 . S
C190 O182 1.315 . S
C190 O185 1.279 . S
C191 O192 1.315 . S
C191 O193 1.279 . S
O192 Cd184 2.223 . S
O192 C191 1.315 . S
O193 Cd183 2.240 . S
O193 C191 1.279 . S
O194 Cd184 2.297 . S
O194 C189 1.247 . S
O195 Cd184 2.439 . S
O195 C189 1.208 . S
O196 Cd197 2.223 . S
O196 C204 1.315 . S
Cd197 O196 2.223 . S
Cd197 O200 2.297 . S
Cd197 O201 2.439 . S
Cd197 O207 2.240 . S
Cd198 O199 2.240 . S
Cd198 O206 2.223 . S
Cd198 O208 2.297 . S
Cd198 O209 2.439 . S
O199 Cd198 2.240 . S
O199 C204 1.279 . S
O200 Cd197 2.297 . S
O200 C202 1.247 . S
O201 Cd197 2.439 . S
O201 C202 1.208 . S
C202 O200 1.247 . S
C202 O201 1.208 . S
C203 O208 1.247 . S
C203 O209 1.208 . S
C204 O196 1.315 . S
C204 O199 1.279 . S
C205 O206 1.315 . S
C205 O207 1.279 . S
O206 Cd198 2.223 . S
O206 C205 1.315 . S
O207 Cd197 2.240 . S
O207 C205 1.279 . S
O208 Cd198 2.297 . S
O208 C203 1.247 . S
O209 Cd198 2.439 . S
O209 C203 1.208 . S
O210 Cd211 2.223 . S
O210 C218 1.315 . S
Cd211 O210 2.223 . S
Cd211 O214 2.297 . S
Cd211 O215 2.439 . S
Cd211 O221 2.240 . S
Cd212 O213 2.240 . S
Cd212 O220 2.223 . S
Cd212 O222 2.297 . S
Cd212 O223 2.439 . S
O213 Cd212 2.240 . S
O213 C218 1.279 . S
O214 Cd211 2.297 . S
O214 C216 1.247 . S
O215 Cd211 2.439 . S
O215 C216 1.208 . S
C216 O214 1.247 . S
C216 O215 1.208 . S
C217 O222 1.247 . S
C217 O223 1.208 . S
C218 O210 1.315 . S
C218 O213 1.279 . S
C219 O220 1.315 . S
C219 O221 1.279 . S
O220 Cd212 2.223 . S
O220 C219 1.315 . S
O221 Cd211 2.240 . S
O221 C219 1.279 . S
O222 Cd212 2.297 . S
O222 C217 1.247 . S
O223 Cd212 2.439 . S
O223 C217 1.208 . S
O224 Cd225 2.223 . S
O224 C232 1.315 . S
Cd225 O224 2.223 . S
Cd225 O228 2.297 . S
Cd225 O229 2.439 . S
Cd225 O235 2.240 . S
Cd226 O227 2.240 . S
Cd226 O234 2.223 . S
Cd226 O236 2.297 . S
Cd226 O237 2.439 . S
O227 Cd226 2.240 . S
O227 C232 1.279 . S
O228 Cd225 2.297 . S
O228 C230 1.247 . S
O229 Cd225 2.439 . S
O229 C230 1.208 . S
C230 O228 1.247 . S
C230 O229 1.208 . S
C231 O236 1.247 . S
C231 O237 1.208 . S
C232 O224 1.315 . S
C232 O227 1.279 . S
C233 O234 1.315 . S
C233 O235 1.279 . S
O234 Cd226 2.223 . S
O234 C233 1.315 . S
O235 Cd225 2.240 . S
O235 C233 1.279 . S
O236 Cd226 2.297 . S
O236 C231 1.247 . S
O237 Cd226 2.439 . S
O237 C231 1.208 . S
O238 Cd239 2.223 . S
O238 C246 1.315 . S
Cd239 O238 2.223 . S
Cd239 O242 2.297 . S
Cd239 O243 2.439 . S
Cd239 O249 2.240 . S
Cd240 O241 2.240 . S
Cd240 O248 2.223 . S
Cd240 O250 2.297 . S
Cd240 O251 2.439 . S
O241 Cd240 2.240 . S
O241 C246 1.279 . S
O242 Cd239 2.297 . S
O242 C244 1.247 . S
O243 Cd239 2.439 . S
O243 C244 1.208 . S
C244 O242 1.247 . S
C244 O243 1.208 . S
C245 O250 1.247 . S
C245 O251 1.208 . S
C246 O238 1.315 . S
C246 O241 1.279 . S
C247 O248 1.315 . S
C247 O249 1.279 . S
O248 Cd240 2.223 . S
O248 C247 1.315 . S
O249 Cd239 2.240 . S
O249 C247 1.279 . S
O250 Cd240 2.297 . S
O250 C245 1.247 . S
O251 Cd240 2.439 . S
O251 C245 1.208 . S
O252 Cd253 2.223 . S
O252 C260 1.315 . S
Cd253 O252 2.223 . S
Cd253 O256 2.297 . S
Cd253 O257 2.439 . S
Cd253 O263 2.240 . S
Cd254 O255 2.240 . S
Cd254 O262 2.223 . S
Cd254 O264 2.297 . S
Cd254 O265 2.439 . S
O255 Cd254 2.240 . S
O255 C260 1.279 . S
O256 Cd253 2.297 . S
O256 C258 1.247 . S
O257 Cd253 2.439 . S
O257 C258 1.208 . S
C258 O256 1.247 . S
C258 O257 1.208 . S
C259 O264 1.247 . S
C259 O265 1.208 . S
C260 O252 1.315 . S
C260 O255 1.279 . S
C261 O262 1.315 . S
C261 O263 1.279 . S
O262 Cd254 2.223 . S
O262 C261 1.315 . S
O263 Cd253 2.240 . S
O263 C261 1.279 . S
O264 Cd254 2.297 . S
O264 C259 1.247 . S
O265 Cd254 2.439 . S
O265 C259 1.208 . S
O266 Cd267 2.223 . S
O266 C274 1.315 . S
Cd267 O266 2.223 . S
Cd267 O270 2.297 . S
Cd267 O271 2.439 . S
Cd267 O277 2.240 . S
Cd268 O269 2.240 . S
Cd268 O276 2.223 . S
Cd268 O278 2.297 . S
Cd268 O279 2.439 . S
O269 Cd268 2.240 . S
O269 C274 1.279 . S
O270 Cd267 2.297 . S
O270 C272 1.247 . S
O271 Cd267 2.439 . S
O271 C272 1.208 . S
C272 O270 1.247 . S
C272 O271 1.208 . S
C273 O278 1.247 . S
C273 O279 1.208 . S
C274 O266 1.315 . S
C274 O269 1.279 . S
C275 O276 1.315 . S
C275 O277 1.279 . S
O276 Cd268 2.223 . S
O276 C275 1.315 . S
O277 Cd267 2.240 . S
O277 C275 1.279 . S
O278 Cd268 2.297 . S
O278 C273 1.247 . S
O279 Cd268 2.439 . S
O279 C273 1.208 . S
O280 Cd281 2.223 . S
O280 C288 1.315 . S
Cd281 O280 2.223 . S
Cd281 O284 2.297 . S
Cd281 O285 2.439 . S
Cd281 O291 2.240 . S
Cd282 O283 2.240 . S
Cd282 O290 2.223 . S
Cd282 O292 2.297 . S
Cd282 O293 2.439 . S
O283 Cd282 2.240 . S
O283 C288 1.279 . S
O284 Cd281 2.297 . S
O284 C286 1.247 . S
O285 Cd281 2.439 . S
O285 C286 1.208 . S
C286 O284 1.247 . S
C286 O285 1.208 . S
C287 O292 1.247 . S
C287 O293 1.208 . S
C288 O280 1.315 . S
C288 O283 1.279 . S
C289 O290 1.315 . S
C289 O291 1.279 . S
O290 Cd282 2.223 . S
O290 C289 1.315 . S
O291 Cd281 2.240 . S
O291 C289 1.279 . S
O292 Cd282 2.297 . S
O292 C287 1.247 . S
O293 Cd282 2.439 . S
O293 C287 1.208 . S
O294 Cd295 2.223 . S
O294 C302 1.315 . S
Cd295 O294 2.223 . S
Cd295 O298 2.297 . S
Cd295 O299 2.439 . S
Cd295 O305 2.240 . S
Cd296 O297 2.240 . S
Cd296 O304 2.223 . S
Cd296 O306 2.297 . S
Cd296 O307 2.439 . S
O297 Cd296 2.240 . S
O297 C302 1.279 . S
O298 Cd295 2.297 . S
O298 C300 1.247 . S
O299 Cd295 2.439 . S
O299 C300 1.208 . S
C300 O298 1.247 . S
C300 O299 1.208 . S
C301 O306 1.247 . S
C301 O307 1.208 . S
C302 O294 1.315 . S
C302 O297 1.279 . S
C303 O304 1.315 . S
C303 O305 1.279 . S
O304 Cd296 2.223 . S
O304 C303 1.315 . S
O305 Cd295 2.240 . S
O305 C303 1.279 . S
O306 Cd296 2.297 . S
O306 C301 1.247 . S
O307 Cd296 2.439 . S
O307 C301 1.208 . S
O308 Cd309 2.223 . S
O308 C316 1.315 . S
Cd309 O308 2.223 . S
Cd309 O312 2.297 . S
Cd309 O313 2.439 . S
Cd309 O319 2.240 . S
Cd310 O311 2.240 . S
Cd310 O318 2.223 . S
Cd310 O320 2.297 . S
Cd310 O321 2.439 . S
O311 Cd310 2.240 . S
O311 C316 1.279 . S
O312 Cd309 2.297 . S
O312 C314 1.247 . S
O313 Cd309 2.439 . S
O313 C314 1.208 . S
C314 O312 1.247 . S
C314 O313 1.208 . S
C315 O320 1.247 . S
C315 O321 1.208 . S
C316 O308 1.315 . S
C316 O311 1.279 . S
C317 O318 1.315 . S
C317 O319 1.279 . S
O318 Cd310 2.223 . S
O318 C317 1.315 . S
O319 Cd309 2.240 . S
O319 C317 1.279 . S
O320 Cd310 2.297 . S
O320 C315 1.247 . S
O321 Cd310 2.439 . S
O321 C315 1.208 . S
O322 Cd323 2.223 . S
O322 C330 1.315 . S
Cd323 O322 2.223 . S
Cd323 O326 2.297 . S
Cd323 O327 2.439 . S
Cd323 O333 2.240 . S
Cd324 O325 2.240 . S
Cd324 O332 2.223 . S
Cd324 O334 2.297 . S
Cd324 O335 2.439 . S
O325 Cd324 2.240 . S
O325 C330 1.279 . S
O326 Cd323 2.297 . S
O326 C328 1.247 . S
O327 Cd323 2.439 . S
O327 C328 1.208 . S
C328 O326 1.247 . S
C328 O327 1.208 . S
C329 O334 1.247 . S
C329 O335 1.208 . S
C330 O322 1.315 . S
C330 O325 1.279 . S
C331 O332 1.315 . S
C331 O333 1.279 . S
O332 Cd324 2.223 . S
O332 C331 1.315 . S
O333 Cd323 2.240 . S
O333 C331 1.279 . S
O334 Cd324 2.297 . S
O334 C329 1.247 . S
O335 Cd324 2.439 . S
O335 C329 1.208 . S
O336 Cd337 2.223 . S
O336 C344 1.315 . S
Cd337 O336 2.223 . S
Cd337 O340 2.297 . S
Cd337 O341 2.439 . S
Cd337 O347 2.240 . S
Cd338 O339 2.240 . S
Cd338 O346 2.223 . S
Cd338 O348 2.297 . S
Cd338 O349 2.439 . S
O339 Cd338 2.240 . S
O339 C344 1.279 . S
O340 Cd337 2.297 . S
O340 C342 1.247 . S
O341 Cd337 2.439 . S
O341 C342 1.208 . S
C342 O340 1.247 . S
C342 O341 1.208 . S
C343 O348 1.247 . S
C343 O349 1.208 . S
C344 O336 1.315 . S
C344 O339 1.279 . S
C345 O346 1.315 . S
C345 O347 1.279 . S
O346 Cd338 2.223 . S
O346 C345 1.315 . S
O347 Cd337 2.240 . S
O347 C345 1.279 . S
O348 Cd338 2.297 . S
O348 C343 1.247 . S
O349 Cd338 2.439 . S
O349 C343 1.208 . S
O350 Cd351 2.223 . S
O350 C358 1.315 . S
Cd351 O350 2.223 . S
Cd351 O354 2.297 . S
Cd351 O355 2.439 . S
Cd351 O361 2.240 . S
Cd352 O353 2.240 . S
Cd352 O360 2.223 . S
Cd352 O362 2.297 . S
Cd352 O363 2.439 . S
O353 Cd352 2.240 . S
O353 C358 1.279 . S
O354 Cd351 2.297 . S
O354 C356 1.247 . S
O355 Cd351 2.439 . S
O355 C356 1.208 . S
C356 O354 1.247 . S
C356 O355 1.208 . S
C357 O362 1.247 . S
C357 O363 1.208 . S
C358 O350 1.315 . S
C358 O353 1.279 . S
C359 O360 1.315 . S
C359 O361 1.279 . S
O360 Cd352 2.223 . S
O360 C359 1.315 . S
O361 Cd351 2.240 . S
O361 C359 1.279 . S
O362 Cd352 2.297 . S
O362 C357 1.247 . S
O363 Cd352 2.439 . S
O363 C357 1.208 . S
O364 Cd365 2.223 . S
O364 C372 1.315 . S
Cd365 O364 2.223 . S
Cd365 O368 2.297 . S
Cd365 O369 2.439 . S
Cd365 O375 2.240 . S
Cd366 O367 2.240 . S
Cd366 O374 2.223 . S
Cd366 O376 2.297 . S
Cd366 O377 2.439 . S
O367 Cd366 2.240 . S
O367 C372 1.279 . S
O368 Cd365 2.297 . S
O368 C370 1.247 . S
O369 Cd365 2.439 . S
O369 C370 1.208 . S
C370 O368 1.247 . S
C370 O369 1.208 . S
C371 O376 1.247 . S
C371 O377 1.208 . S
C372 O364 1.315 . S
C372 O367 1.279 . S
C373 O374 1.315 . S
C373 O375 1.279 . S
O374 Cd366 2.223 . S
O374 C373 1.315 . S
O375 Cd365 2.240 . S
O375 C373 1.279 . S
O376 Cd366 2.297 . S
O376 C371 1.247 . S
O377 Cd366 2.439 . S
O377 C371 1.208 . S
O378 Cd379 2.223 . S
O378 C386 1.315 . S
Cd379 O378 2.223 . S
Cd379 O382 2.297 . S
Cd379 O383 2.439 . S
Cd379 O389 2.240 . S
Cd380 O381 2.240 . S
Cd380 O388 2.223 . S
Cd380 O390 2.297 . S
Cd380 O391 2.439 . S
O381 Cd380 2.240 . S
O381 C386 1.279 . S
O382 Cd379 2.297 . S
O382 C384 1.247 . S
O383 Cd379 2.439 . S
O383 C384 1.208 . S
C384 O382 1.247 . S
C384 O383 1.208 . S
C385 O390 1.247 . S
C385 O391 1.208 . S
C386 O378 1.315 . S
C386 O381 1.279 . S
C387 O388 1.315 . S
C387 O389 1.279 . S
O388 Cd380 2.223 . S
O388 C387 1.315 . S
O389 Cd379 2.240 . S
O389 C387 1.279 . S
O390 Cd380 2.297 . S
O390 C385 1.247 . S
O391 Cd380 2.439 . S
O391 C385 1.208 . S
O392 Cd393 2.223 . S
O392 C400 1.315 . S
Cd393 O392 2.223 . S
Cd393 O396 2.297 . S
Cd393 O397 2.439 . S
Cd393 O403 2.240 . S
Cd394 O395 2.240 . S
Cd394 O402 2.223 . S
Cd394 O404 2.297 . S
Cd394 O405 2.439 . S
O395 Cd394 2.240 . S
O395 C400 1.279 . S
O396 Cd393 2.297 . S
O396 C398 1.247 . S
O397 Cd393 2.439 . S
O397 C398 1.208 . S
C398 O396 1.247 . S
C398 O397 1.208 . S
C399 O404 1.247 . S
C399 O405 1.208 . S
C400 O392 1.315 . S
C400 O395 1.279 . S
C401 O402 1.315 . S
C401 O403 1.279 . S
O402 Cd394 2.223 . S
O402 C401 1.315 . S
O403 Cd393 2.240 . S
O403 C401 1.279 . S
O404 Cd394 2.297 . S
O404 C399 1.247 . S
O405 Cd394 2.439 . S
O405 C399 1.208 . S
O406 Cd407 2.223 . S
O406 C414 1.315 . S
Cd407 O406 2.223 . S
Cd407 O410 2.297 . S
Cd407 O411 2.439 . S
Cd407 O417 2.240 . S
Cd408 O409 2.240 . S
Cd408 O416 2.223 . S
Cd408 O418 2.297 . S
Cd408 O419 2.439 . S
O409 Cd408 2.240 . S
O409 C414 1.279 . S
O410 Cd407 2.297 . S
O410 C412 1.247 . S
O411 Cd407 2.439 . S
O411 C412 1.208 . S
C412 O410 1.247 . S
C412 O411 1.208 . S
C413 O418 1.247 . S
C413 O419 1.208 . S
C414 O406 1.315 . S
C414 O409 1.279 . S
C415 O416 1.315 . S
C415 O417 1.279 . S
O416 Cd408 2.223 . S
O416 C415 1.315 . S
O417 Cd407 2.240 . S
O417 C415 1.279 . S
O418 Cd408 2.297 . S
O418 C413 1.247 . S
O419 Cd408 2.439 . S
O419 C413 1.208 . S
O420 Cd421 2.223 . S
O420 C428 1.315 . S
Cd421 O420 2.223 . S
Cd421 O424 2.297 . S
Cd421 O425 2.439 . S
Cd421 O431 2.240 . S
Cd422 O423 2.240 . S
Cd422 O430 2.223 . S
Cd422 O432 2.297 . S
Cd422 O433 2.439 . S
O423 Cd422 2.240 . S
O423 C428 1.279 . S
O424 Cd421 2.297 . S
O424 C426 1.247 . S
O425 Cd421 2.439 . S
O425 C426 1.208 . S
C426 O424 1.247 . S
C426 O425 1.208 . S
C427 O432 1.247 . S
C427 O433 1.208 . S
C428 O420 1.315 . S
C428 O423 1.279 . S
C429 O430 1.315 . S
C429 O431 1.279 . S
O430 Cd422 2.223 . S
O430 C429 1.315 . S
O431 Cd421 2.240 . S
O431 C429 1.279 . S
O432 Cd422 2.297 . S
O432 C427 1.247 . S
O433 Cd422 2.439 . S
O433 C427 1.208 . S
O434 Cd435 2.223 . S
O434 C442 1.315 . S
Cd435 O434 2.223 . S
Cd435 O438 2.297 . S
Cd435 O439 2.439 . S
Cd435 O445 2.240 . S
Cd436 O437 2.240 . S
Cd436 O444 2.223 . S
Cd436 O446 2.297 . S
Cd436 O447 2.439 . S
O437 Cd436 2.240 . S
O437 C442 1.279 . S
O438 Cd435 2.297 . S
O438 C440 1.247 . S
O439 Cd435 2.439 . S
O439 C440 1.208 . S
C440 O438 1.247 . S
C440 O439 1.208 . S
C441 O446 1.247 . S
C441 O447 1.208 . S
C442 O434 1.315 . S
C442 O437 1.279 . S
C443 O444 1.315 . S
C443 O445 1.279 . S
O444 Cd436 2.223 . S
O444 C443 1.315 . S
O445 Cd435 2.240 . S
O445 C443 1.279 . S
O446 Cd436 2.297 . S
O446 C441 1.247 . S
O447 Cd436 2.439 . S
O447 C441 1.208 . S
O448 Cd449 2.223 . S
O448 C456 1.315 . S
Cd449 O448 2.223 . S
Cd449 O452 2.297 . S
Cd449 O453 2.439 . S
Cd449 O459 2.240 . S
Cd450 O451 2.240 . S
Cd450 O458 2.223 . S
Cd450 O460 2.297 . S
Cd450 O461 2.439 . S
O451 Cd450 2.240 . S
O451 C456 1.279 . S
O452 Cd449 2.297 . S
O452 C454 1.247 . S
O453 Cd449 2.439 . S
O453 C454 1.208 . S
C454 O452 1.247 . S
C454 O453 1.208 . S
C455 O460 1.247 . S
C455 O461 1.208 . S
C456 O448 1.315 . S
C456 O451 1.279 . S
C457 O458 1.315 . S
C457 O459 1.279 . S
O458 Cd450 2.223 . S
O458 C457 1.315 . S
O459 Cd449 2.240 . S
O459 C457 1.279 . S
O460 Cd450 2.297 . S
O460 C455 1.247 . S
O461 Cd450 2.439 . S
O461 C455 1.208 . S
O462 Cd463 2.223 . S
O462 C470 1.315 . S
Cd463 O462 2.223 . S
Cd463 O466 2.297 . S
Cd463 O467 2.439 . S
Cd463 O473 2.240 . S
Cd464 O465 2.240 . S
Cd464 O472 2.223 . S
Cd464 O474 2.297 . S
Cd464 O475 2.439 . S
O465 Cd464 2.240 . S
O465 C470 1.279 . S
O466 Cd463 2.297 . S
O466 C468 1.247 . S
O467 Cd463 2.439 . S
O467 C468 1.208 . S
C468 O466 1.247 . S
C468 O467 1.208 . S
C469 O474 1.247 . S
C469 O475 1.208 . S
C470 O462 1.315 . S
C470 O465 1.279 . S
C471 O472 1.315 . S
C471 O473 1.279 . S
O472 Cd464 2.223 . S
O472 C471 1.315 . S
O473 Cd463 2.240 . S
O473 C471 1.279 . S
O474 Cd464 2.297 . S
O474 C469 1.247 . S
O475 Cd464 2.439 . S
O475 C469 1.208 . S
O476 Cd477 2.223 . S
O476 C484 1.315 . S
Cd477 O476 2.223 . S
Cd477 O480 2.297 . S
Cd477 O481 2.439 . S
Cd477 O487 2.240 . S
Cd478 O479 2.240 . S
Cd478 O486 2.223 . S
Cd478 O488 2.297 . S
Cd478 O489 2.439 . S
O479 Cd478 2.240 . S
O479 C484 1.279 . S
O480 Cd477 2.297 . S
O480 C482 1.247 . S
O481 Cd477 2.439 . S
O481 C482 1.208 . S
C482 O480 1.247 . S
C482 O481 1.208 . S
C483 O488 1.247 . S
C483 O489 1.208 . S
C484 O476 1.315 . S
C484 O479 1.279 . S
C485 O486 1.315 . S
C485 O487 1.279 . S
O486 Cd478 2.223 . S
O486 C485 1.315 . S
O487 Cd477 2.240 . S
O487 C485 1.279 . S
O488 Cd478 2.297 . S
O488 C483 1.247 . S
O489 Cd478 2.439 . S
O489 C483 1.208 . S
O490 Cd491 2.223 . S
O490 C498 1.315 . S
Cd491 O490 2.223 . S
Cd491 O494 2.297 . S
Cd491 O495 2.439 . S
Cd491 O501 2.240 . S
Cd492 O493 2.240 . S
Cd492 O500 2.223 . S
Cd492 O502 2.297 . S
Cd492 O503 2.439 . S
O493 Cd492 2.240 . S
O493 C498 1.279 . S
O494 Cd491 2.297 . S
O494 C496 1.247 . S
O495 Cd491 2.439 . S
O495 C496 1.208 . S
C496 O494 1.247 . S
C496 O495 1.208 . S
C497 O502 1.247 . S
C497 O503 1.208 . S
C498 O490 1.315 . S
C498 O493 1.279 . S
C499 O500 1.315 . S
C499 O501 1.279 . S
O500 Cd492 2.223 . S
O500 C499 1.315 . S
O501 Cd491 2.240 . S
O501 C499 1.279 . S
O502 Cd492 2.297 . S
O502 C497 1.247 . S
O503 Cd492 2.439 . S
O503 C497 1.208 . S
O504 Cd505 2.223 . S
O504 C512 1.315 . S
Cd505 O504 2.223 . S
Cd505 O508 2.297 . S
Cd505 O509 2.439 . S
Cd505 O515 2.240 . S
Cd506 O507 2.240 . S
Cd506 O514 2.223 . S
Cd506 O516 2.297 . S
Cd506 O517 2.439 . S
O507 Cd506 2.240 . S
O507 C512 1.279 . S
O508 Cd505 2.297 . S
O508 C510 1.247 . S
O509 Cd505 2.439 . S
O509 C510 1.208 . S
C510 O508 1.247 . S
C510 O509 1.208 . S
C511 O516 1.247 . S
C511 O517 1.208 . S
C512 O504 1.315 . S
C512 O507 1.279 . S
C513 O514 1.315 . S
C513 O515 1.279 . S
O514 Cd506 2.223 . S
O514 C513 1.315 . S
O515 Cd505 2.240 . S
O515 C513 1.279 . S
O516 Cd506 2.297 . S
O516 C511 1.247 . S
O517 Cd506 2.439 . S
O517 C511 1.208 . S
O518 Cd519 2.223 . S
O518 C526 1.315 . S
Cd519 O518 2.223 . S
Cd519 O522 2.297 . S
Cd519 O523 2.439 . S
Cd519 O529 2.240 . S
Cd520 O521 2.240 . S
Cd520 O528 2.223 . S
Cd520 O530 2.297 . S
Cd520 O531 2.439 . S
O521 Cd520 2.240 . S
O521 C526 1.279 . S
O522 Cd519 2.297 . S
O522 C524 1.247 . S
O523 Cd519 2.439 . S
O523 C524 1.208 . S
C524 O522 1.247 . S
C524 O523 1.208 . S
C525 O530 1.247 . S
C525 O531 1.208 . S
C526 O518 1.315 . S
C526 O521 1.279 . S
C527 O528 1.315 . S
C527 O529 1.279 . S
O528 Cd520 2.223 . S
O528 C527 1.315 . S
O529 Cd519 2.240 . S
O529 C527 1.279 . S
O530 Cd520 2.297 . S
O530 C525 1.247 . S
O531 Cd520 2.439 . S
O531 C525 1.208 . S
O532 Cd533 2.223 . S
O532 C540 1.315 . S
Cd533 O532 2.223 . S
Cd533 O536 2.297 . S
Cd533 O537 2.439 . S
Cd533 O543 2.240 . S
Cd534 O535 2.240 . S
Cd534 O542 2.223 . S
Cd534 O544 2.297 . S
Cd534 O545 2.439 . S
O535 Cd534 2.240 . S
O535 C540 1.279 . S
O536 Cd533 2.297 . S
O536 C538 1.247 . S
O537 Cd533 2.439 . S
O537 C538 1.208 . S
C538 O536 1.247 . S
C538 O537 1.208 . S
C539 O544 1.247 . S
C539 O545 1.208 . S
C540 O532 1.315 . S
C540 O535 1.279 . S
C541 O542 1.315 . S
C541 O543 1.279 . S
O542 Cd534 2.223 . S
O542 C541 1.315 . S
O543 Cd533 2.240 . S
O543 C541 1.279 . S
O544 Cd534 2.297 . S
O544 C539 1.247 . S
O545 Cd534 2.439 . S
O545 C539 1.208 . S
O546 Cd547 2.223 . S
O546 C554 1.315 . S
Cd547 O546 2.223 . S
Cd547 O550 2.297 . S
Cd547 O551 2.439 . S
Cd547 O557 2.240 . S
Cd548 O549 2.240 . S
Cd548 O556 2.223 . S
Cd548 O558 2.297 . S
Cd548 O559 2.439 . S
O549 Cd548 2.240 . S
O549 C554 1.279 . S
O550 Cd547 2.297 . S
O550 C552 1.247 . S
O551 Cd547 2.439 . S
O551 C552 1.208 . S
C552 O550 1.247 . S
C552 O551 1.208 . S
C553 O558 1.247 . S
C553 O559 1.208 . S
C554 O546 1.315 . S
C554 O549 1.279 . S
C555 O556 1.315 . S
C555 O557 1.279 . S
O556 Cd548 2.223 . S
O556 C555 1.315 . S
O557 Cd547 2.240 . S
O557 C555 1.279 . S
O558 Cd548 2.297 . S
O558 C553 1.247 . S
O559 Cd548 2.439 . S
O559 C553 1.208 . S
O560 Cd561 2.223 . S
O560 C568 1.315 . S
Cd561 O560 2.223 . S
Cd561 O564 2.297 . S
Cd561 O565 2.439 . S
Cd561 O571 2.240 . S
Cd562 O563 2.240 . S
Cd562 O570 2.223 . S
Cd562 O572 2.297 . S
Cd562 O573 2.439 . S
O563 Cd562 2.240 . S
O563 C568 1.279 . S
O564 Cd561 2.297 . S
O564 C566 1.247 . S
O565 Cd561 2.439 . S
O565 C566 1.208 . S
C566 O564 1.247 . S
C566 O565 1.208 . S
C567 O572 1.247 . S
C567 O573 1.208 . S
C568 O560 1.315 . S
C568 O563 1.279 . S
C569 O570 1.315 . S
C569 O571 1.279 . S
O570 Cd562 2.223 . S
O570 C569 1.315 . S
O571 Cd561 2.240 . S
O571 C569 1.279 . S
O572 Cd562 2.297 . S
O572 C567 1.247 . S
O573 Cd562 2.439 . S
O573 C567 1.208 . S
O574 Cd575 2.223 . S
O574 C582 1.315 . S
Cd575 O574 2.223 . S
Cd575 O578 2.297 . S
Cd575 O579 2.439 . S
Cd575 O585 2.240 . S
Cd576 O577 2.240 . S
Cd576 O584 2.223 . S
Cd576 O586 2.297 . S
Cd576 O587 2.439 . S
O577 Cd576 2.240 . S
O577 C582 1.279 . S
O578 Cd575 2.297 . S
O578 C580 1.247 . S
O579 Cd575 2.439 . S
O579 C580 1.208 . S
C580 O578 1.247 . S
C580 O579 1.208 . S
C581 O586 1.247 . S
C581 O587 1.208 . S
C582 O574 1.315 . S
C582 O577 1.279 . S
C583 O584 1.315 . S
C583 O585 1.279 . S
O584 Cd576 2.223 . S
O584 C583 1.315 . S
O585 Cd575 2.240 . S
O585 C583 1.279 . S
O586 Cd576 2.297 . S
O586 C581 1.247 . S
O587 Cd576 2.439 . S
O587 C581 1.208 . S
O588 Cd589 2.223 . S
O588 C596 1.315 . S
Cd589 O588 2.223 . S
Cd589 O592 2.297 . S
Cd589 O593 2.439 . S
Cd589 O599 2.240 . S
Cd590 O591 2.240 . S
Cd590 O598 2.223 . S
Cd590 O600 2.297 . S
Cd590 O601 2.439 . S
O591 Cd590 2.240 . S
O591 C596 1.279 . S
O592 Cd589 2.297 . S
O592 C594 1.247 . S
O593 Cd589 2.439 . S
O593 C594 1.208 . S
C594 O592 1.247 . S
C594 O593 1.208 . S
C595 O600 1.247 . S
C595 O601 1.208 . S
C596 O588 1.315 . S
C596 O591 1.279 . S
C597 O598 1.315 . S
C597 O599 1.279 . S
O598 Cd590 2.223 . S
O598 C597 1.315 . S
O599 Cd589 2.240 . S
O599 C597 1.279 . S
O600 Cd590 2.297 . S
O600 C595 1.247 . S
O601 Cd590 2.439 . S
O601 C595 1.208 . S
O602 Cd603 2.223 . S
O602 C610 1.315 . S
Cd603 O602 2.223 . S
Cd603 O606 2.297 . S
Cd603 O607 2.439 . S
Cd603 O613 2.240 . S
Cd604 O605 2.240 . S
Cd604 O612 2.223 . S
Cd604 O614 2.297 . S
Cd604 O615 2.439 . S
O605 Cd604 2.240 . S
O605 C610 1.279 . S
O606 Cd603 2.297 . S
O606 C608 1.247 . S
O607 Cd603 2.439 . S
O607 C608 1.208 . S
C608 O606 1.247 . S
C608 O607 1.208 . S
C609 O614 1.247 . S
C609 O615 1.208 . S
C610 O602 1.315 . S
C610 O605 1.279 . S
C611 O612 1.315 . S
C611 O613 1.279 . S
O612 Cd604 2.223 . S
O612 C611 1.315 . S
O613 Cd603 2.240 . S
O613 C611 1.279 . S
O614 Cd604 2.297 . S
O614 C609 1.247 . S
O615 Cd604 2.439 . S
O615 C609 1.208 . S
O616 Cd617 2.223 . S
O616 C624 1.315 . S
Cd617 O616 2.223 . S
Cd617 O620 2.297 . S
Cd617 O621 2.439 . S
Cd617 O627 2.240 . S
Cd618 O619 2.240 . S
Cd618 O626 2.223 . S
Cd618 O628 2.297 . S
Cd618 O629 2.439 . S
O619 Cd618 2.240 . S
O619 C624 1.279 . S
O620 Cd617 2.297 . S
O620 C622 1.247 . S
O621 Cd617 2.439 . S
O621 C622 1.208 . S
C622 O620 1.247 . S
C622 O621 1.208 . S
C623 O628 1.247 . S
C623 O629 1.208 . S
C624 O616 1.315 . S
C624 O619 1.279 . S
C625 O626 1.315 . S
C625 O627 1.279 . S
O626 Cd618 2.223 . S
O626 C625 1.315 . S
O627 Cd617 2.240 . S
O627 C625 1.279 . S
O628 Cd618 2.297 . S
O628 C623 1.247 . S
O629 Cd618 2.439 . S
O629 C623 1.208 . S
O630 Cd631 2.223 . S
O630 C638 1.315 . S
Cd631 O630 2.223 . S
Cd631 O634 2.297 . S
Cd631 O635 2.439 . S
Cd631 O641 2.240 . S
Cd632 O633 2.240 . S
Cd632 O640 2.223 . S
Cd632 O642 2.297 . S
Cd632 O643 2.439 . S
O633 Cd632 2.240 . S
O633 C638 1.279 . S
O634 Cd631 2.297 . S
O634 C636 1.247 . S
O635 Cd631 2.439 . S
O635 C636 1.208 . S
C636 O634 1.247 . S
C636 O635 1.208 . S
C637 O642 1.247 . S
C637 O643 1.208 . S
C638 O630 1.315 . S
C638 O633 1.279 . S
C639 O640 1.315 . S
C639 O641 1.279 . S
O640 Cd632 2.223 . S
O640 C639 1.315 . S
O641 Cd631 2.240 . S
O641 C639 1.279 . S
O642 Cd632 2.297 . S
O642 C637 1.247 . S
O643 Cd632 2.439 . S
O643 C637 1.208 . S
O644 Cd645 2.223 . S
O644 C652 1.315 . S
Cd645 O644 2.223 . S
Cd645 O648 2.297 . S
Cd645 O649 2.439 . S
Cd645 O655 2.240 . S
Cd646 O647 2.240 . S
Cd646 O654 2.223 . S
Cd646 O656 2.297 . S
Cd646 O657 2.439 . S
O647 Cd646 2.240 . S
O647 C652 1.279 . S
O648 Cd645 2.297 . S
O648 C650 1.247 . S
O649 Cd645 2.439 . S
O649 C650 1.208 . S
C650 O648 1.247 . S
C650 O649 1.208 . S
C651 O656 1.247 . S
C651 O657 1.208 . S
C652 O644 1.315 . S
C652 O647 1.279 . S
C653 O654 1.315 . S
C653 O655 1.279 . S
O654 Cd646 2.223 . S
O654 C653 1.315 . S
O655 Cd645 2.240 . S
O655 C653 1.279 . S
O656 Cd646 2.297 . S
O656 C651 1.247 . S
O657 Cd646 2.439 . S
O657 C651 1.208 . S
O658 Cd659 2.223 . S
O658 C666 1.315 . S
Cd659 O658 2.223 . S
Cd659 O662 2.297 . S
Cd659 O663 2.439 . S
Cd659 O669 2.240 . S
Cd660 O661 2.240 . S
Cd660 O668 2.223 . S
Cd660 O670 2.297 . S
Cd660 O671 2.439 . S
O661 Cd660 2.240 . S
O661 C666 1.279 . S
O662 Cd659 2.297 . S
O662 C664 1.247 . S
O663 Cd659 2.439 . S
O663 C664 1.208 . S
C664 O662 1.247 . S
C664 O663 1.208 . S
C665 O670 1.247 . S
C665 O671 1.208 . S
C666 O658 1.315 . S
C666 O661 1.279 . S
C667 O668 1.315 . S
C667 O669 1.279 . S
O668 Cd660 2.223 . S
O668 C667 1.315 . S
O669 Cd659 2.240 . S
O669 C667 1.279 . S
O670 Cd660 2.297 . S
O670 C665 1.247 . S
O671 Cd660 2.439 . S
O671 C665 1.208 . S
O672 Cd673 2.223 . S
O672 C680 1.315 . S
Cd673 O672 2.223 . S
Cd673 O676 2.297 . S
Cd673 O677 2.439 . S
Cd673 O683 2.240 . S
Cd674 O675 2.240 . S
Cd674 O682 2.223 . S
Cd674 O684 2.297 . S
Cd674 O685 2.439 . S
O675 Cd674 2.240 . S
O675 C680 1.279 . S
O676 Cd673 2.297 . S
O676 C678 1.247 . S
O677 Cd673 2.439 . S
O677 C678 1.208 . S
C678 O676 1.247 . S
C678 O677 1.208 . S
C679 O684 1.247 . S
C679 O685 1.208 . S
C680 O672 1.315 . S
C680 O675 1.279 . S
C681 O682 1.315 . S
C681 O683 1.279 . S
O682 Cd674 2.223 . S
O682 C681 1.315 . S
O683 Cd673 2.240 . S
O683 C681 1.279 . S
O684 Cd674 2.297 . S
O684 C679 1.247 . S
O685 Cd674 2.439 . S
O685 C679 1.208 . S
O686 Cd687 2.223 . S
O686 C694 1.315 . S
Cd687 O686 2.223 . S
Cd687 O690 2.297 . S
Cd687 O691 2.439 . S
Cd687 O697 2.240 . S
Cd688 O689 2.240 . S
Cd688 O696 2.223 . S
Cd688 O698 2.297 . S
Cd688 O699 2.439 . S
O689 Cd688 2.240 . S
O689 C694 1.279 . S
O690 Cd687 2.297 . S
O690 C692 1.247 . S
O691 Cd687 2.439 . S
O691 C692 1.208 . S
C692 O690 1.247 . S
C692 O691 1.208 . S
C693 O698 1.247 . S
C693 O699 1.208 . S
C694 O686 1.315 . S
C694 O689 1.279 . S
C695 O696 1.315 . S
C695 O697 1.279 . S
O696 Cd688 2.223 . S
O696 C695 1.315 . S
O697 Cd687 2.240 . S
O697 C695 1.279 . S
O698 Cd688 2.297 . S
O698 C693 1.247 . S
O699 Cd688 2.439 . S
O699 C693 1.208 . S
O700 Cd701 2.223 . S
O700 C708 1.315 . S
Cd701 O700 2.223 . S
Cd701 O704 2.297 . S
Cd701 O705 2.439 . S
Cd701 O711 2.240 . S
Cd702 O703 2.240 . S
Cd702 O710 2.223 . S
Cd702 O712 2.297 . S
Cd702 O713 2.439 . S
O703 Cd702 2.240 . S
O703 C708 1.279 . S
O704 Cd701 2.297 . S
O704 C706 1.247 . S
O705 Cd701 2.439 . S
O705 C706 1.208 . S
C706 O704 1.247 . S
C706 O705 1.208 . S
C707 O712 1.247 . S
C707 O713 1.208 . S
C708 O700 1.315 . S
C708 O703 1.279 . S
C709 O710 1.315 . S
C709 O711 1.279 . S
O710 Cd702 2.223 . S
O710 C709 1.315 . S
O711 Cd701 2.240 . S
O711 C709 1.279 . S
O712 Cd702 2.297 . S
O712 C707 1.247 . S
O713 Cd702 2.439 . S
O713 C707 1.208 . S
O714 Cd715 2.223 . S
O714 C722 1.315 . S
Cd715 O714 2.223 . S
Cd715 O718 2.297 . S
Cd715 O719 2.439 . S
Cd715 O725 2.240 . S
Cd716 O717 2.240 . S
Cd716 O724 2.223 . S
Cd716 O726 2.297 . S
Cd716 O727 2.439 . S
O717 Cd716 2.240 . S
O717 C722 1.279 . S
O718 Cd715 2.297 . S
O718 C720 1.247 . S
O719 Cd715 2.439 . S
O719 C720 1.208 . S
C720 O718 1.247 . S
C720 O719 1.208 . S
C721 O726 1.247 . S
C721 O727 1.208 . S
C722 O714 1.315 . S
C722 O717 1.279 . S
C723 O724 1.315 . S
C723 O725 1.279 . S
O724 Cd716 2.223 . S
O724 C723 1.315 . S
O725 Cd715 2.240 . S
O725 C723 1.279 . S
O726 Cd716 2.297 . S
O726 C721 1.247 . S
O727 Cd716 2.439 . S
O727 C721 1.208 . S
O728 Cd729 2.223 . S
O728 C736 1.315 . S
Cd729 O728 2.223 . S
Cd729 O732 2.297 . S
Cd729 O733 2.439 . S
Cd729 O739 2.240 . S
Cd730 O731 2.240 . S
Cd730 O738 2.223 . S
Cd730 O740 2.297 . S
Cd730 O741 2.439 . S
O731 Cd730 2.240 . S
O731 C736 1.279 . S
O732 Cd729 2.297 . S
O732 C734 1.247 . S
O733 Cd729 2.439 . S
O733 C734 1.208 . S
C734 O732 1.247 . S
C734 O733 1.208 . S
C735 O740 1.247 . S
C735 O741 1.208 . S
C736 O728 1.315 . S
C736 O731 1.279 . S
C737 O738 1.315 . S
C737 O739 1.279 . S
O738 Cd730 2.223 . S
O738 C737 1.315 . S
O739 Cd729 2.240 . S
O739 C737 1.279 . S
O740 Cd730 2.297 . S
O740 C735 1.247 . S
O741 Cd730 2.439 . S
O741 C735 1.208 . S
O742 Cd743 2.223 . S
O742 C750 1.315 . S
Cd743 O742 2.223 . S
Cd743 O746 2.297 . S
Cd743 O747 2.439 . S
Cd743 O753 2.240 . S
Cd744 O745 2.240 . S
Cd744 O752 2.223 . S
Cd744 O754 2.297 . S
Cd744 O755 2.439 . S
O745 Cd744 2.240 . S
O745 C750 1.279 . S
O746 Cd743 2.297 . S
O746 C748 1.247 . S
O747 Cd743 2.439 . S
O747 C748 1.208 . S
C748 O746 1.247 . S
C748 O747 1.208 . S
C749 O754 1.247 . S
C749 O755 1.208 . S
C750 O742 1.315 . S
C750 O745 1.279 . S
C751 O752 1.315 . S
C751 O753 1.279 . S
O752 Cd744 2.223 . S
O752 C751 1.315 . S
O753 Cd743 2.240 . S
O753 C751 1.279 . S
O754 Cd744 2.297 . S
O754 C749 1.247 . S
O755 Cd744 2.439 . S
O755 C749 1.208 . S
O756 Cd757 2.223 . S
O756 C764 1.315 . S
Cd757 O756 2.223 . S
Cd757 O760 2.297 . S
Cd757 O761 2.439 . S
Cd757 O767 2.240 . S
Cd758 O759 2.240 . S
Cd758 O766 2.223 . S
Cd758 O768 2.297 . S
Cd758 O769 2.439 . S
O759 Cd758 2.240 . S
O759 C764 1.279 . S
O760 Cd757 2.297 . S
O760 C762 1.247 . S
O761 Cd757 2.439 . S
O761 C762 1.208 . S
C762 O760 1.247 . S
C762 O761 1.208 . S
C763 O768 1.247 . S
C763 O769 1.208 . S
C764 O756 1.315 . S
C764 O759 1.279 . S
C765 O766 1.315 . S
C765 O767 1.279 . S
O766 Cd758 2.223 . S
O766 C765 1.315 . S
O767 Cd757 2.240 . S
O767 C765 1.279 . S
O768 Cd758 2.297 . S
O768 C763 1.247 . S
O769 Cd758 2.439 . S
O769 C763 1.208 . S
O770 Cd771 2.223 . S
O770 C778 1.315 . S
Cd771 O770 2.223 . S
Cd771 O774 2.297 . S
Cd771 O775 2.439 . S
Cd771 O781 2.240 . S
Cd772 O773 2.240 . S
Cd772 O780 2.223 . S
Cd772 O782 2.297 . S
Cd772 O783 2.439 . S
O773 Cd772 2.240 . S
O773 C778 1.279 . S
O774 Cd771 2.297 . S
O774 C776 1.247 . S
O775 Cd771 2.439 . S
O775 C776 1.208 . S
C776 O774 1.247 . S
C776 O775 1.208 . S
C777 O782 1.247 . S
C777 O783 1.208 . S
C778 O770 1.315 . S
C778 O773 1.279 . S
C779 O780 1.315 . S
C779 O781 1.279 . S
O780 Cd772 2.223 . S
O780 C779 1.315 . S
O781 Cd771 2.240 . S
O781 C779 1.279 . S
O782 Cd772 2.297 . S
O782 C777 1.247 . S
O783 Cd772 2.439 . S
O783 C777 1.208 . S
O784 Cd785 2.223 . S
O784 C792 1.315 . S
Cd785 O784 2.223 . S
Cd785 O788 2.297 . S
Cd785 O789 2.439 . S
Cd785 O795 2.240 . S
Cd786 O787 2.240 . S
Cd786 O794 2.223 . S
Cd786 O796 2.297 . S
Cd786 O797 2.439 . S
O787 Cd786 2.240 . S
O787 C792 1.279 . S
O788 Cd785 2.297 . S
O788 C790 1.247 . S
O789 Cd785 2.439 . S
O789 C790 1.208 . S
C790 O788 1.247 . S
C790 O789 1.208 . S
C791 O796 1.247 . S
C791 O797 1.208 . S
C792 O784 1.315 . S
C792 O787 1.279 . S
C793 O794 1.315 . S
C793 O795 1.279 . S
O794 Cd786 2.223 . S
O794 C793 1.315 . S
O795 Cd785 2.240 . S
O795 C793 1.279 . S
O796 Cd786 2.297 . S
O796 C791 1.247 . S
O797 Cd786 2.439 . S
O797 C791 1.208 . S
O798 Cd799 2.223 . S
O798 C806 1.315 . S
Cd799 O798 2.223 . S
Cd799 O802 2.297 . S
Cd799 O803 2.439 . S
Cd799 O809 2.240 . S
Cd800 O801 2.240 . S
Cd800 O808 2.223 . S
Cd800 O810 2.297 . S
Cd800 O811 2.439 . S
O801 Cd800 2.240 . S
O801 C806 1.279 . S
O802 Cd799 2.297 . S
O802 C804 1.247 . S
O803 Cd799 2.439 . S
O803 C804 1.208 . S
C804 O802 1.247 . S
C804 O803 1.208 . S
C805 O810 1.247 . S
C805 O811 1.208 . S
C806 O798 1.315 . S
C806 O801 1.279 . S
C807 O808 1.315 . S
C807 O809 1.279 . S
O808 Cd800 2.223 . S
O808 C807 1.315 . S
O809 Cd799 2.240 . S
O809 C807 1.279 . S
O810 Cd800 2.297 . S
O810 C805 1.247 . S
O811 Cd800 2.439 . S
O811 C805 1.208 . S
O812 Cd813 2.223 . S
O812 C820 1.315 . S
Cd813 O812 2.223 . S
Cd813 O816 2.297 . S
Cd813 O817 2.439 . S
Cd813 O823 2.240 . S
Cd814 O815 2.240 . S
Cd814 O822 2.223 . S
Cd814 O824 2.297 . S
Cd814 O825 2.439 . S
O815 Cd814 2.240 . S
O815 C820 1.279 . S
O816 Cd813 2.297 . S
O816 C818 1.247 . S
O817 Cd813 2.439 . S
O817 C818 1.208 . S
C818 O816 1.247 . S
C818 O817 1.208 . S
C819 O824 1.247 . S
C819 O825 1.208 . S
C820 O812 1.315 . S
C820 O815 1.279 . S
C821 O822 1.315 . S
C821 O823 1.279 . S
O822 Cd814 2.223 . S
O822 C821 1.315 . S
O823 Cd813 2.240 . S
O823 C821 1.279 . S
O824 Cd814 2.297 . S
O824 C819 1.247 . S
O825 Cd814 2.439 . S
O825 C819 1.208 . S
O826 Cd827 2.223 . S
O826 C834 1.315 . S
Cd827 O826 2.223 . S
Cd827 O830 2.297 . S
Cd827 O831 2.439 . S
Cd827 O837 2.240 . S
Cd828 O829 2.240 . S
Cd828 O836 2.223 . S
Cd828 O838 2.297 . S
Cd828 O839 2.439 . S
O829 Cd828 2.240 . S
O829 C834 1.279 . S
O830 Cd827 2.297 . S
O830 C832 1.247 . S
O831 Cd827 2.439 . S
O831 C832 1.208 . S
C832 O830 1.247 . S
C832 O831 1.208 . S
C833 O838 1.247 . S
C833 O839 1.208 . S
C834 O826 1.315 . S
C834 O829 1.279 . S
C835 O836 1.315 . S
C835 O837 1.279 . S
O836 Cd828 2.223 . S
O836 C835 1.315 . S
O837 Cd827 2.240 . S
O837 C835 1.279 . S
O838 Cd828 2.297 . S
O838 C833 1.247 . S
O839 Cd828 2.439 . S
O839 C833 1.208 . S
O840 Cd841 2.223 . S
O840 C848 1.315 . S
Cd841 O840 2.223 . S
Cd841 O844 2.297 . S
Cd841 O845 2.439 . S
Cd841 O851 2.240 . S
Cd842 O843 2.240 . S
Cd842 O850 2.223 . S
Cd842 O852 2.297 . S
Cd842 O853 2.439 . S
O843 Cd842 2.240 . S
O843 C848 1.279 . S
O844 Cd841 2.297 . S
O844 C846 1.247 . S
O845 Cd841 2.439 . S
O845 C846 1.208 . S
C846 O844 1.247 . S
C846 O845 1.208 . S
C847 O852 1.247 . S
C847 O853 1.208 . S
C848 O840 1.315 . S
C848 O843 1.279 . S
C849 O850 1.315 . S
C849 O851 1.279 . S
O850 Cd842 2.223 . S
O850 C849 1.315 . S
O851 Cd841 2.240 . S
O851 C849 1.279 . S
O852 Cd842 2.297 . S
O852 C847 1.247 . S
O853 Cd842 2.439 . S
O853 C847 1.208 . S
O854 Cd855 2.223 . S
O854 C862 1.315 . S
Cd855 O854 2.223 . S
Cd855 O858 2.297 . S
Cd855 O859 2.439 . S
Cd855 O865 2.240 . S
Cd856 O857 2.240 . S
Cd856 O864 2.223 . S
Cd856 O866 2.297 . S
Cd856 O867 2.439 . S
O857 Cd856 2.240 . S
O857 C862 1.279 . S
O858 Cd855 2.297 . S
O858 C860 1.247 . S
O859 Cd855 2.439 . S
O859 C860 1.208 . S
C860 O858 1.247 . S
C860 O859 1.208 . S
C861 O866 1.247 . S
C861 O867 1.208 . S
C862 O854 1.315 . S
C862 O857 1.279 . S
C863 O864 1.315 . S
C863 O865 1.279 . S
O864 Cd856 2.223 . S
O864 C863 1.315 . S
O865 Cd855 2.240 . S
O865 C863 1.279 . S
O866 Cd856 2.297 . S
O866 C861 1.247 . S
O867 Cd856 2.439 . S
O867 C861 1.208 . S
O868 Cd869 2.223 . S
O868 C876 1.315 . S
Cd869 O868 2.223 . S
Cd869 O872 2.297 . S
Cd869 O873 2.439 . S
Cd869 O879 2.240 . S
Cd870 O871 2.240 . S
Cd870 O878 2.223 . S
Cd870 O880 2.297 . S
Cd870 O881 2.439 . S
O871 Cd870 2.240 . S
O871 C876 1.279 . S
O872 Cd869 2.297 . S
O872 C874 1.247 . S
O873 Cd869 2.439 . S
O873 C874 1.208 . S
C874 O872 1.247 . S
C874 O873 1.208 . S
C875 O880 1.247 . S
C875 O881 1.208 . S
C876 O868 1.315 . S
C876 O871 1.279 . S
C877 O878 1.315 . S
C877 O879 1.279 . S
O878 Cd870 2.223 . S
O878 C877 1.315 . S
O879 Cd869 2.240 . S
O879 C877 1.279 . S
O880 Cd870 2.297 . S
O880 C875 1.247 . S
O881 Cd870 2.439 . S
O881 C875 1.208 . S
O882 Cd883 2.223 . S
O882 C890 1.315 . S
Cd883 O882 2.223 . S
Cd883 O886 2.297 . S
Cd883 O887 2.439 . S
Cd883 O893 2.240 . S
Cd884 O885 2.240 . S
Cd884 O892 2.223 . S
Cd884 O894 2.297 . S
Cd884 O895 2.439 . S
O885 Cd884 2.240 . S
O885 C890 1.279 . S
O886 Cd883 2.297 . S
O886 C888 1.247 . S
O887 Cd883 2.439 . S
O887 C888 1.208 . S
C888 O886 1.247 . S
C888 O887 1.208 . S
C889 O894 1.247 . S
C889 O895 1.208 . S
C890 O882 1.315 . S
C890 O885 1.279 . S
C891 O892 1.315 . S
C891 O893 1.279 . S
O892 Cd884 2.223 . S
O892 C891 1.315 . S
O893 Cd883 2.240 . S
O893 C891 1.279 . S
O894 Cd884 2.297 . S
O894 C889 1.247 . S
O895 Cd884 2.439 . S
O895 C889 1.208 . S
O896 Cd897 2.223 . S
O896 C904 1.315 . S
Cd897 O896 2.223 . S
Cd897 O900 2.297 . S
Cd897 O901 2.439 . S
Cd897 O907 2.240 . S
Cd898 O899 2.240 . S
Cd898 O906 2.223 . S
Cd898 O908 2.297 . S
Cd898 O909 2.439 . S
O899 Cd898 2.240 . S
O899 C904 1.279 . S
O900 Cd897 2.297 . S
O900 C902 1.247 . S
O901 Cd897 2.439 . S
O901 C902 1.208 . S
C902 O900 1.247 . S
C902 O901 1.208 . S
C903 O908 1.247 . S
C903 O909 1.208 . S
C904 O896 1.315 . S
C904 O899 1.279 . S
C905 O906 1.315 . S
C905 O907 1.279 . S
O906 Cd898 2.223 . S
O906 C905 1.315 . S
O907 Cd897 2.240 . S
O907 C905 1.279 . S
O908 Cd898 2.297 . S
O908 C903 1.247 . S
O909 Cd898 2.439 . S
O909 C903 1.208 . S
O910 Cd911 2.223 . S
O910 C918 1.315 . S
Cd911 O910 2.223 . S
Cd911 O914 2.297 . S
Cd911 O915 2.439 . S
Cd911 O921 2.240 . S
Cd912 O913 2.240 . S
Cd912 O920 2.223 . S
Cd912 O922 2.297 . S
Cd912 O923 2.439 . S
O913 Cd912 2.240 . S
O913 C918 1.279 . S
O914 Cd911 2.297 . S
O914 C916 1.247 . S
O915 Cd911 2.439 . S
O915 C916 1.208 . S
C916 O914 1.247 . S
C916 O915 1.208 . S
C917 O922 1.247 . S
C917 O923 1.208 . S
C918 O910 1.315 . S
C918 O913 1.279 . S
C919 O920 1.315 . S
C919 O921 1.279 . S
O920 Cd912 2.223 . S
O920 C919 1.315 . S
O921 Cd911 2.240 . S
O921 C919 1.279 . S
O922 Cd912 2.297 . S
O922 C917 1.247 . S
O923 Cd912 2.439 . S
O923 C917 1.208 . S
O924 Cd925 2.223 . S
O924 C932 1.315 . S
Cd925 O924 2.223 . S
Cd925 O928 2.297 . S
Cd925 O929 2.439 . S
Cd925 O935 2.240 . S
Cd926 O927 2.240 . S
Cd926 O934 2.223 . S
Cd926 O936 2.297 . S
Cd926 O937 2.439 . S
O927 Cd926 2.240 . S
O927 C932 1.279 . S
O928 Cd925 2.297 . S
O928 C930 1.247 . S
O929 Cd925 2.439 . S
O929 C930 1.208 . S
C930 O928 1.247 . S
C930 O929 1.208 . S
C931 O936 1.247 . S
C931 O937 1.208 . S
C932 O924 1.315 . S
C932 O927 1.279 . S
C933 O934 1.315 . S
C933 O935 1.279 . S
O934 Cd926 2.223 . S
O934 C933 1.315 . S
O935 Cd925 2.240 . S
O935 C933 1.279 . S
O936 Cd926 2.297 . S
O936 C931 1.247 . S
O937 Cd926 2.439 . S
O937 C931 1.208 . S
O938 Cd939 2.223 . S
O938 C946 1.315 . S
Cd939 O938 2.223 . S
Cd939 O942 2.297 . S
Cd939 O943 2.439 . S
Cd939 O949 2.240 . S
Cd940 O941 2.240 . S
Cd940 O948 2.223 . S
Cd940 O950 2.297 . S
Cd940 O951 2.439 . S
O941 Cd940 2.240 . S
O941 C946 1.279 . S
O942 Cd939 2.297 . S
O942 C944 1.247 . S
O943 Cd939 2.439 . S
O943 C944 1.208 . S
C944 O942 1.247 . S
C944 O943 1.208 . S
C945 O950 1.247 . S
C945 O951 1.208 . S
C946 O938 1.315 . S
C946 O941 1.279 . S
C947 O948 1.315 . S
C947 O949 1.279 . S
O948 Cd940 2.223 . S
O948 C947 1.315 . S
O949 Cd939 2.240 . S
O949 C947 1.279 . S
O950 Cd940 2.297 . S
O950 C945 1.247 . S
O951 Cd940 2.439 . S
O951 C945 1.208 . S
O952 Cd953 2.223 . S
O952 C960 1.315 . S
Cd953 O952 2.223 . S
Cd953 O956 2.297 . S
Cd953 O957 2.439 . S
Cd953 O963 2.240 . S
Cd954 O955 2.240 . S
Cd954 O962 2.223 . S
Cd954 O964 2.297 . S
Cd954 O965 2.439 . S
O955 Cd954 2.240 . S
O955 C960 1.279 . S
O956 Cd953 2.297 . S
O956 C958 1.247 . S
O957 Cd953 2.439 . S
O957 C958 1.208 . S
C958 O956 1.247 . S
C958 O957 1.208 . S
C959 O964 1.247 . S
C959 O965 1.208 . S
C960 O952 1.315 . S
C960 O955 1.279 . S
C961 O962 1.315 . S
C961 O963 1.279 . S
O962 Cd954 2.223 . S
O962 C961 1.315 . S
O963 Cd953 2.240 . S
O963 C961 1.279 . S
O964 Cd954 2.297 . S
O964 C959 1.247 . S
O965 Cd954 2.439 . S
O965 C959 1.208 . S
O966 Cd967 2.223 . S
O966 C974 1.315 . S
Cd967 O966 2.223 . S
Cd967 O970 2.297 . S
Cd967 O971 2.439 . S
Cd967 O977 2.240 . S
Cd968 O969 2.240 . S
Cd968 O976 2.223 . S
Cd968 O978 2.297 . S
Cd968 O979 2.439 . S
O969 Cd968 2.240 . S
O969 C974 1.279 . S
O970 Cd967 2.297 . S
O970 C972 1.247 . S
O971 Cd967 2.439 . S
O971 C972 1.208 . S
C972 O970 1.247 . S
C972 O971 1.208 . S
C973 O978 1.247 . S
C973 O979 1.208 . S
C974 O966 1.315 . S
C974 O969 1.279 . S
C975 O976 1.315 . S
C975 O977 1.279 . S
O976 Cd968 2.223 . S
O976 C975 1.315 . S
O977 Cd967 2.240 . S
O977 C975 1.279 . S
O978 Cd968 2.297 . S
O978 C973 1.247 . S
O979 Cd968 2.439 . S
O979 C973 1.208 . S
O980 Cd981 2.223 . S
O980 C988 1.315 . S
Cd981 O980 2.223 . S
Cd981 O984 2.297 . S
Cd981 O985 2.439 . S
Cd981 O991 2.240 . S
Cd982 O983 2.240 . S
Cd982 O990 2.223 . S
Cd982 O992 2.297 . S
Cd982 O993 2.439 . S
O983 Cd982 2.240 . S
O983 C988 1.279 . S
O984 Cd981 2.297 . S
O984 C986 1.247 . S
O985 Cd981 2.439 . S
O985 C986 1.208 . S
C986 O984 1.247 . S
C986 O985 1.208 . S
C987 O992 1.247 . S
C987 O993 1.208 . S
C988 O980 1.315 . S
C988 O983 1.279 . S
C989 O990 1.315 . S
C989 O991 1.279 . S
O990 Cd982 2.223 . S
O990 C989 1.315 . S
O991 Cd981 2.240 . S
O991 C989 1.279 . S
O992 Cd982 2.297 . S
O992 C987 1.247 . S
O993 Cd982 2.439 . S
O993 C987 1.208 . S
O994 Cd995 2.223 . S
O994 C1002 1.315 . S
Cd995 O994 2.223 . S
Cd995 O998 2.297 . S
Cd995 O999 2.439 . S
Cd995 O1005 2.240 . S
Cd996 O997 2.240 . S
Cd996 O1004 2.223 . S
Cd996 O1006 2.297 . S
Cd996 O1007 2.439 . S
O997 Cd996 2.240 . S
O997 C1002 1.279 . S
O998 Cd995 2.297 . S
O998 C1000 1.247 . S
O999 Cd995 2.439 . S
O999 C1000 1.208 . S
C1000 O998 1.247 . S
C1000 O999 1.208 . S
C1001 O1006 1.247 . S
C1001 O1007 1.208 . S
C1002 O994 1.315 . S
C1002 O997 1.279 . S
C1003 O1004 1.315 . S
C1003 O1005 1.279 . S
O1004 Cd996 2.223 . S
O1004 C1003 1.315 . S
O1005 Cd995 2.240 . S
O1005 C1003 1.279 . S
O1006 Cd996 2.297 . S
O1006 C1001 1.247 . S
O1007 Cd996 2.439 . S
O1007 C1001 1.208 . S
O1008 Cd1009 2.223 . S
O1008 C1016 1.315 . S
Cd1009 O1008 2.223 . S
Cd1009 O1012 2.297 . S
Cd1009 O1013 2.439 . S
Cd1009 O1019 2.240 . S
Cd1010 O1011 2.240 . S
Cd1010 O1018 2.223 . S
Cd1010 O1020 2.297 . S
Cd1010 O1021 2.439 . S
O1011 Cd1010 2.240 . S
O1011 C1016 1.279 . S
O1012 Cd1009 2.297 . S
O1012 C1014 1.247 . S
O1013 Cd1009 2.439 . S
O1013 C1014 1.208 . S
C1014 O1012 1.247 . S
C1014 O1013 1.208 . S
C1015 O1020 1.247 . S
C1015 O1021 1.208 . S
C1016 O1008 1.315 . S
C1016 O1011 1.279 . S
C1017 O1018 1.315 . S
C1017 O1019 1.279 . S
O1018 Cd1010 2.223 . S
O1018 C1017 1.315 . S
O1019 Cd1009 2.240 . S
O1019 C1017 1.279 . S
O1020 Cd1010 2.297 . S
O1020 C1015 1.247 . S
O1021 Cd1010 2.439 . S
O1021 C1015 1.208 . S
O1022 Cd1023 2.223 . S
O1022 C1030 1.315 . S
Cd1023 O1022 2.223 . S
Cd1023 O1026 2.297 . S
Cd1023 O1027 2.439 . S
Cd1023 O1033 2.240 . S
Cd1024 O1025 2.240 . S
Cd1024 O1032 2.223 . S
Cd1024 O1034 2.297 . S
Cd1024 O1035 2.439 . S
O1025 Cd1024 2.240 . S
O1025 C1030 1.279 . S
O1026 Cd1023 2.297 . S
O1026 C1028 1.247 . S
O1027 Cd1023 2.439 . S
O1027 C1028 1.208 . S
C1028 O1026 1.247 . S
C1028 O1027 1.208 . S
C1029 O1034 1.247 . S
C1029 O1035 1.208 . S
C1030 O1022 1.315 . S
C1030 O1025 1.279 . S
C1031 O1032 1.315 . S
C1031 O1033 1.279 . S
O1032 Cd1024 2.223 . S
O1032 C1031 1.315 . S
O1033 Cd1023 2.240 . S
O1033 C1031 1.279 . S
O1034 Cd1024 2.297 . S
O1034 C1029 1.247 . S
O1035 Cd1024 2.439 . S
O1035 C1029 1.208 . S
O1036 Cd1037 2.223 . S
O1036 C1044 1.315 . S
Cd1037 O1036 2.223 . S
Cd1037 O1040 2.297 . S
Cd1037 O1041 2.439 . S
Cd1037 O1047 2.240 . S
Cd1038 O1039 2.240 . S
Cd1038 O1046 2.223 . S
Cd1038 O1048 2.297 . S
Cd1038 O1049 2.439 . S
O1039 Cd1038 2.240 . S
O1039 C1044 1.279 . S
O1040 Cd1037 2.297 . S
O1040 C1042 1.247 . S
O1041 Cd1037 2.439 . S
O1041 C1042 1.208 . S
C1042 O1040 1.247 . S
C1042 O1041 1.208 . S
C1043 O1048 1.247 . S
C1043 O1049 1.208 . S
C1044 O1036 1.315 . S
C1044 O1039 1.279 . S
C1045 O1046 1.315 . S
C1045 O1047 1.279 . S
O1046 Cd1038 2.223 . S
O1046 C1045 1.315 . S
O1047 Cd1037 2.240 . S
O1047 C1045 1.279 . S
O1048 Cd1038 2.297 . S
O1048 C1043 1.247 . S
O1049 Cd1038 2.439 . S
O1049 C1043 1.208 . S
O1050 Cd1051 2.223 . S
O1050 C1058 1.315 . S
Cd1051 O1050 2.223 . S
Cd1051 O1054 2.297 . S
Cd1051 O1055 2.439 . S
Cd1051 O1061 2.240 . S
Cd1052 O1053 2.240 . S
Cd1052 O1060 2.223 . S
Cd1052 O1062 2.297 . S
Cd1052 O1063 2.439 . S
O1053 Cd1052 2.240 . S
O1053 C1058 1.279 . S
O1054 Cd1051 2.297 . S
O1054 C1056 1.247 . S
O1055 Cd1051 2.439 . S
O1055 C1056 1.208 . S
C1056 O1054 1.247 . S
C1056 O1055 1.208 . S
C1057 O1062 1.247 . S
C1057 O1063 1.208 . S
C1058 O1050 1.315 . S
C1058 O1053 1.279 . S
C1059 O1060 1.315 . S
C1059 O1061 1.279 . S
O1060 Cd1052 2.223 . S
O1060 C1059 1.315 . S
O1061 Cd1051 2.240 . S
O1061 C1059 1.279 . S
O1062 Cd1052 2.297 . S
O1062 C1057 1.247 . S
O1063 Cd1052 2.439 . S
O1063 C1057 1.208 . S
O1064 Cd1065 2.223 . S
O1064 C1072 1.315 . S
Cd1065 O1064 2.223 . S
Cd1065 O1068 2.297 . S
Cd1065 O1069 2.439 . S
Cd1065 O1075 2.240 . S
Cd1066 O1067 2.240 . S
Cd1066 O1074 2.223 . S
Cd1066 O1076 2.297 . S
Cd1066 O1077 2.439 . S
O1067 Cd1066 2.240 . S
O1067 C1072 1.279 . S
O1068 Cd1065 2.297 . S
O1068 C1070 1.247 . S
O1069 Cd1065 2.439 . S
O1069 C1070 1.208 . S
C1070 O1068 1.247 . S
C1070 O1069 1.208 . S
C1071 O1076 1.247 . S
C1071 O1077 1.208 . S
C1072 O1064 1.315 . S
C1072 O1067 1.279 . S
C1073 O1074 1.315 . S
C1073 O1075 1.279 . S
O1074 Cd1066 2.223 . S
O1074 C1073 1.315 . S
O1075 Cd1065 2.240 . S
O1075 C1073 1.279 . S
O1076 Cd1066 2.297 . S
O1076 C1071 1.247 . S
O1077 Cd1066 2.439 . S
O1077 C1071 1.208 . S
O1078 Cd1079 2.223 . S
O1078 C1086 1.315 . S
Cd1079 O1078 2.223 . S
Cd1079 O1082 2.297 . S
Cd1079 O1083 2.439 . S
Cd1079 O1089 2.240 . S
Cd1080 O1081 2.240 . S
Cd1080 O1088 2.223 . S
Cd1080 O1090 2.297 . S
Cd1080 O1091 2.439 . S
O1081 Cd1080 2.240 . S
O1081 C1086 1.279 . S
O1082 Cd1079 2.297 . S
O1082 C1084 1.247 . S
O1083 Cd1079 2.439 . S
O1083 C1084 1.208 . S
C1084 O1082 1.247 . S
C1084 O1083 1.208 . S
C1085 O1090 1.247 . S
C1085 O1091 1.208 . S
C1086 O1078 1.315 . S
C1086 O1081 1.279 . S
C1087 O1088 1.315 . S
C1087 O1089 1.279 . S
O1088 Cd1080 2.223 . S
O1088 C1087 1.315 . S
O1089 Cd1079 2.240 . S
O1089 C1087 1.279 . S
O1090 Cd1080 2.297 . S
O1090 C1085 1.247 . S
O1091 Cd1080 2.439 . S
O1091 C1085 1.208 . S
O1092 Cd1093 2.223 . S
O1092 C1100 1.315 . S
Cd1093 O1092 2.223 . S
Cd1093 O1096 2.297 . S
Cd1093 O1097 2.439 . S
Cd1093 O1103 2.240 . S
Cd1094 O1095 2.240 . S
Cd1094 O1102 2.223 . S
Cd1094 O1104 2.297 . S
Cd1094 O1105 2.439 . S
O1095 Cd1094 2.240 . S
O1095 C1100 1.279 . S
O1096 Cd1093 2.297 . S
O1096 C1098 1.247 . S
O1097 Cd1093 2.439 . S
O1097 C1098 1.208 . S
C1098 O1096 1.247 . S
C1098 O1097 1.208 . S
C1099 O1104 1.247 . S
C1099 O1105 1.208 . S
C1100 O1092 1.315 . S
C1100 O1095 1.279 . S
C1101 O1102 1.315 . S
C1101 O1103 1.279 . S
O1102 Cd1094 2.223 . S
O1102 C1101 1.315 . S
O1103 Cd1093 2.240 . S
O1103 C1101 1.279 . S
O1104 Cd1094 2.297 . S
O1104 C1099 1.247 . S
O1105 Cd1094 2.439 . S
O1105 C1099 1.208 . S
O1106 Cd1107 2.223 . S
O1106 C1114 1.315 . S
Cd1107 O1106 2.223 . S
Cd1107 O1110 2.297 . S
Cd1107 O1111 2.439 . S
Cd1107 O1117 2.240 . S
Cd1108 O1109 2.240 . S
Cd1108 O1116 2.223 . S
Cd1108 O1118 2.297 . S
Cd1108 O1119 2.439 . S
O1109 Cd1108 2.240 . S
O1109 C1114 1.279 . S
O1110 Cd1107 2.297 . S
O1110 C1112 1.247 . S
O1111 Cd1107 2.439 . S
O1111 C1112 1.208 . S
C1112 O1110 1.247 . S
C1112 O1111 1.208 . S
C1113 O1118 1.247 . S
C1113 O1119 1.208 . S
C1114 O1106 1.315 . S
C1114 O1109 1.279 . S
C1115 O1116 1.315 . S
C1115 O1117 1.279 . S
O1116 Cd1108 2.223 . S
O1116 C1115 1.315 . S
O1117 Cd1107 2.240 . S
O1117 C1115 1.279 . S
O1118 Cd1108 2.297 . S
O1118 C1113 1.247 . S
O1119 Cd1108 2.439 . S
O1119 C1113 1.208 . S
O1120 Cd1121 2.223 . S
O1120 C1128 1.315 . S
Cd1121 O1120 2.223 . S
Cd1121 O1124 2.297 . S
Cd1121 O1125 2.439 . S
Cd1121 O1131 2.240 . S
Cd1122 O1123 2.240 . S
Cd1122 O1130 2.223 . S
Cd1122 O1132 2.297 . S
Cd1122 O1133 2.439 . S
O1123 Cd1122 2.240 . S
O1123 C1128 1.279 . S
O1124 Cd1121 2.297 . S
O1124 C1126 1.247 . S
O1125 Cd1121 2.439 . S
O1125 C1126 1.208 . S
C1126 O1124 1.247 . S
C1126 O1125 1.208 . S
C1127 O1132 1.247 . S
C1127 O1133 1.208 . S
C1128 O1120 1.315 . S
C1128 O1123 1.279 . S
C1129 O1130 1.315 . S
C1129 O1131 1.279 . S
O1130 Cd1122 2.223 . S
O1130 C1129 1.315 . S
O1131 Cd1121 2.240 . S
O1131 C1129 1.279 . S
O1132 Cd1122 2.297 . S
O1132 C1127 1.247 . S
O1133 Cd1122 2.439 . S
O1133 C1127 1.208 . S
O1134 Cd1135 2.223 . S
O1134 C1142 1.315 . S
Cd1135 O1134 2.223 . S
Cd1135 O1138 2.297 . S
Cd1135 O1139 2.439 . S
Cd1135 O1145 2.240 . S
Cd1136 O1137 2.240 . S
Cd1136 O1144 2.223 . S
Cd1136 O1146 2.297 . S
Cd1136 O1147 2.439 . S
O1137 Cd1136 2.240 . S
O1137 C1142 1.279 . S
O1138 Cd1135 2.297 . S
O1138 C1140 1.247 . S
O1139 Cd1135 2.439 . S
O1139 C1140 1.208 . S
C1140 O1138 1.247 . S
C1140 O1139 1.208 . S
C1141 O1146 1.247 . S
C1141 O1147 1.208 . S
C1142 O1134 1.315 . S
C1142 O1137 1.279 . S
C1143 O1144 1.315 . S
C1143 O1145 1.279 . S
O1144 Cd1136 2.223 . S
O1144 C1143 1.315 . S
O1145 Cd1135 2.240 . S
O1145 C1143 1.279 . S
O1146 Cd1136 2.297 . S
O1146 C1141 1.247 . S
O1147 Cd1136 2.439 . S
O1147 C1141 1.208 . S
O1148 Cd1149 2.223 . S
O1148 C1156 1.315 . S
Cd1149 O1148 2.223 . S
Cd1149 O1152 2.297 . S
Cd1149 O1153 2.439 . S
Cd1149 O1159 2.240 . S
Cd1150 O1151 2.240 . S
Cd1150 O1158 2.223 . S
Cd1150 O1160 2.297 . S
Cd1150 O1161 2.439 . S
O1151 Cd1150 2.240 . S
O1151 C1156 1.279 . S
O1152 Cd1149 2.297 . S
O1152 C1154 1.247 . S
O1153 Cd1149 2.439 . S
O1153 C1154 1.208 . S
C1154 O1152 1.247 . S
C1154 O1153 1.208 . S
C1155 O1160 1.247 . S
C1155 O1161 1.208 . S
C1156 O1148 1.315 . S
C1156 O1151 1.279 . S
C1157 O1158 1.315 . S
C1157 O1159 1.279 . S
O1158 Cd1150 2.223 . S
O1158 C1157 1.315 . S
O1159 Cd1149 2.240 . S
O1159 C1157 1.279 . S
O1160 Cd1150 2.297 . S
O1160 C1155 1.247 . S
O1161 Cd1150 2.439 . S
O1161 C1155 1.208 . S
O1162 Cd1163 2.223 . S
O1162 C1170 1.315 . S
Cd1163 O1162 2.223 . S
Cd1163 O1166 2.297 . S
Cd1163 O1167 2.439 . S
Cd1163 O1173 2.240 . S
Cd1164 O1165 2.240 . S
Cd1164 O1172 2.223 . S
Cd1164 O1174 2.297 . S
Cd1164 O1175 2.439 . S
O1165 Cd1164 2.240 . S
O1165 C1170 1.279 . S
O1166 Cd1163 2.297 . S
O1166 C1168 1.247 . S
O1167 Cd1163 2.439 . S
O1167 C1168 1.208 . S
C1168 O1166 1.247 . S
C1168 O1167 1.208 . S
C1169 O1174 1.247 . S
C1169 O1175 1.208 . S
C1170 O1162 1.315 . S
C1170 O1165 1.279 . S
C1171 O1172 1.315 . S
C1171 O1173 1.279 . S
O1172 Cd1164 2.223 . S
O1172 C1171 1.315 . S
O1173 Cd1163 2.240 . S
O1173 C1171 1.279 . S
O1174 Cd1164 2.297 . S
O1174 C1169 1.247 . S
O1175 Cd1164 2.439 . S
O1175 C1169 1.208 . S
O1176 Cd1177 2.223 . S
O1176 C1184 1.315 . S
Cd1177 O1176 2.223 . S
Cd1177 O1180 2.297 . S
Cd1177 O1181 2.439 . S
Cd1177 O1187 2.240 . S
Cd1178 O1179 2.240 . S
Cd1178 O1186 2.223 . S
Cd1178 O1188 2.297 . S
Cd1178 O1189 2.439 . S
O1179 Cd1178 2.240 . S
O1179 C1184 1.279 . S
O1180 Cd1177 2.297 . S
O1180 C1182 1.247 . S
O1181 Cd1177 2.439 . S
O1181 C1182 1.208 . S
C1182 O1180 1.247 . S
C1182 O1181 1.208 . S
C1183 O1188 1.247 . S
C1183 O1189 1.208 . S
C1184 O1176 1.315 . S
C1184 O1179 1.279 . S
C1185 O1186 1.315 . S
C1185 O1187 1.279 . S
O1186 Cd1178 2.223 . S
O1186 C1185 1.315 . S
O1187 Cd1177 2.240 . S
O1187 C1185 1.279 . S
O1188 Cd1178 2.297 . S
O1188 C1183 1.247 . S
O1189 Cd1178 2.439 . S
O1189 C1183 1.208 . S
O1190 Cd1191 2.223 . S
O1190 C1198 1.315 . S
Cd1191 O1190 2.223 . S
Cd1191 O1194 2.297 . S
Cd1191 O1195 2.439 . S
Cd1191 O1201 2.240 . S
Cd1192 O1193 2.240 . S
Cd1192 O1200 2.223 . S
Cd1192 O1202 2.297 . S
Cd1192 O1203 2.439 . S
O1193 Cd1192 2.240 . S
O1193 C1198 1.279 . S
O1194 Cd1191 2.297 . S
O1194 C1196 1.247 . S
O1195 Cd1191 2.439 . S
O1195 C1196 1.208 . S
C1196 O1194 1.247 . S
C1196 O1195 1.208 . S
C1197 O1202 1.247 . S
C1197 O1203 1.208 . S
C1198 O1190 1.315 . S
C1198 O1193 1.279 . S
C1199 O1200 1.315 . S
C1199 O1201 1.279 . S
O1200 Cd1192 2.223 . S
O1200 C1199 1.315 . S
O1201 Cd1191 2.240 . S
O1201 C1199 1.279 . S
O1202 Cd1192 2.297 . S
O1202 C1197 1.247 . S
O1203 Cd1192 2.439 . S
O1203 C1197 1.208 . S
O1204 Cd1205 2.223 . S
O1204 C1212 1.315 . S
Cd1205 O1204 2.223 . S
Cd1205 O1208 2.297 . S
Cd1205 O1209 2.439 . S
Cd1205 O1215 2.240 . S
Cd1206 O1207 2.240 . S
Cd1206 O1214 2.223 . S
Cd1206 O1216 2.297 . S
Cd1206 O1217 2.439 . S
O1207 Cd1206 2.240 . S
O1207 C1212 1.279 . S
O1208 Cd1205 2.297 . S
O1208 C1210 1.247 . S
O1209 Cd1205 2.439 . S
O1209 C1210 1.208 . S
C1210 O1208 1.247 . S
C1210 O1209 1.208 . S
C1211 O1216 1.247 . S
C1211 O1217 1.208 . S
C1212 O1204 1.315 . S
C1212 O1207 1.279 . S
C1213 O1214 1.315 . S
C1213 O1215 1.279 . S
O1214 Cd1206 2.223 . S
O1214 C1213 1.315 . S
O1215 Cd1205 2.240 . S
O1215 C1213 1.279 . S
O1216 Cd1206 2.297 . S
O1216 C1211 1.247 . S
O1217 Cd1206 2.439 . S
O1217 C1211 1.208 . S
O1218 Cd1219 2.223 . S
O1218 C1226 1.315 . S
Cd1219 O1218 2.223 . S
Cd1219 O1222 2.297 . S
Cd1219 O1223 2.439 . S
Cd1219 O1229 2.240 . S
Cd1220 O1221 2.240 . S
Cd1220 O1228 2.223 . S
Cd1220 O1230 2.297 . S
Cd1220 O1231 2.439 . S
O1221 Cd1220 2.240 . S
O1221 C1226 1.279 . S
O1222 Cd1219 2.297 . S
O1222 C1224 1.247 . S
O1223 Cd1219 2.439 . S
O1223 C1224 1.208 . S
C1224 O1222 1.247 . S
C1224 O1223 1.208 . S
C1225 O1230 1.247 . S
C1225 O1231 1.208 . S
C1226 O1218 1.315 . S
C1226 O1221 1.279 . S
C1227 O1228 1.315 . S
C1227 O1229 1.279 . S
O1228 Cd1220 2.223 . S
O1228 C1227 1.315 . S
O1229 Cd1219 2.240 . S
O1229 C1227 1.279 . S
O1230 Cd1220 2.297 . S
O1230 C1225 1.247 . S
O1231 Cd1220 2.439 . S
O1231 C1225 1.208 . S
O1232 Cd1233 2.223 . S
O1232 C1240 1.315 . S
Cd1233 O1232 2.223 . S
Cd1233 O1236 2.297 . S
Cd1233 O1237 2.439 . S
Cd1233 O1243 2.240 . S
Cd1234 O1235 2.240 . S
Cd1234 O1242 2.223 . S
Cd1234 O1244 2.297 . S
Cd1234 O1245 2.439 . S
O1235 Cd1234 2.240 . S
O1235 C1240 1.279 . S
O1236 Cd1233 2.297 . S
O1236 C1238 1.247 . S
O1237 Cd1233 2.439 . S
O1237 C1238 1.208 . S
C1238 O1236 1.247 . S
C1238 O1237 1.208 . S
C1239 O1244 1.247 . S
C1239 O1245 1.208 . S
C1240 O1232 1.315 . S
C1240 O1235 1.279 . S
C1241 O1242 1.315 . S
C1241 O1243 1.279 . S
O1242 Cd1234 2.223 . S
O1242 C1241 1.315 . S
O1243 Cd1233 2.240 . S
O1243 C1241 1.279 . S
O1244 Cd1234 2.297 . S
O1244 C1239 1.247 . S
O1245 Cd1234 2.439 . S
O1245 C1239 1.208 . S
O1246 Cd1247 2.223 . S
O1246 C1254 1.315 . S
Cd1247 O1246 2.223 . S
Cd1247 O1250 2.297 . S
Cd1247 O1251 2.439 . S
Cd1247 O1257 2.240 . S
Cd1248 O1249 2.240 . S
Cd1248 O1256 2.223 . S
Cd1248 O1258 2.297 . S
Cd1248 O1259 2.439 . S
O1249 Cd1248 2.240 . S
O1249 C1254 1.279 . S
O1250 Cd1247 2.297 . S
O1250 C1252 1.247 . S
O1251 Cd1247 2.439 . S
O1251 C1252 1.208 . S
C1252 O1250 1.247 . S
C1252 O1251 1.208 . S
C1253 O1258 1.247 . S
C1253 O1259 1.208 . S
C1254 O1246 1.315 . S
C1254 O1249 1.279 . S
C1255 O1256 1.315 . S
C1255 O1257 1.279 . S
O1256 Cd1248 2.223 . S
O1256 C1255 1.315 . S
O1257 Cd1247 2.240 . S
O1257 C1255 1.279 . S
O1258 Cd1248 2.297 . S
O1258 C1253 1.247 . S
O1259 Cd1248 2.439 . S
O1259 C1253 1.208 . S
O1260 Cd1261 2.223 . S
O1260 C1268 1.315 . S
Cd1261 O1260 2.223 . S
Cd1261 O1264 2.297 . S
Cd1261 O1265 2.439 . S
Cd1261 O1271 2.240 . S
Cd1262 O1263 2.240 . S
Cd1262 O1270 2.223 . S
Cd1262 O1272 2.297 . S
Cd1262 O1273 2.439 . S
O1263 Cd1262 2.240 . S
O1263 C1268 1.279 . S
O1264 Cd1261 2.297 . S
O1264 C1266 1.247 . S
O1265 Cd1261 2.439 . S
O1265 C1266 1.208 . S
C1266 O1264 1.247 . S
C1266 O1265 1.208 . S
C1267 O1272 1.247 . S
C1267 O1273 1.208 . S
C1268 O1260 1.315 . S
C1268 O1263 1.279 . S
C1269 O1270 1.315 . S
C1269 O1271 1.279 . S
O1270 Cd1262 2.223 . S
O1270 C1269 1.315 . S
O1271 Cd1261 2.240 . S
O1271 C1269 1.279 . S
O1272 Cd1262 2.297 . S
O1272 C1267 1.247 . S
O1273 Cd1262 2.439 . S
O1273 C1267 1.208 . S
O1274 Cd1275 2.223 . S
O1274 C1282 1.315 . S
Cd1275 O1274 2.223 . S
Cd1275 O1278 2.297 . S
Cd1275 O1279 2.439 . S
Cd1275 O1285 2.240 . S
Cd1276 O1277 2.240 . S
Cd1276 O1284 2.223 . S
Cd1276 O1286 2.297 . S
Cd1276 O1287 2.439 . S
O1277 Cd1276 2.240 . S
O1277 C1282 1.279 . S
O1278 Cd1275 2.297 . S
O1278 C1280 1.247 . S
O1279 Cd1275 2.439 . S
O1279 C1280 1.208 . S
C1280 O1278 1.247 . S
C1280 O1279 1.208 . S
C1281 O1286 1.247 . S
C1281 O1287 1.208 . S
C1282 O1274 1.315 . S
C1282 O1277 1.279 . S
C1283 O1284 1.315 . S
C1283 O1285 1.279 . S
O1284 Cd1276 2.223 . S
O1284 C1283 1.315 . S
O1285 Cd1275 2.240 . S
O1285 C1283 1.279 . S
O1286 Cd1276 2.297 . S
O1286 C1281 1.247 . S
O1287 Cd1276 2.439 . S
O1287 C1281 1.208 . S
O1288 Cd1289 2.223 . S
O1288 C1296 1.315 . S
Cd1289 O1288 2.223 . S
Cd1289 O1292 2.297 . S
Cd1289 O1293 2.439 . S
Cd1289 O1299 2.240 . S
Cd1290 O1291 2.240 . S
Cd1290 O1298 2.223 . S
Cd1290 O1300 2.297 . S
Cd1290 O1301 2.439 . S
O1291 Cd1290 2.240 . S
O1291 C1296 1.279 . S
O1292 Cd1289 2.297 . S
O1292 C1294 1.247 . S
O1293 Cd1289 2.439 . S
O1293 C1294 1.208 . S
C1294 O1292 1.247 . S
C1294 O1293 1.208 . S
C1295 O1300 1.247 . S
C1295 O1301 1.208 . S
C1296 O1288 1.315 . S
C1296 O1291 1.279 . S
C1297 O1298 1.315 . S
C1297 O1299 1.279 . S
O1298 Cd1290 2.223 . S
O1298 C1297 1.315 . S
O1299 Cd1289 2.240 . S
O1299 C1297 1.279 . S
O1300 Cd1290 2.297 . S
O1300 C1295 1.247 . S
O1301 Cd1290 2.439 . S
O1301 C1295 1.208 . S
O1302 Cd1303 2.223 . S
O1302 C1310 1.315 . S
Cd1303 O1302 2.223 . S
Cd1303 O1306 2.297 . S
Cd1303 O1307 2.439 . S
Cd1303 O1313 2.240 . S
Cd1304 O1305 2.240 . S
Cd1304 O1312 2.223 . S
Cd1304 O1314 2.297 . S
Cd1304 O1315 2.439 . S
O1305 Cd1304 2.240 . S
O1305 C1310 1.279 . S
O1306 Cd1303 2.297 . S
O1306 C1308 1.247 . S
O1307 Cd1303 2.439 . S
O1307 C1308 1.208 . S
C1308 O1306 1.247 . S
C1308 O1307 1.208 . S
C1309 O1314 1.247 . S
C1309 O1315 1.208 . S
C1310 O1302 1.315 . S
C1310 O1305 1.279 . S
C1311 O1312 1.315 . S
C1311 O1313 1.279 . S
O1312 Cd1304 2.223 . S
O1312 C1311 1.315 . S
O1313 Cd1303 2.240 . S
O1313 C1311 1.279 . S
O1314 Cd1304 2.297 . S
O1314 C1309 1.247 . S
O1315 Cd1304 2.439 . S
O1315 C1309 1.208 . S
O1316 Cd1317 2.223 . S
O1316 C1324 1.315 . S
Cd1317 O1316 2.223 . S
Cd1317 O1320 2.297 . S
Cd1317 O1321 2.439 . S
Cd1317 O1327 2.240 . S
Cd1318 O1319 2.240 . S
Cd1318 O1326 2.223 . S
Cd1318 O1328 2.297 . S
Cd1318 O1329 2.439 . S
O1319 Cd1318 2.240 . S
O1319 C1324 1.279 . S
O1320 Cd1317 2.297 . S
O1320 C1322 1.247 . S
O1321 Cd1317 2.439 . S
O1321 C1322 1.208 . S
C1322 O1320 1.247 . S
C1322 O1321 1.208 . S
C1323 O1328 1.247 . S
C1323 O1329 1.208 . S
C1324 O1316 1.315 . S
C1324 O1319 1.279 . S
C1325 O1326 1.315 . S
C1325 O1327 1.279 . S
O1326 Cd1318 2.223 . S
O1326 C1325 1.315 . S
O1327 Cd1317 2.240 . S
O1327 C1325 1.279 . S
O1328 Cd1318 2.297 . S
O1328 C1323 1.247 . S
O1329 Cd1318 2.439 . S
O1329 C1323 1.208 . S
O1330 Cd1331 2.223 . S
O1330 C1338 1.315 . S
Cd1331 O1330 2.223 . S
Cd1331 O1334 2.297 . S
Cd1331 O1335 2.439 . S
Cd1331 O1341 2.240 . S
Cd1332 O1333 2.240 . S
Cd1332 O1340 2.223 . S
Cd1332 O1342 2.297 . S
Cd1332 O1343 2.439 . S
O1333 Cd1332 2.240 . S
O1333 C1338 1.279 . S
O1334 Cd1331 2.297 . S
O1334 C1336 1.247 . S
O1335 Cd1331 2.439 . S
O1335 C1336 1.208 . S
C1336 O1334 1.247 . S
C1336 O1335 1.208 . S
C1337 O1342 1.247 . S
C1337 O1343 1.208 . S
C1338 O1330 1.315 . S
C1338 O1333 1.279 . S
C1339 O1340 1.315 . S
C1339 O1341 1.279 . S
O1340 Cd1332 2.223 . S
O1340 C1339 1.315 . S
O1341 Cd1331 2.240 . S
O1341 C1339 1.279 . S
O1342 Cd1332 2.297 . S
O1342 C1337 1.247 . S
O1343 Cd1332 2.439 . S
O1343 C1337 1.208 . S
C1344 C1345 1.369 . S
C1344 C1346 1.419 . S
C1344 H1348 0.930 . S
C1345 C1344 1.369 . S
C1345 C1354 1.429 . S
C1346 C1344 1.419 . S
C1346 C1347 1.363 . S
C1346 H1349 0.929 . S
C1347 C1346 1.363 . S
C1347 C1353 1.428 . S
H1348 C1344 0.930 . S
H1349 C1346 0.929 . S
S1350 N1351 1.613 . S
S1350 N1352 1.610 . S
N1351 S1350 1.613 . S
N1351 C1354 1.350 . S
N1352 S1350 1.610 . S
N1352 C1353 1.351 . S
C1353 C1347 1.428 . S
C1353 N1352 1.351 . S
C1353 C1354 1.434 . S
C1354 C1345 1.429 . S
C1354 N1351 1.350 . S
C1354 C1353 1.434 . S
C1355 C1356 1.369 . S
C1355 C1357 1.419 . S
C1355 H1359 0.930 . S
C1356 C1355 1.369 . S
C1356 C1365 1.429 . S
C1357 C1355 1.419 . S
C1357 C1358 1.363 . S
C1357 H1360 0.929 . S
C1358 C1357 1.363 . S
C1358 C1364 1.428 . S
H1359 C1355 0.930 . S
H1360 C1357 0.929 . S
S1361 N1362 1.613 . S
S1361 N1363 1.610 . S
N1362 S1361 1.613 . S
N1362 C1365 1.350 . S
N1363 S1361 1.610 . S
N1363 C1364 1.351 . S
C1364 C1358 1.428 . S
C1364 N1363 1.351 . S
C1364 C1365 1.434 . S
C1365 C1356 1.429 . S
C1365 N1362 1.350 . S
C1365 C1364 1.434 . S
C1366 C1367 1.369 . S
C1366 C1368 1.419 . S
C1366 H1370 0.930 . S
C1367 C1366 1.369 . S
C1367 C1376 1.429 . S
C1368 C1366 1.419 . S
C1368 C1369 1.363 . S
C1368 H1371 0.929 . S
C1369 C1368 1.363 . S
C1369 C1375 1.428 . S
H1370 C1366 0.930 . S
H1371 C1368 0.929 . S
S1372 N1373 1.613 . S
S1372 N1374 1.610 . S
N1373 S1372 1.613 . S
N1373 C1376 1.350 . S
N1374 S1372 1.610 . S
N1374 C1375 1.351 . S
C1375 C1369 1.428 . S
C1375 N1374 1.351 . S
C1375 C1376 1.434 . S
C1376 C1367 1.429 . S
C1376 N1373 1.350 . S
C1376 C1375 1.434 . S
C1377 C1378 1.369 . S
C1377 C1379 1.419 . S
C1377 H1381 0.930 . S
C1378 C1377 1.369 . S
C1378 C1387 1.429 . S
C1379 C1377 1.419 . S
C1379 C1380 1.363 . S
C1379 H1382 0.929 . S
C1380 C1379 1.363 . S
C1380 C1386 1.428 . S
H1381 C1377 0.930 . S
H1382 C1379 0.929 . S
S1383 N1384 1.613 . S
S1383 N1385 1.610 . S
N1384 S1383 1.613 . S
N1384 C1387 1.350 . S
N1385 S1383 1.610 . S
N1385 C1386 1.351 . S
C1386 C1380 1.428 . S
C1386 N1385 1.351 . S
C1386 C1387 1.434 . S
C1387 C1378 1.429 . S
C1387 N1384 1.350 . S
C1387 C1386 1.434 . S
C1388 C1389 1.369 . S
C1388 C1390 1.419 . S
C1388 H1392 0.930 . S
C1389 C1388 1.369 . S
C1389 C1398 1.429 . S
C1390 C1388 1.419 . S
C1390 C1391 1.363 . S
C1390 H1393 0.929 . S
C1391 C1390 1.363 . S
C1391 C1397 1.428 . S
H1392 C1388 0.930 . S
H1393 C1390 0.929 . S
S1394 N1395 1.613 . S
S1394 N1396 1.610 . S
N1395 S1394 1.613 . S
N1395 C1398 1.350 . S
N1396 S1394 1.610 . S
N1396 C1397 1.351 . S
C1397 C1391 1.428 . S
C1397 N1396 1.351 . S
C1397 C1398 1.434 . S
C1398 C1389 1.429 . S
C1398 N1395 1.350 . S
C1398 C1397 1.434 . S
C1399 C1400 1.369 . S
C1399 C1401 1.419 . S
C1399 H1403 0.930 . S
C1400 C1399 1.369 . S
C1400 C1409 1.429 . S
C1401 C1399 1.419 . S
C1401 C1402 1.363 . S
C1401 H1404 0.929 . S
C1402 C1401 1.363 . S
C1402 C1408 1.428 . S
H1403 C1399 0.930 . S
H1404 C1401 0.929 . S
S1405 N1406 1.613 . S
S1405 N1407 1.610 . S
N1406 S1405 1.613 . S
N1406 C1409 1.350 . S
N1407 S1405 1.610 . S
N1407 C1408 1.351 . S
C1408 C1402 1.428 . S
C1408 N1407 1.351 . S
C1408 C1409 1.434 . S
C1409 C1400 1.429 . S
C1409 N1406 1.350 . S
C1409 C1408 1.434 . S
C1410 C1411 1.369 . S
C1410 C1412 1.419 . S
C1410 H1414 0.930 . S
C1411 C1410 1.369 . S
C1411 C1420 1.429 . S
C1412 C1410 1.419 . S
C1412 C1413 1.363 . S
C1412 H1415 0.929 . S
C1413 C1412 1.363 . S
C1413 C1419 1.428 . S
H1414 C1410 0.930 . S
H1415 C1412 0.929 . S
S1416 N1417 1.613 . S
S1416 N1418 1.610 . S
N1417 S1416 1.613 . S
N1417 C1420 1.350 . S
N1418 S1416 1.610 . S
N1418 C1419 1.351 . S
C1419 C1413 1.428 . S
C1419 N1418 1.351 . S
C1419 C1420 1.434 . S
C1420 C1411 1.429 . S
C1420 N1417 1.350 . S
C1420 C1419 1.434 . S
C1421 C1422 1.369 . S
C1421 C1423 1.419 . S
C1421 H1425 0.930 . S
C1422 C1421 1.369 . S
C1422 C1431 1.429 . S
C1423 C1421 1.419 . S
C1423 C1424 1.363 . S
C1423 H1426 0.929 . S
C1424 C1423 1.363 . S
C1424 C1430 1.428 . S
H1425 C1421 0.930 . S
H1426 C1423 0.929 . S
S1427 N1428 1.613 . S
S1427 N1429 1.610 . S
N1428 S1427 1.613 . S
N1428 C1431 1.350 . S
N1429 S1427 1.610 . S
N1429 C1430 1.351 . S
C1430 C1424 1.428 . S
C1430 N1429 1.351 . S
C1430 C1431 1.434 . S
C1431 C1422 1.429 . S
C1431 N1428 1.350 . S
C1431 C1430 1.434 . S
C1432 C1433 1.369 . S
C1432 C1434 1.419 . S
C1432 H1436 0.930 . S
C1433 C1432 1.369 . S
C1433 C1442 1.429 . S
C1434 C1432 1.419 . S
C1434 C1435 1.363 . S
C1434 H1437 0.929 . S
C1435 C1434 1.363 . S
C1435 C1441 1.428 . S
H1436 C1432 0.930 . S
H1437 C1434 0.929 . S
S1438 N1439 1.613 . S
S1438 N1440 1.610 . S
N1439 S1438 1.613 . S
N1439 C1442 1.350 . S
N1440 S1438 1.610 . S
N1440 C1441 1.351 . S
C1441 C1435 1.428 . S
C1441 N1440 1.351 . S
C1441 C1442 1.434 . S
C1442 C1433 1.429 . S
C1442 N1439 1.350 . S
C1442 C1441 1.434 . S
C1443 C1444 1.369 . S
C1443 C1445 1.419 . S
C1443 H1447 0.930 . S
C1444 C1443 1.369 . S
C1444 C1453 1.429 . S
C1445 C1443 1.419 . S
C1445 C1446 1.363 . S
C1445 H1448 0.929 . S
C1446 C1445 1.363 . S
C1446 C1452 1.428 . S
H1447 C1443 0.930 . S
H1448 C1445 0.929 . S
S1449 N1450 1.613 . S
S1449 N1451 1.610 . S
N1450 S1449 1.613 . S
N1450 C1453 1.350 . S
N1451 S1449 1.610 . S
N1451 C1452 1.351 . S
C1452 C1446 1.428 . S
C1452 N1451 1.351 . S
C1452 C1453 1.434 . S
C1453 C1444 1.429 . S
C1453 N1450 1.350 . S
C1453 C1452 1.434 . S
C1454 C1455 1.369 . S
C1454 C1456 1.419 . S
C1454 H1458 0.930 . S
C1455 C1454 1.369 . S
C1455 C1464 1.429 . S
C1456 C1454 1.419 . S
C1456 C1457 1.363 . S
C1456 H1459 0.929 . S
C1457 C1456 1.363 . S
C1457 C1463 1.428 . S
H1458 C1454 0.930 . S
H1459 C1456 0.929 . S
S1460 N1461 1.613 . S
S1460 N1462 1.610 . S
N1461 S1460 1.613 . S
N1461 C1464 1.350 . S
N1462 S1460 1.610 . S
N1462 C1463 1.351 . S
C1463 C1457 1.428 . S
C1463 N1462 1.351 . S
C1463 C1464 1.434 . S
C1464 C1455 1.429 . S
C1464 N1461 1.350 . S
C1464 C1463 1.434 . S
C1465 C1466 1.369 . S
C1465 C1467 1.419 . S
C1465 H1469 0.930 . S
C1466 C1465 1.369 . S
C1466 C1475 1.429 . S
C1467 C1465 1.419 . S
C1467 C1468 1.363 . S
C1467 H1470 0.929 . S
C1468 C1467 1.363 . S
C1468 C1474 1.428 . S
H1469 C1465 0.930 . S
H1470 C1467 0.929 . S
S1471 N1472 1.613 . S
S1471 N1473 1.610 . S
N1472 S1471 1.613 . S
N1472 C1475 1.350 . S
N1473 S1471 1.610 . S
N1473 C1474 1.351 . S
C1474 C1468 1.428 . S
C1474 N1473 1.351 . S
C1474 C1475 1.434 . S
C1475 C1466 1.429 . S
C1475 N1472 1.350 . S
C1475 C1474 1.434 . S
C1476 C1477 1.369 . S
C1476 C1478 1.419 . S
C1476 H1480 0.930 . S
C1477 C1476 1.369 . S
C1477 C1486 1.429 . S
C1478 C1476 1.419 . S
C1478 C1479 1.363 . S
C1478 H1481 0.929 . S
C1479 C1478 1.363 . S
C1479 C1485 1.428 . S
H1480 C1476 0.930 . S
H1481 C1478 0.929 . S
S1482 N1483 1.613 . S
S1482 N1484 1.610 . S
N1483 S1482 1.613 . S
N1483 C1486 1.350 . S
N1484 S1482 1.610 . S
N1484 C1485 1.351 . S
C1485 C1479 1.428 . S
C1485 N1484 1.351 . S
C1485 C1486 1.434 . S
C1486 C1477 1.429 . S
C1486 N1483 1.350 . S
C1486 C1485 1.434 . S
C1487 C1488 1.369 . S
C1487 C1489 1.419 . S
C1487 H1491 0.930 . S
C1488 C1487 1.369 . S
C1488 C1497 1.429 . S
C1489 C1487 1.419 . S
C1489 C1490 1.363 . S
C1489 H1492 0.929 . S
C1490 C1489 1.363 . S
C1490 C1496 1.428 . S
H1491 C1487 0.930 . S
H1492 C1489 0.929 . S
S1493 N1494 1.613 . S
S1493 N1495 1.610 . S
N1494 S1493 1.613 . S
N1494 C1497 1.350 . S
N1495 S1493 1.610 . S
N1495 C1496 1.351 . S
C1496 C1490 1.428 . S
C1496 N1495 1.351 . S
C1496 C1497 1.434 . S
C1497 C1488 1.429 . S
C1497 N1494 1.350 . S
C1497 C1496 1.434 . S
C1498 C1499 1.369 . S
C1498 C1500 1.419 . S
C1498 H1502 0.930 . S
C1499 C1498 1.369 . S
C1499 C1508 1.429 . S
C1500 C1498 1.419 . S
C1500 C1501 1.363 . S
C1500 H1503 0.929 . S
C1501 C1500 1.363 . S
C1501 C1507 1.428 . S
H1502 C1498 0.930 . S
H1503 C1500 0.929 . S
S1504 N1505 1.613 . S
S1504 N1506 1.610 . S
N1505 S1504 1.613 . S
N1505 C1508 1.350 . S
N1506 S1504 1.610 . S
N1506 C1507 1.351 . S
C1507 C1501 1.428 . S
C1507 N1506 1.351 . S
C1507 C1508 1.434 . S
C1508 C1499 1.429 . S
C1508 N1505 1.350 . S
C1508 C1507 1.434 . S
C1509 C1510 1.369 . S
C1509 C1511 1.419 . S
C1509 H1513 0.930 . S
C1510 C1509 1.369 . S
C1510 C1519 1.429 . S
C1511 C1509 1.419 . S
C1511 C1512 1.363 . S
C1511 H1514 0.929 . S
C1512 C1511 1.363 . S
C1512 C1518 1.428 . S
H1513 C1509 0.930 . S
H1514 C1511 0.929 . S
S1515 N1516 1.613 . S
S1515 N1517 1.610 . S
N1516 S1515 1.613 . S
N1516 C1519 1.350 . S
N1517 S1515 1.610 . S
N1517 C1518 1.351 . S
C1518 C1512 1.428 . S
C1518 N1517 1.351 . S
C1518 C1519 1.434 . S
C1519 C1510 1.429 . S
C1519 N1516 1.350 . S
C1519 C1518 1.434 . S
C1520 C1521 1.369 . S
C1520 C1522 1.419 . S
C1520 H1524 0.930 . S
C1521 C1520 1.369 . S
C1521 C1530 1.429 . S
C1522 C1520 1.419 . S
C1522 C1523 1.363 . S
C1522 H1525 0.929 . S
C1523 C1522 1.363 . S
C1523 C1529 1.428 . S
H1524 C1520 0.930 . S
H1525 C1522 0.929 . S
S1526 N1527 1.613 . S
S1526 N1528 1.610 . S
N1527 S1526 1.613 . S
N1527 C1530 1.350 . S
N1528 S1526 1.610 . S
N1528 C1529 1.351 . S
C1529 C1523 1.428 . S
C1529 N1528 1.351 . S
C1529 C1530 1.434 . S
C1530 C1521 1.429 . S
C1530 N1527 1.350 . S
C1530 C1529 1.434 . S
C1531 C1532 1.369 . S
C1531 C1533 1.419 . S
C1531 H1535 0.930 . S
C1532 C1531 1.369 . S
C1532 C1541 1.429 . S
C1533 C1531 1.419 . S
C1533 C1534 1.363 . S
C1533 H1536 0.929 . S
C1534 C1533 1.363 . S
C1534 C1540 1.428 . S
H1535 C1531 0.930 . S
H1536 C1533 0.929 . S
S1537 N1538 1.613 . S
S1537 N1539 1.610 . S
N1538 S1537 1.613 . S
N1538 C1541 1.350 . S
N1539 S1537 1.610 . S
N1539 C1540 1.351 . S
C1540 C1534 1.428 . S
C1540 N1539 1.351 . S
C1540 C1541 1.434 . S
C1541 C1532 1.429 . S
C1541 N1538 1.350 . S
C1541 C1540 1.434 . S
C1542 C1543 1.369 . S
C1542 C1544 1.419 . S
C1542 H1546 0.930 . S
C1543 C1542 1.369 . S
C1543 C1552 1.429 . S
C1544 C1542 1.419 . S
C1544 C1545 1.363 . S
C1544 H1547 0.929 . S
C1545 C1544 1.363 . S
C1545 C1551 1.428 . S
H1546 C1542 0.930 . S
H1547 C1544 0.929 . S
S1548 N1549 1.613 . S
S1548 N1550 1.610 . S
N1549 S1548 1.613 . S
N1549 C1552 1.350 . S
N1550 S1548 1.610 . S
N1550 C1551 1.351 . S
C1551 C1545 1.428 . S
C1551 N1550 1.351 . S
C1551 C1552 1.434 . S
C1552 C1543 1.429 . S
C1552 N1549 1.350 . S
C1552 C1551 1.434 . S
C1553 C1554 1.369 . S
C1553 C1555 1.419 . S
C1553 H1557 0.930 . S
C1554 C1553 1.369 . S
C1554 C1563 1.429 . S
C1555 C1553 1.419 . S
C1555 C1556 1.363 . S
C1555 H1558 0.929 . S
C1556 C1555 1.363 . S
C1556 C1562 1.428 . S
H1557 C1553 0.930 . S
H1558 C1555 0.929 . S
S1559 N1560 1.613 . S
S1559 N1561 1.610 . S
N1560 S1559 1.613 . S
N1560 C1563 1.350 . S
N1561 S1559 1.610 . S
N1561 C1562 1.351 . S
C1562 C1556 1.428 . S
C1562 N1561 1.351 . S
C1562 C1563 1.434 . S
C1563 C1554 1.429 . S
C1563 N1560 1.350 . S
C1563 C1562 1.434 . S
C1564 C1565 1.369 . S
C1564 C1566 1.419 . S
C1564 H1568 0.930 . S
C1565 C1564 1.369 . S
C1565 C1574 1.429 . S
C1566 C1564 1.419 . S
C1566 C1567 1.363 . S
C1566 H1569 0.929 . S
C1567 C1566 1.363 . S
C1567 C1573 1.428 . S
H1568 C1564 0.930 . S
H1569 C1566 0.929 . S
S1570 N1571 1.613 . S
S1570 N1572 1.610 . S
N1571 S1570 1.613 . S
N1571 C1574 1.350 . S
N1572 S1570 1.610 . S
N1572 C1573 1.351 . S
C1573 C1567 1.428 . S
C1573 N1572 1.351 . S
C1573 C1574 1.434 . S
C1574 C1565 1.429 . S
C1574 N1571 1.350 . S
C1574 C1573 1.434 . S
C1575 C1576 1.369 . S
C1575 C1577 1.419 . S
C1575 H1579 0.930 . S
C1576 C1575 1.369 . S
C1576 C1585 1.429 . S
C1577 C1575 1.419 . S
C1577 C1578 1.363 . S
C1577 H1580 0.929 . S
C1578 C1577 1.363 . S
C1578 C1584 1.428 . S
H1579 C1575 0.930 . S
H1580 C1577 0.929 . S
S1581 N1582 1.613 . S
S1581 N1583 1.610 . S
N1582 S1581 1.613 . S
N1582 C1585 1.350 . S
N1583 S1581 1.610 . S
N1583 C1584 1.351 . S
C1584 C1578 1.428 . S
C1584 N1583 1.351 . S
C1584 C1585 1.434 . S
C1585 C1576 1.429 . S
C1585 N1582 1.350 . S
C1585 C1584 1.434 . S
C1586 C1587 1.369 . S
C1586 C1588 1.419 . S
C1586 H1590 0.930 . S
C1587 C1586 1.369 . S
C1587 C1596 1.429 . S
C1588 C1586 1.419 . S
C1588 C1589 1.363 . S
C1588 H1591 0.929 . S
C1589 C1588 1.363 . S
C1589 C1595 1.428 . S
H1590 C1586 0.930 . S
H1591 C1588 0.929 . S
S1592 N1593 1.613 . S
S1592 N1594 1.610 . S
N1593 S1592 1.613 . S
N1593 C1596 1.350 . S
N1594 S1592 1.610 . S
N1594 C1595 1.351 . S
C1595 C1589 1.428 . S
C1595 N1594 1.351 . S
C1595 C1596 1.434 . S
C1596 C1587 1.429 . S
C1596 N1593 1.350 . S
C1596 C1595 1.434 . S
C1597 C1598 1.369 . S
C1597 C1599 1.419 . S
C1597 H1601 0.930 . S
C1598 C1597 1.369 . S
C1598 C1607 1.429 . S
C1599 C1597 1.419 . S
C1599 C1600 1.363 . S
C1599 H1602 0.929 . S
C1600 C1599 1.363 . S
C1600 C1606 1.428 . S
H1601 C1597 0.930 . S
H1602 C1599 0.929 . S
S1603 N1604 1.613 . S
S1603 N1605 1.610 . S
N1604 S1603 1.613 . S
N1604 C1607 1.350 . S
N1605 S1603 1.610 . S
N1605 C1606 1.351 . S
C1606 C1600 1.428 . S
C1606 N1605 1.351 . S
C1606 C1607 1.434 . S
C1607 C1598 1.429 . S
C1607 N1604 1.350 . S
C1607 C1606 1.434 . S
C1608 C1609 1.369 . S
C1608 C1610 1.419 . S
C1608 H1612 0.930 . S
C1609 C1608 1.369 . S
C1609 C1618 1.429 . S
C1610 C1608 1.419 . S
C1610 C1611 1.363 . S
C1610 H1613 0.929 . S
C1611 C1610 1.363 . S
C1611 C1617 1.428 . S
H1612 C1608 0.930 . S
H1613 C1610 0.929 . S
S1614 N1615 1.613 . S
S1614 N1616 1.610 . S
N1615 S1614 1.613 . S
N1615 C1618 1.350 . S
N1616 S1614 1.610 . S
N1616 C1617 1.351 . S
C1617 C1611 1.428 . S
C1617 N1616 1.351 . S
C1617 C1618 1.434 . S
C1618 C1609 1.429 . S
C1618 N1615 1.350 . S
C1618 C1617 1.434 . S
C1619 C1620 1.369 . S
C1619 C1621 1.419 . S
C1619 H1623 0.930 . S
C1620 C1619 1.369 . S
C1620 C1629 1.429 . S
C1621 C1619 1.419 . S
C1621 C1622 1.363 . S
C1621 H1624 0.929 . S
C1622 C1621 1.363 . S
C1622 C1628 1.428 . S
H1623 C1619 0.930 . S
H1624 C1621 0.929 . S
S1625 N1626 1.613 . S
S1625 N1627 1.610 . S
N1626 S1625 1.613 . S
N1626 C1629 1.350 . S
N1627 S1625 1.610 . S
N1627 C1628 1.351 . S
C1628 C1622 1.428 . S
C1628 N1627 1.351 . S
C1628 C1629 1.434 . S
C1629 C1620 1.429 . S
C1629 N1626 1.350 . S
C1629 C1628 1.434 . S
C1630 C1631 1.369 . S
C1630 C1632 1.419 . S
C1630 H1634 0.930 . S
C1631 C1630 1.369 . S
C1631 C1640 1.429 . S
C1632 C1630 1.419 . S
C1632 C1633 1.363 . S
C1632 H1635 0.929 . S
C1633 C1632 1.363 . S
C1633 C1639 1.428 . S
H1634 C1630 0.930 . S
H1635 C1632 0.929 . S
S1636 N1637 1.613 . S
S1636 N1638 1.610 . S
N1637 S1636 1.613 . S
N1637 C1640 1.350 . S
N1638 S1636 1.610 . S
N1638 C1639 1.351 . S
C1639 C1633 1.428 . S
C1639 N1638 1.351 . S
C1639 C1640 1.434 . S
C1640 C1631 1.429 . S
C1640 N1637 1.350 . S
C1640 C1639 1.434 . S
C1641 C1642 1.369 . S
C1641 C1643 1.419 . S
C1641 H1645 0.930 . S
C1642 C1641 1.369 . S
C1642 C1651 1.429 . S
C1643 C1641 1.419 . S
C1643 C1644 1.363 . S
C1643 H1646 0.929 . S
C1644 C1643 1.363 . S
C1644 C1650 1.428 . S
H1645 C1641 0.930 . S
H1646 C1643 0.929 . S
S1647 N1648 1.613 . S
S1647 N1649 1.610 . S
N1648 S1647 1.613 . S
N1648 C1651 1.350 . S
N1649 S1647 1.610 . S
N1649 C1650 1.351 . S
C1650 C1644 1.428 . S
C1650 N1649 1.351 . S
C1650 C1651 1.434 . S
C1651 C1642 1.429 . S
C1651 N1648 1.350 . S
C1651 C1650 1.434 . S
C1652 C1653 1.369 . S
C1652 C1654 1.419 . S
C1652 H1656 0.930 . S
C1653 C1652 1.369 . S
C1653 C1662 1.429 . S
C1654 C1652 1.419 . S
C1654 C1655 1.363 . S
C1654 H1657 0.929 . S
C1655 C1654 1.363 . S
C1655 C1661 1.428 . S
H1656 C1652 0.930 . S
H1657 C1654 0.929 . S
S1658 N1659 1.613 . S
S1658 N1660 1.610 . S
N1659 S1658 1.613 . S
N1659 C1662 1.350 . S
N1660 S1658 1.610 . S
N1660 C1661 1.351 . S
C1661 C1655 1.428 . S
C1661 N1660 1.351 . S
C1661 C1662 1.434 . S
C1662 C1653 1.429 . S
C1662 N1659 1.350 . S
C1662 C1661 1.434 . S
C1663 C1664 1.369 . S
C1663 C1665 1.419 . S
C1663 H1667 0.930 . S
C1664 C1663 1.369 . S
C1664 C1673 1.429 . S
C1665 C1663 1.419 . S
C1665 C1666 1.363 . S
C1665 H1668 0.929 . S
C1666 C1665 1.363 . S
C1666 C1672 1.428 . S
H1667 C1663 0.930 . S
H1668 C1665 0.929 . S
S1669 N1670 1.613 . S
S1669 N1671 1.610 . S
N1670 S1669 1.613 . S
N1670 C1673 1.350 . S
N1671 S1669 1.610 . S
N1671 C1672 1.351 . S
C1672 C1666 1.428 . S
C1672 N1671 1.351 . S
C1672 C1673 1.434 . S
C1673 C1664 1.429 . S
C1673 N1670 1.350 . S
C1673 C1672 1.434 . S
C1674 C1675 1.369 . S
C1674 C1676 1.419 . S
C1674 H1678 0.930 . S
C1675 C1674 1.369 . S
C1675 C1684 1.429 . S
C1676 C1674 1.419 . S
C1676 C1677 1.363 . S
C1676 H1679 0.929 . S
C1677 C1676 1.363 . S
C1677 C1683 1.428 . S
H1678 C1674 0.930 . S
H1679 C1676 0.929 . S
S1680 N1681 1.613 . S
S1680 N1682 1.610 . S
N1681 S1680 1.613 . S
N1681 C1684 1.350 . S
N1682 S1680 1.610 . S
N1682 C1683 1.351 . S
C1683 C1677 1.428 . S
C1683 N1682 1.351 . S
C1683 C1684 1.434 . S
C1684 C1675 1.429 . S
C1684 N1681 1.350 . S
C1684 C1683 1.434 . S
C1685 C1686 1.369 . S
C1685 C1687 1.419 . S
C1685 H1689 0.930 . S
C1686 C1685 1.369 . S
C1686 C1695 1.429 . S
C1687 C1685 1.419 . S
C1687 C1688 1.363 . S
C1687 H1690 0.929 . S
C1688 C1687 1.363 . S
C1688 C1694 1.428 . S
H1689 C1685 0.930 . S
H1690 C1687 0.929 . S
S1691 N1692 1.613 . S
S1691 N1693 1.610 . S
N1692 S1691 1.613 . S
N1692 C1695 1.350 . S
N1693 S1691 1.610 . S
N1693 C1694 1.351 . S
C1694 C1688 1.428 . S
C1694 N1693 1.351 . S
C1694 C1695 1.434 . S
C1695 C1686 1.429 . S
C1695 N1692 1.350 . S
C1695 C1694 1.434 . S
C1696 C1697 1.369 . S
C1696 C1698 1.419 . S
C1696 H1700 0.930 . S
C1697 C1696 1.369 . S
C1697 C1706 1.429 . S
C1698 C1696 1.419 . S
C1698 C1699 1.363 . S
C1698 H1701 0.929 . S
C1699 C1698 1.363 . S
C1699 C1705 1.428 . S
H1700 C1696 0.930 . S
H1701 C1698 0.929 . S
S1702 N1703 1.613 . S
S1702 N1704 1.610 . S
N1703 S1702 1.613 . S
N1703 C1706 1.350 . S
N1704 S1702 1.610 . S
N1704 C1705 1.351 . S
C1705 C1699 1.428 . S
C1705 N1704 1.351 . S
C1705 C1706 1.434 . S
C1706 C1697 1.429 . S
C1706 N1703 1.350 . S
C1706 C1705 1.434 . S
C1707 C1708 1.369 . S
C1707 C1709 1.419 . S
C1707 H1711 0.930 . S
C1708 C1707 1.369 . S
C1708 C1717 1.429 . S
C1709 C1707 1.419 . S
C1709 C1710 1.363 . S
C1709 H1712 0.929 . S
C1710 C1709 1.363 . S
C1710 C1716 1.428 . S
H1711 C1707 0.930 . S
H1712 C1709 0.929 . S
S1713 N1714 1.613 . S
S1713 N1715 1.610 . S
N1714 S1713 1.613 . S
N1714 C1717 1.350 . S
N1715 S1713 1.610 . S
N1715 C1716 1.351 . S
C1716 C1710 1.428 . S
C1716 N1715 1.351 . S
C1716 C1717 1.434 . S
C1717 C1708 1.429 . S
C1717 N1714 1.350 . S
C1717 C1716 1.434 . S
C1718 C1719 1.369 . S
C1718 C1720 1.419 . S
C1718 H1722 0.930 . S
C1719 C1718 1.369 . S
C1719 C1728 1.429 . S
C1720 C1718 1.419 . S
C1720 C1721 1.363 . S
C1720 H1723 0.929 . S
C1721 C1720 1.363 . S
C1721 C1727 1.428 . S
H1722 C1718 0.930 . S
H1723 C1720 0.929 . S
S1724 N1725 1.613 . S
S1724 N1726 1.610 . S
N1725 S1724 1.613 . S
N1725 C1728 1.350 . S
N1726 S1724 1.610 . S
N1726 C1727 1.351 . S
C1727 C1721 1.428 . S
C1727 N1726 1.351 . S
C1727 C1728 1.434 . S
C1728 C1719 1.429 . S
C1728 N1725 1.350 . S
C1728 C1727 1.434 . S
C1729 C1730 1.369 . S
C1729 C1731 1.419 . S
C1729 H1733 0.930 . S
C1730 C1729 1.369 . S
C1730 C1739 1.429 . S
C1731 C1729 1.419 . S
C1731 C1732 1.363 . S
C1731 H1734 0.929 . S
C1732 C1731 1.363 . S
C1732 C1738 1.428 . S
H1733 C1729 0.930 . S
H1734 C1731 0.929 . S
S1735 N1736 1.613 . S
S1735 N1737 1.610 . S
N1736 S1735 1.613 . S
N1736 C1739 1.350 . S
N1737 S1735 1.610 . S
N1737 C1738 1.351 . S
C1738 C1732 1.428 . S
C1738 N1737 1.351 . S
C1738 C1739 1.434 . S
C1739 C1730 1.429 . S
C1739 N1736 1.350 . S
C1739 C1738 1.434 . S
C1740 C1741 1.369 . S
C1740 C1742 1.419 . S
C1740 H1744 0.930 . S
C1741 C1740 1.369 . S
C1741 C1750 1.429 . S
C1742 C1740 1.419 . S
C1742 C1743 1.363 . S
C1742 H1745 0.929 . S
C1743 C1742 1.363 . S
C1743 C1749 1.428 . S
H1744 C1740 0.930 . S
H1745 C1742 0.929 . S
S1746 N1747 1.613 . S
S1746 N1748 1.610 . S
N1747 S1746 1.613 . S
N1747 C1750 1.350 . S
N1748 S1746 1.610 . S
N1748 C1749 1.351 . S
C1749 C1743 1.428 . S
C1749 N1748 1.351 . S
C1749 C1750 1.434 . S
C1750 C1741 1.429 . S
C1750 N1747 1.350 . S
C1750 C1749 1.434 . S
C1751 C1752 1.369 . S
C1751 C1753 1.419 . S
C1751 H1755 0.930 . S
C1752 C1751 1.369 . S
C1752 C1761 1.429 . S
C1753 C1751 1.419 . S
C1753 C1754 1.363 . S
C1753 H1756 0.929 . S
C1754 C1753 1.363 . S
C1754 C1760 1.428 . S
H1755 C1751 0.930 . S
H1756 C1753 0.929 . S
S1757 N1758 1.613 . S
S1757 N1759 1.610 . S
N1758 S1757 1.613 . S
N1758 C1761 1.350 . S
N1759 S1757 1.610 . S
N1759 C1760 1.351 . S
C1760 C1754 1.428 . S
C1760 N1759 1.351 . S
C1760 C1761 1.434 . S
C1761 C1752 1.429 . S
C1761 N1758 1.350 . S
C1761 C1760 1.434 . S
C1762 C1763 1.369 . S
C1762 C1764 1.419 . S
C1762 H1766 0.930 . S
C1763 C1762 1.369 . S
C1763 C1772 1.429 . S
C1764 C1762 1.419 . S
C1764 C1765 1.363 . S
C1764 H1767 0.929 . S
C1765 C1764 1.363 . S
C1765 C1771 1.428 . S
H1766 C1762 0.930 . S
H1767 C1764 0.929 . S
S1768 N1769 1.613 . S
S1768 N1770 1.610 . S
N1769 S1768 1.613 . S
N1769 C1772 1.350 . S
N1770 S1768 1.610 . S
N1770 C1771 1.351 . S
C1771 C1765 1.428 . S
C1771 N1770 1.351 . S
C1771 C1772 1.434 . S
C1772 C1763 1.429 . S
C1772 N1769 1.350 . S
C1772 C1771 1.434 . S
C1773 C1774 1.369 . S
C1773 C1775 1.419 . S
C1773 H1777 0.930 . S
C1774 C1773 1.369 . S
C1774 C1783 1.429 . S
C1775 C1773 1.419 . S
C1775 C1776 1.363 . S
C1775 H1778 0.929 . S
C1776 C1775 1.363 . S
C1776 C1782 1.428 . S
H1777 C1773 0.930 . S
H1778 C1775 0.929 . S
S1779 N1780 1.613 . S
S1779 N1781 1.610 . S
N1780 S1779 1.613 . S
N1780 C1783 1.350 . S
N1781 S1779 1.610 . S
N1781 C1782 1.351 . S
C1782 C1776 1.428 . S
C1782 N1781 1.351 . S
C1782 C1783 1.434 . S
C1783 C1774 1.429 . S
C1783 N1780 1.350 . S
C1783 C1782 1.434 . S
C1784 C1785 1.369 . S
C1784 C1786 1.419 . S
C1784 H1788 0.930 . S
C1785 C1784 1.369 . S
C1785 C1794 1.429 . S
C1786 C1784 1.419 . S
C1786 C1787 1.363 . S
C1786 H1789 0.929 . S
C1787 C1786 1.363 . S
C1787 C1793 1.428 . S
H1788 C1784 0.930 . S
H1789 C1786 0.929 . S
S1790 N1791 1.613 . S
S1790 N1792 1.610 . S
N1791 S1790 1.613 . S
N1791 C1794 1.350 . S
N1792 S1790 1.610 . S
N1792 C1793 1.351 . S
C1793 C1787 1.428 . S
C1793 N1792 1.351 . S
C1793 C1794 1.434 . S
C1794 C1785 1.429 . S
C1794 N1791 1.350 . S
C1794 C1793 1.434 . S
C1795 C1796 1.369 . S
C1795 C1797 1.419 . S
C1795 H1799 0.930 . S
C1796 C1795 1.369 . S
C1796 C1805 1.429 . S
C1797 C1795 1.419 . S
C1797 C1798 1.363 . S
C1797 H1800 0.929 . S
C1798 C1797 1.363 . S
C1798 C1804 1.428 . S
H1799 C1795 0.930 . S
H1800 C1797 0.929 . S
S1801 N1802 1.613 . S
S1801 N1803 1.610 . S
N1802 S1801 1.613 . S
N1802 C1805 1.350 . S
N1803 S1801 1.610 . S
N1803 C1804 1.351 . S
C1804 C1798 1.428 . S
C1804 N1803 1.351 . S
C1804 C1805 1.434 . S
C1805 C1796 1.429 . S
C1805 N1802 1.350 . S
C1805 C1804 1.434 . S
C1806 C1807 1.369 . S
C1806 C1808 1.419 . S
C1806 H1810 0.930 . S
C1807 C1806 1.369 . S
C1807 C1816 1.429 . S
C1808 C1806 1.419 . S
C1808 C1809 1.363 . S
C1808 H1811 0.929 . S
C1809 C1808 1.363 . S
C1809 C1815 1.428 . S
H1810 C1806 0.930 . S
H1811 C1808 0.929 . S
S1812 N1813 1.613 . S
S1812 N1814 1.610 . S
N1813 S1812 1.613 . S
N1813 C1816 1.350 . S
N1814 S1812 1.610 . S
N1814 C1815 1.351 . S
C1815 C1809 1.428 . S
C1815 N1814 1.351 . S
C1815 C1816 1.434 . S
C1816 C1807 1.429 . S
C1816 N1813 1.350 . S
C1816 C1815 1.434 . S
C1817 C1818 1.369 . S
C1817 C1819 1.419 . S
C1817 H1821 0.930 . S
C1818 C1817 1.369 . S
C1818 C1827 1.429 . S
C1819 C1817 1.419 . S
C1819 C1820 1.363 . S
C1819 H1822 0.929 . S
C1820 C1819 1.363 . S
C1820 C1826 1.428 . S
H1821 C1817 0.930 . S
H1822 C1819 0.929 . S
S1823 N1824 1.613 . S
S1823 N1825 1.610 . S
N1824 S1823 1.613 . S
N1824 C1827 1.350 . S
N1825 S1823 1.610 . S
N1825 C1826 1.351 . S
C1826 C1820 1.428 . S
C1826 N1825 1.351 . S
C1826 C1827 1.434 . S
C1827 C1818 1.429 . S
C1827 N1824 1.350 . S
C1827 C1826 1.434 . S
C1828 C1829 1.369 . S
C1828 C1830 1.419 . S
C1828 H1832 0.930 . S
C1829 C1828 1.369 . S
C1829 C1838 1.429 . S
C1830 C1828 1.419 . S
C1830 C1831 1.363 . S
C1830 H1833 0.929 . S
C1831 C1830 1.363 . S
C1831 C1837 1.428 . S
H1832 C1828 0.930 . S
H1833 C1830 0.929 . S
S1834 N1835 1.613 . S
S1834 N1836 1.610 . S
N1835 S1834 1.613 . S
N1835 C1838 1.350 . S
N1836 S1834 1.610 . S
N1836 C1837 1.351 . S
C1837 C1831 1.428 . S
C1837 N1836 1.351 . S
C1837 C1838 1.434 . S
C1838 C1829 1.429 . S
C1838 N1835 1.350 . S
C1838 C1837 1.434 . S
C1839 C1840 1.369 . S
C1839 C1841 1.419 . S
C1839 H1843 0.930 . S
C1840 C1839 1.369 . S
C1840 C1849 1.429 . S
C1841 C1839 1.419 . S
C1841 C1842 1.363 . S
C1841 H1844 0.929 . S
C1842 C1841 1.363 . S
C1842 C1848 1.428 . S
H1843 C1839 0.930 . S
H1844 C1841 0.929 . S
S1845 N1846 1.613 . S
S1845 N1847 1.610 . S
N1846 S1845 1.613 . S
N1846 C1849 1.350 . S
N1847 S1845 1.610 . S
N1847 C1848 1.351 . S
C1848 C1842 1.428 . S
C1848 N1847 1.351 . S
C1848 C1849 1.434 . S
C1849 C1840 1.429 . S
C1849 N1846 1.350 . S
C1849 C1848 1.434 . S
C1850 C1851 1.369 . S
C1850 C1852 1.419 . S
C1850 H1854 0.930 . S
C1851 C1850 1.369 . S
C1851 C1860 1.429 . S
C1852 C1850 1.419 . S
C1852 C1853 1.363 . S
C1852 H1855 0.929 . S
C1853 C1852 1.363 . S
C1853 C1859 1.428 . S
H1854 C1850 0.930 . S
H1855 C1852 0.929 . S
S1856 N1857 1.613 . S
S1856 N1858 1.610 . S
N1857 S1856 1.613 . S
N1857 C1860 1.350 . S
N1858 S1856 1.610 . S
N1858 C1859 1.351 . S
C1859 C1853 1.428 . S
C1859 N1858 1.351 . S
C1859 C1860 1.434 . S
C1860 C1851 1.429 . S
C1860 N1857 1.350 . S
C1860 C1859 1.434 . S
C1861 C1862 1.369 . S
C1861 C1863 1.419 . S
C1861 H1865 0.930 . S
C1862 C1861 1.369 . S
C1862 C1871 1.429 . S
C1863 C1861 1.419 . S
C1863 C1864 1.363 . S
C1863 H1866 0.929 . S
C1864 C1863 1.363 . S
C1864 C1870 1.428 . S
H1865 C1861 0.930 . S
H1866 C1863 0.929 . S
S1867 N1868 1.613 . S
S1867 N1869 1.610 . S
N1868 S1867 1.613 . S
N1868 C1871 1.350 . S
N1869 S1867 1.610 . S
N1869 C1870 1.351 . S
C1870 C1864 1.428 . S
C1870 N1869 1.351 . S
C1870 C1871 1.434 . S
C1871 C1862 1.429 . S
C1871 N1868 1.350 . S
C1871 C1870 1.434 . S
C1872 C1873 1.369 . S
C1872 C1874 1.419 . S
C1872 H1876 0.930 . S
C1873 C1872 1.369 . S
C1873 C1882 1.429 . S
C1874 C1872 1.419 . S
C1874 C1875 1.363 . S
C1874 H1877 0.929 . S
C1875 C1874 1.363 . S
C1875 C1881 1.428 . S
H1876 C1872 0.930 . S
H1877 C1874 0.929 . S
S1878 N1879 1.613 . S
S1878 N1880 1.610 . S
N1879 S1878 1.613 . S
N1879 C1882 1.350 . S
N1880 S1878 1.610 . S
N1880 C1881 1.351 . S
C1881 C1875 1.428 . S
C1881 N1880 1.351 . S
C1881 C1882 1.434 . S
C1882 C1873 1.429 . S
C1882 N1879 1.350 . S
C1882 C1881 1.434 . S
C1883 C1884 1.369 . S
C1883 C1885 1.419 . S
C1883 H1887 0.930 . S
C1884 C1883 1.369 . S
C1884 C1893 1.429 . S
C1885 C1883 1.419 . S
C1885 C1886 1.363 . S
C1885 H1888 0.929 . S
C1886 C1885 1.363 . S
C1886 C1892 1.428 . S
H1887 C1883 0.930 . S
H1888 C1885 0.929 . S
S1889 N1890 1.613 . S
S1889 N1891 1.610 . S
N1890 S1889 1.613 . S
N1890 C1893 1.350 . S
N1891 S1889 1.610 . S
N1891 C1892 1.351 . S
C1892 C1886 1.428 . S
C1892 N1891 1.351 . S
C1892 C1893 1.434 . S
C1893 C1884 1.429 . S
C1893 N1890 1.350 . S
C1893 C1892 1.434 . S
C1894 C1895 1.369 . S
C1894 C1896 1.419 . S
C1894 H1898 0.930 . S
C1895 C1894 1.369 . S
C1895 C1904 1.429 . S
C1896 C1894 1.419 . S
C1896 C1897 1.363 . S
C1896 H1899 0.929 . S
C1897 C1896 1.363 . S
C1897 C1903 1.428 . S
H1898 C1894 0.930 . S
H1899 C1896 0.929 . S
S1900 N1901 1.613 . S
S1900 N1902 1.610 . S
N1901 S1900 1.613 . S
N1901 C1904 1.350 . S
N1902 S1900 1.610 . S
N1902 C1903 1.351 . S
C1903 C1897 1.428 . S
C1903 N1902 1.351 . S
C1903 C1904 1.434 . S
C1904 C1895 1.429 . S
C1904 N1901 1.350 . S
C1904 C1903 1.434 . S
C1905 C1906 1.369 . S
C1905 C1907 1.419 . S
C1905 H1909 0.930 . S
C1906 C1905 1.369 . S
C1906 C1915 1.429 . S
C1907 C1905 1.419 . S
C1907 C1908 1.363 . S
C1907 H1910 0.929 . S
C1908 C1907 1.363 . S
C1908 C1914 1.428 . S
H1909 C1905 0.930 . S
H1910 C1907 0.929 . S
S1911 N1912 1.613 . S
S1911 N1913 1.610 . S
N1912 S1911 1.613 . S
N1912 C1915 1.350 . S
N1913 S1911 1.610 . S
N1913 C1914 1.351 . S
C1914 C1908 1.428 . S
C1914 N1913 1.351 . S
C1914 C1915 1.434 . S
C1915 C1906 1.429 . S
C1915 N1912 1.350 . S
C1915 C1914 1.434 . S
C1916 C1917 1.369 . S
C1916 C1918 1.419 . S
C1916 H1920 0.930 . S
C1917 C1916 1.369 . S
C1917 C1926 1.429 . S
C1918 C1916 1.419 . S
C1918 C1919 1.363 . S
C1918 H1921 0.929 . S
C1919 C1918 1.363 . S
C1919 C1925 1.428 . S
H1920 C1916 0.930 . S
H1921 C1918 0.929 . S
S1922 N1923 1.613 . S
S1922 N1924 1.610 . S
N1923 S1922 1.613 . S
N1923 C1926 1.350 . S
N1924 S1922 1.610 . S
N1924 C1925 1.351 . S
C1925 C1919 1.428 . S
C1925 N1924 1.351 . S
C1925 C1926 1.434 . S
C1926 C1917 1.429 . S
C1926 N1923 1.350 . S
C1926 C1925 1.434 . S
C1927 C1928 1.369 . S
C1927 C1929 1.419 . S
C1927 H1931 0.930 . S
C1928 C1927 1.369 . S
C1928 C1937 1.429 . S
C1929 C1927 1.419 . S
C1929 C1930 1.363 . S
C1929 H1932 0.929 . S
C1930 C1929 1.363 . S
C1930 C1936 1.428 . S
H1931 C1927 0.930 . S
H1932 C1929 0.929 . S
S1933 N1934 1.613 . S
S1933 N1935 1.610 . S
N1934 S1933 1.613 . S
N1934 C1937 1.350 . S
N1935 S1933 1.610 . S
N1935 C1936 1.351 . S
C1936 C1930 1.428 . S
C1936 N1935 1.351 . S
C1936 C1937 1.434 . S
C1937 C1928 1.429 . S
C1937 N1934 1.350 . S
C1937 C1936 1.434 . S
C1938 C1939 1.369 . S
C1938 C1940 1.419 . S
C1938 H1942 0.930 . S
C1939 C1938 1.369 . S
C1939 C1948 1.429 . S
C1940 C1938 1.419 . S
C1940 C1941 1.363 . S
C1940 H1943 0.929 . S
C1941 C1940 1.363 . S
C1941 C1947 1.428 . S
H1942 C1938 0.930 . S
H1943 C1940 0.929 . S
S1944 N1945 1.613 . S
S1944 N1946 1.610 . S
N1945 S1944 1.613 . S
N1945 C1948 1.350 . S
N1946 S1944 1.610 . S
N1946 C1947 1.351 . S
C1947 C1941 1.428 . S
C1947 N1946 1.351 . S
C1947 C1948 1.434 . S
C1948 C1939 1.429 . S
C1948 N1945 1.350 . S
C1948 C1947 1.434 . S
C1949 C1950 1.369 . S
C1949 C1951 1.419 . S
C1949 H1953 0.930 . S
C1950 C1949 1.369 . S
C1950 C1959 1.429 . S
C1951 C1949 1.419 . S
C1951 C1952 1.363 . S
C1951 H1954 0.929 . S
C1952 C1951 1.363 . S
C1952 C1958 1.428 . S
H1953 C1949 0.930 . S
H1954 C1951 0.929 . S
S1955 N1956 1.613 . S
S1955 N1957 1.610 . S
N1956 S1955 1.613 . S
N1956 C1959 1.350 . S
N1957 S1955 1.610 . S
N1957 C1958 1.351 . S
C1958 C1952 1.428 . S
C1958 N1957 1.351 . S
C1958 C1959 1.434 . S
C1959 C1950 1.429 . S
C1959 N1956 1.350 . S
C1959 C1958 1.434 . S
C1960 C1961 1.369 . S
C1960 C1962 1.419 . S
C1960 H1964 0.930 . S
C1961 C1960 1.369 . S
C1961 C1970 1.429 . S
C1962 C1960 1.419 . S
C1962 C1963 1.363 . S
C1962 H1965 0.929 . S
C1963 C1962 1.363 . S
C1963 C1969 1.428 . S
H1964 C1960 0.930 . S
H1965 C1962 0.929 . S
S1966 N1967 1.613 . S
S1966 N1968 1.610 . S
N1967 S1966 1.613 . S
N1967 C1970 1.350 . S
N1968 S1966 1.610 . S
N1968 C1969 1.351 . S
C1969 C1963 1.428 . S
C1969 N1968 1.351 . S
C1969 C1970 1.434 . S
C1970 C1961 1.429 . S
C1970 N1967 1.350 . S
C1970 C1969 1.434 . S
C1971 C1972 1.369 . S
C1971 C1973 1.419 . S
C1971 H1975 0.930 . S
C1972 C1971 1.369 . S
C1972 C1981 1.429 . S
C1973 C1971 1.419 . S
C1973 C1974 1.363 . S
C1973 H1976 0.929 . S
C1974 C1973 1.363 . S
C1974 C1980 1.428 . S
H1975 C1971 0.930 . S
H1976 C1973 0.929 . S
S1977 N1978 1.613 . S
S1977 N1979 1.610 . S
N1978 S1977 1.613 . S
N1978 C1981 1.350 . S
N1979 S1977 1.610 . S
N1979 C1980 1.351 . S
C1980 C1974 1.428 . S
C1980 N1979 1.351 . S
C1980 C1981 1.434 . S
C1981 C1972 1.429 . S
C1981 N1978 1.350 . S
C1981 C1980 1.434 . S
C1982 C1983 1.369 . S
C1982 C1984 1.419 . S
C1982 H1986 0.930 . S
C1983 C1982 1.369 . S
C1983 C1992 1.429 . S
C1984 C1982 1.419 . S
C1984 C1985 1.363 . S
C1984 H1987 0.929 . S
C1985 C1984 1.363 . S
C1985 C1991 1.428 . S
H1986 C1982 0.930 . S
H1987 C1984 0.929 . S
S1988 N1989 1.613 . S
S1988 N1990 1.610 . S
N1989 S1988 1.613 . S
N1989 C1992 1.350 . S
N1990 S1988 1.610 . S
N1990 C1991 1.351 . S
C1991 C1985 1.428 . S
C1991 N1990 1.351 . S
C1991 C1992 1.434 . S
C1992 C1983 1.429 . S
C1992 N1989 1.350 . S
C1992 C1991 1.434 . S
C1993 C1994 1.369 . S
C1993 C1995 1.419 . S
C1993 H1997 0.930 . S
C1994 C1993 1.369 . S
C1994 C2003 1.429 . S
C1995 C1993 1.419 . S
C1995 C1996 1.363 . S
C1995 H1998 0.929 . S
C1996 C1995 1.363 . S
C1996 C2002 1.428 . S
H1997 C1993 0.930 . S
H1998 C1995 0.929 . S
S1999 N2000 1.613 . S
S1999 N2001 1.610 . S
N2000 S1999 1.613 . S
N2000 C2003 1.350 . S
N2001 S1999 1.610 . S
N2001 C2002 1.351 . S
C2002 C1996 1.428 . S
C2002 N2001 1.351 . S
C2002 C2003 1.434 . S
C2003 C1994 1.429 . S
C2003 N2000 1.350 . S
C2003 C2002 1.434 . S
C2004 C2005 1.369 . S
C2004 C2006 1.419 . S
C2004 H2008 0.930 . S
C2005 C2004 1.369 . S
C2005 C2014 1.429 . S
C2006 C2004 1.419 . S
C2006 C2007 1.363 . S
C2006 H2009 0.929 . S
C2007 C2006 1.363 . S
C2007 C2013 1.428 . S
H2008 C2004 0.930 . S
H2009 C2006 0.929 . S
S2010 N2011 1.613 . S
S2010 N2012 1.610 . S
N2011 S2010 1.613 . S
N2011 C2014 1.350 . S
N2012 S2010 1.610 . S
N2012 C2013 1.351 . S
C2013 C2007 1.428 . S
C2013 N2012 1.351 . S
C2013 C2014 1.434 . S
C2014 C2005 1.429 . S
C2014 N2011 1.350 . S
C2014 C2013 1.434 . S
C2015 C2016 1.369 . S
C2015 C2017 1.419 . S
C2015 H2019 0.930 . S
C2016 C2015 1.369 . S
C2016 C2025 1.429 . S
C2017 C2015 1.419 . S
C2017 C2018 1.363 . S
C2017 H2020 0.929 . S
C2018 C2017 1.363 . S
C2018 C2024 1.428 . S
H2019 C2015 0.930 . S
H2020 C2017 0.929 . S
S2021 N2022 1.613 . S
S2021 N2023 1.610 . S
N2022 S2021 1.613 . S
N2022 C2025 1.350 . S
N2023 S2021 1.610 . S
N2023 C2024 1.351 . S
C2024 C2018 1.428 . S
C2024 N2023 1.351 . S
C2024 C2025 1.434 . S
C2025 C2016 1.429 . S
C2025 N2022 1.350 . S
C2025 C2024 1.434 . S
C2026 C2027 1.369 . S
C2026 C2028 1.419 . S
C2026 H2030 0.930 . S
C2027 C2026 1.369 . S
C2027 C2036 1.429 . S
C2028 C2026 1.419 . S
C2028 C2029 1.363 . S
C2028 H2031 0.929 . S
C2029 C2028 1.363 . S
C2029 C2035 1.428 . S
H2030 C2026 0.930 . S
H2031 C2028 0.929 . S
S2032 N2033 1.613 . S
S2032 N2034 1.610 . S
N2033 S2032 1.613 . S
N2033 C2036 1.350 . S
N2034 S2032 1.610 . S
N2034 C2035 1.351 . S
C2035 C2029 1.428 . S
C2035 N2034 1.351 . S
C2035 C2036 1.434 . S
C2036 C2027 1.429 . S
C2036 N2033 1.350 . S
C2036 C2035 1.434 . S
C2037 C2038 1.369 . S
C2037 C2039 1.419 . S
C2037 H2041 0.930 . S
C2038 C2037 1.369 . S
C2038 C2047 1.429 . S
C2039 C2037 1.419 . S
C2039 C2040 1.363 . S
C2039 H2042 0.929 . S
C2040 C2039 1.363 . S
C2040 C2046 1.428 . S
H2041 C2037 0.930 . S
H2042 C2039 0.929 . S
S2043 N2044 1.613 . S
S2043 N2045 1.610 . S
N2044 S2043 1.613 . S
N2044 C2047 1.350 . S
N2045 S2043 1.610 . S
N2045 C2046 1.351 . S
C2046 C2040 1.428 . S
C2046 N2045 1.351 . S
C2046 C2047 1.434 . S
C2047 C2038 1.429 . S
C2047 N2044 1.350 . S
C2047 C2046 1.434 . S
C2048 C2049 1.369 . S
C2048 C2050 1.419 . S
C2048 H2052 0.930 . S
C2049 C2048 1.369 . S
C2049 C2058 1.429 . S
C2050 C2048 1.419 . S
C2050 C2051 1.363 . S
C2050 H2053 0.929 . S
C2051 C2050 1.363 . S
C2051 C2057 1.428 . S
H2052 C2048 0.930 . S
H2053 C2050 0.929 . S
S2054 N2055 1.613 . S
S2054 N2056 1.610 . S
N2055 S2054 1.613 . S
N2055 C2058 1.350 . S
N2056 S2054 1.610 . S
N2056 C2057 1.351 . S
C2057 C2051 1.428 . S
C2057 N2056 1.351 . S
C2057 C2058 1.434 . S
C2058 C2049 1.429 . S
C2058 N2055 1.350 . S
C2058 C2057 1.434 . S
C2059 C2060 1.369 . S
C2059 C2061 1.419 . S
C2059 H2063 0.930 . S
C2060 C2059 1.369 . S
C2060 C2069 1.429 . S
C2061 C2059 1.419 . S
C2061 C2062 1.363 . S
C2061 H2064 0.929 . S
C2062 C2061 1.363 . S
C2062 C2068 1.428 . S
H2063 C2059 0.930 . S
H2064 C2061 0.929 . S
S2065 N2066 1.613 . S
S2065 N2067 1.610 . S
N2066 S2065 1.613 . S
N2066 C2069 1.350 . S
N2067 S2065 1.610 . S
N2067 C2068 1.351 . S
C2068 C2062 1.428 . S
C2068 N2067 1.351 . S
C2068 C2069 1.434 . S
C2069 C2060 1.429 . S
C2069 N2066 1.350 . S
C2069 C2068 1.434 . S
C2070 C2071 1.369 . S
C2070 C2072 1.419 . S
C2070 H2074 0.930 . S
C2071 C2070 1.369 . S
C2071 C2080 1.429 . S
C2072 C2070 1.419 . S
C2072 C2073 1.363 . S
C2072 H2075 0.929 . S
C2073 C2072 1.363 . S
C2073 C2079 1.428 . S
H2074 C2070 0.930 . S
H2075 C2072 0.929 . S
S2076 N2077 1.613 . S
S2076 N2078 1.610 . S
N2077 S2076 1.613 . S
N2077 C2080 1.350 . S
N2078 S2076 1.610 . S
N2078 C2079 1.351 . S
C2079 C2073 1.428 . S
C2079 N2078 1.351 . S
C2079 C2080 1.434 . S
C2080 C2071 1.429 . S
C2080 N2077 1.350 . S
C2080 C2079 1.434 . S
C2081 C2082 1.369 . S
C2081 C2083 1.419 . S
C2081 H2085 0.930 . S
C2082 C2081 1.369 . S
C2082 C2091 1.429 . S
C2083 C2081 1.419 . S
C2083 C2084 1.363 . S
C2083 H2086 0.929 . S
C2084 C2083 1.363 . S
C2084 C2090 1.428 . S
H2085 C2081 0.930 . S
H2086 C2083 0.929 . S
S2087 N2088 1.613 . S
S2087 N2089 1.610 . S
N2088 S2087 1.613 . S
N2088 C2091 1.350 . S
N2089 S2087 1.610 . S
N2089 C2090 1.351 . S
C2090 C2084 1.428 . S
C2090 N2089 1.351 . S
C2090 C2091 1.434 . S
C2091 C2082 1.429 . S
C2091 N2088 1.350 . S
C2091 C2090 1.434 . S
C2092 C2093 1.369 . S
C2092 C2094 1.419 . S
C2092 H2096 0.930 . S
C2093 C2092 1.369 . S
C2093 C2102 1.429 . S
C2094 C2092 1.419 . S
C2094 C2095 1.363 . S
C2094 H2097 0.929 . S
C2095 C2094 1.363 . S
C2095 C2101 1.428 . S
H2096 C2092 0.930 . S
H2097 C2094 0.929 . S
S2098 N2099 1.613 . S
S2098 N2100 1.610 . S
N2099 S2098 1.613 . S
N2099 C2102 1.350 . S
N2100 S2098 1.610 . S
N2100 C2101 1.351 . S
C2101 C2095 1.428 . S
C2101 N2100 1.351 . S
C2101 C2102 1.434 . S
C2102 C2093 1.429 . S
C2102 N2099 1.350 . S
C2102 C2101 1.434 . S
C2103 C2104 1.369 . S
C2103 C2105 1.419 . S
C2103 H2107 0.930 . S
C2104 C2103 1.369 . S
C2104 C2113 1.429 . S
C2105 C2103 1.419 . S
C2105 C2106 1.363 . S
C2105 H2108 0.929 . S
C2106 C2105 1.363 . S
C2106 C2112 1.428 . S
H2107 C2103 0.930 . S
H2108 C2105 0.929 . S
S2109 N2110 1.613 . S
S2109 N2111 1.610 . S
N2110 S2109 1.613 . S
N2110 C2113 1.350 . S
N2111 S2109 1.610 . S
N2111 C2112 1.351 . S
C2112 C2106 1.428 . S
C2112 N2111 1.351 . S
C2112 C2113 1.434 . S
C2113 C2104 1.429 . S
C2113 N2110 1.350 . S
C2113 C2112 1.434 . S
C2114 C2115 1.369 . S
C2114 C2116 1.419 . S
C2114 H2118 0.930 . S
C2115 C2114 1.369 . S
C2115 C2124 1.429 . S
C2116 C2114 1.419 . S
C2116 C2117 1.363 . S
C2116 H2119 0.929 . S
C2117 C2116 1.363 . S
C2117 C2123 1.428 . S
H2118 C2114 0.930 . S
H2119 C2116 0.929 . S
S2120 N2121 1.613 . S
S2120 N2122 1.610 . S
N2121 S2120 1.613 . S
N2121 C2124 1.350 . S
N2122 S2120 1.610 . S
N2122 C2123 1.351 . S
C2123 C2117 1.428 . S
C2123 N2122 1.351 . S
C2123 C2124 1.434 . S
C2124 C2115 1.429 . S
C2124 N2121 1.350 . S
C2124 C2123 1.434 . S
C2125 C2126 1.369 . S
C2125 C2127 1.419 . S
C2125 H2129 0.930 . S
C2126 C2125 1.369 . S
C2126 C2135 1.429 . S
C2127 C2125 1.419 . S
C2127 C2128 1.363 . S
C2127 H2130 0.929 . S
C2128 C2127 1.363 . S
C2128 C2134 1.428 . S
H2129 C2125 0.930 . S
H2130 C2127 0.929 . S
S2131 N2132 1.613 . S
S2131 N2133 1.610 . S
N2132 S2131 1.613 . S
N2132 C2135 1.350 . S
N2133 S2131 1.610 . S
N2133 C2134 1.351 . S
C2134 C2128 1.428 . S
C2134 N2133 1.351 . S
C2134 C2135 1.434 . S
C2135 C2126 1.429 . S
C2135 N2132 1.350 . S
C2135 C2134 1.434 . S
C2136 C2137 1.369 . S
C2136 C2138 1.419 . S
C2136 H2140 0.930 . S
C2137 C2136 1.369 . S
C2137 C2146 1.429 . S
C2138 C2136 1.419 . S
C2138 C2139 1.363 . S
C2138 H2141 0.929 . S
C2139 C2138 1.363 . S
C2139 C2145 1.428 . S
H2140 C2136 0.930 . S
H2141 C2138 0.929 . S
S2142 N2143 1.613 . S
S2142 N2144 1.610 . S
N2143 S2142 1.613 . S
N2143 C2146 1.350 . S
N2144 S2142 1.610 . S
N2144 C2145 1.351 . S
C2145 C2139 1.428 . S
C2145 N2144 1.351 . S
C2145 C2146 1.434 . S
C2146 C2137 1.429 . S
C2146 N2143 1.350 . S
C2146 C2145 1.434 . S
C2147 C2148 1.369 . S
C2147 C2149 1.419 . S
C2147 H2151 0.930 . S
C2148 C2147 1.369 . S
C2148 C2157 1.429 . S
C2149 C2147 1.419 . S
C2149 C2150 1.363 . S
C2149 H2152 0.929 . S
C2150 C2149 1.363 . S
C2150 C2156 1.428 . S
H2151 C2147 0.930 . S
H2152 C2149 0.929 . S
S2153 N2154 1.613 . S
S2153 N2155 1.610 . S
N2154 S2153 1.613 . S
N2154 C2157 1.350 . S
N2155 S2153 1.610 . S
N2155 C2156 1.351 . S
C2156 C2150 1.428 . S
C2156 N2155 1.351 . S
C2156 C2157 1.434 . S
C2157 C2148 1.429 . S
C2157 N2154 1.350 . S
C2157 C2156 1.434 . S
C2158 C2159 1.369 . S
C2158 C2160 1.419 . S
C2158 H2162 0.930 . S
C2159 C2158 1.369 . S
C2159 C2168 1.429 . S
C2160 C2158 1.419 . S
C2160 C2161 1.363 . S
C2160 H2163 0.929 . S
C2161 C2160 1.363 . S
C2161 C2167 1.428 . S
H2162 C2158 0.930 . S
H2163 C2160 0.929 . S
S2164 N2165 1.613 . S
S2164 N2166 1.610 . S
N2165 S2164 1.613 . S
N2165 C2168 1.350 . S
N2166 S2164 1.610 . S
N2166 C2167 1.351 . S
C2167 C2161 1.428 . S
C2167 N2166 1.351 . S
C2167 C2168 1.434 . S
C2168 C2159 1.429 . S
C2168 N2165 1.350 . S
C2168 C2167 1.434 . S
C2169 C2170 1.369 . S
C2169 C2171 1.419 . S
C2169 H2173 0.930 . S
C2170 C2169 1.369 . S
C2170 C2179 1.429 . S
C2171 C2169 1.419 . S
C2171 C2172 1.363 . S
C2171 H2174 0.929 . S
C2172 C2171 1.363 . S
C2172 C2178 1.428 . S
H2173 C2169 0.930 . S
H2174 C2171 0.929 . S
S2175 N2176 1.613 . S
S2175 N2177 1.610 . S
N2176 S2175 1.613 . S
N2176 C2179 1.350 . S
N2177 S2175 1.610 . S
N2177 C2178 1.351 . S
C2178 C2172 1.428 . S
C2178 N2177 1.351 . S
C2178 C2179 1.434 . S
C2179 C2170 1.429 . S
C2179 N2176 1.350 . S
C2179 C2178 1.434 . S
C2180 C2181 1.369 . S
C2180 C2182 1.419 . S
C2180 H2184 0.930 . S
C2181 C2180 1.369 . S
C2181 C2190 1.429 . S
C2182 C2180 1.419 . S
C2182 C2183 1.363 . S
C2182 H2185 0.929 . S
C2183 C2182 1.363 . S
C2183 C2189 1.428 . S
H2184 C2180 0.930 . S
H2185 C2182 0.929 . S
S2186 N2187 1.613 . S
S2186 N2188 1.610 . S
N2187 S2186 1.613 . S
N2187 C2190 1.350 . S
N2188 S2186 1.610 . S
N2188 C2189 1.351 . S
C2189 C2183 1.428 . S
C2189 N2188 1.351 . S
C2189 C2190 1.434 . S
C2190 C2181 1.429 . S
C2190 N2187 1.350 . S
C2190 C2189 1.434 . S
C2191 C2192 1.369 . S
C2191 C2193 1.419 . S
C2191 H2195 0.930 . S
C2192 C2191 1.369 . S
C2192 C2201 1.429 . S
C2193 C2191 1.419 . S
C2193 C2194 1.363 . S
C2193 H2196 0.929 . S
C2194 C2193 1.363 . S
C2194 C2200 1.428 . S
H2195 C2191 0.930 . S
H2196 C2193 0.929 . S
S2197 N2198 1.613 . S
S2197 N2199 1.610 . S
N2198 S2197 1.613 . S
N2198 C2201 1.350 . S
N2199 S2197 1.610 . S
N2199 C2200 1.351 . S
C2200 C2194 1.428 . S
C2200 N2199 1.351 . S
C2200 C2201 1.434 . S
C2201 C2192 1.429 . S
C2201 N2198 1.350 . S
C2201 C2200 1.434 . S
C2202 C2203 1.369 . S
C2202 C2204 1.419 . S
C2202 H2206 0.930 . S
C2203 C2202 1.369 . S
C2203 C2212 1.429 . S
C2204 C2202 1.419 . S
C2204 C2205 1.363 . S
C2204 H2207 0.929 . S
C2205 C2204 1.363 . S
C2205 C2211 1.428 . S
H2206 C2202 0.930 . S
H2207 C2204 0.929 . S
S2208 N2209 1.613 . S
S2208 N2210 1.610 . S
N2209 S2208 1.613 . S
N2209 C2212 1.350 . S
N2210 S2208 1.610 . S
N2210 C2211 1.351 . S
C2211 C2205 1.428 . S
C2211 N2210 1.351 . S
C2211 C2212 1.434 . S
C2212 C2203 1.429 . S
C2212 N2209 1.350 . S
C2212 C2211 1.434 . S
C2213 C2214 1.369 . S
C2213 C2215 1.419 . S
C2213 H2217 0.930 . S
C2214 C2213 1.369 . S
C2214 C2223 1.429 . S
C2215 C2213 1.419 . S
C2215 C2216 1.363 . S
C2215 H2218 0.929 . S
C2216 C2215 1.363 . S
C2216 C2222 1.428 . S
H2217 C2213 0.930 . S
H2218 C2215 0.929 . S
S2219 N2220 1.613 . S
S2219 N2221 1.610 . S
N2220 S2219 1.613 . S
N2220 C2223 1.350 . S
N2221 S2219 1.610 . S
N2221 C2222 1.351 . S
C2222 C2216 1.428 . S
C2222 N2221 1.351 . S
C2222 C2223 1.434 . S
C2223 C2214 1.429 . S
C2223 N2220 1.350 . S
C2223 C2222 1.434 . S
C2224 C2225 1.369 . S
C2224 C2226 1.419 . S
C2224 H2228 0.930 . S
C2225 C2224 1.369 . S
C2225 C2234 1.429 . S
C2226 C2224 1.419 . S
C2226 C2227 1.363 . S
C2226 H2229 0.929 . S
C2227 C2226 1.363 . S
C2227 C2233 1.428 . S
H2228 C2224 0.930 . S
H2229 C2226 0.929 . S
S2230 N2231 1.613 . S
S2230 N2232 1.610 . S
N2231 S2230 1.613 . S
N2231 C2234 1.350 . S
N2232 S2230 1.610 . S
N2232 C2233 1.351 . S
C2233 C2227 1.428 . S
C2233 N2232 1.351 . S
C2233 C2234 1.434 . S
C2234 C2225 1.429 . S
C2234 N2231 1.350 . S
C2234 C2233 1.434 . S
C2235 C2236 1.369 . S
C2235 C2237 1.419 . S
C2235 H2239 0.930 . S
C2236 C2235 1.369 . S
C2236 C2245 1.429 . S
C2237 C2235 1.419 . S
C2237 C2238 1.363 . S
C2237 H2240 0.929 . S
C2238 C2237 1.363 . S
C2238 C2244 1.428 . S
H2239 C2235 0.930 . S
H2240 C2237 0.929 . S
S2241 N2242 1.613 . S
S2241 N2243 1.610 . S
N2242 S2241 1.613 . S
N2242 C2245 1.350 . S
N2243 S2241 1.610 . S
N2243 C2244 1.351 . S
C2244 C2238 1.428 . S
C2244 N2243 1.351 . S
C2244 C2245 1.434 . S
C2245 C2236 1.429 . S
C2245 N2242 1.350 . S
C2245 C2244 1.434 . S
C2246 C2247 1.369 . S
C2246 C2248 1.419 . S
C2246 H2250 0.930 . S
C2247 C2246 1.369 . S
C2247 C2256 1.429 . S
C2248 C2246 1.419 . S
C2248 C2249 1.363 . S
C2248 H2251 0.929 . S
C2249 C2248 1.363 . S
C2249 C2255 1.428 . S
H2250 C2246 0.930 . S
H2251 C2248 0.929 . S
S2252 N2253 1.613 . S
S2252 N2254 1.610 . S
N2253 S2252 1.613 . S
N2253 C2256 1.350 . S
N2254 S2252 1.610 . S
N2254 C2255 1.351 . S
C2255 C2249 1.428 . S
C2255 N2254 1.351 . S
C2255 C2256 1.434 . S
C2256 C2247 1.429 . S
C2256 N2253 1.350 . S
C2256 C2255 1.434 . S
C2257 C2258 1.369 . S
C2257 C2259 1.419 . S
C2257 H2261 0.930 . S
C2258 C2257 1.369 . S
C2258 C2267 1.429 . S
C2259 C2257 1.419 . S
C2259 C2260 1.363 . S
C2259 H2262 0.929 . S
C2260 C2259 1.363 . S
C2260 C2266 1.428 . S
H2261 C2257 0.930 . S
H2262 C2259 0.929 . S
S2263 N2264 1.613 . S
S2263 N2265 1.610 . S
N2264 S2263 1.613 . S
N2264 C2267 1.350 . S
N2265 S2263 1.610 . S
N2265 C2266 1.351 . S
C2266 C2260 1.428 . S
C2266 N2265 1.351 . S
C2266 C2267 1.434 . S
C2267 C2258 1.429 . S
C2267 N2264 1.350 . S
C2267 C2266 1.434 . S
C2268 C2269 1.369 . S
C2268 C2270 1.419 . S
C2268 H2272 0.930 . S
C2269 C2268 1.369 . S
C2269 C2278 1.429 . S
C2270 C2268 1.419 . S
C2270 C2271 1.363 . S
C2270 H2273 0.929 . S
C2271 C2270 1.363 . S
C2271 C2277 1.428 . S
H2272 C2268 0.930 . S
H2273 C2270 0.929 . S
S2274 N2275 1.613 . S
S2274 N2276 1.610 . S
N2275 S2274 1.613 . S
N2275 C2278 1.350 . S
N2276 S2274 1.610 . S
N2276 C2277 1.351 . S
C2277 C2271 1.428 . S
C2277 N2276 1.351 . S
C2277 C2278 1.434 . S
C2278 C2269 1.429 . S
C2278 N2275 1.350 . S
C2278 C2277 1.434 . S
C2279 C2280 1.369 . S
C2279 C2281 1.419 . S
C2279 H2283 0.930 . S
C2280 C2279 1.369 . S
C2280 C2289 1.429 . S
C2281 C2279 1.419 . S
C2281 C2282 1.363 . S
C2281 H2284 0.929 . S
C2282 C2281 1.363 . S
C2282 C2288 1.428 . S
H2283 C2279 0.930 . S
H2284 C2281 0.929 . S
S2285 N2286 1.613 . S
S2285 N2287 1.610 . S
N2286 S2285 1.613 . S
N2286 C2289 1.350 . S
N2287 S2285 1.610 . S
N2287 C2288 1.351 . S
C2288 C2282 1.428 . S
C2288 N2287 1.351 . S
C2288 C2289 1.434 . S
C2289 C2280 1.429 . S
C2289 N2286 1.350 . S
C2289 C2288 1.434 . S
C2290 C2291 1.369 . S
C2290 C2292 1.419 . S
C2290 H2294 0.930 . S
C2291 C2290 1.369 . S
C2291 C2300 1.429 . S
C2292 C2290 1.419 . S
C2292 C2293 1.363 . S
C2292 H2295 0.929 . S
C2293 C2292 1.363 . S
C2293 C2299 1.428 . S
H2294 C2290 0.930 . S
H2295 C2292 0.929 . S
S2296 N2297 1.613 . S
S2296 N2298 1.610 . S
N2297 S2296 1.613 . S
N2297 C2300 1.350 . S
N2298 S2296 1.610 . S
N2298 C2299 1.351 . S
C2299 C2293 1.428 . S
C2299 N2298 1.351 . S
C2299 C2300 1.434 . S
C2300 C2291 1.429 . S
C2300 N2297 1.350 . S
C2300 C2299 1.434 . S
C2301 C2302 1.369 . S
C2301 C2303 1.419 . S
C2301 H2305 0.930 . S
C2302 C2301 1.369 . S
C2302 C2311 1.429 . S
C2303 C2301 1.419 . S
C2303 C2304 1.363 . S
C2303 H2306 0.929 . S
C2304 C2303 1.363 . S
C2304 C2310 1.428 . S
H2305 C2301 0.930 . S
H2306 C2303 0.929 . S
S2307 N2308 1.613 . S
S2307 N2309 1.610 . S
N2308 S2307 1.613 . S
N2308 C2311 1.350 . S
N2309 S2307 1.610 . S
N2309 C2310 1.351 . S
C2310 C2304 1.428 . S
C2310 N2309 1.351 . S
C2310 C2311 1.434 . S
C2311 C2302 1.429 . S
C2311 N2308 1.350 . S
C2311 C2310 1.434 . S
C2312 C2313 1.369 . S
C2312 C2314 1.419 . S
C2312 H2316 0.930 . S
C2313 C2312 1.369 . S
C2313 C2322 1.429 . S
C2314 C2312 1.419 . S
C2314 C2315 1.363 . S
C2314 H2317 0.929 . S
C2315 C2314 1.363 . S
C2315 C2321 1.428 . S
H2316 C2312 0.930 . S
H2317 C2314 0.929 . S
S2318 N2319 1.613 . S
S2318 N2320 1.610 . S
N2319 S2318 1.613 . S
N2319 C2322 1.350 . S
N2320 S2318 1.610 . S
N2320 C2321 1.351 . S
C2321 C2315 1.428 . S
C2321 N2320 1.351 . S
C2321 C2322 1.434 . S
C2322 C2313 1.429 . S
C2322 N2319 1.350 . S
C2322 C2321 1.434 . S
C2323 C2324 1.369 . S
C2323 C2325 1.419 . S
C2323 H2327 0.930 . S
C2324 C2323 1.369 . S
C2324 C2333 1.429 . S
C2325 C2323 1.419 . S
C2325 C2326 1.363 . S
C2325 H2328 0.929 . S
C2326 C2325 1.363 . S
C2326 C2332 1.428 . S
H2327 C2323 0.930 . S
H2328 C2325 0.929 . S
S2329 N2330 1.613 . S
S2329 N2331 1.610 . S
N2330 S2329 1.613 . S
N2330 C2333 1.350 . S
N2331 S2329 1.610 . S
N2331 C2332 1.351 . S
C2332 C2326 1.428 . S
C2332 N2331 1.351 . S
C2332 C2333 1.434 . S
C2333 C2324 1.429 . S
C2333 N2330 1.350 . S
C2333 C2332 1.434 . S
C2334 C2335 1.369 . S
C2334 C2336 1.419 . S
C2334 H2338 0.930 . S
C2335 C2334 1.369 . S
C2335 C2344 1.429 . S
C2336 C2334 1.419 . S
C2336 C2337 1.363 . S
C2336 H2339 0.929 . S
C2337 C2336 1.363 . S
C2337 C2343 1.428 . S
H2338 C2334 0.930 . S
H2339 C2336 0.929 . S
S2340 N2341 1.613 . S
S2340 N2342 1.610 . S
N2341 S2340 1.613 . S
N2341 C2344 1.350 . S
N2342 S2340 1.610 . S
N2342 C2343 1.351 . S
C2343 C2337 1.428 . S
C2343 N2342 1.351 . S
C2343 C2344 1.434 . S
C2344 C2335 1.429 . S
C2344 N2341 1.350 . S
C2344 C2343 1.434 . S
C2345 C2346 1.369 . S
C2345 C2347 1.419 . S
C2345 H2349 0.930 . S
C2346 C2345 1.369 . S
C2346 C2355 1.429 . S
C2347 C2345 1.419 . S
C2347 C2348 1.363 . S
C2347 H2350 0.929 . S
C2348 C2347 1.363 . S
C2348 C2354 1.428 . S
H2349 C2345 0.930 . S
H2350 C2347 0.929 . S
S2351 N2352 1.613 . S
S2351 N2353 1.610 . S
N2352 S2351 1.613 . S
N2352 C2355 1.350 . S
N2353 S2351 1.610 . S
N2353 C2354 1.351 . S
C2354 C2348 1.428 . S
C2354 N2353 1.351 . S
C2354 C2355 1.434 . S
C2355 C2346 1.429 . S
C2355 N2352 1.350 . S
C2355 C2354 1.434 . S
C2356 C2357 1.369 . S
C2356 C2358 1.419 . S
C2356 H2360 0.930 . S
C2357 C2356 1.369 . S
C2357 C2366 1.429 . S
C2358 C2356 1.419 . S
C2358 C2359 1.363 . S
C2358 H2361 0.929 . S
C2359 C2358 1.363 . S
C2359 C2365 1.428 . S
H2360 C2356 0.930 . S
H2361 C2358 0.929 . S
S2362 N2363 1.613 . S
S2362 N2364 1.610 . S
N2363 S2362 1.613 . S
N2363 C2366 1.350 . S
N2364 S2362 1.610 . S
N2364 C2365 1.351 . S
C2365 C2359 1.428 . S
C2365 N2364 1.351 . S
C2365 C2366 1.434 . S
C2366 C2357 1.429 . S
C2366 N2363 1.350 . S
C2366 C2365 1.434 . S
C2367 C2368 1.369 . S
C2367 C2369 1.419 . S
C2367 H2371 0.930 . S
C2368 C2367 1.369 . S
C2368 C2377 1.429 . S
C2369 C2367 1.419 . S
C2369 C2370 1.363 . S
C2369 H2372 0.929 . S
C2370 C2369 1.363 . S
C2370 C2376 1.428 . S
H2371 C2367 0.930 . S
H2372 C2369 0.929 . S
S2373 N2374 1.613 . S
S2373 N2375 1.610 . S
N2374 S2373 1.613 . S
N2374 C2377 1.350 . S
N2375 S2373 1.610 . S
N2375 C2376 1.351 . S
C2376 C2370 1.428 . S
C2376 N2375 1.351 . S
C2376 C2377 1.434 . S
C2377 C2368 1.429 . S
C2377 N2374 1.350 . S
C2377 C2376 1.434 . S
C2378 C2379 1.369 . S
C2378 C2380 1.419 . S
C2378 H2382 0.930 . S
C2379 C2378 1.369 . S
C2379 C2388 1.429 . S
C2380 C2378 1.419 . S
C2380 C2381 1.363 . S
C2380 H2383 0.929 . S
C2381 C2380 1.363 . S
C2381 C2387 1.428 . S
H2382 C2378 0.930 . S
H2383 C2380 0.929 . S
S2384 N2385 1.613 . S
S2384 N2386 1.610 . S
N2385 S2384 1.613 . S
N2385 C2388 1.350 . S
N2386 S2384 1.610 . S
N2386 C2387 1.351 . S
C2387 C2381 1.428 . S
C2387 N2386 1.351 . S
C2387 C2388 1.434 . S
C2388 C2379 1.429 . S
C2388 N2385 1.350 . S
C2388 C2387 1.434 . S
C2389 C2390 1.369 . S
C2389 C2391 1.419 . S
C2389 H2393 0.930 . S
C2390 C2389 1.369 . S
C2390 C2399 1.429 . S
C2391 C2389 1.419 . S
C2391 C2392 1.363 . S
C2391 H2394 0.929 . S
C2392 C2391 1.363 . S
C2392 C2398 1.428 . S
H2393 C2389 0.930 . S
H2394 C2391 0.929 . S
S2395 N2396 1.613 . S
S2395 N2397 1.610 . S
N2396 S2395 1.613 . S
N2396 C2399 1.350 . S
N2397 S2395 1.610 . S
N2397 C2398 1.351 . S
C2398 C2392 1.428 . S
C2398 N2397 1.351 . S
C2398 C2399 1.434 . S
C2399 C2390 1.429 . S
C2399 N2396 1.350 . S
C2399 C2398 1.434 . S
C2400 C2401 1.369 . S
C2400 C2402 1.419 . S
C2400 H2404 0.930 . S
C2401 C2400 1.369 . S
C2401 C2410 1.429 . S
C2402 C2400 1.419 . S
C2402 C2403 1.363 1_455 S
C2402 H2405 0.929 1_455 S
C2403 C2402 1.363 1_655 S
C2403 C2409 1.428 1_655 S
H2404 C2400 0.930 . S
H2405 C2402 0.929 1_655 S
S2406 N2407 1.613 . S
S2406 N2408 1.570 1_455 S
N2407 S2406 1.613 . S
N2407 C2410 1.350 . S
N2408 S2406 1.570 1_655 S
N2408 C2409 1.335 1_655 S
C2409 C2403 1.428 1_455 S
C2409 N2408 1.335 1_455 S
C2409 C2410 1.434 . S
C2410 C2401 1.429 . S
C2410 N2407 1.350 . S
C2410 C2409 1.434 . S
C2411 C2412 1.369 . S
C2411 C2413 1.419 . S
C2411 H2415 0.930 . S
C2412 C2411 1.369 . S
C2412 C2421 1.429 . S
C2413 C2411 1.419 . S
C2413 C2414 1.363 1_545 S
C2413 H2416 0.929 1_545 S
C2414 C2413 1.363 1_565 S
C2414 C2420 1.428 1_565 S
H2415 C2411 0.930 . S
H2416 C2413 0.929 1_565 S
S2417 N2418 1.613 . S
S2417 N2419 1.610 1_545 S
N2418 S2417 1.613 . S
N2418 C2421 1.350 . S
N2419 S2417 1.610 1_565 S
N2419 C2420 1.351 1_565 S
C2420 C2414 1.428 1_545 S
C2420 N2419 1.351 1_545 S
C2420 C2421 1.434 . S
C2421 C2412 1.429 . S
C2421 N2418 1.350 . S
C2421 C2420 1.434 . S
C2422 C2423 1.369 . S
C2422 C2424 1.419 . S
C2422 H2426 0.930 . S
C2423 C2422 1.369 . S
C2423 C2432 1.429 . S
C2424 C2422 1.419 . S
C2424 C2425 1.363 1_655 S
C2424 H2427 0.929 1_655 S
C2425 C2424 1.363 1_455 S
C2425 C2431 1.428 1_455 S
H2426 C2422 0.930 . S
H2427 C2424 0.929 1_455 S
S2428 N2429 1.613 . S
S2428 N2430 1.575 1_655 S
N2429 S2428 1.613 . S
N2429 C2432 1.350 . S
N2430 S2428 1.575 1_455 S
N2430 C2431 1.337 1_455 S
C2431 C2425 1.428 1_655 S
C2431 N2430 1.337 1_655 S
C2431 C2432 1.434 . S
C2432 C2423 1.429 . S
C2432 N2429 1.350 . S
C2432 C2431 1.434 . S
C2433 C2434 1.369 . S
C2433 C2435 1.419 . S
C2433 H2437 0.930 . S
C2434 C2433 1.369 . S
C2434 C2443 1.429 . S
C2435 C2433 1.419 . S
C2435 C2436 1.363 1_565 S
C2435 H2438 0.929 1_565 S
C2436 C2435 1.363 1_545 S
C2436 C2442 1.428 1_545 S
H2437 C2433 0.930 . S
H2438 C2435 0.929 1_545 S
S2439 N2440 1.613 . S
S2439 N2441 1.610 1_565 S
N2440 S2439 1.613 . S
N2440 C2443 1.350 . S
N2441 S2439 1.610 1_545 S
N2441 C2442 1.351 1_545 S
C2442 C2436 1.428 1_565 S
C2442 N2441 1.351 1_565 S
C2442 C2443 1.434 . S
C2443 C2434 1.429 . S
C2443 N2440 1.350 . S
C2443 C2442 1.434 . S
C2444 C2445 1.369 1_455 S
C2444 C2446 1.419 . S
C2444 H2448 0.933 . S
C2445 C2444 1.369 1_655 S
C2445 C2454 1.429 1_655 S
C2446 C2444 1.419 . S
C2446 C2447 1.363 . S
C2446 H2449 0.929 . S
C2447 C2446 1.363 . S
C2447 C2453 1.428 . S
H2448 C2444 0.933 . S
H2449 C2446 0.929 . S
S2450 N2451 1.613 1_455 S
S2450 N2452 1.610 . S
N2451 S2450 1.613 1_655 S
N2451 C2454 1.350 1_655 S
N2452 S2450 1.610 . S
N2452 C2453 1.351 . S
C2453 C2447 1.428 . S
C2453 N2452 1.351 . S
C2453 C2454 1.434 . S
C2454 C2445 1.429 1_455 S
C2454 N2451 1.350 1_455 S
C2454 C2453 1.434 . S
C2455 C2456 1.369 . S
C2455 C2457 1.419 . S
C2455 H2459 0.930 . S
C2456 C2455 1.369 . S
C2456 C2465 1.429 . S
C2457 C2455 1.419 . S
C2457 C2458 1.363 1_545 S
C2457 H2460 0.933 . S
C2458 C2457 1.363 1_565 S
C2458 C2464 1.428 1_565 S
H2459 C2455 0.930 . S
H2460 C2457 0.933 . S
S2461 N2462 1.613 . S
S2461 N2463 1.610 1_545 S
N2462 S2461 1.613 . S
N2462 C2465 1.350 . S
N2463 S2461 1.610 1_565 S
N2463 C2464 1.351 1_565 S
C2464 C2458 1.428 1_545 S
C2464 N2463 1.351 1_545 S
C2464 C2465 1.434 . S
C2465 C2456 1.429 . S
C2465 N2462 1.350 . S
C2465 C2464 1.434 . S
C2466 C2467 1.369 1_655 S
C2466 C2468 1.419 . S
C2466 H2470 0.930 1_655 S
C2467 C2466 1.369 1_455 S
C2467 C2476 1.429 1_455 S
C2468 C2466 1.419 . S
C2468 C2469 1.363 . S
C2468 H2471 0.929 . S
C2469 C2468 1.363 . S
C2469 C2475 1.428 . S
H2470 C2466 0.930 1_455 S
H2471 C2468 0.929 . S
S2472 N2473 1.561 1_655 S
S2472 N2474 1.610 . S
N2473 S2472 1.561 1_455 S
N2473 C2476 1.329 1_455 S
N2474 S2472 1.610 . S
N2474 C2475 1.351 . S
C2475 C2469 1.428 . S
C2475 N2474 1.351 . S
C2475 C2476 1.434 . S
C2476 C2467 1.429 1_655 S
C2476 N2473 1.329 1_655 S
C2476 C2475 1.434 . S
C2477 C2478 1.369 1_565 S
C2477 C2479 1.419 . S
C2477 H2481 0.930 1_565 S
C2478 C2477 1.369 1_545 S
C2478 C2487 1.429 1_545 S
C2479 C2477 1.419 . S
C2479 C2480 1.363 . S
C2479 H2482 0.929 . S
C2480 C2479 1.363 . S
C2480 C2486 1.428 . S
H2481 C2477 0.930 1_545 S
H2482 C2479 0.929 . S
S2483 N2484 1.613 1_565 S
S2483 N2485 1.610 . S
N2484 S2483 1.613 1_545 S
N2484 C2487 1.350 1_545 S
N2485 S2483 1.610 . S
N2485 C2486 1.351 . S
C2486 C2480 1.428 . S
C2486 N2485 1.351 . S
C2486 C2487 1.434 . S
C2487 C2478 1.429 1_565 S
C2487 N2484 1.350 1_565 S
C2487 C2486 1.434 . S
C2488 C2489 1.369 . S
C2488 C2490 1.419 . S
C2488 H2492 0.930 . S
C2489 C2488 1.369 . S
C2489 C2498 1.429 . S
C2490 C2488 1.419 . S
C2490 C2491 1.363 1_545 S
C2490 H2493 0.933 . S
C2491 C2490 1.363 1_565 S
C2491 C2497 1.428 1_565 S
H2492 C2488 0.930 . S
H2493 C2490 0.933 . S
S2494 N2495 1.613 . S
S2494 N2496 1.610 1_545 S
N2495 S2494 1.613 . S
N2495 C2498 1.350 . S
N2496 S2494 1.610 1_565 S
N2496 C2497 1.351 1_565 S
C2497 C2491 1.428 1_545 S
C2497 N2496 1.351 1_545 S
C2497 C2498 1.434 . S
C2498 C2489 1.429 . S
C2498 N2495 1.350 . S
C2498 C2497 1.434 . S
C2499 C2500 1.369 1_655 S
C2499 C2501 1.419 . S
C2499 H2503 0.930 1_655 S
C2500 C2499 1.369 1_455 S
C2500 C2509 1.429 1_455 S
C2501 C2499 1.419 . S
C2501 C2502 1.363 . S
C2501 H2504 0.929 . S
C2502 C2501 1.363 . S
C2502 C2508 1.428 . S
H2503 C2499 0.930 1_455 S
H2504 C2501 0.929 . S
S2505 N2506 1.592 1_655 S
S2505 N2507 1.610 . S
N2506 S2505 1.592 1_455 S
N2506 C2509 1.342 1_455 S
N2507 S2505 1.610 . S
N2507 C2508 1.351 . S
C2508 C2502 1.428 . S
C2508 N2507 1.351 . S
C2508 C2509 1.434 . S
C2509 C2500 1.429 1_655 S
C2509 N2506 1.342 1_655 S
C2509 C2508 1.434 . S
C2510 C2511 1.369 . S
C2510 C2512 1.419 . S
C2510 H2514 0.930 . S
C2511 C2510 1.369 . S
C2511 C2520 1.429 . S
C2512 C2510 1.419 . S
C2512 C2513 1.363 1_565 S
C2512 H2515 0.929 1_565 S
C2513 C2512 1.363 1_545 S
C2513 C2519 1.428 1_545 S
H2514 C2510 0.930 . S
H2515 C2512 0.929 1_545 S
S2516 N2517 1.613 . S
S2516 N2518 1.610 1_565 S
N2517 S2516 1.613 . S
N2517 C2520 1.350 . S
N2518 S2516 1.610 1_545 S
N2518 C2519 1.351 1_545 S
C2519 C2513 1.428 1_565 S
C2519 N2518 1.351 1_565 S
C2519 C2520 1.434 . S
C2520 C2511 1.429 . S
C2520 N2517 1.350 . S
C2520 C2519 1.434 . S
C2521 C2522 1.369 . S
C2521 C2523 1.419 . S
C2521 H2525 0.930 . S
C2522 C2521 1.369 . S
C2522 C2531 1.429 . S
C2523 C2521 1.419 . S
C2523 C2524 1.363 1_455 S
C2523 H2526 0.933 . S
C2524 C2523 1.363 1_655 S
C2524 C2530 1.428 1_655 S
H2525 C2521 0.930 . S
H2526 C2523 0.933 . S
S2527 N2528 1.613 . S
S2527 N2529 1.610 1_455 S
N2528 S2527 1.613 . S
N2528 C2531 1.350 . S
N2529 S2527 1.610 1_655 S
N2529 C2530 1.351 1_655 S
C2530 C2524 1.428 1_455 S
C2530 N2529 1.351 1_455 S
C2530 C2531 1.434 . S
C2531 C2522 1.429 . S
C2531 N2528 1.350 . S
C2531 C2530 1.434 . S
C2532 C2533 1.369 . S
C2532 C2534 1.419 . S
C2532 H2536 0.930 . S
C2533 C2532 1.369 . S
C2533 C2542 1.429 . S
C2534 C2532 1.419 . S
C2534 C2535 1.363 1_565 S
C2534 H2537 0.934 . S
C2535 C2534 1.363 1_545 S
C2535 C2541 1.428 1_545 S
H2536 C2532 0.930 . S
H2537 C2534 0.934 . S
S2538 N2539 1.613 . S
S2538 N2540 1.610 1_565 S
N2539 S2538 1.613 . S
N2539 C2542 1.350 . S
N2540 S2538 1.610 1_545 S
N2540 C2541 1.351 1_545 S
C2541 C2535 1.428 1_565 S
C2541 N2540 1.351 1_565 S
C2541 C2542 1.434 . S
C2542 C2533 1.429 . S
C2542 N2539 1.350 . S
C2542 C2541 1.434 . S
C2543 C2544 1.369 . S
C2543 C2545 1.419 . S
C2543 H2547 0.930 . S
C2544 C2543 1.369 . S
C2544 C2553 1.429 . S
C2545 C2543 1.419 . S
C2545 C2546 1.363 1_455 S
C2545 H2548 0.929 . S
C2546 C2545 1.363 1_655 S
C2546 C2552 1.428 1_655 S
H2547 C2543 0.930 . S
H2548 C2545 0.929 . S
S2549 N2550 1.613 . S
S2549 N2551 1.610 1_455 S
N2550 S2549 1.613 . S
N2550 C2553 1.350 . S
N2551 S2549 1.610 1_655 S
N2551 C2552 1.351 1_655 S
C2552 C2546 1.428 1_455 S
C2552 N2551 1.351 1_455 S
C2552 C2553 1.434 . S
C2553 C2544 1.429 . S
C2553 N2550 1.350 . S
C2553 C2552 1.434 . S
C2554 C2555 1.369 . S
C2554 C2556 1.419 . S
C2554 H2558 0.930 . S
C2555 C2554 1.369 . S
C2555 C2564 1.429 . S
C2556 C2554 1.419 . S
C2556 C2557 1.363 1_545 S
C2556 H2559 0.927 1_545 S
C2557 C2556 1.363 1_565 S
C2557 C2563 1.428 1_565 S
H2558 C2554 0.930 . S
H2559 C2556 0.927 1_565 S
S2560 N2561 1.613 . S
S2560 N2562 1.610 1_545 S
N2561 S2560 1.613 . S
N2561 C2564 1.350 . S
N2562 S2560 1.610 1_565 S
N2562 C2563 1.351 1_565 S
C2563 C2557 1.428 1_545 S
C2563 N2562 1.351 1_545 S
C2563 C2564 1.434 . S
C2564 C2555 1.429 . S
C2564 N2561 1.350 . S
C2564 C2563 1.434 . S
C2565 C2566 1.369 1_655 S
C2565 C2567 1.419 . S
C2565 H2569 0.930 1_655 S
C2566 C2565 1.369 1_455 S
C2566 C2575 1.429 1_455 S
C2567 C2565 1.419 . S
C2567 C2568 1.363 . S
C2567 H2570 0.929 . S
C2568 C2567 1.363 . S
C2568 C2574 1.428 . S
H2569 C2565 0.930 1_455 S
H2570 C2567 0.929 . S
S2571 N2572 1.613 1_655 S
S2571 N2573 1.610 . S
N2572 S2571 1.613 1_455 S
N2572 C2575 1.350 1_455 S
N2573 S2571 1.610 . S
N2573 C2574 1.351 . S
C2574 C2568 1.428 . S
C2574 N2573 1.351 . S
C2574 C2575 1.434 . S
C2575 C2566 1.429 1_655 S
C2575 N2572 1.350 1_655 S
C2575 C2574 1.434 . S
C2576 C2577 1.369 . S
C2576 C2578 1.419 . S
C2576 H2580 0.930 . S
C2577 C2576 1.369 . S
C2577 C2586 1.429 . S
C2578 C2576 1.419 . S
C2578 C2579 1.363 1_554 S
C2578 H2581 0.929 1_554 S
C2579 C2578 1.363 1_556 S
C2579 C2585 1.428 1_556 S
H2580 C2576 0.930 . S
H2581 C2578 0.929 1_556 S
S2582 N2583 1.613 . S
S2582 N2584 1.610 1_554 S
N2583 S2582 1.613 . S
N2583 C2586 1.350 . S
N2584 S2582 1.610 1_556 S
N2584 C2585 1.351 1_556 S
C2585 C2579 1.428 1_554 S
C2585 N2584 1.351 1_554 S
C2585 C2586 1.434 . S
C2586 C2577 1.429 . S
C2586 N2583 1.350 . S
C2586 C2585 1.434 . S
C2587 C2588 1.369 . S
C2587 C2589 1.419 . S
C2587 H2591 0.930 . S
C2588 C2587 1.369 . S
C2588 C2597 1.429 . S
C2589 C2587 1.419 . S
C2589 C2590 1.363 1_556 S
C2589 H2592 0.909 1_556 S
C2590 C2589 1.363 1_554 S
C2590 C2596 1.428 1_554 S
H2591 C2587 0.930 . S
H2592 C2589 0.909 1_554 S
S2593 N2594 1.613 . S
S2593 N2595 1.610 1_556 S
N2594 S2593 1.613 . S
N2594 C2597 1.350 . S
N2595 S2593 1.610 1_554 S
N2595 C2596 1.351 1_554 S
C2596 C2590 1.428 1_556 S
C2596 N2595 1.351 1_556 S
C2596 C2597 1.434 . S
C2597 C2588 1.429 . S
C2597 N2594 1.350 . S
C2597 C2596 1.434 . S
C2598 C2599 1.369 1_556 S
C2598 C2600 1.419 . S
C2598 H2602 0.930 1_556 S
C2599 C2598 1.369 1_554 S
C2599 C2608 1.429 1_554 S
C2600 C2598 1.419 . S
C2600 C2601 1.363 . S
C2600 H2603 0.929 . S
C2601 C2600 1.363 . S
C2601 C2607 1.428 . S
H2602 C2598 0.930 1_554 S
H2603 C2600 0.929 . S
S2604 N2605 1.613 1_556 S
S2604 N2606 1.610 . S
N2605 S2604 1.613 1_554 S
N2605 C2608 1.350 1_554 S
N2606 S2604 1.610 . S
N2606 C2607 1.351 . S
C2607 C2601 1.428 . S
C2607 N2606 1.351 . S
C2607 C2608 1.434 . S
C2608 C2599 1.429 1_556 S
C2608 N2605 1.350 1_556 S
C2608 C2607 1.434 . S
C2609 C2610 1.369 . S
C2609 C2611 1.419 . S
C2609 H2613 0.930 . S
C2610 C2609 1.369 . S
C2610 C2619 1.429 . S
C2611 C2609 1.419 . S
C2611 C2612 1.363 1_556 S
C2611 H2614 0.932 1_556 S
C2612 C2611 1.363 1_554 S
C2612 C2618 1.428 1_554 S
H2613 C2609 0.930 . S
H2614 C2611 0.932 1_554 S
S2615 N2616 1.613 . S
S2615 N2617 1.610 1_556 S
N2616 S2615 1.613 . S
N2616 C2619 1.350 . S
N2617 S2615 1.610 1_554 S
N2617 C2618 1.351 1_554 S
C2618 C2612 1.428 1_556 S
C2618 N2617 1.351 1_556 S
C2618 C2619 1.434 . S
C2619 C2610 1.429 . S
C2619 N2616 1.350 . S
C2619 C2618 1.434 . S
C2620 C2621 1.369 1_556 S
C2620 C2622 1.419 . S
C2620 H2624 0.932 . S
C2621 C2620 1.369 1_554 S
C2621 C2630 1.429 1_554 S
C2622 C2620 1.419 . S
C2622 C2623 1.363 . S
C2622 H2625 0.929 . S
C2623 C2622 1.363 . S
C2623 C2629 1.428 . S
H2624 C2620 0.932 . S
H2625 C2622 0.929 . S
S2626 N2627 1.613 1_556 S
S2626 N2628 1.610 . S
N2627 S2626 1.613 1_554 S
N2627 C2630 1.350 1_554 S
N2628 S2626 1.610 . S
N2628 C2629 1.351 . S
C2629 C2623 1.428 . S
C2629 N2628 1.351 . S
C2629 C2630 1.434 . S
C2630 C2621 1.429 1_556 S
C2630 N2627 1.350 1_556 S
C2630 C2629 1.434 . S
C2631 C2632 1.369 . S
C2631 C2633 1.419 . S
C2631 H2635 0.930 . S
C2632 C2631 1.369 . S
C2632 C2641 1.429 . S
C2633 C2631 1.419 . S
C2633 C2634 1.363 1_554 S
C2633 H2636 0.908 1_554 S
C2634 C2633 1.363 1_556 S
C2634 C2640 1.428 1_556 S
H2635 C2631 0.930 . S
H2636 C2633 0.908 1_556 S
S2637 N2638 1.613 . S
S2637 N2639 1.610 1_554 S
N2638 S2637 1.613 . S
N2638 C2641 1.350 . S
N2639 S2637 1.610 1_556 S
N2639 C2640 1.351 1_556 S
C2640 C2634 1.428 1_554 S
C2640 N2639 1.351 1_554 S
C2640 C2641 1.434 . S
C2641 C2632 1.429 . S
C2641 N2638 1.350 . S
C2641 C2640 1.434 . S
C2642 C2643 1.369 1_554 S
C2642 C2644 1.419 . S
C2642 H2646 0.930 1_554 S
C2643 C2642 1.369 1_556 S
C2643 C2652 1.429 1_556 S
C2644 C2642 1.419 . S
C2644 C2645 1.363 . S
C2644 H2647 0.929 . S
C2645 C2644 1.363 . S
C2645 C2651 1.428 . S
H2646 C2642 0.930 1_556 S
H2647 C2644 0.929 . S
S2648 N2649 1.613 1_554 S
S2648 N2650 1.610 . S
N2649 S2648 1.613 1_556 S
N2649 C2652 1.350 1_556 S
N2650 S2648 1.610 . S
N2650 C2651 1.351 . S
C2651 C2645 1.428 . S
C2651 N2650 1.351 . S
C2651 C2652 1.434 . S
C2652 C2643 1.429 1_554 S
C2652 N2649 1.350 1_554 S
C2652 C2651 1.434 . S
C2653 C2654 1.369 1_554 S
C2653 C2655 1.419 . S
C2653 H2657 0.930 1_554 S
C2654 C2653 1.369 1_556 S
C2654 C2663 1.429 1_556 S
C2655 C2653 1.419 . S
C2655 C2656 1.363 . S
C2655 H2658 0.929 . S
C2656 C2655 1.363 . S
C2656 C2662 1.428 . S
H2657 C2653 0.930 1_556 S
H2658 C2655 0.929 . S
S2659 N2660 1.613 1_554 S
S2659 N2661 1.610 . S
N2660 S2659 1.613 1_556 S
N2660 C2663 1.350 1_556 S
N2661 S2659 1.610 . S
N2661 C2662 1.351 . S
C2662 C2656 1.428 . S
C2662 N2661 1.351 . S
C2662 C2663 1.434 . S
C2663 C2654 1.429 1_554 S
C2663 N2660 1.350 1_554 S
C2663 C2662 1.434 . S
C2664 C2665 1.369 . S
C2664 C2666 1.419 . S
C2664 H2668 0.930 . S
C2665 C2664 1.369 . S
C2665 C2674 1.429 . S
C2666 C2664 1.419 . S
C2666 C2667 1.363 . S
C2666 H2669 0.929 . S
C2667 C2666 1.363 . S
C2667 C2673 1.428 . S
H2668 C2664 0.930 . S
H2669 C2666 0.929 . S
S2670 N2671 1.613 . S
S2670 N2672 1.610 . S
N2671 S2670 1.613 . S
N2671 C2674 1.350 . S
N2672 S2670 1.610 . S
N2672 C2673 1.351 . S
C2673 C2667 1.428 . S
C2673 N2672 1.351 . S
C2673 C2674 1.434 . S
C2674 C2665 1.429 . S
C2674 N2671 1.350 . S
C2674 C2673 1.434 . S
C2675 C2676 1.369 . S
C2675 C2677 1.419 . S
C2675 H2679 0.930 . S
C2676 C2675 1.369 . S
C2676 C2685 1.429 . S
C2677 C2675 1.419 . S
C2677 C2678 1.363 . S
C2677 H2680 0.929 . S
C2678 C2677 1.363 . S
C2678 C2684 1.428 . S
H2679 C2675 0.930 . S
H2680 C2677 0.929 . S
S2681 N2682 1.613 . S
S2681 N2683 1.610 . S
N2682 S2681 1.613 . S
N2682 C2685 1.350 . S
N2683 S2681 1.610 . S
N2683 C2684 1.351 . S
C2684 C2678 1.428 . S
C2684 N2683 1.351 . S
C2684 C2685 1.434 . S
C2685 C2676 1.429 . S
C2685 N2682 1.350 . S
C2685 C2684 1.434 . S
C2686 C2687 1.369 . S
C2686 C2688 1.419 . S
C2686 H2690 0.930 . S
C2687 C2686 1.369 . S
C2687 C2696 1.429 . S
C2688 C2686 1.419 . S
C2688 C2689 1.363 . S
C2688 H2691 0.929 . S
C2689 C2688 1.363 . S
C2689 C2695 1.428 . S
H2690 C2686 0.930 . S
H2691 C2688 0.929 . S
S2692 N2693 1.613 . S
S2692 N2694 1.610 . S
N2693 S2692 1.613 . S
N2693 C2696 1.350 . S
N2694 S2692 1.610 . S
N2694 C2695 1.351 . S
C2695 C2689 1.428 . S
C2695 N2694 1.351 . S
C2695 C2696 1.434 . S
C2696 C2687 1.429 . S
C2696 N2693 1.350 . S
C2696 C2695 1.434 . S
C2697 C2698 1.369 . S
C2697 C2699 1.419 . S
C2697 H2701 0.930 . S
C2698 C2697 1.369 . S
C2698 C2707 1.429 . S
C2699 C2697 1.419 . S
C2699 C2700 1.363 . S
C2699 H2702 0.929 . S
C2700 C2699 1.363 . S
C2700 C2706 1.428 . S
H2701 C2697 0.930 . S
H2702 C2699 0.929 . S
S2703 N2704 1.613 . S
S2703 N2705 1.610 . S
N2704 S2703 1.613 . S
N2704 C2707 1.350 . S
N2705 S2703 1.610 . S
N2705 C2706 1.351 . S
C2706 C2700 1.428 . S
C2706 N2705 1.351 . S
C2706 C2707 1.434 . S
C2707 C2698 1.429 . S
C2707 N2704 1.350 . S
C2707 C2706 1.434 . S
C2708 C2709 1.369 . S
C2708 C2710 1.419 . S
C2708 H2712 0.930 . S
C2709 C2708 1.369 . S
C2709 C2718 1.429 . S
C2710 C2708 1.419 . S
C2710 C2711 1.363 . S
C2710 H2713 0.929 . S
C2711 C2710 1.363 . S
C2711 C2717 1.428 . S
H2712 C2708 0.930 . S
H2713 C2710 0.929 . S
S2714 N2715 1.613 . S
S2714 N2716 1.610 . S
N2715 S2714 1.613 . S
N2715 C2718 1.350 . S
N2716 S2714 1.610 . S
N2716 C2717 1.351 . S
C2717 C2711 1.428 . S
C2717 N2716 1.351 . S
C2717 C2718 1.434 . S
C2718 C2709 1.429 . S
C2718 N2715 1.350 . S
C2718 C2717 1.434 . S
C2719 C2720 1.369 . S
C2719 C2721 1.419 . S
C2719 H2723 0.930 . S
C2720 C2719 1.369 . S
C2720 C2729 1.429 . S
C2721 C2719 1.419 . S
C2721 C2722 1.363 . S
C2721 H2724 0.929 . S
C2722 C2721 1.363 . S
C2722 C2728 1.428 . S
H2723 C2719 0.930 . S
H2724 C2721 0.929 . S
S2725 N2726 1.613 . S
S2725 N2727 1.610 . S
N2726 S2725 1.613 . S
N2726 C2729 1.350 . S
N2727 S2725 1.610 . S
N2727 C2728 1.351 . S
C2728 C2722 1.428 . S
C2728 N2727 1.351 . S
C2728 C2729 1.434 . S
C2729 C2720 1.429 . S
C2729 N2726 1.350 . S
C2729 C2728 1.434 . S
C2730 C2731 1.369 . S
C2730 C2732 1.419 . S
C2730 H2734 0.930 . S
C2731 C2730 1.369 . S
C2731 C2740 1.429 . S
C2732 C2730 1.419 . S
C2732 C2733 1.363 . S
C2732 H2735 0.929 . S
C2733 C2732 1.363 . S
C2733 C2739 1.428 . S
H2734 C2730 0.930 . S
H2735 C2732 0.929 . S
S2736 N2737 1.613 . S
S2736 N2738 1.610 . S
N2737 S2736 1.613 . S
N2737 C2740 1.350 . S
N2738 S2736 1.610 . S
N2738 C2739 1.351 . S
C2739 C2733 1.428 . S
C2739 N2738 1.351 . S
C2739 C2740 1.434 . S
C2740 C2731 1.429 . S
C2740 N2737 1.350 . S
C2740 C2739 1.434 . S
C2741 C2742 1.369 . S
C2741 C2743 1.419 . S
C2741 H2745 0.930 . S
C2742 C2741 1.369 . S
C2742 C2751 1.429 . S
C2743 C2741 1.419 . S
C2743 C2744 1.363 . S
C2743 H2746 0.929 . S
C2744 C2743 1.363 . S
C2744 C2750 1.428 . S
H2745 C2741 0.930 . S
H2746 C2743 0.929 . S
S2747 N2748 1.613 . S
S2747 N2749 1.610 . S
N2748 S2747 1.613 . S
N2748 C2751 1.350 . S
N2749 S2747 1.610 . S
N2749 C2750 1.351 . S
C2750 C2744 1.428 . S
C2750 N2749 1.351 . S
C2750 C2751 1.434 . S
C2751 C2742 1.429 . S
C2751 N2748 1.350 . S
C2751 C2750 1.434 . S
C2752 C2753 1.369 . S
C2752 C2754 1.419 . S
C2752 H2756 0.930 . S
C2753 C2752 1.369 . S
C2753 C2762 1.429 . S
C2754 C2752 1.419 . S
C2754 C2755 1.363 . S
C2754 H2757 0.929 . S
C2755 C2754 1.363 . S
C2755 C2761 1.428 . S
H2756 C2752 0.930 . S
H2757 C2754 0.929 . S
S2758 N2759 1.613 . S
S2758 N2760 1.610 . S
N2759 S2758 1.613 . S
N2759 C2762 1.350 . S
N2760 S2758 1.610 . S
N2760 C2761 1.351 . S
C2761 C2755 1.428 . S
C2761 N2760 1.351 . S
C2761 C2762 1.434 . S
C2762 C2753 1.429 . S
C2762 N2759 1.350 . S
C2762 C2761 1.434 . S
C2763 C2764 1.369 . S
C2763 C2765 1.419 . S
C2763 H2767 0.930 . S
C2764 C2763 1.369 . S
C2764 C2773 1.429 . S
C2765 C2763 1.419 . S
C2765 C2766 1.363 . S
C2765 H2768 0.929 . S
C2766 C2765 1.363 . S
C2766 C2772 1.428 . S
H2767 C2763 0.930 . S
H2768 C2765 0.929 . S
S2769 N2770 1.613 . S
S2769 N2771 1.610 . S
N2770 S2769 1.613 . S
N2770 C2773 1.350 . S
N2771 S2769 1.610 . S
N2771 C2772 1.351 . S
C2772 C2766 1.428 . S
C2772 N2771 1.351 . S
C2772 C2773 1.434 . S
C2773 C2764 1.429 . S
C2773 N2770 1.350 . S
C2773 C2772 1.434 . S
C2774 C2775 1.369 . S
C2774 C2776 1.419 . S
C2774 H2778 0.930 . S
C2775 C2774 1.369 . S
C2775 C2784 1.429 . S
C2776 C2774 1.419 . S
C2776 C2777 1.363 . S
C2776 H2779 0.929 . S
C2777 C2776 1.363 . S
C2777 C2783 1.428 . S
H2778 C2774 0.930 . S
H2779 C2776 0.929 . S
S2780 N2781 1.613 . S
S2780 N2782 1.610 . S
N2781 S2780 1.613 . S
N2781 C2784 1.350 . S
N2782 S2780 1.610 . S
N2782 C2783 1.351 . S
C2783 C2777 1.428 . S
C2783 N2782 1.351 . S
C2783 C2784 1.434 . S
C2784 C2775 1.429 . S
C2784 N2781 1.350 . S
C2784 C2783 1.434 . S
C2785 C2786 1.369 . S
C2785 C2787 1.419 . S
C2785 H2789 0.930 . S
C2786 C2785 1.369 . S
C2786 C2795 1.429 . S
C2787 C2785 1.419 . S
C2787 C2788 1.363 . S
C2787 H2790 0.929 . S
C2788 C2787 1.363 . S
C2788 C2794 1.428 . S
H2789 C2785 0.930 . S
H2790 C2787 0.929 . S
S2791 N2792 1.613 . S
S2791 N2793 1.610 . S
N2792 S2791 1.613 . S
N2792 C2795 1.350 . S
N2793 S2791 1.610 . S
N2793 C2794 1.351 . S
C2794 C2788 1.428 . S
C2794 N2793 1.351 . S
C2794 C2795 1.434 . S
C2795 C2786 1.429 . S
C2795 N2792 1.350 . S
C2795 C2794 1.434 . S
C2796 C2797 1.369 . S
C2796 C2798 1.419 . S
C2796 H2800 0.930 . S
C2797 C2796 1.369 . S
C2797 C2806 1.429 . S
C2798 C2796 1.419 . S
C2798 C2799 1.363 . S
C2798 H2801 0.929 . S
C2799 C2798 1.363 . S
C2799 C2805 1.428 . S
H2800 C2796 0.930 . S
H2801 C2798 0.929 . S
S2802 N2803 1.613 . S
S2802 N2804 1.610 . S
N2803 S2802 1.613 . S
N2803 C2806 1.350 . S
N2804 S2802 1.610 . S
N2804 C2805 1.351 . S
C2805 C2799 1.428 . S
C2805 N2804 1.351 . S
C2805 C2806 1.434 . S
C2806 C2797 1.429 . S
C2806 N2803 1.350 . S
C2806 C2805 1.434 . S
C2807 C2808 1.369 . S
C2807 C2809 1.419 . S
C2807 H2811 0.930 . S
C2808 C2807 1.369 . S
C2808 C2817 1.429 . S
C2809 C2807 1.419 . S
C2809 C2810 1.363 . S
C2809 H2812 0.929 . S
C2810 C2809 1.363 . S
C2810 C2816 1.428 . S
H2811 C2807 0.930 . S
H2812 C2809 0.929 . S
S2813 N2814 1.613 . S
S2813 N2815 1.610 . S
N2814 S2813 1.613 . S
N2814 C2817 1.350 . S
N2815 S2813 1.610 . S
N2815 C2816 1.351 . S
C2816 C2810 1.428 . S
C2816 N2815 1.351 . S
C2816 C2817 1.434 . S
C2817 C2808 1.429 . S
C2817 N2814 1.350 . S
C2817 C2816 1.434 . S
C2818 C2819 1.369 . S
C2818 C2820 1.419 . S
C2818 H2822 0.930 . S
C2819 C2818 1.369 . S
C2819 C2828 1.429 . S
C2820 C2818 1.419 . S
C2820 C2821 1.363 . S
C2820 H2823 0.929 . S
C2821 C2820 1.363 . S
C2821 C2827 1.428 . S
H2822 C2818 0.930 . S
H2823 C2820 0.929 . S
S2824 N2825 1.613 . S
S2824 N2826 1.610 . S
N2825 S2824 1.613 . S
N2825 C2828 1.350 . S
N2826 S2824 1.610 . S
N2826 C2827 1.351 . S
C2827 C2821 1.428 . S
C2827 N2826 1.351 . S
C2827 C2828 1.434 . S
C2828 C2819 1.429 . S
C2828 N2825 1.350 . S
C2828 C2827 1.434 . S
C2829 C2830 1.369 . S
C2829 C2831 1.419 . S
C2829 H2833 0.930 . S
C2830 C2829 1.369 . S
C2830 C2839 1.429 . S
C2831 C2829 1.419 . S
C2831 C2832 1.363 . S
C2831 H2834 0.929 . S
C2832 C2831 1.363 . S
C2832 C2838 1.428 . S
H2833 C2829 0.930 . S
H2834 C2831 0.929 . S
S2835 N2836 1.613 . S
S2835 N2837 1.610 . S
N2836 S2835 1.613 . S
N2836 C2839 1.350 . S
N2837 S2835 1.610 . S
N2837 C2838 1.351 . S
C2838 C2832 1.428 . S
C2838 N2837 1.351 . S
C2838 C2839 1.434 . S
C2839 C2830 1.429 . S
C2839 N2836 1.350 . S
C2839 C2838 1.434 . S
C2840 C2841 1.369 . S
C2840 C2842 1.419 . S
C2840 H2844 0.930 . S
C2841 C2840 1.369 . S
C2841 C2850 1.429 . S
C2842 C2840 1.419 . S
C2842 C2843 1.363 . S
C2842 H2845 0.929 . S
C2843 C2842 1.363 . S
C2843 C2849 1.428 . S
H2844 C2840 0.930 . S
H2845 C2842 0.929 . S
S2846 N2847 1.613 . S
S2846 N2848 1.610 . S
N2847 S2846 1.613 . S
N2847 C2850 1.350 . S
N2848 S2846 1.610 . S
N2848 C2849 1.351 . S
C2849 C2843 1.428 . S
C2849 N2848 1.351 . S
C2849 C2850 1.434 . S
C2850 C2841 1.429 . S
C2850 N2847 1.350 . S
C2850 C2849 1.434 . S
C2851 C2852 1.369 . S
C2851 C2853 1.419 . S
C2851 H2855 0.930 . S
C2852 C2851 1.369 . S
C2852 C2861 1.429 . S
C2853 C2851 1.419 . S
C2853 C2854 1.363 . S
C2853 H2856 0.929 . S
C2854 C2853 1.363 . S
C2854 C2860 1.428 . S
H2855 C2851 0.930 . S
H2856 C2853 0.929 . S
S2857 N2858 1.613 . S
S2857 N2859 1.610 . S
N2858 S2857 1.613 . S
N2858 C2861 1.350 . S
N2859 S2857 1.610 . S
N2859 C2860 1.351 . S
C2860 C2854 1.428 . S
C2860 N2859 1.351 . S
C2860 C2861 1.434 . S
C2861 C2852 1.429 . S
C2861 N2858 1.350 . S
C2861 C2860 1.434 . S
C2862 C2863 1.369 . S
C2862 C2864 1.419 . S
C2862 H2866 0.930 . S
C2863 C2862 1.369 . S
C2863 C2872 1.429 . S
C2864 C2862 1.419 . S
C2864 C2865 1.363 . S
C2864 H2867 0.929 . S
C2865 C2864 1.363 . S
C2865 C2871 1.428 . S
H2866 C2862 0.930 . S
H2867 C2864 0.929 . S
S2868 N2869 1.613 . S
S2868 N2870 1.610 . S
N2869 S2868 1.613 . S
N2869 C2872 1.350 . S
N2870 S2868 1.610 . S
N2870 C2871 1.351 . S
C2871 C2865 1.428 . S
C2871 N2870 1.351 . S
C2871 C2872 1.434 . S
C2872 C2863 1.429 . S
C2872 N2869 1.350 . S
C2872 C2871 1.434 . S
C2873 C2874 1.369 . S
C2873 C2875 1.419 . S
C2873 H2877 0.930 . S
C2874 C2873 1.369 . S
C2874 C2883 1.429 . S
C2875 C2873 1.419 . S
C2875 C2876 1.363 . S
C2875 H2878 0.929 . S
C2876 C2875 1.363 . S
C2876 C2882 1.428 . S
H2877 C2873 0.930 . S
H2878 C2875 0.929 . S
S2879 N2880 1.613 . S
S2879 N2881 1.610 . S
N2880 S2879 1.613 . S
N2880 C2883 1.350 . S
N2881 S2879 1.610 . S
N2881 C2882 1.351 . S
C2882 C2876 1.428 . S
C2882 N2881 1.351 . S
C2882 C2883 1.434 . S
C2883 C2874 1.429 . S
C2883 N2880 1.350 . S
C2883 C2882 1.434 . S
C2884 C2885 1.369 . S
C2884 C2886 1.419 . S
C2884 H2888 0.930 . S
C2885 C2884 1.369 . S
C2885 C2894 1.429 . S
C2886 C2884 1.419 . S
C2886 C2887 1.363 . S
C2886 H2889 0.929 . S
C2887 C2886 1.363 . S
C2887 C2893 1.428 . S
H2888 C2884 0.930 . S
H2889 C2886 0.929 . S
S2890 N2891 1.613 . S
S2890 N2892 1.610 . S
N2891 S2890 1.613 . S
N2891 C2894 1.350 . S
N2892 S2890 1.610 . S
N2892 C2893 1.351 . S
C2893 C2887 1.428 . S
C2893 N2892 1.351 . S
C2893 C2894 1.434 . S
C2894 C2885 1.429 . S
C2894 N2891 1.350 . S
C2894 C2893 1.434 . S
C2895 C2896 1.369 . S
C2895 C2897 1.419 . S
C2895 H2899 0.930 . S
C2896 C2895 1.369 . S
C2896 C2905 1.429 . S
C2897 C2895 1.419 . S
C2897 C2898 1.363 . S
C2897 H2900 0.929 . S
C2898 C2897 1.363 . S
C2898 C2904 1.428 . S
H2899 C2895 0.930 . S
H2900 C2897 0.929 . S
S2901 N2902 1.613 . S
S2901 N2903 1.610 . S
N2902 S2901 1.613 . S
N2902 C2905 1.350 . S
N2903 S2901 1.610 . S
N2903 C2904 1.351 . S
C2904 C2898 1.428 . S
C2904 N2903 1.351 . S
C2904 C2905 1.434 . S
C2905 C2896 1.429 . S
C2905 N2902 1.350 . S
C2905 C2904 1.434 . S
C2906 C2907 1.369 . S
C2906 C2908 1.419 . S
C2906 H2910 0.930 . S
C2907 C2906 1.369 . S
C2907 C2916 1.429 . S
C2908 C2906 1.419 . S
C2908 C2909 1.363 . S
C2908 H2911 0.929 . S
C2909 C2908 1.363 . S
C2909 C2915 1.428 . S
H2910 C2906 0.930 . S
H2911 C2908 0.929 . S
S2912 N2913 1.613 . S
S2912 N2914 1.610 . S
N2913 S2912 1.613 . S
N2913 C2916 1.350 . S
N2914 S2912 1.610 . S
N2914 C2915 1.351 . S
C2915 C2909 1.428 . S
C2915 N2914 1.351 . S
C2915 C2916 1.434 . S
C2916 C2907 1.429 . S
C2916 N2913 1.350 . S
C2916 C2915 1.434 . S
C2917 C2918 1.369 . S
C2917 C2919 1.419 . S
C2917 H2921 0.930 . S
C2918 C2917 1.369 . S
C2918 C2927 1.429 . S
C2919 C2917 1.419 . S
C2919 C2920 1.363 . S
C2919 H2922 0.929 . S
C2920 C2919 1.363 . S
C2920 C2926 1.428 . S
H2921 C2917 0.930 . S
H2922 C2919 0.929 . S
S2923 N2924 1.613 . S
S2923 N2925 1.610 . S
N2924 S2923 1.613 . S
N2924 C2927 1.350 . S
N2925 S2923 1.610 . S
N2925 C2926 1.351 . S
C2926 C2920 1.428 . S
C2926 N2925 1.351 . S
C2926 C2927 1.434 . S
C2927 C2918 1.429 . S
C2927 N2924 1.350 . S
C2927 C2926 1.434 . S
C2928 C2929 1.369 . S
C2928 C2930 1.419 . S
C2928 H2932 0.930 . S
C2929 C2928 1.369 . S
C2929 C2938 1.429 . S
C2930 C2928 1.419 . S
C2930 C2931 1.363 . S
C2930 H2933 0.929 . S
C2931 C2930 1.363 . S
C2931 C2937 1.428 . S
H2932 C2928 0.930 . S
H2933 C2930 0.929 . S
S2934 N2935 1.613 . S
S2934 N2936 1.610 . S
N2935 S2934 1.613 . S
N2935 C2938 1.350 . S
N2936 S2934 1.610 . S
N2936 C2937 1.351 . S
C2937 C2931 1.428 . S
C2937 N2936 1.351 . S
C2937 C2938 1.434 . S
C2938 C2929 1.429 . S
C2938 N2935 1.350 . S
C2938 C2937 1.434 . S
C2939 C2940 1.369 . S
C2939 C2941 1.419 . S
C2939 H2943 0.930 . S
C2940 C2939 1.369 . S
C2940 C2949 1.429 . S
C2941 C2939 1.419 . S
C2941 C2942 1.363 . S
C2941 H2944 0.929 . S
C2942 C2941 1.363 . S
C2942 C2948 1.428 . S
H2943 C2939 0.930 . S
H2944 C2941 0.929 . S
S2945 N2946 1.613 . S
S2945 N2947 1.610 . S
N2946 S2945 1.613 . S
N2946 C2949 1.350 . S
N2947 S2945 1.610 . S
N2947 C2948 1.351 . S
C2948 C2942 1.428 . S
C2948 N2947 1.351 . S
C2948 C2949 1.434 . S
C2949 C2940 1.429 . S
C2949 N2946 1.350 . S
C2949 C2948 1.434 . S
C2950 C2951 1.369 . S
C2950 C2952 1.419 . S
C2950 H2954 0.930 . S
C2951 C2950 1.369 . S
C2951 C2960 1.429 . S
C2952 C2950 1.419 . S
C2952 C2953 1.363 . S
C2952 H2955 0.929 . S
C2953 C2952 1.363 . S
C2953 C2959 1.428 . S
H2954 C2950 0.930 . S
H2955 C2952 0.929 . S
S2956 N2957 1.613 . S
S2956 N2958 1.610 . S
N2957 S2956 1.613 . S
N2957 C2960 1.350 . S
N2958 S2956 1.610 . S
N2958 C2959 1.351 . S
C2959 C2953 1.428 . S
C2959 N2958 1.351 . S
C2959 C2960 1.434 . S
C2960 C2951 1.429 . S
C2960 N2957 1.350 . S
C2960 C2959 1.434 . S
C2961 C2962 1.369 . S
C2961 C2963 1.419 . S
C2961 H2965 0.930 . S
C2962 C2961 1.369 . S
C2962 C2971 1.429 . S
C2963 C2961 1.419 . S
C2963 C2964 1.363 . S
C2963 H2966 0.929 . S
C2964 C2963 1.363 . S
C2964 C2970 1.428 . S
H2965 C2961 0.930 . S
H2966 C2963 0.929 . S
S2967 N2968 1.613 . S
S2967 N2969 1.610 . S
N2968 S2967 1.613 . S
N2968 C2971 1.350 . S
N2969 S2967 1.610 . S
N2969 C2970 1.351 . S
C2970 C2964 1.428 . S
C2970 N2969 1.351 . S
C2970 C2971 1.434 . S
C2971 C2962 1.429 . S
C2971 N2968 1.350 . S
C2971 C2970 1.434 . S
C2972 C2973 1.369 . S
C2972 C2974 1.419 . S
C2972 H2976 0.930 . S
C2973 C2972 1.369 . S
C2973 C2982 1.429 . S
C2974 C2972 1.419 . S
C2974 C2975 1.363 . S
C2974 H2977 0.929 . S
C2975 C2974 1.363 . S
C2975 C2981 1.428 . S
H2976 C2972 0.930 . S
H2977 C2974 0.929 . S
S2978 N2979 1.613 . S
S2978 N2980 1.610 . S
N2979 S2978 1.613 . S
N2979 C2982 1.350 . S
N2980 S2978 1.610 . S
N2980 C2981 1.351 . S
C2981 C2975 1.428 . S
C2981 N2980 1.351 . S
C2981 C2982 1.434 . S
C2982 C2973 1.429 . S
C2982 N2979 1.350 . S
C2982 C2981 1.434 . S
C2983 C2984 1.369 . S
C2983 C2985 1.419 . S
C2983 H2987 0.930 . S
C2984 C2983 1.369 . S
C2984 C2993 1.429 . S
C2985 C2983 1.419 . S
C2985 C2986 1.363 . S
C2985 H2988 0.929 . S
C2986 C2985 1.363 . S
C2986 C2992 1.428 . S
H2987 C2983 0.930 . S
H2988 C2985 0.929 . S
S2989 N2990 1.613 . S
S2989 N2991 1.610 . S
N2990 S2989 1.613 . S
N2990 C2993 1.350 . S
N2991 S2989 1.610 . S
N2991 C2992 1.351 . S
C2992 C2986 1.428 . S
C2992 N2991 1.351 . S
C2992 C2993 1.434 . S
C2993 C2984 1.429 . S
C2993 N2990 1.350 . S
C2993 C2992 1.434 . S
C2994 C2995 1.369 . S
C2994 C2996 1.419 . S
C2994 H2998 0.930 . S
C2995 C2994 1.369 . S
C2995 C3004 1.429 . S
C2996 C2994 1.419 . S
C2996 C2997 1.363 . S
C2996 H2999 0.929 . S
C2997 C2996 1.363 . S
C2997 C3003 1.428 . S
H2998 C2994 0.930 . S
H2999 C2996 0.929 . S
S3000 N3001 1.613 . S
S3000 N3002 1.610 . S
N3001 S3000 1.613 . S
N3001 C3004 1.350 . S
N3002 S3000 1.610 . S
N3002 C3003 1.351 . S
C3003 C2997 1.428 . S
C3003 N3002 1.351 . S
C3003 C3004 1.434 . S
C3004 C2995 1.429 . S
C3004 N3001 1.350 . S
C3004 C3003 1.434 . S
C3005 C3006 1.369 . S
C3005 C3007 1.419 . S
C3005 H3009 0.930 . S
C3006 C3005 1.369 . S
C3006 C3015 1.429 . S
C3007 C3005 1.419 . S
C3007 C3008 1.363 . S
C3007 H3010 0.929 . S
C3008 C3007 1.363 . S
C3008 C3014 1.428 . S
H3009 C3005 0.930 . S
H3010 C3007 0.929 . S
S3011 N3012 1.613 . S
S3011 N3013 1.610 . S
N3012 S3011 1.613 . S
N3012 C3015 1.350 . S
N3013 S3011 1.610 . S
N3013 C3014 1.351 . S
C3014 C3008 1.428 . S
C3014 N3013 1.351 . S
C3014 C3015 1.434 . S
C3015 C3006 1.429 . S
C3015 N3012 1.350 . S
C3015 C3014 1.434 . S
C3016 C3017 1.369 . S
C3016 C3018 1.419 . S
C3016 H3020 0.930 . S
C3017 C3016 1.369 . S
C3017 C3026 1.429 . S
C3018 C3016 1.419 . S
C3018 C3019 1.363 . S
C3018 H3021 0.929 . S
C3019 C3018 1.363 . S
C3019 C3025 1.428 . S
H3020 C3016 0.930 . S
H3021 C3018 0.929 . S
S3022 N3023 1.613 . S
S3022 N3024 1.610 . S
N3023 S3022 1.613 . S
N3023 C3026 1.350 . S
N3024 S3022 1.610 . S
N3024 C3025 1.351 . S
C3025 C3019 1.428 . S
C3025 N3024 1.351 . S
C3025 C3026 1.434 . S
C3026 C3017 1.429 . S
C3026 N3023 1.350 . S
C3026 C3025 1.434 . S
C3027 C3028 1.369 . S
C3027 C3029 1.419 . S
C3027 H3031 0.930 . S
C3028 C3027 1.369 . S
C3028 C3037 1.429 . S
C3029 C3027 1.419 . S
C3029 C3030 1.363 . S
C3029 H3032 0.929 . S
C3030 C3029 1.363 . S
C3030 C3036 1.428 . S
H3031 C3027 0.930 . S
H3032 C3029 0.929 . S
S3033 N3034 1.613 . S
S3033 N3035 1.610 . S
N3034 S3033 1.613 . S
N3034 C3037 1.350 . S
N3035 S3033 1.610 . S
N3035 C3036 1.351 . S
C3036 C3030 1.428 . S
C3036 N3035 1.351 . S
C3036 C3037 1.434 . S
C3037 C3028 1.429 . S
C3037 N3034 1.350 . S
C3037 C3036 1.434 . S
C3038 C3039 1.369 . S
C3038 C3040 1.419 . S
C3038 H3042 0.930 . S
C3039 C3038 1.369 . S
C3039 C3048 1.429 . S
C3040 C3038 1.419 . S
C3040 C3041 1.363 . S
C3040 H3043 0.929 . S
C3041 C3040 1.363 . S
C3041 C3047 1.428 . S
H3042 C3038 0.930 . S
H3043 C3040 0.929 . S
S3044 N3045 1.613 . S
S3044 N3046 1.610 . S
N3045 S3044 1.613 . S
N3045 C3048 1.350 . S
N3046 S3044 1.610 . S
N3046 C3047 1.351 . S
C3047 C3041 1.428 . S
C3047 N3046 1.351 . S
C3047 C3048 1.434 . S
C3048 C3039 1.429 . S
C3048 N3045 1.350 . S
C3048 C3047 1.434 . S
C3049 C3050 1.369 . S
C3049 C3051 1.419 . S
C3049 H3053 0.930 . S
C3050 C3049 1.369 . S
C3050 C3059 1.429 . S
C3051 C3049 1.419 . S
C3051 C3052 1.363 . S
C3051 H3054 0.929 . S
C3052 C3051 1.363 . S
C3052 C3058 1.428 . S
H3053 C3049 0.930 . S
H3054 C3051 0.929 . S
S3055 N3056 1.613 . S
S3055 N3057 1.610 . S
N3056 S3055 1.613 . S
N3056 C3059 1.350 . S
N3057 S3055 1.610 . S
N3057 C3058 1.351 . S
C3058 C3052 1.428 . S
C3058 N3057 1.351 . S
C3058 C3059 1.434 . S
C3059 C3050 1.429 . S
C3059 N3056 1.350 . S
C3059 C3058 1.434 . S
C3060 C3061 1.369 . S
C3060 C3062 1.419 . S
C3060 H3064 0.930 . S
C3061 C3060 1.369 . S
C3061 C3070 1.429 . S
C3062 C3060 1.419 . S
C3062 C3063 1.363 . S
C3062 H3065 0.929 . S
C3063 C3062 1.363 . S
C3063 C3069 1.428 . S
H3064 C3060 0.930 . S
H3065 C3062 0.929 . S
S3066 N3067 1.613 . S
S3066 N3068 1.610 . S
N3067 S3066 1.613 . S
N3067 C3070 1.350 . S
N3068 S3066 1.610 . S
N3068 C3069 1.351 . S
C3069 C3063 1.428 . S
C3069 N3068 1.351 . S
C3069 C3070 1.434 . S
C3070 C3061 1.429 . S
C3070 N3067 1.350 . S
C3070 C3069 1.434 . S
C3071 C3072 1.369 . S
C3071 C3073 1.419 . S
C3071 H3075 0.930 . S
C3072 C3071 1.369 . S
C3072 C3081 1.429 . S
C3073 C3071 1.419 . S
C3073 C3074 1.363 . S
C3073 H3076 0.929 . S
C3074 C3073 1.363 . S
C3074 C3080 1.428 . S
H3075 C3071 0.930 . S
H3076 C3073 0.929 . S
S3077 N3078 1.613 . S
S3077 N3079 1.610 . S
N3078 S3077 1.613 . S
N3078 C3081 1.350 . S
N3079 S3077 1.610 . S
N3079 C3080 1.351 . S
C3080 C3074 1.428 . S
C3080 N3079 1.351 . S
C3080 C3081 1.434 . S
C3081 C3072 1.429 . S
C3081 N3078 1.350 . S
C3081 C3080 1.434 . S
C3082 C3083 1.369 . S
C3082 C3084 1.419 . S
C3082 H3086 0.930 . S
C3083 C3082 1.369 . S
C3083 C3092 1.429 . S
C3084 C3082 1.419 . S
C3084 C3085 1.363 . S
C3084 H3087 0.929 . S
C3085 C3084 1.363 . S
C3085 C3091 1.428 . S
H3086 C3082 0.930 . S
H3087 C3084 0.929 . S
S3088 N3089 1.613 . S
S3088 N3090 1.610 . S
N3089 S3088 1.613 . S
N3089 C3092 1.350 . S
N3090 S3088 1.610 . S
N3090 C3091 1.351 . S
C3091 C3085 1.428 . S
C3091 N3090 1.351 . S
C3091 C3092 1.434 . S
C3092 C3083 1.429 . S
C3092 N3089 1.350 . S
C3092 C3091 1.434 . S
C3093 C3094 1.369 . S
C3093 C3095 1.419 . S
C3093 H3097 0.930 . S
C3094 C3093 1.369 . S
C3094 C3103 1.429 . S
C3095 C3093 1.419 . S
C3095 C3096 1.363 . S
C3095 H3098 0.929 . S
C3096 C3095 1.363 . S
C3096 C3102 1.428 . S
H3097 C3093 0.930 . S
H3098 C3095 0.929 . S
S3099 N3100 1.613 . S
S3099 N3101 1.610 . S
N3100 S3099 1.613 . S
N3100 C3103 1.350 . S
N3101 S3099 1.610 . S
N3101 C3102 1.351 . S
C3102 C3096 1.428 . S
C3102 N3101 1.351 . S
C3102 C3103 1.434 . S
C3103 C3094 1.429 . S
C3103 N3100 1.350 . S
C3103 C3102 1.434 . S
C3104 C3105 1.369 . S
C3104 C3106 1.419 . S
C3104 H3108 0.930 . S
C3105 C3104 1.369 . S
C3105 C3114 1.429 . S
C3106 C3104 1.419 . S
C3106 C3107 1.363 . S
C3106 H3109 0.929 . S
C3107 C3106 1.363 . S
C3107 C3113 1.428 . S
H3108 C3104 0.930 . S
H3109 C3106 0.929 . S
S3110 N3111 1.613 . S
S3110 N3112 1.610 . S
N3111 S3110 1.613 . S
N3111 C3114 1.350 . S
N3112 S3110 1.610 . S
N3112 C3113 1.351 . S
C3113 C3107 1.428 . S
C3113 N3112 1.351 . S
C3113 C3114 1.434 . S
C3114 C3105 1.429 . S
C3114 N3111 1.350 . S
C3114 C3113 1.434 . S
C3115 C3116 1.369 . S
C3115 C3117 1.419 . S
C3115 H3119 0.930 . S
C3116 C3115 1.369 . S
C3116 C3125 1.429 . S
C3117 C3115 1.419 . S
C3117 C3118 1.363 . S
C3117 H3120 0.929 . S
C3118 C3117 1.363 . S
C3118 C3124 1.428 . S
H3119 C3115 0.930 . S
H3120 C3117 0.929 . S
S3121 N3122 1.613 . S
S3121 N3123 1.610 . S
N3122 S3121 1.613 . S
N3122 C3125 1.350 . S
N3123 S3121 1.610 . S
N3123 C3124 1.351 . S
C3124 C3118 1.428 . S
C3124 N3123 1.351 . S
C3124 C3125 1.434 . S
C3125 C3116 1.429 . S
C3125 N3122 1.350 . S
C3125 C3124 1.434 . S
C3126 C3127 1.369 . S
C3126 C3128 1.419 . S
C3126 H3130 0.930 . S
C3127 C3126 1.369 . S
C3127 C3136 1.429 . S
C3128 C3126 1.419 . S
C3128 C3129 1.363 . S
C3128 H3131 0.929 . S
C3129 C3128 1.363 . S
C3129 C3135 1.428 . S
H3130 C3126 0.930 . S
H3131 C3128 0.929 . S
S3132 N3133 1.613 . S
S3132 N3134 1.610 . S
N3133 S3132 1.613 . S
N3133 C3136 1.350 . S
N3134 S3132 1.610 . S
N3134 C3135 1.351 . S
C3135 C3129 1.428 . S
C3135 N3134 1.351 . S
C3135 C3136 1.434 . S
C3136 C3127 1.429 . S
C3136 N3133 1.350 . S
C3136 C3135 1.434 . S
C3137 C3138 1.369 . S
C3137 C3139 1.419 . S
C3137 H3141 0.930 . S
C3138 C3137 1.369 . S
C3138 C3147 1.429 . S
C3139 C3137 1.419 . S
C3139 C3140 1.363 . S
C3139 H3142 0.929 . S
C3140 C3139 1.363 . S
C3140 C3146 1.428 . S
H3141 C3137 0.930 . S
H3142 C3139 0.929 . S
S3143 N3144 1.613 . S
S3143 N3145 1.610 . S
N3144 S3143 1.613 . S
N3144 C3147 1.350 . S
N3145 S3143 1.610 . S
N3145 C3146 1.351 . S
C3146 C3140 1.428 . S
C3146 N3145 1.351 . S
C3146 C3147 1.434 . S
C3147 C3138 1.429 . S
C3147 N3144 1.350 . S
C3147 C3146 1.434 . S
C3148 C3149 1.369 . S
C3148 C3150 1.419 . S
C3148 H3152 0.930 . S
C3149 C3148 1.369 . S
C3149 C3158 1.429 . S
C3150 C3148 1.419 . S
C3150 C3151 1.363 . S
C3150 H3153 0.929 . S
C3151 C3150 1.363 . S
C3151 C3157 1.428 . S
H3152 C3148 0.930 . S
H3153 C3150 0.929 . S
S3154 N3155 1.613 . S
S3154 N3156 1.610 . S
N3155 S3154 1.613 . S
N3155 C3158 1.350 . S
N3156 S3154 1.610 . S
N3156 C3157 1.351 . S
C3157 C3151 1.428 . S
C3157 N3156 1.351 . S
C3157 C3158 1.434 . S
C3158 C3149 1.429 . S
C3158 N3155 1.350 . S
C3158 C3157 1.434 . S
C3159 C3160 1.369 . S
C3159 C3161 1.419 . S
C3159 H3163 0.930 . S
C3160 C3159 1.369 . S
C3160 C3169 1.429 . S
C3161 C3159 1.419 . S
C3161 C3162 1.363 . S
C3161 H3164 0.929 . S
C3162 C3161 1.363 . S
C3162 C3168 1.428 . S
H3163 C3159 0.930 . S
H3164 C3161 0.929 . S
S3165 N3166 1.613 . S
S3165 N3167 1.610 . S
N3166 S3165 1.613 . S
N3166 C3169 1.350 . S
N3167 S3165 1.610 . S
N3167 C3168 1.351 . S
C3168 C3162 1.428 . S
C3168 N3167 1.351 . S
C3168 C3169 1.434 . S
C3169 C3160 1.429 . S
C3169 N3166 1.350 . S
C3169 C3168 1.434 . S
C3170 C3171 1.369 . S
C3170 C3172 1.419 . S
C3170 H3174 0.930 . S
C3171 C3170 1.369 . S
C3171 C3180 1.429 . S
C3172 C3170 1.419 . S
C3172 C3173 1.363 . S
C3172 H3175 0.929 . S
C3173 C3172 1.363 . S
C3173 C3179 1.428 . S
H3174 C3170 0.930 . S
H3175 C3172 0.929 . S
S3176 N3177 1.613 . S
S3176 N3178 1.610 . S
N3177 S3176 1.613 . S
N3177 C3180 1.350 . S
N3178 S3176 1.610 . S
N3178 C3179 1.351 . S
C3179 C3173 1.428 . S
C3179 N3178 1.351 . S
C3179 C3180 1.434 . S
C3180 C3171 1.429 . S
C3180 N3177 1.350 . S
C3180 C3179 1.434 . S
C3181 C3182 1.369 . S
C3181 C3183 1.419 . S
C3181 H3185 0.930 . S
C3182 C3181 1.369 . S
C3182 C3191 1.429 . S
C3183 C3181 1.419 . S
C3183 C3184 1.363 . S
C3183 H3186 0.929 . S
C3184 C3183 1.363 . S
C3184 C3190 1.428 . S
H3185 C3181 0.930 . S
H3186 C3183 0.929 . S
S3187 N3188 1.613 . S
S3187 N3189 1.610 . S
N3188 S3187 1.613 . S
N3188 C3191 1.350 . S
N3189 S3187 1.610 . S
N3189 C3190 1.351 . S
C3190 C3184 1.428 . S
C3190 N3189 1.351 . S
C3190 C3191 1.434 . S
C3191 C3182 1.429 . S
C3191 N3188 1.350 . S
C3191 C3190 1.434 . S
C3192 C3193 1.369 . S
C3192 C3194 1.419 . S
C3192 H3196 0.930 . S
C3193 C3192 1.369 . S
C3193 C3202 1.429 . S
C3194 C3192 1.419 . S
C3194 C3195 1.363 1_556 S
C3194 H3197 0.929 . S
C3195 C3194 1.363 1_554 S
C3195 C3201 1.426 . S
H3196 C3192 0.930 . S
H3197 C3194 0.929 . S
S3198 N3199 1.613 . S
S3198 N3200 1.610 1_556 S
N3199 S3198 1.613 . S
N3199 C3202 1.350 . S
N3200 S3198 1.610 1_554 S
N3200 C3201 1.347 . S
C3201 C3195 1.426 . S
C3201 N3200 1.347 . S
C3201 C3202 1.441 1_554 S
C3202 C3193 1.429 . S
C3202 N3199 1.350 . S
C3202 C3201 1.441 1_556 S
C3203 C3204 1.369 . S
C3203 C3205 1.419 1_554 S
C3203 H3207 0.930 . S
C3204 C3203 1.369 . S
C3204 C3213 1.429 1_554 S
C3205 C3203 1.419 1_556 S
C3205 C3206 1.363 . S
C3205 H3208 0.929 . S
C3206 C3205 1.363 . S
C3206 C3212 1.428 . S
H3207 C3203 0.930 . S
H3208 C3205 0.929 . S
S3209 N3210 1.613 . S
S3209 N3211 1.610 . S
N3210 S3209 1.613 . S
N3210 C3213 1.350 . S
N3211 S3209 1.610 . S
N3211 C3212 1.351 . S
C3212 C3206 1.428 . S
C3212 N3211 1.351 . S
C3212 C3213 1.434 . S
C3213 C3204 1.429 1_556 S
C3213 N3210 1.350 . S
C3213 C3212 1.434 . S
C3214 C3215 1.369 1_556 S
C3214 C3216 1.419 . S
C3214 H3218 0.930 . S
C3215 C3214 1.369 1_554 S
C3215 C3224 1.442 . S
C3216 C3214 1.419 . S
C3216 C3217 1.363 . S
C3216 H3219 0.929 . S
C3217 C3216 1.363 . S
C3217 C3223 1.428 . S
H3218 C3214 0.930 . S
H3219 C3216 0.929 . S
S3220 N3221 1.613 1_556 S
S3220 N3222 1.610 . S
N3221 S3220 1.613 1_554 S
N3221 C3224 1.377 . S
N3222 S3220 1.610 . S
N3222 C3223 1.351 . S
C3223 C3217 1.428 . S
C3223 N3222 1.351 . S
C3223 C3224 1.391 1_556 S
C3224 C3215 1.442 . S
C3224 N3221 1.377 . S
C3224 C3223 1.391 1_554 S
C3225 C3226 1.369 1_556 S
C3225 C3227 1.419 . S
C3225 H3229 0.930 . S
C3226 C3225 1.369 1_554 S
C3226 C3235 1.442 . S
C3227 C3225 1.419 . S
C3227 C3228 1.363 . S
C3227 H3230 0.929 . S
C3228 C3227 1.363 . S
C3228 C3234 1.428 . S
H3229 C3225 0.930 . S
H3230 C3227 0.929 . S
S3231 N3232 1.575 1_556 S
S3231 N3233 1.671 . S
N3232 S3231 1.575 1_554 S
N3232 C3235 1.378 . S
N3233 S3231 1.671 . S
N3233 C3234 1.351 . S
C3234 C3228 1.428 . S
C3234 N3233 1.351 . S
C3234 C3235 1.390 1_556 S
C3235 C3226 1.442 . S
C3235 N3232 1.378 . S
C3235 C3234 1.390 1_554 S
C3236 C3237 1.369 . S
C3236 C3238 1.419 . S
C3236 H3240 0.930 . S
C3237 C3236 1.369 . S
C3237 C3246 1.429 . S
C3238 C3236 1.419 . S
C3238 C3239 1.363 1_554 S
C3238 H3241 0.937 . S
C3239 C3238 1.363 1_556 S
C3239 C3245 1.428 1_556 S
H3240 C3236 0.930 . S
H3241 C3238 0.937 . S
S3242 N3243 1.613 . S
S3242 N3244 1.610 1_554 S
N3243 S3242 1.613 . S
N3243 C3246 1.350 . S
N3244 S3242 1.610 1_556 S
N3244 C3245 1.351 1_556 S
C3245 C3239 1.428 1_554 S
C3245 N3244 1.351 1_554 S
C3245 C3246 1.434 . S
C3246 C3237 1.429 . S
C3246 N3243 1.350 . S
C3246 C3245 1.434 . S
C3247 C3248 1.369 1_554 S
C3247 C3249 1.419 . S
C3247 H3251 0.930 1_554 S
C3248 C3247 1.369 1_556 S
C3248 C3257 1.429 1_556 S
C3249 C3247 1.419 . S
C3249 C3250 1.363 . S
C3249 H3252 0.929 . S
C3250 C3249 1.363 . S
C3250 C3256 1.428 . S
H3251 C3247 0.930 1_556 S
H3252 C3249 0.929 . S
S3253 N3254 1.613 1_554 S
S3253 N3255 1.610 . S
N3254 S3253 1.613 1_556 S
N3254 C3257 1.350 1_556 S
N3255 S3253 1.610 . S
N3255 C3256 1.351 . S
C3256 C3250 1.428 . S
C3256 N3255 1.351 . S
C3256 C3257 1.434 . S
C3257 C3248 1.429 1_554 S
C3257 N3254 1.350 1_554 S
C3257 C3256 1.434 . S
C3258 C3259 1.369 . S
C3258 C3260 1.419 . S
C3258 H3262 0.930 . S
C3259 C3258 1.369 . S
C3259 C3268 1.429 . S
C3260 C3258 1.419 . S
C3260 C3261 1.363 1_554 S
C3260 H3263 0.938 . S
C3261 C3260 1.363 1_556 S
C3261 C3267 1.428 1_556 S
H3262 C3258 0.930 . S
H3263 C3260 0.938 . S
S3264 N3265 1.613 . S
S3264 N3266 1.610 1_554 S
N3265 S3264 1.613 . S
N3265 C3268 1.350 . S
N3266 S3264 1.610 1_556 S
N3266 C3267 1.351 1_556 S
C3267 C3261 1.428 1_554 S
C3267 N3266 1.351 1_554 S
C3267 C3268 1.434 . S
C3268 C3259 1.429 . S
C3268 N3265 1.350 . S
C3268 C3267 1.434 . S
C3269 C3270 1.369 1_554 S
C3269 C3271 1.419 . S
C3269 H3273 0.930 . S
C3270 C3269 1.369 1_556 S
C3270 C3279 1.403 1_556 S
C3271 C3269 1.419 . S
C3271 C3272 1.363 . S
C3271 H3274 0.929 . S
C3272 C3271 1.363 . S
C3272 C3278 1.428 . S
H3273 C3269 0.930 . S
H3274 C3271 0.929 . S
S3275 N3276 1.613 1_554 S
S3275 N3277 1.610 . S
N3276 S3275 1.613 1_556 S
N3276 C3279 1.316 1_556 S
N3277 S3275 1.610 . S
N3277 C3278 1.351 . S
C3278 C3272 1.428 . S
C3278 N3277 1.351 . S
C3278 C3279 1.503 . S
C3279 C3270 1.403 1_554 S
C3279 N3276 1.316 1_554 S
C3279 C3278 1.503 . S
C3280 C3281 1.369 . S
C3280 C3282 1.419 . S
C3280 H3284 0.930 . S
C3281 C3280 1.369 . S
C3281 C3290 1.429 . S
C3282 C3280 1.419 . S
C3282 C3283 1.363 1_655 S
C3282 H3285 0.929 1_655 S
C3283 C3282 1.363 1_455 S
C3283 C3289 1.428 1_455 S
H3284 C3280 0.930 . S
H3285 C3282 0.929 1_455 S
S3286 N3287 1.613 . S
S3286 N3288 1.620 . S
N3287 S3286 1.613 . S
N3287 C3290 1.350 . S
N3288 S3286 1.620 . S
N3288 C3289 1.354 . S
C3289 C3283 1.428 1_655 S
C3289 N3288 1.354 . S
C3289 C3290 1.434 . S
C3290 C3281 1.429 . S
C3290 N3287 1.350 . S
C3290 C3289 1.434 . S
C3291 C3292 1.383 . S
C3291 C3293 1.375 1_545 S
C3291 H3295 0.962 . S
C3292 C3291 1.383 . S
C3292 C3301 1.429 1_545 S
C3293 C3291 1.375 1_565 S
C3293 C3294 1.363 . S
C3293 H3296 0.929 . S
C3294 C3293 1.363 . S
C3294 C3300 1.428 . S
H3295 C3291 0.962 . S
H3296 C3293 0.929 . S
S3297 N3298 1.613 . S
S3297 N3299 1.610 . S
N3298 S3297 1.613 . S
N3298 C3301 1.350 . S
N3299 S3297 1.610 . S
N3299 C3300 1.351 . S
C3300 C3294 1.428 . S
C3300 N3299 1.351 . S
C3300 C3301 1.434 . S
C3301 C3292 1.429 1_565 S
C3301 N3298 1.350 . S
C3301 C3300 1.434 . S
C3302 C3303 1.369 . S
C3302 C3304 1.372 1_455 S
C3302 H3306 0.930 . S
C3303 C3302 1.369 . S
C3303 C3312 1.429 . S
C3304 C3302 1.372 1_655 S
C3304 C3305 1.378 . S
C3304 H3307 0.964 . S
C3305 C3304 1.378 . S
C3305 C3311 1.428 1_655 S
H3306 C3302 0.930 . S
H3307 C3304 0.964 . S
S3308 N3309 1.613 . S
S3308 N3310 1.610 . S
N3309 S3308 1.613 . S
N3309 C3312 1.350 . S
N3310 S3308 1.610 . S
N3310 C3311 1.351 . S
C3311 C3305 1.428 1_455 S
C3311 N3310 1.351 . S
C3311 C3312 1.434 . S
C3312 C3303 1.429 . S
C3312 N3309 1.350 . S
C3312 C3311 1.434 . S
C3313 C3314 1.381 . S
C3313 C3315 1.382 1_565 S
C3313 H3317 0.957 . S
C3314 C3313 1.381 . S
C3314 C3323 1.429 1_565 S
C3315 C3313 1.382 1_545 S
C3315 C3316 1.363 . S
C3315 H3318 0.929 . S
C3316 C3315 1.363 . S
C3316 C3322 1.428 . S
H3317 C3313 0.957 . S
H3318 C3315 0.929 . S
S3319 N3320 1.613 . S
S3319 N3321 1.610 . S
N3320 S3319 1.613 . S
N3320 C3323 1.350 . S
N3321 S3319 1.610 . S
N3321 C3322 1.351 . S
C3322 C3316 1.428 . S
C3322 N3321 1.351 . S
C3322 C3323 1.434 . S
C3323 C3314 1.429 1_545 S
C3323 N3320 1.350 . S
C3323 C3322 1.434 . S
C3324 C3325 1.369 1_655 S
C3324 C3326 1.419 . S
C3324 H3328 0.930 . S
C3325 C3324 1.369 1_455 S
C3325 C3334 1.429 . S
C3326 C3324 1.419 . S
C3326 C3327 1.363 . S
C3326 H3329 0.929 . S
C3327 C3326 1.363 . S
C3327 C3333 1.428 . S
H3328 C3324 0.930 . S
H3329 C3326 0.929 . S
S3330 N3331 1.637 . S
S3330 N3332 1.572 1_455 S
N3331 S3330 1.637 . S
N3331 C3334 1.350 . S
N3332 S3330 1.572 1_655 S
N3332 C3333 1.351 . S
C3333 C3327 1.428 . S
C3333 N3332 1.351 . S
C3333 C3334 1.434 1_655 S
C3334 C3325 1.429 . S
C3334 N3331 1.350 . S
C3334 C3333 1.434 1_455 S
C3335 C3336 1.369 1_565 S
C3335 C3337 1.419 . S
C3335 H3339 0.904 1_565 S
C3336 C3335 1.369 1_545 S
C3336 C3345 1.429 1_545 S
C3337 C3335 1.419 . S
C3337 C3338 1.363 . S
C3337 H3340 0.929 . S
C3338 C3337 1.363 . S
C3338 C3344 1.428 . S
H3339 C3335 0.904 1_545 S
H3340 C3337 0.929 . S
S3341 N3342 1.613 1_565 S
S3341 N3343 1.610 . S
N3342 S3341 1.613 1_545 S
N3342 C3345 1.350 1_545 S
N3343 S3341 1.610 . S
N3343 C3344 1.351 . S
C3344 C3338 1.428 . S
C3344 N3343 1.351 . S
C3344 C3345 1.434 . S
C3345 C3336 1.429 1_565 S
C3345 N3342 1.350 1_565 S
C3345 C3344 1.434 . S
C3346 C3347 1.385 . S
C3346 C3348 1.370 1_655 S
C3346 H3350 0.966 . S
C3347 C3346 1.385 . S
C3347 C3356 1.429 1_655 S
C3348 C3346 1.370 1_455 S
C3348 C3349 1.363 . S
C3348 H3351 0.929 . S
C3349 C3348 1.363 . S
C3349 C3355 1.428 . S
H3350 C3346 0.966 . S
H3351 C3348 0.929 . S
S3352 N3353 1.613 . S
S3352 N3354 1.610 . S
N3353 S3352 1.613 . S
N3353 C3356 1.350 . S
N3354 S3352 1.610 . S
N3354 C3355 1.351 . S
C3355 C3349 1.428 . S
C3355 N3354 1.351 . S
C3355 C3356 1.434 . S
C3356 C3347 1.429 1_455 S
C3356 N3353 1.350 . S
C3356 C3355 1.434 . S
C3357 C3358 1.349 1_545 S
C3357 C3359 1.472 . S
C3357 H3361 0.897 1_545 S
C3358 C3357 1.349 1_565 S
C3358 C3367 1.429 1_565 S
C3359 C3357 1.472 . S
C3359 C3360 1.363 . S
C3359 H3362 0.929 . S
C3360 C3359 1.363 . S
C3360 C3366 1.428 . S
H3361 C3357 0.897 1_565 S
H3362 C3359 0.929 . S
S3363 N3364 1.613 . S
S3363 N3365 1.610 . S
N3364 S3363 1.613 . S
N3364 C3367 1.350 . S
N3365 S3363 1.610 . S
N3365 C3366 1.351 . S
C3366 C3360 1.428 . S
C3366 N3365 1.351 . S
C3366 C3367 1.434 . S
C3367 C3358 1.429 1_545 S
C3367 N3364 1.350 . S
C3367 C3366 1.434 . S
C3368 C3369 1.369 . S
C3368 C3370 1.374 1_565 S
C3368 H3372 0.930 . S
C3369 C3368 1.369 . S
C3369 C3378 1.429 . S
C3370 C3368 1.374 1_545 S
C3370 C3371 1.378 . S
C3370 H3373 0.962 . S
C3371 C3370 1.378 . S
C3371 C3377 1.428 1_545 S
H3372 C3368 0.930 . S
H3373 C3370 0.962 . S
S3374 N3375 1.613 . S
S3374 N3376 1.610 . S
N3375 S3374 1.613 . S
N3375 C3378 1.350 . S
N3376 S3374 1.610 . S
N3376 C3377 1.351 . S
C3377 C3371 1.428 1_565 S
C3377 N3376 1.351 . S
C3377 C3378 1.434 . S
C3378 C3369 1.429 . S
C3378 N3375 1.350 . S
C3378 C3377 1.434 . S
C3379 C3380 1.369 1_545 S
C3379 C3381 1.419 . S
C3379 H3383 0.930 1_545 S
C3380 C3379 1.369 1_565 S
C3380 C3389 1.429 1_565 S
C3381 C3379 1.419 . S
C3381 C3382 1.363 . S
C3381 H3384 0.929 . S
C3382 C3381 1.363 . S
C3382 C3388 1.428 . S
H3383 C3379 0.930 1_565 S
H3384 C3381 0.929 . S
S3385 N3386 1.613 1_545 S
S3385 N3387 1.610 . S
N3386 S3385 1.613 1_565 S
N3386 C3389 1.350 1_565 S
N3387 S3385 1.610 . S
N3387 C3388 1.351 . S
C3388 C3382 1.428 . S
C3388 N3387 1.351 . S
C3388 C3389 1.434 . S
C3389 C3380 1.429 1_545 S
C3389 N3386 1.350 1_545 S
C3389 C3388 1.434 . S
C3390 C3391 1.369 1_655 S
C3390 C3392 1.419 . S
C3390 H3394 0.930 . S
C3391 C3390 1.369 1_455 S
C3391 C3400 1.422 1_455 S
C3392 C3390 1.419 . S
C3392 C3393 1.363 . S
C3392 H3395 0.929 . S
C3393 C3392 1.363 . S
C3393 C3399 1.428 . S
H3394 C3390 0.930 . S
H3395 C3392 0.929 . S
S3396 N3397 1.613 1_655 S
S3396 N3398 1.610 . S
N3397 S3396 1.613 1_455 S
N3397 C3400 1.339 1_455 S
N3398 S3396 1.610 . S
N3398 C3399 1.351 . S
C3399 C3393 1.428 . S
C3399 N3398 1.351 . S
C3399 C3400 1.453 . S
C3400 C3391 1.422 1_655 S
C3400 N3397 1.339 1_655 S
C3400 C3399 1.453 . S
C3401 C3402 1.369 1_565 S
C3401 C3403 1.419 . S
C3401 H3405 0.930 . S
C3402 C3401 1.369 1_545 S
C3402 C3411 1.429 . S
C3403 C3401 1.419 . S
C3403 C3404 1.363 . S
C3403 H3406 0.929 . S
C3404 C3403 1.363 . S
C3404 C3410 1.428 . S
H3405 C3401 0.930 . S
H3406 C3403 0.929 . S
S3407 N3408 1.634 . S
S3407 N3409 1.576 1_545 S
N3408 S3407 1.634 . S
N3408 C3411 1.350 . S
N3409 S3407 1.576 1_565 S
N3409 C3410 1.351 . S
C3410 C3404 1.428 . S
C3410 N3409 1.351 . S
C3410 C3411 1.434 1_565 S
C3411 C3402 1.429 . S
C3411 N3408 1.350 . S
C3411 C3410 1.434 1_545 S
C3412 C3413 1.385 . S
C3412 C3414 1.368 1_655 S
C3412 H3416 0.968 . S
C3413 C3412 1.385 . S
C3413 C3422 1.429 1_655 S
C3414 C3412 1.368 1_455 S
C3414 C3415 1.363 . S
C3414 H3417 0.929 . S
C3415 C3414 1.363 . S
C3415 C3421 1.428 . S
H3416 C3412 0.968 . S
H3417 C3414 0.929 . S
S3418 N3419 1.613 . S
S3418 N3420 1.610 . S
N3419 S3418 1.613 . S
N3419 C3422 1.350 . S
N3420 S3418 1.610 . S
N3420 C3421 1.351 . S
C3421 C3415 1.428 . S
C3421 N3420 1.351 . S
C3421 C3422 1.434 . S
C3422 C3413 1.429 1_455 S
C3422 N3419 1.350 . S
C3422 C3421 1.434 . S
C3423 C3424 1.369 . S
C3423 C3425 1.419 . S
C3423 H3427 0.930 . S
C3424 C3423 1.369 . S
C3424 C3433 1.429 . S
C3425 C3423 1.419 . S
C3425 C3426 1.363 1_545 S
C3425 H3428 0.929 . S
C3426 C3425 1.363 1_565 S
C3426 C3432 1.421 1_565 S
H3427 C3423 0.930 . S
H3428 C3425 0.929 . S
S3429 N3430 1.613 . S
S3429 N3431 1.610 1_545 S
N3430 S3429 1.613 . S
N3430 C3433 1.350 . S
N3431 S3429 1.610 1_565 S
N3431 C3432 1.339 1_565 S
C3432 C3426 1.421 1_545 S
C3432 N3431 1.339 1_545 S
C3432 C3433 1.455 . S
C3433 C3424 1.429 . S
C3433 N3430 1.350 . S
C3433 C3432 1.455 . S
C3434 C3435 1.369 . S
C3434 C3436 1.419 . S
C3434 H3438 0.930 . S
C3435 C3434 1.369 . S
C3435 C3444 1.429 . S
C3436 C3434 1.419 . S
C3436 C3437 1.363 1_655 S
C3436 H3439 0.929 1_655 S
C3437 C3436 1.363 1_455 S
C3437 C3443 1.428 1_455 S
H3438 C3434 0.930 . S
H3439 C3436 0.929 1_455 S
S3440 N3441 1.613 . S
S3440 N3442 1.616 1_655 S
N3441 S3440 1.613 . S
N3441 C3444 1.350 . S
N3442 S3440 1.616 1_455 S
N3442 C3443 1.353 1_455 S
C3443 C3437 1.428 1_655 S
C3443 N3442 1.353 1_655 S
C3443 C3444 1.434 . S
C3444 C3435 1.429 . S
C3444 N3441 1.350 . S
C3444 C3443 1.434 . S
C3445 C3446 1.369 1_455 S
C3445 C3447 1.419 . S
C3445 H3449 0.930 . S
C3446 C3445 1.369 1_655 S
C3446 C3455 1.449 . S
C3447 C3445 1.419 . S
C3447 C3448 1.363 . S
C3447 H3450 0.929 . S
C3448 C3447 1.363 . S
C3448 C3454 1.428 . S
H3449 C3445 0.930 . S
H3450 C3447 0.929 . S
S3451 N3452 1.600 1_455 S
S3451 N3453 1.631 . S
N3452 S3451 1.600 1_655 S
N3452 C3455 1.393 . S
N3453 S3451 1.631 . S
N3453 C3454 1.351 . S
C3454 C3448 1.428 . S
C3454 N3453 1.351 . S
C3454 C3455 1.369 1_455 S
C3455 C3446 1.449 . S
C3455 N3452 1.393 . S
C3455 C3454 1.369 1_655 S
C1345 C7 1.380 . S
C1347 C441 1.435 . S
C1356 C20 1.392 . S
C1358 C398 1.430 . S
C1367 C413 1.437 . S
C1369 C35 1.385 . S
C1378 C426 1.428 . S
C1380 C48 1.390 . S
C1389 C357 1.439 . S
C1391 C63 1.379 . S
C1400 C370 1.438 . S
C1402 C76 1.380 . S
C1411 C91 1.383 . S
C1413 C385 1.433 . S
C1422 C342 1.436 . S
C1424 C104 1.385 . S
C1433 C118 1.378 . S
C1435 C622 1.439 . S
C1444 C133 1.391 . S
C1446 C581 1.432 . S
C1455 C146 1.378 . S
C1457 C594 1.437 . S
C1466 C161 1.386 . S
C1468 C609 1.432 . S
C1477 C174 1.390 . S
C1479 C664 1.430 . S
C1488 C189 1.384 . S
C1490 C637 1.436 . S
C1499 C202 1.392 . S
C1501 C650 1.430 . S
C1510 C567 1.439 . S
C1512 C217 1.379 . S
C1521 C230 1.386 . S
C1523 C552 1.431 . S
C1532 C468 1.439 . S
C1534 C244 1.382 . S
C1543 C482 1.431 . S
C1545 C258 1.386 . S
C1554 C272 1.385 . S
C1556 C496 1.432 . S
C1565 C454 1.437 . S
C1567 C286 1.385 . S
C1576 C524 1.437 . S
C1578 C300 1.380 . S
C1587 C314 1.388 . S
C1589 C538 1.431 . S
C1598 C328 1.389 . S
C1600 C510 1.430 . S
C1609 C1113 1.438 . S
C1611 C679 1.383 . S
C1620 C1070 1.431 . S
C1622 C692 1.389 . S
C1631 C707 1.381 . S
C1633 C1085 1.438 . S
C1642 C1098 1.428 . S
C1644 C720 1.390 . S
C1653 C735 1.391 . S
C1655 C1029 1.430 . S
C1664 C748 1.383 . S
C1666 C1042 1.437 . S
C1675 C1057 1.430 . S
C1677 C763 1.387 . S
C1686 C1014 1.428 . S
C1688 C776 1.390 . S
C1697 C1294 1.428 . S
C1699 C790 1.390 . S
C1708 C1253 1.440 . S
C1710 C805 1.380 . S
C1719 C818 1.378 . S
C1721 C1266 1.439 . S
C1730 C833 1.389 . S
C1732 C1281 1.430 . S
C1741 C1336 1.429 . S
C1743 C846 1.388 . S
C1752 C1309 1.440 . S
C1754 C861 1.381 . S
C1763 C1322 1.430 . S
C1765 C874 1.387 . S
C1774 C889 1.389 . S
C1776 C1239 1.433 . S
C1785 C1224 1.436 . S
C1787 C902 1.381 . S
C1796 C916 1.392 . S
C1798 C1140 1.431 . S
C1807 C1154 1.428 . S
C1809 C930 1.390 . S
C1818 C1168 1.439 . S
C1820 C944 1.382 . S
C1829 C1126 1.438 . S
C1831 C958 1.383 . S
C1840 C972 1.377 . S
C1842 C1196 1.439 . S
C1851 C986 1.377 . S
C1853 C1210 1.439 . S
C1862 C1182 1.435 . S
C1864 C1000 1.381 . S
C1873 C6 1.579 . S
C1875 C959 1.578 . S
C1884 C21 1.566 . S
C1886 C917 1.575 . S
C1895 C34 1.581 . S
C1897 C931 1.575 . S
C1906 C49 1.581 . S
C1908 C945 1.574 . S
C1917 C1001 1.566 . S
C1919 C62 1.570 . S
C1928 C77 1.581 . S
C1930 C973 1.575 . S
C1939 C987 1.579 . S
C1941 C90 1.571 . S
C1950 C105 1.568 . S
C1952 C903 1.568 . S
C1961 C888 1.566 . S
C1963 C119 1.575 . S
C1972 C132 1.566 . S
C1974 C847 1.571 . S
C1983 C860 1.581 . S
C1985 C147 1.573 . S
C1994 C160 1.573 . S
C1996 C875 1.567 . S
C2005 C175 1.580 . S
C2007 C804 1.578 . S
C2016 C188 1.566 . S
C2018 C819 1.571 . S
C2027 C832 1.568 . S
C2029 C203 1.577 . S
C2038 C791 1.567 . S
C2040 C216 1.576 . S
C2049 C231 1.581 . S
C2051 C777 1.573 . S
C2060 C245 1.571 . S
C2062 C693 1.579 . S
C2071 C259 1.577 . S
C2073 C706 1.579 . S
C2082 C273 1.580 . S
C2084 C721 1.572 . S
C2093 C287 1.569 . S
C2095 C678 1.568 . S
C2104 C749 1.566 . S
C2106 C301 1.575 . S
C2115 C762 1.581 . S
C2117 C315 1.574 . S
C2126 C329 1.577 . S
C2128 C734 1.579 . S
C2137 C345 1.654 . S
C2139 C1297 1.652 . S
C2148 C358 1.648 . S
C2150 C1254 1.651 . S
C2159 C373 1.654 . S
C2161 C1269 1.651 . S
C2170 C386 1.653 . S
C2172 C1282 1.653 . S
C2181 C401 1.653 . S
C2183 C1339 1.653 . S
C2192 C1310 1.650 . S
C2194 C414 1.653 . S
C2203 C429 1.653 . S
C2205 C1325 1.652 . S
C2214 C442 1.648 . S
C2216 C1240 1.649 . S
C2225 C1227 1.649 . S
C2227 C457 1.649 . S
C2236 C1185 1.653 . S
C2238 C471 1.650 . S
C2247 C1199 1.653 . S
C2249 C485 1.652 . S
C2258 C1213 1.654 . S
C2260 C499 1.650 . S
C2269 C513 1.651 . S
C2271 C1143 1.648 . S
C2280 C527 1.650 . S
C2282 C1157 1.653 . S
C2291 C541 1.649 . S
C2293 C1171 1.653 . S
C2302 C1129 1.654 . S
C2304 C555 1.650 . S
C2313 C1114 1.649 . S
C2315 C568 1.652 . S
C2324 C582 1.648 . S
C2326 C1030 1.651 . S
C2335 C1045 1.648 . S
C2337 C597 1.649 . S
C2346 C1058 1.649 . S
C2348 C610 1.653 . S
C2357 C625 1.649 . S
C2359 C1017 1.652 . S
C2368 C638 1.654 . S
C2370 C1086 1.650 . S
C2379 C1101 1.654 . S
C2381 C653 1.651 . S
C2390 C667 1.649 . S
C2392 C1073 1.649 . S
C2401 C8 1.542 . S
C2403 C399 1.440 . S
C2412 C23 1.543 . S
C2414 C412 1.443 . S
C2423 C36 1.539 . S
C2425 C427 1.435 . S
C2434 C51 1.537 . S
C2436 C440 1.434 . S
C2445 C343 1.445 . S
C2447 C64 1.541 . S
C2456 C79 1.539 . S
C2458 C356 1.441 . S
C2467 C371 1.432 . S
C2469 C92 1.537 . S
C2478 C384 1.438 . S
C2480 C107 1.541 . S
C2489 C121 1.539 . S
C2491 C539 1.441 . S
C2500 C553 1.433 . S
C2502 C134 1.538 . S
C2511 C149 1.543 . S
C2513 C511 1.442 . S
C2522 C162 1.538 . S
C2524 C525 1.440 . S
C2533 C177 1.538 . S
C2535 C483 1.440 . S
C2544 C190 1.540 . S
C2546 C497 1.442 . S
C2555 C205 1.537 . S
C2557 C455 1.437 . S
C2566 C469 1.433 . S
C2568 C218 1.537 . S
C2577 C233 1.538 . S
C2579 C636 1.434 . S
C2588 C247 1.542 . S
C2590 C608 1.444 . S
C2599 C623 1.442 . S
C2601 C261 1.542 . S
C2610 C275 1.540 . S
C2612 C580 1.443 . S
C2621 C595 1.445 . S
C2623 C289 1.541 . S
C2632 C303 1.542 . S
C2634 C566 1.444 . S
C2643 C665 1.437 . S
C2645 C317 1.538 . S
C2654 C651 1.433 . S
C2656 C331 1.537 . S
C2665 C680 1.543 . S
C2667 C1071 1.442 . S
C2676 C695 1.543 . S
C2678 C1084 1.443 . S
C2687 C708 1.542 . S
C2689 C1099 1.440 . S
C2698 C1112 1.435 . S
C2700 C723 1.540 . S
C2709 C736 1.536 . S
C2711 C1015 1.435 . S
C2720 C751 1.539 . S
C2722 C1028 1.442 . S
C2731 C764 1.540 . S
C2733 C1043 1.443 . S
C2742 C779 1.539 . S
C2744 C1056 1.435 . S
C2753 C793 1.536 . S
C2755 C1211 1.435 . S
C2764 C1225 1.444 . S
C2766 C806 1.540 . S
C2775 C1183 1.434 . S
C2777 C821 1.539 . S
C2786 C1197 1.443 . S
C2788 C834 1.542 . S
C2797 C849 1.536 . S
C2799 C1155 1.434 . S
C2808 C1169 1.445 . S
C2810 C862 1.540 . S
C2819 C877 1.540 . S
C2821 C1127 1.443 . S
C2830 C1141 1.439 . S
C2832 C890 1.538 . S
C2841 C1308 1.433 . S
C2843 C905 1.537 . S
C2852 C1280 1.445 . S
C2854 C919 1.541 . S
C2863 C933 1.542 . S
C2865 C1295 1.440 . S
C2874 C947 1.541 . S
C2876 C1252 1.444 . S
C2885 C1267 1.432 . S
C2887 C961 1.538 . S
C2896 C975 1.537 . S
C2898 C1238 1.434 . S
C2907 C1337 1.434 . S
C2909 C989 1.539 . S
C2918 C1323 1.440 . S
C2920 C1003 1.541 . S
C2929 C372 1.703 . S
C2931 C9 1.724 . S
C2940 C22 1.722 . S
C2942 C387 1.706 . S
C2951 C344 1.704 . S
C2953 C37 1.725 . S
C2962 C50 1.722 . S
C2964 C359 1.708 . S
C2973 C428 1.703 . S
C2975 C65 1.725 . S
C2984 C443 1.705 . S
C2986 C78 1.724 . S
C2995 C93 1.724 . S
C2997 C400 1.704 . S
C3006 C415 1.704 . S
C3008 C106 1.725 . S
C3017 C120 1.724 . S
C3019 C512 1.704 . S
C3028 C135 1.724 . S
C3030 C526 1.707 . S
C3039 C540 1.705 . S
C3041 C148 1.723 . S
C3050 C163 1.722 . S
C3052 C554 1.706 . S
C3061 C176 1.722 . S
C3063 C456 1.708 . S
C3072 C470 1.708 . S
C3074 C191 1.722 . S
C3083 C484 1.704 . S
C3085 C204 1.725 . S
C3094 C498 1.704 . S
C3096 C219 1.725 . S
C3105 C232 1.725 . S
C3107 C611 1.705 . S
C3116 C639 1.706 . S
C3118 C246 1.724 . S
C3127 C260 1.723 . S
C3129 C652 1.705 . S
C3138 C569 1.706 . S
C3140 C274 1.722 . S
C3149 C666 1.704 . S
C3151 C288 1.724 . S
C3160 C583 1.703 . S
C3162 C302 1.724 . S
C3171 C316 1.722 . S
C3173 C596 1.708 . S
C3182 C330 1.722 . S
C3184 C624 1.708 . S
C3193 C681 1.724 . S
C3195 C1044 1.704 . S
C3204 C1059 1.707 . S
C3206 C694 1.723 . S
C3215 C1016 1.704 . S
C3217 C709 1.723 . S
C3226 C1031 1.703 . S
C3228 C722 1.724 . S
C3237 C737 1.724 . S
C3239 C1100 1.706 . S
C3248 C1115 1.705 . S
C3250 C750 1.724 . S
C3259 C765 1.723 . S
C3261 C1072 1.704 . S
C3270 C1087 1.705 . S
C3272 C778 1.723 . S
C3281 C792 1.722 . S
C3283 C1184 1.706 . S
C3292 C1198 1.709 . S
C3294 C807 1.722 . S
C3303 C820 1.722 . S
C3305 C1212 1.708 . S
C3314 C1226 1.708 . S
C3316 C835 1.723 . S
C3325 C1128 1.703 . S
C3327 C848 1.724 . S
C3336 C1142 1.705 . S
C3338 C863 1.725 . S
C3347 C1156 1.709 . S
C3349 C876 1.722 . S
C3358 C1170 1.708 . S
C3360 C891 1.722 . S
C3369 C904 1.722 . S
C3371 C1283 1.708 . S
C3380 C1311 1.707 . S
C3382 C918 1.722 . S
C3391 C1324 1.704 . S
C3393 C932 1.725 . S
C3402 C1241 1.703 . S
C3404 C946 1.724 . S
C3413 C1338 1.708 . S
C3415 C960 1.723 . S
C3424 C974 1.725 . S
C3426 C1255 1.705 . S
C3435 C988 1.722 . S
C3437 C1268 1.706 . S
C3446 C1296 1.704 . S
C3448 C1002 1.724 . S
