# Generated by pormake.
# Topology umo, (4)-cn, num edge types: 1
# Building blocks:
#     Node 0, Type 0, BuildingBlock: CEKHIL_clean_sbu_0, # of connection points: 4
#     Node 1, Type 0, BuildingBlock: CEKHIL_clean_sbu_0, # of connection points: 4
#     Node 2, Type 0, BuildingBlock: CEKHIL_clean_sbu_0, # of connection points: 4
#     Node 3, Type 0, BuildingBlock: CEKHIL_clean_sbu_0, # of connection points: 4
#     Node 4, Type 0, BuildingBlock: CEKHIL_clean_sbu_0, # of connection points: 4
#     Node 5, Type 0, BuildingBlock: CEKHIL_clean_sbu_0, # of connection points: 4
#     Node 6, Type 0, BuildingBlock: CEKHIL_clean_sbu_0, # of connection points: 4
#     Node 7, Type 0, BuildingBlock: CEKHIL_clean_sbu_0, # of connection points: 4
#     Node 8, Type 0, BuildingBlock: CEKHIL_clean_sbu_0, # of connection points: 4
#     Node 9, Type 0, BuildingBlock: CEKHIL_clean_sbu_0, # of connection points: 4
#     Node 10, Type 0, BuildingBlock: CEKHIL_clean_sbu_0, # of connection points: 4
#     Node 11, Type 0, BuildingBlock: CEKHIL_clean_sbu_0, # of connection points: 4
#     Edge 12, Type (0, 0), BuildingBlock: MIFKUJ_clean_linker_0, # of connection points: 2
#     Edge 13, Type (0, 0), BuildingBlock: MIFKUJ_clean_linker_0, # of connection points: 2
#     Edge 14, Type (0, 0), BuildingBlock: MIFKUJ_clean_linker_0, # of connection points: 2
#     Edge 15, Type (0, 0), BuildingBlock: MIFKUJ_clean_linker_0, # of connection points: 2
#     Edge 16, Type (0, 0), BuildingBlock: MIFKUJ_clean_linker_0, # of connection points: 2
#     Edge 17, Type (0, 0), BuildingBlock: MIFKUJ_clean_linker_0, # of connection points: 2
#     Edge 18, Type (0, 0), BuildingBlock: MIFKUJ_clean_linker_0, # of connection points: 2
#     Edge 19, Type (0, 0), BuildingBlock: MIFKUJ_clean_linker_0, # of connection points: 2
#     Edge 20, Type (0, 0), BuildingBlock: MIFKUJ_clean_linker_0, # of connection points: 2
#     Edge 21, Type (0, 0), BuildingBlock: MIFKUJ_clean_linker_0, # of connection points: 2
#     Edge 22, Type (0, 0), BuildingBlock: MIFKUJ_clean_linker_0, # of connection points: 2
#     Edge 23, Type (0, 0), BuildingBlock: MIFKUJ_clean_linker_0, # of connection points: 2
#     Edge 24, Type (0, 0), BuildingBlock: MIFKUJ_clean_linker_0, # of connection points: 2
#     Edge 25, Type (0, 0), BuildingBlock: MIFKUJ_clean_linker_0, # of connection points: 2
#     Edge 26, Type (0, 0), BuildingBlock: MIFKUJ_clean_linker_0, # of connection points: 2
#     Edge 27, Type (0, 0), BuildingBlock: MIFKUJ_clean_linker_0, # of connection points: 2
#     Edge 28, Type (0, 0), BuildingBlock: MIFKUJ_clean_linker_0, # of connection points: 2
#     Edge 29, Type (0, 0), BuildingBlock: MIFKUJ_clean_linker_0, # of connection points: 2
#     Edge 30, Type (0, 0), BuildingBlock: MIFKUJ_clean_linker_0, # of connection points: 2
#     Edge 31, Type (0, 0), BuildingBlock: MIFKUJ_clean_linker_0, # of connection points: 2
#     Edge 32, Type (0, 0), BuildingBlock: MIFKUJ_clean_linker_0, # of connection points: 2
#     Edge 33, Type (0, 0), BuildingBlock: MIFKUJ_clean_linker_0, # of connection points: 2
#     Edge 34, Type (0, 0), BuildingBlock: MIFKUJ_clean_linker_0, # of connection points: 2
#     Edge 35, Type (0, 0), BuildingBlock: MIFKUJ_clean_linker_0, # of connection points: 2
# Relax obj value: 0.181
# Max RMSD: 0.252
# Mean RMSD: 0.252
data_MOF--net-umo--node1-CEKHIL_clean_sbu_0--edge1-MIFKUJ_clean_linker_0
_symmetry_space_group_name_H-M    P1
_symmetry_Int_Tables_number       1
_symmetry_cell_setting            triclinic
loop_
_symmetry_equiv_pos_as_xyz
'x, y, z'
_cell_length_a     62.131309
_cell_length_b     62.11687
_cell_length_c     47.537258
_cell_angle_alpha  90.01036
_cell_angle_beta   90.00519
_cell_angle_gamma 119.95251
loop_
_atom_site_label
_atom_site_type_symbol
_atom_site_fract_x
_atom_site_fract_y
_atom_site_fract_z
_atom_type_partial_charge
Co0 Co 0.15491 0.52437 0.39105 0.0
O1 O 0.12142 0.49793 0.38677 0.0
O2 O 0.13283 0.5378 0.39114 0.0
C3 C 0.17152 0.51274 0.35632 0.0
O4 O 0.18746 0.55676 0.39505 0.0
Co5 Co 0.19606 0.51331 0.40938 0.0
O6 O 0.2186 0.54849 0.39905 0.0
C7 C 0.16497 0.51854 0.45272 0.0
C8 C 0.11512 0.51495 0.38775 0.0
C9 C 0.2107 0.56378 0.39656 0.0
O10 O 0.15222 0.5212 0.43317 0.0
O11 O 0.18295 0.51456 0.44777 0.0
O12 O 0.16032 0.52517 0.35087 0.0
O13 O 0.1699 0.50518 0.38206 0.0
Co14 Co 0.62276 0.15485 0.55322 0.0
O15 O 0.61667 0.12146 0.55285 0.0
O16 O 0.58745 0.132 0.5509 0.0
C17 C 0.6531 0.16989 0.52054 0.0
O18 O 0.62217 0.18727 0.55253 0.0
Co19 Co 0.67356 0.19758 0.57346 0.0
O20 O 0.6616 0.21857 0.55577 0.0
C21 C 0.63531 0.16736 0.61555 0.0
C22 C 0.59329 0.11459 0.55071 0.0
C23 C 0.63854 0.2105 0.55172 0.0
O24 O 0.62071 0.15449 0.59544 0.0
O25 O 0.65769 0.18482 0.6114 0.0
O26 O 0.6299 0.15787 0.51325 0.0
O27 O 0.65739 0.17014 0.54727 0.0
Co28 Co 0.46621 0.62637 0.72317 0.0
O29 O 0.49327 0.61994 0.72057 0.0
O30 O 0.45342 0.59102 0.72136 0.0
C31 C 0.47966 0.65616 0.68981 0.0
O32 O 0.43343 0.62585 0.72492 0.0
Co33 Co 0.47538 0.67756 0.74364 0.0
O34 O 0.4407 0.66485 0.73065 0.0
C35 C 0.46929 0.63996 0.78547 0.0
C36 C 0.4765 0.59657 0.71928 0.0
C37 C 0.42601 0.64174 0.72649 0.0
O38 O 0.46626 0.62491 0.76535 0.0
O39 O 0.47462 0.66249 0.78156 0.0
O40 O 0.46816 0.6328 0.68311 0.0
O41 O 0.48526 0.66096 0.71624 0.0
Co42 Co 0.83772 0.47169 0.89004 0.0
O43 O 0.87143 0.49816 0.88768 0.0
O44 O 0.85946 0.45805 0.88563 0.0
C45 C 0.82143 0.48705 0.85893 0.0
O46 O 0.80482 0.43951 0.89108 0.0
Co47 Co 0.79829 0.48273 0.91501 0.0
O48 O 0.77493 0.44784 0.90416 0.0
C49 C 0.82952 0.4732 0.95361 0.0
C50 C 0.8774 0.48102 0.8847 0.0
C51 C 0.78202 0.43273 0.89635 0.0
O52 O 0.84013 0.47 0.9321 0.0
O53 O 0.81333 0.48014 0.95163 0.0
O54 O 0.83269 0.47537 0.85057 0.0
O55 O 0.82312 0.49194 0.88567 0.0
Co56 Co 0.35971 0.82966 0.05495 0.0
O57 O 0.36114 0.86111 0.05237 0.0
O58 O 0.39392 0.85584 0.05344 0.0
C59 C 0.3306 0.81049 0.02137 0.0
O60 O 0.36564 0.80046 0.05636 0.0
Co61 Co 0.31203 0.783 0.07454 0.0
O62 O 0.32917 0.76521 0.06131 0.0
C63 C 0.34719 0.81686 0.11717 0.0
C64 C 0.38509 0.87084 0.0512 0.0
C65 C 0.35257 0.77666 0.05737 0.0
O66 O 0.36077 0.83121 0.09724 0.0
O67 O 0.32634 0.79713 0.11269 0.0
O68 O 0.3538 0.8247 0.0149 0.0
O69 O 0.32514 0.81022 0.04777 0.0
Co70 Co 0.52474 0.36154 0.23334 0.0
O71 O 0.49478 0.36317 0.23714 0.0
O72 O 0.53291 0.39564 0.23446 0.0
C73 C 0.51155 0.33293 0.1987 0.0
O74 O 0.55974 0.3678 0.22796 0.0
Co75 Co 0.52695 0.3141 0.24682 0.0
O76 O 0.5585 0.33117 0.2254 0.0
C77 C 0.5317 0.34785 0.29315 0.0
C78 C 0.50915 0.38716 0.23609 0.0
C79 C 0.56997 0.35471 0.22267 0.0
O80 O 0.52868 0.36173 0.27541 0.0
O81 O 0.53121 0.32768 0.28622 0.0
O82 O 0.51907 0.35608 0.19317 0.0
O83 O 0.50952 0.32722 0.2252 0.0
Co84 Co 0.46726 0.83212 0.44008 0.0
O85 O 0.49536 0.86518 0.43843 0.0
O86 O 0.45608 0.85588 0.44265 0.0
C87 C 0.48311 0.81698 0.47204 0.0
O88 O 0.43367 0.80093 0.44398 0.0
Co89 Co 0.47078 0.78661 0.42047 0.0
O90 O 0.43866 0.76766 0.4405 0.0
C91 C 0.46305 0.8168 0.37807 0.0
C92 C 0.47944 0.87276 0.44171 0.0
C93 C 0.42536 0.77746 0.44595 0.0
O94 O 0.46324 0.83096 0.39793 0.0
O95 O 0.46678 0.79857 0.38243 0.0
O96 O 0.47343 0.83033 0.47975 0.0
O97 O 0.48545 0.8154 0.4451 0.0
Co98 Co 0.63308 0.47355 0.61118 0.0
O99 O 0.62367 0.49861 0.61185 0.0
O100 O 0.59738 0.45799 0.61295 0.0
C101 C 0.6629 0.4905 0.64441 0.0
O102 O 0.63585 0.44232 0.61154 0.0
Co103 Co 0.68587 0.48693 0.59144 0.0
O104 O 0.67566 0.45285 0.60417 0.0
C105 C 0.64693 0.47547 0.54899 0.0
C106 C 0.6009 0.48046 0.61351 0.0
C107 C 0.65314 0.43675 0.60944 0.0
O108 O 0.63159 0.47231 0.56886 0.0
O109 O 0.6698 0.48231 0.55341 0.0
O110 O 0.63965 0.4776 0.6513 0.0
O111 O 0.66733 0.49523 0.6178 0.0
Co112 Co 0.15528 0.63487 0.76494 0.0
O113 O 0.12145 0.62751 0.76707 0.0
O114 O 0.13361 0.59948 0.76818 0.0
C115 C 0.17082 0.66575 0.79691 0.0
O116 O 0.18818 0.63533 0.76433 0.0
Co117 Co 0.19623 0.68612 0.74268 0.0
O118 O 0.21887 0.67346 0.75219 0.0
C119 C 0.16587 0.64633 0.70218 0.0
C120 C 0.1156 0.60439 0.76958 0.0
C121 C 0.21116 0.65106 0.75951 0.0
O122 O 0.15344 0.63202 0.72268 0.0
O123 O 0.18318 0.66888 0.70555 0.0
O124 O 0.15951 0.6427 0.80477 0.0
O125 O 0.16998 0.66959 0.77023 0.0
Co126 Co 0.5293 0.15959 0.94511 0.0
O127 O 0.49983 0.12756 0.94591 0.0
O128 O 0.53837 0.1342 0.94754 0.0
C129 C 0.51732 0.17778 0.97785 0.0
O130 O 0.56393 0.18948 0.94548 0.0
Co131 Co 0.52736 0.20583 0.92478 0.0
O132 O 0.56117 0.22405 0.94143 0.0
C133 C 0.53024 0.1724 0.88276 0.0
C134 C 0.51463 0.11853 0.94816 0.0
C135 C 0.57366 0.21319 0.94577 0.0
O136 O 0.53073 0.15886 0.9029 0.0
O137 O 0.52743 0.19126 0.88679 0.0
O138 O 0.52624 0.16364 0.98503 0.0
O139 O 0.51324 0.17831 0.95115 0.0
Co140 Co 0.36895 0.52845 0.11386 0.0
O141 O 0.3712 0.49881 0.11497 0.0
O142 O 0.40318 0.5372 0.11808 0.0
C143 C 0.33766 0.51608 0.14491 0.0
O144 O 0.37389 0.56321 0.11474 0.0
Co145 Co 0.322 0.52755 0.09129 0.0
O146 O 0.33686 0.56077 0.10935 0.0
C147 C 0.35973 0.53096 0.05104 0.0
C148 C 0.39489 0.5134 0.11864 0.0
C149 C 0.35999 0.57305 0.11496 0.0
O150 O 0.37277 0.53059 0.07181 0.0
O151 O 0.33816 0.5286 0.0541 0.0
O152 O 0.36037 0.52483 0.15333 0.0
O153 O 0.33401 0.51237 0.11804 0.0
Co154 Co 0.83345 0.36697 0.27968 0.0
O155 O 0.86675 0.37349 0.28454 0.0
O156 O 0.8554 0.40216 0.28467 0.0
C157 C 0.81547 0.33518 0.31044 0.0
O158 O 0.80115 0.36728 0.27619 0.0
Co159 Co 0.79365 0.3172 0.25402 0.0
O160 O 0.77052 0.32911 0.26456 0.0
C161 C 0.8273 0.35762 0.21607 0.0
C162 C 0.87292 0.39666 0.28745 0.0
C163 C 0.77819 0.35168 0.27119 0.0
O164 O 0.83794 0.37116 0.23775 0.0
O165 O 0.81 0.33488 0.21789 0.0
O166 O 0.82647 0.35805 0.31897 0.0
O167 O 0.81802 0.33204 0.28391 0.0
H168 H 0.20161 0.60282 0.39769 0.0
H169 H 0.23098 0.64586 0.41133 0.0
H170 H 0.28957 0.62801 0.41688 0.0
H171 H 0.26085 0.58541 0.40295 0.0
H172 H 0.27791 0.64983 0.46822 0.0
H173 H 0.29264 0.65873 0.36516 0.0
H174 H 0.27862 0.65845 0.31654 0.0
H175 H 0.25764 0.71241 0.33905 0.0
H176 H 0.27125 0.71274 0.38793 0.0
H177 H 0.40252 0.72864 0.46065 0.0
H178 H 0.35824 0.69924 0.46046 0.0
H179 H 0.34312 0.75867 0.44338 0.0
H180 H 0.38779 0.78841 0.44308 0.0
H181 H 0.32137 0.72309 0.40562 0.0
H182 H 0.32006 0.72435 0.50389 0.0
H183 H 0.33405 0.72566 0.5527 0.0
H184 H 0.32789 0.65417 0.54193 0.0
H185 H 0.31425 0.65255 0.49293 0.0
C186 C 0.22087 0.60819 0.40125 0.0
C187 C 0.22881 0.59057 0.39955 0.0
C188 C 0.23751 0.63272 0.40914 0.0
C189 C 0.26218 0.63978 0.41549 0.0
C190 C 0.27043 0.62266 0.41235 0.0
C191 C 0.25399 0.59835 0.40425 0.0
C192 C 0.27959 0.66453 0.42681 0.0
C193 C 0.28738 0.66603 0.45477 0.0
C194 C 0.29079 0.68581 0.40955 0.0
C195 C 0.28257 0.68546 0.38024 0.0
C196 C 0.28476 0.67031 0.35981 0.0
C197 C 0.27697 0.6702 0.33219 0.0
C198 C 0.26714 0.68532 0.32474 0.0
C199 C 0.26517 0.70065 0.34487 0.0
C200 C 0.27292 0.7008 0.37252 0.0
C201 C 0.38982 0.73561 0.45748 0.0
C202 C 0.39867 0.76078 0.45149 0.0
C203 C 0.36443 0.71879 0.45767 0.0
C204 C 0.34733 0.72679 0.45211 0.0
C205 C 0.35601 0.75216 0.44784 0.0
C206 C 0.38153 0.7691 0.44774 0.0
C207 C 0.32111 0.70794 0.44661 0.0
C208 C 0.31142 0.70744 0.41974 0.0
C209 C 0.30795 0.68764 0.46506 0.0
C210 C 0.31608 0.68834 0.49464 0.0
C211 C 0.3218 0.70895 0.51186 0.0
C212 C 0.32967 0.70974 0.53959 0.0
C213 C 0.33184 0.69001 0.55041 0.0
C214 C 0.32614 0.66942 0.53354 0.0
C215 C 0.31827 0.66853 0.50579 0.0
H216 H 0.33795 0.69067 0.57188 0.0
H217 H 0.26114 0.68523 0.30334 0.0
H218 H 0.59478 0.20535 0.57113 0.0
H219 H 0.58743 0.23954 0.58341 0.0
H220 H 0.65709 0.29173 0.54487 0.0
H221 H 0.66458 0.2579 0.53261 0.0
H222 H 0.6512 0.29595 0.60616 0.0
H223 H 0.60859 0.28529 0.51565 0.0
H224 H 0.57465 0.2609 0.48217 0.0
H225 H 0.52087 0.2525 0.54437 0.0
H226 H 0.55451 0.27659 0.57834 0.0
H227 H 0.6828 0.41773 0.5958 0.0
H228 H 0.67104 0.37457 0.59016 0.0
H229 H 0.59658 0.35199 0.61782 0.0
H230 H 0.60802 0.3958 0.62248 0.0
H231 H 0.59501 0.32591 0.57316 0.0
H232 H 0.63651 0.34255 0.66052 0.0
H233 H 0.66919 0.36633 0.69554 0.0
H234 H 0.72299 0.36129 0.64351 0.0
H235 H 0.69075 0.33782 0.60797 0.0
C236 C 0.60801 0.224 0.56427 0.0
C237 C 0.63042 0.22909 0.55124 0.0
C238 C 0.60382 0.24347 0.57141 0.0
C239 C 0.62189 0.26804 0.5653 0.0
C240 C 0.64305 0.27282 0.54988 0.0
C241 C 0.64728 0.2535 0.54286 0.0
C242 C 0.62109 0.28913 0.5784 0.0
C243 C 0.63898 0.3026 0.59897 0.0
C244 C 0.60412 0.29678 0.57015 0.0
C245 C 0.58402 0.28244 0.54963 0.0
C246 C 0.58951 0.27802 0.52228 0.0
C247 C 0.57034 0.26431 0.50319 0.0
C248 C 0.54561 0.25507 0.51117 0.0
C249 C 0.54002 0.25961 0.53823 0.0
C250 C 0.55913 0.27331 0.55739 0.0
C251 C 0.66398 0.40373 0.60118 0.0
C252 C 0.6464 0.41031 0.60981 0.0
C253 C 0.6573 0.37893 0.59802 0.0
C254 C 0.63306 0.35999 0.60415 0.0
C255 C 0.61544 0.36634 0.61319 0.0
C256 C 0.62206 0.39135 0.616 0.0
C257 C 0.62641 0.33381 0.59953 0.0
C258 C 0.60695 0.31912 0.5809 0.0
C259 C 0.64172 0.32473 0.60991 0.0
C260 C 0.66115 0.3384 0.63154 0.0
C261 C 0.65532 0.34657 0.65649 0.0
C262 C 0.67378 0.36001 0.67644 0.0
C263 C 0.69814 0.36531 0.67175 0.0
C264 C 0.70409 0.35713 0.64714 0.0
C265 C 0.68572 0.3437 0.62711 0.0
H266 H 0.71241 0.37576 0.6872 0.0
H267 H 0.53079 0.24446 0.49636 0.0
H268 H 0.21165 0.61494 0.79235 0.0
H269 H 0.24207 0.60047 0.79019 0.0
H270 H 0.28038 0.65212 0.72279 0.0
H271 H 0.2509 0.66707 0.72537 0.0
H272 H 0.2694 0.59968 0.71493 0.0
H273 H 0.30503 0.67157 0.77907 0.0
H274 H 0.30371 0.69326 0.82194 0.0
H275 H 0.29572 0.63248 0.87265 0.0
H276 H 0.29664 0.61028 0.82994 0.0
H277 H 0.40164 0.66507 0.70761 0.0
H278 H 0.358 0.65249 0.71583 0.0
H279 H 0.34685 0.58631 0.75818 0.0
H280 H 0.39028 0.59825 0.749 0.0
H281 H 0.33703 0.6309 0.78581 0.0
H282 H 0.3128 0.56437 0.71995 0.0
H283 H 0.31578 0.5451 0.67588 0.0
H284 H 0.30272 0.59609 0.628 0.0
H285 H 0.30009 0.61595 0.67182 0.0
C286 C 0.22665 0.62316 0.77719 0.0
C287 C 0.22919 0.6423 0.75927 0.0
C288 C 0.24382 0.61484 0.7759 0.0
C289 C 0.26318 0.62515 0.75616 0.0
C290 C 0.26538 0.64386 0.73798 0.0
C291 C 0.24872 0.65256 0.73972 0.0
C292 C 0.28234 0.61786 0.75499 0.0
C293 C 0.28399 0.60602 0.73063 0.0
C294 C 0.30102 0.62583 0.77575 0.0
C295 C 0.3005 0.63913 0.80136 0.0
C296 C 0.30272 0.66273 0.79934 0.0
C297 C 0.3021 0.67514 0.8236 0.0
C298 C 0.29952 0.66421 0.85 0.0
C299 C 0.29763 0.64089 0.85218 0.0
C300 C 0.29819 0.62838 0.82796 0.0
C301 C 0.3897 0.64753 0.71798 0.0
C302 C 0.39917 0.63254 0.72747 0.0
C303 C 0.36488 0.6404 0.7227 0.0
C304 C 0.3494 0.61848 0.73749 0.0
C305 C 0.35857 0.60314 0.74646 0.0
C306 C 0.38327 0.60994 0.74109 0.0
C307 C 0.32438 0.61327 0.74542 0.0
C308 C 0.32181 0.6232 0.77084 0.0
C309 C 0.30486 0.60353 0.72564 0.0
C310 C 0.3065 0.5918 0.69917 0.0
C311 C 0.31086 0.57167 0.70002 0.0
C312 C 0.31241 0.56059 0.67509 0.0
C313 C 0.3095 0.56941 0.64915 0.0
C314 C 0.30499 0.5893 0.64811 0.0
C315 C 0.30344 0.60046 0.67299 0.0
H316 H 0.31069 0.56079 0.62986 0.0
H317 H 0.29907 0.67385 0.86876 0.0
H318 H 0.78453 0.39452 0.87038 0.0
H319 H 0.75593 0.34974 0.87708 0.0
H320 H 0.71091 0.36613 0.93226 0.0
H321 H 0.73862 0.41042 0.92524 0.0
H322 H 0.72871 0.33078 0.95277 0.0
H323 H 0.68739 0.35036 0.87643 0.0
H324 H 0.68642 0.36535 0.82866 0.0
H325 H 0.70198 0.31091 0.79341 0.0
H326 H 0.70339 0.29585 0.8411 0.0
H327 H 0.60108 0.25857 0.96997 0.0
H328 H 0.64519 0.28775 0.96192 0.0
H329 H 0.65111 0.23247 0.91296 0.0
H330 H 0.6071 0.20283 0.92179 0.0
H331 H 0.66252 0.27888 0.88444 0.0
H332 H 0.68745 0.25039 0.96231 0.0
H333 H 0.68662 0.23552 0.01056 0.0
H334 H 0.70146 0.30595 0.04368 0.0
H335 H 0.70197 0.32115 0.99566 0.0
C336 C 0.76832 0.38849 0.88361 0.0
C337 C 0.76374 0.40595 0.89718 0.0
C338 C 0.75218 0.36303 0.88751 0.0
C339 C 0.73167 0.3549 0.90543 0.0
C340 C 0.72686 0.37223 0.91856 0.0
C341 C 0.74257 0.39751 0.91425 0.0
C342 C 0.71467 0.32836 0.9108 0.0
C343 C 0.71436 0.31918 0.93783 0.0
C344 C 0.69664 0.31319 0.89085 0.0
C345 C 0.69592 0.32229 0.86228 0.0
C346 C 0.69091 0.3418 0.8585 0.0
C347 C 0.6902 0.35026 0.83146 0.0
C348 C 0.69425 0.33916 0.80802 0.0
C349 C 0.69894 0.31954 0.81159 0.0
C350 C 0.69971 0.31105 0.83862 0.0
C351 C 0.61203 0.25241 0.95835 0.0
C352 C 0.60083 0.22859 0.94647 0.0
C353 C 0.63716 0.26899 0.95382 0.0
C354 C 0.65126 0.26213 0.93688 0.0
C355 C 0.64048 0.23791 0.92626 0.0
C356 C 0.61544 0.22106 0.93141 0.0
C357 C 0.67576 0.28168 0.92698 0.0
C358 C 0.67749 0.28976 0.89908 0.0
C359 C 0.69503 0.29584 0.94621 0.0
C360 C 0.69468 0.2869 0.97529 0.0
C361 C 0.69035 0.26267 0.97988 0.0
C362 C 0.68996 0.25418 0.0072 0.0
C363 C 0.69398 0.26978 0.03017 0.0
C364 C 0.69839 0.2939 0.02586 0.0
C365 C 0.69877 0.30248 0.99856 0.0
H366 H 0.69368 0.26318 0.05132 0.0
H367 H 0.69367 0.34571 0.78709 0.0
H368 H 0.33164 0.72629 0.05587 0.0
H369 H 0.35176 0.70232 0.06703 0.0
H370 H 0.42275 0.76964 0.0719 0.0
H371 H 0.40273 0.79413 0.06112 0.0
H372 H 0.40306 0.70744 0.04095 0.0
H373 H 0.42966 0.76383 0.12301 0.0
H374 H 0.42318 0.79047 0.15651 0.0
H375 H 0.35215 0.72885 0.17928 0.0
H376 H 0.35814 0.70194 0.14569 0.0
H377 H 0.40863 0.60792 0.10603 0.0
H378 H 0.42555 0.65271 0.10066 0.0
H379 H 0.3548 0.64417 0.12495 0.0
H380 H 0.33775 0.59953 0.13022 0.0
H381 H 0.39518 0.68924 0.1433 0.0
H382 H 0.36461 0.63667 0.05832 0.0
H383 H 0.36603 0.60807 0.02332 0.0
H384 H 0.4419 0.66156 0.00432 0.0
H385 H 0.44104 0.69031 0.03967 0.0
C386 C 0.35157 0.73607 0.05877 0.0
C387 C 0.36549 0.76214 0.05804 0.0
C388 C 0.36306 0.72234 0.06509 0.0
C389 C 0.38859 0.73435 0.07064 0.0
C390 C 0.40296 0.76019 0.06791 0.0
C391 C 0.39145 0.77404 0.06163 0.0
C392 C 0.39892 0.71942 0.08205 0.0
C393 C 0.40262 0.70412 0.06341 0.0
C394 C 0.39789 0.715 0.1113 0.0
C395 C 0.39426 0.73098 0.13169 0.0
C396 C 0.41259 0.75604 0.13502 0.0
C397 C 0.40902 0.77117 0.15404 0.0
C398 C 0.38723 0.76138 0.16994 0.0
C399 C 0.36901 0.73642 0.16693 0.0
C400 C 0.37249 0.72122 0.14793 0.0
C401 C 0.39692 0.6157 0.11109 0.0
C402 C 0.37172 0.60022 0.11805 0.0
C403 C 0.40664 0.64128 0.10802 0.0
C404 C 0.39133 0.65162 0.11214 0.0
C405 C 0.36691 0.63651 0.12172 0.0
C406 C 0.35712 0.61098 0.1245 0.0
C407 C 0.39876 0.67686 0.10212 0.0
C408 C 0.39774 0.69365 0.12103 0.0
C409 C 0.40237 0.6827 0.07307 0.0
C410 C 0.40289 0.66543 0.05192 0.0
C411 C 0.38166 0.64222 0.04688 0.0
C412 C 0.38236 0.626 0.02697 0.0
C413 C 0.40407 0.63296 0.01171 0.0
C414 C 0.42513 0.65617 0.01627 0.0
C415 C 0.42457 0.67241 0.03626 0.0
H416 H 0.40453 0.62039 0.99628 0.0
H417 H 0.38449 0.77311 0.18464 0.0
H418 H 0.78655 0.39858 0.28301 0.0
H419 H 0.75944 0.41544 0.27086 0.0
H420 H 0.70376 0.34331 0.24094 0.0
H421 H 0.73015 0.3262 0.25328 0.0
H422 H 0.7213 0.3869 0.20135 0.0
H423 H 0.6922 0.35786 0.29853 0.0
H424 H 0.69907 0.35961 0.34979 0.0
H425 H 0.72314 0.43755 0.34979 0.0
H426 H 0.71668 0.43627 0.29841 0.0
H427 H 0.59629 0.33469 0.2005 0.0
H428 H 0.64108 0.35261 0.2011 0.0
H429 H 0.64961 0.42126 0.23389 0.0
H430 H 0.60446 0.40335 0.23302 0.0
H431 H 0.66888 0.40147 0.26858 0.0
H432 H 0.68094 0.42428 0.17392 0.0
H433 H 0.67329 0.42223 0.12286 0.0
H434 H 0.6819 0.35799 0.1166 0.0
H435 H 0.68924 0.35937 0.16766 0.0
C436 C 0.76834 0.38621 0.27431 0.0
C437 C 0.76061 0.36106 0.26889 0.0
C438 C 0.75302 0.39593 0.26726 0.0
C439 C 0.72997 0.38065 0.25455 0.0
C440 C 0.72174 0.3554 0.25038 0.0
C441 C 0.7368 0.34563 0.25768 0.0
C442 C 0.71408 0.39047 0.24485 0.0
C443 C 0.70993 0.39041 0.21586 0.0
C444 C 0.70037 0.39633 0.26389 0.0
C445 C 0.70436 0.39706 0.29465 0.0
C446 C 0.69923 0.37542 0.30943 0.0
C447 C 0.70297 0.3763 0.33851 0.0
C448 C 0.71165 0.3987 0.35303 0.0
C449 C 0.71651 0.42023 0.33851 0.0
C450 C 0.71281 0.41944 0.30942 0.0
C451 C 0.6077 0.35388 0.20687 0.0
C452 C 0.59687 0.36748 0.217 0.0
C453 C 0.63338 0.36423 0.20701 0.0
C454 C 0.64871 0.38834 0.21746 0.0
C455 C 0.63809 0.40269 0.22559 0.0
C456 C 0.6123 0.3924 0.2251 0.0
C457 C 0.6746 0.3959 0.22497 0.0
C458 C 0.68089 0.39931 0.25366 0.0
C459 C 0.69033 0.39321 0.20556 0.0
C460 C 0.68573 0.39201 0.17474 0.0
C461 C 0.68107 0.40962 0.16172 0.0
C462 C 0.67681 0.40858 0.13274 0.0
C463 C 0.67715 0.39002 0.11649 0.0
C464 C 0.68172 0.37241 0.1292 0.0
C465 C 0.68601 0.37336 0.15817 0.0
H466 H 0.67386 0.38926 0.09406 0.0
H467 H 0.71451 0.39935 0.37554 0.0
H468 H 0.20103 0.65758 0.66209 0.0
H469 H 0.19764 0.63391 0.61992 0.0
H470 H 0.11939 0.58561 0.63595 0.0
H471 H 0.12324 0.60837 0.67949 0.0
H472 H 0.13625 0.55823 0.62283 0.0
H473 H 0.14528 0.631 0.57863 0.0
H474 H 0.16333 0.67568 0.56856 0.0
H475 H 0.23179 0.68009 0.54339 0.0
H476 H 0.21428 0.63551 0.55366 0.0
H477 H 0.12274 0.51479 0.47548 0.0
H478 H 0.11968 0.53381 0.51941 0.0
H479 H 0.19596 0.55682 0.53847 0.0
H480 H 0.19906 0.53731 0.4951 0.0
H481 H 0.17699 0.59568 0.532 0.0
H482 H 0.16523 0.52099 0.57959 0.0
H483 H 0.14373 0.47567 0.58703 0.0
H484 H 0.07522 0.47495 0.60202 0.0
H485 H 0.09628 0.52025 0.59424 0.0
C486 C 0.18296 0.64229 0.65628 0.0
C487 C 0.16234 0.63498 0.67397 0.0
C488 C 0.18099 0.62873 0.63202 0.0
C489 C 0.15814 0.60807 0.62426 0.0
C490 C 0.13726 0.60139 0.64137 0.0
C491 C 0.1394 0.61454 0.66613 0.0
C492 C 0.15655 0.59251 0.59952 0.0
C493 C 0.14482 0.56654 0.60287 0.0
C494 C 0.16787 0.60308 0.57334 0.0
C495 C 0.17851 0.62993 0.56715 0.0
C496 C 0.16424 0.64153 0.57114 0.0
C497 C 0.17437 0.66684 0.56536 0.0
C498 C 0.19871 0.68072 0.5554 0.0
C499 C 0.21295 0.66932 0.55113 0.0
C500 C 0.20292 0.64402 0.55689 0.0
C501 C 0.13863 0.52321 0.48947 0.0
C502 C 0.16114 0.5245 0.48182 0.0
C503 C 0.13685 0.53412 0.51447 0.0
C504 C 0.15764 0.54679 0.53198 0.0
C505 C 0.17973 0.54705 0.52518 0.0
C506 C 0.18138 0.53571 0.50049 0.0
C507 C 0.15714 0.56189 0.55576 0.0
C508 C 0.16836 0.58765 0.55204 0.0
C509 C 0.14487 0.55113 0.58126 0.0
C510 C 0.13226 0.52394 0.58597 0.0
C511 C 0.14553 0.51113 0.58415 0.0
C512 C 0.13344 0.48545 0.58852 0.0
C513 C 0.1081 0.47242 0.5949 0.0
C514 C 0.09483 0.48506 0.59702 0.0
C515 C 0.10684 0.51073 0.59266 0.0
H516 H 0.09878 0.45255 0.59828 0.0
H517 H 0.20652 0.70031 0.55094 0.0
H518 H 0.58943 0.13103 0.63323 0.0
H519 H 0.56903 0.12911 0.67771 0.0
H520 H 0.63596 0.19305 0.70767 0.0
H521 H 0.65648 0.19543 0.66296 0.0
H522 H 0.57534 0.12329 0.73124 0.0
H523 H 0.62035 0.23055 0.74445 0.0
H524 H 0.63734 0.26784 0.71431 0.0
H525 H 0.5926 0.22354 0.64524 0.0
H526 H 0.57501 0.18609 0.67508 0.0
H527 H 0.5569 0.15011 0.86926 0.0
H528 H 0.57203 0.14678 0.82335 0.0
H529 H 0.53287 0.18029 0.785 0.0
H530 H 0.51887 0.18515 0.83162 0.0
H531 H 0.57481 0.19933 0.76215 0.0
H532 H 0.51411 0.11491 0.77905 0.0
H533 H 0.49202 0.07565 0.8056 0.0
H534 H 0.55841 0.07053 0.8079 0.0
H535 H 0.58099 0.10992 0.78167 0.0
C536 C 0.60001 0.14453 0.64936 0.0
C537 C 0.62459 0.16356 0.6443 0.0
C538 C 0.58827 0.14336 0.67486 0.0
C539 C 0.60077 0.16123 0.69583 0.0
C540 C 0.62577 0.17935 0.69155 0.0
C541 C 0.63755 0.18055 0.66603 0.0
C542 C 0.58735 0.1615 0.72162 0.0
C543 C 0.57523 0.13991 0.73805 0.0
C544 C 0.58637 0.1829 0.72993 0.0
C545 C 0.59657 0.20545 0.71196 0.0
C546 C 0.61405 0.22878 0.72288 0.0
C547 C 0.62379 0.24995 0.70584 0.0
C548 C 0.61612 0.24805 0.67786 0.0
C549 C 0.5986 0.22498 0.66689 0.0
C550 C 0.58875 0.20378 0.68386 0.0
C551 C 0.55111 0.15642 0.85105 0.0
C552 C 0.53643 0.16768 0.85411 0.0
C553 C 0.55975 0.1544 0.82466 0.0
C554 C 0.55324 0.16277 0.8004 0.0
C555 C 0.53815 0.17362 0.80331 0.0
C556 C 0.53 0.17625 0.82993 0.0
C557 C 0.56328 0.16125 0.77239 0.0
C558 C 0.57478 0.18263 0.75542 0.0
C559 C 0.56288 0.13934 0.76304 0.0
C560 C 0.54928 0.11547 0.77854 0.0
C561 C 0.52403 0.10548 0.78534 0.0
C562 C 0.51142 0.08319 0.80032 0.0
C563 C 0.52382 0.07063 0.80848 0.0
C564 C 0.54883 0.08028 0.80158 0.0
C565 C 0.56153 0.10257 0.78661 0.0
H566 H 0.51403 0.0534 0.8201 0.0
H567 H 0.62372 0.26445 0.66469 0.0
H568 H 0.33785 0.52734 0.99958 0.0
H569 H 0.35898 0.54399 0.95455 0.0
H570 H 0.42972 0.56752 0.99409 0.0
H571 H 0.40895 0.55058 0.03887 0.0
H572 H 0.42467 0.60563 0.96311 0.0
H573 H 0.41213 0.52276 0.95264 0.0
H574 H 0.38701 0.47702 0.95161 0.0
H575 H 0.3427 0.48083 0.88459 0.0
H576 H 0.36733 0.52662 0.88549 0.0
H577 H 0.49454 0.65351 0.83602 0.0
H578 H 0.47868 0.63352 0.88197 0.0
H579 H 0.40804 0.58314 0.84347 0.0
H580 H 0.42452 0.60171 0.79781 0.0
H581 H 0.41604 0.55782 0.87628 0.0
H582 H 0.42255 0.6378 0.88713 0.0
H583 H 0.44254 0.68349 0.88878 0.0
H584 H 0.49124 0.68598 0.95439 0.0
H585 H 0.47179 0.64032 0.95283 0.0
C586 C 0.35786 0.53562 0.99858 0.0
C587 C 0.37165 0.53756 0.02289 0.0
C588 C 0.36989 0.54515 0.97287 0.0
C589 C 0.39589 0.55703 0.97112 0.0
C590 C 0.40964 0.55842 0.99507 0.0
C591 C 0.39765 0.54856 0.02062 0.0
C592 C 0.40887 0.56926 0.9447 0.0
C593 C 0.42306 0.59527 0.94411 0.0
C594 C 0.4062 0.55566 0.91991 0.0
C595 C 0.39143 0.52813 0.91932 0.0
C596 C 0.39688 0.51385 0.93786 0.0
C597 C 0.38277 0.48792 0.93726 0.0
C598 C 0.36323 0.47603 0.9181 0.0
C599 C 0.35781 0.49006 0.89945 0.0
C600 C 0.37186 0.516 0.89998 0.0
C601 C 0.47573 0.63804 0.83759 0.0
C602 C 0.46079 0.6289 0.81352 0.0
C603 C 0.46655 0.62674 0.86383 0.0
C604 C 0.44195 0.60685 0.86648 0.0
C605 C 0.4271 0.59817 0.84223 0.0
C606 C 0.4365 0.60884 0.81609 0.0
C607 C 0.43139 0.59461 0.89408 0.0
C608 C 0.41773 0.56845 0.89508 0.0
C609 C 0.43386 0.60818 0.91906 0.0
C610 C 0.44598 0.63567 0.91954 0.0
C611 C 0.43772 0.64811 0.90167 0.0
C612 C 0.44892 0.674 0.90264 0.0
C613 C 0.46823 0.68763 0.92159 0.0
C614 C 0.47635 0.6754 0.93964 0.0
C615 C 0.46526 0.64953 0.93871 0.0
H616 H 0.47683 0.70767 0.92234 0.0
H617 H 0.35233 0.45595 0.91766 0.0
H618 H 0.81325 0.33626 0.16352 0.0
H619 H 0.81752 0.35774 0.11873 0.0
H620 H 0.85706 0.42844 0.16083 0.0
H621 H 0.85361 0.40746 0.20535 0.0
H622 H 0.80475 0.40826 0.12214 0.0
H623 H 0.89304 0.42987 0.12839 0.0
H624 H 0.92479 0.41731 0.13316 0.0
H625 H 0.89484 0.36968 0.06112 0.0
H626 H 0.86268 0.38171 0.05622 0.0
H627 H 0.8259 0.48906 0.00673 0.0
H628 H 0.82935 0.47177 0.05181 0.0
H629 H 0.84319 0.41921 0.0074 0.0
H630 H 0.84163 0.43754 0.96294 0.0
H631 H 0.86934 0.43038 0.04898 0.0
H632 H 0.78356 0.40624 0.03849 0.0
H633 H 0.74668 0.4109 0.03234 0.0
H634 H 0.76435 0.45348 0.1086 0.0
H635 H 0.80156 0.44938 0.11499 0.0
C636 C 0.82334 0.35639 0.16317 0.0
C637 C 0.83309 0.37007 0.18814 0.0
C638 C 0.82567 0.3686 0.13758 0.0
C639 C 0.83754 0.39462 0.13662 0.0
C640 C 0.84791 0.40833 0.16121 0.0
C641 C 0.84598 0.39623 0.18663 0.0
C642 C 0.83778 0.40757 0.11038 0.0
C643 C 0.81898 0.41344 0.10617 0.0
C644 C 0.85584 0.41341 0.08933 0.0
C645 C 0.87532 0.40645 0.09217 0.0
C646 C 0.89308 0.41652 0.11377 0.0
C647 C 0.91118 0.40955 0.11645 0.0
C648 C 0.91178 0.39264 0.09751 0.0
C649 C 0.89433 0.38274 0.0758 0.0
C650 C 0.87618 0.38964 0.07306 0.0
C651 C 0.83008 0.47409 0.00674 0.0
C652 C 0.83365 0.46481 0.98127 0.0
C653 C 0.83175 0.46397 0.0325 0.0
C654 C 0.83601 0.44371 0.03323 0.0
C655 C 0.84001 0.43484 0.00771 0.0
C656 C 0.83911 0.4454 0.98216 0.0
C657 C 0.83614 0.4314 0.06024 0.0
C658 C 0.85501 0.42549 0.06474 0.0
C659 C 0.81755 0.42476 0.08118 0.0
C660 C 0.79553 0.42777 0.07702 0.0
C661 C 0.77973 0.41682 0.05379 0.0
C662 C 0.75874 0.41932 0.05029 0.0
C663 C 0.75322 0.43254 0.07002 0.0
C664 C 0.76869 0.4433 0.09329 0.0
C665 C 0.78973 0.4409 0.09686 0.0
H666 H 0.73691 0.43439 0.06732 0.0
H667 H 0.92581 0.38727 0.09962 0.0
H668 H 0.32639 0.79025 0.16565 0.0
H669 H 0.34744 0.7938 0.21036 0.0
H670 H 0.41391 0.85696 0.17842 0.0
H671 H 0.39314 0.85379 0.13384 0.0
H672 H 0.42244 0.82058 0.19997 0.0
H673 H 0.38235 0.8662 0.22762 0.0
H674 H 0.347 0.87321 0.23456 0.0
H675 H 0.3126 0.81043 0.29014 0.0
H676 H 0.34761 0.80283 0.28322 0.0
H677 H 0.45869 0.85602 0.35876 0.0
H678 H 0.44119 0.85926 0.31408 0.0
H679 H 0.43184 0.78851 0.28825 0.0
H680 H 0.44983 0.78534 0.33267 0.0
H681 H 0.39599 0.83103 0.29501 0.0
H682 H 0.43196 0.78534 0.21611 0.0
H683 H 0.46864 0.78066 0.2082 0.0
H684 H 0.51411 0.84797 0.25419 0.0
H685 H 0.47778 0.85327 0.26199 0.0
C686 C 0.34528 0.80525 0.1683 0.0
C687 C 0.35801 0.82166 0.14598 0.0
C688 C 0.35733 0.80722 0.19389 0.0
C689 C 0.3823 0.82557 0.19763 0.0
C690 C 0.39469 0.84259 0.1759 0.0
C691 C 0.38264 0.84078 0.15046 0.0
C692 C 0.39602 0.82617 0.22348 0.0
C693 C 0.41669 0.82287 0.22079 0.0
C694 C 0.3886 0.82933 0.25055 0.0
C695 C 0.36748 0.83379 0.25466 0.0
C696 C 0.36714 0.85374 0.24111 0.0
C697 C 0.34718 0.85786 0.24509 0.0
C698 C 0.32753 0.84224 0.26272 0.0
C699 C 0.32782 0.8225 0.27646 0.0
C700 C 0.34772 0.81829 0.27253 0.0
C701 C 0.45332 0.8413 0.34342 0.0
C702 C 0.45571 0.8204 0.34942 0.0
C703 C 0.44317 0.84314 0.31789 0.0
C704 C 0.43516 0.82416 0.29771 0.0
C705 C 0.43818 0.8036 0.30326 0.0
C706 C 0.44849 0.80181 0.32874 0.0
C707 C 0.42249 0.82534 0.27162 0.0
C708 C 0.40185 0.82878 0.27424 0.0
C709 C 0.43006 0.82248 0.24443 0.0
C710 C 0.45208 0.81954 0.23989 0.0
C711 C 0.4498 0.79918 0.22447 0.0
C712 C 0.47053 0.79642 0.22 0.0
C713 C 0.49367 0.81396 0.23078 0.0
C714 C 0.49615 0.83434 0.24596 0.0
C715 C 0.47548 0.83722 0.25044 0.0
H716 H 0.5097 0.81178 0.22732 0.0
H717 H 0.31211 0.84547 0.26579 0.0
H718 H 0.51629 0.37476 0.32408 0.0
H719 H 0.53337 0.39584 0.36888 0.0
H720 H 0.58271 0.36568 0.37086 0.0
H721 H 0.5644 0.34324 0.32718 0.0
H722 H 0.57135 0.36805 0.4209 0.0
H723 H 0.59967 0.42738 0.34554 0.0
H724 H 0.59508 0.4491 0.30454 0.0
H725 H 0.55495 0.47453 0.35518 0.0
H726 H 0.55902 0.45267 0.39641 0.0
H727 H 0.66593 0.46063 0.50619 0.0
H728 H 0.64481 0.43951 0.46277 0.0
H729 H 0.58336 0.45039 0.48341 0.0
H730 H 0.60411 0.47116 0.52724 0.0
H731 H 0.60015 0.45832 0.42331 0.0
H732 H 0.57563 0.39906 0.49992 0.0
H733 H 0.58453 0.37905 0.53954 0.0
H734 H 0.62294 0.35524 0.4838 0.0
H735 H 0.61474 0.37559 0.44393 0.0
C736 C 0.5304 0.37223 0.33446 0.0
C737 C 0.53904 0.35739 0.32215 0.0
C738 C 0.54039 0.38451 0.35991 0.0
C739 C 0.55999 0.3831 0.37294 0.0
C740 C 0.56773 0.36727 0.36129 0.0
C741 C 0.55721 0.35437 0.3363 0.0
C742 C 0.57318 0.39885 0.39786 0.0
C743 C 0.57781 0.38781 0.42118 0.0
C744 C 0.58159 0.42472 0.39861 0.0
C745 C 0.57944 0.43819 0.37397 0.0
C746 C 0.58976 0.43751 0.34789 0.0
C747 C 0.58726 0.44984 0.32461 0.0
C748 C 0.57467 0.46312 0.32723 0.0
C749 C 0.56465 0.46419 0.35317 0.0
C750 C 0.56707 0.45185 0.3765 0.0
C751 C 0.64821 0.45911 0.50122 0.0
C752 C 0.63666 0.46752 0.52026 0.0
C753 C 0.63611 0.44689 0.47647 0.0
C754 C 0.61244 0.44317 0.47011 0.0
C755 C 0.6016 0.45303 0.48803 0.0
C756 C 0.61349 0.46489 0.51305 0.0
C757 C 0.59828 0.42745 0.44587 0.0
C758 C 0.59354 0.43852 0.42283 0.0
C759 C 0.59031 0.40177 0.44509 0.0
C760 C 0.5948 0.38909 0.46898 0.0
C761 C 0.58617 0.38976 0.49615 0.0
C762 C 0.59106 0.37833 0.51865 0.0
C763 C 0.60435 0.36595 0.51421 0.0
C764 C 0.61269 0.36488 0.48722 0.0
C765 C 0.60792 0.37636 0.46466 0.0
H766 H 0.60816 0.35716 0.53165 0.0
H767 H 0.57272 0.47264 0.30919 0.0
H768 H 0.89153 0.44634 0.29783 0.0
H769 H 0.93197 0.47521 0.31909 0.0
H770 H 0.95103 0.4173 0.31935 0.0
H771 H 0.91122 0.38865 0.29801 0.0
H772 H 0.95445 0.44124 0.37311 0.0
H773 H 0.97722 0.45964 0.27354 0.0
H774 H 0.97366 0.47462 0.22668 0.0
H775 H 0.99091 0.54501 0.26225 0.0
H776 H 0.99425 0.53029 0.30941 0.0
H777 H 0.07538 0.4687 0.38235 0.0
H778 H 0.03291 0.45737 0.37124 0.0
H779 H 0.0529 0.53463 0.37284 0.0
H780 H 0.09607 0.5463 0.38356 0.0
H781 H 0.0267 0.51155 0.32627 0.0
H782 H 0.01478 0.49593 0.42389 0.0
H783 H 0.01914 0.48085 0.47032 0.0
H784 H 0.98124 0.40577 0.43981 0.0
H785 H 0.97697 0.42038 0.39307 0.0
C786 C 0.90456 0.43995 0.30202 0.0
C787 C 0.89819 0.41521 0.29646 0.0
C788 C 0.92753 0.4564 0.31419 0.0
C789 C 0.94418 0.44817 0.32101 0.0
C790 C 0.93822 0.42383 0.31443 0.0
C791 C 0.91551 0.40754 0.30212 0.0
C792 C 0.96752 0.46417 0.33611 0.0
C793 C 0.97029 0.45674 0.36306 0.0
C794 C 0.98766 0.48499 0.32333 0.0
C795 C 0.98561 0.49375 0.29502 0.0
C796 C 0.97999 0.47821 0.27141 0.0
C797 C 0.97807 0.48668 0.24478 0.0
C798 C 0.98195 0.51072 0.2415 0.0
C799 C 0.98784 0.52637 0.26483 0.0
C800 C 0.98975 0.51798 0.2915 0.0
C801 C 0.07078 0.48333 0.38071 0.0
C802 C 0.08905 0.50839 0.38377 0.0
C803 C 0.0464 0.4768 0.37456 0.0
C804 C 0.03966 0.49514 0.37168 0.0
C805 C 0.05773 0.52022 0.37521 0.0
C806 C 0.0823 0.52682 0.38137 0.0
C807 C 0.01409 0.48767 0.36271 0.0
C808 C 0.01076 0.4967 0.33696 0.0
C809 C 0.99333 0.46831 0.37667 0.0
C810 C 0.99555 0.4593 0.40491 0.0
C811 C 0.00746 0.47621 0.42702 0.0
C812 C 0.00992 0.46774 0.45342 0.0
C813 C 0.00047 0.44237 0.45802 0.0
C814 C 0.98851 0.42541 0.43624 0.0
C815 C 0.98601 0.43378 0.4098 0.0
H816 H 0.00241 0.43586 0.47846 0.0
H817 H 0.98048 0.51724 0.22088 0.0
H818 H 0.45119 0.89523 0.44426 0.0
H819 H 0.46399 0.9367 0.4632 0.0
H820 H 0.53857 0.95009 0.47412 0.0
H821 H 0.52622 0.90914 0.45474 0.0
H822 H 0.51055 0.95371 0.52488 0.0
H823 H 0.53518 0.98085 0.42802 0.0
H824 H 0.52709 0.98071 0.37722 0.0
H825 H 0.47221 0.00175 0.39435 0.0
H826 H 0.47975 0.00164 0.44533 0.0
H827 H 0.60025 0.07499 0.55501 0.0
H828 H 0.57256 0.03281 0.53905 0.0
H829 H 0.5168 0.05229 0.51823 0.0
H830 H 0.54487 0.09506 0.53389 0.0
H831 H 0.52507 0.02996 0.47498 0.0
H832 H 0.50612 0.01091 0.57115 0.0
H833 H 0.51371 0.01115 0.62207 0.0
H834 H 0.55559 0.97428 0.60771 0.0
H835 H 0.54859 0.97414 0.55665 0.0
C836 C 0.47044 0.90727 0.45011 0.0
C837 C 0.4877 0.89895 0.44817 0.0
C838 C 0.47766 0.93085 0.46094 0.0
C839 C 0.50211 0.94617 0.4702 0.0
C840 C 0.51959 0.93836 0.46712 0.0
C841 C 0.51252 0.91504 0.45591 0.0
C842 C 0.50927 0.96956 0.48512 0.0
C843 C 0.51379 0.97046 0.51409 0.0
C844 C 0.51234 0.99091 0.47106 0.0
C845 C 0.50774 0.99085 0.44048 0.0
C846 C 0.52117 0.98513 0.42097 0.0
C847 C 0.51674 0.98518 0.39215 0.0
C848 C 0.49907 0.99111 0.38257 0.0
C849 C 0.48584 0.99708 0.4018 0.0
C850 C 0.49019 0.99704 0.43066 0.0
C851 C 0.58193 0.07025 0.54755 0.0
C852 C 0.57476 0.08834 0.54554 0.0
C853 C 0.56602 0.04604 0.53859 0.0
C854 C 0.54252 0.03934 0.52765 0.0
C855 C 0.53484 0.05709 0.5267 0.0
C856 C 0.55082 0.08144 0.53575 0.0
C857 C 0.52741 0.01451 0.51477 0.0
C858 C 0.52126 0.01317 0.48613 0.0
C859 C 0.52262 0.99265 0.52923 0.0
C860 C 0.52689 0.9926 0.55999 0.0
C861 C 0.51709 0.00299 0.57881 0.0
C862 C 0.52127 0.00309 0.60772 0.0
C863 C 0.53514 0.99275 0.61812 0.0
C864 C 0.54483 0.98226 0.59963 0.0
C865 C 0.54072 0.98213 0.57069 0.0
H866 H 0.53835 0.99285 0.64051 0.0
H867 H 0.49569 0.99117 0.36024 0.0
H868 H 0.52269 0.60448 0.70791 0.0
H869 H 0.53362 0.57466 0.68927 0.0
H870 H 0.45739 0.51611 0.69649 0.0
H871 H 0.446 0.54609 0.71484 0.0
H872 H 0.50672 0.51056 0.71468 0.0
H873 H 0.46151 0.52451 0.63983 0.0
H874 H 0.45103 0.55163 0.61219 0.0
H875 H 0.52736 0.59634 0.58745 0.0
H876 H 0.53835 0.56971 0.61535 0.0
H877 H 0.55347 0.44775 0.63064 0.0
H878 H 0.52214 0.45811 0.64645 0.0
H879 H 0.57125 0.53485 0.62429 0.0
H880 H 0.60236 0.52467 0.60838 0.0
H881 H 0.52372 0.52094 0.61205 0.0
H882 H 0.57077 0.51476 0.69013 0.0
H883 H 0.58611 0.49306 0.72043 0.0
H884 H 0.51108 0.43826 0.74116 0.0
H885 H 0.49531 0.4595 0.71063 0.0
C886 C 0.50825 0.58521 0.70604 0.0
C887 C 0.48343 0.57765 0.71258 0.0
C888 C 0.51456 0.56822 0.6954 0.0
C889 C 0.49625 0.54337 0.69139 0.0
C890 C 0.4717 0.5353 0.6995 0.0
C891 C 0.46527 0.55242 0.70991 0.0
C892 C 0.50297 0.52683 0.67638 0.0
C893 C 0.50966 0.51203 0.6921 0.0
C894 C 0.50736 0.52948 0.6471 0.0
C895 C 0.50076 0.54522 0.62983 0.0
C896 C 0.47608 0.54024 0.62867 0.0
C897 C 0.47005 0.5555 0.61293 0.0
C898 C 0.48852 0.57572 0.59811 0.0
C899 C 0.51307 0.58068 0.59894 0.0
C900 C 0.5192 0.56549 0.61468 0.0
C901 C 0.5573 0.4667 0.62858 0.0
C902 C 0.58042 0.48547 0.61858 0.0
C903 C 0.53945 0.47259 0.6377 0.0
C904 C 0.54453 0.49729 0.63683 0.0
C905 C 0.56696 0.51568 0.62513 0.0
C906 C 0.58478 0.50985 0.61617 0.0
C907 C 0.52786 0.5048 0.65034 0.0
C908 C 0.51965 0.51831 0.63439 0.0
C909 C 0.52242 0.50123 0.67949 0.0
C910 C 0.53186 0.48848 0.6978 0.0
C911 C 0.55755 0.49796 0.70096 0.0
C912 C 0.56632 0.48577 0.7182 0.0
C913 C 0.54958 0.46424 0.73263 0.0
C914 C 0.52403 0.45489 0.7299 0.0
C915 C 0.51516 0.46699 0.71263 0.0
H916 H 0.5564 0.45483 0.74599 0.0
H917 H 0.48382 0.58753 0.58595 0.0
H918 H 0.07648 0.61119 0.78031 0.0
H919 H 0.03664 0.58128 0.80085 0.0
H920 H 0.05692 0.52435 0.79689 0.0
H921 H 0.09733 0.55441 0.77659 0.0
H922 H 0.00166 0.51357 0.78031 0.0
H923 H 0.06413 0.54025 0.85377 0.0
H924 H 0.1011 0.57218 0.87887 0.0
H925 H 0.06269 0.61169 0.89856 0.0
H926 H 0.02564 0.58019 0.87315 0.0
H927 H 0.89511 0.45022 0.869 0.0
H928 H 0.93705 0.46289 0.85189 0.0
H929 H 0.95924 0.53963 0.86781 0.0
H930 H 0.91789 0.52718 0.88527 0.0
H931 H 0.99572 0.53136 0.88095 0.0
H932 H 0.93868 0.51285 0.80277 0.0
H933 H 0.9016 0.48575 0.77441 0.0
H934 H 0.92885 0.43519 0.76106 0.0
H935 H 0.96598 0.46189 0.78967 0.0
C936 C 0.07237 0.59221 0.78326 0.0
C937 C 0.09011 0.58519 0.77711 0.0
C938 C 0.04961 0.57518 0.795 0.0
C939 C 0.04411 0.55081 0.80052 0.0
C940 C 0.061 0.54316 0.79272 0.0
C941 C 0.084 0.56033 0.7812 0.0
C942 C 0.02163 0.53444 0.81682 0.0
C943 C 0.0004 0.51679 0.80252 0.0
C944 C 0.02012 0.53926 0.84558 0.0
C945 C 0.04218 0.55794 0.86141 0.0
C946 C 0.06364 0.55584 0.86328 0.0
C947 C 0.0846 0.57385 0.87759 0.0
C948 C 0.08426 0.59398 0.89026 0.0
C949 C 0.06293 0.59609 0.88873 0.0
C950 C 0.04193 0.57814 0.87441 0.0
C951 C 0.90912 0.46973 0.86933 0.0
C952 C 0.90319 0.48775 0.87818 0.0
C953 C 0.933 0.47693 0.85946 0.0
C954 C 0.95114 0.50222 0.85824 0.0
C955 C 0.94555 0.52001 0.86857 0.0
C956 C 0.92183 0.51287 0.87843 0.0
C957 C 0.97539 0.51077 0.84434 0.0
C958 C -0.00298 0.52721 0.85905 0.0
C959 C 0.97714 0.50516 0.81583 0.0
C960 C 0.95489 0.48915 0.79865 0.0
C961 C 0.93665 0.49585 0.79396 0.0
C962 C 0.91565 0.48059 0.77782 0.0
C963 C 0.91282 0.45871 0.76603 0.0
C964 C 0.93103 0.4521 0.77028 0.0
C965 C 0.95205 0.46728 0.78645 0.0
H966 H 0.89656 0.44692 0.75353 0.0
H967 H 0.10051 0.60791 0.90131 0.0
H968 H 0.53987 0.09634 0.96865 0.0
H969 H 0.5217 0.05409 0.98737 0.0
H970 H 0.44901 0.03894 0.96085 0.0
H971 H 0.46692 0.08117 0.94273 0.0
H972 H 0.4499 0.02905 0.01558 0.0
H973 H 0.47997 0.01234 0.92853 0.0
H974 H 0.51236 0.01922 0.8939 0.0
H975 H 0.55231 0.00404 0.95718 0.0
H976 H 0.52032 0.99738 0.99229 0.0
H977 H 0.37065 0.90213 0.03025 0.0
H978 H 0.39687 0.94471 0.01475 0.0
H979 H 0.46204 0.94256 0.0421 0.0
H980 H 0.43567 0.89907 0.05648 0.0
H981 H 0.47025 0.96332 0.9928 0.0
H982 H 0.43896 0.97625 0.07882 0.0
H983 H 0.40726 0.96965 0.11426 0.0
H984 H 0.37097 0.99306 0.0549 0.0
H985 H 0.40225 -0.00052 0.01897 0.0
C986 C 0.5201 0.08379 0.96627 0.0
C987 C 0.50473 0.09204 0.95447 0.0
C988 C 0.50976 0.05968 0.97696 0.0
C989 C 0.48401 0.04347 0.9756 0.0
C990 C 0.46891 0.05127 0.9623 0.0
C991 C 0.47917 0.07535 0.95187 0.0
C992 C 0.47229 0.01916 0.99005 0.0
C993 C 0.45415 0.01456 0.01041 0.0
C994 C 0.47879 0.0008 0.98429 0.0
C995 C 0.49789 0.00462 0.9631 0.0
C996 C 0.49576 0.01066 0.93511 0.0
C997 C 0.51403 0.01448 0.91538 0.0
C998 C 0.53442 0.01214 0.92335 0.0
C999 C 0.53654 0.00589 0.95104 0.0
C1000 C 0.51833 0.00206 0.97086 0.0
C1001 C 0.39053 0.91078 0.03336 0.0
C1002 C 0.40114 0.89738 0.04476 0.0
C1003 C 0.40553 0.93521 0.02458 0.0
C1004 C 0.43141 0.94705 0.0278 0.0
C1005 C 0.44209 0.93382 0.03956 0.0
C1006 C 0.42705 0.90907 0.04787 0.0
C1007 C 0.44709 0.97284 0.01756 0.0
C1008 C 0.46613 0.97785 0.99822 0.0
C1009 C 0.44161 0.99176 0.02443 0.0
C1010 C 0.42293 0.98825 0.04615 0.0
C1011 C 0.42416 0.97988 0.07328 0.0
C1012 C 0.40626 0.97618 0.09346 0.0
C1013 C 0.3871 0.98091 0.08682 0.0
C1014 C 0.38583 0.98942 0.06001 0.0
C1015 C 0.40367 0.99314 0.03975 0.0
H1016 H 0.37325 0.97801 0.10247 0.0
H1017 H 0.54854 0.01512 0.90805 0.0
H1018 H 0.38116 0.46477 0.12535 0.0
H1019 H 0.4049 0.44826 0.14843 0.0
H1020 H 0.46811 0.52218 0.15492 0.0
H1021 H 0.44437 0.53905 0.13188 0.0
H1022 H 0.47887 0.48268 0.14013 0.0
H1023 H 0.43593 0.50337 0.20944 0.0
H1024 H 0.39948 0.5036 0.22955 0.0
H1025 H 0.36078 0.42399 0.23517 0.0
H1026 H 0.39686 0.42324 0.21462 0.0
H1027 H 0.5347 0.43782 0.23411 0.0
H1028 H 0.51858 0.46464 0.21881 0.0
H1029 H 0.44467 0.40103 0.21453 0.0
H1030 H 0.46053 0.3742 0.2303 0.0
H1031 H 0.44349 0.44166 0.23168 0.0
H1032 H 0.48208 0.41975 0.15717 0.0
H1033 H 0.5165 0.41729 0.1345 0.0
H1034 H 0.56144 0.49683 0.13654 0.0
H1035 H 0.52737 0.49972 0.15961 0.0
C1036 C 0.40027 0.47752 0.13115 0.0
C1037 C 0.41084 0.50324 0.12714 0.0
C1038 C 0.41374 0.46805 0.14442 0.0
C1039 C 0.43799 0.48412 0.15378 0.0
C1040 C 0.44931 0.50959 0.14796 0.0
C1041 C 0.43575 0.51915 0.13479 0.0
C1042 C 0.45065 0.47426 0.1713 0.0
C1043 C 0.47154 0.47418 0.16043 0.0
C1044 C 0.44066 0.46286 0.19751 0.0
C1045 C 0.41905 0.46325 0.21029 0.0
C1046 C 0.41959 0.4859 0.21477 0.0
C1047 C 0.399 0.48612 0.22627 0.0
C1048 C 0.37781 0.46382 0.23359 0.0
C1049 C 0.3772 0.44125 0.22948 0.0
C1050 C 0.39773 0.44092 0.21793 0.0
C1051 C 0.51492 0.42965 0.23056 0.0
C1052 C 0.4989 0.40387 0.23292 0.0
C1053 C 0.50578 0.44498 0.22175 0.0
C1054 C 0.48057 0.43469 0.21492 0.0
C1055 C 0.46423 0.4093 0.21954 0.0
C1056 C 0.47332 0.39398 0.22851 0.0
C1057 C 0.47151 0.44963 0.20031 0.0
C1058 C 0.45122 0.45063 0.21168 0.0
C1059 C 0.48189 0.46163 0.1744 0.0
C1060 C 0.50232 0.45993 0.16042 0.0
C1061 C 0.49938 0.4367 0.15298 0.0
C1062 C 0.5188 0.43523 0.14003 0.0
C1063 C 0.54117 0.45689 0.13417 0.0
C1064 C 0.54413 0.48007 0.14116 0.0
C1065 C 0.52477 0.48164 0.15417 0.0
H1066 H 0.55619 0.45572 0.12413 0.0
H1067 H 0.36188 0.46404 0.24249 0.0
H1068 H 0.18315 0.4757 0.35179 0.0
H1069 H 0.20735 0.47052 0.31426 0.0
H1070 H 0.21952 0.53873 0.27584 0.0
H1071 H 0.19419 0.54295 0.31205 0.0
H1072 H 0.2118 0.50904 0.23666 0.0
H1073 H 0.26435 0.53259 0.31887 0.0
H1074 H 0.27549 0.52862 0.36764 0.0
H1075 H 0.26631 0.45695 0.3484 0.0
H1076 H 0.25482 0.46039 0.29957 0.0
H1077 H 0.34443 0.53713 0.19626 0.0
H1078 H 0.31314 0.53187 0.23047 0.0
H1079 H 0.25535 0.48109 0.17432 0.0
H1080 H 0.28696 0.48736 0.13913 0.0
H1081 H 0.28218 0.49584 0.25967 0.0
H1082 H 0.20195 0.48264 0.18716 0.0
H1083 H 0.19553 0.49422 0.13951 0.0
H1084 H 0.26845 0.55865 0.14129 0.0
H1085 H 0.27515 0.54762 0.18905 0.0
C1086 C 0.19103 0.48949 0.33525 0.0
C1087 C 0.18684 0.5097 0.33475 0.0
C1088 C 0.20491 0.4866 0.31386 0.0
C1089 C 0.21555 0.50437 0.29222 0.0
C1090 C 0.21139 0.52461 0.29201 0.0
C1091 C 0.19701 0.5271 0.31285 0.0
C1092 C 0.23141 0.50247 0.26997 0.0
C1093 C 0.22713 0.50605 0.24174 0.0
C1094 C 0.25156 0.49872 0.27639 0.0
C1095 C 0.25844 0.49661 0.3057 0.0
C1096 C 0.26454 0.51591 0.32511 0.0
C1097 C 0.27094 0.51377 0.35274 0.0
C1098 C 0.27153 0.49251 0.36114 0.0
C1099 C 0.26579 0.47338 0.34188 0.0
C1100 C 0.25934 0.47541 0.31423 0.0
C1101 C 0.32505 0.52488 0.19109 0.0
C1102 C 0.3181 0.51266 0.16502 0.0
C1103 C 0.30714 0.52178 0.21079 0.0
C1104 C 0.2818 0.50609 0.20511 0.0
C1105 C 0.27475 0.49359 0.17909 0.0
C1106 C 0.29278 0.49711 0.15903 0.0
C1107 C 0.26316 0.50341 0.22656 0.0
C1108 C 0.26671 0.49861 0.25457 0.0
C1109 C 0.24305 0.50719 0.22011 0.0
C1110 C 0.23915 0.5141 0.19149 0.0
C1111 C 0.21658 0.49929 0.17737 0.0
C1112 C 0.21289 0.50577 0.15036 0.0
C1113 C 0.23161 0.5271 0.13733 0.0
C1114 C 0.25401 0.54207 0.15135 0.0
C1115 C 0.25776 0.53571 0.17837 0.0
H1116 H 0.22872 0.53207 0.11641 0.0
H1117 H 0.2765 0.49089 0.38254 0.0
H1118 H 0.81796 0.33754 0.36724 0.0
H1119 H 0.79244 0.30538 0.40106 0.0
H1120 H 0.75409 0.25436 0.33313 0.0
H1121 H 0.77995 0.28677 0.2988 0.0
H1122 H 0.72252 0.25775 0.37332 0.0
H1123 H 0.79239 0.24478 0.37263 0.0
H1124 H 0.8368 0.25745 0.37518 0.0
H1125 H 0.84083 0.28513 0.45893 0.0
H1126 H 0.79651 0.27294 0.45675 0.0
H1127 H 0.65034 0.15988 0.4649 0.0
H1128 H 0.6801 0.18415 0.42828 0.0
H1129 H 0.72922 0.23538 0.491 0.0
H1130 H 0.69973 0.21032 0.52807 0.0
H1131 H 0.75559 0.22945 0.45124 0.0
H1132 H 0.68919 0.24748 0.45187 0.0
H1133 H 0.64555 0.23773 0.45098 0.0
H1134 H 0.63596 0.2045 0.36935 0.0
H1135 H 0.67948 0.21374 0.36993 0.0
C1136 C 0.80427 0.31941 0.3594 0.0
C1137 C 0.80091 0.31467 0.33034 0.0
C1138 C 0.78979 0.301 0.37882 0.0
C1139 C 0.77153 0.27742 0.36965 0.0
C1140 C 0.76822 0.27244 0.34062 0.0
C1141 C 0.783 0.29088 0.32106 0.0
C1142 C 0.75501 0.25875 0.39061 0.0
C1143 C 0.72963 0.25109 0.39 0.0
C1144 C 0.76452 0.2509 0.41299 0.0
C1145 C 0.79114 0.25809 0.41444 0.0
C1146 C 0.80278 0.25373 0.39152 0.0
C1147 C 0.82794 0.2608 0.39291 0.0
C1148 C 0.84164 0.27213 0.41718 0.0
C1149 C 0.83019 0.27636 0.44014 0.0
C1150 C 0.80504 0.26934 0.43885 0.0
C1151 C 0.66762 0.17617 0.47095 0.0
C1152 C 0.67262 0.18341 0.49929 0.0
C1153 C 0.68458 0.19009 0.44997 0.0
C1154 C 0.70662 0.21199 0.45674 0.0
C1155 C 0.71225 0.21864 0.48522 0.0
C1156 C 0.69541 0.20436 0.50639 0.0
C1157 C 0.72304 0.22843 0.43398 0.0
C1158 C 0.74839 0.23581 0.43435 0.0
C1159 C 0.71362 0.23645 0.41161 0.0
C1160 C 0.68752 0.23108 0.41107 0.0
C1161 C 0.67773 0.23795 0.43381 0.0
C1162 C 0.65302 0.23253 0.43335 0.0
C1163 C 0.63798 0.22045 0.41015 0.0
C1164 C 0.64763 0.21383 0.38732 0.0
C1165 C 0.67232 0.21917 0.38769 0.0
H1166 H 0.61885 0.21627 0.40983 0.0
H1167 H 0.86111 0.2776 0.41821 0.0
H1168 H 0.49727 0.70622 0.69731 0.0
H1169 H 0.50328 0.73679 0.6608 0.0
H1170 H 0.47916 0.6796 0.59746 0.0
H1171 H 0.47338 0.6493 0.63345 0.0
H1172 H 0.51882 0.72222 0.57939 0.0
H1173 H 0.43929 0.69722 0.6231 0.0
H1174 H 0.41168 0.69127 0.6632 0.0
H1175 H 0.4535 0.76931 0.68166 0.0
H1176 H 0.48147 0.77568 0.64172 0.0
H1177 H 0.48308 0.77298 0.46576 0.0
H1178 H 0.48721 0.74815 0.50321 0.0
H1179 H 0.50142 0.80592 0.56329 0.0
H1180 H 0.49587 0.82993 0.52634 0.0
H1181 H 0.46986 0.76525 0.58477 0.0
H1182 H 0.5476 0.79113 0.53815 0.0
H1183 H 0.57517 0.79684 0.49808 0.0
H1184 H 0.5379 0.7179 0.48528 0.0
H1185 H 0.5099 0.71174 0.52506 0.0
C1186 C 0.49346 0.70028 0.67556 0.0
C1187 C 0.48472 0.67534 0.66829 0.0
C1188 C 0.49682 0.71771 0.65474 0.0
C1189 C 0.4915 0.71043 0.62638 0.0
C1190 C 0.48345 0.68568 0.61913 0.0
C1191 C 0.48002 0.66834 0.63982 0.0
C1192 C 0.4932 0.72808 0.60419 0.0
C1193 C 0.50807 0.7316 0.58045 0.0
C1194 C 0.47953 0.74064 0.60581 0.0
C1195 C 0.46261 0.73687 0.62964 0.0
C1196 C 0.44269 0.71307 0.63583 0.0
C1197 C 0.42696 0.70963 0.65851 0.0
C1198 C 0.4309 0.72988 0.67506 0.0
C1199 C 0.45051 0.75364 0.66886 0.0
C1200 C 0.46628 0.75718 0.64618 0.0
C1201 C 0.48741 0.78045 0.4869 0.0
C1202 C 0.48904 0.8033 0.4932 0.0
C1203 C 0.4899 0.76632 0.50832 0.0
C1204 C 0.49483 0.77517 0.53622 0.0
C1205 C 0.49747 0.79852 0.5421 0.0
C1206 C 0.4944 0.8123 0.52091 0.0
C1207 C 0.4956 0.7596 0.5597 0.0
C1208 C 0.48101 0.75629 0.58371 0.0
C1209 C 0.50963 0.74734 0.55831 0.0
C1210 C 0.52652 0.751 0.53445 0.0
C1211 C 0.54518 0.77501 0.52668 0.0
C1212 C 0.5609 0.77832 0.50403 0.0
C1213 C 0.55825 0.75775 0.4891 0.0
C1214 C 0.53991 0.73381 0.49684 0.0
C1215 C 0.52413 0.7304 0.51946 0.0
H1216 H 0.57043 0.76035 0.47158 0.0
H1217 H 0.41872 0.72717 0.69263 0.0
H1218 H 0.82275 0.48471 0.80221 0.0
H1219 H 0.79793 0.49176 0.76789 0.0
H1220 H 0.76278 0.51004 0.83463 0.0
H1221 H 0.78778 0.50279 0.86958 0.0
H1222 H 0.72929 0.47594 0.79639 0.0
H1223 H 0.80378 0.55543 0.7917 0.0
H1224 H 0.84896 0.58368 0.78746 0.0
H1225 H 0.84841 0.55363 0.70594 0.0
H1226 H 0.80328 0.52496 0.70984 0.0
H1227 H 0.66049 0.50129 0.69894 0.0
H1228 H 0.68975 0.50752 0.73656 0.0
H1229 H 0.73769 0.49975 0.6767 0.0
H1230 H 0.70893 0.49498 0.63858 0.0
H1231 H 0.76508 0.53216 0.71426 0.0
H1232 H 0.69425 0.45003 0.71963 0.0
H1233 H 0.64969 0.41881 0.72245 0.0
H1234 H 0.644 0.4501 0.80075 0.0
H1235 H 0.68849 0.4817 0.79823 0.0
C1236 C 0.80991 0.49045 0.80972 0.0
C1237 C 0.80723 0.49321 0.83866 0.0
C1238 C 0.79583 0.49462 0.78997 0.0
C1239 C 0.77873 0.50174 0.79861 0.0
C1240 C 0.77603 0.50472 0.82751 0.0
C1241 C 0.79033 0.50066 0.84742 0.0
C1242 C 0.76282 0.50455 0.77726 0.0
C1243 C 0.73705 0.48865 0.77877 0.0
C1244 C 0.77305 0.52046 0.75371 0.0
C1245 C 0.80015 0.53795 0.75114 0.0
C1246 C 0.81331 0.55474 0.77293 0.0
C1247 C 0.83892 0.57084 0.77058 0.0
C1248 C 0.85155 0.57042 0.74646 0.0
C1249 C 0.8386 0.55394 0.72461 0.0
C1250 C 0.813 0.53779 0.72686 0.0
C1251 C 0.67748 0.50131 0.69375 0.0
C1252 C 0.68239 0.49743 0.66594 0.0
C1253 C 0.69412 0.50469 0.71531 0.0
C1254 C 0.7156 0.50332 0.70971 0.0
C1255 C 0.72116 0.5007 0.68164 0.0
C1256 C 0.70475 0.49796 0.65985 0.0
C1257 C 0.73149 0.50341 0.73326 0.0
C1258 C 0.75725 0.51972 0.73209 0.0
C1259 C 0.72132 0.48751 0.7569 0.0
C1260 C 0.69463 0.46838 0.7586 0.0
C1261 C 0.68346 0.45034 0.73737 0.0
C1262 C 0.65822 0.43256 0.73892 0.0
C1263 C 0.64401 0.43252 0.76172 0.0
C1264 C 0.65502 0.45019 0.78308 0.0
C1265 C 0.68025 0.46802 0.78161 0.0
H1266 H 0.62447 0.41875 0.76288 0.0
H1267 H 0.87138 0.58289 0.7447 0.0
H1268 H 0.27962 0.78438 0.02569 0.0
H1269 H 0.24966 0.7622 0.98782 0.0
H1270 H 0.31018 0.78165 0.92999 0.0
H1271 H 0.3399 0.80413 0.96724 0.0
H1272 H 0.27603 0.78905 0.90614 0.0
H1273 H 0.27611 0.72272 0.96029 0.0
H1274 H 0.27069 0.69854 0.00351 0.0
H1275 H 0.19498 0.68194 0.00987 0.0
H1276 H 0.20006 0.7063 0.96688 0.0
H1277 H 0.21866 0.70397 0.79327 0.0
H1278 H 0.2438 0.73093 0.83181 0.0
H1279 H 0.17901 0.69927 0.88544 0.0
H1280 H 0.15455 0.67097 0.84758 0.0
H1281 H 0.21286 0.69972 0.91315 0.0
H1282 H 0.21116 0.7633 0.85728 0.0
H1283 H 0.21626 0.78777 0.81442 0.0
H1284 H 0.29377 0.81032 0.81154 0.0
H1285 H 0.28908 0.78575 0.85419 0.0
C1286 C 0.28644 0.78381 0.00491 0.0
C1287 C 0.31208 0.796 0.99944 0.0
C1288 C 0.26935 0.77112 0.9833 0.0
C1289 C 0.27768 0.77018 0.95603 0.0
C1290 C 0.30328 0.78223 0.95075 0.0
C1291 C 0.32027 0.795 0.97215 0.0
C1292 C 0.26003 0.75669 0.93276 0.0
C1293 C 0.26227 0.76947 0.90757 0.0
C1294 C 0.24162 0.73134 0.93487 0.0
C1295 C 0.23855 0.71654 0.96056 0.0
C1296 C 0.25836 0.71405 0.97102 0.0
C1297 C 0.25534 0.70029 0.99545 0.0
C1298 C 0.23253 0.68877 0.00947 0.0
C1299 C 0.21265 0.69091 0.99903 0.0
C1300 C 0.21559 0.70468 0.97462 0.0
C1301 C 0.20978 0.70322 0.81312 0.0
C1302 C 0.18474 0.68557 0.81754 0.0
C1303 C 0.22411 0.71872 0.83518 0.0
C1304 C 0.21335 0.71746 0.86168 0.0
C1305 C 0.18789 0.70062 0.86539 0.0
C1306 C 0.17385 0.68459 0.8437 0.0
C1307 C 0.22884 0.732 0.88617 0.0
C1308 C 0.22628 0.7194 0.91165 0.0
C1309 C 0.24683 0.75758 0.88436 0.0
C1310 C 0.24972 0.77254 0.85883 0.0
C1311 C 0.22926 0.77337 0.84742 0.0
C1312 C 0.23209 0.78727 0.82317 0.0
C1313 C 0.25531 0.80055 0.81023 0.0
C1314 C 0.27579 0.80002 0.82157 0.0
C1315 C 0.27307 0.78614 0.8458 0.0
H1316 H 0.25745 0.81129 0.79145 0.0
H1317 H 0.23023 0.67813 0.02838 0.0
H1318 H 0.51042 0.28829 0.20292 0.0
H1319 H 0.5096 0.26181 0.1641 0.0
H1320 H 0.50539 0.31176 0.10428 0.0
H1321 H 0.50657 0.33842 0.14281 0.0
H1322 H 0.47288 0.26152 0.09174 0.0
H1323 H 0.55891 0.3161 0.11255 0.0
H1324 H 0.59699 0.337 0.14129 0.0
H1325 H 0.58889 0.2663 0.16334 0.0
H1326 H 0.5506 0.24495 0.13493 0.0
H1327 H 0.50676 0.21552 0.96975 0.0
H1328 H 0.50342 0.24183 0.00617 0.0
H1329 H 0.51604 0.20026 0.07037 0.0
H1330 H 0.51979 0.17448 0.03442 0.0
H1331 H 0.54462 0.24817 0.07923 0.0
H1332 H 0.45794 0.19352 0.05797 0.0
H1333 H 0.42104 0.17338 0.0273 0.0
H1334 H 0.43082 0.24473 0.00509 0.0
H1335 H 0.46798 0.26532 0.03537 0.0
C1336 C 0.50909 0.29348 0.18152 0.0
C1337 C 0.50868 0.31548 0.17589 0.0
C1338 C 0.50873 0.27842 0.15937 0.0
C1339 C 0.50763 0.28495 0.13131 0.0
C1340 C 0.50626 0.3064 0.12575 0.0
C1341 C 0.507 0.32162 0.1478 0.0
C1342 C 0.50868 0.26988 0.10768 0.0
C1343 C 0.48865 0.25876 0.0888 0.0
C1344 C 0.52918 0.26618 0.104 0.0
C1345 C 0.55173 0.27891 0.12185 0.0
C1346 C 0.56507 0.30499 0.1238 0.0
C1347 C 0.58676 0.31692 0.13992 0.0
C1348 C 0.59535 0.30298 0.15412 0.0
C1349 C 0.58222 0.27707 0.15232 0.0
C1350 C 0.56054 0.26504 0.13619 0.0
C1351 C 0.50862 0.21194 0.99165 0.0
C1352 C 0.51362 0.193 0.99919 0.0
C1353 C 0.50665 0.22692 0.01245 0.0
C1354 C 0.50941 0.22299 0.04107 0.0
C1355 C 0.51396 0.20377 0.04848 0.0
C1356 C 0.51606 0.18899 0.02784 0.0
C1357 C 0.50855 0.23924 0.06352 0.0
C1358 C 0.52875 0.25078 0.08215 0.0
C1359 C 0.48822 0.24332 0.06689 0.0
C1360 C 0.4659 0.23097 0.04869 0.0
C1361 C 0.45234 0.20493 0.04636 0.0
C1362 C 0.43136 0.19343 0.02908 0.0
C1363 C 0.42363 0.20777 0.01418 0.0
C1364 C 0.43685 0.23364 0.0166 0.0
C1365 C 0.45786 0.24524 0.03383 0.0
H1366 H 0.40738 0.19883 1.00083 0.0
H1367 H 0.61221 0.31225 0.16649 0.0
loop_
_geom_bond_atom_site_label_1
_geom_bond_atom_site_label_2
_geom_bond_distance
_geom_bond_site_symmetry_2
_ccdc_geom_bond_type
Co0 O1 2.216 . S
Co0 O2 2.091 . S
Co0 O4 2.004 . S
Co0 O10 2.021 . S
Co0 O12 2.137 . S
Co0 O13 2.244 . S
O1 Co0 2.216 . S
O1 C8 1.247 . S
O2 Co0 2.091 . S
O2 C8 1.261 . S
C3 O12 1.247 . S
C3 O13 1.272 . S
O4 Co0 2.004 . S
O4 C9 1.259 . S
Co5 O6 2.061 . S
Co5 O11 2.052 . S
Co5 O13 2.135 . S
O6 Co5 2.061 . S
O6 C9 1.235 . S
C7 O10 1.238 . S
C7 O11 1.241 . S
C8 O1 1.247 . S
C8 O2 1.261 . S
C9 O4 1.259 . S
C9 O6 1.235 . S
O10 Co0 2.021 . S
O10 C7 1.238 . S
O11 Co5 2.052 . S
O11 C7 1.241 . S
O12 Co0 2.137 . S
O12 C3 1.247 . S
O13 Co0 2.244 . S
O13 C3 1.272 . S
O13 Co5 2.135 . S
Co14 O15 2.216 . S
Co14 O16 2.091 . S
Co14 O18 2.004 . S
Co14 O24 2.021 . S
Co14 O26 2.137 . S
Co14 O27 2.244 . S
O15 Co14 2.216 . S
O15 C22 1.247 . S
O16 Co14 2.091 . S
O16 C22 1.261 . S
C17 O26 1.247 . S
C17 O27 1.272 . S
O18 Co14 2.004 . S
O18 C23 1.259 . S
Co19 O20 2.061 . S
Co19 O25 2.052 . S
Co19 O27 2.135 . S
O20 Co19 2.061 . S
O20 C23 1.235 . S
C21 O24 1.238 . S
C21 O25 1.241 . S
C22 O15 1.247 . S
C22 O16 1.261 . S
C23 O18 1.259 . S
C23 O20 1.235 . S
O24 Co14 2.021 . S
O24 C21 1.238 . S
O25 Co19 2.052 . S
O25 C21 1.241 . S
O26 Co14 2.137 . S
O26 C17 1.247 . S
O27 Co14 2.244 . S
O27 C17 1.272 . S
O27 Co19 2.135 . S
Co28 O29 2.216 . S
Co28 O30 2.091 . S
Co28 O32 2.004 . S
Co28 O38 2.021 . S
Co28 O40 2.137 . S
Co28 O41 2.244 . S
O29 Co28 2.216 . S
O29 C36 1.247 . S
O30 Co28 2.091 . S
O30 C36 1.261 . S
C31 O40 1.247 . S
C31 O41 1.272 . S
O32 Co28 2.004 . S
O32 C37 1.259 . S
Co33 O34 2.061 . S
Co33 O39 2.052 . S
Co33 O41 2.135 . S
O34 Co33 2.061 . S
O34 C37 1.235 . S
C35 O38 1.238 . S
C35 O39 1.241 . S
C36 O29 1.247 . S
C36 O30 1.261 . S
C37 O32 1.259 . S
C37 O34 1.235 . S
O38 Co28 2.021 . S
O38 C35 1.238 . S
O39 Co33 2.052 . S
O39 C35 1.241 . S
O40 Co28 2.137 . S
O40 C31 1.247 . S
O41 Co28 2.244 . S
O41 C31 1.272 . S
O41 Co33 2.135 . S
Co42 O43 2.216 . S
Co42 O44 2.091 . S
Co42 O46 2.004 . S
Co42 O52 2.021 . S
Co42 O54 2.137 . S
Co42 O55 2.244 . S
O43 Co42 2.216 . S
O43 C50 1.247 . S
O44 Co42 2.091 . S
O44 C50 1.261 . S
C45 O54 1.247 . S
C45 O55 1.272 . S
O46 Co42 2.004 . S
O46 C51 1.259 . S
Co47 O48 2.061 . S
Co47 O53 2.052 . S
Co47 O55 2.135 . S
O48 Co47 2.061 . S
O48 C51 1.235 . S
C49 O52 1.238 . S
C49 O53 1.241 . S
C50 O43 1.247 . S
C50 O44 1.261 . S
C51 O46 1.259 . S
C51 O48 1.235 . S
O52 Co42 2.021 . S
O52 C49 1.238 . S
O53 Co47 2.052 . S
O53 C49 1.241 . S
O54 Co42 2.137 . S
O54 C45 1.247 . S
O55 Co42 2.244 . S
O55 C45 1.272 . S
O55 Co47 2.135 . S
Co56 O57 2.216 . S
Co56 O58 2.091 . S
Co56 O60 2.004 . S
Co56 O66 2.021 . S
Co56 O68 2.137 . S
Co56 O69 2.244 . S
O57 Co56 2.216 . S
O57 C64 1.247 . S
O58 Co56 2.091 . S
O58 C64 1.261 . S
C59 O68 1.247 . S
C59 O69 1.272 . S
O60 Co56 2.004 . S
O60 C65 1.259 . S
Co61 O62 2.061 . S
Co61 O67 2.052 . S
Co61 O69 2.135 . S
O62 Co61 2.061 . S
O62 C65 1.235 . S
C63 O66 1.238 . S
C63 O67 1.241 . S
C64 O57 1.247 . S
C64 O58 1.261 . S
C65 O60 1.259 . S
C65 O62 1.235 . S
O66 Co56 2.021 . S
O66 C63 1.238 . S
O67 Co61 2.052 . S
O67 C63 1.241 . S
O68 Co56 2.137 . S
O68 C59 1.247 . S
O69 Co56 2.244 . S
O69 C59 1.272 . S
O69 Co61 2.135 . S
Co70 O71 2.216 . S
Co70 O72 2.091 . S
Co70 O74 2.004 . S
Co70 O80 2.021 . S
Co70 O82 2.137 . S
Co70 O83 2.244 . S
O71 Co70 2.216 . S
O71 C78 1.247 . S
O72 Co70 2.091 . S
O72 C78 1.261 . S
C73 O82 1.247 . S
C73 O83 1.272 . S
O74 Co70 2.004 . S
O74 C79 1.259 . S
Co75 O76 2.061 . S
Co75 O81 2.052 . S
Co75 O83 2.135 . S
O76 Co75 2.061 . S
O76 C79 1.235 . S
C77 O80 1.238 . S
C77 O81 1.241 . S
C78 O71 1.247 . S
C78 O72 1.261 . S
C79 O74 1.259 . S
C79 O76 1.235 . S
O80 Co70 2.021 . S
O80 C77 1.238 . S
O81 Co75 2.052 . S
O81 C77 1.241 . S
O82 Co70 2.137 . S
O82 C73 1.247 . S
O83 Co70 2.244 . S
O83 C73 1.272 . S
O83 Co75 2.135 . S
Co84 O85 2.216 . S
Co84 O86 2.091 . S
Co84 O88 2.004 . S
Co84 O94 2.021 . S
Co84 O96 2.137 . S
Co84 O97 2.244 . S
O85 Co84 2.216 . S
O85 C92 1.247 . S
O86 Co84 2.091 . S
O86 C92 1.261 . S
C87 O96 1.247 . S
C87 O97 1.272 . S
O88 Co84 2.004 . S
O88 C93 1.259 . S
Co89 O90 2.061 . S
Co89 O95 2.052 . S
Co89 O97 2.135 . S
O90 Co89 2.061 . S
O90 C93 1.235 . S
C91 O94 1.238 . S
C91 O95 1.241 . S
C92 O85 1.247 . S
C92 O86 1.261 . S
C93 O88 1.259 . S
C93 O90 1.235 . S
O94 Co84 2.021 . S
O94 C91 1.238 . S
O95 Co89 2.052 . S
O95 C91 1.241 . S
O96 Co84 2.137 . S
O96 C87 1.247 . S
O97 Co84 2.244 . S
O97 C87 1.272 . S
O97 Co89 2.135 . S
Co98 O99 2.216 . S
Co98 O100 2.091 . S
Co98 O102 2.004 . S
Co98 O108 2.021 . S
Co98 O110 2.137 . S
Co98 O111 2.244 . S
O99 Co98 2.216 . S
O99 C106 1.247 . S
O100 Co98 2.091 . S
O100 C106 1.261 . S
C101 O110 1.247 . S
C101 O111 1.272 . S
O102 Co98 2.004 . S
O102 C107 1.259 . S
Co103 O104 2.061 . S
Co103 O109 2.052 . S
Co103 O111 2.135 . S
O104 Co103 2.061 . S
O104 C107 1.235 . S
C105 O108 1.238 . S
C105 O109 1.241 . S
C106 O99 1.247 . S
C106 O100 1.261 . S
C107 O102 1.259 . S
C107 O104 1.235 . S
O108 Co98 2.021 . S
O108 C105 1.238 . S
O109 Co103 2.052 . S
O109 C105 1.241 . S
O110 Co98 2.137 . S
O110 C101 1.247 . S
O111 Co98 2.244 . S
O111 C101 1.272 . S
O111 Co103 2.135 . S
Co112 O113 2.216 . S
Co112 O114 2.091 . S
Co112 O116 2.004 . S
Co112 O122 2.021 . S
Co112 O124 2.137 . S
Co112 O125 2.244 . S
O113 Co112 2.216 . S
O113 C120 1.247 . S
O114 Co112 2.091 . S
O114 C120 1.261 . S
C115 O124 1.247 . S
C115 O125 1.272 . S
O116 Co112 2.004 . S
O116 C121 1.259 . S
Co117 O118 2.061 . S
Co117 O123 2.052 . S
Co117 O125 2.135 . S
O118 Co117 2.061 . S
O118 C121 1.235 . S
C119 O122 1.238 . S
C119 O123 1.241 . S
C120 O113 1.247 . S
C120 O114 1.261 . S
C121 O116 1.259 . S
C121 O118 1.235 . S
O122 Co112 2.021 . S
O122 C119 1.238 . S
O123 Co117 2.052 . S
O123 C119 1.241 . S
O124 Co112 2.137 . S
O124 C115 1.247 . S
O125 Co112 2.244 . S
O125 C115 1.272 . S
O125 Co117 2.135 . S
Co126 O127 2.216 . S
Co126 O128 2.091 . S
Co126 O130 2.004 . S
Co126 O136 2.021 . S
Co126 O138 2.137 . S
Co126 O139 2.244 . S
O127 Co126 2.216 . S
O127 C134 1.247 . S
O128 Co126 2.091 . S
O128 C134 1.261 . S
C129 O138 1.247 . S
C129 O139 1.272 . S
O130 Co126 2.004 . S
O130 C135 1.259 . S
Co131 O132 2.061 . S
Co131 O137 2.052 . S
Co131 O139 2.135 . S
O132 Co131 2.061 . S
O132 C135 1.235 . S
C133 O136 1.238 . S
C133 O137 1.241 . S
C134 O127 1.247 . S
C134 O128 1.261 . S
C135 O130 1.259 . S
C135 O132 1.235 . S
O136 Co126 2.021 . S
O136 C133 1.238 . S
O137 Co131 2.052 . S
O137 C133 1.241 . S
O138 Co126 2.137 . S
O138 C129 1.247 . S
O139 Co126 2.244 . S
O139 C129 1.272 . S
O139 Co131 2.135 . S
Co140 O141 2.216 . S
Co140 O142 2.091 . S
Co140 O144 2.004 . S
Co140 O150 2.021 . S
Co140 O152 2.137 . S
Co140 O153 2.244 . S
O141 Co140 2.216 . S
O141 C148 1.247 . S
O142 Co140 2.091 . S
O142 C148 1.261 . S
C143 O152 1.247 . S
C143 O153 1.272 . S
O144 Co140 2.004 . S
O144 C149 1.259 . S
Co145 O146 2.061 . S
Co145 O151 2.052 . S
Co145 O153 2.135 . S
O146 Co145 2.061 . S
O146 C149 1.235 . S
C147 O150 1.238 . S
C147 O151 1.241 . S
C148 O141 1.247 . S
C148 O142 1.261 . S
C149 O144 1.259 . S
C149 O146 1.235 . S
O150 Co140 2.021 . S
O150 C147 1.238 . S
O151 Co145 2.052 . S
O151 C147 1.241 . S
O152 Co140 2.137 . S
O152 C143 1.247 . S
O153 Co140 2.244 . S
O153 C143 1.272 . S
O153 Co145 2.135 . S
Co154 O155 2.216 . S
Co154 O156 2.091 . S
Co154 O158 2.004 . S
Co154 O164 2.021 . S
Co154 O166 2.137 . S
Co154 O167 2.244 . S
O155 Co154 2.216 . S
O155 C162 1.247 . S
O156 Co154 2.091 . S
O156 C162 1.261 . S
C157 O166 1.247 . S
C157 O167 1.272 . S
O158 Co154 2.004 . S
O158 C163 1.259 . S
Co159 O160 2.061 . S
Co159 O165 2.052 . S
Co159 O167 2.135 . S
O160 Co159 2.061 . S
O160 C163 1.235 . S
C161 O164 1.238 . S
C161 O165 1.241 . S
C162 O155 1.247 . S
C162 O156 1.261 . S
C163 O158 1.259 . S
C163 O160 1.235 . S
O164 Co154 2.021 . S
O164 C161 1.238 . S
O165 Co159 2.052 . S
O165 C161 1.241 . S
O166 Co154 2.137 . S
O166 C157 1.247 . S
O167 Co154 2.244 . S
O167 C157 1.272 . S
O167 Co159 2.135 . S
H168 C186 0.951 . S
H169 C188 0.951 . S
H170 C190 0.950 . S
H171 C191 0.950 . S
H172 C193 0.950 . S
H173 C196 0.950 . S
H174 C197 0.950 . S
H175 C199 0.950 . S
H176 C200 0.950 . S
H177 C201 0.951 . S
H178 C203 0.951 . S
H179 C205 0.950 . S
H180 C206 0.950 . S
H181 C208 0.950 . S
H182 C211 0.950 . S
H183 C212 0.950 . S
H184 C214 0.950 . S
H185 C215 0.950 . S
C186 H168 0.951 . S
C186 C187 1.366 . S
C186 C188 1.388 . S
C187 C186 1.366 . S
C187 C191 1.385 . S
C188 H169 0.951 . S
C188 C186 1.388 . S
C188 C189 1.366 . S
C189 C188 1.366 . S
C189 C190 1.414 . S
C189 C192 1.499 . S
C190 H170 0.950 . S
C190 C189 1.414 . S
C190 C191 1.374 . S
C191 H171 0.950 . S
C191 C187 1.385 . S
C191 C190 1.374 . S
C192 C189 1.499 . S
C192 C193 1.373 . S
C192 C194 1.389 . S
C193 H172 0.950 . S
C193 C192 1.373 . S
C193 C209 1.377 . S
C194 C192 1.389 . S
C194 C195 1.524 . S
C194 C208 1.377 . S
C195 C194 1.524 . S
C195 C196 1.397 . S
C195 C200 1.363 . S
C196 H173 0.950 . S
C196 C195 1.397 . S
C196 C197 1.334 . S
C197 H174 0.950 . S
C197 C196 1.334 . S
C197 C198 1.287 . S
C198 C197 1.287 . S
C198 C199 1.524 . S
C198 H217 0.913 . S
C199 H175 0.950 . S
C199 C198 1.524 . S
C199 C200 1.415 . S
C200 H176 0.950 . S
C200 C195 1.363 . S
C200 C199 1.415 . S
C201 H177 0.951 . S
C201 C202 1.366 . S
C201 C203 1.388 . S
C202 C201 1.366 . S
C202 C206 1.385 . S
C203 H178 0.951 . S
C203 C201 1.388 . S
C203 C204 1.366 . S
C204 C203 1.366 . S
C204 C205 1.414 . S
C204 C207 1.499 . S
C205 H179 0.950 . S
C205 C204 1.414 . S
C205 C206 1.374 . S
C206 H180 0.950 . S
C206 C202 1.385 . S
C206 C205 1.374 . S
C207 C204 1.499 . S
C207 C208 1.373 . S
C207 C209 1.389 . S
C208 H181 0.950 . S
C208 C194 1.377 . S
C208 C207 1.373 . S
C209 C193 1.377 . S
C209 C207 1.389 . S
C209 C210 1.524 . S
C210 C209 1.524 . S
C210 C211 1.397 . S
C210 C215 1.363 . S
C211 H182 0.950 . S
C211 C210 1.397 . S
C211 C212 1.334 . S
C212 H183 0.950 . S
C212 C211 1.334 . S
C212 C213 1.287 . S
C213 C212 1.287 . S
C213 C214 1.524 . S
C213 H216 0.999 . S
C214 H184 0.950 . S
C214 C213 1.524 . S
C214 C215 1.415 . S
C215 H185 0.950 . S
C215 C210 1.363 . S
C215 C214 1.415 . S
H216 C213 0.999 . S
H217 C198 0.913 . S
H218 C236 0.951 . S
H219 C238 0.951 . S
H220 C240 0.950 . S
H221 C241 0.950 . S
H222 C243 0.950 . S
H223 C246 0.950 . S
H224 C247 0.950 . S
H225 C249 0.950 . S
H226 C250 0.950 . S
H227 C251 0.951 . S
H228 C253 0.951 . S
H229 C255 0.950 . S
H230 C256 0.950 . S
H231 C258 0.950 . S
H232 C261 0.950 . S
H233 C262 0.950 . S
H234 C264 0.950 . S
H235 C265 0.950 . S
C236 H218 0.951 . S
C236 C237 1.366 . S
C236 C238 1.388 . S
C237 C236 1.366 . S
C237 C241 1.385 . S
C238 H219 0.951 . S
C238 C236 1.388 . S
C238 C239 1.366 . S
C239 C238 1.366 . S
C239 C240 1.414 . S
C239 C242 1.499 . S
C240 H220 0.950 . S
C240 C239 1.414 . S
C240 C241 1.374 . S
C241 H221 0.950 . S
C241 C237 1.385 . S
C241 C240 1.374 . S
C242 C239 1.499 . S
C242 C243 1.373 . S
C242 C244 1.389 . S
C243 H222 0.950 . S
C243 C242 1.373 . S
C243 C259 1.377 . S
C244 C242 1.389 . S
C244 C245 1.524 . S
C244 C258 1.377 . S
C245 C244 1.524 . S
C245 C246 1.397 . S
C245 C250 1.363 . S
C246 H223 0.950 . S
C246 C245 1.397 . S
C246 C247 1.334 . S
C247 H224 0.950 . S
C247 C246 1.334 . S
C247 C248 1.287 . S
C248 C247 1.287 . S
C248 C249 1.524 . S
C248 H267 0.913 . S
C249 H225 0.950 . S
C249 C248 1.524 . S
C249 C250 1.415 . S
C250 H226 0.950 . S
C250 C245 1.363 . S
C250 C249 1.415 . S
C251 H227 0.951 . S
C251 C252 1.366 . S
C251 C253 1.388 . S
C252 C251 1.366 . S
C252 C256 1.385 . S
C253 H228 0.951 . S
C253 C251 1.388 . S
C253 C254 1.366 . S
C254 C253 1.366 . S
C254 C255 1.414 . S
C254 C257 1.499 . S
C255 H229 0.950 . S
C255 C254 1.414 . S
C255 C256 1.374 . S
C256 H230 0.950 . S
C256 C252 1.385 . S
C256 C255 1.374 . S
C257 C254 1.499 . S
C257 C258 1.373 . S
C257 C259 1.389 . S
C258 H231 0.950 . S
C258 C244 1.377 . S
C258 C257 1.373 . S
C259 C243 1.377 . S
C259 C257 1.389 . S
C259 C260 1.524 . S
C260 C259 1.524 . S
C260 C261 1.397 . S
C260 C265 1.363 . S
C261 H232 0.950 . S
C261 C260 1.397 . S
C261 C262 1.334 . S
C262 H233 0.950 . S
C262 C261 1.334 . S
C262 C263 1.287 . S
C263 C262 1.287 . S
C263 C264 1.524 . S
C263 H266 0.999 . S
C264 H234 0.950 . S
C264 C263 1.524 . S
C264 C265 1.415 . S
C265 H235 0.950 . S
C265 C260 1.363 . S
C265 C264 1.415 . S
H266 C263 0.999 . S
H267 C248 0.913 . S
H268 C286 0.951 . S
H269 C288 0.951 . S
H270 C290 0.950 . S
H271 C291 0.950 . S
H272 C293 0.950 . S
H273 C296 0.950 . S
H274 C297 0.950 . S
H275 C299 0.950 . S
H276 C300 0.950 . S
H277 C301 0.951 . S
H278 C303 0.951 . S
H279 C305 0.950 . S
H280 C306 0.950 . S
H281 C308 0.950 . S
H282 C311 0.950 . S
H283 C312 0.950 . S
H284 C314 0.950 . S
H285 C315 0.950 . S
C286 H268 0.951 . S
C286 C287 1.366 . S
C286 C288 1.388 . S
C287 C286 1.366 . S
C287 C291 1.385 . S
C288 H269 0.951 . S
C288 C286 1.388 . S
C288 C289 1.366 . S
C289 C288 1.366 . S
C289 C290 1.414 . S
C289 C292 1.499 . S
C290 H270 0.950 . S
C290 C289 1.414 . S
C290 C291 1.374 . S
C291 H271 0.950 . S
C291 C287 1.385 . S
C291 C290 1.374 . S
C292 C289 1.499 . S
C292 C293 1.373 . S
C292 C294 1.389 . S
C293 H272 0.950 . S
C293 C292 1.373 . S
C293 C309 1.377 . S
C294 C292 1.389 . S
C294 C295 1.524 . S
C294 C308 1.377 . S
C295 C294 1.524 . S
C295 C296 1.397 . S
C295 C300 1.363 . S
C296 H273 0.950 . S
C296 C295 1.397 . S
C296 C297 1.334 . S
C297 H274 0.950 . S
C297 C296 1.334 . S
C297 C298 1.287 . S
C298 C297 1.287 . S
C298 C299 1.524 . S
C298 H317 0.913 . S
C299 H275 0.950 . S
C299 C298 1.524 . S
C299 C300 1.415 . S
C300 H276 0.950 . S
C300 C295 1.363 . S
C300 C299 1.415 . S
C301 H277 0.951 . S
C301 C302 1.366 . S
C301 C303 1.388 . S
C302 C301 1.366 . S
C302 C306 1.385 . S
C303 H278 0.951 . S
C303 C301 1.388 . S
C303 C304 1.366 . S
C304 C303 1.366 . S
C304 C305 1.414 . S
C304 C307 1.499 . S
C305 H279 0.950 . S
C305 C304 1.414 . S
C305 C306 1.374 . S
C306 H280 0.950 . S
C306 C302 1.385 . S
C306 C305 1.374 . S
C307 C304 1.499 . S
C307 C308 1.373 . S
C307 C309 1.389 . S
C308 H281 0.950 . S
C308 C294 1.377 . S
C308 C307 1.373 . S
C309 C293 1.377 . S
C309 C307 1.389 . S
C309 C310 1.524 . S
C310 C309 1.524 . S
C310 C311 1.397 . S
C310 C315 1.363 . S
C311 H282 0.950 . S
C311 C310 1.397 . S
C311 C312 1.334 . S
C312 H283 0.950 . S
C312 C311 1.334 . S
C312 C313 1.287 . S
C313 C312 1.287 . S
C313 C314 1.524 . S
C313 H316 0.999 . S
C314 H284 0.950 . S
C314 C313 1.524 . S
C314 C315 1.415 . S
C315 H285 0.950 . S
C315 C310 1.363 . S
C315 C314 1.415 . S
H316 C313 0.999 . S
H317 C298 0.913 . S
H318 C336 0.951 . S
H319 C338 0.951 . S
H320 C340 0.950 . S
H321 C341 0.950 . S
H322 C343 0.950 . S
H323 C346 0.950 . S
H324 C347 0.950 . S
H325 C349 0.950 . S
H326 C350 0.950 . S
H327 C351 0.951 . S
H328 C353 0.951 . S
H329 C355 0.950 . S
H330 C356 0.950 . S
H331 C358 0.950 . S
H332 C361 0.950 . S
H333 C362 0.950 . S
H334 C364 0.950 1_554 S
H335 C365 0.950 . S
C336 H318 0.951 . S
C336 C337 1.366 . S
C336 C338 1.388 . S
C337 C336 1.366 . S
C337 C341 1.385 . S
C338 H319 0.951 . S
C338 C336 1.388 . S
C338 C339 1.366 . S
C339 C338 1.366 . S
C339 C340 1.414 . S
C339 C342 1.499 . S
C340 H320 0.950 . S
C340 C339 1.414 . S
C340 C341 1.374 . S
C341 H321 0.950 . S
C341 C337 1.385 . S
C341 C340 1.374 . S
C342 C339 1.499 . S
C342 C343 1.373 . S
C342 C344 1.389 . S
C343 H322 0.950 . S
C343 C342 1.373 . S
C343 C359 1.377 . S
C344 C342 1.389 . S
C344 C345 1.524 . S
C344 C358 1.377 . S
C345 C344 1.524 . S
C345 C346 1.397 . S
C345 C350 1.363 . S
C346 H323 0.950 . S
C346 C345 1.397 . S
C346 C347 1.334 . S
C347 H324 0.950 . S
C347 C346 1.334 . S
C347 C348 1.287 . S
C348 C347 1.287 . S
C348 C349 1.524 . S
C348 H367 0.913 . S
C349 H325 0.950 . S
C349 C348 1.524 . S
C349 C350 1.415 . S
C350 H326 0.950 . S
C350 C345 1.363 . S
C350 C349 1.415 . S
C351 H327 0.951 . S
C351 C352 1.366 . S
C351 C353 1.388 . S
C352 C351 1.366 . S
C352 C356 1.385 . S
C353 H328 0.951 . S
C353 C351 1.388 . S
C353 C354 1.366 . S
C354 C353 1.366 . S
C354 C355 1.414 . S
C354 C357 1.499 . S
C355 H329 0.950 . S
C355 C354 1.414 . S
C355 C356 1.374 . S
C356 H330 0.950 . S
C356 C352 1.385 . S
C356 C355 1.374 . S
C357 C354 1.499 . S
C357 C358 1.373 . S
C357 C359 1.389 . S
C358 H331 0.950 . S
C358 C344 1.377 . S
C358 C357 1.373 . S
C359 C343 1.377 . S
C359 C357 1.389 . S
C359 C360 1.524 . S
C360 C359 1.524 . S
C360 C361 1.397 . S
C360 C365 1.363 . S
C361 H332 0.950 . S
C361 C360 1.397 . S
C361 C362 1.334 . S
C362 H333 0.950 . S
C362 C361 1.334 . S
C362 C363 1.287 . S
C363 C362 1.287 . S
C363 C364 1.524 . S
C363 H366 0.999 . S
C364 H334 0.950 1_556 S
C364 C363 1.524 . S
C364 C365 1.415 . S
C365 H335 0.950 . S
C365 C360 1.363 . S
C365 C364 1.415 . S
H366 C363 0.999 . S
H367 C348 0.913 . S
H368 C386 0.951 . S
H369 C388 0.951 . S
H370 C390 0.950 . S
H371 C391 0.950 . S
H372 C393 0.950 . S
H373 C396 0.950 . S
H374 C397 0.950 . S
H375 C399 0.950 . S
H376 C400 0.950 . S
H377 C401 0.951 . S
H378 C403 0.951 . S
H379 C405 0.950 . S
H380 C406 0.950 . S
H381 C408 0.950 . S
H382 C411 0.950 . S
H383 C412 0.950 1_556 S
H384 C414 0.950 . S
H385 C415 0.950 . S
C386 H368 0.951 . S
C386 C387 1.366 . S
C386 C388 1.388 . S
C387 C386 1.366 . S
C387 C391 1.385 . S
C388 H369 0.951 . S
C388 C386 1.388 . S
C388 C389 1.366 . S
C389 C388 1.366 . S
C389 C390 1.414 . S
C389 C392 1.499 . S
C390 H370 0.950 . S
C390 C389 1.414 . S
C390 C391 1.374 . S
C391 H371 0.950 . S
C391 C387 1.385 . S
C391 C390 1.374 . S
C392 C389 1.499 . S
C392 C393 1.373 . S
C392 C394 1.389 . S
C393 H372 0.950 . S
C393 C392 1.373 . S
C393 C409 1.377 . S
C394 C392 1.389 . S
C394 C395 1.524 . S
C394 C408 1.377 . S
C395 C394 1.524 . S
C395 C396 1.397 . S
C395 C400 1.363 . S
C396 H373 0.950 . S
C396 C395 1.397 . S
C396 C397 1.334 . S
C397 H374 0.950 . S
C397 C396 1.334 . S
C397 C398 1.287 . S
C398 C397 1.287 . S
C398 C399 1.524 . S
C398 H417 0.913 . S
C399 H375 0.950 . S
C399 C398 1.524 . S
C399 C400 1.415 . S
C400 H376 0.950 . S
C400 C395 1.363 . S
C400 C399 1.415 . S
C401 H377 0.951 . S
C401 C402 1.366 . S
C401 C403 1.388 . S
C402 C401 1.366 . S
C402 C406 1.385 . S
C403 H378 0.951 . S
C403 C401 1.388 . S
C403 C404 1.366 . S
C404 C403 1.366 . S
C404 C405 1.414 . S
C404 C407 1.499 . S
C405 H379 0.950 . S
C405 C404 1.414 . S
C405 C406 1.374 . S
C406 H380 0.950 . S
C406 C402 1.385 . S
C406 C405 1.374 . S
C407 C404 1.499 . S
C407 C408 1.373 . S
C407 C409 1.389 . S
C408 H381 0.950 . S
C408 C394 1.377 . S
C408 C407 1.373 . S
C409 C393 1.377 . S
C409 C407 1.389 . S
C409 C410 1.524 . S
C410 C409 1.524 . S
C410 C411 1.397 . S
C410 C415 1.363 . S
C411 H382 0.950 . S
C411 C410 1.397 . S
C411 C412 1.334 . S
C412 H383 0.950 1_554 S
C412 C411 1.334 . S
C412 C413 1.287 1_554 S
C413 C412 1.287 1_556 S
C413 C414 1.524 . S
C413 H416 0.999 . S
C414 H384 0.950 . S
C414 C413 1.524 . S
C414 C415 1.415 1_556 S
C415 H385 0.950 . S
C415 C410 1.363 . S
C415 C414 1.415 1_554 S
H416 C413 0.999 . S
H417 C398 0.913 . S
H418 C436 0.951 . S
H419 C438 0.951 . S
H420 C440 0.950 . S
H421 C441 0.950 . S
H422 C443 0.950 . S
H423 C446 0.950 . S
H424 C447 0.950 . S
H425 C449 0.950 . S
H426 C450 0.950 . S
H427 C451 0.951 . S
H428 C453 0.951 . S
H429 C455 0.950 . S
H430 C456 0.950 . S
H431 C458 0.950 . S
H432 C461 0.950 . S
H433 C462 0.950 . S
H434 C464 0.950 . S
H435 C465 0.950 . S
C436 H418 0.951 . S
C436 C437 1.366 . S
C436 C438 1.388 . S
C437 C436 1.366 . S
C437 C441 1.385 . S
C438 H419 0.951 . S
C438 C436 1.388 . S
C438 C439 1.366 . S
C439 C438 1.366 . S
C439 C440 1.414 . S
C439 C442 1.499 . S
C440 H420 0.950 . S
C440 C439 1.414 . S
C440 C441 1.374 . S
C441 H421 0.950 . S
C441 C437 1.385 . S
C441 C440 1.374 . S
C442 C439 1.499 . S
C442 C443 1.373 . S
C442 C444 1.389 . S
C443 H422 0.950 . S
C443 C442 1.373 . S
C443 C459 1.377 . S
C444 C442 1.389 . S
C444 C445 1.524 . S
C444 C458 1.377 . S
C445 C444 1.524 . S
C445 C446 1.397 . S
C445 C450 1.363 . S
C446 H423 0.950 . S
C446 C445 1.397 . S
C446 C447 1.334 . S
C447 H424 0.950 . S
C447 C446 1.334 . S
C447 C448 1.287 . S
C448 C447 1.287 . S
C448 C449 1.524 . S
C448 H467 0.913 . S
C449 H425 0.950 . S
C449 C448 1.524 . S
C449 C450 1.415 . S
C450 H426 0.950 . S
C450 C445 1.363 . S
C450 C449 1.415 . S
C451 H427 0.951 . S
C451 C452 1.366 . S
C451 C453 1.388 . S
C452 C451 1.366 . S
C452 C456 1.385 . S
C453 H428 0.951 . S
C453 C451 1.388 . S
C453 C454 1.366 . S
C454 C453 1.366 . S
C454 C455 1.414 . S
C454 C457 1.499 . S
C455 H429 0.950 . S
C455 C454 1.414 . S
C455 C456 1.374 . S
C456 H430 0.950 . S
C456 C452 1.385 . S
C456 C455 1.374 . S
C457 C454 1.499 . S
C457 C458 1.373 . S
C457 C459 1.389 . S
C458 H431 0.950 . S
C458 C444 1.377 . S
C458 C457 1.373 . S
C459 C443 1.377 . S
C459 C457 1.389 . S
C459 C460 1.524 . S
C460 C459 1.524 . S
C460 C461 1.397 . S
C460 C465 1.363 . S
C461 H432 0.950 . S
C461 C460 1.397 . S
C461 C462 1.334 . S
C462 H433 0.950 . S
C462 C461 1.334 . S
C462 C463 1.287 . S
C463 C462 1.287 . S
C463 C464 1.524 . S
C463 H466 0.999 . S
C464 H434 0.950 . S
C464 C463 1.524 . S
C464 C465 1.415 . S
C465 H435 0.950 . S
C465 C460 1.363 . S
C465 C464 1.415 . S
H466 C463 0.999 . S
H467 C448 0.913 . S
H468 C486 0.951 . S
H469 C488 0.951 . S
H470 C490 0.950 . S
H471 C491 0.950 . S
H472 C493 0.950 . S
H473 C496 0.950 . S
H474 C497 0.950 . S
H475 C499 0.950 . S
H476 C500 0.950 . S
H477 C501 0.951 . S
H478 C503 0.951 . S
H479 C505 0.950 . S
H480 C506 0.950 . S
H481 C508 0.950 . S
H482 C511 0.950 . S
H483 C512 0.950 . S
H484 C514 0.950 . S
H485 C515 0.950 . S
C486 H468 0.951 . S
C486 C487 1.366 . S
C486 C488 1.388 . S
C487 C486 1.366 . S
C487 C491 1.385 . S
C488 H469 0.951 . S
C488 C486 1.388 . S
C488 C489 1.366 . S
C489 C488 1.366 . S
C489 C490 1.414 . S
C489 C492 1.499 . S
C490 H470 0.950 . S
C490 C489 1.414 . S
C490 C491 1.374 . S
C491 H471 0.950 . S
C491 C487 1.385 . S
C491 C490 1.374 . S
C492 C489 1.499 . S
C492 C493 1.373 . S
C492 C494 1.389 . S
C493 H472 0.950 . S
C493 C492 1.373 . S
C493 C509 1.377 . S
C494 C492 1.389 . S
C494 C495 1.524 . S
C494 C508 1.377 . S
C495 C494 1.524 . S
C495 C496 1.397 . S
C495 C500 1.363 . S
C496 H473 0.950 . S
C496 C495 1.397 . S
C496 C497 1.334 . S
C497 H474 0.950 . S
C497 C496 1.334 . S
C497 C498 1.287 . S
C498 C497 1.287 . S
C498 C499 1.524 . S
C498 H517 0.913 . S
C499 H475 0.950 . S
C499 C498 1.524 . S
C499 C500 1.415 . S
C500 H476 0.950 . S
C500 C495 1.363 . S
C500 C499 1.415 . S
C501 H477 0.951 . S
C501 C502 1.366 . S
C501 C503 1.388 . S
C502 C501 1.366 . S
C502 C506 1.385 . S
C503 H478 0.951 . S
C503 C501 1.388 . S
C503 C504 1.366 . S
C504 C503 1.366 . S
C504 C505 1.414 . S
C504 C507 1.499 . S
C505 H479 0.950 . S
C505 C504 1.414 . S
C505 C506 1.374 . S
C506 H480 0.950 . S
C506 C502 1.385 . S
C506 C505 1.374 . S
C507 C504 1.499 . S
C507 C508 1.373 . S
C507 C509 1.389 . S
C508 H481 0.950 . S
C508 C494 1.377 . S
C508 C507 1.373 . S
C509 C493 1.377 . S
C509 C507 1.389 . S
C509 C510 1.524 . S
C510 C509 1.524 . S
C510 C511 1.397 . S
C510 C515 1.363 . S
C511 H482 0.950 . S
C511 C510 1.397 . S
C511 C512 1.334 . S
C512 H483 0.950 . S
C512 C511 1.334 . S
C512 C513 1.287 . S
C513 C512 1.287 . S
C513 C514 1.524 . S
C513 H516 0.999 . S
C514 H484 0.950 . S
C514 C513 1.524 . S
C514 C515 1.415 . S
C515 H485 0.950 . S
C515 C510 1.363 . S
C515 C514 1.415 . S
H516 C513 0.999 . S
H517 C498 0.913 . S
H518 C536 0.951 . S
H519 C538 0.951 . S
H520 C540 0.950 . S
H521 C541 0.950 . S
H522 C543 0.950 . S
H523 C546 0.950 . S
H524 C547 0.950 . S
H525 C549 0.950 . S
H526 C550 0.950 . S
H527 C551 0.951 . S
H528 C553 0.951 . S
H529 C555 0.950 . S
H530 C556 0.950 . S
H531 C558 0.950 . S
H532 C561 0.950 . S
H533 C562 0.950 . S
H534 C564 0.950 . S
H535 C565 0.950 . S
C536 H518 0.951 . S
C536 C537 1.366 . S
C536 C538 1.388 . S
C537 C536 1.366 . S
C537 C541 1.385 . S
C538 H519 0.951 . S
C538 C536 1.388 . S
C538 C539 1.366 . S
C539 C538 1.366 . S
C539 C540 1.414 . S
C539 C542 1.499 . S
C540 H520 0.950 . S
C540 C539 1.414 . S
C540 C541 1.374 . S
C541 H521 0.950 . S
C541 C537 1.385 . S
C541 C540 1.374 . S
C542 C539 1.499 . S
C542 C543 1.373 . S
C542 C544 1.389 . S
C543 H522 0.950 . S
C543 C542 1.373 . S
C543 C559 1.377 . S
C544 C542 1.389 . S
C544 C545 1.524 . S
C544 C558 1.377 . S
C545 C544 1.524 . S
C545 C546 1.397 . S
C545 C550 1.363 . S
C546 H523 0.950 . S
C546 C545 1.397 . S
C546 C547 1.334 . S
C547 H524 0.950 . S
C547 C546 1.334 . S
C547 C548 1.287 . S
C548 C547 1.287 . S
C548 C549 1.524 . S
C548 H567 0.913 . S
C549 H525 0.950 . S
C549 C548 1.524 . S
C549 C550 1.415 . S
C550 H526 0.950 . S
C550 C545 1.363 . S
C550 C549 1.415 . S
C551 H527 0.951 . S
C551 C552 1.366 . S
C551 C553 1.388 . S
C552 C551 1.366 . S
C552 C556 1.385 . S
C553 H528 0.951 . S
C553 C551 1.388 . S
C553 C554 1.366 . S
C554 C553 1.366 . S
C554 C555 1.414 . S
C554 C557 1.499 . S
C555 H529 0.950 . S
C555 C554 1.414 . S
C555 C556 1.374 . S
C556 H530 0.950 . S
C556 C552 1.385 . S
C556 C555 1.374 . S
C557 C554 1.499 . S
C557 C558 1.373 . S
C557 C559 1.389 . S
C558 H531 0.950 . S
C558 C544 1.377 . S
C558 C557 1.373 . S
C559 C543 1.377 . S
C559 C557 1.389 . S
C559 C560 1.524 . S
C560 C559 1.524 . S
C560 C561 1.397 . S
C560 C565 1.363 . S
C561 H532 0.950 . S
C561 C560 1.397 . S
C561 C562 1.334 . S
C562 H533 0.950 . S
C562 C561 1.334 . S
C562 C563 1.287 . S
C563 C562 1.287 . S
C563 C564 1.524 . S
C563 H566 0.999 . S
C564 H534 0.950 . S
C564 C563 1.524 . S
C564 C565 1.415 . S
C565 H535 0.950 . S
C565 C560 1.363 . S
C565 C564 1.415 . S
H566 C563 0.999 . S
H567 C548 0.913 . S
H568 C586 0.948 1_554 S
H569 C588 0.951 . S
H570 C590 0.950 . S
H571 C591 0.950 . S
H572 C593 0.950 . S
H573 C596 0.950 . S
H574 C597 0.950 . S
H575 C599 0.950 . S
H576 C600 0.950 . S
H577 C601 0.951 . S
H578 C603 0.951 . S
H579 C605 0.950 . S
H580 C606 0.950 . S
H581 C608 0.950 . S
H582 C611 0.950 . S
H583 C612 0.950 . S
H584 C614 0.950 . S
H585 C615 0.950 . S
C586 H568 0.948 1_556 S
C586 C587 1.366 1_556 S
C586 C588 1.388 . S
C587 C586 1.366 1_554 S
C587 C591 1.385 . S
C588 H569 0.951 . S
C588 C586 1.388 . S
C588 C589 1.366 . S
C589 C588 1.366 . S
C589 C590 1.414 . S
C589 C592 1.499 . S
C590 H570 0.950 . S
C590 C589 1.414 . S
C590 C591 1.374 1_556 S
C591 H571 0.950 . S
C591 C587 1.385 . S
C591 C590 1.374 1_554 S
C592 C589 1.499 . S
C592 C593 1.373 . S
C592 C594 1.389 . S
C593 H572 0.950 . S
C593 C592 1.373 . S
C593 C609 1.377 . S
C594 C592 1.389 . S
C594 C595 1.524 . S
C594 C608 1.377 . S
C595 C594 1.524 . S
C595 C596 1.397 . S
C595 C600 1.363 . S
C596 H573 0.950 . S
C596 C595 1.397 . S
C596 C597 1.334 . S
C597 H574 0.950 . S
C597 C596 1.334 . S
C597 C598 1.287 . S
C598 C597 1.287 . S
C598 C599 1.524 . S
C598 H617 0.913 . S
C599 H575 0.950 . S
C599 C598 1.524 . S
C599 C600 1.415 . S
C600 H576 0.950 . S
C600 C595 1.363 . S
C600 C599 1.415 . S
C601 H577 0.951 . S
C601 C602 1.366 . S
C601 C603 1.388 . S
C602 C601 1.366 . S
C602 C606 1.385 . S
C603 H578 0.951 . S
C603 C601 1.388 . S
C603 C604 1.366 . S
C604 C603 1.366 . S
C604 C605 1.414 . S
C604 C607 1.499 . S
C605 H579 0.950 . S
C605 C604 1.414 . S
C605 C606 1.374 . S
C606 H580 0.950 . S
C606 C602 1.385 . S
C606 C605 1.374 . S
C607 C604 1.499 . S
C607 C608 1.373 . S
C607 C609 1.389 . S
C608 H581 0.950 . S
C608 C594 1.377 . S
C608 C607 1.373 . S
C609 C593 1.377 . S
C609 C607 1.389 . S
C609 C610 1.524 . S
C610 C609 1.524 . S
C610 C611 1.397 . S
C610 C615 1.363 . S
C611 H582 0.950 . S
C611 C610 1.397 . S
C611 C612 1.334 . S
C612 H583 0.950 . S
C612 C611 1.334 . S
C612 C613 1.287 . S
C613 C612 1.287 . S
C613 C614 1.524 . S
C613 H616 0.999 . S
C614 H584 0.950 . S
C614 C613 1.524 . S
C614 C615 1.415 . S
C615 H585 0.950 . S
C615 C610 1.363 . S
C615 C614 1.415 . S
H616 C613 0.999 . S
H617 C598 0.913 . S
H618 C636 0.951 . S
H619 C638 0.951 . S
H620 C640 0.950 . S
H621 C641 0.950 . S
H622 C643 0.950 . S
H623 C646 0.950 . S
H624 C647 0.950 . S
H625 C649 0.950 . S
H626 C650 0.950 . S
H627 C651 0.951 . S
H628 C653 0.951 . S
H629 C655 0.950 . S
H630 C656 0.950 . S
H631 C658 0.950 . S
H632 C661 0.950 . S
H633 C662 0.950 . S
H634 C664 0.950 . S
H635 C665 0.950 . S
C636 H618 0.951 . S
C636 C637 1.366 . S
C636 C638 1.388 . S
C637 C636 1.366 . S
C637 C641 1.385 . S
C638 H619 0.951 . S
C638 C636 1.388 . S
C638 C639 1.366 . S
C639 C638 1.366 . S
C639 C640 1.414 . S
C639 C642 1.499 . S
C640 H620 0.950 . S
C640 C639 1.414 . S
C640 C641 1.374 . S
C641 H621 0.950 . S
C641 C637 1.385 . S
C641 C640 1.374 . S
C642 C639 1.499 . S
C642 C643 1.373 . S
C642 C644 1.389 . S
C643 H622 0.950 . S
C643 C642 1.373 . S
C643 C659 1.377 . S
C644 C642 1.389 . S
C644 C645 1.524 . S
C644 C658 1.377 . S
C645 C644 1.524 . S
C645 C646 1.397 . S
C645 C650 1.363 . S
C646 H623 0.950 . S
C646 C645 1.397 . S
C646 C647 1.334 . S
C647 H624 0.950 . S
C647 C646 1.334 . S
C647 C648 1.287 . S
C648 C647 1.287 . S
C648 C649 1.524 . S
C648 H667 0.913 . S
C649 H625 0.950 . S
C649 C648 1.524 . S
C649 C650 1.415 . S
C650 H626 0.950 . S
C650 C645 1.363 . S
C650 C649 1.415 . S
C651 H627 0.951 . S
C651 C652 1.366 1_554 S
C651 C653 1.388 . S
C652 C651 1.366 1_556 S
C652 C656 1.385 . S
C653 H628 0.951 . S
C653 C651 1.388 . S
C653 C654 1.366 . S
C654 C653 1.366 . S
C654 C655 1.414 . S
C654 C657 1.499 . S
C655 H629 0.950 . S
C655 C654 1.414 . S
C655 C656 1.374 1_554 S
C656 H630 0.950 . S
C656 C652 1.385 . S
C656 C655 1.374 1_556 S
C657 C654 1.499 . S
C657 C658 1.373 . S
C657 C659 1.389 . S
C658 H631 0.950 . S
C658 C644 1.377 . S
C658 C657 1.373 . S
C659 C643 1.377 . S
C659 C657 1.389 . S
C659 C660 1.524 . S
C660 C659 1.524 . S
C660 C661 1.397 . S
C660 C665 1.363 . S
C661 H632 0.950 . S
C661 C660 1.397 . S
C661 C662 1.334 . S
C662 H633 0.950 . S
C662 C661 1.334 . S
C662 C663 1.287 . S
C663 C662 1.287 . S
C663 C664 1.524 . S
C663 H666 0.999 . S
C664 H634 0.950 . S
C664 C663 1.524 . S
C664 C665 1.415 . S
C665 H635 0.950 . S
C665 C660 1.363 . S
C665 C664 1.415 . S
H666 C663 0.999 . S
H667 C648 0.913 . S
H668 C686 0.951 . S
H669 C688 0.951 . S
H670 C690 0.950 . S
H671 C691 0.950 . S
H672 C693 0.950 . S
H673 C696 0.950 . S
H674 C697 0.950 . S
H675 C699 0.950 . S
H676 C700 0.950 . S
H677 C701 0.951 . S
H678 C703 0.951 . S
H679 C705 0.950 . S
H680 C706 0.950 . S
H681 C708 0.950 . S
H682 C711 0.950 . S
H683 C712 0.950 . S
H684 C714 0.950 . S
H685 C715 0.950 . S
C686 H668 0.951 . S
C686 C687 1.366 . S
C686 C688 1.388 . S
C687 C686 1.366 . S
C687 C691 1.385 . S
C688 H669 0.951 . S
C688 C686 1.388 . S
C688 C689 1.366 . S
C689 C688 1.366 . S
C689 C690 1.414 . S
C689 C692 1.499 . S
C690 H670 0.950 . S
C690 C689 1.414 . S
C690 C691 1.374 . S
C691 H671 0.950 . S
C691 C687 1.385 . S
C691 C690 1.374 . S
C692 C689 1.499 . S
C692 C693 1.373 . S
C692 C694 1.389 . S
C693 H672 0.950 . S
C693 C692 1.373 . S
C693 C709 1.377 . S
C694 C692 1.389 . S
C694 C695 1.524 . S
C694 C708 1.377 . S
C695 C694 1.524 . S
C695 C696 1.397 . S
C695 C700 1.363 . S
C696 H673 0.950 . S
C696 C695 1.397 . S
C696 C697 1.334 . S
C697 H674 0.950 . S
C697 C696 1.334 . S
C697 C698 1.287 . S
C698 C697 1.287 . S
C698 C699 1.524 . S
C698 H717 0.913 . S
C699 H675 0.950 . S
C699 C698 1.524 . S
C699 C700 1.415 . S
C700 H676 0.950 . S
C700 C695 1.363 . S
C700 C699 1.415 . S
C701 H677 0.951 . S
C701 C702 1.366 . S
C701 C703 1.388 . S
C702 C701 1.366 . S
C702 C706 1.385 . S
C703 H678 0.951 . S
C703 C701 1.388 . S
C703 C704 1.366 . S
C704 C703 1.366 . S
C704 C705 1.414 . S
C704 C707 1.499 . S
C705 H679 0.950 . S
C705 C704 1.414 . S
C705 C706 1.374 . S
C706 H680 0.950 . S
C706 C702 1.385 . S
C706 C705 1.374 . S
C707 C704 1.499 . S
C707 C708 1.373 . S
C707 C709 1.389 . S
C708 H681 0.950 . S
C708 C694 1.377 . S
C708 C707 1.373 . S
C709 C693 1.377 . S
C709 C707 1.389 . S
C709 C710 1.524 . S
C710 C709 1.524 . S
C710 C711 1.397 . S
C710 C715 1.363 . S
C711 H682 0.950 . S
C711 C710 1.397 . S
C711 C712 1.334 . S
C712 H683 0.950 . S
C712 C711 1.334 . S
C712 C713 1.287 . S
C713 C712 1.287 . S
C713 C714 1.524 . S
C713 H716 0.999 . S
C714 H684 0.950 . S
C714 C713 1.524 . S
C714 C715 1.415 . S
C715 H685 0.950 . S
C715 C710 1.363 . S
C715 C714 1.415 . S
H716 C713 0.999 . S
H717 C698 0.913 . S
H718 C736 0.951 . S
H719 C738 0.951 . S
H720 C740 0.950 . S
H721 C741 0.950 . S
H722 C743 0.950 . S
H723 C746 0.950 . S
H724 C747 0.950 . S
H725 C749 0.950 . S
H726 C750 0.950 . S
H727 C751 0.951 . S
H728 C753 0.951 . S
H729 C755 0.950 . S
H730 C756 0.950 . S
H731 C758 0.950 . S
H732 C761 0.950 . S
H733 C762 0.950 . S
H734 C764 0.950 . S
H735 C765 0.950 . S
C736 H718 0.951 . S
C736 C737 1.366 . S
C736 C738 1.388 . S
C737 C736 1.366 . S
C737 C741 1.385 . S
C738 H719 0.951 . S
C738 C736 1.388 . S
C738 C739 1.366 . S
C739 C738 1.366 . S
C739 C740 1.414 . S
C739 C742 1.499 . S
C740 H720 0.950 . S
C740 C739 1.414 . S
C740 C741 1.374 . S
C741 H721 0.950 . S
C741 C737 1.385 . S
C741 C740 1.374 . S
C742 C739 1.499 . S
C742 C743 1.373 . S
C742 C744 1.389 . S
C743 H722 0.950 . S
C743 C742 1.373 . S
C743 C759 1.377 . S
C744 C742 1.389 . S
C744 C745 1.524 . S
C744 C758 1.377 . S
C745 C744 1.524 . S
C745 C746 1.397 . S
C745 C750 1.363 . S
C746 H723 0.950 . S
C746 C745 1.397 . S
C746 C747 1.334 . S
C747 H724 0.950 . S
C747 C746 1.334 . S
C747 C748 1.287 . S
C748 C747 1.287 . S
C748 C749 1.524 . S
C748 H767 0.913 . S
C749 H725 0.950 . S
C749 C748 1.524 . S
C749 C750 1.415 . S
C750 H726 0.950 . S
C750 C745 1.363 . S
C750 C749 1.415 . S
C751 H727 0.951 . S
C751 C752 1.366 . S
C751 C753 1.388 . S
C752 C751 1.366 . S
C752 C756 1.385 . S
C753 H728 0.951 . S
C753 C751 1.388 . S
C753 C754 1.366 . S
C754 C753 1.366 . S
C754 C755 1.414 . S
C754 C757 1.499 . S
C755 H729 0.950 . S
C755 C754 1.414 . S
C755 C756 1.374 . S
C756 H730 0.950 . S
C756 C752 1.385 . S
C756 C755 1.374 . S
C757 C754 1.499 . S
C757 C758 1.373 . S
C757 C759 1.389 . S
C758 H731 0.950 . S
C758 C744 1.377 . S
C758 C757 1.373 . S
C759 C743 1.377 . S
C759 C757 1.389 . S
C759 C760 1.524 . S
C760 C759 1.524 . S
C760 C761 1.397 . S
C760 C765 1.363 . S
C761 H732 0.950 . S
C761 C760 1.397 . S
C761 C762 1.334 . S
C762 H733 0.950 . S
C762 C761 1.334 . S
C762 C763 1.287 . S
C763 C762 1.287 . S
C763 C764 1.524 . S
C763 H766 0.999 . S
C764 H734 0.950 . S
C764 C763 1.524 . S
C764 C765 1.415 . S
C765 H735 0.950 . S
C765 C760 1.363 . S
C765 C764 1.415 . S
H766 C763 0.999 . S
H767 C748 0.913 . S
H768 C786 0.951 . S
H769 C788 0.951 . S
H770 C790 0.950 . S
H771 C791 0.950 . S
H772 C793 0.950 . S
H773 C796 0.950 . S
H774 C797 0.950 . S
H775 C799 0.950 . S
H776 C800 0.950 1_455 S
H777 C801 0.951 . S
H778 C803 0.951 . S
H779 C805 0.950 . S
H780 C806 0.950 . S
H781 C808 0.950 . S
H782 C811 0.950 . S
H783 C812 0.950 . S
H784 C814 0.950 . S
H785 C815 0.950 1_655 S
C786 H768 0.951 . S
C786 C787 1.366 . S
C786 C788 1.388 . S
C787 C786 1.366 . S
C787 C791 1.385 . S
C788 H769 0.951 . S
C788 C786 1.388 . S
C788 C789 1.366 . S
C789 C788 1.366 . S
C789 C790 1.414 . S
C789 C792 1.499 . S
C790 H770 0.950 . S
C790 C789 1.414 . S
C790 C791 1.374 . S
C791 H771 0.950 . S
C791 C787 1.385 . S
C791 C790 1.374 . S
C792 C789 1.499 . S
C792 C793 1.373 . S
C792 C794 1.389 . S
C793 H772 0.950 . S
C793 C792 1.373 . S
C793 C809 1.377 1_655 S
C794 C792 1.389 . S
C794 C795 1.524 . S
C794 C808 1.377 1_655 S
C795 C794 1.524 . S
C795 C796 1.397 . S
C795 C800 1.363 . S
C796 H773 0.950 . S
C796 C795 1.397 . S
C796 C797 1.334 . S
C797 H774 0.950 . S
C797 C796 1.334 . S
C797 C798 1.287 . S
C798 C797 1.287 . S
C798 C799 1.524 . S
C798 H817 0.913 . S
C799 H775 0.950 . S
C799 C798 1.524 . S
C799 C800 1.415 . S
C800 H776 0.950 1_655 S
C800 C795 1.363 . S
C800 C799 1.415 . S
C801 H777 0.951 . S
C801 C802 1.366 . S
C801 C803 1.388 . S
C802 C801 1.366 . S
C802 C806 1.385 . S
C803 H778 0.951 . S
C803 C801 1.388 . S
C803 C804 1.366 . S
C804 C803 1.366 . S
C804 C805 1.414 . S
C804 C807 1.499 . S
C805 H779 0.950 . S
C805 C804 1.414 . S
C805 C806 1.374 . S
C806 H780 0.950 . S
C806 C802 1.385 . S
C806 C805 1.374 . S
C807 C804 1.499 . S
C807 C808 1.373 . S
C807 C809 1.389 . S
C808 H781 0.950 . S
C808 C794 1.377 1_455 S
C808 C807 1.373 . S
C809 C793 1.377 1_455 S
C809 C807 1.389 . S
C809 C810 1.524 . S
C810 C809 1.524 . S
C810 C811 1.397 . S
C810 C815 1.363 . S
C811 H782 0.950 . S
C811 C810 1.397 . S
C811 C812 1.334 . S
C812 H783 0.950 . S
C812 C811 1.334 . S
C812 C813 1.287 . S
C813 C812 1.287 . S
C813 C814 1.524 . S
C813 H816 0.999 . S
C814 H784 0.950 . S
C814 C813 1.524 . S
C814 C815 1.415 . S
C815 H785 0.950 1_455 S
C815 C810 1.363 . S
C815 C814 1.415 . S
H816 C813 0.999 . S
H817 C798 0.913 . S
H818 C836 0.951 . S
H819 C838 0.951 . S
H820 C840 0.950 . S
H821 C841 0.950 . S
H822 C843 0.950 . S
H823 C846 0.950 . S
H824 C847 0.950 . S
H825 C849 0.950 . S
H826 C850 0.950 . S
H827 C851 0.951 . S
H828 C853 0.951 . S
H829 C855 0.950 . S
H830 C856 0.950 . S
H831 C858 0.950 . S
H832 C861 0.950 . S
H833 C862 0.950 . S
H834 C864 0.950 . S
H835 C865 0.950 . S
C836 H818 0.951 . S
C836 C837 1.366 . S
C836 C838 1.388 . S
C837 C836 1.366 . S
C837 C841 1.385 . S
C838 H819 0.951 . S
C838 C836 1.388 . S
C838 C839 1.366 . S
C839 C838 1.366 . S
C839 C840 1.414 . S
C839 C842 1.499 . S
C840 H820 0.950 . S
C840 C839 1.414 . S
C840 C841 1.374 . S
C841 H821 0.950 . S
C841 C837 1.385 . S
C841 C840 1.374 . S
C842 C839 1.499 . S
C842 C843 1.373 . S
C842 C844 1.389 . S
C843 H822 0.950 . S
C843 C842 1.373 . S
C843 C859 1.377 1_565 S
C844 C842 1.389 . S
C844 C845 1.524 . S
C844 C858 1.377 1_565 S
C845 C844 1.524 . S
C845 C846 1.397 . S
C845 C850 1.363 1_565 S
C846 H823 0.950 . S
C846 C845 1.397 . S
C846 C847 1.334 . S
C847 H824 0.950 . S
C847 C846 1.334 . S
C847 C848 1.287 . S
C848 C847 1.287 . S
C848 C849 1.524 1_565 S
C848 H867 0.913 . S
C849 H825 0.950 . S
C849 C848 1.524 1_545 S
C849 C850 1.415 . S
C850 H826 0.950 . S
C850 C845 1.363 1_545 S
C850 C849 1.415 . S
C851 H827 0.951 . S
C851 C852 1.366 . S
C851 C853 1.388 . S
C852 C851 1.366 . S
C852 C856 1.385 . S
C853 H828 0.951 . S
C853 C851 1.388 . S
C853 C854 1.366 . S
C854 C853 1.366 . S
C854 C855 1.414 . S
C854 C857 1.499 . S
C855 H829 0.950 . S
C855 C854 1.414 . S
C855 C856 1.374 . S
C856 H830 0.950 . S
C856 C852 1.385 . S
C856 C855 1.374 . S
C857 C854 1.499 . S
C857 C858 1.373 . S
C857 C859 1.389 . S
C858 H831 0.950 . S
C858 C844 1.377 1_545 S
C858 C857 1.373 . S
C859 C843 1.377 1_545 S
C859 C857 1.389 . S
C859 C860 1.524 . S
C860 C859 1.524 . S
C860 C861 1.397 . S
C860 C865 1.363 1_545 S
C861 H832 0.950 . S
C861 C860 1.397 . S
C861 C862 1.334 . S
C862 H833 0.950 . S
C862 C861 1.334 . S
C862 C863 1.287 . S
C863 C862 1.287 . S
C863 C864 1.524 1_545 S
C863 H866 0.999 . S
C864 H834 0.950 . S
C864 C863 1.524 1_565 S
C864 C865 1.415 . S
C865 H835 0.950 . S
C865 C860 1.363 1_565 S
C865 C864 1.415 . S
H866 C863 0.999 . S
H867 C848 0.913 . S
H868 C886 0.951 . S
H869 C888 0.951 . S
H870 C890 0.950 . S
H871 C891 0.950 . S
H872 C893 0.950 . S
H873 C896 0.950 . S
H874 C897 0.950 . S
H875 C899 0.950 . S
H876 C900 0.950 . S
H877 C901 0.951 . S
H878 C903 0.951 . S
H879 C905 0.950 . S
H880 C906 0.950 . S
H881 C908 0.950 . S
H882 C911 0.950 . S
H883 C912 0.950 . S
H884 C914 0.950 . S
H885 C915 0.950 . S
C886 H868 0.951 . S
C886 C887 1.366 . S
C886 C888 1.388 . S
C887 C886 1.366 . S
C887 C891 1.385 . S
C888 H869 0.951 . S
C888 C886 1.388 . S
C888 C889 1.366 . S
C889 C888 1.366 . S
C889 C890 1.414 . S
C889 C892 1.499 . S
C890 H870 0.950 . S
C890 C889 1.414 . S
C890 C891 1.374 . S
C891 H871 0.950 . S
C891 C887 1.385 . S
C891 C890 1.374 . S
C892 C889 1.499 . S
C892 C893 1.373 . S
C892 C894 1.389 . S
C893 H872 0.950 . S
C893 C892 1.373 . S
C893 C909 1.377 . S
C894 C892 1.389 . S
C894 C895 1.524 . S
C894 C908 1.377 . S
C895 C894 1.524 . S
C895 C896 1.397 . S
C895 C900 1.363 . S
C896 H873 0.950 . S
C896 C895 1.397 . S
C896 C897 1.334 . S
C897 H874 0.950 . S
C897 C896 1.334 . S
C897 C898 1.287 . S
C898 C897 1.287 . S
C898 C899 1.524 . S
C898 H917 0.913 . S
C899 H875 0.950 . S
C899 C898 1.524 . S
C899 C900 1.415 . S
C900 H876 0.950 . S
C900 C895 1.363 . S
C900 C899 1.415 . S
C901 H877 0.951 . S
C901 C902 1.366 . S
C901 C903 1.388 . S
C902 C901 1.366 . S
C902 C906 1.385 . S
C903 H878 0.951 . S
C903 C901 1.388 . S
C903 C904 1.366 . S
C904 C903 1.366 . S
C904 C905 1.414 . S
C904 C907 1.499 . S
C905 H879 0.950 . S
C905 C904 1.414 . S
C905 C906 1.374 . S
C906 H880 0.950 . S
C906 C902 1.385 . S
C906 C905 1.374 . S
C907 C904 1.499 . S
C907 C908 1.373 . S
C907 C909 1.389 . S
C908 H881 0.950 . S
C908 C894 1.377 . S
C908 C907 1.373 . S
C909 C893 1.377 . S
C909 C907 1.389 . S
C909 C910 1.524 . S
C910 C909 1.524 . S
C910 C911 1.397 . S
C910 C915 1.363 . S
C911 H882 0.950 . S
C911 C910 1.397 . S
C911 C912 1.334 . S
C912 H883 0.950 . S
C912 C911 1.334 . S
C912 C913 1.287 . S
C913 C912 1.287 . S
C913 C914 1.524 . S
C913 H916 0.999 . S
C914 H884 0.950 . S
C914 C913 1.524 . S
C914 C915 1.415 . S
C915 H885 0.950 . S
C915 C910 1.363 . S
C915 C914 1.415 . S
H916 C913 0.999 . S
H917 C898 0.913 . S
H918 C936 0.951 . S
H919 C938 0.951 . S
H920 C940 0.950 . S
H921 C941 0.950 . S
H922 C943 0.950 . S
H923 C946 0.950 . S
H924 C947 0.950 . S
H925 C949 0.950 . S
H926 C950 0.950 . S
H927 C951 0.951 . S
H928 C953 0.951 . S
H929 C955 0.950 . S
H930 C956 0.950 . S
H931 C958 0.950 . S
H932 C961 0.950 . S
H933 C962 0.950 . S
H934 C964 0.950 . S
H935 C965 0.950 . S
C936 H918 0.951 . S
C936 C937 1.366 . S
C936 C938 1.388 . S
C937 C936 1.366 . S
C937 C941 1.385 . S
C938 H919 0.951 . S
C938 C936 1.388 . S
C938 C939 1.366 . S
C939 C938 1.366 . S
C939 C940 1.414 . S
C939 C942 1.499 . S
C940 H920 0.950 . S
C940 C939 1.414 . S
C940 C941 1.374 . S
C941 H921 0.950 . S
C941 C937 1.385 . S
C941 C940 1.374 . S
C942 C939 1.499 . S
C942 C943 1.373 . S
C942 C944 1.389 . S
C943 H922 0.950 . S
C943 C942 1.373 . S
C943 C959 1.377 1_455 S
C944 C942 1.389 . S
C944 C945 1.524 . S
C944 C958 1.377 1_455 S
C945 C944 1.524 . S
C945 C946 1.397 . S
C945 C950 1.363 . S
C946 H923 0.950 . S
C946 C945 1.397 . S
C946 C947 1.334 . S
C947 H924 0.950 . S
C947 C946 1.334 . S
C947 C948 1.287 . S
C948 C947 1.287 . S
C948 C949 1.524 . S
C948 H967 0.913 . S
C949 H925 0.950 . S
C949 C948 1.524 . S
C949 C950 1.415 . S
C950 H926 0.950 . S
C950 C945 1.363 . S
C950 C949 1.415 . S
C951 H927 0.951 . S
C951 C952 1.366 . S
C951 C953 1.388 . S
C952 C951 1.366 . S
C952 C956 1.385 . S
C953 H928 0.951 . S
C953 C951 1.388 . S
C953 C954 1.366 . S
C954 C953 1.366 . S
C954 C955 1.414 . S
C954 C957 1.499 . S
C955 H929 0.950 . S
C955 C954 1.414 . S
C955 C956 1.374 . S
C956 H930 0.950 . S
C956 C952 1.385 . S
C956 C955 1.374 . S
C957 C954 1.499 . S
C957 C958 1.373 . S
C957 C959 1.389 . S
C958 H931 0.950 . S
C958 C944 1.377 1_655 S
C958 C957 1.373 . S
C959 C943 1.377 1_655 S
C959 C957 1.389 . S
C959 C960 1.524 . S
C960 C959 1.524 . S
C960 C961 1.397 . S
C960 C965 1.363 . S
C961 H932 0.950 . S
C961 C960 1.397 . S
C961 C962 1.334 . S
C962 H933 0.950 . S
C962 C961 1.334 . S
C962 C963 1.287 . S
C963 C962 1.287 . S
C963 C964 1.524 . S
C963 H966 0.999 . S
C964 H934 0.950 . S
C964 C963 1.524 . S
C964 C965 1.415 . S
C965 H935 0.950 . S
C965 C960 1.363 . S
C965 C964 1.415 . S
H966 C963 0.999 . S
H967 C948 0.913 . S
H968 C986 0.951 . S
H969 C988 0.951 1_554 S
H970 C990 0.950 . S
H971 C991 0.950 . S
H972 C993 0.950 . S
H973 C996 0.950 . S
H974 C997 0.950 . S
H975 C999 0.950 . S
H976 C1000 0.950 . S
H977 C1001 0.951 . S
H978 C1003 0.951 1_556 S
H979 C1005 0.950 . S
H980 C1006 0.950 . S
H981 C1008 0.950 . S
H982 C1011 0.950 . S
H983 C1012 0.950 . S
H984 C1014 0.950 . S
H985 C1015 0.950 . S
C986 H968 0.951 . S
C986 C987 1.366 . S
C986 C988 1.388 . S
C987 C986 1.366 . S
C987 C991 1.385 . S
C988 H969 0.951 1_556 S
C988 C986 1.388 . S
C988 C989 1.366 . S
C989 C988 1.366 . S
C989 C990 1.414 . S
C989 C992 1.499 . S
C990 H970 0.950 . S
C990 C989 1.414 . S
C990 C991 1.374 . S
C991 H971 0.950 . S
C991 C987 1.385 . S
C991 C990 1.374 . S
C992 C989 1.499 . S
C992 C993 1.373 . S
C992 C994 1.389 . S
C993 H972 0.950 . S
C993 C992 1.373 . S
C993 C1009 1.377 1_546 S
C994 C992 1.389 . S
C994 C995 1.524 . S
C994 C1008 1.377 1_546 S
C995 C994 1.524 . S
C995 C996 1.397 . S
C995 C1000 1.363 1_556 S
C996 H973 0.950 . S
C996 C995 1.397 . S
C996 C997 1.334 . S
C997 H974 0.950 . S
C997 C996 1.334 . S
C997 C998 1.287 . S
C998 C997 1.287 . S
C998 C999 1.524 1_556 S
C998 H1017 0.913 . S
C999 H975 0.950 . S
C999 C998 1.524 1_554 S
C999 C1000 1.415 . S
C1000 H976 0.950 . S
C1000 C995 1.363 1_554 S
C1000 C999 1.415 . S
C1001 H977 0.951 . S
C1001 C1002 1.366 . S
C1001 C1003 1.388 . S
C1002 C1001 1.366 . S
C1002 C1006 1.385 . S
C1003 H978 0.951 1_554 S
C1003 C1001 1.388 . S
C1003 C1004 1.366 . S
C1004 C1003 1.366 . S
C1004 C1005 1.414 . S
C1004 C1007 1.499 . S
C1005 H979 0.950 . S
C1005 C1004 1.414 . S
C1005 C1006 1.374 . S
C1006 H980 0.950 . S
C1006 C1002 1.385 . S
C1006 C1005 1.374 . S
C1007 C1004 1.499 . S
C1007 C1008 1.373 . S
C1007 C1009 1.389 . S
C1008 H981 0.950 . S
C1008 C994 1.377 1_564 S
C1008 C1007 1.373 . S
C1009 C993 1.377 1_564 S
C1009 C1007 1.389 . S
C1009 C1010 1.524 . S
C1010 C1009 1.524 . S
C1010 C1011 1.397 . S
C1010 C1015 1.363 1_554 S
C1011 H982 0.950 . S
C1011 C1010 1.397 . S
C1011 C1012 1.334 . S
C1012 H983 0.950 . S
C1012 C1011 1.334 . S
C1012 C1013 1.287 . S
C1013 C1012 1.287 . S
C1013 C1014 1.524 1_554 S
C1013 H1016 0.999 . S
C1014 H984 0.950 . S
C1014 C1013 1.524 1_556 S
C1014 C1015 1.415 . S
C1015 H985 0.950 . S
C1015 C1010 1.363 1_556 S
C1015 C1014 1.415 . S
H1016 C1013 0.999 . S
H1017 C998 0.913 . S
H1018 C1036 0.951 . S
H1019 C1038 0.951 . S
H1020 C1040 0.950 . S
H1021 C1041 0.950 . S
H1022 C1043 0.950 . S
H1023 C1046 0.950 . S
H1024 C1047 0.950 . S
H1025 C1049 0.950 . S
H1026 C1050 0.950 . S
H1027 C1051 0.951 . S
H1028 C1053 0.951 . S
H1029 C1055 0.950 . S
H1030 C1056 0.950 . S
H1031 C1058 0.950 . S
H1032 C1061 0.950 . S
H1033 C1062 0.950 . S
H1034 C1064 0.950 . S
H1035 C1065 0.950 . S
C1036 H1018 0.951 . S
C1036 C1037 1.366 . S
C1036 C1038 1.388 . S
C1037 C1036 1.366 . S
C1037 C1041 1.385 . S
C1038 H1019 0.951 . S
C1038 C1036 1.388 . S
C1038 C1039 1.366 . S
C1039 C1038 1.366 . S
C1039 C1040 1.414 . S
C1039 C1042 1.499 . S
C1040 H1020 0.950 . S
C1040 C1039 1.414 . S
C1040 C1041 1.374 . S
C1041 H1021 0.950 . S
C1041 C1037 1.385 . S
C1041 C1040 1.374 . S
C1042 C1039 1.499 . S
C1042 C1043 1.373 . S
C1042 C1044 1.389 . S
C1043 H1022 0.950 . S
C1043 C1042 1.373 . S
C1043 C1059 1.377 . S
C1044 C1042 1.389 . S
C1044 C1045 1.524 . S
C1044 C1058 1.377 . S
C1045 C1044 1.524 . S
C1045 C1046 1.397 . S
C1045 C1050 1.363 . S
C1046 H1023 0.950 . S
C1046 C1045 1.397 . S
C1046 C1047 1.334 . S
C1047 H1024 0.950 . S
C1047 C1046 1.334 . S
C1047 C1048 1.287 . S
C1048 C1047 1.287 . S
C1048 C1049 1.524 . S
C1048 H1067 0.913 . S
C1049 H1025 0.950 . S
C1049 C1048 1.524 . S
C1049 C1050 1.415 . S
C1050 H1026 0.950 . S
C1050 C1045 1.363 . S
C1050 C1049 1.415 . S
C1051 H1027 0.951 . S
C1051 C1052 1.366 . S
C1051 C1053 1.388 . S
C1052 C1051 1.366 . S
C1052 C1056 1.385 . S
C1053 H1028 0.951 . S
C1053 C1051 1.388 . S
C1053 C1054 1.366 . S
C1054 C1053 1.366 . S
C1054 C1055 1.414 . S
C1054 C1057 1.499 . S
C1055 H1029 0.950 . S
C1055 C1054 1.414 . S
C1055 C1056 1.374 . S
C1056 H1030 0.950 . S
C1056 C1052 1.385 . S
C1056 C1055 1.374 . S
C1057 C1054 1.499 . S
C1057 C1058 1.373 . S
C1057 C1059 1.389 . S
C1058 H1031 0.950 . S
C1058 C1044 1.377 . S
C1058 C1057 1.373 . S
C1059 C1043 1.377 . S
C1059 C1057 1.389 . S
C1059 C1060 1.524 . S
C1060 C1059 1.524 . S
C1060 C1061 1.397 . S
C1060 C1065 1.363 . S
C1061 H1032 0.950 . S
C1061 C1060 1.397 . S
C1061 C1062 1.334 . S
C1062 H1033 0.950 . S
C1062 C1061 1.334 . S
C1062 C1063 1.287 . S
C1063 C1062 1.287 . S
C1063 C1064 1.524 . S
C1063 H1066 0.999 . S
C1064 H1034 0.950 . S
C1064 C1063 1.524 . S
C1064 C1065 1.415 . S
C1065 H1035 0.950 . S
C1065 C1060 1.363 . S
C1065 C1064 1.415 . S
H1066 C1063 0.999 . S
H1067 C1048 0.913 . S
H1068 C1086 0.951 . S
H1069 C1088 0.951 . S
H1070 C1090 0.950 . S
H1071 C1091 0.950 . S
H1072 C1093 0.950 . S
H1073 C1096 0.950 . S
H1074 C1097 0.950 . S
H1075 C1099 0.950 . S
H1076 C1100 0.950 . S
H1077 C1101 0.951 . S
H1078 C1103 0.951 . S
H1079 C1105 0.950 . S
H1080 C1106 0.950 . S
H1081 C1108 0.950 . S
H1082 C1111 0.950 . S
H1083 C1112 0.950 . S
H1084 C1114 0.950 . S
H1085 C1115 0.950 . S
C1086 H1068 0.951 . S
C1086 C1087 1.366 . S
C1086 C1088 1.388 . S
C1087 C1086 1.366 . S
C1087 C1091 1.385 . S
C1088 H1069 0.951 . S
C1088 C1086 1.388 . S
C1088 C1089 1.366 . S
C1089 C1088 1.366 . S
C1089 C1090 1.414 . S
C1089 C1092 1.499 . S
C1090 H1070 0.950 . S
C1090 C1089 1.414 . S
C1090 C1091 1.374 . S
C1091 H1071 0.950 . S
C1091 C1087 1.385 . S
C1091 C1090 1.374 . S
C1092 C1089 1.499 . S
C1092 C1093 1.373 . S
C1092 C1094 1.389 . S
C1093 H1072 0.950 . S
C1093 C1092 1.373 . S
C1093 C1109 1.377 . S
C1094 C1092 1.389 . S
C1094 C1095 1.524 . S
C1094 C1108 1.377 . S
C1095 C1094 1.524 . S
C1095 C1096 1.397 . S
C1095 C1100 1.363 . S
C1096 H1073 0.950 . S
C1096 C1095 1.397 . S
C1096 C1097 1.334 . S
C1097 H1074 0.950 . S
C1097 C1096 1.334 . S
C1097 C1098 1.287 . S
C1098 C1097 1.287 . S
C1098 C1099 1.524 . S
C1098 H1117 0.913 . S
C1099 H1075 0.950 . S
C1099 C1098 1.524 . S
C1099 C1100 1.415 . S
C1100 H1076 0.950 . S
C1100 C1095 1.363 . S
C1100 C1099 1.415 . S
C1101 H1077 0.951 . S
C1101 C1102 1.366 . S
C1101 C1103 1.388 . S
C1102 C1101 1.366 . S
C1102 C1106 1.385 . S
C1103 H1078 0.951 . S
C1103 C1101 1.388 . S
C1103 C1104 1.366 . S
C1104 C1103 1.366 . S
C1104 C1105 1.414 . S
C1104 C1107 1.499 . S
C1105 H1079 0.950 . S
C1105 C1104 1.414 . S
C1105 C1106 1.374 . S
C1106 H1080 0.950 . S
C1106 C1102 1.385 . S
C1106 C1105 1.374 . S
C1107 C1104 1.499 . S
C1107 C1108 1.373 . S
C1107 C1109 1.389 . S
C1108 H1081 0.950 . S
C1108 C1094 1.377 . S
C1108 C1107 1.373 . S
C1109 C1093 1.377 . S
C1109 C1107 1.389 . S
C1109 C1110 1.524 . S
C1110 C1109 1.524 . S
C1110 C1111 1.397 . S
C1110 C1115 1.363 . S
C1111 H1082 0.950 . S
C1111 C1110 1.397 . S
C1111 C1112 1.334 . S
C1112 H1083 0.950 . S
C1112 C1111 1.334 . S
C1112 C1113 1.287 . S
C1113 C1112 1.287 . S
C1113 C1114 1.524 . S
C1113 H1116 0.999 . S
C1114 H1084 0.950 . S
C1114 C1113 1.524 . S
C1114 C1115 1.415 . S
C1115 H1085 0.950 . S
C1115 C1110 1.363 . S
C1115 C1114 1.415 . S
H1116 C1113 0.999 . S
H1117 C1098 0.913 . S
H1118 C1136 0.951 . S
H1119 C1138 0.951 . S
H1120 C1140 0.950 . S
H1121 C1141 0.950 . S
H1122 C1143 0.950 . S
H1123 C1146 0.950 . S
H1124 C1147 0.950 . S
H1125 C1149 0.950 . S
H1126 C1150 0.950 . S
H1127 C1151 0.951 . S
H1128 C1153 0.951 . S
H1129 C1155 0.950 . S
H1130 C1156 0.950 . S
H1131 C1158 0.950 . S
H1132 C1161 0.950 . S
H1133 C1162 0.950 . S
H1134 C1164 0.950 . S
H1135 C1165 0.950 . S
C1136 H1118 0.951 . S
C1136 C1137 1.366 . S
C1136 C1138 1.388 . S
C1137 C1136 1.366 . S
C1137 C1141 1.385 . S
C1138 H1119 0.951 . S
C1138 C1136 1.388 . S
C1138 C1139 1.366 . S
C1139 C1138 1.366 . S
C1139 C1140 1.414 . S
C1139 C1142 1.499 . S
C1140 H1120 0.950 . S
C1140 C1139 1.414 . S
C1140 C1141 1.374 . S
C1141 H1121 0.950 . S
C1141 C1137 1.385 . S
C1141 C1140 1.374 . S
C1142 C1139 1.499 . S
C1142 C1143 1.373 . S
C1142 C1144 1.389 . S
C1143 H1122 0.950 . S
C1143 C1142 1.373 . S
C1143 C1159 1.377 . S
C1144 C1142 1.389 . S
C1144 C1145 1.524 . S
C1144 C1158 1.377 . S
C1145 C1144 1.524 . S
C1145 C1146 1.397 . S
C1145 C1150 1.363 . S
C1146 H1123 0.950 . S
C1146 C1145 1.397 . S
C1146 C1147 1.334 . S
C1147 H1124 0.950 . S
C1147 C1146 1.334 . S
C1147 C1148 1.287 . S
C1148 C1147 1.287 . S
C1148 C1149 1.524 . S
C1148 H1167 0.913 . S
C1149 H1125 0.950 . S
C1149 C1148 1.524 . S
C1149 C1150 1.415 . S
C1150 H1126 0.950 . S
C1150 C1145 1.363 . S
C1150 C1149 1.415 . S
C1151 H1127 0.951 . S
C1151 C1152 1.366 . S
C1151 C1153 1.388 . S
C1152 C1151 1.366 . S
C1152 C1156 1.385 . S
C1153 H1128 0.951 . S
C1153 C1151 1.388 . S
C1153 C1154 1.366 . S
C1154 C1153 1.366 . S
C1154 C1155 1.414 . S
C1154 C1157 1.499 . S
C1155 H1129 0.950 . S
C1155 C1154 1.414 . S
C1155 C1156 1.374 . S
C1156 H1130 0.950 . S
C1156 C1152 1.385 . S
C1156 C1155 1.374 . S
C1157 C1154 1.499 . S
C1157 C1158 1.373 . S
C1157 C1159 1.389 . S
C1158 H1131 0.950 . S
C1158 C1144 1.377 . S
C1158 C1157 1.373 . S
C1159 C1143 1.377 . S
C1159 C1157 1.389 . S
C1159 C1160 1.524 . S
C1160 C1159 1.524 . S
C1160 C1161 1.397 . S
C1160 C1165 1.363 . S
C1161 H1132 0.950 . S
C1161 C1160 1.397 . S
C1161 C1162 1.334 . S
C1162 H1133 0.950 . S
C1162 C1161 1.334 . S
C1162 C1163 1.287 . S
C1163 C1162 1.287 . S
C1163 C1164 1.524 . S
C1163 H1166 0.999 . S
C1164 H1134 0.950 . S
C1164 C1163 1.524 . S
C1164 C1165 1.415 . S
C1165 H1135 0.950 . S
C1165 C1160 1.363 . S
C1165 C1164 1.415 . S
H1166 C1163 0.999 . S
H1167 C1148 0.913 . S
H1168 C1186 0.951 . S
H1169 C1188 0.951 . S
H1170 C1190 0.950 . S
H1171 C1191 0.950 . S
H1172 C1193 0.950 . S
H1173 C1196 0.950 . S
H1174 C1197 0.950 . S
H1175 C1199 0.950 . S
H1176 C1200 0.950 . S
H1177 C1201 0.951 . S
H1178 C1203 0.951 . S
H1179 C1205 0.950 . S
H1180 C1206 0.950 . S
H1181 C1208 0.950 . S
H1182 C1211 0.950 . S
H1183 C1212 0.950 . S
H1184 C1214 0.950 . S
H1185 C1215 0.950 . S
C1186 H1168 0.951 . S
C1186 C1187 1.366 . S
C1186 C1188 1.388 . S
C1187 C1186 1.366 . S
C1187 C1191 1.385 . S
C1188 H1169 0.951 . S
C1188 C1186 1.388 . S
C1188 C1189 1.366 . S
C1189 C1188 1.366 . S
C1189 C1190 1.414 . S
C1189 C1192 1.499 . S
C1190 H1170 0.950 . S
C1190 C1189 1.414 . S
C1190 C1191 1.374 . S
C1191 H1171 0.950 . S
C1191 C1187 1.385 . S
C1191 C1190 1.374 . S
C1192 C1189 1.499 . S
C1192 C1193 1.373 . S
C1192 C1194 1.389 . S
C1193 H1172 0.950 . S
C1193 C1192 1.373 . S
C1193 C1209 1.377 . S
C1194 C1192 1.389 . S
C1194 C1195 1.524 . S
C1194 C1208 1.377 . S
C1195 C1194 1.524 . S
C1195 C1196 1.397 . S
C1195 C1200 1.363 . S
C1196 H1173 0.950 . S
C1196 C1195 1.397 . S
C1196 C1197 1.334 . S
C1197 H1174 0.950 . S
C1197 C1196 1.334 . S
C1197 C1198 1.287 . S
C1198 C1197 1.287 . S
C1198 C1199 1.524 . S
C1198 H1217 0.913 . S
C1199 H1175 0.950 . S
C1199 C1198 1.524 . S
C1199 C1200 1.415 . S
C1200 H1176 0.950 . S
C1200 C1195 1.363 . S
C1200 C1199 1.415 . S
C1201 H1177 0.951 . S
C1201 C1202 1.366 . S
C1201 C1203 1.388 . S
C1202 C1201 1.366 . S
C1202 C1206 1.385 . S
C1203 H1178 0.951 . S
C1203 C1201 1.388 . S
C1203 C1204 1.366 . S
C1204 C1203 1.366 . S
C1204 C1205 1.414 . S
C1204 C1207 1.499 . S
C1205 H1179 0.950 . S
C1205 C1204 1.414 . S
C1205 C1206 1.374 . S
C1206 H1180 0.950 . S
C1206 C1202 1.385 . S
C1206 C1205 1.374 . S
C1207 C1204 1.499 . S
C1207 C1208 1.373 . S
C1207 C1209 1.389 . S
C1208 H1181 0.950 . S
C1208 C1194 1.377 . S
C1208 C1207 1.373 . S
C1209 C1193 1.377 . S
C1209 C1207 1.389 . S
C1209 C1210 1.524 . S
C1210 C1209 1.524 . S
C1210 C1211 1.397 . S
C1210 C1215 1.363 . S
C1211 H1182 0.950 . S
C1211 C1210 1.397 . S
C1211 C1212 1.334 . S
C1212 H1183 0.950 . S
C1212 C1211 1.334 . S
C1212 C1213 1.287 . S
C1213 C1212 1.287 . S
C1213 C1214 1.524 . S
C1213 H1216 0.999 . S
C1214 H1184 0.950 . S
C1214 C1213 1.524 . S
C1214 C1215 1.415 . S
C1215 H1185 0.950 . S
C1215 C1210 1.363 . S
C1215 C1214 1.415 . S
H1216 C1213 0.999 . S
H1217 C1198 0.913 . S
H1218 C1236 0.951 . S
H1219 C1238 0.951 . S
H1220 C1240 0.950 . S
H1221 C1241 0.950 . S
H1222 C1243 0.950 . S
H1223 C1246 0.950 . S
H1224 C1247 0.950 . S
H1225 C1249 0.950 . S
H1226 C1250 0.950 . S
H1227 C1251 0.951 . S
H1228 C1253 0.951 . S
H1229 C1255 0.950 . S
H1230 C1256 0.950 . S
H1231 C1258 0.950 . S
H1232 C1261 0.950 . S
H1233 C1262 0.950 . S
H1234 C1264 0.950 . S
H1235 C1265 0.950 . S
C1236 H1218 0.951 . S
C1236 C1237 1.366 . S
C1236 C1238 1.388 . S
C1237 C1236 1.366 . S
C1237 C1241 1.385 . S
C1238 H1219 0.951 . S
C1238 C1236 1.388 . S
C1238 C1239 1.366 . S
C1239 C1238 1.366 . S
C1239 C1240 1.414 . S
C1239 C1242 1.499 . S
C1240 H1220 0.950 . S
C1240 C1239 1.414 . S
C1240 C1241 1.374 . S
C1241 H1221 0.950 . S
C1241 C1237 1.385 . S
C1241 C1240 1.374 . S
C1242 C1239 1.499 . S
C1242 C1243 1.373 . S
C1242 C1244 1.389 . S
C1243 H1222 0.950 . S
C1243 C1242 1.373 . S
C1243 C1259 1.377 . S
C1244 C1242 1.389 . S
C1244 C1245 1.524 . S
C1244 C1258 1.377 . S
C1245 C1244 1.524 . S
C1245 C1246 1.397 . S
C1245 C1250 1.363 . S
C1246 H1223 0.950 . S
C1246 C1245 1.397 . S
C1246 C1247 1.334 . S
C1247 H1224 0.950 . S
C1247 C1246 1.334 . S
C1247 C1248 1.287 . S
C1248 C1247 1.287 . S
C1248 C1249 1.524 . S
C1248 H1267 0.913 . S
C1249 H1225 0.950 . S
C1249 C1248 1.524 . S
C1249 C1250 1.415 . S
C1250 H1226 0.950 . S
C1250 C1245 1.363 . S
C1250 C1249 1.415 . S
C1251 H1227 0.951 . S
C1251 C1252 1.366 . S
C1251 C1253 1.388 . S
C1252 C1251 1.366 . S
C1252 C1256 1.385 . S
C1253 H1228 0.951 . S
C1253 C1251 1.388 . S
C1253 C1254 1.366 . S
C1254 C1253 1.366 . S
C1254 C1255 1.414 . S
C1254 C1257 1.499 . S
C1255 H1229 0.950 . S
C1255 C1254 1.414 . S
C1255 C1256 1.374 . S
C1256 H1230 0.950 . S
C1256 C1252 1.385 . S
C1256 C1255 1.374 . S
C1257 C1254 1.499 . S
C1257 C1258 1.373 . S
C1257 C1259 1.389 . S
C1258 H1231 0.950 . S
C1258 C1244 1.377 . S
C1258 C1257 1.373 . S
C1259 C1243 1.377 . S
C1259 C1257 1.389 . S
C1259 C1260 1.524 . S
C1260 C1259 1.524 . S
C1260 C1261 1.397 . S
C1260 C1265 1.363 . S
C1261 H1232 0.950 . S
C1261 C1260 1.397 . S
C1261 C1262 1.334 . S
C1262 H1233 0.950 . S
C1262 C1261 1.334 . S
C1262 C1263 1.287 . S
C1263 C1262 1.287 . S
C1263 C1264 1.524 . S
C1263 H1266 0.999 . S
C1264 H1234 0.950 . S
C1264 C1263 1.524 . S
C1264 C1265 1.415 . S
C1265 H1235 0.950 . S
C1265 C1260 1.363 . S
C1265 C1264 1.415 . S
H1266 C1263 0.999 . S
H1267 C1248 0.913 . S
H1268 C1286 0.951 . S
H1269 C1288 0.951 . S
H1270 C1290 0.950 . S
H1271 C1291 0.950 . S
H1272 C1293 0.950 . S
H1273 C1296 0.950 . S
H1274 C1297 0.950 . S
H1275 C1299 0.950 . S
H1276 C1300 0.950 . S
H1277 C1301 0.951 . S
H1278 C1303 0.951 . S
H1279 C1305 0.950 . S
H1280 C1306 0.950 . S
H1281 C1308 0.950 . S
H1282 C1311 0.950 . S
H1283 C1312 0.950 . S
H1284 C1314 0.950 . S
H1285 C1315 0.950 . S
C1286 H1268 0.951 . S
C1286 C1287 1.366 . S
C1286 C1288 1.388 1_554 S
C1287 C1286 1.366 . S
C1287 C1291 1.385 1_554 S
C1288 H1269 0.951 . S
C1288 C1286 1.388 1_556 S
C1288 C1289 1.366 . S
C1289 C1288 1.366 . S
C1289 C1290 1.414 . S
C1289 C1292 1.499 . S
C1290 H1270 0.950 . S
C1290 C1289 1.414 . S
C1290 C1291 1.374 . S
C1291 H1271 0.950 . S
C1291 C1287 1.385 1_556 S
C1291 C1290 1.374 . S
C1292 C1289 1.499 . S
C1292 C1293 1.373 . S
C1292 C1294 1.389 . S
C1293 H1272 0.950 . S
C1293 C1292 1.373 . S
C1293 C1309 1.377 . S
C1294 C1292 1.389 . S
C1294 C1295 1.524 . S
C1294 C1308 1.377 . S
C1295 C1294 1.524 . S
C1295 C1296 1.397 . S
C1295 C1300 1.363 . S
C1296 H1273 0.950 . S
C1296 C1295 1.397 . S
C1296 C1297 1.334 1_556 S
C1297 H1274 0.950 . S
C1297 C1296 1.334 1_554 S
C1297 C1298 1.287 . S
C1298 C1297 1.287 . S
C1298 C1299 1.524 . S
C1298 H1317 0.913 . S
C1299 H1275 0.950 . S
C1299 C1298 1.524 . S
C1299 C1300 1.415 1_554 S
C1300 H1276 0.950 . S
C1300 C1295 1.363 . S
C1300 C1299 1.415 1_556 S
C1301 H1277 0.951 . S
C1301 C1302 1.366 . S
C1301 C1303 1.388 . S
C1302 C1301 1.366 . S
C1302 C1306 1.385 . S
C1303 H1278 0.951 . S
C1303 C1301 1.388 . S
C1303 C1304 1.366 . S
C1304 C1303 1.366 . S
C1304 C1305 1.414 . S
C1304 C1307 1.499 . S
C1305 H1279 0.950 . S
C1305 C1304 1.414 . S
C1305 C1306 1.374 . S
C1306 H1280 0.950 . S
C1306 C1302 1.385 . S
C1306 C1305 1.374 . S
C1307 C1304 1.499 . S
C1307 C1308 1.373 . S
C1307 C1309 1.389 . S
C1308 H1281 0.950 . S
C1308 C1294 1.377 . S
C1308 C1307 1.373 . S
C1309 C1293 1.377 . S
C1309 C1307 1.389 . S
C1309 C1310 1.524 . S
C1310 C1309 1.524 . S
C1310 C1311 1.397 . S
C1310 C1315 1.363 . S
C1311 H1282 0.950 . S
C1311 C1310 1.397 . S
C1311 C1312 1.334 . S
C1312 H1283 0.950 . S
C1312 C1311 1.334 . S
C1312 C1313 1.287 . S
C1313 C1312 1.287 . S
C1313 C1314 1.524 . S
C1313 H1316 0.999 . S
C1314 H1284 0.950 . S
C1314 C1313 1.524 . S
C1314 C1315 1.415 . S
C1315 H1285 0.950 . S
C1315 C1310 1.363 . S
C1315 C1314 1.415 . S
H1316 C1313 0.999 . S
H1317 C1298 0.913 . S
H1318 C1336 0.951 . S
H1319 C1338 0.951 . S
H1320 C1340 0.950 . S
H1321 C1341 0.950 . S
H1322 C1343 0.950 . S
H1323 C1346 0.950 . S
H1324 C1347 0.950 . S
H1325 C1349 0.950 . S
H1326 C1350 0.950 . S
H1327 C1351 0.951 . S
H1328 C1353 0.951 . S
H1329 C1355 0.950 . S
H1330 C1356 0.950 . S
H1331 C1358 0.950 . S
H1332 C1361 0.950 . S
H1333 C1362 0.950 . S
H1334 C1364 0.950 . S
H1335 C1365 0.950 . S
C1336 H1318 0.951 . S
C1336 C1337 1.366 . S
C1336 C1338 1.388 . S
C1337 C1336 1.366 . S
C1337 C1341 1.385 . S
C1338 H1319 0.951 . S
C1338 C1336 1.388 . S
C1338 C1339 1.366 . S
C1339 C1338 1.366 . S
C1339 C1340 1.414 . S
C1339 C1342 1.499 . S
C1340 H1320 0.950 . S
C1340 C1339 1.414 . S
C1340 C1341 1.374 . S
C1341 H1321 0.950 . S
C1341 C1337 1.385 . S
C1341 C1340 1.374 . S
C1342 C1339 1.499 . S
C1342 C1343 1.373 . S
C1342 C1344 1.389 . S
C1343 H1322 0.950 . S
C1343 C1342 1.373 . S
C1343 C1359 1.377 . S
C1344 C1342 1.389 . S
C1344 C1345 1.524 . S
C1344 C1358 1.377 . S
C1345 C1344 1.524 . S
C1345 C1346 1.397 . S
C1345 C1350 1.363 . S
C1346 H1323 0.950 . S
C1346 C1345 1.397 . S
C1346 C1347 1.334 . S
C1347 H1324 0.950 . S
C1347 C1346 1.334 . S
C1347 C1348 1.287 . S
C1348 C1347 1.287 . S
C1348 C1349 1.524 . S
C1348 H1367 0.913 . S
C1349 H1325 0.950 . S
C1349 C1348 1.524 . S
C1349 C1350 1.415 . S
C1350 H1326 0.950 . S
C1350 C1345 1.363 . S
C1350 C1349 1.415 . S
C1351 H1327 0.951 . S
C1351 C1352 1.366 . S
C1351 C1353 1.388 1_556 S
C1352 C1351 1.366 . S
C1352 C1356 1.385 1_556 S
C1353 H1328 0.951 . S
C1353 C1351 1.388 1_554 S
C1353 C1354 1.366 . S
C1354 C1353 1.366 . S
C1354 C1355 1.414 . S
C1354 C1357 1.499 . S
C1355 H1329 0.950 . S
C1355 C1354 1.414 . S
C1355 C1356 1.374 . S
C1356 H1330 0.950 . S
C1356 C1352 1.385 1_554 S
C1356 C1355 1.374 . S
C1357 C1354 1.499 . S
C1357 C1358 1.373 . S
C1357 C1359 1.389 . S
C1358 H1331 0.950 . S
C1358 C1344 1.377 . S
C1358 C1357 1.373 . S
C1359 C1343 1.377 . S
C1359 C1357 1.389 . S
C1359 C1360 1.524 . S
C1360 C1359 1.524 . S
C1360 C1361 1.397 . S
C1360 C1365 1.363 . S
C1361 H1332 0.950 . S
C1361 C1360 1.397 . S
C1361 C1362 1.334 . S
C1362 H1333 0.950 . S
C1362 C1361 1.334 . S
C1362 C1363 1.287 . S
C1363 C1362 1.287 . S
C1363 C1364 1.524 . S
C1363 H1366 0.999 . S
C1364 H1334 0.950 . S
C1364 C1363 1.524 . S
C1364 C1365 1.415 . S
C1365 H1335 0.950 . S
C1365 C1360 1.363 . S
C1365 C1364 1.415 . S
H1366 C1363 0.999 . S
H1367 C1348 0.913 . S
C187 C9 0.588 . S
C202 C93 0.588 . S
C237 C23 0.587 . S
C252 C107 0.589 . S
C287 C121 0.590 . S
C302 C37 0.587 . S
C337 C51 0.590 . S
C352 C135 0.587 . S
C387 C65 0.589 . S
C402 C149 0.589 . S
C437 C163 0.589 . S
C452 C79 0.588 . S
C487 C119 1.308 . S
C502 C7 1.307 . S
C537 C21 1.309 . S
C552 C133 1.307 . S
C587 C147 1.307 . S
C602 C35 1.308 . S
C637 C161 1.307 . S
C652 C49 1.308 . S
C687 C63 1.307 . S
C702 C91 1.308 . S
C737 C77 1.308 . S
C752 C105 1.309 . S
C787 C162 1.318 . S
C802 C8 1.318 . S
C837 C92 1.318 . S
C852 C22 1.318 . S
C887 C36 1.319 . S
C902 C106 1.319 . S
C937 C120 1.319 . S
C952 C50 1.319 . S
C987 C134 1.318 . S
C1002 C64 1.318 . S
C1037 C148 1.318 . S
C1052 C78 1.318 . S
C1087 C3 1.440 . S
C1102 C143 1.440 . S
C1137 C157 1.440 . S
C1152 C17 1.441 . S
C1187 C31 1.440 . S
C1202 C87 1.439 . S
C1237 C45 1.440 . S
C1252 C101 1.441 . S
C1287 C59 1.440 . S
C1302 C115 1.440 . S
C1337 C73 1.441 . S
C1352 C129 1.440 . S
