# Generated by pormake.
# Topology sxb, (6)-cn, num edge types: 1
# Building blocks:
#     Node 0, Type 0, BuildingBlock: PAMTOO_clean_sbu_0, # of connection points: 6
#     Node 1, Type 0, BuildingBlock: PAMTOO_clean_sbu_0, # of connection points: 6
#     Node 2, Type 0, BuildingBlock: PAMTOO_clean_sbu_0, # of connection points: 6
#     Node 3, Type 0, BuildingBlock: PAMTOO_clean_sbu_0, # of connection points: 6
#     Edge 4, Type (0, 0), BuildingBlock: XUDNAN_clean_linker_2, # of connection points: 2
#     Edge 5, Type (0, 0), BuildingBlock: XUDNAN_clean_linker_2, # of connection points: 2
#     Edge 6, Type (0, 0), BuildingBlock: XUDNAN_clean_linker_2, # of connection points: 2
#     Edge 7, Type (0, 0), BuildingBlock: XUDNAN_clean_linker_2, # of connection points: 2
#     Edge 8, Type (0, 0), BuildingBlock: XUDNAN_clean_linker_2, # of connection points: 2
#     Edge 9, Type (0, 0), BuildingBlock: XUDNAN_clean_linker_2, # of connection points: 2
#     Edge 10, Type (0, 0), BuildingBlock: XUDNAN_clean_linker_2, # of connection points: 2
#     Edge 11, Type (0, 0), BuildingBlock: XUDNAN_clean_linker_2, # of connection points: 2
#     Edge 12, Type (0, 0), BuildingBlock: XUDNAN_clean_linker_2, # of connection points: 2
#     Edge 13, Type (0, 0), BuildingBlock: XUDNAN_clean_linker_2, # of connection points: 2
#     Edge 14, Type (0, 0), BuildingBlock: XUDNAN_clean_linker_2, # of connection points: 2
#     Edge 15, Type (0, 0), BuildingBlock: XUDNAN_clean_linker_2, # of connection points: 2
# Relax obj value: 0.444
# Max RMSD: 0.093
# Mean RMSD: 0.089
data_MOF--net-sxb--node1-PAMTOO_clean_sbu_0--edge1-XUDNAN_clean_linker_2
_symmetry_space_group_name_H-M    P1
_symmetry_Int_Tables_number       1
_symmetry_cell_setting            triclinic
loop_
_symmetry_equiv_pos_as_xyz
'x, y, z'
_cell_length_a     16.438514
_cell_length_b     34.369065
_cell_length_c     30.766968
_cell_angle_alpha  94.601085
_cell_angle_beta   98.746797
_cell_angle_gamma 68.179232
loop_
_atom_site_label
_atom_site_type_symbol
_atom_site_fract_x
_atom_site_fract_y
_atom_site_fract_z
_atom_type_partial_charge
Dy0 Dy 0.20435 1.07242 0.00776 0.0
Dy1 Dy 1.01202 1.07363 0.97422 0.0
C2 C 0.13571 1.0716 0.90592 0.0
O3 O 0.11692 0.14262 -0.00254 0.0
O4 O 0.97549 0.14402 -0.01428 0.0
O5 O 0.284 0.11106 0.02076 0.0
O6 O 0.34734 1.04389 0.0209 0.0
O7 O 1.01871 1.07105 0.04776 0.0
O8 O 0.1575 1.07295 0.07228 0.0
O9 O 0.10161 1.00335 0.97582 0.0
O10 O 0.23416 1.00234 0.01252 0.0
O11 O 0.86865 0.09746 0.96497 0.0
O12 O 0.9424 1.03985 0.93207 0.0
C13 C 1.03025 0.16442 -0.00785 0.0
O14 O 0.19958 1.05296 0.93658 0.0
O15 O 1.05717 0.09238 0.91677 0.0
C16 C 0.39276 0.08153 0.97455 0.0
C17 C 0.3952 0.09818 0.88627 0.0
C18 C 0.40138 1.05838 0.89795 0.0
C19 C 0.40028 1.05013 0.94145 0.0
C20 C 0.39585 0.11982 0.96387 0.0
C21 C 0.39734 0.12802 0.92029 0.0
C22 C 0.35553 1.07923 0.01464 0.0
C23 C 1.08158 1.07196 0.07979 0.0
C24 C 0.18393 0.98177 -0.00648 0.0
C25 C 0.82017 0.0882 0.88955 0.0
C26 C 0.72759 0.12036 0.80719 0.0
C27 C 0.6923 0.1371 0.84658 0.0
C28 C 0.73788 0.12107 0.88721 0.0
C29 C 0.85819 1.07312 0.85048 0.0
C30 C 0.81202 0.08886 0.80971 0.0
C31 C 0.86662 1.07061 0.93273 0.0
H32 H 0.40267 1.03396 0.87338 0.0
H33 H 0.39814 1.02012 0.9483 0.0
H34 H 0.39029 0.1446 -0.01134 0.0
H35 H 0.398 0.15826 0.91333 0.0
H36 H 0.62628 0.16056 0.84595 0.0
H37 H 0.7075 0.13355 0.91672 0.0
H38 H 0.9225 1.04826 0.85111 0.0
H39 H 0.84012 1.07486 0.77999 0.0
Dy40 Dy 1.07536 0.11911 0.49891 0.0
Dy41 Dy 0.1598 1.01997 0.49056 0.0
C42 C 0.09218 1.07494 0.40218 0.0
O43 O 0.95142 0.10293 0.49456 0.0
O44 O 1.00873 1.0315 0.49354 0.0
O45 O 0.96735 0.17669 0.48191 0.0
O46 O 1.0777 0.17743 0.53001 0.0
O47 O 0.19947 1.03747 0.56019 0.0
O48 O 1.07993 0.09662 0.56578 0.0
O49 O 0.28597 1.03509 0.48852 0.0
O50 O 0.2257 0.10634 0.49911 0.0
O51 O 0.20225 0.96102 0.52287 0.0
O52 O 0.21938 0.96191 0.45471 0.0
C53 C 0.93799 1.06722 0.49397 0.0
O54 O 1.07369 0.10967 0.42614 0.0
O55 O 0.12206 1.03788 0.41973 0.0
C56 C 1.00663 0.2351 0.48431 0.0
C57 C 1.02667 0.30239 0.44786 0.0
C58 C 1.0645 0.26154 0.43048 0.0
C59 C 1.05473 0.22804 0.44873 0.0
C60 C 0.96254 0.27602 0.49931 0.0
C61 C 0.97233 0.30963 0.48108 0.0
C62 C 1.00427 0.19976 0.50646 0.0
C63 C 0.14656 1.0657 0.58455 0.0
C64 C 0.29681 1.07175 0.49388 0.0
C65 C 0.17153 0.91068 0.47443 0.0
C66 C 1.0681 0.86258 0.44402 0.0
C67 C 1.03572 0.89816 0.47134 0.0
C68 C 1.08688 0.92176 0.4865 0.0
C69 C 0.20475 0.8752 0.44709 0.0
C70 C 0.15307 0.85114 0.43185 0.0
C71 C 0.21948 0.9391 0.48652 0.0
H72 H 0.10785 0.25496 0.4054 0.0
H73 H 0.0882 0.19645 0.43657 0.0
H74 H 0.92396 0.28178 0.52635 0.0
H75 H 0.94265 0.34088 0.49495 0.0
H76 H 0.96939 0.90858 0.48018 0.0
H77 H 1.05882 0.94942 0.50678 0.0
H78 H 0.26939 0.86681 0.43677 0.0
H79 H 0.17894 0.82401 0.41052 0.0
Dy80 Dy 0.69002 0.58324 0.00881 0.0
Dy81 Dy 0.51947 0.56284 0.97531 0.0
C82 C 0.625 0.57944 0.90378 0.0
O83 O 0.58004 0.64889 0.00704 0.0
O84 O 0.46696 0.63388 0.96596 0.0
O85 O 0.83033 0.57198 0.01939 0.0
O86 O 0.73827 0.62519 0.05097 0.0
O87 O 0.51362 0.58643 0.04521 0.0
O88 O 0.65902 0.55794 0.06631 0.0
O89 O 0.62651 0.49715 -0.01096 0.0
O90 O 0.75093 0.5127 -0.00562 0.0
O91 O 0.46086 0.51551 0.96978 0.0
O92 O 0.3785 0.57949 0.95504 0.0
C93 C 0.49902 0.66204 -0.01461 0.0
O94 O 0.67097 0.59344 0.93597 0.0
O95 O 0.57027 0.56168 0.91153 0.0
C96 C 0.86576 0.58459 0.09606 0.0
C97 C 0.94714 0.55418 0.1808 0.0
C98 C 0.97502 0.5305 0.14253 0.0
C99 C 0.93501 0.54552 0.1008 0.0
C100 C 0.83537 0.60761 0.13422 0.0
C101 C 0.87541 0.59252 0.17607 0.0
C102 C 0.82008 0.59969 0.05183 0.0
C103 C 0.57924 0.57313 0.07668 0.0
C104 C 0.71365 0.48426 -0.00831 0.0
C105 C 0.33748 0.54449 0.00614 0.0
C106 C 0.3176 0.53396 0.09384 0.0
C107 C 0.32209 0.57147 0.08111 0.0
C108 C 0.33066 0.57686 0.03789 0.0
C109 C 0.32654 0.50824 0.0175 0.0
C110 C 0.31544 0.50326 0.06068 0.0
C111 C 0.38137 0.54358 0.96753 0.0
H112 H 1.03176 0.5014 0.14453 0.0
H113 H 0.95946 0.52673 0.07226 0.0
H114 H 0.78118 0.63765 0.13181 0.0
H115 H 0.85306 0.61172 0.20474 0.0
H116 H 0.32285 0.59642 0.10453 0.0
H117 H 0.33894 0.6053 0.03033 0.0
H118 H 0.33207 0.48268 -0.0063 0.0
H119 H 0.30716 0.47478 0.06787 0.0
Dy120 Dy 0.53274 0.64735 0.48911 0.0
Dy121 Dy 0.61719 0.54939 0.48828 0.0
C122 C 0.56578 0.59667 0.39866 0.0
O123 O 0.4116 0.63136 0.50094 0.0
O124 O 0.46557 0.56257 0.47943 0.0
O125 O 0.42215 0.70169 0.46438 0.0
O126 O 0.53281 0.70952 0.5065 0.0
O127 O 0.6015 0.56446 0.5599 0.0
O128 O 0.56782 0.63546 0.56093 0.0
O129 O 0.74298 0.56512 0.49901 0.0
O130 O 0.6826 0.63396 0.48054 0.0
O131 O 0.69102 0.48949 0.51862 0.0
O132 O 0.64077 0.49247 0.44928 0.0
C133 C 0.39686 0.59606 0.48983 0.0
O134 O 0.50939 0.62664 0.41949 0.0
O135 O 0.62861 0.5668 0.42106 0.0
C136 C 0.47072 0.75331 0.44674 0.0
C137 C 0.54103 0.7965 0.3996 0.0
C138 C 0.54934 0.75521 0.387 0.0
C139 C 0.51472 0.73359 0.41072 0.0
C140 C 0.45036 0.79626 0.45487 0.0
C141 C 0.48436 0.81805 0.43082 0.0
C142 C 0.46113 0.72755 0.47963 0.0
C143 C 0.58865 0.60039 0.58147 0.0
C144 C 0.75525 0.59949 0.48982 0.0
C145 C 0.62679 0.44108 0.48765 0.0
C146 C 0.4938 0.40733 0.4726 0.0
C147 C 0.49116 0.43817 0.50578 0.0
C148 C 0.55707 0.45498 0.51319 0.0
C149 C 0.63445 0.40745 0.45761 0.0
C150 C 0.56821 0.39057 0.45012 0.0
C151 C 0.67418 0.46866 0.48327 0.0
H152 H 0.5926 0.73784 0.36313 0.0
H153 H 0.53028 0.70038 0.40384 0.0
H154 H 0.41554 0.81193 0.48229 0.0
H155 H 0.47632 0.85012 0.44067 0.0
H156 H 0.43458 0.45191 0.52354 0.0
H157 H 0.54898 0.48148 0.53599 0.0
H158 H 0.68746 0.39673 0.43732 0.0
H159 H 0.57275 0.36613 0.42505 0.0
H160 H 0.53702 0.73519 0.01807 0.0
H161 H 0.32565 0.69883 0.94784 0.0
H162 H 0.22759 0.77318 0.94354 0.0
H163 H 0.39698 0.82312 0.08142 0.0
H164 H 0.4576 0.85669 0.07767 0.0
H165 H 0.51301 0.80052 0.07573 0.0
H166 H 0.56402 0.80522 0.00166 0.0
H167 H 0.50886 0.8614 0.00341 0.0
H168 H 0.48304 0.83111 0.95649 0.0
H169 H 0.14764 0.8536 0.94668 0.0
H170 H 0.09627 0.93047 0.95553 0.0
H171 H 0.35483 0.92008 0.02312 0.0
C172 C 0.47013 0.7427 0.00169 0.0
C173 C 0.44081 0.70949 -0.01677 0.0
C174 C 0.35187 0.72223 0.9623 0.0
C175 C 0.29479 0.765 0.9597 0.0
C176 C 0.32543 0.7965 0.97803 0.0
C177 C 0.41135 0.78598 -0.00142 0.0
C178 C 0.42694 0.82659 0.0152 0.0
C179 C 0.45004 0.82673 0.0655 0.0
C180 C 0.5001 0.83135 -0.00713 0.0
C181 C 0.33683 0.86137 0.00095 0.0
C182 C 0.27946 0.84294 0.97959 0.0
C183 C 0.19268 0.86796 0.96338 0.0
C184 C 0.16367 0.91227 0.9687 0.0
C185 C 0.21986 0.93304 -0.00981 0.0
C186 C 0.30858 0.90634 0.00657 0.0
H187 H 0.66928 0.41003 -0.01728 0.0
H188 H 0.89564 0.44856 0.00285 0.0
H189 H 0.99534 0.37447 0.00503 0.0
H190 H 0.76722 0.31882 0.05388 0.0
H191 H 0.71984 0.28595 0.01883 0.0
H192 H 0.66432 0.34212 0.01868 0.0
H193 H 0.66446 0.34132 0.93472 0.0
H194 H 0.71998 0.28514 0.93464 0.0
H195 H 0.76745 0.31746 0.91224 0.0
H196 H 1.07548 0.29382 0.00542 0.0
H197 H 0.12576 0.21664 0.00355 0.0
H198 H 0.85271 0.22525 -0.01729 0.0
C199 C 0.73982 0.40305 -0.01241 0.0
C200 C 0.77279 0.43684 -0.00743 0.0
C201 C 0.86649 0.42475 -0.0012 0.0
C202 C 0.92457 0.38211 0.00014 0.0
C203 C 0.89031 0.35003 -0.00486 0.0
C204 C 0.79983 0.3599 -0.01111 0.0
C205 C 0.78121 0.31879 -0.01578 0.0
C206 C 0.73008 0.31628 0.02109 0.0
C207 C 0.73021 0.31549 0.93875 0.0
C208 C 0.87475 0.28451 -0.01104 0.0
C209 C 0.9365 0.30355 -0.00477 0.0
C210 C 1.027 0.27898 0.00048 0.0
C211 C 1.05535 0.23451 -0.00064 0.0
C212 C 0.99478 0.21319 -0.00701 0.0
C213 C 0.9023 0.23943 -0.01231 0.0
H214 H 0.09401 0.34596 0.50935 0.0
H215 H 1.04915 0.32568 0.36837 0.0
H216 H 0.15399 0.35951 0.35842 0.0
H217 H 0.14419 0.44554 0.50925 0.0
H218 H 0.22882 0.42749 0.5555 0.0
H219 H 0.13157 0.41402 0.54991 0.0
H220 H 0.23242 0.33555 0.55519 0.0
H221 H 0.32968 0.34833 0.55902 0.0
H222 H 0.30986 0.31277 0.51611 0.0
H223 H 0.28453 0.3816 0.36553 0.0
H224 H 0.42178 0.39572 0.38842 0.0
H225 H 0.38672 0.39505 0.52534 0.0
C226 C 0.10192 0.351 0.47619 0.0
C227 C 1.06266 0.33401 0.43954 0.0
C228 C 1.07798 0.33917 0.39673 0.0
C229 C 0.13742 0.35822 0.39086 0.0
C230 C 0.18033 0.3718 0.42816 0.0
C231 C 0.16212 0.36901 0.47 0.0
C232 C 0.22688 0.37897 0.50513 0.0
C233 C 0.18006 0.41889 0.53152 0.0
C234 C 0.27766 0.34168 0.5356 0.0
C235 C 0.28659 0.38613 0.47667 0.0
C236 C 0.2581 0.38261 0.43241 0.0
C237 C 0.30656 0.38517 0.40008 0.0
C238 C 0.38517 0.39242 0.41343 0.0
C239 C 0.41489 0.39635 0.45872 0.0
C240 C 0.36492 0.39288 0.49051 0.0
H241 H 0.97065 0.83946 0.49204 0.0
H242 H 1.02903 0.83692 0.35894 0.0
H243 H 0.89887 0.81767 0.33069 0.0
H244 H 0.86658 0.7604 0.48098 0.0
H245 H 0.78597 0.79194 0.51554 0.0
H246 H 0.895 0.79414 0.52344 0.0
H247 H 0.82148 0.87514 0.51505 0.0
H248 H 0.71307 0.87241 0.5044 0.0
H249 H 0.75047 0.89587 0.46506 0.0
H250 H 0.7511 0.80538 0.31785 0.0
H251 H 0.60778 0.79792 0.32254 0.0
H252 H 0.64306 0.8208 0.46354 0.0
C253 C 0.95765 0.8336 0.45701 0.0
C254 C 1.00921 0.83964 0.42759 0.0
C255 C 0.9905 0.83185 0.382 0.0
C256 C 0.91631 0.82141 0.36572 0.0
C257 C 0.86212 0.8194 0.39561 0.0
C258 C 0.88274 0.82505 0.44037 0.0
C259 C 0.80963 0.8271 0.46557 0.0
C260 C 0.84119 0.79126 0.49831 0.0
C261 C 0.77148 0.87017 0.48888 0.0
C262 C 0.74449 0.8213 0.42816 0.0
C263 C 0.77541 0.81648 0.38799 0.0
C264 C 0.72612 0.80939 0.34914 0.0
C265 C 0.64466 0.80569 0.35195 0.0
C266 C 0.61334 0.81009 0.39318 0.0
C267 C 0.66341 0.81889 0.43131 0.0
H268 H 0.46563 1.04469 0.81925 0.0
H269 H 0.31186 0.17465 0.84637 0.0
H270 H 0.34825 0.19443 0.77953 0.0
H271 H 0.62367 1.03519 0.80165 0.0
H272 H 0.65061 1.00787 0.74998 0.0
H273 H 0.56634 1.0018 0.77584 0.0
H274 H 0.45645 1.02486 0.70633 0.0
H275 H 0.54108 1.03106 0.67957 0.0
H276 H 0.43673 1.0737 0.68144 0.0
H277 H 0.46217 0.20303 0.74697 0.0
H278 H 0.61514 0.19567 0.77127 0.0
H279 H 0.69917 1.06223 0.75014 0.0
C280 C 0.43458 1.07691 0.80949 0.0
C281 C 0.3902 0.10819 0.83933 0.0
C282 C 0.35063 0.15009 0.82543 0.0
C283 C 0.36897 0.16154 0.78651 0.0
C284 C 0.42496 0.13069 0.76089 0.0
C285 C 0.45152 0.08847 0.77004 0.0
C286 C 0.52592 1.06263 0.74423 0.0
C287 C 0.59582 1.0248 0.76961 0.0
C288 C 0.48775 1.04723 0.70031 0.0
C289 C 0.55941 0.09666 0.73588 0.0
C290 C 0.49283 0.13615 0.73899 0.0
C291 C 0.51353 0.17243 0.74455 0.0
C292 C 0.60144 0.16819 0.75824 0.0
C293 C 0.66649 0.12792 0.76531 0.0
C294 C 0.64816 0.09303 0.74608 0.0
H295 H 0.47579 1.00901 0.48734 0.0
H296 H 0.33796 0.14325 0.50159 0.0
H297 H 0.47835 0.15383 0.50303 0.0
H298 H 0.68254 1.00465 0.55914 0.0
H299 H 0.75681 0.96598 0.52602 0.0
H300 H 0.64609 0.96719 0.52565 0.0
H301 H 0.61842 0.97321 0.44154 0.0
H302 H 0.72891 0.97219 0.44147 0.0
H303 H 0.63526 1.01495 0.41677 0.0
H304 H 0.63687 0.15202 0.50288 0.0
H305 H 0.79302 0.1388 0.50159 0.0
H306 H 0.84765 1.005 0.48792 0.0
C307 C 0.47453 1.0408 0.49075 0.0
C308 C 0.39073 1.07535 0.49431 0.0
C309 C 0.39704 0.11581 0.49874 0.0
C310 C 0.47823 0.12227 0.49961 0.0
C311 C 0.55784 0.08821 0.49612 0.0
C312 C 0.55718 1.048 0.49178 0.0
C313 C 0.65421 1.01725 0.48875 0.0
C314 C 0.68684 0.98695 0.52717 0.0
C315 C 0.6595 0.99293 0.4445 0.0
C316 C 0.70892 1.04629 0.49205 0.0
C317 C 0.65042 0.08713 0.49621 0.0
C318 C 0.68216 0.12 0.49963 0.0
C319 C 0.77345 0.11183 0.4988 0.0
C320 C 0.83856 1.07069 0.49463 0.0
C321 C 0.80335 1.0372 0.49125 0.0
H322 H 1.00234 0.60722 0.23527 0.0
H323 H 1.03162 0.47758 0.2212 0.0
H324 H 0.19109 0.45644 0.2407 0.0
H325 H 0.08962 0.61851 0.17666 0.0
H326 H 0.16385 0.64537 0.19787 0.0
H327 H 1.0744 0.65039 0.22669 0.0
H328 H 0.1835 0.62465 0.2969 0.0
H329 H 0.27333 0.61975 0.26709 0.0
H330 H 0.27614 0.57579 0.29618 0.0
H331 H 0.31378 0.45005 0.20429 0.0
H332 H 0.36613 0.45922 0.13724 0.0
H333 H 0.25726 0.5939 0.15857 0.0
C334 C 1.04303 0.5745 0.23966 0.0
C335 C 1.00763 0.544 0.22291 0.0
C336 C 1.05887 0.5016 0.23163 0.0
C337 C 0.1505 0.4894 0.24251 0.0
C338 C 0.18806 0.52012 0.24442 0.0
C339 C 0.13537 0.56267 0.24686 0.0
C340 C 0.184 0.58922 0.23445 0.0
C341 C 0.1243 0.62799 0.20714 0.0
C342 C 0.23213 0.6031 0.27612 0.0
C343 C 0.25059 0.55637 0.20895 0.0
C344 C 0.26066 0.51643 0.2203 0.0
C345 C 0.30655 0.48121 0.19576 0.0
C346 C 0.33367 0.48686 0.15654 0.0
C347 C 0.31173 0.5276 0.14082 0.0
C348 C 0.27568 0.56232 0.1692 0.0
H349 H 0.21541 0.65862 0.49184 0.0
H350 H 0.35772 0.52426 0.48623 0.0
H351 H 0.21826 0.51292 0.48565 0.0
H352 H 1.05003 0.65894 0.56062 0.0
H353 H 0.95668 0.69855 0.53131 0.0
H354 H 1.06665 0.69833 0.53155 0.0
H355 H 1.0451 0.69683 0.44772 0.0
H356 H 0.93595 0.69518 0.44489 0.0
H357 H 1.01866 0.65494 0.41757 0.0
H358 H 1.05863 0.51448 0.48639 0.0
H359 H 0.90202 0.5276 0.48737 0.0
H360 H 0.84388 0.66162 0.48906 0.0
C361 C 0.21793 0.62665 0.49069 0.0
C362 C 0.30292 0.59227 0.48958 0.0
C363 C 0.29783 0.55157 0.48743 0.0
C364 C 0.21709 0.5447 0.48704 0.0
C365 C 0.13629 0.57862 0.48819 0.0
C366 C 0.13558 0.61905 0.48961 0.0
C367 C 1.03735 0.64962 0.48911 0.0
C368 C 1.02707 0.67809 0.5306 0.0
C369 C 1.00753 0.67576 0.4474 0.0
C370 C 0.98375 0.62034 0.48845 0.0
C371 C 1.04354 0.57947 0.48778 0.0
C372 C 1.01255 0.5465 0.48719 0.0
C373 C 0.92103 0.5546 0.48773 0.0
C374 C 0.85476 0.59579 0.48842 0.0
C375 C 0.88905 0.62935 0.48847 0.0
H376 H 0.20485 1.03594 0.34074 0.0
H377 H 0.93872 0.12176 0.35416 0.0
H378 H 0.9047 0.12723 0.27313 0.0
H379 H 0.23276 0.09211 0.25319 0.0
H380 H 0.29857 1.04557 0.22515 0.0
H381 H 0.29985 1.04588 0.28381 0.0
H382 H 0.25434 0.9809 0.27541 0.0
H383 H 0.25254 0.98049 0.21667 0.0
H384 H 0.15587 0.98273 0.23923 0.0
H385 H 0.8981 0.12118 0.19015 0.0
H386 H 0.92506 0.11235 0.11235 0.0
H387 H 0.20021 1.03693 0.15254 0.0
C388 C 0.13932 1.05559 0.32643 0.0
C389 C 1.07383 1.07805 0.35356 0.0
C390 C 0.9895 0.10421 0.33387 0.0
C391 C 0.96956 0.10735 0.2879 0.0
C392 C 1.03536 0.08486 0.26194 0.0
C393 C 0.11912 1.06012 0.28051 0.0
C394 C 0.17957 1.04177 0.24528 0.0
C395 C 0.25727 1.05727 0.25228 0.0
C396 C 0.21251 0.99361 0.24409 0.0
C397 C 0.11668 1.0598 0.20406 0.0
C398 C 1.03334 0.0839 0.21438 0.0
C399 C 0.96332 0.10269 0.18177 0.0
C400 C 0.97911 0.09732 0.13761 0.0
C401 C 1.06469 1.07416 0.12632 0.0
C402 C 0.13419 1.0551 0.16016 0.0
H403 H 1.0316 0.11662 0.83326 0.0
H404 H 0.27563 1.01288 0.87209 0.0
H405 H 0.30819 1.00301 0.79561 0.0
H406 H 0.97386 1.07036 0.73086 0.0
H407 H 0.92955 0.11837 0.70089 0.0
H408 H 0.92689 0.11993 0.7593 0.0
H409 H 1.01072 0.17102 0.77112 0.0
H410 H 1.01332 0.17029 0.71271 0.0
H411 H 0.11479 0.15706 0.75013 0.0
H412 H 0.31349 1.0026 0.7148 0.0
H413 H 0.28869 1.01037 0.63437 0.0
H414 H 1.03972 0.11331 0.64575 0.0
C415 C 0.09204 0.09199 0.82565 0.0
C416 C 0.15224 1.06617 0.8591 0.0
C417 C 0.22976 1.03387 0.84747 0.0
C418 C 0.24866 1.02781 0.80396 0.0
C419 C 0.18884 1.05396 0.77192 0.0
C420 C 0.11185 0.08531 0.78203 0.0
C421 C 1.0577 0.10809 0.74079 0.0
C422 C 0.96662 0.10391 0.73247 0.0
C423 C 1.04862 0.15436 0.74388 0.0
C424 C 0.11551 0.08408 0.70598 0.0
C425 C 0.19122 1.05326 0.72485 0.0
C426 C 0.25443 1.02664 0.69962 0.0
C427 C 0.23964 1.03129 0.65384 0.0
C428 C 0.16218 1.06235 0.63342 0.0
C429 C 0.09975 0.08928 0.66016 0.0
H430 H 0.68287 0.54909 0.34056 0.0
H431 H 0.42183 0.64488 0.34533 0.0
H432 H 0.39832 0.64755 0.26479 0.0
H433 H 0.7359 0.59307 0.25022 0.0
H434 H 0.79329 0.54297 0.22518 0.0
H435 H 0.79022 0.54748 0.28368 0.0
H436 H 0.72426 0.48914 0.27779 0.0
H437 H 0.7268 0.48492 0.21921 0.0
H438 H 0.62451 0.49515 0.24069 0.0
H439 H 0.40083 0.64135 0.18455 0.0
H440 H 0.43206 0.6279 0.10794 0.0
H441 H 0.69113 0.53616 0.15155 0.0
C442 C 0.62068 0.57042 0.32458 0.0
C443 C 0.5542 0.59673 0.34963 0.0
C444 C 0.47404 0.62444 0.32727 0.0
C445 C 0.45973 0.62615 0.28134 0.0
C446 C 0.52615 0.60009 0.25771 0.0
C447 C 0.60532 0.57284 0.27829 0.0
C448 C 0.66605 0.54914 0.2444 0.0
C449 C 0.7514 0.55876 0.2513 0.0
C450 C 0.6866 0.50178 0.2456 0.0
C451 C 0.60848 0.56756 0.20186 0.0
C452 C 0.52792 0.5967 0.2106 0.0
C453 C 0.46344 0.61838 0.17723 0.0
C454 C 0.48153 0.61021 0.13369 0.0
C455 C 0.56302 0.58028 0.12346 0.0
C456 C 0.62774 0.55891 0.15822 0.0
H457 H 0.56537 0.54838 0.63942 0.0
H458 H 0.64095 0.6561 0.63476 0.0
H459 H 0.66408 0.66017 0.71576 0.0
H460 H 0.44244 0.58781 0.73155 0.0
H461 H 0.47481 0.53727 0.75565 0.0
H462 H 0.46884 0.54096 0.69709 0.0
H463 H 0.63144 0.48976 0.70028 0.0
H464 H 0.63798 0.486 0.75889 0.0
H465 H 0.71638 0.50161 0.73681 0.0
H466 H 0.68205 0.65228 0.79726 0.0
H467 H 0.67994 0.63716 0.87401 0.0
H468 H 0.58285 0.53766 0.82788 0.0
C469 C 0.58733 0.57261 0.65554 0.0
C470 C 0.60176 0.60182 0.63055 0.0
C471 C 0.62917 0.63345 0.65298 0.0
C472 C 0.64295 0.63591 0.6991 0.0
C473 C 0.62796 0.60688 0.72276 0.0
C474 C 0.5997 0.57611 0.70188 0.0
C475 C 0.58413 0.5503 0.73549 0.0
C476 C 0.48676 0.55434 0.72959 0.0
C477 C 0.64619 0.50418 0.73269 0.0
C478 C 0.60801 0.57142 0.77832 0.0
C479 C 0.63437 0.60358 0.77008 0.0
C480 C 0.66117 0.62728 0.80412 0.0
C481 C 0.6601 0.61831 0.84773 0.0
C482 C 0.63111 0.58629 0.85725 0.0
C483 C 0.60498 0.56249 0.82183 0.0
loop_
_geom_bond_atom_site_label_1
_geom_bond_atom_site_label_2
_geom_bond_distance
_geom_bond_site_symmetry_2
_ccdc_geom_bond_type
Dy0 O3 2.307 1_455 S
Dy0 O5 2.395 1_554 S
Dy0 O6 2.379 . S
Dy0 O8 2.339 . S
Dy0 O10 2.298 1_545 S
Dy0 O14 2.275 1_554 S
Dy0 C22 2.738 . S
Dy1 O4 2.298 1_565 S
Dy1 O7 2.275 1_556 S
Dy1 O9 2.307 1_655 S
Dy1 O11 2.395 1_556 S
Dy1 O12 2.379 . S
Dy1 O15 2.339 . S
Dy1 C31 2.738 1_565 S
C2 O14 1.254 1_665 S
C2 O15 1.257 . S
O3 Dy0 2.307 1_655 S
O3 C13 1.270 . S
O4 Dy1 2.298 1_545 S
O4 C13 1.228 1_556 S
O5 Dy0 2.395 1_556 S
O5 C22 1.253 1_556 S
O6 Dy0 2.379 . S
O6 C22 1.252 . S
O7 Dy1 2.275 1_554 S
O7 C23 1.254 1_665 S
O8 Dy0 2.339 . S
O8 C23 1.257 . S
O9 Dy1 2.307 1_455 S
O9 C24 1.269 . S
O10 Dy0 2.298 1_565 S
O10 C24 1.230 1_554 S
O11 Dy1 2.395 1_554 S
O11 C31 1.257 1_564 S
O12 Dy1 2.379 . S
O12 C31 1.248 1_565 S
C13 O3 1.270 . S
C13 O4 1.228 1_554 S
O14 Dy0 2.275 1_556 S
O14 C2 1.254 1_445 S
O15 Dy1 2.339 . S
O15 C2 1.257 . S
C16 C19 1.344 1_554 S
C16 C20 1.328 . S
C16 C22 1.516 1_565 S
C17 C18 1.304 1_554 S
C17 C21 1.323 . S
C18 C17 1.304 1_556 S
C18 C19 1.371 . S
C18 H32 0.930 . S
C19 C16 1.344 1_556 S
C19 C18 1.371 . S
C19 H33 0.931 . S
C20 C16 1.328 . S
C20 C21 1.433 . S
C20 H34 0.931 1_565 S
C21 C17 1.323 . S
C21 C20 1.433 . S
C21 H35 0.933 . S
C22 Dy0 2.738 . S
C22 O5 1.253 1_554 S
C22 O6 1.252 . S
C22 C16 1.516 1_545 S
C23 O7 1.254 1_445 S
C23 O8 1.257 . S
C24 O9 1.269 . S
C24 O10 1.230 1_556 S
C25 C28 1.344 1_556 S
C25 C29 1.328 . S
C25 C31 1.515 . S
C26 C27 1.304 1_556 S
C26 C30 1.323 . S
C27 C26 1.304 1_554 S
C27 C28 1.371 . S
C27 H36 0.930 . S
C28 C25 1.344 1_554 S
C28 C27 1.371 . S
C28 H37 0.931 . S
C29 C25 1.328 . S
C29 C30 1.433 . S
C29 H38 0.931 1_545 S
C30 C26 1.323 . S
C30 C29 1.433 . S
C30 H39 0.933 . S
C31 Dy1 2.738 1_545 S
C31 O11 1.257 1_546 S
C31 O12 1.248 1_545 S
C31 C25 1.515 . S
H32 C18 0.930 . S
H33 C19 0.931 . S
H34 C20 0.931 1_545 S
H35 C21 0.933 . S
H36 C27 0.930 . S
H37 C28 0.931 . S
H38 C29 0.931 1_565 S
H39 C30 0.933 . S
Dy40 O43 2.307 . S
Dy40 O45 2.395 1_655 S
Dy40 O46 2.379 1_655 S
Dy40 O48 2.339 . S
Dy40 O50 2.298 1_655 S
Dy40 O54 2.275 . S
Dy40 C62 2.738 1_655 S
Dy41 O44 2.298 1_455 S
Dy41 O47 2.275 . S
Dy41 O49 2.307 . S
Dy41 O51 2.395 1_455 S
Dy41 O52 2.379 1_455 S
Dy41 O55 2.339 . S
Dy41 C71 2.738 1_455 S
C42 O54 1.254 1_565 S
C42 O55 1.257 1_655 S
O43 Dy40 2.307 . S
O43 C53 1.266 . S
O44 Dy41 2.298 1_655 S
O44 C53 1.236 1_565 S
O45 Dy40 2.395 1_455 S
O45 C62 1.255 . S
O46 Dy40 2.379 1_455 S
O46 C62 1.249 . S
O47 Dy41 2.275 . S
O47 C63 1.254 1_565 S
O48 Dy40 2.339 . S
O48 C63 1.257 1_655 S
O49 Dy41 2.307 . S
O49 C64 1.266 . S
O50 Dy40 2.298 1_455 S
O50 C64 1.236 1_545 S
O51 Dy41 2.395 1_655 S
O51 C71 1.255 . S
O52 Dy41 2.379 1_655 S
O52 C71 1.249 . S
C53 O43 1.266 . S
C53 O44 1.236 1_545 S
O54 Dy40 2.275 . S
O54 C42 1.254 1_545 S
O55 Dy41 2.339 . S
O55 C42 1.257 1_455 S
C56 C59 1.344 . S
C56 C60 1.328 . S
C56 C62 1.516 . S
C57 C58 1.304 . S
C57 C61 1.323 . S
C58 C57 1.304 . S
C58 C59 1.371 . S
C58 H72 0.930 . S
C59 C56 1.344 . S
C59 C58 1.371 . S
C59 H73 0.931 . S
C60 C56 1.328 . S
C60 C61 1.433 . S
C60 H74 0.931 . S
C61 C57 1.323 . S
C61 C60 1.433 . S
C61 H75 0.933 . S
C62 Dy40 2.738 1_455 S
C62 O45 1.255 . S
C62 O46 1.249 . S
C62 C56 1.516 . S
C63 O47 1.254 1_545 S
C63 O48 1.257 1_455 S
C64 O49 1.266 . S
C64 O50 1.236 1_565 S
C65 C68 1.344 . S
C65 C69 1.328 . S
C65 C71 1.516 . S
C66 C67 1.304 . S
C66 C70 1.323 . S
C67 C66 1.304 . S
C67 C68 1.371 . S
C67 H76 0.930 . S
C68 C65 1.344 . S
C68 C67 1.371 . S
C68 H77 0.931 . S
C69 C65 1.328 . S
C69 C70 1.433 . S
C69 H78 0.931 . S
C70 C66 1.323 . S
C70 C69 1.433 . S
C70 H79 0.933 . S
C71 Dy41 2.738 1_655 S
C71 O51 1.255 . S
C71 O52 1.249 . S
C71 C65 1.516 . S
H72 C58 0.930 . S
H73 C59 0.931 . S
H74 C60 0.931 . S
H75 C61 0.933 . S
H76 C67 0.930 . S
H77 C68 0.931 . S
H78 C69 0.931 . S
H79 C70 0.933 . S
Dy80 O83 2.307 . S
Dy80 O85 2.395 1_554 S
Dy80 O86 2.379 . S
Dy80 O88 2.339 . S
Dy80 O90 2.298 . S
Dy80 O94 2.275 1_554 S
Dy80 C102 2.738 . S
Dy81 O84 2.298 . S
Dy81 O87 2.275 1_556 S
Dy81 O89 2.307 . S
Dy81 O91 2.395 1_556 S
Dy81 O92 2.379 . S
Dy81 O95 2.339 . S
Dy81 C111 2.738 . S
C82 O94 1.254 . S
C82 O95 1.257 . S
O83 Dy80 2.307 . S
O83 C93 1.270 . S
O84 Dy81 2.298 . S
O84 C93 1.228 1_556 S
O85 Dy80 2.395 1_556 S
O85 C102 1.255 1_556 S
O86 Dy80 2.379 . S
O86 C102 1.249 . S
O87 Dy81 2.275 1_554 S
O87 C103 1.254 . S
O88 Dy80 2.339 . S
O88 C103 1.257 . S
O89 Dy81 2.307 . S
O89 C104 1.269 . S
O90 Dy80 2.298 . S
O90 C104 1.230 1_554 S
O91 Dy81 2.395 1_554 S
O91 C111 1.255 1_554 S
O92 Dy81 2.379 . S
O92 C111 1.249 . S
C93 O83 1.270 . S
C93 O84 1.228 1_554 S
O94 Dy80 2.275 1_556 S
O94 C82 1.254 . S
O95 Dy81 2.339 . S
O95 C82 1.257 . S
C96 C99 1.344 1_554 S
C96 C100 1.328 . S
C96 C102 1.516 . S
C97 C98 1.304 1_554 S
C97 C101 1.323 . S
C98 C97 1.304 1_556 S
C98 C99 1.371 . S
C98 H112 0.930 . S
C99 C96 1.344 1_556 S
C99 C98 1.371 . S
C99 H113 0.931 . S
C100 C96 1.328 . S
C100 C101 1.433 . S
C100 H114 0.931 . S
C101 C97 1.323 . S
C101 C100 1.433 . S
C101 H115 0.933 . S
C102 Dy80 2.738 . S
C102 O85 1.255 1_554 S
C102 O86 1.249 . S
C102 C96 1.516 . S
C103 O87 1.254 . S
C103 O88 1.257 . S
C104 O89 1.269 . S
C104 O90 1.230 1_556 S
C105 C108 1.344 1_556 S
C105 C109 1.328 . S
C105 C111 1.516 . S
C106 C107 1.304 1_556 S
C106 C110 1.323 . S
C107 C106 1.304 1_554 S
C107 C108 1.371 . S
C107 H116 0.930 . S
C108 C105 1.344 1_554 S
C108 C107 1.371 . S
C108 H117 0.931 . S
C109 C105 1.328 . S
C109 C110 1.433 . S
C109 H118 0.931 . S
C110 C106 1.323 . S
C110 C109 1.433 . S
C110 H119 0.933 . S
C111 Dy81 2.738 . S
C111 O91 1.255 1_556 S
C111 O92 1.249 . S
C111 C105 1.516 . S
H112 C98 0.930 . S
H113 C99 0.931 . S
H114 C100 0.931 . S
H115 C101 0.933 . S
H116 C107 0.930 . S
H117 C108 0.931 . S
H118 C109 0.931 . S
H119 C110 0.933 . S
Dy120 O123 2.307 . S
Dy120 O125 2.395 . S
Dy120 O126 2.379 . S
Dy120 O128 2.339 . S
Dy120 O130 2.298 . S
Dy120 O134 2.275 . S
Dy120 C142 2.738 . S
Dy121 O124 2.298 . S
Dy121 O127 2.275 . S
Dy121 O129 2.307 . S
Dy121 O131 2.395 . S
Dy121 O132 2.379 . S
Dy121 O135 2.339 . S
Dy121 C151 2.738 . S
C122 O134 1.254 . S
C122 O135 1.257 . S
O123 Dy120 2.307 . S
O123 C133 1.266 . S
O124 Dy121 2.298 . S
O124 C133 1.236 . S
O125 Dy120 2.395 . S
O125 C142 1.255 . S
O126 Dy120 2.379 . S
O126 C142 1.249 . S
O127 Dy121 2.275 . S
O127 C143 1.254 . S
O128 Dy120 2.339 . S
O128 C143 1.257 . S
O129 Dy121 2.307 . S
O129 C144 1.266 . S
O130 Dy120 2.298 . S
O130 C144 1.236 . S
O131 Dy121 2.395 . S
O131 C151 1.255 . S
O132 Dy121 2.379 . S
O132 C151 1.249 . S
C133 O123 1.266 . S
C133 O124 1.236 . S
O134 Dy120 2.275 . S
O134 C122 1.254 . S
O135 Dy121 2.339 . S
O135 C122 1.257 . S
C136 C139 1.344 . S
C136 C140 1.328 . S
C136 C142 1.516 . S
C137 C138 1.304 . S
C137 C141 1.323 . S
C138 C137 1.304 . S
C138 C139 1.371 . S
C138 H152 0.930 . S
C139 C136 1.344 . S
C139 C138 1.371 . S
C139 H153 0.931 . S
C140 C136 1.328 . S
C140 C141 1.433 . S
C140 H154 0.931 . S
C141 C137 1.323 . S
C141 C140 1.433 . S
C141 H155 0.933 . S
C142 Dy120 2.738 . S
C142 O125 1.255 . S
C142 O126 1.249 . S
C142 C136 1.516 . S
C143 O127 1.254 . S
C143 O128 1.257 . S
C144 O129 1.266 . S
C144 O130 1.236 . S
C145 C148 1.344 . S
C145 C149 1.328 . S
C145 C151 1.516 . S
C146 C147 1.304 . S
C146 C150 1.323 . S
C147 C146 1.304 . S
C147 C148 1.371 . S
C147 H156 0.930 . S
C148 C145 1.344 . S
C148 C147 1.371 . S
C148 H157 0.931 . S
C149 C145 1.328 . S
C149 C150 1.433 . S
C149 H158 0.931 . S
C150 C146 1.323 . S
C150 C149 1.433 . S
C150 H159 0.933 . S
C151 Dy121 2.738 . S
C151 O131 1.255 . S
C151 O132 1.249 . S
C151 C145 1.516 . S
H152 C138 0.930 . S
H153 C139 0.931 . S
H154 C140 0.931 . S
H155 C141 0.933 . S
H156 C147 0.930 . S
H157 C148 0.931 . S
H158 C149 0.931 . S
H159 C150 0.933 . S
H160 C172 0.930 . S
H161 C174 0.930 . S
H162 C175 0.930 . S
H163 C179 0.959 . S
H164 C179 0.959 . S
H165 C179 0.961 . S
H166 C180 0.960 . S
H167 C180 0.961 . S
H168 C180 0.959 . S
H169 C183 0.929 . S
H170 C184 0.931 . S
H171 C186 0.930 . S
C172 H160 0.930 . S
C172 C173 1.399 1_554 S
C172 C177 1.399 . S
C173 C172 1.399 1_556 S
C173 C174 1.376 . S
C174 H161 0.930 . S
C174 C173 1.376 . S
C174 C175 1.388 . S
C175 H162 0.930 . S
C175 C174 1.388 . S
C175 C176 1.390 . S
C176 C175 1.390 . S
C176 C177 1.394 1_556 S
C176 C182 1.465 . S
C177 C172 1.399 . S
C177 C176 1.394 1_554 S
C177 C178 1.516 . S
C178 C177 1.516 . S
C178 C179 1.502 . S
C178 C180 1.561 . S
C178 C181 1.526 . S
C179 H163 0.959 . S
C179 H164 0.959 . S
C179 H165 0.961 . S
C179 C178 1.502 . S
C180 H166 0.960 . S
C180 H167 0.961 . S
C180 H168 0.959 . S
C180 C178 1.561 . S
C181 C178 1.526 . S
C181 C182 1.396 1_554 S
C181 C186 1.390 . S
C182 C176 1.465 . S
C182 C181 1.396 1_556 S
C182 C183 1.399 . S
C183 H169 0.929 . S
C183 C182 1.399 . S
C183 C184 1.385 . S
C184 H170 0.931 . S
C184 C183 1.385 . S
C184 C185 1.389 . S
C185 C184 1.389 . S
C185 C186 1.387 1_556 S
C186 H171 0.930 . S
C186 C181 1.390 . S
C186 C185 1.387 1_554 S
H187 C199 0.930 . S
H188 C201 0.930 . S
H189 C202 0.930 . S
H190 C206 0.959 . S
H191 C206 0.959 . S
H192 C206 0.961 . S
H193 C207 0.960 . S
H194 C207 0.961 . S
H195 C207 0.959 . S
H196 C210 0.929 . S
H197 C211 0.931 . S
H198 C213 0.930 . S
C199 H187 0.930 . S
C199 C200 1.399 1_556 S
C199 C204 1.399 . S
C200 C199 1.399 1_554 S
C200 C201 1.376 . S
C201 H188 0.930 . S
C201 C200 1.376 . S
C201 C202 1.388 . S
C202 H189 0.930 . S
C202 C201 1.388 . S
C202 C203 1.390 . S
C203 C202 1.390 . S
C203 C204 1.394 1_554 S
C203 C209 1.465 . S
C204 C199 1.399 . S
C204 C203 1.394 1_556 S
C204 C205 1.516 . S
C205 C204 1.516 . S
C205 C206 1.502 . S
C205 C207 1.561 . S
C205 C208 1.526 . S
C206 H190 0.959 . S
C206 H191 0.959 . S
C206 H192 0.961 . S
C206 C205 1.502 . S
C207 H193 0.960 . S
C207 H194 0.961 . S
C207 H195 0.959 . S
C207 C205 1.561 . S
C208 C205 1.526 . S
C208 C209 1.396 1_556 S
C208 C213 1.390 . S
C209 C203 1.465 . S
C209 C208 1.396 1_554 S
C209 C210 1.399 . S
C210 H196 0.929 . S
C210 C209 1.399 . S
C210 C211 1.385 . S
C211 H197 0.931 . S
C211 C210 1.385 . S
C211 C212 1.389 . S
C212 C211 1.389 . S
C212 C213 1.387 1_554 S
C213 H198 0.930 . S
C213 C208 1.390 . S
C213 C212 1.387 1_556 S
H214 C226 0.930 . S
H215 C228 0.930 . S
H216 C229 0.930 . S
H217 C233 0.959 . S
H218 C233 0.959 . S
H219 C233 0.961 . S
H220 C234 0.960 . S
H221 C234 0.961 . S
H222 C234 0.959 . S
H223 C237 0.929 . S
H224 C238 0.931 . S
H225 C240 0.930 . S
C226 H214 0.930 . S
C226 C227 1.399 . S
C226 C231 1.399 . S
C227 C226 1.399 . S
C227 C228 1.376 . S
C228 H215 0.930 . S
C228 C227 1.376 . S
C228 C229 1.388 . S
C229 H216 0.930 . S
C229 C228 1.388 . S
C229 C230 1.390 . S
C230 C229 1.390 . S
C230 C231 1.394 . S
C230 C236 1.465 . S
C231 C226 1.399 . S
C231 C230 1.394 . S
C231 C232 1.516 . S
C232 C231 1.516 . S
C232 C233 1.502 . S
C232 C234 1.561 . S
C232 C235 1.526 . S
C233 H217 0.959 . S
C233 H218 0.959 . S
C233 H219 0.961 . S
C233 C232 1.502 . S
C234 H220 0.960 . S
C234 H221 0.961 . S
C234 H222 0.959 . S
C234 C232 1.561 . S
C235 C232 1.526 . S
C235 C236 1.396 . S
C235 C240 1.390 . S
C236 C230 1.465 . S
C236 C235 1.396 . S
C236 C237 1.399 . S
C237 H223 0.929 . S
C237 C236 1.399 . S
C237 C238 1.385 . S
C238 H224 0.931 . S
C238 C237 1.385 . S
C238 C239 1.389 . S
C239 C238 1.389 . S
C239 C240 1.387 . S
C240 H225 0.930 . S
C240 C235 1.390 . S
C240 C239 1.387 . S
H241 C253 0.930 . S
H242 C255 0.930 . S
H243 C256 0.930 . S
H244 C260 0.959 . S
H245 C260 0.959 . S
H246 C260 0.961 . S
H247 C261 0.960 . S
H248 C261 0.961 . S
H249 C261 0.959 . S
H250 C264 0.929 . S
H251 C265 0.931 . S
H252 C267 0.930 . S
C253 H241 0.930 . S
C253 C254 1.399 . S
C253 C258 1.399 . S
C254 C253 1.399 . S
C254 C255 1.376 . S
C255 H242 0.930 . S
C255 C254 1.376 . S
C255 C256 1.388 . S
C256 H243 0.930 . S
C256 C255 1.388 . S
C256 C257 1.390 . S
C257 C256 1.390 . S
C257 C258 1.394 . S
C257 C263 1.465 . S
C258 C253 1.399 . S
C258 C257 1.394 . S
C258 C259 1.516 . S
C259 C258 1.516 . S
C259 C260 1.502 . S
C259 C261 1.561 . S
C259 C262 1.526 . S
C260 H244 0.959 . S
C260 H245 0.959 . S
C260 H246 0.961 . S
C260 C259 1.502 . S
C261 H247 0.960 . S
C261 H248 0.961 . S
C261 H249 0.959 . S
C261 C259 1.561 . S
C262 C259 1.526 . S
C262 C263 1.396 . S
C262 C267 1.390 . S
C263 C257 1.465 . S
C263 C262 1.396 . S
C263 C264 1.399 . S
C264 H250 0.929 . S
C264 C263 1.399 . S
C264 C265 1.385 . S
C265 H251 0.931 . S
C265 C264 1.385 . S
C265 C266 1.389 . S
C266 C265 1.389 . S
C266 C267 1.387 . S
C267 H252 0.930 . S
C267 C262 1.390 . S
C267 C266 1.387 . S
H268 C280 0.930 . S
H269 C282 0.930 . S
H270 C283 0.930 . S
H271 C287 0.959 1_554 S
H272 C287 0.959 . S
H273 C287 0.961 . S
H274 C288 0.960 . S
H275 C288 0.961 . S
H276 C288 0.959 . S
H277 C291 0.929 . S
H278 C292 0.931 . S
H279 C294 0.930 . S
C280 H268 0.930 . S
C280 C281 1.399 1_556 S
C280 C285 1.399 . S
C281 C280 1.399 1_554 S
C281 C282 1.376 . S
C282 H269 0.930 . S
C282 C281 1.376 . S
C282 C283 1.388 1_565 S
C283 H270 0.930 . S
C283 C282 1.388 1_545 S
C283 C284 1.390 . S
C284 C283 1.390 . S
C284 C285 1.394 1_544 S
C284 C290 1.465 . S
C285 C280 1.399 . S
C285 C284 1.394 1_566 S
C285 C286 1.516 . S
C286 C285 1.516 . S
C286 C287 1.502 . S
C286 C288 1.561 . S
C286 C289 1.526 1_565 S
C287 H271 0.959 1_556 S
C287 H272 0.959 . S
C287 H273 0.961 . S
C287 C286 1.502 . S
C288 H274 0.960 . S
C288 H275 0.961 . S
C288 H276 0.959 . S
C288 C286 1.561 . S
C289 C286 1.526 1_545 S
C289 C290 1.396 1_556 S
C289 C294 1.390 . S
C290 C284 1.465 . S
C290 C289 1.396 1_554 S
C290 C291 1.399 . S
C291 H277 0.929 . S
C291 C290 1.399 . S
C291 C292 1.385 . S
C292 H278 0.931 . S
C292 C291 1.385 . S
C292 C293 1.389 1_554 S
C293 C292 1.389 1_556 S
C293 C294 1.387 . S
C294 H279 0.930 . S
C294 C289 1.390 . S
C294 C293 1.387 . S
H295 C307 0.930 . S
H296 C309 0.930 . S
H297 C310 0.930 . S
H298 C314 0.959 . S
H299 C314 0.959 1_565 S
H300 C314 0.961 1_565 S
H301 C315 0.960 . S
H302 C315 0.961 . S
H303 C315 0.959 . S
H304 C318 0.929 . S
H305 C319 0.931 . S
H306 C321 0.930 . S
C307 H295 0.930 . S
C307 C308 1.399 . S
C307 C312 1.399 . S
C308 C307 1.399 . S
C308 C309 1.376 1_565 S
C309 H296 0.930 . S
C309 C308 1.376 1_545 S
C309 C310 1.388 . S
C310 H297 0.930 . S
C310 C309 1.388 . S
C310 C311 1.390 . S
C311 C310 1.390 . S
C311 C312 1.394 1_545 S
C311 C317 1.465 . S
C312 C307 1.399 . S
C312 C311 1.394 1_565 S
C312 C313 1.516 . S
C313 C312 1.516 . S
C313 C314 1.502 1_565 S
C313 C315 1.561 . S
C313 C316 1.526 . S
C314 H298 0.959 . S
C314 H299 0.959 1_545 S
C314 H300 0.961 1_545 S
C314 C313 1.502 1_545 S
C315 H301 0.960 . S
C315 H302 0.961 . S
C315 H303 0.959 . S
C315 C313 1.561 . S
C316 C313 1.526 . S
C316 C317 1.396 1_565 S
C316 C321 1.390 . S
C317 C311 1.465 . S
C317 C316 1.396 1_545 S
C317 C318 1.399 . S
C318 H304 0.929 . S
C318 C317 1.399 . S
C318 C319 1.385 . S
C319 H305 0.931 . S
C319 C318 1.385 . S
C319 C320 1.389 . S
C320 C319 1.389 . S
C320 C321 1.387 1_545 S
C321 H306 0.930 . S
C321 C316 1.390 . S
C321 C320 1.387 1_565 S
H322 C334 0.930 . S
H323 C336 0.930 . S
H324 C337 0.930 . S
H325 C341 0.959 . S
H326 C341 0.959 1_554 S
H327 C341 0.961 1_554 S
H328 C342 0.960 . S
H329 C342 0.961 . S
H330 C342 0.959 . S
H331 C345 0.929 . S
H332 C346 0.931 . S
H333 C348 0.930 . S
C334 H322 0.930 . S
C334 C335 1.399 . S
C334 C339 1.399 . S
C335 C334 1.399 . S
C335 C336 1.376 1_554 S
C336 H323 0.930 . S
C336 C335 1.376 1_556 S
C336 C337 1.389 1_655 S
C337 H324 0.930 . S
C337 C336 1.389 1_455 S
C337 C338 1.388 1_556 S
C338 C337 1.388 1_554 S
C338 C339 1.403 1_455 S
C338 C344 1.459 1_554 S
C339 C334 1.399 . S
C339 C338 1.403 1_655 S
C339 C340 1.516 . S
C340 C339 1.516 . S
C340 C341 1.502 1_554 S
C340 C342 1.561 . S
C340 C343 1.526 1_655 S
C341 H325 0.959 . S
C341 H326 0.959 1_556 S
C341 H327 0.961 1_556 S
C341 C340 1.502 1_556 S
C342 H328 0.960 . S
C342 H329 0.961 . S
C342 H330 0.959 . S
C342 C340 1.561 . S
C343 C340 1.526 1_455 S
C343 C344 1.396 1_554 S
C343 C348 1.390 . S
C344 C338 1.459 1_556 S
C344 C343 1.396 1_556 S
C344 C345 1.399 . S
C345 H331 0.929 . S
C345 C344 1.399 . S
C345 C346 1.385 . S
C346 H332 0.931 . S
C346 C345 1.385 . S
C346 C347 1.389 . S
C347 C346 1.389 . S
C347 C348 1.387 1_556 S
C348 H333 0.930 . S
C348 C343 1.390 . S
C348 C347 1.387 1_554 S
H349 C361 0.930 . S
H350 C363 0.930 . S
H351 C364 0.930 . S
H352 C368 0.959 . S
H353 C368 0.959 1_655 S
H354 C368 0.961 . S
H355 C369 0.960 1_455 S
H356 C369 0.961 . S
H357 C369 0.959 . S
H358 C372 0.929 . S
H359 C373 0.931 . S
H360 C375 0.930 . S
C361 H349 0.930 . S
C361 C362 1.399 . S
C361 C366 1.399 . S
C362 C361 1.399 . S
C362 C363 1.376 . S
C363 H350 0.930 . S
C363 C362 1.376 . S
C363 C364 1.388 . S
C364 H351 0.930 . S
C364 C363 1.388 . S
C364 C365 1.390 . S
C365 C364 1.390 . S
C365 C366 1.394 . S
C365 C371 1.465 1_455 S
C366 C361 1.399 . S
C366 C365 1.394 . S
C366 C367 1.516 1_455 S
C367 C366 1.516 1_655 S
C367 C368 1.502 1_655 S
C367 C369 1.561 . S
C367 C370 1.526 . S
C368 H352 0.959 . S
C368 H353 0.959 1_455 S
C368 H354 0.961 . S
C368 C367 1.502 1_455 S
C369 H355 0.960 1_655 S
C369 H356 0.961 . S
C369 H357 0.959 . S
C369 C367 1.561 . S
C370 C367 1.526 . S
C370 C371 1.396 . S
C370 C375 1.390 . S
C371 C365 1.465 1_655 S
C371 C370 1.396 . S
C371 C372 1.399 . S
C372 H358 0.929 . S
C372 C371 1.399 . S
C372 C373 1.385 . S
C373 H359 0.931 . S
C373 C372 1.385 . S
C373 C374 1.389 . S
C374 C373 1.389 . S
C374 C375 1.387 . S
C375 H360 0.930 . S
C375 C370 1.390 . S
C375 C374 1.387 . S
H376 C388 0.930 . S
H377 C390 0.930 . S
H378 C391 0.930 . S
H379 C395 0.959 . S
H380 C395 0.959 . S
H381 C395 0.961 . S
H382 C396 0.960 . S
H383 C396 0.961 . S
H384 C396 0.959 1_655 S
H385 C399 0.929 . S
H386 C400 0.931 . S
H387 C402 0.930 . S
C388 H376 0.930 . S
C388 C389 1.399 1_465 S
C388 C393 1.399 . S
C389 C388 1.399 1_645 S
C389 C390 1.376 . S
C390 H377 0.930 . S
C390 C389 1.376 . S
C390 C391 1.388 . S
C391 H378 0.930 . S
C391 C390 1.388 . S
C391 C392 1.390 . S
C392 C391 1.390 . S
C392 C393 1.394 1_645 S
C392 C398 1.465 . S
C393 C388 1.399 . S
C393 C392 1.394 1_465 S
C393 C394 1.516 . S
C394 C393 1.516 . S
C394 C395 1.502 . S
C394 C396 1.561 . S
C394 C397 1.526 . S
C395 H379 0.959 . S
C395 H380 0.959 . S
C395 H381 0.961 . S
C395 C394 1.502 . S
C396 H382 0.960 . S
C396 H383 0.961 . S
C396 H384 0.959 1_455 S
C396 C394 1.561 . S
C397 C394 1.526 . S
C397 C398 1.396 1_465 S
C397 C402 1.390 . S
C398 C392 1.465 . S
C398 C397 1.396 1_645 S
C398 C399 1.399 . S
C399 H385 0.929 . S
C399 C398 1.399 . S
C399 C400 1.385 . S
C400 H386 0.931 . S
C400 C399 1.385 . S
C400 C401 1.389 . S
C401 C400 1.389 . S
C401 C402 1.387 1_645 S
C402 H387 0.930 . S
C402 C397 1.390 . S
C402 C401 1.387 1_465 S
H403 C415 0.930 . S
H404 C417 0.930 . S
H405 C418 0.930 . S
H406 C422 0.959 . S
H407 C422 0.959 . S
H408 C422 0.961 . S
H409 C423 0.960 . S
H410 C423 0.961 . S
H411 C423 0.959 1_455 S
H412 C426 0.929 . S
H413 C427 0.931 . S
H414 C429 0.930 . S
C415 H403 0.930 . S
C415 C416 1.399 1_645 S
C415 C420 1.399 . S
C416 C415 1.399 1_465 S
C416 C417 1.376 . S
C417 H404 0.930 . S
C417 C416 1.376 . S
C417 C418 1.388 . S
C418 H405 0.930 . S
C418 C417 1.388 . S
C418 C419 1.390 . S
C419 C418 1.390 . S
C419 C420 1.394 1_465 S
C419 C425 1.465 . S
C420 C415 1.399 . S
C420 C419 1.394 1_645 S
C420 C421 1.516 . S
C421 C420 1.516 . S
C421 C422 1.502 . S
C421 C423 1.561 . S
C421 C424 1.526 . S
C422 H406 0.959 . S
C422 H407 0.959 . S
C422 H408 0.961 . S
C422 C421 1.502 . S
C423 H409 0.960 . S
C423 H410 0.961 . S
C423 H411 0.959 1_655 S
C423 C421 1.561 . S
C424 C421 1.526 . S
C424 C425 1.396 1_645 S
C424 C429 1.390 . S
C425 C419 1.465 . S
C425 C424 1.396 1_465 S
C425 C426 1.399 . S
C426 H412 0.929 . S
C426 C425 1.399 . S
C426 C427 1.385 . S
C427 H413 0.931 . S
C427 C426 1.385 . S
C427 C428 1.389 . S
C428 C427 1.389 . S
C428 C429 1.387 1_465 S
C429 H414 0.930 . S
C429 C424 1.390 . S
C429 C428 1.387 1_645 S
H430 C442 0.930 . S
H431 C444 0.930 . S
H432 C445 0.930 . S
H433 C449 0.959 . S
H434 C449 0.959 . S
H435 C449 0.961 . S
H436 C450 0.960 . S
H437 C450 0.961 . S
H438 C450 0.959 . S
H439 C453 0.929 . S
H440 C454 0.931 . S
H441 C456 0.930 . S
C442 H430 0.930 . S
C442 C443 1.399 . S
C442 C447 1.399 . S
C443 C442 1.399 . S
C443 C444 1.376 . S
C444 H431 0.930 . S
C444 C443 1.376 . S
C444 C445 1.388 . S
C445 H432 0.930 . S
C445 C444 1.388 . S
C445 C446 1.390 . S
C446 C445 1.390 . S
C446 C447 1.394 . S
C446 C452 1.465 . S
C447 C442 1.399 . S
C447 C446 1.394 . S
C447 C448 1.516 . S
C448 C447 1.516 . S
C448 C449 1.502 . S
C448 C450 1.561 . S
C448 C451 1.526 . S
C449 H433 0.959 . S
C449 H434 0.959 . S
C449 H435 0.961 . S
C449 C448 1.502 . S
C450 H436 0.960 . S
C450 H437 0.961 . S
C450 H438 0.959 . S
C450 C448 1.561 . S
C451 C448 1.526 . S
C451 C452 1.396 . S
C451 C456 1.390 . S
C452 C446 1.465 . S
C452 C451 1.396 . S
C452 C453 1.399 . S
C453 H439 0.929 . S
C453 C452 1.399 . S
C453 C454 1.385 . S
C454 H440 0.931 . S
C454 C453 1.385 . S
C454 C455 1.389 . S
C455 C454 1.389 . S
C455 C456 1.387 . S
C456 H441 0.930 . S
C456 C451 1.390 . S
C456 C455 1.387 . S
H457 C469 0.930 . S
H458 C471 0.930 . S
H459 C472 0.930 . S
H460 C476 0.959 . S
H461 C476 0.959 . S
H462 C476 0.961 . S
H463 C477 0.960 . S
H464 C477 0.961 . S
H465 C477 0.959 . S
H466 C480 0.929 . S
H467 C481 0.931 . S
H468 C483 0.930 . S
C469 H457 0.930 . S
C469 C470 1.399 . S
C469 C474 1.399 . S
C470 C469 1.399 . S
C470 C471 1.376 . S
C471 H458 0.930 . S
C471 C470 1.376 . S
C471 C472 1.388 . S
C472 H459 0.930 . S
C472 C471 1.388 . S
C472 C473 1.390 . S
C473 C472 1.390 . S
C473 C474 1.394 . S
C473 C479 1.465 . S
C474 C469 1.399 . S
C474 C473 1.394 . S
C474 C475 1.516 . S
C475 C474 1.516 . S
C475 C476 1.502 . S
C475 C477 1.561 . S
C475 C478 1.526 . S
C476 H460 0.959 . S
C476 H461 0.959 . S
C476 H462 0.961 . S
C476 C475 1.502 . S
C477 H463 0.960 . S
C477 H464 0.961 . S
C477 H465 0.959 . S
C477 C475 1.561 . S
C478 C475 1.526 . S
C478 C479 1.396 . S
C478 C483 1.390 . S
C479 C473 1.465 . S
C479 C478 1.396 . S
C479 C480 1.399 . S
C480 H466 0.929 . S
C480 C479 1.399 . S
C480 C481 1.385 . S
C481 H467 0.931 . S
C481 C480 1.385 . S
C481 C482 1.389 . S
C482 C481 1.389 . S
C482 C483 1.387 . S
C483 H468 0.930 . S
C483 C478 1.390 . S
C483 C482 1.387 . S
C173 C93 3.602 1_556 S
C185 C24 3.619 . S
C200 C104 3.609 1_554 S
C212 C13 3.616 . S
C227 C57 0.349 . S
C239 C146 0.442 . S
C254 C66 0.321 . S
C266 C137 0.465 . S
C281 C17 1.200 . S
C293 C26 1.301 . S
C308 C64 4.698 . S
C320 C53 4.696 . S
C335 C97 1.309 . S
C347 C106 1.204 . S
C362 C133 4.694 . S
C374 C144 4.699 . S
C389 C42 1.468 1_545 S
C401 C23 1.482 1_655 S
C416 C2 1.487 1_455 S
C428 C63 1.480 1_565 S
C443 C122 1.478 . S
C455 C103 1.473 . S
C470 C143 1.436 . S
C482 C82 1.484 . S
