# Generated by pormake.
# Topology smq, (6)-cn, num edge types: 1
# Building blocks:
#     Node 0, Type 0, BuildingBlock: MAKGUD_clean_sbu_1, # of connection points: 6
#     Node 1, Type 0, BuildingBlock: MAKGUD_clean_sbu_1, # of connection points: 6
#     Node 2, Type 0, BuildingBlock: MAKGUD_clean_sbu_1, # of connection points: 6
#     Node 3, Type 0, BuildingBlock: MAKGUD_clean_sbu_1, # of connection points: 6
#     Node 4, Type 0, BuildingBlock: MAKGUD_clean_sbu_1, # of connection points: 6
#     Node 5, Type 0, BuildingBlock: MAKGUD_clean_sbu_1, # of connection points: 6
#     Node 6, Type 0, BuildingBlock: MAKGUD_clean_sbu_1, # of connection points: 6
#     Node 7, Type 0, BuildingBlock: MAKGUD_clean_sbu_1, # of connection points: 6
#     Node 8, Type 0, BuildingBlock: MAKGUD_clean_sbu_1, # of connection points: 6
#     Node 9, Type 0, BuildingBlock: MAKGUD_clean_sbu_1, # of connection points: 6
#     Node 10, Type 0, BuildingBlock: MAKGUD_clean_sbu_1, # of connection points: 6
#     Node 11, Type 0, BuildingBlock: MAKGUD_clean_sbu_1, # of connection points: 6
#     Node 12, Type 0, BuildingBlock: MAKGUD_clean_sbu_1, # of connection points: 6
#     Node 13, Type 0, BuildingBlock: MAKGUD_clean_sbu_1, # of connection points: 6
#     Node 14, Type 0, BuildingBlock: MAKGUD_clean_sbu_1, # of connection points: 6
#     Node 15, Type 0, BuildingBlock: MAKGUD_clean_sbu_1, # of connection points: 6
#     Node 16, Type 0, BuildingBlock: MAKGUD_clean_sbu_1, # of connection points: 6
#     Node 17, Type 0, BuildingBlock: MAKGUD_clean_sbu_1, # of connection points: 6
#     Node 18, Type 0, BuildingBlock: MAKGUD_clean_sbu_1, # of connection points: 6
#     Node 19, Type 0, BuildingBlock: MAKGUD_clean_sbu_1, # of connection points: 6
#     Node 20, Type 0, BuildingBlock: MAKGUD_clean_sbu_1, # of connection points: 6
#     Node 21, Type 0, BuildingBlock: MAKGUD_clean_sbu_1, # of connection points: 6
#     Node 22, Type 0, BuildingBlock: MAKGUD_clean_sbu_1, # of connection points: 6
#     Node 23, Type 0, BuildingBlock: MAKGUD_clean_sbu_1, # of connection points: 6
#     Edge 24, Type (0, 0), None
#     Edge 25, Type (0, 0), None
#     Edge 26, Type (0, 0), None
#     Edge 27, Type (0, 0), None
#     Edge 28, Type (0, 0), None
#     Edge 29, Type (0, 0), None
#     Edge 30, Type (0, 0), None
#     Edge 31, Type (0, 0), None
#     Edge 32, Type (0, 0), None
#     Edge 33, Type (0, 0), None
#     Edge 34, Type (0, 0), None
#     Edge 35, Type (0, 0), None
#     Edge 36, Type (0, 0), None
#     Edge 37, Type (0, 0), None
#     Edge 38, Type (0, 0), None
#     Edge 39, Type (0, 0), None
#     Edge 40, Type (0, 0), None
#     Edge 41, Type (0, 0), None
#     Edge 42, Type (0, 0), None
#     Edge 43, Type (0, 0), None
#     Edge 44, Type (0, 0), None
#     Edge 45, Type (0, 0), None
#     Edge 46, Type (0, 0), None
#     Edge 47, Type (0, 0), None
#     Edge 48, Type (0, 0), None
#     Edge 49, Type (0, 0), None
#     Edge 50, Type (0, 0), None
#     Edge 51, Type (0, 0), None
#     Edge 52, Type (0, 0), None
#     Edge 53, Type (0, 0), None
#     Edge 54, Type (0, 0), None
#     Edge 55, Type (0, 0), None
#     Edge 56, Type (0, 0), None
#     Edge 57, Type (0, 0), None
#     Edge 58, Type (0, 0), None
#     Edge 59, Type (0, 0), None
#     Edge 60, Type (0, 0), None
#     Edge 61, Type (0, 0), None
#     Edge 62, Type (0, 0), None
#     Edge 63, Type (0, 0), None
#     Edge 64, Type (0, 0), None
#     Edge 65, Type (0, 0), None
#     Edge 66, Type (0, 0), None
#     Edge 67, Type (0, 0), None
#     Edge 68, Type (0, 0), None
#     Edge 69, Type (0, 0), None
#     Edge 70, Type (0, 0), None
#     Edge 71, Type (0, 0), None
#     Edge 72, Type (0, 0), None
#     Edge 73, Type (0, 0), None
#     Edge 74, Type (0, 0), None
#     Edge 75, Type (0, 0), None
#     Edge 76, Type (0, 0), None
#     Edge 77, Type (0, 0), None
#     Edge 78, Type (0, 0), None
#     Edge 79, Type (0, 0), None
#     Edge 80, Type (0, 0), None
#     Edge 81, Type (0, 0), None
#     Edge 82, Type (0, 0), None
#     Edge 83, Type (0, 0), None
#     Edge 84, Type (0, 0), None
#     Edge 85, Type (0, 0), None
#     Edge 86, Type (0, 0), None
#     Edge 87, Type (0, 0), None
#     Edge 88, Type (0, 0), None
#     Edge 89, Type (0, 0), None
#     Edge 90, Type (0, 0), None
#     Edge 91, Type (0, 0), None
#     Edge 92, Type (0, 0), None
#     Edge 93, Type (0, 0), None
#     Edge 94, Type (0, 0), None
#     Edge 95, Type (0, 0), None
# Relax obj value: 0.402
# Max RMSD: 0.223
# Mean RMSD: 0.223
data_MOF--net-smq--node1-MAKGUD_clean_sbu_1--edge1-none
_symmetry_space_group_name_H-M    P1
_symmetry_Int_Tables_number       1
_symmetry_cell_setting            triclinic
loop_
_symmetry_equiv_pos_as_xyz
'x, y, z'
_cell_length_a     22.371253
_cell_length_b     22.371319
_cell_length_c     22.364674
_cell_angle_alpha  89.999408
_cell_angle_beta   89.999789
_cell_angle_gamma 90.000279
loop_
_atom_site_label
_atom_site_type_symbol
_atom_site_fract_x
_atom_site_fract_y
_atom_site_fract_z
_atom_type_partial_charge
O0 O 1.02526 0.45859 0.34387 0.0
Tb1 Tb 1.09642 0.40772 0.38558 0.0
C2 C 1.06615 0.38567 0.51776 0.0
O3 O 0.17893 0.3269 0.33884 0.0
Tb4 Tb 0.1663 0.31599 0.43733 0.0
C5 C 0.25048 0.37332 0.49027 0.0
O6 O 0.17932 0.42679 0.34147 0.0
O7 O 0.21897 0.23204 0.42411 0.0
C8 C 0.2585 0.23184 0.37928 0.0
O9 O 0.22094 0.22875 0.42395 0.0
O10 O 1.0741 0.42965 0.47888 0.0
O11 O 1.09103 0.33209 0.50521 0.0
O12 O 1.06787 0.31629 0.39683 0.0
C13 C 0.19604 0.37801 0.31447 0.0
C14 C 1.02044 0.4226 0.29789 0.0
O15 O 0.21358 0.39813 0.45283 0.0
O16 O 0.23925 0.31744 0.49932 0.0
C17 C 1.01179 0.31378 0.41298 0.0
O18 O 0.98077 0.36303 0.41259 0.0
O19 O 1.05879 0.3797 0.30148 0.0
O20 O 0.32012 0.52524 0.84387 0.0
Tb21 Tb 0.37099 0.59641 0.88557 0.0
C22 C 0.39304 0.56615 1.01776 0.0
O23 O 0.45181 0.67893 0.83884 0.0
Tb24 Tb 0.46272 0.66629 0.93732 0.0
C25 C 0.40538 0.75047 0.99026 0.0
O26 O 0.35192 0.67931 0.84146 0.0
O27 O 0.54667 0.71897 0.92411 0.0
C28 C 0.54687 0.7585 0.87928 0.0
O29 O 0.54996 0.72094 0.92394 0.0
O30 O 0.34906 0.57409 0.97887 0.0
O31 O 0.44662 0.59103 1.0052 0.0
O32 O 0.46242 0.56787 0.89682 0.0
C33 C 0.4007 0.69603 0.81446 0.0
C34 C 0.35612 0.52042 0.79789 0.0
O35 O 0.38058 0.71357 0.95282 0.0
O36 O 0.46127 0.73925 0.9993 0.0
C37 C 0.46493 0.51179 0.91298 0.0
O38 O 0.41568 0.48077 0.9126 0.0
O39 O 0.39901 0.55878 0.80148 0.0
O40 O 0.25345 0.8201 0.34387 0.0
Tb41 Tb 0.18229 0.87098 0.38557 0.0
C42 C 0.21257 0.89304 0.51775 0.0
O43 O 1.09978 0.95181 0.33884 0.0
Tb44 Tb 1.11242 0.96272 0.43732 0.0
C45 C 1.02824 0.90538 0.49026 0.0
O46 O 1.09939 0.85192 0.34147 0.0
O47 O 1.05974 1.04667 0.42411 0.0
C48 C 1.02022 1.04686 0.37928 0.0
O49 O 1.05778 1.04996 0.42394 0.0
O50 O 0.20462 0.84906 0.47888 0.0
O51 O 0.18769 0.94662 0.5052 0.0
O52 O 0.21084 0.96241 0.39682 0.0
C53 C 1.08268 0.9007 0.31447 0.0
C54 C 0.25827 0.8561 0.29788 0.0
O55 O 1.06514 0.88057 0.45283 0.0
O56 O 1.03947 0.96127 0.49931 0.0
C57 C 0.26692 0.96492 0.41297 0.0
O58 O 0.29794 0.91567 0.41257 0.0
O59 O 0.21992 0.899 0.30148 0.0
O60 O 0.9586 0.75345 0.84386 0.0
Tb61 Tb 0.90772 0.68229 0.88558 0.0
C62 C 0.88567 0.71257 1.01776 0.0
O63 O 0.8269 0.59978 0.83884 0.0
Tb64 Tb 0.81599 0.61242 0.93732 0.0
C65 C 0.87333 0.52824 0.99026 0.0
O66 O 0.92679 0.59939 0.84147 0.0
O67 O 0.73204 0.55974 0.92411 0.0
C68 C 0.73184 0.52022 0.87928 0.0
O69 O 0.72875 0.55777 0.92394 0.0
O70 O 0.92965 0.70462 0.97888 0.0
O71 O 0.83209 0.68769 1.0052 0.0
O72 O 0.8163 0.71084 0.89682 0.0
C73 C 0.87801 0.58268 0.81447 0.0
C74 C 0.92261 0.75827 0.79788 0.0
O75 O 0.89813 0.56514 0.95283 0.0
O76 O 0.81744 0.53947 0.99931 0.0
C77 C 0.81379 0.76692 0.91298 0.0
O78 O 0.86304 0.79794 0.91258 0.0
O79 O 0.87971 0.71992 0.80148 0.0
O80 O 1.02526 0.82012 0.93522 0.0
Tb81 Tb 1.09643 0.87099 0.89351 0.0
C82 C 1.06616 0.89304 0.76133 0.0
O83 O 0.17894 0.95181 0.94025 0.0
Tb84 Tb 0.16631 0.96272 0.84176 0.0
C85 C 0.25049 0.90539 0.78882 0.0
O86 O 0.17933 0.85192 0.93762 0.0
O87 O 0.21898 1.04667 0.85498 0.0
C88 C 0.25851 1.04687 0.89981 0.0
O89 O 0.22095 1.04996 0.85514 0.0
O90 O 1.0741 0.84906 0.80021 0.0
O91 O 1.09104 0.94662 0.77388 0.0
O92 O 1.06788 0.96242 0.88226 0.0
C93 C 0.19604 0.9007 0.96462 0.0
C94 C 1.02044 0.85611 0.9812 0.0
O95 O 0.21359 0.88058 0.82626 0.0
O96 O 0.23926 0.96128 0.77977 0.0
C97 C 1.0118 0.96493 0.86611 0.0
O98 O 0.98078 0.91567 0.8665 0.0
O99 O 1.0588 0.89901 0.97761 0.0
O100 O 0.9586 0.52526 0.43523 0.0
Tb101 Tb 0.90772 0.59643 0.39352 0.0
C102 C 0.88567 0.56615 0.26134 0.0
O103 O 0.8269 0.67893 0.44026 0.0
Tb104 Tb 0.81598 0.6663 0.34177 0.0
C105 C 0.87333 0.75048 0.28883 0.0
O106 O 0.92679 0.67933 0.43762 0.0
O107 O 0.73204 0.71898 0.35499 0.0
C108 C 0.73184 0.7585 0.39982 0.0
O109 O 0.72875 0.72094 0.35515 0.0
O110 O 0.92965 0.5741 0.30022 0.0
O111 O 0.83209 0.59103 0.27389 0.0
O112 O 0.8163 0.56787 0.38227 0.0
C113 C 0.87801 0.69604 0.46463 0.0
C114 C 0.92261 0.52044 0.48121 0.0
O115 O 0.89813 0.71358 0.32627 0.0
O116 O 0.81744 0.73925 0.27979 0.0
C117 C 0.81379 0.51179 0.36612 0.0
O118 O 0.86305 0.48078 0.3665 0.0
O119 O 0.87971 0.5588 0.47761 0.0
O120 O 0.25345 0.4586 0.93523 0.0
Tb121 Tb 0.18228 0.40772 0.89352 0.0
C122 C 0.21256 0.38567 0.76134 0.0
O123 O 1.09978 0.3269 0.94026 0.0
Tb124 Tb 1.11241 0.31599 0.84177 0.0
C125 C 1.02824 0.37333 0.78883 0.0
O126 O 1.09938 0.42679 0.93762 0.0
O127 O 1.05973 0.23205 0.85499 0.0
C128 C 1.0202 0.23185 0.89981 0.0
O129 O 1.05777 0.22876 0.85515 0.0
O130 O 0.20461 0.42965 0.80022 0.0
O131 O 0.18768 0.33209 0.77389 0.0
O132 O 0.21084 0.3163 0.88227 0.0
C133 C 1.08267 0.37801 0.96463 0.0
C134 C 0.25827 0.4226 0.98121 0.0
O135 O 1.06514 0.39814 0.82627 0.0
O136 O 1.03946 0.31745 0.77978 0.0
C137 C 0.26692 0.31379 0.86612 0.0
O138 O 0.29793 0.36305 0.86651 0.0
O139 O 0.21991 0.37971 0.97761 0.0
O140 O 0.32013 0.75346 0.43522 0.0
Tb141 Tb 0.371 0.68229 0.39352 0.0
C142 C 0.39304 0.71256 0.26133 0.0
O143 O 0.45181 0.59977 0.44025 0.0
Tb144 Tb 0.46273 0.61241 0.34176 0.0
C145 C 0.40538 0.52823 0.28883 0.0
O146 O 0.35193 0.59939 0.43762 0.0
O147 O 0.54667 0.55972 0.35498 0.0
C148 C 0.54687 0.5202 0.39981 0.0
O149 O 0.54996 0.55776 0.35514 0.0
O150 O 0.34906 0.70461 0.30022 0.0
O151 O 0.44662 0.68767 0.27388 0.0
O152 O 0.46243 0.71084 0.38225 0.0
C153 C 0.40071 0.58267 0.46463 0.0
C154 C 0.35612 0.75828 0.4812 0.0
O155 O 0.38058 0.56513 0.32627 0.0
O156 O 0.46127 0.53945 0.27978 0.0
C157 C 0.46494 0.76692 0.3661 0.0
O158 O 0.41569 0.79794 0.36652 0.0
O159 O 0.39902 0.71993 0.47761 0.0
O160 O 0.34373 1.0249 0.45868 0.0
Tb161 Tb 0.38536 1.09614 0.40785 0.0
C162 C 0.51748 1.06598 0.38575 0.0
O163 O 0.33878 0.1792 0.32725 0.0
Tb164 Tb 0.43716 0.16624 0.31607 0.0
C165 C 0.49042 0.2503 0.37327 0.0
O166 O 0.34157 0.1791 0.42718 0.0
O167 O 0.42383 0.219 0.23216 0.0
C168 C 0.37902 0.25854 0.23206 0.0
O169 O 0.42366 0.22097 0.22887 0.0
O170 O 0.47863 1.07388 0.42975 0.0
O171 O 0.50493 1.09088 0.33216 0.0
O172 O 0.39658 1.06774 0.31637 0.0
C173 C 0.31458 0.19614 0.3785 0.0
C174 C 0.29777 1.02014 0.42267 0.0
O175 O 0.45291 0.21353 0.39816 0.0
O176 O 0.49937 0.23901 0.31736 0.0
C177 C 0.41273 1.01167 0.31384 0.0
O178 O 0.41237 0.98064 0.3631 0.0
O179 O 0.30121 1.05863 0.37986 0.0
O180 O 0.75381 0.84373 0.95868 0.0
Tb181 Tb 0.68256 0.88536 0.90785 0.0
C182 C 0.71273 1.01749 0.88574 0.0
O183 O 0.59952 0.83878 0.82725 0.0
Tb184 Tb 0.61248 0.93716 0.81606 0.0
C185 C 0.52841 0.99041 0.87326 0.0
O186 O 0.5996 0.84157 0.92717 0.0
O187 O 0.55972 0.92383 0.73215 0.0
C188 C 0.52019 0.87902 0.73204 0.0
O189 O 0.55776 0.92366 0.72886 0.0
O190 O 0.70483 0.97863 0.92975 0.0
O191 O 0.68783 1.00493 0.83216 0.0
O192 O 0.71097 0.89658 0.81636 0.0
C193 C 0.58257 0.81458 0.8785 0.0
C194 C 0.75857 0.79777 0.92267 0.0
O195 O 0.56518 0.9529 0.89815 0.0
O196 O 0.5397 0.99936 0.81736 0.0
C197 C 0.76704 0.91273 0.81383 0.0
O198 O 0.79807 0.91234 0.86309 0.0
O199 O 0.72008 0.80121 0.87986 0.0
O200 O 0.93498 0.2538 0.45869 0.0
Tb201 Tb 0.89335 0.18256 0.40786 0.0
C202 C 0.76123 0.21273 0.38575 0.0
O203 O 0.93993 1.09951 0.32725 0.0
Tb204 Tb 0.84155 1.11247 0.31606 0.0
C205 C 0.78829 1.0284 0.37326 0.0
O206 O 0.93714 1.0996 0.42718 0.0
O207 O 0.85488 1.05971 0.23216 0.0
C208 C 0.89969 1.02017 0.23206 0.0
O209 O 0.85505 1.05774 0.22887 0.0
O210 O 0.80008 0.20482 0.42975 0.0
O211 O 0.77378 0.18782 0.33216 0.0
O212 O 0.88213 0.21096 0.31637 0.0
C213 C 0.96413 1.08257 0.3785 0.0
C214 C 0.98095 0.25856 0.42268 0.0
O215 O 0.8258 1.06516 0.39815 0.0
O216 O 0.77934 1.0397 0.31735 0.0
C217 C 0.86599 0.26704 0.31383 0.0
O218 O 0.86638 0.29807 0.36309 0.0
O219 O 0.9775 0.22008 0.37986 0.0
O220 O 0.52491 0.43499 0.95869 0.0
Tb221 Tb 0.59615 0.39335 0.90785 0.0
C222 C 0.56598 0.26123 0.88574 0.0
O223 O 0.6792 0.43993 0.82725 0.0
Tb224 Tb 0.66624 0.34155 0.81606 0.0
C225 C 0.7503 0.28829 0.87327 0.0
O226 O 0.67911 0.43714 0.92717 0.0
O227 O 0.719 0.35488 0.73216 0.0
C228 C 0.75854 0.39969 0.73206 0.0
O229 O 0.72097 0.35505 0.72887 0.0
O230 O 0.57388 0.30008 0.92975 0.0
O231 O 0.59089 0.27378 0.83216 0.0
O232 O 0.56775 0.38212 0.81636 0.0
C233 C 0.69614 0.46413 0.8785 0.0
C234 C 0.52015 0.48095 0.92267 0.0
O235 O 0.71354 0.32581 0.89816 0.0
O236 O 0.73901 0.27935 0.81736 0.0
C237 C 0.51167 0.36599 0.81383 0.0
O238 O 0.48062 0.36641 0.86308 0.0
O239 O 0.55863 0.4775 0.87986 0.0
O240 O 0.34373 0.25382 0.8204 0.0
Tb241 Tb 0.38536 0.18257 0.87123 0.0
C242 C 0.51748 0.21274 0.89335 0.0
O243 O 0.3388 1.09951 0.95184 0.0
Tb244 Tb 0.43718 1.11247 0.96302 0.0
C245 C 0.49046 1.02848 0.90579 0.0
O246 O 0.34158 1.09961 0.85191 0.0
O247 O 0.42385 1.0597 1.04692 0.0
C248 C 0.37904 1.02016 1.04702 0.0
O249 O 0.42368 1.05773 1.05021 0.0
O250 O 0.47863 0.20484 0.84934 0.0
O251 O 0.50494 0.18783 0.94693 0.0
O252 O 0.39659 0.21097 0.96272 0.0
C253 C 0.3146 1.08258 0.90059 0.0
C254 C 0.29777 0.25857 0.85642 0.0
O255 O 0.45291 1.0652 0.88091 0.0
O256 O 0.4994 1.03972 0.96171 0.0
C257 C 0.41273 0.26705 0.96525 0.0
O258 O 0.41235 0.29808 0.916 0.0
O259 O 0.30122 0.22009 0.89923 0.0
O260 O 0.739 0.99939 0.4617 0.0
Tb261 Tb 0.66623 0.93717 0.46303 0.0
C262 C 0.69614 0.81459 0.4006 0.0
O263 O 0.57386 0.97863 0.34934 0.0
Tb264 Tb 0.59615 0.88536 0.37121 0.0
C265 C 0.52016 0.79775 0.35635 0.0
O266 O 0.59087 1.00493 0.44694 0.0
O267 O 0.56774 0.89658 0.4627 0.0
C268 C 0.51166 0.9127 0.46524 0.0
O269 O 0.48061 0.91226 0.41599 0.0
O270 O 0.67919 0.83879 0.45185 0.0
O271 O 0.67911 0.84157 0.35192 0.0
O272 O 0.71902 0.92385 0.54692 0.0
C273 C 0.56596 1.01748 0.39335 0.0
C274 C 0.75023 0.99044 0.40578 0.0
O275 O 0.55861 0.80122 0.39919 0.0
O276 O 0.52494 0.84371 0.32035 0.0
C277 C 0.75855 0.87904 0.54702 0.0
O278 O 0.72098 0.92368 0.55021 0.0
O279 O 0.7135 0.95289 0.38091 0.0
O280 O 0.93499 1.02491 0.82039 0.0
Tb281 Tb 0.89335 1.09614 0.87123 0.0
C282 C 0.76123 1.06597 0.89335 0.0
O283 O 0.93991 0.1792 0.95184 0.0
Tb284 Tb 0.84153 0.16624 0.96303 0.0
C285 C 0.78825 0.25023 0.90579 0.0
O286 O 0.93713 0.17911 0.85191 0.0
O287 O 0.85486 0.21901 1.04692 0.0
C288 C 0.89967 0.25855 1.04702 0.0
O289 O 0.85503 0.22098 1.05021 0.0
O290 O 0.80008 1.07387 0.84934 0.0
O291 O 0.77377 1.09088 0.94694 0.0
O292 O 0.88213 1.06775 0.96272 0.0
C293 C 0.96412 0.19614 0.90059 0.0
C294 C 0.98095 1.02015 0.85641 0.0
O295 O 0.8258 0.21351 0.88092 0.0
O296 O 0.77931 0.23899 0.96171 0.0
C297 C 0.86599 1.01167 0.96525 0.0
O298 O 0.86639 0.98063 0.916 0.0
O299 O 0.9775 1.05863 0.89922 0.0
O300 O 0.75381 0.43499 0.3204 0.0
Tb301 Tb 0.68257 0.39335 0.37123 0.0
C302 C 0.71275 0.26123 0.39335 0.0
O303 O 0.59952 0.43991 0.45184 0.0
Tb304 Tb 0.61248 0.34153 0.46303 0.0
C305 C 0.52848 0.28825 0.4058 0.0
O306 O 0.59961 0.43713 0.35191 0.0
O307 O 0.55971 0.35486 0.54693 0.0
C308 C 0.52017 0.39967 0.54703 0.0
O309 O 0.55774 0.35503 0.55021 0.0
O310 O 0.70485 0.30007 0.34934 0.0
O311 O 0.68784 0.27377 0.44694 0.0
O312 O 0.71097 0.38212 0.46272 0.0
C313 C 0.58258 0.46411 0.40059 0.0
C314 C 0.75857 0.48094 0.35642 0.0
O315 O 0.56521 0.3258 0.38092 0.0
O316 O 0.53972 0.27931 0.46172 0.0
C317 C 0.76705 0.36599 0.46526 0.0
O318 O 0.79809 0.36638 0.416 0.0
O319 O 0.72009 0.47749 0.39923 0.0
O320 O 0.45841 0.34385 1.02524 0.0
Tb321 Tb 0.40758 0.38552 1.09646 0.0
C322 C 0.38542 0.51763 1.06626 0.0
O323 O 0.32698 0.33886 0.17947 0.0
Tb324 Tb 0.3157 0.43725 0.16654 0.0
C325 C 0.37282 0.49025 0.25082 0.0
O326 O 0.42688 0.34171 0.17943 0.0
O327 O 0.23149 0.42382 0.21878 0.0
C328 C 0.23072 0.37847 0.25769 0.0
O329 O 0.22815 0.42357 0.22061 0.0
O330 O 0.42943 0.47878 1.07414 0.0
O331 O 0.33186 0.5051 1.09121 0.0
O332 O 0.31612 0.39675 1.06805 0.0
C333 C 0.37822 0.31468 0.19642 0.0
C334 C 0.42241 0.29789 1.02049 0.0
O335 O 0.39772 0.45289 0.21392 0.0
O336 O 0.31689 0.49915 0.23961 0.0
C337 C 0.31353 0.41287 1.01195 0.0
O338 O 0.36273 0.41242 0.98083 0.0
O339 O 0.37957 0.30137 1.05894 0.0
O340 O 0.45841 0.93486 0.25386 0.0
Tb341 Tb 0.40758 0.89319 0.18264 0.0
C342 C 0.38543 0.76107 0.21283 0.0
O343 O 0.32699 0.93984 1.09961 0.0
Tb344 Tb 0.31571 0.84146 1.11255 0.0
C345 C 0.37282 0.78845 1.02827 0.0
O346 O 0.42689 0.93699 1.09967 0.0
O347 O 0.2315 0.85489 1.06032 0.0
C348 C 0.23073 0.90024 1.02141 0.0
O349 O 0.22816 0.85514 1.05848 0.0
O350 O 0.42944 0.79992 0.20495 0.0
O351 O 0.33187 0.77361 0.18787 0.0
O352 O 0.31612 0.88195 0.21104 0.0
C353 C 0.37824 0.96402 1.08267 0.0
C354 C 0.4224 0.98082 0.25861 0.0
O355 O 0.39773 0.82581 1.06516 0.0
O356 O 0.3169 0.77955 1.03948 0.0
C357 C 0.31354 0.86583 0.26714 0.0
O358 O 0.36274 0.86627 0.29826 0.0
O359 O 0.37957 0.97733 0.22015 0.0
O360 O 0.84385 0.95842 0.75385 0.0
Tb361 Tb 0.88552 0.90758 0.68263 0.0
C362 C 1.01764 0.88543 0.71283 0.0
O363 O 0.83887 0.82699 0.59961 0.0
Tb364 Tb 0.93726 0.8157 0.61255 0.0
C365 C 0.99027 0.87282 0.52827 0.0
O366 O 0.84172 0.92689 0.59966 0.0
O367 O 0.92382 0.7315 0.56032 0.0
C368 C 0.87847 0.73072 0.52141 0.0
O369 O 0.92357 0.72815 0.55848 0.0
O370 O 0.97879 0.92943 0.70495 0.0
O371 O 1.0051 0.83187 0.68788 0.0
O372 O 0.89675 0.81613 0.71104 0.0
C373 C 0.81469 0.87823 0.58267 0.0
C374 C 0.79789 0.92241 0.7586 0.0
O375 O 0.95291 0.89772 0.56517 0.0
O376 O 0.99916 0.81689 0.53948 0.0
C377 C 0.91287 0.81354 0.76714 0.0
O378 O 0.91242 0.86274 0.79826 0.0
O379 O 0.80138 0.87958 0.72014 0.0
O380 O 0.8203 0.34384 0.25385 0.0
Tb381 Tb 0.87113 0.38552 0.18264 0.0
C382 C 0.89328 0.51763 0.21284 0.0
O383 O 0.95172 0.33887 1.09962 0.0
Tb384 Tb 0.963 0.43725 1.11255 0.0
C385 C 0.90589 0.49026 1.02827 0.0
O386 O 0.85182 0.34172 1.09967 0.0
O387 O 1.04721 0.42382 1.06032 0.0
C388 C 1.04799 0.37847 1.02141 0.0
O389 O 1.05055 0.42357 1.05848 0.0
O390 O 0.84928 0.47879 0.20495 0.0
O391 O 0.94684 0.5051 0.18788 0.0
O392 O 0.96259 0.39675 0.21104 0.0
C393 C 0.90047 0.31469 1.08267 0.0
C394 C 0.85631 0.29788 0.2586 0.0
O395 O 0.88098 0.4529 1.06517 0.0
O396 O 0.96181 0.49916 1.03948 0.0
C397 C 0.96517 0.41287 0.26714 0.0
O398 O 0.91597 0.41242 0.29826 0.0
O399 O 0.89914 0.30137 0.22014 0.0
O400 O 0.27957 0.4618 0.53948 0.0
Tb401 Tb 0.34147 0.463 0.61255 0.0
C402 C 0.46403 0.40048 0.58267 0.0
O403 O 0.29992 0.34927 0.70495 0.0
Tb404 Tb 0.3932 0.37111 0.68264 0.0
C405 C 0.48084 0.35625 0.75859 0.0
O406 O 0.27362 0.44684 0.68788 0.0
O407 O 0.38197 0.46257 0.71104 0.0
C408 C 0.36586 0.46515 0.76714 0.0
O409 O 0.36632 0.41596 0.79826 0.0
O410 O 0.43985 0.45172 0.59962 0.0
O411 O 0.437 0.35182 0.59966 0.0
O412 O 0.35489 0.54721 0.56032 0.0
C413 C 0.26108 0.39328 0.71284 0.0
C414 C 0.28847 0.40588 0.52827 0.0
O415 O 0.47734 0.3991 0.72017 0.0
O416 O 0.43487 0.32025 0.75383 0.0
C417 C 0.40025 0.54798 0.52141 0.0
O418 O 0.35515 0.55055 0.55848 0.0
O419 O 0.32582 0.38098 0.56518 0.0
O420 O 0.8203 0.93487 1.02524 0.0
Tb421 Tb 0.87113 0.89319 1.09645 0.0
C422 C 0.89328 0.76108 1.06626 0.0
O423 O 0.95173 0.93984 0.17947 0.0
Tb424 Tb 0.96301 0.84146 0.16654 0.0
C425 C 0.90589 0.78845 0.25082 0.0
O426 O 0.85183 0.937 0.17943 0.0
O427 O 1.04722 0.85489 0.21877 0.0
C428 C 1.04799 0.90024 0.25768 0.0
O429 O 1.05056 0.85514 0.22061 0.0
O430 O 0.84928 0.79993 1.07414 0.0
O431 O 0.94685 0.77361 1.09121 0.0
O432 O 0.96259 0.88196 1.06805 0.0
C433 C 0.90049 0.96403 0.19642 0.0
C434 C 0.85631 0.98083 1.02049 0.0
O435 O 0.88099 0.82581 0.21392 0.0
O436 O 0.96181 0.77955 0.23961 0.0
C437 C 0.96518 0.86584 1.01195 0.0
O438 O 0.91598 0.86629 0.98083 0.0
O439 O 0.89914 0.97734 1.05894 0.0
O440 O 0.84385 0.3203 0.52524 0.0
Tb441 Tb 0.88552 0.37113 0.59646 0.0
C442 C 1.01763 0.39329 0.56626 0.0
O443 O 0.83887 0.45174 0.67947 0.0
Tb444 Tb 0.93725 0.46301 0.66654 0.0
C445 C 0.99026 0.4059 0.75082 0.0
O446 O 0.84171 0.35183 0.67943 0.0
O447 O 0.92383 0.54722 0.71877 0.0
C448 C 0.87847 0.54799 0.75768 0.0
O449 O 0.92357 0.55056 0.72061 0.0
O450 O 0.97879 0.34928 0.57415 0.0
O451 O 1.0051 0.44685 0.59122 0.0
O452 O 0.89675 0.46259 0.56805 0.0
C453 C 0.81468 0.40049 0.69642 0.0
C454 C 0.79789 0.35631 0.52049 0.0
O455 O 0.9529 0.38099 0.71393 0.0
O456 O 0.99916 0.46182 0.73961 0.0
C457 C 0.91287 0.46518 0.51195 0.0
O458 O 0.91242 0.41598 0.48083 0.0
O459 O 0.80137 0.39914 0.55895 0.0
O460 O 0.27957 0.81691 0.73961 0.0
Tb461 Tb 0.34147 0.81571 0.66654 0.0
C462 C 0.46405 0.87822 0.6964 0.0
O463 O 0.29993 0.92944 0.57414 0.0
Tb464 Tb 0.3932 0.90759 0.59645 0.0
C465 C 0.48083 0.92245 0.52047 0.0
O466 O 0.27362 0.83187 0.59121 0.0
O467 O 0.38197 0.81613 0.56805 0.0
C468 C 0.36585 0.81355 0.51195 0.0
O469 O 0.3663 0.86274 0.48083 0.0
O470 O 0.43986 0.82698 0.67946 0.0
O471 O 0.43702 0.92688 0.67942 0.0
O472 O 0.35489 0.7315 0.71877 0.0
C473 C 0.26109 0.88543 0.56625 0.0
C474 C 0.28848 0.87283 0.75082 0.0
O475 O 0.47734 0.8796 0.55891 0.0
O476 O 0.43487 0.95845 0.52524 0.0
C477 C 0.40025 0.73072 0.75768 0.0
O478 O 0.35514 0.72816 0.72061 0.0
O479 O 0.32583 0.89773 0.71391 0.0
loop_
_geom_bond_atom_site_label_1
_geom_bond_atom_site_label_2
_geom_bond_distance
_geom_bond_site_symmetry_2
_ccdc_geom_bond_type
O0 Tb1 2.506 . S
O0 C14 1.265 . S
Tb1 O0 2.506 . S
Tb1 O6 2.312 1_655 S
Tb1 O10 2.271 . S
Tb1 O12 2.338 . S
Tb1 O19 2.441 . S
C2 O10 1.252 . S
C2 O11 1.253 . S
O3 Tb4 2.271 . S
O3 C13 1.252 . S
Tb4 O3 2.271 . S
Tb4 O7 2.338 . S
Tb4 O11 2.312 1_455 S
Tb4 O15 2.441 . S
Tb4 O16 2.506 . S
C5 O15 1.244 . S
C5 O16 1.265 . S
O6 Tb1 2.312 1_455 S
O6 C13 1.253 . S
O7 Tb4 2.338 . S
O7 C8 1.258 . S
C8 O7 1.258 . S
C8 O9 1.251 . S
O9 C8 1.251 . S
O10 Tb1 2.271 . S
O10 C2 1.252 . S
O11 C2 1.253 . S
O11 Tb4 2.312 1_655 S
O12 Tb1 2.338 . S
O12 C17 1.258 . S
C13 O3 1.252 . S
C13 O6 1.253 . S
C14 O0 1.265 . S
C14 O19 1.244 . S
O15 Tb4 2.441 . S
O15 C5 1.244 . S
O16 Tb4 2.506 . S
O16 C5 1.265 . S
C17 O12 1.258 . S
C17 O18 1.251 . S
O18 C17 1.251 . S
O19 Tb1 2.441 . S
O19 C14 1.244 . S
O20 Tb21 2.506 . S
O20 C34 1.265 . S
Tb21 O20 2.506 . S
Tb21 O26 2.312 . S
Tb21 O30 2.271 . S
Tb21 O32 2.338 . S
Tb21 O39 2.441 . S
C22 O30 1.252 . S
C22 O31 1.253 . S
O23 Tb24 2.271 . S
O23 C33 1.252 . S
Tb24 O23 2.271 . S
Tb24 O27 2.338 . S
Tb24 O31 2.312 . S
Tb24 O35 2.441 . S
Tb24 O36 2.506 . S
C25 O35 1.244 . S
C25 O36 1.265 . S
O26 Tb21 2.312 . S
O26 C33 1.253 . S
O27 Tb24 2.338 . S
O27 C28 1.258 . S
C28 O27 1.258 . S
C28 O29 1.251 . S
O29 C28 1.251 . S
O30 Tb21 2.271 . S
O30 C22 1.252 . S
O31 C22 1.253 . S
O31 Tb24 2.312 . S
O32 Tb21 2.338 . S
O32 C37 1.258 . S
C33 O23 1.252 . S
C33 O26 1.253 . S
C34 O20 1.265 . S
C34 O39 1.244 . S
O35 Tb24 2.441 . S
O35 C25 1.244 . S
O36 Tb24 2.506 . S
O36 C25 1.265 . S
C37 O32 1.258 . S
C37 O38 1.251 . S
O38 C37 1.251 . S
O39 Tb21 2.441 . S
O39 C34 1.244 . S
O40 Tb41 2.506 . S
O40 C54 1.265 . S
Tb41 O40 2.506 . S
Tb41 O46 2.312 1_455 S
Tb41 O50 2.271 . S
Tb41 O52 2.338 . S
Tb41 O59 2.441 . S
C42 O50 1.252 . S
C42 O51 1.253 . S
O43 Tb44 2.271 . S
O43 C53 1.252 . S
Tb44 O43 2.271 . S
Tb44 O47 2.338 . S
Tb44 O51 2.312 1_655 S
Tb44 O55 2.441 . S
Tb44 O56 2.506 . S
C45 O55 1.244 . S
C45 O56 1.265 . S
O46 Tb41 2.312 1_655 S
O46 C53 1.253 . S
O47 Tb44 2.338 . S
O47 C48 1.258 . S
C48 O47 1.258 . S
C48 O49 1.251 . S
O49 C48 1.251 . S
O50 Tb41 2.271 . S
O50 C42 1.252 . S
O51 C42 1.253 . S
O51 Tb44 2.312 1_455 S
O52 Tb41 2.338 . S
O52 C57 1.258 . S
C53 O43 1.252 . S
C53 O46 1.253 . S
C54 O40 1.265 . S
C54 O59 1.244 . S
O55 Tb44 2.441 . S
O55 C45 1.244 . S
O56 Tb44 2.506 . S
O56 C45 1.265 . S
C57 O52 1.258 . S
C57 O58 1.251 . S
O58 C57 1.251 . S
O59 Tb41 2.441 . S
O59 C54 1.244 . S
O60 Tb61 2.506 . S
O60 C74 1.265 . S
Tb61 O60 2.506 . S
Tb61 O66 2.312 . S
Tb61 O70 2.271 . S
Tb61 O72 2.338 . S
Tb61 O79 2.441 . S
C62 O70 1.252 . S
C62 O71 1.253 . S
O63 Tb64 2.271 . S
O63 C73 1.252 . S
Tb64 O63 2.271 . S
Tb64 O67 2.338 . S
Tb64 O71 2.312 . S
Tb64 O75 2.441 . S
Tb64 O76 2.506 . S
C65 O75 1.244 . S
C65 O76 1.265 . S
O66 Tb61 2.312 . S
O66 C73 1.253 . S
O67 Tb64 2.338 . S
O67 C68 1.258 . S
C68 O67 1.258 . S
C68 O69 1.251 . S
O69 C68 1.251 . S
O70 Tb61 2.271 . S
O70 C62 1.252 . S
O71 C62 1.253 . S
O71 Tb64 2.312 . S
O72 Tb61 2.338 . S
O72 C77 1.258 . S
C73 O63 1.252 . S
C73 O66 1.253 . S
C74 O60 1.265 . S
C74 O79 1.244 . S
O75 Tb64 2.441 . S
O75 C65 1.244 . S
O76 Tb64 2.506 . S
O76 C65 1.265 . S
C77 O72 1.258 . S
C77 O78 1.251 . S
O78 C77 1.251 . S
O79 Tb61 2.441 . S
O79 C74 1.244 . S
O80 Tb81 2.506 . S
O80 C94 1.265 . S
Tb81 O80 2.506 . S
Tb81 O86 2.312 1_655 S
Tb81 O90 2.271 . S
Tb81 O92 2.338 . S
Tb81 O99 2.441 . S
C82 O90 1.252 . S
C82 O91 1.253 . S
O83 Tb84 2.271 . S
O83 C93 1.252 . S
Tb84 O83 2.271 . S
Tb84 O87 2.338 . S
Tb84 O91 2.312 1_455 S
Tb84 O95 2.441 . S
Tb84 O96 2.506 . S
C85 O95 1.244 . S
C85 O96 1.265 . S
O86 Tb81 2.312 1_455 S
O86 C93 1.253 . S
O87 Tb84 2.338 . S
O87 C88 1.258 . S
C88 O87 1.258 . S
C88 O89 1.251 . S
O89 C88 1.251 . S
O90 Tb81 2.271 . S
O90 C82 1.252 . S
O91 C82 1.253 . S
O91 Tb84 2.312 1_655 S
O92 Tb81 2.338 . S
O92 C97 1.258 . S
C93 O83 1.252 . S
C93 O86 1.253 . S
C94 O80 1.265 . S
C94 O99 1.244 . S
O95 Tb84 2.441 . S
O95 C85 1.244 . S
O96 Tb84 2.506 . S
O96 C85 1.265 . S
C97 O92 1.258 . S
C97 O98 1.251 . S
O98 C97 1.251 . S
O99 Tb81 2.441 . S
O99 C94 1.244 . S
O100 Tb101 2.506 . S
O100 C114 1.265 . S
Tb101 O100 2.506 . S
Tb101 O106 2.312 . S
Tb101 O110 2.271 . S
Tb101 O112 2.338 . S
Tb101 O119 2.441 . S
C102 O110 1.252 . S
C102 O111 1.253 . S
O103 Tb104 2.271 . S
O103 C113 1.252 . S
Tb104 O103 2.271 . S
Tb104 O107 2.338 . S
Tb104 O111 2.312 . S
Tb104 O115 2.441 . S
Tb104 O116 2.506 . S
C105 O115 1.244 . S
C105 O116 1.265 . S
O106 Tb101 2.312 . S
O106 C113 1.253 . S
O107 Tb104 2.338 . S
O107 C108 1.258 . S
C108 O107 1.258 . S
C108 O109 1.251 . S
O109 C108 1.251 . S
O110 Tb101 2.271 . S
O110 C102 1.252 . S
O111 C102 1.253 . S
O111 Tb104 2.312 . S
O112 Tb101 2.338 . S
O112 C117 1.258 . S
C113 O103 1.252 . S
C113 O106 1.253 . S
C114 O100 1.265 . S
C114 O119 1.244 . S
O115 Tb104 2.441 . S
O115 C105 1.244 . S
O116 Tb104 2.506 . S
O116 C105 1.265 . S
C117 O112 1.258 . S
C117 O118 1.251 . S
O118 C117 1.251 . S
O119 Tb101 2.441 . S
O119 C114 1.244 . S
O120 Tb121 2.506 . S
O120 C134 1.265 . S
Tb121 O120 2.506 . S
Tb121 O126 2.312 1_455 S
Tb121 O130 2.271 . S
Tb121 O132 2.338 . S
Tb121 O139 2.441 . S
C122 O130 1.252 . S
C122 O131 1.253 . S
O123 Tb124 2.271 . S
O123 C133 1.252 . S
Tb124 O123 2.271 . S
Tb124 O127 2.338 . S
Tb124 O131 2.312 1_655 S
Tb124 O135 2.441 . S
Tb124 O136 2.506 . S
C125 O135 1.244 . S
C125 O136 1.265 . S
O126 Tb121 2.312 1_655 S
O126 C133 1.253 . S
O127 Tb124 2.338 . S
O127 C128 1.258 . S
C128 O127 1.258 . S
C128 O129 1.251 . S
O129 C128 1.251 . S
O130 Tb121 2.271 . S
O130 C122 1.252 . S
O131 C122 1.253 . S
O131 Tb124 2.312 1_455 S
O132 Tb121 2.338 . S
O132 C137 1.258 . S
C133 O123 1.252 . S
C133 O126 1.253 . S
C134 O120 1.265 . S
C134 O139 1.244 . S
O135 Tb124 2.441 . S
O135 C125 1.244 . S
O136 Tb124 2.506 . S
O136 C125 1.265 . S
C137 O132 1.258 . S
C137 O138 1.251 . S
O138 C137 1.251 . S
O139 Tb121 2.441 . S
O139 C134 1.244 . S
O140 Tb141 2.506 . S
O140 C154 1.265 . S
Tb141 O140 2.506 . S
Tb141 O146 2.312 . S
Tb141 O150 2.271 . S
Tb141 O152 2.338 . S
Tb141 O159 2.441 . S
C142 O150 1.252 . S
C142 O151 1.253 . S
O143 Tb144 2.271 . S
O143 C153 1.252 . S
Tb144 O143 2.271 . S
Tb144 O147 2.338 . S
Tb144 O151 2.312 . S
Tb144 O155 2.441 . S
Tb144 O156 2.506 . S
C145 O155 1.244 . S
C145 O156 1.265 . S
O146 Tb141 2.312 . S
O146 C153 1.253 . S
O147 Tb144 2.338 . S
O147 C148 1.258 . S
C148 O147 1.258 . S
C148 O149 1.251 . S
O149 C148 1.251 . S
O150 Tb141 2.271 . S
O150 C142 1.252 . S
O151 C142 1.253 . S
O151 Tb144 2.312 . S
O152 Tb141 2.338 . S
O152 C157 1.258 . S
C153 O143 1.252 . S
C153 O146 1.253 . S
C154 O140 1.265 . S
C154 O159 1.244 . S
O155 Tb144 2.441 . S
O155 C145 1.244 . S
O156 Tb144 2.506 . S
O156 C145 1.265 . S
C157 O152 1.258 . S
C157 O158 1.251 . S
O158 C157 1.251 . S
O159 Tb141 2.441 . S
O159 C154 1.244 . S
O160 Tb161 2.506 . S
O160 C174 1.265 . S
Tb161 O160 2.506 . S
Tb161 O166 2.312 1_565 S
Tb161 O170 2.271 . S
Tb161 O172 2.338 . S
Tb161 O179 2.441 . S
C162 O170 1.252 . S
C162 O171 1.253 . S
O163 Tb164 2.271 . S
O163 C173 1.252 . S
Tb164 O163 2.271 . S
Tb164 O167 2.338 . S
Tb164 O171 2.312 1_545 S
Tb164 O175 2.441 . S
Tb164 O176 2.506 . S
C165 O175 1.244 . S
C165 O176 1.265 . S
O166 Tb161 2.312 1_545 S
O166 C173 1.253 . S
O167 Tb164 2.338 . S
O167 C168 1.258 . S
C168 O167 1.258 . S
C168 O169 1.251 . S
O169 C168 1.251 . S
O170 Tb161 2.271 . S
O170 C162 1.252 . S
O171 C162 1.253 . S
O171 Tb164 2.312 1_565 S
O172 Tb161 2.338 . S
O172 C177 1.258 . S
C173 O163 1.252 . S
C173 O166 1.253 . S
C174 O160 1.265 . S
C174 O179 1.244 . S
O175 Tb164 2.441 . S
O175 C165 1.244 . S
O176 Tb164 2.506 . S
O176 C165 1.265 . S
C177 O172 1.258 . S
C177 O178 1.251 . S
O178 C177 1.251 . S
O179 Tb161 2.441 . S
O179 C174 1.244 . S
O180 Tb181 2.506 . S
O180 C194 1.265 . S
Tb181 O180 2.506 . S
Tb181 O186 2.312 . S
Tb181 O190 2.271 . S
Tb181 O192 2.338 . S
Tb181 O199 2.441 . S
C182 O190 1.252 . S
C182 O191 1.253 . S
O183 Tb184 2.271 . S
O183 C193 1.252 . S
Tb184 O183 2.271 . S
Tb184 O187 2.338 . S
Tb184 O191 2.312 . S
Tb184 O195 2.441 . S
Tb184 O196 2.506 . S
C185 O195 1.244 . S
C185 O196 1.265 . S
O186 Tb181 2.312 . S
O186 C193 1.253 . S
O187 Tb184 2.338 . S
O187 C188 1.258 . S
C188 O187 1.258 . S
C188 O189 1.251 . S
O189 C188 1.251 . S
O190 Tb181 2.271 . S
O190 C182 1.252 . S
O191 C182 1.253 . S
O191 Tb184 2.312 . S
O192 Tb181 2.338 . S
O192 C197 1.258 . S
C193 O183 1.252 . S
C193 O186 1.253 . S
C194 O180 1.265 . S
C194 O199 1.244 . S
O195 Tb184 2.441 . S
O195 C185 1.244 . S
O196 Tb184 2.506 . S
O196 C185 1.265 . S
C197 O192 1.258 . S
C197 O198 1.251 . S
O198 C197 1.251 . S
O199 Tb181 2.441 . S
O199 C194 1.244 . S
O200 Tb201 2.506 . S
O200 C214 1.265 . S
Tb201 O200 2.506 . S
Tb201 O206 2.312 1_545 S
Tb201 O210 2.271 . S
Tb201 O212 2.338 . S
Tb201 O219 2.441 . S
C202 O210 1.252 . S
C202 O211 1.253 . S
O203 Tb204 2.271 . S
O203 C213 1.252 . S
Tb204 O203 2.271 . S
Tb204 O207 2.338 . S
Tb204 O211 2.312 1_565 S
Tb204 O215 2.441 . S
Tb204 O216 2.506 . S
C205 O215 1.244 . S
C205 O216 1.265 . S
O206 Tb201 2.312 1_565 S
O206 C213 1.253 . S
O207 Tb204 2.338 . S
O207 C208 1.258 . S
C208 O207 1.258 . S
C208 O209 1.251 . S
O209 C208 1.251 . S
O210 Tb201 2.271 . S
O210 C202 1.252 . S
O211 C202 1.253 . S
O211 Tb204 2.312 1_545 S
O212 Tb201 2.338 . S
O212 C217 1.258 . S
C213 O203 1.252 . S
C213 O206 1.253 . S
C214 O200 1.265 . S
C214 O219 1.244 . S
O215 Tb204 2.441 . S
O215 C205 1.244 . S
O216 Tb204 2.506 . S
O216 C205 1.265 . S
C217 O212 1.258 . S
C217 O218 1.251 . S
O218 C217 1.251 . S
O219 Tb201 2.441 . S
O219 C214 1.244 . S
O220 Tb221 2.506 . S
O220 C234 1.265 . S
Tb221 O220 2.506 . S
Tb221 O226 2.312 . S
Tb221 O230 2.271 . S
Tb221 O232 2.338 . S
Tb221 O239 2.441 . S
C222 O230 1.252 . S
C222 O231 1.253 . S
O223 Tb224 2.271 . S
O223 C233 1.252 . S
Tb224 O223 2.271 . S
Tb224 O227 2.338 . S
Tb224 O231 2.312 . S
Tb224 O235 2.441 . S
Tb224 O236 2.506 . S
C225 O235 1.244 . S
C225 O236 1.265 . S
O226 Tb221 2.312 . S
O226 C233 1.253 . S
O227 Tb224 2.338 . S
O227 C228 1.258 . S
C228 O227 1.258 . S
C228 O229 1.251 . S
O229 C228 1.251 . S
O230 Tb221 2.271 . S
O230 C222 1.252 . S
O231 C222 1.253 . S
O231 Tb224 2.312 . S
O232 Tb221 2.338 . S
O232 C237 1.258 . S
C233 O223 1.252 . S
C233 O226 1.253 . S
C234 O220 1.265 . S
C234 O239 1.244 . S
O235 Tb224 2.441 . S
O235 C225 1.244 . S
O236 Tb224 2.506 . S
O236 C225 1.265 . S
C237 O232 1.258 . S
C237 O238 1.251 . S
O238 C237 1.251 . S
O239 Tb221 2.441 . S
O239 C234 1.244 . S
O240 Tb241 2.506 . S
O240 C254 1.265 . S
Tb241 O240 2.506 . S
Tb241 O246 2.312 1_545 S
Tb241 O250 2.271 . S
Tb241 O252 2.338 . S
Tb241 O259 2.441 . S
C242 O250 1.252 . S
C242 O251 1.253 . S
O243 Tb244 2.271 . S
O243 C253 1.252 . S
Tb244 O243 2.271 . S
Tb244 O247 2.338 . S
Tb244 O251 2.312 1_565 S
Tb244 O255 2.441 . S
Tb244 O256 2.506 . S
C245 O255 1.244 . S
C245 O256 1.265 . S
O246 Tb241 2.312 1_565 S
O246 C253 1.253 . S
O247 Tb244 2.338 . S
O247 C248 1.258 . S
C248 O247 1.258 . S
C248 O249 1.251 . S
O249 C248 1.251 . S
O250 Tb241 2.271 . S
O250 C242 1.252 . S
O251 C242 1.253 . S
O251 Tb244 2.312 1_545 S
O252 Tb241 2.338 . S
O252 C257 1.258 . S
C253 O243 1.252 . S
C253 O246 1.253 . S
C254 O240 1.265 . S
C254 O259 1.244 . S
O255 Tb244 2.441 . S
O255 C245 1.244 . S
O256 Tb244 2.506 . S
O256 C245 1.265 . S
C257 O252 1.258 . S
C257 O258 1.251 . S
O258 C257 1.251 . S
O259 Tb241 2.441 . S
O259 C254 1.244 . S
O260 Tb261 2.506 . S
O260 C274 1.265 . S
Tb261 O260 2.506 . S
Tb261 O266 2.312 . S
Tb261 O270 2.271 . S
Tb261 O272 2.338 . S
Tb261 O279 2.441 . S
C262 O270 1.252 . S
C262 O271 1.253 . S
O263 Tb264 2.271 . S
O263 C273 1.252 . S
Tb264 O263 2.271 . S
Tb264 O267 2.338 . S
Tb264 O271 2.312 . S
Tb264 O275 2.441 . S
Tb264 O276 2.506 . S
C265 O275 1.244 . S
C265 O276 1.265 . S
O266 Tb261 2.312 . S
O266 C273 1.253 . S
O267 Tb264 2.338 . S
O267 C268 1.258 . S
C268 O267 1.258 . S
C268 O269 1.251 . S
O269 C268 1.251 . S
O270 Tb261 2.271 . S
O270 C262 1.252 . S
O271 C262 1.253 . S
O271 Tb264 2.312 . S
O272 Tb261 2.338 . S
O272 C277 1.258 . S
C273 O263 1.252 . S
C273 O266 1.253 . S
C274 O260 1.265 . S
C274 O279 1.244 . S
O275 Tb264 2.441 . S
O275 C265 1.244 . S
O276 Tb264 2.506 . S
O276 C265 1.265 . S
C277 O272 1.258 . S
C277 O278 1.251 . S
O278 C277 1.251 . S
O279 Tb261 2.441 . S
O279 C274 1.244 . S
O280 Tb281 2.506 . S
O280 C294 1.265 . S
Tb281 O280 2.506 . S
Tb281 O286 2.312 1_565 S
Tb281 O290 2.271 . S
Tb281 O292 2.338 . S
Tb281 O299 2.441 . S
C282 O290 1.252 . S
C282 O291 1.253 . S
O283 Tb284 2.271 . S
O283 C293 1.252 . S
Tb284 O283 2.271 . S
Tb284 O287 2.338 . S
Tb284 O291 2.312 1_545 S
Tb284 O295 2.441 . S
Tb284 O296 2.506 . S
C285 O295 1.244 . S
C285 O296 1.265 . S
O286 Tb281 2.312 1_545 S
O286 C293 1.253 . S
O287 Tb284 2.338 . S
O287 C288 1.258 . S
C288 O287 1.258 . S
C288 O289 1.251 . S
O289 C288 1.251 . S
O290 Tb281 2.271 . S
O290 C282 1.252 . S
O291 C282 1.253 . S
O291 Tb284 2.312 1_565 S
O292 Tb281 2.338 . S
O292 C297 1.258 . S
C293 O283 1.252 . S
C293 O286 1.253 . S
C294 O280 1.265 . S
C294 O299 1.244 . S
O295 Tb284 2.441 . S
O295 C285 1.244 . S
O296 Tb284 2.506 . S
O296 C285 1.265 . S
C297 O292 1.258 . S
C297 O298 1.251 . S
O298 C297 1.251 . S
O299 Tb281 2.441 . S
O299 C294 1.244 . S
O300 Tb301 2.506 . S
O300 C314 1.265 . S
Tb301 O300 2.506 . S
Tb301 O306 2.312 . S
Tb301 O310 2.271 . S
Tb301 O312 2.338 . S
Tb301 O319 2.441 . S
C302 O310 1.252 . S
C302 O311 1.253 . S
O303 Tb304 2.271 . S
O303 C313 1.252 . S
Tb304 O303 2.271 . S
Tb304 O307 2.338 . S
Tb304 O311 2.312 . S
Tb304 O315 2.441 . S
Tb304 O316 2.506 . S
C305 O315 1.244 . S
C305 O316 1.265 . S
O306 Tb301 2.312 . S
O306 C313 1.253 . S
O307 Tb304 2.338 . S
O307 C308 1.258 . S
C308 O307 1.258 . S
C308 O309 1.251 . S
O309 C308 1.251 . S
O310 Tb301 2.271 . S
O310 C302 1.252 . S
O311 C302 1.253 . S
O311 Tb304 2.312 . S
O312 Tb301 2.338 . S
O312 C317 1.258 . S
C313 O303 1.252 . S
C313 O306 1.253 . S
C314 O300 1.265 . S
C314 O319 1.244 . S
O315 Tb304 2.441 . S
O315 C305 1.244 . S
O316 Tb304 2.506 . S
O316 C305 1.265 . S
C317 O312 1.258 . S
C317 O318 1.251 . S
O318 C317 1.251 . S
O319 Tb301 2.441 . S
O319 C314 1.244 . S
O320 Tb321 2.506 . S
O320 C334 1.265 . S
Tb321 O320 2.506 . S
Tb321 O326 2.312 1_556 S
Tb321 O330 2.271 . S
Tb321 O332 2.338 . S
Tb321 O339 2.441 . S
C322 O330 1.252 . S
C322 O331 1.253 . S
O323 Tb324 2.271 . S
O323 C333 1.252 . S
Tb324 O323 2.271 . S
Tb324 O327 2.338 . S
Tb324 O331 2.312 1_554 S
Tb324 O335 2.441 . S
Tb324 O336 2.506 . S
C325 O335 1.244 . S
C325 O336 1.265 . S
O326 Tb321 2.312 1_554 S
O326 C333 1.253 . S
O327 Tb324 2.338 . S
O327 C328 1.258 . S
C328 O327 1.258 . S
C328 O329 1.251 . S
O329 C328 1.251 . S
O330 Tb321 2.271 . S
O330 C322 1.252 . S
O331 C322 1.253 . S
O331 Tb324 2.312 1_556 S
O332 Tb321 2.338 . S
O332 C337 1.258 . S
C333 O323 1.252 . S
C333 O326 1.253 . S
C334 O320 1.265 . S
C334 O339 1.244 . S
O335 Tb324 2.441 . S
O335 C325 1.244 . S
O336 Tb324 2.506 . S
O336 C325 1.265 . S
C337 O332 1.258 . S
C337 O338 1.251 . S
O338 C337 1.251 . S
O339 Tb321 2.441 . S
O339 C334 1.244 . S
O340 Tb341 2.506 . S
O340 C354 1.265 . S
Tb341 O340 2.506 . S
Tb341 O346 2.312 1_554 S
Tb341 O350 2.271 . S
Tb341 O352 2.338 . S
Tb341 O359 2.441 . S
C342 O350 1.252 . S
C342 O351 1.253 . S
O343 Tb344 2.271 . S
O343 C353 1.252 . S
Tb344 O343 2.271 . S
Tb344 O347 2.338 . S
Tb344 O351 2.312 1_556 S
Tb344 O355 2.441 . S
Tb344 O356 2.506 . S
C345 O355 1.244 . S
C345 O356 1.265 . S
O346 Tb341 2.312 1_556 S
O346 C353 1.253 . S
O347 Tb344 2.338 . S
O347 C348 1.258 . S
C348 O347 1.258 . S
C348 O349 1.251 . S
O349 C348 1.251 . S
O350 Tb341 2.271 . S
O350 C342 1.252 . S
O351 C342 1.253 . S
O351 Tb344 2.312 1_554 S
O352 Tb341 2.338 . S
O352 C357 1.258 . S
C353 O343 1.252 . S
C353 O346 1.253 . S
C354 O340 1.265 . S
C354 O359 1.244 . S
O355 Tb344 2.441 . S
O355 C345 1.244 . S
O356 Tb344 2.506 . S
O356 C345 1.265 . S
C357 O352 1.258 . S
C357 O358 1.251 . S
O358 C357 1.251 . S
O359 Tb341 2.441 . S
O359 C354 1.244 . S
O360 Tb361 2.506 . S
O360 C374 1.265 . S
Tb361 O360 2.506 . S
Tb361 O366 2.312 . S
Tb361 O370 2.271 . S
Tb361 O372 2.338 . S
Tb361 O379 2.441 . S
C362 O370 1.252 . S
C362 O371 1.253 . S
O363 Tb364 2.271 . S
O363 C373 1.252 . S
Tb364 O363 2.271 . S
Tb364 O367 2.338 . S
Tb364 O371 2.312 . S
Tb364 O375 2.441 . S
Tb364 O376 2.506 . S
C365 O375 1.244 . S
C365 O376 1.265 . S
O366 Tb361 2.312 . S
O366 C373 1.253 . S
O367 Tb364 2.338 . S
O367 C368 1.258 . S
C368 O367 1.258 . S
C368 O369 1.251 . S
O369 C368 1.251 . S
O370 Tb361 2.271 . S
O370 C362 1.252 . S
O371 C362 1.253 . S
O371 Tb364 2.312 . S
O372 Tb361 2.338 . S
O372 C377 1.258 . S
C373 O363 1.252 . S
C373 O366 1.253 . S
C374 O360 1.265 . S
C374 O379 1.244 . S
O375 Tb364 2.441 . S
O375 C365 1.244 . S
O376 Tb364 2.506 . S
O376 C365 1.265 . S
C377 O372 1.258 . S
C377 O378 1.251 . S
O378 C377 1.251 . S
O379 Tb361 2.441 . S
O379 C374 1.244 . S
O380 Tb381 2.506 . S
O380 C394 1.265 . S
Tb381 O380 2.506 . S
Tb381 O386 2.312 1_554 S
Tb381 O390 2.271 . S
Tb381 O392 2.338 . S
Tb381 O399 2.441 . S
C382 O390 1.252 . S
C382 O391 1.253 . S
O383 Tb384 2.271 . S
O383 C393 1.252 . S
Tb384 O383 2.271 . S
Tb384 O387 2.338 . S
Tb384 O391 2.312 1_556 S
Tb384 O395 2.441 . S
Tb384 O396 2.506 . S
C385 O395 1.244 . S
C385 O396 1.265 . S
O386 Tb381 2.312 1_556 S
O386 C393 1.253 . S
O387 Tb384 2.338 . S
O387 C388 1.258 . S
C388 O387 1.258 . S
C388 O389 1.251 . S
O389 C388 1.251 . S
O390 Tb381 2.271 . S
O390 C382 1.252 . S
O391 C382 1.253 . S
O391 Tb384 2.312 1_554 S
O392 Tb381 2.338 . S
O392 C397 1.258 . S
C393 O383 1.252 . S
C393 O386 1.253 . S
C394 O380 1.265 . S
C394 O399 1.244 . S
O395 Tb384 2.441 . S
O395 C385 1.244 . S
O396 Tb384 2.506 . S
O396 C385 1.265 . S
C397 O392 1.258 . S
C397 O398 1.251 . S
O398 C397 1.251 . S
O399 Tb381 2.441 . S
O399 C394 1.244 . S
O400 Tb401 2.506 . S
O400 C414 1.265 . S
Tb401 O400 2.506 . S
Tb401 O406 2.312 . S
Tb401 O410 2.271 . S
Tb401 O412 2.338 . S
Tb401 O419 2.441 . S
C402 O410 1.252 . S
C402 O411 1.253 . S
O403 Tb404 2.271 . S
O403 C413 1.252 . S
Tb404 O403 2.271 . S
Tb404 O407 2.338 . S
Tb404 O411 2.312 . S
Tb404 O415 2.441 . S
Tb404 O416 2.506 . S
C405 O415 1.244 . S
C405 O416 1.265 . S
O406 Tb401 2.312 . S
O406 C413 1.253 . S
O407 Tb404 2.338 . S
O407 C408 1.258 . S
C408 O407 1.258 . S
C408 O409 1.251 . S
O409 C408 1.251 . S
O410 Tb401 2.271 . S
O410 C402 1.252 . S
O411 C402 1.253 . S
O411 Tb404 2.312 . S
O412 Tb401 2.338 . S
O412 C417 1.258 . S
C413 O403 1.252 . S
C413 O406 1.253 . S
C414 O400 1.265 . S
C414 O419 1.244 . S
O415 Tb404 2.441 . S
O415 C405 1.244 . S
O416 Tb404 2.506 . S
O416 C405 1.265 . S
C417 O412 1.258 . S
C417 O418 1.251 . S
O418 C417 1.251 . S
O419 Tb401 2.441 . S
O419 C414 1.244 . S
O420 Tb421 2.506 . S
O420 C434 1.265 . S
Tb421 O420 2.506 . S
Tb421 O426 2.312 1_556 S
Tb421 O430 2.271 . S
Tb421 O432 2.338 . S
Tb421 O439 2.441 . S
C422 O430 1.252 . S
C422 O431 1.253 . S
O423 Tb424 2.271 . S
O423 C433 1.252 . S
Tb424 O423 2.271 . S
Tb424 O427 2.338 . S
Tb424 O431 2.312 1_554 S
Tb424 O435 2.441 . S
Tb424 O436 2.506 . S
C425 O435 1.244 . S
C425 O436 1.265 . S
O426 Tb421 2.312 1_554 S
O426 C433 1.253 . S
O427 Tb424 2.338 . S
O427 C428 1.258 . S
C428 O427 1.258 . S
C428 O429 1.251 . S
O429 C428 1.251 . S
O430 Tb421 2.271 . S
O430 C422 1.252 . S
O431 C422 1.253 . S
O431 Tb424 2.312 1_556 S
O432 Tb421 2.338 . S
O432 C437 1.258 . S
C433 O423 1.252 . S
C433 O426 1.253 . S
C434 O420 1.265 . S
C434 O439 1.244 . S
O435 Tb424 2.441 . S
O435 C425 1.244 . S
O436 Tb424 2.506 . S
O436 C425 1.265 . S
C437 O432 1.258 . S
C437 O438 1.251 . S
O438 C437 1.251 . S
O439 Tb421 2.441 . S
O439 C434 1.244 . S
O440 Tb441 2.506 . S
O440 C454 1.265 . S
Tb441 O440 2.506 . S
Tb441 O446 2.312 . S
Tb441 O450 2.271 . S
Tb441 O452 2.338 . S
Tb441 O459 2.441 . S
C442 O450 1.252 . S
C442 O451 1.253 . S
O443 Tb444 2.271 . S
O443 C453 1.252 . S
Tb444 O443 2.271 . S
Tb444 O447 2.338 . S
Tb444 O451 2.312 . S
Tb444 O455 2.441 . S
Tb444 O456 2.506 . S
C445 O455 1.244 . S
C445 O456 1.265 . S
O446 Tb441 2.312 . S
O446 C453 1.253 . S
O447 Tb444 2.338 . S
O447 C448 1.258 . S
C448 O447 1.258 . S
C448 O449 1.251 . S
O449 C448 1.251 . S
O450 Tb441 2.271 . S
O450 C442 1.252 . S
O451 C442 1.253 . S
O451 Tb444 2.312 . S
O452 Tb441 2.338 . S
O452 C457 1.258 . S
C453 O443 1.252 . S
C453 O446 1.253 . S
C454 O440 1.265 . S
C454 O459 1.244 . S
O455 Tb444 2.441 . S
O455 C445 1.244 . S
O456 Tb444 2.506 . S
O456 C445 1.265 . S
C457 O452 1.258 . S
C457 O458 1.251 . S
O458 C457 1.251 . S
O459 Tb441 2.441 . S
O459 C454 1.244 . S
O460 Tb461 2.506 . S
O460 C474 1.265 . S
Tb461 O460 2.506 . S
Tb461 O466 2.312 . S
Tb461 O470 2.271 . S
Tb461 O472 2.338 . S
Tb461 O479 2.441 . S
C462 O470 1.252 . S
C462 O471 1.253 . S
O463 Tb464 2.271 . S
O463 C473 1.252 . S
Tb464 O463 2.271 . S
Tb464 O467 2.338 . S
Tb464 O471 2.312 . S
Tb464 O475 2.441 . S
Tb464 O476 2.506 . S
C465 O475 1.244 . S
C465 O476 1.265 . S
O466 Tb461 2.312 . S
O466 C473 1.253 . S
O467 Tb464 2.338 . S
O467 C468 1.258 . S
C468 O467 1.258 . S
C468 O469 1.251 . S
O469 C468 1.251 . S
O470 Tb461 2.271 . S
O470 C462 1.252 . S
O471 C462 1.253 . S
O471 Tb464 2.312 . S
O472 Tb461 2.338 . S
O472 C477 1.258 . S
C473 O463 1.252 . S
C473 O466 1.253 . S
C474 O460 1.265 . S
C474 O479 1.244 . S
O475 Tb464 2.441 . S
O475 C465 1.244 . S
O476 Tb464 2.506 . S
O476 C465 1.265 . S
C477 O472 1.258 . S
C477 O478 1.251 . S
O478 C477 1.251 . S
O479 Tb461 2.441 . S
O479 C474 1.244 . S
C13 C328 3.793 . S
C33 C477 3.793 . S
C428 C53 3.793 . S
C73 C448 3.792 . S
C93 C348 3.793 . S
C113 C368 3.792 . S
C133 C388 3.793 . S
C153 C417 3.793 . S
C173 C8 3.793 . S
C193 C28 3.792 . S
C48 C213 3.793 . S
C68 C233 3.792 . S
C253 C88 3.793 . S
C262 C108 3.793 . S
C293 C128 3.793 . S
C313 C148 3.793 . S
C333 C168 3.793 . S
C353 C248 3.793 . S
C277 C373 3.792 . S
C393 C288 3.793 . S
C402 C308 3.793 . S
C433 C208 3.793 . S
C228 C453 3.793 . S
C462 C188 3.792 . S
C437 C94 1.947 . S
C457 C114 1.947 . S
C134 C337 1.947 . S
C154 C468 1.947 . S
C397 C14 1.947 . S
C34 C408 1.947 . S
C357 C54 1.947 . S
C74 C377 1.947 . S
C294 C97 1.947 . S
C314 C117 1.947 . S
C254 C137 1.947 . S
C157 C265 1.947 . S
C214 C17 1.947 . S
C234 C37 1.947 . S
C174 C57 1.947 . S
C194 C77 1.947 . S
C297 C434 1.947 . S
C394 C217 1.947 . S
C237 C405 1.947 . S
C354 C177 1.947 . S
C374 C197 1.947 . S
C334 C257 1.947 . S
C465 C268 1.947 . S
C317 C454 1.947 . S
C414 C5 2.136 . S
C345 C25 2.136 . S
C45 C365 2.136 . S
C65 C385 2.136 . S
C474 C85 2.136 . S
C105 C425 2.136 . S
C445 C125 2.136 . S
C145 C325 2.136 . S
C165 C305 2.136 . S
C245 C185 2.136 . S
C205 C274 2.136 . S
C285 C225 2.136 . S
C362 C82 5.304 . S
C382 C102 5.304 . S
C122 C413 5.304 . S
C142 C342 5.304 . S
C442 C2 5.304 . S
C322 C22 5.304 . S
C473 C42 5.304 . S
C62 C422 5.304 . S
C182 C282 5.304 . S
C302 C202 5.304 . S
C242 C222 5.304 . S
C273 C162 5.304 . S
