# Generated by pormake.
# Topology uof, (4)-cn, num edge types: 1
# Building blocks:
#     Node 0, Type 0, BuildingBlock: CEKHIL_clean_sbu_0, # of connection points: 4
#     Node 1, Type 0, BuildingBlock: CEKHIL_clean_sbu_0, # of connection points: 4
#     Node 2, Type 0, BuildingBlock: CEKHIL_clean_sbu_0, # of connection points: 4
#     Node 3, Type 0, BuildingBlock: CEKHIL_clean_sbu_0, # of connection points: 4
#     Node 4, Type 0, BuildingBlock: CEKHIL_clean_sbu_0, # of connection points: 4
#     Node 5, Type 0, BuildingBlock: CEKHIL_clean_sbu_0, # of connection points: 4
#     Node 6, Type 0, BuildingBlock: CEKHIL_clean_sbu_0, # of connection points: 4
#     Node 7, Type 0, BuildingBlock: CEKHIL_clean_sbu_0, # of connection points: 4
#     Node 8, Type 0, BuildingBlock: CEKHIL_clean_sbu_0, # of connection points: 4
#     Node 9, Type 0, BuildingBlock: CEKHIL_clean_sbu_0, # of connection points: 4
#     Node 10, Type 0, BuildingBlock: CEKHIL_clean_sbu_0, # of connection points: 4
#     Node 11, Type 0, BuildingBlock: CEKHIL_clean_sbu_0, # of connection points: 4
#     Edge 12, Type (0, 0), BuildingBlock: XIVTED_clean_linker_0, # of connection points: 2
#     Edge 13, Type (0, 0), BuildingBlock: XIVTED_clean_linker_0, # of connection points: 2
#     Edge 14, Type (0, 0), BuildingBlock: XIVTED_clean_linker_0, # of connection points: 2
#     Edge 15, Type (0, 0), BuildingBlock: XIVTED_clean_linker_0, # of connection points: 2
#     Edge 16, Type (0, 0), BuildingBlock: XIVTED_clean_linker_0, # of connection points: 2
#     Edge 17, Type (0, 0), BuildingBlock: XIVTED_clean_linker_0, # of connection points: 2
#     Edge 18, Type (0, 0), BuildingBlock: XIVTED_clean_linker_0, # of connection points: 2
#     Edge 19, Type (0, 0), BuildingBlock: XIVTED_clean_linker_0, # of connection points: 2
#     Edge 20, Type (0, 0), BuildingBlock: XIVTED_clean_linker_0, # of connection points: 2
#     Edge 21, Type (0, 0), BuildingBlock: XIVTED_clean_linker_0, # of connection points: 2
#     Edge 22, Type (0, 0), BuildingBlock: XIVTED_clean_linker_0, # of connection points: 2
#     Edge 23, Type (0, 0), BuildingBlock: XIVTED_clean_linker_0, # of connection points: 2
#     Edge 24, Type (0, 0), BuildingBlock: XIVTED_clean_linker_0, # of connection points: 2
#     Edge 25, Type (0, 0), BuildingBlock: XIVTED_clean_linker_0, # of connection points: 2
#     Edge 26, Type (0, 0), BuildingBlock: XIVTED_clean_linker_0, # of connection points: 2
#     Edge 27, Type (0, 0), BuildingBlock: XIVTED_clean_linker_0, # of connection points: 2
#     Edge 28, Type (0, 0), BuildingBlock: XIVTED_clean_linker_0, # of connection points: 2
#     Edge 29, Type (0, 0), BuildingBlock: XIVTED_clean_linker_0, # of connection points: 2
#     Edge 30, Type (0, 0), BuildingBlock: XIVTED_clean_linker_0, # of connection points: 2
#     Edge 31, Type (0, 0), BuildingBlock: XIVTED_clean_linker_0, # of connection points: 2
#     Edge 32, Type (0, 0), BuildingBlock: XIVTED_clean_linker_0, # of connection points: 2
#     Edge 33, Type (0, 0), BuildingBlock: XIVTED_clean_linker_0, # of connection points: 2
#     Edge 34, Type (0, 0), BuildingBlock: XIVTED_clean_linker_0, # of connection points: 2
#     Edge 35, Type (0, 0), BuildingBlock: XIVTED_clean_linker_0, # of connection points: 2
# Relax obj value: 0.198
# Max RMSD: 0.142
# Mean RMSD: 0.142
data_MOF--net-uof--node1-CEKHIL_clean_sbu_0--edge1-XIVTED_clean_linker_0
_symmetry_space_group_name_H-M    P1
_symmetry_Int_Tables_number       1
_symmetry_cell_setting            triclinic
loop_
_symmetry_equiv_pos_as_xyz
'x, y, z'
_cell_length_a     31.988476
_cell_length_b     31.996528
_cell_length_c     62.674548
_cell_angle_alpha  90.053196
_cell_angle_beta   89.961597
_cell_angle_gamma 119.98951
loop_
_atom_site_label
_atom_site_type_symbol
_atom_site_fract_x
_atom_site_fract_y
_atom_site_fract_z
_atom_type_partial_charge
Co0 Co 0.23423 0.32237 0.23584 0.0
O1 O 0.16456 0.29592 0.23494 0.0
O2 O 0.21425 0.34049 0.20949 0.0
C3 C 0.24686 0.34607 0.27039 0.0
O4 O 0.30848 0.3574 0.23148 0.0
Co5 Co 0.27834 0.27667 0.26618 0.0
O6 O 0.34112 0.32964 0.25557 0.0
C7 C 0.21661 0.22213 0.23054 0.0
C8 C 0.16978 0.31425 0.21599 0.0
C9 C 0.34547 0.35837 0.2405 0.0
O10 O 0.22489 0.26188 0.2217 0.0
O11 O 0.22881 0.21994 0.24974 0.0
O12 O 0.24389 0.37432 0.2562 0.0
O13 O 0.23747 0.30467 0.26355 0.0
Co14 Co 0.91951 0.23747 0.55989 0.0
O15 O 0.89169 0.16789 0.56105 0.0
O16 O 0.86435 0.204 0.54018 0.0
C17 C 0.93062 0.2517 0.59544 0.0
O18 O 0.94014 0.30971 0.55493 0.0
Co19 Co 0.02577 0.30273 0.5764 0.0
O20 O 0.0148 0.35641 0.56881 0.0
C21 C 1.00137 0.23422 0.54124 0.0
C22 C 0.86248 0.16384 0.54582 0.0
C23 C 0.97716 0.35157 0.55952 0.0
O24 O 0.96409 0.23817 0.53724 0.0
O25 O 0.02787 0.25324 0.55767 0.0
O26 O 0.88834 0.23874 0.58725 0.0
O27 O 0.96128 0.25122 0.58254 0.0
Co28 Co 0.71669 0.93265 0.8865 0.0
O29 O 0.75447 0.90035 0.88792 0.0
O30 O 0.69077 0.8765 0.86736 0.0
C31 C 0.71331 0.94679 0.92168 0.0
O32 O 0.6688 0.95768 0.88125 0.0
Co33 Co 0.76549 0.04101 0.90092 0.0
O34 O 0.70366 0.03557 0.89201 0.0
C35 C 0.80496 1.00789 0.86748 0.0
C36 C 0.7273 0.87152 0.87293 0.0
C37 C 0.66814 0.99756 0.88425 0.0
O38 O 0.76179 0.97404 0.86346 0.0
O39 O 0.81505 0.03566 0.88364 0.0
O40 O 0.68348 0.90414 0.91394 0.0
O41 O 0.74631 0.97539 0.9088 0.0
Co42 Co 0.79574 0.69282 0.23203 0.0
O43 O 0.86502 0.73534 0.23427 0.0
O44 O 0.83128 0.67064 0.21397 0.0
C45 C 0.7761 0.69082 0.26707 0.0
O46 O 0.72418 0.6406 0.22613 0.0
Co47 Co 0.72977 0.73612 0.24401 0.0
O48 O 0.67679 0.6715 0.23573 0.0
C49 C 0.80424 0.77728 0.21158 0.0
C50 C 0.87059 0.70984 0.21962 0.0
C51 C 0.68215 0.63715 0.22853 0.0
O52 O 0.79695 0.73468 0.20805 0.0
O53 O 0.78491 0.78688 0.22726 0.0
O54 O 0.79201 0.66263 0.26036 0.0
O55 O 0.77845 0.72132 0.25328 0.0
Co56 Co 0.0988 0.79737 0.5644 0.0
O57 O 0.14107 0.86714 0.5642 0.0
O58 O 0.14055 0.81867 0.53914 0.0
C59 C 0.10516 0.78408 0.5994 0.0
O60 O 0.0614 0.72323 0.55961 0.0
Co61 Co 1.005 0.7509 0.59224 0.0
O62 O 0.99843 0.68885 0.5824 0.0
C63 C 0.01788 0.81567 0.557 0.0
C64 C 0.15695 0.86284 0.54573 0.0
C65 C 0.02509 0.68556 0.5681 0.0
O66 O 0.04916 0.80644 0.54865 0.0
O67 O 1.0017 0.80284 0.57595 0.0
O68 O 0.13845 0.78766 0.58622 0.0
O69 O 0.07388 0.79312 0.59137 0.0
Co70 Co 0.31746 0.09123 0.89148 0.0
O71 O 0.27101 0.11308 0.88837 0.0
O72 O 0.34228 0.1488 0.87302 0.0
C73 C 0.30712 0.07654 0.9273 0.0
O74 O 0.37456 0.07706 0.8912 0.0
Co75 Co 0.28155 0.98569 0.90847 0.0
O76 O 0.35112 0.00911 0.91036 0.0
C77 C 0.25674 1.00297 0.86518 0.0
C78 C 0.30047 0.14612 0.87533 0.0
C79 C 0.38325 0.04549 0.90018 0.0
O80 O 0.28716 0.04844 0.86602 0.0
O81 O 0.2472 0.97399 0.88085 0.0
O82 O 0.33642 0.12021 0.92055 0.0
O83 O 0.2837 0.0461 0.91257 0.0
Co84 Co 0.68627 0.7765 0.44683 0.0
O85 O 0.73685 0.84397 0.44782 0.0
O86 O 0.66498 0.81668 0.46195 0.0
C87 C 0.69711 0.76249 0.41212 0.0
O88 O 0.62472 0.70829 0.44883 0.0
Co89 Co 0.71304 0.69595 0.4367 0.0
O90 O 0.64297 0.65187 0.43774 0.0
C91 C 0.74321 0.75212 0.47674 0.0
C92 C 0.70846 0.85306 0.45922 0.0
C93 C 0.61291 0.66401 0.44434 0.0
O94 O 0.7128 0.76683 0.47423 0.0
O95 O 0.75116 0.72775 0.46277 0.0
O96 O 0.67095 0.7822 0.41656 0.0
O97 O 0.71774 0.75602 0.42824 0.0
Co98 Co 0.91758 0.69455 0.7612 0.0
O99 O 0.88373 0.73082 0.76076 0.0
O100 O 0.87151 0.6762 0.785 0.0
C101 C 0.9148 0.67868 0.72588 0.0
O102 O 0.94637 0.64985 0.76646 0.0
Co103 Co 0.01568 0.73609 0.73631 0.0
O104 O 0.01485 0.67744 0.74711 0.0
C105 C 1.00313 0.78793 0.77164 0.0
C106 C 0.8628 0.70979 0.77847 0.0
C107 C 0.98327 0.6468 0.75985 0.0
O108 O 0.96877 0.74774 0.77887 0.0
O109 O 0.02165 0.79187 0.75315 0.0
O110 O 0.8775 0.65077 0.7377 0.0
O111 O 0.94808 0.71586 0.73523 0.0
Co112 Co 0.24578 0.9292 0.11272 0.0
O113 O 0.1776 0.90877 0.11554 0.0
O114 O 0.21092 0.86963 0.12969 0.0
C115 C 0.25319 0.9484 0.07736 0.0
O116 O 0.31579 0.94028 0.11312 0.0
Co117 Co 0.31999 0.03613 0.09894 0.0
O118 O 0.36731 0.01406 0.09945 0.0
C119 C 0.27195 0.01397 0.14098 0.0
C120 C 0.17251 0.87364 0.12763 0.0
C121 C 0.35855 0.97369 0.10715 0.0
O122 O 0.25788 0.96884 0.13925 0.0
O123 O 0.29278 0.04468 0.12602 0.0
O124 O 0.23642 0.90366 0.08313 0.0
O125 O 0.26057 0.97769 0.09272 0.0
Co126 Co 0.30131 0.22222 0.43264 0.0
O127 O 0.27887 0.15332 0.43278 0.0
O128 O 0.32413 0.2036 0.45795 0.0
C129 C 0.32143 0.23732 0.39772 0.0
O130 O 0.33283 0.29597 0.43751 0.0
Co131 Co 0.24799 0.26222 0.40474 0.0
O132 O 0.30276 0.32599 0.41327 0.0
C133 C 0.19983 0.19925 0.44115 0.0
C134 C 0.29906 0.15909 0.45134 0.0
C135 C 0.33266 0.33196 0.42807 0.0
O136 O 0.24109 0.20826 0.44851 0.0
O137 O 0.19451 0.21284 0.42268 0.0
O138 O 0.3523 0.23628 0.41102 0.0
O139 O 0.27986 0.22462 0.40555 0.0
Co140 Co 0.10629 0.3198 0.76406 0.0
O141 O 0.14189 0.28519 0.76318 0.0
O142 O 0.152 0.33814 0.78797 0.0
C143 C 0.10946 0.33744 0.729 0.0
O144 O 0.07602 0.36317 0.7698 0.0
Co145 Co 1.00824 0.27807 0.73917 0.0
O146 O 1.00804 0.33594 0.75015 0.0
C147 C 0.02307 0.22432 0.77308 0.0
C148 C 0.16219 0.3058 0.78106 0.0
C149 C 0.03922 0.36628 0.76309 0.0
O150 O 0.05579 0.26451 0.78109 0.0
O151 O 1.00353 0.22174 0.75498 0.0
O152 O 0.14627 0.36518 0.7411 0.0
O153 O 0.07629 0.29935 0.73791 0.0
Co154 Co 0.80957 0.0985 0.10312 0.0
O155 O 0.87967 0.13277 0.10456 0.0
O156 O 0.83425 0.15284 0.1233 0.0
C157 C 0.80339 0.08799 0.06706 0.0
O158 O 0.73522 0.07104 0.10517 0.0
Co159 Co 0.75409 0.99316 0.08394 0.0
O160 O 0.69891 1.0045 0.08438 0.0
C161 C 0.80185 0.01281 0.1259 0.0
C162 C 0.87739 0.16005 0.11927 0.0
C163 C 0.69727 0.03663 0.09581 0.0
O164 O 0.808 0.05562 0.12686 0.0
O165 O 0.78536 0.98507 0.10967 0.0
O166 O 0.81041 0.12868 0.07508 0.0
O167 O 0.80451 0.05892 0.08065 0.0
H168 H 0.9727 0.19752 0.10861 0.0
H169 H 0.07403 0.27378 0.2272 0.0
H170 H 0.88248 0.19442 0.16036 0.0
H171 H 0.16704 0.32096 0.17209 0.0
H172 H 1.00359 0.24276 0.20352 0.0
H173 H 0.04369 0.24066 0.13162 0.0
C174 C 0.96778 0.20648 0.12474 0.0
C175 C 0.92121 0.1924 0.1324 0.0
C176 C 0.03938 0.26036 0.19658 0.0
C177 C 1.00306 0.24114 0.15927 0.0
C178 C 0.07979 0.27819 0.21013 0.0
C179 C 0.12693 0.30041 0.20175 0.0
C180 C 0.04565 0.26365 0.1743 0.0
C181 C 0.13166 0.30458 0.17939 0.0
C182 C 1.00851 0.23113 0.13792 0.0
C183 C 0.91749 0.20487 0.1536 0.0
N184 N 0.09176 0.28596 0.16653 0.0
N185 N 0.9576 0.22784 0.16631 0.0
H186 H 0.88346 0.09137 0.54328 0.0
H187 H 0.65878 0.89589 0.4769 0.0
H188 H 0.78064 0.12992 0.51975 0.0
H189 H 0.80235 0.91836 0.46862 0.0
H190 H 0.6933 0.97206 0.49753 0.0
H191 H 0.84464 0.01788 0.52176 0.0
C192 C 0.85222 0.08418 0.53382 0.0
C193 C 0.83537 0.11725 0.53355 0.0
C194 C 0.7171 0.96032 0.49103 0.0
C195 C 0.78997 0.03172 0.50871 0.0
C196 C 0.69745 0.9168 0.47927 0.0
C197 C 0.72759 0.9005 0.47077 0.0
C198 C 0.76713 0.98703 0.49497 0.0
C199 C 0.7775 0.9293 0.47458 0.0
C200 C 0.83025 0.04216 0.52137 0.0
C201 C 0.79496 0.10566 0.52057 0.0
N202 N 0.7954 0.97039 0.48654 0.0
N203 N 0.77339 0.06373 0.50885 0.0
H204 H 0.67167 0.78536 0.85086 0.0
H205 H 0.88102 0.80243 0.77989 0.0
H206 H 0.81918 0.89069 0.86552 0.0
H207 H 0.78889 0.66345 0.80848 0.0
H208 H 0.84608 0.83794 0.80357 0.0
H209 H 0.70124 0.74169 0.82839 0.0
C210 C 0.71013 0.7991 0.84953 0.0
C211 C 0.74289 0.84158 0.86039 0.0
C212 C 0.83315 0.79958 0.80451 0.0
C213 C 0.77685 0.79277 0.83409 0.0
C214 C 0.85284 0.77908 0.7909 0.0
C215 C 0.83787 0.72963 0.79202 0.0
C216 C 0.79688 0.77048 0.81909 0.0
C217 C 0.80158 0.70164 0.80697 0.0
C218 C 0.72692 0.77412 0.83674 0.0
C219 C 0.79243 0.85783 0.85779 0.0
N220 N 0.78195 0.72229 0.81976 0.0
N221 N 0.80777 0.83404 0.84471 0.0
H222 H 0.9424 0.8038 0.21773 0.0
H223 H 0.1353 0.78211 0.14569 0.0
H224 H 0.9051 0.66383 0.19271 0.0
H225 H 0.10648 0.8995 0.13953 0.0
H226 H 0.06201 0.73874 0.16809 0.0
H227 H 0.01435 0.8403 0.19521 0.0
C228 C 0.94964 0.78041 0.2078 0.0
C229 C 0.91728 0.73033 0.20736 0.0
C230 C 0.07175 0.77387 0.16169 0.0
C231 C 1.00096 0.77265 0.18131 0.0
C232 C 0.11362 0.79872 0.14893 0.0
C233 C 0.12717 0.84455 0.14047 0.0
C234 C 0.04408 0.79568 0.16666 0.0
C235 C 0.09753 0.86418 0.14541 0.0
C236 C 0.99075 0.80153 0.19476 0.0
C237 C 0.92887 0.70247 0.19372 0.0
N238 N 0.05814 0.84012 0.1583 0.0
N239 N 0.96985 0.72389 0.18138 0.0
H240 H 0.31396 0.15697 0.49468 0.0
H241 H 0.17704 0.86638 0.50264 0.0
H242 H 0.25615 0.06316 0.44009 0.0
H243 H 0.20339 0.95893 0.55699 0.0
H244 H 0.21693 0.93819 0.47972 0.0
H245 H 0.28506 0.08559 0.5177 0.0
C246 C 0.29596 0.12148 0.48744 0.0
C247 C 0.28772 0.11644 0.46529 0.0
C248 C 0.2144 0.94285 0.49669 0.0
C249 C 0.25402 0.03392 0.49176 0.0
C250 C 0.19186 0.90174 0.50986 0.0
C251 C 0.1867 0.90624 0.5319 0.0
C252 C 0.23255 0.98925 0.50554 0.0
C253 C 0.20637 0.95337 0.54015 0.0
C254 C 0.27909 0.08059 0.50065 0.0
C255 C 0.26351 0.06913 0.45701 0.0
N256 N 0.22821 0.99273 0.52705 0.0
N257 N 0.24759 0.03001 0.47016 0.0
H258 H 0.20905 0.11506 0.86155 0.0
H259 H 0.23288 0.35265 0.81221 0.0
H260 H 0.35219 0.23877 0.85768 0.0
H261 H 0.15043 0.2153 0.78073 0.0
H262 H 0.27061 0.31713 0.83487 0.0
H263 H 0.17939 0.15611 0.83834 0.0
C264 C 0.2343 0.15116 0.85603 0.0
C265 C 0.28335 0.17335 0.86173 0.0
C266 C 0.24457 0.29507 0.82284 0.0
C267 C 0.24889 0.22127 0.83521 0.0
C268 C 0.22294 0.31526 0.80993 0.0
C269 C 0.18866 0.28718 0.79429 0.0
C270 C 0.23052 0.24596 0.82068 0.0
C271 C 0.17702 0.23869 0.79229 0.0
C272 C 0.21725 0.17445 0.84265 0.0
C273 C 0.31417 0.22013 0.85374 0.0
N274 N 0.19717 0.21961 0.80545 0.0
N275 N 0.29638 0.24277 0.84111 0.0
H276 H 0.60237 0.62868 0.2092 0.0
H277 H 0.4296 0.35952 0.2503 0.0
H278 H 0.65596 0.54254 0.23811 0.0
H279 H 0.37758 0.44201 0.21655 0.0
H280 H 0.51235 0.42291 0.24334 0.0
H281 H 0.52127 0.55829 0.20857 0.0
C282 C 0.59724 0.59454 0.215 0.0
C283 C 0.63629 0.59163 0.22367 0.0
C284 C 0.48298 0.4271 0.23726 0.0
C285 C 0.54241 0.51051 0.22355 0.0
C286 C 0.4354 0.39081 0.24126 0.0
C287 C 0.39596 0.39523 0.23415 0.0
C288 C 0.49193 0.46884 0.22617 0.0
C289 C 0.40645 0.43674 0.22238 0.0
C290 C 0.5507 0.55432 0.21475 0.0
C291 C 0.62721 0.54643 0.23106 0.0
N292 N 0.45324 0.47199 0.21896 0.0
N293 N 0.58117 0.50789 0.23112 0.0
H294 H 0.9416 0.6001 0.5755 0.0
H295 H 0.05307 0.43397 0.5443 0.0
H296 H 0.08282 0.65604 0.54746 0.0
H297 H 0.90535 0.37557 0.56429 0.0
H298 H 0.0622 0.51435 0.54283 0.0
H299 H 0.92586 0.51814 0.56941 0.0
C300 C 0.96932 0.59531 0.56787 0.0
C301 C 0.0139 0.63559 0.5621 0.0
C302 C 0.0275 0.48405 0.54723 0.0
C303 C 0.99582 0.54063 0.55519 0.0
C304 C 0.02213 0.43793 0.54799 0.0
C305 C 0.97826 0.39769 0.55438 0.0
C306 C 0.98897 0.49074 0.55324 0.0
C307 C 0.93962 0.40529 0.55906 0.0
C308 C 0.96012 0.5482 0.56438 0.0
C309 C 0.04796 0.62646 0.55217 0.0
N310 N 0.94608 0.45095 0.55869 0.0
N311 N 0.03841 0.58013 0.54926 0.0
H312 H 0.41875 1.00174 0.92553 0.0
H313 H 0.66036 0.06962 0.86476 0.0
H314 H 0.45436 0.0889 0.86862 0.0
H315 H 0.57579 0.93419 0.89733 0.0
H316 H 0.59209 0.08439 0.86716 0.0
H317 H 0.48471 0.98696 0.91821 0.0
C318 C 0.44078 0.01839 0.91154 0.0
C319 C 0.43022 0.04634 0.89755 0.0
C320 C 0.58813 0.05101 0.87337 0.0
C321 C 0.50685 0.02908 0.88909 0.0
C322 C 0.62689 0.04234 0.87189 0.0
C323 C 0.62358 1.00024 0.88064 0.0
C324 C 0.54618 0.01811 0.88429 0.0
C325 C 0.57971 0.96663 0.89005 0.0
C326 C 0.47833 0.00942 0.9073 0.0
C327 C 0.461 0.06729 0.8799 0.0
N328 N 0.54315 0.9767 0.89197 0.0
N329 N 0.49797 0.05822 0.87615 0.0
H330 H 0.58616 0.59286 0.47335 0.0
H331 H 0.34227 0.41523 0.41096 0.0
H332 H 0.52973 0.63869 0.42178 0.0
H333 H 0.40717 0.36636 0.45781 0.0
H334 H 0.40401 0.49827 0.41823 0.0
H335 H 0.51409 0.51266 0.47198 0.0
C336 C 0.55759 0.58649 0.46226 0.0
C337 C 0.5635 0.6229 0.44797 0.0
C338 C 0.40468 0.46954 0.42706 0.0
C339 C 0.48145 0.5301 0.44564 0.0
C340 C 0.36926 0.42174 0.42293 0.0
C341 C 0.36921 0.38304 0.43372 0.0
C342 C 0.44086 0.4795 0.44214 0.0
C343 C 0.40551 0.39461 0.44904 0.0
C344 C 0.51674 0.54041 0.46126 0.0
C345 C 0.52611 0.61215 0.43344 0.0
N346 N 0.43986 0.44163 0.4527 0.0
N347 N 0.48695 0.56664 0.43251 0.0
H348 H 0.91493 0.55328 0.7713 0.0
H349 H 0.108 0.46083 0.77251 0.0
H350 H 0.06821 0.64648 0.76284 0.0
H351 H 0.95424 0.36617 0.76707 0.0
H352 H 0.09424 0.52969 0.7761 0.0
H353 H 0.92881 0.4849 0.77673 0.0
C354 C 0.9515 0.55959 0.77097 0.0
C355 C 0.99032 0.60577 0.76642 0.0
C356 C 0.06348 0.49371 0.77442 0.0
C357 C 1.0066 0.52763 0.77258 0.0
C358 C 0.07136 0.45434 0.77256 0.0
C359 C 0.03232 0.40756 0.76936 0.0
C360 C 0.01617 0.48627 0.77327 0.0
C361 C 0.98556 0.40158 0.76931 0.0
C362 C 0.95944 0.52049 0.77393 0.0
C363 C 0.03699 0.61152 0.76605 0.0
N364 N 0.97886 0.44026 0.77109 0.0
N365 N 0.04374 0.57313 0.76896 0.0
H366 H 0.39051 0.9273 0.081 0.0
H367 H 0.66085 0.06796 0.12882 0.0
H368 H 0.42746 0.01466 0.13768 0.0
H369 H 0.62019 0.98936 0.06937 0.0
H370 H 0.57574 0.04602 0.13412 0.0
H371 H 0.4737 0.94288 0.0791 0.0
C372 C 0.41568 0.94808 0.09355 0.0
C373 C 0.4017 0.96847 0.10987 0.0
C374 C 0.58568 0.03375 0.1199 0.0
C375 C 0.49801 0.98889 0.10726 0.0
C376 C 0.63438 0.04674 0.11678 0.0
C377 C 0.64802 0.03047 0.09866 0.0
C378 C 0.55042 1.0043 0.10481 0.0
C379 C 0.61171 1.00251 0.08372 0.0
C380 C 0.46352 0.95785 0.09227 0.0
C381 C 0.43652 0.99715 0.12517 0.0
N382 N 0.56503 0.99031 0.08716 0.0
N383 N 0.48303 1.00679 0.12344 0.0
H384 H 0.18908 0.96686 0.16479 0.0
H385 H 0.21541 0.21652 0.18706 0.0
H386 H 0.32267 0.1021 0.15867 0.0
H387 H 0.18304 0.12929 0.24391 0.0
H388 H 0.21711 0.15226 0.16675 0.0
H389 H 0.15704 1.00781 0.18738 0.0
C390 C 0.21212 1.00459 0.1688 0.0
C391 C 0.25831 0.03156 0.15976 0.0
C392 C 0.208 0.14681 0.18357 0.0
C393 C 0.22152 0.07779 0.18418 0.0
C394 C 0.20695 0.18329 0.19514 0.0
C395 C 0.20107 0.17891 0.21731 0.0
C396 C 0.20275 0.10601 0.19427 0.0
C397 C 0.18944 0.13462 0.2269 0.0
C398 C 0.19358 0.02781 0.1813 0.0
C399 C 0.28666 0.08034 0.16513 0.0
N400 N 0.19202 0.10006 0.21538 0.0
N401 N 0.2674 0.1022 0.17664 0.0
H402 H 0.97202 0.2061 0.49987 0.0
H403 H 0.19479 0.17059 0.48278 0.0
H404 H 0.05951 0.19745 0.55021 0.0
H405 H 0.10758 0.17712 0.4317 0.0
H406 H 0.12984 0.15369 0.50773 0.0
H407 H 1.00523 0.17065 0.47525 0.0
C408 C 0.99775 0.19624 0.50577 0.0
C409 C 0.01481 0.20673 0.52678 0.0
C410 C 0.12454 0.15793 0.49099 0.0
C411 C 0.05246 0.1661 0.499 0.0
C412 C 0.16172 0.16771 0.47674 0.0
C413 C 0.15749 0.17761 0.45534 0.0
C414 C 0.08346 0.15899 0.48375 0.0
C415 C 0.11319 0.1717 0.44825 0.0
C416 C 0.01648 0.17577 0.49179 0.0
C417 C 0.04697 0.19192 0.53386 0.0
N418 N 0.07832 0.16404 0.46255 0.0
N419 N 0.06543 0.17317 0.51989 0.0
H420 H 0.04978 0.21186 0.81317 0.0
H421 H 0.79973 0.98429 0.82504 0.0
H422 H 0.95666 0.13341 0.76032 0.0
H423 H 0.90036 0.05258 0.87678 0.0
H424 H 0.86707 0.02047 0.79989 0.0
H425 H 1.00825 0.13917 0.83491 0.0
C426 C 0.02095 0.17927 0.80608 0.0
C427 C 1.00485 0.17935 0.78533 0.0
C428 C 0.87461 0.02663 0.8168 0.0
C429 C 0.95719 0.09634 0.80998 0.0
C430 C 0.83611 1.00604 0.83111 0.0
C431 C 0.8445 0.01791 0.85276 0.0
C432 C 0.92114 0.0596 0.82438 0.0
C433 C 0.89227 0.04476 0.85998 0.0
C434 C 0.99747 0.13759 0.81842 0.0
C435 C 0.96877 0.13561 0.77662 0.0
N436 N 0.92879 0.06583 0.84576 0.0
N437 N 0.94529 0.09616 0.78916 0.0
H438 H 0.8913 0.0439 0.14256 0.0
H439 H 0.79542 0.77363 0.16844 0.0
H440 H 0.74153 0.93384 0.14762 0.0
H441 H 0.8718 0.86912 0.22077 0.0
H442 H 0.81243 0.84399 0.1467 0.0
H443 H 0.91374 0.99 0.16145 0.0
C444 C 0.86326 0.00931 0.14847 0.0
C445 C 0.81457 0.99289 0.14386 0.0
C446 C 0.82741 0.84943 0.16264 0.0
C447 C 0.83978 0.93147 0.1635 0.0
C448 C 0.81792 0.80949 0.17493 0.0
C449 C 0.83101 0.81614 0.19643 0.0
C450 C 0.84996 0.89537 0.17212 0.0
C451 C 0.86011 0.86314 0.20428 0.0
C452 C 0.8761 0.97851 0.15867 0.0
C453 C 0.77936 0.94756 0.15112 0.0
N454 N 0.86749 0.90141 0.19227 0.0
N455 N 0.79273 0.91791 0.16026 0.0
H456 H 0.78736 0.84244 0.49444 0.0
H457 H 1.00539 0.80669 0.51387 0.0
H458 H 0.77844 0.7035 0.49806 0.0
H459 H 0.96981 0.86177 0.56973 0.0
H460 H 0.93742 0.80487 0.49523 0.0
H461 H 0.86553 0.8785 0.51335 0.0
C462 C 0.80087 0.81933 0.49996 0.0
C463 C 0.77702 0.77009 0.49461 0.0
C464 C 0.94593 0.81917 0.51132 0.0
C465 C 0.86573 0.81098 0.51478 0.0
C466 C 0.98469 0.82039 0.52191 0.0
C467 C 0.9918 0.83259 0.54355 0.0
C468 C 0.91493 0.83057 0.52249 0.0
C469 C 0.96418 0.85054 0.55318 0.0
C470 C 0.84557 0.84003 0.5103 0.0
C471 C 0.79609 0.74166 0.50176 0.0
N472 N 0.92566 0.84759 0.54275 0.0
N473 N 0.84 0.76276 0.51107 0.0
H474 H 0.22024 0.0455 0.83883 0.0
H475 H 1.00549 0.78734 0.81508 0.0
H476 H 0.2218 0.91308 0.84992 0.0
H477 H 0.05868 0.88263 0.76063 0.0
H478 H 0.06792 0.8512 0.83699 0.0
H479 H 0.14863 1.00043 0.81578 0.0
C480 C 0.20647 1.00745 0.83588 0.0
C481 C 0.22618 0.98253 0.84639 0.0
C482 C 0.0647 0.85836 0.82035 0.0
C483 C 0.14453 0.93171 0.82157 0.0
C484 C 0.02913 0.82217 0.80791 0.0
C485 C 0.02838 0.82937 0.78595 0.0
C486 C 0.09895 0.90161 0.81069 0.0
C487 C 0.05944 0.87542 0.77746 0.0
C488 C 0.16545 0.9819 0.82314 0.0
C489 C 0.20704 0.9333 0.84233 0.0
N490 N 0.0946 0.90983 0.7898 0.0
N491 N 0.16655 0.90922 0.83057 0.0
H492 H 0.38845 0.33124 0.38717 0.0
H493 H 0.1964 0.31596 0.30675 0.0
H494 H 0.27412 0.19806 0.36147 0.0
H495 H 0.3415 0.39929 0.28286 0.0
H496 H 0.22743 0.2958 0.33835 0.0
H497 H 0.3773 0.37516 0.35722 0.0
C498 C 0.36287 0.31102 0.37467 0.0
C499 C 0.33259 0.26078 0.37659 0.0
C500 C 0.2527 0.32004 0.32656 0.0
C501 C 0.31781 0.3107 0.34345 0.0
C502 C 0.23513 0.33248 0.30876 0.0
C503 C 0.26635 0.35947 0.29217 0.0
C504 C 0.30195 0.33488 0.3279 0.0
C505 C 0.31623 0.3786 0.29537 0.0
C506 C 0.3559 0.33618 0.35788 0.0
C507 C 0.29863 0.23661 0.36043 0.0
N508 N 0.33261 0.36501 0.31268 0.0
N509 N 0.29139 0.26179 0.34489 0.0
H510 H 0.94458 0.33208 0.61771 0.0
H511 H 0.12732 0.30183 0.69358 0.0
H512 H 0.95662 0.20426 0.62237 0.0
H513 H 0.06668 0.38796 0.71515 0.0
H514 H 0.07922 0.28281 0.66102 0.0
H515 H 0.99712 0.36511 0.64949 0.0
C516 C 0.95651 0.31018 0.62598 0.0
C517 C 0.94527 0.26483 0.61783 0.0
C518 C 0.07732 0.30698 0.6726 0.0
C519 C 1.00764 0.30349 0.65285 0.0
C520 C 0.10576 0.31884 0.69092 0.0
C521 C 0.10167 0.3472 0.70688 0.0
C522 C 0.04424 0.3234 0.6702 0.0
C523 C 0.07152 0.36668 0.703 0.0
C524 C 0.98721 0.32939 0.64377 0.0
C525 C 0.96358 0.23887 0.62845 0.0
N526 N 0.04335 0.35395 0.68513 0.0
N527 N 0.99425 0.25875 0.64515 0.0
H528 H 0.79393 1.00626 0.05028 0.0
H529 H 0.72897 0.03552 0.9328 0.0
H530 H 0.77449 0.12645 0.0337 0.0
H531 H 0.69448 0.89813 0.95978 0.0
H532 H 0.74476 0.07062 0.96853 0.0
H533 H 0.76016 0.96896 0.01643 0.0
C534 C 0.78249 0.02507 0.03951 0.0
C535 C 0.78683 0.06969 0.04509 0.0
C536 C 0.73278 0.03261 0.96671 0.0
C537 C 0.74808 0.02643 0.00558 0.0
C538 C 0.72376 0.01243 0.94631 0.0
C539 C 0.71079 0.96385 0.94331 0.0
C540 C 0.72992 1.00428 0.98425 0.0
C541 C 0.70425 0.93563 0.96138 0.0
C542 C 0.76283 1.00329 0.02011 0.0
C543 C 0.77197 0.09218 0.0301 0.0
N544 N 0.71483 0.95652 0.98108 0.0
N545 N 0.7535 0.0704 0.01087 0.0
H546 H 0.70881 0.71571 0.27685 0.0
H547 H 0.74687 0.71676 0.4024 0.0
H548 H 0.7961 0.66364 0.30605 0.0
H549 H 0.66008 0.76941 0.373 0.0
H550 H 0.75924 0.69083 0.36777 0.0
H551 H 0.68436 0.72779 0.31185 0.0
C552 C 0.72263 0.70633 0.29064 0.0
C553 C 0.75519 0.68915 0.28841 0.0
C554 C 0.73724 0.70773 0.3688 0.0
C555 C 0.72718 0.7034 0.32898 0.0
C556 C 0.73 0.72267 0.38866 0.0
C557 C 0.7023 0.74551 0.39072 0.0
C558 C 0.71696 0.71578 0.35059 0.0
C559 C 0.68172 0.7521 0.3722 0.0
C560 C 0.70849 0.7133 0.31072 0.0
C561 C 0.77096 0.67691 0.30699 0.0
N562 N 0.6897 0.73754 0.35289 0.0
N563 N 0.75726 0.68484 0.32653 0.0
H564 H 0.07527 0.69031 0.6108 0.0
H565 H 0.90574 0.72067 0.69059 0.0
H566 H 0.10405 0.82771 0.63558 0.0
H567 H 0.95236 0.62294 0.71229 0.0
H568 H 0.96023 0.7418 0.66006 0.0
H569 H 0.01915 0.65003 0.64083 0.0
C570 C 0.07194 0.71212 0.62318 0.0
C571 C 0.09496 0.76257 0.62089 0.0
C572 C 0.95728 0.71444 0.67111 0.0
C573 C 0.02884 0.71684 0.65411 0.0
C574 C 0.92532 0.70147 0.68824 0.0
C575 C 0.92391 0.66946 0.70382 0.0
C576 C 0.98799 0.69506 0.66942 0.0
C577 C 0.95173 0.64713 0.70039 0.0
C578 C 0.03914 0.68906 0.64 0.0
C579 C 0.08772 0.78889 0.63692 0.0
N580 N 0.98337 0.66088 0.68368 0.0
N581 N 0.05443 0.76577 0.65246 0.0
H582 H 0.30181 0.04234 0.06471 0.0
H583 H 0.25079 0.98489 0.94136 0.0
H584 H 0.2333 0.8976 0.03934 0.0
H585 H 0.35268 0.12749 0.96432 0.0
H586 H 0.24242 0.95349 0.97715 0.0
H587 H 0.31932 0.07438 0.02865 0.0
C588 C 0.29072 0.01708 0.05157 0.0
C589 C 0.26595 0.96693 0.05518 0.0
C590 C 0.2669 0.99157 0.97445 0.0
C591 C 0.28555 1.00403 0.0135 0.0
C592 C 0.27185 0.00984 0.9539 0.0
C593 C 0.30293 0.05917 0.94963 0.0
C594 C 0.2925 0.02273 0.99124 0.0
C595 C 0.32842 0.08932 0.96681 0.0
C596 C 0.30087 0.03566 0.0309 0.0
C597 C 0.25246 0.9364 0.03737 0.0
N598 N 0.32241 0.07064 0.98692 0.0
N599 N 0.26206 0.95544 0.01729 0.0
loop_
_geom_bond_atom_site_label_1
_geom_bond_atom_site_label_2
_geom_bond_distance
_geom_bond_site_symmetry_2
_ccdc_geom_bond_type
Co0 O1 2.216 . S
Co0 O2 2.091 . S
Co0 O4 2.004 . S
Co0 O10 2.021 . S
Co0 O12 2.137 . S
Co0 O13 2.244 . S
O1 Co0 2.216 . S
O1 C8 1.247 . S
O2 Co0 2.091 . S
O2 C8 1.261 . S
C3 O12 1.247 . S
C3 O13 1.272 . S
O4 Co0 2.004 . S
O4 C9 1.259 . S
Co5 O6 2.061 . S
Co5 O11 2.052 . S
Co5 O13 2.135 . S
O6 Co5 2.061 . S
O6 C9 1.235 . S
C7 O10 1.238 . S
C7 O11 1.241 . S
C8 O1 1.247 . S
C8 O2 1.261 . S
C9 O4 1.259 . S
C9 O6 1.235 . S
O10 Co0 2.021 . S
O10 C7 1.238 . S
O11 Co5 2.052 . S
O11 C7 1.241 . S
O12 Co0 2.137 . S
O12 C3 1.247 . S
O13 Co0 2.244 . S
O13 C3 1.272 . S
O13 Co5 2.135 . S
Co14 O15 2.216 . S
Co14 O16 2.091 . S
Co14 O18 2.004 . S
Co14 O24 2.021 . S
Co14 O26 2.137 . S
Co14 O27 2.244 . S
O15 Co14 2.216 . S
O15 C22 1.247 . S
O16 Co14 2.091 . S
O16 C22 1.261 . S
C17 O26 1.247 . S
C17 O27 1.272 . S
O18 Co14 2.004 . S
O18 C23 1.259 . S
Co19 O20 2.061 . S
Co19 O25 2.052 . S
Co19 O27 2.135 1_455 S
O20 Co19 2.061 . S
O20 C23 1.235 1_455 S
C21 O24 1.238 1_455 S
C21 O25 1.241 . S
C22 O15 1.247 . S
C22 O16 1.261 . S
C23 O18 1.259 . S
C23 O20 1.235 1_655 S
O24 Co14 2.021 . S
O24 C21 1.238 1_655 S
O25 Co19 2.052 . S
O25 C21 1.241 . S
O26 Co14 2.137 . S
O26 C17 1.247 . S
O27 Co14 2.244 . S
O27 C17 1.272 . S
O27 Co19 2.135 1_655 S
Co28 O29 2.216 . S
Co28 O30 2.091 . S
Co28 O32 2.004 . S
Co28 O38 2.021 . S
Co28 O40 2.137 . S
Co28 O41 2.244 . S
O29 Co28 2.216 . S
O29 C36 1.247 . S
O30 Co28 2.091 . S
O30 C36 1.261 . S
C31 O40 1.247 . S
C31 O41 1.272 . S
O32 Co28 2.004 . S
O32 C37 1.259 . S
Co33 O34 2.061 . S
Co33 O39 2.052 . S
Co33 O41 2.135 1_545 S
O34 Co33 2.061 . S
O34 C37 1.235 1_545 S
C35 O38 1.238 1_545 S
C35 O39 1.241 . S
C36 O29 1.247 . S
C36 O30 1.261 . S
C37 O32 1.259 . S
C37 O34 1.235 1_565 S
O38 Co28 2.021 . S
O38 C35 1.238 1_565 S
O39 Co33 2.052 . S
O39 C35 1.241 . S
O40 Co28 2.137 . S
O40 C31 1.247 . S
O41 Co28 2.244 . S
O41 C31 1.272 . S
O41 Co33 2.135 1_565 S
Co42 O43 2.216 . S
Co42 O44 2.091 . S
Co42 O46 2.004 . S
Co42 O52 2.021 . S
Co42 O54 2.137 . S
Co42 O55 2.244 . S
O43 Co42 2.216 . S
O43 C50 1.247 . S
O44 Co42 2.091 . S
O44 C50 1.261 . S
C45 O54 1.247 . S
C45 O55 1.272 . S
O46 Co42 2.004 . S
O46 C51 1.259 . S
Co47 O48 2.061 . S
Co47 O53 2.052 . S
Co47 O55 2.135 . S
O48 Co47 2.061 . S
O48 C51 1.235 . S
C49 O52 1.238 . S
C49 O53 1.241 . S
C50 O43 1.247 . S
C50 O44 1.261 . S
C51 O46 1.259 . S
C51 O48 1.235 . S
O52 Co42 2.021 . S
O52 C49 1.238 . S
O53 Co47 2.052 . S
O53 C49 1.241 . S
O54 Co42 2.137 . S
O54 C45 1.247 . S
O55 Co42 2.244 . S
O55 C45 1.272 . S
O55 Co47 2.135 . S
Co56 O57 2.216 . S
Co56 O58 2.091 . S
Co56 O60 2.004 . S
Co56 O66 2.021 . S
Co56 O68 2.137 . S
Co56 O69 2.244 . S
O57 Co56 2.216 . S
O57 C64 1.247 . S
O58 Co56 2.091 . S
O58 C64 1.261 . S
C59 O68 1.247 . S
C59 O69 1.272 . S
O60 Co56 2.004 . S
O60 C65 1.259 . S
Co61 O62 2.061 . S
Co61 O67 2.052 . S
Co61 O69 2.135 1_655 S
O62 Co61 2.061 . S
O62 C65 1.235 1_655 S
C63 O66 1.238 1_655 S
C63 O67 1.241 . S
C64 O57 1.247 . S
C64 O58 1.261 . S
C65 O60 1.259 . S
C65 O62 1.235 1_455 S
O66 Co56 2.021 . S
O66 C63 1.238 1_455 S
O67 Co61 2.052 . S
O67 C63 1.241 . S
O68 Co56 2.137 . S
O68 C59 1.247 . S
O69 Co56 2.244 . S
O69 C59 1.272 . S
O69 Co61 2.135 1_455 S
Co70 O71 2.216 . S
Co70 O72 2.091 . S
Co70 O74 2.004 . S
Co70 O80 2.021 . S
Co70 O82 2.137 . S
Co70 O83 2.244 . S
O71 Co70 2.216 . S
O71 C78 1.247 . S
O72 Co70 2.091 . S
O72 C78 1.261 . S
C73 O82 1.247 . S
C73 O83 1.272 . S
O74 Co70 2.004 . S
O74 C79 1.259 . S
Co75 O76 2.061 . S
Co75 O81 2.052 . S
Co75 O83 2.135 1_565 S
O76 Co75 2.061 . S
O76 C79 1.235 1_565 S
C77 O80 1.238 1_565 S
C77 O81 1.241 . S
C78 O71 1.247 . S
C78 O72 1.261 . S
C79 O74 1.259 . S
C79 O76 1.235 1_545 S
O80 Co70 2.021 . S
O80 C77 1.238 1_545 S
O81 Co75 2.052 . S
O81 C77 1.241 . S
O82 Co70 2.137 . S
O82 C73 1.247 . S
O83 Co70 2.244 . S
O83 C73 1.272 . S
O83 Co75 2.135 1_545 S
Co84 O85 2.216 . S
Co84 O86 2.091 . S
Co84 O88 2.004 . S
Co84 O94 2.021 . S
Co84 O96 2.137 . S
Co84 O97 2.244 . S
O85 Co84 2.216 . S
O85 C92 1.247 . S
O86 Co84 2.091 . S
O86 C92 1.261 . S
C87 O96 1.247 . S
C87 O97 1.272 . S
O88 Co84 2.004 . S
O88 C93 1.259 . S
Co89 O90 2.061 . S
Co89 O95 2.052 . S
Co89 O97 2.135 . S
O90 Co89 2.061 . S
O90 C93 1.235 . S
C91 O94 1.238 . S
C91 O95 1.241 . S
C92 O85 1.247 . S
C92 O86 1.261 . S
C93 O88 1.259 . S
C93 O90 1.235 . S
O94 Co84 2.021 . S
O94 C91 1.238 . S
O95 Co89 2.052 . S
O95 C91 1.241 . S
O96 Co84 2.137 . S
O96 C87 1.247 . S
O97 Co84 2.244 . S
O97 C87 1.272 . S
O97 Co89 2.135 . S
Co98 O99 2.216 . S
Co98 O100 2.091 . S
Co98 O102 2.004 . S
Co98 O108 2.021 . S
Co98 O110 2.137 . S
Co98 O111 2.244 . S
O99 Co98 2.216 . S
O99 C106 1.247 . S
O100 Co98 2.091 . S
O100 C106 1.261 . S
C101 O110 1.247 . S
C101 O111 1.272 . S
O102 Co98 2.004 . S
O102 C107 1.259 . S
Co103 O104 2.061 . S
Co103 O109 2.052 . S
Co103 O111 2.135 1_455 S
O104 Co103 2.061 . S
O104 C107 1.235 1_455 S
C105 O108 1.238 1_455 S
C105 O109 1.241 . S
C106 O99 1.247 . S
C106 O100 1.261 . S
C107 O102 1.259 . S
C107 O104 1.235 1_655 S
O108 Co98 2.021 . S
O108 C105 1.238 1_655 S
O109 Co103 2.052 . S
O109 C105 1.241 . S
O110 Co98 2.137 . S
O110 C101 1.247 . S
O111 Co98 2.244 . S
O111 C101 1.272 . S
O111 Co103 2.135 1_655 S
Co112 O113 2.216 . S
Co112 O114 2.091 . S
Co112 O116 2.004 . S
Co112 O122 2.021 . S
Co112 O124 2.137 . S
Co112 O125 2.244 . S
O113 Co112 2.216 . S
O113 C120 1.247 . S
O114 Co112 2.091 . S
O114 C120 1.261 . S
C115 O124 1.247 . S
C115 O125 1.272 . S
O116 Co112 2.004 . S
O116 C121 1.259 . S
Co117 O118 2.061 . S
Co117 O123 2.052 . S
Co117 O125 2.135 1_545 S
O118 Co117 2.061 . S
O118 C121 1.235 1_545 S
C119 O122 1.238 1_545 S
C119 O123 1.241 . S
C120 O113 1.247 . S
C120 O114 1.261 . S
C121 O116 1.259 . S
C121 O118 1.235 1_565 S
O122 Co112 2.021 . S
O122 C119 1.238 1_565 S
O123 Co117 2.052 . S
O123 C119 1.241 . S
O124 Co112 2.137 . S
O124 C115 1.247 . S
O125 Co112 2.244 . S
O125 C115 1.272 . S
O125 Co117 2.135 1_565 S
Co126 O127 2.216 . S
Co126 O128 2.091 . S
Co126 O130 2.004 . S
Co126 O136 2.021 . S
Co126 O138 2.137 . S
Co126 O139 2.244 . S
O127 Co126 2.216 . S
O127 C134 1.247 . S
O128 Co126 2.091 . S
O128 C134 1.261 . S
C129 O138 1.247 . S
C129 O139 1.272 . S
O130 Co126 2.004 . S
O130 C135 1.259 . S
Co131 O132 2.061 . S
Co131 O137 2.052 . S
Co131 O139 2.135 . S
O132 Co131 2.061 . S
O132 C135 1.235 . S
C133 O136 1.238 . S
C133 O137 1.241 . S
C134 O127 1.247 . S
C134 O128 1.261 . S
C135 O130 1.259 . S
C135 O132 1.235 . S
O136 Co126 2.021 . S
O136 C133 1.238 . S
O137 Co131 2.052 . S
O137 C133 1.241 . S
O138 Co126 2.137 . S
O138 C129 1.247 . S
O139 Co126 2.244 . S
O139 C129 1.272 . S
O139 Co131 2.135 . S
Co140 O141 2.216 . S
Co140 O142 2.091 . S
Co140 O144 2.004 . S
Co140 O150 2.021 . S
Co140 O152 2.137 . S
Co140 O153 2.244 . S
O141 Co140 2.216 . S
O141 C148 1.247 . S
O142 Co140 2.091 . S
O142 C148 1.261 . S
C143 O152 1.247 . S
C143 O153 1.272 . S
O144 Co140 2.004 . S
O144 C149 1.259 . S
Co145 O146 2.061 . S
Co145 O151 2.052 . S
Co145 O153 2.135 1_655 S
O146 Co145 2.061 . S
O146 C149 1.235 1_655 S
C147 O150 1.238 1_655 S
C147 O151 1.241 . S
C148 O141 1.247 . S
C148 O142 1.261 . S
C149 O144 1.259 . S
C149 O146 1.235 1_455 S
O150 Co140 2.021 . S
O150 C147 1.238 1_455 S
O151 Co145 2.052 . S
O151 C147 1.241 . S
O152 Co140 2.137 . S
O152 C143 1.247 . S
O153 Co140 2.244 . S
O153 C143 1.272 . S
O153 Co145 2.135 1_455 S
Co154 O155 2.216 . S
Co154 O156 2.091 . S
Co154 O158 2.004 . S
Co154 O164 2.021 . S
Co154 O166 2.137 . S
Co154 O167 2.244 . S
O155 Co154 2.216 . S
O155 C162 1.247 . S
O156 Co154 2.091 . S
O156 C162 1.261 . S
C157 O166 1.247 . S
C157 O167 1.272 . S
O158 Co154 2.004 . S
O158 C163 1.259 . S
Co159 O160 2.061 . S
Co159 O165 2.052 . S
Co159 O167 2.135 1_565 S
O160 Co159 2.061 . S
O160 C163 1.235 1_565 S
C161 O164 1.238 1_565 S
C161 O165 1.241 . S
C162 O155 1.247 . S
C162 O156 1.261 . S
C163 O158 1.259 . S
C163 O160 1.235 1_545 S
O164 Co154 2.021 . S
O164 C161 1.238 1_545 S
O165 Co159 2.052 . S
O165 C161 1.241 . S
O166 Co154 2.137 . S
O166 C157 1.247 . S
O167 Co154 2.244 . S
O167 C157 1.272 . S
O167 Co159 2.135 1_545 S
H168 C174 0.930 . S
H169 C178 0.930 . S
H170 C183 0.929 . S
H171 C181 0.929 . S
H172 C176 0.929 1_655 S
H173 C182 0.929 1_455 S
C174 H168 0.930 . S
C174 C175 1.367 . S
C174 C182 1.378 . S
C175 C174 1.367 . S
C175 C183 1.433 . S
C176 H172 0.929 1_455 S
C176 C178 1.378 . S
C176 C180 1.350 . S
C177 C180 1.463 1_655 S
C177 C182 1.350 . S
C177 N185 1.427 . S
C178 H169 0.930 . S
C178 C176 1.378 . S
C178 C179 1.367 . S
C179 C178 1.367 . S
C179 C181 1.433 . S
C180 C176 1.350 . S
C180 C177 1.463 1_455 S
C180 N184 1.427 . S
C181 H171 0.929 . S
C181 C179 1.433 . S
C181 N184 1.384 . S
C182 H173 0.929 1_655 S
C182 C174 1.378 . S
C182 C177 1.350 . S
C183 H170 0.929 . S
C183 C175 1.433 . S
C183 N185 1.384 . S
N184 C180 1.427 . S
N184 C181 1.384 . S
N185 C177 1.427 . S
N185 C183 1.384 . S
H186 C192 0.930 . S
H187 C196 0.930 . S
H188 C201 0.929 . S
H189 C199 0.929 . S
H190 C194 0.929 . S
H191 C200 0.929 . S
C192 H186 0.930 . S
C192 C193 1.367 . S
C192 C200 1.378 . S
C193 C192 1.367 . S
C193 C201 1.433 . S
C194 H190 0.929 . S
C194 C196 1.378 . S
C194 C198 1.350 . S
C195 C198 1.463 1_545 S
C195 C200 1.350 . S
C195 N203 1.427 . S
C196 H187 0.930 . S
C196 C194 1.378 . S
C196 C197 1.367 . S
C197 C196 1.367 . S
C197 C199 1.433 . S
C198 C194 1.350 . S
C198 C195 1.463 1_565 S
C198 N202 1.427 . S
C199 H189 0.929 . S
C199 C197 1.433 . S
C199 N202 1.384 . S
C200 H191 0.929 . S
C200 C192 1.378 . S
C200 C195 1.350 . S
C201 H188 0.929 . S
C201 C193 1.433 . S
C201 N203 1.384 . S
N202 C198 1.427 . S
N202 C199 1.384 . S
N203 C195 1.427 . S
N203 C201 1.384 . S
H204 C210 0.930 . S
H205 C214 0.930 . S
H206 C219 0.929 . S
H207 C217 0.929 . S
H208 C212 0.929 . S
H209 C218 0.929 . S
C210 H204 0.930 . S
C210 C211 1.367 . S
C210 C218 1.378 . S
C211 C210 1.367 . S
C211 C219 1.433 . S
C212 H208 0.929 . S
C212 C214 1.378 . S
C212 C216 1.350 . S
C213 C216 1.463 . S
C213 C218 1.350 . S
C213 N221 1.427 . S
C214 H205 0.930 . S
C214 C212 1.378 . S
C214 C215 1.367 . S
C215 C214 1.367 . S
C215 C217 1.433 . S
C216 C212 1.350 . S
C216 C213 1.463 . S
C216 N220 1.427 . S
C217 H207 0.929 . S
C217 C215 1.433 . S
C217 N220 1.384 . S
C218 H209 0.929 . S
C218 C210 1.378 . S
C218 C213 1.350 . S
C219 H206 0.929 . S
C219 C211 1.433 . S
C219 N221 1.384 . S
N220 C216 1.427 . S
N220 C217 1.384 . S
N221 C213 1.427 . S
N221 C219 1.384 . S
H222 C228 0.930 . S
H223 C232 0.930 . S
H224 C237 0.929 . S
H225 C235 0.929 . S
H226 C230 0.929 . S
H227 C236 0.929 . S
C228 H222 0.930 . S
C228 C229 1.367 . S
C228 C236 1.378 . S
C229 C228 1.367 . S
C229 C237 1.433 . S
C230 H226 0.929 . S
C230 C232 1.378 . S
C230 C234 1.350 . S
C231 C234 1.463 1_655 S
C231 C236 1.350 . S
C231 N239 1.427 . S
C232 H223 0.930 . S
C232 C230 1.378 . S
C232 C233 1.367 . S
C233 C232 1.367 . S
C233 C235 1.433 . S
C234 C230 1.350 . S
C234 C231 1.463 1_455 S
C234 N238 1.427 . S
C235 H225 0.929 . S
C235 C233 1.433 . S
C235 N238 1.384 . S
C236 H227 0.929 . S
C236 C228 1.378 . S
C236 C231 1.350 . S
C237 H224 0.929 . S
C237 C229 1.433 . S
C237 N239 1.384 . S
N238 C234 1.427 . S
N238 C235 1.384 . S
N239 C231 1.427 . S
N239 C237 1.384 . S
H240 C246 0.930 . S
H241 C250 0.930 . S
H242 C255 0.929 . S
H243 C253 0.929 . S
H244 C248 0.929 . S
H245 C254 0.929 . S
C246 H240 0.930 . S
C246 C247 1.367 . S
C246 C254 1.378 . S
C247 C246 1.367 . S
C247 C255 1.433 . S
C248 H244 0.929 . S
C248 C250 1.378 . S
C248 C252 1.350 . S
C249 C252 1.463 1_545 S
C249 C254 1.350 . S
C249 N257 1.427 . S
C250 H241 0.930 . S
C250 C248 1.378 . S
C250 C251 1.367 . S
C251 C250 1.367 . S
C251 C253 1.433 . S
C252 C248 1.350 . S
C252 C249 1.463 1_565 S
C252 N256 1.427 . S
C253 H243 0.929 . S
C253 C251 1.433 . S
C253 N256 1.384 . S
C254 H245 0.929 . S
C254 C246 1.378 . S
C254 C249 1.350 . S
C255 H242 0.929 . S
C255 C247 1.433 . S
C255 N257 1.384 . S
N256 C252 1.427 . S
N256 C253 1.384 . S
N257 C249 1.427 . S
N257 C255 1.384 . S
H258 C264 0.930 . S
H259 C268 0.930 . S
H260 C273 0.929 . S
H261 C271 0.929 . S
H262 C266 0.929 . S
H263 C272 0.929 . S
C264 H258 0.930 . S
C264 C265 1.367 . S
C264 C272 1.378 . S
C265 C264 1.367 . S
C265 C273 1.433 . S
C266 H262 0.929 . S
C266 C268 1.378 . S
C266 C270 1.350 . S
C267 C270 1.463 . S
C267 C272 1.350 . S
C267 N275 1.427 . S
C268 H259 0.930 . S
C268 C266 1.378 . S
C268 C269 1.367 . S
C269 C268 1.367 . S
C269 C271 1.433 . S
C270 C266 1.350 . S
C270 C267 1.463 . S
C270 N274 1.427 . S
C271 H261 0.929 . S
C271 C269 1.433 . S
C271 N274 1.384 . S
C272 H263 0.929 . S
C272 C264 1.378 . S
C272 C267 1.350 . S
C273 H260 0.929 . S
C273 C265 1.433 . S
C273 N275 1.384 . S
N274 C270 1.427 . S
N274 C271 1.384 . S
N275 C267 1.427 . S
N275 C273 1.384 . S
H276 C282 0.930 . S
H277 C286 0.930 . S
H278 C291 0.929 . S
H279 C289 0.929 . S
H280 C284 0.929 . S
H281 C290 0.929 . S
C282 H276 0.930 . S
C282 C283 1.367 . S
C282 C290 1.378 . S
C283 C282 1.367 . S
C283 C291 1.433 . S
C284 H280 0.929 . S
C284 C286 1.378 . S
C284 C288 1.350 . S
C285 C288 1.463 . S
C285 C290 1.350 . S
C285 N293 1.427 . S
C286 H277 0.930 . S
C286 C284 1.378 . S
C286 C287 1.367 . S
C287 C286 1.367 . S
C287 C289 1.433 . S
C288 C284 1.350 . S
C288 C285 1.463 . S
C288 N292 1.427 . S
C289 H279 0.929 . S
C289 C287 1.433 . S
C289 N292 1.384 . S
C290 H281 0.929 . S
C290 C282 1.378 . S
C290 C285 1.350 . S
C291 H278 0.929 . S
C291 C283 1.433 . S
C291 N293 1.384 . S
N292 C288 1.427 . S
N292 C289 1.384 . S
N293 C285 1.427 . S
N293 C291 1.384 . S
H294 C300 0.930 . S
H295 C304 0.930 . S
H296 C309 0.929 . S
H297 C307 0.929 . S
H298 C302 0.929 . S
H299 C308 0.929 . S
C300 H294 0.930 . S
C300 C301 1.367 1_655 S
C300 C308 1.378 . S
C301 C300 1.367 1_455 S
C301 C309 1.433 . S
C302 H298 0.929 . S
C302 C304 1.378 . S
C302 C306 1.350 1_455 S
C303 C306 1.463 1_455 S
C303 C308 1.350 1_455 S
C303 N311 1.427 . S
C304 H295 0.930 . S
C304 C302 1.378 . S
C304 C305 1.367 1_455 S
C305 C304 1.367 1_655 S
C305 C307 1.433 . S
C306 C302 1.350 1_655 S
C306 C303 1.463 1_655 S
C306 N310 1.427 . S
C307 H297 0.929 . S
C307 C305 1.433 . S
C307 N310 1.384 . S
C308 H299 0.929 . S
C308 C300 1.378 . S
C308 C303 1.350 1_655 S
C309 H296 0.929 . S
C309 C301 1.433 . S
C309 N311 1.384 . S
N310 C306 1.427 . S
N310 C307 1.384 . S
N311 C303 1.427 . S
N311 C309 1.384 . S
H312 C318 0.930 . S
H313 C322 0.930 . S
H314 C327 0.929 . S
H315 C325 0.929 . S
H316 C320 0.929 . S
H317 C326 0.929 . S
C318 H312 0.930 . S
C318 C319 1.367 1_565 S
C318 C326 1.378 . S
C319 C318 1.367 1_545 S
C319 C327 1.433 . S
C320 H316 0.929 . S
C320 C322 1.378 . S
C320 C324 1.350 1_545 S
C321 C324 1.463 1_545 S
C321 C326 1.350 1_545 S
C321 N329 1.427 . S
C322 H313 0.930 . S
C322 C320 1.378 . S
C322 C323 1.367 1_545 S
C323 C322 1.367 1_565 S
C323 C325 1.433 . S
C324 C320 1.350 1_565 S
C324 C321 1.463 1_565 S
C324 N328 1.427 . S
C325 H315 0.929 . S
C325 C323 1.433 . S
C325 N328 1.384 . S
C326 H317 0.929 . S
C326 C318 1.378 . S
C326 C321 1.350 1_565 S
C327 H314 0.929 . S
C327 C319 1.433 . S
C327 N329 1.384 . S
N328 C324 1.427 . S
N328 C325 1.384 . S
N329 C321 1.427 . S
N329 C327 1.384 . S
H330 C336 0.930 . S
H331 C340 0.930 . S
H332 C345 0.929 . S
H333 C343 0.929 . S
H334 C338 0.929 . S
H335 C344 0.929 . S
C336 H330 0.930 . S
C336 C337 1.367 . S
C336 C344 1.378 . S
C337 C336 1.367 . S
C337 C345 1.433 . S
C338 H334 0.929 . S
C338 C340 1.378 . S
C338 C342 1.350 . S
C339 C342 1.463 . S
C339 C344 1.350 . S
C339 N347 1.427 . S
C340 H331 0.930 . S
C340 C338 1.378 . S
C340 C341 1.367 . S
C341 C340 1.367 . S
C341 C343 1.433 . S
C342 C338 1.350 . S
C342 C339 1.463 . S
C342 N346 1.427 . S
C343 H333 0.929 . S
C343 C341 1.433 . S
C343 N346 1.384 . S
C344 H335 0.929 . S
C344 C336 1.378 . S
C344 C339 1.350 . S
C345 H332 0.929 . S
C345 C337 1.433 . S
C345 N347 1.384 . S
N346 C342 1.427 . S
N346 C343 1.384 . S
N347 C339 1.427 . S
N347 C345 1.384 . S
H348 C354 0.930 . S
H349 C358 0.930 . S
H350 C363 0.929 . S
H351 C361 0.929 . S
H352 C356 0.929 . S
H353 C362 0.929 . S
C354 H348 0.930 . S
C354 C355 1.367 . S
C354 C362 1.378 . S
C355 C354 1.367 . S
C355 C363 1.433 1_655 S
C356 H352 0.929 . S
C356 C358 1.378 . S
C356 C360 1.350 . S
C357 C360 1.463 1_655 S
C357 C362 1.350 . S
C357 N365 1.427 1_655 S
C358 H349 0.930 . S
C358 C356 1.378 . S
C358 C359 1.367 . S
C359 C358 1.367 . S
C359 C361 1.433 1_455 S
C360 C356 1.350 . S
C360 C357 1.463 1_455 S
C360 N364 1.427 1_455 S
C361 H351 0.929 . S
C361 C359 1.433 1_655 S
C361 N364 1.384 . S
C362 H353 0.929 . S
C362 C354 1.378 . S
C362 C357 1.350 . S
C363 H350 0.929 . S
C363 C355 1.433 1_455 S
C363 N365 1.384 . S
N364 C360 1.427 1_655 S
N364 C361 1.384 . S
N365 C357 1.427 1_455 S
N365 C363 1.384 . S
H366 C372 0.930 . S
H367 C376 0.930 . S
H368 C381 0.929 . S
H369 C379 0.929 . S
H370 C374 0.929 1_565 S
H371 C380 0.929 1_545 S
C372 H366 0.930 . S
C372 C373 1.367 . S
C372 C380 1.378 . S
C373 C372 1.367 . S
C373 C381 1.433 . S
C374 H370 0.929 1_545 S
C374 C376 1.378 . S
C374 C378 1.350 . S
C375 C378 1.463 1_565 S
C375 C380 1.350 . S
C375 N383 1.427 . S
C376 H367 0.930 . S
C376 C374 1.378 . S
C376 C377 1.367 . S
C377 C376 1.367 . S
C377 C379 1.433 . S
C378 C374 1.350 . S
C378 C375 1.463 1_545 S
C378 N382 1.427 . S
C379 H369 0.929 . S
C379 C377 1.433 . S
C379 N382 1.384 . S
C380 H371 0.929 1_565 S
C380 C372 1.378 . S
C380 C375 1.350 . S
C381 H368 0.929 . S
C381 C373 1.433 . S
C381 N383 1.384 . S
N382 C378 1.427 . S
N382 C379 1.384 . S
N383 C375 1.427 . S
N383 C381 1.384 . S
H384 C390 0.930 . S
H385 C394 0.930 . S
H386 C399 0.929 . S
H387 C397 0.929 . S
H388 C392 0.929 . S
H389 C398 0.929 . S
C390 H384 0.930 . S
C390 C391 1.367 . S
C390 C398 1.378 . S
C391 C390 1.367 . S
C391 C399 1.433 . S
C392 H388 0.929 . S
C392 C394 1.378 . S
C392 C396 1.350 . S
C393 C396 1.463 . S
C393 C398 1.350 . S
C393 N401 1.427 . S
C394 H385 0.930 . S
C394 C392 1.378 . S
C394 C395 1.367 . S
C395 C394 1.367 . S
C395 C397 1.433 . S
C396 C392 1.350 . S
C396 C393 1.463 . S
C396 N400 1.427 . S
C397 H387 0.929 . S
C397 C395 1.433 . S
C397 N400 1.384 . S
C398 H389 0.929 . S
C398 C390 1.378 . S
C398 C393 1.350 . S
C399 H386 0.929 . S
C399 C391 1.433 . S
C399 N401 1.384 . S
N400 C396 1.427 . S
N400 C397 1.384 . S
N401 C393 1.427 . S
N401 C399 1.384 . S
H402 C408 0.941 . S
H403 C412 0.930 . S
H404 C417 0.929 . S
H405 C415 0.929 . S
H406 C410 0.929 . S
H407 C416 0.929 . S
C408 H402 0.941 . S
C408 C409 1.367 . S
C408 C416 1.378 . S
C409 C408 1.367 . S
C409 C417 1.433 . S
C410 H406 0.929 . S
C410 C412 1.378 . S
C410 C414 1.350 . S
C411 C414 1.463 . S
C411 C416 1.350 . S
C411 N419 1.427 . S
C412 H403 0.930 . S
C412 C410 1.378 . S
C412 C413 1.367 . S
C413 C412 1.367 . S
C413 C415 1.433 . S
C414 C410 1.350 . S
C414 C411 1.463 . S
C414 N418 1.427 . S
C415 H405 0.929 . S
C415 C413 1.433 . S
C415 N418 1.384 . S
C416 H407 0.929 . S
C416 C408 1.378 . S
C416 C411 1.350 . S
C417 H404 0.929 . S
C417 C409 1.433 . S
C417 N419 1.384 . S
N418 C414 1.427 . S
N418 C415 1.384 . S
N419 C411 1.427 . S
N419 C417 1.384 . S
H420 C426 0.930 . S
H421 C430 0.930 . S
H422 C435 0.929 . S
H423 C433 0.929 . S
H424 C428 0.929 . S
H425 C434 0.929 . S
C426 H420 0.930 . S
C426 C427 1.367 . S
C426 C434 1.378 . S
C427 C426 1.367 . S
C427 C435 1.433 . S
C428 H424 0.929 . S
C428 C430 1.378 . S
C428 C432 1.350 . S
C429 C432 1.463 . S
C429 C434 1.350 . S
C429 N437 1.427 . S
C430 H421 0.930 . S
C430 C428 1.378 . S
C430 C431 1.367 . S
C431 C430 1.367 . S
C431 C433 1.433 . S
C432 C428 1.350 . S
C432 C429 1.463 . S
C432 N436 1.427 . S
C433 H423 0.929 . S
C433 C431 1.433 . S
C433 N436 1.384 . S
C434 H425 0.929 . S
C434 C426 1.378 . S
C434 C429 1.350 . S
C435 H422 0.929 . S
C435 C427 1.433 . S
C435 N437 1.384 . S
N436 C432 1.427 . S
N436 C433 1.384 . S
N437 C429 1.427 . S
N437 C435 1.384 . S
H438 C444 0.930 . S
H439 C448 0.930 . S
H440 C453 0.929 . S
H441 C451 0.929 . S
H442 C446 0.929 . S
H443 C452 0.929 . S
C444 H438 0.930 . S
C444 C445 1.367 . S
C444 C452 1.378 . S
C445 C444 1.367 . S
C445 C453 1.433 . S
C446 H442 0.929 . S
C446 C448 1.378 . S
C446 C450 1.350 . S
C447 C450 1.463 . S
C447 C452 1.350 . S
C447 N455 1.427 . S
C448 H439 0.930 . S
C448 C446 1.378 . S
C448 C449 1.367 . S
C449 C448 1.367 . S
C449 C451 1.433 . S
C450 C446 1.350 . S
C450 C447 1.463 . S
C450 N454 1.427 . S
C451 H441 0.929 . S
C451 C449 1.433 . S
C451 N454 1.384 . S
C452 H443 0.929 . S
C452 C444 1.378 . S
C452 C447 1.350 . S
C453 H440 0.929 . S
C453 C445 1.433 . S
C453 N455 1.384 . S
N454 C450 1.427 . S
N454 C451 1.384 . S
N455 C447 1.427 . S
N455 C453 1.384 . S
H456 C462 0.930 . S
H457 C466 0.930 . S
H458 C471 0.929 . S
H459 C469 0.929 . S
H460 C464 0.929 . S
H461 C470 0.929 . S
C462 H456 0.930 . S
C462 C463 1.367 . S
C462 C470 1.378 . S
C463 C462 1.367 . S
C463 C471 1.433 . S
C464 H460 0.929 . S
C464 C466 1.378 . S
C464 C468 1.350 . S
C465 C468 1.463 . S
C465 C470 1.350 . S
C465 N473 1.427 . S
C466 H457 0.930 . S
C466 C464 1.378 . S
C466 C467 1.367 . S
C467 C466 1.367 . S
C467 C469 1.433 . S
C468 C464 1.350 . S
C468 C465 1.463 . S
C468 N472 1.427 . S
C469 H459 0.929 . S
C469 C467 1.433 . S
C469 N472 1.384 . S
C470 H461 0.929 . S
C470 C462 1.378 . S
C470 C465 1.350 . S
C471 H458 0.929 . S
C471 C463 1.433 . S
C471 N473 1.384 . S
N472 C468 1.427 . S
N472 C469 1.384 . S
N473 C465 1.427 . S
N473 C471 1.384 . S
H474 C480 0.930 . S
H475 C484 0.930 . S
H476 C489 0.929 . S
H477 C487 0.929 . S
H478 C482 0.929 . S
H479 C488 0.929 . S
C480 H474 0.930 . S
C480 C481 1.367 . S
C480 C488 1.378 . S
C481 C480 1.367 . S
C481 C489 1.433 . S
C482 H478 0.929 . S
C482 C484 1.378 . S
C482 C486 1.350 . S
C483 C486 1.463 . S
C483 C488 1.350 . S
C483 N491 1.427 . S
C484 H475 0.930 . S
C484 C482 1.378 . S
C484 C485 1.367 . S
C485 C484 1.367 . S
C485 C487 1.433 . S
C486 C482 1.350 . S
C486 C483 1.463 . S
C486 N490 1.427 . S
C487 H477 0.929 . S
C487 C485 1.433 . S
C487 N490 1.384 . S
C488 H479 0.929 . S
C488 C480 1.378 . S
C488 C483 1.350 . S
C489 H476 0.929 . S
C489 C481 1.433 . S
C489 N491 1.384 . S
N490 C486 1.427 . S
N490 C487 1.384 . S
N491 C483 1.427 . S
N491 C489 1.384 . S
H492 C498 0.930 . S
H493 C502 0.930 . S
H494 C507 0.929 . S
H495 C505 0.929 . S
H496 C500 0.929 . S
H497 C506 0.929 . S
C498 H492 0.930 . S
C498 C499 1.367 . S
C498 C506 1.378 . S
C499 C498 1.367 . S
C499 C507 1.433 . S
C500 H496 0.929 . S
C500 C502 1.378 . S
C500 C504 1.350 . S
C501 C504 1.463 . S
C501 C506 1.350 . S
C501 N509 1.427 . S
C502 H493 0.930 . S
C502 C500 1.378 . S
C502 C503 1.367 . S
C503 C502 1.367 . S
C503 C505 1.433 . S
C504 C500 1.350 . S
C504 C501 1.463 . S
C504 N508 1.427 . S
C505 H495 0.929 . S
C505 C503 1.433 . S
C505 N508 1.384 . S
C506 H497 0.929 . S
C506 C498 1.378 . S
C506 C501 1.350 . S
C507 H494 0.929 . S
C507 C499 1.433 . S
C507 N509 1.384 . S
N508 C504 1.427 . S
N508 C505 1.384 . S
N509 C501 1.427 . S
N509 C507 1.384 . S
H510 C516 0.930 . S
H511 C520 0.930 . S
H512 C525 0.929 . S
H513 C523 0.929 . S
H514 C518 0.929 . S
H515 C524 0.929 . S
C516 H510 0.930 . S
C516 C517 1.367 . S
C516 C524 1.378 1_655 S
C517 C516 1.367 . S
C517 C525 1.433 . S
C518 H514 0.929 . S
C518 C520 1.379 1_655 S
C518 C522 1.349 1_655 S
C519 C522 1.463 1_655 S
C519 C524 1.349 1_655 S
C519 N527 1.427 . S
C520 H511 0.930 . S
C520 C518 1.379 1_455 S
C520 C521 1.367 . S
C521 C520 1.367 . S
C521 C523 1.433 . S
C522 C518 1.349 1_455 S
C522 C519 1.463 1_455 S
C522 N526 1.427 . S
C523 H513 0.929 . S
C523 C521 1.433 . S
C523 N526 1.384 . S
C524 H515 0.929 . S
C524 C516 1.378 1_455 S
C524 C519 1.349 1_455 S
C525 H512 0.929 . S
C525 C517 1.433 . S
C525 N527 1.384 . S
N526 C522 1.427 . S
N526 C523 1.384 . S
N527 C519 1.427 . S
N527 C525 1.384 . S
H528 C534 0.930 . S
H529 C538 0.930 . S
H530 C543 0.929 . S
H531 C541 0.929 . S
H532 C536 0.929 . S
H533 C542 0.929 . S
C534 H528 0.930 . S
C534 C535 1.367 1_565 S
C534 C542 1.378 . S
C535 C534 1.367 1_545 S
C535 C543 1.433 . S
C536 H532 0.929 . S
C536 C538 1.378 . S
C536 C540 1.350 1_545 S
C537 C540 1.463 1_544 S
C537 C542 1.350 1_545 S
C537 N545 1.427 . S
C538 H529 0.930 . S
C538 C536 1.378 . S
C538 C539 1.367 1_545 S
C539 C538 1.367 1_565 S
C539 C541 1.433 . S
C540 C536 1.350 1_565 S
C540 C537 1.463 1_566 S
C540 N544 1.427 . S
C541 H531 0.929 . S
C541 C539 1.433 . S
C541 N544 1.384 . S
C542 H533 0.929 . S
C542 C534 1.378 . S
C542 C537 1.350 1_565 S
C543 H530 0.929 . S
C543 C535 1.433 . S
C543 N545 1.384 . S
N544 C540 1.427 . S
N544 C541 1.384 . S
N545 C537 1.427 . S
N545 C543 1.384 . S
H546 C552 0.930 . S
H547 C556 0.930 . S
H548 C561 0.929 . S
H549 C559 0.929 . S
H550 C554 0.929 . S
H551 C560 0.929 . S
C552 H546 0.930 . S
C552 C553 1.367 . S
C552 C560 1.378 . S
C553 C552 1.367 . S
C553 C561 1.433 . S
C554 H550 0.929 . S
C554 C556 1.378 . S
C554 C558 1.350 . S
C555 C558 1.463 . S
C555 C560 1.350 . S
C555 N563 1.427 . S
C556 H547 0.930 . S
C556 C554 1.378 . S
C556 C557 1.367 . S
C557 C556 1.367 . S
C557 C559 1.433 . S
C558 C554 1.350 . S
C558 C555 1.463 . S
C558 N562 1.427 . S
C559 H549 0.929 . S
C559 C557 1.433 . S
C559 N562 1.384 . S
C560 H551 0.929 . S
C560 C552 1.378 . S
C560 C555 1.350 . S
C561 H548 0.929 . S
C561 C553 1.433 . S
C561 N563 1.384 . S
N562 C558 1.427 . S
N562 C559 1.384 . S
N563 C555 1.427 . S
N563 C561 1.384 . S
H564 C570 0.930 . S
H565 C574 0.930 . S
H566 C579 0.929 . S
H567 C577 0.929 . S
H568 C572 0.929 . S
H569 C578 0.929 . S
C570 H564 0.930 . S
C570 C571 1.367 . S
C570 C578 1.378 . S
C571 C570 1.367 . S
C571 C579 1.433 . S
C572 H568 0.929 . S
C572 C574 1.378 . S
C572 C576 1.350 . S
C573 C576 1.463 1_455 S
C573 C578 1.350 . S
C573 N581 1.427 1_455 S
C574 H565 0.930 . S
C574 C572 1.378 . S
C574 C575 1.367 . S
C575 C574 1.367 . S
C575 C577 1.433 . S
C576 C572 1.350 . S
C576 C573 1.463 1_655 S
C576 N580 1.427 1_655 S
C577 H567 0.929 . S
C577 C575 1.433 . S
C577 N580 1.384 1_655 S
C578 H569 0.929 . S
C578 C570 1.378 . S
C578 C573 1.350 . S
C579 H566 0.929 . S
C579 C571 1.433 . S
C579 N581 1.384 1_455 S
N580 C576 1.427 1_455 S
N580 C577 1.384 1_455 S
N581 C573 1.427 1_655 S
N581 C579 1.384 1_655 S
H582 C588 0.930 . S
H583 C592 0.930 . S
H584 C597 0.929 . S
H585 C595 0.929 . S
H586 C590 0.929 . S
H587 C596 0.929 . S
C588 H582 0.930 . S
C588 C589 1.367 1_545 S
C588 C596 1.378 . S
C589 C588 1.367 1_565 S
C589 C597 1.433 . S
C590 H586 0.929 . S
C590 C592 1.378 . S
C590 C594 1.350 1_565 S
C591 C594 1.463 1_564 S
C591 C596 1.350 1_565 S
C591 N599 1.427 . S
C592 H583 0.930 . S
C592 C590 1.378 . S
C592 C593 1.367 1_565 S
C593 C592 1.367 1_545 S
C593 C595 1.433 . S
C594 C590 1.350 1_545 S
C594 C591 1.463 1_546 S
C594 N598 1.427 . S
C595 H585 0.929 . S
C595 C593 1.433 . S
C595 N598 1.384 . S
C596 H587 0.929 . S
C596 C588 1.378 . S
C596 C591 1.350 1_545 S
C597 H584 0.929 . S
C597 C589 1.433 . S
C597 N599 1.384 . S
N598 C594 1.427 . S
N598 C595 1.384 . S
N599 C591 1.427 . S
N599 C597 1.384 . S
C175 C162 1.695 . S
C179 C8 1.694 . S
C193 C22 1.689 . S
C197 C92 1.692 . S
C211 C36 1.695 . S
C215 C106 1.691 . S
C229 C50 1.691 . S
C233 C120 1.695 . S
C247 C134 1.689 . S
C251 C64 1.692 . S
C265 C78 1.691 . S
C269 C148 1.695 . S
C283 C51 1.208 . S
C287 C9 1.207 . S
C301 C65 1.206 . S
C305 C23 1.212 . S
C319 C79 1.207 . S
C323 C37 1.209 . S
C337 C93 1.223 . S
C341 C135 1.215 . S
C355 C107 1.221 . S
C359 C149 1.223 . S
C373 C121 1.209 . S
C377 C163 1.218 . S
C391 C119 0.546 . S
C395 C7 0.533 . S
C409 C21 0.550 . S
C413 C133 0.539 . S
C427 C147 0.551 . S
C431 C35 0.553 . S
C445 C161 0.553 . S
C449 C49 0.549 . S
C463 C91 0.545 . S
C467 C63 0.533 . S
C481 C77 0.553 . S
C485 C105 0.549 . S
C499 C129 1.661 . S
C503 C3 1.662 . S
C517 C17 1.659 . S
C521 C143 1.660 . S
C535 C157 1.657 . S
C539 C31 1.657 . S
C553 C45 1.659 . S
C557 C87 1.658 . S
C571 C59 1.662 . S
C575 C101 1.663 . S
C589 C115 1.658 . S
C593 C73 1.658 . S
