# Generated by pormake.
# Topology umb, (4)-cn, num edge types: 1
# Building blocks:
#     Node 0, Type 0, BuildingBlock: ICAMEG_clean_sbu_1, # of connection points: 4
#     Node 1, Type 0, BuildingBlock: ICAMEG_clean_sbu_1, # of connection points: 4
#     Node 2, Type 0, BuildingBlock: ICAMEG_clean_sbu_1, # of connection points: 4
#     Node 3, Type 0, BuildingBlock: ICAMEG_clean_sbu_1, # of connection points: 4
#     Node 4, Type 0, BuildingBlock: ICAMEG_clean_sbu_1, # of connection points: 4
#     Node 5, Type 0, BuildingBlock: ICAMEG_clean_sbu_1, # of connection points: 4
#     Node 6, Type 0, BuildingBlock: ICAMEG_clean_sbu_1, # of connection points: 4
#     Node 7, Type 0, BuildingBlock: ICAMEG_clean_sbu_1, # of connection points: 4
#     Node 8, Type 0, BuildingBlock: ICAMEG_clean_sbu_1, # of connection points: 4
#     Node 9, Type 0, BuildingBlock: ICAMEG_clean_sbu_1, # of connection points: 4
#     Node 10, Type 0, BuildingBlock: ICAMEG_clean_sbu_1, # of connection points: 4
#     Node 11, Type 0, BuildingBlock: ICAMEG_clean_sbu_1, # of connection points: 4
#     Edge 12, Type (0, 0), BuildingBlock: KIFKEQ_clean_linker_1, # of connection points: 2
#     Edge 13, Type (0, 0), BuildingBlock: KIFKEQ_clean_linker_1, # of connection points: 2
#     Edge 14, Type (0, 0), BuildingBlock: KIFKEQ_clean_linker_1, # of connection points: 2
#     Edge 15, Type (0, 0), BuildingBlock: KIFKEQ_clean_linker_1, # of connection points: 2
#     Edge 16, Type (0, 0), BuildingBlock: KIFKEQ_clean_linker_1, # of connection points: 2
#     Edge 17, Type (0, 0), BuildingBlock: KIFKEQ_clean_linker_1, # of connection points: 2
#     Edge 18, Type (0, 0), BuildingBlock: KIFKEQ_clean_linker_1, # of connection points: 2
#     Edge 19, Type (0, 0), BuildingBlock: KIFKEQ_clean_linker_1, # of connection points: 2
#     Edge 20, Type (0, 0), BuildingBlock: KIFKEQ_clean_linker_1, # of connection points: 2
#     Edge 21, Type (0, 0), BuildingBlock: KIFKEQ_clean_linker_1, # of connection points: 2
#     Edge 22, Type (0, 0), BuildingBlock: KIFKEQ_clean_linker_1, # of connection points: 2
#     Edge 23, Type (0, 0), BuildingBlock: KIFKEQ_clean_linker_1, # of connection points: 2
#     Edge 24, Type (0, 0), BuildingBlock: KIFKEQ_clean_linker_1, # of connection points: 2
#     Edge 25, Type (0, 0), BuildingBlock: KIFKEQ_clean_linker_1, # of connection points: 2
#     Edge 26, Type (0, 0), BuildingBlock: KIFKEQ_clean_linker_1, # of connection points: 2
#     Edge 27, Type (0, 0), BuildingBlock: KIFKEQ_clean_linker_1, # of connection points: 2
#     Edge 28, Type (0, 0), BuildingBlock: KIFKEQ_clean_linker_1, # of connection points: 2
#     Edge 29, Type (0, 0), BuildingBlock: KIFKEQ_clean_linker_1, # of connection points: 2
#     Edge 30, Type (0, 0), BuildingBlock: KIFKEQ_clean_linker_1, # of connection points: 2
#     Edge 31, Type (0, 0), BuildingBlock: KIFKEQ_clean_linker_1, # of connection points: 2
#     Edge 32, Type (0, 0), BuildingBlock: KIFKEQ_clean_linker_1, # of connection points: 2
#     Edge 33, Type (0, 0), BuildingBlock: KIFKEQ_clean_linker_1, # of connection points: 2
#     Edge 34, Type (0, 0), BuildingBlock: KIFKEQ_clean_linker_1, # of connection points: 2
#     Edge 35, Type (0, 0), BuildingBlock: KIFKEQ_clean_linker_1, # of connection points: 2
# Relax obj value: 0.161
# Max RMSD: 0.174
# Mean RMSD: 0.173
data_MOF--net-umb--node1-ICAMEG_clean_sbu_1--edge1-KIFKEQ_clean_linker_1
_symmetry_space_group_name_H-M    P1
_symmetry_Int_Tables_number       1
_symmetry_cell_setting            triclinic
loop_
_symmetry_equiv_pos_as_xyz
'x, y, z'
_cell_length_a     51.54062
_cell_length_b     51.561427
_cell_length_c     41.021616
_cell_angle_alpha  90.029936
_cell_angle_beta   89.969876
_cell_angle_gamma 119.97552
loop_
_atom_site_label
_atom_site_type_symbol
_atom_site_fract_x
_atom_site_fract_y
_atom_site_fract_z
_atom_type_partial_charge
Co0 Co 0.50677 0.1818 0.35966 0.0
Co1 Co 0.5694 0.17759 0.33751 0.0
O2 O 0.52692 0.16478 0.33435 0.0
C3 C 0.50347 0.19655 0.29065 0.0
O4 O 0.5304 0.20015 0.28822 0.0
C5 C 0.53918 0.1142 0.35658 0.0
O6 O 0.52176 0.11974 0.37511 0.0
O7 O 0.56785 0.17832 0.38607 0.0
O8 O 0.52503 0.17681 0.40119 0.0
H9 H 0.67457 0.24161 0.37862 0.0
H10 H 0.4715 0.13223 0.31346 0.0
O11 O 0.48948 0.18849 0.3179 0.0
H12 H 0.42797 0.09328 0.42182 0.0
H13 H 0.41943 0.19558 0.38797 0.0
H14 H 0.52329 0.22356 0.41571 0.0
H15 H 0.47011 0.14491 0.41559 0.0
H16 H 0.44597 0.17495 0.35677 0.0
O17 O 0.55942 0.13484 0.33921 0.0
H18 H 0.62077 0.22509 0.37413 0.0
H19 H 0.60846 0.15636 0.30811 0.0
H20 H 0.49755 0.24453 0.44772 0.0
H21 H 0.42922 0.08054 0.3185 0.0
H22 H 0.44523 0.23055 0.43389 0.0
H23 H 0.40723 0.06075 0.37302 0.0
O24 O 0.54084 0.22315 0.35554 0.0
H25 H 0.53328 0.1326 0.22655 0.0
H26 H 0.60993 0.2202 0.28698 0.0
H27 H 0.61143 0.22016 0.22688 0.0
H28 H 0.5729 0.17612 0.19627 0.0
H29 H 0.53246 0.13371 0.28666 0.0
H30 H 0.66206 0.17194 0.31215 0.0
H31 H 0.69553 0.21496 0.34747 0.0
O32 O 0.58005 0.22029 0.3359 0.0
C33 C 0.54962 0.17731 0.40784 0.0
C34 C 0.66023 0.2229 0.36306 0.0
C35 C 0.6532 0.18377 0.32579 0.0
N36 N 0.61157 0.18997 0.34065 0.0
C37 C 0.62978 0.2135 0.36034 0.0
C38 C 0.62286 0.17501 0.32365 0.0
C39 C 0.67197 0.20791 0.3456 0.0
C40 C 0.46185 0.12384 0.3372 0.0
N41 N 0.47308 0.14157 0.36416 0.0
C42 C 0.43801 0.09453 0.33993 0.0
C43 C 0.4257 0.08342 0.37053 0.0
C44 C 0.43734 0.10166 0.39793 0.0
C45 C 0.46122 0.13084 0.39427 0.0
C46 C 0.4422 0.2018 0.39427 0.0
C47 C 0.50047 0.21723 0.40969 0.0
C48 C 0.45735 0.19025 0.37665 0.0
N49 N 0.48606 0.1979 0.38457 0.0
C50 C 0.48603 0.22924 0.42783 0.0
C51 C 0.45669 0.22141 0.42004 0.0
C52 C 0.56753 0.23503 0.34497 0.0
C53 C 0.55023 0.15189 0.23962 0.0
C54 C 0.59307 0.20098 0.27383 0.0
C55 C 0.59406 0.20106 0.2398 0.0
C56 C 0.57245 0.17633 0.22264 0.0
N57 N 0.57119 0.17693 0.2903 0.0
C58 C 0.54996 0.15258 0.27365 0.0
Co59 Co 0.32863 0.51949 0.6906 0.0
Co60 Co 0.4032 0.55325 0.66829 0.0
O61 O 0.36172 0.52096 0.6661 0.0
C62 C 0.31311 0.51908 0.6214 0.0
O63 O 0.34114 0.54015 0.618 0.0
C64 C 0.40629 0.49984 0.68722 0.0
O65 O 0.38469 0.49366 0.70816 0.0
O66 O 0.40212 0.55336 0.71676 0.0
O67 O 0.35367 0.53255 0.73163 0.0
H68 H 0.48938 0.65006 0.70894 0.0
H69 H 0.31845 0.46687 0.65147 0.0
O70 O 0.30348 0.50737 0.64946 0.0
H71 H 0.29486 0.4307 0.76484 0.0
H72 H 0.22004 0.47503 0.72109 0.0
H73 H 0.32282 0.55768 0.74085 0.0
H74 H 0.31075 0.48321 0.75149 0.0
H75 H 0.2628 0.47742 0.6913 0.0
O76 O 0.4163 0.52287 0.66906 0.0
H77 H 0.43658 0.60991 0.70559 0.0
H78 H 0.45939 0.56358 0.63603 0.0
H79 H 0.28077 0.55605 0.77137 0.0
H80 H 0.30241 0.41409 0.66367 0.0
H81 H 0.22894 0.5145 0.76154 0.0
H82 H 0.29054 0.39573 0.72073 0.0
O83 O 0.342 0.56193 0.68071 0.0
H84 H 0.38507 0.50601 0.55728 0.0
H85 H 0.42326 0.60093 0.61765 0.0
H86 H 0.42339 0.60152 0.55751 0.0
H87 H 0.40419 0.5538 0.52694 0.0
H88 H 0.38511 0.50641 0.61741 0.0
H89 H 0.51252 0.60308 0.63882 0.0
H90 H 0.52778 0.64678 0.67537 0.0
O91 O 0.39095 0.58424 0.66806 0.0
C92 C 0.38171 0.54575 0.73835 0.0
C93 C 0.48299 0.63123 0.69276 0.0
C94 C 0.49598 0.60484 0.65345 0.0
N95 N 0.44484 0.58469 0.67025 0.0
C96 C 0.4531 0.60851 0.69064 0.0
C97 C 0.46587 0.58254 0.65198 0.0
C98 C 0.50453 0.62935 0.67396 0.0
C99 C 0.31308 0.45895 0.6763 0.0
N100 N 0.31534 0.478 0.70071 0.0
C101 C 0.30412 0.42909 0.68309 0.0
C102 C 0.2975 0.41881 0.71512 0.0
C103 C 0.29993 0.43842 0.73988 0.0
C104 C 0.309 0.46814 0.73219 0.0
C105 C 0.24253 0.49321 0.72564 0.0
C106 C 0.30035 0.53941 0.73664 0.0
C107 C 0.26681 0.4947 0.70882 0.0
N108 N 0.29527 0.51752 0.71456 0.0
C109 C 0.27662 0.53866 0.7539 0.0
C110 C 0.24754 0.51536 0.74835 0.0
C111 C 0.3669 0.58486 0.6733 0.0
C112 C 0.39358 0.52696 0.57033 0.0
C113 C 0.41484 0.58007 0.60451 0.0
C114 C 0.41502 0.58055 0.57046 0.0
C115 C 0.40427 0.55378 0.55332 0.0
N116 N 0.40433 0.55368 0.62101 0.0
C117 C 0.39379 0.52734 0.60438 0.0
Co118 Co 0.80444 0.32639 0.02384 0.0
Co119 Co 0.80639 0.39227 1.00248 0.0
O120 O 0.82073 0.36379 0.99909 0.0
C121 C 0.79067 0.30886 0.95442 0.0
O122 O 0.78723 0.33227 0.95177 0.0
C123 C 0.8691 0.4265 0.02381 0.0
O124 O 0.86385 0.40285 0.04086 0.0
O125 O 0.80433 0.38882 0.05094 0.0
O126 O 0.80858 0.34898 0.06567 0.0
H127 H 0.73775 0.42851 0.04217 0.0
H128 H 0.85453 0.34241 0.97781 0.0
O129 O 0.79849 0.30292 0.98181 0.0
H130 H 0.89374 0.33809 0.08609 0.0
H131 H 0.79338 0.22619 0.05086 0.0
H132 H 0.76249 0.29972 0.07953 0.0
H133 H 0.84161 0.32717 0.07975 0.0
H134 H 0.81307 0.27355 1.02028 0.0
O135 O 0.84861 0.42608 1.0061 0.0
H136 H 0.75652 0.39302 0.03769 0.0
H137 H 0.82642 0.45294 0.97488 0.0
H138 H 0.74244 0.2528 0.11093 0.0
H139 H 0.90674 0.35327 0.98295 0.0
H140 H 0.75789 0.21564 0.09663 0.0
H141 H 0.92665 0.3512 0.03743 0.0
O142 O 0.76271 0.31802 1.01958 0.0
H143 H 0.85542 0.40605 0.89305 0.0
H144 H 0.76451 0.38973 0.95075 0.0
H145 H 0.7664 0.39301 0.89073 0.0
H146 H 0.81212 0.40124 0.86149 0.0
H147 H 0.85246 0.40235 0.95305 0.0
H148 H 0.80863 0.48925 0.979 0.0
H149 H 0.76387 0.47702 1.01268 0.0
O150 O 0.76422 0.35916 0.99912 0.0
C151 C 0.80639 0.37211 0.07255 0.0
C152 C 0.75722 0.43405 0.02734 0.0
C153 C 0.79703 0.46815 0.99191 0.0
N154 N 0.79236 0.42078 1.0058 0.0
C155 C 0.7679 0.41401 0.02462 0.0
C156 C 0.80704 0.44754 0.98974 0.0
C157 C 0.77191 0.46128 1.01081 0.0
C158 C 0.86299 0.34121 1.00153 0.0
N159 N 0.84505 0.33398 0.02841 0.0
C160 C 0.89259 0.34749 1.00432 0.0
C161 C 0.90376 0.34637 0.0349 0.0
C162 C 0.88531 0.33902 0.06222 0.0
C163 C 0.85584 0.33291 0.0585 0.0
C164 C 0.78652 0.24223 0.05736 0.0
C165 C 0.76946 0.28375 0.07331 0.0
C166 C 0.79754 0.26903 0.04009 0.0
N167 N 0.78908 0.28943 0.04827 0.0
C168 C 0.75797 0.25718 0.09111 0.0
C169 C 0.76662 0.23633 0.08305 0.0
C170 C 0.75014 0.33193 1.00833 0.0
C171 C 0.83541 0.40253 0.90552 0.0
C172 C 0.78445 0.39326 0.93819 0.0
C173 C 0.78542 0.39516 0.90421 0.0
C174 C 0.81108 0.39979 0.88782 0.0
N175 N 0.8084 0.39597 0.95537 0.0
C176 C 0.83366 0.40056 0.93948 0.0
Co177 Co 0.46959 0.80341 0.35983 0.0
Co178 Co 0.43128 0.84126 0.34532 0.0
O179 O 0.46372 0.8332 0.3369 0.0
C180 C 0.46225 0.78528 0.29102 0.0
O181 O 0.43925 0.78959 0.29212 0.0
C182 C 0.48508 0.90013 0.35431 0.0
O183 O 0.49519 0.88707 0.37391 0.0
O184 O 0.43951 0.84456 0.39278 0.0
O185 O 0.45958 0.81529 0.40315 0.0
H186 H 0.34144 0.83117 0.40486 0.0
H187 H 0.51684 0.84616 0.31514 0.0
O188 O 0.47838 0.7903 0.31652 0.0
H189 H 0.56477 0.86451 0.4232 0.0
H190 H 0.52258 0.74546 0.38106 0.0
H191 H 0.43814 0.75954 0.41285 0.0
H192 H 0.51186 0.82549 0.41593 0.0
H193 H 0.51435 0.78331 0.35356 0.0
O194 O 0.45995 0.88491 0.34006 0.0
H195 H 0.38184 0.82001 0.39349 0.0
H196 H 0.4132 0.88258 0.31557 0.0
H197 H 0.44566 0.72162 0.44121 0.0
H198 H 0.56987 0.88525 0.32122 0.0
H199 H 0.48815 0.71439 0.42533 0.0
H200 H 0.59415 0.89465 0.37559 0.0
O201 O 0.42688 0.77253 0.35497 0.0
H202 H 0.4587 0.86114 0.22675 0.0
H203 H 0.37605 0.80788 0.30511 0.0
H204 H 0.36534 0.80177 0.24612 0.0
H205 H 0.40685 0.82852 0.20651 0.0
H206 H 0.46845 0.86639 0.28595 0.0
H207 H 0.37328 0.89463 0.32627 0.0
H208 H 0.33696 0.86873 0.3711 0.0
O209 O 0.40197 0.7979 0.3513 0.0
C210 C 0.4486 0.83162 0.41241 0.0
C211 C 0.357 0.84246 0.38512 0.0
C212 C 0.3749 0.87811 0.34104 0.0
N213 N 0.39953 0.85024 0.35355 0.0
C214 C 0.37983 0.83612 0.37847 0.0
C215 C 0.39746 0.8712 0.33511 0.0
C216 C 0.35453 0.86357 0.3662 0.0
C217 C 0.52734 0.84998 0.3388 0.0
N218 N 0.51138 0.83349 0.36511 0.0
C219 C 0.55733 0.8722 0.34213 0.0
C220 C 0.57093 0.87749 0.37265 0.0
C221 C 0.55445 0.8606 0.39938 0.0
C222 C 0.5245 0.8386 0.39514 0.0
C223 C 0.50405 0.74847 0.38828 0.0
C224 C 0.45684 0.75672 0.40604 0.0
C225 C 0.49927 0.76984 0.37278 0.0
N226 N 0.47602 0.77387 0.3819 0.0
C227 C 0.46091 0.73512 0.42207 0.0
C228 C 0.48473 0.73105 0.41312 0.0
C229 C 0.40282 0.77371 0.35392 0.0
C230 C 0.44041 0.84943 0.24378 0.0
C231 C 0.39423 0.81956 0.28801 0.0
C232 C 0.38803 0.81606 0.25465 0.0
C233 C 0.41132 0.83109 0.23244 0.0
N234 N 0.42283 0.83758 0.29894 0.0
C235 C 0.44578 0.85244 0.27732 0.0
Co236 Co 0.66094 0.47602 0.69188 0.0
Co237 Co 0.5955 0.41146 0.67086 0.0
O238 O 0.62348 0.45435 0.66728 0.0
C239 C 0.67821 0.47972 0.62241 0.0
O240 O 0.6552 0.4526 0.62005 0.0
C241 C 0.56054 0.43923 0.69189 0.0
O242 O 0.58402 0.45781 0.70906 0.0
O243 O 0.59899 0.41317 0.71931 0.0
O244 O 0.6386 0.45751 0.73383 0.0
H245 H 0.56089 0.30713 0.71101 0.0
H246 H 0.64392 0.50926 0.64584 0.0
O247 O 0.68411 0.49363 0.64971 0.0
H248 H 0.64786 0.55287 0.754 0.0
H249 H 0.7605 0.56627 0.71838 0.0
H250 H 0.68836 0.46163 0.74753 0.0
H251 H 0.65967 0.51228 0.74771 0.0
H252 H 0.71311 0.53785 0.688 0.0
O253 O 0.56128 0.41926 0.67431 0.0
H254 H 0.59569 0.3615 0.70636 0.0
H255 H 0.53496 0.37001 0.6434 0.0
H256 H 0.73533 0.48926 0.77874 0.0
H257 H 0.63215 0.54998 0.65093 0.0
H258 H 0.77179 0.54198 0.76419 0.0
H259 H 0.63402 0.572 0.70535 0.0
O260 O 0.67003 0.44314 0.68768 0.0
H261 H 0.58098 0.44563 0.56117 0.0
H262 H 0.59868 0.37223 0.61939 0.0
H263 H 0.59538 0.3705 0.55936 0.0
H264 H 0.58646 0.40739 0.52986 0.0
H265 H 0.58471 0.44672 0.62117 0.0
H266 H 0.49933 0.31578 0.64771 0.0
H267 H 0.51233 0.28393 0.68154 0.0
O268 O 0.62905 0.40305 0.6676 0.0
C269 C 0.61562 0.43213 0.74084 0.0
C270 C 0.55502 0.32075 0.69612 0.0
C271 C 0.52046 0.32562 0.66062 0.0
N272 N 0.56749 0.36884 0.67439 0.0
C273 C 0.57467 0.35153 0.6933 0.0
C274 C 0.54068 0.35632 0.65834 0.0
C275 C 0.52776 0.30776 0.6796 0.0
C276 C 0.64504 0.51894 0.66953 0.0
N277 N 0.65265 0.50859 0.69641 0.0
C278 C 0.63824 0.5419 0.67229 0.0
C279 C 0.63926 0.55422 0.70284 0.0
C280 C 0.647 0.54349 0.73015 0.0
C281 C 0.65362 0.52048 0.72646 0.0
C282 C 0.74477 0.54333 0.72498 0.0
C283 C 0.70402 0.48462 0.7412 0.0
C284 C 0.71795 0.52712 0.70783 0.0
N285 N 0.69793 0.4982 0.71615 0.0
C286 C 0.73063 0.50012 0.75889 0.0
C287 C 0.75109 0.52969 0.7507 0.0
C288 C 0.65636 0.4166 0.67656 0.0
C289 C 0.5848 0.42939 0.57375 0.0
C290 C 0.59484 0.38838 0.60671 0.0
C291 C 0.59294 0.38726 0.57273 0.0
C292 C 0.58791 0.40795 0.5562 0.0
N293 N 0.59177 0.40949 0.62375 0.0
C294 C 0.58679 0.42982 0.60772 0.0
Co295 Co 0.18124 0.66132 0.02765 0.0
Co296 Co 0.14081 0.58648 1.0063 0.0
O297 O 0.1497 0.62785 1.00345 0.0
C298 C 0.19651 0.67597 0.95838 0.0
O299 O 0.18928 0.64782 0.9555 0.0
C300 C 0.08366 0.5826 0.02451 0.0
O301 O 0.09847 0.60409 0.04573 0.0
O302 O 0.14175 0.58814 0.05472 0.0
O303 O 0.16936 0.63671 0.06902 0.0
H304 H 0.15209 0.50129 0.04903 0.0
H305 H 0.13876 0.67092 0.98792 0.0
O306 O 0.19434 0.68601 0.98616 0.0
H307 H 0.12565 0.6954 0.10077 0.0
H308 H 0.24477 0.77023 0.05684 0.0
H309 H 0.22525 0.6679 0.07825 0.0
H310 H 0.1625 0.67959 0.08806 0.0
H311 H 0.20465 0.72706 0.02738 0.0
O312 O 0.09724 0.57303 1.00658 0.0
H313 H 0.1643 0.5539 0.04472 0.0
H314 H 0.09549 0.52978 0.97447 0.0
H315 H 0.26542 0.71036 0.10846 0.0
H316 H 0.1018 0.68686 0.99947 0.0
H317 H 0.2754 0.76197 0.0978 0.0
H318 H 0.09505 0.69918 0.05626 0.0
O319 O 0.21053 0.64812 1.01819 0.0
H320 H 0.11193 0.60302 0.89449 0.0
H321 H 0.16897 0.56615 0.95649 0.0
H322 H 0.16971 0.56534 0.89637 0.0
H323 H 0.14103 0.58386 0.86498 0.0
H324 H 0.11202 0.60369 0.95461 0.0
H325 H 0.08233 0.47684 0.9782 0.0
H326 H 0.11082 0.46232 1.01559 0.0
O327 O 0.18411 0.599 1.0064 0.0
C328 C 0.15451 0.60875 0.07608 0.0
C329 C 0.13963 0.50735 0.03249 0.0
C330 C 0.10045 0.49363 0.99278 0.0
N331 N 0.13097 0.54498 1.00898 0.0
C332 C 0.14656 0.53714 0.02982 0.0
C333 C 0.108 0.52364 0.99078 0.0
C334 C 0.11645 0.4855 1.01376 0.0
C335 C 0.13609 0.67647 1.01264 0.0
N336 N 0.15285 0.67451 0.03726 0.0
C337 C 0.11506 0.68538 1.01906 0.0
C338 C 0.11126 0.69225 0.05094 0.0
C339 C 0.12841 0.69012 0.07593 0.0
C340 C 0.14919 0.6811 0.0686 0.0
C341 C 0.24059 0.74784 0.06176 0.0
C342 C 0.22932 0.69027 0.07367 0.0
C343 C 0.21795 0.72334 0.04512 0.0
N344 N 0.21247 0.695 0.05132 0.0
C345 C 0.25216 0.71423 0.09076 0.0
C346 C 0.25777 0.74319 0.08474 0.0
C347 C 0.2087 0.62321 1.0112 0.0
C348 C 0.12443 0.5948 0.9079 0.0
C349 C 0.15647 0.57429 0.94299 0.0
C350 C 0.15693 0.57372 0.90896 0.0
C351 C 0.14081 0.58409 0.89136 0.0
N352 N 0.14035 0.58482 0.95904 0.0
C353 C 0.12446 0.59499 0.94194 0.0
Co354 Co 0.8023 0.47779 0.35663 0.0
Co355 Co 0.8064 0.41501 0.37801 0.0
O356 O 0.81957 0.45756 0.38135 0.0
C357 C 0.78833 0.48109 0.42605 0.0
O358 O 0.78532 0.45441 0.42853 0.0
C359 C 0.86934 0.44477 0.35702 0.0
O360 O 0.86374 0.4628 0.33969 0.0
O361 O 0.80451 0.41639 0.32954 0.0
O362 O 0.807 0.45971 0.3148 0.0
H363 H 0.74059 0.30985 0.33778 0.0
H364 H 0.85222 0.5129 0.40249 0.0
O365 O 0.79586 0.49492 0.3987 0.0
H366 H 0.89036 0.55682 0.29408 0.0
H367 H 0.78823 0.56515 0.32966 0.0
H368 H 0.76007 0.46144 0.30107 0.0
H369 H 0.83876 0.51466 0.30059 0.0
H370 H 0.80914 0.53855 0.36018 0.0
O371 O 0.84896 0.42454 0.37466 0.0
H372 H 0.75768 0.36374 0.34247 0.0
H373 H 0.8279 0.37567 0.40595 0.0
H374 H 0.73881 0.48725 0.26974 0.0
H375 H 0.90388 0.5552 0.39717 0.0
H376 H 0.75288 0.53949 0.284 0.0
H377 H 0.92326 0.57739 0.34263 0.0
O378 O 0.76095 0.44371 0.361 0.0
H379 H 0.85452 0.45123 0.48765 0.0
H380 H 0.76492 0.37493 0.42959 0.0
H381 H 0.76659 0.37363 0.48964 0.0
H382 H 0.81164 0.41198 0.51905 0.0
H383 H 0.85178 0.45185 0.42762 0.0
H384 H 0.81177 0.32196 0.40167 0.0
H385 H 0.76771 0.28864 0.36753 0.0
O386 O 0.76387 0.40474 0.38116 0.0
C387 C 0.80584 0.43485 0.30793 0.0
C388 C 0.75976 0.32412 0.35282 0.0
C389 C 0.79973 0.33093 0.38865 0.0
N390 N 0.79358 0.37276 0.3747 0.0
C391 C 0.76948 0.35463 0.35566 0.0
C392 C 0.8088 0.36133 0.39092 0.0
C393 C 0.775 0.31224 0.36949 0.0
C394 C 0.86044 0.52264 0.37874 0.0
N395 N 0.84249 0.51151 0.35192 0.0
C396 C 0.88973 0.54649 0.37585 0.0
C397 C 0.9006 0.5589 0.34523 0.0
C398 C 0.88216 0.54737 0.31798 0.0
C399 C 0.853 0.52348 0.3218 0.0
C400 C 0.78196 0.54241 0.32318 0.0
C401 C 0.76644 0.48423 0.30728 0.0
C402 C 0.79368 0.52722 0.34041 0.0
N403 N 0.78597 0.49856 0.33225 0.0
C404 C 0.75426 0.4987 0.28952 0.0
C405 C 0.76214 0.528 0.29756 0.0
C406 C 0.7491 0.41721 0.37211 0.0
C407 C 0.83479 0.43435 0.4751 0.0
C408 C 0.78458 0.39172 0.44223 0.0
C409 C 0.78542 0.39084 0.47622 0.0
C410 C 0.81071 0.41235 0.49271 0.0
N411 N 0.80829 0.41338 0.42514 0.0
C412 C 0.83318 0.43452 0.44112 0.0
Co413 Co 0.32841 0.80391 0.69278 0.0
Co414 Co 0.4035 0.84603 0.71188 0.0
O415 O 0.36186 0.83589 0.71653 0.0
C416 C 0.31394 0.78922 0.76215 0.0
O417 O 0.34189 0.79566 0.76485 0.0
C418 C 0.40537 0.90284 0.69791 0.0
O419 O 0.3835 0.88811 0.67706 0.0
O420 O 0.40094 0.84738 0.66371 0.0
O421 O 0.35273 0.81504 0.6511 0.0
H422 H 0.48951 0.8398 0.66254 0.0
H423 H 0.31862 0.84681 0.73148 0.0
O424 O 0.30397 0.79155 0.73441 0.0
H425 H 0.29345 0.85774 0.61823 0.0
H426 H 0.21938 0.73954 0.66438 0.0
H427 H 0.32172 0.75858 0.64384 0.0
H428 H 0.30964 0.82137 0.63185 0.0
H429 H 0.26262 0.78042 0.69299 0.0
O430 O 0.41584 0.88928 0.71449 0.0
H431 H 0.43655 0.82588 0.66921 0.0
H432 H 0.46025 0.89081 0.74405 0.0
H433 H 0.2792 0.71765 0.61449 0.0
H434 H 0.30229 0.8833 0.71902 0.0
H435 H 0.22758 0.70791 0.62471 0.0
H436 H 0.28964 0.88896 0.66202 0.0
O437 O 0.34209 0.77522 0.70294 0.0
H438 H 0.38827 0.86896 0.82706 0.0
H439 H 0.42564 0.81649 0.75768 0.0
H440 H 0.42765 0.81304 0.81751 0.0
H441 H 0.40888 0.83942 0.85262 0.0
H442 H 0.38641 0.87158 0.76713 0.0
H443 H 0.51352 0.90563 0.73801 0.0
H444 H 0.52842 0.87995 0.69711 0.0
O445 O 0.39208 0.803 0.70859 0.0
C446 C 0.38019 0.83245 0.64311 0.0
C447 C 0.48328 0.85102 0.68059 0.0
C448 C 0.49675 0.888 0.72292 0.0
N449 N 0.44526 0.85714 0.70737 0.0
C450 C 0.4533 0.84312 0.68459 0.0
C451 C 0.46656 0.87951 0.72622 0.0
C452 C 0.5051 0.87358 0.69996 0.0
C453 C 0.3129 0.849 0.70668 0.0
N454 N 0.31489 0.8319 0.68245 0.0
C455 C 0.30379 0.86976 0.69975 0.0
C456 C 0.29673 0.87296 0.66775 0.0
C457 C 0.29888 0.85546 0.64316 0.0
C458 C 0.30811 0.83496 0.651 0.0
C459 C 0.24178 0.74363 0.65963 0.0
C460 C 0.29936 0.75466 0.64817 0.0
C461 C 0.26632 0.76672 0.67577 0.0
N462 N 0.29467 0.77209 0.66975 0.0
C463 C 0.27536 0.73137 0.63159 0.0
C464 C 0.24639 0.7259 0.63737 0.0
C465 C 0.36787 0.77794 0.70628 0.0
C466 C 0.3966 0.85745 0.81202 0.0
C467 C 0.41736 0.82797 0.7728 0.0
C468 C 0.41862 0.82599 0.80666 0.0
C469 C 0.40812 0.84082 0.82634 0.0
N470 N 0.40602 0.84431 0.75894 0.0
C471 C 0.39574 0.85897 0.77808 0.0
Co472 Co 0.5088 0.32404 0.02505 0.0
Co473 Co 0.57293 0.38978 0.04642 0.0
O474 O 0.53016 0.36132 0.04997 0.0
C475 C 0.50527 0.30637 0.09428 0.0
O476 O 0.53249 0.32924 0.09655 0.0
C477 C 0.54439 0.42428 0.0265 0.0
O478 O 0.52625 0.40106 1.00873 0.0
O479 O 0.57115 0.38687 0.99791 0.0
O480 O 0.52727 0.34667 0.98325 0.0
H481 H 0.67747 0.42647 1.0054 0.0
H482 H 0.47513 0.34036 0.07137 0.0
O483 O 0.49126 0.30061 0.06707 0.0
H484 H 0.43152 0.33665 0.96331 0.0
H485 H 0.4191 0.22428 0.99795 0.0
H486 H 0.52361 0.29724 0.96907 0.0
H487 H 0.47244 0.32527 0.96935 0.0
H488 H 0.44717 0.27151 0.02869 0.0
O489 O 0.56444 0.42359 0.04395 0.0
H490 H 0.62325 0.39096 1.01011 0.0
H491 H 0.61377 0.45009 0.07472 0.0
H492 H 0.49633 0.25044 0.93752 0.0
H493 H 0.43408 0.35168 0.06651 0.0
H494 H 0.44368 0.21356 0.95193 0.0
H495 H 0.41205 0.34992 1.01214 0.0
O496 O 0.54199 0.31535 0.029 0.0
H497 H 0.53848 0.40208 0.15699 0.0
H498 H 0.61267 0.3866 0.09718 0.0
H499 H 0.61449 0.38904 0.15725 0.0
H500 H 0.5772 0.39684 0.18755 0.0
H501 H 0.53731 0.39922 0.09693 0.0
H502 H 0.66784 0.48642 0.0704 0.0
H503 H 0.7001 0.47459 0.0357 0.0
O504 O 0.58201 0.35665 0.04869 0.0
C505 C 0.5524 0.37003 0.97633 0.0
C506 C 0.66366 0.43184 1.02068 0.0
C507 C 0.65825 0.4655 0.05713 0.0
N508 N 0.61543 0.41833 0.04291 0.0
C509 C 0.63297 0.41178 0.02352 0.0
C510 C 0.62764 0.44488 0.05942 0.0
C511 C 0.67634 0.45885 0.03766 0.0
C512 C 0.46545 0.33929 0.0477 0.0
N513 N 0.47599 0.33198 1.02072 0.0
C514 C 0.4423 0.34583 0.04507 0.0
C515 C 0.42998 0.34488 1.01455 0.0
C516 C 0.4409 0.33745 0.98713 0.0
C517 C 0.4641 0.33108 0.99069 0.0
C518 C 0.44201 0.24019 0.99141 0.0
C519 C 0.50065 0.28139 0.97535 0.0
C520 C 0.45803 0.26692 1.00876 0.0
N521 N 0.48691 0.28717 1.00052 0.0
C522 C 0.48534 0.25489 0.95746 0.0
C523 C 0.45581 0.2342 0.96558 0.0
C524 C 0.56869 0.32937 0.03966 0.0
C525 C 0.55489 0.39875 0.14406 0.0
C526 C 0.59635 0.38996 0.1102 0.0
C527 C 0.59752 0.39137 0.1442 0.0
C528 C 0.5766 0.39577 0.16119 0.0
N529 N 0.57497 0.39289 0.09358 0.0
C530 C 0.55442 0.39726 0.11005 0.0
Co531 Co 0.17975 0.51465 0.3571 0.0
Co532 Co 0.14116 0.55084 0.37922 0.0
O533 O 0.14861 0.51736 0.38133 0.0
C534 C 0.19446 0.51433 0.42641 0.0
O535 O 0.18753 0.53545 0.4295 0.0
C536 C 0.08343 0.49942 0.35896 0.0
O537 O 0.09806 0.49245 0.33777 0.0
O538 O 0.14309 0.55135 0.33079 0.0
O539 O 0.16845 0.52811 0.31586 0.0
H540 H 0.15703 0.64986 0.33922 0.0
H541 H 0.13635 0.4629 0.39657 0.0
O542 O 0.19228 0.50232 0.3985 0.0
H543 H 0.12253 0.42576 0.28349 0.0
H544 H 0.24106 0.46685 0.32748 0.0
H545 H 0.22427 0.55153 0.30663 0.0
H546 H 0.16032 0.47799 0.29647 0.0
H547 H 0.20159 0.47102 0.35706 0.0
O548 O 0.09732 0.52195 0.37765 0.0
H549 H 0.16729 0.60807 0.34262 0.0
H550 H 0.09645 0.5634 0.41073 0.0
H551 H 0.26382 0.54812 0.27631 0.0
H552 H 0.09845 0.41041 0.38475 0.0
H553 H 0.27242 0.50554 0.28669 0.0
H554 H 0.09133 0.39156 0.32784 0.0
O555 O 0.20987 0.55683 0.36677 0.0
H556 H 0.1087 0.50271 0.48944 0.0
H557 H 0.16944 0.59777 0.43061 0.0
H558 H 0.1689 0.59769 0.49074 0.0
H559 H 0.13836 0.5499 0.52055 0.0
H560 H 0.1101 0.50375 0.42934 0.0
H561 H 0.08523 0.60458 0.40786 0.0
H562 H 0.11572 0.64827 0.37202 0.0
O563 O 0.18473 0.58042 0.38047 0.0
C564 C 0.15491 0.54264 0.30917 0.0
C565 C 0.14369 0.63103 0.35508 0.0
C566 C 0.10337 0.6056 0.39357 0.0
N567 N 0.13281 0.58355 0.37723 0.0
C568 C 0.1495 0.60737 0.35723 0.0
C569 C 0.10982 0.58234 0.39508 0.0
C570 C 0.12049 0.63011 0.37345 0.0
C571 C 0.13352 0.45476 0.3718 0.0
N572 N 0.15061 0.47338 0.34727 0.0
C573 C 0.11196 0.42507 0.36523 0.0
C574 C 0.10795 0.41452 0.33329 0.0
C575 C 0.12544 0.43369 0.30839 0.0
C576 C 0.14675 0.46325 0.31587 0.0
C577 C 0.23749 0.48547 0.32269 0.0
C578 C 0.22774 0.53282 0.31109 0.0
C579 C 0.21521 0.48797 0.3394 0.0
N580 N 0.21049 0.51135 0.33335 0.0
C581 C 0.25023 0.53106 0.29393 0.0
C582 C 0.25506 0.50718 0.2998 0.0
C583 C 0.2089 0.58013 0.37498 0.0
C584 C 0.12203 0.52368 0.47673 0.0
C585 C 0.15613 0.57689 0.44341 0.0
C586 C 0.15587 0.57699 0.47746 0.0
C587 C 0.13871 0.55017 0.49417 0.0
N588 N 0.1397 0.55081 0.42649 0.0
C589 C 0.12279 0.52444 0.4427 0.0
Co590 Co 0.66069 0.18191 0.69129 0.0
Co591 Co 0.59519 0.18072 0.71305 0.0
O592 O 0.62359 0.16629 0.71654 0.0
C593 C 0.67898 0.19684 0.76032 0.0
O594 O 0.6559 0.20084 0.76281 0.0
C595 C 0.5604 0.11756 0.69361 0.0
O596 O 0.58358 0.12239 0.67588 0.0
O597 O 0.59785 0.18156 0.66452 0.0
O598 O 0.63766 0.17724 0.64965 0.0
H599 H 0.55876 0.24876 0.67206 0.0
H600 H 0.64482 0.13253 0.73822 0.0
O601 O 0.68455 0.18836 0.73312 0.0
H602 H 0.64757 0.09134 0.63058 0.0
H603 H 0.76027 0.19168 0.66353 0.0
H604 H 0.68698 0.22285 0.63477 0.0
H605 H 0.65896 0.14367 0.636 0.0
H606 H 0.71329 0.17286 0.69471 0.0
O607 O 0.56123 0.13849 0.71086 0.0
H608 H 0.5941 0.2298 0.67662 0.0
H609 H 0.53503 0.16165 0.74163 0.0
H610 H 0.73353 0.24202 0.60277 0.0
H611 H 0.63351 0.08015 0.734 0.0
H612 H 0.77057 0.22643 0.61711 0.0
H613 H 0.63478 0.05923 0.67984 0.0
O614 O 0.66945 0.2238 0.69481 0.0
H615 H 0.58326 0.13454 0.82383 0.0
H616 H 0.59875 0.22396 0.76366 0.0
H617 H 0.59659 0.22366 0.82373 0.0
H618 H 0.58878 0.1787 0.85422 0.0
H619 H 0.58585 0.13591 0.76375 0.0
H620 H 0.49887 0.17964 0.73745 0.0
H621 H 0.51076 0.22363 0.70263 0.0
O622 O 0.62848 0.22287 0.71509 0.0
C623 C 0.61437 0.17918 0.64285 0.0
C624 C 0.55337 0.22963 0.68739 0.0
C625 C 0.51974 0.19082 0.72406 0.0
N626 N 0.56675 0.19483 0.70961 0.0
C627 C 0.57333 0.21886 0.69015 0.0
C628 C 0.54026 0.18068 0.72626 0.0
C629 C 0.52643 0.2155 0.70453 0.0
C630 C 0.64568 0.12364 0.71464 0.0
N631 N 0.65272 0.14113 0.68743 0.0
C632 C 0.63914 0.09394 0.71237 0.0
C633 C 0.63982 0.08221 0.68197 0.0
C634 C 0.64698 0.10021 0.65431 0.0
C635 C 0.65336 0.12979 0.65752 0.0
C636 C 0.74429 0.1986 0.65701 0.0
C637 C 0.7029 0.21582 0.64101 0.0
C638 C 0.71769 0.18806 0.67461 0.0
N639 N 0.69735 0.1966 0.6664 0.0
C640 C 0.72926 0.22682 0.62287 0.0
C641 C 0.75004 0.21809 0.63096 0.0
C642 C 0.65568 0.23666 0.70572 0.0
C643 C 0.58659 0.15423 0.81082 0.0
C644 C 0.59539 0.20434 0.77676 0.0
C645 C 0.59413 0.20427 0.81077 0.0
C646 C 0.58973 0.17903 0.82785 0.0
N647 N 0.59231 0.17992 0.76023 0.0
C648 C 0.58793 0.15508 0.7768 0.0
Co649 Co 0.46872 0.6597 0.02281 0.0
Co650 Co 0.43171 0.58425 0.0415 0.0
O651 O 0.46424 0.62522 0.04704 0.0
C652 C 0.46224 0.67212 0.09136 0.0
O653 O 0.4401 0.64436 0.09145 0.0
C654 C 0.48576 0.58041 0.02837 0.0
O655 O 0.49423 0.60301 1.00824 0.0
O656 O 0.43611 0.58741 0.99338 0.0
O657 O 0.45867 0.63642 0.98047 0.0
H658 H 0.33827 0.50138 0.9905 0.0
H659 H 0.51722 0.66695 0.06731 0.0
O660 O 0.47758 0.68291 0.06529 0.0
H661 H 0.56336 0.69421 0.95819 0.0
H662 H 0.5183 0.76972 0.99751 0.0
H663 H 0.43604 0.66905 0.96871 0.0
H664 H 0.51017 0.67909 0.96599 0.0
H665 H 0.51188 0.7251 0.02685 0.0
O666 O 0.46131 0.57017 0.04412 0.0
H667 H 0.37872 0.55357 0.99814 0.0
H668 H 0.41711 0.52634 0.0727 0.0
H669 H 0.44177 0.713 0.93855 0.0
H670 H 0.57056 0.68216 0.06068 0.0
H671 H 0.48313 0.76378 0.95293 0.0
H672 H 0.59393 0.69587 1.00578 0.0
O673 O 0.42577 0.647 0.02809 0.0
H674 H 0.4683 0.59693 0.15713 0.0
H675 H 0.37967 0.56315 0.08663 0.0
H676 H 0.37351 0.56068 0.1464 0.0
H677 H 0.41804 0.57765 0.18206 0.0
H678 H 0.47348 0.59926 0.09726 0.0
H679 H 0.37723 0.47377 0.06568 0.0
H680 H 0.33736 0.46103 0.02443 0.0
O681 O 0.40156 0.59749 0.03822 0.0
C682 C 0.44563 0.60862 0.97256 0.0
C683 C 0.3554 0.50666 1.0087 0.0
C684 C 0.37729 0.49117 0.05086 0.0
N685 N 0.39995 0.54307 0.03621 0.0
C686 C 0.37826 0.53621 1.01326 0.0
C687 C 0.39982 0.52096 0.05472 0.0
C688 C 0.35493 0.48403 0.02771 0.0
C689 C 0.52732 0.67313 0.0434 0.0
N690 N 0.5107 0.67233 1.0171 0.0
C691 C 0.55749 0.68161 0.03977 0.0
C692 C 0.57058 0.68926 1.00895 0.0
C693 C 0.55344 0.68832 0.98223 0.0
C694 C 0.52333 0.67969 0.98678 0.0
C695 C 0.50023 0.74771 0.99098 0.0
C696 C 0.45422 0.69106 0.97493 0.0
C697 C 0.49645 0.72238 1.00753 0.0
N698 N 0.47377 0.69451 0.99929 0.0
C699 C 0.4573 0.71587 0.95785 0.0
C700 C 0.48049 0.74436 0.96596 0.0
C701 C 0.40199 0.62205 0.03291 0.0
C702 C 0.44872 0.58939 0.14185 0.0
C703 C 0.39915 0.5706 0.102 0.0
C704 C 0.39552 0.5691 0.13582 0.0
C705 C 0.42051 0.57861 0.15582 0.0
N706 N 0.42689 0.58119 0.08849 0.0
C707 C 0.45149 0.59052 0.10794 0.0
H708 H 0.52873 0.19086 0.46346 0.0
H709 H 0.58924 0.16112 0.43085 0.0
H710 H 0.54483 0.19163 0.51956 0.0
H711 H 0.60428 0.16048 0.48674 0.0
H712 H 0.64787 0.18976 0.58685 0.0
H713 H 0.63211 0.18953 0.53066 0.0
H714 H 0.54285 0.16333 0.56444 0.0
H715 H 0.559 0.16498 0.62028 0.0
C716 C 0.54517 0.18411 0.46828 0.0
C717 C 0.55773 0.17608 0.4425 0.0
C718 C 0.55438 0.18439 0.50058 0.0
C719 C 0.57609 0.17621 0.50809 0.0
C720 C 0.58812 0.16762 0.4822 0.0
C721 C 0.57924 0.16775 0.44998 0.0
C722 C 0.62489 0.18392 0.58221 0.0
C723 C 0.60484 0.17759 0.60822 0.0
C724 C 0.61571 0.18362 0.54988 0.0
C725 C 0.58607 0.17652 0.54261 0.0
C726 C 0.56598 0.16963 0.56876 0.0
C727 C 0.57525 0.17035 0.60097 0.0
H728 H 0.4385 0.58347 0.7607 0.0
H729 H 0.34748 0.52764 0.79426 0.0
H730 H 0.45481 0.59927 0.8165 0.0
H731 H 0.36413 0.54337 0.85035 0.0
H732 H 0.41245 0.55209 0.94766 0.0
H733 H 0.39723 0.5372 0.89161 0.0
H734 H 0.44769 0.62956 0.8613 0.0
H735 H 0.46287 0.64486 0.91793 0.0
C736 C 0.42191 0.57438 0.77993 0.0
C737 C 0.39158 0.5541 0.77281 0.0
C738 C 0.43133 0.58369 0.81195 0.0
C739 C 0.41081 0.57266 0.83785 0.0
C740 C 0.38054 0.55214 0.83091 0.0
C741 C 0.37099 0.54314 0.79876 0.0
C742 C 0.42056 0.5694 0.92921 0.0
C743 C 0.43897 0.59982 0.93758 0.0
C744 C 0.41157 0.56076 0.897 0.0
C745 C 0.421 0.58216 0.87203 0.0
C746 C 0.4401 0.61251 0.88004 0.0
C747 C 0.44882 0.62128 0.91248 0.0
H748 H 0.79268 0.45621 0.25243 0.0
H749 H 0.82166 0.39506 0.28473 0.0
H750 H 0.79228 0.44051 0.19618 0.0
H751 H 0.82269 0.38044 0.22876 0.0
H752 H 0.79475 0.33799 0.12817 0.0
H753 H 0.7941 0.35314 0.18442 0.0
H754 H 0.82104 0.44278 0.15157 0.0
H755 H 0.82024 0.42722 0.09562 0.0
C756 C 0.79931 0.43969 0.24752 0.0
C757 C 0.80703 0.42684 0.27323 0.0
C758 C 0.79924 0.43071 0.21515 0.0
C759 C 0.80736 0.40897 0.20753 0.0
C760 C 0.8156 0.39663 0.23337 0.0
C761 C 0.81524 0.40526 0.26565 0.0
C762 C 0.80055 0.36091 0.13302 0.0
C763 C 0.80737 0.38125 0.10724 0.0
C764 C 0.80035 0.36975 0.1654 0.0
C765 C 0.80743 0.39932 0.17294 0.0
C766 C 0.81475 0.41969 0.14703 0.0
C767 C 0.81453 0.41076 0.11476 0.0
H768 H 0.44762 0.87779 0.44361 0.0
H769 H 0.43613 0.78999 0.46045 0.0
H770 H 0.43101 0.87855 0.4992 0.0
H771 H 0.419 0.79061 0.51609 0.0
H772 H 0.35286 0.79024 0.59506 0.0
H773 H 0.3719 0.79062 0.5402 0.0
H774 H 0.44777 0.87832 0.55823 0.0
H775 H 0.42912 0.87784 0.6131 0.0
C776 C 0.44197 0.85882 0.45936 0.0
C777 C 0.44334 0.83388 0.44763 0.0
C778 C 0.4324 0.85925 0.49118 0.0
C779 C 0.4234 0.83452 0.51189 0.0
C780 C 0.42549 0.80986 0.50053 0.0
C781 C 0.43566 0.80967 0.46883 0.0
C782 C 0.37339 0.80975 0.58719 0.0
C783 C 0.3894 0.83404 0.60848 0.0
C784 C 0.38447 0.80981 0.55591 0.0
C785 C 0.41147 0.8344 0.54503 0.0
C786 C 0.42692 0.85907 0.56591 0.0
C787 C 0.41618 0.85878 0.59733 0.0
H788 H 0.59263 0.42543 0.95307 0.0
H789 H 0.53067 0.33552 0.92089 0.0
H790 H 0.60738 0.44086 0.89708 0.0
H791 H 0.5465 0.35054 0.86465 0.0
H792 H 0.56038 0.39132 0.76393 0.0
H793 H 0.54468 0.37694 0.81989 0.0
H794 H 0.63447 0.43923 0.85276 0.0
H795 H 0.64977 0.45469 0.79645 0.0
C796 C 0.58227 0.40881 0.934 0.0
C797 C 0.56042 0.37914 0.94163 0.0
C798 C 0.59098 0.41766 0.90171 0.0
C799 C 0.57845 0.39706 0.8759 0.0
C800 C 0.55644 0.36733 0.88357 0.0
C801 C 0.54738 0.35857 0.91594 0.0
C802 C 0.57685 0.40205 0.78307 0.0
C803 C 0.60644 0.42418 0.77554 0.0
C804 C 0.56783 0.39357 0.81536 0.0
C805 C 0.5882 0.4066 0.84129 0.0
C806 C 0.61786 0.42888 0.83373 0.0
C807 C 0.62678 0.43772 0.80133 0.0
H808 H 0.17083 0.52429 0.25316 0.0
H809 H 0.13666 0.58098 0.28687 0.0
H810 H 0.1705 0.54052 0.19714 0.0
H811 H 0.13657 0.59711 0.23123 0.0
H812 H 0.17367 0.64376 0.13149 0.0
H813 H 0.17367 0.62745 0.18753 0.0
H814 H 0.13297 0.53578 0.15489 0.0
H815 H 0.13271 0.55177 0.09922 0.0
C816 C 0.16314 0.54006 0.24871 0.0
C817 C 0.15368 0.55116 0.2747 0.0
C818 C 0.16291 0.54933 0.21659 0.0
C819 C 0.15362 0.57023 0.20973 0.0
C820 C 0.14418 0.58129 0.23567 0.0
C821 C 0.14404 0.57178 0.26763 0.0
C822 C 0.16452 0.62011 0.13626 0.0
C823 C 0.15313 0.59917 0.11066 0.0
C824 C 0.1645 0.61075 0.16841 0.0
C825 C 0.15346 0.5803 0.17566 0.0
C826 C 0.14198 0.55941 0.15012 0.0
C827 C 0.14164 0.56866 0.11815 0.0
H828 H 0.71414 0.37431 0.41569 0.0
H829 H 0.71077 0.41864 0.32777 0.0
H830 H 0.66163 0.33638 0.40834 0.0
H831 H 0.65834 0.38005 0.31996 0.0
H832 H 0.56587 0.27292 0.38978 0.0
H833 H 0.60415 0.32542 0.3979 0.0
H834 H 0.64832 0.32293 0.30949 0.0
H835 H 0.61072 0.27037 0.30184 0.0
C836 C 0.70186 0.37636 0.39536 0.0
C837 C 0.7164 0.39896 0.37202 0.0
C838 C 0.67183 0.35492 0.39135 0.0
C839 C 0.65623 0.3555 0.36358 0.0
C840 C 0.67004 0.37945 0.34163 0.0
C841 C 0.69993 0.40136 0.34608 0.0
C842 C 0.58322 0.28394 0.37155 0.0
C843 C 0.58583 0.26771 0.34549 0.0
C844 C 0.60494 0.31387 0.37618 0.0
C845 C 0.6289 0.32794 0.35426 0.0
C846 C 0.62975 0.31253 0.32645 0.0
C847 C 0.60851 0.28246 0.32226 0.0
H848 H 0.32578 0.72174 0.72468 0.0
H849 H 0.41402 0.7724 0.68231 0.0
H850 H 0.32665 0.67556 0.71539 0.0
H851 H 0.41427 0.72631 0.67106 0.0
H852 H 0.32095 0.59609 0.66516 0.0
H853 H 0.32242 0.64356 0.67291 0.0
H854 H 0.41745 0.68654 0.69294 0.0
H855 H 0.41622 0.6396 0.68303 0.0
C856 C 0.34538 0.72293 0.71343 0.0
C857 C 0.36985 0.75056 0.70427 0.0
C858 C 0.34575 0.69649 0.70768 0.0
C859 C 0.37032 0.6971 0.69195 0.0
C860 C 0.39512 0.72493 0.68355 0.0
C861 C 0.395 0.75141 0.68998 0.0
C862 C 0.34221 0.61584 0.6707 0.0
C863 C 0.36842 0.61411 0.6737 0.0
C864 C 0.34302 0.64298 0.67556 0.0
C865 C 0.36995 0.66882 0.68422 0.0
C866 C 0.39635 0.66723 0.68604 0.0
C867 C 0.39565 0.64023 0.68046 0.0
H868 H 0.61123 0.3353 0.08267 0.0
H869 H 0.56612 0.29011 0.99396 0.0
H870 H 0.64869 0.32036 0.0736 0.0
H871 H 0.60429 0.27596 0.98439 0.0
H872 H 0.71403 0.33969 0.96612 0.0
H873 H 0.66118 0.32333 0.97428 0.0
H874 H 0.65989 0.27456 0.06035 0.0
H875 H 0.71266 0.2902 0.05172 0.0
C876 C 0.60887 0.32137 0.06182 0.0
C877 C 0.58625 0.3142 0.03874 0.0
C878 C 0.63004 0.31256 0.0568 0.0
C879 C 0.62919 0.2971 0.02828 0.0
C880 C 0.6051 0.28768 1.00663 0.0
C881 C 0.58343 0.29586 1.01209 0.0
C882 C 0.70216 0.32461 0.98608 0.0
C883 C 0.71735 0.31659 1.00862 0.0
C884 C 0.67191 0.31497 0.99053 0.0
C885 C 0.65675 0.29776 1.01795 0.0
C886 C 0.67124 0.28764 0.03894 0.0
C887 C 0.70136 0.2967 0.03404 0.0
H888 H 0.39016 0.718 0.33493 0.0
H889 H 0.35165 0.76611 0.3815 0.0
H890 H 0.34318 0.67122 0.34218 0.0
H891 H 0.30543 0.7194 0.39072 0.0
H892 H 0.21675 0.63614 0.36898 0.0
H893 H 0.26362 0.68277 0.36397 0.0
H894 H 0.3123 0.63571 0.38063 0.0
H895 H 0.2651 0.5886 0.38348 0.0
C896 C 0.37165 0.71846 0.34692 0.0
C897 C 0.37434 0.74558 0.3574 0.0
C898 C 0.34485 0.69167 0.35142 0.0
C899 C 0.32047 0.69146 0.36716 0.0
C900 C 0.32345 0.71872 0.3779 0.0
C901 C 0.34998 0.74552 0.37271 0.0
C902 C 0.23744 0.63575 0.37179 0.0
C903 C 0.23729 0.60871 0.3763 0.0
C904 C 0.2644 0.66258 0.36912 0.0
C905 C 0.29184 0.66306 0.37168 0.0
C906 C 0.29162 0.63609 0.37769 0.0
C907 C 0.2646 0.60913 0.37965 0.0
H908 H 0.65036 0.37441 0.63298 0.0
H909 H 0.69703 0.42 0.72089 0.0
H910 H 0.66634 0.33764 0.64085 0.0
H911 H 0.71231 0.38255 0.72924 0.0
H912 H 0.69612 0.27349 0.66093 0.0
H913 H 0.71185 0.32628 0.65228 0.0
H914 H 0.66608 0.32607 0.74055 0.0
H915 H 0.64966 0.27326 0.74872 0.0
C916 C 0.66483 0.37704 0.65338 0.0
C917 C 0.67206 0.39953 0.67666 0.0
C918 C 0.67426 0.35627 0.65769 0.0
C919 C 0.69044 0.35741 0.6857 0.0
C920 C 0.70001 0.3815 0.7074 0.0
C921 C 0.69117 0.40274 0.70266 0.0
C922 C 0.69035 0.28506 0.67904 0.0
C923 C 0.67123 0.26941 0.70513 0.0
C924 C 0.69946 0.31518 0.67414 0.0
C925 C 0.69015 0.32998 0.69577 0.0
C926 C 0.67382 0.31513 0.72378 0.0
C927 C 0.66412 0.2849 0.72825 0.0
H928 H 0.21543 0.57532 0.02465 0.0
H929 H 0.26484 0.66864 0.99726 0.0
H930 H 0.26192 0.57485 0.03095 0.0
H931 H 0.31153 0.6678 1.00134 0.0
H932 H 0.34849 0.57556 1.01357 0.0
H933 H 0.30203 0.57569 1.00494 0.0
H934 H 0.34381 0.6669 0.04039 0.0
H935 H 0.39092 0.66724 0.04682 0.0
C936 C 0.23625 0.59557 1.01925 0.0
C937 C 0.23659 0.62206 1.0107 0.0
C938 C 0.26298 0.5953 0.02271 0.0
C939 C 0.2906 0.62136 1.01689 0.0
C940 C 0.29076 0.64754 1.0069 0.0
C941 C 0.26403 0.64797 1.0042 0.0
C942 C 0.34767 0.59556 1.01964 0.0
C943 C 0.37325 0.6214 0.0308 0.0
C944 C 0.32098 0.59564 1.01482 0.0
C945 C 0.31909 0.62134 0.02185 0.0
C946 C 0.34459 0.64695 0.03391 0.0
C947 C 0.3715 0.64708 0.03796 0.0
H948 H 0.51201 0.07037 0.40219 0.0
H949 H 0.55824 0.09007 0.30967 0.0
H950 H 0.5051 0.01992 0.4007 0.0
H951 H 0.55078 0.03931 0.30805 0.0
H952 H 0.48205 0.93324 0.30461 0.0
H953 H 0.50019 0.987 0.30474 0.0
H954 H 0.53931 -0.0054 0.39977 0.0
H955 H 0.52164 0.9408 0.39948 0.0
C956 C 0.52073 0.06392 0.3816 0.0
C957 C 0.53551 0.08401 0.35597 0.0
C958 C 0.51702 0.03522 0.38092 0.0
C959 C 0.52759 0.02598 0.35435 0.0
C960 C 0.54254 0.04607 0.3288 0.0
C961 C 0.54676 0.075 0.32976 0.0
C962 C 0.4951 0.94653 0.3252 0.0
C963 C 0.50035 0.93295 0.35211 0.0
C964 C 0.50554 0.97722 0.3252 0.0
C965 C 0.52091 -0.0053 0.35235 0.0
C966 C 0.52736 0.98142 0.37865 0.0
C967 C 0.51742 0.95077 0.37838 0.0
H968 H 0.4371 0.49383 0.63703 0.0
H969 H 0.4108 0.46717 0.73696 0.0
H970 H 0.46986 0.47239 0.63904 0.0
H971 H 0.44404 0.44599 0.73905 0.0
H972 H 0.54581 0.4688 0.73651 0.0
H973 H 0.50242 0.47588 0.73578 0.0
H974 H 0.47068 0.42296 0.64794 0.0
H975 H 0.51401 0.41554 0.64873 0.0
C976 C 0.43792 0.48286 0.65921 0.0
C977 C 0.4217 0.48236 0.68695 0.0
C978 C 0.4565 0.47045 0.66029 0.0
C979 C 0.45951 0.45775 0.68925 0.0
C980 C 0.44211 0.45582 0.7165 0.0
C981 C 0.42306 0.46779 0.71525 0.0
C982 C 0.52943 0.45842 0.71722 0.0
C983 C 0.5334 0.44188 0.6925 0.0
C984 C 0.50447 0.46221 0.71702 0.0
C985 C 0.48327 0.44986 0.69186 0.0
C986 C 0.48679 0.43267 0.66758 0.0
C987 C 0.51154 0.42848 0.66805 0.0
H988 H 0.8926 0.47367 0.98146 0.0
H989 H 0.91277 0.44051 0.06903 0.0
H990 H 0.9432 0.51717 0.98203 0.0
H991 H 0.96309 0.48407 0.06964 0.0
H992 H 0.04809 0.55255 0.97327 0.0
H993 H -0.006 0.51904 0.97392 0.0
H994 H 0.99089 0.54229 0.07442 0.0
H995 H 0.04522 0.5763 0.0737 0.0
C996 C 0.9077 0.47585 1.001 0.0
C997 C 0.89891 0.45358 0.02502 0.0
C998 C 0.93656 0.50071 1.00131 0.0
C999 C 0.95686 0.50394 0.02595 0.0
C1000 C 0.94768 0.48225 0.05062 0.0
C1001 C 0.91903 0.45719 0.05005 0.0
C1002 C 0.03575 0.55101 0.99529 0.0
C1003 C 0.05075 0.56675 0.02353 0.0
C1004 C 0.00483 0.53199 0.99558 0.0
C1005 C 0.98844 0.52804 0.02428 0.0
C1006 C 0.00318 0.54494 0.05207 0.0
C1007 C 0.03413 0.56444 0.0516 0.0
H1008 H 0.04552 0.4701 0.3084 0.0
H1009 H 0.04741 0.49377 0.40977 0.0
H1010 H -0.00851 0.4516 0.30679 0.0
H1011 H -0.00636 0.47502 0.40823 0.0
H1012 H 0.8923 0.42021 0.39879 0.0
H1013 H 0.94275 0.42702 0.39849 0.0
H1014 H 0.96424 0.48257 0.31274 0.0
H1015 H 0.91394 0.47604 0.31305 0.0
C1016 C 0.03425 0.47063 0.33048 0.0
C1017 C 0.05053 0.48352 0.35914 0.0
C1018 C 0.00349 0.46025 0.3295 0.0
C1019 C 0.98859 0.46208 0.35734 0.0
C1020 C 0.00459 0.4732 0.3865 0.0
C1021 C 0.03534 0.48404 0.38733 0.0
C1022 C 0.90772 0.4337 0.37973 0.0
C1023 C 0.89932 0.44785 0.35611 0.0
C1024 C 0.93651 0.43753 0.37958 0.0
C1025 C 0.95719 0.45518 0.35552 0.0
C1026 C 0.94851 0.46854 0.3313 0.0
C1027 C 0.91987 0.46506 0.3317 0.0
H1028 H 0.54433 0.07339 0.6486 0.0
H1029 H 0.5156 0.09441 0.73892 0.0
H1030 H 0.50096 0.02296 0.65008 0.0
H1031 H 0.47232 0.04363 0.74051 0.0
H1032 H 0.43807 0.93843 0.74816 0.0
H1033 H 0.47131 0.99259 0.74699 0.0
H1034 H 0.44222 -0.00444 0.64909 0.0
H1035 H 0.4085 0.94126 0.65034 0.0
C1036 C 0.52865 0.06727 0.66865 0.0
C1037 C 0.53342 0.08768 0.69378 0.0
C1038 C 0.50371 0.03856 0.6693 0.0
C1039 C 0.48334 0.0296 0.69532 0.0
C1040 C 0.48775 0.05014 0.72017 0.0
C1041 C 0.51246 0.07908 0.71925 0.0
C1042 C 0.43826 0.95075 0.72668 0.0
C1043 C 0.42097 0.93573 0.69923 0.0
C1044 C 0.45713 0.98171 0.7261 0.0
C1045 C 0.45937 -0.00195 0.69788 0.0
C1046 C 0.4409 0.98329 0.67105 0.0
C1047 C 0.42157 0.95234 0.67185 0.0
H1048 H 0.52184 0.57713 0.98183 0.0
H1049 H 0.48642 0.54644 0.0785 0.0
H1050 H 0.54188 0.54291 0.98126 0.0
H1051 H 0.50685 0.51274 0.07805 0.0
H1052 H 0.51694 0.44041 0.98075 0.0
H1053 H 0.50983 0.48379 0.98172 0.0
H1054 H 0.55753 0.51209 0.07307 0.0
H1055 H 0.56513 0.46885 0.07199 0.0
C1056 C 0.51904 0.56367 1.00323 0.0
C1057 C 0.50238 0.56414 0.03009 0.0
C1058 C 0.53037 0.54407 1.00283 0.0
C1059 C 0.52573 0.52522 0.02956 0.0
C1060 C 0.51085 0.52722 0.05726 0.0
C1061 C 0.49906 0.54635 0.05742 0.0
C1062 C 0.52614 0.45602 1.0009 0.0
C1063 C 0.54137 0.4512 0.02642 0.0
C1064 C 0.52233 0.48096 1.00126 0.0
C1065 C 0.53328 0.50122 0.02739 0.0
C1066 C 0.54897 0.49673 0.05266 0.0
C1067 C 0.55326 0.47205 0.05201 0.0
H1068 H 0.51001 0.18672 0.2272 0.0
H1069 H 0.47147 0.22609 0.28945 0.0
H1070 H 0.50059 0.20908 0.17955 0.0
H1071 H 0.46254 0.2492 0.2415 0.0
H1072 H 0.51292 0.32299 0.1577 0.0
H1073 H 0.50259 0.2911 0.20543 0.0
H1074 H 0.46138 0.2128 0.14382 0.0
H1075 H 0.47126 0.24497 0.09579 0.0
C1076 C 0.49876 0.19954 0.23055 0.0
C1077 C 0.49145 0.20465 0.26203 0.0
C1078 C 0.49326 0.21227 0.20321 0.0
C1079 C 0.4809 0.231 0.2067 0.0
C1080 C 0.47212 0.23488 0.23805 0.0
C1081 C 0.47703 0.22152 0.26546 0.0
C1082 C 0.50082 0.2989 0.15444 0.0
C1083 C 0.4929 0.28645 0.12303 0.0
C1084 C 0.49479 0.28062 0.18184 0.0
C1085 C 0.48124 0.24941 0.17845 0.0
C1086 C 0.47188 0.23679 0.14718 0.0
C1087 C 0.47734 0.25514 0.11973 0.0
H1088 H 0.23021 0.48871 0.42756 0.0
H1089 H 0.18731 0.52344 0.49023 0.0
H1090 H 0.25617 0.48335 0.47497 0.0
H1091 H 0.21306 0.51811 0.53724 0.0
H1092 H 0.25154 0.49061 0.62055 0.0
H1093 H 0.21928 0.48267 0.57328 0.0
H1094 H 0.29692 0.52109 0.51049 0.0
H1095 H 0.32896 0.52898 0.5574 0.0
C1096 C 0.22588 0.49464 0.45148 0.0
C1097 C 0.20691 0.50673 0.45509 0.0
C1098 C 0.24086 0.49174 0.4786 0.0
C1099 C 0.2368 0.50043 0.50991 0.0
C1100 C 0.21653 0.51095 0.51362 0.0
C1101 C 0.20192 0.51421 0.48656 0.0
C1102 C 0.26161 0.49689 0.59657 0.0
C1103 C 0.29283 0.51069 0.59279 0.0
C1104 C 0.24317 0.49247 0.56952 0.0
C1105 C 0.25553 0.50134 0.53809 0.0
C1106 C 0.2866 0.51373 0.53423 0.0
C1107 C 0.305 0.51848 0.56123 0.0
H1108 H 0.79911 0.32446 0.89066 0.0
H1109 H 0.76205 0.24737 0.95397 0.0
H1110 H 0.77644 0.29195 0.84356 0.0
H1111 H 0.73865 0.21462 0.90659 0.0
H1112 H 0.74049 0.22551 0.76077 0.0
H1113 H 0.7732 0.24907 0.80815 0.0
H1114 H 0.69575 0.21118 0.87114 0.0
H1115 H 0.66332 0.18837 0.82403 0.0
C1116 C 0.78672 0.30043 0.89437 0.0
C1117 C 0.78235 0.28845 0.926 0.0
C1118 C 0.77382 0.28179 0.86733 0.0
C1119 C 0.75565 0.25069 0.87129 0.0
C1120 C 0.75252 0.23851 0.90278 0.0
C1121 C 0.76605 0.2572 0.92986 0.0
C1122 C 0.73064 0.22152 0.78488 0.0
C1123 C 0.69939 0.20514 0.78873 0.0
C1124 C 0.7493 0.23514 0.81196 0.0
C1125 C 0.73706 0.23203 0.84343 0.0
C1126 C 0.70596 0.21379 0.84738 0.0
C1127 C 0.68735 0.20079 0.82034 0.0
H1128 H 0.4297 0.65525 0.14737 0.0
H1129 H 0.50622 0.73085 0.103 0.0
H1130 H 0.43455 0.68564 0.1948 0.0
H1131 H 0.5112 0.76126 0.15154 0.0
H1132 H 0.50741 0.77263 0.27751 0.0
H1133 H 0.51235 0.74778 0.22845 0.0
H1134 H 0.4335 0.74402 0.18772 0.0
H1135 H 0.42865 0.76901 0.23572 0.0
C1136 C 0.44783 0.67826 0.1478 0.0
C1137 C 0.46745 0.69064 0.1211 0.0
C1138 C 0.45059 0.69559 0.17511 0.0
C1139 C 0.47326 0.72564 0.17678 0.0
C1140 C 0.49366 0.738 0.15081 0.0
C1141 C 0.49071 0.72065 0.12307 0.0
C1142 C 0.49142 0.7669 0.25786 0.0
C1143 C 0.46751 0.77264 0.26075 0.0
C1144 C 0.49435 0.75284 0.22982 0.0
C1145 C 0.47332 0.74417 0.20443 0.0
C1146 C 0.45004 0.75065 0.20694 0.0
C1147 C 0.44728 0.76488 0.23458 0.0
H1148 H 0.73967 0.51326 0.62097 0.0
H1149 H 0.66169 0.47232 0.55897 0.0
H1150 H 0.77185 0.52287 0.57298 0.0
H1151 H 0.6936 0.48239 0.51127 0.0
H1152 H 0.75883 0.51315 0.42733 0.0
H1153 H 0.73568 0.5221 0.47525 0.0
H1154 H 0.77535 0.48365 0.53719 0.0
H1155 H 0.79778 0.47423 0.48956 0.0
C1156 C 0.72951 0.50729 0.59702 0.0
C1157 C 0.6982 0.49202 0.59369 0.0
C1158 C 0.74788 0.51259 0.56959 0.0
C1159 C 0.73527 0.50335 0.53829 0.0
C1160 C 0.70408 0.49009 0.53488 0.0
C1161 C 0.68577 0.48422 0.56226 0.0
C1162 C 0.76328 0.50747 0.45131 0.0
C1163 C 0.78005 0.49295 0.45472 0.0
C1164 C 0.7499 0.51241 0.47871 0.0
C1165 C 0.75365 0.50354 0.51005 0.0
C1166 C 0.77226 0.49105 0.51353 0.0
C1167 C 0.78502 0.48554 0.4862 0.0
H1168 H 0.18922 0.65949 0.89462 0.0
H1169 H 0.23279 0.73721 0.95697 0.0
H1170 H 0.21485 0.69037 0.84741 0.0
H1171 H 0.25869 0.7683 0.90939 0.0
H1172 H 0.33065 0.79481 0.82586 0.0
H1173 H 0.29913 0.77073 0.87318 0.0
H1174 H 0.2207 0.73235 0.81166 0.0
H1175 H 0.2524 0.75662 0.764 0.0
C1176 C 0.20398 0.68331 0.89818 0.0
C1177 C 0.20914 0.69587 0.9296 0.0
C1178 C 0.21852 0.70105 0.87102 0.0
C1179 C 0.23891 0.7318 0.87459 0.0
C1180 C 0.24325 0.74463 0.90587 0.0
C1181 C 0.22832 0.72689 0.93308 0.0
C1182 C 0.30663 0.78156 0.82241 0.0
C1183 C 0.29406 0.77743 0.79108 0.0
C1184 C 0.28853 0.76794 0.84964 0.0
C1185 C 0.25739 0.74952 0.84623 0.0
C1186 C 0.24465 0.74624 0.81506 0.0
C1187 C 0.26277 0.76024 0.78779 0.0
loop_
_geom_bond_atom_site_label_1
_geom_bond_atom_site_label_2
_geom_bond_distance
_geom_bond_site_symmetry_2
_ccdc_geom_bond_type
Co0 O2 2.143 . S
Co0 O8 2.074 . S
Co0 O11 2.093 . S
Co0 O24 2.097 . S
Co0 N41 2.151 . S
Co0 N49 2.214 . S
Co1 O2 2.160 . S
Co1 O7 2.058 . S
Co1 O17 2.057 . S
Co1 O32 2.037 . S
Co1 N36 2.145 . S
Co1 N57 2.257 . S
O2 Co0 2.143 . S
O2 Co1 2.160 . S
C3 O4 1.278 . S
C3 O11 1.224 . S
O4 C3 1.278 . S
C5 O6 1.245 . S
C5 O17 1.232 . S
O6 C5 1.245 . S
O7 Co1 2.058 . S
O7 C33 1.269 . S
O8 Co0 2.074 . S
O8 C33 1.257 . S
H9 C34 0.930 . S
H10 C40 0.930 . S
O11 Co0 2.093 . S
O11 C3 1.224 . S
H12 C44 0.929 . S
H13 C46 0.930 . S
H14 C47 0.930 . S
H15 C45 0.929 . S
H16 C48 0.928 . S
O17 Co1 2.057 . S
O17 C5 1.232 . S
H18 C37 0.929 . S
H19 C38 0.929 . S
H20 C50 0.931 . S
H21 C42 0.929 . S
H22 C51 0.930 . S
H23 C43 0.931 . S
O24 Co0 2.097 . S
O24 C52 1.214 . S
H25 C53 0.929 . S
H26 C54 0.929 . S
H27 C55 0.930 . S
H28 C56 0.929 . S
H29 C58 0.930 . S
H30 C35 0.930 . S
H31 C39 0.930 . S
O32 Co1 2.037 . S
O32 C52 1.234 . S
C33 O7 1.269 . S
C33 O8 1.257 . S
C34 H9 0.930 . S
C34 C37 1.388 . S
C34 C39 1.418 . S
C35 H30 0.930 . S
C35 C38 1.404 . S
C35 C39 1.353 . S
N36 Co1 2.145 . S
N36 C37 1.397 . S
N36 C38 1.334 . S
C37 H18 0.929 . S
C37 C34 1.388 . S
C37 N36 1.397 . S
C38 H19 0.929 . S
C38 C35 1.404 . S
C38 N36 1.334 . S
C39 H31 0.930 . S
C39 C34 1.418 . S
C39 C35 1.353 . S
C40 H10 0.930 . S
C40 N41 1.330 . S
C40 C42 1.446 . S
N41 Co0 2.151 . S
N41 C40 1.330 . S
N41 C45 1.418 . S
C42 H21 0.929 . S
C42 C40 1.446 . S
C42 C43 1.332 . S
C43 H23 0.931 . S
C43 C42 1.332 . S
C43 C44 1.267 . S
C44 H12 0.929 . S
C44 C43 1.267 . S
C44 C45 1.251 . S
C45 H15 0.929 . S
C45 N41 1.418 . S
C45 C44 1.251 . S
C46 H13 0.930 . S
C46 C48 1.406 . S
C46 C51 1.261 . S
C47 H14 0.930 . S
C47 N49 1.325 . S
C47 C50 1.357 . S
C48 H16 0.928 . S
C48 C46 1.406 . S
C48 N49 1.261 . S
N49 Co0 2.214 . S
N49 C47 1.325 . S
N49 C48 1.261 . S
C50 H20 0.931 . S
C50 C47 1.357 . S
C50 C51 1.312 . S
C51 H22 0.930 . S
C51 C46 1.261 . S
C51 C50 1.312 . S
C52 O24 1.214 . S
C52 O32 1.234 . S
C53 H25 0.929 . S
C53 C56 1.391 . S
C53 C58 1.391 . S
C54 H26 0.929 . S
C54 C55 1.390 . S
C54 N57 1.391 . S
C55 H27 0.930 . S
C55 C54 1.390 . S
C55 C56 1.392 . S
C56 H28 0.929 . S
C56 C53 1.391 . S
C56 C55 1.392 . S
N57 Co1 2.257 . S
N57 C54 1.391 . S
N57 C58 1.388 . S
C58 H29 0.930 . S
C58 C53 1.391 . S
C58 N57 1.388 . S
Co59 O61 2.143 . S
Co59 O67 2.074 . S
Co59 O70 2.093 . S
Co59 O83 2.097 . S
Co59 N100 2.151 . S
Co59 N108 2.214 . S
Co60 O61 2.160 . S
Co60 O66 2.058 . S
Co60 O76 2.057 . S
Co60 O91 2.037 . S
Co60 N95 2.145 . S
Co60 N116 2.257 . S
O61 Co59 2.143 . S
O61 Co60 2.160 . S
C62 O63 1.278 . S
C62 O70 1.224 . S
O63 C62 1.278 . S
C64 O65 1.245 . S
C64 O76 1.232 . S
O65 C64 1.245 . S
O66 Co60 2.058 . S
O66 C92 1.269 . S
O67 Co59 2.074 . S
O67 C92 1.257 . S
H68 C93 0.930 . S
H69 C99 0.930 . S
O70 Co59 2.093 . S
O70 C62 1.224 . S
H71 C103 0.929 . S
H72 C105 0.930 . S
H73 C106 0.930 . S
H74 C104 0.929 . S
H75 C107 0.928 . S
O76 Co60 2.057 . S
O76 C64 1.232 . S
H77 C96 0.929 . S
H78 C97 0.929 . S
H79 C109 0.931 . S
H80 C101 0.929 . S
H81 C110 0.930 . S
H82 C102 0.931 . S
O83 Co59 2.097 . S
O83 C111 1.214 . S
H84 C112 0.929 . S
H85 C113 0.929 . S
H86 C114 0.930 . S
H87 C115 0.929 . S
H88 C117 0.930 . S
H89 C94 0.930 . S
H90 C98 0.930 . S
O91 Co60 2.037 . S
O91 C111 1.234 . S
C92 O66 1.269 . S
C92 O67 1.257 . S
C93 H68 0.930 . S
C93 C96 1.388 . S
C93 C98 1.418 . S
C94 H89 0.930 . S
C94 C97 1.404 . S
C94 C98 1.353 . S
N95 Co60 2.145 . S
N95 C96 1.397 . S
N95 C97 1.334 . S
C96 H77 0.929 . S
C96 C93 1.388 . S
C96 N95 1.397 . S
C97 H78 0.929 . S
C97 C94 1.404 . S
C97 N95 1.334 . S
C98 H90 0.930 . S
C98 C93 1.418 . S
C98 C94 1.353 . S
C99 H69 0.930 . S
C99 N100 1.330 . S
C99 C101 1.446 . S
N100 Co59 2.151 . S
N100 C99 1.330 . S
N100 C104 1.418 . S
C101 H80 0.929 . S
C101 C99 1.446 . S
C101 C102 1.332 . S
C102 H82 0.931 . S
C102 C101 1.332 . S
C102 C103 1.267 . S
C103 H71 0.929 . S
C103 C102 1.267 . S
C103 C104 1.251 . S
C104 H74 0.929 . S
C104 N100 1.418 . S
C104 C103 1.251 . S
C105 H72 0.930 . S
C105 C107 1.406 . S
C105 C110 1.261 . S
C106 H73 0.930 . S
C106 N108 1.325 . S
C106 C109 1.357 . S
C107 H75 0.928 . S
C107 C105 1.406 . S
C107 N108 1.261 . S
N108 Co59 2.214 . S
N108 C106 1.325 . S
N108 C107 1.261 . S
C109 H79 0.931 . S
C109 C106 1.357 . S
C109 C110 1.312 . S
C110 H81 0.930 . S
C110 C105 1.261 . S
C110 C109 1.312 . S
C111 O83 1.214 . S
C111 O91 1.234 . S
C112 H84 0.929 . S
C112 C115 1.391 . S
C112 C117 1.391 . S
C113 H85 0.929 . S
C113 C114 1.390 . S
C113 N116 1.391 . S
C114 H86 0.930 . S
C114 C113 1.390 . S
C114 C115 1.392 . S
C115 H87 0.929 . S
C115 C112 1.391 . S
C115 C114 1.392 . S
N116 Co60 2.257 . S
N116 C113 1.391 . S
N116 C117 1.388 . S
C117 H88 0.930 . S
C117 C112 1.391 . S
C117 N116 1.388 . S
Co118 O120 2.133 1_554 S
Co118 O126 2.100 . S
Co118 O129 2.067 1_554 S
Co118 O142 2.091 1_554 S
Co118 N159 2.157 . S
Co118 N167 2.225 . S
Co119 O120 2.160 1_554 S
Co119 O125 2.058 . S
Co119 O135 2.057 1_554 S
Co119 O150 2.037 . S
Co119 N154 2.145 . S
Co119 N175 2.257 1_554 S
O120 Co118 2.133 1_556 S
O120 Co119 2.160 1_556 S
C121 O122 1.278 . S
C121 O129 1.224 . S
O122 C121 1.278 . S
C123 O124 1.245 . S
C123 O135 1.232 . S
O124 C123 1.245 . S
O125 Co119 2.058 . S
O125 C151 1.269 . S
O126 Co118 2.100 . S
O126 C151 1.257 . S
H127 C152 0.930 . S
H128 C158 0.930 . S
O129 Co118 2.067 1_556 S
O129 C121 1.224 . S
H130 C162 0.929 . S
H131 C164 0.930 . S
H132 C165 0.930 . S
H133 C163 0.929 . S
H134 C166 0.951 . S
O135 Co119 2.057 1_556 S
O135 C123 1.232 . S
H136 C155 0.929 . S
H137 C156 0.910 1_556 S
H138 C168 0.931 . S
H139 C160 0.929 . S
H140 C169 0.930 . S
H141 C161 0.931 . S
O142 Co118 2.091 1_556 S
O142 C170 1.214 . S
H143 C171 0.929 . S
H144 C172 0.929 . S
H145 C173 0.930 . S
H146 C174 0.929 . S
H147 C176 0.930 . S
H148 C153 0.930 . S
H149 C157 0.930 . S
O150 Co119 2.037 . S
O150 C170 1.234 1_554 S
C151 O125 1.269 . S
C151 O126 1.257 . S
C152 H127 0.930 . S
C152 C155 1.388 . S
C152 C157 1.418 . S
C153 H148 0.930 . S
C153 C156 1.404 . S
C153 C157 1.353 . S
N154 Co119 2.145 . S
N154 C155 1.397 . S
N154 C156 1.334 . S
C155 H136 0.929 . S
C155 C152 1.388 . S
C155 N154 1.397 . S
C156 H137 0.910 1_554 S
C156 C153 1.404 . S
C156 N154 1.334 . S
C157 H149 0.930 . S
C157 C152 1.418 . S
C157 C153 1.353 . S
C158 H128 0.930 . S
C158 N159 1.330 1_556 S
C158 C160 1.446 . S
N159 Co118 2.157 . S
N159 C158 1.330 1_554 S
N159 C163 1.418 . S
C160 H139 0.929 . S
C160 C158 1.446 . S
C160 C161 1.332 1_556 S
C161 H141 0.931 . S
C161 C160 1.332 1_554 S
C161 C162 1.267 . S
C162 H130 0.929 . S
C162 C161 1.267 . S
C162 C163 1.251 . S
C163 H133 0.929 . S
C163 N159 1.418 . S
C163 C162 1.251 . S
C164 H131 0.930 . S
C164 C166 1.406 . S
C164 C169 1.261 . S
C165 H132 0.930 . S
C165 N167 1.325 . S
C165 C168 1.357 . S
C166 H134 0.951 . S
C166 C164 1.406 . S
C166 N167 1.261 . S
N167 Co118 2.225 . S
N167 C165 1.325 . S
N167 C166 1.261 . S
C168 H138 0.931 . S
C168 C165 1.357 . S
C168 C169 1.312 . S
C169 H140 0.930 . S
C169 C164 1.261 . S
C169 C168 1.312 . S
C170 O142 1.214 . S
C170 O150 1.234 1_556 S
C171 H143 0.929 . S
C171 C174 1.391 . S
C171 C176 1.391 . S
C172 H144 0.929 . S
C172 C173 1.390 . S
C172 N175 1.391 . S
C173 H145 0.930 . S
C173 C172 1.390 . S
C173 C174 1.392 . S
C174 H146 0.929 . S
C174 C171 1.391 . S
C174 C173 1.392 . S
N175 Co119 2.257 1_556 S
N175 C172 1.391 . S
N175 C176 1.388 . S
C176 H147 0.930 . S
C176 C171 1.391 . S
C176 N175 1.388 . S
Co177 O179 2.143 . S
Co177 O185 2.074 . S
Co177 O188 2.093 . S
Co177 O201 2.097 . S
Co177 N218 2.151 . S
Co177 N226 2.214 . S
Co178 O179 2.160 . S
Co178 O184 2.058 . S
Co178 O194 2.057 . S
Co178 O209 2.037 . S
Co178 N213 2.145 . S
Co178 N234 2.257 . S
O179 Co177 2.143 . S
O179 Co178 2.160 . S
C180 O181 1.278 . S
C180 O188 1.224 . S
O181 C180 1.278 . S
C182 O183 1.245 . S
C182 O194 1.232 . S
O183 C182 1.245 . S
O184 Co178 2.058 . S
O184 C210 1.269 . S
O185 Co177 2.074 . S
O185 C210 1.257 . S
H186 C211 0.930 . S
H187 C217 0.930 . S
O188 Co177 2.093 . S
O188 C180 1.224 . S
H189 C221 0.929 . S
H190 C223 0.930 . S
H191 C224 0.930 . S
H192 C222 0.929 . S
H193 C225 0.928 . S
O194 Co178 2.057 . S
O194 C182 1.232 . S
H195 C214 0.929 . S
H196 C215 0.929 . S
H197 C227 0.931 . S
H198 C219 0.929 . S
H199 C228 0.930 . S
H200 C220 0.931 . S
O201 Co177 2.097 . S
O201 C229 1.214 . S
H202 C230 0.929 . S
H203 C231 0.929 . S
H204 C232 0.930 . S
H205 C233 0.929 . S
H206 C235 0.930 . S
H207 C212 0.930 . S
H208 C216 0.930 . S
O209 Co178 2.037 . S
O209 C229 1.234 . S
C210 O184 1.269 . S
C210 O185 1.257 . S
C211 H186 0.930 . S
C211 C214 1.388 . S
C211 C216 1.418 . S
C212 H207 0.930 . S
C212 C215 1.404 . S
C212 C216 1.353 . S
N213 Co178 2.145 . S
N213 C214 1.397 . S
N213 C215 1.334 . S
C214 H195 0.929 . S
C214 C211 1.388 . S
C214 N213 1.397 . S
C215 H196 0.929 . S
C215 C212 1.404 . S
C215 N213 1.334 . S
C216 H208 0.930 . S
C216 C211 1.418 . S
C216 C212 1.353 . S
C217 H187 0.930 . S
C217 N218 1.330 . S
C217 C219 1.446 . S
N218 Co177 2.151 . S
N218 C217 1.330 . S
N218 C222 1.418 . S
C219 H198 0.929 . S
C219 C217 1.446 . S
C219 C220 1.332 . S
C220 H200 0.931 . S
C220 C219 1.332 . S
C220 C221 1.267 . S
C221 H189 0.929 . S
C221 C220 1.267 . S
C221 C222 1.251 . S
C222 H192 0.929 . S
C222 N218 1.418 . S
C222 C221 1.251 . S
C223 H190 0.930 . S
C223 C225 1.406 . S
C223 C228 1.261 . S
C224 H191 0.930 . S
C224 N226 1.325 . S
C224 C227 1.357 . S
C225 H193 0.928 . S
C225 C223 1.406 . S
C225 N226 1.261 . S
N226 Co177 2.214 . S
N226 C224 1.325 . S
N226 C225 1.261 . S
C227 H197 0.931 . S
C227 C224 1.357 . S
C227 C228 1.312 . S
C228 H199 0.930 . S
C228 C223 1.261 . S
C228 C227 1.312 . S
C229 O201 1.214 . S
C229 O209 1.234 . S
C230 H202 0.929 . S
C230 C233 1.391 . S
C230 C235 1.391 . S
C231 H203 0.929 . S
C231 C232 1.390 . S
C231 N234 1.391 . S
C232 H204 0.930 . S
C232 C231 1.390 . S
C232 C233 1.392 . S
C233 H205 0.929 . S
C233 C230 1.391 . S
C233 C232 1.392 . S
N234 Co178 2.257 . S
N234 C231 1.391 . S
N234 C235 1.388 . S
C235 H206 0.930 . S
C235 C230 1.391 . S
C235 N234 1.388 . S
Co236 O238 2.143 . S
Co236 O244 2.074 . S
Co236 O247 2.093 . S
Co236 O260 2.097 . S
Co236 N277 2.151 . S
Co236 N285 2.214 . S
Co237 O238 2.160 . S
Co237 O243 2.058 . S
Co237 O253 2.057 . S
Co237 O268 2.037 . S
Co237 N272 2.145 . S
Co237 N293 2.257 . S
O238 Co236 2.143 . S
O238 Co237 2.160 . S
C239 O240 1.278 . S
C239 O247 1.224 . S
O240 C239 1.278 . S
C241 O242 1.245 . S
C241 O253 1.232 . S
O242 C241 1.245 . S
O243 Co237 2.058 . S
O243 C269 1.269 . S
O244 Co236 2.074 . S
O244 C269 1.257 . S
H245 C270 0.930 . S
H246 C276 0.930 . S
O247 Co236 2.093 . S
O247 C239 1.224 . S
H248 C280 0.929 . S
H249 C282 0.930 . S
H250 C283 0.930 . S
H251 C281 0.929 . S
H252 C284 0.928 . S
O253 Co237 2.057 . S
O253 C241 1.232 . S
H254 C273 0.929 . S
H255 C274 0.929 . S
H256 C286 0.931 . S
H257 C278 0.929 . S
H258 C287 0.930 . S
H259 C279 0.931 . S
O260 Co236 2.097 . S
O260 C288 1.214 . S
H261 C289 0.929 . S
H262 C290 0.929 . S
H263 C291 0.930 . S
H264 C292 0.929 . S
H265 C294 0.930 . S
H266 C271 0.930 . S
H267 C275 0.930 . S
O268 Co237 2.037 . S
O268 C288 1.234 . S
C269 O243 1.269 . S
C269 O244 1.257 . S
C270 H245 0.930 . S
C270 C273 1.388 . S
C270 C275 1.418 . S
C271 H266 0.930 . S
C271 C274 1.404 . S
C271 C275 1.353 . S
N272 Co237 2.145 . S
N272 C273 1.397 . S
N272 C274 1.334 . S
C273 H254 0.929 . S
C273 C270 1.388 . S
C273 N272 1.397 . S
C274 H255 0.929 . S
C274 C271 1.404 . S
C274 N272 1.334 . S
C275 H267 0.930 . S
C275 C270 1.418 . S
C275 C271 1.353 . S
C276 H246 0.930 . S
C276 N277 1.330 . S
C276 C278 1.446 . S
N277 Co236 2.151 . S
N277 C276 1.330 . S
N277 C281 1.418 . S
C278 H257 0.929 . S
C278 C276 1.446 . S
C278 C279 1.332 . S
C279 H259 0.931 . S
C279 C278 1.332 . S
C279 C280 1.267 . S
C280 H248 0.929 . S
C280 C279 1.267 . S
C280 C281 1.251 . S
C281 H251 0.929 . S
C281 N277 1.418 . S
C281 C280 1.251 . S
C282 H249 0.930 . S
C282 C284 1.406 . S
C282 C287 1.261 . S
C283 H250 0.930 . S
C283 N285 1.325 . S
C283 C286 1.357 . S
C284 H252 0.928 . S
C284 C282 1.406 . S
C284 N285 1.261 . S
N285 Co236 2.214 . S
N285 C283 1.325 . S
N285 C284 1.261 . S
C286 H256 0.931 . S
C286 C283 1.357 . S
C286 C287 1.312 . S
C287 H258 0.930 . S
C287 C282 1.261 . S
C287 C286 1.312 . S
C288 O260 1.214 . S
C288 O268 1.234 . S
C289 H261 0.929 . S
C289 C292 1.391 . S
C289 C294 1.391 . S
C290 H262 0.929 . S
C290 C291 1.390 . S
C290 N293 1.391 . S
C291 H263 0.930 . S
C291 C290 1.390 . S
C291 C292 1.392 . S
C292 H264 0.929 . S
C292 C289 1.391 . S
C292 C291 1.392 . S
N293 Co237 2.257 . S
N293 C290 1.391 . S
N293 C294 1.388 . S
C294 H265 0.930 . S
C294 C289 1.391 . S
C294 N293 1.388 . S
Co295 O297 2.133 1_554 S
Co295 O303 2.100 . S
Co295 O306 2.067 1_554 S
Co295 O319 2.091 1_554 S
Co295 N336 2.157 . S
Co295 N344 2.225 . S
Co296 O297 2.160 1_554 S
Co296 O302 2.058 . S
Co296 O312 2.057 1_554 S
Co296 O327 2.037 . S
Co296 N331 2.145 . S
Co296 N352 2.257 1_554 S
O297 Co295 2.133 1_556 S
O297 Co296 2.160 1_556 S
C298 O299 1.278 . S
C298 O306 1.224 . S
O299 C298 1.278 . S
C300 O301 1.245 . S
C300 O312 1.232 . S
O301 C300 1.245 . S
O302 Co296 2.058 . S
O302 C328 1.269 . S
O303 Co295 2.100 . S
O303 C328 1.257 . S
H304 C329 0.930 . S
H305 C335 0.930 . S
O306 Co295 2.067 1_556 S
O306 C298 1.224 . S
H307 C339 0.929 . S
H308 C341 0.930 . S
H309 C342 0.930 . S
H310 C340 0.929 . S
H311 C343 0.951 . S
O312 Co296 2.057 1_556 S
O312 C300 1.232 . S
H313 C332 0.929 . S
H314 C333 0.910 1_556 S
H315 C345 0.931 . S
H316 C337 0.929 . S
H317 C346 0.930 . S
H318 C338 0.931 . S
O319 Co295 2.091 1_556 S
O319 C347 1.214 . S
H320 C348 0.929 . S
H321 C349 0.929 . S
H322 C350 0.930 . S
H323 C351 0.929 . S
H324 C353 0.930 . S
H325 C330 0.930 . S
H326 C334 0.930 . S
O327 Co296 2.037 . S
O327 C347 1.234 1_554 S
C328 O302 1.269 . S
C328 O303 1.257 . S
C329 H304 0.930 . S
C329 C332 1.388 . S
C329 C334 1.418 . S
C330 H325 0.930 . S
C330 C333 1.404 . S
C330 C334 1.353 . S
N331 Co296 2.145 . S
N331 C332 1.397 . S
N331 C333 1.334 . S
C332 H313 0.929 . S
C332 C329 1.388 . S
C332 N331 1.397 . S
C333 H314 0.910 1_554 S
C333 C330 1.404 . S
C333 N331 1.334 . S
C334 H326 0.930 . S
C334 C329 1.418 . S
C334 C330 1.353 . S
C335 H305 0.930 . S
C335 N336 1.330 1_556 S
C335 C337 1.446 . S
N336 Co295 2.157 . S
N336 C335 1.330 1_554 S
N336 C340 1.418 . S
C337 H316 0.929 . S
C337 C335 1.446 . S
C337 C338 1.332 1_556 S
C338 H318 0.931 . S
C338 C337 1.332 1_554 S
C338 C339 1.267 . S
C339 H307 0.929 . S
C339 C338 1.267 . S
C339 C340 1.251 . S
C340 H310 0.929 . S
C340 N336 1.418 . S
C340 C339 1.251 . S
C341 H308 0.930 . S
C341 C343 1.406 . S
C341 C346 1.261 . S
C342 H309 0.930 . S
C342 N344 1.325 . S
C342 C345 1.357 . S
C343 H311 0.951 . S
C343 C341 1.406 . S
C343 N344 1.261 . S
N344 Co295 2.225 . S
N344 C342 1.325 . S
N344 C343 1.261 . S
C345 H315 0.931 . S
C345 C342 1.357 . S
C345 C346 1.312 . S
C346 H317 0.930 . S
C346 C341 1.261 . S
C346 C345 1.312 . S
C347 O319 1.214 . S
C347 O327 1.234 1_556 S
C348 H320 0.929 . S
C348 C351 1.391 . S
C348 C353 1.391 . S
C349 H321 0.929 . S
C349 C350 1.390 . S
C349 N352 1.391 . S
C350 H322 0.930 . S
C350 C349 1.390 . S
C350 C351 1.392 . S
C351 H323 0.929 . S
C351 C348 1.391 . S
C351 C350 1.392 . S
N352 Co296 2.257 1_556 S
N352 C349 1.391 . S
N352 C353 1.388 . S
C353 H324 0.930 . S
C353 C348 1.391 . S
C353 N352 1.388 . S
Co354 O356 2.143 . S
Co354 O362 2.074 . S
Co354 O365 2.093 . S
Co354 O378 2.097 . S
Co354 N395 2.151 . S
Co354 N403 2.214 . S
Co355 O356 2.160 . S
Co355 O361 2.058 . S
Co355 O371 2.057 . S
Co355 O386 2.037 . S
Co355 N390 2.145 . S
Co355 N411 2.257 . S
O356 Co354 2.143 . S
O356 Co355 2.160 . S
C357 O358 1.278 . S
C357 O365 1.224 . S
O358 C357 1.278 . S
C359 O360 1.245 . S
C359 O371 1.232 . S
O360 C359 1.245 . S
O361 Co355 2.058 . S
O361 C387 1.269 . S
O362 Co354 2.074 . S
O362 C387 1.257 . S
H363 C388 0.930 . S
H364 C394 0.930 . S
O365 Co354 2.093 . S
O365 C357 1.224 . S
H366 C398 0.929 . S
H367 C400 0.930 . S
H368 C401 0.930 . S
H369 C399 0.929 . S
H370 C402 0.928 . S
O371 Co355 2.057 . S
O371 C359 1.232 . S
H372 C391 0.929 . S
H373 C392 0.929 . S
H374 C404 0.931 . S
H375 C396 0.929 . S
H376 C405 0.930 . S
H377 C397 0.931 . S
O378 Co354 2.097 . S
O378 C406 1.214 . S
H379 C407 0.929 . S
H380 C408 0.929 . S
H381 C409 0.930 . S
H382 C410 0.929 . S
H383 C412 0.930 . S
H384 C389 0.930 . S
H385 C393 0.930 . S
O386 Co355 2.037 . S
O386 C406 1.234 . S
C387 O361 1.269 . S
C387 O362 1.257 . S
C388 H363 0.930 . S
C388 C391 1.388 . S
C388 C393 1.418 . S
C389 H384 0.930 . S
C389 C392 1.404 . S
C389 C393 1.353 . S
N390 Co355 2.145 . S
N390 C391 1.397 . S
N390 C392 1.334 . S
C391 H372 0.929 . S
C391 C388 1.388 . S
C391 N390 1.397 . S
C392 H373 0.929 . S
C392 C389 1.404 . S
C392 N390 1.334 . S
C393 H385 0.930 . S
C393 C388 1.418 . S
C393 C389 1.353 . S
C394 H364 0.930 . S
C394 N395 1.330 . S
C394 C396 1.446 . S
N395 Co354 2.151 . S
N395 C394 1.330 . S
N395 C399 1.418 . S
C396 H375 0.929 . S
C396 C394 1.446 . S
C396 C397 1.332 . S
C397 H377 0.931 . S
C397 C396 1.332 . S
C397 C398 1.267 . S
C398 H366 0.929 . S
C398 C397 1.267 . S
C398 C399 1.251 . S
C399 H369 0.929 . S
C399 N395 1.418 . S
C399 C398 1.251 . S
C400 H367 0.930 . S
C400 C402 1.406 . S
C400 C405 1.261 . S
C401 H368 0.930 . S
C401 N403 1.325 . S
C401 C404 1.357 . S
C402 H370 0.928 . S
C402 C400 1.406 . S
C402 N403 1.261 . S
N403 Co354 2.214 . S
N403 C401 1.325 . S
N403 C402 1.261 . S
C404 H374 0.931 . S
C404 C401 1.357 . S
C404 C405 1.312 . S
C405 H376 0.930 . S
C405 C400 1.261 . S
C405 C404 1.312 . S
C406 O378 1.214 . S
C406 O386 1.234 . S
C407 H379 0.929 . S
C407 C410 1.391 . S
C407 C412 1.391 . S
C408 H380 0.929 . S
C408 C409 1.390 . S
C408 N411 1.391 . S
C409 H381 0.930 . S
C409 C408 1.390 . S
C409 C410 1.392 . S
C410 H382 0.929 . S
C410 C407 1.391 . S
C410 C409 1.392 . S
N411 Co355 2.257 . S
N411 C408 1.391 . S
N411 C412 1.388 . S
C412 H383 0.930 . S
C412 C407 1.391 . S
C412 N411 1.388 . S
Co413 O415 2.143 . S
Co413 O421 2.074 . S
Co413 O424 2.093 . S
Co413 O437 2.097 . S
Co413 N454 2.151 . S
Co413 N462 2.214 . S
Co414 O415 2.160 . S
Co414 O420 2.058 . S
Co414 O430 2.057 . S
Co414 O445 2.037 . S
Co414 N449 2.145 . S
Co414 N470 2.257 . S
O415 Co413 2.143 . S
O415 Co414 2.160 . S
C416 O417 1.278 . S
C416 O424 1.224 . S
O417 C416 1.278 . S
C418 O419 1.245 . S
C418 O430 1.232 . S
O419 C418 1.245 . S
O420 Co414 2.058 . S
O420 C446 1.269 . S
O421 Co413 2.074 . S
O421 C446 1.257 . S
H422 C447 0.930 . S
H423 C453 0.930 . S
O424 Co413 2.093 . S
O424 C416 1.224 . S
H425 C457 0.929 . S
H426 C459 0.930 . S
H427 C460 0.930 . S
H428 C458 0.929 . S
H429 C461 0.928 . S
O430 Co414 2.057 . S
O430 C418 1.232 . S
H431 C450 0.929 . S
H432 C451 0.929 . S
H433 C463 0.931 . S
H434 C455 0.929 . S
H435 C464 0.930 . S
H436 C456 0.931 . S
O437 Co413 2.097 . S
O437 C465 1.214 . S
H438 C466 0.929 . S
H439 C467 0.929 . S
H440 C468 0.930 . S
H441 C469 0.929 . S
H442 C471 0.930 . S
H443 C448 0.930 . S
H444 C452 0.930 . S
O445 Co414 2.037 . S
O445 C465 1.234 . S
C446 O420 1.269 . S
C446 O421 1.257 . S
C447 H422 0.930 . S
C447 C450 1.388 . S
C447 C452 1.418 . S
C448 H443 0.930 . S
C448 C451 1.404 . S
C448 C452 1.353 . S
N449 Co414 2.145 . S
N449 C450 1.397 . S
N449 C451 1.334 . S
C450 H431 0.929 . S
C450 C447 1.388 . S
C450 N449 1.397 . S
C451 H432 0.929 . S
C451 C448 1.404 . S
C451 N449 1.334 . S
C452 H444 0.930 . S
C452 C447 1.418 . S
C452 C448 1.353 . S
C453 H423 0.930 . S
C453 N454 1.330 . S
C453 C455 1.446 . S
N454 Co413 2.151 . S
N454 C453 1.330 . S
N454 C458 1.418 . S
C455 H434 0.929 . S
C455 C453 1.446 . S
C455 C456 1.332 . S
C456 H436 0.931 . S
C456 C455 1.332 . S
C456 C457 1.267 . S
C457 H425 0.929 . S
C457 C456 1.267 . S
C457 C458 1.251 . S
C458 H428 0.929 . S
C458 N454 1.418 . S
C458 C457 1.251 . S
C459 H426 0.930 . S
C459 C461 1.406 . S
C459 C464 1.261 . S
C460 H427 0.930 . S
C460 N462 1.325 . S
C460 C463 1.357 . S
C461 H429 0.928 . S
C461 C459 1.406 . S
C461 N462 1.261 . S
N462 Co413 2.214 . S
N462 C460 1.325 . S
N462 C461 1.261 . S
C463 H433 0.931 . S
C463 C460 1.357 . S
C463 C464 1.312 . S
C464 H435 0.930 . S
C464 C459 1.261 . S
C464 C463 1.312 . S
C465 O437 1.214 . S
C465 O445 1.234 . S
C466 H438 0.929 . S
C466 C469 1.391 . S
C466 C471 1.391 . S
C467 H439 0.929 . S
C467 C468 1.390 . S
C467 N470 1.391 . S
C468 H440 0.930 . S
C468 C467 1.390 . S
C468 C469 1.392 . S
C469 H441 0.929 . S
C469 C466 1.391 . S
C469 C468 1.392 . S
N470 Co414 2.257 . S
N470 C467 1.391 . S
N470 C471 1.388 . S
C471 H442 0.930 . S
C471 C466 1.391 . S
C471 N470 1.388 . S
Co472 O474 2.143 . S
Co472 O480 2.074 1_554 S
Co472 O483 2.093 . S
Co472 O496 2.097 . S
Co472 N513 2.151 1_554 S
Co472 N521 2.214 1_554 S
Co473 O474 2.160 . S
Co473 O479 2.058 1_554 S
Co473 O489 2.057 . S
Co473 O504 2.037 . S
Co473 N508 2.145 1_554 S
Co473 N529 2.257 . S
O474 Co472 2.143 . S
O474 Co473 2.160 . S
C475 O476 1.278 . S
C475 O483 1.224 . S
O476 C475 1.278 . S
C477 O478 1.245 . S
C477 O489 1.232 . S
O478 C477 1.245 . S
O479 Co473 2.058 1_556 S
O479 C505 1.269 . S
O480 Co472 2.074 1_556 S
O480 C505 1.257 . S
H481 C506 0.930 . S
H482 C512 0.930 . S
O483 Co472 2.093 . S
O483 C475 1.224 . S
H484 C516 0.929 . S
H485 C518 0.930 . S
H486 C519 0.930 . S
H487 C517 0.929 . S
H488 C520 0.928 1_554 S
O489 Co473 2.057 . S
O489 C477 1.232 . S
H490 C509 0.929 . S
H491 C510 0.929 1_554 S
H492 C522 0.931 . S
H493 C514 0.929 . S
H494 C523 0.930 . S
H495 C515 0.931 . S
O496 Co472 2.097 . S
O496 C524 1.214 . S
H497 C525 0.929 . S
H498 C526 0.929 . S
H499 C527 0.930 . S
H500 C528 0.929 . S
H501 C530 0.930 . S
H502 C507 0.930 . S
H503 C511 0.930 . S
O504 Co473 2.037 . S
O504 C524 1.234 . S
C505 O479 1.269 . S
C505 O480 1.257 . S
C506 H481 0.930 . S
C506 C509 1.388 . S
C506 C511 1.418 . S
C507 H502 0.930 . S
C507 C510 1.404 . S
C507 C511 1.353 . S
N508 Co473 2.145 1_556 S
N508 C509 1.397 . S
N508 C510 1.334 . S
C509 H490 0.929 . S
C509 C506 1.388 . S
C509 N508 1.397 . S
C510 H491 0.929 1_556 S
C510 C507 1.404 . S
C510 N508 1.334 . S
C511 H503 0.930 . S
C511 C506 1.418 . S
C511 C507 1.353 . S
C512 H482 0.930 . S
C512 N513 1.330 1_554 S
C512 C514 1.446 . S
N513 Co472 2.151 1_556 S
N513 C512 1.330 1_556 S
N513 C517 1.418 . S
C514 H493 0.929 . S
C514 C512 1.446 . S
C514 C515 1.332 1_554 S
C515 H495 0.931 . S
C515 C514 1.332 1_556 S
C515 C516 1.267 . S
C516 H484 0.929 . S
C516 C515 1.267 . S
C516 C517 1.251 . S
C517 H487 0.929 . S
C517 N513 1.418 . S
C517 C516 1.251 . S
C518 H485 0.930 . S
C518 C520 1.406 . S
C518 C523 1.261 . S
C519 H486 0.930 . S
C519 N521 1.325 . S
C519 C522 1.357 . S
C520 H488 0.928 1_556 S
C520 C518 1.406 . S
C520 N521 1.261 . S
N521 Co472 2.214 1_556 S
N521 C519 1.325 . S
N521 C520 1.261 . S
C522 H492 0.931 . S
C522 C519 1.357 . S
C522 C523 1.312 . S
C523 H494 0.930 . S
C523 C518 1.261 . S
C523 C522 1.312 . S
C524 O496 1.214 . S
C524 O504 1.234 . S
C525 H497 0.929 . S
C525 C528 1.391 . S
C525 C530 1.391 . S
C526 H498 0.929 . S
C526 C527 1.390 . S
C526 N529 1.391 . S
C527 H499 0.930 . S
C527 C526 1.390 . S
C527 C528 1.392 . S
C528 H500 0.929 . S
C528 C525 1.391 . S
C528 C527 1.392 . S
N529 Co473 2.257 . S
N529 C526 1.391 . S
N529 C530 1.388 . S
C530 H501 0.930 . S
C530 C525 1.391 . S
C530 N529 1.388 . S
Co531 O533 2.143 . S
Co531 O539 2.074 . S
Co531 O542 2.093 . S
Co531 O555 2.097 . S
Co531 N572 2.151 . S
Co531 N580 2.214 . S
Co532 O533 2.160 . S
Co532 O538 2.058 . S
Co532 O548 2.057 . S
Co532 O563 2.037 . S
Co532 N567 2.145 . S
Co532 N588 2.257 . S
O533 Co531 2.143 . S
O533 Co532 2.160 . S
C534 O535 1.278 . S
C534 O542 1.224 . S
O535 C534 1.278 . S
C536 O537 1.245 . S
C536 O548 1.232 . S
O537 C536 1.245 . S
O538 Co532 2.058 . S
O538 C564 1.269 . S
O539 Co531 2.074 . S
O539 C564 1.257 . S
H540 C565 0.930 . S
H541 C571 0.930 . S
O542 Co531 2.093 . S
O542 C534 1.224 . S
H543 C575 0.929 . S
H544 C577 0.930 . S
H545 C578 0.930 . S
H546 C576 0.929 . S
H547 C579 0.928 . S
O548 Co532 2.057 . S
O548 C536 1.232 . S
H549 C568 0.929 . S
H550 C569 0.929 . S
H551 C581 0.931 . S
H552 C573 0.929 . S
H553 C582 0.930 . S
H554 C574 0.931 . S
O555 Co531 2.097 . S
O555 C583 1.214 . S
H556 C584 0.929 . S
H557 C585 0.929 . S
H558 C586 0.930 . S
H559 C587 0.929 . S
H560 C589 0.930 . S
H561 C566 0.930 . S
H562 C570 0.930 . S
O563 Co532 2.037 . S
O563 C583 1.234 . S
C564 O538 1.269 . S
C564 O539 1.257 . S
C565 H540 0.930 . S
C565 C568 1.388 . S
C565 C570 1.418 . S
C566 H561 0.930 . S
C566 C569 1.404 . S
C566 C570 1.353 . S
N567 Co532 2.145 . S
N567 C568 1.397 . S
N567 C569 1.334 . S
C568 H549 0.929 . S
C568 C565 1.388 . S
C568 N567 1.397 . S
C569 H550 0.929 . S
C569 C566 1.404 . S
C569 N567 1.334 . S
C570 H562 0.930 . S
C570 C565 1.418 . S
C570 C566 1.353 . S
C571 H541 0.930 . S
C571 N572 1.330 . S
C571 C573 1.446 . S
N572 Co531 2.151 . S
N572 C571 1.330 . S
N572 C576 1.418 . S
C573 H552 0.929 . S
C573 C571 1.446 . S
C573 C574 1.332 . S
C574 H554 0.931 . S
C574 C573 1.332 . S
C574 C575 1.267 . S
C575 H543 0.929 . S
C575 C574 1.267 . S
C575 C576 1.251 . S
C576 H546 0.929 . S
C576 N572 1.418 . S
C576 C575 1.251 . S
C577 H544 0.930 . S
C577 C579 1.406 . S
C577 C582 1.261 . S
C578 H545 0.930 . S
C578 N580 1.325 . S
C578 C581 1.357 . S
C579 H547 0.928 . S
C579 C577 1.406 . S
C579 N580 1.261 . S
N580 Co531 2.214 . S
N580 C578 1.325 . S
N580 C579 1.261 . S
C581 H551 0.931 . S
C581 C578 1.357 . S
C581 C582 1.312 . S
C582 H553 0.930 . S
C582 C577 1.261 . S
C582 C581 1.312 . S
C583 O555 1.214 . S
C583 O563 1.234 . S
C584 H556 0.929 . S
C584 C587 1.391 . S
C584 C589 1.391 . S
C585 H557 0.929 . S
C585 C586 1.390 . S
C585 N588 1.391 . S
C586 H558 0.930 . S
C586 C585 1.390 . S
C586 C587 1.392 . S
C587 H559 0.929 . S
C587 C584 1.391 . S
C587 C586 1.392 . S
N588 Co532 2.257 . S
N588 C585 1.391 . S
N588 C589 1.388 . S
C589 H560 0.930 . S
C589 C584 1.391 . S
C589 N588 1.388 . S
Co590 O592 2.143 . S
Co590 O598 2.074 . S
Co590 O601 2.093 . S
Co590 O614 2.097 . S
Co590 N631 2.151 . S
Co590 N639 2.214 . S
Co591 O592 2.160 . S
Co591 O597 2.058 . S
Co591 O607 2.057 . S
Co591 O622 2.037 . S
Co591 N626 2.145 . S
Co591 N647 2.257 . S
O592 Co590 2.143 . S
O592 Co591 2.160 . S
C593 O594 1.278 . S
C593 O601 1.224 . S
O594 C593 1.278 . S
C595 O596 1.245 . S
C595 O607 1.232 . S
O596 C595 1.245 . S
O597 Co591 2.058 . S
O597 C623 1.269 . S
O598 Co590 2.074 . S
O598 C623 1.257 . S
H599 C624 0.930 . S
H600 C630 0.930 . S
O601 Co590 2.093 . S
O601 C593 1.224 . S
H602 C634 0.929 . S
H603 C636 0.930 . S
H604 C637 0.930 . S
H605 C635 0.929 . S
H606 C638 0.928 . S
O607 Co591 2.057 . S
O607 C595 1.232 . S
H608 C627 0.929 . S
H609 C628 0.929 . S
H610 C640 0.931 . S
H611 C632 0.929 . S
H612 C641 0.930 . S
H613 C633 0.931 . S
O614 Co590 2.097 . S
O614 C642 1.214 . S
H615 C643 0.929 . S
H616 C644 0.929 . S
H617 C645 0.930 . S
H618 C646 0.929 . S
H619 C648 0.930 . S
H620 C625 0.930 . S
H621 C629 0.930 . S
O622 Co591 2.037 . S
O622 C642 1.234 . S
C623 O597 1.269 . S
C623 O598 1.257 . S
C624 H599 0.930 . S
C624 C627 1.388 . S
C624 C629 1.418 . S
C625 H620 0.930 . S
C625 C628 1.404 . S
C625 C629 1.353 . S
N626 Co591 2.145 . S
N626 C627 1.397 . S
N626 C628 1.334 . S
C627 H608 0.929 . S
C627 C624 1.388 . S
C627 N626 1.397 . S
C628 H609 0.929 . S
C628 C625 1.404 . S
C628 N626 1.334 . S
C629 H621 0.930 . S
C629 C624 1.418 . S
C629 C625 1.353 . S
C630 H600 0.930 . S
C630 N631 1.330 . S
C630 C632 1.446 . S
N631 Co590 2.151 . S
N631 C630 1.330 . S
N631 C635 1.418 . S
C632 H611 0.929 . S
C632 C630 1.446 . S
C632 C633 1.332 . S
C633 H613 0.931 . S
C633 C632 1.332 . S
C633 C634 1.267 . S
C634 H602 0.929 . S
C634 C633 1.267 . S
C634 C635 1.251 . S
C635 H605 0.929 . S
C635 N631 1.418 . S
C635 C634 1.251 . S
C636 H603 0.930 . S
C636 C638 1.406 . S
C636 C641 1.261 . S
C637 H604 0.930 . S
C637 N639 1.325 . S
C637 C640 1.357 . S
C638 H606 0.928 . S
C638 C636 1.406 . S
C638 N639 1.261 . S
N639 Co590 2.214 . S
N639 C637 1.325 . S
N639 C638 1.261 . S
C640 H610 0.931 . S
C640 C637 1.357 . S
C640 C641 1.312 . S
C641 H612 0.930 . S
C641 C636 1.261 . S
C641 C640 1.312 . S
C642 O614 1.214 . S
C642 O622 1.234 . S
C643 H615 0.929 . S
C643 C646 1.391 . S
C643 C648 1.391 . S
C644 H616 0.929 . S
C644 C645 1.390 . S
C644 N647 1.391 . S
C645 H617 0.930 . S
C645 C644 1.390 . S
C645 C646 1.392 . S
C646 H618 0.929 . S
C646 C643 1.391 . S
C646 C645 1.392 . S
N647 Co591 2.257 . S
N647 C644 1.391 . S
N647 C648 1.388 . S
C648 H619 0.930 . S
C648 C643 1.391 . S
C648 N647 1.388 . S
Co649 O651 2.143 . S
Co649 O657 2.074 1_554 S
Co649 O660 2.093 . S
Co649 O673 2.097 . S
Co649 N690 2.151 1_554 S
Co649 N698 2.214 1_554 S
Co650 O651 2.160 . S
Co650 O656 2.058 1_554 S
Co650 O666 2.057 . S
Co650 O681 2.037 . S
Co650 N685 2.145 1_554 S
Co650 N706 2.257 . S
O651 Co649 2.143 . S
O651 Co650 2.160 . S
C652 O653 1.278 . S
C652 O660 1.224 . S
O653 C652 1.278 . S
C654 O655 1.245 . S
C654 O666 1.232 . S
O655 C654 1.245 . S
O656 Co650 2.058 1_556 S
O656 C682 1.269 . S
O657 Co649 2.074 1_556 S
O657 C682 1.257 . S
H658 C683 0.930 . S
H659 C689 0.930 . S
O660 Co649 2.093 . S
O660 C652 1.224 . S
H661 C693 0.929 . S
H662 C695 0.930 . S
H663 C696 0.930 . S
H664 C694 0.929 . S
H665 C697 0.928 1_554 S
O666 Co650 2.057 . S
O666 C654 1.232 . S
H667 C686 0.929 . S
H668 C687 0.929 1_554 S
H669 C699 0.931 . S
H670 C691 0.929 . S
H671 C700 0.930 . S
H672 C692 0.931 . S
O673 Co649 2.097 . S
O673 C701 1.214 . S
H674 C702 0.929 . S
H675 C703 0.929 . S
H676 C704 0.930 . S
H677 C705 0.929 . S
H678 C707 0.930 . S
H679 C684 0.930 . S
H680 C688 0.930 . S
O681 Co650 2.037 . S
O681 C701 1.234 . S
C682 O656 1.269 . S
C682 O657 1.257 . S
C683 H658 0.930 . S
C683 C686 1.388 . S
C683 C688 1.418 . S
C684 H679 0.930 . S
C684 C687 1.404 . S
C684 C688 1.353 . S
N685 Co650 2.145 1_556 S
N685 C686 1.397 . S
N685 C687 1.334 . S
C686 H667 0.929 . S
C686 C683 1.388 . S
C686 N685 1.397 . S
C687 H668 0.929 1_556 S
C687 C684 1.404 . S
C687 N685 1.334 . S
C688 H680 0.930 . S
C688 C683 1.418 . S
C688 C684 1.353 . S
C689 H659 0.930 . S
C689 N690 1.330 1_554 S
C689 C691 1.446 . S
N690 Co649 2.151 1_556 S
N690 C689 1.330 1_556 S
N690 C694 1.418 . S
C691 H670 0.929 . S
C691 C689 1.446 . S
C691 C692 1.332 1_554 S
C692 H672 0.931 . S
C692 C691 1.332 1_556 S
C692 C693 1.267 . S
C693 H661 0.929 . S
C693 C692 1.267 . S
C693 C694 1.251 . S
C694 H664 0.929 . S
C694 N690 1.418 . S
C694 C693 1.251 . S
C695 H662 0.930 . S
C695 C697 1.406 . S
C695 C700 1.261 . S
C696 H663 0.930 . S
C696 N698 1.325 . S
C696 C699 1.357 . S
C697 H665 0.928 1_556 S
C697 C695 1.406 . S
C697 N698 1.261 . S
N698 Co649 2.214 1_556 S
N698 C696 1.325 . S
N698 C697 1.261 . S
C699 H669 0.931 . S
C699 C696 1.357 . S
C699 C700 1.312 . S
C700 H671 0.930 . S
C700 C695 1.261 . S
C700 C699 1.312 . S
C701 O673 1.214 . S
C701 O681 1.234 . S
C702 H674 0.929 . S
C702 C705 1.391 . S
C702 C707 1.391 . S
C703 H675 0.929 . S
C703 C704 1.390 . S
C703 N706 1.391 . S
C704 H676 0.930 . S
C704 C703 1.390 . S
C704 C705 1.392 . S
C705 H677 0.929 . S
C705 C702 1.391 . S
C705 C704 1.392 . S
N706 Co650 2.257 . S
N706 C703 1.391 . S
N706 C707 1.388 . S
C707 H678 0.930 . S
C707 C702 1.391 . S
C707 N706 1.388 . S
H708 C716 0.950 . S
H709 C721 0.950 . S
H710 C718 0.950 . S
H711 C720 0.950 . S
H712 C722 0.950 . S
H713 C724 0.950 . S
H714 C726 0.950 . S
H715 C727 0.950 . S
C716 H708 0.950 . S
C716 C717 1.386 . S
C716 C718 1.391 . S
C717 C716 1.386 . S
C717 C721 1.393 . S
C718 H710 0.950 . S
C718 C716 1.391 . S
C718 C719 1.400 . S
C719 C718 1.400 . S
C719 C720 1.398 . S
C719 C725 1.491 . S
C720 H711 0.950 . S
C720 C719 1.398 . S
C720 C721 1.391 . S
C721 H709 0.950 . S
C721 C717 1.393 . S
C721 C720 1.391 . S
C722 H712 0.950 . S
C722 C723 1.386 . S
C722 C724 1.391 . S
C723 C722 1.386 . S
C723 C727 1.393 . S
C724 H713 0.950 . S
C724 C722 1.391 . S
C724 C725 1.400 . S
C725 C719 1.491 . S
C725 C724 1.400 . S
C725 C726 1.398 . S
C726 H714 0.950 . S
C726 C725 1.398 . S
C726 C727 1.391 . S
C727 H715 0.950 . S
C727 C723 1.393 . S
C727 C726 1.391 . S
H728 C736 0.950 . S
H729 C741 0.950 . S
H730 C738 0.950 . S
H731 C740 0.950 . S
H732 C742 0.950 . S
H733 C744 0.950 . S
H734 C746 0.950 . S
H735 C747 0.950 . S
C736 H728 0.950 . S
C736 C737 1.386 . S
C736 C738 1.391 . S
C737 C736 1.386 . S
C737 C741 1.393 . S
C738 H730 0.950 . S
C738 C736 1.391 . S
C738 C739 1.400 . S
C739 C738 1.400 . S
C739 C740 1.398 . S
C739 C745 1.491 . S
C740 H731 0.950 . S
C740 C739 1.398 . S
C740 C741 1.391 . S
C741 H729 0.950 . S
C741 C737 1.393 . S
C741 C740 1.391 . S
C742 H732 0.950 . S
C742 C743 1.386 . S
C742 C744 1.391 . S
C743 C742 1.386 . S
C743 C747 1.393 . S
C744 H733 0.950 . S
C744 C742 1.391 . S
C744 C745 1.400 . S
C745 C739 1.491 . S
C745 C744 1.400 . S
C745 C746 1.398 . S
C746 H734 0.950 . S
C746 C745 1.398 . S
C746 C747 1.391 . S
C747 H735 0.950 . S
C747 C743 1.393 . S
C747 C746 1.391 . S
H748 C756 0.950 . S
H749 C761 0.950 . S
H750 C758 0.950 . S
H751 C760 0.950 . S
H752 C762 0.950 . S
H753 C764 0.950 . S
H754 C766 0.950 . S
H755 C767 0.950 . S
C756 H748 0.950 . S
C756 C757 1.386 . S
C756 C758 1.391 . S
C757 C756 1.386 . S
C757 C761 1.393 . S
C758 H750 0.950 . S
C758 C756 1.391 . S
C758 C759 1.400 . S
C759 C758 1.400 . S
C759 C760 1.398 . S
C759 C765 1.491 . S
C760 H751 0.950 . S
C760 C759 1.398 . S
C760 C761 1.391 . S
C761 H749 0.950 . S
C761 C757 1.393 . S
C761 C760 1.391 . S
C762 H752 0.950 . S
C762 C763 1.386 . S
C762 C764 1.391 . S
C763 C762 1.386 . S
C763 C767 1.393 . S
C764 H753 0.950 . S
C764 C762 1.391 . S
C764 C765 1.400 . S
C765 C759 1.491 . S
C765 C764 1.400 . S
C765 C766 1.398 . S
C766 H754 0.950 . S
C766 C765 1.398 . S
C766 C767 1.391 . S
C767 H755 0.950 . S
C767 C763 1.393 . S
C767 C766 1.391 . S
H768 C776 0.950 . S
H769 C781 0.950 . S
H770 C778 0.950 . S
H771 C780 0.950 . S
H772 C782 0.950 . S
H773 C784 0.950 . S
H774 C786 0.950 . S
H775 C787 0.950 . S
C776 H768 0.950 . S
C776 C777 1.386 . S
C776 C778 1.391 . S
C777 C776 1.386 . S
C777 C781 1.393 . S
C778 H770 0.950 . S
C778 C776 1.391 . S
C778 C779 1.400 . S
C779 C778 1.400 . S
C779 C780 1.398 . S
C779 C785 1.491 . S
C780 H771 0.950 . S
C780 C779 1.398 . S
C780 C781 1.391 . S
C781 H769 0.950 . S
C781 C777 1.393 . S
C781 C780 1.391 . S
C782 H772 0.950 . S
C782 C783 1.386 . S
C782 C784 1.391 . S
C783 C782 1.386 . S
C783 C787 1.393 . S
C784 H773 0.950 . S
C784 C782 1.391 . S
C784 C785 1.400 . S
C785 C779 1.491 . S
C785 C784 1.400 . S
C785 C786 1.398 . S
C786 H774 0.950 . S
C786 C785 1.398 . S
C786 C787 1.391 . S
C787 H775 0.950 . S
C787 C783 1.393 . S
C787 C786 1.391 . S
H788 C796 0.950 . S
H789 C801 0.950 . S
H790 C798 0.950 . S
H791 C800 0.950 . S
H792 C802 0.950 . S
H793 C804 0.950 . S
H794 C806 0.950 . S
H795 C807 0.950 . S
C796 H788 0.950 . S
C796 C797 1.386 . S
C796 C798 1.391 . S
C797 C796 1.386 . S
C797 C801 1.393 . S
C798 H790 0.950 . S
C798 C796 1.391 . S
C798 C799 1.400 . S
C799 C798 1.400 . S
C799 C800 1.398 . S
C799 C805 1.491 . S
C800 H791 0.950 . S
C800 C799 1.398 . S
C800 C801 1.391 . S
C801 H789 0.950 . S
C801 C797 1.393 . S
C801 C800 1.391 . S
C802 H792 0.950 . S
C802 C803 1.386 . S
C802 C804 1.391 . S
C803 C802 1.386 . S
C803 C807 1.393 . S
C804 H793 0.950 . S
C804 C802 1.391 . S
C804 C805 1.400 . S
C805 C799 1.491 . S
C805 C804 1.400 . S
C805 C806 1.398 . S
C806 H794 0.950 . S
C806 C805 1.398 . S
C806 C807 1.391 . S
C807 H795 0.950 . S
C807 C803 1.393 . S
C807 C806 1.391 . S
H808 C816 0.950 . S
H809 C821 0.950 . S
H810 C818 0.950 . S
H811 C820 0.950 . S
H812 C822 0.950 . S
H813 C824 0.950 . S
H814 C826 0.950 . S
H815 C827 0.950 . S
C816 H808 0.950 . S
C816 C817 1.386 . S
C816 C818 1.391 . S
C817 C816 1.386 . S
C817 C821 1.393 . S
C818 H810 0.950 . S
C818 C816 1.391 . S
C818 C819 1.400 . S
C819 C818 1.400 . S
C819 C820 1.398 . S
C819 C825 1.491 . S
C820 H811 0.950 . S
C820 C819 1.398 . S
C820 C821 1.391 . S
C821 H809 0.950 . S
C821 C817 1.393 . S
C821 C820 1.391 . S
C822 H812 0.950 . S
C822 C823 1.386 . S
C822 C824 1.391 . S
C823 C822 1.386 . S
C823 C827 1.393 . S
C824 H813 0.950 . S
C824 C822 1.391 . S
C824 C825 1.400 . S
C825 C819 1.491 . S
C825 C824 1.400 . S
C825 C826 1.398 . S
C826 H814 0.950 . S
C826 C825 1.398 . S
C826 C827 1.391 . S
C827 H815 0.950 . S
C827 C823 1.393 . S
C827 C826 1.391 . S
H828 C836 0.950 . S
H829 C841 0.950 . S
H830 C838 0.950 . S
H831 C840 0.950 . S
H832 C842 0.950 . S
H833 C844 0.950 . S
H834 C846 0.950 . S
H835 C847 0.950 . S
C836 H828 0.950 . S
C836 C837 1.386 . S
C836 C838 1.391 . S
C837 C836 1.386 . S
C837 C841 1.393 . S
C838 H830 0.950 . S
C838 C836 1.391 . S
C838 C839 1.400 . S
C839 C838 1.400 . S
C839 C840 1.398 . S
C839 C845 1.491 . S
C840 H831 0.950 . S
C840 C839 1.398 . S
C840 C841 1.391 . S
C841 H829 0.950 . S
C841 C837 1.393 . S
C841 C840 1.391 . S
C842 H832 0.950 . S
C842 C843 1.386 . S
C842 C844 1.391 . S
C843 C842 1.386 . S
C843 C847 1.393 . S
C844 H833 0.950 . S
C844 C842 1.391 . S
C844 C845 1.400 . S
C845 C839 1.491 . S
C845 C844 1.400 . S
C845 C846 1.398 . S
C846 H834 0.950 . S
C846 C845 1.398 . S
C846 C847 1.391 . S
C847 H835 0.950 . S
C847 C843 1.393 . S
C847 C846 1.391 . S
H848 C856 0.950 . S
H849 C861 0.950 . S
H850 C858 0.950 . S
H851 C860 0.950 . S
H852 C862 0.950 . S
H853 C864 0.950 . S
H854 C866 0.950 . S
H855 C867 0.950 . S
C856 H848 0.950 . S
C856 C857 1.386 . S
C856 C858 1.391 . S
C857 C856 1.386 . S
C857 C861 1.393 . S
C858 H850 0.950 . S
C858 C856 1.391 . S
C858 C859 1.400 . S
C859 C858 1.400 . S
C859 C860 1.398 . S
C859 C865 1.491 . S
C860 H851 0.950 . S
C860 C859 1.398 . S
C860 C861 1.391 . S
C861 H849 0.950 . S
C861 C857 1.393 . S
C861 C860 1.391 . S
C862 H852 0.950 . S
C862 C863 1.386 . S
C862 C864 1.391 . S
C863 C862 1.386 . S
C863 C867 1.393 . S
C864 H853 0.950 . S
C864 C862 1.391 . S
C864 C865 1.400 . S
C865 C859 1.491 . S
C865 C864 1.400 . S
C865 C866 1.398 . S
C866 H854 0.950 . S
C866 C865 1.398 . S
C866 C867 1.391 . S
C867 H855 0.950 . S
C867 C863 1.393 . S
C867 C866 1.391 . S
H868 C876 0.950 . S
H869 C881 0.950 . S
H870 C878 0.950 . S
H871 C880 0.950 . S
H872 C882 0.950 . S
H873 C884 0.950 . S
H874 C886 0.950 . S
H875 C887 0.950 . S
C876 H868 0.950 . S
C876 C877 1.386 . S
C876 C878 1.391 . S
C877 C876 1.386 . S
C877 C881 1.393 1_554 S
C878 H870 0.950 . S
C878 C876 1.391 . S
C878 C879 1.400 . S
C879 C878 1.400 . S
C879 C880 1.398 1_554 S
C879 C885 1.491 . S
C880 H871 0.950 . S
C880 C879 1.398 1_556 S
C880 C881 1.391 . S
C881 H869 0.950 . S
C881 C877 1.393 1_556 S
C881 C880 1.391 . S
C882 H872 0.950 . S
C882 C883 1.386 1_556 S
C882 C884 1.391 . S
C883 C882 1.386 1_554 S
C883 C887 1.393 . S
C884 H873 0.950 . S
C884 C882 1.391 . S
C884 C885 1.400 1_556 S
C885 C879 1.491 . S
C885 C884 1.400 1_554 S
C885 C886 1.398 . S
C886 H874 0.950 . S
C886 C885 1.398 . S
C886 C887 1.391 . S
C887 H875 0.950 . S
C887 C883 1.393 . S
C887 C886 1.391 . S
H888 C896 0.950 . S
H889 C901 0.950 . S
H890 C898 0.950 . S
H891 C900 0.950 . S
H892 C902 0.950 . S
H893 C904 0.950 . S
H894 C906 0.950 . S
H895 C907 0.950 . S
C896 H888 0.950 . S
C896 C897 1.386 . S
C896 C898 1.391 . S
C897 C896 1.386 . S
C897 C901 1.393 . S
C898 H890 0.950 . S
C898 C896 1.391 . S
C898 C899 1.400 . S
C899 C898 1.400 . S
C899 C900 1.398 . S
C899 C905 1.491 . S
C900 H891 0.950 . S
C900 C899 1.398 . S
C900 C901 1.391 . S
C901 H889 0.950 . S
C901 C897 1.393 . S
C901 C900 1.391 . S
C902 H892 0.950 . S
C902 C903 1.386 . S
C902 C904 1.391 . S
C903 C902 1.386 . S
C903 C907 1.393 . S
C904 H893 0.950 . S
C904 C902 1.391 . S
C904 C905 1.400 . S
C905 C899 1.491 . S
C905 C904 1.400 . S
C905 C906 1.398 . S
C906 H894 0.950 . S
C906 C905 1.398 . S
C906 C907 1.391 . S
C907 H895 0.950 . S
C907 C903 1.393 . S
C907 C906 1.391 . S
H908 C916 0.950 . S
H909 C921 0.950 . S
H910 C918 0.950 . S
H911 C920 0.950 . S
H912 C922 0.950 . S
H913 C924 0.950 . S
H914 C926 0.950 . S
H915 C927 0.950 . S
C916 H908 0.950 . S
C916 C917 1.386 . S
C916 C918 1.391 . S
C917 C916 1.386 . S
C917 C921 1.393 . S
C918 H910 0.950 . S
C918 C916 1.391 . S
C918 C919 1.400 . S
C919 C918 1.400 . S
C919 C920 1.398 . S
C919 C925 1.491 . S
C920 H911 0.950 . S
C920 C919 1.398 . S
C920 C921 1.391 . S
C921 H909 0.950 . S
C921 C917 1.393 . S
C921 C920 1.391 . S
C922 H912 0.950 . S
C922 C923 1.386 . S
C922 C924 1.391 . S
C923 C922 1.386 . S
C923 C927 1.393 . S
C924 H913 0.950 . S
C924 C922 1.391 . S
C924 C925 1.400 . S
C925 C919 1.491 . S
C925 C924 1.400 . S
C925 C926 1.398 . S
C926 H914 0.950 . S
C926 C925 1.398 . S
C926 C927 1.391 . S
C927 H915 0.950 . S
C927 C923 1.393 . S
C927 C926 1.391 . S
H928 C936 0.950 . S
H929 C941 0.950 . S
H930 C938 0.950 . S
H931 C940 0.950 . S
H932 C942 0.950 . S
H933 C944 0.950 . S
H934 C946 0.950 . S
H935 C947 0.950 . S
C936 H928 0.950 . S
C936 C937 1.393 . S
C936 C938 1.391 . S
C937 C936 1.393 . S
C937 C941 1.386 1_554 S
C938 H930 0.950 . S
C938 C936 1.391 . S
C938 C939 1.400 . S
C939 C938 1.400 . S
C939 C940 1.398 1_554 S
C939 C945 1.491 . S
C940 H931 0.950 . S
C940 C939 1.398 1_556 S
C940 C941 1.391 . S
C941 H929 0.950 . S
C941 C937 1.386 1_556 S
C941 C940 1.391 . S
C942 H932 0.950 . S
C942 C943 1.386 1_556 S
C942 C944 1.391 . S
C943 C942 1.386 1_554 S
C943 C947 1.393 . S
C944 H933 0.950 . S
C944 C942 1.391 . S
C944 C945 1.400 1_556 S
C945 C939 1.491 . S
C945 C944 1.400 1_554 S
C945 C946 1.398 . S
C946 H934 0.950 . S
C946 C945 1.398 . S
C946 C947 1.391 . S
C947 H935 0.950 . S
C947 C943 1.393 . S
C947 C946 1.391 . S
H948 C956 0.950 . S
H949 C961 0.950 . S
H950 C958 0.950 . S
H951 C960 0.950 . S
H952 C962 0.950 . S
H953 C964 0.950 . S
H954 C966 0.950 . S
H955 C967 0.950 . S
C956 H948 0.950 . S
C956 C957 1.386 . S
C956 C958 1.391 . S
C957 C956 1.386 . S
C957 C961 1.393 . S
C958 H950 0.950 . S
C958 C956 1.391 . S
C958 C959 1.400 . S
C959 C958 1.400 . S
C959 C960 1.398 . S
C959 C965 1.491 1_545 S
C960 H951 0.950 . S
C960 C959 1.398 . S
C960 C961 1.391 . S
C961 H949 0.950 . S
C961 C957 1.393 . S
C961 C960 1.391 . S
C962 H952 0.950 . S
C962 C963 1.386 . S
C962 C964 1.391 . S
C963 C962 1.386 . S
C963 C967 1.393 . S
C964 H953 0.950 . S
C964 C962 1.391 . S
C964 C965 1.400 . S
C965 C959 1.491 1_565 S
C965 C964 1.400 . S
C965 C966 1.398 . S
C966 H954 0.950 . S
C966 C965 1.398 . S
C966 C967 1.391 . S
C967 H955 0.950 . S
C967 C963 1.393 . S
C967 C966 1.391 . S
H968 C976 0.950 . S
H969 C981 0.950 . S
H970 C978 0.950 . S
H971 C980 0.950 . S
H972 C982 0.950 . S
H973 C984 0.950 . S
H974 C986 0.950 . S
H975 C987 0.950 . S
C976 H968 0.950 . S
C976 C977 1.386 . S
C976 C978 1.391 . S
C977 C976 1.386 . S
C977 C981 1.393 . S
C978 H970 0.950 . S
C978 C976 1.391 . S
C978 C979 1.400 . S
C979 C978 1.400 . S
C979 C980 1.398 . S
C979 C985 1.491 . S
C980 H971 0.950 . S
C980 C979 1.398 . S
C980 C981 1.391 . S
C981 H969 0.950 . S
C981 C977 1.393 . S
C981 C980 1.391 . S
C982 H972 0.950 . S
C982 C983 1.386 . S
C982 C984 1.391 . S
C983 C982 1.386 . S
C983 C987 1.393 . S
C984 H973 0.950 . S
C984 C982 1.391 . S
C984 C985 1.400 . S
C985 C979 1.491 . S
C985 C984 1.400 . S
C985 C986 1.398 . S
C986 H974 0.950 . S
C986 C985 1.398 . S
C986 C987 1.391 . S
C987 H975 0.950 . S
C987 C983 1.393 . S
C987 C986 1.391 . S
H988 C996 0.950 . S
H989 C1001 0.950 . S
H990 C998 0.950 . S
H991 C1000 0.950 . S
H992 C1002 0.950 . S
H993 C1004 0.950 . S
H994 C1006 0.950 . S
H995 C1007 0.950 . S
C996 H988 0.950 . S
C996 C997 1.386 . S
C996 C998 1.391 . S
C997 C996 1.386 . S
C997 C1001 1.393 . S
C998 H990 0.950 . S
C998 C996 1.391 . S
C998 C999 1.400 . S
C999 C998 1.400 . S
C999 C1000 1.398 . S
C999 C1005 1.491 1_655 S
C1000 H991 0.950 . S
C1000 C999 1.398 . S
C1000 C1001 1.391 . S
C1001 H989 0.950 . S
C1001 C997 1.393 . S
C1001 C1000 1.391 . S
C1002 H992 0.950 . S
C1002 C1003 1.386 . S
C1002 C1004 1.391 . S
C1003 C1002 1.386 . S
C1003 C1007 1.393 . S
C1004 H993 0.950 . S
C1004 C1002 1.391 . S
C1004 C1005 1.400 . S
C1005 C999 1.491 1_455 S
C1005 C1004 1.400 . S
C1005 C1006 1.398 . S
C1006 H994 0.950 . S
C1006 C1005 1.398 . S
C1006 C1007 1.391 . S
C1007 H995 0.950 . S
C1007 C1003 1.393 . S
C1007 C1006 1.391 . S
H1008 C1016 0.950 . S
H1009 C1021 0.950 . S
H1010 C1018 0.950 . S
H1011 C1020 0.950 . S
H1012 C1022 0.950 . S
H1013 C1024 0.950 . S
H1014 C1026 0.950 . S
H1015 C1027 0.950 . S
C1016 H1008 0.950 . S
C1016 C1017 1.386 . S
C1016 C1018 1.391 . S
C1017 C1016 1.386 . S
C1017 C1021 1.393 . S
C1018 H1010 0.950 . S
C1018 C1016 1.391 . S
C1018 C1019 1.400 . S
C1019 C1018 1.400 . S
C1019 C1020 1.398 . S
C1019 C1025 1.491 1_455 S
C1020 H1011 0.950 . S
C1020 C1019 1.398 . S
C1020 C1021 1.391 . S
C1021 H1009 0.950 . S
C1021 C1017 1.393 . S
C1021 C1020 1.391 . S
C1022 H1012 0.950 . S
C1022 C1023 1.386 . S
C1022 C1024 1.391 . S
C1023 C1022 1.386 . S
C1023 C1027 1.393 . S
C1024 H1013 0.950 . S
C1024 C1022 1.391 . S
C1024 C1025 1.400 . S
C1025 C1019 1.491 1_655 S
C1025 C1024 1.400 . S
C1025 C1026 1.398 . S
C1026 H1014 0.950 . S
C1026 C1025 1.398 . S
C1026 C1027 1.391 . S
C1027 H1015 0.950 . S
C1027 C1023 1.393 . S
C1027 C1026 1.391 . S
H1028 C1036 0.950 . S
H1029 C1041 0.950 . S
H1030 C1038 0.950 . S
H1031 C1040 0.950 . S
H1032 C1042 0.950 . S
H1033 C1044 0.950 . S
H1034 C1046 0.950 . S
H1035 C1047 0.950 . S
C1036 H1028 0.950 . S
C1036 C1037 1.386 . S
C1036 C1038 1.391 . S
C1037 C1036 1.386 . S
C1037 C1041 1.393 . S
C1038 H1030 0.950 . S
C1038 C1036 1.391 . S
C1038 C1039 1.400 . S
C1039 C1038 1.400 . S
C1039 C1040 1.398 . S
C1039 C1045 1.491 1_545 S
C1040 H1031 0.950 . S
C1040 C1039 1.398 . S
C1040 C1041 1.391 . S
C1041 H1029 0.950 . S
C1041 C1037 1.393 . S
C1041 C1040 1.391 . S
C1042 H1032 0.950 . S
C1042 C1043 1.386 . S
C1042 C1044 1.391 . S
C1043 C1042 1.386 . S
C1043 C1047 1.393 . S
C1044 H1033 0.950 . S
C1044 C1042 1.391 . S
C1044 C1045 1.400 . S
C1045 C1039 1.491 1_565 S
C1045 C1044 1.400 . S
C1045 C1046 1.398 . S
C1046 H1034 0.950 . S
C1046 C1045 1.398 . S
C1046 C1047 1.391 . S
C1047 H1035 0.950 . S
C1047 C1043 1.393 . S
C1047 C1046 1.391 . S
H1048 C1056 0.950 . S
H1049 C1061 0.950 . S
H1050 C1058 0.950 . S
H1051 C1060 0.950 . S
H1052 C1062 0.950 . S
H1053 C1064 0.950 . S
H1054 C1066 0.950 . S
H1055 C1067 0.950 . S
C1056 H1048 0.950 . S
C1056 C1057 1.386 . S
C1056 C1058 1.391 . S
C1057 C1056 1.386 . S
C1057 C1061 1.393 . S
C1058 H1050 0.950 . S
C1058 C1056 1.391 . S
C1058 C1059 1.400 . S
C1059 C1058 1.400 . S
C1059 C1060 1.398 . S
C1059 C1065 1.491 . S
C1060 H1051 0.950 . S
C1060 C1059 1.398 . S
C1060 C1061 1.391 . S
C1061 H1049 0.950 . S
C1061 C1057 1.393 . S
C1061 C1060 1.391 . S
C1062 H1052 0.950 . S
C1062 C1063 1.386 . S
C1062 C1064 1.391 . S
C1063 C1062 1.386 . S
C1063 C1067 1.393 . S
C1064 H1053 0.950 . S
C1064 C1062 1.391 . S
C1064 C1065 1.400 . S
C1065 C1059 1.491 . S
C1065 C1064 1.400 . S
C1065 C1066 1.398 . S
C1066 H1054 0.950 . S
C1066 C1065 1.398 . S
C1066 C1067 1.391 . S
C1067 H1055 0.950 . S
C1067 C1063 1.393 . S
C1067 C1066 1.391 . S
H1068 C1076 0.950 . S
H1069 C1081 0.950 . S
H1070 C1078 0.950 . S
H1071 C1080 0.950 . S
H1072 C1082 0.950 . S
H1073 C1084 0.950 . S
H1074 C1086 0.950 . S
H1075 C1087 0.950 . S
C1076 H1068 0.950 . S
C1076 C1077 1.386 . S
C1076 C1078 1.391 . S
C1077 C1076 1.386 . S
C1077 C1081 1.393 . S
C1078 H1070 0.950 . S
C1078 C1076 1.391 . S
C1078 C1079 1.400 . S
C1079 C1078 1.400 . S
C1079 C1080 1.398 . S
C1079 C1085 1.491 . S
C1080 H1071 0.950 . S
C1080 C1079 1.398 . S
C1080 C1081 1.391 . S
C1081 H1069 0.950 . S
C1081 C1077 1.393 . S
C1081 C1080 1.391 . S
C1082 H1072 0.950 . S
C1082 C1083 1.386 . S
C1082 C1084 1.391 . S
C1083 C1082 1.386 . S
C1083 C1087 1.393 . S
C1084 H1073 0.950 . S
C1084 C1082 1.391 . S
C1084 C1085 1.400 . S
C1085 C1079 1.491 . S
C1085 C1084 1.400 . S
C1085 C1086 1.398 . S
C1086 H1074 0.950 . S
C1086 C1085 1.398 . S
C1086 C1087 1.391 . S
C1087 H1075 0.950 . S
C1087 C1083 1.393 . S
C1087 C1086 1.391 . S
H1088 C1096 0.950 . S
H1089 C1101 0.950 . S
H1090 C1098 0.950 . S
H1091 C1100 0.950 . S
H1092 C1102 0.950 . S
H1093 C1104 0.950 . S
H1094 C1106 0.950 . S
H1095 C1107 0.950 . S
C1096 H1088 0.950 . S
C1096 C1097 1.386 . S
C1096 C1098 1.391 . S
C1097 C1096 1.386 . S
C1097 C1101 1.393 . S
C1098 H1090 0.950 . S
C1098 C1096 1.391 . S
C1098 C1099 1.400 . S
C1099 C1098 1.400 . S
C1099 C1100 1.398 . S
C1099 C1105 1.491 . S
C1100 H1091 0.950 . S
C1100 C1099 1.398 . S
C1100 C1101 1.391 . S
C1101 H1089 0.950 . S
C1101 C1097 1.393 . S
C1101 C1100 1.391 . S
C1102 H1092 0.950 . S
C1102 C1103 1.386 . S
C1102 C1104 1.391 . S
C1103 C1102 1.386 . S
C1103 C1107 1.393 . S
C1104 H1093 0.950 . S
C1104 C1102 1.391 . S
C1104 C1105 1.400 . S
C1105 C1099 1.491 . S
C1105 C1104 1.400 . S
C1105 C1106 1.398 . S
C1106 H1094 0.950 . S
C1106 C1105 1.398 . S
C1106 C1107 1.391 . S
C1107 H1095 0.950 . S
C1107 C1103 1.393 . S
C1107 C1106 1.391 . S
H1108 C1116 0.950 . S
H1109 C1121 0.950 . S
H1110 C1118 0.950 . S
H1111 C1120 0.950 . S
H1112 C1122 0.950 . S
H1113 C1124 0.950 . S
H1114 C1126 0.950 . S
H1115 C1127 0.950 . S
C1116 H1108 0.950 . S
C1116 C1117 1.386 . S
C1116 C1118 1.391 . S
C1117 C1116 1.386 . S
C1117 C1121 1.393 . S
C1118 H1110 0.950 . S
C1118 C1116 1.391 . S
C1118 C1119 1.400 . S
C1119 C1118 1.400 . S
C1119 C1120 1.398 . S
C1119 C1125 1.491 . S
C1120 H1111 0.950 . S
C1120 C1119 1.398 . S
C1120 C1121 1.391 . S
C1121 H1109 0.950 . S
C1121 C1117 1.393 . S
C1121 C1120 1.391 . S
C1122 H1112 0.950 . S
C1122 C1123 1.386 . S
C1122 C1124 1.391 . S
C1123 C1122 1.386 . S
C1123 C1127 1.393 . S
C1124 H1113 0.950 . S
C1124 C1122 1.391 . S
C1124 C1125 1.400 . S
C1125 C1119 1.491 . S
C1125 C1124 1.400 . S
C1125 C1126 1.398 . S
C1126 H1114 0.950 . S
C1126 C1125 1.398 . S
C1126 C1127 1.391 . S
C1127 H1115 0.950 . S
C1127 C1123 1.393 . S
C1127 C1126 1.391 . S
H1128 C1136 0.950 . S
H1129 C1141 0.950 . S
H1130 C1138 0.950 . S
H1131 C1140 0.950 . S
H1132 C1142 0.950 . S
H1133 C1144 0.950 . S
H1134 C1146 0.950 . S
H1135 C1147 0.950 . S
C1136 H1128 0.950 . S
C1136 C1137 1.386 . S
C1136 C1138 1.391 . S
C1137 C1136 1.386 . S
C1137 C1141 1.393 . S
C1138 H1130 0.950 . S
C1138 C1136 1.391 . S
C1138 C1139 1.400 . S
C1139 C1138 1.400 . S
C1139 C1140 1.398 . S
C1139 C1145 1.491 . S
C1140 H1131 0.950 . S
C1140 C1139 1.398 . S
C1140 C1141 1.391 . S
C1141 H1129 0.950 . S
C1141 C1137 1.393 . S
C1141 C1140 1.391 . S
C1142 H1132 0.950 . S
C1142 C1143 1.386 . S
C1142 C1144 1.391 . S
C1143 C1142 1.386 . S
C1143 C1147 1.393 . S
C1144 H1133 0.950 . S
C1144 C1142 1.391 . S
C1144 C1145 1.400 . S
C1145 C1139 1.491 . S
C1145 C1144 1.400 . S
C1145 C1146 1.398 . S
C1146 H1134 0.950 . S
C1146 C1145 1.398 . S
C1146 C1147 1.391 . S
C1147 H1135 0.950 . S
C1147 C1143 1.393 . S
C1147 C1146 1.391 . S
H1148 C1156 0.950 . S
H1149 C1161 0.950 . S
H1150 C1158 0.950 . S
H1151 C1160 0.950 . S
H1152 C1162 0.950 . S
H1153 C1164 0.950 . S
H1154 C1166 0.950 . S
H1155 C1167 0.950 . S
C1156 H1148 0.950 . S
C1156 C1157 1.386 . S
C1156 C1158 1.391 . S
C1157 C1156 1.386 . S
C1157 C1161 1.393 . S
C1158 H1150 0.950 . S
C1158 C1156 1.391 . S
C1158 C1159 1.400 . S
C1159 C1158 1.400 . S
C1159 C1160 1.398 . S
C1159 C1165 1.491 . S
C1160 H1151 0.950 . S
C1160 C1159 1.398 . S
C1160 C1161 1.391 . S
C1161 H1149 0.950 . S
C1161 C1157 1.393 . S
C1161 C1160 1.391 . S
C1162 H1152 0.950 . S
C1162 C1163 1.386 . S
C1162 C1164 1.391 . S
C1163 C1162 1.386 . S
C1163 C1167 1.393 . S
C1164 H1153 0.950 . S
C1164 C1162 1.391 . S
C1164 C1165 1.400 . S
C1165 C1159 1.491 . S
C1165 C1164 1.400 . S
C1165 C1166 1.398 . S
C1166 H1154 0.950 . S
C1166 C1165 1.398 . S
C1166 C1167 1.391 . S
C1167 H1155 0.950 . S
C1167 C1163 1.393 . S
C1167 C1166 1.391 . S
H1168 C1176 0.950 . S
H1169 C1181 0.950 . S
H1170 C1178 0.950 . S
H1171 C1180 0.950 . S
H1172 C1182 0.950 . S
H1173 C1184 0.950 . S
H1174 C1186 0.950 . S
H1175 C1187 0.950 . S
C1176 H1168 0.950 . S
C1176 C1177 1.386 . S
C1176 C1178 1.391 . S
C1177 C1176 1.386 . S
C1177 C1181 1.393 . S
C1178 H1170 0.950 . S
C1178 C1176 1.391 . S
C1178 C1179 1.400 . S
C1179 C1178 1.400 . S
C1179 C1180 1.398 . S
C1179 C1185 1.491 . S
C1180 H1171 0.950 . S
C1180 C1179 1.398 . S
C1180 C1181 1.391 . S
C1181 H1169 0.950 . S
C1181 C1177 1.393 . S
C1181 C1180 1.391 . S
C1182 H1172 0.950 . S
C1182 C1183 1.386 . S
C1182 C1184 1.391 . S
C1183 C1182 1.386 . S
C1183 C1187 1.393 . S
C1184 H1173 0.950 . S
C1184 C1182 1.391 . S
C1184 C1185 1.400 . S
C1185 C1179 1.491 . S
C1185 C1184 1.400 . S
C1185 C1186 1.398 . S
C1186 H1174 0.950 . S
C1186 C1185 1.398 . S
C1186 C1187 1.391 . S
C1187 H1175 0.950 . S
C1187 C1183 1.393 . S
C1187 C1186 1.391 . S
C717 C33 1.791 . S
C723 C623 1.790 . S
C737 C92 1.805 . S
C743 C682 1.805 . S
C757 C387 1.804 . S
C763 C151 1.803 . S
C777 C210 1.790 . S
C783 C446 1.789 . S
C797 C505 1.793 . S
C803 C269 1.794 . S
C817 C564 1.805 . S
C823 C328 1.806 . S
C837 C406 0.594 . S
C843 C52 0.597 . S
C857 C465 0.594 . S
C863 C111 0.597 . S
C877 C524 0.597 . S
C883 C170 0.601 1_554 S
C897 C229 0.604 . S
C903 C583 0.604 . S
C917 C288 0.593 . S
C923 C642 0.595 . S
C937 C347 0.595 1_554 S
C943 C701 0.593 . S
C957 C5 1.529 . S
C963 C182 1.533 . S
C977 C64 1.527 . S
C983 C241 1.519 . S
C997 C123 1.521 . S
C1003 C300 1.532 . S
C1017 C536 1.526 . S
C1023 C359 1.534 . S
C1037 C595 1.528 . S
C1043 C418 1.534 . S
C1057 C654 1.531 . S
C1063 C477 1.520 . S
C1077 C3 1.372 . S
C1083 C475 1.342 . S
C1097 C534 1.344 . S
C1103 C62 1.363 . S
C1117 C121 1.364 . S
C1123 C593 1.358 . S
C1137 C652 1.361 . S
C1143 C180 1.360 . S
C1157 C239 1.341 . S
C1163 C357 1.368 . S
C1177 C298 1.360 . S
C1183 C416 1.346 . S
