# Generated by pormake.
# Topology umx, (4)-cn, num edge types: 1
# Building blocks:
#     Node 0, Type 0, BuildingBlock: NAWXER_clean_sbu_0, # of connection points: 4
#     Node 1, Type 0, BuildingBlock: NAWXER_clean_sbu_0, # of connection points: 4
#     Node 2, Type 0, BuildingBlock: NAWXER_clean_sbu_0, # of connection points: 4
#     Node 3, Type 0, BuildingBlock: NAWXER_clean_sbu_0, # of connection points: 4
#     Node 4, Type 0, BuildingBlock: NAWXER_clean_sbu_0, # of connection points: 4
#     Node 5, Type 0, BuildingBlock: NAWXER_clean_sbu_0, # of connection points: 4
#     Node 6, Type 0, BuildingBlock: NAWXER_clean_sbu_0, # of connection points: 4
#     Node 7, Type 0, BuildingBlock: NAWXER_clean_sbu_0, # of connection points: 4
#     Edge 8, Type (0, 0), BuildingBlock: FUNLAD_clean_linker_0, # of connection points: 2
#     Edge 9, Type (0, 0), BuildingBlock: FUNLAD_clean_linker_0, # of connection points: 2
#     Edge 10, Type (0, 0), BuildingBlock: FUNLAD_clean_linker_0, # of connection points: 2
#     Edge 11, Type (0, 0), BuildingBlock: FUNLAD_clean_linker_0, # of connection points: 2
#     Edge 12, Type (0, 0), BuildingBlock: FUNLAD_clean_linker_0, # of connection points: 2
#     Edge 13, Type (0, 0), BuildingBlock: FUNLAD_clean_linker_0, # of connection points: 2
#     Edge 14, Type (0, 0), BuildingBlock: FUNLAD_clean_linker_0, # of connection points: 2
#     Edge 15, Type (0, 0), BuildingBlock: FUNLAD_clean_linker_0, # of connection points: 2
#     Edge 16, Type (0, 0), BuildingBlock: FUNLAD_clean_linker_0, # of connection points: 2
#     Edge 17, Type (0, 0), BuildingBlock: FUNLAD_clean_linker_0, # of connection points: 2
#     Edge 18, Type (0, 0), BuildingBlock: FUNLAD_clean_linker_0, # of connection points: 2
#     Edge 19, Type (0, 0), BuildingBlock: FUNLAD_clean_linker_0, # of connection points: 2
#     Edge 20, Type (0, 0), BuildingBlock: FUNLAD_clean_linker_0, # of connection points: 2
#     Edge 21, Type (0, 0), BuildingBlock: FUNLAD_clean_linker_0, # of connection points: 2
#     Edge 22, Type (0, 0), BuildingBlock: FUNLAD_clean_linker_0, # of connection points: 2
#     Edge 23, Type (0, 0), BuildingBlock: FUNLAD_clean_linker_0, # of connection points: 2
# Relax obj value: 0.027
# Max RMSD: 0.221
# Mean RMSD: 0.220
data_MOF--net-umx--node1-NAWXER_clean_sbu_0--edge1-FUNLAD_clean_linker_0
_symmetry_space_group_name_H-M    P1
_symmetry_Int_Tables_number       1
_symmetry_cell_setting            triclinic
loop_
_symmetry_equiv_pos_as_xyz
'x, y, z'
_cell_length_a     45.408465
_cell_length_b     45.325424
_cell_length_c     34.322369
_cell_angle_alpha  95.315826
_cell_angle_beta   94.503358
_cell_angle_gamma 90.205833
loop_
_atom_site_label
_atom_site_type_symbol
_atom_site_fract_x
_atom_site_fract_y
_atom_site_fract_z
_atom_type_partial_charge
C0 C 0.2153 0.41088 1.00374 0.0
C1 C 0.12559 0.46734 0.00855 0.0
O2 O 0.18853 0.40237 1.00041 0.0
Zn3 Zn 0.17119 0.4403 0.00609 0.0
O4 O 0.22147 0.4387 0.00939 0.0
Zn5 Zn 0.19601 0.47926 0.01466 0.0
O6 O 0.20925 0.49685 0.06588 0.0
O7 O 0.1832 0.45586 0.06705 0.0
O8 O 0.14817 0.48489 0.01324 0.0
O9 O 0.12943 0.43964 1.00307 0.0
O10 O 0.18099 0.45905 0.95282 0.0
O11 O 0.20758 0.49941 0.97142 0.0
C12 C 0.19784 0.47792 0.08537 0.0
C13 C 0.19539 0.48164 0.94412 0.0
C14 C 0.51676 0.19494 0.45864 0.0
C15 C 0.51681 0.20269 0.60191 0.0
O16 O 0.49643 0.20454 0.47974 0.0
Zn17 Zn 0.51664 0.19882 0.53006 0.0
O18 O 0.54064 0.18512 0.47522 0.0
Zn19 Zn 0.55874 0.17968 0.5345 0.0
O20 O 0.56394 0.13779 0.53365 0.0
O21 O 0.51714 0.15095 0.52976 0.0
O22 O 0.5402 0.19041 0.58973 0.0
O23 O 0.4974 0.21168 0.57716 0.0
O24 O 0.55321 0.22956 0.53174 0.0
O25 O 0.59392 0.20358 0.53984 0.0
C26 C 0.53677 0.13065 0.5313 0.0
C27 C 0.58148 0.22826 0.53585 0.0
C28 C 0.86326 0.53045 0.04023 0.0
C29 C 0.76816 0.57825 0.03595 0.0
O30 O 0.84218 0.51116 0.0342 0.0
Zn31 Zn 0.7941 0.51218 0.02881 0.0
O32 O 0.85716 0.55776 0.04489 0.0
Zn33 Zn 0.8153 0.55335 0.03852 0.0
O34 O 0.80506 0.53385 0.09095 0.0
O35 O 0.78326 0.49094 0.07126 0.0
O36 O 0.794 0.58931 0.04134 0.0
O37 O 0.76479 0.54997 0.0308 0.0
O38 O 0.78474 0.49312 0.97729 0.0
O39 O 0.80759 0.53617 0.97753 0.0
C40 C 0.79275 0.50985 0.09899 0.0
C41 C 0.79573 0.51279 0.95857 0.0
C42 C 0.48108 0.78981 0.45281 0.0
C43 C 0.48392 0.79728 0.59529 0.0
O44 O 0.45915 0.80467 0.46529 0.0
Zn45 Zn 0.44328 0.81836 0.52197 0.0
O46 O 0.49952 0.7792 0.47736 0.0
Zn47 Zn 0.48181 0.79393 0.52414 0.0
O48 O 0.44108 0.76801 0.522 0.0
O49 O 0.40527 0.8006 0.51929 0.0
O50 O 0.50167 0.78442 0.57266 0.0
O51 O 0.46157 0.81092 0.58055 0.0
O52 O 0.44298 0.86013 0.52286 0.0
O53 O 0.48798 0.84195 0.52555 0.0
C54 C 0.41339 0.77396 0.52045 0.0
C55 C 0.47067 0.86432 0.52465 0.0
C56 C 0.19757 0.50443 0.44805 0.0
C57 C 0.19745 0.51444 0.5906 0.0
O58 O 0.18575 0.52869 0.461 0.0
Zn59 Zn 0.17716 0.55077 0.51719 0.0
O60 O 0.20796 0.4868 0.47221 0.0
Zn61 Zn 0.19869 0.51019 0.51945 0.0
O62 O 0.15047 0.5082 0.51561 0.0
O63 O 0.13543 0.55428 0.51274 0.0
O64 O 0.2093 0.49438 0.56888 0.0
O65 O 0.18499 0.53638 0.57515 0.0
O66 O 0.19865 0.58699 0.51943 0.0
O67 O 0.22785 0.54835 0.52114 0.0
C68 C 0.12937 0.52698 0.51334 0.0
C69 C 0.22448 0.57645 0.52085 0.0
C70 C 0.41032 0.22249 0.016 0.0
C71 C 0.45923 0.12809 0.01871 0.0
O72 O 0.43843 0.22619 0.02143 0.0
Zn73 Zn 0.47647 0.19776 0.02552 0.0
O74 O 0.39951 0.19645 0.01166 0.0
Zn75 Zn 0.43555 0.17546 0.01677 0.0
O76 O 0.45119 0.18642 0.07735 0.0
O77 O 0.49416 0.20931 0.07804 0.0
O78 O 0.43186 0.13354 0.01388 0.0
O79 O 0.47808 0.14961 0.02314 0.0
O80 O 0.49747 0.20695 0.9809 0.0
O81 O 0.45597 0.18203 0.96375 0.0
C82 C 0.47382 0.19915 0.09665 0.0
C83 C 0.4794 0.19451 0.9542 0.0
C84 C 0.80117 0.49178 0.59691 0.0
C85 C 0.78886 0.48719 0.45493 0.0
O86 O 0.79043 0.51089 0.57517 0.0
Zn87 Zn 0.79491 0.4887 0.52608 0.0
O88 O 0.81078 0.46722 0.58114 0.0
Zn89 Zn 0.81443 0.44704 0.52181 0.0
O90 O 0.85591 0.44198 0.51953 0.0
O91 O 0.8425 0.48882 0.52291 0.0
O92 O 0.80153 0.46393 0.46646 0.0
O93 O 0.78074 0.50709 0.48018 0.0
O94 O 0.76479 0.45163 0.52757 0.0
O95 O 0.79178 0.41143 0.51934 0.0
C96 C 0.86279 0.4692 0.52046 0.0
C97 C 0.76695 0.42329 0.52423 0.0
C98 C 0.58131 0.77554 0.03311 0.0
C99 C 0.52542 0.86596 0.04328 0.0
O100 O 0.58986 0.80224 0.04055 0.0
Zn101 Zn 0.55222 0.82024 0.03905 0.0
O102 O 0.55353 0.76959 0.02763 0.0
Zn103 Zn 0.51332 0.79537 0.02684 0.0
O104 O 0.49633 0.78591 0.97394 0.0
O105 O 0.53645 0.81396 0.9777 0.0
O106 O 0.50803 0.8434 0.03507 0.0
O107 O 0.55303 0.86206 0.04865 0.0
O108 O 0.53285 0.80678 0.09002 0.0
O109 O 0.4924 0.78147 0.06846 0.0
C110 C 0.51488 0.80033 0.9571 0.0
C111 C 0.50989 0.79217 0.09697 0.0
C112 C 0.1886 0.46071 0.15084 0.0
C113 C 0.20069 0.48176 0.12884 0.0
C114 C 0.19023 0.46507 0.19185 0.0
C115 C 0.2041 0.49061 0.21174 0.0
C116 C 0.21634 0.51148 0.1897 0.0
C117 C 0.21481 0.50707 0.14878 0.0
C118 C 0.20458 0.4973 0.25501 0.0
C119 C 0.2019 0.47662 0.28035 0.0
C120 C 0.20111 0.48427 0.32333 0.0
C121 C 0.2107 0.46351 0.34937 0.0
C122 C 0.20981 0.47001 0.38994 0.0
C123 C 0.19891 0.49732 0.40523 0.0
H124 H 0.18135 0.52765 0.31955 0.0
C125 C 0.18891 0.5179 0.37908 0.0
C126 C 0.18992 0.51146 0.33866 0.0
H127 H 0.18013 0.53905 0.38979 0.0
H128 H 0.17744 0.44104 0.13638 0.0
H129 H 0.17982 0.44884 0.20763 0.0
H130 H 0.22695 0.53144 0.2042 0.0
H131 H 0.22432 0.52378 0.13279 0.0
H132 H 0.20811 0.52032 0.26641 0.0
H133 H 0.20129 0.4533 0.26972 0.0
H134 H 0.2191 0.44226 0.33832 0.0
H135 H 0.21752 0.45359 0.40926 0.0
C136 C 0.52878 0.18797 0.66979 0.0
C137 C 0.51254 0.20569 0.64447 0.0
C138 C 0.52476 0.19031 0.70992 0.0
C139 C 0.50465 0.21073 0.72576 0.0
C140 C 0.4889 0.22893 0.70067 0.0
C141 C 0.49249 0.22618 0.66031 0.0
C142 C 0.50022 0.21367 0.7684 0.0
C143 C 0.5003 0.19006 0.78952 0.0
C144 C 0.49485 0.19223 0.83176 0.0
C145 C 0.47875 0.16955 0.84583 0.0
C146 C 0.47355 0.17056 0.88551 0.0
C147 C 0.48516 0.19383 0.91227 0.0
H148 H 0.51939 0.23319 0.84849 0.0
C149 C 0.50185 0.21628 0.89843 0.0
C150 C 0.50639 0.21568 0.85841 0.0
H151 H 0.51104 0.23449 0.91841 0.0
H152 H 0.54446 0.17201 0.65855 0.0
H153 H 0.53774 0.17642 0.72859 0.0
H154 H 0.47344 0.24499 0.71223 0.0
H155 H 0.47982 0.24029 0.6416 0.0
H156 H 0.49494 0.2354 0.78207 0.0
H157 H 0.50246 0.16799 0.77476 0.0
H158 H 0.46987 0.15112 0.82595 0.0
H159 H 0.46078 0.15283 0.89536 0.0
C160 C 0.79529 0.46978 0.38485 0.0
C161 C 0.78515 0.49134 0.41261 0.0
C162 C 0.79368 0.47446 0.34511 0.0
C163 C 0.78164 0.50076 0.33219 0.0
C164 C 0.7712 0.52212 0.35989 0.0
C165 C 0.7728 0.51744 0.39967 0.0
C166 C 0.78147 0.50752 0.29065 0.0
C167 C 0.78259 0.48657 0.26031 0.0
C168 C 0.78449 0.49355 0.21918 0.0
C169 C 0.77492 0.47223 0.18849 0.0
C170 C 0.77736 0.47757 0.14943 0.0
C171 C 0.78975 0.50429 0.14027 0.0
H172 H 0.8056 0.53685 0.23281 0.0
C173 C 0.79953 0.52557 0.17099 0.0
C174 C 0.79702 0.52026 0.21002 0.0
H175 H 0.80939 0.5463 0.16495 0.0
H176 H 0.80514 0.44952 0.39387 0.0
H177 H 0.80284 0.4578 0.325 0.0
H178 H 0.76204 0.54268 0.35081 0.0
H179 H 0.76486 0.53454 0.42031 0.0
H180 H 0.7798 0.53066 0.28502 0.0
H181 H 0.78129 0.46332 0.26537 0.0
H182 H 0.76549 0.45134 0.19474 0.0
H183 H 0.76971 0.46065 0.12647 0.0
C184 C 0.49417 0.78124 0.88953 0.0
C185 C 0.51127 0.80231 0.91424 0.0
C186 C 0.49067 0.78346 0.84904 0.0
C187 C 0.50387 0.80705 0.83263 0.0
C188 C 0.52053 0.82831 0.85741 0.0
C189 C 0.52454 0.82577 0.89773 0.0
C190 C 0.49979 0.81059 0.79003 0.0
C191 C 0.49853 0.78739 0.76249 0.0
C192 C 0.49524 0.79098 0.71986 0.0
C193 C 0.50916 0.77089 0.69386 0.0
C194 C 0.50606 0.77339 0.65347 0.0
C195 C 0.48832 0.79561 0.63818 0.0
H196 H 0.46611 0.82882 0.7239 0.0
C197 C 0.47411 0.81555 0.66418 0.0
C198 C 0.47767 0.81339 0.70466 0.0
H199 H 0.4602 0.83283 0.65325 0.0
H200 H 0.4836 0.76299 0.90146 0.0
H201 H 0.47715 0.76707 0.83076 0.0
H202 H 0.53071 0.8468 0.84548 0.0
H203 H 0.53761 0.84251 0.91607 0.0
H204 H 0.49969 0.83299 0.78112 0.0
H205 H 0.50177 0.76513 0.77132 0.0
H206 H 0.52263 0.75331 0.70486 0.0
H207 H 0.51708 0.75752 0.63416 0.0
C208 C 0.81196 0.47575 0.66442 0.0
C209 C 0.80199 0.49755 0.6401 0.0
C210 C 0.81192 0.48092 0.70518 0.0
C211 C 0.80176 0.50799 0.72245 0.0
C212 C 0.79248 0.52999 0.69817 0.0
C213 C 0.79243 0.52479 0.65742 0.0
C214 C 0.80115 0.51431 0.76558 0.0
C215 C 0.79842 0.49297 0.78992 0.0
C216 C 0.79731 0.49914 0.83303 0.0
C217 C 0.78416 0.47803 0.85379 0.0
C218 C 0.78325 0.48263 0.89447 0.0
C219 C 0.79572 0.5084 0.91534 0.0
H220 H 0.82108 0.54132 0.83927 0.0
C221 C 0.80898 0.52953 0.89462 0.0
C222 C 0.80989 0.52492 0.85393 0.0
H223 H 0.81906 0.54948 0.90987 0.0
H224 H 0.81972 0.45462 0.65202 0.0
H225 H 0.82021 0.46379 0.72296 0.0
H226 H 0.78486 0.55114 0.71073 0.0
H227 H 0.78477 0.54213 0.63954 0.0
H228 H 0.80124 0.53744 0.77714 0.0
H229 H 0.79541 0.47008 0.77776 0.0
H230 H 0.77452 0.45788 0.83848 0.0
H231 H 0.77297 0.46584 0.90955 0.0
C232 C 0.52406 0.79877 0.16927 0.0
C233 C 0.50358 0.78865 0.138 0.0
C234 C 0.51781 0.79656 0.20811 0.0
C235 C 0.4909 0.78407 0.21663 0.0
C236 C 0.47041 0.77401 0.18541 0.0
C237 C 0.47674 0.77606 0.14649 0.0
C238 C 0.48293 0.7828 0.25767 0.0
C239 C 0.50323 0.78141 0.28826 0.0
C240 C 0.49582 0.78198 0.32977 0.0
C241 C 0.51625 0.77063 0.35724 0.0
C242 C 0.51112 0.7725 0.397 0.0
C243 C 0.48554 0.78612 0.41033 0.0
H244 H 0.45404 0.80499 0.32298 0.0
C245 C 0.46489 0.79724 0.38281 0.0
C246 C 0.46996 0.79524 0.34298 0.0
H247 H 0.44503 0.80801 0.39211 0.0
H248 H 0.54486 0.80877 0.16381 0.0
H249 H 0.53381 0.80545 0.23129 0.0
H250 H 0.4494 0.76457 0.19114 0.0
H251 H 0.4604 0.7682 0.12312 0.0
H252 H 0.45959 0.78219 0.26243 0.0
H253 H 0.52638 0.77908 0.28281 0.0
H254 H 0.53644 0.76051 0.34797 0.0
H255 H 0.52754 0.76377 0.41738 0.0
C256 C 0.17881 0.47262 0.87271 0.0
C257 C 0.19854 0.48632 0.90259 0.0
C258 C 0.18217 0.47654 0.83337 0.0
C259 C 0.2056 0.4939 0.82315 0.0
C260 C 0.22555 0.50721 0.85294 0.0
C261 C 0.22185 0.5038 0.89234 0.0
C262 C 0.21011 0.49771 0.7816 0.0
C263 C 0.18739 0.50057 0.75469 0.0
C264 C 0.1915 0.50491 0.7132 0.0
C265 C 0.17161 0.52283 0.69305 0.0
C266 C 0.17418 0.52657 0.65354 0.0
C267 C 0.19624 0.51178 0.63304 0.0
H268 H 0.22921 0.47597 0.70755 0.0
C269 C 0.21609 0.49365 0.65311 0.0
C270 C 0.21391 0.49043 0.69296 0.0
H271 H 0.23323 0.4819 0.63799 0.0
H272 H 0.16071 0.45892 0.87971 0.0
H273 H 0.16679 0.46546 0.81097 0.0
H274 H 0.24389 0.52051 0.84573 0.0
H275 H 0.23758 0.5144 0.91471 0.0
H276 H 0.23264 0.49996 0.77355 0.0
H277 H 0.16499 0.50145 0.76379 0.0
H278 H 0.15405 0.53402 0.70796 0.0
H279 H 0.15836 0.54045 0.63878 0.0
C280 C 0.48813 0.20757 0.39669 0.0
C281 C 0.51359 0.19591 0.41537 0.0
C282 C 0.4857 0.20929 0.35601 0.0
C283 C 0.50867 0.19917 0.333 0.0
C284 C 0.53411 0.18768 0.35179 0.0
C285 C 0.53653 0.18595 0.39238 0.0
C286 C 0.5074 0.20085 0.28967 0.0
C287 C 0.48203 0.2024 0.26674 0.0
C288 C 0.48072 0.20246 0.2232 0.0
C289 C 0.45461 0.19268 0.2011 0.0
C290 C 0.4524 0.19186 0.16018 0.0
C291 C 0.47617 0.20115 0.14022 0.0
H292 H 0.52457 0.22091 0.21931 0.0
C293 C 0.50211 0.21166 0.1623 0.0
C294 C 0.50438 0.21234 0.20335 0.0
H295 H 0.52076 0.21918 0.14788 0.0
H296 H 0.47017 0.21573 0.41353 0.0
H297 H 0.46606 0.21911 0.34304 0.0
H298 H 0.55224 0.1799 0.33498 0.0
H299 H 0.55654 0.17697 0.40574 0.0
H300 H 0.52818 0.19897 0.27605 0.0
H301 H 0.46108 0.20162 0.27983 0.0
H302 H 0.43592 0.18522 0.21551 0.0
H303 H 0.432 0.18379 0.1442 0.0
C304 C 0.91739 0.54234 0.04556 0.0
C305 C 0.89443 0.5211 0.04026 0.0
C306 C 0.9468 0.53375 0.04371 0.0
C307 C 0.95387 0.50366 0.03631 0.0
C308 C 0.93097 0.48241 0.03216 0.0
C309 C 0.90156 0.49101 0.03393 0.0
C310 C 0.98468 0.49339 0.03306 0.0
C311 C 0.00689 0.51058 0.02367 0.0
C312 C 0.03718 0.49928 0.01878 0.0
C313 C 0.06132 0.51909 0.02503 0.0
C314 C 0.09014 0.50896 0.02122 0.0
C315 C 0.09526 0.47882 0.01074 0.0
H316 H 0.02429 0.45354 1.00023 0.0
C317 C 0.07099 0.45922 1.00327 0.0
C318 C 0.04231 0.46931 0.00704 0.0
H319 H 0.07409 0.43592 0.99457 0.0
H320 H 0.91268 0.56572 0.05089 0.0
H321 H 0.96376 0.55078 0.04847 0.0
H322 H 0.9358 0.45905 0.02682 0.0
H323 H 0.88443 0.47407 0.02991 0.0
H324 H 0.98884 0.47034 0.03762 0.0
H325 H 0.00313 0.53374 0.01953 0.0
H326 H 0.05793 0.54237 0.03354 0.0
H327 H 0.10836 0.52464 0.02699 0.0
C328 C 0.46287 0.91837 0.51991 0.0
C329 C 0.48245 0.89484 0.52497 0.0
C330 C 0.47342 0.94726 0.51978 0.0
C331 C 0.50391 0.95351 0.52529 0.0
C332 C 0.52357 0.92995 0.52972 0.0
C333 C 0.51297 0.90088 0.52968 0.0
C334 C 0.51581 0.98413 0.52513 0.0
C335 C 0.49991 0.00849 0.53455 0.0
C336 C 0.51037 0.03943 0.53294 0.0
C337 C 0.48921 0.06191 0.53153 0.0
C338 C 0.49774 0.09143 0.53053 0.0
C339 C 0.52775 0.09923 0.53125 0.0
H340 H 0.55759 0.03081 0.53584 0.0
C341 C 0.54902 0.07681 0.53281 0.0
C342 C 0.54047 0.04722 0.53372 0.0
H343 H 0.57236 0.08211 0.5337 0.0
H344 H 0.43923 0.91449 0.51558 0.0
H345 H 0.45749 0.96441 0.51453 0.0
H346 H 0.54718 0.93407 0.53351 0.0
H347 H 0.52864 0.88321 0.5334 0.0
H348 H 0.53826 0.98635 0.51702 0.0
H349 H 0.47767 0.00592 0.54333 0.0
H350 H 0.46589 0.05662 0.53109 0.0
H351 H 0.48077 0.10813 0.52949 0.0
C352 C 0.07556 0.53822 0.51366 0.0
C353 C 0.09824 0.51722 0.51296 0.0
C354 C 0.04622 0.5294 0.51501 0.0
C355 C 0.0388 0.49924 0.51523 0.0
C356 C 0.0615 0.47826 0.51453 0.0
C357 C 0.09091 0.48711 0.5133 0.0
C358 C 0.00796 0.48891 0.51787 0.0
C359 C 0.98395 0.50483 0.5079 0.0
C360 C 0.95316 0.49494 0.51167 0.0
C361 C 0.93102 0.51639 0.51458 0.0
C362 C 0.90171 0.50812 0.51783 0.0
C363 C 0.89388 0.47811 0.5179 0.0
H364 H 0.96141 0.44751 0.50792 0.0
C365 C 0.91598 0.45659 0.51464 0.0
C366 C 0.94528 0.46486 0.51142 0.0
H367 H 0.91065 0.43324 0.51419 0.0
H368 H 0.08046 0.56164 0.51389 0.0
H369 H 0.02973 0.5465 0.51693 0.0
H370 H 0.05648 0.45491 0.515 0.0
H371 H 0.10789 0.47038 0.51296 0.0
H372 H 0.00522 0.46736 0.52857 0.0
H373 H 0.98661 0.52636 0.49717 0.0
H374 H 0.93642 0.53969 0.51454 0.0
H375 H 0.8852 0.52525 0.52009 0.0
C376 C 0.53306 0.92076 0.05428 0.0
C377 C 0.51378 0.8964 0.0446 0.0
C378 C 0.52276 0.94962 0.05298 0.0
C379 C 0.49293 0.95478 0.04163 0.0
C380 C 0.47341 0.93051 0.0335 0.0
C381 C 0.48373 0.90156 0.03478 0.0
C382 C 0.48152 0.98515 0.03836 0.0
C383 C 0.4985 0.00765 0.02944 0.0
C384 C 0.48769 0.03824 0.02599 0.0
C385 C 0.50839 0.06164 0.02999 0.0
C386 C 0.49924 0.09082 0.0273 0.0
C387 C 0.46915 0.09718 0.02024 0.0
H388 H 0.44102 0.02716 0.0133 0.0
C389 C 0.44848 0.07371 0.01533 0.0
C390 C 0.45762 0.04455 0.01803 0.0
H391 H 0.42514 0.07782 0.00944 0.0
H392 H 0.55627 0.91759 0.06254 0.0
H393 H 0.53826 0.96774 0.06111 0.0
H394 H 0.45024 0.93393 0.02523 0.0
H395 H 0.46828 0.88326 0.02738 0.0
H396 H 0.45832 0.98861 0.04261 0.0
H397 H 0.52162 0.00381 0.02487 0.0
H398 H 0.53172 0.05738 0.03572 0.0
H399 H 0.51575 0.10837 0.03106 0.0
C400 C 0.26883 0.39684 0.00886 0.0
C401 C 0.23894 0.38868 1.00059 0.0
C402 C 0.2909 0.37543 0.00621 0.0
C403 C 0.28337 0.34549 0.99511 0.0
C404 C 0.25357 0.33761 0.98606 0.0
C405 C 0.2316 0.35886 0.98899 0.0
C406 C 0.30553 0.3216 0.99253 0.0
C407 C 0.33227 0.32293 0.01259 0.0
C408 C 0.35213 0.297 0.01281 0.0
C409 C 0.3828 0.30153 0.01885 0.0
C410 C 0.40186 0.27737 0.01971 0.0
C411 C 0.3905 0.24824 0.01497 0.0
H412 H 0.31728 0.26339 0.00571 0.0
C413 C 0.35978 0.24379 0.00961 0.0
C414 C 0.34081 0.26784 0.00874 0.0
H415 H 0.35026 0.22167 0.00636 0.0
H416 H 0.27517 0.4197 0.01756 0.0
H417 H 0.31368 0.38252 0.01242 0.0
H418 H 0.24716 0.31476 0.97723 0.0
H419 H 0.20881 0.35184 0.98208 0.0
H420 H 0.29867 0.30132 0.9747 0.0
H421 H 0.33983 0.34318 0.0299 0.0
H422 H 0.39203 0.32378 0.02262 0.0
H423 H 0.42544 0.28153 0.02416 0.0
C424 C 0.73806 0.37676 0.50538 0.0
C425 C 0.74105 0.40439 0.52746 0.0
C426 C 0.71466 0.35777 0.51025 0.0
C427 C 0.69428 0.36583 0.538 0.0
C428 C 0.69722 0.39346 0.56007 0.0
C429 C 0.72016 0.41288 0.55431 0.0
C430 C 0.67135 0.34456 0.54611 0.0
C431 C 0.65564 0.32817 0.51707 0.0
C432 C 0.6356 0.30407 0.52481 0.0
C433 C 0.60821 0.30016 0.50305 0.0
C434 C 0.59 0.27609 0.50794 0.0
C435 C 0.59946 0.255 0.53359 0.0
H436 H 0.666 0.28577 0.56797 0.0
C437 C 0.62688 0.25892 0.55538 0.0
C438 C 0.64467 0.28349 0.55141 0.0
H439 H 0.63463 0.24288 0.57527 0.0
H440 H 0.75397 0.36974 0.48457 0.0
H441 H 0.71317 0.33632 0.49339 0.0
H442 H 0.68187 0.39992 0.58185 0.0
H443 H 0.72225 0.434 0.57194 0.0
H444 H 0.66741 0.34226 0.57653 0.0
H445 H 0.65755 0.33247 0.48672 0.0
H446 H 0.60101 0.31564 0.48211 0.0
H447 H 0.56904 0.27334 0.49054 0.0
C448 C 0.7466 0.62875 0.04406 0.0
C449 C 0.74235 0.59805 0.03563 0.0
C450 C 0.72264 0.64782 0.04338 0.0
C451 C 0.69375 0.63672 0.03372 0.0
C452 C 0.68934 0.60598 0.0263 0.0
C453 C 0.71344 0.58677 0.02706 0.0
C454 C 0.66799 0.65682 0.03249 0.0
C455 C 0.67036 0.68486 0.02301 0.0
C456 C 0.64652 0.7071 0.02523 0.0
C457 C 0.65476 0.73713 0.02838 0.0
C458 C 0.63356 0.75918 0.03112 0.0
C459 C 0.60344 0.75176 0.03029 0.0
H460 H 0.60903 0.67662 0.02073 0.0
C461 C 0.59499 0.72169 0.02651 0.0
C462 C 0.61634 0.69951 0.02406 0.0
H463 H 0.57192 0.7153 0.02553 0.0
H464 H 0.76851 0.63817 0.05142 0.0
H465 H 0.7269 0.67122 0.05106 0.0
H466 H 0.66727 0.59684 0.01939 0.0
H467 H 0.70943 0.56318 0.02071 0.0
H468 H 0.647 0.64825 0.03989 0.0
H469 H 0.69143 0.69262 0.01467 0.0
H470 H 0.6778 0.74364 0.02917 0.0
H471 H 0.64086 0.78211 0.03373 0.0
C472 C 0.39885 0.72048 0.52206 0.0
C473 C 0.39093 0.75042 0.52173 0.0
C474 C 0.37733 0.69868 0.52475 0.0
C475 C 0.34751 0.70655 0.52725 0.0
C476 C 0.33978 0.73646 0.52697 0.0
C477 C 0.36113 0.75809 0.52402 0.0
C478 C 0.32361 0.68482 0.53098 0.0
C479 C 0.32473 0.65562 0.51957 0.0
C480 C 0.29888 0.63552 0.52048 0.0
C481 C 0.30338 0.60521 0.52394 0.0
C482 C 0.2793 0.58587 0.5244 0.0
C483 C 0.25025 0.59654 0.52111 0.0
H484 H 0.26516 0.66887 0.51193 0.0
C485 C 0.24581 0.62678 0.51708 0.0
C486 C 0.26975 0.64598 0.51646 0.0
H487 H 0.22374 0.63569 0.51384 0.0
H488 H 0.42168 0.71391 0.52061 0.0
H489 H 0.38429 0.67595 0.52572 0.0
H490 H 0.31702 0.74319 0.52894 0.0
H491 H 0.35421 0.78094 0.52403 0.0
H492 H 0.3036 0.69382 0.54255 0.0
H493 H 0.34478 0.64603 0.5089 0.0
H494 H 0.32556 0.5965 0.52652 0.0
H495 H 0.28345 0.56263 0.52726 0.0
loop_
_geom_bond_atom_site_label_1
_geom_bond_atom_site_label_2
_geom_bond_distance
_geom_bond_site_symmetry_2
_ccdc_geom_bond_type
C0 O2 1.247 . S
C0 O4 1.258 . S
C1 O8 1.247 . S
C1 O9 1.258 . S
O2 C0 1.247 . S
O2 Zn3 2.028 . S
Zn3 O2 2.028 . S
Zn3 O7 2.035 . S
Zn3 O9 2.035 . S
Zn3 O10 2.028 1_554 S
O4 C0 1.258 . S
O4 Zn5 2.035 . S
Zn5 O4 2.035 . S
Zn5 O6 2.028 . S
Zn5 O8 2.028 . S
Zn5 O11 2.035 1_554 S
O6 Zn5 2.028 . S
O6 C12 1.247 . S
O7 Zn3 2.035 . S
O7 C12 1.258 . S
O8 C1 1.247 . S
O8 Zn5 2.028 . S
O9 C1 1.258 . S
O9 Zn3 2.035 . S
O10 Zn3 2.028 1_556 S
O10 C13 1.247 . S
O11 Zn5 2.035 1_556 S
O11 C13 1.258 . S
C12 O6 1.247 . S
C12 O7 1.258 . S
C13 O10 1.247 . S
C13 O11 1.258 . S
C14 O16 1.247 . S
C14 O18 1.258 . S
C15 O22 1.247 . S
C15 O23 1.258 . S
O16 C14 1.247 . S
O16 Zn17 2.028 . S
Zn17 O16 2.028 . S
Zn17 O21 2.035 . S
Zn17 O23 2.035 . S
Zn17 O24 2.028 . S
O18 C14 1.258 . S
O18 Zn19 2.035 . S
Zn19 O18 2.035 . S
Zn19 O20 2.028 . S
Zn19 O22 2.028 . S
Zn19 O25 2.035 . S
O20 Zn19 2.028 . S
O20 C26 1.247 . S
O21 Zn17 2.035 . S
O21 C26 1.258 . S
O22 C15 1.247 . S
O22 Zn19 2.028 . S
O23 C15 1.258 . S
O23 Zn17 2.035 . S
O24 Zn17 2.028 . S
O24 C27 1.247 . S
O25 Zn19 2.035 . S
O25 C27 1.258 . S
C26 O20 1.247 . S
C26 O21 1.258 . S
C27 O24 1.247 . S
C27 O25 1.258 . S
C28 O30 1.247 . S
C28 O32 1.258 . S
C29 O36 1.247 . S
C29 O37 1.258 . S
O30 C28 1.247 . S
O30 Zn31 2.028 . S
Zn31 O30 2.028 . S
Zn31 O35 2.035 . S
Zn31 O37 2.035 . S
Zn31 O38 2.028 1_554 S
O32 C28 1.258 . S
O32 Zn33 2.035 . S
Zn33 O32 2.035 . S
Zn33 O34 2.028 . S
Zn33 O36 2.028 . S
Zn33 O39 2.035 1_554 S
O34 Zn33 2.028 . S
O34 C40 1.247 . S
O35 Zn31 2.035 . S
O35 C40 1.258 . S
O36 C29 1.247 . S
O36 Zn33 2.028 . S
O37 C29 1.258 . S
O37 Zn31 2.035 . S
O38 Zn31 2.028 1_556 S
O38 C41 1.247 . S
O39 Zn33 2.035 1_556 S
O39 C41 1.258 . S
C40 O34 1.247 . S
C40 O35 1.258 . S
C41 O38 1.247 . S
C41 O39 1.258 . S
C42 O44 1.247 . S
C42 O46 1.258 . S
C43 O50 1.247 . S
C43 O51 1.258 . S
O44 C42 1.247 . S
O44 Zn45 2.028 . S
Zn45 O44 2.028 . S
Zn45 O49 2.035 . S
Zn45 O51 2.035 . S
Zn45 O52 2.028 . S
O46 C42 1.258 . S
O46 Zn47 2.035 . S
Zn47 O46 2.035 . S
Zn47 O48 2.028 . S
Zn47 O50 2.028 . S
Zn47 O53 2.035 . S
O48 Zn47 2.028 . S
O48 C54 1.247 . S
O49 Zn45 2.035 . S
O49 C54 1.258 . S
O50 C43 1.247 . S
O50 Zn47 2.028 . S
O51 C43 1.258 . S
O51 Zn45 2.035 . S
O52 Zn45 2.028 . S
O52 C55 1.247 . S
O53 Zn47 2.035 . S
O53 C55 1.258 . S
C54 O48 1.247 . S
C54 O49 1.258 . S
C55 O52 1.247 . S
C55 O53 1.258 . S
C56 O58 1.247 . S
C56 O60 1.258 . S
C57 O64 1.247 . S
C57 O65 1.258 . S
O58 C56 1.247 . S
O58 Zn59 2.028 . S
Zn59 O58 2.028 . S
Zn59 O63 2.035 . S
Zn59 O65 2.035 . S
Zn59 O66 2.028 . S
O60 C56 1.258 . S
O60 Zn61 2.035 . S
Zn61 O60 2.035 . S
Zn61 O62 2.028 . S
Zn61 O64 2.028 . S
Zn61 O67 2.035 . S
O62 Zn61 2.028 . S
O62 C68 1.247 . S
O63 Zn59 2.035 . S
O63 C68 1.258 . S
O64 C57 1.247 . S
O64 Zn61 2.028 . S
O65 C57 1.258 . S
O65 Zn59 2.035 . S
O66 Zn59 2.028 . S
O66 C69 1.247 . S
O67 Zn61 2.035 . S
O67 C69 1.258 . S
C68 O62 1.247 . S
C68 O63 1.258 . S
C69 O66 1.247 . S
C69 O67 1.258 . S
C70 O72 1.247 . S
C70 O74 1.258 . S
C71 O78 1.247 . S
C71 O79 1.258 . S
O72 C70 1.247 . S
O72 Zn73 2.028 . S
Zn73 O72 2.028 . S
Zn73 O77 2.035 . S
Zn73 O79 2.035 . S
Zn73 O80 2.028 1_554 S
O74 C70 1.258 . S
O74 Zn75 2.035 . S
Zn75 O74 2.035 . S
Zn75 O76 2.028 . S
Zn75 O78 2.028 . S
Zn75 O81 2.035 1_554 S
O76 Zn75 2.028 . S
O76 C82 1.247 . S
O77 Zn73 2.035 . S
O77 C82 1.258 . S
O78 C71 1.247 . S
O78 Zn75 2.028 . S
O79 C71 1.258 . S
O79 Zn73 2.035 . S
O80 Zn73 2.028 1_556 S
O80 C83 1.247 . S
O81 Zn75 2.035 1_556 S
O81 C83 1.258 . S
C82 O76 1.247 . S
C82 O77 1.258 . S
C83 O80 1.247 . S
C83 O81 1.258 . S
C84 O86 1.247 . S
C84 O88 1.258 . S
C85 O92 1.247 . S
C85 O93 1.258 . S
O86 C84 1.247 . S
O86 Zn87 2.028 . S
Zn87 O86 2.028 . S
Zn87 O91 2.035 . S
Zn87 O93 2.035 . S
Zn87 O94 2.028 . S
O88 C84 1.258 . S
O88 Zn89 2.035 . S
Zn89 O88 2.035 . S
Zn89 O90 2.028 . S
Zn89 O92 2.028 . S
Zn89 O95 2.035 . S
O90 Zn89 2.028 . S
O90 C96 1.247 . S
O91 Zn87 2.035 . S
O91 C96 1.258 . S
O92 C85 1.247 . S
O92 Zn89 2.028 . S
O93 C85 1.258 . S
O93 Zn87 2.035 . S
O94 Zn87 2.028 . S
O94 C97 1.247 . S
O95 Zn89 2.035 . S
O95 C97 1.258 . S
C96 O90 1.247 . S
C96 O91 1.258 . S
C97 O94 1.247 . S
C97 O95 1.258 . S
C98 O100 1.247 . S
C98 O102 1.258 . S
C99 O106 1.247 . S
C99 O107 1.258 . S
O100 C98 1.247 . S
O100 Zn101 2.028 . S
Zn101 O100 2.028 . S
Zn101 O105 2.035 1_554 S
Zn101 O107 2.035 . S
Zn101 O108 2.028 . S
O102 C98 1.258 . S
O102 Zn103 2.035 . S
Zn103 O102 2.035 . S
Zn103 O104 2.028 1_554 S
Zn103 O106 2.028 . S
Zn103 O109 2.035 . S
O104 Zn103 2.028 1_556 S
O104 C110 1.247 . S
O105 Zn101 2.035 1_556 S
O105 C110 1.258 . S
O106 C99 1.247 . S
O106 Zn103 2.028 . S
O107 C99 1.258 . S
O107 Zn101 2.035 . S
O108 Zn101 2.028 . S
O108 C111 1.247 . S
O109 Zn103 2.035 . S
O109 C111 1.258 . S
C110 O104 1.247 . S
C110 O105 1.258 . S
C111 O108 1.247 . S
C111 O109 1.258 . S
C112 C113 1.386 . S
C112 C114 1.383 . S
C112 H128 0.951 . S
C113 C112 1.386 . S
C113 C117 1.383 . S
C114 C112 1.383 . S
C114 C115 1.402 . S
C114 H129 0.951 . S
C115 C114 1.402 . S
C115 C116 1.375 . S
C115 C118 1.481 . S
C116 C115 1.375 . S
C116 C117 1.367 . S
C116 H130 0.951 . S
C117 C113 1.383 . S
C117 C116 1.367 . S
C117 H131 0.950 . S
C118 C115 1.481 . S
C118 C119 1.297 . S
C118 H132 0.950 . S
C119 C118 1.297 . S
C119 C120 1.479 . S
C119 H133 0.950 . S
C120 C119 1.479 . S
C120 C121 1.375 . S
C120 C126 1.404 . S
C121 C120 1.375 . S
C121 C122 1.369 . S
C121 H134 0.950 . S
C122 C121 1.369 . S
C122 C123 1.392 . S
C122 H135 0.951 . S
C123 C122 1.392 . S
C123 C125 1.384 . S
H124 C126 0.949 . S
C125 C123 1.384 . S
C125 C126 1.385 . S
C125 H127 0.950 . S
C126 C120 1.404 . S
C126 H124 0.949 . S
C126 C125 1.385 . S
H127 C125 0.950 . S
H128 C112 0.951 . S
H129 C114 0.951 . S
H130 C116 0.951 . S
H131 C117 0.950 . S
H132 C118 0.950 . S
H133 C119 0.950 . S
H134 C121 0.950 . S
H135 C122 0.951 . S
C136 C137 1.386 . S
C136 C138 1.383 . S
C136 H152 0.951 . S
C137 C136 1.386 . S
C137 C141 1.383 . S
C138 C136 1.383 . S
C138 C139 1.402 . S
C138 H153 0.951 . S
C139 C138 1.402 . S
C139 C140 1.375 . S
C139 C142 1.481 . S
C140 C139 1.375 . S
C140 C141 1.367 . S
C140 H154 0.951 . S
C141 C137 1.383 . S
C141 C140 1.367 . S
C141 H155 0.950 . S
C142 C139 1.481 . S
C142 C143 1.297 . S
C142 H156 0.950 . S
C143 C142 1.297 . S
C143 C144 1.479 . S
C143 H157 0.950 . S
C144 C143 1.479 . S
C144 C145 1.375 . S
C144 C150 1.404 . S
C145 C144 1.375 . S
C145 C146 1.369 . S
C145 H158 0.950 . S
C146 C145 1.369 . S
C146 C147 1.392 . S
C146 H159 0.951 . S
C147 C146 1.392 . S
C147 C149 1.384 . S
H148 C150 0.949 . S
C149 C147 1.384 . S
C149 C150 1.385 . S
C149 H151 0.950 . S
C150 C144 1.404 . S
C150 H148 0.949 . S
C150 C149 1.385 . S
H151 C149 0.950 . S
H152 C136 0.951 . S
H153 C138 0.951 . S
H154 C140 0.951 . S
H155 C141 0.950 . S
H156 C142 0.950 . S
H157 C143 0.950 . S
H158 C145 0.950 . S
H159 C146 0.951 . S
C160 C161 1.386 . S
C160 C162 1.383 . S
C160 H176 0.951 . S
C161 C160 1.386 . S
C161 C165 1.383 . S
C162 C160 1.383 . S
C162 C163 1.402 . S
C162 H177 0.951 . S
C163 C162 1.402 . S
C163 C164 1.375 . S
C163 C166 1.481 . S
C164 C163 1.375 . S
C164 C165 1.367 . S
C164 H178 0.951 . S
C165 C161 1.383 . S
C165 C164 1.367 . S
C165 H179 0.950 . S
C166 C163 1.481 . S
C166 C167 1.297 . S
C166 H180 0.950 . S
C167 C166 1.297 . S
C167 C168 1.479 . S
C167 H181 0.950 . S
C168 C167 1.479 . S
C168 C169 1.375 . S
C168 C174 1.404 . S
C169 C168 1.375 . S
C169 C170 1.369 . S
C169 H182 0.950 . S
C170 C169 1.369 . S
C170 C171 1.392 . S
C170 H183 0.951 . S
C171 C170 1.392 . S
C171 C173 1.384 . S
H172 C174 0.949 . S
C173 C171 1.384 . S
C173 C174 1.385 . S
C173 H175 0.950 . S
C174 C168 1.404 . S
C174 H172 0.949 . S
C174 C173 1.385 . S
H175 C173 0.950 . S
H176 C160 0.951 . S
H177 C162 0.951 . S
H178 C164 0.951 . S
H179 C165 0.950 . S
H180 C166 0.950 . S
H181 C167 0.950 . S
H182 C169 0.950 . S
H183 C170 0.951 . S
C184 C185 1.386 . S
C184 C186 1.383 . S
C184 H200 0.951 . S
C185 C184 1.386 . S
C185 C189 1.383 . S
C186 C184 1.383 . S
C186 C187 1.402 . S
C186 H201 0.951 . S
C187 C186 1.402 . S
C187 C188 1.375 . S
C187 C190 1.481 . S
C188 C187 1.375 . S
C188 C189 1.367 . S
C188 H202 0.951 . S
C189 C185 1.383 . S
C189 C188 1.367 . S
C189 H203 0.950 . S
C190 C187 1.481 . S
C190 C191 1.297 . S
C190 H204 0.950 . S
C191 C190 1.297 . S
C191 C192 1.479 . S
C191 H205 0.950 . S
C192 C191 1.479 . S
C192 C193 1.375 . S
C192 C198 1.404 . S
C193 C192 1.375 . S
C193 C194 1.369 . S
C193 H206 0.950 . S
C194 C193 1.369 . S
C194 C195 1.392 . S
C194 H207 0.951 . S
C195 C194 1.392 . S
C195 C197 1.384 . S
H196 C198 0.949 . S
C197 C195 1.384 . S
C197 C198 1.385 . S
C197 H199 0.950 . S
C198 C192 1.404 . S
C198 H196 0.949 . S
C198 C197 1.385 . S
H199 C197 0.950 . S
H200 C184 0.951 . S
H201 C186 0.951 . S
H202 C188 0.951 . S
H203 C189 0.950 . S
H204 C190 0.950 . S
H205 C191 0.950 . S
H206 C193 0.950 . S
H207 C194 0.951 . S
C208 C209 1.386 . S
C208 C210 1.383 . S
C208 H224 0.951 . S
C209 C208 1.386 . S
C209 C213 1.383 . S
C210 C208 1.383 . S
C210 C211 1.402 . S
C210 H225 0.951 . S
C211 C210 1.402 . S
C211 C212 1.375 . S
C211 C214 1.481 . S
C212 C211 1.375 . S
C212 C213 1.367 . S
C212 H226 0.951 . S
C213 C209 1.383 . S
C213 C212 1.367 . S
C213 H227 0.950 . S
C214 C211 1.481 . S
C214 C215 1.297 . S
C214 H228 0.950 . S
C215 C214 1.297 . S
C215 C216 1.479 . S
C215 H229 0.950 . S
C216 C215 1.479 . S
C216 C217 1.375 . S
C216 C222 1.404 . S
C217 C216 1.375 . S
C217 C218 1.369 . S
C217 H230 0.950 . S
C218 C217 1.369 . S
C218 C219 1.392 . S
C218 H231 0.951 . S
C219 C218 1.392 . S
C219 C221 1.384 . S
H220 C222 0.949 . S
C221 C219 1.384 . S
C221 C222 1.385 . S
C221 H223 0.950 . S
C222 C216 1.404 . S
C222 H220 0.949 . S
C222 C221 1.385 . S
H223 C221 0.950 . S
H224 C208 0.951 . S
H225 C210 0.951 . S
H226 C212 0.951 . S
H227 C213 0.950 . S
H228 C214 0.950 . S
H229 C215 0.950 . S
H230 C217 0.950 . S
H231 C218 0.951 . S
C232 C233 1.386 . S
C232 C234 1.383 . S
C232 H248 0.951 . S
C233 C232 1.386 . S
C233 C237 1.383 . S
C234 C232 1.383 . S
C234 C235 1.402 . S
C234 H249 0.951 . S
C235 C234 1.402 . S
C235 C236 1.375 . S
C235 C238 1.481 . S
C236 C235 1.375 . S
C236 C237 1.367 . S
C236 H250 0.951 . S
C237 C233 1.383 . S
C237 C236 1.367 . S
C237 H251 0.950 . S
C238 C235 1.481 . S
C238 C239 1.297 . S
C238 H252 0.950 . S
C239 C238 1.297 . S
C239 C240 1.479 . S
C239 H253 0.950 . S
C240 C239 1.479 . S
C240 C241 1.375 . S
C240 C246 1.404 . S
C241 C240 1.375 . S
C241 C242 1.369 . S
C241 H254 0.950 . S
C242 C241 1.369 . S
C242 C243 1.392 . S
C242 H255 0.951 . S
C243 C242 1.392 . S
C243 C245 1.384 . S
H244 C246 0.949 . S
C245 C243 1.384 . S
C245 C246 1.385 . S
C245 H247 0.950 . S
C246 C240 1.404 . S
C246 H244 0.949 . S
C246 C245 1.385 . S
H247 C245 0.950 . S
H248 C232 0.951 . S
H249 C234 0.951 . S
H250 C236 0.951 . S
H251 C237 0.950 . S
H252 C238 0.950 . S
H253 C239 0.950 . S
H254 C241 0.950 . S
H255 C242 0.951 . S
C256 C257 1.386 . S
C256 C258 1.383 . S
C256 H272 0.951 . S
C257 C256 1.386 . S
C257 C261 1.383 . S
C258 C256 1.383 . S
C258 C259 1.402 . S
C258 H273 0.951 . S
C259 C258 1.402 . S
C259 C260 1.375 . S
C259 C262 1.481 . S
C260 C259 1.375 . S
C260 C261 1.367 . S
C260 H274 0.951 . S
C261 C257 1.383 . S
C261 C260 1.367 . S
C261 H275 0.950 . S
C262 C259 1.481 . S
C262 C263 1.297 . S
C262 H276 0.950 . S
C263 C262 1.297 . S
C263 C264 1.479 . S
C263 H277 0.950 . S
C264 C263 1.479 . S
C264 C265 1.375 . S
C264 C270 1.404 . S
C265 C264 1.375 . S
C265 C266 1.369 . S
C265 H278 0.950 . S
C266 C265 1.369 . S
C266 C267 1.392 . S
C266 H279 0.951 . S
C267 C266 1.392 . S
C267 C269 1.384 . S
H268 C270 0.949 . S
C269 C267 1.384 . S
C269 C270 1.385 . S
C269 H271 0.950 . S
C270 C264 1.404 . S
C270 H268 0.949 . S
C270 C269 1.385 . S
H271 C269 0.950 . S
H272 C256 0.951 . S
H273 C258 0.951 . S
H274 C260 0.951 . S
H275 C261 0.950 . S
H276 C262 0.950 . S
H277 C263 0.950 . S
H278 C265 0.950 . S
H279 C266 0.951 . S
C280 C281 1.386 . S
C280 C282 1.383 . S
C280 H296 0.951 . S
C281 C280 1.386 . S
C281 C285 1.383 . S
C282 C280 1.383 . S
C282 C283 1.402 . S
C282 H297 0.951 . S
C283 C282 1.402 . S
C283 C284 1.375 . S
C283 C286 1.481 . S
C284 C283 1.375 . S
C284 C285 1.367 . S
C284 H298 0.951 . S
C285 C281 1.383 . S
C285 C284 1.367 . S
C285 H299 0.950 . S
C286 C283 1.481 . S
C286 C287 1.297 . S
C286 H300 0.950 . S
C287 C286 1.297 . S
C287 C288 1.479 . S
C287 H301 0.950 . S
C288 C287 1.479 . S
C288 C289 1.375 . S
C288 C294 1.404 . S
C289 C288 1.375 . S
C289 C290 1.369 . S
C289 H302 0.950 . S
C290 C289 1.369 . S
C290 C291 1.392 . S
C290 H303 0.951 . S
C291 C290 1.392 . S
C291 C293 1.384 . S
H292 C294 0.949 . S
C293 C291 1.384 . S
C293 C294 1.385 . S
C293 H295 0.950 . S
C294 C288 1.404 . S
C294 H292 0.949 . S
C294 C293 1.385 . S
H295 C293 0.950 . S
H296 C280 0.951 . S
H297 C282 0.951 . S
H298 C284 0.951 . S
H299 C285 0.950 . S
H300 C286 0.950 . S
H301 C287 0.950 . S
H302 C289 0.950 . S
H303 C290 0.951 . S
C304 C305 1.386 1_556 S
C304 C306 1.383 . S
C304 H320 0.951 . S
C305 C304 1.386 1_554 S
C305 C309 1.383 . S
C306 C304 1.383 . S
C306 C307 1.402 1_556 S
C306 H321 0.951 . S
C307 C306 1.402 1_554 S
C307 C308 1.375 . S
C307 C310 1.481 . S
C308 C307 1.375 . S
C308 C309 1.367 . S
C308 H322 0.951 . S
C309 C305 1.383 . S
C309 C308 1.367 . S
C309 H323 0.950 . S
C310 C307 1.481 . S
C310 C311 1.297 1_655 S
C310 H324 0.950 1_655 S
C311 C310 1.297 1_455 S
C311 C312 1.479 . S
C311 H325 0.950 1_454 S
C312 C311 1.479 . S
C312 C313 1.375 1_554 S
C312 C318 1.404 . S
C313 C312 1.375 1_556 S
C313 C314 1.369 . S
C313 H326 0.950 . S
C314 C313 1.369 . S
C314 C315 1.392 1_556 S
C314 H327 0.951 . S
C315 C314 1.392 1_554 S
C315 C317 1.384 . S
H316 C318 0.949 . S
C317 C315 1.384 . S
C317 C318 1.385 . S
C317 H319 0.950 . S
C318 C312 1.404 . S
C318 H316 0.949 . S
C318 C317 1.385 . S
H319 C317 0.950 . S
H320 C304 0.951 . S
H321 C306 0.951 . S
H322 C308 0.951 . S
H323 C309 0.950 . S
H324 C310 0.950 1_455 S
H325 C311 0.950 1_656 S
H326 C313 0.950 . S
H327 C314 0.951 . S
C328 C329 1.386 . S
C328 C330 1.383 . S
C328 H344 0.951 . S
C329 C328 1.386 . S
C329 C333 1.383 . S
C330 C328 1.383 . S
C330 C331 1.402 . S
C330 H345 0.951 . S
C331 C330 1.402 . S
C331 C332 1.375 . S
C331 C334 1.481 . S
C332 C331 1.375 . S
C332 C333 1.367 . S
C332 H346 0.951 . S
C333 C329 1.383 . S
C333 C332 1.367 . S
C333 H347 0.950 . S
C334 C331 1.481 . S
C334 C335 1.297 1_565 S
C334 H348 0.950 1_565 S
C335 C334 1.297 1_545 S
C335 C336 1.479 . S
C335 H349 0.940 1_545 S
C336 C335 1.479 . S
C336 C337 1.375 . S
C336 C342 1.404 . S
C337 C336 1.375 . S
C337 C338 1.369 . S
C337 H350 0.950 . S
C338 C337 1.369 . S
C338 C339 1.392 . S
C338 H351 0.951 . S
C339 C338 1.392 . S
C339 C341 1.384 . S
H340 C342 0.949 . S
C341 C339 1.384 . S
C341 C342 1.385 . S
C341 H343 0.950 . S
C342 C336 1.404 . S
C342 H340 0.949 . S
C342 C341 1.385 . S
H343 C341 0.950 . S
H344 C328 0.951 . S
H345 C330 0.951 . S
H346 C332 0.951 . S
H347 C333 0.950 . S
H348 C334 0.950 1_545 S
H349 C335 0.940 1_565 S
H350 C337 0.950 . S
H351 C338 0.951 . S
C352 C353 1.386 . S
C352 C354 1.383 . S
C352 H368 0.951 . S
C353 C352 1.386 . S
C353 C357 1.383 . S
C354 C352 1.383 . S
C354 C355 1.402 . S
C354 H369 0.951 . S
C355 C354 1.402 . S
C355 C356 1.375 . S
C355 C358 1.481 . S
C356 C355 1.375 . S
C356 C357 1.367 . S
C356 H370 0.951 . S
C357 C353 1.383 . S
C357 C356 1.367 . S
C357 H371 0.950 . S
C358 C355 1.481 . S
C358 C359 1.297 1_455 S
C358 H372 0.950 . S
C359 C358 1.297 1_655 S
C359 C360 1.479 . S
C359 H373 0.950 . S
C360 C359 1.479 . S
C360 C361 1.375 . S
C360 C366 1.404 . S
C361 C360 1.375 . S
C361 C362 1.369 . S
C361 H374 0.950 . S
C362 C361 1.369 . S
C362 C363 1.392 . S
C362 H375 0.951 . S
C363 C362 1.392 . S
C363 C365 1.384 . S
H364 C366 0.949 . S
C365 C363 1.384 . S
C365 C366 1.385 . S
C365 H367 0.950 . S
C366 C360 1.404 . S
C366 H364 0.949 . S
C366 C365 1.385 . S
H367 C365 0.950 . S
H368 C352 0.951 . S
H369 C354 0.951 . S
H370 C356 0.951 . S
H371 C357 0.950 . S
H372 C358 0.950 . S
H373 C359 0.950 . S
H374 C361 0.950 . S
H375 C362 0.951 . S
C376 C377 1.386 . S
C376 C378 1.383 . S
C376 H392 0.951 . S
C377 C376 1.386 . S
C377 C381 1.383 1_554 S
C378 C376 1.383 . S
C378 C379 1.402 . S
C378 H393 0.951 . S
C379 C378 1.402 . S
C379 C380 1.375 1_554 S
C379 C382 1.481 1_554 S
C380 C379 1.375 1_556 S
C380 C381 1.367 . S
C380 H394 0.951 . S
C381 C377 1.383 1_556 S
C381 C380 1.367 . S
C381 H395 0.950 . S
C382 C379 1.481 1_556 S
C382 C383 1.297 1_566 S
C382 H396 0.950 . S
C383 C382 1.297 1_544 S
C383 C384 1.479 . S
C383 H397 0.959 . S
C384 C383 1.479 . S
C384 C385 1.375 . S
C384 C390 1.404 1_554 S
C385 C384 1.375 . S
C385 C386 1.369 . S
C385 H398 0.950 . S
C386 C385 1.369 . S
C386 C387 1.392 . S
C386 H399 0.951 . S
C387 C386 1.392 . S
C387 C389 1.384 1_554 S
H388 C390 0.949 . S
C389 C387 1.384 1_556 S
C389 C390 1.385 . S
C389 H391 0.950 . S
C390 C384 1.404 1_556 S
C390 H388 0.949 . S
C390 C389 1.385 . S
H391 C389 0.950 . S
H392 C376 0.951 . S
H393 C378 0.951 . S
H394 C380 0.951 . S
H395 C381 0.950 . S
H396 C382 0.950 . S
H397 C383 0.959 . S
H398 C385 0.950 . S
H399 C386 0.951 . S
C400 C401 1.386 . S
C400 C402 1.383 . S
C400 H416 0.951 . S
C401 C400 1.386 . S
C401 C405 1.383 1_554 S
C402 C400 1.383 . S
C402 C403 1.402 1_554 S
C402 H417 0.951 . S
C403 C402 1.402 1_556 S
C403 C404 1.375 . S
C403 C406 1.481 . S
C404 C403 1.375 . S
C404 C405 1.367 . S
C404 H418 0.951 . S
C405 C401 1.383 1_556 S
C405 C404 1.367 . S
C405 H419 0.950 . S
C406 C403 1.481 . S
C406 C407 1.297 1_556 S
C406 H420 0.950 . S
C407 C406 1.297 1_554 S
C407 C408 1.479 . S
C407 H421 0.950 . S
C408 C407 1.479 . S
C408 C409 1.375 . S
C408 C414 1.404 1_554 S
C409 C408 1.375 . S
C409 C410 1.369 . S
C409 H422 0.950 . S
C410 C409 1.369 . S
C410 C411 1.392 . S
C410 H423 0.951 . S
C411 C410 1.392 . S
C411 C413 1.384 1_554 S
H412 C414 0.949 . S
C413 C411 1.384 1_556 S
C413 C414 1.385 . S
C413 H415 0.950 . S
C414 C408 1.404 1_556 S
C414 H412 0.949 . S
C414 C413 1.385 . S
H415 C413 0.950 . S
H416 C400 0.951 . S
H417 C402 0.951 . S
H418 C404 0.951 . S
H419 C405 0.950 . S
H420 C406 0.950 . S
H421 C407 0.950 . S
H422 C409 0.950 . S
H423 C410 0.951 . S
C424 C425 1.386 . S
C424 C426 1.383 . S
C424 H440 0.951 . S
C425 C424 1.386 . S
C425 C429 1.383 . S
C426 C424 1.383 . S
C426 C427 1.402 . S
C426 H441 0.951 . S
C427 C426 1.402 . S
C427 C428 1.375 . S
C427 C430 1.481 . S
C428 C427 1.375 . S
C428 C429 1.367 . S
C428 H442 0.951 . S
C429 C425 1.383 . S
C429 C428 1.367 . S
C429 H443 0.950 . S
C430 C427 1.481 . S
C430 C431 1.297 . S
C430 H444 0.950 . S
C431 C430 1.297 . S
C431 C432 1.479 . S
C431 H445 0.950 . S
C432 C431 1.479 . S
C432 C433 1.375 . S
C432 C438 1.404 . S
C433 C432 1.375 . S
C433 C434 1.369 . S
C433 H446 0.950 . S
C434 C433 1.369 . S
C434 C435 1.392 . S
C434 H447 0.951 . S
C435 C434 1.392 . S
C435 C437 1.384 . S
H436 C438 0.949 . S
C437 C435 1.384 . S
C437 C438 1.385 . S
C437 H439 0.950 . S
C438 C432 1.404 . S
C438 H436 0.949 . S
C438 C437 1.385 . S
H439 C437 0.950 . S
H440 C424 0.951 . S
H441 C426 0.951 . S
H442 C428 0.951 . S
H443 C429 0.950 . S
H444 C430 0.950 . S
H445 C431 0.950 . S
H446 C433 0.950 . S
H447 C434 0.951 . S
C448 C449 1.386 . S
C448 C450 1.383 . S
C448 H464 0.951 1_554 S
C449 C448 1.386 . S
C449 C453 1.383 . S
C450 C448 1.383 . S
C450 C451 1.402 . S
C450 H465 0.951 1_554 S
C451 C450 1.402 . S
C451 C452 1.375 . S
C451 C454 1.481 . S
C452 C451 1.375 . S
C452 C453 1.367 . S
C452 H466 0.951 . S
C453 C449 1.383 . S
C453 C452 1.367 . S
C453 H467 0.950 . S
C454 C451 1.481 . S
C454 C455 1.297 . S
C454 H468 0.950 . S
C455 C454 1.297 . S
C455 C456 1.479 . S
C455 H469 0.950 1_554 S
C456 C455 1.479 . S
C456 C457 1.375 1_554 S
C456 C462 1.404 . S
C457 C456 1.375 1_556 S
C457 C458 1.369 . S
C457 H470 0.950 . S
C458 C457 1.369 . S
C458 C459 1.392 1_556 S
C458 H471 0.951 . S
C459 C458 1.392 1_554 S
C459 C461 1.384 . S
H460 C462 0.949 . S
C461 C459 1.384 . S
C461 C462 1.385 . S
C461 H463 0.950 . S
C462 C456 1.404 . S
C462 H460 0.949 . S
C462 C461 1.385 . S
H463 C461 0.950 . S
H464 C448 0.951 1_556 S
H465 C450 0.951 1_556 S
H466 C452 0.951 . S
H467 C453 0.950 . S
H468 C454 0.950 . S
H469 C455 0.950 1_556 S
H470 C457 0.950 . S
H471 C458 0.951 . S
C472 C473 1.386 . S
C472 C474 1.383 . S
C472 H488 0.951 . S
C473 C472 1.386 . S
C473 C477 1.383 . S
C474 C472 1.383 . S
C474 C475 1.402 . S
C474 H489 0.951 . S
C475 C474 1.402 . S
C475 C476 1.375 . S
C475 C478 1.481 . S
C476 C475 1.375 . S
C476 C477 1.367 . S
C476 H490 0.951 . S
C477 C473 1.383 . S
C477 C476 1.367 . S
C477 H491 0.950 . S
C478 C475 1.481 . S
C478 C479 1.297 . S
C478 H492 0.950 . S
C479 C478 1.297 . S
C479 C480 1.479 . S
C479 H493 0.950 . S
C480 C479 1.479 . S
C480 C481 1.375 . S
C480 C486 1.404 . S
C481 C480 1.375 . S
C481 C482 1.369 . S
C481 H494 0.950 . S
C482 C481 1.369 . S
C482 C483 1.392 . S
C482 H495 0.951 . S
C483 C482 1.392 . S
C483 C485 1.384 . S
H484 C486 0.949 . S
C485 C483 1.384 . S
C485 C486 1.385 . S
C485 H487 0.950 . S
C486 C480 1.404 . S
C486 H484 0.949 . S
C486 C485 1.385 . S
H487 C485 0.950 . S
H488 C472 0.951 . S
H489 C474 0.951 . S
H490 C476 0.951 . S
H491 C477 0.950 . S
H492 C478 0.950 . S
H493 C479 0.950 . S
H494 C481 0.950 . S
H495 C482 0.951 . S
C113 C12 1.539 . S
C123 C56 1.549 . S
C137 C15 1.555 . S
C147 C83 1.524 . S
C161 C85 1.549 . S
C171 C40 1.551 . S
C185 C110 1.543 . S
C195 C43 1.549 . S
C209 C84 1.534 . S
C219 C41 1.530 . S
C233 C111 1.544 . S
C243 C42 1.543 . S
C257 C13 1.543 . S
C267 C57 1.563 . S
C281 C14 1.541 . S
C291 C82 1.536 . S
C305 C28 1.978 . S
C315 C1 2.016 . S
C329 C55 1.990 . S
C339 C26 2.008 . S
C353 C68 2.013 . S
C363 C96 1.961 . S
C377 C99 1.999 . S
C387 C71 2.000 . S
C401 C0 1.937 . S
C411 C70 1.908 . S
C425 C97 1.929 . S
C435 C27 1.906 . S
C449 C29 1.957 . S
C459 C98 1.951 . S
C473 C54 1.946 . S
C483 C69 1.948 . S
