# Generated by pormake.
# Topology gis, (4)-cn, num edge types: 1
# Building blocks:
#     Node 0, Type 0, BuildingBlock: NAHDIM_clean_sbu_0, # of connection points: 4
#     Node 1, Type 0, BuildingBlock: NAHDIM_clean_sbu_0, # of connection points: 4
#     Node 2, Type 0, BuildingBlock: NAHDIM_clean_sbu_0, # of connection points: 4
#     Node 3, Type 0, BuildingBlock: NAHDIM_clean_sbu_0, # of connection points: 4
#     Node 4, Type 0, BuildingBlock: NAHDIM_clean_sbu_0, # of connection points: 4
#     Node 5, Type 0, BuildingBlock: NAHDIM_clean_sbu_0, # of connection points: 4
#     Node 6, Type 0, BuildingBlock: NAHDIM_clean_sbu_0, # of connection points: 4
#     Node 7, Type 0, BuildingBlock: NAHDIM_clean_sbu_0, # of connection points: 4
#     Node 8, Type 0, BuildingBlock: NAHDIM_clean_sbu_0, # of connection points: 4
#     Node 9, Type 0, BuildingBlock: NAHDIM_clean_sbu_0, # of connection points: 4
#     Node 10, Type 0, BuildingBlock: NAHDIM_clean_sbu_0, # of connection points: 4
#     Node 11, Type 0, BuildingBlock: NAHDIM_clean_sbu_0, # of connection points: 4
#     Node 12, Type 0, BuildingBlock: NAHDIM_clean_sbu_0, # of connection points: 4
#     Node 13, Type 0, BuildingBlock: NAHDIM_clean_sbu_0, # of connection points: 4
#     Node 14, Type 0, BuildingBlock: NAHDIM_clean_sbu_0, # of connection points: 4
#     Node 15, Type 0, BuildingBlock: NAHDIM_clean_sbu_0, # of connection points: 4
#     Edge 16, Type (0, 0), BuildingBlock: UVAHIK_clean_linker_0, # of connection points: 2
#     Edge 17, Type (0, 0), BuildingBlock: UVAHIK_clean_linker_0, # of connection points: 2
#     Edge 18, Type (0, 0), BuildingBlock: UVAHIK_clean_linker_0, # of connection points: 2
#     Edge 19, Type (0, 0), BuildingBlock: UVAHIK_clean_linker_0, # of connection points: 2
#     Edge 20, Type (0, 0), BuildingBlock: UVAHIK_clean_linker_0, # of connection points: 2
#     Edge 21, Type (0, 0), BuildingBlock: UVAHIK_clean_linker_0, # of connection points: 2
#     Edge 22, Type (0, 0), BuildingBlock: UVAHIK_clean_linker_0, # of connection points: 2
#     Edge 23, Type (0, 0), BuildingBlock: UVAHIK_clean_linker_0, # of connection points: 2
#     Edge 24, Type (0, 0), BuildingBlock: UVAHIK_clean_linker_0, # of connection points: 2
#     Edge 25, Type (0, 0), BuildingBlock: UVAHIK_clean_linker_0, # of connection points: 2
#     Edge 26, Type (0, 0), BuildingBlock: UVAHIK_clean_linker_0, # of connection points: 2
#     Edge 27, Type (0, 0), BuildingBlock: UVAHIK_clean_linker_0, # of connection points: 2
#     Edge 28, Type (0, 0), BuildingBlock: UVAHIK_clean_linker_0, # of connection points: 2
#     Edge 29, Type (0, 0), BuildingBlock: UVAHIK_clean_linker_0, # of connection points: 2
#     Edge 30, Type (0, 0), BuildingBlock: UVAHIK_clean_linker_0, # of connection points: 2
#     Edge 31, Type (0, 0), BuildingBlock: UVAHIK_clean_linker_0, # of connection points: 2
#     Edge 32, Type (0, 0), BuildingBlock: UVAHIK_clean_linker_0, # of connection points: 2
#     Edge 33, Type (0, 0), BuildingBlock: UVAHIK_clean_linker_0, # of connection points: 2
#     Edge 34, Type (0, 0), BuildingBlock: UVAHIK_clean_linker_0, # of connection points: 2
#     Edge 35, Type (0, 0), BuildingBlock: UVAHIK_clean_linker_0, # of connection points: 2
#     Edge 36, Type (0, 0), BuildingBlock: UVAHIK_clean_linker_0, # of connection points: 2
#     Edge 37, Type (0, 0), BuildingBlock: UVAHIK_clean_linker_0, # of connection points: 2
#     Edge 38, Type (0, 0), BuildingBlock: UVAHIK_clean_linker_0, # of connection points: 2
#     Edge 39, Type (0, 0), BuildingBlock: UVAHIK_clean_linker_0, # of connection points: 2
#     Edge 40, Type (0, 0), BuildingBlock: UVAHIK_clean_linker_0, # of connection points: 2
#     Edge 41, Type (0, 0), BuildingBlock: UVAHIK_clean_linker_0, # of connection points: 2
#     Edge 42, Type (0, 0), BuildingBlock: UVAHIK_clean_linker_0, # of connection points: 2
#     Edge 43, Type (0, 0), BuildingBlock: UVAHIK_clean_linker_0, # of connection points: 2
#     Edge 44, Type (0, 0), BuildingBlock: UVAHIK_clean_linker_0, # of connection points: 2
#     Edge 45, Type (0, 0), BuildingBlock: UVAHIK_clean_linker_0, # of connection points: 2
#     Edge 46, Type (0, 0), BuildingBlock: UVAHIK_clean_linker_0, # of connection points: 2
#     Edge 47, Type (0, 0), BuildingBlock: UVAHIK_clean_linker_0, # of connection points: 2
# Relax obj value: 0.161
# Max RMSD: 0.165
# Mean RMSD: 0.148
data_MOF--net-gis--node1-NAHDIM_clean_sbu_0--edge1-UVAHIK_clean_linker_0
_symmetry_space_group_name_H-M    P1
_symmetry_Int_Tables_number       1
_symmetry_cell_setting            triclinic
loop_
_symmetry_equiv_pos_as_xyz
'x, y, z'
_cell_length_a     62.951424
_cell_length_b     58.462611
_cell_length_c     60.884948
_cell_angle_alpha  91.374092
_cell_angle_beta   90.944628
_cell_angle_gamma 90.027757
loop_
_atom_site_label
_atom_site_type_symbol
_atom_site_fract_x
_atom_site_fract_y
_atom_site_fract_z
_atom_type_partial_charge
C0 C 0.17699 0.54287 0.16958 0.0
O1 O 0.1816 0.53189 0.1512 0.0
O2 O 0.15626 0.5499 0.11595 0.0
Zn3 Zn 0.14624 0.5673 0.14264 0.0
O4 O 0.15056 0.60101 0.13877 0.0
C5 C 0.10722 0.54159 0.14296 0.0
O6 O 0.1196 0.52475 0.13643 0.0
O7 O 0.16253 0.55802 0.16952 0.0
C8 C 0.14376 0.61112 0.1218 0.0
O9 O 0.1335 0.59928 0.10638 0.0
C10 C 0.17126 0.55706 0.10421 0.0
O11 O 0.18087 0.57637 0.10968 0.0
O12 O 0.11522 0.56129 0.14672 0.0
C13 C 0.6847 0.92609 0.34103 0.0
O14 O 0.69154 0.91365 0.35738 0.0
O15 O 0.65452 0.93324 0.39198 0.0
Zn16 Zn 0.64594 0.91917 0.36275 0.0
O17 O 0.64838 0.88497 0.36347 0.0
C18 C 0.60802 0.94688 0.35916 0.0
O19 O 0.62024 0.96299 0.36795 0.0
O20 O 0.66508 0.93096 0.33967 0.0
C21 C 0.63682 0.87373 0.37629 0.0
O22 O 0.62349 0.88482 0.38905 0.0
C23 C 0.6667 0.92317 0.40551 0.0
O24 O 0.67383 0.9026 0.40056 0.0
O25 O 0.61572 0.92711 0.35546 0.0
C26 C 0.32204 0.41101 0.59214 0.0
O27 O 0.31004 0.40841 0.60934 0.0
O28 O 0.34079 0.3978 0.64645 0.0
Zn29 Zn 0.3552 0.3891 0.61841 0.0
O30 O 0.38547 0.39959 0.62073 0.0
C31 C 0.33869 0.34321 0.61903 0.0
O32 O 0.3212 0.35381 0.62491 0.0
O33 O 0.34107 0.40373 0.59248 0.0
C34 C 0.39563 0.3975 0.63877 0.0
O35 O 0.38596 0.38865 0.65555 0.0
C36 C 0.33641 0.4183 0.65204 0.0
O37 O 0.34091 0.435 0.63882 0.0
O38 O 0.35508 0.35493 0.6149 0.0
C39 C 0.80666 0.08545 0.92607 0.0
O40 O 0.79156 0.08742 0.91109 0.0
O41 O 0.81592 0.09442 0.86865 0.0
Zn42 Zn 0.83423 0.10598 0.89377 0.0
O43 O 0.86388 0.09547 0.88793 0.0
C44 C 0.82165 0.15227 0.88377 0.0
O45 O 0.80737 0.14177 0.87119 0.0
O46 O 0.82521 0.09274 0.92222 0.0
C47 C 0.87359 0.10317 0.87155 0.0
O48 O 0.86394 0.11796 0.8589 0.0
C49 C 0.81188 0.0733 0.86541 0.0
O50 O 0.81936 0.05831 0.87929 0.0
O51 O 0.83431 0.14045 0.89535 0.0
C52 C 0.19764 0.43239 0.83445 0.0
O53 O 0.20074 0.42027 0.85212 0.0
O54 O 0.16468 0.44842 0.88138 0.0
Zn55 Zn 0.15697 0.43324 0.85233 0.0
O56 O 0.15579 0.39903 0.85489 0.0
C57 C 0.1204 0.46315 0.84675 0.0
O58 O 0.13156 0.47783 0.85887 0.0
O59 O 0.17931 0.44062 0.83069 0.0
C60 C 0.1399 0.38933 0.8633 0.0
O61 O 0.12419 0.40197 0.8707 0.0
C62 C 0.16885 0.43726 0.89858 0.0
O63 O 0.16807 0.41482 0.89776 0.0
O64 O 0.12836 0.44379 0.84178 0.0
C65 C 0.82185 0.93552 0.16 0.0
O66 O 0.82006 0.94805 0.14246 0.0
O67 O 0.84297 0.92753 0.10756 0.0
Zn68 Zn 0.85025 0.90793 0.13315 0.0
O69 O 0.84387 0.87492 0.126 0.0
C70 C 0.89195 0.92868 0.13742 0.0
O71 O 0.8821 0.94707 0.13061 0.0
O72 O 0.83381 0.918 0.15964 0.0
C73 C 0.85674 0.86368 0.11407 0.0
O74 O 0.87317 0.87428 0.10598 0.0
C75 C 0.82611 0.9249 0.09602 0.0
O76 O 0.81303 0.90814 0.10035 0.0
O77 O 0.88141 0.91045 0.14 0.0
C78 C 0.32036 0.56668 0.41971 0.0
O79 O 0.33099 0.55933 0.40256 0.0
O80 O 0.30532 0.59313 0.36862 0.0
Zn81 Zn 0.3228 0.6054 0.39428 0.0
O82 O 0.35372 0.60004 0.38844 0.0
C83 C 0.30906 0.65099 0.38393 0.0
O84 O 0.30086 0.6403 0.36656 0.0
O85 O 0.3147 0.58755 0.42072 0.0
C86 C 0.36319 0.61088 0.37364 0.0
O87 O 0.35259 0.62607 0.36228 0.0
C88 C 0.31237 0.57858 0.3547 0.0
O89 O 0.33204 0.57133 0.35661 0.0
O90 O 0.31847 0.63943 0.3986 0.0
C91 C 0.67328 0.04533 0.68064 0.0
O92 O 0.65765 0.03056 0.67801 0.0
O93 O 0.66566 0.05333 0.61466 0.0
Zn94 Zn 0.65493 0.0681 0.64243 0.0
O95 O 0.65432 0.10208 0.63872 0.0
C96 C 0.61539 0.04318 0.63605 0.0
O97 O 0.62496 0.03467 0.61869 0.0
O98 O 0.67479 0.06184 0.66757 0.0
C99 C 0.64872 0.1111 0.62075 0.0
O100 O 0.64286 0.09784 0.604 0.0
C101 C 0.67684 0.03525 0.61414 0.0
O102 O 0.68221 0.0255 0.63263 0.0
O103 O 0.62526 0.05736 0.64868 0.0
C104 C 0.82797 0.45894 0.80379 0.0
O105 O 0.82651 0.4738 0.82022 0.0
O106 O 0.8481 0.45337 0.85822 0.0
Zn107 Zn 0.85781 0.4348 0.8322 0.0
O108 O 0.85392 0.40143 0.83808 0.0
C109 C 0.89581 0.46159 0.83036 0.0
O110 O 0.88291 0.47791 0.83701 0.0
O111 O 0.84039 0.44193 0.80549 0.0
C112 C 0.86323 0.39145 0.85384 0.0
O113 O 0.87642 0.40315 0.86675 0.0
C114 C 0.8332 0.44687 0.87042 0.0
O115 O 0.82341 0.42745 0.8658 0.0
O116 O 0.88853 0.44152 0.82695 0.0
C117 C 0.30943 0.04616 0.65928 0.0
O118 O 0.30468 0.05779 0.64165 0.0
O119 O 0.34011 0.03978 0.61129 0.0
Zn120 Zn 0.34908 0.05246 0.64096 0.0
O121 O 0.34663 0.0868 0.64049 0.0
C122 C 0.38948 0.02894 0.63711 0.0
O123 O 0.37988 0.01813 0.62059 0.0
O124 O 0.32872 0.04104 0.66309 0.0
C125 C 0.36247 0.0997 0.63724 0.0
O126 O 0.3813 0.09049 0.63448 0.0
C127 C 0.34557 0.04957 0.59386 0.0
O128 O 0.35769 0.06785 0.59536 0.0
O129 O 0.37922 0.04363 0.64841 0.0
C130 C 0.65941 0.56092 0.3144 0.0
O131 O 0.66693 0.55436 0.33348 0.0
O132 O 0.63781 0.56589 0.36699 0.0
Zn133 Zn 0.62893 0.5849 0.34139 0.0
O134 O 0.63688 0.61771 0.34735 0.0
C135 C 0.58577 0.56909 0.34686 0.0
O136 O 0.59494 0.5534 0.35884 0.0
O137 O 0.64311 0.57372 0.31378 0.0
C138 C 0.62781 0.6286 0.36288 0.0
O139 O 0.61401 0.61783 0.37488 0.0
C140 C 0.65373 0.57064 0.37936 0.0
O141 O 0.66511 0.58894 0.37561 0.0
O142 O 0.5972 0.58372 0.33745 0.0
C143 C 0.1783 0.91856 0.05794 0.0
O144 O 0.19519 0.90829 0.06595 0.0
O145 O 0.1733 0.91297 0.11977 0.0
Zn146 Zn 0.15549 0.89951 0.09499 0.0
O147 O 0.12464 0.90335 0.10222 0.0
C148 C 0.16634 0.85486 0.10871 0.0
O149 O 0.16879 0.86625 0.12744 0.0
O150 O 0.16056 0.91632 0.06731 0.0
C151 C 0.11811 0.91193 0.12027 0.0
O152 O 0.13198 0.91877 0.13539 0.0
C153 C 0.18272 0.9322 0.12002 0.0
O154 O 0.18179 0.94504 0.10262 0.0
O155 O 0.16115 0.8657 0.09158 0.0
C156 C 0.80323 0.56324 0.13856 0.0
O157 O 0.79846 0.57109 0.11904 0.0
O158 O 0.83723 0.55748 0.09364 0.0
Zn159 Zn 0.84415 0.57226 0.12303 0.0
O160 O 0.84231 0.60655 0.12109 0.0
C161 C 0.88157 0.54402 0.12858 0.0
O162 O 0.87006 0.52851 0.11789 0.0
O163 O 0.82264 0.56188 0.14443 0.0
C164 C 0.85855 0.61845 0.11676 0.0
O165 O 0.8768 0.60813 0.11347 0.0
C166 C 0.84186 0.56674 0.07568 0.0
O167 O 0.85181 0.58649 0.07615 0.0
O168 O 0.87355 0.56352 0.13288 0.0
C169 C 0.16001 0.0636 0.82746 0.0
O170 O 0.15559 0.05048 0.844 0.0
O171 O 0.14681 0.08335 0.88119 0.0
Zn172 Zn 0.13778 0.09788 0.85304 0.0
O173 O 0.14263 0.13178 0.85541 0.0
C174 C 0.09738 0.07482 0.8551 0.0
O175 O 0.10856 0.05951 0.86568 0.0
O176 O 0.15394 0.08434 0.82781 0.0
C177 C 0.1304 0.14356 0.86762 0.0
O178 O 0.11553 0.13307 0.87846 0.0
C179 C 0.16608 0.07996 0.88672 0.0
O180 O 0.18127 0.08678 0.87386 0.0
O181 O 0.10664 0.09236 0.84789 0.0
C182 C 0.67904 0.42578 0.56212 0.0
O183 O 0.69395 0.42723 0.57744 0.0
O184 O 0.67698 0.41304 0.61779 0.0
Zn185 Zn 0.65575 0.40174 0.59517 0.0
O186 O 0.62628 0.41087 0.60387 0.0
C187 C 0.66167 0.35627 0.61019 0.0
O188 O 0.66656 0.36763 0.62845 0.0
O189 O 0.66185 0.41531 0.56599 0.0
C190 C 0.61984 0.40913 0.62344 0.0
O191 O 0.633 0.40175 0.63866 0.0
C192 C 0.67608 0.43238 0.6277 0.0
O193 O 0.66042 0.44643 0.62316 0.0
O194 O 0.6568 0.36733 0.59311 0.0
C195 C 0.30525 0.94148 0.3149 0.0
O196 O 0.29704 0.92978 0.33084 0.0
O197 O 0.33434 0.95282 0.36855 0.0
Zn198 Zn 0.3421 0.93503 0.34125 0.0
O199 O 0.33631 0.9016 0.34552 0.0
C200 C 0.38215 0.95844 0.34001 0.0
O201 O 0.37064 0.97579 0.34701 0.0
O202 O 0.32496 0.94614 0.31563 0.0
C203 C 0.34501 0.89151 0.36159 0.0
O204 O 0.35791 0.90313 0.37488 0.0
C205 C 0.32023 0.94625 0.3817 0.0
O206 O 0.30973 0.92723 0.37726 0.0
O207 O 0.37321 0.93927 0.33601 0.0
C208 C 0.16036 0.81677 0.08973 0.0
C209 C 0.16756 0.82959 0.10821 0.0
C210 C 0.15952 0.79288 0.09027 0.0
C211 C 0.15608 0.74658 0.13015 0.0
H212 H 0.16853 0.70701 0.07999 0.0
C213 C 0.15779 0.64864 0.13642 0.0
C214 C 0.14762 0.6359 0.11943 0.0
C215 C 0.16122 0.67207 0.1344 0.0
C216 C 0.16483 0.71788 0.09407 0.0
H217 H 0.18059 0.82738 0.1413 0.0
H218 H 0.17953 0.78581 0.14207 0.0
H219 H 0.1735 0.74833 0.07747 0.0
H220 H 0.13335 0.63774 0.08683 0.0
H221 H 0.13928 0.67878 0.08337 0.0
H222 H 0.14741 0.71624 0.14675 0.0
C223 C 0.174 0.79418 0.12736 0.0
C224 C 0.16768 0.74153 0.09263 0.0
C225 C 0.17474 0.81802 0.12687 0.0
C226 C 0.14119 0.64708 0.10024 0.0
C227 C 0.14471 0.67055 0.09819 0.0
C228 C 0.15332 0.723 0.13161 0.0
C229 C 0.16594 0.78134 0.10927 0.0
C230 C 0.16335 0.75615 0.11068 0.0
C231 C 0.15462 0.68332 0.11532 0.0
C232 C 0.15767 0.70838 0.1136 0.0
H233 H 0.1547 0.82519 0.0751 0.0
H234 H 0.15309 0.78352 0.0761 0.0
H235 H 0.15213 0.75736 0.14421 0.0
H236 H 0.16304 0.64055 0.15138 0.0
H237 H 0.16916 0.68139 0.14776 0.0
C238 C 0.41769 0.9421 0.33069 0.0
C239 C 0.40546 0.96069 0.33823 0.0
C240 C 0.43981 0.94364 0.33034 0.0
C241 C 0.48425 0.97415 0.35735 0.0
H242 H 0.5169 0.94564 0.3107 0.0
C243 C 0.57613 0.97263 0.35949 0.0
C244 C 0.58534 0.95134 0.3542 0.0
C245 C 0.55448 0.97638 0.35552 0.0
C246 C 0.50799 0.95361 0.32389 0.0
H247 H 0.40683 0.99574 0.35076 0.0
H248 H 0.44552 -0.00158 0.35008 0.0
H249 H 0.47829 0.94766 0.3071 0.0
H250 H 0.5791 0.91744 0.34024 0.0
H251 H 0.54145 0.92392 0.33352 0.0
H252 H 0.5139 0.9796 0.37438 0.0
C253 C 0.43796 0.98259 0.34463 0.0
C254 C 0.4859 0.95477 0.32183 0.0
C255 C 0.4158 0.98107 0.34491 0.0
C256 C 0.57253 0.93405 0.3445 0.0
C257 C 0.55095 0.93782 0.34049 0.0
C258 C 0.50636 0.97298 0.35943 0.0
C259 C 0.45021 0.9638 0.33756 0.0
C260 C 0.47376 0.96466 0.33872 0.0
C261 C 0.54164 0.95896 0.34609 0.0
C262 C 0.51843 0.96229 0.3429 0.0
H263 H 0.41023 0.92615 0.32542 0.0
H264 H 0.44879 0.92876 0.32506 0.0
H265 H 0.47533 0.98164 0.37077 0.0
H266 H 0.58558 0.98633 0.36693 0.0
H267 H 0.54779 0.99292 0.35983 0.0
C268 C 0.35901 0.30676 0.61382 0.0
C269 C 0.33983 0.31793 0.61871 0.0
C270 C 0.36053 0.28298 0.61478 0.0
C271 C 0.3355 0.23341 0.64018 0.0
H272 H 0.3686 0.1987 0.59783 0.0
C273 C 0.33941 0.13459 0.63866 0.0
C274 C 0.35948 0.12467 0.63537 0.0
C275 C 0.33644 0.15808 0.63625 0.0
C276 C 0.35946 0.2082 0.6099 0.0
H277 H 0.30705 0.31283 0.6279 0.0
H278 H 0.30965 0.27125 0.62929 0.0
H279 H 0.36397 0.23976 0.59353 0.0
H280 H 0.39222 0.13168 0.62716 0.0
H281 H 0.38704 0.17269 0.62308 0.0
H282 H 0.33104 0.20182 0.65656 0.0
C283 C 0.3236 0.28094 0.62506 0.0
C284 C 0.3568 0.23171 0.60743 0.0
C285 C 0.32208 0.30476 0.62412 0.0
C286 C 0.37655 0.13877 0.62978 0.0
C287 C 0.37355 0.16225 0.62729 0.0
C288 C 0.33812 0.20988 0.64262 0.0
C289 C 0.34291 0.26981 0.6206 0.0
C290 C 0.34491 0.24463 0.62263 0.0
C291 C 0.35345 0.17214 0.63043 0.0
C292 C 0.35026 0.19705 0.62759 0.0
H293 H 0.37301 0.31639 0.60963 0.0
H294 H 0.37571 0.27499 0.61152 0.0
H295 H 0.32653 0.24291 0.65238 0.0
H296 H 0.32591 0.1242 0.64295 0.0
H297 H 0.32072 0.16518 0.63858 0.0
C298 C 0.06316 0.05595 0.86471 0.0
C299 C 0.07402 0.07276 0.85318 0.0
C300 C 0.04096 0.05543 0.86453 0.0
C301 C 0.99304 0.07634 0.8355 0.0
H302 H 0.9675 0.0745 0.89295 0.0
C303 C 0.90771 0.10736 0.85153 0.0
C304 C 0.89569 0.09611 0.86724 0.0
C305 C 0.92894 0.10145 0.84824 0.0
C306 C 0.97427 0.07459 0.87672 0.0
H307 H 0.07017 0.10154 0.83161 0.0
H308 H 0.03149 0.10059 0.8313 0.0
H309 H 0.0056 0.06894 0.88957 0.0
H310 H 0.89624 0.06925 0.89121 0.0
H311 H 0.93313 0.05864 0.88517 0.0
H312 H 0.96172 0.08226 0.82267 0.0
C313 C 0.04011 0.08779 0.84043 0.0
C314 C 0.99613 0.07142 0.8748 0.0
C315 C 0.06227 0.08842 0.84073 0.0
C316 C 0.90515 0.0784 0.87914 0.0
C317 C 0.92632 0.07238 0.87574 0.0
C318 C 0.97112 0.07937 0.8374 0.0
C319 C 0.02923 0.07158 0.85267 0.0
C320 C 0.00579 0.07263 0.85423 0.0
C321 C 0.93856 0.08405 0.86048 0.0
C322 C 0.96153 0.07892 0.85809 0.0
H323 H 0.07175 0.04359 0.8744 0.0
H324 H 0.03296 0.0426 0.87394 0.0
H325 H 5e-05 0.07709 0.81941 0.0
H326 H 0.90089 0.12111 0.84212 0.0
H327 H 0.93797 0.11102 0.83658 0.0
C328 C 0.12254 0.35341 0.87571 0.0
C329 C 0.13926 0.36414 0.86493 0.0
C330 C 0.1219 0.3296 0.87711 0.0
C331 C 0.15567 0.27786 0.87233 0.0
H332 H 0.10169 0.24664 0.8639 0.0
C333 C 0.1486 0.18004 0.85802 0.0
C334 C 0.13223 0.16878 0.86889 0.0
C335 C 0.14983 0.20392 0.8586 0.0
C336 C 0.11684 0.25513 0.86654 0.0
H337 H 0.16843 0.35829 0.84715 0.0
H338 H 0.1671 0.31679 0.84923 0.0
H339 H 0.10304 0.28825 0.86279 0.0
H340 H 0.10451 0.17375 0.88918 0.0
H341 H 0.1067 0.2154 0.8902 0.0
H342 H 0.16948 0.24463 0.87575 0.0
C343 C 0.15467 0.32676 0.85696 0.0
C344 C 0.11762 0.27898 0.86594 0.0
C345 C 0.15536 0.35056 0.85564 0.0
C346 C 0.11729 0.18189 0.88058 0.0
C347 C 0.11846 0.20575 0.88107 0.0
C348 C 0.1549 0.25399 0.87284 0.0
C349 C 0.13792 0.31598 0.86768 0.0
C350 C 0.13705 0.29063 0.86877 0.0
C351 C 0.13466 0.21702 0.86998 0.0
C352 C 0.13548 0.24238 0.8699 0.0
H353 H 0.10995 0.36339 0.88315 0.0
H354 H 0.10894 0.32187 0.88576 0.0
H355 H 0.17085 0.28631 0.87494 0.0
H356 H 0.16036 0.17044 0.84887 0.0
H357 H 0.16238 0.21213 0.84973 0.0
C358 C 0.92763 0.94729 0.13425 0.0
C359 C 0.91533 0.92842 0.14018 0.0
C360 C 0.94981 0.94608 0.13491 0.0
C361 C 0.99246 0.90348 0.13151 0.0
H362 H 0.02901 0.95451 0.14856 0.0
C363 C 0.08032 0.90628 0.10809 0.0
C364 C 0.09507 0.91415 0.12411 0.0
C365 C 0.05856 0.90822 0.11165 0.0
C366 C 0.019 0.94004 0.14394 0.0
H367 H 0.91664 0.89392 0.15255 0.0
H368 H 0.95524 0.89195 0.15393 0.0
H369 H 0.99061 0.95776 0.1532 0.0
H370 H 0.09854 0.93033 0.15642 0.0
H371 H 0.06042 0.93361 0.16267 0.0
H372 H 0.02074 0.88571 0.12232 0.0
C373 C 0.94777 0.90751 0.14835 0.0
C374 C -0.00297 0.94199 0.1464 0.0
C375 C 0.92564 0.90869 0.14766 0.0
C376 C 0.08758 0.92411 0.14375 0.0
C377 C 0.06576 0.9261 0.14729 0.0
C378 C 0.01436 0.90156 0.12902 0.0
C379 C 0.9601 0.92599 0.14154 0.0
C380 C 0.98351 0.92376 0.14007 0.0
C381 C 0.05103 0.91808 0.13131 0.0
C382 C 0.02786 0.91989 0.13499 0.0
H383 H 0.92016 0.96275 0.12844 0.0
H384 H 0.95887 0.96056 0.1294 0.0
H385 H 0.98248 0.88922 0.12623 0.0
H386 H 0.08554 0.8986 0.09274 0.0
H387 H 0.0476 0.9022 0.09888 0.0
C388 C 0.32107 0.68799 0.40179 0.0
C389 C 0.30954 0.67631 0.38503 0.0
C390 C 0.32335 0.71177 0.40145 0.0
C391 C 0.30163 0.76421 0.37651 0.0
H392 H 0.35865 0.78774 0.38666 0.0
C393 C 0.3265 0.85473 0.35136 0.0
C394 C 0.34021 0.86721 0.36563 0.0
C395 C 0.3219 0.83181 0.35524 0.0
C396 C 0.34257 0.78152 0.38409 0.0
H397 H 0.29067 0.68053 0.35526 0.0
H398 H 0.29473 0.72191 0.35463 0.0
H399 H 0.35153 0.74722 0.39144 0.0
H400 H 0.35969 0.86544 0.39527 0.0
H401 H 0.35149 0.82552 0.40213 0.0
H402 H 0.29273 0.79849 0.36892 0.0
C403 C 0.30191 0.71275 0.36811 0.0
C404 C 0.33848 0.75829 0.38685 0.0
C405 C 0.29967 0.68899 0.36841 0.0
C406 C 0.34915 0.85629 0.3839 0.0
C407 C 0.34452 0.83337 0.38778 0.0
C408 C 0.30571 0.78746 0.37377 0.0
C409 C 0.31409 0.72437 0.3844 0.0
C410 C 0.31802 0.74933 0.38289 0.0
C411 C 0.33087 0.82085 0.37348 0.0
C412 C 0.32628 0.79634 0.37732 0.0
H413 H 0.32882 0.67874 0.41487 0.0
H414 H 0.33259 0.72027 0.4144 0.0
H415 H 0.28563 0.75788 0.37362 0.0
H416 H 0.31937 0.86262 0.33711 0.0
H417 H 0.31156 0.82258 0.34372 0.0
C418 C 0.58232 0.04729 0.65813 0.0
C419 C 0.59284 0.03771 0.63993 0.0
C420 C 0.56061 0.04358 0.66083 0.0
C421 C 0.51527 0.00711 0.64223 0.0
H422 H 0.48203 0.06115 0.65633 0.0
C423 C 0.42477 0.01287 0.6263 0.0
C424 C 0.41254 0.02591 0.64108 0.0
C425 C 0.44685 0.01196 0.62879 0.0
C426 C 0.49106 0.04577 0.65278 0.0
H427 H 0.58895 0.01607 0.61068 0.0
H428 H 0.55104 0.00983 0.61526 0.0
H429 H 0.52055 0.06374 0.65604 0.0
H430 H 0.41378 0.04727 0.67072 0.0
H431 H 0.45225 0.04536 0.67525 0.0
H432 H 0.48566 0.98926 0.63858 0.0
C433 C 0.55961 0.02001 0.62758 0.0
C434 C 0.51318 0.04727 0.6526 0.0
C435 C 0.58133 0.02371 0.62488 0.0
C436 C 0.42276 0.03722 0.65893 0.0
C437 C 0.44483 0.03623 0.66147 0.0
C438 C 0.49311 0.00559 0.64245 0.0
C439 C 0.54894 0.03022 0.64538 0.0
C440 C 0.52553 0.02803 0.64709 0.0
C441 C 0.45717 0.024 0.64616 0.0
C442 C 0.48074 0.02498 0.64748 0.0
H443 H 0.59076 0.05803 0.67012 0.0
H444 H 0.5529 0.0514 0.6749 0.0
H445 H 0.52438 0.99191 0.63819 0.0
H446 H 0.41738 0.00397 0.61236 0.0
H447 H 0.45589 0.00256 0.61657 0.0
C448 C 0.8399 0.18867 0.8959 0.0
C449 C 0.82423 0.17739 0.88296 0.0
C450 C 0.84339 0.21213 0.89387 0.0
C451 C 0.83671 0.25792 0.85418 0.0
H452 H 0.84729 0.29854 0.90446 0.0
C453 C 0.84313 0.35535 0.8452 0.0
C454 C 0.85875 0.36706 0.85782 0.0
C455 C 0.8387 0.33239 0.84891 0.0
C456 C 0.84462 0.28736 0.89024 0.0
H457 H 0.79949 0.18208 0.85824 0.0
H458 H 0.80554 0.223 0.85479 0.0
H459 H 0.83946 0.2582 0.91016 0.0
H460 H 0.88196 0.36383 0.88428 0.0
H461 H 0.87447 0.32354 0.89052 0.0
H462 H 0.84209 0.28687 0.83422 0.0
C463 C 0.8153 0.21363 0.86631 0.0
C464 C 0.84008 0.26428 0.89352 0.0
C465 C 0.81175 0.1902 0.86839 0.0
C466 C 0.86981 0.3553 0.87429 0.0
C467 C 0.86542 0.33225 0.87796 0.0
C468 C 0.84132 0.28093 0.8509 0.0
C469 C 0.83135 0.22479 0.8788 0.0
C470 C 0.836 0.24934 0.87551 0.0
C471 C 0.84984 0.32052 0.86527 0.0
C472 C 0.84525 0.29596 0.86888 0.0
H473 H 0.84979 0.1793 0.9073 0.0
H474 H 0.85598 0.22021 0.90362 0.0
H475 H 0.83405 0.24675 0.83995 0.0
H476 H 0.83418 0.36394 0.83248 0.0
H477 H 0.82635 0.324 0.83909 0.0
C478 C 0.64636 0.66491 0.35355 0.0
C479 C 0.63168 0.65336 0.36645 0.0
C480 C 0.649 0.68856 0.35593 0.0
C481 C 0.63836 0.73822 0.3931 0.0
H482 H 0.6409 0.77243 0.33942 0.0
C483 C 0.62523 0.83594 0.39052 0.0
C484 C 0.63816 0.84849 0.37656 0.0
C485 C 0.62606 0.81205 0.39027 0.0
C486 C 0.64051 0.76313 0.35458 0.0
H487 H 0.60869 0.65751 0.3924 0.0
H488 H 0.61309 0.69881 0.39634 0.0
H489 H 0.63973 0.73082 0.33739 0.0
H490 H 0.66245 0.84582 0.35174 0.0
H491 H 0.66395 0.80416 0.35141 0.0
H492 H 0.63881 0.77065 0.41024 0.0
C493 C 0.62274 0.68955 0.38455 0.0
C494 C 0.63986 0.73927 0.35342 0.0
C495 C 0.62013 0.66589 0.3822 0.0
C496 C 0.65218 0.83666 0.36261 0.0
C497 C 0.65298 0.81279 0.36234 0.0
C498 C 0.63898 0.76212 0.39425 0.0
C499 C 0.637 0.7012 0.37123 0.0
C500 C 0.63866 0.72653 0.37265 0.0
C501 C 0.63981 0.80021 0.37604 0.0
C502 C 0.63994 0.77483 0.37499 0.0
H503 H 0.65563 0.65573 0.34137 0.0
H504 H 0.66036 0.69698 0.34567 0.0
H505 H 0.63773 0.72889 0.40823 0.0
H506 H 0.61427 0.84454 0.40147 0.0
H507 H 0.61555 0.80284 0.40085 0.0
C508 C 0.87394 0.65635 0.10725 0.0
C509 C 0.85681 0.64355 0.11495 0.0
C510 C 0.87232 0.68006 0.10551 0.0
C511 C 0.84387 0.72975 0.12784 0.0
H512 H 0.86473 0.76004 0.07646 0.0
C513 C 0.8365 0.82729 0.11896 0.0
C514 C 0.85441 0.83862 0.11105 0.0
C515 C 0.83514 0.80344 0.11768 0.0
C516 C 0.859 0.75187 0.091 0.0
H517 H 0.82454 0.64559 0.12684 0.0
H518 H 0.82182 0.68707 0.12393 0.0
H519 H 0.86581 0.71838 0.07793 0.0
H520 H 0.88469 0.83385 0.09507 0.0
H521 H 0.88253 0.79231 0.09323 0.0
H522 H 0.83757 0.76314 0.14122 0.0
C523 C 0.83649 0.67872 0.11929 0.0
C524 C 0.8596 0.72802 0.09181 0.0
C525 C 0.83803 0.65497 0.12087 0.0
C526 C 0.87065 0.82565 0.10127 0.0
C527 C 0.86935 0.80181 0.10011 0.0
C528 C 0.84341 0.7536 0.1271 0.0
C529 C 0.85362 0.6915 0.11159 0.0
C530 C 0.85218 0.71673 0.11031 0.0
C531 C 0.85172 0.79039 0.10857 0.0
C532 C 0.85111 0.76497 0.10875 0.0
H533 H 0.88862 0.64807 0.10254 0.0
H534 H 0.88587 0.68951 0.09975 0.0
H535 H 0.83829 0.72153 0.14242 0.0
H536 H 0.82364 0.83681 0.12645 0.0
H537 H 0.82116 0.79522 0.12399 0.0
C538 C 0.65447 0.31856 0.5909 0.0
C539 C 0.66078 0.33098 0.60997 0.0
C540 C 0.65273 0.29472 0.59115 0.0
C541 C 0.6456 0.24749 0.6294 0.0
H542 H 0.66623 0.20919 0.58145 0.0
C543 C 0.65516 0.15028 0.63688 0.0
C544 C 0.64914 0.13626 0.61875 0.0
C545 C 0.65582 0.17401 0.63507 0.0
C546 C 0.66014 0.21968 0.59483 0.0
H547 H 0.67065 0.32806 0.64411 0.0
H548 H 0.66783 0.28658 0.64446 0.0
H549 H 0.66914 0.25077 0.57952 0.0
H550 H 0.63906 0.1362 0.5845 0.0
H551 H 0.64009 0.17777 0.58141 0.0
H552 H 0.63671 0.2165 0.64479 0.0
C553 C 0.66389 0.29526 0.62941 0.0
C554 C 0.66183 0.24348 0.59373 0.0
C555 C 0.66564 0.31904 0.62916 0.0
C556 C 0.64377 0.14652 0.59877 0.0
C557 C 0.64448 0.17032 0.59696 0.0
C558 C 0.64392 0.22375 0.6305 0.0
C559 C 0.65723 0.28284 0.61049 0.0
C560 C 0.65477 0.25762 0.61113 0.0
C561 C 0.65049 0.18431 0.61511 0.0
C562 C 0.65137 0.20956 0.61334 0.0
H563 H 0.65058 0.32726 0.57585 0.0
H564 H 0.64742 0.28563 0.57635 0.0
H565 H 0.63961 0.25794 0.64287 0.0
H566 H 0.65947 0.14294 0.6525 0.0
H567 H 0.66083 0.18428 0.64927 0.0
C568 C 0.08824 0.48851 0.84751 0.0
C569 C 0.09809 0.4681 0.8405 0.0
C570 C 0.06662 0.49209 0.84319 0.0
C571 C 0.02067 0.47014 0.80966 0.0
H572 H 0.98763 0.49133 0.85932 0.0
C573 C 0.93218 0.44927 0.81914 0.0
C574 C 0.91874 0.4662 0.82796 0.0
C575 C 0.95401 0.4531 0.81797 0.0
C576 C -0.00336 0.48578 0.84516 0.0
H577 H 0.09316 0.43583 0.82275 0.0
H578 H 0.05559 0.44192 0.81556 0.0
H579 H 0.02628 0.49194 0.86192 0.0
H580 H 0.9176 0.50064 0.84199 0.0
H581 H 0.95584 0.50724 0.84007 0.0
H582 H 0.99094 0.46314 0.79326 0.0
C583 C 0.06452 0.45532 0.82412 0.0
C584 C 0.0188 0.48616 0.84662 0.0
C585 C 0.08608 0.45175 0.82841 0.0
C586 C 0.92754 0.48724 0.83515 0.0
C587 C 0.94943 0.491 0.83413 0.0
C588 C -0.00149 0.46966 0.80824 0.0
C589 C 0.05444 0.47536 0.83176 0.0
C590 C 0.03107 0.47784 0.82908 0.0
C591 C 0.9629 0.47388 0.82572 0.0
C592 C 0.98628 0.47699 0.82616 0.0
H593 H 0.09709 0.50149 0.85676 0.0
H594 H 0.05937 0.50783 0.84906 0.0
H595 H 0.02967 0.46402 0.79569 0.0
H596 H 0.92589 0.4329 0.81342 0.0
H597 H 0.96402 0.43947 0.81166 0.0
C598 C 0.54966 0.55709 0.35883 0.0
C599 C 0.56236 0.57111 0.34598 0.0
C600 C 0.5277 0.56037 0.35948 0.0
C601 C 0.48741 0.60498 0.35071 0.0
H602 H 0.4478 0.55449 0.35469 0.0
C603 C 0.39659 0.61846 0.35322 0.0
C604 C 0.38569 0.60591 0.3689 0.0
C605 C 0.41786 0.61368 0.34877 0.0
C606 C 0.45871 0.56875 0.35373 0.0
H607 H 0.56188 0.59893 0.32301 0.0
H608 H 0.52354 0.60439 0.32389 0.0
H609 H 0.48545 0.54664 0.34925 0.0
H610 H 0.38851 0.57841 0.3921 0.0
H611 H 0.42562 0.57022 0.38442 0.0
H612 H 0.46071 0.62708 0.35537 0.0
C613 C 0.5306 0.59117 0.33381 0.0
C614 C 0.48025 0.56427 0.35062 0.0
C615 C 0.55256 0.58794 0.3332 0.0
C616 C 0.39645 0.58841 0.37993 0.0
C617 C 0.41767 0.58358 0.37542 0.0
C618 C 0.46587 0.60945 0.35376 0.0
C619 C 0.51796 0.57768 0.34724 0.0
C620 C 0.49488 0.58233 0.34928 0.0
C621 C 0.42862 0.59619 0.35983 0.0
C622 C 0.45132 0.5914 0.35551 0.0
H623 H 0.55672 0.54399 0.36889 0.0
H624 H 0.51845 0.54984 0.37017 0.0
H625 H 0.4983 0.61929 0.35012 0.0
H626 H 0.38873 0.632 0.34439 0.0
H627 H 0.42584 0.62354 0.33652 0.0
C628 C 0.58321 0.42099 0.61203 0.0
C629 C 0.59735 0.4137 0.62853 0.0
C630 C 0.56159 0.42339 0.61624 0.0
C631 C 0.52082 0.40077 0.65189 0.0
H632 H 0.48573 0.44762 0.6256 0.0
C633 C 0.42985 0.40064 0.66017 0.0
C634 C 0.41834 0.40381 0.64051 0.0
C635 C 0.45163 0.40523 0.66137 0.0
C636 C 0.49533 0.4344 0.633 0.0
H637 H 0.60003 0.40423 0.66271 0.0
H638 H 0.56224 0.40855 0.67008 0.0
H639 H 0.52435 0.44997 0.62317 0.0
H640 H 0.42051 0.41498 0.60688 0.0
H641 H 0.4585 0.42269 0.60889 0.0
H642 H 0.49187 0.38484 0.66118 0.0
C643 C 0.56788 0.4121 0.6538 0.0
C644 C 0.51742 0.43575 0.63162 0.0
C645 C 0.58953 0.40972 0.64959 0.0
C646 C 0.42892 0.41232 0.62227 0.0
C647 C 0.45068 0.41691 0.62347 0.0
C648 C 0.49875 0.39942 0.65327 0.0
C649 C 0.55363 0.41857 0.63705 0.0
C650 C 0.53038 0.4187 0.64068 0.0
C651 C 0.46233 0.4131 0.64293 0.0
C652 C 0.48575 0.41597 0.64347 0.0
H653 H 0.58872 0.42426 0.59564 0.0
H654 H 0.55101 0.42815 0.60291 0.0
H655 H 0.53034 0.38718 0.65876 0.0
H656 H 0.42214 0.39425 0.67457 0.0
H657 H 0.46013 0.4024 0.67667 0.0
C658 C 0.07462 0.51716 0.13838 0.0
C659 C 0.0841 0.53801 0.14509 0.0
C660 C 0.0526 0.51431 0.13938 0.0
C661 C 0.00424 0.53853 0.16466 0.0
H662 H 0.97558 0.5142 0.11229 0.0
C663 C 0.9165 0.55664 0.14485 0.0
C664 C 0.90413 0.53958 0.13417 0.0
C665 C 0.93816 0.55325 0.14872 0.0
C666 C 0.98331 0.52062 0.12722 0.0
H667 H 0.07797 0.57199 0.15866 0.0
H668 H 0.03967 0.56703 0.16032 0.0
H669 H 0.01426 0.51396 0.11453 0.0
H670 H 0.90468 0.50524 0.11986 0.0
H671 H 0.94258 0.49927 0.12679 0.0
H672 H 0.97332 0.54565 0.17717 0.0
C673 C 0.04922 0.55283 0.15444 0.0
C674 C 0.00549 0.5205 0.12849 0.0
C675 C 0.07118 0.55572 0.15333 0.0
C676 C 0.91379 0.51877 0.12804 0.0
C677 C 0.93551 0.51538 0.13191 0.0
C678 C 0.98207 0.5386 0.16342 0.0
C679 C 0.03966 0.53219 0.14727 0.0
C680 C 0.01619 0.52992 0.14702 0.0
C681 C 0.94799 0.53272 0.14203 0.0
C682 C 0.97137 0.53012 0.14448 0.0
H683 H 0.08414 0.50316 0.132 0.0
H684 H 0.04568 0.49815 0.13391 0.0
H685 H 0.01205 0.54554 0.17931 0.0
H686 H 0.90957 0.57288 0.14979 0.0
H687 H 0.94734 0.56709 0.15627 0.0
C688 C 0.17049 0.52152 0.08068 0.0
C689 C 0.1768 0.54443 0.08386 0.0
C690 C 0.17426 0.51002 0.06079 0.0
C691 C 0.17797 0.52078 0.00304 0.0
H692 H 0.19929 0.45865 -0.00155 0.0
C693 C 0.17991 0.47266 0.9196 0.0
C694 C 0.17397 0.4495 0.91947 0.0
C695 C 0.18401 0.48446 0.93943 0.0
C696 C 0.19312 0.47593 -0.00055 0.0
H697 H 0.19249 0.5731 0.06899 0.0
H698 H 0.19863 0.55304 0.03392 0.0
H699 H 0.19984 0.47881 0.03405 0.0
H700 H 0.16787 0.42044 0.9399 0.0
H701 H 0.17414 0.44117 0.9745 0.0
H702 H 0.17011 0.51769 0.96888 0.0
C703 C 0.19092 0.54403 0.04694 0.0
C704 C 0.19359 0.48747 0.0198 0.0
C705 C 0.18747 0.55544 0.06699 0.0
C706 C 0.17252 0.43827 0.9395 0.0
C707 C 0.17629 0.45014 0.95934 0.0
C708 C 0.17721 0.50914 0.98277 0.0
C709 C 0.18412 0.52131 0.04361 0.0
C710 C 0.18576 0.50988 0.0218 0.0
C711 C 0.18192 0.47345 0.95958 0.0
C712 C 0.18448 0.48644 0.98076 0.0
H713 H 0.16234 0.51258 0.09345 0.0
H714 H 0.1687 0.49256 0.05854 0.0
H715 H 0.17159 0.53796 0.00424 0.0
H716 H 0.1814 0.4817 0.90438 0.0
H717 H 0.18872 0.50225 0.93894 0.0
C718 C 0.69243 0.94719 0.30674 0.0
C719 C 0.69947 0.93332 0.32393 0.0
C720 C 0.70616 0.95288 0.28992 0.0
C721 C 0.76312 0.95269 0.2745 0.0
H722 H 0.74026 0.94579 0.21517 0.0
C723 C 0.81378 0.93017 0.19956 0.0
C724 C 0.80923 0.94095 0.17966 0.0
C725 C 0.80105 0.9341 0.21779 0.0
C726 C 0.7468 0.9482 0.23163 0.0
H727 H 0.72656 0.91508 0.33731 0.0
H728 H 0.7503 0.92452 0.3078 0.0
H729 H 0.71647 0.94384 0.2462 0.0
H730 H 0.78815 0.96478 0.16339 0.0
H731 H 0.76568 0.97139 0.1953 0.0
H732 H 0.79362 0.95597 0.25981 0.0
C733 C 0.73432 0.93138 0.30745 0.0
C734 C 0.73318 0.94713 0.24943 0.0
C735 C 0.72064 0.92579 0.32429 0.0
C736 C 0.79203 0.95621 0.17851 0.0
C737 C 0.77914 0.95995 0.19671 0.0
C738 C 0.77675 0.95359 0.2567 0.0
C739 C 0.72718 0.94475 0.28992 0.0
C740 C 0.74125 0.94882 0.27108 0.0
C741 C 0.78342 0.94873 0.21644 0.0
C742 C 0.76878 0.95085 0.23513 0.0
H743 H 0.67624 0.95341 0.3061 0.0
H744 H 0.70025 0.96346 0.2768 0.0
H745 H 0.76977 0.95453 0.29097 0.0
H746 H 0.82698 0.91839 0.20097 0.0
H747 H 0.80457 0.92503 0.23273 0.0
C748 C 0.2983 0.44083 0.57605 0.0
C749 C 0.31446 0.42445 0.57338 0.0
C750 C 0.2931 0.45554 0.55899 0.0
C751 C 0.29786 0.46363 0.49954 0.0
H752 H 0.30463 0.52809 0.51459 0.0
C753 C 0.32283 0.52817 0.43618 0.0
C754 C 0.31502 0.55065 0.43719 0.0
C755 C 0.31804 0.51276 0.45248 0.0
C756 C 0.30219 0.51024 0.51012 0.0
H757 H 0.33697 0.40971 0.55051 0.0
H758 H 0.32761 0.43504 0.52065 0.0
H759 H 0.30363 0.50018 0.54371 0.0
H760 H 0.29576 0.57456 0.456 0.0
H761 H 0.28717 0.54742 0.48453 0.0
H762 H 0.29682 0.4735 0.46597 0.0
C763 C 0.31907 0.43663 0.53591 0.0
C764 C 0.30163 0.49426 0.52681 0.0
C765 C 0.32452 0.42223 0.55304 0.0
C766 C 0.30211 0.55736 0.45483 0.0
C767 C 0.29722 0.54185 0.47118 0.0
C768 C 0.29819 0.47959 0.48288 0.0
C769 C 0.30367 0.45375 0.53889 0.0
C770 C 0.3002 0.47077 0.52161 0.0
C771 C 0.30518 0.51936 0.47017 0.0
C772 C 0.30117 0.50299 0.48793 0.0
H773 H 0.29034 0.44295 0.5916 0.0
H774 H 0.28114 0.46859 0.56163 0.0
H775 H 0.29646 0.44562 0.49514 0.0
H776 H 0.3329 0.52244 0.42288 0.0
H777 H 0.32487 0.49578 0.45142 0.0
C778 C 0.70519 0.05961 0.70156 0.0
C779 C 0.68904 0.04315 0.69874 0.0
C780 C 0.71985 0.05821 0.71884 0.0
C781 C 0.72692 0.03478 0.77381 0.0
H782 H 0.78486 0.05522 0.76581 0.0
C783 C 0.7898 0.04398 0.84477 0.0
C784 C 0.79912 0.06584 0.84601 0.0
C785 C 0.77747 0.03727 0.82638 0.0
C786 C 0.76875 0.04937 0.76824 0.0
H787 H 0.67584 0.01206 0.71168 0.0
H788 H 0.70174 0.0095 0.74195 0.0
H789 H 0.76135 0.04978 0.73389 0.0
H790 H 0.80316 0.09765 0.8289 0.0
H791 H 0.78197 0.08581 0.7968 0.0
H792 H 0.73442 0.03473 0.8083 0.0
C793 C 0.70283 0.02361 0.73083 0.0
C794 C 0.75526 0.04634 0.75002 0.0
C795 C 0.68806 0.02504 0.71347 0.0
C796 C 0.79614 0.08072 0.82845 0.0
C797 C 0.78415 0.0739 0.81001 0.0
C798 C 0.74052 0.03762 0.79207 0.0
C799 C 0.71885 0.04025 0.73372 0.0
C800 C 0.73398 0.03979 0.75266 0.0
C801 C 0.77465 0.05216 0.80882 0.0
C802 C 0.76133 0.04565 0.78946 0.0
H803 H 0.70639 0.07384 0.69058 0.0
H804 H 0.73167 0.07159 0.72083 0.0
H805 H 0.71058 0.02985 0.77642 0.0
H806 H 0.7918 0.03219 0.8581 0.0
H807 H 0.77028 0.02042 0.82581 0.0
C808 C 0.81551 0.451 0.90684 0.0
C809 C 0.82808 0.46035 0.89044 0.0
C810 C 0.81237 0.46305 0.92663 0.0
C811 C 0.81669 0.52032 0.95338 0.0
H812 H 0.82987 0.48661 0.00596 0.0
C813 C 0.84274 0.5646 0.03465 0.0
C814 C 0.83628 0.55526 0.0545 0.0
C815 C 0.83805 0.5534 0.01466 0.0
C816 C 0.82572 0.49622 0.99152 0.0
H817 H 0.84639 0.49006 0.88145 0.0
H818 H 0.8409 0.51103 0.91589 0.0
H819 H 0.8274 0.46638 0.97059 0.0
H820 H 0.8193 0.52716 0.06893 0.0
H821 H 0.81091 0.50775 0.03398 0.0
H822 H 0.81542 0.55025 0.97424 0.0
C823 C 0.83343 0.49444 0.91348 0.0
C824 C 0.82431 0.48461 0.97125 0.0
C825 C 0.8367 0.48235 0.89382 0.0
C826 C 0.82465 0.53472 0.05392 0.0
C827 C 0.81989 0.52355 0.03391 0.0
C828 C 0.818 0.53193 0.97367 0.0
C829 C 0.82157 0.48475 0.93024 0.0
C830 C 0.82025 0.49663 0.95193 0.0
C831 C 0.82671 0.53266 0.01406 0.0
C832 C 0.82301 0.52008 -0.00711 0.0
H833 H 0.80862 0.43409 0.90469 0.0
H834 H 0.80302 0.45527 0.93923 0.0
H835 H 0.81325 0.52995 0.93876 0.0
H836 H 0.85174 0.58039 0.03453 0.0
H837 H 0.84383 0.5607 -0.0003 0.0
C838 C 0.18634 0.03587 0.81186 0.0
C839 C 0.1729 0.05482 0.80912 0.0
C840 C 0.19983 0.02881 0.79499 0.0
C841 C 0.20867 0.03206 0.73577 0.0
H842 H 0.26869 0.03305 0.75112 0.0
C843 C 0.27233 0.04994 0.67261 0.0
C844 C 0.29273 0.04056 0.67503 0.0
C845 C 0.25689 0.0462 0.68827 0.0
C846 C 0.25202 0.0321 0.74654 0.0
H847 H 0.16227 0.08057 0.78638 0.0
H848 H 0.18552 0.06796 0.75681 0.0
H849 H 0.24248 0.03583 0.78003 0.0
H850 H 0.31268 0.01898 0.69522 0.0
H851 H 0.28549 0.01199 0.72239 0.0
H852 H 0.21808 0.02861 0.70229 0.0
C853 C 0.18571 0.05867 0.772 0.0
C854 C 0.23702 0.03376 0.76313 0.0
C855 C 0.17255 0.06598 0.78896 0.0
C856 C 0.29714 0.02662 0.69302 0.0
C857 C 0.28159 0.02269 0.70863 0.0
C858 C 0.22365 0.03008 0.71918 0.0
C859 C 0.19972 0.04029 0.775 0.0
C860 C 0.21526 0.03451 0.75782 0.0
C861 C 0.26138 0.03278 0.70663 0.0
C862 C 0.24552 0.03091 0.72431 0.0
H863 H 0.18696 0.02699 0.82727 0.0
H864 H 0.21051 0.01459 0.79763 0.0
H865 H 0.19194 0.03232 0.73132 0.0
H866 H 0.26843 0.0608 0.65896 0.0
H867 H 0.24167 0.05462 0.68636 0.0
C868 C 0.67785 0.55946 0.41049 0.0
C869 C 0.65982 0.55505 0.39713 0.0
C870 C 0.68358 0.54445 0.42712 0.0
C871 C 0.67499 0.48524 0.44536 0.0
H872 H 0.68949 0.5103 0.50322 0.0
C873 C 0.66608 0.43494 0.52436 0.0
C874 C 0.68133 0.43791 0.54129 0.0
C875 C 0.66708 0.44786 0.50545 0.0
C876 C 0.68586 0.50302 0.48706 0.0
H877 H 0.63366 0.53148 0.39074 0.0
H878 H 0.64347 0.5056 0.41982 0.0
H879 H 0.68431 0.53601 0.47264 0.0
H880 H 0.71004 0.45616 0.55134 0.0
H881 H 0.71171 0.47883 0.51821 0.0
H882 H 0.67588 0.45231 0.45996 0.0
C883 C 0.65341 0.52039 0.41726 0.0
C884 C 0.68288 0.51775 0.46955 0.0
C885 C 0.64768 0.53535 0.40069 0.0
C886 C 0.69802 0.45352 0.5386 0.0
C887 C 0.69893 0.46658 0.5197 0.0
C888 C 0.67791 0.47054 0.46287 0.0
C889 C 0.67142 0.52474 0.43064 0.0
C890 C 0.67692 0.50904 0.44863 0.0
C891 C 0.68329 0.46409 0.50309 0.0
C892 C 0.68291 0.47932 0.484 0.0
H893 H 0.68756 0.57446 0.4081 0.0
H894 H 0.69762 0.54818 0.4371 0.0
H895 H 0.67084 0.47799 0.42932 0.0
H896 H 0.65305 0.423 0.5259 0.0
H897 H 0.65466 0.44574 0.49304 0.0
C898 C 0.30035 0.9612 0.27905 0.0
C899 C 0.29196 0.94796 0.29583 0.0
C900 C 0.28808 0.96601 0.26039 0.0
C901 C 0.23266 0.96364 0.23791 0.0
H902 H 0.2604 0.95367 0.18208 0.0
C903 C 0.1899 0.93007 0.16024 0.0
C904 C 0.19432 0.94001 0.14005 0.0
C905 C 0.20116 0.93674 0.17921 0.0
C906 C 0.25252 0.95696 0.19752 0.0
H907 H 0.26395 0.92997 0.3065 0.0
H908 H 0.24281 0.93781 0.27387 0.0
H909 H 0.28164 0.95512 0.21593 0.0
H910 H 0.21378 0.96495 0.12388 0.0
H911 H 0.23399 0.97622 0.15721 0.0
H912 H 0.20341 0.96406 0.21945 0.0
C913 C 0.25869 0.94491 0.27521 0.0
C914 C 0.26466 0.95784 0.21693 0.0
C915 C 0.27089 0.94023 0.29388 0.0
C916 C 0.21005 0.95702 0.13925 0.0
C917 C 0.22161 0.96344 0.15824 0.0
C918 C 0.22053 0.96252 0.21853 0.0
C919 C 0.26721 0.95761 0.2581 0.0
C920 C 0.25479 0.96046 0.2374 0.0
C921 C 0.21727 0.95327 0.17835 0.0
C922 C 0.2303 0.9585 0.19825 0.0
H923 H 0.3165 0.96757 0.28017 0.0
H924 H 0.29502 0.97607 0.24764 0.0
H925 H 0.22462 0.96623 0.25335 0.0
H926 H 0.17778 0.91701 0.16139 0.0
H927 H 0.1977 0.92842 0.19446 0.0
C928 C 0.67593 0.03475 0.57312 0.0
C929 C 0.68218 0.0244 0.59278 0.0
C930 C 0.67931 0.02374 0.55292 0.0
C931 C 0.68505 0.96623 0.52889 0.0
H932 H 0.69737 -0.00045 0.47626 0.0
C933 C 0.68445 0.92278 0.44263 0.0
C934 C 0.67272 0.93454 0.42662 0.0
C935 C 0.68961 0.93342 0.46281 0.0
C936 C 0.69392 0.99003 0.49083 0.0
H937 H 0.69772 0.99479 0.60663 0.0
H938 H 0.70374 0.97557 0.57121 0.0
H939 H 0.70003 0.01903 0.51211 0.0
H940 H 0.65758 0.96682 0.41906 0.0
H941 H 0.66648 0.98528 0.45425 0.0
H942 H 0.67841 0.93741 0.50755 0.0
C943 C 0.69598 0.9921 0.57151 0.0
C944 C 0.69543 0.00116 0.51133 0.0
C945 C 0.69261 0.00315 0.59177 0.0
C946 C 0.6666 0.95727 0.43105 0.0
C947 C 0.67186 0.96793 0.45114 0.0
C948 C 0.6836 0.95508 0.50838 0.0
C949 C 0.68905 0.00213 0.5519 0.0
C950 C 0.69047 0.98955 0.53053 0.0
C951 C 0.68327 0.95607 0.4673 0.0
C952 C 0.68748 0.96704 0.48911 0.0
H953 H 0.66789 0.05113 0.57331 0.0
H954 H 0.67351 0.0318 0.53816 0.0
H955 H 0.68088 0.95687 0.54334 0.0
H956 H 0.68946 0.90526 0.43968 0.0
H957 H 0.69853 0.92393 0.47492 0.0
C958 C 0.32718 0.40731 0.68992 0.0
C959 C 0.32543 0.42292 0.67284 0.0
C960 C 0.31569 0.4106 0.70909 0.0
C961 C 0.28278 0.45283 0.74029 0.0
H962 H 0.25913 0.39766 0.76426 0.0
C963 C 0.21233 0.44957 0.80061 0.0
C964 C 0.2147 0.43474 0.81832 0.0
C965 C 0.22775 0.45029 0.78439 0.0
C966 C 0.26583 0.41318 0.7579 0.0
H967 H 0.31078 0.4545 0.66251 0.0
H968 H 0.28991 0.45982 0.69569 0.0
H969 H 0.28228 0.39475 0.73283 0.0
H970 H 0.23542 0.40971 0.83339 0.0
H971 H 0.26212 0.41075 0.80486 0.0
H972 H 0.26532 0.47119 0.76504 0.0
C973 C 0.30058 0.44533 0.69457 0.0
C974 C 0.2792 0.41156 0.73993 0.0
C975 C 0.31243 0.44225 0.6755 0.0
C976 C 0.23309 0.42125 0.81991 0.0
C977 C 0.24835 0.42178 0.80358 0.0
C978 C 0.26911 0.45446 0.75813 0.0
C979 C 0.30181 0.42932 0.71145 0.0
C980 C 0.28792 0.43133 0.73091 0.0
C981 C 0.24563 0.43601 0.78551 0.0
C982 C 0.26059 0.43462 0.76709 0.0
H983 H 0.33736 0.39244 0.68841 0.0
H984 H 0.31752 0.39827 0.72198 0.0
H985 H 0.2894 0.46839 0.73394 0.0
H986 H 0.19837 0.46026 0.79902 0.0
H987 H 0.22526 0.46131 0.77053 0.0
C988 C 0.81835 0.07283 0.96318 0.0
C989 C 0.80305 0.07237 0.94612 0.0
C990 C 0.81644 0.05848 0.98099 0.0
C991 C 0.79455 0.0031 -0.0053 0.0
H992 H 0.81235 0.02152 0.05379 0.0
C993 C 0.80191 0.93951 0.06633 0.0
C994 C 0.82064 0.94172 0.0791 0.0
C995 C 0.7965 0.95605 0.05097 0.0
C996 C 0.80738 0.01611 0.03735 0.0
H997 H 0.77326 0.0572 0.9348 0.0
H998 H 0.76997 0.03196 0.96606 0.0
H999 H 0.80776 0.05041 0.02587 0.0
H1000 H 0.8485 0.96289 0.0856 0.0
H1001 H 0.83918 0.99148 0.05881 0.0
H1002 H 0.79481 0.9687 0.00605 0.0
C1003 C 0.78348 0.0434 0.9655 0.0
C1004 C 0.80471 0.03265 0.0214 0.0
C1005 C 0.78531 0.05793 0.9477 0.0
C1006 C 0.83392 0.96067 0.07608 0.0
C1007 C 0.82849 0.97719 0.06086 0.0
C1008 C 0.79723 0.98653 0.01068 0.0
C1009 C 0.79924 0.04327 0.98212 0.0
C1010 C 0.79883 0.02625 -0.00023 0.0
C1011 C 0.80967 0.97516 0.04824 0.0
C1012 C 0.80425 0.99282 0.03201 0.0
H1013 H 0.83217 0.08382 0.96248 0.0
H1014 H 0.82897 0.05861 -0.0066 0.0
H1015 H 0.7902 0.99763 0.97811 0.0
H1016 H 0.79134 0.9251 0.06829 0.0
H1017 H 0.78188 0.95407 0.04149 0.0
C1018 C 0.2083 0.526 0.18933 0.0
C1019 C 0.18966 0.53923 0.18982 0.0
C1020 C 0.22137 0.52464 0.20805 0.0
C1021 C 0.22316 0.53635 0.26821 0.0
H1022 H 0.28254 0.55003 0.2587 0.0
C1023 C 0.27721 0.57695 0.33505 0.0
C1024 C 0.29845 0.56976 0.33666 0.0
C1025 C 0.26408 0.56885 0.3179 0.0
C1026 C 0.26611 0.54577 0.26165 0.0
H1027 H 0.16956 0.56041 0.21058 0.0
H1028 H 0.19234 0.55815 0.24302 0.0
H1029 H 0.25889 0.54263 0.22726 0.0
H1030 H 0.32252 0.54816 0.32169 0.0
H1031 H 0.29951 0.53402 0.29168 0.0
H1032 H 0.23025 0.54025 0.30259 0.0
C1033 C 0.19684 0.54872 0.2283 0.0
C1034 C 0.25256 0.54149 0.24363 0.0
C1035 C 0.18386 0.55016 0.20962 0.0
C1036 C 0.30624 0.5541 0.32086 0.0
C1037 C 0.2931 0.54604 0.30365 0.0
C1038 C 0.2367 0.54064 0.28622 0.0
C1039 C 0.21595 0.53633 0.2276 0.0
C1040 C 0.23083 0.53733 0.24671 0.0
C1041 C 0.27191 0.5534 0.30195 0.0
C1042 C 0.25819 0.54599 0.28309 0.0
H1043 H 0.21315 0.5173 0.17434 0.0
H1044 H 0.23591 0.51478 0.20711 0.0
H1045 H 0.20656 0.53281 0.27109 0.0
H1046 H 0.27072 0.58901 0.34694 0.0
H1047 H 0.24792 0.57514 0.31684 0.0
C1048 C 0.34565 0.05032 0.55282 0.0
C1049 C 0.33858 0.04033 0.57214 0.0
C1050 C 0.33951 0.04123 0.53228 0.0
C1051 C 0.32113 0.98761 0.50572 0.0
H1052 H 0.31075 0.02643 0.4559 0.0
C1053 C 0.30435 0.94974 0.41905 0.0
C1054 C 0.31703 0.95892 0.40265 0.0
C1055 C 0.303 0.96072 0.43962 0.0
C1056 C 0.31361 0.0154 0.46968 0.0
H1057 H 0.31903 0.01336 0.58508 0.0
H1058 H 0.30816 0.99763 0.54919 0.0
H1059 H 0.31581 0.04373 0.49252 0.0
H1060 H 0.33742 0.98735 0.39456 0.0
H1061 H 0.33511 0.00641 0.43041 0.0
H1062 H 0.31937 0.95933 0.48284 0.0
C1063 C 0.31871 0.01228 0.54994 0.0
C1064 C 0.31656 0.02528 0.49061 0.0
C1065 C 0.3249 0.02134 0.5705 0.0
C1066 C 0.32758 0.97978 0.40689 0.0
C1067 C 0.32614 0.9908 0.42738 0.0
C1068 C 0.31811 0.97774 0.48481 0.0
C1069 C 0.32611 0.02201 0.53061 0.0
C1070 C 0.3208 0.01151 0.50878 0.0
C1071 C 0.31417 0.98116 0.44409 0.0
C1072 C 0.31475 0.99155 0.46651 0.0
H1073 H 0.3562 0.06497 0.55353 0.0
H1074 H 0.34575 0.04892 0.51772 0.0
H1075 H 0.32463 0.97653 0.51931 0.0
H1076 H 0.29595 0.93373 0.41626 0.0
H1077 H 0.29348 0.95303 0.45214 0.0
C1078 C 0.76483 0.56119 0.14818 0.0
C1079 C 0.78624 0.5574 0.15389 0.0
C1080 C 0.74885 0.55732 0.16328 0.0
C1081 C 0.73693 0.52914 0.21534 0.0
H1082 H 0.69793 0.5798 0.22367 0.0
C1083 C 0.69105 0.54489 0.29516 0.0
C1084 C 0.67089 0.55514 0.29406 0.0
C1085 C 0.70287 0.54149 0.27618 0.0
C1086 C 0.70834 0.56525 0.2213 0.0
H1087 H 0.80761 0.54562 0.17956 0.0
H1088 H 0.7797 0.539 0.20595 0.0
H1089 H 0.7228 0.58028 0.1936 0.0
H1090 H 0.64678 0.56862 0.27204 0.0
H1091 H 0.66726 0.56226 0.23882 0.0
H1092 H 0.72269 0.5143 0.24333 0.0
C1093 C 0.77528 0.54484 0.18976 0.0
C1094 C 0.72264 0.56556 0.20407 0.0
C1095 C 0.79127 0.54881 0.1747 0.0
C1096 C 0.66237 0.56092 0.27345 0.0
C1097 C 0.67415 0.55736 0.25444 0.0
C1098 C 0.72251 0.52875 0.23253 0.0
C1099 C 0.75395 0.54947 0.18434 0.0
C1100 C 0.73735 0.54773 0.20117 0.0
C1101 C 0.69473 0.54811 0.25565 0.0
C1102 C 0.70835 0.54704 0.23597 0.0
H1103 H 0.76042 0.56767 0.13223 0.0
H1104 H 0.73252 0.56079 0.15859 0.0
H1105 H 0.74793 0.51503 0.2133 0.0
H1106 H 0.69806 0.54023 0.31079 0.0
H1107 H 0.71877 0.53459 0.27777 0.0
C1108 C 0.16199 0.94691 0.03281 0.0
C1109 C 0.18008 0.93491 0.0399 0.0
C1110 C 0.16365 0.96386 0.01725 0.0
C1111 C 0.1957 0.98479 0.97262 0.0
H1112 H 0.16445 0.0409 0.98404 0.0
C1113 C 0.19171 0.05849 0.91058 0.0
C1114 C 0.17103 0.06656 0.90642 0.0
C1115 C 0.19581 0.04424 0.9283 0.0
C1116 C 0.17324 0.02533 0.9806 0.0
H1117 H 0.21403 0.93078 0.03563 0.0
H1118 H 0.21685 0.96047 0.00807 0.0
H1119 H 0.16602 0.01165 0.01186 0.0
H1120 H 0.13859 0.06659 0.91795 0.0
H1121 H 0.14569 0.04184 0.94865 0.0
H1122 H 0.20234 -0.00176 0.94102 0.0
C1123 C 0.20143 0.9567 0.01476 0.0
C1124 C 0.17413 0.0086 -0.00349 0.0
C1125 C 0.1998 0.93974 0.03051 0.0
C1126 C 0.1547 0.06068 0.92068 0.0
C1127 C 0.1588 0.04659 0.93839 0.0
C1128 C 0.19476 0.00156 0.95662 0.0
C1129 C 0.1834 0.96919 0.00832 0.0
C1130 C 0.18485 0.9879 0.99244 0.0
C1131 C 0.17933 0.038 0.94227 0.0
C1132 C 0.18301 0.02172 0.96024 0.0
H1133 H 0.14652 0.94355 0.03956 0.0
H1134 H 0.1494 0.97287 0.01223 0.0
H1135 H 0.20404 0.96896 0.96906 0.0
H1136 H 0.20463 0.06272 0.89986 0.0
H1137 H 0.21181 0.03799 0.931 0.0
C1138 C 0.70996 0.42414 0.64768 0.0
C1139 C 0.69222 0.43836 0.64474 0.0
C1140 C 0.72471 0.42877 0.66448 0.0
C1141 C 0.7448 0.47325 0.70339 0.0
H1142 H 0.76436 0.42044 0.73536 0.0
C1143 C 0.7975 0.47682 0.78333 0.0
C1144 C 0.81382 0.46043 0.78428 0.0
C1145 C 0.78278 0.47638 0.76584 0.0
C1146 C 0.75919 0.43533 0.72647 0.0
H1147 H 0.67636 0.46902 0.65673 0.0
H1148 H 0.70216 0.47697 0.68646 0.0
H1149 H 0.7381 0.41544 0.70596 0.0
H1150 H 0.82826 0.43164 0.76698 0.0
H1151 H 0.80274 0.43098 0.73662 0.0
H1152 H 0.766 0.4931 0.72426 0.0
C1153 C 0.70466 0.46233 0.67557 0.0
C1154 C 0.74416 0.43248 0.70961 0.0
C1155 C 0.68987 0.45773 0.65862 0.0
C1156 C 0.81574 0.44434 0.76692 0.0
C1157 C 0.80107 0.44388 0.74955 0.0
C1158 C 0.75986 0.47613 0.72042 0.0
C1159 C 0.72204 0.44765 0.67887 0.0
C1160 C 0.73708 0.4513 0.69761 0.0
C1161 C 0.78415 0.4595 0.7491 0.0
C1162 C 0.76745 0.4571 0.73183 0.0
H1163 H 0.7124 0.40923 0.63711 0.0
H1164 H 0.7382 0.41742 0.66628 0.0
H1165 H 0.73966 0.48806 0.69438 0.0
H1166 H 0.79565 0.48948 0.79644 0.0
H1167 H 0.76986 0.4886 0.76587 0.0
loop_
_geom_bond_atom_site_label_1
_geom_bond_atom_site_label_2
_geom_bond_distance
_geom_bond_site_symmetry_2
_ccdc_geom_bond_type
C0 O1 1.160 . S
C0 O7 1.185 . S
O1 C0 1.160 . S
O2 Zn3 1.899 . S
O2 C10 1.284 . S
Zn3 O2 1.899 . S
Zn3 O4 2.032 . S
Zn3 O7 2.086 . S
Zn3 O12 1.977 . S
O4 Zn3 2.032 . S
O4 C8 1.278 . S
C5 O6 1.203 . S
C5 O12 1.267 . S
O6 C5 1.203 . S
O7 C0 1.185 . S
O7 Zn3 2.086 . S
C8 O4 1.278 . S
C8 O9 1.211 . S
O9 C8 1.211 . S
C10 O2 1.284 . S
C10 O11 1.273 . S
O11 C10 1.273 . S
O12 Zn3 1.977 . S
O12 C5 1.267 . S
C13 O14 1.160 . S
C13 O20 1.185 . S
O14 C13 1.160 . S
O15 Zn16 1.899 . S
O15 C23 1.284 . S
Zn16 O15 1.899 . S
Zn16 O17 2.032 . S
Zn16 O20 2.086 . S
Zn16 O25 1.977 . S
O17 Zn16 2.032 . S
O17 C21 1.278 . S
C18 O19 1.203 . S
C18 O25 1.267 . S
O19 C18 1.203 . S
O20 C13 1.185 . S
O20 Zn16 2.086 . S
C21 O17 1.278 . S
C21 O22 1.211 . S
O22 C21 1.211 . S
C23 O15 1.284 . S
C23 O24 1.273 . S
O24 C23 1.273 . S
O25 Zn16 1.977 . S
O25 C18 1.267 . S
C26 O27 1.160 . S
C26 O33 1.185 . S
O27 C26 1.160 . S
O28 Zn29 1.899 . S
O28 C36 1.284 . S
Zn29 O28 1.899 . S
Zn29 O30 2.032 . S
Zn29 O33 2.086 . S
Zn29 O38 1.977 . S
O30 Zn29 2.032 . S
O30 C34 1.278 . S
C31 O32 1.203 . S
C31 O38 1.267 . S
O32 C31 1.203 . S
O33 C26 1.185 . S
O33 Zn29 2.086 . S
C34 O30 1.278 . S
C34 O35 1.211 . S
O35 C34 1.211 . S
C36 O28 1.284 . S
C36 O37 1.273 . S
O37 C36 1.273 . S
O38 Zn29 1.977 . S
O38 C31 1.267 . S
C39 O40 1.160 . S
C39 O46 1.185 . S
O40 C39 1.160 . S
O41 Zn42 1.899 . S
O41 C49 1.284 . S
Zn42 O41 1.899 . S
Zn42 O43 2.032 . S
Zn42 O46 2.086 . S
Zn42 O51 1.977 . S
O43 Zn42 2.032 . S
O43 C47 1.278 . S
C44 O45 1.203 . S
C44 O51 1.267 . S
O45 C44 1.203 . S
O46 C39 1.185 . S
O46 Zn42 2.086 . S
C47 O43 1.278 . S
C47 O48 1.211 . S
O48 C47 1.211 . S
C49 O41 1.284 . S
C49 O50 1.273 . S
O50 C49 1.273 . S
O51 Zn42 1.977 . S
O51 C44 1.267 . S
C52 O53 1.160 . S
C52 O59 1.185 . S
O53 C52 1.160 . S
O54 Zn55 1.899 . S
O54 C62 1.284 . S
Zn55 O54 1.899 . S
Zn55 O56 2.032 . S
Zn55 O59 2.086 . S
Zn55 O64 1.977 . S
O56 Zn55 2.032 . S
O56 C60 1.278 . S
C57 O58 1.203 . S
C57 O64 1.267 . S
O58 C57 1.203 . S
O59 C52 1.185 . S
O59 Zn55 2.086 . S
C60 O56 1.278 . S
C60 O61 1.211 . S
O61 C60 1.211 . S
C62 O54 1.284 . S
C62 O63 1.273 . S
O63 C62 1.273 . S
O64 Zn55 1.977 . S
O64 C57 1.267 . S
C65 O66 1.160 . S
C65 O72 1.185 . S
O66 C65 1.160 . S
O67 Zn68 1.899 . S
O67 C75 1.284 . S
Zn68 O67 1.899 . S
Zn68 O69 2.032 . S
Zn68 O72 2.086 . S
Zn68 O77 1.977 . S
O69 Zn68 2.032 . S
O69 C73 1.278 . S
C70 O71 1.203 . S
C70 O77 1.267 . S
O71 C70 1.203 . S
O72 C65 1.185 . S
O72 Zn68 2.086 . S
C73 O69 1.278 . S
C73 O74 1.211 . S
O74 C73 1.211 . S
C75 O67 1.284 . S
C75 O76 1.273 . S
O76 C75 1.273 . S
O77 Zn68 1.977 . S
O77 C70 1.267 . S
C78 O79 1.160 . S
C78 O85 1.185 . S
O79 C78 1.160 . S
O80 Zn81 1.899 . S
O80 C88 1.284 . S
Zn81 O80 1.899 . S
Zn81 O82 2.032 . S
Zn81 O85 2.086 . S
Zn81 O90 1.977 . S
O82 Zn81 2.032 . S
O82 C86 1.278 . S
C83 O84 1.203 . S
C83 O90 1.267 . S
O84 C83 1.203 . S
O85 C78 1.185 . S
O85 Zn81 2.086 . S
C86 O82 1.278 . S
C86 O87 1.211 . S
O87 C86 1.211 . S
C88 O80 1.284 . S
C88 O89 1.273 . S
O89 C88 1.273 . S
O90 Zn81 1.977 . S
O90 C83 1.267 . S
C91 O92 1.160 . S
C91 O98 1.185 . S
O92 C91 1.160 . S
O93 Zn94 1.899 . S
O93 C101 1.284 . S
Zn94 O93 1.899 . S
Zn94 O95 2.032 . S
Zn94 O98 2.086 . S
Zn94 O103 1.977 . S
O95 Zn94 2.032 . S
O95 C99 1.278 . S
C96 O97 1.203 . S
C96 O103 1.267 . S
O97 C96 1.203 . S
O98 C91 1.185 . S
O98 Zn94 2.086 . S
C99 O95 1.278 . S
C99 O100 1.211 . S
O100 C99 1.211 . S
C101 O93 1.284 . S
C101 O102 1.273 . S
O102 C101 1.273 . S
O103 Zn94 1.977 . S
O103 C96 1.267 . S
C104 O105 1.160 . S
C104 O111 1.185 . S
O105 C104 1.160 . S
O106 Zn107 1.899 . S
O106 C114 1.284 . S
Zn107 O106 1.899 . S
Zn107 O108 2.032 . S
Zn107 O111 2.086 . S
Zn107 O116 1.977 . S
O108 Zn107 2.032 . S
O108 C112 1.278 . S
C109 O110 1.203 . S
C109 O116 1.267 . S
O110 C109 1.203 . S
O111 C104 1.185 . S
O111 Zn107 2.086 . S
C112 O108 1.278 . S
C112 O113 1.211 . S
O113 C112 1.211 . S
C114 O106 1.284 . S
C114 O115 1.273 . S
O115 C114 1.273 . S
O116 Zn107 1.977 . S
O116 C109 1.267 . S
C117 O118 1.160 . S
C117 O124 1.185 . S
O118 C117 1.160 . S
O119 Zn120 1.899 . S
O119 C127 1.284 . S
Zn120 O119 1.899 . S
Zn120 O121 2.032 . S
Zn120 O124 2.086 . S
Zn120 O129 1.977 . S
O121 Zn120 2.032 . S
O121 C125 1.278 . S
C122 O123 1.203 . S
C122 O129 1.267 . S
O123 C122 1.203 . S
O124 C117 1.185 . S
O124 Zn120 2.086 . S
C125 O121 1.278 . S
C125 O126 1.211 . S
O126 C125 1.211 . S
C127 O119 1.284 . S
C127 O128 1.273 . S
O128 C127 1.273 . S
O129 Zn120 1.977 . S
O129 C122 1.267 . S
C130 O131 1.160 . S
C130 O137 1.185 . S
O131 C130 1.160 . S
O132 Zn133 1.899 . S
O132 C140 1.284 . S
Zn133 O132 1.899 . S
Zn133 O134 2.032 . S
Zn133 O137 2.086 . S
Zn133 O142 1.977 . S
O134 Zn133 2.032 . S
O134 C138 1.278 . S
C135 O136 1.203 . S
C135 O142 1.267 . S
O136 C135 1.203 . S
O137 C130 1.185 . S
O137 Zn133 2.086 . S
C138 O134 1.278 . S
C138 O139 1.211 . S
O139 C138 1.211 . S
C140 O132 1.284 . S
C140 O141 1.273 . S
O141 C140 1.273 . S
O142 Zn133 1.977 . S
O142 C135 1.267 . S
C143 O144 1.160 . S
C143 O150 1.185 . S
O144 C143 1.160 . S
O145 Zn146 1.899 . S
O145 C153 1.284 . S
Zn146 O145 1.899 . S
Zn146 O147 2.032 . S
Zn146 O150 2.086 . S
Zn146 O155 1.977 . S
O147 Zn146 2.032 . S
O147 C151 1.278 . S
C148 O149 1.203 . S
C148 O155 1.267 . S
O149 C148 1.203 . S
O150 C143 1.185 . S
O150 Zn146 2.086 . S
C151 O147 1.278 . S
C151 O152 1.211 . S
O152 C151 1.211 . S
C153 O145 1.284 . S
C153 O154 1.273 . S
O154 C153 1.273 . S
O155 Zn146 1.977 . S
O155 C148 1.267 . S
C156 O157 1.160 . S
C156 O163 1.185 . S
O157 C156 1.160 . S
O158 Zn159 1.899 . S
O158 C166 1.284 . S
Zn159 O158 1.899 . S
Zn159 O160 2.032 . S
Zn159 O163 2.086 . S
Zn159 O168 1.977 . S
O160 Zn159 2.032 . S
O160 C164 1.278 . S
C161 O162 1.203 . S
C161 O168 1.267 . S
O162 C161 1.203 . S
O163 C156 1.185 . S
O163 Zn159 2.086 . S
C164 O160 1.278 . S
C164 O165 1.211 . S
O165 C164 1.211 . S
C166 O158 1.284 . S
C166 O167 1.273 . S
O167 C166 1.273 . S
O168 Zn159 1.977 . S
O168 C161 1.267 . S
C169 O170 1.160 . S
C169 O176 1.185 . S
O170 C169 1.160 . S
O171 Zn172 1.899 . S
O171 C179 1.284 . S
Zn172 O171 1.899 . S
Zn172 O173 2.032 . S
Zn172 O176 2.086 . S
Zn172 O181 1.977 . S
O173 Zn172 2.032 . S
O173 C177 1.278 . S
C174 O175 1.203 . S
C174 O181 1.267 . S
O175 C174 1.203 . S
O176 C169 1.185 . S
O176 Zn172 2.086 . S
C177 O173 1.278 . S
C177 O178 1.211 . S
O178 C177 1.211 . S
C179 O171 1.284 . S
C179 O180 1.273 . S
O180 C179 1.273 . S
O181 Zn172 1.977 . S
O181 C174 1.267 . S
C182 O183 1.160 . S
C182 O189 1.185 . S
O183 C182 1.160 . S
O184 Zn185 1.899 . S
O184 C192 1.284 . S
Zn185 O184 1.899 . S
Zn185 O186 2.032 . S
Zn185 O189 2.086 . S
Zn185 O194 1.977 . S
O186 Zn185 2.032 . S
O186 C190 1.278 . S
C187 O188 1.203 . S
C187 O194 1.267 . S
O188 C187 1.203 . S
O189 C182 1.185 . S
O189 Zn185 2.086 . S
C190 O186 1.278 . S
C190 O191 1.211 . S
O191 C190 1.211 . S
C192 O184 1.284 . S
C192 O193 1.273 . S
O193 C192 1.273 . S
O194 Zn185 1.977 . S
O194 C187 1.267 . S
C195 O196 1.160 . S
C195 O202 1.185 . S
O196 C195 1.160 . S
O197 Zn198 1.899 . S
O197 C205 1.284 . S
Zn198 O197 1.899 . S
Zn198 O199 2.032 . S
Zn198 O202 2.086 . S
Zn198 O207 1.977 . S
O199 Zn198 2.032 . S
O199 C203 1.278 . S
C200 O201 1.203 . S
C200 O207 1.267 . S
O201 C200 1.203 . S
O202 C195 1.185 . S
O202 Zn198 2.086 . S
C203 O199 1.278 . S
C203 O204 1.211 . S
O204 C203 1.211 . S
C205 O197 1.284 . S
C205 O206 1.273 . S
O206 C205 1.273 . S
O207 Zn198 1.977 . S
O207 C200 1.267 . S
C208 C209 1.349 . S
C208 C210 1.327 . S
C208 H233 0.950 . S
C209 C208 1.349 . S
C209 C225 1.349 . S
C210 C208 1.327 . S
C210 C229 1.429 . S
C210 H234 0.950 . S
C211 C228 1.574 . S
C211 C230 1.368 . S
C211 H235 0.949 . S
H212 C216 0.949 . S
C213 C214 1.349 . S
C213 C215 1.327 . S
C213 H236 0.950 . S
C214 C213 1.349 . S
C214 C226 1.349 . S
C215 C213 1.327 . S
C215 C231 1.429 . S
C215 H237 0.950 . S
C216 H212 0.949 . S
C216 C224 1.574 . S
C216 C232 1.368 . S
H217 C225 0.950 . S
H218 C223 0.950 . S
H219 C224 0.949 . S
H220 C226 0.950 . S
H221 C227 0.950 . S
H222 C228 0.949 . S
C223 H218 0.950 . S
C223 C225 1.327 . S
C223 C229 1.429 . S
C224 C216 1.574 . S
C224 H219 0.949 . S
C224 C230 1.368 . S
C225 C209 1.349 . S
C225 H217 0.950 . S
C225 C223 1.327 . S
C226 C214 1.349 . S
C226 H220 0.950 . S
C226 C227 1.327 . S
C227 H221 0.950 . S
C227 C226 1.327 . S
C227 C231 1.429 . S
C228 C211 1.574 . S
C228 H222 0.949 . S
C228 C232 1.368 . S
C229 C210 1.429 . S
C229 C223 1.429 . S
C229 C230 1.523 . S
C230 C211 1.368 . S
C230 C224 1.368 . S
C230 C229 1.523 . S
C231 C215 1.429 . S
C231 C227 1.429 . S
C231 C232 1.523 . S
C232 C216 1.368 . S
C232 C228 1.368 . S
C232 C231 1.523 . S
H233 C208 0.950 . S
H234 C210 0.950 . S
H235 C211 0.949 . S
H236 C213 0.950 . S
H237 C215 0.950 . S
C238 C239 1.349 . S
C238 C240 1.327 . S
C238 H263 0.950 . S
C239 C238 1.349 . S
C239 C255 1.349 . S
C240 C238 1.327 . S
C240 C259 1.429 . S
C240 H264 0.950 . S
C241 C258 1.574 . S
C241 C260 1.368 . S
C241 H265 0.949 . S
H242 C246 0.949 . S
C243 C244 1.349 . S
C243 C245 1.327 . S
C243 H266 0.950 . S
C244 C243 1.349 . S
C244 C256 1.349 . S
C245 C243 1.327 . S
C245 C261 1.429 . S
C245 H267 0.950 . S
C246 H242 0.949 . S
C246 C254 1.574 . S
C246 C262 1.368 . S
H247 C255 0.950 . S
H248 C253 0.950 . S
H249 C254 0.949 . S
H250 C256 0.950 . S
H251 C257 0.950 . S
H252 C258 0.949 . S
C253 H248 0.950 . S
C253 C255 1.327 . S
C253 C259 1.429 . S
C254 C246 1.574 . S
C254 H249 0.949 . S
C254 C260 1.368 . S
C255 C239 1.349 . S
C255 H247 0.950 . S
C255 C253 1.327 . S
C256 C244 1.349 . S
C256 H250 0.950 . S
C256 C257 1.327 . S
C257 H251 0.950 . S
C257 C256 1.327 . S
C257 C261 1.429 . S
C258 C241 1.574 . S
C258 H252 0.949 . S
C258 C262 1.368 . S
C259 C240 1.429 . S
C259 C253 1.429 . S
C259 C260 1.523 . S
C260 C241 1.368 . S
C260 C254 1.368 . S
C260 C259 1.523 . S
C261 C245 1.429 . S
C261 C257 1.429 . S
C261 C262 1.523 . S
C262 C246 1.368 . S
C262 C258 1.368 . S
C262 C261 1.523 . S
H263 C238 0.950 . S
H264 C240 0.950 . S
H265 C241 0.949 . S
H266 C243 0.950 . S
H267 C245 0.950 . S
C268 C269 1.349 . S
C268 C270 1.327 . S
C268 H293 0.950 . S
C269 C268 1.349 . S
C269 C285 1.349 . S
C270 C268 1.327 . S
C270 C289 1.429 . S
C270 H294 0.950 . S
C271 C288 1.574 . S
C271 C290 1.368 . S
C271 H295 0.949 . S
H272 C276 0.949 . S
C273 C274 1.349 . S
C273 C275 1.327 . S
C273 H296 0.950 . S
C274 C273 1.349 . S
C274 C286 1.349 . S
C275 C273 1.327 . S
C275 C291 1.429 . S
C275 H297 0.950 . S
C276 H272 0.949 . S
C276 C284 1.574 . S
C276 C292 1.368 . S
H277 C285 0.950 . S
H278 C283 0.950 . S
H279 C284 0.949 . S
H280 C286 0.950 . S
H281 C287 0.950 . S
H282 C288 0.949 . S
C283 H278 0.950 . S
C283 C285 1.327 . S
C283 C289 1.429 . S
C284 C276 1.574 . S
C284 H279 0.949 . S
C284 C290 1.368 . S
C285 C269 1.349 . S
C285 H277 0.950 . S
C285 C283 1.327 . S
C286 C274 1.349 . S
C286 H280 0.950 . S
C286 C287 1.327 . S
C287 H281 0.950 . S
C287 C286 1.327 . S
C287 C291 1.429 . S
C288 C271 1.574 . S
C288 H282 0.949 . S
C288 C292 1.368 . S
C289 C270 1.429 . S
C289 C283 1.429 . S
C289 C290 1.523 . S
C290 C271 1.368 . S
C290 C284 1.368 . S
C290 C289 1.523 . S
C291 C275 1.429 . S
C291 C287 1.429 . S
C291 C292 1.523 . S
C292 C276 1.368 . S
C292 C288 1.368 . S
C292 C291 1.523 . S
H293 C268 0.950 . S
H294 C270 0.950 . S
H295 C271 0.949 . S
H296 C273 0.950 . S
H297 C275 0.950 . S
C298 C299 1.349 . S
C298 C300 1.327 . S
C298 H323 0.950 . S
C299 C298 1.349 . S
C299 C315 1.349 . S
C300 C298 1.327 . S
C300 C319 1.429 . S
C300 H324 0.950 . S
C301 C318 1.574 1_455 S
C301 C320 1.368 . S
C301 H325 0.949 . S
H302 C306 0.949 . S
C303 C304 1.349 . S
C303 C305 1.327 . S
C303 H326 0.950 . S
C304 C303 1.349 . S
C304 C316 1.349 . S
C305 C303 1.327 . S
C305 C321 1.429 . S
C305 H327 0.950 . S
C306 H302 0.949 . S
C306 C314 1.574 1_655 S
C306 C322 1.368 . S
H307 C315 0.950 . S
H308 C313 0.950 . S
H309 C314 0.949 . S
H310 C316 0.950 . S
H311 C317 0.950 . S
H312 C318 0.949 . S
C313 H308 0.950 . S
C313 C315 1.327 . S
C313 C319 1.429 . S
C314 C306 1.574 1_455 S
C314 H309 0.949 . S
C314 C320 1.368 . S
C315 C299 1.349 . S
C315 H307 0.950 . S
C315 C313 1.327 . S
C316 C304 1.349 . S
C316 H310 0.950 . S
C316 C317 1.327 . S
C317 H311 0.950 . S
C317 C316 1.327 . S
C317 C321 1.429 . S
C318 C301 1.574 1_655 S
C318 H312 0.949 . S
C318 C322 1.368 . S
C319 C300 1.429 . S
C319 C313 1.429 . S
C319 C320 1.523 . S
C320 C301 1.368 . S
C320 C314 1.368 . S
C320 C319 1.523 . S
C321 C305 1.429 . S
C321 C317 1.429 . S
C321 C322 1.523 . S
C322 C306 1.368 . S
C322 C318 1.368 . S
C322 C321 1.523 . S
H323 C298 0.950 . S
H324 C300 0.950 . S
H325 C301 0.949 . S
H326 C303 0.950 . S
H327 C305 0.950 . S
C328 C329 1.349 . S
C328 C330 1.327 . S
C328 H353 0.950 . S
C329 C328 1.349 . S
C329 C345 1.349 . S
C330 C328 1.327 . S
C330 C349 1.429 . S
C330 H354 0.950 . S
C331 C348 1.574 . S
C331 C350 1.368 . S
C331 H355 0.949 . S
H332 C336 0.949 . S
C333 C334 1.349 . S
C333 C335 1.327 . S
C333 H356 0.950 . S
C334 C333 1.349 . S
C334 C346 1.349 . S
C335 C333 1.327 . S
C335 C351 1.429 . S
C335 H357 0.950 . S
C336 H332 0.949 . S
C336 C344 1.574 . S
C336 C352 1.368 . S
H337 C345 0.950 . S
H338 C343 0.950 . S
H339 C344 0.949 . S
H340 C346 0.950 . S
H341 C347 0.950 . S
H342 C348 0.949 . S
C343 H338 0.950 . S
C343 C345 1.327 . S
C343 C349 1.429 . S
C344 C336 1.574 . S
C344 H339 0.949 . S
C344 C350 1.368 . S
C345 C329 1.349 . S
C345 H337 0.950 . S
C345 C343 1.327 . S
C346 C334 1.349 . S
C346 H340 0.950 . S
C346 C347 1.327 . S
C347 H341 0.950 . S
C347 C346 1.327 . S
C347 C351 1.429 . S
C348 C331 1.574 . S
C348 H342 0.949 . S
C348 C352 1.368 . S
C349 C330 1.429 . S
C349 C343 1.429 . S
C349 C350 1.523 . S
C350 C331 1.368 . S
C350 C344 1.368 . S
C350 C349 1.523 . S
C351 C335 1.429 . S
C351 C347 1.429 . S
C351 C352 1.523 . S
C352 C336 1.368 . S
C352 C348 1.368 . S
C352 C351 1.523 . S
H353 C328 0.950 . S
H354 C330 0.950 . S
H355 C331 0.949 . S
H356 C333 0.950 . S
H357 C335 0.950 . S
C358 C359 1.349 . S
C358 C360 1.327 . S
C358 H383 0.950 . S
C359 C358 1.349 . S
C359 C375 1.349 . S
C360 C358 1.327 . S
C360 C379 1.429 . S
C360 H384 0.950 . S
C361 C378 1.574 1_655 S
C361 C380 1.368 . S
C361 H385 0.949 . S
H362 C366 0.949 . S
C363 C364 1.349 . S
C363 C365 1.327 . S
C363 H386 0.950 . S
C364 C363 1.349 . S
C364 C376 1.349 . S
C365 C363 1.327 . S
C365 C381 1.429 . S
C365 H387 0.950 . S
C366 H362 0.949 . S
C366 C374 1.574 1_455 S
C366 C382 1.368 . S
H367 C375 0.950 . S
H368 C373 0.950 . S
H369 C374 0.949 . S
H370 C376 0.950 . S
H371 C377 0.950 . S
H372 C378 0.949 . S
C373 H368 0.950 . S
C373 C375 1.327 . S
C373 C379 1.429 . S
C374 C366 1.574 1_655 S
C374 H369 0.949 . S
C374 C380 1.368 . S
C375 C359 1.349 . S
C375 H367 0.950 . S
C375 C373 1.327 . S
C376 C364 1.349 . S
C376 H370 0.950 . S
C376 C377 1.327 . S
C377 H371 0.950 . S
C377 C376 1.327 . S
C377 C381 1.429 . S
C378 C361 1.574 1_455 S
C378 H372 0.949 . S
C378 C382 1.368 . S
C379 C360 1.429 . S
C379 C373 1.429 . S
C379 C380 1.523 . S
C380 C361 1.368 . S
C380 C374 1.368 . S
C380 C379 1.523 . S
C381 C365 1.429 . S
C381 C377 1.429 . S
C381 C382 1.523 . S
C382 C366 1.368 . S
C382 C378 1.368 . S
C382 C381 1.523 . S
H383 C358 0.950 . S
H384 C360 0.950 . S
H385 C361 0.949 . S
H386 C363 0.950 . S
H387 C365 0.950 . S
C388 C389 1.349 . S
C388 C390 1.327 . S
C388 H413 0.950 . S
C389 C388 1.349 . S
C389 C405 1.349 . S
C390 C388 1.327 . S
C390 C409 1.429 . S
C390 H414 0.950 . S
C391 C408 1.574 . S
C391 C410 1.368 . S
C391 H415 0.949 . S
H392 C396 0.949 . S
C393 C394 1.349 . S
C393 C395 1.327 . S
C393 H416 0.950 . S
C394 C393 1.349 . S
C394 C406 1.349 . S
C395 C393 1.327 . S
C395 C411 1.429 . S
C395 H417 0.950 . S
C396 H392 0.949 . S
C396 C404 1.574 . S
C396 C412 1.368 . S
H397 C405 0.950 . S
H398 C403 0.950 . S
H399 C404 0.949 . S
H400 C406 0.950 . S
H401 C407 0.950 . S
H402 C408 0.949 . S
C403 H398 0.950 . S
C403 C405 1.327 . S
C403 C409 1.429 . S
C404 C396 1.574 . S
C404 H399 0.949 . S
C404 C410 1.368 . S
C405 C389 1.349 . S
C405 H397 0.950 . S
C405 C403 1.327 . S
C406 C394 1.349 . S
C406 H400 0.950 . S
C406 C407 1.327 . S
C407 H401 0.950 . S
C407 C406 1.327 . S
C407 C411 1.429 . S
C408 C391 1.574 . S
C408 H402 0.949 . S
C408 C412 1.368 . S
C409 C390 1.429 . S
C409 C403 1.429 . S
C409 C410 1.523 . S
C410 C391 1.368 . S
C410 C404 1.368 . S
C410 C409 1.523 . S
C411 C395 1.429 . S
C411 C407 1.429 . S
C411 C412 1.523 . S
C412 C396 1.368 . S
C412 C408 1.368 . S
C412 C411 1.523 . S
H413 C388 0.950 . S
H414 C390 0.950 . S
H415 C391 0.949 . S
H416 C393 0.950 . S
H417 C395 0.950 . S
C418 C419 1.349 . S
C418 C420 1.327 . S
C418 H443 0.950 . S
C419 C418 1.349 . S
C419 C435 1.349 . S
C420 C418 1.327 . S
C420 C439 1.429 . S
C420 H444 0.950 . S
C421 C438 1.574 . S
C421 C440 1.368 . S
C421 H445 0.949 . S
H422 C426 0.949 . S
C423 C424 1.349 . S
C423 C425 1.327 . S
C423 H446 0.950 . S
C424 C423 1.349 . S
C424 C436 1.349 . S
C425 C423 1.327 . S
C425 C441 1.429 . S
C425 H447 0.950 . S
C426 H422 0.949 . S
C426 C434 1.574 . S
C426 C442 1.368 . S
H427 C435 0.950 . S
H428 C433 0.950 . S
H429 C434 0.949 . S
H430 C436 0.950 . S
H431 C437 0.950 . S
H432 C438 0.949 . S
C433 H428 0.950 . S
C433 C435 1.327 . S
C433 C439 1.429 . S
C434 C426 1.574 . S
C434 H429 0.949 . S
C434 C440 1.368 . S
C435 C419 1.349 . S
C435 H427 0.950 . S
C435 C433 1.327 . S
C436 C424 1.349 . S
C436 H430 0.950 . S
C436 C437 1.327 . S
C437 H431 0.950 . S
C437 C436 1.327 . S
C437 C441 1.429 . S
C438 C421 1.574 . S
C438 H432 0.949 . S
C438 C442 1.368 . S
C439 C420 1.429 . S
C439 C433 1.429 . S
C439 C440 1.523 . S
C440 C421 1.368 . S
C440 C434 1.368 . S
C440 C439 1.523 . S
C441 C425 1.429 . S
C441 C437 1.429 . S
C441 C442 1.523 . S
C442 C426 1.368 . S
C442 C438 1.368 . S
C442 C441 1.523 . S
H443 C418 0.950 . S
H444 C420 0.950 . S
H445 C421 0.949 . S
H446 C423 0.950 . S
H447 C425 0.950 . S
C448 C449 1.349 . S
C448 C450 1.327 . S
C448 H473 0.950 . S
C449 C448 1.349 . S
C449 C465 1.349 . S
C450 C448 1.327 . S
C450 C469 1.429 . S
C450 H474 0.950 . S
C451 C468 1.574 . S
C451 C470 1.368 . S
C451 H475 0.949 . S
H452 C456 0.949 . S
C453 C454 1.349 . S
C453 C455 1.327 . S
C453 H476 0.950 . S
C454 C453 1.349 . S
C454 C466 1.349 . S
C455 C453 1.327 . S
C455 C471 1.429 . S
C455 H477 0.950 . S
C456 H452 0.949 . S
C456 C464 1.574 . S
C456 C472 1.368 . S
H457 C465 0.950 . S
H458 C463 0.950 . S
H459 C464 0.949 . S
H460 C466 0.950 . S
H461 C467 0.950 . S
H462 C468 0.949 . S
C463 H458 0.950 . S
C463 C465 1.327 . S
C463 C469 1.429 . S
C464 C456 1.574 . S
C464 H459 0.949 . S
C464 C470 1.368 . S
C465 C449 1.349 . S
C465 H457 0.950 . S
C465 C463 1.327 . S
C466 C454 1.349 . S
C466 H460 0.950 . S
C466 C467 1.327 . S
C467 H461 0.950 . S
C467 C466 1.327 . S
C467 C471 1.429 . S
C468 C451 1.574 . S
C468 H462 0.949 . S
C468 C472 1.368 . S
C469 C450 1.429 . S
C469 C463 1.429 . S
C469 C470 1.523 . S
C470 C451 1.368 . S
C470 C464 1.368 . S
C470 C469 1.523 . S
C471 C455 1.429 . S
C471 C467 1.429 . S
C471 C472 1.523 . S
C472 C456 1.368 . S
C472 C468 1.368 . S
C472 C471 1.523 . S
H473 C448 0.950 . S
H474 C450 0.950 . S
H475 C451 0.949 . S
H476 C453 0.950 . S
H477 C455 0.950 . S
C478 C479 1.349 . S
C478 C480 1.327 . S
C478 H503 0.950 . S
C479 C478 1.349 . S
C479 C495 1.349 . S
C480 C478 1.327 . S
C480 C499 1.429 . S
C480 H504 0.950 . S
C481 C498 1.574 . S
C481 C500 1.368 . S
C481 H505 0.949 . S
H482 C486 0.949 . S
C483 C484 1.349 . S
C483 C485 1.327 . S
C483 H506 0.950 . S
C484 C483 1.349 . S
C484 C496 1.349 . S
C485 C483 1.327 . S
C485 C501 1.429 . S
C485 H507 0.950 . S
C486 H482 0.949 . S
C486 C494 1.574 . S
C486 C502 1.368 . S
H487 C495 0.950 . S
H488 C493 0.950 . S
H489 C494 0.949 . S
H490 C496 0.950 . S
H491 C497 0.950 . S
H492 C498 0.949 . S
C493 H488 0.950 . S
C493 C495 1.327 . S
C493 C499 1.429 . S
C494 C486 1.574 . S
C494 H489 0.949 . S
C494 C500 1.368 . S
C495 C479 1.349 . S
C495 H487 0.950 . S
C495 C493 1.327 . S
C496 C484 1.349 . S
C496 H490 0.950 . S
C496 C497 1.327 . S
C497 H491 0.950 . S
C497 C496 1.327 . S
C497 C501 1.429 . S
C498 C481 1.574 . S
C498 H492 0.949 . S
C498 C502 1.368 . S
C499 C480 1.429 . S
C499 C493 1.429 . S
C499 C500 1.523 . S
C500 C481 1.368 . S
C500 C494 1.368 . S
C500 C499 1.523 . S
C501 C485 1.429 . S
C501 C497 1.429 . S
C501 C502 1.523 . S
C502 C486 1.368 . S
C502 C498 1.368 . S
C502 C501 1.523 . S
H503 C478 0.950 . S
H504 C480 0.950 . S
H505 C481 0.949 . S
H506 C483 0.950 . S
H507 C485 0.950 . S
C508 C509 1.349 . S
C508 C510 1.327 . S
C508 H533 0.950 . S
C509 C508 1.349 . S
C509 C525 1.349 . S
C510 C508 1.327 . S
C510 C529 1.429 . S
C510 H534 0.950 . S
C511 C528 1.574 . S
C511 C530 1.368 . S
C511 H535 0.949 . S
H512 C516 0.949 . S
C513 C514 1.349 . S
C513 C515 1.327 . S
C513 H536 0.950 . S
C514 C513 1.349 . S
C514 C526 1.349 . S
C515 C513 1.327 . S
C515 C531 1.429 . S
C515 H537 0.950 . S
C516 H512 0.949 . S
C516 C524 1.574 . S
C516 C532 1.368 . S
H517 C525 0.950 . S
H518 C523 0.950 . S
H519 C524 0.949 . S
H520 C526 0.950 . S
H521 C527 0.950 . S
H522 C528 0.949 . S
C523 H518 0.950 . S
C523 C525 1.327 . S
C523 C529 1.429 . S
C524 C516 1.574 . S
C524 H519 0.949 . S
C524 C530 1.368 . S
C525 C509 1.349 . S
C525 H517 0.950 . S
C525 C523 1.327 . S
C526 C514 1.349 . S
C526 H520 0.950 . S
C526 C527 1.327 . S
C527 H521 0.950 . S
C527 C526 1.327 . S
C527 C531 1.429 . S
C528 C511 1.574 . S
C528 H522 0.949 . S
C528 C532 1.368 . S
C529 C510 1.429 . S
C529 C523 1.429 . S
C529 C530 1.523 . S
C530 C511 1.368 . S
C530 C524 1.368 . S
C530 C529 1.523 . S
C531 C515 1.429 . S
C531 C527 1.429 . S
C531 C532 1.523 . S
C532 C516 1.368 . S
C532 C528 1.368 . S
C532 C531 1.523 . S
H533 C508 0.950 . S
H534 C510 0.950 . S
H535 C511 0.949 . S
H536 C513 0.950 . S
H537 C515 0.950 . S
C538 C539 1.349 . S
C538 C540 1.327 . S
C538 H563 0.950 . S
C539 C538 1.349 . S
C539 C555 1.349 . S
C540 C538 1.327 . S
C540 C559 1.429 . S
C540 H564 0.950 . S
C541 C558 1.574 . S
C541 C560 1.368 . S
C541 H565 0.949 . S
H542 C546 0.949 . S
C543 C544 1.349 . S
C543 C545 1.327 . S
C543 H566 0.950 . S
C544 C543 1.349 . S
C544 C556 1.349 . S
C545 C543 1.327 . S
C545 C561 1.429 . S
C545 H567 0.950 . S
C546 H542 0.949 . S
C546 C554 1.574 . S
C546 C562 1.368 . S
H547 C555 0.950 . S
H548 C553 0.950 . S
H549 C554 0.949 . S
H550 C556 0.950 . S
H551 C557 0.950 . S
H552 C558 0.949 . S
C553 H548 0.950 . S
C553 C555 1.327 . S
C553 C559 1.429 . S
C554 C546 1.574 . S
C554 H549 0.949 . S
C554 C560 1.368 . S
C555 C539 1.349 . S
C555 H547 0.950 . S
C555 C553 1.327 . S
C556 C544 1.349 . S
C556 H550 0.950 . S
C556 C557 1.327 . S
C557 H551 0.950 . S
C557 C556 1.327 . S
C557 C561 1.429 . S
C558 C541 1.574 . S
C558 H552 0.949 . S
C558 C562 1.368 . S
C559 C540 1.429 . S
C559 C553 1.429 . S
C559 C560 1.523 . S
C560 C541 1.368 . S
C560 C554 1.368 . S
C560 C559 1.523 . S
C561 C545 1.429 . S
C561 C557 1.429 . S
C561 C562 1.523 . S
C562 C546 1.368 . S
C562 C558 1.368 . S
C562 C561 1.523 . S
H563 C538 0.950 . S
H564 C540 0.950 . S
H565 C541 0.949 . S
H566 C543 0.950 . S
H567 C545 0.950 . S
C568 C569 1.349 . S
C568 C570 1.327 . S
C568 H593 0.950 . S
C569 C568 1.349 . S
C569 C585 1.349 . S
C570 C568 1.327 . S
C570 C589 1.429 . S
C570 H594 0.950 . S
C571 C588 1.574 1_455 S
C571 C590 1.368 . S
C571 H595 0.949 . S
H572 C576 0.949 . S
C573 C574 1.349 . S
C573 C575 1.327 . S
C573 H596 0.950 . S
C574 C573 1.349 . S
C574 C586 1.349 . S
C575 C573 1.327 . S
C575 C591 1.429 . S
C575 H597 0.950 . S
C576 H572 0.949 . S
C576 C584 1.574 1_655 S
C576 C592 1.368 . S
H577 C585 0.950 . S
H578 C583 0.950 . S
H579 C584 0.949 . S
H580 C586 0.950 . S
H581 C587 0.950 . S
H582 C588 0.949 . S
C583 H578 0.950 . S
C583 C585 1.327 . S
C583 C589 1.429 . S
C584 C576 1.574 1_455 S
C584 H579 0.949 . S
C584 C590 1.368 . S
C585 C569 1.349 . S
C585 H577 0.950 . S
C585 C583 1.327 . S
C586 C574 1.349 . S
C586 H580 0.950 . S
C586 C587 1.327 . S
C587 H581 0.950 . S
C587 C586 1.327 . S
C587 C591 1.429 . S
C588 C571 1.574 1_655 S
C588 H582 0.949 . S
C588 C592 1.368 . S
C589 C570 1.429 . S
C589 C583 1.429 . S
C589 C590 1.523 . S
C590 C571 1.368 . S
C590 C584 1.368 . S
C590 C589 1.523 . S
C591 C575 1.429 . S
C591 C587 1.429 . S
C591 C592 1.523 . S
C592 C576 1.368 . S
C592 C588 1.368 . S
C592 C591 1.523 . S
H593 C568 0.950 . S
H594 C570 0.950 . S
H595 C571 0.949 . S
H596 C573 0.950 . S
H597 C575 0.950 . S
C598 C599 1.349 . S
C598 C600 1.327 . S
C598 H623 0.950 . S
C599 C598 1.349 . S
C599 C615 1.349 . S
C600 C598 1.327 . S
C600 C619 1.429 . S
C600 H624 0.950 . S
C601 C618 1.574 . S
C601 C620 1.368 . S
C601 H625 0.949 . S
H602 C606 0.949 . S
C603 C604 1.349 . S
C603 C605 1.327 . S
C603 H626 0.950 . S
C604 C603 1.349 . S
C604 C616 1.349 . S
C605 C603 1.327 . S
C605 C621 1.429 . S
C605 H627 0.950 . S
C606 H602 0.949 . S
C606 C614 1.574 . S
C606 C622 1.368 . S
H607 C615 0.950 . S
H608 C613 0.950 . S
H609 C614 0.949 . S
H610 C616 0.950 . S
H611 C617 0.950 . S
H612 C618 0.949 . S
C613 H608 0.950 . S
C613 C615 1.327 . S
C613 C619 1.429 . S
C614 C606 1.574 . S
C614 H609 0.949 . S
C614 C620 1.368 . S
C615 C599 1.349 . S
C615 H607 0.950 . S
C615 C613 1.327 . S
C616 C604 1.349 . S
C616 H610 0.950 . S
C616 C617 1.327 . S
C617 H611 0.950 . S
C617 C616 1.327 . S
C617 C621 1.429 . S
C618 C601 1.574 . S
C618 H612 0.949 . S
C618 C622 1.368 . S
C619 C600 1.429 . S
C619 C613 1.429 . S
C619 C620 1.523 . S
C620 C601 1.368 . S
C620 C614 1.368 . S
C620 C619 1.523 . S
C621 C605 1.429 . S
C621 C617 1.429 . S
C621 C622 1.523 . S
C622 C606 1.368 . S
C622 C618 1.368 . S
C622 C621 1.523 . S
H623 C598 0.950 . S
H624 C600 0.950 . S
H625 C601 0.949 . S
H626 C603 0.950 . S
H627 C605 0.950 . S
C628 C629 1.349 . S
C628 C630 1.327 . S
C628 H653 0.950 . S
C629 C628 1.349 . S
C629 C645 1.349 . S
C630 C628 1.327 . S
C630 C649 1.429 . S
C630 H654 0.950 . S
C631 C648 1.574 . S
C631 C650 1.368 . S
C631 H655 0.949 . S
H632 C636 0.949 . S
C633 C634 1.349 . S
C633 C635 1.327 . S
C633 H656 0.950 . S
C634 C633 1.349 . S
C634 C646 1.349 . S
C635 C633 1.327 . S
C635 C651 1.429 . S
C635 H657 0.950 . S
C636 H632 0.949 . S
C636 C644 1.574 . S
C636 C652 1.368 . S
H637 C645 0.950 . S
H638 C643 0.950 . S
H639 C644 0.949 . S
H640 C646 0.950 . S
H641 C647 0.950 . S
H642 C648 0.949 . S
C643 H638 0.950 . S
C643 C645 1.327 . S
C643 C649 1.429 . S
C644 C636 1.574 . S
C644 H639 0.949 . S
C644 C650 1.368 . S
C645 C629 1.349 . S
C645 H637 0.950 . S
C645 C643 1.327 . S
C646 C634 1.349 . S
C646 H640 0.950 . S
C646 C647 1.327 . S
C647 H641 0.950 . S
C647 C646 1.327 . S
C647 C651 1.429 . S
C648 C631 1.574 . S
C648 H642 0.949 . S
C648 C652 1.368 . S
C649 C630 1.429 . S
C649 C643 1.429 . S
C649 C650 1.523 . S
C650 C631 1.368 . S
C650 C644 1.368 . S
C650 C649 1.523 . S
C651 C635 1.429 . S
C651 C647 1.429 . S
C651 C652 1.523 . S
C652 C636 1.368 . S
C652 C648 1.368 . S
C652 C651 1.523 . S
H653 C628 0.950 . S
H654 C630 0.950 . S
H655 C631 0.949 . S
H656 C633 0.950 . S
H657 C635 0.950 . S
C658 C659 1.349 . S
C658 C660 1.327 . S
C658 H683 0.950 . S
C659 C658 1.349 . S
C659 C675 1.349 . S
C660 C658 1.327 . S
C660 C679 1.429 . S
C660 H684 0.950 . S
C661 C678 1.574 1_455 S
C661 C680 1.368 . S
C661 H685 0.949 . S
H662 C666 0.949 . S
C663 C664 1.349 . S
C663 C665 1.327 . S
C663 H686 0.950 . S
C664 C663 1.349 . S
C664 C676 1.349 . S
C665 C663 1.327 . S
C665 C681 1.429 . S
C665 H687 0.950 . S
C666 H662 0.949 . S
C666 C674 1.574 1_655 S
C666 C682 1.368 . S
H667 C675 0.950 . S
H668 C673 0.950 . S
H669 C674 0.949 . S
H670 C676 0.950 . S
H671 C677 0.950 . S
H672 C678 0.949 . S
C673 H668 0.950 . S
C673 C675 1.327 . S
C673 C679 1.429 . S
C674 C666 1.574 1_455 S
C674 H669 0.949 . S
C674 C680 1.368 . S
C675 C659 1.349 . S
C675 H667 0.950 . S
C675 C673 1.327 . S
C676 C664 1.349 . S
C676 H670 0.950 . S
C676 C677 1.327 . S
C677 H671 0.950 . S
C677 C676 1.327 . S
C677 C681 1.429 . S
C678 C661 1.574 1_655 S
C678 H672 0.949 . S
C678 C682 1.368 . S
C679 C660 1.429 . S
C679 C673 1.429 . S
C679 C680 1.523 . S
C680 C661 1.368 . S
C680 C674 1.368 . S
C680 C679 1.523 . S
C681 C665 1.429 . S
C681 C677 1.429 . S
C681 C682 1.523 . S
C682 C666 1.368 . S
C682 C678 1.368 . S
C682 C681 1.523 . S
H683 C658 0.950 . S
H684 C660 0.950 . S
H685 C661 0.949 . S
H686 C663 0.950 . S
H687 C665 0.950 . S
C688 C689 1.349 . S
C688 C690 1.327 . S
C688 H713 0.950 . S
C689 C688 1.349 . S
C689 C705 1.349 . S
C690 C688 1.327 . S
C690 C709 1.429 . S
C690 H714 0.950 . S
C691 C708 1.574 1_554 S
C691 C710 1.368 . S
C691 H715 0.949 . S
H692 C696 0.949 . S
C693 C694 1.349 . S
C693 C695 1.327 . S
C693 H716 0.950 . S
C694 C693 1.349 . S
C694 C706 1.349 . S
C695 C693 1.327 . S
C695 C711 1.429 . S
C695 H717 0.950 . S
C696 H692 0.949 . S
C696 C704 1.574 1_556 S
C696 C712 1.368 . S
H697 C705 0.950 . S
H698 C703 0.950 . S
H699 C704 0.949 . S
H700 C706 0.950 . S
H701 C707 0.950 . S
H702 C708 0.949 . S
C703 H698 0.950 . S
C703 C705 1.327 . S
C703 C709 1.429 . S
C704 C696 1.574 1_554 S
C704 H699 0.949 . S
C704 C710 1.368 . S
C705 C689 1.349 . S
C705 H697 0.950 . S
C705 C703 1.327 . S
C706 C694 1.349 . S
C706 H700 0.950 . S
C706 C707 1.327 . S
C707 H701 0.950 . S
C707 C706 1.327 . S
C707 C711 1.429 . S
C708 C691 1.574 1_556 S
C708 H702 0.949 . S
C708 C712 1.368 . S
C709 C690 1.429 . S
C709 C703 1.429 . S
C709 C710 1.523 . S
C710 C691 1.368 . S
C710 C704 1.368 . S
C710 C709 1.523 . S
C711 C695 1.429 . S
C711 C707 1.429 . S
C711 C712 1.523 . S
C712 C696 1.368 . S
C712 C708 1.368 . S
C712 C711 1.523 . S
H713 C688 0.950 . S
H714 C690 0.950 . S
H715 C691 0.949 . S
H716 C693 0.950 . S
H717 C695 0.950 . S
C718 C719 1.349 . S
C718 C720 1.327 . S
C718 H743 0.950 . S
C719 C718 1.349 . S
C719 C735 1.349 . S
C720 C718 1.327 . S
C720 C739 1.429 . S
C720 H744 0.950 . S
C721 C738 1.574 . S
C721 C740 1.368 . S
C721 H745 0.949 . S
H722 C726 0.949 . S
C723 C724 1.349 . S
C723 C725 1.327 . S
C723 H746 0.950 . S
C724 C723 1.349 . S
C724 C736 1.349 . S
C725 C723 1.327 . S
C725 C741 1.429 . S
C725 H747 0.950 . S
C726 H722 0.949 . S
C726 C734 1.574 . S
C726 C742 1.368 . S
H727 C735 0.950 . S
H728 C733 0.950 . S
H729 C734 0.949 . S
H730 C736 0.950 . S
H731 C737 0.950 . S
H732 C738 0.949 . S
C733 H728 0.950 . S
C733 C735 1.327 . S
C733 C739 1.429 . S
C734 C726 1.574 . S
C734 H729 0.949 . S
C734 C740 1.368 . S
C735 C719 1.349 . S
C735 H727 0.950 . S
C735 C733 1.327 . S
C736 C724 1.349 . S
C736 H730 0.950 . S
C736 C737 1.327 . S
C737 H731 0.950 . S
C737 C736 1.327 . S
C737 C741 1.429 . S
C738 C721 1.574 . S
C738 H732 0.949 . S
C738 C742 1.368 . S
C739 C720 1.429 . S
C739 C733 1.429 . S
C739 C740 1.523 . S
C740 C721 1.368 . S
C740 C734 1.368 . S
C740 C739 1.523 . S
C741 C725 1.429 . S
C741 C737 1.429 . S
C741 C742 1.523 . S
C742 C726 1.368 . S
C742 C738 1.368 . S
C742 C741 1.523 . S
H743 C718 0.950 . S
H744 C720 0.950 . S
H745 C721 0.949 . S
H746 C723 0.950 . S
H747 C725 0.950 . S
C748 C749 1.349 . S
C748 C750 1.327 . S
C748 H773 0.950 . S
C749 C748 1.349 . S
C749 C765 1.349 . S
C750 C748 1.327 . S
C750 C769 1.429 . S
C750 H774 0.950 . S
C751 C768 1.574 . S
C751 C770 1.368 . S
C751 H775 0.949 . S
H752 C756 0.949 . S
C753 C754 1.349 . S
C753 C755 1.327 . S
C753 H776 0.950 . S
C754 C753 1.349 . S
C754 C766 1.349 . S
C755 C753 1.327 . S
C755 C771 1.429 . S
C755 H777 0.950 . S
C756 H752 0.949 . S
C756 C764 1.574 . S
C756 C772 1.368 . S
H757 C765 0.950 . S
H758 C763 0.950 . S
H759 C764 0.949 . S
H760 C766 0.950 . S
H761 C767 0.950 . S
H762 C768 0.949 . S
C763 H758 0.950 . S
C763 C765 1.327 . S
C763 C769 1.429 . S
C764 C756 1.574 . S
C764 H759 0.949 . S
C764 C770 1.368 . S
C765 C749 1.349 . S
C765 H757 0.950 . S
C765 C763 1.327 . S
C766 C754 1.349 . S
C766 H760 0.950 . S
C766 C767 1.327 . S
C767 H761 0.950 . S
C767 C766 1.327 . S
C767 C771 1.429 . S
C768 C751 1.574 . S
C768 H762 0.949 . S
C768 C772 1.368 . S
C769 C750 1.429 . S
C769 C763 1.429 . S
C769 C770 1.523 . S
C770 C751 1.368 . S
C770 C764 1.368 . S
C770 C769 1.523 . S
C771 C755 1.429 . S
C771 C767 1.429 . S
C771 C772 1.523 . S
C772 C756 1.368 . S
C772 C768 1.368 . S
C772 C771 1.523 . S
H773 C748 0.950 . S
H774 C750 0.950 . S
H775 C751 0.949 . S
H776 C753 0.950 . S
H777 C755 0.950 . S
C778 C779 1.349 . S
C778 C780 1.327 . S
C778 H803 0.950 . S
C779 C778 1.349 . S
C779 C795 1.349 . S
C780 C778 1.327 . S
C780 C799 1.429 . S
C780 H804 0.950 . S
C781 C798 1.574 . S
C781 C800 1.368 . S
C781 H805 0.949 . S
H782 C786 0.949 . S
C783 C784 1.349 . S
C783 C785 1.327 . S
C783 H806 0.950 . S
C784 C783 1.349 . S
C784 C796 1.349 . S
C785 C783 1.327 . S
C785 C801 1.429 . S
C785 H807 0.950 . S
C786 H782 0.949 . S
C786 C794 1.574 . S
C786 C802 1.368 . S
H787 C795 0.950 . S
H788 C793 0.950 . S
H789 C794 0.949 . S
H790 C796 0.950 . S
H791 C797 0.950 . S
H792 C798 0.949 . S
C793 H788 0.950 . S
C793 C795 1.327 . S
C793 C799 1.429 . S
C794 C786 1.574 . S
C794 H789 0.949 . S
C794 C800 1.368 . S
C795 C779 1.349 . S
C795 H787 0.950 . S
C795 C793 1.327 . S
C796 C784 1.349 . S
C796 H790 0.950 . S
C796 C797 1.327 . S
C797 H791 0.950 . S
C797 C796 1.327 . S
C797 C801 1.429 . S
C798 C781 1.574 . S
C798 H792 0.949 . S
C798 C802 1.368 . S
C799 C780 1.429 . S
C799 C793 1.429 . S
C799 C800 1.523 . S
C800 C781 1.368 . S
C800 C794 1.368 . S
C800 C799 1.523 . S
C801 C785 1.429 . S
C801 C797 1.429 . S
C801 C802 1.523 . S
C802 C786 1.368 . S
C802 C798 1.368 . S
C802 C801 1.523 . S
H803 C778 0.950 . S
H804 C780 0.950 . S
H805 C781 0.949 . S
H806 C783 0.950 . S
H807 C785 0.950 . S
C808 C809 1.349 . S
C808 C810 1.327 . S
C808 H833 0.950 . S
C809 C808 1.349 . S
C809 C825 1.349 . S
C810 C808 1.327 . S
C810 C829 1.429 . S
C810 H834 0.950 . S
C811 C828 1.594 . S
C811 C830 1.368 . S
C811 H835 0.949 . S
H812 C816 0.949 . S
C813 C814 1.349 . S
C813 C815 1.327 . S
C813 H836 0.950 . S
C814 C813 1.349 . S
C814 C826 1.349 . S
C815 C813 1.327 . S
C815 C831 1.429 . S
C815 H837 0.950 . S
C816 H812 0.949 . S
C816 C824 1.574 1_554 S
C816 C832 1.368 . S
H817 C825 0.950 . S
H818 C823 0.950 . S
H819 C824 0.949 . S
H820 C826 0.950 . S
H821 C827 0.950 . S
H822 C828 0.945 1_554 S
C823 H818 0.950 . S
C823 C825 1.327 . S
C823 C829 1.429 . S
C824 C816 1.574 1_556 S
C824 H819 0.949 . S
C824 C830 1.368 . S
C825 C809 1.349 . S
C825 H817 0.950 . S
C825 C823 1.327 . S
C826 C814 1.349 . S
C826 H820 0.950 . S
C826 C827 1.327 . S
C827 H821 0.950 . S
C827 C826 1.327 . S
C827 C831 1.429 . S
C828 C811 1.594 . S
C828 H822 0.945 1_556 S
C828 C832 1.353 1_556 S
C829 C810 1.429 . S
C829 C823 1.429 . S
C829 C830 1.523 . S
C830 C811 1.368 . S
C830 C824 1.368 . S
C830 C829 1.523 . S
C831 C815 1.429 . S
C831 C827 1.429 . S
C831 C832 1.523 . S
C832 C816 1.368 . S
C832 C828 1.353 1_554 S
C832 C831 1.523 . S
H833 C808 0.950 . S
H834 C810 0.950 . S
H835 C811 0.949 . S
H836 C813 0.950 . S
H837 C815 0.950 . S
C838 C839 1.349 . S
C838 C840 1.327 . S
C838 H863 0.950 . S
C839 C838 1.349 . S
C839 C855 1.349 . S
C840 C838 1.327 . S
C840 C859 1.429 . S
C840 H864 0.950 . S
C841 C858 1.574 . S
C841 C860 1.368 . S
C841 H865 0.949 . S
H842 C846 0.949 . S
C843 C844 1.349 . S
C843 C845 1.327 . S
C843 H866 0.950 . S
C844 C843 1.349 . S
C844 C856 1.349 . S
C845 C843 1.327 . S
C845 C861 1.429 . S
C845 H867 0.950 . S
C846 H842 0.949 . S
C846 C854 1.574 . S
C846 C862 1.368 . S
H847 C855 0.950 . S
H848 C853 0.950 . S
H849 C854 0.949 . S
H850 C856 0.950 . S
H851 C857 0.950 . S
H852 C858 0.949 . S
C853 H848 0.950 . S
C853 C855 1.327 . S
C853 C859 1.429 . S
C854 C846 1.574 . S
C854 H849 0.949 . S
C854 C860 1.368 . S
C855 C839 1.349 . S
C855 H847 0.950 . S
C855 C853 1.327 . S
C856 C844 1.349 . S
C856 H850 0.950 . S
C856 C857 1.327 . S
C857 H851 0.950 . S
C857 C856 1.327 . S
C857 C861 1.429 . S
C858 C841 1.574 . S
C858 H852 0.949 . S
C858 C862 1.368 . S
C859 C840 1.429 . S
C859 C853 1.429 . S
C859 C860 1.523 . S
C860 C841 1.368 . S
C860 C854 1.368 . S
C860 C859 1.523 . S
C861 C845 1.429 . S
C861 C857 1.429 . S
C861 C862 1.523 . S
C862 C846 1.368 . S
C862 C858 1.368 . S
C862 C861 1.523 . S
H863 C838 0.950 . S
H864 C840 0.950 . S
H865 C841 0.949 . S
H866 C843 0.950 . S
H867 C845 0.950 . S
C868 C869 1.349 . S
C868 C870 1.327 . S
C868 H893 0.950 . S
C869 C868 1.349 . S
C869 C885 1.349 . S
C870 C868 1.327 . S
C870 C889 1.429 . S
C870 H894 0.950 . S
C871 C888 1.574 . S
C871 C890 1.368 . S
C871 H895 0.949 . S
H872 C876 0.949 . S
C873 C874 1.349 . S
C873 C875 1.327 . S
C873 H896 0.950 . S
C874 C873 1.349 . S
C874 C886 1.349 . S
C875 C873 1.327 . S
C875 C891 1.429 . S
C875 H897 0.950 . S
C876 H872 0.949 . S
C876 C884 1.574 . S
C876 C892 1.368 . S
H877 C885 0.950 . S
H878 C883 0.950 . S
H879 C884 0.949 . S
H880 C886 0.950 . S
H881 C887 0.950 . S
H882 C888 0.949 . S
C883 H878 0.950 . S
C883 C885 1.327 . S
C883 C889 1.429 . S
C884 C876 1.574 . S
C884 H879 0.949 . S
C884 C890 1.368 . S
C885 C869 1.349 . S
C885 H877 0.950 . S
C885 C883 1.327 . S
C886 C874 1.349 . S
C886 H880 0.950 . S
C886 C887 1.327 . S
C887 H881 0.950 . S
C887 C886 1.327 . S
C887 C891 1.429 . S
C888 C871 1.574 . S
C888 H882 0.949 . S
C888 C892 1.368 . S
C889 C870 1.429 . S
C889 C883 1.429 . S
C889 C890 1.523 . S
C890 C871 1.368 . S
C890 C884 1.368 . S
C890 C889 1.523 . S
C891 C875 1.429 . S
C891 C887 1.429 . S
C891 C892 1.523 . S
C892 C876 1.368 . S
C892 C888 1.368 . S
C892 C891 1.523 . S
H893 C868 0.950 . S
H894 C870 0.950 . S
H895 C871 0.949 . S
H896 C873 0.950 . S
H897 C875 0.950 . S
C898 C899 1.349 . S
C898 C900 1.327 . S
C898 H923 0.950 . S
C899 C898 1.349 . S
C899 C915 1.349 . S
C900 C898 1.327 . S
C900 C919 1.429 . S
C900 H924 0.950 . S
C901 C918 1.574 . S
C901 C920 1.368 . S
C901 H925 0.949 . S
H902 C906 0.949 . S
C903 C904 1.349 . S
C903 C905 1.327 . S
C903 H926 0.950 . S
C904 C903 1.349 . S
C904 C916 1.349 . S
C905 C903 1.327 . S
C905 C921 1.429 . S
C905 H927 0.950 . S
C906 H902 0.949 . S
C906 C914 1.574 . S
C906 C922 1.368 . S
H907 C915 0.950 . S
H908 C913 0.950 . S
H909 C914 0.949 . S
H910 C916 0.950 . S
H911 C917 0.950 . S
H912 C918 0.949 . S
C913 H908 0.950 . S
C913 C915 1.327 . S
C913 C919 1.429 . S
C914 C906 1.574 . S
C914 H909 0.949 . S
C914 C920 1.368 . S
C915 C899 1.349 . S
C915 H907 0.950 . S
C915 C913 1.327 . S
C916 C904 1.349 . S
C916 H910 0.950 . S
C916 C917 1.327 . S
C917 H911 0.950 . S
C917 C916 1.327 . S
C917 C921 1.429 . S
C918 C901 1.574 . S
C918 H912 0.949 . S
C918 C922 1.368 . S
C919 C900 1.429 . S
C919 C913 1.429 . S
C919 C920 1.523 . S
C920 C901 1.368 . S
C920 C914 1.368 . S
C920 C919 1.523 . S
C921 C905 1.429 . S
C921 C917 1.429 . S
C921 C922 1.523 . S
C922 C906 1.368 . S
C922 C918 1.368 . S
C922 C921 1.523 . S
H923 C898 0.950 . S
H924 C900 0.950 . S
H925 C901 0.949 . S
H926 C903 0.950 . S
H927 C905 0.950 . S
C928 C929 1.349 . S
C928 C930 1.327 . S
C928 H953 0.950 . S
C929 C928 1.349 . S
C929 C945 1.349 . S
C930 C928 1.327 . S
C930 C949 1.429 . S
C930 H954 0.950 . S
C931 C948 1.574 1_545 S
C931 C950 1.368 . S
C931 H955 0.949 . S
H932 C936 0.949 . S
C933 C934 1.349 . S
C933 C935 1.327 . S
C933 H956 0.950 . S
C934 C933 1.349 . S
C934 C946 1.349 . S
C935 C933 1.327 . S
C935 C951 1.429 . S
C935 H957 0.950 . S
C936 H932 0.949 . S
C936 C944 1.574 . S
C936 C952 1.368 . S
H937 C945 0.950 . S
H938 C943 0.950 . S
H939 C944 0.949 . S
H940 C946 0.950 . S
H941 C947 0.950 . S
H942 C948 0.944 1_545 S
C943 H938 0.950 . S
C943 C945 1.327 . S
C943 C949 1.429 . S
C944 C936 1.574 . S
C944 H939 0.949 . S
C944 C950 1.368 1_565 S
C945 C929 1.349 . S
C945 H937 0.950 . S
C945 C943 1.327 . S
C946 C934 1.349 . S
C946 H940 0.950 . S
C946 C947 1.327 . S
C947 H941 0.950 . S
C947 C946 1.327 . S
C947 C951 1.429 . S
C948 C931 1.574 1_565 S
C948 H942 0.944 1_565 S
C948 C952 1.368 . S
C949 C930 1.429 . S
C949 C943 1.429 . S
C949 C950 1.523 . S
C950 C931 1.368 . S
C950 C944 1.368 1_545 S
C950 C949 1.523 . S
C951 C935 1.429 . S
C951 C947 1.429 . S
C951 C952 1.523 . S
C952 C936 1.368 . S
C952 C948 1.368 . S
C952 C951 1.523 . S
H953 C928 0.950 . S
H954 C930 0.950 . S
H955 C931 0.949 . S
H956 C933 0.950 . S
H957 C935 0.950 . S
C958 C959 1.349 . S
C958 C960 1.327 . S
C958 H983 0.950 . S
C959 C958 1.349 . S
C959 C975 1.349 . S
C960 C958 1.327 . S
C960 C979 1.429 . S
C960 H984 0.950 . S
C961 C978 1.574 . S
C961 C980 1.368 . S
C961 H985 0.949 . S
H962 C966 0.949 . S
C963 C964 1.349 . S
C963 C965 1.327 . S
C963 H986 0.950 . S
C964 C963 1.349 . S
C964 C976 1.349 . S
C965 C963 1.327 . S
C965 C981 1.429 . S
C965 H987 0.950 . S
C966 H962 0.949 . S
C966 C974 1.574 . S
C966 C982 1.368 . S
H967 C975 0.950 . S
H968 C973 0.950 . S
H969 C974 0.949 . S
H970 C976 0.950 . S
H971 C977 0.950 . S
H972 C978 0.949 . S
C973 H968 0.950 . S
C973 C975 1.327 . S
C973 C979 1.429 . S
C974 C966 1.574 . S
C974 H969 0.949 . S
C974 C980 1.368 . S
C975 C959 1.349 . S
C975 H967 0.950 . S
C975 C973 1.327 . S
C976 C964 1.349 . S
C976 H970 0.950 . S
C976 C977 1.327 . S
C977 H971 0.950 . S
C977 C976 1.327 . S
C977 C981 1.429 . S
C978 C961 1.574 . S
C978 H972 0.949 . S
C978 C982 1.368 . S
C979 C960 1.429 . S
C979 C973 1.429 . S
C979 C980 1.523 . S
C980 C961 1.368 . S
C980 C974 1.368 . S
C980 C979 1.523 . S
C981 C965 1.429 . S
C981 C977 1.429 . S
C981 C982 1.523 . S
C982 C966 1.368 . S
C982 C978 1.368 . S
C982 C981 1.523 . S
H983 C958 0.950 . S
H984 C960 0.950 . S
H985 C961 0.949 . S
H986 C963 0.950 . S
H987 C965 0.950 . S
C988 C989 1.349 . S
C988 C990 1.327 . S
C988 H1013 0.950 . S
C989 C988 1.349 . S
C989 C1005 1.349 . S
C990 C988 1.327 . S
C990 C1009 1.429 . S
C990 H1014 0.950 . S
C991 C1008 1.574 1_556 S
C991 C1010 1.368 1_565 S
C991 H1015 0.949 . S
H992 C996 0.949 . S
C993 C994 1.349 . S
C993 C995 1.327 . S
C993 H1016 0.950 . S
C994 C993 1.349 . S
C994 C1006 1.349 . S
C995 C993 1.327 . S
C995 C1011 1.429 . S
C995 H1017 0.950 . S
C996 H992 0.949 . S
C996 C1004 1.574 . S
C996 C1012 1.368 1_545 S
H997 C1005 0.950 . S
H998 C1003 0.940 1_565 S
H999 C1004 0.949 . S
H1000 C1006 0.950 . S
H1001 C1007 0.950 . S
H1002 C1008 0.949 . S
C1003 H998 0.940 1_545 S
C1003 C1005 1.327 . S
C1003 C1009 1.429 . S
C1004 C996 1.574 . S
C1004 H999 0.949 . S
C1004 C1010 1.368 1_554 S
C1005 C989 1.349 . S
C1005 H997 0.950 . S
C1005 C1003 1.327 . S
C1006 C994 1.349 . S
C1006 H1000 0.950 . S
C1006 C1007 1.327 . S
C1007 H1001 0.950 . S
C1007 C1006 1.327 . S
C1007 C1011 1.429 . S
C1008 C991 1.574 1_554 S
C1008 H1002 0.949 . S
C1008 C1012 1.368 . S
C1009 C990 1.429 . S
C1009 C1003 1.429 . S
C1009 C1010 1.523 . S
C1010 C991 1.368 1_545 S
C1010 C1004 1.368 1_556 S
C1010 C1009 1.523 . S
C1011 C995 1.429 . S
C1011 C1007 1.429 . S
C1011 C1012 1.523 . S
C1012 C996 1.368 1_565 S
C1012 C1008 1.368 . S
C1012 C1011 1.523 . S
H1013 C988 0.950 . S
H1014 C990 0.950 . S
H1015 C991 0.949 . S
H1016 C993 0.950 . S
H1017 C995 0.950 . S
C1018 C1019 1.349 . S
C1018 C1020 1.327 . S
C1018 H1043 0.950 . S
C1019 C1018 1.349 . S
C1019 C1035 1.349 . S
C1020 C1018 1.327 . S
C1020 C1039 1.429 . S
C1020 H1044 0.950 . S
C1021 C1038 1.574 . S
C1021 C1040 1.368 . S
C1021 H1045 0.949 . S
H1022 C1026 0.949 . S
C1023 C1024 1.349 . S
C1023 C1025 1.327 . S
C1023 H1046 0.950 . S
C1024 C1023 1.349 . S
C1024 C1036 1.349 . S
C1025 C1023 1.327 . S
C1025 C1041 1.429 . S
C1025 H1047 0.950 . S
C1026 H1022 0.949 . S
C1026 C1034 1.574 . S
C1026 C1042 1.368 . S
H1027 C1035 0.950 . S
H1028 C1033 0.950 . S
H1029 C1034 0.949 . S
H1030 C1036 0.950 . S
H1031 C1037 0.950 . S
H1032 C1038 0.949 . S
C1033 H1028 0.950 . S
C1033 C1035 1.327 . S
C1033 C1039 1.429 . S
C1034 C1026 1.574 . S
C1034 H1029 0.949 . S
C1034 C1040 1.368 . S
C1035 C1019 1.349 . S
C1035 H1027 0.950 . S
C1035 C1033 1.327 . S
C1036 C1024 1.349 . S
C1036 H1030 0.950 . S
C1036 C1037 1.327 . S
C1037 H1031 0.950 . S
C1037 C1036 1.327 . S
C1037 C1041 1.429 . S
C1038 C1021 1.574 . S
C1038 H1032 0.949 . S
C1038 C1042 1.368 . S
C1039 C1020 1.429 . S
C1039 C1033 1.429 . S
C1039 C1040 1.523 . S
C1040 C1021 1.368 . S
C1040 C1034 1.368 . S
C1040 C1039 1.523 . S
C1041 C1025 1.429 . S
C1041 C1037 1.429 . S
C1041 C1042 1.523 . S
C1042 C1026 1.368 . S
C1042 C1038 1.368 . S
C1042 C1041 1.523 . S
H1043 C1018 0.950 . S
H1044 C1020 0.950 . S
H1045 C1021 0.949 . S
H1046 C1023 0.950 . S
H1047 C1025 0.950 . S
C1048 C1049 1.349 . S
C1048 C1050 1.327 . S
C1048 H1073 0.950 . S
C1049 C1048 1.349 . S
C1049 C1065 1.349 . S
C1050 C1048 1.327 . S
C1050 C1069 1.429 . S
C1050 H1074 0.950 . S
C1051 C1068 1.574 . S
C1051 C1070 1.368 1_565 S
C1051 H1075 0.949 . S
H1052 C1056 0.949 . S
C1053 C1054 1.349 . S
C1053 C1055 1.327 . S
C1053 H1076 0.950 . S
C1054 C1053 1.349 . S
C1054 C1066 1.349 . S
C1055 C1053 1.327 . S
C1055 C1071 1.429 . S
C1055 H1077 0.950 . S
C1056 H1052 0.949 . S
C1056 C1064 1.574 . S
C1056 C1072 1.368 1_545 S
H1057 C1065 0.950 . S
H1058 C1063 0.947 1_565 S
H1059 C1064 0.949 . S
H1060 C1066 0.950 . S
H1061 C1067 0.950 1_545 S
H1062 C1068 0.949 . S
C1063 H1058 0.947 1_545 S
C1063 C1065 1.327 . S
C1063 C1069 1.429 . S
C1064 C1056 1.574 . S
C1064 H1059 0.949 . S
C1064 C1070 1.368 . S
C1065 C1049 1.349 . S
C1065 H1057 0.950 . S
C1065 C1063 1.327 . S
C1066 C1054 1.349 . S
C1066 H1060 0.950 . S
C1066 C1067 1.327 . S
C1067 H1061 0.950 1_565 S
C1067 C1066 1.327 . S
C1067 C1071 1.429 . S
C1068 C1051 1.574 . S
C1068 H1062 0.949 . S
C1068 C1072 1.368 . S
C1069 C1050 1.429 . S
C1069 C1063 1.429 . S
C1069 C1070 1.523 . S
C1070 C1051 1.368 1_545 S
C1070 C1064 1.368 . S
C1070 C1069 1.523 . S
C1071 C1055 1.429 . S
C1071 C1067 1.429 . S
C1071 C1072 1.523 . S
C1072 C1056 1.368 1_565 S
C1072 C1068 1.368 . S
C1072 C1071 1.523 . S
H1073 C1048 0.950 . S
H1074 C1050 0.950 . S
H1075 C1051 0.949 . S
H1076 C1053 0.950 . S
H1077 C1055 0.950 . S
C1078 C1079 1.349 . S
C1078 C1080 1.327 . S
C1078 H1103 0.950 . S
C1079 C1078 1.349 . S
C1079 C1095 1.349 . S
C1080 C1078 1.327 . S
C1080 C1099 1.429 . S
C1080 H1104 0.950 . S
C1081 C1098 1.574 . S
C1081 C1100 1.368 . S
C1081 H1105 0.949 . S
H1082 C1086 0.949 . S
C1083 C1084 1.349 . S
C1083 C1085 1.327 . S
C1083 H1106 0.950 . S
C1084 C1083 1.349 . S
C1084 C1096 1.349 . S
C1085 C1083 1.327 . S
C1085 C1101 1.429 . S
C1085 H1107 0.950 . S
C1086 H1082 0.949 . S
C1086 C1094 1.574 . S
C1086 C1102 1.368 . S
H1087 C1095 0.950 . S
H1088 C1093 0.950 . S
H1089 C1094 0.949 . S
H1090 C1096 0.950 . S
H1091 C1097 0.950 . S
H1092 C1098 0.949 . S
C1093 H1088 0.950 . S
C1093 C1095 1.327 . S
C1093 C1099 1.429 . S
C1094 C1086 1.574 . S
C1094 H1089 0.949 . S
C1094 C1100 1.368 . S
C1095 C1079 1.349 . S
C1095 H1087 0.950 . S
C1095 C1093 1.327 . S
C1096 C1084 1.349 . S
C1096 H1090 0.950 . S
C1096 C1097 1.327 . S
C1097 H1091 0.950 . S
C1097 C1096 1.327 . S
C1097 C1101 1.429 . S
C1098 C1081 1.574 . S
C1098 H1092 0.949 . S
C1098 C1102 1.368 . S
C1099 C1080 1.429 . S
C1099 C1093 1.429 . S
C1099 C1100 1.523 . S
C1100 C1081 1.368 . S
C1100 C1094 1.368 . S
C1100 C1099 1.523 . S
C1101 C1085 1.429 . S
C1101 C1097 1.429 . S
C1101 C1102 1.523 . S
C1102 C1086 1.368 . S
C1102 C1098 1.368 . S
C1102 C1101 1.523 . S
H1103 C1078 0.950 . S
H1104 C1080 0.950 . S
H1105 C1081 0.949 . S
H1106 C1083 0.950 . S
H1107 C1085 0.950 . S
C1108 C1109 1.349 . S
C1108 C1110 1.327 . S
C1108 H1133 0.950 . S
C1109 C1108 1.349 . S
C1109 C1125 1.349 . S
C1110 C1108 1.327 . S
C1110 C1129 1.429 . S
C1110 H1134 0.950 . S
C1111 C1128 1.574 1_554 S
C1111 C1130 1.368 1_545 S
C1111 H1135 0.949 . S
H1112 C1116 0.949 . S
C1113 C1114 1.349 . S
C1113 C1115 1.327 . S
C1113 H1136 0.950 . S
C1114 C1113 1.349 . S
C1114 C1126 1.349 . S
C1115 C1113 1.327 . S
C1115 C1131 1.429 . S
C1115 H1137 0.950 . S
C1116 H1112 0.949 . S
C1116 C1124 1.574 . S
C1116 C1132 1.368 1_565 S
H1117 C1125 0.950 . S
H1118 C1123 0.972 . S
H1119 C1124 0.949 . S
H1120 C1126 0.950 . S
H1121 C1127 0.950 . S
H1122 C1128 0.949 . S
C1123 H1118 0.972 . S
C1123 C1125 1.327 . S
C1123 C1129 1.429 . S
C1124 C1116 1.574 . S
C1124 H1119 0.949 . S
C1124 C1130 1.368 1_556 S
C1125 C1109 1.349 . S
C1125 H1117 0.950 . S
C1125 C1123 1.327 . S
C1126 C1114 1.349 . S
C1126 H1120 0.950 . S
C1126 C1127 1.327 . S
C1127 H1121 0.950 . S
C1127 C1126 1.327 . S
C1127 C1131 1.429 . S
C1128 C1111 1.574 1_556 S
C1128 H1122 0.949 . S
C1128 C1132 1.368 . S
C1129 C1110 1.429 . S
C1129 C1123 1.429 . S
C1129 C1130 1.523 . S
C1130 C1111 1.368 1_565 S
C1130 C1124 1.368 1_554 S
C1130 C1129 1.523 . S
C1131 C1115 1.429 . S
C1131 C1127 1.429 . S
C1131 C1132 1.523 . S
C1132 C1116 1.368 1_545 S
C1132 C1128 1.368 . S
C1132 C1131 1.523 . S
H1133 C1108 0.950 . S
H1134 C1110 0.950 . S
H1135 C1111 0.949 . S
H1136 C1113 0.950 . S
H1137 C1115 0.950 . S
C1138 C1139 1.349 . S
C1138 C1140 1.327 . S
C1138 H1163 0.950 . S
C1139 C1138 1.349 . S
C1139 C1155 1.349 . S
C1140 C1138 1.327 . S
C1140 C1159 1.429 . S
C1140 H1164 0.950 . S
C1141 C1158 1.574 . S
C1141 C1160 1.368 . S
C1141 H1165 0.949 . S
H1142 C1146 0.949 . S
C1143 C1144 1.349 . S
C1143 C1145 1.327 . S
C1143 H1166 0.950 . S
C1144 C1143 1.349 . S
C1144 C1156 1.349 . S
C1145 C1143 1.327 . S
C1145 C1161 1.429 . S
C1145 H1167 0.950 . S
C1146 H1142 0.949 . S
C1146 C1154 1.574 . S
C1146 C1162 1.368 . S
H1147 C1155 0.950 . S
H1148 C1153 0.950 . S
H1149 C1154 0.949 . S
H1150 C1156 0.950 . S
H1151 C1157 0.950 . S
H1152 C1158 0.949 . S
C1153 H1148 0.950 . S
C1153 C1155 1.327 . S
C1153 C1159 1.429 . S
C1154 C1146 1.574 . S
C1154 H1149 0.949 . S
C1154 C1160 1.368 . S
C1155 C1139 1.349 . S
C1155 H1147 0.950 . S
C1155 C1153 1.327 . S
C1156 C1144 1.349 . S
C1156 H1150 0.950 . S
C1156 C1157 1.327 . S
C1157 H1151 0.950 . S
C1157 C1156 1.327 . S
C1157 C1161 1.429 . S
C1158 C1141 1.574 . S
C1158 H1152 0.949 . S
C1158 C1162 1.368 . S
C1159 C1140 1.429 . S
C1159 C1153 1.429 . S
C1159 C1160 1.523 . S
C1160 C1141 1.368 . S
C1160 C1154 1.368 . S
C1160 C1159 1.523 . S
C1161 C1145 1.429 . S
C1161 C1157 1.429 . S
C1161 C1162 1.523 . S
C1162 C1146 1.368 . S
C1162 C1158 1.368 . S
C1162 C1161 1.523 . S
H1163 C1138 0.950 . S
H1164 C1140 0.950 . S
H1165 C1141 0.949 . S
H1166 C1143 0.950 . S
H1167 C1145 0.950 . S
C209 C148 1.383 . S
C214 C8 1.375 . S
C239 C200 1.304 . S
C244 C18 1.308 . S
C269 C31 1.338 . S
C274 C125 1.329 . S
C299 C174 1.281 . S
C304 C47 1.282 . S
C329 C60 1.388 . S
C334 C177 1.394 . S
C359 C70 1.276 . S
C364 C151 1.278 . S
C389 C83 1.318 . S
C394 C203 1.313 . S
C419 C96 1.279 . S
C424 C122 1.278 . S
C449 C44 1.393 . S
C454 C112 1.390 . S
C479 C138 1.385 . S
C484 C21 1.383 . S
C509 C164 1.390 . S
C514 C73 1.394 . S
C539 C187 1.424 . S
C544 C99 1.416 . S
C569 C57 1.381 . S
C574 C109 1.379 . S
C599 C135 1.275 . S
C604 C86 1.277 . S
C629 C190 1.334 . S
C634 C34 1.334 . S
C659 C5 1.318 . S
C664 C161 1.315 . S
C689 C10 1.056 . S
C694 C62 1.057 . S
C719 C13 1.021 . S
C724 C65 1.019 . S
C749 C26 1.036 . S
C754 C78 1.036 . S
C779 C91 0.986 . S
C784 C49 0.985 . S
C809 C114 1.030 . S
C814 C166 1.032 . S
C839 C169 0.933 . S
C844 C117 0.935 . S
C869 C140 1.193 . S
C874 C182 1.198 . S
C899 C195 0.989 . S
C904 C153 0.988 . S
C929 C101 1.021 . S
C934 C23 1.023 . S
C959 C36 1.089 . S
C964 C52 1.085 . S
C989 C39 1.104 . S
C994 C75 1.101 . S
C1019 C0 0.949 . S
C1024 C88 0.949 . S
C1049 C127 1.005 . S
C1054 C205 1.003 . S
C1079 C156 1.050 . S
C1084 C130 1.049 . S
C1109 C143 1.077 . S
C1114 C179 1.075 . S
C1139 C192 1.024 . S
C1144 C104 1.022 . S
