# Generated by pormake.
# Topology can, (4)-cn, num edge types: 1
# Building blocks:
#     Node 0, Type 0, BuildingBlock: GALJAG_clean_sbu_0, # of connection points: 4
#     Node 1, Type 0, BuildingBlock: GALJAG_clean_sbu_0, # of connection points: 4
#     Node 2, Type 0, BuildingBlock: GALJAG_clean_sbu_0, # of connection points: 4
#     Node 3, Type 0, BuildingBlock: GALJAG_clean_sbu_0, # of connection points: 4
#     Node 4, Type 0, BuildingBlock: GALJAG_clean_sbu_0, # of connection points: 4
#     Node 5, Type 0, BuildingBlock: GALJAG_clean_sbu_0, # of connection points: 4
#     Node 6, Type 0, BuildingBlock: GALJAG_clean_sbu_0, # of connection points: 4
#     Node 7, Type 0, BuildingBlock: GALJAG_clean_sbu_0, # of connection points: 4
#     Node 8, Type 0, BuildingBlock: GALJAG_clean_sbu_0, # of connection points: 4
#     Node 9, Type 0, BuildingBlock: GALJAG_clean_sbu_0, # of connection points: 4
#     Node 10, Type 0, BuildingBlock: GALJAG_clean_sbu_0, # of connection points: 4
#     Node 11, Type 0, BuildingBlock: GALJAG_clean_sbu_0, # of connection points: 4
#     Edge 12, Type (0, 0), BuildingBlock: CIFDUS_clean_linker_0, # of connection points: 2
#     Edge 13, Type (0, 0), BuildingBlock: CIFDUS_clean_linker_0, # of connection points: 2
#     Edge 14, Type (0, 0), BuildingBlock: CIFDUS_clean_linker_0, # of connection points: 2
#     Edge 15, Type (0, 0), BuildingBlock: CIFDUS_clean_linker_0, # of connection points: 2
#     Edge 16, Type (0, 0), BuildingBlock: CIFDUS_clean_linker_0, # of connection points: 2
#     Edge 17, Type (0, 0), BuildingBlock: CIFDUS_clean_linker_0, # of connection points: 2
#     Edge 18, Type (0, 0), BuildingBlock: CIFDUS_clean_linker_0, # of connection points: 2
#     Edge 19, Type (0, 0), BuildingBlock: CIFDUS_clean_linker_0, # of connection points: 2
#     Edge 20, Type (0, 0), BuildingBlock: CIFDUS_clean_linker_0, # of connection points: 2
#     Edge 21, Type (0, 0), BuildingBlock: CIFDUS_clean_linker_0, # of connection points: 2
#     Edge 22, Type (0, 0), BuildingBlock: CIFDUS_clean_linker_0, # of connection points: 2
#     Edge 23, Type (0, 0), BuildingBlock: CIFDUS_clean_linker_0, # of connection points: 2
#     Edge 24, Type (0, 0), BuildingBlock: CIFDUS_clean_linker_0, # of connection points: 2
#     Edge 25, Type (0, 0), BuildingBlock: CIFDUS_clean_linker_0, # of connection points: 2
#     Edge 26, Type (0, 0), BuildingBlock: CIFDUS_clean_linker_0, # of connection points: 2
#     Edge 27, Type (0, 0), BuildingBlock: CIFDUS_clean_linker_0, # of connection points: 2
#     Edge 28, Type (0, 0), BuildingBlock: CIFDUS_clean_linker_0, # of connection points: 2
#     Edge 29, Type (0, 0), BuildingBlock: CIFDUS_clean_linker_0, # of connection points: 2
#     Edge 30, Type (0, 0), BuildingBlock: CIFDUS_clean_linker_0, # of connection points: 2
#     Edge 31, Type (0, 0), BuildingBlock: CIFDUS_clean_linker_0, # of connection points: 2
#     Edge 32, Type (0, 0), BuildingBlock: CIFDUS_clean_linker_0, # of connection points: 2
#     Edge 33, Type (0, 0), BuildingBlock: CIFDUS_clean_linker_0, # of connection points: 2
#     Edge 34, Type (0, 0), BuildingBlock: CIFDUS_clean_linker_0, # of connection points: 2
#     Edge 35, Type (0, 0), BuildingBlock: CIFDUS_clean_linker_0, # of connection points: 2
# Relax obj value: 0.108
# Max RMSD: 0.101
# Mean RMSD: 0.101
data_MOF--net-can--node1-GALJAG_clean_sbu_0--edge1-CIFDUS_clean_linker_0
_symmetry_space_group_name_H-M    P1
_symmetry_Int_Tables_number       1
_symmetry_cell_setting            triclinic
loop_
_symmetry_equiv_pos_as_xyz
'x, y, z'
_cell_length_a     47.063264
_cell_length_b     47.095331
_cell_length_c     24.934681
_cell_angle_alpha  90.325515
_cell_angle_beta   89.752761
_cell_angle_gamma 119.98519
loop_
_atom_site_label
_atom_site_type_symbol
_atom_site_fract_x
_atom_site_fract_y
_atom_site_fract_z
_atom_type_partial_charge
In0 In 0.0421 0.38067 0.25894 0.0
O1 O 0.09728 0.40945 0.25933 0.0
O2 O 0.07403 0.35716 0.2622 0.0
C3 C 0.03126 0.43151 0.25366 0.0
C4 C 0.02419 0.35544 0.15872 0.0
C5 C 0.02619 0.36129 0.36215 0.0
O6 O 0.05953 0.43479 0.25208 0.0
O7 O 0.00806 0.40229 0.25762 0.0
O8 O 0.00958 0.34282 0.32355 0.0
O9 O 0.04965 0.38868 0.34811 0.0
C10 C 0.10053 0.38441 0.26137 0.0
O11 O 0.00487 0.34296 0.19829 0.0
O12 O 0.05163 0.37971 0.17034 0.0
In13 In 0.64464 0.03932 0.75866 0.0
O14 O 0.67496 0.09383 0.74839 0.0
O15 O 0.70042 0.06812 0.76616 0.0
C16 C 0.58925 0.04158 0.74329 0.0
C17 C 0.6449 0.00726 0.66833 0.0
C18 C 0.64361 0.0255 0.86403 0.0
O19 O 0.61752 0.06616 0.73811 0.0
O20 O 0.58874 0.01537 0.75569 0.0
O21 O 0.65014 0.01028 0.82853 0.0
O22 O 0.63735 0.04666 0.84597 0.0
C23 C 0.70209 0.0953 0.75679 0.0
O24 O 0.6298 -0.00792 0.71016 0.0
O25 O 0.66059 0.03794 0.67328 0.0
In26 In 0.60827 0.66099 0.25501 0.0
O27 O 0.58579 0.69346 0.25117 0.0
O28 O 0.63807 0.71651 0.25472 0.0
C29 C 0.55384 0.60139 0.25229 0.0
C30 C 0.63538 0.66202 0.15925 0.0
C31 C 0.62756 0.66447 0.3574 0.0
O32 O 0.55297 0.62758 0.24711 0.0
O33 O 0.58213 0.60531 0.25877 0.0
O34 O 0.64266 0.65998 0.31912 0.0
O35 O 0.60316 0.66694 0.34372 0.0
C36 C 0.61306 0.71987 0.25272 0.0
O37 O 0.64657 0.65749 0.20242 0.0
O38 O 0.6111 0.66619 0.1649 0.0
In39 In 0.92894 0.59209 0.75593 0.0
O40 O 0.87388 0.56505 0.76631 0.0
O41 O 0.89852 0.61716 0.75865 0.0
C42 C 0.93774 0.53976 0.75501 0.0
C43 C 0.94337 0.61304 0.65356 0.0
C44 C 0.95429 0.62046 0.85149 0.0
O45 O 0.90982 0.53729 0.75689 0.0
O46 O 0.96146 0.56877 0.75376 0.0
O47 O 0.96913 0.63273 0.80788 0.0
O48 O 0.92726 0.5943 0.84644 0.0
C49 C 0.87166 0.59068 0.7646 0.0
O50 O 0.96287 0.62822 0.69169 0.0
O51 O 0.91723 0.5878 0.66735 0.0
In52 In 0.31446 0.93615 0.24328 0.0
O53 O 0.31311 0.97205 0.18111 0.0
O54 O 0.30916 0.92737 0.15398 0.0
C55 C 0.30821 0.95342 0.3446 0.0
C56 C 0.25882 0.8786 0.24275 0.0
C57 C 0.37552 0.94472 0.24506 0.0
O58 O 0.31338 0.97248 0.30541 0.0
O59 O 0.30633 0.9266 0.33216 0.0
O60 O 0.35003 0.91696 0.24179 0.0
O61 O 0.37037 0.96855 0.2474 0.0
C62 C 0.3098 0.95354 0.14165 0.0
O63 O 0.28683 0.88109 0.24351 0.0
O64 O 0.25879 0.90548 0.24238 0.0
In65 In 0.37234 0.32681 0.75122 0.0
O66 O 0.34079 0.33928 0.69801 0.0
O67 O 0.369 0.32077 0.66085 0.0
C68 C 0.34783 0.32752 0.84846 0.0
C69 C 0.36156 0.26535 0.74903 0.0
C70 C 0.4326 0.38077 0.75234 0.0
O71 O 0.33557 0.33107 0.80588 0.0
O72 O 0.37217 0.32356 0.84175 0.0
O73 O 0.42819 0.35211 0.75136 0.0
O74 O 0.40662 0.38229 0.75267 0.0
C75 C 0.34921 0.33117 0.65508 0.0
O76 O 0.38988 0.2903 0.74872 0.0
O77 O 0.3382 0.27133 0.75029 0.0
In78 In 0.59741 0.93661 0.26052 0.0
O79 O 0.56906 0.88128 0.25974 0.0
O80 O 0.6213 0.90521 0.26585 0.0
C81 C 0.53862 0.93304 0.25106 0.0
C82 C 0.62188 0.95985 0.35948 0.0
C83 C 0.62606 0.96283 0.16473 0.0
O84 O 0.54301 0.90928 0.2408 0.0
O85 O 0.56399 0.95886 0.26601 0.0
O86 O 0.61789 0.97785 0.19778 0.0
O87 O 0.62126 0.93559 0.18108 0.0
C88 C 0.59434 0.87848 0.26328 0.0
O89 O 0.63719 0.97419 0.31731 0.0
O90 O 0.59466 0.93444 0.3514 0.0
In91 In 0.65651 0.60882 0.75577 0.0
O92 O 0.6882 0.58569 0.76486 0.0
O93 O 0.71207 0.63781 0.75748 0.0
C94 C 0.59641 0.55495 0.75583 0.0
C95 C 0.65732 0.63611 0.85127 0.0
C96 C 0.66149 0.62869 0.65344 0.0
O97 O 0.62239 0.55344 0.75849 0.0
O98 O 0.60078 0.58358 0.75328 0.0
O99 O 0.65641 0.64349 0.69152 0.0
O100 O 0.66394 0.60433 0.66727 0.0
C101 C 0.7149 0.61265 0.76286 0.0
O102 O 0.6537 0.64772 0.80786 0.0
O103 O 0.66046 0.6112 0.84602 0.0
In104 In 0.03123 0.65762 0.25423 0.0
O105 O 0.08513 0.6927 0.24727 0.0
O106 O 0.05381 0.71332 0.25264 0.0
C107 C 0.03687 0.60334 0.25103 0.0
C108 C 0.01361 0.65901 0.3571 0.0
C109 C 0.00256 0.65432 0.15898 0.0
O110 O 0.061 0.63193 0.24729 0.0
O111 O 0.00953 0.60189 0.2565 0.0
O112 O -0.01342 0.64729 0.20248 0.0
O113 O 0.03246 0.6633 0.16412 0.0
C114 C 0.08275 0.71822 0.24864 0.0
O115 O -0.0066 0.65142 0.31897 0.0
O116 O 0.04203 0.66587 0.34302 0.0
In117 In 0.36365 0.04123 0.74352 0.0
O118 O 0.39305 0.09615 0.74613 0.0
O119 O 0.34075 0.07385 0.74384 0.0
C120 C 0.41534 0.03139 0.74227 0.0
C121 C 0.34055 0.02384 0.84487 0.0
C122 C 0.34057 0.02413 0.64205 0.0
O123 O 0.41809 0.05935 0.73961 0.0
O124 O 0.38624 0.00795 0.74578 0.0
O125 O 0.32602 0.00533 0.68127 0.0
O126 O 0.36575 0.05062 0.65458 0.0
C127 C 0.36834 0.10002 0.7454 0.0
O128 O 0.32635 0.00494 0.8054 0.0
O129 O 0.36546 0.05063 0.8327 0.0
In130 In 0.32327 0.38011 0.25124 0.0
O131 O 0.28828 0.39952 0.25633 0.0
O132 O 0.26757 0.34765 0.25257 0.0
C133 C 0.37815 0.43958 0.24668 0.0
C134 C 0.32502 0.35668 0.34841 0.0
C135 C 0.32467 0.35418 0.15554 0.0
O136 O 0.34981 0.43561 0.24112 0.0
O137 O 0.37888 0.41354 0.25442 0.0
O138 O 0.33403 0.34698 0.19806 0.0
O139 O 0.31445 0.37412 0.16154 0.0
C140 C 0.26269 0.37167 0.25556 0.0
O141 O 0.32717 0.3434 0.30566 0.0
O142 O 0.322 0.38155 0.34194 0.0
In143 In 0.93366 0.31171 0.75896 0.0
O144 O 0.97092 0.31494 0.82312 0.0
O145 O 0.92541 0.30974 0.84836 0.0
C146 C 0.95677 0.31011 0.65954 0.0
C147 C 0.8809 0.25193 0.76064 0.0
C148 C 0.92898 0.3664 0.75353 0.0
O149 O 0.97601 0.32384 0.69867 0.0
O150 O 0.92686 0.29691 0.67136 0.0
O151 O 0.90445 0.33792 0.75274 0.0
O152 O 0.95627 0.36752 0.75669 0.0
C153 C 0.9523 0.31234 0.86198 0.0
O154 O 0.87948 0.27786 0.75521 0.0
O155 O 0.90953 0.25602 0.76522 0.0
H156 H 0.96322 0.31892 0.11454 0.0
H157 H 0.06632 0.36827 0.07581 0.0
H158 H 0.05357 0.35675 0.9807 0.0
H159 H 0.01308 0.33672 0.90721 0.0
H160 H 0.91009 0.29018 0.9459 0.0
H161 H 0.92271 0.29621 0.04143 0.0
C162 C 0.98282 0.32664 0.08531 0.0
C163 C 0.01562 0.34448 0.10227 0.0
C164 C 0.97533 0.32066 0.03027 0.0
C165 C 0.04081 0.35461 0.06381 0.0
C166 C 0.03357 0.34809 0.0093 0.0
C167 C -0.00654 0.3275 0.93662 0.0
C168 C 0.96075 0.31318 0.91941 0.0
C169 C 0.00092 0.33175 0.99184 0.0
C170 C 0.93554 0.30155 0.95805 0.0
C171 C 0.94271 0.30498 0.0128 0.0
H172 H 0.59764 0.92736 0.4528 0.0
H173 H 0.67286 0.01969 0.38898 0.0
H174 H 0.68888 0.04143 0.48007 0.0
H175 H 0.67823 0.03561 0.57707 0.0
H176 H 0.60276 0.94339 0.64085 0.0
H177 H 0.59044 0.91991 0.55039 0.0
C178 C 0.61772 0.95217 0.45884 0.0
C179 C 0.63379 0.97207 0.41425 0.0
C180 C 0.62671 0.96445 0.51122 0.0
C181 C 0.66002 0.00398 0.42266 0.0
C182 C 0.66913 0.01641 0.4747 0.0
C183 C 0.65941 0.01021 0.57129 0.0
C184 C 0.64122 -0.00868 0.61554 0.0
C185 C 0.6522 -0.00293 0.51918 0.0
C186 C 0.61708 0.95842 0.60747 0.0
C187 C 0.6099 0.94507 0.55572 0.0
H188 H 0.62456 0.68411 0.0661 0.0
H189 H 0.67336 0.63536 0.13226 0.0
H190 H 0.68672 0.62521 0.04176 0.0
H191 H 0.67979 0.62565 0.94423 0.0
H192 H 0.63176 0.67512 0.87796 0.0
H193 H 0.62305 0.68991 0.96839 0.0
C194 C 0.63846 0.6716 0.06068 0.0
C195 C 0.64763 0.66009 0.1056 0.0
C196 C 0.64597 0.66586 0.00868 0.0
C197 C 0.66599 0.64435 0.09821 0.0
C198 C 0.67348 0.63842 0.04653 0.0
C199 C 0.66773 0.63998 0.94961 0.0
C200 C 0.65601 0.64895 0.90472 0.0
C201 C 0.66286 0.64834 1.00153 0.0
C202 C 0.64088 0.6679 0.91201 0.0
C203 C 0.63579 0.67621 0.96365 0.0
H204 H 0.95275 0.6273 0.40201 0.0
H205 H 0.05526 0.68825 0.44039 0.0
H206 H 0.04237 0.68199 0.53602 0.0
H207 H 0.00249 0.65539 0.60898 0.0
H208 H 0.9004 0.59171 0.57049 0.0
H209 H 0.91247 0.60295 0.47515 0.0
C210 C 0.97214 0.63958 0.43136 0.0
C211 C 0.00486 0.65809 0.41426 0.0
C212 C 0.96466 0.63515 0.48641 0.0
C213 C 0.02985 0.67369 0.45266 0.0
C214 C 0.02253 0.6701 0.50736 0.0
C215 C 0.98288 0.64435 0.57971 0.0
C216 C 0.95069 0.62266 0.59668 0.0
C217 C -0.0099 0.6503 0.52476 0.0
C218 C 0.92548 0.60835 0.55835 0.0
C219 C 0.93234 0.61475 0.50379 0.0
H220 H 0.30675 0.963 0.88964 0.0
H221 H 0.35376 0.06603 0.92779 0.0
H222 H 0.34545 0.05357 0.02341 0.0
H223 H 0.32963 0.01357 0.09696 0.0
H224 H 0.28597 0.9108 0.05843 0.0
H225 H 0.28791 0.92283 0.96309 0.0
C226 C 0.31457 0.98262 0.91892 0.0
C227 C 0.33087 0.01534 0.90169 0.0
C228 C 0.31063 0.97532 0.97412 0.0
C229 C 0.34126 0.04059 0.9401 0.0
C230 C 0.33659 0.03351 0.99485 0.0
C231 C 0.3201 -0.00616 0.06767 0.0
C232 C 0.30785 0.96141 0.08478 0.0
C233 C 0.32205 0.001 0.01249 0.0
C234 C 0.29578 0.93606 0.04631 0.0
C235 C 0.29686 0.94288 0.99167 0.0
H236 H 0.30928 0.37354 0.44295 0.0
H237 H 0.34623 0.31414 0.37363 0.0
H238 H 0.35522 0.29935 0.46329 0.0
H239 H 0.35612 0.30654 0.56094 0.0
H240 H 0.31837 0.36528 0.6302 0.0
H241 H 0.30582 0.37692 0.54073 0.0
C242 C 0.31909 0.35717 0.44754 0.0
C243 C 0.32747 0.34522 0.40201 0.0
C244 C 0.32411 0.34878 0.49901 0.0
C245 C 0.33972 0.3237 0.40826 0.0
C246 C 0.34495 0.31533 0.45942 0.0
C247 C 0.3449 0.32168 0.5564 0.0
C248 C 0.3385 0.33536 0.60184 0.0
C249 C 0.33778 0.32823 0.50501 0.0
C250 C 0.32361 0.35458 0.59566 0.0
C251 C 0.31653 0.36132 0.54459 0.0
H252 H 0.92115 0.6063 0.94546 0.0
H253 H 0.01755 0.66558 0.87705 0.0
H254 H 0.04063 0.6835 0.9669 0.0
H255 H 0.03395 0.67843 0.0648 0.0
H256 H 0.93747 0.61967 0.13322 0.0
H257 H 0.91368 0.6057 0.04319 0.0
C258 C 0.94718 0.62338 0.95022 0.0
C259 C 0.96775 0.6343 0.90484 0.0
C260 C 0.96019 0.63355 1.00187 0.0
C261 C 0.00129 0.65676 0.91143 0.0
C262 C 0.01448 0.66691 0.96276 0.0
C263 C 0.00765 0.66287 0.06 0.0
C264 C -0.01251 0.64977 0.10549 0.0
C265 C -0.00575 0.65489 0.00825 0.0
C266 C 0.95346 0.63 0.09878 0.0
C267 C 0.9399 0.62188 0.04735 0.0
H268 H 0.33107 0.01398 0.3899 0.0
H269 H 0.28098 0.91086 0.42706 0.0
H270 H 0.28299 0.92322 0.52257 0.0
H271 H 0.3038 0.9635 0.59658 0.0
H272 H 0.3569 0.06662 0.55946 0.0
H273 H 0.34865 0.05423 0.46377 0.0
C274 C 0.32013 -0.00572 0.4189 0.0
C275 C 0.30607 0.96161 0.4014 0.0
C276 C 0.32213 0.00157 0.47414 0.0
C277 C 0.2922 0.93628 0.43952 0.0
C278 C 0.29334 0.9433 0.49424 0.0
C279 C 0.31298 0.98319 0.56751 0.0
C280 C 0.331 0.01588 0.5851 0.0
C281 C 0.30895 0.97587 0.51221 0.0
C282 C 0.34307 0.04119 0.54693 0.0
C283 C 0.33843 0.03415 0.49211 0.0
H284 H 0.36366 0.3107 0.94232 0.0
H285 H 0.30584 0.34948 0.87479 0.0
H286 H 0.29147 0.35896 0.96488 0.0
H287 H 0.29922 0.36039 0.06232 0.0
H288 H 0.35687 0.32136 0.12973 0.0
H289 H 0.36722 0.30744 0.03993 0.0
C290 C 0.34768 0.32096 0.94738 0.0
C291 C 0.33613 0.32979 0.90223 0.0
C292 C 0.33964 0.32639 0.9991 0.0
C293 C 0.31511 0.34263 0.90911 0.0
C294 C 0.30699 0.34815 0.96053 0.0
C295 C 0.31378 0.34855 0.05733 0.0
C296 C 0.32762 0.34225 0.10232 0.0
C297 C 0.31971 0.34077 0.00573 0.0
C298 C 0.3461 0.32656 0.09555 0.0
C299 C 0.35211 0.31871 0.04428 0.0
H300 H 0.01599 0.35298 0.61495 0.0
H301 H 0.92066 0.2712 0.5769 0.0
H302 H 0.93417 0.278 0.48149 0.0
H303 H 0.97148 0.31014 0.40775 0.0
H304 H 0.06581 0.39347 0.44625 0.0
H305 H 0.0544 0.3831 0.54167 0.0
C306 C -0.00154 0.3363 0.58581 0.0
C307 C 0.9674 0.31167 0.60305 0.0
C308 C 0.00606 0.34088 0.53068 0.0
C309 C 0.94476 0.29045 0.56469 0.0
C310 C 0.9524 0.29438 0.51001 0.0
C311 C -0.01039 0.32577 0.43707 0.0
C312 C 0.01931 0.35266 0.41975 0.0
C313 C 0.98271 0.31999 0.49234 0.0
C314 C 0.04257 0.37274 0.45835 0.0
C315 C 0.03612 0.36683 0.5131 0.0
H316 H 0.65281 0.97951 0.91556 0.0
H317 H 0.63305 0.05855 0.94364 0.0
H318 H 0.62915 0.04829 0.03963 0.0
H319 H 0.62769 0.01476 0.11532 0.0
H320 H 0.64586 0.93467 0.08835 0.0
H321 H 0.65451 0.94772 0.99282 0.0
C322 C 0.64784 -0.00545 0.94279 0.0
C323 C 0.64293 0.01952 0.92234 0.0
C324 C 0.64539 0.9884 0.99832 0.0
C325 C 0.63667 0.03895 0.95817 0.0
C326 C 0.63448 0.03317 0.01321 0.0
C327 C 0.63405 0.00049 0.08869 0.0
C328 C 0.63604 0.97378 0.10886 0.0
C329 C 0.63833 0.00769 0.03368 0.0
C330 C 0.64416 0.9554 0.07378 0.0
C331 C 0.64896 0.96273 0.01907 0.0
H332 H 0.66331 0.63988 0.40193 0.0
H333 H 0.6106 0.69045 0.44035 0.0
H334 H 0.61948 0.68697 0.53589 0.0
H335 H 0.63805 0.66534 0.60885 0.0
H336 H 0.68719 0.61123 0.57055 0.0
H337 H 0.68419 0.6205 0.475 0.0
C338 C 0.65423 0.65053 0.43128 0.0
C339 C 0.63626 0.66526 0.41431 0.0
C340 C 0.6586 0.64761 0.48626 0.0
C341 C 0.62435 0.67877 0.45261 0.0
C342 C 0.62939 0.67679 0.50723 0.0
C343 C 0.6485 0.65603 0.57955 0.0
C344 C 0.66269 0.63757 0.59654 0.0
C345 C 0.64585 0.66063 0.52459 0.0
C346 C 0.67595 0.62538 0.55827 0.0
C347 C 0.67423 0.63064 0.50365 0.0
H348 H -0.01112 0.5393 0.25734 0.0
H349 H 0.09364 0.60207 0.241 0.0
H350 H 0.10088 0.55433 0.2394 0.0
H351 H 0.07781 0.4951 0.24389 0.0
H352 H 0.97325 0.43161 0.26038 0.0
H353 H 0.96553 0.47933 0.2605 0.0
C354 C 0.01325 0.54245 0.25337 0.0
C355 C 0.04068 0.57412 0.24942 0.0
C356 C 0.01728 0.51484 0.25249 0.0
C357 C 0.07213 0.57792 0.24418 0.0
C358 C 0.07632 0.55066 0.24326 0.0
C359 C 0.0533 0.49166 0.24739 0.0
C360 C 0.02615 0.45994 0.25221 0.0
C361 C 0.04911 0.51906 0.24756 0.0
C362 C -0.00545 0.45585 0.25662 0.0
C363 C -0.00987 0.4831 0.25675 0.0
H364 H 0.47812 0.07788 0.72461 0.0
H365 H 0.41707 0.97484 0.75852 0.0
H366 H 0.46564 0.96847 0.76019 0.0
H367 H 0.52576 -0.00714 0.75451 0.0
H368 H 0.58597 0.09606 0.72015 0.0
H369 H 0.5373 0.10165 0.71591 0.0
C370 C 0.4754 0.05399 0.73228 0.0
C371 C 0.44416 0.02691 0.7417 0.0
C372 C 0.50326 0.05056 0.73307 0.0
C373 C 0.44095 -0.00393 0.75122 0.0
C374 C 0.46868 -0.00757 0.75222 0.0
C375 C 0.52814 0.01649 0.7458 0.0
C376 C 0.55938 0.04401 0.73783 0.0
C377 C 0.5 0.01959 0.74354 0.0
C378 C 0.56218 0.0745 0.7265 0.0
C379 C 0.53438 0.07775 0.72414 0.0
H380 H 0.49099 0.5873 0.23836 0.0
H381 H 0.55015 0.54218 0.26419 0.0
H382 H 0.50096 0.48801 0.26406 0.0
H383 H 0.44113 0.45354 0.25772 0.0
H384 H 0.38195 0.49865 0.23201 0.0
H385 H 0.4312 0.55278 0.23089 0.0
C386 C 0.4931 0.5656 0.24389 0.0
C387 C 0.5241 0.56871 0.25137 0.0
C388 C 0.46475 0.53456 0.24382 0.0
C389 C 0.52651 0.54041 0.25841 0.0
C390 C 0.49842 0.50943 0.25835 0.0
C391 C 0.43904 0.47522 0.25178 0.0
C392 C 0.408 0.47215 0.24504 0.0
C393 C 0.46742 0.50623 0.25126 0.0
C394 C 0.40561 0.50041 0.23733 0.0
C395 C 0.43374 0.53136 0.23671 0.0
H396 H 0.89002 0.4762 0.75191 0.0
H397 H -0.00479 0.53858 0.75616 0.0
H398 H 0.00198 0.49033 0.75545 0.0
H399 H 0.97775 0.43025 0.75446 0.0
H400 H 0.87242 0.36847 0.74971 0.0
H401 H 0.86598 0.41671 0.74964 0.0
C402 C 0.91444 0.47925 0.75268 0.0
C403 C 0.94206 0.51083 0.75422 0.0
C404 C 0.91812 0.45152 0.75212 0.0
C405 C 0.97355 0.51445 0.75501 0.0
C406 C 0.97744 0.4869 0.75461 0.0
C407 C 0.95343 0.42741 0.75328 0.0
C408 C 0.92562 0.39588 0.75215 0.0
C409 C 0.94987 0.4553 0.75327 0.0
C410 C 0.89423 0.3925 0.7506 0.0
C411 C 0.8905 0.42005 0.75061 0.0
H412 H 0.39124 0.89743 0.23006 0.0
H413 H 0.43396 0.0008 0.26328 0.0
H414 H 0.48854 0.00649 0.26779 0.0
H415 H 0.52388 0.98167 0.26354 0.0
H416 H 0.48052 0.87834 0.22889 0.0
H417 H 0.42636 0.87306 0.22362 0.0
C418 C 0.4125 0.92123 0.23824 0.0
C419 C 0.40862 0.94863 0.24652 0.0
C420 C 0.44364 0.9243 0.24055 0.0
C421 C 0.43637 0.97934 0.25677 0.0
C422 C 0.46754 0.98259 0.25942 0.0
C423 C 0.50255 0.95804 0.25477 0.0
C424 C 0.50615 0.93042 0.24679 0.0
C425 C 0.47144 0.95519 0.25158 0.0
C426 C 0.47838 0.89997 0.23522 0.0
C427 C 0.4474 0.89691 0.23224 0.0
H428 H 0.58145 0.49137 0.75694 0.0
H429 H 0.53748 0.55274 0.75353 0.0
H430 H 0.48283 0.5042 0.75228 0.0
H431 H 0.44757 0.44434 0.75194 0.0
H432 H 0.49152 0.38296 0.75471 0.0
H433 H 0.54618 0.4315 0.75639 0.0
C434 C 0.5599 0.49409 0.75598 0.0
C435 C 0.56346 0.52554 0.75537 0.0
C436 C 0.52858 0.46611 0.7551 0.0
C437 C 0.53535 0.52875 0.75402 0.0
C438 C 0.50411 0.50103 0.7533 0.0
C439 C 0.46912 0.44161 0.75293 0.0
C440 C 0.46555 0.41016 0.75322 0.0
C441 C 0.50044 0.4696 0.75379 0.0
C442 C 0.49366 0.40695 0.75444 0.0
C443 C 0.52491 0.43467 0.75542 0.0
H444 H 0.11414 0.33473 0.25978 0.0
H445 H 0.15975 0.44025 0.26398 0.0
H446 H 0.21389 0.44536 0.26322 0.0
H447 H 0.24817 0.42014 0.26028 0.0
H448 H 0.20345 0.31479 0.25519 0.0
H449 H 0.14889 0.30928 0.25744 0.0
C450 C 0.13596 0.3588 0.26066 0.0
C451 C 0.13302 0.38706 0.2619 0.0
C452 C 0.16706 0.36159 0.25999 0.0
C453 C 0.16142 0.41812 0.26295 0.0
C454 C 0.19237 0.42109 0.26252 0.0
C455 C 0.22649 0.39594 0.25974 0.0
C456 C 0.22973 0.36791 0.25753 0.0
C457 C 0.19544 0.39302 0.26086 0.0
C458 C 0.20149 0.33673 0.25685 0.0
C459 C 0.17035 0.33358 0.25813 0.0
H460 H 0.8194 0.23969 0.74541 0.0
H461 H 0.87529 0.19171 0.77678 0.0
H462 H 0.82453 0.13837 0.77826 0.0
H463 H 0.76404 0.10575 0.77119 0.0
H464 H 0.70957 0.1553 0.73935 0.0
H465 H 0.76022 0.20782 0.73751 0.0
C466 C 0.82057 0.21759 0.7526 0.0
C467 C 0.85094 0.21954 0.76111 0.0
C468 C 0.79157 0.18736 0.75332 0.0
C469 C 0.85208 0.19073 0.77015 0.0
C470 C 0.82312 0.1603 0.77102 0.0
C471 C 0.76336 0.12808 0.76384 0.0
C472 C 0.73316 0.12669 0.75552 0.0
C473 C 0.79269 0.15836 0.76276 0.0
C474 C 0.73252 0.15573 0.74593 0.0
C475 C 0.76145 0.18579 0.74486 0.0
H476 H 0.5628 0.73213 0.25392 0.0
H477 H 0.66852 0.77996 0.25463 0.0
H478 H 0.67209 0.83353 0.25886 0.0
H479 H 0.64504 0.86658 0.26249 0.0
H480 H 0.53927 0.81841 0.26165 0.0
H481 H 0.53585 0.76501 0.25762 0.0
C482 C 0.58662 0.75428 0.25486 0.0
C483 C 0.61534 0.75219 0.25389 0.0
C484 C 0.58847 0.78485 0.25749 0.0
C485 C 0.64605 0.78103 0.25527 0.0
C486 C 0.64811 0.81162 0.25777 0.0
C487 C 0.62126 0.84438 0.2616 0.0
C488 C 0.59247 0.84636 0.26242 0.0
C489 C 0.61947 0.81379 0.25902 0.0
C490 C 0.5618 0.81746 0.26108 0.0
C491 C 0.55981 0.78694 0.2587 0.0
H492 H 0.86088 0.64199 0.75999 0.0
H493 H 0.81132 0.53677 0.77681 0.0
H494 H 0.75838 0.53448 0.77931 0.0
H495 H 0.72619 0.56213 0.7742 0.0
H496 H 0.77545 0.66728 0.75662 0.0
H497 H 0.82863 0.66987 0.75712 0.0
C498 C 0.83848 0.61859 0.7644 0.0
C499 C 0.83992 0.5896 0.76803 0.0
C500 C 0.80815 0.61744 0.76558 0.0
C501 C 0.81079 0.55943 0.77382 0.0
C502 C 0.78052 0.55809 0.77523 0.0
C503 C 0.74858 0.58563 0.77067 0.0
C504 C 0.74698 0.61444 0.76521 0.0
C505 C 0.77893 0.5869 0.77075 0.0
C506 C 0.77612 0.64473 0.76079 0.0
C507 C 0.80649 0.64624 0.76102 0.0
H508 H 0.19578 0.86622 0.24554 0.0
H509 H 0.25423 0.81895 0.23955 0.0
H510 H 0.20471 0.76537 0.24 0.0
H511 H 0.14536 0.73202 0.24298 0.0
H512 H 0.08577 0.77793 0.24998 0.0
H513 H 0.13535 0.83217 0.24812 0.0
C514 C 0.19759 0.84415 0.24425 0.0
C515 C 0.22855 0.84649 0.24255 0.0
C516 C 0.16895 0.81331 0.24471 0.0
C517 C 0.23065 0.81778 0.24094 0.0
C518 C 0.20238 0.78713 0.24118 0.0
C519 C 0.14313 0.75387 0.244 0.0
C520 C 0.11205 0.75108 0.24662 0.0
C521 C 0.17149 0.78465 0.24318 0.0
C522 C 0.10954 0.77956 0.24796 0.0
C523 C 0.13782 0.8105 0.24693 0.0
H524 H 0.40852 0.24872 0.74885 0.0
H525 H 0.30344 0.20717 0.74736 0.0
H526 H 0.29603 0.15184 0.74606 0.0
H527 H 0.3198 0.1155 0.74539 0.0
H528 H 0.42513 0.15825 0.74728 0.0
H529 H 0.43203 0.21302 0.74842 0.0
C530 C 0.38396 0.22758 0.74822 0.0
C531 C 0.35657 0.23192 0.74816 0.0
C532 C 0.37996 0.19611 0.74757 0.0
C533 C 0.32491 0.20435 0.74741 0.0
C534 C 0.32068 0.17277 0.74667 0.0
C535 C 0.34422 0.13684 0.74605 0.0
C536 C 0.3719 0.13288 0.74623 0.0
C537 C 0.34806 0.16838 0.74675 0.0
C538 C 0.40342 0.16067 0.74713 0.0
C539 C 0.40743 0.19201 0.74777 0.0
loop_
_geom_bond_atom_site_label_1
_geom_bond_atom_site_label_2
_geom_bond_distance
_geom_bond_site_symmetry_2
_ccdc_geom_bond_type
In0 O1 2.294 . S
In0 O2 2.326 . S
In0 O6 2.266 . S
In0 O7 2.326 . S
In0 O8 2.266 1_455 S
In0 O9 2.326 . S
In0 O11 2.294 . S
In0 O12 2.326 . S
O1 In0 2.294 . S
O1 C10 1.240 . S
O2 In0 2.326 . S
O2 C10 1.252 . S
C3 O6 1.252 . S
C3 O7 1.260 . S
C4 O11 1.240 . S
C4 O12 1.252 . S
C5 O8 1.252 1_455 S
C5 O9 1.260 . S
O6 In0 2.266 . S
O6 C3 1.252 . S
O7 In0 2.326 . S
O7 C3 1.260 . S
O8 In0 2.266 1_655 S
O8 C5 1.252 1_655 S
O9 In0 2.326 . S
O9 C5 1.260 . S
C10 O1 1.240 . S
C10 O2 1.252 . S
O11 In0 2.294 . S
O11 C4 1.240 . S
O12 In0 2.326 . S
O12 C4 1.252 . S
In13 O14 2.294 . S
In13 O15 2.326 . S
In13 O19 2.266 . S
In13 O20 2.326 . S
In13 O21 2.266 1_545 S
In13 O22 2.326 . S
In13 O24 2.294 . S
In13 O25 2.326 . S
O14 In13 2.294 . S
O14 C23 1.240 . S
O15 In13 2.326 . S
O15 C23 1.252 . S
C16 O19 1.252 . S
C16 O20 1.260 . S
C17 O24 1.240 . S
C17 O25 1.252 . S
C18 O21 1.252 1_545 S
C18 O22 1.260 . S
O19 In13 2.266 . S
O19 C16 1.252 . S
O20 In13 2.326 . S
O20 C16 1.260 . S
O21 In13 2.266 1_565 S
O21 C18 1.252 1_565 S
O22 In13 2.326 . S
O22 C18 1.260 . S
C23 O14 1.240 . S
C23 O15 1.252 . S
O24 In13 2.294 . S
O24 C17 1.240 . S
O25 In13 2.326 . S
O25 C17 1.252 . S
In26 O27 2.294 . S
In26 O28 2.326 . S
In26 O32 2.266 . S
In26 O33 2.326 . S
In26 O34 2.266 . S
In26 O35 2.326 . S
In26 O37 2.294 . S
In26 O38 2.326 . S
O27 In26 2.294 . S
O27 C36 1.240 . S
O28 In26 2.326 . S
O28 C36 1.252 . S
C29 O32 1.252 . S
C29 O33 1.260 . S
C30 O37 1.240 . S
C30 O38 1.252 . S
C31 O34 1.252 . S
C31 O35 1.260 . S
O32 In26 2.266 . S
O32 C29 1.252 . S
O33 In26 2.326 . S
O33 C29 1.260 . S
O34 In26 2.266 . S
O34 C31 1.252 . S
O35 In26 2.326 . S
O35 C31 1.260 . S
C36 O27 1.240 . S
C36 O28 1.252 . S
O37 In26 2.294 . S
O37 C30 1.240 . S
O38 In26 2.326 . S
O38 C30 1.252 . S
In39 O40 2.294 . S
In39 O41 2.326 . S
In39 O45 2.266 . S
In39 O46 2.326 . S
In39 O47 2.266 1_655 S
In39 O48 2.326 . S
In39 O50 2.294 . S
In39 O51 2.326 . S
O40 In39 2.294 . S
O40 C49 1.240 . S
O41 In39 2.326 . S
O41 C49 1.252 . S
C42 O45 1.252 . S
C42 O46 1.260 . S
C43 O50 1.240 . S
C43 O51 1.252 . S
C44 O47 1.252 1_655 S
C44 O48 1.260 . S
O45 In39 2.266 . S
O45 C42 1.252 . S
O46 In39 2.326 . S
O46 C42 1.260 . S
O47 In39 2.266 1_455 S
O47 C44 1.252 1_455 S
O48 In39 2.326 . S
O48 C44 1.260 . S
C49 O40 1.240 . S
C49 O41 1.252 . S
O50 In39 2.294 . S
O50 C43 1.240 . S
O51 In39 2.326 . S
O51 C43 1.252 . S
In52 O53 2.294 . S
In52 O54 2.326 . S
In52 O58 2.266 1_565 S
In52 O59 2.326 . S
In52 O60 2.266 . S
In52 O61 2.326 . S
In52 O63 2.294 . S
In52 O64 2.326 . S
O53 In52 2.294 . S
O53 C62 1.240 . S
O54 In52 2.326 . S
O54 C62 1.252 . S
C55 O58 1.252 1_565 S
C55 O59 1.260 . S
C56 O63 1.240 . S
C56 O64 1.252 . S
C57 O60 1.252 . S
C57 O61 1.260 . S
O58 In52 2.266 1_545 S
O58 C55 1.252 1_545 S
O59 In52 2.326 . S
O59 C55 1.260 . S
O60 In52 2.266 . S
O60 C57 1.252 . S
O61 In52 2.326 . S
O61 C57 1.260 . S
C62 O53 1.240 . S
C62 O54 1.252 . S
O63 In52 2.294 . S
O63 C56 1.240 . S
O64 In52 2.326 . S
O64 C56 1.252 . S
In65 O66 2.294 . S
In65 O67 2.326 . S
In65 O71 2.266 . S
In65 O72 2.326 . S
In65 O73 2.266 . S
In65 O74 2.326 . S
In65 O76 2.294 . S
In65 O77 2.326 . S
O66 In65 2.294 . S
O66 C75 1.240 . S
O67 In65 2.326 . S
O67 C75 1.252 . S
C68 O71 1.252 . S
C68 O72 1.260 . S
C69 O76 1.240 . S
C69 O77 1.252 . S
C70 O73 1.252 . S
C70 O74 1.260 . S
O71 In65 2.266 . S
O71 C68 1.252 . S
O72 In65 2.326 . S
O72 C68 1.260 . S
O73 In65 2.266 . S
O73 C70 1.252 . S
O74 In65 2.326 . S
O74 C70 1.260 . S
C75 O66 1.240 . S
C75 O67 1.252 . S
O76 In65 2.294 . S
O76 C69 1.240 . S
O77 In65 2.326 . S
O77 C69 1.252 . S
In78 O79 2.294 . S
In78 O80 2.326 . S
In78 O84 2.266 . S
In78 O85 2.326 . S
In78 O86 2.266 1_565 S
In78 O87 2.326 . S
In78 O89 2.294 . S
In78 O90 2.326 . S
O79 In78 2.294 . S
O79 C88 1.240 . S
O80 In78 2.326 . S
O80 C88 1.252 . S
C81 O84 1.252 . S
C81 O85 1.260 . S
C82 O89 1.240 . S
C82 O90 1.252 . S
C83 O86 1.252 1_565 S
C83 O87 1.260 . S
O84 In78 2.266 . S
O84 C81 1.252 . S
O85 In78 2.326 . S
O85 C81 1.260 . S
O86 In78 2.266 1_545 S
O86 C83 1.252 1_545 S
O87 In78 2.326 . S
O87 C83 1.260 . S
C88 O79 1.240 . S
C88 O80 1.252 . S
O89 In78 2.294 . S
O89 C82 1.240 . S
O90 In78 2.326 . S
O90 C82 1.252 . S
In91 O92 2.294 . S
In91 O93 2.326 . S
In91 O97 2.266 . S
In91 O98 2.326 . S
In91 O99 2.266 . S
In91 O100 2.326 . S
In91 O102 2.294 . S
In91 O103 2.326 . S
O92 In91 2.294 . S
O92 C101 1.240 . S
O93 In91 2.326 . S
O93 C101 1.252 . S
C94 O97 1.252 . S
C94 O98 1.260 . S
C95 O102 1.240 . S
C95 O103 1.252 . S
C96 O99 1.252 . S
C96 O100 1.260 . S
O97 In91 2.266 . S
O97 C94 1.252 . S
O98 In91 2.326 . S
O98 C94 1.260 . S
O99 In91 2.266 . S
O99 C96 1.252 . S
O100 In91 2.326 . S
O100 C96 1.260 . S
C101 O92 1.240 . S
C101 O93 1.252 . S
O102 In91 2.294 . S
O102 C95 1.240 . S
O103 In91 2.326 . S
O103 C95 1.252 . S
In104 O105 2.294 . S
In104 O106 2.326 . S
In104 O110 2.266 . S
In104 O111 2.326 . S
In104 O112 2.266 1_455 S
In104 O113 2.326 . S
In104 O115 2.294 . S
In104 O116 2.326 . S
O105 In104 2.294 . S
O105 C114 1.240 . S
O106 In104 2.326 . S
O106 C114 1.252 . S
C107 O110 1.252 . S
C107 O111 1.260 . S
C108 O115 1.240 . S
C108 O116 1.252 . S
C109 O112 1.252 1_455 S
C109 O113 1.260 . S
O110 In104 2.266 . S
O110 C107 1.252 . S
O111 In104 2.326 . S
O111 C107 1.260 . S
O112 In104 2.266 1_655 S
O112 C109 1.252 1_655 S
O113 In104 2.326 . S
O113 C109 1.260 . S
C114 O105 1.240 . S
C114 O106 1.252 . S
O115 In104 2.294 . S
O115 C108 1.240 . S
O116 In104 2.326 . S
O116 C108 1.252 . S
In117 O118 2.294 . S
In117 O119 2.326 . S
In117 O123 2.266 . S
In117 O124 2.326 . S
In117 O125 2.266 1_545 S
In117 O126 2.326 . S
In117 O128 2.294 . S
In117 O129 2.326 . S
O118 In117 2.294 . S
O118 C127 1.240 . S
O119 In117 2.326 . S
O119 C127 1.252 . S
C120 O123 1.252 . S
C120 O124 1.260 . S
C121 O128 1.240 . S
C121 O129 1.252 . S
C122 O125 1.252 1_545 S
C122 O126 1.260 . S
O123 In117 2.266 . S
O123 C120 1.252 . S
O124 In117 2.326 . S
O124 C120 1.260 . S
O125 In117 2.266 1_565 S
O125 C122 1.252 1_565 S
O126 In117 2.326 . S
O126 C122 1.260 . S
C127 O118 1.240 . S
C127 O119 1.252 . S
O128 In117 2.294 . S
O128 C121 1.240 . S
O129 In117 2.326 . S
O129 C121 1.252 . S
In130 O131 2.294 . S
In130 O132 2.326 . S
In130 O136 2.266 . S
In130 O137 2.326 . S
In130 O138 2.266 . S
In130 O139 2.326 . S
In130 O141 2.294 . S
In130 O142 2.326 . S
O131 In130 2.294 . S
O131 C140 1.240 . S
O132 In130 2.326 . S
O132 C140 1.252 . S
C133 O136 1.252 . S
C133 O137 1.260 . S
C134 O141 1.240 . S
C134 O142 1.252 . S
C135 O138 1.252 . S
C135 O139 1.260 . S
O136 In130 2.266 . S
O136 C133 1.252 . S
O137 In130 2.326 . S
O137 C133 1.260 . S
O138 In130 2.266 . S
O138 C135 1.252 . S
O139 In130 2.326 . S
O139 C135 1.260 . S
C140 O131 1.240 . S
C140 O132 1.252 . S
O141 In130 2.294 . S
O141 C134 1.240 . S
O142 In130 2.326 . S
O142 C134 1.252 . S
In143 O144 2.294 . S
In143 O145 2.326 . S
In143 O149 2.266 1_655 S
In143 O150 2.326 . S
In143 O151 2.266 . S
In143 O152 2.326 . S
In143 O154 2.294 . S
In143 O155 2.326 . S
O144 In143 2.294 . S
O144 C153 1.240 . S
O145 In143 2.326 . S
O145 C153 1.252 . S
C146 O149 1.252 1_655 S
C146 O150 1.260 . S
C147 O154 1.240 . S
C147 O155 1.252 . S
C148 O151 1.252 . S
C148 O152 1.260 . S
O149 In143 2.266 1_455 S
O149 C146 1.252 1_455 S
O150 In143 2.326 . S
O150 C146 1.260 . S
O151 In143 2.266 . S
O151 C148 1.252 . S
O152 In143 2.326 . S
O152 C148 1.260 . S
C153 O144 1.240 . S
C153 O145 1.252 . S
O154 In143 2.294 . S
O154 C147 1.240 . S
O155 In143 2.326 . S
O155 C147 1.252 . S
H156 C162 0.930 . S
H157 C165 0.930 . S
H158 C166 0.931 1_556 S
H159 C167 0.930 . S
H160 C170 0.930 . S
H161 C171 0.931 1_554 S
C162 H156 0.930 . S
C162 C163 1.355 1_655 S
C162 C164 1.415 . S
C163 C162 1.355 1_455 S
C163 C165 1.419 . S
C164 C162 1.415 . S
C164 C169 1.425 1_654 S
C164 C171 1.409 1_554 S
C165 H157 0.930 . S
C165 C163 1.419 . S
C165 C166 1.362 . S
C166 H158 0.931 1_554 S
C166 C165 1.362 . S
C166 C169 1.409 1_554 S
C167 H159 0.930 . S
C167 C168 1.355 1_455 S
C167 C169 1.415 . S
C168 C167 1.355 1_655 S
C168 C170 1.419 . S
C169 C164 1.425 1_456 S
C169 C166 1.409 1_556 S
C169 C167 1.415 . S
C170 H160 0.930 . S
C170 C168 1.419 . S
C170 C171 1.362 . S
C171 H161 0.931 1_556 S
C171 C164 1.409 1_556 S
C171 C170 1.362 . S
H172 C178 0.930 . S
H173 C181 0.930 . S
H174 C182 0.930 . S
H175 C183 0.930 . S
H176 C186 0.930 . S
H177 C187 0.930 . S
C178 H172 0.930 . S
C178 C179 1.355 . S
C178 C180 1.415 . S
C179 C178 1.355 . S
C179 C181 1.419 1_565 S
C180 C178 1.415 . S
C180 C185 1.425 1_565 S
C180 C187 1.409 . S
C181 H173 0.930 . S
C181 C179 1.419 1_545 S
C181 C182 1.362 . S
C182 H174 0.930 . S
C182 C181 1.362 . S
C182 C185 1.409 . S
C183 H175 0.930 . S
C183 C184 1.355 . S
C183 C185 1.415 . S
C184 C183 1.355 . S
C184 C186 1.419 1_545 S
C185 C180 1.425 1_545 S
C185 C182 1.409 . S
C185 C183 1.415 . S
C186 H176 0.930 . S
C186 C184 1.419 1_565 S
C186 C187 1.362 . S
C187 H177 0.930 . S
C187 C180 1.409 . S
C187 C186 1.362 . S
H188 C194 0.930 . S
H189 C197 0.930 . S
H190 C198 0.930 . S
H191 C199 0.930 . S
H192 C202 0.930 . S
H193 C203 0.930 . S
C194 H188 0.930 . S
C194 C195 1.355 . S
C194 C196 1.415 . S
C195 C194 1.355 . S
C195 C197 1.419 . S
C196 C194 1.415 . S
C196 C201 1.425 1_554 S
C196 C203 1.409 1_554 S
C197 H189 0.930 . S
C197 C195 1.419 . S
C197 C198 1.362 . S
C198 H190 0.930 . S
C198 C197 1.362 . S
C198 C201 1.409 1_554 S
C199 H191 0.930 . S
C199 C200 1.355 . S
C199 C201 1.415 . S
C200 C199 1.355 . S
C200 C202 1.419 . S
C201 C196 1.425 1_556 S
C201 C198 1.409 1_556 S
C201 C199 1.415 . S
C202 H192 0.930 . S
C202 C200 1.419 . S
C202 C203 1.362 . S
C203 H193 0.930 . S
C203 C196 1.409 1_556 S
C203 C202 1.362 . S
H204 C210 0.930 . S
H205 C213 0.930 . S
H206 C214 0.930 . S
H207 C215 0.930 . S
H208 C218 0.930 . S
H209 C219 0.930 . S
C210 H204 0.930 . S
C210 C211 1.355 1_655 S
C210 C212 1.415 . S
C211 C210 1.355 1_455 S
C211 C213 1.419 . S
C212 C210 1.415 . S
C212 C217 1.425 1_655 S
C212 C219 1.409 . S
C213 H205 0.930 . S
C213 C211 1.419 . S
C213 C214 1.362 . S
C214 H206 0.930 . S
C214 C213 1.362 . S
C214 C217 1.409 . S
C215 H207 0.930 . S
C215 C216 1.355 1_455 S
C215 C217 1.415 . S
C216 C215 1.355 1_655 S
C216 C218 1.419 . S
C217 C212 1.425 1_455 S
C217 C214 1.409 . S
C217 C215 1.415 . S
C218 H208 0.930 . S
C218 C216 1.419 . S
C218 C219 1.362 . S
C219 H209 0.930 . S
C219 C212 1.409 . S
C219 C218 1.362 . S
H220 C226 0.930 . S
H221 C229 0.930 . S
H222 C230 0.936 . S
H223 C231 0.930 . S
H224 C234 0.930 . S
H225 C235 0.936 . S
C226 H220 0.930 . S
C226 C227 1.355 1_565 S
C226 C228 1.415 . S
C227 C226 1.355 1_545 S
C227 C229 1.419 . S
C228 C226 1.415 . S
C228 C233 1.425 1_566 S
C228 C235 1.409 1_556 S
C229 H221 0.930 . S
C229 C227 1.419 . S
C229 C230 1.362 . S
C230 H222 0.936 . S
C230 C229 1.362 . S
C230 C233 1.409 1_556 S
C231 H223 0.930 . S
C231 C232 1.355 1_545 S
C231 C233 1.415 . S
C232 C231 1.355 1_565 S
C232 C234 1.419 . S
C233 C228 1.425 1_544 S
C233 C230 1.409 1_554 S
C233 C231 1.415 . S
C234 H224 0.930 . S
C234 C232 1.419 . S
C234 C235 1.362 . S
C235 H225 0.936 . S
C235 C228 1.409 1_554 S
C235 C234 1.362 . S
H236 C242 0.930 . S
H237 C245 0.930 . S
H238 C246 0.930 . S
H239 C247 0.930 . S
H240 C250 0.930 . S
H241 C251 0.930 . S
C242 H236 0.930 . S
C242 C243 1.355 . S
C242 C244 1.415 . S
C243 C242 1.355 . S
C243 C245 1.419 . S
C244 C242 1.415 . S
C244 C249 1.425 . S
C244 C251 1.409 . S
C245 H237 0.930 . S
C245 C243 1.419 . S
C245 C246 1.362 . S
C246 H238 0.930 . S
C246 C245 1.362 . S
C246 C249 1.409 . S
C247 H239 0.930 . S
C247 C248 1.355 . S
C247 C249 1.415 . S
C248 C247 1.355 . S
C248 C250 1.419 . S
C249 C244 1.425 . S
C249 C246 1.409 . S
C249 C247 1.415 . S
C250 H240 0.930 . S
C250 C248 1.419 . S
C250 C251 1.362 . S
C251 H241 0.930 . S
C251 C244 1.409 . S
C251 C250 1.362 . S
H252 C258 0.930 . S
H253 C261 0.930 . S
H254 C262 0.930 . S
H255 C263 0.930 . S
H256 C266 0.930 . S
H257 C267 0.930 . S
C258 H252 0.930 . S
C258 C259 1.355 . S
C258 C260 1.415 . S
C259 C258 1.355 . S
C259 C261 1.419 1_655 S
C260 C258 1.415 . S
C260 C265 1.425 1_656 S
C260 C267 1.409 1_556 S
C261 H253 0.930 . S
C261 C259 1.419 1_455 S
C261 C262 1.362 . S
C262 H254 0.930 . S
C262 C261 1.362 . S
C262 C265 1.409 1_556 S
C263 H255 0.930 . S
C263 C264 1.355 . S
C263 C265 1.415 . S
C264 C263 1.355 . S
C264 C266 1.419 1_455 S
C265 C260 1.425 1_454 S
C265 C262 1.409 1_554 S
C265 C263 1.415 . S
C266 H256 0.930 . S
C266 C264 1.419 1_655 S
C266 C267 1.362 . S
C267 H257 0.930 . S
C267 C260 1.409 1_554 S
C267 C266 1.362 . S
H268 C274 0.930 . S
H269 C277 0.930 . S
H270 C278 0.930 . S
H271 C279 0.930 . S
H272 C282 0.930 . S
H273 C283 0.930 . S
C274 H268 0.930 . S
C274 C275 1.355 1_545 S
C274 C276 1.415 . S
C275 C274 1.355 1_565 S
C275 C277 1.419 . S
C276 C274 1.415 . S
C276 C281 1.425 1_545 S
C276 C283 1.409 . S
C277 H269 0.930 . S
C277 C275 1.419 . S
C277 C278 1.362 . S
C278 H270 0.930 . S
C278 C277 1.362 . S
C278 C281 1.409 . S
C279 H271 0.930 . S
C279 C280 1.355 1_565 S
C279 C281 1.415 . S
C280 C279 1.355 1_545 S
C280 C282 1.419 . S
C281 C276 1.425 1_565 S
C281 C278 1.409 . S
C281 C279 1.415 . S
C282 H272 0.930 . S
C282 C280 1.419 . S
C282 C283 1.362 . S
C283 H273 0.930 . S
C283 C276 1.409 . S
C283 C282 1.362 . S
H284 C290 0.930 . S
H285 C293 0.930 . S
H286 C294 0.930 . S
H287 C295 0.930 . S
H288 C298 0.930 . S
H289 C299 0.930 . S
C290 H284 0.930 . S
C290 C291 1.355 . S
C290 C292 1.415 . S
C291 C290 1.355 . S
C291 C293 1.419 . S
C292 C290 1.415 . S
C292 C297 1.425 1_556 S
C292 C299 1.409 1_556 S
C293 H285 0.930 . S
C293 C291 1.419 . S
C293 C294 1.362 . S
C294 H286 0.930 . S
C294 C293 1.362 . S
C294 C297 1.409 1_556 S
C295 H287 0.930 . S
C295 C296 1.355 . S
C295 C297 1.415 . S
C296 C295 1.355 . S
C296 C298 1.419 . S
C297 C292 1.425 1_554 S
C297 C294 1.409 1_554 S
C297 C295 1.415 . S
C298 H288 0.930 . S
C298 C296 1.419 . S
C298 C299 1.362 . S
C299 H289 0.930 . S
C299 C292 1.409 1_554 S
C299 C298 1.362 . S
H300 C306 0.930 . S
H301 C309 0.930 . S
H302 C310 0.930 . S
H303 C311 0.930 . S
H304 C314 0.930 . S
H305 C315 0.930 . S
C306 H300 0.930 . S
C306 C307 1.355 1_455 S
C306 C308 1.415 . S
C307 C306 1.355 1_655 S
C307 C309 1.419 . S
C308 C306 1.415 . S
C308 C313 1.425 1_455 S
C308 C315 1.409 . S
C309 H301 0.930 . S
C309 C307 1.419 . S
C309 C310 1.362 . S
C310 H302 0.930 . S
C310 C309 1.362 . S
C310 C313 1.409 . S
C311 H303 0.930 . S
C311 C312 1.355 1_655 S
C311 C313 1.415 . S
C312 C311 1.355 1_455 S
C312 C314 1.419 . S
C313 C308 1.425 1_655 S
C313 C310 1.409 . S
C313 C311 1.415 . S
C314 H304 0.930 . S
C314 C312 1.419 . S
C314 C315 1.362 . S
C315 H305 0.930 . S
C315 C308 1.409 . S
C315 C314 1.362 . S
H316 C322 0.930 . S
H317 C325 0.930 . S
H318 C326 0.930 . S
H319 C327 0.930 . S
H320 C330 0.930 . S
H321 C331 0.930 . S
C322 H316 0.930 . S
C322 C323 1.355 1_565 S
C322 C324 1.415 . S
C323 C322 1.355 1_545 S
C323 C325 1.419 . S
C324 C322 1.415 . S
C324 C329 1.425 1_566 S
C324 C331 1.409 1_556 S
C325 H317 0.930 . S
C325 C323 1.419 . S
C325 C326 1.362 . S
C326 H318 0.930 . S
C326 C325 1.362 . S
C326 C329 1.409 1_556 S
C327 H319 0.930 . S
C327 C328 1.355 1_545 S
C327 C329 1.415 . S
C328 C327 1.355 1_565 S
C328 C330 1.419 . S
C329 C324 1.425 1_544 S
C329 C326 1.409 1_554 S
C329 C327 1.415 . S
C330 H320 0.930 . S
C330 C328 1.419 . S
C330 C331 1.362 . S
C331 H321 0.930 . S
C331 C324 1.409 1_554 S
C331 C330 1.362 . S
H332 C338 0.930 . S
H333 C341 0.930 . S
H334 C342 0.930 . S
H335 C343 0.930 . S
H336 C346 0.930 . S
H337 C347 0.930 . S
C338 H332 0.930 . S
C338 C339 1.355 . S
C338 C340 1.415 . S
C339 C338 1.355 . S
C339 C341 1.419 . S
C340 C338 1.415 . S
C340 C345 1.425 . S
C340 C347 1.409 . S
C341 H333 0.930 . S
C341 C339 1.419 . S
C341 C342 1.362 . S
C342 H334 0.930 . S
C342 C341 1.362 . S
C342 C345 1.409 . S
C343 H335 0.930 . S
C343 C344 1.355 . S
C343 C345 1.415 . S
C344 C343 1.355 . S
C344 C346 1.419 . S
C345 C340 1.425 . S
C345 C342 1.409 . S
C345 C343 1.415 . S
C346 H336 0.930 . S
C346 C344 1.419 . S
C346 C347 1.362 . S
C347 H337 0.930 . S
C347 C340 1.409 . S
C347 C346 1.362 . S
H348 C354 0.930 . S
H349 C357 0.930 . S
H350 C358 0.930 . S
H351 C359 0.930 . S
H352 C362 0.930 . S
H353 C363 0.930 1_655 S
C354 H348 0.930 . S
C354 C355 1.355 . S
C354 C356 1.415 . S
C355 C354 1.355 . S
C355 C357 1.419 . S
C356 C354 1.415 . S
C356 C361 1.425 . S
C356 C363 1.409 . S
C357 H349 0.930 . S
C357 C355 1.419 . S
C357 C358 1.362 . S
C358 H350 0.930 . S
C358 C357 1.362 . S
C358 C361 1.409 . S
C359 H351 0.930 . S
C359 C360 1.355 . S
C359 C361 1.415 . S
C360 C359 1.355 . S
C360 C362 1.419 . S
C361 C356 1.425 . S
C361 C358 1.409 . S
C361 C359 1.415 . S
C362 H352 0.930 . S
C362 C360 1.419 . S
C362 C363 1.362 . S
C363 H353 0.930 1_455 S
C363 C356 1.409 . S
C363 C362 1.362 . S
H364 C370 0.930 . S
H365 C373 0.930 . S
H366 C374 0.932 1_565 S
H367 C375 0.930 . S
H368 C378 0.930 . S
H369 C379 0.930 . S
C370 H364 0.930 . S
C370 C371 1.355 . S
C370 C372 1.415 . S
C371 C370 1.355 . S
C371 C373 1.419 . S
C372 C370 1.415 . S
C372 C377 1.425 . S
C372 C379 1.409 . S
C373 H365 0.930 . S
C373 C371 1.419 . S
C373 C374 1.362 . S
C374 H366 0.932 1_545 S
C374 C373 1.362 . S
C374 C377 1.409 . S
C375 H367 0.930 . S
C375 C376 1.355 . S
C375 C377 1.415 . S
C376 C375 1.355 . S
C376 C378 1.419 . S
C377 C372 1.425 . S
C377 C374 1.409 . S
C377 C375 1.415 . S
C378 H368 0.930 . S
C378 C376 1.419 . S
C378 C379 1.362 . S
C379 H369 0.930 . S
C379 C372 1.409 . S
C379 C378 1.362 . S
H380 C386 0.930 . S
H381 C389 0.930 . S
H382 C390 0.930 . S
H383 C391 0.930 . S
H384 C394 0.930 . S
H385 C395 0.930 . S
C386 H380 0.930 . S
C386 C387 1.355 . S
C386 C388 1.415 . S
C387 C386 1.355 . S
C387 C389 1.419 . S
C388 C386 1.415 . S
C388 C393 1.425 . S
C388 C395 1.409 . S
C389 H381 0.930 . S
C389 C387 1.419 . S
C389 C390 1.362 . S
C390 H382 0.930 . S
C390 C389 1.362 . S
C390 C393 1.409 . S
C391 H383 0.930 . S
C391 C392 1.355 . S
C391 C393 1.415 . S
C392 C391 1.355 . S
C392 C394 1.419 . S
C393 C388 1.425 . S
C393 C390 1.409 . S
C393 C391 1.415 . S
C394 H384 0.930 . S
C394 C392 1.419 . S
C394 C395 1.362 . S
C395 H385 0.930 . S
C395 C388 1.409 . S
C395 C394 1.362 . S
H396 C402 0.930 . S
H397 C405 0.930 . S
H398 C406 0.930 . S
H399 C407 0.930 . S
H400 C410 0.930 . S
H401 C411 0.930 . S
C402 H396 0.930 . S
C402 C403 1.355 . S
C402 C404 1.415 . S
C403 C402 1.355 . S
C403 C405 1.419 . S
C404 C402 1.415 . S
C404 C409 1.425 . S
C404 C411 1.409 . S
C405 H397 0.930 . S
C405 C403 1.419 . S
C405 C406 1.362 . S
C406 H398 0.930 . S
C406 C405 1.362 . S
C406 C409 1.409 . S
C407 H399 0.930 . S
C407 C408 1.355 . S
C407 C409 1.415 . S
C408 C407 1.355 . S
C408 C410 1.419 . S
C409 C404 1.425 . S
C409 C406 1.409 . S
C409 C407 1.415 . S
C410 H400 0.930 . S
C410 C408 1.419 . S
C410 C411 1.362 . S
C411 H401 0.930 . S
C411 C404 1.409 . S
C411 C410 1.362 . S
H412 C418 0.930 . S
H413 C421 0.930 . S
H414 C422 0.930 . S
H415 C423 0.930 . S
H416 C426 0.930 . S
H417 C427 0.930 . S
C418 H412 0.930 . S
C418 C419 1.355 . S
C418 C420 1.415 . S
C419 C418 1.355 . S
C419 C421 1.419 . S
C420 C418 1.415 . S
C420 C425 1.425 . S
C420 C427 1.409 . S
C421 H413 0.930 . S
C421 C419 1.419 . S
C421 C422 1.362 . S
C422 H414 0.930 . S
C422 C421 1.362 . S
C422 C425 1.409 . S
C423 H415 0.930 . S
C423 C424 1.355 . S
C423 C425 1.415 . S
C424 C423 1.355 . S
C424 C426 1.419 . S
C425 C420 1.425 . S
C425 C422 1.409 . S
C425 C423 1.415 . S
C426 H416 0.930 . S
C426 C424 1.419 . S
C426 C427 1.362 . S
C427 H417 0.930 . S
C427 C420 1.409 . S
C427 C426 1.362 . S
H428 C434 0.930 . S
H429 C437 0.930 . S
H430 C438 0.930 . S
H431 C439 0.930 . S
H432 C442 0.930 . S
H433 C443 0.930 . S
C434 H428 0.930 . S
C434 C435 1.355 . S
C434 C436 1.415 . S
C435 C434 1.355 . S
C435 C437 1.419 . S
C436 C434 1.415 . S
C436 C441 1.425 . S
C436 C443 1.409 . S
C437 H429 0.930 . S
C437 C435 1.419 . S
C437 C438 1.362 . S
C438 H430 0.930 . S
C438 C437 1.362 . S
C438 C441 1.409 . S
C439 H431 0.930 . S
C439 C440 1.355 . S
C439 C441 1.415 . S
C440 C439 1.355 . S
C440 C442 1.419 . S
C441 C436 1.425 . S
C441 C438 1.409 . S
C441 C439 1.415 . S
C442 H432 0.930 . S
C442 C440 1.419 . S
C442 C443 1.362 . S
C443 H433 0.930 . S
C443 C436 1.409 . S
C443 C442 1.362 . S
H444 C450 0.930 . S
H445 C453 0.930 . S
H446 C454 0.930 . S
H447 C455 0.930 . S
H448 C458 0.930 . S
H449 C459 0.930 . S
C450 H444 0.930 . S
C450 C451 1.355 . S
C450 C452 1.415 . S
C451 C450 1.355 . S
C451 C453 1.419 . S
C452 C450 1.415 . S
C452 C457 1.425 . S
C452 C459 1.409 . S
C453 H445 0.930 . S
C453 C451 1.419 . S
C453 C454 1.362 . S
C454 H446 0.930 . S
C454 C453 1.362 . S
C454 C457 1.409 . S
C455 H447 0.930 . S
C455 C456 1.355 . S
C455 C457 1.415 . S
C456 C455 1.355 . S
C456 C458 1.419 . S
C457 C452 1.425 . S
C457 C454 1.409 . S
C457 C455 1.415 . S
C458 H448 0.930 . S
C458 C456 1.419 . S
C458 C459 1.362 . S
C459 H449 0.930 . S
C459 C452 1.409 . S
C459 C458 1.362 . S
H460 C466 0.930 . S
H461 C469 0.930 . S
H462 C470 0.930 . S
H463 C471 0.930 . S
H464 C474 0.930 . S
H465 C475 0.930 . S
C466 H460 0.930 . S
C466 C467 1.355 . S
C466 C468 1.415 . S
C467 C466 1.355 . S
C467 C469 1.419 . S
C468 C466 1.415 . S
C468 C473 1.425 . S
C468 C475 1.409 . S
C469 H461 0.930 . S
C469 C467 1.419 . S
C469 C470 1.362 . S
C470 H462 0.930 . S
C470 C469 1.362 . S
C470 C473 1.409 . S
C471 H463 0.930 . S
C471 C472 1.355 . S
C471 C473 1.415 . S
C472 C471 1.355 . S
C472 C474 1.419 . S
C473 C468 1.425 . S
C473 C470 1.409 . S
C473 C471 1.415 . S
C474 H464 0.930 . S
C474 C472 1.419 . S
C474 C475 1.362 . S
C475 H465 0.930 . S
C475 C468 1.409 . S
C475 C474 1.362 . S
H476 C482 0.930 . S
H477 C485 0.930 . S
H478 C486 0.930 . S
H479 C487 0.930 . S
H480 C490 0.930 . S
H481 C491 0.930 . S
C482 H476 0.930 . S
C482 C483 1.355 . S
C482 C484 1.415 . S
C483 C482 1.355 . S
C483 C485 1.419 . S
C484 C482 1.415 . S
C484 C489 1.425 . S
C484 C491 1.409 . S
C485 H477 0.930 . S
C485 C483 1.419 . S
C485 C486 1.362 . S
C486 H478 0.930 . S
C486 C485 1.362 . S
C486 C489 1.409 . S
C487 H479 0.930 . S
C487 C488 1.355 . S
C487 C489 1.415 . S
C488 C487 1.355 . S
C488 C490 1.419 . S
C489 C484 1.425 . S
C489 C486 1.409 . S
C489 C487 1.415 . S
C490 H480 0.930 . S
C490 C488 1.419 . S
C490 C491 1.362 . S
C491 H481 0.930 . S
C491 C484 1.409 . S
C491 C490 1.362 . S
H492 C498 0.930 . S
H493 C501 0.930 . S
H494 C502 0.930 . S
H495 C503 0.930 . S
H496 C506 0.930 . S
H497 C507 0.930 . S
C498 H492 0.930 . S
C498 C499 1.355 . S
C498 C500 1.415 . S
C499 C498 1.355 . S
C499 C501 1.419 . S
C500 C498 1.415 . S
C500 C505 1.425 . S
C500 C507 1.409 . S
C501 H493 0.930 . S
C501 C499 1.419 . S
C501 C502 1.362 . S
C502 H494 0.930 . S
C502 C501 1.362 . S
C502 C505 1.409 . S
C503 H495 0.930 . S
C503 C504 1.355 . S
C503 C505 1.415 . S
C504 C503 1.355 . S
C504 C506 1.419 . S
C505 C500 1.425 . S
C505 C502 1.409 . S
C505 C503 1.415 . S
C506 H496 0.930 . S
C506 C504 1.419 . S
C506 C507 1.362 . S
C507 H497 0.930 . S
C507 C500 1.409 . S
C507 C506 1.362 . S
H508 C514 0.930 . S
H509 C517 0.930 . S
H510 C518 0.930 . S
H511 C519 0.930 . S
H512 C522 0.930 . S
H513 C523 0.930 . S
C514 H508 0.930 . S
C514 C515 1.355 . S
C514 C516 1.415 . S
C515 C514 1.355 . S
C515 C517 1.419 . S
C516 C514 1.415 . S
C516 C521 1.425 . S
C516 C523 1.409 . S
C517 H509 0.930 . S
C517 C515 1.419 . S
C517 C518 1.362 . S
C518 H510 0.930 . S
C518 C517 1.362 . S
C518 C521 1.409 . S
C519 H511 0.930 . S
C519 C520 1.355 . S
C519 C521 1.415 . S
C520 C519 1.355 . S
C520 C522 1.419 . S
C521 C516 1.425 . S
C521 C518 1.409 . S
C521 C519 1.415 . S
C522 H512 0.930 . S
C522 C520 1.419 . S
C522 C523 1.362 . S
C523 H513 0.930 . S
C523 C516 1.409 . S
C523 C522 1.362 . S
H524 C530 0.930 . S
H525 C533 0.930 . S
H526 C534 0.930 . S
H527 C535 0.930 . S
H528 C538 0.930 . S
H529 C539 0.930 . S
C530 H524 0.930 . S
C530 C531 1.355 . S
C530 C532 1.415 . S
C531 C530 1.355 . S
C531 C533 1.419 . S
C532 C530 1.415 . S
C532 C537 1.425 . S
C532 C539 1.409 . S
C533 H525 0.930 . S
C533 C531 1.419 . S
C533 C534 1.362 . S
C534 H526 0.930 . S
C534 C533 1.362 . S
C534 C537 1.409 . S
C535 H527 0.930 . S
C535 C536 1.355 . S
C535 C537 1.415 . S
C536 C535 1.355 . S
C536 C538 1.419 . S
C537 C532 1.425 . S
C537 C534 1.409 . S
C537 C535 1.415 . S
C538 H528 0.930 . S
C538 C536 1.419 . S
C538 C539 1.362 . S
C539 H529 0.930 . S
C539 C532 1.409 . S
C539 C538 1.362 . S
C163 C4 1.388 . S
C168 C153 1.392 . S
C179 C82 1.411 . S
C184 C17 1.417 . S
C195 C30 1.421 . S
C200 C95 1.393 . S
C211 C108 1.385 . S
C216 C43 1.398 . S
C227 C121 1.406 . S
C232 C62 1.382 . S
C243 C134 1.403 . S
C248 C75 1.421 . S
C259 C44 1.400 . S
C264 C109 1.402 . S
C275 C55 1.351 . S
C280 C122 1.354 . S
C291 C68 1.398 . S
C296 C135 1.383 . S
C307 C146 1.361 . S
C312 C5 1.351 . S
C323 C18 1.353 . S
C328 C83 1.365 . S
C339 C31 1.351 . S
C344 C96 1.360 . S
C355 C107 1.688 . S
C360 C3 1.690 . S
C371 C120 1.710 . S
C376 C16 1.709 . S
C387 C29 1.705 . S
C392 C133 1.697 . S
C403 C42 1.692 . S
C408 C148 1.688 . S
C419 C57 1.710 . S
C424 C81 1.710 . S
C435 C94 1.701 . S
C440 C70 1.694 . S
C451 C10 1.680 . S
C456 C140 1.691 . S
C467 C147 1.702 . S
C472 C23 1.683 . S
C483 C36 1.703 . S
C488 C88 1.695 . S
C499 C49 1.687 . S
C504 C101 1.682 . S
C515 C56 1.680 . S
C520 C114 1.691 . S
C531 C69 1.704 . S
C536 C127 1.693 . S
