# Generated by pormake.
# Topology wgt, (5)-cn, num edge types: 1
# Building blocks:
#     Node 0, Type 0, BuildingBlock: BEQFEK_clean_sbu_0, # of connection points: 5
#     Node 1, Type 0, BuildingBlock: BEQFEK_clean_sbu_0, # of connection points: 5
#     Node 2, Type 0, BuildingBlock: BEQFEK_clean_sbu_0, # of connection points: 5
#     Node 3, Type 0, BuildingBlock: BEQFEK_clean_sbu_0, # of connection points: 5
#     Node 4, Type 0, BuildingBlock: BEQFEK_clean_sbu_0, # of connection points: 5
#     Node 5, Type 0, BuildingBlock: BEQFEK_clean_sbu_0, # of connection points: 5
#     Node 6, Type 0, BuildingBlock: BEQFEK_clean_sbu_0, # of connection points: 5
#     Node 7, Type 0, BuildingBlock: BEQFEK_clean_sbu_0, # of connection points: 5
#     Node 8, Type 0, BuildingBlock: BEQFEK_clean_sbu_0, # of connection points: 5
#     Node 9, Type 0, BuildingBlock: BEQFEK_clean_sbu_0, # of connection points: 5
#     Node 10, Type 0, BuildingBlock: BEQFEK_clean_sbu_0, # of connection points: 5
#     Node 11, Type 0, BuildingBlock: BEQFEK_clean_sbu_0, # of connection points: 5
#     Node 12, Type 0, BuildingBlock: BEQFEK_clean_sbu_0, # of connection points: 5
#     Node 13, Type 0, BuildingBlock: BEQFEK_clean_sbu_0, # of connection points: 5
#     Node 14, Type 0, BuildingBlock: BEQFEK_clean_sbu_0, # of connection points: 5
#     Node 15, Type 0, BuildingBlock: BEQFEK_clean_sbu_0, # of connection points: 5
#     Edge 16, Type (0, 0), BuildingBlock: TEMPAE_clean_linker_10, # of connection points: 2
#     Edge 17, Type (0, 0), BuildingBlock: TEMPAE_clean_linker_10, # of connection points: 2
#     Edge 18, Type (0, 0), BuildingBlock: TEMPAE_clean_linker_10, # of connection points: 2
#     Edge 19, Type (0, 0), BuildingBlock: TEMPAE_clean_linker_10, # of connection points: 2
#     Edge 20, Type (0, 0), BuildingBlock: TEMPAE_clean_linker_10, # of connection points: 2
#     Edge 21, Type (0, 0), BuildingBlock: TEMPAE_clean_linker_10, # of connection points: 2
#     Edge 22, Type (0, 0), BuildingBlock: TEMPAE_clean_linker_10, # of connection points: 2
#     Edge 23, Type (0, 0), BuildingBlock: TEMPAE_clean_linker_10, # of connection points: 2
#     Edge 24, Type (0, 0), BuildingBlock: TEMPAE_clean_linker_10, # of connection points: 2
#     Edge 25, Type (0, 0), BuildingBlock: TEMPAE_clean_linker_10, # of connection points: 2
#     Edge 26, Type (0, 0), BuildingBlock: TEMPAE_clean_linker_10, # of connection points: 2
#     Edge 27, Type (0, 0), BuildingBlock: TEMPAE_clean_linker_10, # of connection points: 2
#     Edge 28, Type (0, 0), BuildingBlock: TEMPAE_clean_linker_10, # of connection points: 2
#     Edge 29, Type (0, 0), BuildingBlock: TEMPAE_clean_linker_10, # of connection points: 2
#     Edge 30, Type (0, 0), BuildingBlock: TEMPAE_clean_linker_10, # of connection points: 2
#     Edge 31, Type (0, 0), BuildingBlock: TEMPAE_clean_linker_10, # of connection points: 2
#     Edge 32, Type (0, 0), BuildingBlock: TEMPAE_clean_linker_10, # of connection points: 2
#     Edge 33, Type (0, 0), BuildingBlock: TEMPAE_clean_linker_10, # of connection points: 2
#     Edge 34, Type (0, 0), BuildingBlock: TEMPAE_clean_linker_10, # of connection points: 2
#     Edge 35, Type (0, 0), BuildingBlock: TEMPAE_clean_linker_10, # of connection points: 2
#     Edge 36, Type (0, 0), BuildingBlock: TEMPAE_clean_linker_10, # of connection points: 2
#     Edge 37, Type (0, 0), BuildingBlock: TEMPAE_clean_linker_10, # of connection points: 2
#     Edge 38, Type (0, 0), BuildingBlock: TEMPAE_clean_linker_10, # of connection points: 2
#     Edge 39, Type (0, 0), BuildingBlock: TEMPAE_clean_linker_10, # of connection points: 2
#     Edge 40, Type (0, 0), BuildingBlock: TEMPAE_clean_linker_10, # of connection points: 2
#     Edge 41, Type (0, 0), BuildingBlock: TEMPAE_clean_linker_10, # of connection points: 2
#     Edge 42, Type (0, 0), BuildingBlock: TEMPAE_clean_linker_10, # of connection points: 2
#     Edge 43, Type (0, 0), BuildingBlock: TEMPAE_clean_linker_10, # of connection points: 2
#     Edge 44, Type (0, 0), BuildingBlock: TEMPAE_clean_linker_10, # of connection points: 2
#     Edge 45, Type (0, 0), BuildingBlock: TEMPAE_clean_linker_10, # of connection points: 2
#     Edge 46, Type (0, 0), BuildingBlock: TEMPAE_clean_linker_10, # of connection points: 2
#     Edge 47, Type (0, 0), BuildingBlock: TEMPAE_clean_linker_10, # of connection points: 2
#     Edge 48, Type (0, 0), BuildingBlock: TEMPAE_clean_linker_10, # of connection points: 2
#     Edge 49, Type (0, 0), BuildingBlock: TEMPAE_clean_linker_10, # of connection points: 2
#     Edge 50, Type (0, 0), BuildingBlock: TEMPAE_clean_linker_10, # of connection points: 2
#     Edge 51, Type (0, 0), BuildingBlock: TEMPAE_clean_linker_10, # of connection points: 2
#     Edge 52, Type (0, 0), BuildingBlock: TEMPAE_clean_linker_10, # of connection points: 2
#     Edge 53, Type (0, 0), BuildingBlock: TEMPAE_clean_linker_10, # of connection points: 2
#     Edge 54, Type (0, 0), BuildingBlock: TEMPAE_clean_linker_10, # of connection points: 2
#     Edge 55, Type (0, 0), BuildingBlock: TEMPAE_clean_linker_10, # of connection points: 2
# Relax obj value: 0.130
# Max RMSD: 0.183
# Mean RMSD: 0.183
data_MOF--net-wgt--node1-BEQFEK_clean_sbu_0--edge1-TEMPAE_clean_linker_10
_symmetry_space_group_name_H-M    P1
_symmetry_Int_Tables_number       1
_symmetry_cell_setting            triclinic
loop_
_symmetry_equiv_pos_as_xyz
'x, y, z'
_cell_length_a     29.415227
_cell_length_b     29.442628
_cell_length_c     77.102836
_cell_angle_alpha  90.001122
_cell_angle_beta   89.995678
_cell_angle_gamma 90.010759
loop_
_atom_site_label
_atom_site_type_symbol
_atom_site_fract_x
_atom_site_fract_y
_atom_site_fract_z
_atom_type_partial_charge
Co0 Co 0.18862 0.32494 0.02618 0.0
Co1 Co 0.18869 0.31471 0.98561 0.0
C2 C 0.1398 0.24829 0.00742 0.0
O3 O 0.15114 0.27013 0.02105 0.0
O4 O 0.15407 0.2603 0.99251 0.0
C5 C 0.17528 0.30893 0.06275 0.0
O6 O 0.13859 0.28711 0.05776 0.0
C7 C 0.19968 0.28038 0.94999 0.0
C8 C 0.20983 0.34429 0.93545 0.0
C9 C 0.20719 0.2976 0.93346 0.0
N10 N 0.19791 0.31536 0.96117 0.0
N11 N 0.20384 0.35345 0.95239 0.0
C12 C 0.19718 0.23161 0.95535 0.0
H13 H 0.21103 0.22741 0.96864 0.0
H14 H 0.21631 0.20968 0.9462 0.0
H15 H 0.16106 0.22073 0.95546 0.0
C16 C 0.28787 0.32768 0.02003 0.0
N17 N 0.24475 0.32449 0.01427 0.0
N18 N 0.24509 0.31909 0.99734 0.0
C19 C 0.28855 0.31793 0.99181 0.0
C20 C 0.31702 0.32374 0.00599 0.0
C21 C 0.30068 0.33177 0.03875 0.0
H22 H 0.28456 0.36259 0.0443 0.0
H23 H 0.28741 0.30194 0.04594 0.0
H24 H 0.33805 0.33374 0.04052 0.0
O25 O 0.15156 0.37792 0.01944 0.0
O26 O 0.1483 0.36671 0.99094 0.0
H27 H 0.28972 0.34012 0.96545 0.0
H28 H 0.34004 0.30961 0.97192 0.0
C29 C 0.30255 0.31135 0.97332 0.0
H30 H 0.28714 0.27966 0.96824 0.0
H31 H 0.20407 0.3857 0.958 0.0
O32 O 0.2004 0.32778 0.05144 0.0
C33 C 0.1365 0.38847 0.00449 0.0
Co34 Co 0.66922 0.68236 0.2757 0.0
Co35 Co 0.67871 0.68114 0.2351 0.0
C36 C 0.74523 0.6326 0.2564 0.0
O37 O 0.72285 0.64375 0.26992 0.0
O38 O 0.7341 0.64749 0.24148 0.0
C39 C 0.7065 0.70556 0.30843 0.0
O40 O 0.74328 0.71115 0.29899 0.0
C41 C 0.70397 0.68133 0.19786 0.0
C42 C 0.64132 0.7096 0.18627 0.0
C43 C 0.68436 0.69388 0.18216 0.0
N44 N 0.67403 0.69008 0.21063 0.0
N45 N 0.6366 0.70662 0.20357 0.0
C46 C 0.74833 0.65756 0.20069 0.0
H47 H 0.74294 0.62793 0.20932 0.0
H48 H 0.77235 0.68105 0.20723 0.0
H49 H 0.76337 0.64528 0.18837 0.0
C50 C 0.66506 0.78169 0.26897 0.0
N51 N 0.66904 0.7383 0.26358 0.0
N52 N 0.67535 0.73788 0.24669 0.0
C53 C 0.67728 0.78107 0.24091 0.0
C54 C 0.67009 0.81005 0.25479 0.0
C55 C 0.6581 0.79594 0.2874 0.0
H56 H 0.69125 0.79523 0.29424 0.0
H57 H 0.64431 0.83098 0.28814 0.0
H58 H 0.63454 0.77213 0.29398 0.0
O59 O 0.61529 0.6461 0.26975 0.0
O60 O 0.6273 0.64066 0.24136 0.0
H61 H 0.6554 0.79264 0.21491 0.0
H62 H 0.70016 0.82991 0.22187 0.0
C63 C 0.6872 0.79456 0.22259 0.0
H64 H 0.71253 0.7711 0.21682 0.0
H65 H 0.60778 0.71594 0.21061 0.0
O66 O 0.66995 0.69302 0.30105 0.0
C67 C 0.60512 0.62994 0.25495 0.0
Co68 Co 0.30824 0.16461 0.52788 0.0
Co69 Co 0.31199 0.17466 0.48715 0.0
C70 C 0.35961 0.24062 0.50935 0.0
O71 O 0.34736 0.21847 0.5228 0.0
O72 O 0.34575 0.22945 0.49428 0.0
C73 C 0.30496 0.19287 0.56394 0.0
O74 O 0.33052 0.22692 0.55884 0.0
C75 C 0.3085 0.20221 0.44999 0.0
C76 C 0.29214 0.13618 0.43784 0.0
C77 C 0.30022 0.18145 0.43407 0.0
N78 N 0.30478 0.17058 0.46253 0.0
N79 N 0.2952 0.13125 0.45513 0.0
C80 C 0.32314 0.25014 0.45323 0.0
H81 H 0.35155 0.25048 0.46264 0.0
H82 H 0.29439 0.26937 0.45896 0.0
H83 H 0.33463 0.26713 0.44117 0.0
C84 C 0.20971 0.16249 0.52026 0.0
N85 N 0.25337 0.16531 0.51509 0.0
N86 N 0.25463 0.17095 0.49818 0.0
C87 C 0.21171 0.17289 0.49209 0.0
C88 C 0.1819 0.16705 0.50586 0.0
C89 C 0.19511 0.15838 0.53879 0.0
H90 H 0.20721 0.18849 0.54612 0.0
H91 H 0.15762 0.15598 0.54005 0.0
H92 H 0.21103 0.12783 0.54462 0.0
O93 O 0.34541 0.11097 0.52197 0.0
O94 O 0.35189 0.12321 0.49362 0.0
H95 H 0.20847 0.14963 0.46591 0.0
H96 H 0.16275 0.18716 0.47178 0.0
C97 C 0.19957 0.18041 0.47346 0.0
H98 H 0.21949 0.20931 0.46823 0.0
H99 H 0.29076 0.10093 0.46193 0.0
O100 O 0.29319 0.16274 0.55301 0.0
C101 C 0.36227 0.10103 0.50724 0.0
Co102 Co 0.79935 0.81821 0.7761 0.0
Co103 Co 0.82004 0.82178 0.73615 0.0
C104 C 0.73918 0.86923 0.75255 0.0
O105 O 0.74688 0.85338 0.76763 0.0
O106 O 0.76481 0.85927 0.73979 0.0
C107 C 0.8037 0.82975 0.81315 0.0
O108 O 0.82398 0.86824 0.80934 0.0
C109 C 0.7964 0.81248 0.69965 0.0
C110 C 0.86343 0.81152 0.68675 0.0
C111 C 0.81708 0.81011 0.68349 0.0
N112 N 0.82894 0.81556 0.71181 0.0
N113 N 0.86897 0.815 0.70404 0.0
C114 C 0.74681 0.80883 0.70376 0.0
H115 H 0.74201 0.79326 0.71675 0.0
H116 H 0.72886 0.78823 0.69384 0.0
H117 H 0.73172 0.84336 0.70401 0.0
C118 C 0.80766 0.71977 0.76911 0.0
N119 N 0.80748 0.76326 0.76374 0.0
N120 N 0.8165 0.76451 0.74704 0.0
C121 C 0.82323 0.72183 0.74127 0.0
C122 C 0.81793 0.69213 0.75508 0.0
C123 C 0.80002 0.70537 0.7875 0.0
H124 H 0.76578 0.71664 0.79174 0.0
H125 H 0.80293 0.66803 0.78909 0.0
H126 H 0.82543 0.7222 0.79597 0.0
O127 O 0.8532 0.85853 0.77381 0.0
O128 O 0.87104 0.85705 0.74576 0.0
H129 H 0.8366 0.6726 0.72095 0.0
H130 H 0.80558 0.7226 0.71439 0.0
C131 C 0.83332 0.70981 0.72281 0.0
H132 H 0.86533 0.72666 0.71876 0.0
H133 H 0.90002 0.81709 0.71054 0.0
O134 O 0.78995 0.8042 0.80094 0.0
C135 C 0.87838 0.87066 0.76118 0.0
Co136 Co 0.81005 0.33026 0.52689 0.0
Co137 Co 0.81114 0.3214 0.4862 0.0
C138 C 0.85977 0.25455 0.5079 0.0
O139 O 0.84807 0.27598 0.52157 0.0
O140 O 0.84567 0.26681 0.49299 0.0
C141 C 0.81305 0.30486 0.5632 0.0
O142 O 0.84136 0.27308 0.55809 0.0
C143 C 0.80134 0.28812 0.45035 0.0
C144 C 0.79194 0.35244 0.43602 0.0
C145 C 0.79461 0.3058 0.43384 0.0
N146 N 0.80272 0.32279 0.46169 0.0
N147 N 0.79722 0.36112 0.45303 0.0
C148 C 0.80353 0.23921 0.45553 0.0
H149 H 0.78928 0.23468 0.46875 0.0
H150 H 0.78458 0.21759 0.44622 0.0
H151 H 0.8396 0.2282 0.45574 0.0
C152 C 0.71101 0.33225 0.52037 0.0
N153 N 0.75428 0.32986 0.51471 0.0
N154 N 0.75437 0.32523 0.49775 0.0
C155 C 0.71101 0.32387 0.49209 0.0
C156 C 0.68216 0.32866 0.50622 0.0
C157 C 0.69782 0.33488 0.5391 0.0
H158 H 0.71189 0.30506 0.54607 0.0
H159 H 0.6604 0.33555 0.54084 0.0
H160 H 0.71288 0.36587 0.54493 0.0
O161 O 0.84722 0.38357 0.52053 0.0
O162 O 0.85155 0.37315 0.49201 0.0
H163 H 0.71102 0.34694 0.46583 0.0
H164 H 0.66007 0.3169 0.47191 0.0
C165 C 0.69753 0.3181 0.4735 0.0
H166 H 0.7127 0.28639 0.46834 0.0
H167 H 0.79684 0.39322 0.45877 0.0
O168 O 0.79715 0.33264 0.55214 0.0
C169 C 0.86292 0.39448 0.50572 0.0
Co170 Co 0.69228 0.31971 0.77717 0.0
Co171 Co 0.67661 0.32201 0.73684 0.0
C172 C 0.75653 0.36821 0.75427 0.0
O173 O 0.74669 0.35328 0.76931 0.0
O174 O 0.73221 0.35817 0.74115 0.0
C175 C 0.73341 0.29666 0.80999 0.0
O176 O 0.77054 0.29126 0.80074 0.0
C177 C 0.703 0.31244 0.7005 0.0
C178 C 0.63669 0.31047 0.68708 0.0
C179 C 0.68321 0.30963 0.68419 0.0
N180 N 0.66977 0.31519 0.7124 0.0
N181 N 0.63019 0.31403 0.70431 0.0
C182 C 0.75242 0.30952 0.70497 0.0
H183 H 0.7568 0.29405 0.71799 0.0
H184 H 0.77115 0.28917 0.69518 0.0
H185 H 0.76701 0.34427 0.70529 0.0
C186 C 0.68179 0.22056 0.77043 0.0
N187 N 0.68381 0.26407 0.76503 0.0
N188 N 0.6775 0.26515 0.74813 0.0
C189 C 0.67115 0.22251 0.74227 0.0
C190 C 0.67355 0.19293 0.75621 0.0
C191 C 0.68618 0.20577 0.78892 0.0
H192 H 0.66491 0.22772 0.79732 0.0
H193 H 0.72212 0.20934 0.79304 0.0
H194 H 0.67561 0.16987 0.79065 0.0
O195 O 0.64022 0.36151 0.77364 0.0
O196 O 0.62547 0.35896 0.74535 0.0
H197 H 0.63307 0.22613 0.71871 0.0
H198 H 0.66308 0.17308 0.7216 0.0
C199 C 0.66483 0.21035 0.72358 0.0
H200 H 0.6936 0.22406 0.71591 0.0
H201 H 0.59876 0.31581 0.71056 0.0
O202 O 0.6969 0.30868 0.80247 0.0
C203 C 0.61685 0.37362 0.76052 0.0
Co204 Co 0.6899 0.16366 0.02627 0.0
Co205 Co 0.68846 0.17382 0.98555 0.0
C206 C 0.63997 0.23985 0.00739 0.0
O207 O 0.6517 0.21768 0.02088 0.0
O208 O 0.65417 0.22848 0.99241 0.0
C209 C 0.71477 0.2003 0.05883 0.0
O210 O 0.72107 0.23664 0.04923 0.0
C211 C 0.70001 0.20266 0.9486 0.0
C212 C 0.70726 0.13545 0.93615 0.0
C213 C 0.70693 0.18157 0.93264 0.0
N214 N 0.69707 0.17029 0.96092 0.0
N215 N 0.70132 0.13029 0.95332 0.0
C216 C 0.69407 0.25237 0.95199 0.0
H217 H 0.67191 0.25802 0.96335 0.0
H218 H 0.72773 0.26774 0.95476 0.0
H219 H 0.67899 0.26966 0.94057 0.0
C220 C 0.78922 0.1585 0.01932 0.0
N221 N 0.74579 0.16326 0.01401 0.0
N222 N 0.74528 0.16949 0.99711 0.0
C223 C 0.78844 0.17023 0.99122 0.0
C224 C 0.81759 0.16292 0.00507 0.0
C225 C 0.80345 0.15185 0.03778 0.0
H226 H 0.77935 0.12877 0.04445 0.0
H227 H 0.80318 0.18516 0.04449 0.0
H228 H 0.83828 0.13766 0.03866 0.0
O229 O 0.65283 0.11031 0.02009 0.0
O230 O 0.64788 0.12226 0.99166 0.0
H231 H 0.78895 0.14879 0.96477 0.0
H232 H 0.83887 0.18016 0.97105 0.0
C233 C 0.80149 0.17762 0.97268 0.0
H234 H 0.78521 0.20912 0.96783 0.0
H235 H 0.70025 0.09935 0.95991 0.0
O236 O 0.70097 0.16396 0.05164 0.0
C237 C 0.63678 0.10022 0.00524 0.0
Co238 Co 0.82018 0.18523 0.27645 0.0
Co239 Co 0.82942 0.17969 0.23572 0.0
C240 C 0.75402 0.13251 0.25541 0.0
O241 O 0.76617 0.14907 0.26996 0.0
O242 O 0.77547 0.14199 0.24151 0.0
C243 C 0.79556 0.17807 0.31273 0.0
O244 O 0.77253 0.14199 0.30791 0.0
C245 C 0.80435 0.18904 0.19849 0.0
C246 C 0.87236 0.18717 0.18636 0.0
C247 C 0.82646 0.19052 0.18251 0.0
N248 N 0.83593 0.18526 0.21108 0.0
N249 N 0.87644 0.18429 0.20369 0.0
C250 C 0.75417 0.18913 0.20175 0.0
H251 H 0.74612 0.17514 0.21468 0.0
H252 H 0.7415 0.2246 0.20135 0.0
H253 H 0.73621 0.16918 0.19164 0.0
C254 C 0.8261 0.28323 0.26847 0.0
N255 N 0.82509 0.23946 0.26341 0.0
N256 N 0.82771 0.23758 0.24639 0.0
C257 C 0.83001 0.28023 0.24008 0.0
C258 C 0.82947 0.31042 0.25387 0.0
C259 C 0.822 0.29858 0.28691 0.0
H260 H 0.85111 0.28509 0.29447 0.0
H261 H 0.79037 0.2845 0.29262 0.0
H262 H 0.82144 0.33617 0.28796 0.0
O263 O 0.87291 0.14494 0.27275 0.0
O264 O 0.88246 0.14452 0.24412 0.0
H265 H 0.86297 0.27476 0.21546 0.0
H266 H 0.83601 0.32907 0.21918 0.0
C267 C 0.833 0.29188 0.22123 0.0
H268 H 0.80219 0.27924 0.2145 0.0
H269 H 0.90694 0.18124 0.2105 0.0
O270 O 0.81771 0.20048 0.30146 0.0
C271 C 0.89417 0.13183 0.25926 0.0
Co272 Co 0.68679 0.82742 0.5263 0.0
Co273 Co 0.68325 0.81894 0.48551 0.0
C274 C 0.63663 0.75141 0.50754 0.0
O275 O 0.64886 0.77293 0.52113 0.0
O276 O 0.64988 0.76377 0.49253 0.0
C277 C 0.68729 0.80068 0.56249 0.0
O278 O 0.65998 0.76789 0.5575 0.0
C279 C 0.69011 0.79199 0.44821 0.0
C280 C 0.69976 0.85959 0.4363 0.0
C281 C 0.69636 0.81383 0.43237 0.0
N282 N 0.69041 0.82356 0.46087 0.0
N283 N 0.69612 0.86379 0.4536 0.0
C284 C 0.68138 0.74252 0.4512 0.0
H285 H 0.71408 0.72528 0.45404 0.0
H286 H 0.66563 0.72652 0.43964 0.0
H287 H 0.65856 0.73767 0.46243 0.0
C288 C 0.78521 0.8311 0.51883 0.0
N289 N 0.74167 0.82796 0.51357 0.0
N290 N 0.7406 0.82324 0.49661 0.0
C291 C 0.78361 0.8224 0.49056 0.0
C292 C 0.81323 0.82785 0.50442 0.0
C293 C 0.79952 0.83415 0.53742 0.0
H294 H 0.78681 0.80393 0.54452 0.0
H295 H 0.83701 0.83593 0.53881 0.0
H296 H 0.78395 0.86469 0.5434 0.0
O297 O 0.64878 0.88048 0.52057 0.0
O298 O 0.6425 0.86972 0.49213 0.0
H299 H 0.7841 0.8463 0.46443 0.0
H300 H 0.83323 0.8129 0.47007 0.0
C301 C 0.79599 0.81637 0.47188 0.0
H302 H 0.77858 0.78589 0.46665 0.0
H303 H 0.69741 0.89427 0.46049 0.0
O304 O 0.70133 0.8294 0.55141 0.0
C305 C 0.63183 0.89099 0.50592 0.0
Co306 Co 0.17473 0.18293 0.77622 0.0
Co307 Co 0.15663 0.17943 0.7361 0.0
C308 C 0.23559 0.13065 0.75341 0.0
O309 O 0.22731 0.14676 0.7684 0.0
O310 O 0.21081 0.14081 0.74043 0.0
C311 C 0.20305 0.17344 0.81207 0.0
O312 O 0.22478 0.13698 0.8068 0.0
C313 C 0.1838 0.18746 0.69987 0.0
C314 C 0.11805 0.1894 0.68607 0.0
C315 C 0.1647 0.18968 0.68341 0.0
N316 N 0.15009 0.18549 0.7116 0.0
N317 N 0.11084 0.18667 0.70329 0.0
C318 C 0.23305 0.19014 0.70464 0.0
H319 H 0.24738 0.1553 0.70515 0.0
H320 H 0.23698 0.20579 0.71765 0.0
H321 H 0.25232 0.21023 0.69493 0.0
C322 C 0.17187 0.28139 0.76896 0.0
N323 N 0.16915 0.23789 0.76371 0.0
N324 N 0.16124 0.23685 0.74693 0.0
C325 C 0.15821 0.2798 0.74097 0.0
C326 C 0.16483 0.3094 0.75475 0.0
C327 C 0.18027 0.29558 0.78733 0.0
H328 H 0.2132 0.28137 0.79178 0.0
H329 H 0.18063 0.33306 0.78878 0.0
H330 H 0.15314 0.28137 0.79572 0.0
O331 O 0.12041 0.1439 0.77342 0.0
O332 O 0.10396 0.14537 0.74525 0.0
H333 H 0.11991 0.27597 0.71745 0.0
H334 H 0.14962 0.32929 0.72037 0.0
C335 C 0.15157 0.29201 0.7223 0.0
H336 H 0.18035 0.27847 0.71459 0.0
H337 H 0.07916 0.18541 0.70937 0.0
O338 O 0.1806 0.19684 0.8012 0.0
C339 C 0.09557 0.1321 0.76065 0.0
Co340 Co 0.81501 0.66317 0.02518 0.0
Co341 Co 0.81745 0.67439 0.98473 0.0
C342 C 0.86486 0.74029 0.00698 0.0
O343 O 0.85318 0.71763 0.02035 0.0
O344 O 0.85095 0.72916 0.99194 0.0
C345 C 0.79398 0.69818 0.05841 0.0
O346 O 0.79241 0.73638 0.04962 0.0
C347 C 0.80692 0.70924 0.94921 0.0
C348 C 0.81033 0.64573 0.93395 0.0
C349 C 0.80652 0.69242 0.93239 0.0
N350 N 0.81067 0.67394 0.96018 0.0
N351 N 0.81237 0.6361 0.95098 0.0
C352 C 0.80865 0.75782 0.95487 0.0
H353 H 0.84468 0.76754 0.95698 0.0
H354 H 0.79038 0.76192 0.96737 0.0
H355 H 0.79404 0.78093 0.94501 0.0
C356 C 0.71582 0.65904 0.01799 0.0
N357 N 0.75935 0.66332 0.01277 0.0
N358 N 0.76023 0.66918 0.99586 0.0
C359 C 0.71722 0.66973 0.98983 0.0
C360 C 0.68771 0.66304 0.00364 0.0
C361 C 0.70142 0.6539 0.03651 0.0
H362 H 0.70588 0.68686 0.04326 0.0
H363 H 0.66527 0.64365 0.03761 0.0
H364 H 0.72313 0.62829 0.04304 0.0
O365 O 0.85239 0.61013 0.01879 0.0
O366 O 0.858 0.62276 0.99044 0.0
H367 H 0.72121 0.64962 0.96324 0.0
H368 H 0.66737 0.67454 0.96919 0.0
C369 C 0.70468 0.67629 0.97119 0.0
H370 H 0.7174 0.70975 0.96671 0.0
H371 H 0.81593 0.60375 0.95634 0.0
O372 O 0.8033 0.66155 0.05045 0.0
C373 C 0.8688 0.6004 0.00397 0.0
Co374 Co 0.32534 0.31398 0.27733 0.0
Co375 Co 0.31401 0.31504 0.23681 0.0
C376 C 0.24885 0.36415 0.25869 0.0
O377 O 0.27141 0.35269 0.27213 0.0
O378 O 0.25967 0.34949 0.24372 0.0
C379 C 0.28997 0.29104 0.31034 0.0
O380 O 0.25263 0.286 0.30119 0.0
C381 C 0.28084 0.30783 0.20085 0.0
C382 C 0.34492 0.29514 0.18668 0.0
C383 C 0.29855 0.3007 0.18437 0.0
N384 N 0.31526 0.30673 0.21231 0.0
N385 N 0.35345 0.29924 0.20375 0.0
C386 C 0.23195 0.31277 0.20586 0.0
H387 H 0.22604 0.29748 0.21882 0.0
H388 H 0.20939 0.2963 0.19618 0.0
H389 H 0.22338 0.34942 0.20659 0.0
C390 C 0.32984 0.21466 0.27051 0.0
N391 N 0.32483 0.258 0.2652 0.0
N392 N 0.31826 0.2584 0.24832 0.0
C393 C 0.31757 0.21529 0.24245 0.0
C394 C 0.32539 0.18634 0.25629 0.0
C395 C 0.33763 0.20048 0.2889 0.0
H396 H 0.36172 0.22417 0.29527 0.0
H397 H 0.30487 0.20163 0.29601 0.0
H398 H 0.35117 0.16535 0.28962 0.0
O399 O 0.37894 0.35027 0.2708 0.0
O400 O 0.36628 0.35495 0.24242 0.0
H401 H 0.33932 0.21215 0.21607 0.0
H402 H 0.3044 0.16486 0.22261 0.0
C403 C 0.30951 0.20203 0.22398 0.0
H404 H 0.27926 0.22019 0.21892 0.0
H405 H 0.38536 0.29683 0.20959 0.0
O406 O 0.32626 0.30319 0.30269 0.0
C407 C 0.38888 0.36589 0.25588 0.0
Co408 Co 0.31641 0.82521 0.02731 0.0
Co409 Co 0.31547 0.81567 0.98658 0.0
C410 C 0.36508 0.74914 0.00761 0.0
O411 O 0.35448 0.77137 0.02123 0.0
O412 O 0.34959 0.76042 0.99279 0.0
C413 C 0.29282 0.7886 0.06018 0.0
O414 O 0.28564 0.75216 0.05073 0.0
C415 C 0.30904 0.7895 0.94932 0.0
C416 C 0.28519 0.85421 0.93799 0.0
C417 C 0.2962 0.80983 0.93376 0.0
N418 N 0.30488 0.82037 0.96212 0.0
N419 N 0.29096 0.85899 0.95519 0.0
C420 C 0.32844 0.74302 0.95192 0.0
H421 H 0.35842 0.74513 0.96057 0.0
H422 H 0.30265 0.72114 0.95829 0.0
H423 H 0.33925 0.72739 0.93951 0.0
C424 C 0.21659 0.82994 0.02123 0.0
N425 N 0.25977 0.82571 0.01556 0.0
N426 N 0.25936 0.81918 0.99868 0.0
C427 C 0.21586 0.81724 0.9932 0.0
C428 C 0.18745 0.82455 0.00727 0.0
C429 C 0.20329 0.83701 0.03977 0.0
H430 H 0.22793 0.85989 0.04625 0.0
H431 H 0.20338 0.80378 0.04654 0.0
H432 H 0.16865 0.85163 0.04081 0.0
O433 O 0.35291 0.87882 0.021 0.0
O434 O 0.3566 0.8669 0.99256 0.0
H435 H 0.20652 0.83961 0.96713 0.0
H436 H 0.16547 0.79826 0.97401 0.0
C437 C 0.20175 0.80825 0.97487 0.0
H438 H 0.22323 0.78107 0.96922 0.0
H439 H 0.28513 0.88863 0.96227 0.0
O440 O 0.30675 0.82462 0.0528 0.0
C441 C 0.36833 0.8889 0.00607 0.0
Co442 Co 0.18066 0.81216 0.27755 0.0
Co443 Co 0.17361 0.8173 0.23671 0.0
C444 C 0.24884 0.86328 0.25689 0.0
O445 O 0.23564 0.84711 0.27137 0.0
O446 O 0.22797 0.85403 0.24284 0.0
C447 C 0.20345 0.81945 0.31401 0.0
O448 O 0.227 0.85532 0.30932 0.0
C449 C 0.20041 0.80678 0.19966 0.0
C450 C 0.13307 0.80968 0.18704 0.0
C451 C 0.17908 0.80536 0.18352 0.0
N452 N 0.16829 0.81144 0.21201 0.0
N453 N 0.12819 0.81304 0.20432 0.0
C454 C 0.25039 0.80578 0.20329 0.0
H455 H 0.25805 0.81996 0.21622 0.0
H456 H 0.26237 0.77005 0.20312 0.0
H457 H 0.26927 0.82511 0.19324 0.0
C458 C 0.17294 0.71429 0.26974 0.0
N459 N 0.17524 0.75791 0.26458 0.0
N460 N 0.17356 0.75956 0.24754 0.0
C461 C 0.1706 0.71686 0.24131 0.0
C462 C 0.1697 0.68692 0.25519 0.0
C463 C 0.17583 0.69921 0.28824 0.0
H464 H 0.14655 0.71331 0.29555 0.0
H465 H 0.20739 0.71285 0.29415 0.0
H466 H 0.17573 0.66164 0.2894 0.0
O467 O 0.12902 0.85344 0.27338 0.0
O468 O 0.12086 0.8537 0.24467 0.0
H469 H 0.13895 0.7227 0.21646 0.0
H470 H 0.16439 0.66782 0.22049 0.0
C471 C 0.16822 0.70496 0.22247 0.0
H472 H 0.19963 0.71675 0.21592 0.0
H473 H 0.09741 0.81681 0.2109 0.0
O474 O 0.18167 0.79716 0.3026 0.0
C475 C 0.10871 0.86682 0.25972 0.0
Co476 Co 0.186 0.66753 0.52822 0.0
Co477 Co 0.18515 0.67719 0.4876 0.0
C478 C 0.1362 0.74343 0.50903 0.0
O479 O 0.14747 0.72144 0.52262 0.0
O480 O 0.15106 0.73197 0.49416 0.0
C481 C 0.21169 0.70474 0.56055 0.0
O482 O 0.21766 0.74078 0.55076 0.0
C483 C 0.19455 0.70964 0.45162 0.0
C484 C 0.20425 0.64506 0.43749 0.0
C485 C 0.20129 0.69162 0.43516 0.0
N486 N 0.19344 0.67522 0.46308 0.0
N487 N 0.1991 0.63673 0.45453 0.0
C488 C 0.19218 0.75867 0.45663 0.0
H489 H 0.20656 0.76359 0.4698 0.0
H490 H 0.21092 0.78016 0.44721 0.0
H491 H 0.15605 0.7695 0.45686 0.0
C492 C 0.28561 0.66228 0.52139 0.0
N493 N 0.24219 0.66697 0.51604 0.0
N494 N 0.24183 0.67303 0.49914 0.0
C495 C 0.28501 0.6738 0.49329 0.0
C496 C 0.31408 0.66666 0.50717 0.0
C497 C 0.29981 0.65557 0.53985 0.0
H498 H 0.30005 0.68893 0.54653 0.0
H499 H 0.33448 0.64095 0.54071 0.0
H500 H 0.27548 0.63282 0.54657 0.0
O501 O 0.14885 0.614 0.52205 0.0
O502 O 0.14452 0.62572 0.49359 0.0
H503 H 0.2857 0.6521 0.46687 0.0
H504 H 0.33556 0.68358 0.47314 0.0
C505 C 0.29817 0.68102 0.47474 0.0
H506 H 0.28191 0.71245 0.46982 0.0
H507 H 0.1997 0.60477 0.46037 0.0
O508 O 0.19734 0.6683 0.5536 0.0
C509 C 0.13305 0.60385 0.50716 0.0
Co510 Co 0.31823 0.68235 0.77663 0.0
Co511 Co 0.33341 0.68121 0.73608 0.0
C512 C 0.25636 0.63044 0.7537 0.0
O513 O 0.26595 0.64552 0.76876 0.0
O514 O 0.27965 0.64197 0.74047 0.0
C515 C 0.27703 0.70025 0.81009 0.0
O516 O 0.23853 0.7009 0.80145 0.0
C517 C 0.30973 0.6893 0.69892 0.0
C518 C 0.37722 0.70093 0.68713 0.0
C519 C 0.33148 0.69677 0.68314 0.0
N520 N 0.34121 0.68973 0.71159 0.0
N521 N 0.38145 0.6966 0.70443 0.0
C522 C 0.26069 0.67828 0.70197 0.0
H523 H 0.2583 0.64535 0.70881 0.0
H524 H 0.24542 0.70459 0.71048 0.0
H525 H 0.24101 0.67534 0.68979 0.0
C526 C 0.32105 0.78169 0.77001 0.0
N527 N 0.3228 0.73828 0.76451 0.0
N528 N 0.32891 0.7379 0.74759 0.0
C529 C 0.33124 0.78106 0.74181 0.0
C530 C 0.3265 0.81014 0.75584 0.0
C531 C 0.31511 0.7957 0.78853 0.0
H532 H 0.33891 0.77629 0.79685 0.0
H533 H 0.2799 0.78782 0.79269 0.0
H534 H 0.32144 0.83257 0.79031 0.0
O535 O 0.37277 0.64438 0.77298 0.0
O536 O 0.38663 0.64688 0.74465 0.0
H537 H 0.3688 0.78298 0.71812 0.0
H538 H 0.33186 0.8313 0.72122 0.0
C539 C 0.33526 0.79412 0.72312 0.0
H540 H 0.30845 0.77666 0.71553 0.0
H541 H 0.41186 0.6982 0.71138 0.0
O542 O 0.31392 0.69295 0.80198 0.0
C543 C 0.39654 0.63324 0.75986 0.0
C544 C 0.18113 0.23727 0.91283 0.0
C545 C 0.21057 0.27326 0.91675 0.0
C546 C 0.18127 0.21717 0.89632 0.0
C547 C 0.21151 0.23361 0.88347 0.0
C548 C 0.2423 0.26896 0.88757 0.0
C549 C 0.2412 0.28858 0.90413 0.0
C550 C 0.14762 0.17984 0.89238 0.0
C551 C 0.27525 0.28723 0.87427 0.0
C552 C 0.23274 0.16521 0.84242 0.0
C553 C 0.20462 0.18768 0.83048 0.0
C554 C 0.23502 0.17938 0.8598 0.0
C555 C 0.20837 0.21669 0.86535 0.0
C556 C 0.17945 0.23902 0.85342 0.0
C557 C 0.17803 0.22434 0.83615 0.0
C558 C 0.26638 0.15491 0.87216 0.0
C559 C 0.1503 0.27881 0.85885 0.0
H560 H 0.15656 0.22613 0.92239 0.0
H561 H 0.26398 0.31644 0.90716 0.0
H562 H 0.12218 0.1923 0.88288 0.0
H563 H 0.16512 0.15037 0.8864 0.0
H564 H 0.12939 0.16812 0.90418 0.0
H565 H 0.29944 0.31213 0.87994 0.0
H566 H 0.29493 0.25904 0.86837 0.0
H567 H 0.25619 0.30417 0.86366 0.0
H568 H 0.25339 0.13685 0.83815 0.0
H569 H 0.15602 0.24179 0.82705 0.0
H570 H 0.24695 0.1423 0.88352 0.0
H571 H 0.29246 0.17882 0.87714 0.0
H572 H 0.28388 0.12573 0.86594 0.0
H573 H 0.12808 0.26894 0.86985 0.0
H574 H 0.12857 0.29151 0.84811 0.0
H575 H 0.17222 0.30708 0.86339 0.0
C576 C 0.7489 0.70373 0.16124 0.0
C577 C 0.7035 0.69194 0.16444 0.0
C578 C 0.76639 0.70391 0.1443 0.0
C579 C 0.73748 0.69285 0.13023 0.0
C580 C 0.69155 0.68111 0.1334 0.0
C581 C 0.67513 0.68089 0.15047 0.0
C582 C 0.81551 0.71671 0.14141 0.0
C583 C 0.65958 0.66942 0.11873 0.0
C584 C 0.76492 0.73649 0.08513 0.0
C585 C 0.78189 0.69735 0.07704 0.0
C586 C 0.75111 0.7357 0.10254 0.0
C587 C 0.75467 0.69485 0.11213 0.0
C588 C 0.7728 0.6555 0.10417 0.0
C589 C 0.78603 0.65716 0.08669 0.0
C590 C 0.73168 0.7783 0.11055 0.0
C591 C 0.77743 0.61144 0.11404 0.0
H592 H 0.7705 0.71399 0.17193 0.0
H593 H 0.63989 0.67213 0.1529 0.0
H594 H 0.83306 0.68977 0.1339 0.0
H595 H 0.81744 0.7484 0.13367 0.0
H596 H 0.83408 0.72203 0.15379 0.0
H597 H 0.62506 0.66026 0.12343 0.0
H598 H 0.65655 0.69874 0.10977 0.0
H599 H 0.67333 0.64053 0.11114 0.0
H600 H 0.76157 0.76767 0.07777 0.0
H601 H 0.7993 0.62681 0.08056 0.0
H602 H 0.75072 0.78723 0.12249 0.0
H603 H 0.69581 0.77233 0.11439 0.0
H604 H 0.7328 0.80771 0.10154 0.0
H605 H 0.79734 0.61695 0.12608 0.0
H606 H 0.79432 0.58457 0.10624 0.0
H607 H 0.74332 0.59907 0.11797 0.0
C608 C 0.32866 0.28955 0.33926 0.0
C609 C 0.29056 0.27943 0.32902 0.0
C610 C 0.33044 0.27677 0.35679 0.0
C611 C 0.29347 0.25285 0.36419 0.0
C612 C 0.25458 0.24327 0.35401 0.0
C613 C 0.25351 0.25688 0.33657 0.0
C614 C 0.37227 0.28801 0.3673 0.0
C615 C 0.21464 0.21746 0.36138 0.0
C616 C 0.31655 0.17538 0.40249 0.0
C617 C 0.30012 0.20119 0.41641 0.0
C618 C 0.315 0.19203 0.38547 0.0
C619 C 0.29644 0.23559 0.38228 0.0
C620 C 0.27984 0.26192 0.39629 0.0
C621 C 0.28147 0.24419 0.41319 0.0
C622 C 0.33272 0.16275 0.37087 0.0
C623 C 0.25975 0.30847 0.39338 0.0
H624 H 0.35732 0.30721 0.33355 0.0
H625 H 0.22397 0.24885 0.32874 0.0
H626 H 0.36253 0.30634 0.37931 0.0
H627 H 0.38956 0.2562 0.3713 0.0
H628 H 0.39685 0.30923 0.35994 0.0
H629 H 0.18617 0.2145 0.35198 0.0
H630 H 0.22556 0.18277 0.36517 0.0
H631 H 0.20192 0.23449 0.37326 0.0
H632 H 0.33067 0.14197 0.40492 0.0
H633 H 0.26712 0.26355 0.42381 0.0
H634 H 0.35998 0.18094 0.36375 0.0
H635 H 0.30503 0.15574 0.36147 0.0
H636 H 0.34648 0.12984 0.37557 0.0
H637 H 0.2843 0.33027 0.3863 0.0
H638 H 0.25045 0.32552 0.40573 0.0
H639 H 0.22884 0.30569 0.3852 0.0
C640 C 0.73577 0.83572 0.58554 0.0
C641 C 0.70368 0.80287 0.58064 0.0
C642 C 0.75313 0.8371 0.60248 0.0
C643 C 0.73799 0.8049 0.61483 0.0
C644 C 0.70511 0.77209 0.61005 0.0
C645 C 0.68836 0.77144 0.593 0.0
C646 C 0.78814 0.87264 0.60708 0.0
C647 C 0.68806 0.73733 0.6229 0.0
C648 C 0.81591 0.78161 0.65306 0.0
C649 C 0.79568 0.80765 0.66616 0.0
C650 C 0.79705 0.77982 0.63635 0.0
C651 C 0.75728 0.80511 0.63265 0.0
C652 C 0.73676 0.83156 0.64582 0.0
C653 C 0.75634 0.83267 0.66241 0.0
C654 C 0.81991 0.75122 0.62264 0.0
C655 C 0.69459 0.85933 0.64232 0.0
H656 H 0.74784 0.86015 0.57609 0.0
H657 H 0.66352 0.746 0.58933 0.0
H658 H 0.77614 0.89318 0.61824 0.0
H659 H 0.82027 0.85593 0.6111 0.0
H660 H 0.79557 0.89584 0.59608 0.0
H661 H 0.66165 0.71478 0.61725 0.0
H662 H 0.71677 0.71605 0.62748 0.0
H663 H 0.67359 0.75462 0.63443 0.0
H664 H 0.84647 0.76242 0.65591 0.0
H665 H 0.74147 0.85414 0.6723 0.0
H666 H 0.83101 0.77308 0.61171 0.0
H667 H 0.79549 0.7261 0.61732 0.0
H668 H 0.84999 0.73273 0.62774 0.0
H669 H 0.70196 0.88537 0.6323 0.0
H670 H 0.68183 0.87671 0.65415 0.0
H671 H 0.6672 0.83725 0.63714 0.0
C672 C 0.821 0.24574 0.41313 0.0
C673 C 0.79172 0.28188 0.41701 0.0
C674 C 0.82093 0.22563 0.39661 0.0
C675 C 0.79092 0.24218 0.38372 0.0
C676 C 0.76052 0.27794 0.38773 0.0
C677 C 0.76156 0.29758 0.4043 0.0
C678 C 0.85418 0.18789 0.39276 0.0
C679 C 0.72778 0.29633 0.37438 0.0
C680 C 0.82263 0.22983 0.33627 0.0
C681 C 0.79524 0.19328 0.33105 0.0
C682 C 0.82209 0.24547 0.35344 0.0
C683 C 0.79325 0.22427 0.3657 0.0
C684 C 0.76583 0.18708 0.3606 0.0
C685 C 0.76725 0.17192 0.34332 0.0
C686 C 0.85204 0.28508 0.3584 0.0
C687 C 0.7345 0.16381 0.37331 0.0
H688 H 0.84526 0.23433 0.42276 0.0
H689 H 0.73893 0.32558 0.40728 0.0
H690 H 0.83618 0.1582 0.38717 0.0
H691 H 0.87922 0.1996 0.38297 0.0
H692 H 0.8729 0.17672 0.40453 0.0
H693 H 0.70433 0.32211 0.37992 0.0
H694 H 0.74702 0.31218 0.36358 0.0
H695 H 0.70729 0.26831 0.36878 0.0
H696 H 0.8445 0.24645 0.3269 0.0
H697 H 0.74596 0.14368 0.3394 0.0
H698 H 0.8744 0.27551 0.3694 0.0
H699 H 0.83072 0.31397 0.36278 0.0
H700 H 0.87367 0.29677 0.34746 0.0
H701 H 0.7541 0.1515 0.38467 0.0
H702 H 0.7163 0.13457 0.36741 0.0
H703 H 0.70898 0.18841 0.37821 0.0
C704 C 0.76478 0.3387 0.58658 0.0
C705 C 0.79746 0.30669 0.58146 0.0
C706 C 0.74786 0.3394 0.60359 0.0
C707 C 0.76402 0.30732 0.61579 0.0
C708 C 0.79763 0.27548 0.61082 0.0
C709 C 0.81395 0.27552 0.5937 0.0
C710 C 0.71208 0.37396 0.6084 0.0
C711 C 0.81575 0.24086 0.62351 0.0
C712 C 0.74443 0.33332 0.66347 0.0
C713 C 0.70547 0.30748 0.667 0.0
C714 C 0.7644 0.33296 0.64693 0.0
C715 C 0.7447 0.30638 0.63361 0.0
C716 C 0.70549 0.28005 0.63714 0.0
C717 C 0.6862 0.28115 0.65377 0.0
C718 C 0.80595 0.36182 0.64362 0.0
C719 C 0.68355 0.25121 0.62327 0.0
H720 H 0.75184 0.36294 0.57723 0.0
H721 H 0.83926 0.25072 0.58988 0.0
H722 H 0.68031 0.35636 0.61228 0.0
H723 H 0.72358 0.39426 0.6197 0.0
H724 H 0.70419 0.39748 0.59755 0.0
H725 H 0.84293 0.2194 0.61777 0.0
H726 H 0.82956 0.25817 0.63515 0.0
H727 H 0.78773 0.21845 0.62793 0.0
H728 H 0.75858 0.35495 0.67346 0.0
H729 H 0.65595 0.2613 0.65646 0.0
H730 H 0.79796 0.3882 0.63381 0.0
H731 H 0.83381 0.34064 0.63827 0.0
H732 H 0.81835 0.37887 0.65558 0.0
H733 H 0.67173 0.2731 0.61246 0.0
H734 H 0.65408 0.23157 0.62828 0.0
H735 H 0.70875 0.22708 0.61782 0.0
C736 C 0.7348 0.24312 0.9126 0.0
C737 C 0.71199 0.2018 0.91513 0.0
C738 C 0.73995 0.26159 0.89591 0.0
C739 C 0.72274 0.23765 0.88139 0.0
C740 C 0.70045 0.19554 0.88385 0.0
C741 C 0.69534 0.17819 0.90067 0.0
C742 C 0.76392 0.30659 0.89378 0.0
C743 C 0.68195 0.16875 0.8687 0.0
C744 C 0.69535 0.29697 0.83898 0.0
C745 C 0.73271 0.28487 0.82865 0.0
C746 C 0.69256 0.28333 0.85638 0.0
C747 C 0.72769 0.25645 0.86358 0.0
C748 C 0.76608 0.24513 0.85337 0.0
C749 C 0.76825 0.25971 0.83604 0.0
C750 C 0.65136 0.29658 0.86692 0.0
C751 C 0.80404 0.21617 0.86054 0.0
H752 H 0.74948 0.26068 0.92358 0.0
H753 H 0.67798 0.14606 0.90252 0.0
H754 H 0.79467 0.30222 0.88562 0.0
H755 H 0.74137 0.33105 0.88701 0.0
H756 H 0.77428 0.32149 0.90642 0.0
H757 H 0.6662 0.13618 0.8728 0.0
H758 H 0.65604 0.18912 0.86172 0.0
H759 H 0.70965 0.16125 0.85936 0.0
H760 H 0.66791 0.31672 0.8334 0.0
H761 H 0.79718 0.25015 0.82814 0.0
H762 H 0.66202 0.31278 0.87926 0.0
H763 H 0.63155 0.26577 0.87031 0.0
H764 H 0.62872 0.3204 0.85982 0.0
H765 H 0.81702 0.23085 0.87283 0.0
H766 H 0.83282 0.21279 0.8513 0.0
H767 H 0.7909 0.18174 0.86356 0.0
C768 C 0.83051 0.17132 0.15105 0.0
C769 C 0.80722 0.19252 0.16472 0.0
C770 C 0.81402 0.17311 0.134 0.0
C771 C 0.77301 0.19647 0.13049 0.0
C772 C 0.74929 0.21803 0.14418 0.0
C773 C 0.76702 0.21632 0.16109 0.0
C774 C 0.84067 0.15021 0.11972 0.0
C775 C 0.70539 0.24321 0.14094 0.0
C776 C 0.75441 0.23567 0.08411 0.0
C777 C 0.72737 0.20058 0.07741 0.0
C778 C 0.76895 0.23512 0.10145 0.0
C779 C 0.75557 0.19893 0.11241 0.0
C780 C 0.72719 0.16407 0.10585 0.0
C781 C 0.71372 0.16512 0.08839 0.0
C782 C 0.7997 0.27258 0.10789 0.0
C783 C 0.71168 0.1253 0.11722 0.0
H784 H 0.86176 0.15308 0.1537 0.0
H785 H 0.74977 0.23456 0.17132 0.0
H786 H 0.81937 0.12403 0.11331 0.0
H787 H 0.85018 0.17546 0.10967 0.0
H788 H 0.87216 0.13374 0.1246 0.0
H789 H 0.68994 0.25623 0.15311 0.0
H790 H 0.71163 0.27231 0.13212 0.0
H791 H 0.68055 0.22053 0.13444 0.0
H792 H 0.76527 0.26308 0.07569 0.0
H793 H 0.69259 0.13805 0.08331 0.0
H794 H 0.83297 0.25808 0.11181 0.0
H795 H 0.78474 0.28895 0.11952 0.0
H796 H 0.80575 0.29906 0.09789 0.0
H797 H 0.74149 0.10509 0.12148 0.0
H798 H 0.68754 0.10235 0.11043 0.0
H799 H 0.69497 0.13867 0.12907 0.0
C800 C 0.66956 0.70563 0.33767 0.0
C801 C 0.70668 0.71707 0.32711 0.0
C802 C 0.66833 0.71835 0.3552 0.0
C803 C 0.70485 0.74358 0.36229 0.0
C804 C 0.7428 0.75447 0.35179 0.0
C805 C 0.74337 0.74086 0.33435 0.0
C806 C 0.62753 0.70564 0.36605 0.0
C807 C 0.78219 0.78174 0.35883 0.0
C808 C 0.68003 0.81989 0.40077 0.0
C809 C 0.69781 0.79463 0.41461 0.0
C810 C 0.68198 0.80354 0.38371 0.0
C811 C 0.7022 0.76081 0.38039 0.0
C812 C 0.72033 0.73512 0.39428 0.0
C813 C 0.71837 0.75258 0.41123 0.0
C814 C 0.66263 0.83218 0.36923 0.0
C815 C 0.74217 0.68941 0.39123 0.0
H816 H 0.64121 0.68698 0.33219 0.0
H817 H 0.77213 0.74992 0.32627 0.0
H818 H 0.63859 0.68778 0.378 0.0
H819 H 0.60929 0.73682 0.37016 0.0
H820 H 0.60337 0.68347 0.35891 0.0
H821 H 0.81005 0.78557 0.34922 0.0
H822 H 0.77025 0.81607 0.36265 0.0
H823 H 0.79609 0.76531 0.37064 0.0
H824 H 0.66438 0.85256 0.40329 0.0
H825 H 0.73382 0.73369 0.42173 0.0
H826 H 0.63552 0.81313 0.36236 0.0
H827 H 0.68956 0.83989 0.35959 0.0
H828 H 0.64817 0.86471 0.374 0.0
H829 H 0.71809 0.66657 0.3844 0.0
H830 H 0.75293 0.67286 0.40351 0.0
H831 H 0.7724 0.69337 0.38276 0.0
C832 C 0.25516 0.15823 0.58671 0.0
C833 C 0.28734 0.19114 0.58194 0.0
C834 C 0.23629 0.15763 0.60342 0.0
C835 C 0.25008 0.19058 0.61572 0.0
C836 C 0.28318 0.22334 0.61111 0.0
C837 C 0.30134 0.2233 0.59426 0.0
C838 C 0.20099 0.12219 0.60783 0.0
C839 C 0.29893 0.25881 0.62392 0.0
C840 C 0.16871 0.21619 0.65272 0.0
C841 C 0.18769 0.19096 0.66632 0.0
C842 C 0.189 0.21683 0.63624 0.0
C843 C 0.22905 0.19131 0.63327 0.0
C844 C 0.24832 0.16567 0.64695 0.0
C845 C 0.22723 0.16559 0.66329 0.0
C846 C 0.16737 0.24452 0.62197 0.0
C847 C 0.29079 0.13775 0.64426 0.0
H848 H 0.24406 0.13328 0.57729 0.0
H849 H 0.32628 0.24877 0.59072 0.0
H850 H 0.21195 0.10237 0.61933 0.0
H851 H 0.16843 0.13898 0.61123 0.0
H852 H 0.19477 0.09831 0.59693 0.0
H853 H 0.32592 0.28105 0.61848 0.0
H854 H 0.26979 0.28036 0.62788 0.0
H855 H 0.3122 0.2422 0.6358 0.0
H856 H 0.13797 0.23562 0.65499 0.0
H857 H 0.24114 0.14465 0.67353 0.0
H858 H 0.1575 0.22199 0.61107 0.0
H859 H 0.19217 0.2695 0.61682 0.0
H860 H 0.13669 0.26309 0.62648 0.0
H861 H 0.28437 0.1111 0.63439 0.0
H862 H 0.30245 0.1211 0.6564 0.0
H863 H 0.31863 0.15955 0.63926 0.0
C864 C 0.77151 0.74917 0.91232 0.0
C865 C 0.8058 0.71753 0.91586 0.0
C866 C 0.76918 0.77085 0.89612 0.0
C867 C 0.80192 0.76044 0.88325 0.0
C868 C 0.83696 0.72889 0.88691 0.0
C869 C 0.8382 0.70751 0.90314 0.0
C870 C 0.73103 0.80387 0.89261 0.0
C871 C 0.87268 0.71708 0.87358 0.0
C872 C 0.77592 0.77461 0.8354 0.0
C873 C 0.79992 0.81441 0.83138 0.0
C874 C 0.77487 0.75763 0.85239 0.0
C875 C 0.79869 0.78083 0.86565 0.0
C876 C 0.82181 0.82177 0.8618 0.0
C877 C 0.82202 0.83818 0.8447 0.0
C878 C 0.74949 0.71405 0.85601 0.0
C879 C 0.84774 0.84731 0.87561 0.0
H880 H 0.7457 0.75587 0.92203 0.0
H881 H 0.86456 0.6828 0.90591 0.0
H882 H 0.74493 0.83677 0.88802 0.0
H883 H 0.70891 0.7904 0.88214 0.0
H884 H 0.70981 0.81011 0.90429 0.0
H885 H 0.89882 0.6935 0.87877 0.0
H886 H 0.85639 0.70095 0.86215 0.0
H887 H 0.88985 0.74839 0.86896 0.0
H888 H 0.7585 0.75617 0.82521 0.0
H889 H 0.84062 0.86898 0.84171 0.0
H890 H 0.72561 0.71884 0.867 0.0
H891 H 0.77389 0.68712 0.85983 0.0
H892 H 0.72998 0.70201 0.84456 0.0
H893 H 0.82552 0.85404 0.88694 0.0
H894 H 0.86135 0.88016 0.87077 0.0
H895 H 0.87659 0.82628 0.88024 0.0
C896 C 0.28891 0.26948 0.15463 0.0
C897 C 0.27494 0.30012 0.16746 0.0
C898 C 0.26957 0.27034 0.13801 0.0
C899 C 0.23591 0.30312 0.13408 0.0
C900 C 0.22115 0.33374 0.14707 0.0
C901 C 0.24092 0.3319 0.16364 0.0
C902 C 0.28599 0.2369 0.12454 0.0
C903 C 0.1857 0.36948 0.14331 0.0
C904 C 0.22656 0.33514 0.08658 0.0
C905 C 0.18883 0.30955 0.08124 0.0
C906 C 0.24144 0.33425 0.10385 0.0
C907 C 0.21823 0.30689 0.11608 0.0
C908 C 0.17956 0.28172 0.11088 0.0
C909 C 0.16522 0.28345 0.09352 0.0
C910 C 0.28265 0.36185 0.10892 0.0
C911 C 0.15409 0.25204 0.12356 0.0
H912 H 0.3153 0.24495 0.15757 0.0
H913 H 0.23094 0.35649 0.17337 0.0
H914 H 0.25676 0.21823 0.1189 0.0
H915 H 0.30291 0.25538 0.11379 0.0
H916 H 0.31039 0.21187 0.12998 0.0
H917 H 0.1757 0.38862 0.15512 0.0
H918 H 0.1991 0.39387 0.1336 0.0
H919 H 0.15489 0.35361 0.13763 0.0
H920 H 0.24489 0.35557 0.07721 0.0
H921 H 0.13604 0.26357 0.08951 0.0
H922 H 0.31038 0.33885 0.11316 0.0
H923 H 0.27438 0.38431 0.12003 0.0
H924 H 0.29544 0.38314 0.09806 0.0
H925 H 0.17676 0.22461 0.12831 0.0
H926 H 0.12344 0.23628 0.11767 0.0
H927 H 0.14348 0.27222 0.13501 0.0
C928 C 0.31849 0.70564 0.83834 0.0
C929 C 0.27824 0.71143 0.82882 0.0
C930 C 0.32113 0.71859 0.85583 0.0
C931 C 0.28276 0.73825 0.86396 0.0
C932 C 0.2417 0.74323 0.85455 0.0
C933 C 0.23987 0.72956 0.83711 0.0
C934 C 0.36537 0.71228 0.86547 0.0
C935 C 0.20015 0.76436 0.86274 0.0
C936 C 0.27893 0.74581 0.91322 0.0
C937 C 0.29394 0.7904 0.91605 0.0
C938 C 0.27553 0.72812 0.89634 0.0
C939 C 0.28644 0.75605 0.88197 0.0
C940 C 0.30095 0.8013 0.88477 0.0
C941 C 0.3045 0.81789 0.90177 0.0
C942 C 0.25995 0.67969 0.89386 0.0
C943 C 0.31257 0.83231 0.8698 0.0
H944 H 0.34822 0.69137 0.83208 0.0
H945 H 0.20867 0.73421 0.82985 0.0
H946 H 0.37955 0.7459 0.86907 0.0
H947 H 0.35944 0.69325 0.87768 0.0
H948 H 0.39109 0.69377 0.85764 0.0
H949 H 0.17018 0.76359 0.85398 0.0
H950 H 0.19135 0.74637 0.87493 0.0
H951 H 0.20744 0.80022 0.86619 0.0
H952 H 0.2689 0.72499 0.92415 0.0
H953 H 0.3157 0.85253 0.90389 0.0
H954 H 0.28568 0.66043 0.88633 0.0
H955 H 0.2279 0.67908 0.88628 0.0
H956 H 0.25413 0.662 0.90639 0.0
H957 H 0.34072 0.81748 0.86208 0.0
H958 H 0.32289 0.86674 0.87419 0.0
H959 H 0.28283 0.83569 0.86105 0.0
C960 C 0.2947 0.82473 0.08958 0.0
C961 C 0.28055 0.78903 0.07881 0.0
C962 C 0.28117 0.82673 0.10704 0.0
C963 C 0.25222 0.79262 0.11379 0.0
C964 C 0.23846 0.75611 0.10306 0.0
C965 C 0.25306 0.75459 0.08573 0.0
C966 C 0.29713 0.86582 0.11816 0.0
C967 C 0.2071 0.7194 0.1097 0.0
C968 C 0.23907 0.77793 0.16258 0.0
C969 C 0.19907 0.80243 0.16584 0.0
C970 C 0.25733 0.77516 0.14576 0.0
C971 C 0.23436 0.79635 0.1318 0.0
C972 C 0.1936 0.82049 0.13496 0.0
C973 C 0.17658 0.82333 0.15192 0.0
C974 C 0.30095 0.7492 0.1429 0.0
C975 C 0.16772 0.84305 0.1204 0.0
H976 H 0.31618 0.85132 0.08434 0.0
H977 H 0.24181 0.727 0.07747 0.0
H978 H 0.2676 0.88684 0.12211 0.0
H979 H 0.31321 0.8528 0.13019 0.0
H980 H 0.32191 0.8879 0.11129 0.0
H981 H 0.20101 0.69239 0.09991 0.0
H982 H 0.22153 0.70356 0.12153 0.0
H983 H 0.1739 0.73452 0.11336 0.0
H984 H 0.25572 0.75993 0.173 0.0
H985 H 0.1455 0.84213 0.15428 0.0
H986 H 0.32625 0.77111 0.13627 0.0
H987 H 0.29451 0.71963 0.13434 0.0
H988 H 0.31594 0.73675 0.15524 0.0
H989 H 0.18963 0.86851 0.11387 0.0
H990 H 0.13639 0.86031 0.12502 0.0
H991 H 0.15805 0.81741 0.11052 0.0
C992 C 0.17486 0.75128 0.41428 0.0
C993 C 0.20417 0.71524 0.41826 0.0
C994 C 0.17518 0.77134 0.39776 0.0
C995 C 0.20548 0.75483 0.38495 0.0
C996 C 0.23581 0.71907 0.38905 0.0
C997 C 0.23452 0.69949 0.40562 0.0
C998 C 0.14201 0.80907 0.39381 0.0
C999 C 0.26883 0.7007 0.37579 0.0
C1000 C 0.17529 0.7677 0.33737 0.0
C1001 C 0.20296 0.80421 0.33232 0.0
C1002 C 0.17522 0.75192 0.35452 0.0
C1003 C 0.2037 0.77294 0.36695 0.0
C1004 C 0.23135 0.81013 0.36202 0.0
C1005 C 0.23056 0.82542 0.34476 0.0
C1006 C 0.14504 0.71231 0.35929 0.0
C1007 C 0.2623 0.83323 0.37492 0.0
H1008 H 0.15045 0.76271 0.42385 0.0
H1009 H 0.25716 0.67156 0.40868 0.0
H1010 H 0.16017 0.83886 0.38837 0.0
H1011 H 0.11732 0.79747 0.38387 0.0
H1012 H 0.12286 0.82006 0.40551 0.0
H1013 H 0.29201 0.67473 0.38136 0.0
H1014 H 0.24982 0.6851 0.36488 0.0
H1015 H 0.2896 0.72871 0.37033 0.0
H1016 H 0.15372 0.75119 0.32787 0.0
H1017 H 0.25206 0.85364 0.34098 0.0
H1018 H 0.1224 0.72179 0.37021 0.0
H1019 H 0.16618 0.68332 0.3637 0.0
H1020 H 0.1237 0.70081 0.34824 0.0
H1021 H 0.24236 0.84538 0.38621 0.0
H1022 H 0.28066 0.86255 0.36915 0.0
H1023 H 0.28767 0.80857 0.37988 0.0
C1024 C 0.33546 0.67876 0.65159 0.0
C1025 C 0.31198 0.69874 0.66544 0.0
C1026 C 0.31809 0.68039 0.63466 0.0
C1027 C 0.27614 0.70249 0.6315 0.0
C1028 C 0.25255 0.72325 0.64541 0.0
C1029 C 0.27114 0.72173 0.66218 0.0
C1030 C 0.34467 0.65851 0.62013 0.0
C1031 C 0.20774 0.74712 0.64257 0.0
C1032 C 0.25251 0.74113 0.58537 0.0
C1033 C 0.22586 0.70533 0.57899 0.0
C1034 C 0.26866 0.74091 0.6025 0.0
C1035 C 0.25739 0.70429 0.61359 0.0
C1036 C 0.22951 0.66862 0.60736 0.0
C1037 C 0.21434 0.6694 0.59009 0.0
C1038 C 0.29876 0.7793 0.60858 0.0
C1039 C 0.21627 0.6293 0.61888 0.0
H1040 H 0.36736 0.66147 0.65404 0.0
H1041 H 0.25395 0.73906 0.6727 0.0
H1042 H 0.32396 0.63153 0.61393 0.0
H1043 H 0.35254 0.68408 0.60999 0.0
H1044 H 0.37706 0.64327 0.62471 0.0
H1045 H 0.19292 0.76013 0.65486 0.0
H1046 H 0.21241 0.77605 0.63354 0.0
H1047 H 0.18304 0.7235 0.63648 0.0
H1048 H 0.26176 0.76892 0.57685 0.0
H1049 H 0.19359 0.64171 0.58527 0.0
H1050 H 0.3327 0.76583 0.61217 0.0
H1051 H 0.28416 0.79531 0.62035 0.0
H1052 H 0.30329 0.80589 0.59851 0.0
H1053 H 0.2471 0.61024 0.62283 0.0
H1054 H 0.19254 0.60545 0.61234 0.0
H1055 H 0.19991 0.64208 0.63089 0.0
C1056 C 0.09673 0.45859 0.01469 0.0
C1057 C 0.09954 0.42205 0.00312 0.0
C1058 C 0.05925 0.48812 0.01435 0.0
C1059 C 0.02319 0.47973 0.00259 0.0
C1060 C 0.02597 0.44284 0.99088 0.0
C1061 C 0.06448 0.41488 0.99111 0.0
C1062 C 0.05806 0.52801 0.02664 0.0
C1063 C 0.98767 0.43206 0.97849 0.0
C1064 C 0.9082 0.53002 0.01414 0.0
C1065 C 0.90601 0.56705 0.00278 0.0
C1066 C 0.94573 0.50055 0.01393 0.0
C1067 C 0.98245 0.50946 0.00252 0.0
C1068 C 0.98032 0.54687 0.99104 0.0
C1069 C 0.94178 0.57478 0.99112 0.0
C1070 C 0.94625 0.46012 0.02597 0.0
C1071 C 0.01931 0.55821 0.97904 0.0
H1072 H 0.12382 0.46403 0.024 0.0
H1073 H 0.06622 0.3861 0.98235 0.0
H1074 H 0.05256 0.55996 0.01929 0.0
H1075 H 0.02921 0.52427 0.03579 0.0
H1076 H 0.08996 0.53124 0.03426 0.0
H1077 H 0.99498 0.40175 0.97038 0.0
H1078 H 0.9559 0.42582 0.98588 0.0
H1079 H 0.98129 0.4614 0.96981 0.0
H1080 H 0.88056 0.52413 0.02317 0.0
H1081 H 0.94051 0.60392 0.98253 0.0
H1082 H 0.97461 0.46343 0.03536 0.0
H1083 H 0.95213 0.4285 0.01846 0.0
H1084 H 0.91396 0.45658 0.03332 0.0
H1085 H 0.05066 0.56409 0.98672 0.0
H1086 H 0.01247 0.5889 0.97108 0.0
H1087 H 0.02617 0.52928 0.97021 0.0
C1088 C 0.45997 0.40437 0.26585 0.0
C1089 C 0.42298 0.40234 0.25445 0.0
C1090 C 0.49017 0.44128 0.26542 0.0
C1091 C 0.48206 0.47755 0.25374 0.0
C1092 C 0.44474 0.47555 0.2422 0.0
C1093 C 0.41606 0.4376 0.24252 0.0
C1094 C 0.53048 0.44168 0.27754 0.0
C1095 C 0.43428 0.5141 0.2299 0.0
C1096 C 0.53441 0.59147 0.2653 0.0
C1097 C 0.57123 0.59322 0.25381 0.0
C1098 C 0.50435 0.55443 0.26513 0.0
C1099 C 0.51244 0.51777 0.25363 0.0
C1100 C 0.54963 0.51946 0.24202 0.0
C1101 C 0.57817 0.55753 0.24207 0.0
C1102 C 0.46418 0.55437 0.27732 0.0
C1103 C 0.56006 0.48049 0.22991 0.0
H1104 H 0.46525 0.3771 0.27508 0.0
H1105 H 0.38697 0.43646 0.23389 0.0
H1106 H 0.56232 0.44674 0.27007 0.0
H1107 H 0.52748 0.47045 0.28675 0.0
H1108 H 0.5334 0.40968 0.2851 0.0
H1109 H 0.4036 0.50739 0.2219 0.0
H1110 H 0.42878 0.54588 0.23735 0.0
H1111 H 0.46352 0.52005 0.22111 0.0
H1112 H 0.52913 0.61907 0.27439 0.0
H1113 H 0.60714 0.55847 0.23338 0.0
H1114 H 0.46727 0.52584 0.28664 0.0
H1115 H 0.43226 0.54911 0.26992 0.0
H1116 H 0.46134 0.58656 0.28476 0.0
H1117 H 0.56558 0.44896 0.23751 0.0
H1118 H 0.59072 0.48694 0.22186 0.0
H1119 H 0.53081 0.47425 0.22116 0.0
C1120 C 0.59195 0.96045 0.51674 0.0
C1121 C 0.59397 0.92371 0.50525 0.0
C1122 C 0.55404 0.98946 0.51692 0.0
C1123 C 0.51681 0.98032 0.50579 0.0
C1124 C 0.51865 0.94298 0.49426 0.0
C1125 C 0.55754 0.91558 0.49394 0.0
C1126 C 0.55381 0.02983 0.52899 0.0
C1127 C 0.47915 0.93138 0.48255 0.0
C1128 C 0.40257 0.03156 0.51795 0.0
C1129 C 0.39964 0.06774 0.50622 0.0
C1130 C 0.44017 0.00214 0.51774 0.0
C1131 C 0.47619 0.01023 0.50593 0.0
C1132 C 0.47336 0.04683 0.4941 0.0
C1133 C 0.4348 0.0747 0.49422 0.0
C1134 C 0.44146 0.96256 0.53018 0.0
C1135 C 0.51155 0.05728 0.48161 0.0
H1136 H 0.62008 0.96659 0.52552 0.0
H1137 H 0.55868 0.88659 0.48527 0.0
H1138 H 0.54813 0.0615 0.52149 0.0
H1139 H 0.52545 0.02671 0.53839 0.0
H1140 H 0.58615 0.03316 0.53633 0.0
H1141 H 0.48545 0.90023 0.47478 0.0
H1142 H 0.44797 0.9262 0.49041 0.0
H1143 H 0.47232 0.95993 0.47353 0.0
H1144 H 0.37544 0.02624 0.52725 0.0
H1145 H 0.43303 0.10317 0.48532 0.0
H1146 H 0.47066 0.96627 0.53917 0.0
H1147 H 0.44648 0.9304 0.52292 0.0
H1148 H 0.4098 0.95976 0.53796 0.0
H1149 H 0.54356 0.06307 0.4889 0.0
H1150 H 0.50445 0.08774 0.47356 0.0
H1151 H 0.51736 0.02794 0.47287 0.0
C1152 C 0.02289 0.09423 0.75221 0.0
C1153 C 0.06024 0.09731 0.76341 0.0
C1154 C 0.9923 0.0578 0.75343 0.0
C1155 C 0.00024 0.02304 0.76578 0.0
C1156 C 0.03727 0.0266 0.77739 0.0
C1157 C 0.06649 0.06408 0.77622 0.0
C1158 C 0.95233 0.0558 0.74117 0.0
C1159 C 0.04745 0.9897 0.79043 0.0
C1160 C 0.90416 0.94128 0.77585 0.0
C1161 C 0.91278 0.90626 0.76398 0.0
C1162 C 0.93262 0.97941 0.77674 0.0
C1163 C 0.97125 0.98178 0.76584 0.0
C1164 C 0.98138 0.94535 0.75448 0.0
C1165 C 0.95153 0.9083 0.75347 0.0
C1166 C 0.92008 0.0181 0.78868 0.0
C1167 C 0.02304 0.94607 0.74303 0.0
H1168 H 0.01799 0.11997 0.74233 0.0
H1169 H 0.09572 0.06605 0.78476 0.0
H1170 H 0.95673 0.02705 0.73202 0.0
H1171 H 0.92043 0.04969 0.74849 0.0
H1172 H 0.94853 0.08756 0.73353 0.0
H1173 H 0.07615 0.9988 0.79914 0.0
H1174 H 0.01705 0.98255 0.79849 0.0
H1175 H 0.05622 0.95784 0.7835 0.0
H1176 H 0.87375 0.94006 0.78379 0.0
H1177 H 0.95814 0.88118 0.74429 0.0
H1178 H 0.91211 0.04874 0.78087 0.0
H1179 H 0.94912 0.02686 0.79722 0.0
H1180 H 0.89018 0.00996 0.79692 0.0
H1181 H 0.01991 0.97367 0.73331 0.0
H1182 H 0.02803 0.91345 0.73605 0.0
H1183 H 0.05381 0.9532 0.7509 0.0
C1184 C 0.9029 0.46412 0.51633 0.0
C1185 C 0.90037 0.42765 0.50472 0.0
C1186 C 0.94078 0.49318 0.51637 0.0
C1187 C 0.97754 0.48436 0.50498 0.0
C1188 C 0.9751 0.44747 0.49326 0.0
C1189 C 0.9362 0.42002 0.49308 0.0
C1190 C 0.94159 0.53311 0.52865 0.0
C1191 C 0.0141 0.43619 0.48126 0.0
C1192 C 0.06037 0.57861 0.49394 0.0
C1193 C 0.09551 0.5708 0.50587 0.0
C1194 C 0.02158 0.55105 0.49366 0.0
C1195 C 0.01852 0.51385 0.5052 0.0
C1196 C 0.05457 0.50487 0.51691 0.0
C1197 C 0.09237 0.53404 0.51733 0.0
C1198 C 0.98333 0.5625 0.48133 0.0
C1199 C 0.05309 0.46464 0.52904 0.0
H1200 H 0.87524 0.4699 0.52537 0.0
H1201 H 0.9347 0.39126 0.48431 0.0
H1202 H 0.9699 0.52921 0.53803 0.0
H1203 H 0.94775 0.56498 0.52133 0.0
H1204 H 0.90931 0.53661 0.53601 0.0
H1205 H 0.00713 0.40572 0.47319 0.0
H1206 H 0.02118 0.46529 0.47253 0.0
H1207 H 0.04538 0.42997 0.48895 0.0
H1208 H 0.06233 0.60756 0.48528 0.0
H1209 H 0.1195 0.52808 0.52657 0.0
H1210 H 0.95154 0.56844 0.48874 0.0
H1211 H 0.97694 0.53361 0.47244 0.0
H1212 H 0.99072 0.59319 0.47344 0.0
H1213 H 0.02419 0.46825 0.53817 0.0
H1214 H 0.08491 0.46103 0.53667 0.0
H1215 H 0.04746 0.43294 0.52155 0.0
C1216 C 0.59173 0.44615 0.77387 0.0
C1217 C 0.58296 0.40999 0.76253 0.0
C1218 C 0.56315 0.48422 0.77433 0.0
C1219 C 0.52419 0.48533 0.76358 0.0
C1220 C 0.51425 0.44805 0.75259 0.0
C1221 C 0.54428 0.4111 0.75197 0.0
C1222 C 0.57555 0.52389 0.78581 0.0
C1223 C 0.47227 0.44749 0.74132 0.0
C1224 C 0.42786 0.56541 0.77485 0.0
C1225 C 0.43249 0.59882 0.76201 0.0
C1226 C 0.45782 0.52849 0.77565 0.0
C1227 C 0.49402 0.5257 0.76362 0.0
C1228 C 0.50022 0.56054 0.75117 0.0
C1229 C 0.46886 0.59639 0.75033 0.0
C1230 C 0.44946 0.49144 0.78883 0.0
C1231 C 0.53928 0.55935 0.73847 0.0
H1232 H 0.62218 0.44564 0.7818 0.0
H1233 H 0.53766 0.38312 0.74318 0.0
H1234 H 0.58102 0.55462 0.77774 0.0
H1235 H 0.54731 0.53155 0.79488 0.0
H1236 H 0.60684 0.51742 0.7935 0.0
H1237 H 0.46801 0.41471 0.73437 0.0
H1238 H 0.44156 0.45371 0.74934 0.0
H1239 H 0.47422 0.47515 0.73159 0.0
H1240 H 0.39937 0.56685 0.78376 0.0
H1241 H 0.47249 0.62226 0.74042 0.0
H1242 H 0.48032 0.48581 0.7968 0.0
H1243 H 0.44194 0.45907 0.78203 0.0
H1244 H 0.42061 0.49948 0.79761 0.0
H1245 H 0.57187 0.55435 0.74547 0.0
H1246 H 0.54161 0.591 0.73068 0.0
H1247 H 0.53506 0.53024 0.72949 0.0
C1248 C 0.59707 0.03016 0.0156 0.0
C1249 C 0.59958 0.06679 0.00406 0.0
C1250 C 0.55949 0.00073 0.01543 0.0
C1251 C 0.52303 0.00927 0.00386 0.0
C1252 C 0.52551 0.04623 0.99218 0.0
C1253 C 0.5641 0.07411 0.99224 0.0
C1254 C 0.55862 0.96077 0.0277 0.0
C1255 C 0.48681 0.05717 0.98 0.0
C1256 C 0.44085 0.91445 0.99279 0.0
C1257 C 0.40557 0.92222 0.00466 0.0
C1258 C 0.47947 0.94228 0.99251 0.0
C1259 C 0.48216 0.97964 0.00399 0.0
C1260 C 0.44591 0.9886 0.01561 0.0
C1261 C 0.40831 0.9592 0.01602 0.0
C1262 C 0.51796 0.93088 0.98029 0.0
C1263 C 0.447 0.02899 0.02767 0.0
H1264 H 0.62448 0.02457 0.02476 0.0
H1265 H 0.5656 0.10293 0.9835 0.0
H1266 H 0.53012 0.96456 0.037 0.0
H1267 H 0.55272 0.92889 0.02035 0.0
H1268 H 0.59078 0.9574 0.03514 0.0
H1269 H 0.49394 0.0875 0.97186 0.0
H1270 H 0.48002 0.02789 0.97133 0.0
H1271 H 0.45533 0.06349 0.98755 0.0
H1272 H 0.43916 0.88534 0.9842 0.0
H1273 H 0.38105 0.96512 0.02522 0.0
H1274 H 0.5496 0.92491 0.98779 0.0
H1275 H 0.52456 0.9598 0.97143 0.0
H1276 H 0.51073 0.90021 0.97236 0.0
H1277 H 0.47568 0.02556 0.03691 0.0
H1278 H 0.41499 0.0326 0.03519 0.0
H1279 H 0.45272 0.06061 0.02014 0.0
C1280 C 0.08239 0.93877 0.27308 0.0
C1281 C 0.07498 0.90354 0.26118 0.0
C1282 C 0.05427 0.97715 0.27332 0.0
C1283 C 0.01694 0.97953 0.2618 0.0
C1284 C 0.00831 0.94323 0.25018 0.0
C1285 C 0.03807 0.90597 0.24977 0.0
C1286 C 0.06542 0.01579 0.28549 0.0
C1287 C 0.96793 0.94394 0.2381 0.0
C1288 C 0.92156 0.06084 0.27307 0.0
C1289 C 0.92851 0.09574 0.26099 0.0
C1290 C 0.94998 0.02268 0.27342 0.0
C1291 C 0.98713 0.0202 0.2618 0.0
C1292 C 0.99542 0.05629 0.25006 0.0
C1293 C 0.96538 0.09331 0.24955 0.0
C1294 C 0.93923 0.98429 0.28575 0.0
C1295 C 0.03562 0.05549 0.23788 0.0
H1296 H 0.11152 0.93727 0.28168 0.0
H1297 H 0.03253 0.87873 0.24054 0.0
H1298 H 0.07157 0.04726 0.27793 0.0
H1299 H 0.03628 0.02254 0.29425 0.0
H1300 H 0.09594 0.00869 0.29354 0.0
H1301 H 0.96439 0.91176 0.23069 0.0
H1302 H 0.93622 0.94979 0.24558 0.0
H1303 H 0.97137 0.97236 0.22875 0.0
H1304 H 0.89248 0.06231 0.2817 0.0
H1305 H 0.97059 0.12029 0.24019 0.0
H1306 H 0.96866 0.97768 0.29438 0.0
H1307 H 0.93281 0.95268 0.2783 0.0
H1308 H 0.90899 0.99156 0.29392 0.0
H1309 H 0.06744 0.04963 0.24529 0.0
H1310 H 0.03907 0.08765 0.23046 0.0
H1311 H 0.03199 0.02706 0.22855 0.0
C1312 C 0.58365 0.29269 0.99375 0.0
C1313 C 0.6013 0.27204 0.00872 0.0
C1314 C 0.53952 0.31087 0.99363 0.0
C1315 C 0.51247 0.30795 0.00877 0.0
C1316 C 0.53202 0.29207 0.0244 0.0
C1317 C 0.5764 0.2747 0.02423 0.0
C1318 C 0.52039 0.32888 0.97682 0.0
C1319 C 0.50449 0.28849 0.04088 0.0
C1320 C 0.39341 0.35834 0.01092 0.0
C1321 C 0.36698 0.32067 0.00633 0.0
C1322 C 0.44109 0.35529 0.0114 0.0
C1323 C 0.46231 0.31331 0.00754 0.0
C1324 C 0.43539 0.27522 0.0029 0.0
C1325 C 0.38801 0.27953 0.00223 0.0
C1326 C 0.46867 0.39673 0.01609 0.0
C1327 C 0.45656 0.22964 0.9989 0.0
H1328 H 0.60284 0.2916 0.98175 0.0
H1329 H 0.58987 0.25949 0.03596 0.0
H1330 H 0.49823 0.30268 0.97086 0.0
H1331 H 0.49929 0.35952 0.97912 0.0
H1332 H 0.54771 0.33748 0.96742 0.0
H1333 H 0.52639 0.28293 0.05243 0.0
H1334 H 0.48388 0.31952 0.04298 0.0
H1335 H 0.48063 0.25942 0.03978 0.0
H1336 H 0.37672 0.39015 0.01403 0.0
H1337 H 0.36719 0.25051 0.99877 0.0
H1338 H 0.49413 0.40376 0.00581 0.0
H1339 H 0.4877 0.3905 0.02827 0.0
H1340 H 0.44709 0.42735 0.01785 0.0
H1341 H 0.48039 0.23287 0.98782 0.0
H1342 H 0.43074 0.20345 0.99564 0.0
H1343 H 0.47649 0.21761 0.01022 0.0
C1344 C 0.63406 0.88665 0.25515 0.0
C1345 C 0.67333 0.85987 0.25485 0.0
C1346 C 0.63716 0.9343 0.25508 0.0
C1347 C 0.68058 0.9551 0.25487 0.0
C1348 C 0.72028 0.92775 0.25466 0.0
C1349 C 0.71609 0.88038 0.25457 0.0
C1350 C 0.5942 0.96231 0.25516 0.0
C1351 C 0.76727 0.94851 0.25456 0.0
C1352 C 0.71018 0.07295 0.23944 0.0
C1353 C 0.72149 0.09402 0.2552 0.0
C1354 C 0.69213 0.02884 0.23914 0.0
C1355 C 0.68545 0.00535 0.25496 0.0
C1356 C 0.69161 0.02845 0.27088 0.0
C1357 C 0.70928 0.07271 0.27081 0.0
C1358 C 0.68486 0.00582 0.22187 0.0
C1359 C 0.68453 0.00482 0.28805 0.0
H1360 H 0.60104 0.87027 0.25535 0.0
H1361 H 0.74625 0.85921 0.25437 0.0
H1362 H 0.59367 0.98491 0.26667 0.0
H1363 H 0.5932 0.98444 0.24352 0.0
H1364 H 0.56312 0.94087 0.25532 0.0
H1365 H 0.79455 0.92241 0.25461 0.0
H1366 H 0.77159 0.97015 0.2429 0.0
H1367 H 0.77173 0.97061 0.2661 0.0
H1368 H 0.71867 0.08943 0.22729 0.0
H1369 H 0.71724 0.08884 0.28308 0.0
H1370 H 0.65328 0.98523 0.22199 0.0
H1371 H 0.71367 0.98247 0.21927 0.0
H1372 H 0.68289 0.03076 0.21108 0.0
H1373 H 0.65302 0.98414 0.28789 0.0
H1374 H 0.6826 0.02935 0.29897 0.0
H1375 H 0.71343 0.98144 0.29048 0.0
C1376 C 0.92394 0.2192 0.52423 0.0
C1377 C 0.89827 0.2221 0.50891 0.0
C1378 C 0.96812 0.20134 0.52407 0.0
C1379 C 0.9867 0.18528 0.50829 0.0
C1380 C 0.95889 0.18275 0.49334 0.0
C1381 C 0.91497 0.20137 0.4938 0.0
C1382 C 0.99649 0.20448 0.54035 0.0
C1383 C 0.97697 0.16456 0.47639 0.0
C1384 C 0.11148 0.21187 0.5015 0.0
C1385 C 0.13195 0.17048 0.50563 0.0
C1386 C 0.06414 0.21677 0.50209 0.0
C1387 C 0.0367 0.17906 0.50674 0.0
C1388 C 0.05734 0.13675 0.51053 0.0
C1389 C 0.10496 0.13309 0.51009 0.0
C1390 C 0.04359 0.26264 0.49811 0.0
C1391 C 0.02923 0.09571 0.51527 0.0
H1392 H 0.91126 0.23454 0.53605 0.0
H1393 H 0.89514 0.20267 0.48196 0.0
H1394 H 0.01641 0.17297 0.54237 0.0
H1395 H 0.02102 0.23293 0.53902 0.0
H1396 H 0.97529 0.21073 0.55203 0.0
H1397 H 0.94911 0.15647 0.46716 0.0
H1398 H 0.9993 0.19045 0.47031 0.0
H1399 H 0.99768 0.13357 0.47853 0.0
H1400 H 0.13271 0.24071 0.49817 0.0
H1401 H 0.12121 0.1011 0.51328 0.0
H1402 H 0.02446 0.2752 0.50956 0.0
H1403 H 0.01913 0.25967 0.48722 0.0
H1404 H 0.0697 0.28832 0.4946 0.0
H1405 H 0.01213 0.1015 0.5279 0.0
H1406 H 0.05017 0.06442 0.51627 0.0
H1407 H 0.00219 0.09012 0.50546 0.0
C1408 C 0.79164 0.43065 0.73702 0.0
C1409 C 0.78908 0.40646 0.75268 0.0
C1410 C 0.80723 0.47562 0.73669 0.0
C1411 C 0.8214 0.49638 0.75233 0.0
C1412 C 0.82556 0.46987 0.76756 0.0
C1413 C 0.8092 0.42509 0.76758 0.0
C1414 C 0.80267 0.50244 0.72009 0.0
C1415 C 0.84209 0.49029 0.78437 0.0
C1416 C 0.86017 0.6196 0.75042 0.0
C1417 C 0.81984 0.64218 0.75474 0.0
C1418 C 0.86183 0.57191 0.74995 0.0
C1419 C 0.82194 0.54673 0.75358 0.0
C1420 C 0.78118 0.56975 0.758 0.0
C1421 C 0.78079 0.61725 0.75864 0.0
C1422 C 0.90599 0.54856 0.74551 0.0
C1423 C 0.73769 0.54426 0.76181 0.0
H1424 H 0.77716 0.41629 0.72531 0.0
H1425 H 0.80841 0.40635 0.77968 0.0
H1426 H 0.77141 0.52349 0.72074 0.0
H1427 H 0.83189 0.52573 0.71827 0.0
H1428 H 0.80009 0.47988 0.70858 0.0
H1429 H 0.85317 0.46367 0.79366 0.0
H1430 H 0.87074 0.51405 0.78208 0.0
H1431 H 0.81404 0.50985 0.79044 0.0
H1432 H 0.89036 0.63931 0.7475 0.0
H1433 H 0.7497 0.63509 0.76193 0.0
H1434 H 0.90234 0.52978 0.73312 0.0
H1435 H 0.9147 0.52328 0.75565 0.0
H1436 H 0.9346 0.57296 0.74421 0.0
H1437 H 0.72803 0.52319 0.75046 0.0
H1438 H 0.70895 0.56738 0.7649 0.0
H1439 H 0.74282 0.52098 0.77295 0.0
C1440 C 0.6054 0.3613 0.51222 0.0
C1441 C 0.63218 0.32498 0.50647 0.0
C1442 C 0.55783 0.35728 0.51308 0.0
C1443 C 0.53705 0.31566 0.50839 0.0
C1444 C 0.56425 0.27905 0.50245 0.0
C1445 C 0.61152 0.28433 0.50147 0.0
C1446 C 0.52994 0.39722 0.51919 0.0
C1447 C 0.54356 0.23389 0.4975 0.0
C1448 C 0.42525 0.27252 0.52587 0.0
C1449 C 0.39849 0.27254 0.51079 0.0
C1450 C 0.46955 0.29015 0.52573 0.0
C1451 C 0.48714 0.30898 0.51023 0.0
C1452 C 0.45835 0.31425 0.49566 0.0
C1453 C 0.41434 0.2958 0.49609 0.0
C1454 C 0.499 0.28398 0.5416 0.0
C1455 C 0.47537 0.3354 0.47906 0.0
H1456 H 0.62175 0.39274 0.51606 0.0
H1457 H 0.63257 0.25629 0.49714 0.0
H1458 H 0.50257 0.40476 0.50971 0.0
H1459 H 0.51328 0.38884 0.53169 0.0
H1460 H 0.55094 0.42822 0.52101 0.0
H1461 H 0.56949 0.20903 0.49308 0.0
H1462 H 0.52525 0.21925 0.50878 0.0
H1463 H 0.51836 0.23867 0.48696 0.0
H1464 H 0.41329 0.25512 0.53739 0.0
H1465 H 0.39364 0.29684 0.48447 0.0
H1466 H 0.51915 0.31503 0.54426 0.0
H1467 H 0.52334 0.25583 0.53927 0.0
H1468 H 0.47858 0.27563 0.5533 0.0
H1469 H 0.49612 0.36603 0.4818 0.0
H1470 H 0.44696 0.34495 0.47029 0.0
H1471 H 0.49741 0.31072 0.47216 0.0
C1472 C 0.71021 0.11828 0.76101 0.0
C1473 C 0.67208 0.14296 0.75577 0.0
C1474 C 0.71086 0.07086 0.75979 0.0
C1475 C 0.67201 0.04764 0.75344 0.0
C1476 C 0.63274 0.07248 0.74868 0.0
C1477 C 0.63345 0.12012 0.74972 0.0
C1478 C 0.75363 0.04573 0.76489 0.0
C1479 C 0.59044 0.04897 0.74219 0.0
C1480 C 0.70858 0.93457 0.73562 0.0
C1481 C 0.70735 0.90797 0.75073 0.0
C1482 C 0.69261 0.97942 0.73573 0.0
C1483 C 0.67419 0.99758 0.7512 0.0
C1484 C 0.66664 0.96877 0.7656 0.0
C1485 C 0.68352 0.92421 0.76524 0.0
C1486 C 0.70084 0.0088 0.71999 0.0
C1487 C 0.64539 0.9864 0.78209 0.0
H1488 H 0.74001 0.1363 0.76563 0.0
H1489 H 0.60393 0.1396 0.74577 0.0
H1490 H 0.74598 0.02085 0.77529 0.0
H1491 H 0.76693 0.02645 0.75361 0.0
H1492 H 0.78075 0.06895 0.76958 0.0
H1493 H 0.5607 0.07221 0.7419 0.0
H1494 H 0.59636 0.03619 0.72885 0.0
H1495 H 0.58209 0.01926 0.75045 0.0
H1496 H 0.72605 0.9221 0.72419 0.0
H1497 H 0.68141 0.90359 0.77686 0.0
H1498 H 0.73058 0.03112 0.72245 0.0
H1499 H 0.6712 0.031 0.71738 0.0
H1500 H 0.70794 0.98818 0.70823 0.0
H1501 H 0.67112 0.00596 0.78951 0.0
H1502 H 0.63293 0.95828 0.79045 0.0
H1503 H 0.61666 0.0096 0.7792 0.0
C1504 C 0.08448 0.19533 0.9933 0.0
C1505 C 0.10148 0.21561 0.00845 0.0
C1506 C 0.04051 0.17682 0.99287 0.0
C1507 C 0.013 0.1789 0.00792 0.0
C1508 C 0.03198 0.19426 0.02373 0.0
C1509 C 0.07619 0.21209 0.02384 0.0
C1510 C 0.02199 0.15946 0.97586 0.0
C1511 C 0.00399 0.19678 0.04012 0.0
C1512 C 0.88855 0.20721 0.00138 0.0
C1513 C 0.8676 0.16579 0.00511 0.0
C1514 C 0.93592 0.21159 0.00207 0.0
C1515 C 0.96291 0.17334 0.00643 0.0
C1516 C 0.9418 0.13104 0.00984 0.0
C1517 C 0.89413 0.12785 0.00926 0.0
C1518 C 0.95699 0.25745 0.99846 0.0
C1519 C 0.96944 0.08946 0.01429 0.0
H1520 H 0.10402 0.19704 0.9814 0.0
H1521 H 0.08917 0.22696 0.03571 0.0
H1522 H 0.001 0.1286 0.97787 0.0
H1523 H -0.00016 0.18581 0.96999 0.0
H1524 H 0.04963 0.15148 0.96653 0.0
H1525 H 0.02553 0.20207 0.05178 0.0
H1526 H 0.97983 0.22562 0.03912 0.0
H1527 H 0.98369 0.16541 0.04193 0.0
H1528 H 0.86767 0.23644 0.99823 0.0
H1529 H 0.87753 0.0958 0.01207 0.0
H1530 H 0.98134 0.25481 0.98752 0.0
H1531 H 0.97633 0.26914 0.00998 0.0
H1532 H 0.93117 0.28361 0.99518 0.0
H1533 H 0.99612 0.08383 0.00435 0.0
H1534 H 0.94809 0.05843 0.01524 0.0
H1535 H 0.98697 0.09464 0.02686 0.0
C1536 C 0.86417 0.38657 0.25884 0.0
C1537 C 0.82739 0.36031 0.25319 0.0
C1538 C 0.86121 0.43421 0.25921 0.0
C1539 C 0.82003 0.45552 0.25428 0.0
C1540 C 0.7831 0.42878 0.24829 0.0
C1541 C 0.78747 0.38143 0.24766 0.0
C1542 C 0.90163 0.46153 0.26525 0.0
C1543 C 0.73834 0.45004 0.24312 0.0
C1544 C 0.7776 0.56658 0.27245 0.0
C1545 C 0.7773 0.59382 0.25751 0.0
C1546 C 0.79512 0.52232 0.27202 0.0
C1547 C 0.81369 0.50532 0.25639 0.0
C1548 C 0.81886 0.53465 0.24197 0.0
C1549 C 0.80035 0.57858 0.24266 0.0
C1550 C 0.78898 0.49227 0.28773 0.0
C1551 C 0.84005 0.51833 0.22527 0.0
H1552 H 0.89502 0.36978 0.26309 0.0
H1553 H 0.75914 0.3607 0.24336 0.0
H1554 H 0.90807 0.49036 0.25631 0.0
H1555 H 0.89451 0.47605 0.27824 0.0
H1556 H 0.93291 0.44051 0.26614 0.0
H1557 H 0.71328 0.42446 0.23856 0.0
H1558 H 0.72354 0.46843 0.25435 0.0
H1559 H 0.74377 0.47523 0.23263 0.0
H1560 H 0.76046 0.57814 0.28409 0.0
H1561 H 0.8012 0.5997 0.23116 0.0
H1562 H 0.8203 0.47254 0.29039 0.0
H1563 H 0.76125 0.46757 0.28518 0.0
H1564 H 0.78005 0.5121 0.2995 0.0
H1565 H 0.84998 0.5471 0.21675 0.0
H1566 H 0.81522 0.49694 0.21815 0.0
H1567 H 0.87048 0.49716 0.22791 0.0
C1568 C 0.08182 0.79735 0.4949 0.0
C1569 C 0.0972 0.77529 0.50994 0.0
C1570 C 0.03771 0.81544 0.49402 0.0
C1571 C 0.00834 0.81096 0.50846 0.0
C1572 C 0.02542 0.79341 0.52426 0.0
C1573 C 0.06984 0.77617 0.52486 0.0
C1574 C 0.02125 0.83527 0.4771 0.0
C1575 C 0.99533 0.78814 0.54001 0.0
C1576 C 0.88961 0.86215 0.50964 0.0
C1577 C 0.86326 0.8251 0.5043 0.0
C1578 C 0.93722 0.85881 0.5105 0.0
C1579 C 0.95848 0.81712 0.50627 0.0
C1580 C 0.93174 0.77984 0.50063 0.0
C1581 C 0.8844 0.78444 0.49961 0.0
C1582 C 0.96459 0.89945 0.51627 0.0
C1583 C 0.95297 0.73461 0.49614 0.0
H1584 H 0.10294 0.79758 0.48338 0.0
H1585 H 0.08147 0.75972 0.53663 0.0
H1586 H -0.00021 0.8099 0.4703 0.0
H1587 H 6e-05 0.86585 0.4794 0.0
H1588 H 0.04997 0.84455 0.46844 0.0
H1589 H 0.01526 0.78046 0.55189 0.0
H1590 H 0.97512 0.81935 0.54229 0.0
H1591 H 0.97104 0.75989 0.53777 0.0
H1592 H 0.87287 0.89357 0.51325 0.0
H1593 H 0.86368 0.75584 0.4956 0.0
H1594 H 0.99286 0.90593 0.50707 0.0
H1595 H 0.98 0.89258 0.52913 0.0
H1596 H 0.94344 0.9306 0.51728 0.0
H1597 H 0.97854 0.73902 0.4857 0.0
H1598 H 0.9274 0.70929 0.49177 0.0
H1599 H 0.97095 0.72072 0.50763 0.0
C1600 C 0.1325 0.3865 0.74915 0.0
C1601 C 0.16921 0.35921 0.75415 0.0
C1602 C 0.13682 0.43403 0.74863 0.0
C1603 C 0.17901 0.45421 0.75298 0.0
C1604 C 0.21607 0.42645 0.75807 0.0
C1605 C 0.21058 0.37926 0.75866 0.0
C1606 C 0.09649 0.46257 0.74338 0.0
C1607 C 0.26181 0.44651 0.76266 0.0
C1608 C 0.22272 0.56657 0.73667 0.0
C1609 C 0.22419 0.59184 0.75211 0.0
C1610 C 0.20394 0.52284 0.73632 0.0
C1611 C 0.18581 0.50412 0.75174 0.0
C1612 C 0.18219 0.53146 0.76678 0.0
C1613 C 0.20155 0.57506 0.76681 0.0
C1614 C 0.20827 0.49498 0.71996 0.0
C1615 C 0.16204 0.51312 0.78336 0.0
H1616 H 0.10046 0.37061 0.74577 0.0
H1617 H 0.23886 0.35782 0.76246 0.0
H1618 H 0.08912 0.4882 0.75355 0.0
H1619 H 0.10436 0.48139 0.73129 0.0
H1620 H 0.06551 0.44175 0.7412 0.0
H1621 H 0.28699 0.42014 0.76639 0.0
H1622 H 0.2755 0.46579 0.75145 0.0
H1623 H 0.25814 0.4707 0.7736 0.0
H1624 H 0.23969 0.57916 0.72518 0.0
H1625 H 0.2018 0.59453 0.77874 0.0
H1626 H 0.17682 0.47529 0.71746 0.0
H1627 H 0.23652 0.47032 0.7215 0.0
H1628 H 0.21559 0.51651 0.70846 0.0
H1629 H 0.13103 0.49286 0.78068 0.0
H1630 H 0.15332 0.54078 0.79258 0.0
H1631 H 0.18705 0.49035 0.78972 0.0
C1632 C 0.61101 0.6288 0.00842 0.0
C1633 C 0.63768 0.66602 0.00351 0.0
C1634 C 0.56338 0.63233 0.00913 0.0
C1635 C 0.54242 0.67433 0.0051 0.0
C1636 C 0.5695 0.71175 0.99984 0.0
C1637 C 0.61684 0.70698 0.99901 0.0
C1638 C 0.53567 0.59156 0.0145 0.0
C1639 C 0.5486 0.75727 0.99555 0.0
C1640 C 0.41953 0.69534 0.99336 0.0
C1641 C 0.40392 0.71701 0.00845 0.0
C1642 C 0.46354 0.67698 0.99255 0.0
C1643 C 0.49253 0.68065 0.00713 0.0
C1644 C 0.47514 0.69769 0.02296 0.0
C1645 C 0.43087 0.71531 0.02347 0.0
C1646 C 0.48034 0.65773 0.97558 0.0
C1647 C 0.50478 0.702 0.03887 0.0
H1648 H 0.62749 0.59708 0.01181 0.0
H1649 H 0.63779 0.73567 0.99526 0.0
H1650 H 0.51995 0.59788 0.02735 0.0
H1651 H 0.50761 0.58567 0.00515 0.0
H1652 H 0.55663 0.56026 0.01536 0.0
H1653 H 0.57441 0.78264 0.99145 0.0
H1654 H 0.52331 0.75342 0.98498 0.0
H1655 H 0.53037 0.77074 0.00705 0.0
H1656 H 0.39869 0.69556 0.98178 0.0
H1657 H 0.41903 0.73134 0.0353 0.0
H1658 H 0.50131 0.62695 0.97778 0.0
H1659 H 0.5021 0.68326 0.96901 0.0
H1660 H 0.4518 0.64896 0.96675 0.0
H1661 H 0.52471 0.67055 0.04102 0.0
H1662 H 0.48455 0.70928 0.05071 0.0
H1663 H 0.52933 0.73019 0.03693 0.0
C1664 C 0.3639 0.11095 0.25737 0.0
C1665 C 0.32386 0.13644 0.25623 0.0
C1666 C 0.36237 0.06323 0.25729 0.0
C1667 C 0.31973 0.04103 0.2563 0.0
C1668 C 0.27924 0.06706 0.25521 0.0
C1669 C 0.28191 0.11453 0.25507 0.0
C1670 C 0.40616 0.03664 0.25823 0.0
C1671 C 0.233 0.04479 0.25432 0.0
C1672 C 0.29444 0.92202 0.24121 0.0
C1673 C 0.2816 0.90157 0.25691 0.0
C1674 C 0.31198 0.96634 0.2409 0.0
C1675 C 0.31641 0.99067 0.25665 0.0
C1676 C 0.30896 0.96816 0.27261 0.0
C1677 C 0.29201 0.92364 0.27256 0.0
C1678 C 0.32089 0.98867 0.22362 0.0
C1679 C 0.31353 0.99271 0.28972 0.0
H1680 H 0.39628 0.12841 0.25822 0.0
H1681 H 0.25113 0.1347 0.25422 0.0
H1682 H 0.40632 0.01495 0.26999 0.0
H1683 H 0.40894 0.01369 0.24687 0.0
H1684 H 0.43651 0.05909 0.25856 0.0
H1685 H 0.20493 0.07 0.25374 0.0
H1686 H 0.23088 0.02275 0.24268 0.0
H1687 H 0.22775 0.02285 0.26585 0.0
H1688 H 0.28739 0.90492 0.22904 0.0
H1689 H 0.2829 0.90798 0.28479 0.0
H1690 H 0.35174 0.0103 0.22418 0.0
H1691 H 0.29173 0.01089 0.22024 0.0
H1692 H 0.32512 0.96322 0.2131 0.0
H1693 H 0.34443 0.01427 0.28993 0.0
H1694 H 0.31495 0.96869 0.30082 0.0
H1695 H 0.28373 0.01533 0.29155 0.0
C1696 C 0.92648 0.77713 0.02429 0.0
C1697 C 0.90316 0.77287 0.00848 0.0
C1698 C 0.97074 0.79483 0.02486 0.0
C1699 C 0.99184 0.80906 0.00928 0.0
C1700 C 0.96632 0.81037 0.99373 0.0
C1701 C 0.92219 0.79224 0.99351 0.0
C1702 C 0.99653 0.79334 0.04178 0.0
C1703 C 0.98719 0.82632 0.97692 0.0
C1704 C 0.11089 0.85968 0.01126 0.0
C1705 C 0.13748 0.82138 0.00769 0.0
C1706 C 0.0632 0.85658 0.01169 0.0
C1707 C 0.04212 0.81408 0.00864 0.0
C1708 C 0.06921 0.77533 0.00509 0.0
C1709 C 0.11661 0.77955 0.00461 0.0
C1710 C 0.03545 0.8986 0.01536 0.0
C1711 C 0.04817 0.72925 0.00188 0.0
H1712 H 0.91188 0.76302 0.03602 0.0
H1713 H 0.90421 0.78993 0.98127 0.0
H1714 H 0.0201 0.76389 0.04164 0.0
H1715 H 0.01731 0.82442 0.04354 0.0
H1716 H 0.97337 0.78965 0.05307 0.0
H1717 H 0.96089 0.83367 0.96696 0.0
H1718 H 0.00803 0.85725 0.97897 0.0
H1719 H 0.00997 0.79944 0.97179 0.0
H1720 H 0.12745 0.892 0.0136 0.0
H1721 H 0.13755 0.75004 0.00195 0.0
H1722 H 0.01435 0.89337 0.02712 0.0
H1723 H 0.01183 0.90522 0.00443 0.0
H1724 H 0.05708 0.9291 0.01734 0.0
H1725 H 0.02756 0.71889 0.01327 0.0
H1726 H 0.07411 0.7026 0.9994 0.0
H1727 H 0.025 0.73089 0.99055 0.0
C1728 C 0.13361 0.61169 0.26072 0.0
C1729 C 0.17064 0.63698 0.25467 0.0
C1730 C 0.13562 0.56403 0.26135 0.0
C1731 C 0.17615 0.54172 0.25628 0.0
C1732 C 0.21331 0.56745 0.24987 0.0
C1733 C 0.20986 0.61485 0.24898 0.0
C1734 C 0.09496 0.53778 0.26782 0.0
C1735 C 0.25741 0.54511 0.24454 0.0
C1736 C 0.21765 0.4307 0.27475 0.0
C1737 C 0.21703 0.40307 0.25991 0.0
C1738 C 0.20064 0.47515 0.27423 0.0
C1739 C 0.18161 0.4919 0.25863 0.0
C1740 C 0.17538 0.4622 0.2444 0.0
C1741 C 0.19348 0.41811 0.24515 0.0
C1742 C 0.20791 0.50563 0.28974 0.0
C1743 C 0.15362 0.47825 0.22777 0.0
H1744 H 0.10331 0.62926 0.2651 0.0
H1745 H 0.2384 0.63483 0.24439 0.0
H1746 H 0.08778 0.50845 0.25921 0.0
H1747 H 0.10221 0.52407 0.28093 0.0
H1748 H 0.06405 0.55936 0.26863 0.0
H1749 H 0.28278 0.57001 0.23969 0.0
H1750 H 0.27232 0.52682 0.25577 0.0
H1751 H 0.25103 0.51968 0.23422 0.0
H1752 H 0.23523 0.4193 0.28631 0.0
H1753 H 0.19203 0.39672 0.23372 0.0
H1754 H 0.17705 0.526 0.29249 0.0
H1755 H 0.23597 0.52973 0.28691 0.0
H1756 H 0.21695 0.48604 0.30156 0.0
H1757 H 0.12368 0.50002 0.23051 0.0
H1758 H 0.14279 0.44932 0.21949 0.0
H1759 H 0.17844 0.49894 0.22035 0.0
C1760 C 0.58019 0.69882 0.49384 0.0
C1761 C 0.59829 0.71878 0.50886 0.0
C1762 C 0.53612 0.6805 0.49379 0.0
C1763 C 0.50964 0.68242 0.5091 0.0
C1764 C 0.52974 0.69742 0.52476 0.0
C1765 C 0.574 0.71511 0.52448 0.0
C1766 C 0.51638 0.66357 0.47692 0.0
C1767 C 0.50286 0.69975 0.54142 0.0
C1768 C 0.38493 0.71114 0.50355 0.0
C1769 C 0.36407 0.66962 0.50721 0.0
C1770 C 0.43233 0.71547 0.50403 0.0
C1771 C 0.45944 0.67707 0.50808 0.0
C1772 C 0.43839 0.63474 0.5115 0.0
C1773 C 0.39071 0.63159 0.51114 0.0
C1774 C 0.45332 0.76137 0.50043 0.0
C1775 C 0.46617 0.59303 0.51563 0.0
H1776 H 0.59892 0.70064 0.48175 0.0
H1777 H 0.5878 0.72978 0.53625 0.0
H1778 H 0.49543 0.63274 0.47903 0.0
H1779 H 0.49394 0.69012 0.47135 0.0
H1780 H 0.54335 0.65569 0.46729 0.0
H1781 H 0.52524 0.70448 0.55289 0.0
H1782 H 0.47897 0.72888 0.54078 0.0
H1783 H 0.48235 0.66855 0.54331 0.0
H1784 H 0.36397 0.74043 0.50058 0.0
H1785 H 0.37417 0.59948 0.5139 0.0
H1786 H 0.47695 0.759 0.48925 0.0
H1787 H 0.47343 0.77266 0.51182 0.0
H1788 H 0.42739 0.78772 0.49751 0.0
H1789 H 0.4914 0.58683 0.5052 0.0
H1790 H 0.44469 0.56223 0.51713 0.0
H1791 H 0.48547 0.5984 0.52781 0.0
C1792 C 0.29229 0.07695 0.76629 0.0
C1793 C 0.26798 0.09232 0.75177 0.0
C1794 C 0.31181 0.03345 0.7665 0.0
C1795 C 0.30638 0.00471 0.75194 0.0
C1796 C 0.28652 0.02199 0.73658 0.0
C1797 C 0.26794 0.06582 0.73663 0.0
C1798 C 0.33415 0.01678 0.78293 0.0
C1799 C 0.28012 0.99256 0.72073 0.0
C1800 C 0.35882 0.88679 0.74948 0.0
C1801 C 0.32278 0.86001 0.7555 0.0
C1802 C 0.35477 0.9343 0.74873 0.0
C1803 C 0.31335 0.95496 0.75376 0.0
C1804 C 0.27707 0.92775 0.76 0.0
C1805 C 0.28244 0.88058 0.76092 0.0
C1806 C 0.39442 0.96225 0.74237 0.0
C1807 C 0.23213 0.94834 0.76533 0.0
H1808 H 0.29328 0.09747 0.77796 0.0
H1809 H 0.24988 0.07757 0.72522 0.0
H1810 H 0.31 0.99479 0.79013 0.0
H1811 H 0.36472 0.99614 0.77994 0.0
H1812 H 0.34416 0.04536 0.79153 0.0
H1813 H 0.27104 0.0129 0.7091 0.0
H1814 H 0.31134 0.97284 0.71787 0.0
H1815 H 0.25234 0.96787 0.7232 0.0
H1816 H 0.39008 0.87049 0.74539 0.0
H1817 H 0.25466 0.85953 0.7655 0.0
H1818 H 0.40197 0.99 0.75166 0.0
H1819 H 0.38568 0.97835 0.7298 0.0
H1820 H 0.42555 0.94142 0.74056 0.0
H1821 H 0.23745 0.97335 0.7759 0.0
H1822 H 0.20747 0.92236 0.76989 0.0
H1823 H 0.21688 0.96679 0.75421 0.0
loop_
_geom_bond_atom_site_label_1
_geom_bond_atom_site_label_2
_geom_bond_distance
_geom_bond_site_symmetry_2
_ccdc_geom_bond_type
Co0 O3 1.970 . S
Co0 N17 1.989 . S
Co0 O25 1.967 . S
Co0 O32 1.920 . S
Co1 O4 1.966 . S
Co1 N10 2.022 . S
Co1 N18 1.993 . S
Co1 O26 1.941 . S
C2 O3 1.258 . S
C2 O4 1.263 1_554 S
O3 Co0 1.970 . S
O3 C2 1.258 . S
O4 Co1 1.966 . S
O4 C2 1.263 1_556 S
C5 O6 1.235 . S
C5 O32 1.289 . S
O6 C5 1.235 . S
C7 C9 1.400 . S
C7 N10 1.351 . S
C7 C12 1.501 . S
C8 C9 1.387 . S
C8 N11 1.341 . S
C9 C7 1.400 . S
C9 C8 1.387 . S
N10 Co1 2.022 . S
N10 C7 1.351 . S
N10 N11 1.365 . S
N11 C8 1.341 . S
N11 N10 1.365 . S
N11 H31 0.862 . S
C12 C7 1.501 . S
C12 H13 0.961 . S
C12 H14 0.961 . S
C12 H15 0.960 . S
H13 C12 0.961 . S
H14 C12 0.961 . S
H15 C12 0.960 . S
C16 N17 1.342 . S
C16 C20 1.401 . S
C16 C21 1.499 . S
N17 Co0 1.989 . S
N17 C16 1.342 . S
N17 N18 1.388 1_554 S
N18 Co1 1.993 . S
N18 N17 1.388 1_556 S
N18 C19 1.346 . S
C19 N18 1.346 . S
C19 C20 1.396 1_556 S
C19 C29 1.510 . S
C20 C16 1.401 . S
C20 C19 1.396 1_554 S
C21 C16 1.499 . S
C21 H22 0.959 . S
C21 H23 0.960 . S
C21 H24 0.961 . S
H22 C21 0.959 . S
H23 C21 0.960 . S
H24 C21 0.961 . S
O25 Co0 1.967 . S
O25 C33 1.258 . S
O26 Co1 1.941 . S
O26 C33 1.266 1_556 S
H27 C29 0.959 . S
H28 C29 0.961 . S
C29 C19 1.510 . S
C29 H27 0.959 . S
C29 H28 0.961 . S
C29 H30 0.960 . S
H30 C29 0.960 . S
H31 N11 0.862 . S
O32 Co0 1.920 . S
O32 C5 1.289 . S
C33 O25 1.258 . S
C33 O26 1.266 1_554 S
Co34 O37 1.970 . S
Co34 N51 1.989 . S
Co34 O59 1.967 . S
Co34 O66 1.920 . S
Co35 O38 1.966 . S
Co35 N44 2.022 . S
Co35 N52 1.993 . S
Co35 O60 1.941 . S
C36 O37 1.258 . S
C36 O38 1.263 . S
O37 Co34 1.970 . S
O37 C36 1.258 . S
O38 Co35 1.966 . S
O38 C36 1.263 . S
C39 O40 1.235 . S
C39 O66 1.289 . S
O40 C39 1.235 . S
C41 C43 1.400 . S
C41 N44 1.351 . S
C41 C46 1.501 . S
C42 C43 1.387 . S
C42 N45 1.341 . S
C43 C41 1.400 . S
C43 C42 1.387 . S
N44 Co35 2.022 . S
N44 C41 1.351 . S
N44 N45 1.365 . S
N45 C42 1.341 . S
N45 N44 1.365 . S
N45 H65 0.862 . S
C46 C41 1.501 . S
C46 H47 0.961 . S
C46 H48 0.961 . S
C46 H49 0.960 . S
H47 C46 0.961 . S
H48 C46 0.961 . S
H49 C46 0.960 . S
C50 N51 1.342 . S
C50 C54 1.401 . S
C50 C55 1.499 . S
N51 Co34 1.989 . S
N51 C50 1.342 . S
N51 N52 1.388 . S
N52 Co35 1.993 . S
N52 N51 1.388 . S
N52 C53 1.346 . S
C53 N52 1.346 . S
C53 C54 1.396 . S
C53 C63 1.510 . S
C54 C50 1.401 . S
C54 C53 1.396 . S
C55 C50 1.499 . S
C55 H56 0.959 . S
C55 H57 0.960 . S
C55 H58 0.961 . S
H56 C55 0.959 . S
H57 C55 0.960 . S
H58 C55 0.961 . S
O59 Co34 1.967 . S
O59 C67 1.258 . S
O60 Co35 1.941 . S
O60 C67 1.266 . S
H61 C63 0.959 . S
H62 C63 0.961 . S
C63 C53 1.510 . S
C63 H61 0.959 . S
C63 H62 0.961 . S
C63 H64 0.960 . S
H64 C63 0.960 . S
H65 N45 0.862 . S
O66 Co34 1.920 . S
O66 C39 1.289 . S
C67 O59 1.258 . S
C67 O60 1.266 . S
Co68 O71 1.970 . S
Co68 N85 1.989 . S
Co68 O93 1.967 . S
Co68 O100 1.920 . S
Co69 O72 1.966 . S
Co69 N78 2.022 . S
Co69 N86 1.993 . S
Co69 O94 1.941 . S
C70 O71 1.258 . S
C70 O72 1.263 . S
O71 Co68 1.970 . S
O71 C70 1.258 . S
O72 Co69 1.966 . S
O72 C70 1.263 . S
C73 O74 1.235 . S
C73 O100 1.289 . S
O74 C73 1.235 . S
C75 C77 1.400 . S
C75 N78 1.351 . S
C75 C80 1.501 . S
C76 C77 1.387 . S
C76 N79 1.341 . S
C77 C75 1.400 . S
C77 C76 1.387 . S
N78 Co69 2.022 . S
N78 C75 1.351 . S
N78 N79 1.365 . S
N79 C76 1.341 . S
N79 N78 1.365 . S
N79 H99 0.862 . S
C80 C75 1.501 . S
C80 H81 0.961 . S
C80 H82 0.961 . S
C80 H83 0.960 . S
H81 C80 0.961 . S
H82 C80 0.961 . S
H83 C80 0.960 . S
C84 N85 1.342 . S
C84 C88 1.401 . S
C84 C89 1.499 . S
N85 Co68 1.989 . S
N85 C84 1.342 . S
N85 N86 1.388 . S
N86 Co69 1.993 . S
N86 N85 1.388 . S
N86 C87 1.346 . S
C87 N86 1.346 . S
C87 C88 1.396 . S
C87 C97 1.510 . S
C88 C84 1.401 . S
C88 C87 1.396 . S
C89 C84 1.499 . S
C89 H90 0.959 . S
C89 H91 0.960 . S
C89 H92 0.961 . S
H90 C89 0.959 . S
H91 C89 0.960 . S
H92 C89 0.961 . S
O93 Co68 1.967 . S
O93 C101 1.258 . S
O94 Co69 1.941 . S
O94 C101 1.266 . S
H95 C97 0.959 . S
H96 C97 0.961 . S
C97 C87 1.510 . S
C97 H95 0.959 . S
C97 H96 0.961 . S
C97 H98 0.960 . S
H98 C97 0.960 . S
H99 N79 0.862 . S
O100 Co68 1.920 . S
O100 C73 1.289 . S
C101 O93 1.258 . S
C101 O94 1.266 . S
Co102 O105 1.970 . S
Co102 N119 1.989 . S
Co102 O127 1.967 . S
Co102 O134 1.920 . S
Co103 O106 1.966 . S
Co103 N112 2.022 . S
Co103 N120 1.993 . S
Co103 O128 1.941 . S
C104 O105 1.258 . S
C104 O106 1.263 . S
O105 Co102 1.970 . S
O105 C104 1.258 . S
O106 Co103 1.966 . S
O106 C104 1.263 . S
C107 O108 1.235 . S
C107 O134 1.289 . S
O108 C107 1.235 . S
C109 C111 1.400 . S
C109 N112 1.351 . S
C109 C114 1.501 . S
C110 C111 1.387 . S
C110 N113 1.341 . S
C111 C109 1.400 . S
C111 C110 1.387 . S
N112 Co103 2.022 . S
N112 C109 1.351 . S
N112 N113 1.365 . S
N113 C110 1.341 . S
N113 N112 1.365 . S
N113 H133 0.862 . S
C114 C109 1.501 . S
C114 H115 0.961 . S
C114 H116 0.961 . S
C114 H117 0.960 . S
H115 C114 0.961 . S
H116 C114 0.961 . S
H117 C114 0.960 . S
C118 N119 1.342 . S
C118 C122 1.401 . S
C118 C123 1.499 . S
N119 Co102 1.989 . S
N119 C118 1.342 . S
N119 N120 1.388 . S
N120 Co103 1.993 . S
N120 N119 1.388 . S
N120 C121 1.346 . S
C121 N120 1.346 . S
C121 C122 1.396 . S
C121 C131 1.510 . S
C122 C118 1.401 . S
C122 C121 1.396 . S
C123 C118 1.499 . S
C123 H124 0.959 . S
C123 H125 0.960 . S
C123 H126 0.961 . S
H124 C123 0.959 . S
H125 C123 0.960 . S
H126 C123 0.961 . S
O127 Co102 1.967 . S
O127 C135 1.258 . S
O128 Co103 1.941 . S
O128 C135 1.266 . S
H129 C131 0.959 . S
H130 C131 0.961 . S
C131 C121 1.510 . S
C131 H129 0.959 . S
C131 H130 0.961 . S
C131 H132 0.960 . S
H132 C131 0.960 . S
H133 N113 0.862 . S
O134 Co102 1.920 . S
O134 C107 1.289 . S
C135 O127 1.258 . S
C135 O128 1.266 . S
Co136 O139 1.970 . S
Co136 N153 1.989 . S
Co136 O161 1.967 . S
Co136 O168 1.920 . S
Co137 O140 1.966 . S
Co137 N146 2.022 . S
Co137 N154 1.993 . S
Co137 O162 1.941 . S
C138 O139 1.258 . S
C138 O140 1.263 . S
O139 Co136 1.970 . S
O139 C138 1.258 . S
O140 Co137 1.966 . S
O140 C138 1.263 . S
C141 O142 1.235 . S
C141 O168 1.289 . S
O142 C141 1.235 . S
C143 C145 1.400 . S
C143 N146 1.351 . S
C143 C148 1.501 . S
C144 C145 1.387 . S
C144 N147 1.341 . S
C145 C143 1.400 . S
C145 C144 1.387 . S
N146 Co137 2.022 . S
N146 C143 1.351 . S
N146 N147 1.365 . S
N147 C144 1.341 . S
N147 N146 1.365 . S
N147 H167 0.862 . S
C148 C143 1.501 . S
C148 H149 0.961 . S
C148 H150 0.961 . S
C148 H151 0.960 . S
H149 C148 0.961 . S
H150 C148 0.961 . S
H151 C148 0.960 . S
C152 N153 1.342 . S
C152 C156 1.401 . S
C152 C157 1.499 . S
N153 Co136 1.989 . S
N153 C152 1.342 . S
N153 N154 1.388 . S
N154 Co137 1.993 . S
N154 N153 1.388 . S
N154 C155 1.346 . S
C155 N154 1.346 . S
C155 C156 1.396 . S
C155 C165 1.510 . S
C156 C152 1.401 . S
C156 C155 1.396 . S
C157 C152 1.499 . S
C157 H158 0.959 . S
C157 H159 0.960 . S
C157 H160 0.961 . S
H158 C157 0.959 . S
H159 C157 0.960 . S
H160 C157 0.961 . S
O161 Co136 1.967 . S
O161 C169 1.258 . S
O162 Co137 1.941 . S
O162 C169 1.266 . S
H163 C165 0.959 . S
H164 C165 0.961 . S
C165 C155 1.510 . S
C165 H163 0.959 . S
C165 H164 0.961 . S
C165 H166 0.960 . S
H166 C165 0.960 . S
H167 N147 0.862 . S
O168 Co136 1.920 . S
O168 C141 1.289 . S
C169 O161 1.258 . S
C169 O162 1.266 . S
Co170 O173 1.970 . S
Co170 N187 1.989 . S
Co170 O195 1.967 . S
Co170 O202 1.920 . S
Co171 O174 1.966 . S
Co171 N180 2.022 . S
Co171 N188 1.993 . S
Co171 O196 1.941 . S
C172 O173 1.258 . S
C172 O174 1.263 . S
O173 Co170 1.970 . S
O173 C172 1.258 . S
O174 Co171 1.966 . S
O174 C172 1.263 . S
C175 O176 1.235 . S
C175 O202 1.289 . S
O176 C175 1.235 . S
C177 C179 1.400 . S
C177 N180 1.351 . S
C177 C182 1.501 . S
C178 C179 1.387 . S
C178 N181 1.341 . S
C179 C177 1.400 . S
C179 C178 1.387 . S
N180 Co171 2.022 . S
N180 C177 1.351 . S
N180 N181 1.365 . S
N181 C178 1.341 . S
N181 N180 1.365 . S
N181 H201 0.862 . S
C182 C177 1.501 . S
C182 H183 0.961 . S
C182 H184 0.961 . S
C182 H185 0.960 . S
H183 C182 0.961 . S
H184 C182 0.961 . S
H185 C182 0.960 . S
C186 N187 1.342 . S
C186 C190 1.401 . S
C186 C191 1.499 . S
N187 Co170 1.989 . S
N187 C186 1.342 . S
N187 N188 1.388 . S
N188 Co171 1.993 . S
N188 N187 1.388 . S
N188 C189 1.346 . S
C189 N188 1.346 . S
C189 C190 1.396 . S
C189 C199 1.510 . S
C190 C186 1.401 . S
C190 C189 1.396 . S
C191 C186 1.499 . S
C191 H192 0.959 . S
C191 H193 0.960 . S
C191 H194 0.961 . S
H192 C191 0.959 . S
H193 C191 0.960 . S
H194 C191 0.961 . S
O195 Co170 1.967 . S
O195 C203 1.258 . S
O196 Co171 1.941 . S
O196 C203 1.266 . S
H197 C199 0.959 . S
H198 C199 0.961 . S
C199 C189 1.510 . S
C199 H197 0.959 . S
C199 H198 0.961 . S
C199 H200 0.960 . S
H200 C199 0.960 . S
H201 N181 0.862 . S
O202 Co170 1.920 . S
O202 C175 1.289 . S
C203 O195 1.258 . S
C203 O196 1.266 . S
Co204 O207 1.970 . S
Co204 N221 1.989 . S
Co204 O229 1.967 . S
Co204 O236 1.920 . S
Co205 O208 1.966 . S
Co205 N214 2.022 . S
Co205 N222 1.993 . S
Co205 O230 1.941 . S
C206 O207 1.258 . S
C206 O208 1.263 1_554 S
O207 Co204 1.970 . S
O207 C206 1.258 . S
O208 Co205 1.966 . S
O208 C206 1.263 1_556 S
C209 O210 1.235 . S
C209 O236 1.289 . S
O210 C209 1.235 . S
C211 C213 1.400 . S
C211 N214 1.351 . S
C211 C216 1.501 . S
C212 C213 1.387 . S
C212 N215 1.341 . S
C213 C211 1.400 . S
C213 C212 1.387 . S
N214 Co205 2.022 . S
N214 C211 1.351 . S
N214 N215 1.365 . S
N215 C212 1.341 . S
N215 N214 1.365 . S
N215 H235 0.862 . S
C216 C211 1.501 . S
C216 H217 0.961 . S
C216 H218 0.961 . S
C216 H219 0.960 . S
H217 C216 0.961 . S
H218 C216 0.961 . S
H219 C216 0.960 . S
C220 N221 1.342 . S
C220 C224 1.401 . S
C220 C225 1.499 . S
N221 Co204 1.989 . S
N221 C220 1.342 . S
N221 N222 1.388 1_554 S
N222 Co205 1.993 . S
N222 N221 1.388 1_556 S
N222 C223 1.346 . S
C223 N222 1.346 . S
C223 C224 1.396 1_556 S
C223 C233 1.510 . S
C224 C220 1.401 . S
C224 C223 1.396 1_554 S
C225 C220 1.499 . S
C225 H226 0.959 . S
C225 H227 0.960 . S
C225 H228 0.961 . S
H226 C225 0.959 . S
H227 C225 0.960 . S
H228 C225 0.961 . S
O229 Co204 1.967 . S
O229 C237 1.258 . S
O230 Co205 1.941 . S
O230 C237 1.266 1_556 S
H231 C233 0.959 . S
H232 C233 0.961 . S
C233 C223 1.510 . S
C233 H231 0.959 . S
C233 H232 0.961 . S
C233 H234 0.960 . S
H234 C233 0.960 . S
H235 N215 0.862 . S
O236 Co204 1.920 . S
O236 C209 1.289 . S
C237 O229 1.258 . S
C237 O230 1.266 1_554 S
Co238 O241 1.970 . S
Co238 N255 1.989 . S
Co238 O263 1.967 . S
Co238 O270 1.920 . S
Co239 O242 1.966 . S
Co239 N248 2.022 . S
Co239 N256 1.993 . S
Co239 O264 1.941 . S
C240 O241 1.258 . S
C240 O242 1.263 . S
O241 Co238 1.970 . S
O241 C240 1.258 . S
O242 Co239 1.966 . S
O242 C240 1.263 . S
C243 O244 1.235 . S
C243 O270 1.289 . S
O244 C243 1.235 . S
C245 C247 1.400 . S
C245 N248 1.351 . S
C245 C250 1.501 . S
C246 C247 1.387 . S
C246 N249 1.341 . S
C247 C245 1.400 . S
C247 C246 1.387 . S
N248 Co239 2.022 . S
N248 C245 1.351 . S
N248 N249 1.365 . S
N249 C246 1.341 . S
N249 N248 1.365 . S
N249 H269 0.862 . S
C250 C245 1.501 . S
C250 H251 0.961 . S
C250 H252 0.961 . S
C250 H253 0.960 . S
H251 C250 0.961 . S
H252 C250 0.961 . S
H253 C250 0.960 . S
C254 N255 1.342 . S
C254 C258 1.401 . S
C254 C259 1.499 . S
N255 Co238 1.989 . S
N255 C254 1.342 . S
N255 N256 1.388 . S
N256 Co239 1.993 . S
N256 N255 1.388 . S
N256 C257 1.346 . S
C257 N256 1.346 . S
C257 C258 1.396 . S
C257 C267 1.510 . S
C258 C254 1.401 . S
C258 C257 1.396 . S
C259 C254 1.499 . S
C259 H260 0.959 . S
C259 H261 0.960 . S
C259 H262 0.961 . S
H260 C259 0.959 . S
H261 C259 0.960 . S
H262 C259 0.961 . S
O263 Co238 1.967 . S
O263 C271 1.258 . S
O264 Co239 1.941 . S
O264 C271 1.266 . S
H265 C267 0.959 . S
H266 C267 0.961 . S
C267 C257 1.510 . S
C267 H265 0.959 . S
C267 H266 0.961 . S
C267 H268 0.960 . S
H268 C267 0.960 . S
H269 N249 0.862 . S
O270 Co238 1.920 . S
O270 C243 1.289 . S
C271 O263 1.258 . S
C271 O264 1.266 . S
Co272 O275 1.970 . S
Co272 N289 1.989 . S
Co272 O297 1.967 . S
Co272 O304 1.920 . S
Co273 O276 1.966 . S
Co273 N282 2.022 . S
Co273 N290 1.993 . S
Co273 O298 1.941 . S
C274 O275 1.258 . S
C274 O276 1.263 . S
O275 Co272 1.970 . S
O275 C274 1.258 . S
O276 Co273 1.966 . S
O276 C274 1.263 . S
C277 O278 1.235 . S
C277 O304 1.289 . S
O278 C277 1.235 . S
C279 C281 1.400 . S
C279 N282 1.351 . S
C279 C284 1.501 . S
C280 C281 1.387 . S
C280 N283 1.341 . S
C281 C279 1.400 . S
C281 C280 1.387 . S
N282 Co273 2.022 . S
N282 C279 1.351 . S
N282 N283 1.365 . S
N283 C280 1.341 . S
N283 N282 1.365 . S
N283 H303 0.862 . S
C284 C279 1.501 . S
C284 H285 0.961 . S
C284 H286 0.961 . S
C284 H287 0.960 . S
H285 C284 0.961 . S
H286 C284 0.961 . S
H287 C284 0.960 . S
C288 N289 1.342 . S
C288 C292 1.401 . S
C288 C293 1.499 . S
N289 Co272 1.989 . S
N289 C288 1.342 . S
N289 N290 1.388 . S
N290 Co273 1.993 . S
N290 N289 1.388 . S
N290 C291 1.346 . S
C291 N290 1.346 . S
C291 C292 1.396 . S
C291 C301 1.510 . S
C292 C288 1.401 . S
C292 C291 1.396 . S
C293 C288 1.499 . S
C293 H294 0.959 . S
C293 H295 0.960 . S
C293 H296 0.961 . S
H294 C293 0.959 . S
H295 C293 0.960 . S
H296 C293 0.961 . S
O297 Co272 1.967 . S
O297 C305 1.258 . S
O298 Co273 1.941 . S
O298 C305 1.266 . S
H299 C301 0.959 . S
H300 C301 0.961 . S
C301 C291 1.510 . S
C301 H299 0.959 . S
C301 H300 0.961 . S
C301 H302 0.960 . S
H302 C301 0.960 . S
H303 N283 0.862 . S
O304 Co272 1.920 . S
O304 C277 1.289 . S
C305 O297 1.258 . S
C305 O298 1.266 . S
Co306 O309 1.970 . S
Co306 N323 1.989 . S
Co306 O331 1.967 . S
Co306 O338 1.920 . S
Co307 O310 1.966 . S
Co307 N316 2.022 . S
Co307 N324 1.993 . S
Co307 O332 1.941 . S
C308 O309 1.258 . S
C308 O310 1.263 . S
O309 Co306 1.970 . S
O309 C308 1.258 . S
O310 Co307 1.966 . S
O310 C308 1.263 . S
C311 O312 1.235 . S
C311 O338 1.289 . S
O312 C311 1.235 . S
C313 C315 1.400 . S
C313 N316 1.351 . S
C313 C318 1.501 . S
C314 C315 1.387 . S
C314 N317 1.341 . S
C315 C313 1.400 . S
C315 C314 1.387 . S
N316 Co307 2.022 . S
N316 C313 1.351 . S
N316 N317 1.365 . S
N317 C314 1.341 . S
N317 N316 1.365 . S
N317 H337 0.862 . S
C318 C313 1.501 . S
C318 H319 0.961 . S
C318 H320 0.961 . S
C318 H321 0.960 . S
H319 C318 0.961 . S
H320 C318 0.961 . S
H321 C318 0.960 . S
C322 N323 1.342 . S
C322 C326 1.401 . S
C322 C327 1.499 . S
N323 Co306 1.989 . S
N323 C322 1.342 . S
N323 N324 1.388 . S
N324 Co307 1.993 . S
N324 N323 1.388 . S
N324 C325 1.346 . S
C325 N324 1.346 . S
C325 C326 1.396 . S
C325 C335 1.510 . S
C326 C322 1.401 . S
C326 C325 1.396 . S
C327 C322 1.499 . S
C327 H328 0.959 . S
C327 H329 0.960 . S
C327 H330 0.961 . S
H328 C327 0.959 . S
H329 C327 0.960 . S
H330 C327 0.961 . S
O331 Co306 1.967 . S
O331 C339 1.258 . S
O332 Co307 1.941 . S
O332 C339 1.266 . S
H333 C335 0.959 . S
H334 C335 0.961 . S
C335 C325 1.510 . S
C335 H333 0.959 . S
C335 H334 0.961 . S
C335 H336 0.960 . S
H336 C335 0.960 . S
H337 N317 0.862 . S
O338 Co306 1.920 . S
O338 C311 1.289 . S
C339 O331 1.258 . S
C339 O332 1.266 . S
Co340 O343 1.970 . S
Co340 N357 1.989 . S
Co340 O365 1.967 . S
Co340 O372 1.920 . S
Co341 O344 1.966 . S
Co341 N350 2.022 . S
Co341 N358 1.993 . S
Co341 O366 1.941 . S
C342 O343 1.258 . S
C342 O344 1.263 1_554 S
O343 Co340 1.970 . S
O343 C342 1.258 . S
O344 Co341 1.966 . S
O344 C342 1.263 1_556 S
C345 O346 1.235 . S
C345 O372 1.289 . S
O346 C345 1.235 . S
C347 C349 1.400 . S
C347 N350 1.351 . S
C347 C352 1.501 . S
C348 C349 1.387 . S
C348 N351 1.341 . S
C349 C347 1.400 . S
C349 C348 1.387 . S
N350 Co341 2.022 . S
N350 C347 1.351 . S
N350 N351 1.365 . S
N351 C348 1.341 . S
N351 N350 1.365 . S
N351 H371 0.862 . S
C352 C347 1.501 . S
C352 H353 0.961 . S
C352 H354 0.961 . S
C352 H355 0.960 . S
H353 C352 0.961 . S
H354 C352 0.961 . S
H355 C352 0.960 . S
C356 N357 1.342 . S
C356 C360 1.401 . S
C356 C361 1.499 . S
N357 Co340 1.989 . S
N357 C356 1.342 . S
N357 N358 1.388 1_554 S
N358 Co341 1.993 . S
N358 N357 1.388 1_556 S
N358 C359 1.346 . S
C359 N358 1.346 . S
C359 C360 1.396 1_556 S
C359 C369 1.510 . S
C360 C356 1.401 . S
C360 C359 1.396 1_554 S
C361 C356 1.499 . S
C361 H362 0.959 . S
C361 H363 0.960 . S
C361 H364 0.961 . S
H362 C361 0.959 . S
H363 C361 0.960 . S
H364 C361 0.961 . S
O365 Co340 1.967 . S
O365 C373 1.258 . S
O366 Co341 1.941 . S
O366 C373 1.266 1_556 S
H367 C369 0.959 . S
H368 C369 0.961 . S
C369 C359 1.510 . S
C369 H367 0.959 . S
C369 H368 0.961 . S
C369 H370 0.960 . S
H370 C369 0.960 . S
H371 N351 0.862 . S
O372 Co340 1.920 . S
O372 C345 1.289 . S
C373 O365 1.258 . S
C373 O366 1.266 1_554 S
Co374 O377 1.970 . S
Co374 N391 1.989 . S
Co374 O399 1.967 . S
Co374 O406 1.920 . S
Co375 O378 1.966 . S
Co375 N384 2.022 . S
Co375 N392 1.993 . S
Co375 O400 1.941 . S
C376 O377 1.258 . S
C376 O378 1.263 . S
O377 Co374 1.970 . S
O377 C376 1.258 . S
O378 Co375 1.966 . S
O378 C376 1.263 . S
C379 O380 1.235 . S
C379 O406 1.289 . S
O380 C379 1.235 . S
C381 C383 1.400 . S
C381 N384 1.351 . S
C381 C386 1.501 . S
C382 C383 1.387 . S
C382 N385 1.341 . S
C383 C381 1.400 . S
C383 C382 1.387 . S
N384 Co375 2.022 . S
N384 C381 1.351 . S
N384 N385 1.365 . S
N385 C382 1.341 . S
N385 N384 1.365 . S
N385 H405 0.862 . S
C386 C381 1.501 . S
C386 H387 0.961 . S
C386 H388 0.961 . S
C386 H389 0.960 . S
H387 C386 0.961 . S
H388 C386 0.961 . S
H389 C386 0.960 . S
C390 N391 1.342 . S
C390 C394 1.401 . S
C390 C395 1.499 . S
N391 Co374 1.989 . S
N391 C390 1.342 . S
N391 N392 1.388 . S
N392 Co375 1.993 . S
N392 N391 1.388 . S
N392 C393 1.346 . S
C393 N392 1.346 . S
C393 C394 1.396 . S
C393 C403 1.510 . S
C394 C390 1.401 . S
C394 C393 1.396 . S
C395 C390 1.499 . S
C395 H396 0.959 . S
C395 H397 0.960 . S
C395 H398 0.961 . S
H396 C395 0.959 . S
H397 C395 0.960 . S
H398 C395 0.961 . S
O399 Co374 1.967 . S
O399 C407 1.258 . S
O400 Co375 1.941 . S
O400 C407 1.266 . S
H401 C403 0.959 . S
H402 C403 0.961 . S
C403 C393 1.510 . S
C403 H401 0.959 . S
C403 H402 0.961 . S
C403 H404 0.960 . S
H404 C403 0.960 . S
H405 N385 0.862 . S
O406 Co374 1.920 . S
O406 C379 1.289 . S
C407 O399 1.258 . S
C407 O400 1.266 . S
Co408 O411 1.970 . S
Co408 N425 1.989 . S
Co408 O433 1.967 . S
Co408 O440 1.920 . S
Co409 O412 1.966 . S
Co409 N418 2.022 . S
Co409 N426 1.993 . S
Co409 O434 1.941 . S
C410 O411 1.258 . S
C410 O412 1.263 1_554 S
O411 Co408 1.970 . S
O411 C410 1.258 . S
O412 Co409 1.966 . S
O412 C410 1.263 1_556 S
C413 O414 1.235 . S
C413 O440 1.289 . S
O414 C413 1.235 . S
C415 C417 1.400 . S
C415 N418 1.351 . S
C415 C420 1.501 . S
C416 C417 1.387 . S
C416 N419 1.341 . S
C417 C415 1.400 . S
C417 C416 1.387 . S
N418 Co409 2.022 . S
N418 C415 1.351 . S
N418 N419 1.365 . S
N419 C416 1.341 . S
N419 N418 1.365 . S
N419 H439 0.862 . S
C420 C415 1.501 . S
C420 H421 0.961 . S
C420 H422 0.961 . S
C420 H423 0.960 . S
H421 C420 0.961 . S
H422 C420 0.961 . S
H423 C420 0.960 . S
C424 N425 1.342 . S
C424 C428 1.401 . S
C424 C429 1.499 . S
N425 Co408 1.989 . S
N425 C424 1.342 . S
N425 N426 1.388 1_554 S
N426 Co409 1.993 . S
N426 N425 1.388 1_556 S
N426 C427 1.346 . S
C427 N426 1.346 . S
C427 C428 1.396 1_556 S
C427 C437 1.510 . S
C428 C424 1.401 . S
C428 C427 1.396 1_554 S
C429 C424 1.499 . S
C429 H430 0.959 . S
C429 H431 0.960 . S
C429 H432 0.961 . S
H430 C429 0.959 . S
H431 C429 0.960 . S
H432 C429 0.961 . S
O433 Co408 1.967 . S
O433 C441 1.258 . S
O434 Co409 1.941 . S
O434 C441 1.266 1_556 S
H435 C437 0.959 . S
H436 C437 0.961 . S
C437 C427 1.510 . S
C437 H435 0.959 . S
C437 H436 0.961 . S
C437 H438 0.960 . S
H438 C437 0.960 . S
H439 N419 0.862 . S
O440 Co408 1.920 . S
O440 C413 1.289 . S
C441 O433 1.258 . S
C441 O434 1.266 1_554 S
Co442 O445 1.970 . S
Co442 N459 1.989 . S
Co442 O467 1.967 . S
Co442 O474 1.920 . S
Co443 O446 1.966 . S
Co443 N452 2.022 . S
Co443 N460 1.993 . S
Co443 O468 1.941 . S
C444 O445 1.258 . S
C444 O446 1.263 . S
O445 Co442 1.970 . S
O445 C444 1.258 . S
O446 Co443 1.966 . S
O446 C444 1.263 . S
C447 O448 1.235 . S
C447 O474 1.289 . S
O448 C447 1.235 . S
C449 C451 1.400 . S
C449 N452 1.351 . S
C449 C454 1.501 . S
C450 C451 1.387 . S
C450 N453 1.341 . S
C451 C449 1.400 . S
C451 C450 1.387 . S
N452 Co443 2.022 . S
N452 C449 1.351 . S
N452 N453 1.365 . S
N453 C450 1.341 . S
N453 N452 1.365 . S
N453 H473 0.862 . S
C454 C449 1.501 . S
C454 H455 0.961 . S
C454 H456 0.961 . S
C454 H457 0.960 . S
H455 C454 0.961 . S
H456 C454 0.961 . S
H457 C454 0.960 . S
C458 N459 1.342 . S
C458 C462 1.401 . S
C458 C463 1.499 . S
N459 Co442 1.989 . S
N459 C458 1.342 . S
N459 N460 1.388 . S
N460 Co443 1.993 . S
N460 N459 1.388 . S
N460 C461 1.346 . S
C461 N460 1.346 . S
C461 C462 1.396 . S
C461 C471 1.510 . S
C462 C458 1.401 . S
C462 C461 1.396 . S
C463 C458 1.499 . S
C463 H464 0.959 . S
C463 H465 0.960 . S
C463 H466 0.961 . S
H464 C463 0.959 . S
H465 C463 0.960 . S
H466 C463 0.961 . S
O467 Co442 1.967 . S
O467 C475 1.258 . S
O468 Co443 1.941 . S
O468 C475 1.266 . S
H469 C471 0.959 . S
H470 C471 0.961 . S
C471 C461 1.510 . S
C471 H469 0.959 . S
C471 H470 0.961 . S
C471 H472 0.960 . S
H472 C471 0.960 . S
H473 N453 0.862 . S
O474 Co442 1.920 . S
O474 C447 1.289 . S
C475 O467 1.258 . S
C475 O468 1.266 . S
Co476 O479 1.970 . S
Co476 N493 1.989 . S
Co476 O501 1.967 . S
Co476 O508 1.920 . S
Co477 O480 1.966 . S
Co477 N486 2.022 . S
Co477 N494 1.993 . S
Co477 O502 1.941 . S
C478 O479 1.258 . S
C478 O480 1.263 . S
O479 Co476 1.970 . S
O479 C478 1.258 . S
O480 Co477 1.966 . S
O480 C478 1.263 . S
C481 O482 1.235 . S
C481 O508 1.289 . S
O482 C481 1.235 . S
C483 C485 1.400 . S
C483 N486 1.351 . S
C483 C488 1.501 . S
C484 C485 1.387 . S
C484 N487 1.341 . S
C485 C483 1.400 . S
C485 C484 1.387 . S
N486 Co477 2.022 . S
N486 C483 1.351 . S
N486 N487 1.365 . S
N487 C484 1.341 . S
N487 N486 1.365 . S
N487 H507 0.862 . S
C488 C483 1.501 . S
C488 H489 0.961 . S
C488 H490 0.961 . S
C488 H491 0.960 . S
H489 C488 0.961 . S
H490 C488 0.961 . S
H491 C488 0.960 . S
C492 N493 1.342 . S
C492 C496 1.401 . S
C492 C497 1.499 . S
N493 Co476 1.989 . S
N493 C492 1.342 . S
N493 N494 1.388 . S
N494 Co477 1.993 . S
N494 N493 1.388 . S
N494 C495 1.346 . S
C495 N494 1.346 . S
C495 C496 1.396 . S
C495 C505 1.510 . S
C496 C492 1.401 . S
C496 C495 1.396 . S
C497 C492 1.499 . S
C497 H498 0.959 . S
C497 H499 0.960 . S
C497 H500 0.961 . S
H498 C497 0.959 . S
H499 C497 0.960 . S
H500 C497 0.961 . S
O501 Co476 1.967 . S
O501 C509 1.258 . S
O502 Co477 1.941 . S
O502 C509 1.266 . S
H503 C505 0.959 . S
H504 C505 0.961 . S
C505 C495 1.510 . S
C505 H503 0.959 . S
C505 H504 0.961 . S
C505 H506 0.960 . S
H506 C505 0.960 . S
H507 N487 0.862 . S
O508 Co476 1.920 . S
O508 C481 1.289 . S
C509 O501 1.258 . S
C509 O502 1.266 . S
Co510 O513 1.970 . S
Co510 N527 1.989 . S
Co510 O535 1.967 . S
Co510 O542 1.920 . S
Co511 O514 1.966 . S
Co511 N520 2.022 . S
Co511 N528 1.993 . S
Co511 O536 1.941 . S
C512 O513 1.258 . S
C512 O514 1.263 . S
O513 Co510 1.970 . S
O513 C512 1.258 . S
O514 Co511 1.966 . S
O514 C512 1.263 . S
C515 O516 1.235 . S
C515 O542 1.289 . S
O516 C515 1.235 . S
C517 C519 1.400 . S
C517 N520 1.351 . S
C517 C522 1.501 . S
C518 C519 1.387 . S
C518 N521 1.341 . S
C519 C517 1.400 . S
C519 C518 1.387 . S
N520 Co511 2.022 . S
N520 C517 1.351 . S
N520 N521 1.365 . S
N521 C518 1.341 . S
N521 N520 1.365 . S
N521 H541 0.862 . S
C522 C517 1.501 . S
C522 H523 0.961 . S
C522 H524 0.961 . S
C522 H525 0.960 . S
H523 C522 0.961 . S
H524 C522 0.961 . S
H525 C522 0.960 . S
C526 N527 1.342 . S
C526 C530 1.401 . S
C526 C531 1.499 . S
N527 Co510 1.989 . S
N527 C526 1.342 . S
N527 N528 1.388 . S
N528 Co511 1.993 . S
N528 N527 1.388 . S
N528 C529 1.346 . S
C529 N528 1.346 . S
C529 C530 1.396 . S
C529 C539 1.510 . S
C530 C526 1.401 . S
C530 C529 1.396 . S
C531 C526 1.499 . S
C531 H532 0.959 . S
C531 H533 0.960 . S
C531 H534 0.961 . S
H532 C531 0.959 . S
H533 C531 0.960 . S
H534 C531 0.961 . S
O535 Co510 1.967 . S
O535 C543 1.258 . S
O536 Co511 1.941 . S
O536 C543 1.266 . S
H537 C539 0.959 . S
H538 C539 0.961 . S
C539 C529 1.510 . S
C539 H537 0.959 . S
C539 H538 0.961 . S
C539 H540 0.960 . S
H540 C539 0.960 . S
H541 N521 0.862 . S
O542 Co510 1.920 . S
O542 C515 1.289 . S
C543 O535 1.258 . S
C543 O536 1.266 . S
C544 C545 1.391 . S
C544 C546 1.394 . S
C544 H560 0.931 . S
C545 C544 1.391 . S
C545 C549 1.376 . S
C546 C544 1.394 . S
C546 C547 1.369 . S
C546 C550 1.531 . S
C547 C546 1.369 . S
C547 C548 1.410 . S
C547 C555 1.503 . S
C548 C547 1.410 . S
C548 C549 1.392 . S
C548 C551 1.511 . S
C549 C545 1.376 . S
C549 C548 1.392 . S
C549 H561 0.929 . S
C550 C546 1.531 . S
C550 H562 0.960 . S
C550 H563 0.962 . S
C550 H564 0.960 . S
C551 C548 1.511 . S
C551 H565 0.961 . S
C551 H566 0.961 . S
C551 H567 0.961 . S
C552 C553 1.370 . S
C552 C554 1.363 . S
C552 H568 0.931 . S
C553 C552 1.370 . S
C553 C557 1.408 . S
C554 C552 1.363 . S
C554 C555 1.370 . S
C554 C558 1.524 . S
C555 C547 1.503 . S
C555 C554 1.370 . S
C555 C556 1.403 . S
C556 C555 1.403 . S
C556 C557 1.404 . S
C556 C559 1.539 . S
C557 C553 1.408 . S
C557 C556 1.404 . S
C557 H569 0.930 . S
C558 C554 1.524 . S
C558 H570 0.956 . S
C558 H571 0.961 . S
C558 H572 0.961 . S
C559 C556 1.539 . S
C559 H573 0.958 . S
C559 H574 0.961 . S
C559 H575 0.960 . S
H560 C544 0.931 . S
H561 C549 0.929 . S
H562 C550 0.960 . S
H563 C550 0.962 . S
H564 C550 0.960 . S
H565 C551 0.961 . S
H566 C551 0.961 . S
H567 C551 0.961 . S
H568 C552 0.931 . S
H569 C557 0.930 . S
H570 C558 0.956 . S
H571 C558 0.961 . S
H572 C558 0.961 . S
H573 C559 0.958 . S
H574 C559 0.961 . S
H575 C559 0.960 . S
C576 C577 1.391 . S
C576 C578 1.394 . S
C576 H592 0.931 . S
C577 C576 1.391 . S
C577 C581 1.376 . S
C578 C576 1.394 . S
C578 C579 1.369 . S
C578 C582 1.531 . S
C579 C578 1.369 . S
C579 C580 1.410 . S
C579 C587 1.503 . S
C580 C579 1.410 . S
C580 C581 1.392 . S
C580 C583 1.511 . S
C581 C577 1.376 . S
C581 C580 1.392 . S
C581 H593 0.929 . S
C582 C578 1.531 . S
C582 H594 0.960 . S
C582 H595 0.962 . S
C582 H596 0.960 . S
C583 C580 1.511 . S
C583 H597 0.961 . S
C583 H598 0.961 . S
C583 H599 0.961 . S
C584 C585 1.370 . S
C584 C586 1.363 . S
C584 H600 0.931 . S
C585 C584 1.370 . S
C585 C589 1.408 . S
C586 C584 1.363 . S
C586 C587 1.370 . S
C586 C590 1.524 . S
C587 C579 1.503 . S
C587 C586 1.370 . S
C587 C588 1.403 . S
C588 C587 1.403 . S
C588 C589 1.404 . S
C588 C591 1.539 . S
C589 C585 1.408 . S
C589 C588 1.404 . S
C589 H601 0.930 . S
C590 C586 1.524 . S
C590 H602 0.956 . S
C590 H603 0.961 . S
C590 H604 0.961 . S
C591 C588 1.539 . S
C591 H605 0.958 . S
C591 H606 0.961 . S
C591 H607 0.960 . S
H592 C576 0.931 . S
H593 C581 0.929 . S
H594 C582 0.960 . S
H595 C582 0.962 . S
H596 C582 0.960 . S
H597 C583 0.961 . S
H598 C583 0.961 . S
H599 C583 0.961 . S
H600 C584 0.931 . S
H601 C589 0.930 . S
H602 C590 0.956 . S
H603 C590 0.961 . S
H604 C590 0.961 . S
H605 C591 0.958 . S
H606 C591 0.961 . S
H607 C591 0.960 . S
C608 C609 1.391 . S
C608 C610 1.394 . S
C608 H624 0.931 . S
C609 C608 1.391 . S
C609 C613 1.376 . S
C610 C608 1.394 . S
C610 C611 1.369 . S
C610 C614 1.531 . S
C611 C610 1.369 . S
C611 C612 1.410 . S
C611 C619 1.503 . S
C612 C611 1.410 . S
C612 C613 1.392 . S
C612 C615 1.511 . S
C613 C609 1.376 . S
C613 C612 1.392 . S
C613 H625 0.929 . S
C614 C610 1.531 . S
C614 H626 0.960 . S
C614 H627 0.962 . S
C614 H628 0.960 . S
C615 C612 1.511 . S
C615 H629 0.961 . S
C615 H630 0.961 . S
C615 H631 0.961 . S
C616 C617 1.370 . S
C616 C618 1.363 . S
C616 H632 0.931 . S
C617 C616 1.370 . S
C617 C621 1.408 . S
C618 C616 1.363 . S
C618 C619 1.370 . S
C618 C622 1.524 . S
C619 C611 1.503 . S
C619 C618 1.370 . S
C619 C620 1.403 . S
C620 C619 1.403 . S
C620 C621 1.404 . S
C620 C623 1.539 . S
C621 C617 1.408 . S
C621 C620 1.404 . S
C621 H633 0.930 . S
C622 C618 1.524 . S
C622 H634 0.956 . S
C622 H635 0.961 . S
C622 H636 0.961 . S
C623 C620 1.539 . S
C623 H637 0.958 . S
C623 H638 0.961 . S
C623 H639 0.960 . S
H624 C608 0.931 . S
H625 C613 0.929 . S
H626 C614 0.960 . S
H627 C614 0.962 . S
H628 C614 0.960 . S
H629 C615 0.961 . S
H630 C615 0.961 . S
H631 C615 0.961 . S
H632 C616 0.931 . S
H633 C621 0.930 . S
H634 C622 0.956 . S
H635 C622 0.961 . S
H636 C622 0.961 . S
H637 C623 0.958 . S
H638 C623 0.961 . S
H639 C623 0.960 . S
C640 C641 1.391 . S
C640 C642 1.394 . S
C640 H656 0.931 . S
C641 C640 1.391 . S
C641 C645 1.376 . S
C642 C640 1.394 . S
C642 C643 1.369 . S
C642 C646 1.531 . S
C643 C642 1.369 . S
C643 C644 1.410 . S
C643 C651 1.503 . S
C644 C643 1.410 . S
C644 C645 1.392 . S
C644 C647 1.511 . S
C645 C641 1.376 . S
C645 C644 1.392 . S
C645 H657 0.929 . S
C646 C642 1.531 . S
C646 H658 0.960 . S
C646 H659 0.962 . S
C646 H660 0.960 . S
C647 C644 1.511 . S
C647 H661 0.961 . S
C647 H662 0.961 . S
C647 H663 0.961 . S
C648 C649 1.370 . S
C648 C650 1.363 . S
C648 H664 0.931 . S
C649 C648 1.370 . S
C649 C653 1.408 . S
C650 C648 1.363 . S
C650 C651 1.370 . S
C650 C654 1.524 . S
C651 C643 1.503 . S
C651 C650 1.370 . S
C651 C652 1.403 . S
C652 C651 1.403 . S
C652 C653 1.404 . S
C652 C655 1.539 . S
C653 C649 1.408 . S
C653 C652 1.404 . S
C653 H665 0.930 . S
C654 C650 1.524 . S
C654 H666 0.956 . S
C654 H667 0.961 . S
C654 H668 0.961 . S
C655 C652 1.539 . S
C655 H669 0.958 . S
C655 H670 0.961 . S
C655 H671 0.960 . S
H656 C640 0.931 . S
H657 C645 0.929 . S
H658 C646 0.960 . S
H659 C646 0.962 . S
H660 C646 0.960 . S
H661 C647 0.961 . S
H662 C647 0.961 . S
H663 C647 0.961 . S
H664 C648 0.931 . S
H665 C653 0.930 . S
H666 C654 0.956 . S
H667 C654 0.961 . S
H668 C654 0.961 . S
H669 C655 0.958 . S
H670 C655 0.961 . S
H671 C655 0.960 . S
C672 C673 1.391 . S
C672 C674 1.394 . S
C672 H688 0.931 . S
C673 C672 1.391 . S
C673 C677 1.376 . S
C674 C672 1.394 . S
C674 C675 1.369 . S
C674 C678 1.531 . S
C675 C674 1.369 . S
C675 C676 1.410 . S
C675 C683 1.503 . S
C676 C675 1.410 . S
C676 C677 1.392 . S
C676 C679 1.511 . S
C677 C673 1.376 . S
C677 C676 1.392 . S
C677 H689 0.929 . S
C678 C674 1.531 . S
C678 H690 0.960 . S
C678 H691 0.962 . S
C678 H692 0.960 . S
C679 C676 1.511 . S
C679 H693 0.961 . S
C679 H694 0.961 . S
C679 H695 0.961 . S
C680 C681 1.370 . S
C680 C682 1.363 . S
C680 H696 0.931 . S
C681 C680 1.370 . S
C681 C685 1.408 . S
C682 C680 1.363 . S
C682 C683 1.370 . S
C682 C686 1.524 . S
C683 C675 1.503 . S
C683 C682 1.370 . S
C683 C684 1.403 . S
C684 C683 1.403 . S
C684 C685 1.404 . S
C684 C687 1.539 . S
C685 C681 1.408 . S
C685 C684 1.404 . S
C685 H697 0.930 . S
C686 C682 1.524 . S
C686 H698 0.956 . S
C686 H699 0.961 . S
C686 H700 0.961 . S
C687 C684 1.539 . S
C687 H701 0.958 . S
C687 H702 0.961 . S
C687 H703 0.960 . S
H688 C672 0.931 . S
H689 C677 0.929 . S
H690 C678 0.960 . S
H691 C678 0.962 . S
H692 C678 0.960 . S
H693 C679 0.961 . S
H694 C679 0.961 . S
H695 C679 0.961 . S
H696 C680 0.931 . S
H697 C685 0.930 . S
H698 C686 0.956 . S
H699 C686 0.961 . S
H700 C686 0.961 . S
H701 C687 0.958 . S
H702 C687 0.961 . S
H703 C687 0.960 . S
C704 C705 1.391 . S
C704 C706 1.394 . S
C704 H720 0.931 . S
C705 C704 1.391 . S
C705 C709 1.376 . S
C706 C704 1.394 . S
C706 C707 1.369 . S
C706 C710 1.531 . S
C707 C706 1.369 . S
C707 C708 1.410 . S
C707 C715 1.503 . S
C708 C707 1.410 . S
C708 C709 1.392 . S
C708 C711 1.511 . S
C709 C705 1.376 . S
C709 C708 1.392 . S
C709 H721 0.929 . S
C710 C706 1.531 . S
C710 H722 0.960 . S
C710 H723 0.962 . S
C710 H724 0.960 . S
C711 C708 1.511 . S
C711 H725 0.961 . S
C711 H726 0.961 . S
C711 H727 0.961 . S
C712 C713 1.370 . S
C712 C714 1.363 . S
C712 H728 0.931 . S
C713 C712 1.370 . S
C713 C717 1.408 . S
C714 C712 1.363 . S
C714 C715 1.370 . S
C714 C718 1.524 . S
C715 C707 1.503 . S
C715 C714 1.370 . S
C715 C716 1.403 . S
C716 C715 1.403 . S
C716 C717 1.404 . S
C716 C719 1.539 . S
C717 C713 1.408 . S
C717 C716 1.404 . S
C717 H729 0.930 . S
C718 C714 1.524 . S
C718 H730 0.956 . S
C718 H731 0.961 . S
C718 H732 0.961 . S
C719 C716 1.539 . S
C719 H733 0.958 . S
C719 H734 0.961 . S
C719 H735 0.960 . S
H720 C704 0.931 . S
H721 C709 0.929 . S
H722 C710 0.960 . S
H723 C710 0.962 . S
H724 C710 0.960 . S
H725 C711 0.961 . S
H726 C711 0.961 . S
H727 C711 0.961 . S
H728 C712 0.931 . S
H729 C717 0.930 . S
H730 C718 0.956 . S
H731 C718 0.961 . S
H732 C718 0.961 . S
H733 C719 0.958 . S
H734 C719 0.961 . S
H735 C719 0.960 . S
C736 C737 1.391 . S
C736 C738 1.394 . S
C736 H752 0.931 . S
C737 C736 1.391 . S
C737 C741 1.376 . S
C738 C736 1.394 . S
C738 C739 1.369 . S
C738 C742 1.531 . S
C739 C738 1.369 . S
C739 C740 1.410 . S
C739 C747 1.503 . S
C740 C739 1.410 . S
C740 C741 1.392 . S
C740 C743 1.511 . S
C741 C737 1.376 . S
C741 C740 1.392 . S
C741 H753 0.929 . S
C742 C738 1.531 . S
C742 H754 0.960 . S
C742 H755 0.962 . S
C742 H756 0.960 . S
C743 C740 1.511 . S
C743 H757 0.961 . S
C743 H758 0.961 . S
C743 H759 0.961 . S
C744 C745 1.370 . S
C744 C746 1.363 . S
C744 H760 0.931 . S
C745 C744 1.370 . S
C745 C749 1.408 . S
C746 C744 1.363 . S
C746 C747 1.370 . S
C746 C750 1.524 . S
C747 C739 1.503 . S
C747 C746 1.370 . S
C747 C748 1.403 . S
C748 C747 1.403 . S
C748 C749 1.404 . S
C748 C751 1.539 . S
C749 C745 1.408 . S
C749 C748 1.404 . S
C749 H761 0.930 . S
C750 C746 1.524 . S
C750 H762 0.956 . S
C750 H763 0.961 . S
C750 H764 0.961 . S
C751 C748 1.539 . S
C751 H765 0.958 . S
C751 H766 0.961 . S
C751 H767 0.960 . S
H752 C736 0.931 . S
H753 C741 0.929 . S
H754 C742 0.960 . S
H755 C742 0.962 . S
H756 C742 0.960 . S
H757 C743 0.961 . S
H758 C743 0.961 . S
H759 C743 0.961 . S
H760 C744 0.931 . S
H761 C749 0.930 . S
H762 C750 0.956 . S
H763 C750 0.961 . S
H764 C750 0.961 . S
H765 C751 0.958 . S
H766 C751 0.961 . S
H767 C751 0.960 . S
C768 C769 1.391 . S
C768 C770 1.394 . S
C768 H784 0.931 . S
C769 C768 1.391 . S
C769 C773 1.376 . S
C770 C768 1.394 . S
C770 C771 1.369 . S
C770 C774 1.531 . S
C771 C770 1.369 . S
C771 C772 1.410 . S
C771 C779 1.503 . S
C772 C771 1.410 . S
C772 C773 1.392 . S
C772 C775 1.511 . S
C773 C769 1.376 . S
C773 C772 1.392 . S
C773 H785 0.929 . S
C774 C770 1.531 . S
C774 H786 0.960 . S
C774 H787 0.962 . S
C774 H788 0.960 . S
C775 C772 1.511 . S
C775 H789 0.961 . S
C775 H790 0.961 . S
C775 H791 0.961 . S
C776 C777 1.370 . S
C776 C778 1.363 . S
C776 H792 0.931 . S
C777 C776 1.370 . S
C777 C781 1.408 . S
C778 C776 1.363 . S
C778 C779 1.370 . S
C778 C782 1.524 . S
C779 C771 1.503 . S
C779 C778 1.370 . S
C779 C780 1.403 . S
C780 C779 1.403 . S
C780 C781 1.404 . S
C780 C783 1.539 . S
C781 C777 1.408 . S
C781 C780 1.404 . S
C781 H793 0.930 . S
C782 C778 1.524 . S
C782 H794 0.956 . S
C782 H795 0.961 . S
C782 H796 0.961 . S
C783 C780 1.539 . S
C783 H797 0.958 . S
C783 H798 0.961 . S
C783 H799 0.960 . S
H784 C768 0.931 . S
H785 C773 0.929 . S
H786 C774 0.960 . S
H787 C774 0.962 . S
H788 C774 0.960 . S
H789 C775 0.961 . S
H790 C775 0.961 . S
H791 C775 0.961 . S
H792 C776 0.931 . S
H793 C781 0.930 . S
H794 C782 0.956 . S
H795 C782 0.961 . S
H796 C782 0.961 . S
H797 C783 0.958 . S
H798 C783 0.961 . S
H799 C783 0.960 . S
C800 C801 1.391 . S
C800 C802 1.394 . S
C800 H816 0.931 . S
C801 C800 1.391 . S
C801 C805 1.376 . S
C802 C800 1.394 . S
C802 C803 1.369 . S
C802 C806 1.531 . S
C803 C802 1.369 . S
C803 C804 1.410 . S
C803 C811 1.503 . S
C804 C803 1.410 . S
C804 C805 1.392 . S
C804 C807 1.511 . S
C805 C801 1.376 . S
C805 C804 1.392 . S
C805 H817 0.929 . S
C806 C802 1.531 . S
C806 H818 0.960 . S
C806 H819 0.962 . S
C806 H820 0.960 . S
C807 C804 1.511 . S
C807 H821 0.961 . S
C807 H822 0.961 . S
C807 H823 0.961 . S
C808 C809 1.370 . S
C808 C810 1.363 . S
C808 H824 0.931 . S
C809 C808 1.370 . S
C809 C813 1.408 . S
C810 C808 1.363 . S
C810 C811 1.370 . S
C810 C814 1.524 . S
C811 C803 1.503 . S
C811 C810 1.370 . S
C811 C812 1.403 . S
C812 C811 1.403 . S
C812 C813 1.404 . S
C812 C815 1.539 . S
C813 C809 1.408 . S
C813 C812 1.404 . S
C813 H825 0.930 . S
C814 C810 1.524 . S
C814 H826 0.956 . S
C814 H827 0.961 . S
C814 H828 0.961 . S
C815 C812 1.539 . S
C815 H829 0.958 . S
C815 H830 0.961 . S
C815 H831 0.960 . S
H816 C800 0.931 . S
H817 C805 0.929 . S
H818 C806 0.960 . S
H819 C806 0.962 . S
H820 C806 0.960 . S
H821 C807 0.961 . S
H822 C807 0.961 . S
H823 C807 0.961 . S
H824 C808 0.931 . S
H825 C813 0.930 . S
H826 C814 0.956 . S
H827 C814 0.961 . S
H828 C814 0.961 . S
H829 C815 0.958 . S
H830 C815 0.961 . S
H831 C815 0.960 . S
C832 C833 1.391 . S
C832 C834 1.394 . S
C832 H848 0.931 . S
C833 C832 1.391 . S
C833 C837 1.376 . S
C834 C832 1.394 . S
C834 C835 1.369 . S
C834 C838 1.531 . S
C835 C834 1.369 . S
C835 C836 1.410 . S
C835 C843 1.503 . S
C836 C835 1.410 . S
C836 C837 1.392 . S
C836 C839 1.511 . S
C837 C833 1.376 . S
C837 C836 1.392 . S
C837 H849 0.929 . S
C838 C834 1.531 . S
C838 H850 0.960 . S
C838 H851 0.962 . S
C838 H852 0.960 . S
C839 C836 1.511 . S
C839 H853 0.961 . S
C839 H854 0.961 . S
C839 H855 0.961 . S
C840 C841 1.370 . S
C840 C842 1.363 . S
C840 H856 0.931 . S
C841 C840 1.370 . S
C841 C845 1.408 . S
C842 C840 1.363 . S
C842 C843 1.370 . S
C842 C846 1.524 . S
C843 C835 1.503 . S
C843 C842 1.370 . S
C843 C844 1.403 . S
C844 C843 1.403 . S
C844 C845 1.404 . S
C844 C847 1.539 . S
C845 C841 1.408 . S
C845 C844 1.404 . S
C845 H857 0.930 . S
C846 C842 1.524 . S
C846 H858 0.956 . S
C846 H859 0.961 . S
C846 H860 0.961 . S
C847 C844 1.539 . S
C847 H861 0.958 . S
C847 H862 0.961 . S
C847 H863 0.960 . S
H848 C832 0.931 . S
H849 C837 0.929 . S
H850 C838 0.960 . S
H851 C838 0.962 . S
H852 C838 0.960 . S
H853 C839 0.961 . S
H854 C839 0.961 . S
H855 C839 0.961 . S
H856 C840 0.931 . S
H857 C845 0.930 . S
H858 C846 0.956 . S
H859 C846 0.961 . S
H860 C846 0.961 . S
H861 C847 0.958 . S
H862 C847 0.961 . S
H863 C847 0.960 . S
C864 C865 1.391 . S
C864 C866 1.394 . S
C864 H880 0.931 . S
C865 C864 1.391 . S
C865 C869 1.376 . S
C866 C864 1.394 . S
C866 C867 1.369 . S
C866 C870 1.531 . S
C867 C866 1.369 . S
C867 C868 1.410 . S
C867 C875 1.503 . S
C868 C867 1.410 . S
C868 C869 1.392 . S
C868 C871 1.511 . S
C869 C865 1.376 . S
C869 C868 1.392 . S
C869 H881 0.929 . S
C870 C866 1.531 . S
C870 H882 0.960 . S
C870 H883 0.962 . S
C870 H884 0.960 . S
C871 C868 1.511 . S
C871 H885 0.961 . S
C871 H886 0.961 . S
C871 H887 0.961 . S
C872 C873 1.370 . S
C872 C874 1.363 . S
C872 H888 0.931 . S
C873 C872 1.370 . S
C873 C877 1.408 . S
C874 C872 1.363 . S
C874 C875 1.370 . S
C874 C878 1.524 . S
C875 C867 1.503 . S
C875 C874 1.370 . S
C875 C876 1.403 . S
C876 C875 1.403 . S
C876 C877 1.404 . S
C876 C879 1.539 . S
C877 C873 1.408 . S
C877 C876 1.404 . S
C877 H889 0.930 . S
C878 C874 1.524 . S
C878 H890 0.956 . S
C878 H891 0.961 . S
C878 H892 0.961 . S
C879 C876 1.539 . S
C879 H893 0.958 . S
C879 H894 0.961 . S
C879 H895 0.960 . S
H880 C864 0.931 . S
H881 C869 0.929 . S
H882 C870 0.960 . S
H883 C870 0.962 . S
H884 C870 0.960 . S
H885 C871 0.961 . S
H886 C871 0.961 . S
H887 C871 0.961 . S
H888 C872 0.931 . S
H889 C877 0.930 . S
H890 C878 0.956 . S
H891 C878 0.961 . S
H892 C878 0.961 . S
H893 C879 0.958 . S
H894 C879 0.961 . S
H895 C879 0.960 . S
C896 C897 1.391 . S
C896 C898 1.394 . S
C896 H912 0.931 . S
C897 C896 1.391 . S
C897 C901 1.376 . S
C898 C896 1.394 . S
C898 C899 1.369 . S
C898 C902 1.531 . S
C899 C898 1.369 . S
C899 C900 1.410 . S
C899 C907 1.503 . S
C900 C899 1.410 . S
C900 C901 1.392 . S
C900 C903 1.511 . S
C901 C897 1.376 . S
C901 C900 1.392 . S
C901 H913 0.929 . S
C902 C898 1.531 . S
C902 H914 0.960 . S
C902 H915 0.962 . S
C902 H916 0.960 . S
C903 C900 1.511 . S
C903 H917 0.961 . S
C903 H918 0.961 . S
C903 H919 0.961 . S
C904 C905 1.370 . S
C904 C906 1.363 . S
C904 H920 0.931 . S
C905 C904 1.370 . S
C905 C909 1.408 . S
C906 C904 1.363 . S
C906 C907 1.370 . S
C906 C910 1.524 . S
C907 C899 1.503 . S
C907 C906 1.370 . S
C907 C908 1.403 . S
C908 C907 1.403 . S
C908 C909 1.404 . S
C908 C911 1.539 . S
C909 C905 1.408 . S
C909 C908 1.404 . S
C909 H921 0.930 . S
C910 C906 1.524 . S
C910 H922 0.956 . S
C910 H923 0.961 . S
C910 H924 0.961 . S
C911 C908 1.539 . S
C911 H925 0.958 . S
C911 H926 0.961 . S
C911 H927 0.960 . S
H912 C896 0.931 . S
H913 C901 0.929 . S
H914 C902 0.960 . S
H915 C902 0.962 . S
H916 C902 0.960 . S
H917 C903 0.961 . S
H918 C903 0.961 . S
H919 C903 0.961 . S
H920 C904 0.931 . S
H921 C909 0.930 . S
H922 C910 0.956 . S
H923 C910 0.961 . S
H924 C910 0.961 . S
H925 C911 0.958 . S
H926 C911 0.961 . S
H927 C911 0.960 . S
C928 C929 1.391 . S
C928 C930 1.394 . S
C928 H944 0.931 . S
C929 C928 1.391 . S
C929 C933 1.376 . S
C930 C928 1.394 . S
C930 C931 1.369 . S
C930 C934 1.531 . S
C931 C930 1.369 . S
C931 C932 1.410 . S
C931 C939 1.503 . S
C932 C931 1.410 . S
C932 C933 1.392 . S
C932 C935 1.511 . S
C933 C929 1.376 . S
C933 C932 1.392 . S
C933 H945 0.929 . S
C934 C930 1.531 . S
C934 H946 0.960 . S
C934 H947 0.962 . S
C934 H948 0.960 . S
C935 C932 1.511 . S
C935 H949 0.961 . S
C935 H950 0.961 . S
C935 H951 0.961 . S
C936 C937 1.370 . S
C936 C938 1.363 . S
C936 H952 0.931 . S
C937 C936 1.370 . S
C937 C941 1.408 . S
C938 C936 1.363 . S
C938 C939 1.370 . S
C938 C942 1.524 . S
C939 C931 1.503 . S
C939 C938 1.370 . S
C939 C940 1.403 . S
C940 C939 1.403 . S
C940 C941 1.404 . S
C940 C943 1.539 . S
C941 C937 1.408 . S
C941 C940 1.404 . S
C941 H953 0.930 . S
C942 C938 1.524 . S
C942 H954 0.956 . S
C942 H955 0.961 . S
C942 H956 0.961 . S
C943 C940 1.539 . S
C943 H957 0.958 . S
C943 H958 0.961 . S
C943 H959 0.960 . S
H944 C928 0.931 . S
H945 C933 0.929 . S
H946 C934 0.960 . S
H947 C934 0.962 . S
H948 C934 0.960 . S
H949 C935 0.961 . S
H950 C935 0.961 . S
H951 C935 0.961 . S
H952 C936 0.931 . S
H953 C941 0.930 . S
H954 C942 0.956 . S
H955 C942 0.961 . S
H956 C942 0.961 . S
H957 C943 0.958 . S
H958 C943 0.961 . S
H959 C943 0.960 . S
C960 C961 1.391 . S
C960 C962 1.394 . S
C960 H976 0.931 . S
C961 C960 1.391 . S
C961 C965 1.376 . S
C962 C960 1.394 . S
C962 C963 1.369 . S
C962 C966 1.531 . S
C963 C962 1.369 . S
C963 C964 1.410 . S
C963 C971 1.503 . S
C964 C963 1.410 . S
C964 C965 1.392 . S
C964 C967 1.511 . S
C965 C961 1.376 . S
C965 C964 1.392 . S
C965 H977 0.929 . S
C966 C962 1.531 . S
C966 H978 0.960 . S
C966 H979 0.962 . S
C966 H980 0.960 . S
C967 C964 1.511 . S
C967 H981 0.961 . S
C967 H982 0.961 . S
C967 H983 0.961 . S
C968 C969 1.370 . S
C968 C970 1.363 . S
C968 H984 0.931 . S
C969 C968 1.370 . S
C969 C973 1.408 . S
C970 C968 1.363 . S
C970 C971 1.370 . S
C970 C974 1.524 . S
C971 C963 1.503 . S
C971 C970 1.370 . S
C971 C972 1.403 . S
C972 C971 1.403 . S
C972 C973 1.404 . S
C972 C975 1.539 . S
C973 C969 1.408 . S
C973 C972 1.404 . S
C973 H985 0.930 . S
C974 C970 1.524 . S
C974 H986 0.956 . S
C974 H987 0.961 . S
C974 H988 0.961 . S
C975 C972 1.539 . S
C975 H989 0.958 . S
C975 H990 0.961 . S
C975 H991 0.960 . S
H976 C960 0.931 . S
H977 C965 0.929 . S
H978 C966 0.960 . S
H979 C966 0.962 . S
H980 C966 0.960 . S
H981 C967 0.961 . S
H982 C967 0.961 . S
H983 C967 0.961 . S
H984 C968 0.931 . S
H985 C973 0.930 . S
H986 C974 0.956 . S
H987 C974 0.961 . S
H988 C974 0.961 . S
H989 C975 0.958 . S
H990 C975 0.961 . S
H991 C975 0.960 . S
C992 C993 1.391 . S
C992 C994 1.394 . S
C992 H1008 0.931 . S
C993 C992 1.391 . S
C993 C997 1.376 . S
C994 C992 1.394 . S
C994 C995 1.369 . S
C994 C998 1.531 . S
C995 C994 1.369 . S
C995 C996 1.410 . S
C995 C1003 1.503 . S
C996 C995 1.410 . S
C996 C997 1.392 . S
C996 C999 1.511 . S
C997 C993 1.376 . S
C997 C996 1.392 . S
C997 H1009 0.929 . S
C998 C994 1.531 . S
C998 H1010 0.960 . S
C998 H1011 0.962 . S
C998 H1012 0.960 . S
C999 C996 1.511 . S
C999 H1013 0.961 . S
C999 H1014 0.961 . S
C999 H1015 0.961 . S
C1000 C1001 1.370 . S
C1000 C1002 1.363 . S
C1000 H1016 0.931 . S
C1001 C1000 1.370 . S
C1001 C1005 1.408 . S
C1002 C1000 1.363 . S
C1002 C1003 1.370 . S
C1002 C1006 1.524 . S
C1003 C995 1.503 . S
C1003 C1002 1.370 . S
C1003 C1004 1.403 . S
C1004 C1003 1.403 . S
C1004 C1005 1.404 . S
C1004 C1007 1.539 . S
C1005 C1001 1.408 . S
C1005 C1004 1.404 . S
C1005 H1017 0.930 . S
C1006 C1002 1.524 . S
C1006 H1018 0.956 . S
C1006 H1019 0.961 . S
C1006 H1020 0.961 . S
C1007 C1004 1.539 . S
C1007 H1021 0.958 . S
C1007 H1022 0.961 . S
C1007 H1023 0.960 . S
H1008 C992 0.931 . S
H1009 C997 0.929 . S
H1010 C998 0.960 . S
H1011 C998 0.962 . S
H1012 C998 0.960 . S
H1013 C999 0.961 . S
H1014 C999 0.961 . S
H1015 C999 0.961 . S
H1016 C1000 0.931 . S
H1017 C1005 0.930 . S
H1018 C1006 0.956 . S
H1019 C1006 0.961 . S
H1020 C1006 0.961 . S
H1021 C1007 0.958 . S
H1022 C1007 0.961 . S
H1023 C1007 0.960 . S
C1024 C1025 1.391 . S
C1024 C1026 1.394 . S
C1024 H1040 0.931 . S
C1025 C1024 1.391 . S
C1025 C1029 1.376 . S
C1026 C1024 1.394 . S
C1026 C1027 1.369 . S
C1026 C1030 1.531 . S
C1027 C1026 1.369 . S
C1027 C1028 1.410 . S
C1027 C1035 1.503 . S
C1028 C1027 1.410 . S
C1028 C1029 1.392 . S
C1028 C1031 1.511 . S
C1029 C1025 1.376 . S
C1029 C1028 1.392 . S
C1029 H1041 0.929 . S
C1030 C1026 1.531 . S
C1030 H1042 0.960 . S
C1030 H1043 0.962 . S
C1030 H1044 0.960 . S
C1031 C1028 1.511 . S
C1031 H1045 0.961 . S
C1031 H1046 0.961 . S
C1031 H1047 0.961 . S
C1032 C1033 1.370 . S
C1032 C1034 1.363 . S
C1032 H1048 0.931 . S
C1033 C1032 1.370 . S
C1033 C1037 1.408 . S
C1034 C1032 1.363 . S
C1034 C1035 1.370 . S
C1034 C1038 1.524 . S
C1035 C1027 1.503 . S
C1035 C1034 1.370 . S
C1035 C1036 1.403 . S
C1036 C1035 1.403 . S
C1036 C1037 1.404 . S
C1036 C1039 1.539 . S
C1037 C1033 1.408 . S
C1037 C1036 1.404 . S
C1037 H1049 0.930 . S
C1038 C1034 1.524 . S
C1038 H1050 0.956 . S
C1038 H1051 0.961 . S
C1038 H1052 0.961 . S
C1039 C1036 1.539 . S
C1039 H1053 0.958 . S
C1039 H1054 0.961 . S
C1039 H1055 0.960 . S
H1040 C1024 0.931 . S
H1041 C1029 0.929 . S
H1042 C1030 0.960 . S
H1043 C1030 0.962 . S
H1044 C1030 0.960 . S
H1045 C1031 0.961 . S
H1046 C1031 0.961 . S
H1047 C1031 0.961 . S
H1048 C1032 0.931 . S
H1049 C1037 0.930 . S
H1050 C1038 0.956 . S
H1051 C1038 0.961 . S
H1052 C1038 0.961 . S
H1053 C1039 0.958 . S
H1054 C1039 0.961 . S
H1055 C1039 0.960 . S
C1056 C1057 1.391 . S
C1056 C1058 1.394 . S
C1056 H1072 0.931 . S
C1057 C1056 1.391 . S
C1057 C1061 1.376 1_554 S
C1058 C1056 1.394 . S
C1058 C1059 1.369 . S
C1058 C1062 1.531 . S
C1059 C1058 1.369 . S
C1059 C1060 1.410 1_554 S
C1059 C1067 1.503 1_455 S
C1060 C1059 1.410 1_556 S
C1060 C1061 1.392 . S
C1060 C1063 1.511 . S
C1061 C1057 1.376 1_556 S
C1061 C1060 1.392 . S
C1061 H1073 0.929 . S
C1062 C1058 1.531 . S
C1062 H1074 0.960 . S
C1062 H1075 0.962 . S
C1062 H1076 0.960 . S
C1063 C1060 1.511 . S
C1063 H1077 0.961 . S
C1063 H1078 0.961 1_455 S
C1063 H1079 0.961 . S
C1064 C1065 1.370 . S
C1064 C1066 1.363 . S
C1064 H1080 0.931 . S
C1065 C1064 1.370 . S
C1065 C1069 1.410 . S
C1066 C1064 1.363 . S
C1066 C1067 1.370 . S
C1066 C1070 1.524 . S
C1067 C1059 1.503 1_655 S
C1067 C1066 1.370 . S
C1067 C1068 1.405 1_655 S
C1068 C1067 1.405 1_455 S
C1068 C1069 1.404 1_455 S
C1068 C1071 1.536 1_554 S
C1069 C1065 1.410 . S
C1069 C1068 1.404 1_655 S
C1069 H1081 0.928 1_554 S
C1070 C1066 1.524 . S
C1070 H1082 0.956 . S
C1070 H1083 0.961 1_554 S
C1070 H1084 0.961 . S
C1071 C1068 1.536 1_556 S
C1071 H1085 0.958 1_556 S
C1071 H1086 0.961 . S
C1071 H1087 0.960 . S
H1072 C1056 0.931 . S
H1073 C1061 0.929 . S
H1074 C1062 0.960 . S
H1075 C1062 0.962 . S
H1076 C1062 0.960 . S
H1077 C1063 0.961 . S
H1078 C1063 0.961 1_655 S
H1079 C1063 0.961 . S
H1080 C1064 0.931 . S
H1081 C1069 0.928 1_556 S
H1082 C1070 0.956 . S
H1083 C1070 0.961 1_556 S
H1084 C1070 0.961 . S
H1085 C1071 0.958 1_554 S
H1086 C1071 0.961 . S
H1087 C1071 0.960 . S
C1088 C1089 1.391 . S
C1088 C1090 1.394 . S
C1088 H1104 0.931 . S
C1089 C1088 1.391 . S
C1089 C1093 1.376 . S
C1090 C1088 1.394 . S
C1090 C1091 1.369 . S
C1090 C1094 1.531 . S
C1091 C1090 1.369 . S
C1091 C1092 1.410 . S
C1091 C1099 1.503 . S
C1092 C1091 1.410 . S
C1092 C1093 1.392 . S
C1092 C1095 1.511 . S
C1093 C1089 1.376 . S
C1093 C1092 1.392 . S
C1093 H1105 0.929 . S
C1094 C1090 1.531 . S
C1094 H1106 0.960 . S
C1094 H1107 0.962 . S
C1094 H1108 0.960 . S
C1095 C1092 1.511 . S
C1095 H1109 0.961 . S
C1095 H1110 0.961 . S
C1095 H1111 0.961 . S
C1096 C1097 1.370 . S
C1096 C1098 1.363 . S
C1096 H1112 0.931 . S
C1097 C1096 1.370 . S
C1097 C1101 1.408 . S
C1098 C1096 1.363 . S
C1098 C1099 1.370 . S
C1098 C1102 1.524 . S
C1099 C1091 1.503 . S
C1099 C1098 1.370 . S
C1099 C1100 1.403 . S
C1100 C1099 1.403 . S
C1100 C1101 1.404 . S
C1100 C1103 1.539 . S
C1101 C1097 1.408 . S
C1101 C1100 1.404 . S
C1101 H1113 0.930 . S
C1102 C1098 1.524 . S
C1102 H1114 0.956 . S
C1102 H1115 0.961 . S
C1102 H1116 0.961 . S
C1103 C1100 1.539 . S
C1103 H1117 0.958 . S
C1103 H1118 0.961 . S
C1103 H1119 0.960 . S
H1104 C1088 0.931 . S
H1105 C1093 0.929 . S
H1106 C1094 0.960 . S
H1107 C1094 0.962 . S
H1108 C1094 0.960 . S
H1109 C1095 0.961 . S
H1110 C1095 0.961 . S
H1111 C1095 0.961 . S
H1112 C1096 0.931 . S
H1113 C1101 0.930 . S
H1114 C1102 0.956 . S
H1115 C1102 0.961 . S
H1116 C1102 0.961 . S
H1117 C1103 0.958 . S
H1118 C1103 0.961 . S
H1119 C1103 0.960 . S
C1120 C1121 1.391 . S
C1120 C1122 1.394 . S
C1120 H1136 0.931 . S
C1121 C1120 1.391 . S
C1121 C1125 1.376 . S
C1122 C1120 1.394 . S
C1122 C1123 1.369 . S
C1122 C1126 1.531 1_565 S
C1123 C1122 1.369 . S
C1123 C1124 1.410 . S
C1123 C1131 1.503 1_565 S
C1124 C1123 1.410 . S
C1124 C1125 1.392 . S
C1124 C1127 1.511 . S
C1125 C1121 1.376 . S
C1125 C1124 1.392 . S
C1125 H1137 0.929 . S
C1126 C1122 1.531 1_545 S
C1126 H1138 0.960 . S
C1126 H1139 0.962 . S
C1126 H1140 0.960 . S
C1127 C1124 1.511 . S
C1127 H1141 0.961 . S
C1127 H1142 0.961 . S
C1127 H1143 0.961 . S
C1128 C1129 1.370 . S
C1128 C1130 1.363 . S
C1128 H1144 0.931 . S
C1129 C1128 1.370 . S
C1129 C1133 1.408 . S
C1130 C1128 1.363 . S
C1130 C1131 1.370 . S
C1130 C1134 1.524 . S
C1131 C1123 1.503 1_545 S
C1131 C1130 1.370 . S
C1131 C1132 1.403 . S
C1132 C1131 1.403 . S
C1132 C1133 1.404 . S
C1132 C1135 1.539 . S
C1133 C1129 1.408 . S
C1133 C1132 1.404 . S
C1133 H1145 0.930 . S
C1134 C1130 1.524 . S
C1134 H1146 0.956 . S
C1134 H1147 0.961 1_545 S
C1134 H1148 0.961 . S
C1135 C1132 1.539 . S
C1135 H1149 0.958 . S
C1135 H1150 0.961 . S
C1135 H1151 0.960 1_545 S
H1136 C1120 0.931 . S
H1137 C1125 0.929 . S
H1138 C1126 0.960 . S
H1139 C1126 0.962 . S
H1140 C1126 0.960 . S
H1141 C1127 0.961 . S
H1142 C1127 0.961 . S
H1143 C1127 0.961 . S
H1144 C1128 0.931 . S
H1145 C1133 0.930 . S
H1146 C1134 0.956 . S
H1147 C1134 0.961 1_565 S
H1148 C1134 0.961 . S
H1149 C1135 0.958 . S
H1150 C1135 0.961 . S
H1151 C1135 0.960 1_565 S
C1152 C1153 1.391 . S
C1152 C1154 1.394 . S
C1152 H1168 0.931 . S
C1153 C1152 1.391 . S
C1153 C1157 1.376 . S
C1154 C1152 1.394 . S
C1154 C1155 1.369 . S
C1154 C1158 1.531 1_455 S
C1155 C1154 1.369 . S
C1155 C1156 1.410 . S
C1155 C1163 1.503 1_445 S
C1156 C1155 1.410 . S
C1156 C1157 1.392 . S
C1156 C1159 1.511 1_545 S
C1157 C1153 1.376 . S
C1157 C1156 1.392 . S
C1157 H1169 0.929 . S
C1158 C1154 1.531 1_655 S
C1158 H1170 0.960 . S
C1158 H1171 0.962 . S
C1158 H1172 0.960 . S
C1159 C1156 1.511 1_565 S
C1159 H1173 0.961 . S
C1159 H1174 0.961 . S
C1159 H1175 0.961 . S
C1160 C1161 1.370 . S
C1160 C1162 1.363 . S
C1160 H1176 0.931 . S
C1161 C1160 1.370 . S
C1161 C1165 1.408 . S
C1162 C1160 1.363 . S
C1162 C1163 1.370 . S
C1162 C1166 1.524 1_565 S
C1163 C1155 1.503 1_665 S
C1163 C1162 1.370 . S
C1163 C1164 1.403 . S
C1164 C1163 1.403 . S
C1164 C1165 1.404 . S
C1164 C1167 1.539 1_655 S
C1165 C1161 1.408 . S
C1165 C1164 1.404 . S
C1165 H1177 0.930 . S
C1166 C1162 1.524 1_545 S
C1166 H1178 0.956 . S
C1166 H1179 0.961 . S
C1166 H1180 0.961 . S
C1167 C1164 1.539 1_455 S
C1167 H1181 0.958 1_455 S
C1167 H1182 0.961 . S
C1167 H1183 0.960 . S
H1168 C1152 0.931 . S
H1169 C1157 0.929 . S
H1170 C1158 0.960 . S
H1171 C1158 0.962 . S
H1172 C1158 0.960 . S
H1173 C1159 0.961 . S
H1174 C1159 0.961 . S
H1175 C1159 0.961 . S
H1176 C1160 0.931 . S
H1177 C1165 0.930 . S
H1178 C1166 0.956 . S
H1179 C1166 0.961 . S
H1180 C1166 0.961 . S
H1181 C1167 0.958 1_655 S
H1182 C1167 0.961 . S
H1183 C1167 0.960 . S
C1184 C1185 1.391 . S
C1184 C1186 1.394 . S
C1184 H1200 0.931 . S
C1185 C1184 1.391 . S
C1185 C1189 1.376 . S
C1186 C1184 1.394 . S
C1186 C1187 1.369 . S
C1186 C1190 1.531 . S
C1187 C1186 1.369 . S
C1187 C1188 1.410 . S
C1187 C1195 1.503 1_655 S
C1188 C1187 1.410 . S
C1188 C1189 1.392 . S
C1188 C1191 1.511 1_655 S
C1189 C1185 1.376 . S
C1189 C1188 1.392 . S
C1189 H1201 0.929 . S
C1190 C1186 1.531 . S
C1190 H1202 0.960 . S
C1190 H1203 0.962 . S
C1190 H1204 0.960 . S
C1191 C1188 1.511 1_455 S
C1191 H1205 0.961 . S
C1191 H1206 0.961 . S
C1191 H1207 0.961 . S
C1192 C1193 1.370 . S
C1192 C1194 1.363 . S
C1192 H1208 0.931 . S
C1193 C1192 1.370 . S
C1193 C1197 1.408 . S
C1194 C1192 1.363 . S
C1194 C1195 1.370 . S
C1194 C1198 1.524 1_455 S
C1195 C1187 1.503 1_455 S
C1195 C1194 1.370 . S
C1195 C1196 1.403 . S
C1196 C1195 1.403 . S
C1196 C1197 1.404 . S
C1196 C1199 1.539 . S
C1197 C1193 1.408 . S
C1197 C1196 1.404 . S
C1197 H1209 0.930 . S
C1198 C1194 1.524 1_655 S
C1198 H1210 0.956 . S
C1198 H1211 0.961 . S
C1198 H1212 0.961 . S
C1199 C1196 1.539 . S
C1199 H1213 0.958 . S
C1199 H1214 0.961 . S
C1199 H1215 0.960 . S
H1200 C1184 0.931 . S
H1201 C1189 0.929 . S
H1202 C1190 0.960 . S
H1203 C1190 0.962 . S
H1204 C1190 0.960 . S
H1205 C1191 0.961 . S
H1206 C1191 0.961 . S
H1207 C1191 0.961 . S
H1208 C1192 0.931 . S
H1209 C1197 0.930 . S
H1210 C1198 0.956 . S
H1211 C1198 0.961 . S
H1212 C1198 0.961 . S
H1213 C1199 0.958 . S
H1214 C1199 0.961 . S
H1215 C1199 0.960 . S
C1216 C1217 1.391 . S
C1216 C1218 1.394 . S
C1216 H1232 0.931 . S
C1217 C1216 1.391 . S
C1217 C1221 1.376 . S
C1218 C1216 1.394 . S
C1218 C1219 1.369 . S
C1218 C1222 1.531 . S
C1219 C1218 1.369 . S
C1219 C1220 1.410 . S
C1219 C1227 1.503 . S
C1220 C1219 1.410 . S
C1220 C1221 1.392 . S
C1220 C1223 1.511 . S
C1221 C1217 1.376 . S
C1221 C1220 1.392 . S
C1221 H1233 0.929 . S
C1222 C1218 1.531 . S
C1222 H1234 0.960 . S
C1222 H1235 0.962 . S
C1222 H1236 0.960 . S
C1223 C1220 1.511 . S
C1223 H1237 0.961 . S
C1223 H1238 0.961 . S
C1223 H1239 0.961 . S
C1224 C1225 1.370 . S
C1224 C1226 1.363 . S
C1224 H1240 0.931 . S
C1225 C1224 1.370 . S
C1225 C1229 1.408 . S
C1226 C1224 1.363 . S
C1226 C1227 1.370 . S
C1226 C1230 1.524 . S
C1227 C1219 1.503 . S
C1227 C1226 1.370 . S
C1227 C1228 1.403 . S
C1228 C1227 1.403 . S
C1228 C1229 1.404 . S
C1228 C1231 1.539 . S
C1229 C1225 1.408 . S
C1229 C1228 1.404 . S
C1229 H1241 0.930 . S
C1230 C1226 1.524 . S
C1230 H1242 0.956 . S
C1230 H1243 0.961 . S
C1230 H1244 0.961 . S
C1231 C1228 1.539 . S
C1231 H1245 0.958 . S
C1231 H1246 0.961 . S
C1231 H1247 0.960 . S
H1232 C1216 0.931 . S
H1233 C1221 0.929 . S
H1234 C1222 0.960 . S
H1235 C1222 0.962 . S
H1236 C1222 0.960 . S
H1237 C1223 0.961 . S
H1238 C1223 0.961 . S
H1239 C1223 0.961 . S
H1240 C1224 0.931 . S
H1241 C1229 0.930 . S
H1242 C1230 0.956 . S
H1243 C1230 0.961 . S
H1244 C1230 0.961 . S
H1245 C1231 0.958 . S
H1246 C1231 0.961 . S
H1247 C1231 0.960 . S
C1248 C1249 1.391 . S
C1248 C1250 1.394 . S
C1248 H1264 0.931 . S
C1249 C1248 1.391 . S
C1249 C1253 1.376 1_554 S
C1250 C1248 1.394 . S
C1250 C1251 1.369 . S
C1250 C1254 1.531 1_545 S
C1251 C1250 1.369 . S
C1251 C1252 1.410 1_554 S
C1251 C1259 1.503 1_545 S
C1252 C1251 1.410 1_556 S
C1252 C1253 1.392 . S
C1252 C1255 1.511 . S
C1253 C1249 1.376 1_556 S
C1253 C1252 1.392 . S
C1253 H1265 0.929 . S
C1254 C1250 1.531 1_565 S
C1254 H1266 0.960 . S
C1254 H1267 0.962 . S
C1254 H1268 0.960 . S
C1255 C1252 1.511 . S
C1255 H1269 0.961 . S
C1255 H1270 0.961 . S
C1255 H1271 0.961 . S
C1256 C1257 1.370 1_556 S
C1256 C1258 1.363 . S
C1256 H1272 0.931 . S
C1257 C1256 1.370 1_554 S
C1257 C1261 1.408 . S
C1258 C1256 1.363 . S
C1258 C1259 1.370 1_556 S
C1258 C1262 1.524 . S
C1259 C1251 1.503 1_565 S
C1259 C1258 1.370 1_554 S
C1259 C1260 1.403 . S
C1260 C1259 1.403 . S
C1260 C1261 1.404 . S
C1260 C1263 1.539 1_565 S
C1261 C1257 1.408 . S
C1261 C1260 1.404 . S
C1261 H1273 0.930 . S
C1262 C1258 1.524 . S
C1262 H1274 0.956 . S
C1262 H1275 0.961 . S
C1262 H1276 0.961 . S
C1263 C1260 1.539 1_545 S
C1263 H1277 0.958 . S
C1263 H1278 0.961 . S
C1263 H1279 0.960 . S
H1264 C1248 0.931 . S
H1265 C1253 0.929 . S
H1266 C1254 0.960 . S
H1267 C1254 0.962 . S
H1268 C1254 0.960 . S
H1269 C1255 0.961 . S
H1270 C1255 0.961 . S
H1271 C1255 0.961 . S
H1272 C1256 0.931 . S
H1273 C1261 0.930 . S
H1274 C1262 0.956 . S
H1275 C1262 0.961 . S
H1276 C1262 0.961 . S
H1277 C1263 0.958 . S
H1278 C1263 0.961 . S
H1279 C1263 0.960 . S
C1280 C1281 1.391 . S
C1280 C1282 1.398 . S
C1280 H1296 0.931 . S
C1281 C1280 1.391 . S
C1281 C1285 1.376 . S
C1282 C1280 1.398 . S
C1282 C1283 1.371 . S
C1282 C1286 1.524 1_565 S
C1283 C1282 1.371 . S
C1283 C1284 1.410 . S
C1283 C1291 1.503 1_465 S
C1284 C1283 1.410 . S
C1284 C1285 1.392 . S
C1284 C1287 1.511 1_455 S
C1285 C1281 1.376 . S
C1285 C1284 1.392 . S
C1285 H1297 0.929 . S
C1286 C1282 1.524 1_545 S
C1286 H1298 0.960 . S
C1286 H1299 0.962 . S
C1286 H1300 0.960 . S
C1287 C1284 1.511 1_655 S
C1287 H1301 0.961 . S
C1287 H1302 0.961 . S
C1287 H1303 0.961 . S
C1288 C1289 1.370 . S
C1288 C1290 1.363 . S
C1288 H1304 0.931 . S
C1289 C1288 1.370 . S
C1289 C1293 1.408 . S
C1290 C1288 1.363 . S
C1290 C1291 1.370 . S
C1290 C1294 1.524 1_545 S
C1291 C1283 1.503 1_645 S
C1291 C1290 1.370 . S
C1291 C1292 1.403 . S
C1292 C1291 1.403 . S
C1292 C1293 1.404 . S
C1292 C1295 1.539 . S
C1293 C1289 1.408 . S
C1293 C1292 1.404 . S
C1293 H1305 0.930 . S
C1294 C1290 1.524 1_565 S
C1294 H1306 0.956 1_665 S
C1294 H1307 0.961 . S
C1294 H1308 0.961 1_565 S
C1295 C1292 1.539 . S
C1295 H1309 0.958 1_655 S
C1295 H1310 0.961 . S
C1295 H1311 0.960 1_655 S
H1296 C1280 0.931 . S
H1297 C1285 0.929 . S
H1298 C1286 0.960 . S
H1299 C1286 0.962 . S
H1300 C1286 0.960 . S
H1301 C1287 0.961 . S
H1302 C1287 0.961 . S
H1303 C1287 0.961 . S
H1304 C1288 0.931 . S
H1305 C1293 0.930 . S
H1306 C1294 0.956 1_445 S
H1307 C1294 0.961 . S
H1308 C1294 0.961 1_545 S
H1309 C1295 0.958 1_455 S
H1310 C1295 0.961 . S
H1311 C1295 0.960 1_455 S
C1312 C1313 1.391 . S
C1312 C1314 1.394 . S
C1312 H1328 0.931 . S
C1313 C1312 1.391 . S
C1313 C1317 1.376 . S
C1314 C1312 1.394 . S
C1314 C1315 1.369 . S
C1314 C1318 1.531 . S
C1315 C1314 1.369 . S
C1315 C1316 1.410 . S
C1315 C1323 1.503 . S
C1316 C1315 1.410 . S
C1316 C1317 1.392 . S
C1316 C1319 1.511 . S
C1317 C1313 1.376 . S
C1317 C1316 1.392 . S
C1317 H1329 0.929 . S
C1318 C1314 1.531 . S
C1318 H1330 0.960 . S
C1318 H1331 0.962 1_554 S
C1318 H1332 0.960 . S
C1319 C1316 1.511 . S
C1319 H1333 0.961 . S
C1319 H1334 0.961 . S
C1319 H1335 0.961 . S
C1320 C1321 1.370 1_556 S
C1320 C1322 1.363 . S
C1320 H1336 0.931 . S
C1321 C1320 1.370 1_554 S
C1321 C1325 1.408 . S
C1322 C1320 1.363 . S
C1322 C1323 1.370 1_556 S
C1322 C1326 1.524 . S
C1323 C1315 1.503 . S
C1323 C1322 1.370 1_554 S
C1323 C1324 1.403 . S
C1324 C1323 1.403 . S
C1324 C1325 1.404 . S
C1324 C1327 1.539 . S
C1325 C1321 1.408 . S
C1325 C1324 1.404 . S
C1325 H1337 0.930 . S
C1326 C1322 1.524 . S
C1326 H1338 0.956 . S
C1326 H1339 0.961 . S
C1326 H1340 0.961 . S
C1327 C1324 1.539 . S
C1327 H1341 0.958 . S
C1327 H1342 0.961 . S
C1327 H1343 0.960 . S
H1328 C1312 0.931 . S
H1329 C1317 0.929 . S
H1330 C1318 0.960 . S
H1331 C1318 0.962 1_556 S
H1332 C1318 0.960 . S
H1333 C1319 0.961 . S
H1334 C1319 0.961 . S
H1335 C1319 0.961 . S
H1336 C1320 0.931 . S
H1337 C1325 0.930 . S
H1338 C1326 0.956 . S
H1339 C1326 0.961 . S
H1340 C1326 0.961 . S
H1341 C1327 0.958 . S
H1342 C1327 0.961 . S
H1343 C1327 0.960 . S
C1344 C1345 1.391 . S
C1344 C1346 1.394 . S
C1344 H1360 0.931 . S
C1345 C1344 1.391 . S
C1345 C1349 1.376 . S
C1346 C1344 1.394 . S
C1346 C1347 1.369 . S
C1346 C1350 1.531 . S
C1347 C1346 1.369 . S
C1347 C1348 1.410 . S
C1347 C1355 1.503 . S
C1348 C1347 1.410 . S
C1348 C1349 1.392 . S
C1348 C1351 1.511 . S
C1349 C1345 1.376 . S
C1349 C1348 1.392 . S
C1349 H1361 0.929 . S
C1350 C1346 1.531 . S
C1350 H1362 0.960 . S
C1350 H1363 0.962 . S
C1350 H1364 0.960 . S
C1351 C1348 1.511 . S
C1351 H1365 0.961 . S
C1351 H1366 0.961 . S
C1351 H1367 0.961 . S
C1352 C1353 1.370 1_565 S
C1352 C1354 1.363 . S
C1352 H1368 0.931 1_565 S
C1353 C1352 1.370 1_545 S
C1353 C1357 1.408 . S
C1354 C1352 1.363 . S
C1354 C1355 1.370 . S
C1354 C1358 1.524 . S
C1355 C1347 1.503 . S
C1355 C1354 1.370 . S
C1355 C1356 1.403 . S
C1356 C1355 1.403 . S
C1356 C1357 1.404 1_565 S
C1356 C1359 1.539 . S
C1357 C1353 1.408 . S
C1357 C1356 1.404 1_545 S
C1357 H1369 0.930 . S
C1358 C1354 1.524 . S
C1358 H1370 0.956 . S
C1358 H1371 0.961 . S
C1358 H1372 0.961 . S
C1359 C1356 1.539 . S
C1359 H1373 0.958 . S
C1359 H1374 0.961 . S
C1359 H1375 0.960 . S
H1360 C1344 0.931 . S
H1361 C1349 0.929 . S
H1362 C1350 0.960 . S
H1363 C1350 0.962 . S
H1364 C1350 0.960 . S
H1365 C1351 0.961 . S
H1366 C1351 0.961 . S
H1367 C1351 0.961 . S
H1368 C1352 0.931 1_545 S
H1369 C1357 0.930 . S
H1370 C1358 0.956 . S
H1371 C1358 0.961 . S
H1372 C1358 0.961 . S
H1373 C1359 0.958 . S
H1374 C1359 0.961 . S
H1375 C1359 0.960 . S
C1376 C1377 1.386 1_455 S
C1376 C1378 1.404 . S
C1376 H1392 0.926 1_455 S
C1377 C1376 1.386 1_655 S
C1377 C1381 1.376 . S
C1378 C1376 1.404 . S
C1378 C1379 1.369 . S
C1378 C1382 1.531 . S
C1379 C1378 1.369 . S
C1379 C1380 1.410 . S
C1379 C1387 1.503 . S
C1380 C1379 1.410 . S
C1380 C1381 1.392 1_455 S
C1380 C1383 1.511 . S
C1381 C1377 1.376 . S
C1381 C1380 1.392 1_655 S
C1381 H1393 0.929 . S
C1382 C1378 1.531 . S
C1382 H1394 0.960 . S
C1382 H1395 0.962 . S
C1382 H1396 0.960 . S
C1383 C1380 1.511 . S
C1383 H1397 0.961 . S
C1383 H1398 0.961 . S
C1383 H1399 0.961 . S
C1384 C1385 1.370 . S
C1384 C1386 1.363 . S
C1384 H1400 0.931 . S
C1385 C1384 1.370 . S
C1385 C1389 1.408 . S
C1386 C1384 1.363 . S
C1386 C1387 1.370 . S
C1386 C1390 1.524 . S
C1387 C1379 1.503 . S
C1387 C1386 1.370 . S
C1387 C1388 1.403 . S
C1388 C1387 1.403 . S
C1388 C1389 1.404 . S
C1388 C1391 1.539 . S
C1389 C1385 1.408 . S
C1389 C1388 1.404 . S
C1389 H1401 0.930 . S
C1390 C1386 1.524 . S
C1390 H1402 0.956 . S
C1390 H1403 0.961 . S
C1390 H1404 0.961 . S
C1391 C1388 1.539 . S
C1391 H1405 0.958 . S
C1391 H1406 0.961 . S
C1391 H1407 0.960 . S
H1392 C1376 0.926 1_655 S
H1393 C1381 0.929 . S
H1394 C1382 0.960 . S
H1395 C1382 0.962 . S
H1396 C1382 0.960 . S
H1397 C1383 0.961 . S
H1398 C1383 0.961 . S
H1399 C1383 0.961 . S
H1400 C1384 0.931 . S
H1401 C1389 0.930 . S
H1402 C1390 0.956 . S
H1403 C1390 0.961 . S
H1404 C1390 0.961 . S
H1405 C1391 0.958 . S
H1406 C1391 0.961 . S
H1407 C1391 0.960 . S
C1408 C1409 1.391 . S
C1408 C1410 1.394 . S
C1408 H1424 0.931 . S
C1409 C1408 1.391 . S
C1409 C1413 1.376 . S
C1410 C1408 1.394 . S
C1410 C1411 1.369 . S
C1410 C1414 1.531 . S
C1411 C1410 1.369 . S
C1411 C1412 1.410 . S
C1411 C1419 1.503 . S
C1412 C1411 1.410 . S
C1412 C1413 1.392 . S
C1412 C1415 1.511 . S
C1413 C1409 1.376 . S
C1413 C1412 1.392 . S
C1413 H1425 0.929 . S
C1414 C1410 1.531 . S
C1414 H1426 0.960 . S
C1414 H1427 0.962 . S
C1414 H1428 0.960 . S
C1415 C1412 1.511 . S
C1415 H1429 0.961 . S
C1415 H1430 0.961 . S
C1415 H1431 0.961 . S
C1416 C1417 1.370 . S
C1416 C1418 1.363 . S
C1416 H1432 0.931 . S
C1417 C1416 1.370 . S
C1417 C1421 1.408 . S
C1418 C1416 1.363 . S
C1418 C1419 1.370 . S
C1418 C1422 1.524 . S
C1419 C1411 1.503 . S
C1419 C1418 1.370 . S
C1419 C1420 1.403 . S
C1420 C1419 1.403 . S
C1420 C1421 1.404 . S
C1420 C1423 1.539 . S
C1421 C1417 1.408 . S
C1421 C1420 1.404 . S
C1421 H1433 0.930 . S
C1422 C1418 1.524 . S
C1422 H1434 0.956 . S
C1422 H1435 0.961 . S
C1422 H1436 0.961 . S
C1423 C1420 1.539 . S
C1423 H1437 0.958 . S
C1423 H1438 0.961 . S
C1423 H1439 0.960 . S
H1424 C1408 0.931 . S
H1425 C1413 0.929 . S
H1426 C1414 0.960 . S
H1427 C1414 0.962 . S
H1428 C1414 0.960 . S
H1429 C1415 0.961 . S
H1430 C1415 0.961 . S
H1431 C1415 0.961 . S
H1432 C1416 0.931 . S
H1433 C1421 0.930 . S
H1434 C1422 0.956 . S
H1435 C1422 0.961 . S
H1436 C1422 0.961 . S
H1437 C1423 0.958 . S
H1438 C1423 0.961 . S
H1439 C1423 0.960 . S
C1440 C1441 1.391 . S
C1440 C1442 1.394 . S
C1440 H1456 0.931 . S
C1441 C1440 1.391 . S
C1441 C1445 1.376 . S
C1442 C1440 1.394 . S
C1442 C1443 1.369 . S
C1442 C1446 1.531 . S
C1443 C1442 1.369 . S
C1443 C1444 1.410 . S
C1443 C1451 1.503 . S
C1444 C1443 1.410 . S
C1444 C1445 1.392 . S
C1444 C1447 1.511 . S
C1445 C1441 1.376 . S
C1445 C1444 1.392 . S
C1445 H1457 0.929 . S
C1446 C1442 1.531 . S
C1446 H1458 0.960 . S
C1446 H1459 0.962 . S
C1446 H1460 0.960 . S
C1447 C1444 1.511 . S
C1447 H1461 0.961 . S
C1447 H1462 0.961 . S
C1447 H1463 0.961 . S
C1448 C1449 1.370 . S
C1448 C1450 1.363 . S
C1448 H1464 0.931 . S
C1449 C1448 1.370 . S
C1449 C1453 1.408 . S
C1450 C1448 1.363 . S
C1450 C1451 1.370 . S
C1450 C1454 1.524 . S
C1451 C1443 1.503 . S
C1451 C1450 1.370 . S
C1451 C1452 1.403 . S
C1452 C1451 1.403 . S
C1452 C1453 1.404 . S
C1452 C1455 1.539 . S
C1453 C1449 1.408 . S
C1453 C1452 1.404 . S
C1453 H1465 0.930 . S
C1454 C1450 1.524 . S
C1454 H1466 0.956 . S
C1454 H1467 0.961 . S
C1454 H1468 0.961 . S
C1455 C1452 1.539 . S
C1455 H1469 0.958 . S
C1455 H1470 0.961 . S
C1455 H1471 0.960 . S
H1456 C1440 0.931 . S
H1457 C1445 0.929 . S
H1458 C1446 0.960 . S
H1459 C1446 0.962 . S
H1460 C1446 0.960 . S
H1461 C1447 0.961 . S
H1462 C1447 0.961 . S
H1463 C1447 0.961 . S
H1464 C1448 0.931 . S
H1465 C1453 0.930 . S
H1466 C1454 0.956 . S
H1467 C1454 0.961 . S
H1468 C1454 0.961 . S
H1469 C1455 0.958 . S
H1470 C1455 0.961 . S
H1471 C1455 0.960 . S
C1472 C1473 1.391 . S
C1472 C1474 1.394 . S
C1472 H1488 0.931 . S
C1473 C1472 1.391 . S
C1473 C1477 1.376 . S
C1474 C1472 1.394 . S
C1474 C1475 1.369 . S
C1474 C1478 1.531 . S
C1475 C1474 1.369 . S
C1475 C1476 1.410 . S
C1475 C1483 1.503 . S
C1476 C1475 1.410 . S
C1476 C1477 1.392 . S
C1476 C1479 1.511 . S
C1477 C1473 1.376 . S
C1477 C1476 1.392 . S
C1477 H1489 0.929 . S
C1478 C1474 1.531 . S
C1478 H1490 0.960 . S
C1478 H1491 0.962 . S
C1478 H1492 0.960 . S
C1479 C1476 1.511 . S
C1479 H1493 0.961 . S
C1479 H1494 0.961 . S
C1479 H1495 0.961 . S
C1480 C1481 1.370 1_545 S
C1480 C1482 1.363 . S
C1480 H1496 0.931 1_545 S
C1481 C1480 1.370 1_565 S
C1481 C1485 1.408 . S
C1482 C1480 1.363 . S
C1482 C1483 1.370 . S
C1482 C1486 1.524 . S
C1483 C1475 1.503 . S
C1483 C1482 1.370 . S
C1483 C1484 1.403 . S
C1484 C1483 1.403 . S
C1484 C1485 1.404 1_545 S
C1484 C1487 1.539 . S
C1485 C1481 1.408 . S
C1485 C1484 1.404 1_565 S
C1485 H1497 0.930 . S
C1486 C1482 1.524 . S
C1486 H1498 0.956 . S
C1486 H1499 0.961 . S
C1486 H1500 0.961 . S
C1487 C1484 1.539 . S
C1487 H1501 0.958 . S
C1487 H1502 0.961 . S
C1487 H1503 0.960 . S
H1488 C1472 0.931 . S
H1489 C1477 0.929 . S
H1490 C1478 0.960 . S
H1491 C1478 0.962 . S
H1492 C1478 0.960 . S
H1493 C1479 0.961 . S
H1494 C1479 0.961 . S
H1495 C1479 0.961 . S
H1496 C1480 0.931 1_565 S
H1497 C1485 0.930 . S
H1498 C1486 0.956 . S
H1499 C1486 0.961 . S
H1500 C1486 0.961 . S
H1501 C1487 0.958 . S
H1502 C1487 0.961 . S
H1503 C1487 0.960 . S
C1504 C1505 1.391 1_556 S
C1504 C1506 1.394 1_455 S
C1504 H1520 0.931 . S
C1505 C1504 1.391 1_554 S
C1505 C1509 1.363 1_455 S
C1506 C1504 1.394 1_655 S
C1506 C1507 1.369 1_556 S
C1506 C1510 1.531 . S
C1507 C1506 1.369 1_554 S
C1507 C1508 1.410 . S
C1507 C1515 1.503 . S
C1508 C1507 1.410 . S
C1508 C1509 1.417 . S
C1508 C1511 1.511 . S
C1509 C1505 1.363 1_655 S
C1509 C1508 1.417 . S
C1509 H1521 0.917 1_655 S
C1510 C1506 1.531 . S
C1510 H1522 0.960 . S
C1510 H1523 0.962 . S
C1510 H1524 0.960 . S
C1511 C1508 1.511 . S
C1511 H1525 0.961 . S
C1511 H1526 0.961 . S
C1511 H1527 0.961 . S
C1512 C1513 1.370 . S
C1512 C1514 1.363 . S
C1512 H1528 0.931 . S
C1513 C1512 1.370 . S
C1513 C1517 1.408 . S
C1514 C1512 1.363 . S
C1514 C1515 1.370 . S
C1514 C1518 1.524 . S
C1515 C1507 1.503 . S
C1515 C1514 1.370 . S
C1515 C1516 1.403 . S
C1516 C1515 1.403 . S
C1516 C1517 1.404 . S
C1516 C1519 1.539 . S
C1517 C1513 1.408 . S
C1517 C1516 1.404 . S
C1517 H1529 0.930 . S
C1518 C1514 1.524 . S
C1518 H1530 0.956 1_554 S
C1518 H1531 0.961 . S
C1518 H1532 0.961 . S
C1519 C1516 1.539 . S
C1519 H1533 0.958 1_554 S
C1519 H1534 0.961 . S
C1519 H1535 0.960 . S
H1520 C1504 0.931 . S
H1521 C1509 0.917 1_455 S
H1522 C1510 0.960 . S
H1523 C1510 0.962 . S
H1524 C1510 0.960 . S
H1525 C1511 0.961 . S
H1526 C1511 0.961 . S
H1527 C1511 0.961 . S
H1528 C1512 0.931 . S
H1529 C1517 0.930 . S
H1530 C1518 0.956 1_556 S
H1531 C1518 0.961 . S
H1532 C1518 0.961 . S
H1533 C1519 0.958 1_556 S
H1534 C1519 0.961 . S
H1535 C1519 0.960 . S
C1536 C1537 1.391 . S
C1536 C1538 1.394 . S
C1536 H1552 0.931 . S
C1537 C1536 1.391 . S
C1537 C1541 1.376 . S
C1538 C1536 1.394 . S
C1538 C1539 1.369 . S
C1538 C1542 1.531 . S
C1539 C1538 1.369 . S
C1539 C1540 1.410 . S
C1539 C1547 1.503 . S
C1540 C1539 1.410 . S
C1540 C1541 1.392 . S
C1540 C1543 1.511 . S
C1541 C1537 1.376 . S
C1541 C1540 1.392 . S
C1541 H1553 0.929 . S
C1542 C1538 1.531 . S
C1542 H1554 0.960 . S
C1542 H1555 0.962 . S
C1542 H1556 0.960 . S
C1543 C1540 1.511 . S
C1543 H1557 0.961 . S
C1543 H1558 0.961 . S
C1543 H1559 0.961 . S
C1544 C1545 1.370 . S
C1544 C1546 1.363 . S
C1544 H1560 0.931 . S
C1545 C1544 1.370 . S
C1545 C1549 1.408 . S
C1546 C1544 1.363 . S
C1546 C1547 1.370 . S
C1546 C1550 1.524 . S
C1547 C1539 1.503 . S
C1547 C1546 1.370 . S
C1547 C1548 1.403 . S
C1548 C1547 1.403 . S
C1548 C1549 1.404 . S
C1548 C1551 1.539 . S
C1549 C1545 1.408 . S
C1549 C1548 1.404 . S
C1549 H1561 0.930 . S
C1550 C1546 1.524 . S
C1550 H1562 0.956 . S
C1550 H1563 0.961 . S
C1550 H1564 0.961 . S
C1551 C1548 1.539 . S
C1551 H1565 0.958 . S
C1551 H1566 0.961 . S
C1551 H1567 0.960 . S
H1552 C1536 0.931 . S
H1553 C1541 0.929 . S
H1554 C1542 0.960 . S
H1555 C1542 0.962 . S
H1556 C1542 0.960 . S
H1557 C1543 0.961 . S
H1558 C1543 0.961 . S
H1559 C1543 0.961 . S
H1560 C1544 0.931 . S
H1561 C1549 0.930 . S
H1562 C1550 0.956 . S
H1563 C1550 0.961 . S
H1564 C1550 0.961 . S
H1565 C1551 0.958 . S
H1566 C1551 0.961 . S
H1567 C1551 0.960 . S
C1568 C1569 1.391 . S
C1568 C1570 1.394 1_455 S
C1568 H1584 0.931 . S
C1569 C1568 1.391 . S
C1569 C1573 1.369 1_455 S
C1570 C1568 1.394 1_655 S
C1570 C1571 1.369 . S
C1570 C1574 1.531 . S
C1571 C1570 1.369 . S
C1571 C1572 1.410 . S
C1571 C1579 1.503 . S
C1572 C1571 1.410 . S
C1572 C1573 1.405 . S
C1572 C1575 1.511 . S
C1573 C1569 1.369 1_655 S
C1573 C1572 1.405 . S
C1573 H1585 0.923 1_655 S
C1574 C1570 1.531 . S
C1574 H1586 0.960 . S
C1574 H1587 0.962 . S
C1574 H1588 0.960 . S
C1575 C1572 1.511 . S
C1575 H1589 0.961 . S
C1575 H1590 0.961 . S
C1575 H1591 0.961 . S
C1576 C1577 1.370 . S
C1576 C1578 1.363 . S
C1576 H1592 0.931 . S
C1577 C1576 1.370 . S
C1577 C1581 1.408 . S
C1578 C1576 1.363 . S
C1578 C1579 1.370 . S
C1578 C1582 1.524 . S
C1579 C1571 1.503 . S
C1579 C1578 1.370 . S
C1579 C1580 1.403 . S
C1580 C1579 1.403 . S
C1580 C1581 1.404 . S
C1580 C1583 1.539 . S
C1581 C1577 1.408 . S
C1581 C1580 1.404 . S
C1581 H1593 0.930 . S
C1582 C1578 1.524 . S
C1582 H1594 0.956 . S
C1582 H1595 0.961 . S
C1582 H1596 0.961 . S
C1583 C1580 1.539 . S
C1583 H1597 0.958 . S
C1583 H1598 0.961 . S
C1583 H1599 0.960 . S
H1584 C1568 0.931 . S
H1585 C1573 0.923 1_455 S
H1586 C1574 0.960 . S
H1587 C1574 0.962 . S
H1588 C1574 0.960 . S
H1589 C1575 0.961 . S
H1590 C1575 0.961 . S
H1591 C1575 0.961 . S
H1592 C1576 0.931 . S
H1593 C1581 0.930 . S
H1594 C1582 0.956 . S
H1595 C1582 0.961 . S
H1596 C1582 0.961 . S
H1597 C1583 0.958 . S
H1598 C1583 0.961 . S
H1599 C1583 0.960 . S
C1600 C1601 1.391 . S
C1600 C1602 1.394 . S
C1600 H1616 0.931 . S
C1601 C1600 1.391 . S
C1601 C1605 1.376 . S
C1602 C1600 1.394 . S
C1602 C1603 1.369 . S
C1602 C1606 1.531 . S
C1603 C1602 1.369 . S
C1603 C1604 1.410 . S
C1603 C1611 1.503 . S
C1604 C1603 1.410 . S
C1604 C1605 1.392 . S
C1604 C1607 1.511 . S
C1605 C1601 1.376 . S
C1605 C1604 1.392 . S
C1605 H1617 0.929 . S
C1606 C1602 1.531 . S
C1606 H1618 0.960 . S
C1606 H1619 0.962 . S
C1606 H1620 0.960 . S
C1607 C1604 1.511 . S
C1607 H1621 0.961 . S
C1607 H1622 0.961 . S
C1607 H1623 0.961 . S
C1608 C1609 1.370 . S
C1608 C1610 1.363 . S
C1608 H1624 0.931 . S
C1609 C1608 1.370 . S
C1609 C1613 1.408 . S
C1610 C1608 1.363 . S
C1610 C1611 1.370 . S
C1610 C1614 1.524 . S
C1611 C1603 1.503 . S
C1611 C1610 1.370 . S
C1611 C1612 1.403 . S
C1612 C1611 1.403 . S
C1612 C1613 1.404 . S
C1612 C1615 1.539 . S
C1613 C1609 1.408 . S
C1613 C1612 1.404 . S
C1613 H1625 0.930 . S
C1614 C1610 1.524 . S
C1614 H1626 0.956 . S
C1614 H1627 0.961 . S
C1614 H1628 0.961 . S
C1615 C1612 1.539 . S
C1615 H1629 0.958 . S
C1615 H1630 0.961 . S
C1615 H1631 0.960 . S
H1616 C1600 0.931 . S
H1617 C1605 0.929 . S
H1618 C1606 0.960 . S
H1619 C1606 0.962 . S
H1620 C1606 0.960 . S
H1621 C1607 0.961 . S
H1622 C1607 0.961 . S
H1623 C1607 0.961 . S
H1624 C1608 0.931 . S
H1625 C1613 0.930 . S
H1626 C1614 0.956 . S
H1627 C1614 0.961 . S
H1628 C1614 0.961 . S
H1629 C1615 0.958 . S
H1630 C1615 0.961 . S
H1631 C1615 0.960 . S
C1632 C1633 1.391 . S
C1632 C1634 1.394 . S
C1632 H1648 0.931 . S
C1633 C1632 1.391 . S
C1633 C1637 1.356 1_554 S
C1634 C1632 1.394 . S
C1634 C1635 1.369 . S
C1634 C1638 1.531 . S
C1635 C1634 1.369 . S
C1635 C1636 1.441 . S
C1635 C1643 1.503 . S
C1636 C1635 1.441 . S
C1636 C1637 1.386 1_554 S
C1636 C1639 1.488 1_554 S
C1637 C1633 1.356 1_556 S
C1637 C1636 1.386 1_556 S
C1637 H1649 0.956 . S
C1638 C1634 1.531 . S
C1638 H1650 0.960 . S
C1638 H1651 0.962 . S
C1638 H1652 0.960 . S
C1639 C1636 1.488 1_556 S
C1639 H1653 0.961 . S
C1639 H1654 0.961 . S
C1639 H1655 0.961 1_556 S
C1640 C1641 1.370 1_556 S
C1640 C1642 1.363 . S
C1640 H1656 0.931 . S
C1641 C1640 1.370 1_554 S
C1641 C1645 1.408 . S
C1642 C1640 1.363 . S
C1642 C1643 1.370 1_556 S
C1642 C1646 1.524 . S
C1643 C1635 1.503 . S
C1643 C1642 1.370 1_554 S
C1643 C1644 1.403 . S
C1644 C1643 1.403 . S
C1644 C1645 1.404 . S
C1644 C1647 1.539 . S
C1645 C1641 1.408 . S
C1645 C1644 1.404 . S
C1645 H1657 0.930 . S
C1646 C1642 1.524 . S
C1646 H1658 0.956 . S
C1646 H1659 0.961 . S
C1646 H1660 0.961 . S
C1647 C1644 1.539 . S
C1647 H1661 0.958 . S
C1647 H1662 0.961 . S
C1647 H1663 0.960 . S
H1648 C1632 0.931 . S
H1649 C1637 0.956 . S
H1650 C1638 0.960 . S
H1651 C1638 0.962 . S
H1652 C1638 0.960 . S
H1653 C1639 0.961 . S
H1654 C1639 0.961 . S
H1655 C1639 0.961 1_554 S
H1656 C1640 0.931 . S
H1657 C1645 0.930 . S
H1658 C1646 0.956 . S
H1659 C1646 0.961 . S
H1660 C1646 0.961 . S
H1661 C1647 0.958 . S
H1662 C1647 0.961 . S
H1663 C1647 0.960 . S
C1664 C1665 1.391 . S
C1664 C1666 1.394 . S
C1664 H1680 0.931 . S
C1665 C1664 1.391 . S
C1665 C1669 1.376 . S
C1666 C1664 1.394 . S
C1666 C1667 1.369 . S
C1666 C1670 1.531 . S
C1667 C1666 1.369 . S
C1667 C1668 1.410 . S
C1667 C1675 1.503 . S
C1668 C1667 1.410 . S
C1668 C1669 1.392 . S
C1668 C1671 1.511 . S
C1669 C1665 1.376 . S
C1669 C1668 1.392 . S
C1669 H1681 0.929 . S
C1670 C1666 1.531 . S
C1670 H1682 0.960 . S
C1670 H1683 0.962 . S
C1670 H1684 0.960 . S
C1671 C1668 1.511 . S
C1671 H1685 0.961 . S
C1671 H1686 0.961 . S
C1671 H1687 0.961 . S
C1672 C1673 1.361 1_545 S
C1672 C1674 1.380 . S
C1672 H1688 0.923 1_545 S
C1673 C1672 1.361 1_565 S
C1673 C1677 1.408 . S
C1674 C1672 1.380 . S
C1674 C1675 1.370 . S
C1674 C1678 1.524 . S
C1675 C1667 1.503 . S
C1675 C1674 1.370 . S
C1675 C1676 1.403 . S
C1676 C1675 1.403 . S
C1676 C1677 1.404 1_545 S
C1676 C1679 1.539 . S
C1677 C1673 1.408 . S
C1677 C1676 1.404 1_565 S
C1677 H1689 0.930 . S
C1678 C1674 1.524 . S
C1678 H1690 0.956 . S
C1678 H1691 0.961 . S
C1678 H1692 0.961 . S
C1679 C1676 1.539 . S
C1679 H1693 0.958 . S
C1679 H1694 0.961 . S
C1679 H1695 0.960 . S
H1680 C1664 0.931 . S
H1681 C1669 0.929 . S
H1682 C1670 0.960 . S
H1683 C1670 0.962 . S
H1684 C1670 0.960 . S
H1685 C1671 0.961 . S
H1686 C1671 0.961 . S
H1687 C1671 0.961 . S
H1688 C1672 0.923 1_565 S
H1689 C1677 0.930 . S
H1690 C1678 0.956 . S
H1691 C1678 0.961 . S
H1692 C1678 0.961 . S
H1693 C1679 0.958 . S
H1694 C1679 0.961 . S
H1695 C1679 0.960 . S
C1696 C1697 1.378 1_455 S
C1696 C1698 1.419 . S
C1696 H1712 0.919 1_455 S
C1697 C1696 1.378 1_655 S
C1697 C1701 1.376 . S
C1698 C1696 1.419 . S
C1698 C1699 1.369 . S
C1698 C1702 1.531 . S
C1699 C1698 1.369 . S
C1699 C1700 1.410 . S
C1699 C1707 1.503 . S
C1700 C1699 1.410 . S
C1700 C1701 1.392 1_455 S
C1700 C1703 1.511 1_554 S
C1701 C1697 1.376 . S
C1701 C1700 1.392 1_655 S
C1701 H1713 0.925 1_554 S
C1702 C1698 1.531 . S
C1702 H1714 0.960 . S
C1702 H1715 0.962 . S
C1702 H1716 0.960 . S
C1703 C1700 1.511 1_556 S
C1703 H1717 0.961 . S
C1703 H1718 0.961 . S
C1703 H1719 0.961 1_556 S
C1704 C1705 1.370 1_556 S
C1704 C1706 1.363 . S
C1704 H1720 0.931 . S
C1705 C1704 1.370 1_554 S
C1705 C1709 1.408 . S
C1706 C1704 1.363 . S
C1706 C1707 1.370 1_556 S
C1706 C1710 1.524 . S
C1707 C1699 1.503 . S
C1707 C1706 1.370 1_554 S
C1707 C1708 1.403 . S
C1708 C1707 1.403 . S
C1708 C1709 1.404 . S
C1708 C1711 1.539 . S
C1709 C1705 1.408 . S
C1709 C1708 1.404 . S
C1709 H1721 0.930 . S
C1710 C1706 1.524 . S
C1710 H1722 0.956 . S
C1710 H1723 0.961 . S
C1710 H1724 0.961 . S
C1711 C1708 1.539 . S
C1711 H1725 0.958 . S
C1711 H1726 0.961 . S
C1711 H1727 0.960 . S
H1712 C1696 0.919 1_655 S
H1713 C1701 0.925 1_556 S
H1714 C1702 0.960 . S
H1715 C1702 0.962 . S
H1716 C1702 0.960 . S
H1717 C1703 0.961 . S
H1718 C1703 0.961 . S
H1719 C1703 0.961 1_554 S
H1720 C1704 0.931 . S
H1721 C1709 0.930 . S
H1722 C1710 0.956 . S
H1723 C1710 0.961 . S
H1724 C1710 0.961 . S
H1725 C1711 0.958 . S
H1726 C1711 0.961 . S
H1727 C1711 0.960 . S
C1728 C1729 1.391 . S
C1728 C1730 1.394 . S
C1728 H1744 0.931 . S
C1729 C1728 1.391 . S
C1729 C1733 1.376 . S
C1730 C1728 1.394 . S
C1730 C1731 1.369 . S
C1730 C1734 1.531 . S
C1731 C1730 1.369 . S
C1731 C1732 1.410 . S
C1731 C1739 1.503 . S
C1732 C1731 1.410 . S
C1732 C1733 1.392 . S
C1732 C1735 1.511 . S
C1733 C1729 1.376 . S
C1733 C1732 1.392 . S
C1733 H1745 0.929 . S
C1734 C1730 1.531 . S
C1734 H1746 0.960 . S
C1734 H1747 0.962 . S
C1734 H1748 0.960 . S
C1735 C1732 1.511 . S
C1735 H1749 0.961 . S
C1735 H1750 0.961 . S
C1735 H1751 0.961 . S
C1736 C1737 1.370 . S
C1736 C1738 1.363 . S
C1736 H1752 0.931 . S
C1737 C1736 1.370 . S
C1737 C1741 1.408 . S
C1738 C1736 1.363 . S
C1738 C1739 1.370 . S
C1738 C1742 1.524 . S
C1739 C1731 1.503 . S
C1739 C1738 1.370 . S
C1739 C1740 1.403 . S
C1740 C1739 1.403 . S
C1740 C1741 1.404 . S
C1740 C1743 1.539 . S
C1741 C1737 1.408 . S
C1741 C1740 1.404 . S
C1741 H1753 0.930 . S
C1742 C1738 1.524 . S
C1742 H1754 0.956 . S
C1742 H1755 0.961 . S
C1742 H1756 0.961 . S
C1743 C1740 1.539 . S
C1743 H1757 0.958 . S
C1743 H1758 0.961 . S
C1743 H1759 0.960 . S
H1744 C1728 0.931 . S
H1745 C1733 0.929 . S
H1746 C1734 0.960 . S
H1747 C1734 0.962 . S
H1748 C1734 0.960 . S
H1749 C1735 0.961 . S
H1750 C1735 0.961 . S
H1751 C1735 0.961 . S
H1752 C1736 0.931 . S
H1753 C1741 0.930 . S
H1754 C1742 0.956 . S
H1755 C1742 0.961 . S
H1756 C1742 0.961 . S
H1757 C1743 0.958 . S
H1758 C1743 0.961 . S
H1759 C1743 0.960 . S
C1760 C1761 1.391 . S
C1760 C1762 1.394 . S
C1760 H1776 0.931 . S
C1761 C1760 1.391 . S
C1761 C1765 1.376 . S
C1762 C1760 1.394 . S
C1762 C1763 1.369 . S
C1762 C1766 1.531 . S
C1763 C1762 1.369 . S
C1763 C1764 1.410 . S
C1763 C1771 1.503 . S
C1764 C1763 1.410 . S
C1764 C1765 1.392 . S
C1764 C1767 1.511 . S
C1765 C1761 1.376 . S
C1765 C1764 1.392 . S
C1765 H1777 0.929 . S
C1766 C1762 1.531 . S
C1766 H1778 0.960 . S
C1766 H1779 0.962 . S
C1766 H1780 0.960 . S
C1767 C1764 1.511 . S
C1767 H1781 0.961 . S
C1767 H1782 0.961 . S
C1767 H1783 0.961 . S
C1768 C1769 1.370 . S
C1768 C1770 1.363 . S
C1768 H1784 0.931 . S
C1769 C1768 1.370 . S
C1769 C1773 1.408 . S
C1770 C1768 1.363 . S
C1770 C1771 1.370 . S
C1770 C1774 1.524 . S
C1771 C1763 1.503 . S
C1771 C1770 1.370 . S
C1771 C1772 1.403 . S
C1772 C1771 1.403 . S
C1772 C1773 1.404 . S
C1772 C1775 1.539 . S
C1773 C1769 1.408 . S
C1773 C1772 1.404 . S
C1773 H1785 0.930 . S
C1774 C1770 1.524 . S
C1774 H1786 0.956 . S
C1774 H1787 0.961 . S
C1774 H1788 0.961 . S
C1775 C1772 1.539 . S
C1775 H1789 0.958 . S
C1775 H1790 0.961 . S
C1775 H1791 0.960 . S
H1776 C1760 0.931 . S
H1777 C1765 0.929 . S
H1778 C1766 0.960 . S
H1779 C1766 0.962 . S
H1780 C1766 0.960 . S
H1781 C1767 0.961 . S
H1782 C1767 0.961 . S
H1783 C1767 0.961 . S
H1784 C1768 0.931 . S
H1785 C1773 0.930 . S
H1786 C1774 0.956 . S
H1787 C1774 0.961 . S
H1788 C1774 0.961 . S
H1789 C1775 0.958 . S
H1790 C1775 0.961 . S
H1791 C1775 0.960 . S
C1792 C1793 1.377 1_565 S
C1792 C1794 1.420 . S
C1792 H1808 0.919 1_565 S
C1793 C1792 1.377 1_545 S
C1793 C1797 1.376 . S
C1794 C1792 1.420 . S
C1794 C1795 1.369 . S
C1794 C1798 1.531 . S
C1795 C1794 1.369 . S
C1795 C1796 1.410 . S
C1795 C1803 1.503 . S
C1796 C1795 1.410 . S
C1796 C1797 1.392 1_565 S
C1796 C1799 1.511 . S
C1797 C1793 1.376 . S
C1797 C1796 1.392 1_545 S
C1797 H1809 0.929 . S
C1798 C1794 1.531 . S
C1798 H1810 0.960 . S
C1798 H1811 0.962 . S
C1798 H1812 0.960 . S
C1799 C1796 1.511 . S
C1799 H1813 0.961 . S
C1799 H1814 0.961 . S
C1799 H1815 0.961 . S
C1800 C1801 1.370 . S
C1800 C1802 1.363 . S
C1800 H1816 0.931 . S
C1801 C1800 1.370 . S
C1801 C1805 1.408 . S
C1802 C1800 1.363 . S
C1802 C1803 1.370 . S
C1802 C1806 1.524 . S
C1803 C1795 1.503 . S
C1803 C1802 1.370 . S
C1803 C1804 1.403 . S
C1804 C1803 1.403 . S
C1804 C1805 1.404 . S
C1804 C1807 1.539 . S
C1805 C1801 1.408 . S
C1805 C1804 1.404 . S
C1805 H1817 0.930 . S
C1806 C1802 1.524 . S
C1806 H1818 0.956 . S
C1806 H1819 0.961 . S
C1806 H1820 0.961 . S
C1807 C1804 1.539 . S
C1807 H1821 0.958 . S
C1807 H1822 0.961 . S
C1807 H1823 0.960 . S
H1808 C1792 0.919 1_545 S
H1809 C1797 0.929 . S
H1810 C1798 0.960 . S
H1811 C1798 0.962 . S
H1812 C1798 0.960 . S
H1813 C1799 0.961 . S
H1814 C1799 0.961 . S
H1815 C1799 0.961 . S
H1816 C1800 0.931 . S
H1817 C1805 0.930 . S
H1818 C1806 0.956 . S
H1819 C1806 0.961 . S
H1820 C1806 0.961 . S
H1821 C1807 0.958 . S
H1822 C1807 0.961 . S
H1823 C1807 0.960 . S
C545 C9 1.579 . S
C553 C311 1.674 . S
C577 C43 1.633 . S
C585 C345 1.682 . S
C609 C379 1.688 . S
C617 C77 1.621 . S
C641 C277 1.685 . S
C649 C111 1.623 . S
C673 C145 1.618 . S
C681 C243 1.682 . S
C705 C141 1.670 . S
C713 C179 1.602 . S
C737 C213 1.572 . S
C745 C175 1.674 . S
C769 C247 1.632 . S
C777 C209 1.683 . S
C801 C39 1.685 . S
C809 C281 1.615 . S
C833 C73 1.675 . S
C841 C315 1.616 . S
C865 C349 1.637 . S
C873 C107 1.684 . S
C897 C383 1.613 . S
C905 C5 1.683 . S
C929 C515 1.663 . S
C937 C417 1.596 . S
C961 C413 1.662 . S
C969 C451 1.596 . S
C993 C485 1.613 . S
C1001 C447 1.681 . S
C1025 C519 1.617 . S
C1033 C481 1.680 . S
C1057 C33 1.320 . S
C1065 C373 1.286 . S
C1089 C407 1.317 . S
C1097 C67 1.288 . S
C1121 C305 1.290 . S
C1129 C101 1.299 . S
C1153 C339 1.281 . S
C1161 C135 1.302 . S
C1185 C169 1.279 . S
C1193 C509 1.306 . S
C1217 C203 1.284 . S
C1225 C543 1.298 . S
C1249 C237 1.274 . S
C1257 C441 1.307 . S
C1281 C475 1.285 . S
C1289 C271 1.298 . S
C1313 C206 0.946 . S
C1321 C20 0.973 . S
C1345 C54 0.972 . S
C1353 C240 0.945 . S
C1377 C138 0.999 . S
C1385 C88 0.971 . S
C1409 C172 0.923 . S
C1417 C122 0.982 . S
C1441 C156 0.972 . S
C1449 C70 0.963 . S
C1473 C190 0.964 . S
C1481 C104 0.963 . S
C1505 C2 0.999 . S
C1513 C224 0.970 . S
C1537 C258 0.989 . S
C1545 C36 0.937 . S
C1569 C478 0.908 . S
C1577 C292 0.980 . S
C1601 C326 0.970 . S
C1609 C512 0.947 . S
C1633 C360 0.974 . S
C1641 C410 0.944 . S
C1665 C394 0.960 . S
C1673 C444 0.963 . S
C1697 C342 0.939 . S
C1705 C428 0.976 . S
C1729 C462 0.988 . S
C1737 C376 0.939 . S
C1761 C274 0.997 . S
C1769 C496 0.970 . S
C1793 C308 0.933 . S
C1801 C530 0.976 . S
