# Generated by pormake.
# Topology uml, (4)-cn, num edge types: 1
# Building blocks:
#     Node 0, Type 0, BuildingBlock: GALJAG_clean_sbu_0, # of connection points: 4
#     Node 1, Type 0, BuildingBlock: GALJAG_clean_sbu_0, # of connection points: 4
#     Node 2, Type 0, BuildingBlock: GALJAG_clean_sbu_0, # of connection points: 4
#     Node 3, Type 0, BuildingBlock: GALJAG_clean_sbu_0, # of connection points: 4
#     Node 4, Type 0, BuildingBlock: GALJAG_clean_sbu_0, # of connection points: 4
#     Node 5, Type 0, BuildingBlock: GALJAG_clean_sbu_0, # of connection points: 4
#     Node 6, Type 0, BuildingBlock: GALJAG_clean_sbu_0, # of connection points: 4
#     Node 7, Type 0, BuildingBlock: GALJAG_clean_sbu_0, # of connection points: 4
#     Node 8, Type 0, BuildingBlock: GALJAG_clean_sbu_0, # of connection points: 4
#     Node 9, Type 0, BuildingBlock: GALJAG_clean_sbu_0, # of connection points: 4
#     Node 10, Type 0, BuildingBlock: GALJAG_clean_sbu_0, # of connection points: 4
#     Node 11, Type 0, BuildingBlock: GALJAG_clean_sbu_0, # of connection points: 4
#     Node 12, Type 0, BuildingBlock: GALJAG_clean_sbu_0, # of connection points: 4
#     Node 13, Type 0, BuildingBlock: GALJAG_clean_sbu_0, # of connection points: 4
#     Node 14, Type 0, BuildingBlock: GALJAG_clean_sbu_0, # of connection points: 4
#     Node 15, Type 0, BuildingBlock: GALJAG_clean_sbu_0, # of connection points: 4
#     Node 16, Type 0, BuildingBlock: GALJAG_clean_sbu_0, # of connection points: 4
#     Node 17, Type 0, BuildingBlock: GALJAG_clean_sbu_0, # of connection points: 4
#     Node 18, Type 0, BuildingBlock: GALJAG_clean_sbu_0, # of connection points: 4
#     Node 19, Type 0, BuildingBlock: GALJAG_clean_sbu_0, # of connection points: 4
#     Node 20, Type 0, BuildingBlock: GALJAG_clean_sbu_0, # of connection points: 4
#     Node 21, Type 0, BuildingBlock: GALJAG_clean_sbu_0, # of connection points: 4
#     Node 22, Type 0, BuildingBlock: GALJAG_clean_sbu_0, # of connection points: 4
#     Node 23, Type 0, BuildingBlock: GALJAG_clean_sbu_0, # of connection points: 4
#     Node 24, Type 0, BuildingBlock: GALJAG_clean_sbu_0, # of connection points: 4
#     Node 25, Type 0, BuildingBlock: GALJAG_clean_sbu_0, # of connection points: 4
#     Node 26, Type 0, BuildingBlock: GALJAG_clean_sbu_0, # of connection points: 4
#     Node 27, Type 0, BuildingBlock: GALJAG_clean_sbu_0, # of connection points: 4
#     Node 28, Type 0, BuildingBlock: GALJAG_clean_sbu_0, # of connection points: 4
#     Node 29, Type 0, BuildingBlock: GALJAG_clean_sbu_0, # of connection points: 4
#     Node 30, Type 0, BuildingBlock: GALJAG_clean_sbu_0, # of connection points: 4
#     Node 31, Type 0, BuildingBlock: GALJAG_clean_sbu_0, # of connection points: 4
#     Node 32, Type 0, BuildingBlock: GALJAG_clean_sbu_0, # of connection points: 4
#     Node 33, Type 0, BuildingBlock: GALJAG_clean_sbu_0, # of connection points: 4
#     Node 34, Type 0, BuildingBlock: GALJAG_clean_sbu_0, # of connection points: 4
#     Node 35, Type 0, BuildingBlock: GALJAG_clean_sbu_0, # of connection points: 4
#     Edge 36, Type (0, 0), BuildingBlock: EZIPEK_clean_linker_0, # of connection points: 2
#     Edge 37, Type (0, 0), BuildingBlock: EZIPEK_clean_linker_0, # of connection points: 2
#     Edge 38, Type (0, 0), BuildingBlock: EZIPEK_clean_linker_0, # of connection points: 2
#     Edge 39, Type (0, 0), BuildingBlock: EZIPEK_clean_linker_0, # of connection points: 2
#     Edge 40, Type (0, 0), BuildingBlock: EZIPEK_clean_linker_0, # of connection points: 2
#     Edge 41, Type (0, 0), BuildingBlock: EZIPEK_clean_linker_0, # of connection points: 2
#     Edge 42, Type (0, 0), BuildingBlock: EZIPEK_clean_linker_0, # of connection points: 2
#     Edge 43, Type (0, 0), BuildingBlock: EZIPEK_clean_linker_0, # of connection points: 2
#     Edge 44, Type (0, 0), BuildingBlock: EZIPEK_clean_linker_0, # of connection points: 2
#     Edge 45, Type (0, 0), BuildingBlock: EZIPEK_clean_linker_0, # of connection points: 2
#     Edge 46, Type (0, 0), BuildingBlock: EZIPEK_clean_linker_0, # of connection points: 2
#     Edge 47, Type (0, 0), BuildingBlock: EZIPEK_clean_linker_0, # of connection points: 2
#     Edge 48, Type (0, 0), BuildingBlock: EZIPEK_clean_linker_0, # of connection points: 2
#     Edge 49, Type (0, 0), BuildingBlock: EZIPEK_clean_linker_0, # of connection points: 2
#     Edge 50, Type (0, 0), BuildingBlock: EZIPEK_clean_linker_0, # of connection points: 2
#     Edge 51, Type (0, 0), BuildingBlock: EZIPEK_clean_linker_0, # of connection points: 2
#     Edge 52, Type (0, 0), BuildingBlock: EZIPEK_clean_linker_0, # of connection points: 2
#     Edge 53, Type (0, 0), BuildingBlock: EZIPEK_clean_linker_0, # of connection points: 2
#     Edge 54, Type (0, 0), BuildingBlock: EZIPEK_clean_linker_0, # of connection points: 2
#     Edge 55, Type (0, 0), BuildingBlock: EZIPEK_clean_linker_0, # of connection points: 2
#     Edge 56, Type (0, 0), BuildingBlock: EZIPEK_clean_linker_0, # of connection points: 2
#     Edge 57, Type (0, 0), BuildingBlock: EZIPEK_clean_linker_0, # of connection points: 2
#     Edge 58, Type (0, 0), BuildingBlock: EZIPEK_clean_linker_0, # of connection points: 2
#     Edge 59, Type (0, 0), BuildingBlock: EZIPEK_clean_linker_0, # of connection points: 2
#     Edge 60, Type (0, 0), BuildingBlock: EZIPEK_clean_linker_0, # of connection points: 2
#     Edge 61, Type (0, 0), BuildingBlock: EZIPEK_clean_linker_0, # of connection points: 2
#     Edge 62, Type (0, 0), BuildingBlock: EZIPEK_clean_linker_0, # of connection points: 2
#     Edge 63, Type (0, 0), BuildingBlock: EZIPEK_clean_linker_0, # of connection points: 2
#     Edge 64, Type (0, 0), BuildingBlock: EZIPEK_clean_linker_0, # of connection points: 2
#     Edge 65, Type (0, 0), BuildingBlock: EZIPEK_clean_linker_0, # of connection points: 2
#     Edge 66, Type (0, 0), BuildingBlock: EZIPEK_clean_linker_0, # of connection points: 2
#     Edge 67, Type (0, 0), BuildingBlock: EZIPEK_clean_linker_0, # of connection points: 2
#     Edge 68, Type (0, 0), BuildingBlock: EZIPEK_clean_linker_0, # of connection points: 2
#     Edge 69, Type (0, 0), BuildingBlock: EZIPEK_clean_linker_0, # of connection points: 2
#     Edge 70, Type (0, 0), BuildingBlock: EZIPEK_clean_linker_0, # of connection points: 2
#     Edge 71, Type (0, 0), BuildingBlock: EZIPEK_clean_linker_0, # of connection points: 2
#     Edge 72, Type (0, 0), BuildingBlock: EZIPEK_clean_linker_0, # of connection points: 2
#     Edge 73, Type (0, 0), BuildingBlock: EZIPEK_clean_linker_0, # of connection points: 2
#     Edge 74, Type (0, 0), BuildingBlock: EZIPEK_clean_linker_0, # of connection points: 2
#     Edge 75, Type (0, 0), BuildingBlock: EZIPEK_clean_linker_0, # of connection points: 2
#     Edge 76, Type (0, 0), BuildingBlock: EZIPEK_clean_linker_0, # of connection points: 2
#     Edge 77, Type (0, 0), BuildingBlock: EZIPEK_clean_linker_0, # of connection points: 2
#     Edge 78, Type (0, 0), BuildingBlock: EZIPEK_clean_linker_0, # of connection points: 2
#     Edge 79, Type (0, 0), BuildingBlock: EZIPEK_clean_linker_0, # of connection points: 2
#     Edge 80, Type (0, 0), BuildingBlock: EZIPEK_clean_linker_0, # of connection points: 2
#     Edge 81, Type (0, 0), BuildingBlock: EZIPEK_clean_linker_0, # of connection points: 2
#     Edge 82, Type (0, 0), BuildingBlock: EZIPEK_clean_linker_0, # of connection points: 2
#     Edge 83, Type (0, 0), BuildingBlock: EZIPEK_clean_linker_0, # of connection points: 2
#     Edge 84, Type (0, 0), BuildingBlock: EZIPEK_clean_linker_0, # of connection points: 2
#     Edge 85, Type (0, 0), BuildingBlock: EZIPEK_clean_linker_0, # of connection points: 2
#     Edge 86, Type (0, 0), BuildingBlock: EZIPEK_clean_linker_0, # of connection points: 2
#     Edge 87, Type (0, 0), BuildingBlock: EZIPEK_clean_linker_0, # of connection points: 2
#     Edge 88, Type (0, 0), BuildingBlock: EZIPEK_clean_linker_0, # of connection points: 2
#     Edge 89, Type (0, 0), BuildingBlock: EZIPEK_clean_linker_0, # of connection points: 2
#     Edge 90, Type (0, 0), BuildingBlock: EZIPEK_clean_linker_0, # of connection points: 2
#     Edge 91, Type (0, 0), BuildingBlock: EZIPEK_clean_linker_0, # of connection points: 2
#     Edge 92, Type (0, 0), BuildingBlock: EZIPEK_clean_linker_0, # of connection points: 2
#     Edge 93, Type (0, 0), BuildingBlock: EZIPEK_clean_linker_0, # of connection points: 2
#     Edge 94, Type (0, 0), BuildingBlock: EZIPEK_clean_linker_0, # of connection points: 2
#     Edge 95, Type (0, 0), BuildingBlock: EZIPEK_clean_linker_0, # of connection points: 2
#     Edge 96, Type (0, 0), BuildingBlock: EZIPEK_clean_linker_0, # of connection points: 2
#     Edge 97, Type (0, 0), BuildingBlock: EZIPEK_clean_linker_0, # of connection points: 2
#     Edge 98, Type (0, 0), BuildingBlock: EZIPEK_clean_linker_0, # of connection points: 2
#     Edge 99, Type (0, 0), BuildingBlock: EZIPEK_clean_linker_0, # of connection points: 2
#     Edge 100, Type (0, 0), BuildingBlock: EZIPEK_clean_linker_0, # of connection points: 2
#     Edge 101, Type (0, 0), BuildingBlock: EZIPEK_clean_linker_0, # of connection points: 2
#     Edge 102, Type (0, 0), BuildingBlock: EZIPEK_clean_linker_0, # of connection points: 2
#     Edge 103, Type (0, 0), BuildingBlock: EZIPEK_clean_linker_0, # of connection points: 2
#     Edge 104, Type (0, 0), BuildingBlock: EZIPEK_clean_linker_0, # of connection points: 2
#     Edge 105, Type (0, 0), BuildingBlock: EZIPEK_clean_linker_0, # of connection points: 2
#     Edge 106, Type (0, 0), BuildingBlock: EZIPEK_clean_linker_0, # of connection points: 2
#     Edge 107, Type (0, 0), BuildingBlock: EZIPEK_clean_linker_0, # of connection points: 2
# Relax obj value: 0.085
# Max RMSD: 0.314
# Mean RMSD: 0.220
data_MOF--net-uml--node1-GALJAG_clean_sbu_0--edge1-EZIPEK_clean_linker_0
_symmetry_space_group_name_H-M    P1
_symmetry_Int_Tables_number       1
_symmetry_cell_setting            triclinic
loop_
_symmetry_equiv_pos_as_xyz
'x, y, z'
_cell_length_a     69.078337
_cell_length_b     68.943127
_cell_length_c     20.937346
_cell_angle_alpha  90.048746
_cell_angle_beta   90.058876
_cell_angle_gamma 116.28161
loop_
_atom_site_label
_atom_site_type_symbol
_atom_site_fract_x
_atom_site_fract_y
_atom_site_fract_z
_atom_type_partial_charge
In0 In 0.32992 0.07459 0.18896 0.0
O1 O 0.30378 0.0621 0.2669 0.0
O2 O 0.33676 0.07617 0.29582 0.0
C3 C 0.30767 0.06705 0.07858 0.0
C4 C 0.34502 0.11751 0.19281 0.0
C5 C 0.35351 0.05379 0.15618 0.0
O6 O 0.29906 0.05579 0.12769 0.0
O7 O 0.32662 0.08145 0.08618 0.0
O8 O 0.35959 0.07365 0.14649 0.0
O9 O 0.33606 0.04457 0.18705 0.0
C10 C 0.3172 0.06813 0.3126 0.0
O11 O 0.35748 0.10852 0.19435 0.0
O12 O 0.32511 0.10485 0.19084 0.0
In13 In 0.88072 0.26221 0.16377 0.0
O14 O 0.8463 0.23461 0.15992 0.0
O15 O 0.87267 0.22645 0.16427 0.0
C16 C 0.87803 0.29942 0.14096 0.0
C17 C 0.89281 0.26401 0.2875 0.0
C18 C 0.89912 0.26448 0.04926 0.0
O19 O 0.8613 0.28151 0.14535 0.0
O20 O 0.89551 0.29861 0.15372 0.0
O21 O 0.91012 0.26854 0.10034 0.0
O22 O 0.87923 0.25877 0.0568 0.0
C23 C 0.85247 0.21983 0.16187 0.0
O24 O 0.90499 0.26422 0.24207 0.0
O25 O 0.87518 0.26383 0.27036 0.0
In26 In 0.75274 0.62953 0.12747 0.0
O27 O 0.78666 0.63284 0.13546 0.0
O28 O 0.78214 0.66168 0.12002 0.0
C29 C 0.71031 0.60882 0.11558 0.0
C30 C 0.75228 0.63482 0.25126 0.0
C31 C 0.75326 0.62302 0.00502 0.0
O32 O 0.72149 0.59881 0.12908 0.0
O33 O 0.72052 0.62941 0.11241 0.0
O34 O 0.75299 0.64006 0.02778 0.0
O35 O 0.7539 0.60935 0.04511 0.0
C36 C 0.79514 0.65336 0.12884 0.0
O37 O 0.75145 0.64856 0.21208 0.0
O38 O 0.75245 0.61786 0.22717 0.0
In39 In 0.09849 0.33156 0.33042 0.0
O40 O 0.13514 0.34775 0.31528 0.0
O41 O 0.11874 0.31362 0.33418 0.0
C42 C 0.07769 0.35584 0.35012 0.0
C43 C 0.08448 0.31426 0.21739 0.0
C44 C 0.09302 0.32095 0.45137 0.0
O45 O 0.09819 0.36409 0.35069 0.0
O46 O 0.06831 0.33637 0.33223 0.0
O47 O 0.08111 0.30801 0.40885 0.0
O48 O 0.10789 0.33859 0.4322 0.0
C49 C 0.13642 0.33006 0.32397 0.0
O50 O 0.0772 0.30354 0.26825 0.0
O51 O 0.09855 0.33373 0.22387 0.0
In52 In 0.6326 0.73752 0.32804 0.0
O53 O 0.65376 0.72738 0.26599 0.0
O54 O 0.63009 0.73457 0.21993 0.0
C55 C 0.64284 0.73475 0.44975 0.0
C56 C 0.64965 0.78106 0.32138 0.0
C57 C 0.5934 0.70457 0.34643 0.0
O58 O 0.65232 0.7303 0.40431 0.0
O59 O 0.62901 0.74105 0.43321 0.0
O60 O 0.59572 0.72367 0.33742 0.0
O61 O 0.61033 0.7021 0.34022 0.0
C62 C 0.64526 0.72919 0.21417 0.0
O63 O 0.62955 0.7692 0.31509 0.0
O64 O 0.66088 0.77102 0.33003 0.0
In65 In 0.25555 0.89906 0.33989 0.0
O66 O 0.25876 0.92302 0.25921 0.0
O67 O 0.2588 0.89311 0.23442 0.0
C68 C 0.26075 0.91872 0.45352 0.0
C69 C 0.21221 0.87698 0.34062 0.0
C70 C 0.28777 0.88849 0.36611 0.0
O71 O 0.25215 0.89847 0.44641 0.0
O72 O 0.26681 0.92968 0.40243 0.0
O73 O 0.26827 0.87432 0.36409 0.0
O74 O 0.29096 0.90736 0.35022 0.0
C75 C 0.25871 0.91041 0.21509 0.0
O76 O 0.2242 0.86749 0.33539 0.0
O77 O 0.22205 0.89726 0.34633 0.0
In78 In 0.6565 0.89051 0.80943 0.0
O79 O 0.68036 0.9142 0.7399 0.0
O80 O 0.65101 0.88932 0.70254 0.0
C81 C 0.67612 0.90162 0.92108 0.0
C82 C 0.65989 0.85337 0.80593 0.0
C83 C 0.62662 0.90359 0.84136 0.0
O84 O 0.68501 0.91197 0.87095 0.0
O85 O 0.65773 0.88587 0.9143 0.0
O86 O 0.62131 0.88383 0.82971 0.0
O87 O 0.64624 0.91627 0.83241 0.0
C88 C 0.66893 0.90534 0.69152 0.0
O89 O 0.64158 0.85349 0.80514 0.0
O90 O 0.67597 0.87169 0.80565 0.0
In91 In 0.09172 0.75891 0.82268 0.0
O92 O 0.12902 0.77347 0.82071 0.0
O93 O 0.11401 0.79468 0.8172 0.0
C94 C 0.07429 0.71649 0.851 0.0
C95 C 0.08059 0.76026 0.70012 0.0
C96 C 0.08201 0.76945 0.93672 0.0
O97 O 0.09447 0.72759 0.84374 0.0
O98 O 0.06305 0.7265 0.84155 0.0
O99 O 0.07085 0.76874 0.88783 0.0
O100 O 0.09774 0.76519 0.92734 0.0
C101 C 0.13134 0.79278 0.81829 0.0
O102 O 0.07328 0.76734 0.74522 0.0
O103 O 0.09267 0.75179 0.71731 0.0
In104 In 0.25192 0.36453 0.82836 0.0
O105 O 0.21959 0.36619 0.82881 0.0
O106 O 0.22003 0.33551 0.81486 0.0
C107 C 0.28856 0.39901 0.86283 0.0
C108 C 0.2589 0.35988 0.70597 0.0
C109 C 0.25203 0.34814 0.94266 0.0
O110 O 0.27036 0.39934 0.86806 0.0
O111 O 0.288 0.38274 0.83358 0.0
O112 O 0.25918 0.34231 0.89408 0.0
O113 O 0.24391 0.361 0.93184 0.0
C114 C 0.20888 0.34579 0.82164 0.0
O115 O 0.25978 0.34724 0.74871 0.0
O116 O 0.25489 0.37519 0.72542 0.0
In117 In 0.93982 0.67231 0.66936 0.0
O118 O 0.90361 0.65001 0.67526 0.0
O119 O 0.9146 0.68436 0.6746 0.0
C120 C 0.96216 0.65017 0.64274 0.0
C121 C 0.94786 0.6835 0.79301 0.0
C122 C 0.94345 0.68811 0.55127 0.0
O123 O 0.94194 0.6408 0.65214 0.0
O124 O 0.97117 0.67053 0.64953 0.0
O125 O 0.95494 0.69996 0.59662 0.0
O126 O 0.93093 0.66885 0.56604 0.0
C127 C 0.89882 0.6658 0.67525 0.0
O128 O 0.95323 0.69761 0.7491 0.0
O129 O 0.94053 0.66418 0.77367 0.0
In130 In 0.37138 0.2532 0.69684 0.0
O131 O 0.35991 0.21699 0.70304 0.0
O132 O 0.33593 0.22809 0.68506 0.0
C133 C 0.38201 0.29394 0.66096 0.0
C134 C 0.37693 0.25813 0.82332 0.0
C135 C 0.39003 0.25063 0.58925 0.0
O136 O 0.39554 0.28764 0.68087 0.0
O137 O 0.36232 0.27993 0.66382 0.0
O138 O 0.37131 0.24955 0.59186 0.0
O139 O 0.39945 0.25182 0.64238 0.0
C140 C 0.34025 0.21214 0.69285 0.0
O141 O 0.36124 0.2591 0.7947 0.0
O142 O 0.39014 0.25494 0.78786 0.0
In143 In 0.73183 0.12183 0.67267 0.0
O144 O 0.72741 0.0956 0.74621 0.0
O145 O 0.73117 0.12642 0.77957 0.0
C146 C 0.73498 0.1096 0.55298 0.0
C147 C 0.77361 0.15054 0.674 0.0
C148 C 0.69299 0.12009 0.64931 0.0
O149 O 0.7306 0.12502 0.56644 0.0
O150 O 0.73709 0.09946 0.60101 0.0
O151 O 0.70953 0.13805 0.65745 0.0
O152 O 0.69586 0.10341 0.65869 0.0
C153 C 0.72933 0.10783 0.79353 0.0
O154 O 0.75878 0.1567 0.67356 0.0
O155 O 0.7672 0.13035 0.67486 0.0
In156 In 0.00045 0.41446 0.48085 0.0
O157 O 0.97119 0.39542 0.54571 0.0
O158 O 0.00187 0.41313 0.58952 0.0
C159 C 0.9859 0.41128 0.36023 0.0
C160 C 0.00919 0.45593 0.49459 0.0
C161 C 0.02711 0.39658 0.45559 0.0
O162 O 0.97402 0.39915 0.40407 0.0
O163 O 0.00452 0.42462 0.37768 0.0
O164 O 0.03406 0.41626 0.47072 0.0
O165 O 0.00686 0.38556 0.45846 0.0
C166 C 0.98184 0.40188 0.59706 0.0
O167 O 0.02382 0.44968 0.49857 0.0
O168 O 0.99035 0.44138 0.48425 0.0
In169 In 0.54885 0.59266 0.52092 0.0
O170 O 0.57182 0.59438 0.6013 0.0
O171 O 0.54718 0.60417 0.6213 0.0
C172 C 0.56578 0.59019 0.40943 0.0
C173 C 0.52056 0.55061 0.53115 0.0
C174 C 0.54846 0.62895 0.47713 0.0
O175 O 0.57766 0.59645 0.45879 0.0
O176 O 0.54595 0.58447 0.41803 0.0
O177 O 0.53099 0.61181 0.4843 0.0
O178 O 0.56532 0.62799 0.49648 0.0
C179 C 0.56268 0.60099 0.64243 0.0
O180 O 0.51431 0.56537 0.53203 0.0
O181 O 0.54068 0.55712 0.52666 0.0
In182 In 0.40711 0.94178 0.48567 0.0
O183 O 0.40027 0.96127 0.561 0.0
O184 O 0.40745 0.93503 0.59012 0.0
C185 C 0.40585 0.94543 0.36122 0.0
C186 C 0.45016 0.96287 0.48704 0.0
C187 C 0.36758 0.91022 0.47128 0.0
O188 O 0.40322 0.95877 0.39833 0.0
O189 O 0.4099 0.93106 0.3876 0.0
O190 O 0.38359 0.90588 0.47898 0.0
O191 O 0.3716 0.92999 0.47594 0.0
C192 C 0.40305 0.95042 0.60618 0.0
O193 O 0.44034 0.94224 0.48897 0.0
O194 O 0.43812 0.97241 0.48487 0.0
In195 In 0.77555 0.66219 0.6434 0.0
O196 O 0.75568 0.63995 0.56387 0.0
O197 O 0.77916 0.67178 0.53893 0.0
C198 C 0.76169 0.63647 0.74421 0.0
C199 C 0.81527 0.66449 0.64549 0.0
C200 C 0.7606 0.69039 0.68086 0.0
O201 O 0.75274 0.63041 0.69036 0.0
O202 O 0.77726 0.65509 0.74651 0.0
O203 O 0.78053 0.69617 0.67275 0.0
O204 O 0.7484 0.67099 0.66688 0.0
C205 C 0.76487 0.65364 0.52053 0.0
O206 O 0.81211 0.68106 0.65345 0.0
O207 O 0.79863 0.64716 0.63418 0.0
In208 In 0.27986 0.07691 0.69367 0.0
O209 O 0.27226 0.1061 0.68266 0.0
O210 O 0.30515 0.11177 0.69473 0.0
C211 C 0.24615 0.03835 0.71137 0.0
C212 C 0.29214 0.07152 0.57578 0.0
C213 C 0.28943 0.0749 0.81652 0.0
O214 O 0.24344 0.05539 0.70703 0.0
O215 O 0.26514 0.04084 0.7017 0.0
O216 O 0.30048 0.07211 0.7721 0.0
O217 O 0.27476 0.07986 0.7985 0.0
C218 C 0.29198 0.11975 0.68751 0.0
O219 O 0.30337 0.07262 0.62489 0.0
O220 O 0.27477 0.07295 0.58626 0.0
In221 In 0.90727 0.23519 0.67293 0.0
O222 O 0.88057 0.20041 0.6662 0.0
O223 O 0.87178 0.2262 0.68073 0.0
C224 C 0.94518 0.23341 0.69182 0.0
C225 C 0.90683 0.24865 0.55255 0.0
C226 C 0.91079 0.25443 0.78677 0.0
O227 O 0.92794 0.22019 0.71813 0.0
O228 O 0.94243 0.24499 0.64959 0.0
O229 O 0.91561 0.26547 0.73569 0.0
O230 O 0.90379 0.23435 0.77913 0.0
C231 C 0.86561 0.20615 0.67361 0.0
O232 O 0.90912 0.26089 0.60023 0.0
O233 O 0.90535 0.23013 0.56587 0.0
In234 In 0.36338 0.24501 0.22013 0.0
O235 O 0.38522 0.26729 0.14172 0.0
O236 O 0.35489 0.24125 0.11556 0.0
C237 C 0.38417 0.25246 0.33222 0.0
C238 C 0.36304 0.20647 0.20315 0.0
C239 C 0.33298 0.25797 0.24869 0.0
O240 O 0.39345 0.26314 0.28281 0.0
O241 O 0.36478 0.23882 0.32453 0.0
O242 O 0.32856 0.23821 0.24205 0.0
O243 O 0.35251 0.27112 0.23927 0.0
C244 C 0.37225 0.25675 0.0975 0.0
O245 O 0.34603 0.20841 0.21558 0.0
O246 O 0.38006 0.22397 0.19942 0.0
In247 In 0.76041 0.08822 0.17119 0.0
O248 O 0.73542 0.0894 0.10142 0.0
O249 O 0.76354 0.08793 0.06353 0.0
C250 C 0.74908 0.09224 0.29076 0.0
C251 C 0.79297 0.12844 0.16595 0.0
C252 C 0.75301 0.04679 0.19004 0.0
O253 O 0.73675 0.09048 0.24382 0.0
O254 O 0.76675 0.09205 0.27701 0.0
O255 O 0.77176 0.06234 0.19521 0.0
O256 O 0.73884 0.05205 0.16924 0.0
C257 C 0.74616 0.08931 0.05242 0.0
O258 O 0.79643 0.1119 0.15939 0.0
O259 O 0.77349 0.12446 0.17468 0.0
In260 In 0.93115 0.7189 0.16792 0.0
O261 O 0.94211 0.69863 0.10475 0.0
O262 O 0.93647 0.72362 0.06067 0.0
C263 C 0.93454 0.70712 0.28789 0.0
C264 C 0.88799 0.70098 0.15209 0.0
C265 C 0.96193 0.75893 0.19146 0.0
O266 O 0.94181 0.70077 0.24099 0.0
O267 O 0.92476 0.71822 0.27366 0.0
O268 O 0.94227 0.75511 0.18771 0.0
O269 O 0.96586 0.7432 0.17832 0.0
C270 C 0.94173 0.70836 0.05389 0.0
O271 O 0.8995 0.72124 0.14911 0.0
O272 O 0.89814 0.68996 0.16293 0.0
In273 In 0.57721 0.98513 0.98699 0.0
O274 O 0.59756 0.01138 0.05904 0.0
O275 O 0.57559 0.98024 0.09412 0.0
C276 C 0.58759 0.00108 0.86855 0.0
C277 C 0.5394 0.98689 0.99272 0.0
C278 C 0.58859 0.95341 0.95986 0.0
O279 O 0.60135 0.00776 0.9135 0.0
O280 O 0.5689 0.98783 0.88518 0.0
O281 O 0.56903 0.95005 0.96078 0.0
O282 O 0.60191 0.9719 0.97904 0.0
C283 C 0.58908 0.99943 0.10704 0.0
O284 O 0.54048 0.96897 0.99299 0.0
O285 O 0.5573 0.00363 0.99081 0.0
In286 In 0.03817 0.59115 0.98769 0.0
O287 O 0.02795 0.55505 0.99129 0.0
O288 O 0.00299 0.56504 0.97856 0.0
C289 C 0.04209 0.63038 0.95432 0.0
C290 C 0.04541 0.59561 0.11464 0.0
C291 C 0.05918 0.59059 0.88118 0.0
O292 O 0.05729 0.62736 0.97827 0.0
O293 O 0.02405 0.6137 0.95087 0.0
O294 O 0.03972 0.58724 0.88226 0.0
O295 O 0.06843 0.59344 0.93515 0.0
C296 C 0.00805 0.54952 0.98354 0.0
O297 O 0.02878 0.59542 0.08877 0.0
O298 O 0.05868 0.59372 0.07633 0.0
In299 In 0.41062 0.45851 0.0163 0.0
O300 O 0.40855 0.4312 0.08151 0.0
O301 O 0.41059 0.46052 0.12377 0.0
C302 C 0.41167 0.44328 0.89939 0.0
C303 C 0.45048 0.4915 0.01923 0.0
C304 C 0.36912 0.45078 0.99713 0.0
O305 O 0.41498 0.43433 0.94843 0.0
O306 O 0.40804 0.45931 0.91055 0.0
O307 O 0.3846 0.46673 0.97161 0.0
O308 O 0.37489 0.44163 0.04011 0.0
C309 C 0.4093 0.44176 0.13196 0.0
O310 O 0.43396 0.49484 0.02712 0.0
O311 O 0.44669 0.47205 0.01113 0.0
In312 In 0.68224 0.74314 0.82887 0.0
O313 O 0.65856 0.72525 0.90901 0.0
O314 O 0.6919 0.74289 0.93231 0.0
C315 C 0.66376 0.73345 0.71415 0.0
C316 C 0.67873 0.78027 0.83362 0.0
C317 C 0.71265 0.73109 0.79541 0.0
O318 O 0.65537 0.72075 0.76097 0.0
O319 O 0.68082 0.75026 0.72619 0.0
O320 O 0.7173 0.75062 0.80855 0.0
O321 O 0.69305 0.7177 0.80238 0.0
C322 C 0.67284 0.73217 0.95236 0.0
O323 O 0.69704 0.78022 0.82943 0.0
O324 O 0.6628 0.76193 0.83843 0.0
In325 In 0.22732 0.92177 0.82923 0.0
O326 O 0.1932 0.89389 0.83386 0.0
O327 O 0.21941 0.88598 0.81934 0.0
C328 C 0.21995 0.95676 0.81154 0.0
C329 C 0.24238 0.92364 0.95005 0.0
C330 C 0.24668 0.92659 0.71459 0.0
O331 O 0.20476 0.93779 0.81203 0.0
O332 O 0.23828 0.95805 0.82504 0.0
O333 O 0.25743 0.93111 0.76606 0.0
O334 O 0.22655 0.91929 0.72159 0.0
C335 C 0.1993 0.87925 0.82587 0.0
O336 O 0.2538 0.92495 0.90162 0.0
O337 O 0.2238 0.92187 0.93759 0.0
In338 In 0.07229 0.28395 0.83317 0.0
O339 O 0.10302 0.27914 0.82772 0.0
O340 O 0.10554 0.31127 0.83982 0.0
C341 C 0.0306 0.26158 0.80385 0.0
C342 C 0.06935 0.28664 0.95713 0.0
C343 C 0.07772 0.29768 0.71567 0.0
O344 O 0.03884 0.28085 0.82523 0.0
O345 O 0.04328 0.25259 0.80258 0.0
O346 O 0.07881 0.31014 0.76204 0.0
O347 O 0.07313 0.27821 0.72988 0.0
C348 C 0.1152 0.29949 0.83244 0.0
O349 O 0.06818 0.30057 0.91963 0.0
O350 O 0.07121 0.27077 0.93157 0.0
In351 In 0.41685 0.98508 0.99427 0.0
O352 O 0.39817 0.96111 0.91621 0.0
O353 O 0.42138 0.99297 0.88921 0.0
C354 C 0.40426 0.96087 0.09893 0.0
C355 C 0.4577 0.99062 0.99148 0.0
C356 C 0.3992 0.01127 0.02979 0.0
O357 O 0.3952 0.95334 0.04587 0.0
O358 O 0.41905 0.9799 0.09802 0.0
O359 O 0.41786 0.0144 0.0471 0.0
O360 O 0.39052 0.99636 0.98922 0.0
C361 C 0.40781 0.97429 0.87171 0.0
O362 O 0.45332 0.0066 0.98774 0.0
O363 O 0.44167 0.97233 0.99561 0.0
In364 In 0.94731 0.4137 0.97917 0.0
O365 O 0.96794 0.40842 0.90159 0.0
O366 O 0.93703 0.40562 0.87489 0.0
C367 C 0.96373 0.41404 0.09531 0.0
C368 C 0.9605 0.45677 0.97032 0.0
C369 C 0.91213 0.37827 0.01564 0.0
O370 O 0.97012 0.4074 0.04686 0.0
O371 O 0.95022 0.42129 0.08406 0.0
O372 O 0.91141 0.39619 0.00751 0.0
O373 O 0.92974 0.37811 0.00065 0.0
C374 C 0.95437 0.40525 0.85718 0.0
O375 O 0.94059 0.44358 0.97243 0.0
O376 O 0.97329 0.44819 0.97065 0.0
In377 In 0.58268 0.57877 0.01865 0.0
O378 O 0.557 0.54373 0.00317 0.0
O379 O 0.54684 0.56847 0.02 0.0
C380 C 0.62274 0.58281 0.0375 0.0
C381 C 0.58423 0.59669 0.9045 0.0
C382 C 0.57892 0.58581 0.14164 0.0
O383 O 0.60717 0.56467 0.02374 0.0
O384 O 0.61825 0.5987 0.0376 0.0
O385 O 0.58065 0.5999 0.10005 0.0
O386 O 0.57883 0.56863 0.12032 0.0
C387 C 0.54146 0.54868 0.01018 0.0
O388 O 0.58406 0.60638 0.95581 0.0
O389 O 0.58487 0.57877 0.91127 0.0
In390 In 0.03561 0.58707 0.51419 0.0
O391 O 0.01117 0.55165 0.51969 0.0
O392 O 0.04392 0.5594 0.49612 0.0
C393 C 0.01188 0.60743 0.54827 0.0
C394 C 0.04489 0.59689 0.38977 0.0
C395 C 0.05798 0.59293 0.62331 0.0
O396 O 0.00345 0.58756 0.53415 0.0
O397 O 0.03217 0.61724 0.54325 0.0
O398 O 0.06704 0.60325 0.57315 0.0
O399 O 0.03826 0.58008 0.61745 0.0
C400 C 0.02503 0.54496 0.50646 0.0
O401 O 0.05947 0.60369 0.43223 0.0
O402 O 0.02596 0.58614 0.4103 0.0
In403 In 0.42785 0.42065 0.51825 0.0
O404 O 0.40669 0.42425 0.43947 0.0
O405 O 0.43276 0.41712 0.41288 0.0
C406 C 0.4155 0.42569 0.63427 0.0
C407 C 0.46229 0.45974 0.52155 0.0
C408 C 0.41633 0.37888 0.54436 0.0
O409 O 0.40407 0.42498 0.58591 0.0
O410 O 0.43277 0.4243 0.62324 0.0
O411 O 0.43603 0.39239 0.53794 0.0
O412 O 0.40281 0.38612 0.53258 0.0
C413 C 0.41747 0.42121 0.3949 0.0
O414 O 0.46461 0.44246 0.51965 0.0
O415 O 0.44302 0.45712 0.52051 0.0
In416 In 0.58688 0.03598 0.49068 0.0
O417 O 0.55332 0.03539 0.48542 0.0
O418 O 0.55522 0.00545 0.49408 0.0
C419 C 0.61705 0.07599 0.51984 0.0
C420 C 0.5942 0.02834 0.36909 0.0
C421 C 0.59276 0.02196 0.6041 0.0
O422 O 0.59724 0.0717 0.51628 0.0
O423 O 0.62149 0.06089 0.5025 0.0
O424 O 0.58427 0.03468 0.59733 0.0
O425 O 0.59801 0.01561 0.55304 0.0
C426 C 0.54332 0.01495 0.4894 0.0
O427 O 0.5985 0.01928 0.41581 0.0
O428 O 0.58697 0.04168 0.38386 0.0
In429 In 0.25259 0.31771 0.32963 0.0
O430 O 0.2706 0.34622 0.39597 0.0
O431 O 0.24964 0.31534 0.4366 0.0
C432 C 0.25708 0.32734 0.2067 0.0
C433 C 0.21414 0.31808 0.32919 0.0
C434 C 0.27518 0.29477 0.31908 0.0
O435 O 0.26956 0.34035 0.24831 0.0
O436 O 0.24287 0.30955 0.22773 0.0
O437 O 0.25465 0.28552 0.32104 0.0
O438 O 0.28388 0.31502 0.32747 0.0
C439 C 0.26209 0.33518 0.44559 0.0
O440 O 0.21581 0.30074 0.3411 0.0
O441 O 0.23162 0.33466 0.31813 0.0
In442 In 0.70356 0.91747 0.30703 0.0
O443 O 0.68142 0.91718 0.38566 0.0
O444 O 0.7139 0.92242 0.40917 0.0
C445 C 0.69819 0.91364 0.18418 0.0
C446 C 0.69014 0.87494 0.31597 0.0
C447 C 0.72511 0.95957 0.28516 0.0
O448 O 0.68404 0.91507 0.22038 0.0
O449 O 0.71486 0.91377 0.21058 0.0
O450 O 0.73516 0.94816 0.29592 0.0
O451 O 0.70466 0.94977 0.28965 0.0
C452 C 0.69545 0.91977 0.42856 0.0
O453 O 0.71015 0.88812 0.32123 0.0
O454 O 0.67743 0.88346 0.30639 0.0
In455 In 0.07752 0.80039 0.32317 0.0
O456 O 0.1047 0.83459 0.33856 0.0
O457 O 0.11293 0.80834 0.32592 0.0
C458 C 0.03979 0.80157 0.30434 0.0
C459 C 0.07251 0.78132 0.43765 0.0
C460 C 0.07847 0.78934 0.20119 0.0
O461 O 0.05707 0.81887 0.31149 0.0
O462 O 0.04154 0.78425 0.31147 0.0
O463 O 0.07532 0.77592 0.24605 0.0
O464 O 0.08172 0.80806 0.21845 0.0
C465 C 0.11939 0.82834 0.33484 0.0
O466 O 0.07335 0.77186 0.38661 0.0
O467 O 0.07364 0.8 0.43068 0.0
C468 C 0.28908 0.0504 0.47476 0.0
C469 C 0.29933 0.07002 0.50984 0.0
C470 C 0.31952 0.08852 0.41422 0.0
C471 C 0.31078 0.06853 0.38044 0.0
N472 N 0.28967 0.02981 0.38111 0.0
N473 N 0.32691 0.10688 0.51653 0.0
C474 C 0.29613 0.04927 0.41135 0.0
C475 C 0.31547 0.08876 0.48074 0.0
N476 N 0.27252 0.0329 0.50197 0.0
N477 N 0.33053 0.10752 0.38194 0.0
H478 H 0.32396 0.10802 0.56488 0.0
H479 H 0.34049 0.12017 0.49962 0.0
H480 H 0.33286 0.10828 0.33269 0.0
H481 H 0.33533 0.1227 0.40262 0.0
H482 H 0.26273 0.01894 0.47677 0.0
H483 H 0.2677 0.0328 0.54923 0.0
H484 H 0.28082 0.01496 0.40328 0.0
H485 H 0.29467 0.02837 0.33511 0.0
C486 C 0.88363 0.24067 0.45522 0.0
C487 C 0.90327 0.25419 0.48622 0.0
C488 C 0.91566 0.27591 0.38813 0.0
C489 C 0.89707 0.26071 0.35547 0.0
N490 N 0.86613 0.22567 0.35496 0.0
N491 N 0.9392 0.28344 0.48079 0.0
C492 C 0.8818 0.24228 0.38823 0.0
C493 C 0.91964 0.27157 0.4524 0.0
N494 N 0.86636 0.22678 0.49017 0.0
N495 N 0.92914 0.29472 0.35851 0.0
H496 H 0.94253 0.28082 0.52773 0.0
H497 H 0.95256 0.29479 0.45653 0.0
H498 H 0.92669 0.29832 0.3117 0.0
H499 H 0.94171 0.30743 0.3818 0.0
H500 H 0.85102 0.21798 0.47069 0.0
H501 H 0.86674 0.22594 0.53985 0.0
H502 H 0.85586 0.21097 0.37586 0.0
H503 H 0.86505 0.22555 0.3053 0.0
C504 C 0.74586 0.65307 0.41856 0.0
C505 C 0.76078 0.64809 0.45255 0.0
C506 C 0.77155 0.63662 0.3541 0.0
C507 C 0.75498 0.63931 0.3207 0.0
N508 N 0.72415 0.64719 0.32327 0.0
N509 N 0.78475 0.63118 0.4562 0.0
C510 C 0.74154 0.64682 0.35343 0.0
C511 C 0.77261 0.63855 0.42143 0.0
N512 N 0.73603 0.66401 0.44832 0.0
N513 N 0.78723 0.63371 0.32152 0.0
H514 H 0.78603 0.63241 0.50582 0.0
H515 H 0.79191 0.62206 0.43641 0.0
H516 H 0.78807 0.63356 0.27188 0.0
H517 H 0.80089 0.63399 0.34352 0.0
H518 H 0.72692 0.67034 0.42421 0.0
H519 H 0.73824 0.6681 0.49667 0.0
H520 H 0.71244 0.65014 0.34672 0.0
H521 H 0.72035 0.64277 0.27573 0.0
C522 C 0.05462 0.29041 0.06283 0.0
C523 C 0.072 0.29076 0.02619 0.0
C524 C 0.09541 0.30141 0.12006 0.0
C525 C 0.0791 0.30408 0.15415 0.0
N526 N 0.0435 0.30231 0.15929 0.0
N527 N 0.10995 0.29998 0.0166 0.0
C528 C 0.05865 0.29868 0.12623 0.0
C529 C 0.09264 0.29694 0.05398 0.0
N530 N 0.03433 0.28198 0.0371 0.0
N531 N 0.11343 0.30285 0.15114 0.0
H532 H 0.10879 0.2976 0.96743 0.0
H533 H 0.12581 0.30685 0.03325 0.0
H534 H 0.11584 0.30583 0.20005 0.0
H535 H 0.12488 0.29895 0.12989 0.0
H536 H 0.02058 0.27943 0.0631 0.0
H537 H 0.03101 0.27588 0.99063 0.0
H538 H 0.02917 0.30096 0.13918 0.0
H539 H 0.04586 0.30797 0.20626 0.0
C540 C 0.67264 0.74645 0.12881 0.0
C541 C 0.65425 0.72815 0.15077 0.0
C542 C 0.65134 0.71052 0.04692 0.0
C543 C 0.66738 0.73027 0.02177 0.0
N544 N 0.69 0.76873 0.03807 0.0
N545 N 0.625 0.69299 0.13064 0.0
C546 C 0.67737 0.74866 0.06258 0.0
C547 C 0.64325 0.71021 0.10976 0.0
N548 N 0.68551 0.76196 0.17098 0.0
N549 N 0.64445 0.69192 0.01186 0.0
H550 H 0.61931 0.69183 0.17734 0.0
H551 H 0.61488 0.68052 0.10076 0.0
H552 H 0.65074 0.69135 0.96703 0.0
H553 H 0.63422 0.67672 0.02982 0.0
H554 H 0.70036 0.77449 0.15826 0.0
H555 H 0.68241 0.7612 0.21986 0.0
H556 H 0.69547 0.78283 0.06528 0.0
H557 H 0.69302 0.77194 0.98965 0.0
C558 C 0.23927 0.89712 0.11035 0.0
C559 C 0.25565 0.91402 0.14615 0.0
C560 C 0.26369 0.93791 0.05227 0.0
C561 C 0.24851 0.9204 0.01589 0.0
N562 N 0.22634 0.88202 0.00572 0.0
N563 N 0.28621 0.9493 0.14731 0.0
C564 C 0.23772 0.8996 0.04358 0.0
C565 C 0.26865 0.93414 0.11604 0.0
N566 N 0.22423 0.87913 0.14029 0.0
N567 N 0.27292 0.9582 0.02653 0.0
H568 H 0.29066 0.94688 0.19311 0.0
H569 H 0.29746 0.9634 0.1258 0.0
H570 H 0.27003 0.96131 0.9796 0.0
H571 H 0.2822 0.97206 0.05287 0.0
H572 H 0.21064 0.86761 0.11709 0.0
H573 H 0.22376 0.87676 0.18945 0.0
H574 H 0.21993 0.86616 0.02242 0.0
H575 H 0.22532 0.88312 0.95626 0.0
C576 C 0.69054 0.90192 0.60157 0.0
C577 C 0.67735 0.91104 0.62625 0.0
C578 C 0.67932 0.92912 0.52431 0.0
C579 C 0.68991 0.91751 0.49718 0.0
N580 N 0.70137 0.88909 0.50759 0.0
N581 N 0.65748 0.9319 0.61135 0.0
C582 C 0.69456 0.903 0.53516 0.0
C583 C 0.6712 0.92424 0.58766 0.0
N584 N 0.69929 0.89221 0.6415 0.0
N585 N 0.67779 0.94535 0.49057 0.0
H586 H 0.65201 0.92935 0.65848 0.0
H587 H 0.65048 0.93959 0.58334 0.0
H588 H 0.68418 0.94984 0.44484 0.0
H589 H 0.67206 0.95572 0.51005 0.0
H590 H 0.71086 0.88734 0.62677 0.0
H591 H 0.69657 0.89086 0.69061 0.0
H592 H 0.70254 0.87658 0.53253 0.0
H593 H 0.70357 0.8883 0.45866 0.0
C594 C 0.0939 0.7763 0.52615 0.0
C595 C 0.07351 0.77284 0.50181 0.0
C596 C 0.05689 0.75786 0.60524 0.0
C597 C 0.07778 0.76422 0.63171 0.0
N598 N 0.11646 0.7844 0.61981 0.0
N599 N 0.03554 0.76162 0.51794 0.0
C600 C 0.09639 0.7746 0.59273 0.0
C601 C 0.05494 0.76397 0.54133 0.0
N602 N 0.111 0.78137 0.48583 0.0
N603 N 0.03899 0.74538 0.64027 0.0
H604 H 0.03344 0.76497 0.47052 0.0
H605 H 0.02188 0.75748 0.54619 0.0
H606 H 0.03988 0.74034 0.68667 0.0
H607 H 0.0234 0.73848 0.62161 0.0
H608 H 0.12567 0.78194 0.50048 0.0
H609 H 0.10995 0.78305 0.43664 0.0
H610 H 0.13034 0.79406 0.59423 0.0
H611 H 0.11894 0.78514 0.66897 0.0
C612 C 0.24757 0.35119 0.5278 0.0
C613 C 0.26381 0.34513 0.50905 0.0
C614 C 0.27956 0.35357 0.61623 0.0
C615 C 0.2613 0.35619 0.63736 0.0
N616 N 0.22595 0.35383 0.61479 0.0
N617 N 0.29479 0.3393 0.53478 0.0
C618 C 0.24486 0.35428 0.5935 0.0
C619 C 0.27977 0.34606 0.55302 0.0
N620 N 0.23477 0.35408 0.48274 0.0
N621 N 0.29692 0.35891 0.65584 0.0
H622 H 0.29587 0.33457 0.48806 0.0
H623 H 0.30532 0.33721 0.56659 0.0
H624 H 0.29755 0.36506 0.70175 0.0
H625 H 0.31146 0.35924 0.64121 0.0
H626 H 0.22402 0.36051 0.49307 0.0
H627 H 0.23644 0.35208 0.43404 0.0
H628 H 0.21256 0.35006 0.58545 0.0
H629 H 0.22268 0.35497 0.66284 0.0
C630 C 0.96538 0.706 0.89083 0.0
C631 C 0.94727 0.68884 0.86184 0.0
C632 C 0.9277 0.68195 0.96387 0.0
C633 C 0.9446 0.70083 0.98985 0.0
N634 N 0.97905 0.7319 0.97797 0.0
N635 N 0.90948 0.66284 0.86877 0.0
C636 C 0.96332 0.7132 0.95324 0.0
C637 C 0.92804 0.67726 0.89796 0.0
N638 N 0.9848 0.71477 0.85987 0.0
N639 N 0.91108 0.66852 0.00194 0.0
H640 H 0.90824 0.65908 0.82039 0.0
H641 H 0.89447 0.65619 0.89114 0.0
H642 H 0.90948 0.67182 0.0497 0.0
H643 H 0.89978 0.65318 0.98764 0.0
H644 H 0.99912 0.72584 0.88085 0.0
H645 H 0.98706 0.70941 0.81516 0.0
H646 H 0.99191 0.74294 0.95126 0.0
H647 H 0.97857 0.73703 0.02461 0.0
C648 C 0.37546 0.27647 0.99419 0.0
C649 C 0.37773 0.25998 0.02883 0.0
C650 C 0.38029 0.24265 0.92912 0.0
C651 C 0.37887 0.25959 0.89399 0.0
N652 N 0.37979 0.295 0.89298 0.0
N653 N 0.38796 0.23083 0.03079 0.0
C654 C 0.37789 0.27726 0.92656 0.0
C655 C 0.38205 0.24423 0.99663 0.0
N656 N 0.37016 0.29082 0.02564 0.0
N657 N 0.37841 0.22432 0.89874 0.0
H658 H 0.38975 0.23185 0.08026 0.0
H659 H 0.39331 0.22038 0.00971 0.0
H660 H 0.37621 0.22193 0.84964 0.0
H661 H 0.37686 0.21051 0.92296 0.0
H662 H 0.36568 0.30158 0.00247 0.0
H663 H 0.369 0.29109 0.07528 0.0
H664 H 0.38129 0.30923 0.91445 0.0
H665 H 0.38186 0.29623 0.84363 0.0
C666 C 0.71725 0.08435 0.89248 0.0
C667 C 0.7331 0.10245 0.85976 0.0
C668 C 0.75538 0.11321 0.95654 0.0
C669 C 0.74079 0.09396 0.98723 0.0
N670 N 0.7089 0.05985 0.98296 0.0
N671 N 0.76954 0.13117 0.85639 0.0
C672 C 0.72193 0.07914 0.95489 0.0
C673 C 0.75279 0.11608 0.89063 0.0
N674 N 0.69753 0.0726 0.86481 0.0
N675 N 0.77129 0.12923 0.99096 0.0
H676 H 0.76878 0.13327 0.80735 0.0
H677 H 0.78497 0.13996 0.87521 0.0
H678 H 0.77324 0.12813 0.03998 0.0
H679 H 0.78101 0.14451 0.97243 0.0
H680 H 0.68452 0.06061 0.88863 0.0
H681 H 0.69365 0.07598 0.81933 0.0
H682 H 0.69619 0.04737 0.95938 0.0
H683 H 0.71176 0.0557 0.02871 0.0
C684 C 0.95591 0.41508 0.73997 0.0
C685 C 0.95896 0.40233 0.78884 0.0
C686 C 0.9755 0.38765 0.71003 0.0
C687 C 0.97165 0.39973 0.66107 0.0
N688 N 0.95414 0.42151 0.62688 0.0
N689 N 0.96666 0.37252 0.81674 0.0
C690 C 0.96038 0.41216 0.6752 0.0
C691 C 0.96735 0.38747 0.77279 0.0
N692 N 0.95024 0.43116 0.75546 0.0
N693 N 0.98716 0.37649 0.69668 0.0
H694 H 0.96003 0.37132 0.86214 0.0
H695 H 0.97059 0.35993 0.80621 0.0
H696 H 0.99222 0.37519 0.6506 0.0
H697 H 0.99282 0.36954 0.73167 0.0
H698 H 0.95075 0.44285 0.72316 0.0
H699 H 0.94689 0.43424 0.80171 0.0
H700 H 0.94361 0.42844 0.63349 0.0
H701 H 0.95799 0.42089 0.57911 0.0
C702 C 0.59098 0.61237 0.72919 0.0
C703 C 0.56883 0.60346 0.71122 0.0
C704 C 0.55886 0.59916 0.82444 0.0
C705 C 0.58026 0.60354 0.84092 0.0
N706 N 0.617 0.61384 0.80938 0.0
N707 N 0.5313 0.5843 0.7438 0.0
C708 C 0.59647 0.61009 0.79337 0.0
C709 C 0.55261 0.59605 0.75933 0.0
N710 N 0.6067 0.62365 0.68575 0.0
N711 N 0.54429 0.59738 0.87086 0.0
H712 H 0.52572 0.57971 0.69745 0.0
H713 H 0.5193 0.57679 0.77786 0.0
H714 H 0.54811 0.59915 0.91933 0.0
H715 H 0.52904 0.59622 0.86063 0.0
H716 H 0.62298 0.63199 0.69773 0.0
H717 H 0.60325 0.6267 0.63939 0.0
H718 H 0.62892 0.6162 0.77566 0.0
H719 H 0.62173 0.61347 0.85656 0.0
C720 C 0.42431 0.96801 0.77316 0.0
C721 C 0.40588 0.96755 0.80415 0.0
C722 C 0.38477 0.95434 0.70575 0.0
C723 C 0.40383 0.95692 0.67363 0.0
N724 N 0.44261 0.97077 0.67291 0.0
N725 N 0.36918 0.9628 0.79941 0.0
C726 C 0.42386 0.96506 0.70624 0.0
C727 C 0.3862 0.96134 0.77038 0.0
N728 N 0.44195 0.97031 0.80805 0.0
N729 N 0.36529 0.94464 0.67511 0.0
H730 H 0.36969 0.96771 0.84679 0.0
H731 H 0.35517 0.96068 0.77542 0.0
H732 H 0.36377 0.93955 0.62762 0.0
H733 H 0.35055 0.94022 0.69786 0.0
H734 H 0.45499 0.96861 0.78858 0.0
H735 H 0.4426 0.97162 0.85769 0.0
H736 H 0.45787 0.97885 0.69347 0.0
H737 H 0.443 0.96951 0.62338 0.0
C738 C 0.61287 0.02427 0.26959 0.0
C739 C 0.59364 0.02094 0.30227 0.0
C740 C 0.57278 0.00706 0.20428 0.0
C741 C 0.59141 0.00807 0.1731 0.0
N742 N 0.62893 0.0156 0.17717 0.0
N743 N 0.55468 0.00411 0.30485 0.0
C744 C 0.61147 0.01621 0.20596 0.0
C745 C 0.57342 0.01091 0.27077 0.0
N746 N 0.6324 0.03559 0.2987 0.0
N747 N 0.55464 0.00334 0.16987 0.0
H748 H 0.55441 0.00563 0.35433 0.0
H749 H 0.53949 0.99479 0.2851 0.0
H750 H 0.55388 0.00155 0.12042 0.0
H751 H 0.54133 0.00453 0.18929 0.0
H752 H 0.64712 0.04049 0.27537 0.0
H753 H 0.63387 0.04145 0.34532 0.0
H754 H 0.6434 0.01918 0.20073 0.0
H755 H 0.62844 0.01004 0.13055 0.0
C756 C 0.04508 0.61467 0.28506 0.0
C757 C 0.04935 0.59944 0.32024 0.0
C758 C 0.05237 0.58221 0.22059 0.0
C759 C 0.04881 0.59791 0.18508 0.0
N760 N 0.04757 0.63231 0.18319 0.0
N761 N 0.06206 0.57207 0.32234 0.0
C762 C 0.04689 0.61513 0.2173 0.0
C763 C 0.05478 0.58441 0.28815 0.0
N764 N 0.03885 0.62838 0.31633 0.0
N765 N 0.05192 0.56438 0.19065 0.0
H766 H 0.06372 0.57306 0.3719 0.0
H767 H 0.06826 0.56233 0.30124 0.0
H768 H 0.04959 0.56171 0.14166 0.0
H769 H 0.05189 0.55121 0.21509 0.0
H770 H 0.03297 0.63803 0.29301 0.0
H771 H 0.03839 0.62919 0.36605 0.0
H772 H 0.04816 0.64625 0.20422 0.0
H773 H 0.04989 0.63358 0.1339 0.0
C774 C 0.39244 0.41973 0.23054 0.0
C775 C 0.41108 0.43397 0.19647 0.0
C776 C 0.4328 0.441 0.29323 0.0
C777 C 0.41475 0.42547 0.32673 0.0
N778 N 0.3781 0.39744 0.32498 0.0
N779 N 0.44982 0.45314 0.19063 0.0
C780 C 0.39469 0.41406 0.29477 0.0
C781 C 0.43153 0.44297 0.22635 0.0
N782 N 0.37263 0.41207 0.20203 0.0
N783 N 0.45071 0.45497 0.3258 0.0
H784 H 0.44943 0.45431 0.14099 0.0
H785 H 0.46529 0.45828 0.20946 0.0
H786 H 0.45152 0.45529 0.37548 0.0
H787 H 0.4635 0.4679 0.30411 0.0
H788 H 0.35817 0.40356 0.22638 0.0
H789 H 0.37063 0.41535 0.15449 0.0
H790 H 0.3638 0.38714 0.30224 0.0
H791 H 0.37931 0.39285 0.37171 0.0
C792 C 0.37508 0.17775 0.22705 0.0
C793 C 0.36254 0.1852 0.18989 0.0
C794 C 0.34455 0.14962 0.13973 0.0
C795 C 0.35293 0.14114 0.18836 0.0
N796 N 0.37524 0.14713 0.28241 0.0
N797 N 0.33666 0.17885 0.10527 0.0
C798 C 0.36817 0.15519 0.23279 0.0
C799 C 0.34763 0.17129 0.14446 0.0
N800 N 0.39381 0.19199 0.25535 0.0
N801 N 0.33469 0.13732 0.08746 0.0
H802 H 0.34029 0.1952 0.10214 0.0
H803 H 0.32356 0.16879 0.07731 0.0
H804 H 0.33365 0.12193 0.08047 0.0
H805 H 0.32987 0.14321 0.04781 0.0
H806 H 0.40422 0.18712 0.27893 0.0
H807 H 0.40041 0.20861 0.2482 0.0
H808 H 0.38444 0.15675 0.31996 0.0
H809 H 0.37039 0.13067 0.28936 0.0
C810 C 0.82335 0.16024 0.11229 0.0
C811 C 0.81017 0.15116 0.16668 0.0
C812 C 0.82319 0.18731 0.21481 0.0
C813 C 0.83732 0.19633 0.16223 0.0
N814 N 0.85275 0.1913 0.06381 0.0
N815 N 0.80149 0.15508 0.27585 0.0
C816 C 0.83809 0.18271 0.1121 0.0
C817 C 0.81121 0.16445 0.21965 0.0
N818 N 0.82097 0.14771 0.05947 0.0
N819 N 0.82103 0.20051 0.26014 0.0
H820 H 0.79335 0.13835 0.28195 0.0
H821 H 0.80339 0.16363 0.31829 0.0
H822 H 0.83 0.21726 0.26017 0.0
H823 H 0.80914 0.19501 0.29524 0.0
H824 H 0.82798 0.15387 0.01545 0.0
H825 H 0.81076 0.13118 0.05808 0.0
H826 H 0.85609 0.18195 0.03058 0.0
H827 H 0.86246 0.20785 0.05852 0.0
C828 C 0.85505 0.67988 0.0858 0.0
C829 C 0.8642 0.69058 0.14402 0.0
C830 C 0.82796 0.67929 0.18882 0.0
C831 C 0.81886 0.66688 0.13287 0.0
N832 N 0.8232 0.65455 0.02864 0.0
N833 N 0.86004 0.69902 0.25328 0.0
C834 C 0.83228 0.66696 0.08145 0.0
C835 C 0.85083 0.69004 0.19604 0.0
N836 N 0.86816 0.68262 0.03423 0.0
N837 N 0.81471 0.68088 0.23491 0.0
H838 H 0.8767 0.70748 0.25988 0.0
H839 H 0.85136 0.69693 0.29541 0.0
H840 H 0.79792 0.67267 0.2325 0.0
H841 H 0.8202 0.69147 0.27351 0.0
H842 H 0.86255 0.67695 0.98855 0.0
H843 H 0.88484 0.69208 0.03591 0.0
H844 H 0.83199 0.65174 0.99255 0.0
H845 H 0.80655 0.64617 0.0221 0.0
C846 C 0.16923 0.33105 0.26945 0.0
C847 C 0.15708 0.32833 0.32612 0.0
C848 C 0.18197 0.31799 0.38499 0.0
C849 C 0.19334 0.31948 0.32745 0.0
N850 N 0.19649 0.32438 0.21337 0.0
N851 N 0.15079 0.31827 0.43734 0.0
C852 C 0.18666 0.32528 0.26926 0.0
C853 C 0.16312 0.32145 0.38369 0.0
N854 N 0.16411 0.33914 0.21583 0.0
N855 N 0.18981 0.31432 0.4414 0.0
H856 H 0.13834 0.32286 0.44059 0.0
H857 H 0.15232 0.31041 0.47806 0.0
H858 H 0.20318 0.3111 0.44412 0.0
H859 H 0.18402 0.31577 0.48612 0.0
H860 H 0.17364 0.34374 0.17497 0.0
H861 H 0.15095 0.34268 0.21333 0.0
H862 H 0.19122 0.32632 0.16834 0.0
H863 H 0.209 0.31982 0.21138 0.0
C864 C 0.65526 0.81668 0.36929 0.0
C865 C 0.65965 0.8051 0.31992 0.0
C866 C 0.68745 0.8392 0.2765 0.0
C867 C 0.68147 0.85098 0.32163 0.0
N868 N 0.65886 0.8511 0.40955 0.0
N869 N 0.67699 0.80525 0.22017 0.0
C870 C 0.66509 0.83974 0.36752 0.0
C871 C 0.67506 0.81634 0.27201 0.0
N872 N 0.64241 0.80567 0.4194 0.0
N873 N 0.7049 0.84973 0.23773 0.0
H874 H 0.66754 0.78867 0.21415 0.0
H875 H 0.68624 0.81268 0.18017 0.0
H876 H 0.71406 0.86645 0.23769 0.0
H877 H 0.71142 0.84176 0.20904 0.0
H878 H 0.6407 0.81311 0.46086 0.0
H879 H 0.63459 0.78883 0.42188 0.0
H880 H 0.64515 0.84402 0.43805 0.0
H881 H 0.66686 0.86787 0.4142 0.0
C882 C 0.17643 0.86907 0.29024 0.0
C883 C 0.18829 0.86538 0.34048 0.0
C884 C 0.15438 0.84149 0.39357 0.0
C885 C 0.14272 0.84312 0.33979 0.0
N886 N 0.14217 0.85703 0.23469 0.0
N887 N 0.18893 0.8476 0.43917 0.0
C888 C 0.15359 0.8567 0.28775 0.0
C889 C 0.17736 0.85139 0.39188 0.0
N890 N 0.18695 0.88444 0.24496 0.0
N891 N 0.14338 0.83118 0.44723 0.0
H892 H 0.20572 0.85563 0.44213 0.0
H893 H 0.18202 0.83565 0.47374 0.0
H894 H 0.12659 0.82457 0.45042 0.0
H895 H 0.15075 0.83093 0.49039 0.0
H896 H 0.17909 0.88966 0.21165 0.0
H897 H 0.20369 0.89316 0.24293 0.0
H898 H 0.14931 0.86424 0.19174 0.0
H899 H 0.12537 0.84891 0.23215 0.0
C900 C 0.67358 0.82832 0.76051 0.0
C901 C 0.66295 0.83352 0.81083 0.0
C902 C 0.66544 0.80573 0.8788 0.0
C903 C 0.67537 0.79997 0.82768 0.0
N904 N 0.68706 0.80394 0.71777 0.0
N905 N 0.64695 0.8265 0.91581 0.0
C906 C 0.67914 0.8109 0.76809 0.0
C907 C 0.65825 0.82194 0.86932 0.0
N908 N 0.67836 0.84016 0.70538 0.0
N909 N 0.66369 0.7962 0.9372 0.0
H910 H 0.64232 0.83892 0.91205 0.0
H911 H 0.64095 0.81726 0.95678 0.0
H912 H 0.66873 0.78424 0.94559 0.0
H913 H 0.65876 0.80104 0.97865 0.0
H914 H 0.68867 0.83947 0.67019 0.0
H915 H 0.67244 0.85137 0.6955 0.0
H916 H 0.68761 0.80924 0.671 0.0
H917 H 0.69206 0.7918 0.72161 0.0
C918 C 0.17273 0.84601 0.88259 0.0
C919 C 0.18403 0.85583 0.8257 0.0
C920 C 0.165 0.82126 0.76825 0.0
C921 C 0.15245 0.81228 0.82347 0.0
N922 N 0.14916 0.81283 0.93726 0.0
N923 N 0.19119 0.85337 0.71395 0.0
C924 C 0.15778 0.82373 0.88196 0.0
C925 C 0.18055 0.84348 0.76858 0.0
N926 N 0.17575 0.85817 0.93666 0.0
N927 N 0.1623 0.80826 0.71642 0.0
H928 H 0.20253 0.86956 0.71233 0.0
H929 H 0.18814 0.84604 0.66922 0.0
H930 H 0.15182 0.79178 0.71729 0.0
H931 H 0.17154 0.81305 0.67508 0.0
H932 H 0.16619 0.8527 0.9773 0.0
H933 H 0.18707 0.87433 0.93995 0.0
H934 H 0.15382 0.81944 0.98266 0.0
H935 H 0.13873 0.79633 0.93775 0.0
C936 C 0.15199 0.30459 0.87024 0.0
C937 C 0.13924 0.30969 0.82633 0.0
C938 C 0.17212 0.33934 0.78177 0.0
C939 C 0.18488 0.33408 0.82493 0.0
N940 N 0.18757 0.31176 0.91011 0.0
N941 N 0.1372 0.32929 0.73312 0.0
C942 C 0.17496 0.31662 0.86886 0.0
C943 C 0.14934 0.32645 0.78044 0.0
N944 N 0.14208 0.28896 0.91537 0.0
N945 N 0.18174 0.3567 0.74179 0.0
H946 H 0.12058 0.32027 0.73017 0.0
H947 H 0.14354 0.33916 0.69349 0.0
H948 H 0.19841 0.36534 0.73648 0.0
H949 H 0.17334 0.36342 0.71597 0.0
H950 H 0.1499 0.28621 0.95421 0.0
H951 H 0.12553 0.27896 0.91581 0.0
H952 H 0.18213 0.2976 0.93666 0.0
H953 H 0.20392 0.32183 0.91746 0.0
C954 C 0.8474 0.67079 0.71316 0.0
C955 C 0.83662 0.66476 0.65353 0.0
C956 C 0.86446 0.65496 0.61371 0.0
C957 C 0.87649 0.66335 0.67069 0.0
N958 N 0.88104 0.68247 0.77074 0.0
N959 N 0.83655 0.65483 0.54318 0.0
C960 C 0.86846 0.67225 0.71924 0.0
C961 C 0.84551 0.6577 0.60281 0.0
N962 N 0.83721 0.67421 0.76485 0.0
N963 N 0.87125 0.64475 0.56939 0.0
H964 H 0.82318 0.65757 0.53299 0.0
H965 H 0.84357 0.65194 0.50258 0.0
H966 H 0.88564 0.64343 0.57328 0.0
H967 H 0.86186 0.63624 0.53065 0.0
H968 H 0.84335 0.67618 0.81114 0.0
H969 H 0.82167 0.67308 0.76284 0.0
H970 H 0.87698 0.69144 0.8035 0.0
H971 H 0.89634 0.68343 0.77831 0.0
C972 C 0.32403 0.1774 0.63064 0.0
C973 C 0.32397 0.18914 0.68637 0.0
C974 C 0.299 0.15536 0.73873 0.0
C975 C 0.29975 0.14359 0.68385 0.0
N976 N 0.30843 0.14319 0.57294 0.0
N977 N 0.30846 0.19041 0.78818 0.0
C978 C 0.31085 0.15461 0.62824 0.0
C979 C 0.31034 0.17844 0.73861 0.0
N980 N 0.3372 0.18802 0.5807 0.0
N981 N 0.28831 0.14434 0.79194 0.0
H982 H 0.31692 0.20724 0.78986 0.0
H983 H 0.29746 0.18397 0.82534 0.0
H984 H 0.27914 0.12759 0.79246 0.0
H985 H 0.28917 0.15153 0.83623 0.0
H986 H 0.34015 0.18029 0.54186 0.0
H987 H 0.34597 0.20482 0.5792 0.0
H988 H 0.3146 0.15022 0.52898 0.0
H989 H 0.29856 0.12657 0.5699 0.0
C990 C 0.8068 0.17951 0.72484 0.0
C991 C 0.79702 0.16547 0.67246 0.0
C992 C 0.83245 0.17777 0.6206 0.0
C993 C 0.84233 0.19082 0.67472 0.0
N994 N 0.83977 0.20095 0.78346 0.0
N995 N 0.80058 0.14904 0.57382 0.0
C996 C 0.82972 0.1909 0.72817 0.0
C997 C 0.80989 0.1639 0.62147 0.0
N998 N 0.79424 0.18186 0.77179 0.0
N999 N 0.8444 0.17938 0.56705 0.0
H1000 H 0.78398 0.13969 0.56944 0.0
H1001 H 0.80936 0.14503 0.54038 0.0
H1002 H 0.86104 0.18884 0.56469 0.0
H1003 H 0.83769 0.1726 0.52318 0.0
H1004 H 0.80019 0.19373 0.80703 0.0
H1005 H 0.77752 0.17288 0.77346 0.0
H1006 H 0.83171 0.19975 0.82634 0.0
H1007 H 0.85652 0.20882 0.78844 0.0
C1008 C 0.00904 0.48689 0.55589 0.0
C1009 C 0.01372 0.47881 0.49868 0.0
C1010 C 0.02251 0.5131 0.44468 0.0
C1011 C 0.01981 0.52185 0.50337 0.0
N1012 N 0.01353 0.51845 0.61715 0.0
N1013 N 0.02754 0.48453 0.391 0.0
C1014 C 0.01376 0.5091 0.55967 0.0
C1015 C 0.0213 0.49204 0.44376 0.0
N1016 N 0.99996 0.47329 0.60636 0.0
N1017 N 0.02529 0.52461 0.38943 0.0
H1018 H 0.02645 0.46898 0.38804 0.0
H1019 H 0.03533 0.4942 0.35203 0.0
H1020 H 0.02557 0.53987 0.38822 0.0
H1021 H 0.02524 0.51832 0.34418 0.0
H1022 H 0.99378 0.47754 0.64647 0.0
H1023 H 0.99735 0.45718 0.60651 0.0
H1024 H 0.0117 0.51061 0.66081 0.0
H1025 H 0.01683 0.53467 0.62192 0.0
C1026 C 0.49134 0.49271 0.47203 0.0
C1027 C 0.4804 0.48179 0.52765 0.0
C1028 C 0.49744 0.51587 0.5883 0.0
C1029 C 0.50565 0.52715 0.5303 0.0
N1030 N 0.50777 0.52676 0.41542 0.0
N1031 N 0.47353 0.48213 0.64009 0.0
C1032 C 0.50195 0.51567 0.47172 0.0
C1033 C 0.48366 0.49316 0.58636 0.0
N1034 N 0.49208 0.48109 0.4201 0.0
N1035 N 0.50322 0.5268 0.64503 0.0
H1036 H 0.46483 0.46532 0.64092 0.0
H1037 H 0.47326 0.48951 0.6832 0.0
H1038 H 0.51285 0.54346 0.64763 0.0
H1039 H 0.4996 0.51937 0.68956 0.0
H1040 H 0.50134 0.4881 0.37973 0.0
H1041 H 0.48537 0.46423 0.42068 0.0
H1042 H 0.5036 0.5193 0.37085 0.0
H1043 H 0.51492 0.5436 0.41328 0.0
C1044 C 0.50911 0.98859 0.54173 0.0
C1045 C 0.51935 0.0026 0.48971 0.0
C1046 C 0.48423 0.99062 0.43607 0.0
C1047 C 0.47417 0.97547 0.48614 0.0
N1048 N 0.47749 0.95811 0.58302 0.0
N1049 N 0.51738 0.01531 0.38382 0.0
C1050 C 0.48678 0.97379 0.53766 0.0
C1051 C 0.50708 0.00331 0.43614 0.0
N1052 N 0.52053 0.99028 0.59664 0.0
N1053 N 0.47193 0.99285 0.38802 0.0
H1054 H 0.53391 0.02536 0.38248 0.0
H1055 H 0.50989 0.0143 0.33995 0.0
H1056 H 0.4556 0.98248 0.3818 0.0
H1057 H 0.47762 0.00558 0.35555 0.0
H1058 H 0.51359 0.98232 0.63892 0.0
H1059 H 0.53671 0.00131 0.60219 0.0
H1060 H 0.4863 0.95431 0.61692 0.0
H1061 H 0.46104 0.94778 0.58465 0.0
C1062 C 0.4935 0.99979 0.94011 0.0
C1063 C 0.47988 0.99266 0.99425 0.0
C1064 C 0.50458 0.98066 0.04582 0.0
C1065 C 0.5187 0.98847 0.99272 0.0
N1066 N 0.5281 0.00774 0.89221 0.0
N1067 N 0.47462 0.98137 0.10422 0.0
C1068 C 0.51369 0.99889 0.94097 0.0
C1069 C 0.48606 0.98453 0.04873 0.0
N1070 N 0.48664 0.00634 0.88663 0.0
N1071 N 0.50873 0.96941 0.09334 0.0
H1072 H 0.46137 0.98475 0.10845 0.0
H1073 H 0.47943 0.97755 0.14763 0.0
H1074 H 0.5226 0.96704 0.095 0.0
H1075 H 0.49772 0.96112 0.12913 0.0
H1076 H 0.49435 0.00892 0.84259 0.0
H1077 H 0.47238 0.00802 0.88498 0.0
H1078 H 0.52677 0.01803 0.85797 0.0
H1079 H 0.54208 0.0057 0.88722 0.0
C1080 C 0.97792 0.51511 0.02508 0.0
C1081 C 0.99239 0.52638 0.97513 0.0
C1082 C 0.98108 0.49235 0.9154 0.0
C1083 C 0.96887 0.48074 0.96895 0.0
N1084 N 0.95643 0.4806 0.07658 0.0
N1085 N 0.00772 0.52634 0.87186 0.0
C1086 C 0.96715 0.49201 0.02392 0.0
C1087 C 0.99381 0.51516 0.91976 0.0
N1088 N 0.97468 0.5265 0.07394 0.0
N1089 N 0.98014 0.48147 0.85995 0.0
H1090 H 0.01599 0.54318 0.87107 0.0
H1091 H 0.01176 0.51906 0.834 0.0
H1092 H 0.9711 0.46479 0.85564 0.0
H1093 H 0.98684 0.48895 0.81691 0.0
H1094 H 0.9628 0.51955 0.10859 0.0
H1095 H 0.98283 0.54332 0.07714 0.0
H1096 H 0.95678 0.48762 0.12084 0.0
H1097 H 0.94816 0.46376 0.0774 0.0
C1098 C 0.48658 0.50902 0.07076 0.0
C1099 C 0.47306 0.5086 0.01942 0.0
C1100 C 0.50476 0.53381 0.95947 0.0
C1101 C 0.51834 0.53278 0.00905 0.0
N1102 N 0.52251 0.51603 0.10574 0.0
N1103 N 0.46874 0.51929 0.91307 0.0
C1104 C 0.50935 0.51932 0.06283 0.0
C1105 C 0.48199 0.52078 0.96331 0.0
N1106 N 0.47754 0.50025 0.12811 0.0
N1107 N 0.51375 0.54715 0.90849 0.0
H1108 H 0.45197 0.5109 0.91596 0.0
H1109 H 0.47425 0.52558 0.8679 0.0
H1110 H 0.53039 0.5551 0.90122 0.0
H1111 H 0.50488 0.55078 0.87439 0.0
H1112 H 0.48648 0.50171 0.16945 0.0
H1113 H 0.46091 0.49358 0.1358 0.0
H1114 H 0.51676 0.50472 0.14247 0.0
H1115 H 0.53927 0.52325 0.10142 0.0
C1116 C 0.39849 0.04403 0.08148 0.0
C1117 C 0.38734 0.02214 0.06147 0.0
C1118 C 0.35349 0.02141 0.09924 0.0
C1119 C 0.36509 0.04214 0.12757 0.0
N1120 N 0.3998 0.07046 0.15937 0.0
N1121 N 0.35482 0.9882 0.07182 0.0
C1122 C 0.38797 0.05267 0.12285 0.0
C1123 C 0.36502 0.01025 0.07623 0.0
N1124 N 0.41875 0.05693 0.05923 0.0
N1125 N 0.33164 0.0126 0.09083 0.0
H1126 H 0.36264 0.97881 0.06016 0.0
H1127 H 0.33907 0.97906 0.08791 0.0
H1128 H 0.32229 0.0204 0.10308 0.0
H1129 H 0.32318 0.99852 0.06434 0.0
H1130 H 0.42669 0.07349 0.06851 0.0
H1131 H 0.42651 0.05172 0.02547 0.0
H1132 H 0.41662 0.07755 0.1612 0.0
H1133 H 0.39286 0.07645 0.19352 0.0
C1134 C 0.87212 0.32062 0.0515 0.0
C1135 C 0.87828 0.31977 0.11591 0.0
C1136 C 0.89734 0.35943 0.11832 0.0
C1137 C 0.89557 0.35968 0.05092 0.0
N1138 N 0.88014 0.34139 0.9528 0.0
N1139 N 0.89448 0.33819 0.21354 0.0
C1140 C 0.8822 0.34055 0.01752 0.0
C1141 C 0.88988 0.33923 0.1505 0.0
N1142 N 0.85716 0.30238 0.02245 0.0
N1143 N 0.90656 0.37855 0.15099 0.0
H1144 H 0.88789 0.32369 0.23904 0.0
H1145 H 0.90519 0.35138 0.23999 0.0
H1146 H 0.91171 0.39345 0.12822 0.0
H1147 H 0.90733 0.37972 0.20056 0.0
H1148 H 0.85091 0.30227 0.97712 0.0
H1149 H 0.84941 0.2876 0.04577 0.0
H1150 H 0.8728 0.32779 0.92375 0.0
H1151 H 0.88658 0.35599 0.9278 0.0
C1152 C 0.67239 0.60129 0.1427 0.0
C1153 C 0.68675 0.59745 0.10239 0.0
C1154 C 0.65805 0.58066 0.02233 0.0
C1155 C 0.64391 0.58522 0.0618 0.0
N1156 N 0.63542 0.59352 0.16695 0.0
N1157 N 0.69166 0.57771 0.01351 0.0
C1158 C 0.65044 0.59365 0.12432 0.0
C1159 C 0.67901 0.58509 0.04552 0.0
N1160 N 0.6798 0.6123 0.19867 0.0
N1161 N 0.65199 0.57338 0.96138 0.0
H1162 H 0.70725 0.58104 0.02805 0.0
H1163 H 0.68613 0.5669 0.97542 0.0
H1164 H 0.63674 0.56983 0.94303 0.0
H1165 H 0.66252 0.5723 0.92759 0.0
H1166 H 0.67116 0.61837 0.22614 0.0
H1167 H 0.69509 0.61588 0.21666 0.0
H1168 H 0.63866 0.59767 0.21492 0.0
H1169 H 0.61908 0.58705 0.15591 0.0
C1170 C 0.05432 0.39621 0.37605 0.0
C1171 C 0.04136 0.3873 0.43112 0.0
C1172 C 0.05074 0.35701 0.42949 0.0
C1173 C 0.0653 0.36685 0.37777 0.0
N1174 N 0.08282 0.39718 0.30659 0.0
N1175 N 0.03102 0.36205 0.51841 0.0
C1176 C 0.06784 0.38701 0.35303 0.0
C1177 C 0.0406 0.36847 0.45999 0.0
N1178 N 0.05266 0.41252 0.34304 0.0
N1179 N 0.04634 0.33663 0.44985 0.0
H1180 H 0.02381 0.37032 0.54296 0.0
H1181 H 0.03219 0.34995 0.54554 0.0
H1182 H 0.05463 0.32804 0.43477 0.0
H1183 H 0.03359 0.3277 0.48037 0.0
H1184 H 0.05974 0.41797 0.29863 0.0
H1185 H 0.04259 0.4194 0.35687 0.0
H1186 H 0.08732 0.4131 0.2926 0.0
H1187 H 0.09173 0.39022 0.28443 0.0
C1188 C 0.56854 0.68739 0.43855 0.0
C1189 C 0.57363 0.68677 0.37299 0.0
C1190 C 0.55285 0.64733 0.37192 0.0
C1191 C 0.55038 0.64782 0.4391 0.0
N1192 N 0.54963 0.66725 0.53299 0.0
N1193 N 0.56605 0.6677 0.27332 0.0
C1194 C 0.55602 0.66762 0.4711 0.0
C1195 C 0.56401 0.66715 0.33829 0.0
N1196 N 0.57703 0.70667 0.47057 0.0
N1197 N 0.54567 0.62785 0.34141 0.0
H1198 H 0.57408 0.68224 0.24853 0.0
H1199 H 0.55861 0.65428 0.24372 0.0
H1200 H 0.53615 0.6133 0.36429 0.0
H1201 H 0.5492 0.62595 0.2942 0.0
H1202 H 0.57642 0.70809 0.5199 0.0
H1203 H 0.58515 0.72149 0.44763 0.0
H1204 H 0.5518 0.68095 0.55888 0.0
H1205 H 0.54041 0.65274 0.55674 0.0
C1206 C 0.32361 0.88821 0.35179 0.0
C1207 C 0.30573 0.88444 0.39159 0.0
C1208 C 0.32789 0.88854 0.48685 0.0
C1209 C 0.34617 0.89451 0.44709 0.0
N1210 N 0.36039 0.89243 0.34406 0.0
N1211 N 0.28884 0.87351 0.49468 0.0
C1212 C 0.34356 0.89151 0.38016 0.0
C1213 C 0.30715 0.88181 0.45845 0.0
N1214 N 0.32167 0.88955 0.28719 0.0
N1215 N 0.3307 0.89051 0.55152 0.0
H1216 H 0.2735 0.86869 0.47527 0.0
H1217 H 0.28863 0.86977 0.54289 0.0
H1218 H 0.34569 0.89457 0.57281 0.0
H1219 H 0.31855 0.88879 0.58363 0.0
H1220 H 0.33466 0.89482 0.25576 0.0
H1221 H 0.30689 0.88602 0.26528 0.0
H1222 H 0.35934 0.88927 0.29524 0.0
H1223 H 0.37488 0.89433 0.36459 0.0
C1224 C 0.60746 0.94544 0.86832 0.0
C1225 C 0.59583 0.93869 0.92672 0.0
C1226 C 0.6009 0.90561 0.92433 0.0
C1227 C 0.61171 0.9122 0.86476 0.0
N1228 N 0.61859 0.93431 0.77104 0.0
N1229 N 0.57777 0.91044 0.00383 0.0
C1230 C 0.61269 0.93077 0.83386 0.0
C1231 C 0.59111 0.918 0.95223 0.0
N1232 N 0.61433 0.96608 0.84639 0.0
N1233 N 0.60122 0.88851 0.9564 0.0
H1234 H 0.57127 0.91954 0.02736 0.0
H1235 H 0.57197 0.89462 0.02043 0.0
H1236 H 0.60796 0.87889 0.93761 0.0
H1237 H 0.59598 0.88464 0.00336 0.0
H1238 H 0.62497 0.97234 0.80822 0.0
H1239 H 0.61086 0.97759 0.86882 0.0
H1240 H 0.61764 0.94656 0.74404 0.0
H1241 H 0.62204 0.92345 0.74425 0.0
C1242 C 0.05566 0.67621 0.83468 0.0
C1243 C 0.06456 0.69416 0.87676 0.0
C1244 C 0.05253 0.66967 0.96894 0.0
C1245 C 0.04628 0.65176 0.92715 0.0
N1246 N 0.04289 0.63759 0.82017 0.0
N1247 N 0.07268 0.70843 0.98394 0.0
C1248 C 0.04784 0.65488 0.85989 0.0
C1249 C 0.06325 0.69102 0.94398 0.0
N1250 N 0.05451 0.67957 0.77072 0.0
N1251 N 0.04762 0.66614 0.03239 0.0
H1252 H 0.08019 0.72434 0.96761 0.0
H1253 H 0.07437 0.70715 0.03294 0.0
H1254 H 0.0391 0.65062 0.05111 0.0
H1255 H 0.04993 0.67835 0.0651 0.0
H1256 H 0.04614 0.66722 0.73823 0.0
H1257 H 0.06068 0.69498 0.75057 0.0
H1258 H 0.04649 0.63907 0.77165 0.0
H1259 H 0.03625 0.62167 0.83631 0.0
C1260 C 0.34124 0.41622 0.95122 0.0
C1261 C 0.34811 0.43855 0.96336 0.0
C1262 C 0.31621 0.43613 0.90404 0.0
C1263 C 0.30825 0.41325 0.90032 0.0
N1264 N 0.31076 0.3817 0.94342 0.0
N1265 N 0.34066 0.4695 0.95742 0.0
C1266 C 0.31997 0.40338 0.93101 0.0
C1267 C 0.33515 0.4485 0.94152 0.0
N1268 N 0.35523 0.40713 0.95503 0.0
N1269 N 0.30634 0.44613 0.87007 0.0
H1270 H 0.35432 0.47879 0.98465 0.0
H1271 H 0.33081 0.47704 0.9481 0.0
H1272 H 0.29281 0.43767 0.84154 0.0
H1273 H 0.31263 0.46287 0.86601 0.0
H1274 H 0.35101 0.39127 0.94065 0.0
H1275 H 0.37164 0.41591 0.96372 0.0
H1276 H 0.31829 0.37449 0.97135 0.0
H1277 H 0.29475 0.37144 0.93363 0.0
C1278 C 0.98864 0.63499 0.66098 0.0
C1279 C 0.97427 0.63846 0.61942 0.0
C1280 C 0.98559 0.62277 0.53004 0.0
C1281 C 0.99896 0.61814 0.57252 0.0
N1282 N 0.01061 0.6162 0.67993 0.0
N1283 N 0.95694 0.6337 0.51648 0.0
C1284 C 0.99984 0.6233 0.63842 0.0
C1285 C 0.97204 0.63167 0.55457 0.0
N1286 N 0.99181 0.64312 0.72176 0.0
N1287 N 0.98651 0.61944 0.46591 0.0
H1288 H 0.94744 0.64109 0.53155 0.0
H1289 H 0.95276 0.62685 0.4712 0.0
H1290 H 0.99615 0.61281 0.44643 0.0
H1291 H 0.97906 0.62468 0.43138 0.0
H1292 H 0.00391 0.64335 0.75193 0.0
H1293 H 0.98316 0.65089 0.74092 0.0
H1294 H 0.00931 0.61679 0.72933 0.0
H1295 H 0.01937 0.60796 0.66524 0.0
C1296 C 0.41309 0.35497 0.63818 0.0
C1297 C 0.4092 0.35698 0.57239 0.0
C1298 C 0.38541 0.31786 0.56608 0.0
C1299 C 0.38956 0.3158 0.63185 0.0
N1300 N 0.40847 0.33174 0.72954 0.0
N1301 N 0.3942 0.34075 0.47135 0.0
C1302 C 0.40377 0.3342 0.66744 0.0
C1303 C 0.39593 0.33851 0.53579 0.0
N1304 N 0.4249 0.3731 0.67359 0.0
N1305 N 0.37176 0.30002 0.5323 0.0
H1306 H 0.40212 0.35556 0.44795 0.0
H1307 H 0.38625 0.32801 0.43983 0.0
H1308 H 0.36625 0.30049 0.48639 0.0
H1309 H 0.36505 0.2844 0.55071 0.0
H1310 H 0.42593 0.37334 0.72316 0.0
H1311 H 0.43296 0.38847 0.65394 0.0
H1312 H 0.421 0.34351 0.7556 0.0
H1313 H 0.40025 0.31743 0.75499 0.0
C1314 C 0.65312 0.10802 0.51726 0.0
C1315 C 0.63387 0.09555 0.55122 0.0
C1316 C 0.6531 0.10787 0.65304 0.0
C1317 C 0.67272 0.11797 0.61888 0.0
N1318 N 0.69077 0.13456 0.52118 0.0
N1319 N 0.61386 0.08928 0.64954 0.0
C1320 C 0.67245 0.12054 0.55173 0.0
C1321 C 0.63326 0.09768 0.61863 0.0
N1322 N 0.65299 0.1069 0.4521 0.0
N1323 N 0.65375 0.10731 0.71821 0.0
H1324 H 0.59917 0.08197 0.62543 0.0
H1325 H 0.61211 0.09109 0.69819 0.0
H1326 H 0.6681 0.11556 0.74371 0.0
H1327 H 0.64044 0.09852 0.7469 0.0
H1328 H 0.66684 0.11332 0.42406 0.0
H1329 H 0.63871 0.09879 0.42613 0.0
H1330 H 0.69144 0.1382 0.47277 0.0
H1331 H 0.70491 0.14428 0.54573 0.0
C1332 C 0.72845 0.72272 0.69826 0.0
C1333 C 0.72823 0.72447 0.76578 0.0
C1334 C 0.75386 0.70888 0.77535 0.0
C1335 C 0.75186 0.70463 0.7086 0.0
N1336 N 0.73719 0.70677 0.60594 0.0
N1337 N 0.73999 0.71918 0.86963 0.0
C1338 C 0.73925 0.7115 0.66979 0.0
C1339 C 0.74098 0.7178 0.80465 0.0
N1340 N 0.71854 0.73209 0.66148 0.0
N1341 N 0.76786 0.70411 0.81069 0.0
H1342 H 0.73132 0.72637 0.89218 0.0
H1343 H 0.7468 0.71237 0.90147 0.0
H1344 H 0.77691 0.69681 0.79139 0.0
H1345 H 0.77168 0.70862 0.85819 0.0
H1346 H 0.71961 0.73314 0.61194 0.0
H1347 H 0.71064 0.74055 0.68092 0.0
H1348 H 0.72613 0.70877 0.57622 0.0
H1349 H 0.74598 0.69982 0.58284 0.0
C1350 C 0.21297 0.97818 0.72524 0.0
C1351 C 0.21756 0.97618 0.79045 0.0
C1352 C 0.2294 0.01507 0.80517 0.0
C1353 C 0.22999 0.01758 0.73797 0.0
N1354 N 0.22108 0.00203 0.63322 0.0
N1355 N 0.22811 0.99212 0.89467 0.0
C1356 C 0.2209 0.99921 0.69782 0.0
C1357 C 0.2248 0.99445 0.83136 0.0
N1358 N 0.20163 0.96011 0.68931 0.0
N1359 N 0.23378 0.03256 0.84345 0.0
H1360 H 0.22357 0.97698 0.91558 0.0
H1361 H 0.23593 0.00506 0.92579 0.0
H1362 H 0.23662 0.0476 0.82477 0.0
H1363 H 0.23253 0.03177 0.89301 0.0
H1364 H 0.19641 0.96058 0.64293 0.0
H1365 H 0.19577 0.94451 0.70762 0.0
H1366 H 0.21723 0.98957 0.6002 0.0
H1367 H 0.22595 0.01729 0.61276 0.0
C1368 C 0.99332 0.23062 0.77757 0.0
C1369 C 0.00905 0.25252 0.7714 0.0
C1370 C 0.98199 0.26144 0.72273 0.0
C1371 C 0.96701 0.23926 0.71952 0.0
N1372 N 0.96013 0.20204 0.73527 0.0
N1373 N 0.01941 0.28578 0.71233 0.0
C1374 C 0.97313 0.22355 0.74447 0.0
C1375 C 0.00372 0.26698 0.73592 0.0
N1376 N 0.99716 0.21684 0.81648 0.0
N1377 N 0.97556 0.27749 0.71764 0.0
H1378 H 0.03564 0.28923 0.71449 0.0
H1379 H 0.016 0.29606 0.68278 0.0
H1380 H 0.95943 0.27459 0.71717 0.0
H1381 H 0.98626 0.29378 0.72382 0.0
H1382 H 0.98541 0.20134 0.82738 0.0
H1383 H 0.01144 0.22155 0.84227 0.0
H1384 H 0.96472 0.19003 0.74759 0.0
H1385 H 0.9457 0.19637 0.70966 0.0
C1386 C 0.30505 0.25956 0.32335 0.0
C1387 C 0.31644 0.26543 0.26451 0.0
C1388 C 0.30047 0.29007 0.24133 0.0
C1389 C 0.2883 0.28358 0.29894 0.0
N1390 N 0.27633 0.25976 0.38987 0.0
N1391 N 0.32106 0.28198 0.16086 0.0
C1392 C 0.2896 0.2674 0.33811 0.0
C1393 C 0.31302 0.27947 0.22163 0.0
N1394 N 0.30992 0.24757 0.36677 0.0
N1395 N 0.30037 0.3066 0.20553 0.0
H1396 H 0.32997 0.27413 0.14421 0.0
H1397 H 0.31712 0.29006 0.12494 0.0
H1398 H 0.2904 0.31397 0.21492 0.0
H1399 H 0.31114 0.31396 0.16837 0.0
H1400 H 0.30406 0.24481 0.41332 0.0
H1401 H 0.32123 0.2417 0.35808 0.0
H1402 H 0.27475 0.24633 0.41613 0.0
H1403 H 0.2657 0.26594 0.40417 0.0
C1404 C 0.72858 0.99682 0.29647 0.0
C1405 C 0.73579 0.98282 0.26657 0.0
C1406 C 0.7572 0.01206 0.19176 0.0
C1407 C 0.74723 0.02471 0.2158 0.0
N1408 N 0.71983 0.02672 0.28464 0.0
N1409 N 0.75481 0.97609 0.17901 0.0
C1410 C 0.73183 0.01639 0.26609 0.0
C1411 C 0.74979 0.99021 0.21285 0.0
N1412 N 0.7191 0.99171 0.35535 0.0
N1413 N 0.77333 0.02062 0.14756 0.0
H1414 H 0.74953 0.95994 0.19169 0.0
H1415 H 0.76272 0.97988 0.13517 0.0
H1416 H 0.77808 0.03585 0.1273 0.0
H1417 H 0.78287 0.01312 0.13395 0.0
H1418 H 0.71543 0.00234 0.38238 0.0
H1419 H 0.71728 0.97789 0.38027 0.0
H1420 H 0.70657 0.01964 0.31498 0.0
H1421 H 0.72204 0.0417 0.26753 0.0
C1422 C 0.01756 0.80242 0.21171 0.0
C1423 C 0.0195 0.80072 0.27874 0.0
C1424 C 0.9804 0.77974 0.28859 0.0
C1425 C 0.97895 0.77857 0.22093 0.0
N1426 N 0.99375 0.79328 0.11896 0.0
N1427 N 0.00333 0.79391 0.38244 0.0
C1428 C 0.99681 0.79172 0.18285 0.0
C1429 C 0.00094 0.7916 0.3177 0.0
N1430 N 0.03574 0.81285 0.17568 0.0
N1431 N 0.96243 0.76816 0.32441 0.0
H1432 H 0.01844 0.80268 0.40359 0.0
H1433 H 0.99056 0.78871 0.4146 0.0
H1434 H 0.94706 0.76046 0.3043 0.0
H1435 H 0.96261 0.76595 0.3735 0.0
H1436 H 0.03598 0.8126 0.12602 0.0
H1437 H 0.0509 0.82176 0.19609 0.0
H1438 H 0.00568 0.80337 0.08786 0.0
H1439 H 0.97847 0.78542 0.09807 0.0
C1440 C 0.29439 0.08367 0.99596 0.0
C1441 C 0.29676 0.06533 0.01658 0.0
C1442 C 0.29045 0.05124 0.90709 0.0
C1443 C 0.29231 0.07154 0.88517 0.0
N1444 N 0.29843 0.10813 0.90885 0.0
N1445 N 0.29683 0.03122 0.99333 0.0
C1446 C 0.29466 0.08798 0.92971 0.0
C1447 C 0.29447 0.04883 0.97267 0.0
N1448 N 0.29183 0.0969 0.04021 0.0
N1449 N 0.28404 0.03408 0.86606 0.0
H1450 H 0.29824 0.02841 0.04162 0.0
H1451 H 0.29814 0.01995 0.96272 0.0
H1452 H 0.28063 0.03507 0.81802 0.0
H1453 H 0.28023 0.01838 0.88079 0.0
H1454 H 0.28809 0.10953 0.0283 0.0
H1455 H 0.29132 0.09378 0.08915 0.0
H1456 H 0.30234 0.12128 0.93935 0.0
H1457 H 0.29985 0.11232 0.86064 0.0
C1458 C 0.91957 0.2556 0.96328 0.0
C1459 C 0.9084 0.2674 0.98412 0.0
C1460 C 0.9038 0.27614 0.87328 0.0
C1461 C 0.91409 0.26351 0.85233 0.0
N1462 N 0.93875 0.24845 0.87651 0.0
N1463 N 0.89759 0.29542 0.96162 0.0
C1464 C 0.92438 0.25572 0.89729 0.0
C1465 C 0.90308 0.27987 0.93979 0.0
N1466 N 0.9243 0.24314 0.00525 0.0
N1467 N 0.8935 0.28337 0.83066 0.0
H1468 H 0.89779 0.29894 0.01016 0.0
H1469 H 0.89534 0.30632 0.93171 0.0
H1470 H 0.89384 0.28124 0.7815 0.0
H1471 H 0.88352 0.29036 0.84449 0.0
H1472 H 0.9301 0.23221 0.99097 0.0
H1473 H 0.9211 0.24262 0.05399 0.0
H1474 H 0.9481 0.24419 0.90721 0.0
H1475 H 0.94298 0.24902 0.82847 0.0
C1476 C 0.73475 0.62201 0.9024 0.0
C1477 C 0.75121 0.61902 0.93553 0.0
C1478 C 0.76717 0.61641 0.83372 0.0
C1479 C 0.75372 0.62406 0.80298 0.0
N1480 N 0.72373 0.6329 0.80428 0.0
N1481 N 0.78251 0.61189 0.93335 0.0
C1482 C 0.73677 0.62586 0.83586 0.0
C1483 C 0.76693 0.61514 0.90139 0.0
N1484 N 0.71731 0.62134 0.93482 0.0
N1485 N 0.78047 0.61092 0.79762 0.0
H1486 H 0.78271 0.61032 0.98271 0.0
H1487 H 0.79594 0.61175 0.91134 0.0
H1488 H 0.78072 0.61193 0.74782 0.0
H1489 H 0.78965 0.60363 0.81591 0.0
H1490 H 0.7037 0.62108 0.91269 0.0
H1491 H 0.71561 0.61916 0.98398 0.0
H1492 H 0.7131 0.63762 0.827 0.0
H1493 H 0.72418 0.63484 0.75483 0.0
C1494 C 0.07763 0.32137 0.6237 0.0
C1495 C 0.08319 0.3054 0.6494 0.0
C1496 C 0.09435 0.29913 0.54376 0.0
C1497 C 0.09005 0.31591 0.51937 0.0
N1498 N 0.08412 0.34745 0.53985 0.0
N1499 N 0.10468 0.28567 0.63711 0.0
C1500 C 0.08388 0.32853 0.56049 0.0
C1501 C 0.09379 0.29609 0.61045 0.0
N1502 N 0.06553 0.32904 0.65745 0.0
N1503 N 0.09945 0.28639 0.50377 0.0
H1504 H 0.10667 0.28478 0.68616 0.0
H1505 H 0.11426 0.28046 0.61063 0.0
H1506 H 0.10142 0.28889 0.45463 0.0
H1507 H 0.10028 0.2724 0.51913 0.0
H1508 H 0.05891 0.33851 0.63677 0.0
H1509 H 0.06026 0.32463 0.70398 0.0
H1510 H 0.08205 0.35831 0.57046 0.0
H1511 H 0.08822 0.35332 0.49356 0.0
C1512 C 0.65065 0.74799 0.62566 0.0
C1513 C 0.65407 0.73063 0.64999 0.0
C1514 C 0.64713 0.71403 0.54378 0.0
C1515 C 0.64752 0.73329 0.51804 0.0
N1516 N 0.65431 0.77052 0.53416 0.0
N1517 N 0.6578 0.69792 0.63163 0.0
C1518 C 0.65044 0.75079 0.55893 0.0
C1519 C 0.65278 0.71372 0.60907 0.0
N1520 N 0.64748 0.76176 0.66659 0.0
N1521 N 0.64059 0.69585 0.50696 0.0
H1522 H 0.66159 0.69698 0.67939 0.0
H1523 H 0.65957 0.68664 0.60209 0.0
H1524 H 0.63572 0.6952 0.45955 0.0
H1525 H 0.63802 0.68085 0.52529 0.0
H1526 H 0.64311 0.77366 0.65129 0.0
H1527 H 0.64693 0.75969 0.71604 0.0
H1528 H 0.65846 0.78427 0.5623 0.0
H1529 H 0.65595 0.7738 0.48533 0.0
C1530 C 0.26973 0.921 0.62946 0.0
C1531 C 0.2564 0.93062 0.64981 0.0
C1532 C 0.25142 0.93888 0.53882 0.0
C1533 C 0.26363 0.9281 0.51847 0.0
N1534 N 0.29105 0.91686 0.54321 0.0
N1535 N 0.24203 0.95594 0.62692 0.0
C1536 C 0.27506 0.92187 0.56366 0.0
C1537 C 0.24971 0.94198 0.60529 0.0
N1538 N 0.27604 0.90977 0.67152 0.0
N1539 N 0.24045 0.945 0.49529 0.0
H1540 H 0.24156 0.95911 0.67549 0.0
H1541 H 0.23854 0.96603 0.59699 0.0
H1542 H 0.2418 0.94348 0.44616 0.0
H1543 H 0.2292 0.95054 0.50811 0.0
H1544 H 0.28364 0.90035 0.65739 0.0
H1545 H 0.27248 0.90866 0.72009 0.0
H1546 H 0.30138 0.91412 0.57422 0.0
H1547 H 0.29539 0.91787 0.49512 0.0
C1548 C 0.69154 0.89205 0.08449 0.0
C1549 C 0.6953 0.91176 0.11488 0.0
C1550 C 0.68945 0.92644 0.01467 0.0
C1551 C 0.68625 0.90691 0.98412 0.0
N1552 N 0.68965 0.8736 0.98459 0.0
N1553 N 0.7028 0.94936 0.10795 0.0
C1554 C 0.68913 0.89052 0.01741 0.0
C1555 C 0.69588 0.92953 0.0796 0.0
N1556 N 0.68898 0.87445 0.12001 0.0
N1557 N 0.68508 0.94141 0.98306 0.0
H1558 H 0.70739 0.9521 0.15579 0.0
H1559 H 0.70576 0.96344 0.08287 0.0
H1560 H 0.68052 0.93987 0.93515 0.0
H1561 H 0.68455 0.95466 0.00544 0.0
H1562 H 0.68397 0.85901 0.10091 0.0
H1563 H 0.68996 0.87481 0.16968 0.0
H1564 H 0.69356 0.8621 0.00557 0.0
H1565 H 0.68827 0.87229 0.93495 0.0
C1566 C 0.09578 0.79801 0.09373 0.0
C1567 C 0.07846 0.78399 0.13276 0.0
C1568 C 0.06145 0.76099 0.03985 0.0
C1569 C 0.07818 0.77584 0.00082 0.0
N1570 N 0.10735 0.81137 0.98688 0.0
N1571 N 0.04217 0.75515 0.14008 0.0
C1572 C 0.09408 0.79531 0.02668 0.0
C1573 C 0.06048 0.76628 0.10511 0.0
N1574 N 0.1144 0.81313 0.12071 0.0
N1575 N 0.04694 0.74162 0.01521 0.0
H1576 H 0.04057 0.75888 0.18744 0.0
H1577 H 0.02787 0.74356 0.12033 0.0
H1578 H 0.04677 0.7376 0.9671 0.0
H1579 H 0.03598 0.72911 0.04324 0.0
H1580 H 0.12821 0.8224 0.09433 0.0
H1581 H 0.11689 0.81471 0.16995 0.0
H1582 H 0.11796 0.82676 0.00297 0.0
H1583 H 0.10608 0.80993 0.93723 0.0
C1584 C 0.25453 0.31724 0.09058 0.0
C1585 C 0.25762 0.33298 0.13854 0.0
C1586 C 0.2619 0.3594 0.05604 0.0
C1587 C 0.25518 0.34281 0.00898 0.0
N1588 N 0.24116 0.30474 0.98417 0.0
N1589 N 0.258 0.36735 0.16566 0.0
C1590 C 0.25052 0.32137 0.02674 0.0
C1591 C 0.25967 0.35365 0.12113 0.0
N1592 N 0.25584 0.29855 0.10536 0.0
N1593 N 0.27091 0.38075 0.03916 0.0
H1594 H 0.2545 0.36332 0.21359 0.0
H1595 H 0.25737 0.38171 0.15334 0.0
H1596 H 0.27381 0.38605 0.99209 0.0
H1597 H 0.27786 0.39323 0.07241 0.0
H1598 H 0.25585 0.28767 0.07079 0.0
H1599 H 0.25911 0.29493 0.15119 0.0
H1600 H 0.23543 0.28854 0.99713 0.0
H1601 H 0.23706 0.30685 0.93767 0.0
C1602 C 0.96084 0.70407 0.44565 0.0
C1603 C 0.94253 0.69607 0.48621 0.0
C1604 C 0.91911 0.69326 0.39533 0.0
C1605 C 0.93747 0.70255 0.3553 0.0
N1606 N 0.9763 0.7217 0.34546 0.0
N1607 N 0.90553 0.68921 0.50319 0.0
C1608 C 0.95853 0.70938 0.38123 0.0
C1609 C 0.92204 0.69254 0.46203 0.0
N1610 N 0.98017 0.70583 0.46766 0.0
N1611 N 0.89881 0.68434 0.36951 0.0
H1612 H 0.90748 0.68971 0.55261 0.0
H1613 H 0.89078 0.68845 0.48864 0.0
H1614 H 0.89592 0.68389 0.32048 0.0
H1615 H 0.88494 0.67543 0.39611 0.0
H1616 H 0.99343 0.70929 0.43816 0.0
H1617 H 0.98252 0.70234 0.51466 0.0
H1618 H 0.99188 0.72906 0.36422 0.0
H1619 H 0.97532 0.72627 0.29857 0.0
C1620 C 0.40777 0.27283 0.49607 0.0
C1621 C 0.4002 0.25253 0.52657 0.0
C1622 C 0.39263 0.2344 0.42342 0.0
C1623 C 0.39494 0.25398 0.3945 0.0
N1624 N 0.40626 0.29247 0.4017 0.0
N1625 N 0.38875 0.21437 0.52203 0.0
C1626 C 0.40367 0.2736 0.42981 0.0
C1627 C 0.39429 0.23347 0.49074 0.0
N1628 N 0.41802 0.29117 0.5317 0.0
N1629 N 0.38828 0.21668 0.38624 0.0
H1630 H 0.39072 0.21384 0.5714 0.0
H1631 H 0.38184 0.19926 0.50012 0.0
H1632 H 0.38661 0.21704 0.33694 0.0
H1633 H 0.38787 0.2023 0.40307 0.0
H1634 H 0.42514 0.30671 0.51262 0.0
H1635 H 0.42106 0.29046 0.5803 0.0
H1636 H 0.41015 0.30675 0.42679 0.0
H1637 H 0.4036 0.2937 0.35323 0.0
C1638 C 0.73299 0.08337 0.46566 0.0
C1639 C 0.73834 0.10484 0.48562 0.0
C1640 C 0.74681 0.11695 0.37446 0.0
C1641 C 0.74437 0.09618 0.35696 0.0
N1642 N 0.74169 0.06164 0.3914 0.0
N1643 N 0.75708 0.14315 0.45942 0.0
C1644 C 0.7395 0.07997 0.40418 0.0
C1645 C 0.74703 0.12201 0.44018 0.0
N1646 N 0.72089 0.06609 0.50344 0.0
N1647 N 0.7496 0.13212 0.32884 0.0
H1648 H 0.7599 0.14796 0.507 0.0
H1649 H 0.76532 0.15588 0.428 0.0
H1650 H 0.75047 0.12941 0.28017 0.0
H1651 H 0.74928 0.14677 0.33922 0.0
H1652 H 0.71532 0.05014 0.48792 0.0
H1653 H 0.7141 0.06753 0.54651 0.0
H1654 H 0.73986 0.05015 0.42623 0.0
H1655 H 0.74783 0.05925 0.34831 0.0
C1656 C 0.96577 0.39271 0.19059 0.0
C1657 C 0.97063 0.41299 0.16167 0.0
C1658 C 0.98115 0.43081 0.2658 0.0
C1659 C 0.97876 0.41106 0.29333 0.0
N1660 N 0.97203 0.37383 0.27983 0.0
N1661 N 0.98647 0.45189 0.16932 0.0
C1662 C 0.97189 0.39212 0.25526 0.0
C1663 C 0.97936 0.43221 0.19865 0.0
N1664 N 0.95445 0.37394 0.15748 0.0
N1665 N 0.98423 0.448 0.30419 0.0
H1666 H 0.98581 0.45358 0.11995 0.0
H1667 H 0.99495 0.46654 0.19306 0.0
H1668 H 0.98464 0.44728 0.3539 0.0
H1669 H 0.98404 0.46213 0.28738 0.0
H1670 H 0.94818 0.35871 0.17867 0.0
H1671 H 0.94968 0.37358 0.11009 0.0
H1672 H 0.96948 0.36034 0.25213 0.0
H1673 H 0.97646 0.37272 0.3268 0.0
C1674 C 0.56119 0.57008 0.24435 0.0
C1675 C 0.57645 0.58825 0.21084 0.0
C1676 C 0.58727 0.60833 0.31159 0.0
C1677 C 0.57357 0.5892 0.34478 0.0
N1678 N 0.55288 0.5505 0.34383 0.0
N1679 N 0.60752 0.62331 0.21475 0.0
C1680 C 0.56243 0.56959 0.31134 0.0
C1681 C 0.59059 0.60707 0.24493 0.0
N1682 N 0.5446 0.55389 0.2126 0.0
N1683 N 0.59628 0.62777 0.34263 0.0
H1684 H 0.61087 0.62282 0.16643 0.0
H1685 H 0.6194 0.63635 0.23911 0.0
H1686 H 0.59453 0.6293 0.39154 0.0
H1687 H 0.60421 0.64249 0.31886 0.0
H1688 H 0.53214 0.54109 0.23591 0.0
H1689 H 0.54181 0.55488 0.16404 0.0
H1690 H 0.54586 0.53551 0.32097 0.0
H1691 H 0.55415 0.54971 0.39338 0.0
C1692 C 0.41953 0.94524 0.25067 0.0
C1693 C 0.40325 0.94565 0.29134 0.0
C1694 C 0.38289 0.94812 0.19836 0.0
C1695 C 0.39962 0.94862 0.15876 0.0
N1696 N 0.42951 0.94041 0.14284 0.0
N1697 N 0.36671 0.94134 0.30357 0.0
C1698 C 0.41639 0.94452 0.18377 0.0
C1699 C 0.38402 0.94517 0.26513 0.0
N1700 N 0.43862 0.94713 0.27542 0.0
N1701 N 0.36646 0.95136 0.17215 0.0
H1702 H 0.36675 0.93872 0.35253 0.0
H1703 H 0.35164 0.93883 0.28634 0.0
H1704 H 0.36452 0.95171 0.12283 0.0
H1705 H 0.35524 0.95419 0.19877 0.0
H1706 H 0.45188 0.94934 0.24738 0.0
H1707 H 0.44208 0.94845 0.3241 0.0
H1708 H 0.44106 0.93553 0.15778 0.0
H1709 H 0.42722 0.93985 0.09343 0.0
C1710 C 0.58303 0.9888 0.7546 0.0
C1711 C 0.59284 0.00591 0.7999 0.0
C1712 C 0.60936 0.03109 0.71175 0.0
C1713 C 0.59581 0.01512 0.66829 0.0
N1714 N 0.56852 0.97888 0.6479 0.0
N1715 N 0.61415 0.04419 0.82038 0.0
C1716 C 0.58251 0.9939 0.68932 0.0
C1717 C 0.60605 0.02727 0.77836 0.0
N1718 N 0.57462 0.96765 0.77343 0.0
N1719 N 0.62545 0.04986 0.68909 0.0
H1720 H 0.61146 0.04247 0.8694 0.0
H1721 H 0.62193 0.06029 0.80584 0.0
H1722 H 0.62829 0.05284 0.64029 0.0
H1723 H 0.63729 0.06114 0.71839 0.0
H1724 H 0.56935 0.95478 0.74127 0.0
H1725 H 0.57508 0.9629 0.82037 0.0
H1726 H 0.55642 0.96403 0.66272 0.0
H1727 H 0.56797 0.98181 0.59925 0.0
C1728 C 0.06636 0.57548 0.71546 0.0
C1729 C 0.06884 0.59491 0.68568 0.0
C1730 C 0.07801 0.61342 0.78901 0.0
C1731 C 0.07011 0.593 0.81916 0.0
N1732 N 0.05967 0.55494 0.8142 0.0
N1733 N 0.07949 0.63322 0.69174 0.0
C1734 C 0.06574 0.57418 0.78321 0.0
C1735 C 0.07612 0.61436 0.72147 0.0
N1736 N 0.064 0.55826 0.67835 0.0
N1737 N 0.0864 0.63169 0.82574 0.0
H1738 H 0.07878 0.6345 0.64231 0.0
H1739 H 0.08241 0.64746 0.71579 0.0
H1740 H 0.08764 0.63098 0.87531 0.0
H1741 H 0.09363 0.64731 0.80734 0.0
H1742 H 0.06322 0.54387 0.69635 0.0
H1743 H 0.06462 0.55919 0.62854 0.0
H1744 H 0.05386 0.54002 0.79131 0.0
H1745 H 0.06001 0.55407 0.86398 0.0
C1746 C 0.42047 0.45083 0.72284 0.0
C1747 C 0.41047 0.42942 0.69989 0.0
C1748 C 0.4012 0.41579 0.80936 0.0
C1749 C 0.4133 0.43726 0.83239 0.0
N1750 N 0.43958 0.47394 0.81089 0.0
N1751 N 0.39239 0.3911 0.71912 0.0
C1752 C 0.42437 0.45444 0.78897 0.0
C1753 C 0.40107 0.41173 0.74257 0.0
N1754 N 0.42623 0.46774 0.68129 0.0
N1755 N 0.38941 0.39947 0.85052 0.0
H1756 H 0.39084 0.38776 0.67022 0.0
H1757 H 0.38767 0.37741 0.74771 0.0
H1758 H 0.39013 0.40138 0.89986 0.0
H1759 H 0.37815 0.3842 0.83569 0.0
H1760 H 0.43183 0.48374 0.69619 0.0
H1761 H 0.42343 0.46548 0.63222 0.0
H1762 H 0.44937 0.4865 0.78087 0.0
H1763 H 0.44423 0.47657 0.85877 0.0
loop_
_geom_bond_atom_site_label_1
_geom_bond_atom_site_label_2
_geom_bond_distance
_geom_bond_site_symmetry_2
_ccdc_geom_bond_type
In0 O1 2.294 . S
In0 O2 2.326 . S
In0 O6 2.266 . S
In0 O7 2.326 . S
In0 O8 2.266 . S
In0 O9 2.326 . S
In0 O11 2.294 . S
In0 O12 2.326 . S
O1 In0 2.294 . S
O1 C10 1.240 . S
O2 In0 2.326 . S
O2 C10 1.252 . S
C3 O6 1.252 . S
C3 O7 1.260 . S
C4 O11 1.240 . S
C4 O12 1.252 . S
C5 O8 1.252 . S
C5 O9 1.260 . S
O6 In0 2.266 . S
O6 C3 1.252 . S
O7 In0 2.326 . S
O7 C3 1.260 . S
O8 In0 2.266 . S
O8 C5 1.252 . S
O9 In0 2.326 . S
O9 C5 1.260 . S
C10 O1 1.240 . S
C10 O2 1.252 . S
O11 In0 2.294 . S
O11 C4 1.240 . S
O12 In0 2.326 . S
O12 C4 1.252 . S
In13 O14 2.294 . S
In13 O15 2.326 . S
In13 O19 2.266 . S
In13 O20 2.326 . S
In13 O21 2.266 . S
In13 O22 2.326 . S
In13 O24 2.294 . S
In13 O25 2.326 . S
O14 In13 2.294 . S
O14 C23 1.240 . S
O15 In13 2.326 . S
O15 C23 1.252 . S
C16 O19 1.252 . S
C16 O20 1.260 . S
C17 O24 1.240 . S
C17 O25 1.252 . S
C18 O21 1.252 . S
C18 O22 1.260 . S
O19 In13 2.266 . S
O19 C16 1.252 . S
O20 In13 2.326 . S
O20 C16 1.260 . S
O21 In13 2.266 . S
O21 C18 1.252 . S
O22 In13 2.326 . S
O22 C18 1.260 . S
C23 O14 1.240 . S
C23 O15 1.252 . S
O24 In13 2.294 . S
O24 C17 1.240 . S
O25 In13 2.326 . S
O25 C17 1.252 . S
In26 O27 2.294 . S
In26 O28 2.326 . S
In26 O32 2.266 . S
In26 O33 2.326 . S
In26 O34 2.266 . S
In26 O35 2.326 . S
In26 O37 2.294 . S
In26 O38 2.326 . S
O27 In26 2.294 . S
O27 C36 1.240 . S
O28 In26 2.326 . S
O28 C36 1.252 . S
C29 O32 1.252 . S
C29 O33 1.260 . S
C30 O37 1.240 . S
C30 O38 1.252 . S
C31 O34 1.252 . S
C31 O35 1.260 . S
O32 In26 2.266 . S
O32 C29 1.252 . S
O33 In26 2.326 . S
O33 C29 1.260 . S
O34 In26 2.266 . S
O34 C31 1.252 . S
O35 In26 2.326 . S
O35 C31 1.260 . S
C36 O27 1.240 . S
C36 O28 1.252 . S
O37 In26 2.294 . S
O37 C30 1.240 . S
O38 In26 2.326 . S
O38 C30 1.252 . S
In39 O40 2.294 . S
In39 O41 2.326 . S
In39 O45 2.266 . S
In39 O46 2.326 . S
In39 O47 2.266 . S
In39 O48 2.326 . S
In39 O50 2.294 . S
In39 O51 2.326 . S
O40 In39 2.294 . S
O40 C49 1.240 . S
O41 In39 2.326 . S
O41 C49 1.252 . S
C42 O45 1.252 . S
C42 O46 1.260 . S
C43 O50 1.240 . S
C43 O51 1.252 . S
C44 O47 1.252 . S
C44 O48 1.260 . S
O45 In39 2.266 . S
O45 C42 1.252 . S
O46 In39 2.326 . S
O46 C42 1.260 . S
O47 In39 2.266 . S
O47 C44 1.252 . S
O48 In39 2.326 . S
O48 C44 1.260 . S
C49 O40 1.240 . S
C49 O41 1.252 . S
O50 In39 2.294 . S
O50 C43 1.240 . S
O51 In39 2.326 . S
O51 C43 1.252 . S
In52 O53 2.294 . S
In52 O54 2.326 . S
In52 O58 2.266 . S
In52 O59 2.326 . S
In52 O60 2.266 . S
In52 O61 2.326 . S
In52 O63 2.294 . S
In52 O64 2.326 . S
O53 In52 2.294 . S
O53 C62 1.240 . S
O54 In52 2.326 . S
O54 C62 1.252 . S
C55 O58 1.252 . S
C55 O59 1.260 . S
C56 O63 1.240 . S
C56 O64 1.252 . S
C57 O60 1.252 . S
C57 O61 1.260 . S
O58 In52 2.266 . S
O58 C55 1.252 . S
O59 In52 2.326 . S
O59 C55 1.260 . S
O60 In52 2.266 . S
O60 C57 1.252 . S
O61 In52 2.326 . S
O61 C57 1.260 . S
C62 O53 1.240 . S
C62 O54 1.252 . S
O63 In52 2.294 . S
O63 C56 1.240 . S
O64 In52 2.326 . S
O64 C56 1.252 . S
In65 O66 2.294 . S
In65 O67 2.326 . S
In65 O71 2.266 . S
In65 O72 2.326 . S
In65 O73 2.266 . S
In65 O74 2.326 . S
In65 O76 2.294 . S
In65 O77 2.326 . S
O66 In65 2.294 . S
O66 C75 1.240 . S
O67 In65 2.326 . S
O67 C75 1.252 . S
C68 O71 1.252 . S
C68 O72 1.260 . S
C69 O76 1.240 . S
C69 O77 1.252 . S
C70 O73 1.252 . S
C70 O74 1.260 . S
O71 In65 2.266 . S
O71 C68 1.252 . S
O72 In65 2.326 . S
O72 C68 1.260 . S
O73 In65 2.266 . S
O73 C70 1.252 . S
O74 In65 2.326 . S
O74 C70 1.260 . S
C75 O66 1.240 . S
C75 O67 1.252 . S
O76 In65 2.294 . S
O76 C69 1.240 . S
O77 In65 2.326 . S
O77 C69 1.252 . S
In78 O79 2.294 . S
In78 O80 2.326 . S
In78 O84 2.266 . S
In78 O85 2.326 . S
In78 O86 2.266 . S
In78 O87 2.326 . S
In78 O89 2.294 . S
In78 O90 2.326 . S
O79 In78 2.294 . S
O79 C88 1.240 . S
O80 In78 2.326 . S
O80 C88 1.252 . S
C81 O84 1.252 . S
C81 O85 1.260 . S
C82 O89 1.240 . S
C82 O90 1.252 . S
C83 O86 1.252 . S
C83 O87 1.260 . S
O84 In78 2.266 . S
O84 C81 1.252 . S
O85 In78 2.326 . S
O85 C81 1.260 . S
O86 In78 2.266 . S
O86 C83 1.252 . S
O87 In78 2.326 . S
O87 C83 1.260 . S
C88 O79 1.240 . S
C88 O80 1.252 . S
O89 In78 2.294 . S
O89 C82 1.240 . S
O90 In78 2.326 . S
O90 C82 1.252 . S
In91 O92 2.294 . S
In91 O93 2.326 . S
In91 O97 2.266 . S
In91 O98 2.326 . S
In91 O99 2.266 . S
In91 O100 2.326 . S
In91 O102 2.294 . S
In91 O103 2.326 . S
O92 In91 2.294 . S
O92 C101 1.240 . S
O93 In91 2.326 . S
O93 C101 1.252 . S
C94 O97 1.252 . S
C94 O98 1.260 . S
C95 O102 1.240 . S
C95 O103 1.252 . S
C96 O99 1.252 . S
C96 O100 1.260 . S
O97 In91 2.266 . S
O97 C94 1.252 . S
O98 In91 2.326 . S
O98 C94 1.260 . S
O99 In91 2.266 . S
O99 C96 1.252 . S
O100 In91 2.326 . S
O100 C96 1.260 . S
C101 O92 1.240 . S
C101 O93 1.252 . S
O102 In91 2.294 . S
O102 C95 1.240 . S
O103 In91 2.326 . S
O103 C95 1.252 . S
In104 O105 2.294 . S
In104 O106 2.326 . S
In104 O110 2.266 . S
In104 O111 2.326 . S
In104 O112 2.266 . S
In104 O113 2.326 . S
In104 O115 2.294 . S
In104 O116 2.326 . S
O105 In104 2.294 . S
O105 C114 1.240 . S
O106 In104 2.326 . S
O106 C114 1.252 . S
C107 O110 1.252 . S
C107 O111 1.260 . S
C108 O115 1.240 . S
C108 O116 1.252 . S
C109 O112 1.252 . S
C109 O113 1.260 . S
O110 In104 2.266 . S
O110 C107 1.252 . S
O111 In104 2.326 . S
O111 C107 1.260 . S
O112 In104 2.266 . S
O112 C109 1.252 . S
O113 In104 2.326 . S
O113 C109 1.260 . S
C114 O105 1.240 . S
C114 O106 1.252 . S
O115 In104 2.294 . S
O115 C108 1.240 . S
O116 In104 2.326 . S
O116 C108 1.252 . S
In117 O118 2.294 . S
In117 O119 2.326 . S
In117 O123 2.266 . S
In117 O124 2.326 . S
In117 O125 2.266 . S
In117 O126 2.326 . S
In117 O128 2.294 . S
In117 O129 2.326 . S
O118 In117 2.294 . S
O118 C127 1.240 . S
O119 In117 2.326 . S
O119 C127 1.252 . S
C120 O123 1.252 . S
C120 O124 1.260 . S
C121 O128 1.240 . S
C121 O129 1.252 . S
C122 O125 1.252 . S
C122 O126 1.260 . S
O123 In117 2.266 . S
O123 C120 1.252 . S
O124 In117 2.326 . S
O124 C120 1.260 . S
O125 In117 2.266 . S
O125 C122 1.252 . S
O126 In117 2.326 . S
O126 C122 1.260 . S
C127 O118 1.240 . S
C127 O119 1.252 . S
O128 In117 2.294 . S
O128 C121 1.240 . S
O129 In117 2.326 . S
O129 C121 1.252 . S
In130 O131 2.294 . S
In130 O132 2.326 . S
In130 O136 2.266 . S
In130 O137 2.326 . S
In130 O138 2.266 . S
In130 O139 2.326 . S
In130 O141 2.294 . S
In130 O142 2.326 . S
O131 In130 2.294 . S
O131 C140 1.240 . S
O132 In130 2.326 . S
O132 C140 1.252 . S
C133 O136 1.252 . S
C133 O137 1.260 . S
C134 O141 1.240 . S
C134 O142 1.252 . S
C135 O138 1.252 . S
C135 O139 1.260 . S
O136 In130 2.266 . S
O136 C133 1.252 . S
O137 In130 2.326 . S
O137 C133 1.260 . S
O138 In130 2.266 . S
O138 C135 1.252 . S
O139 In130 2.326 . S
O139 C135 1.260 . S
C140 O131 1.240 . S
C140 O132 1.252 . S
O141 In130 2.294 . S
O141 C134 1.240 . S
O142 In130 2.326 . S
O142 C134 1.252 . S
In143 O144 2.294 . S
In143 O145 2.326 . S
In143 O149 2.266 . S
In143 O150 2.326 . S
In143 O151 2.266 . S
In143 O152 2.326 . S
In143 O154 2.294 . S
In143 O155 2.326 . S
O144 In143 2.294 . S
O144 C153 1.240 . S
O145 In143 2.326 . S
O145 C153 1.252 . S
C146 O149 1.252 . S
C146 O150 1.260 . S
C147 O154 1.240 . S
C147 O155 1.252 . S
C148 O151 1.252 . S
C148 O152 1.260 . S
O149 In143 2.266 . S
O149 C146 1.252 . S
O150 In143 2.326 . S
O150 C146 1.260 . S
O151 In143 2.266 . S
O151 C148 1.252 . S
O152 In143 2.326 . S
O152 C148 1.260 . S
C153 O144 1.240 . S
C153 O145 1.252 . S
O154 In143 2.294 . S
O154 C147 1.240 . S
O155 In143 2.326 . S
O155 C147 1.252 . S
In156 O157 2.294 1_455 S
In156 O158 2.326 . S
In156 O162 2.267 1_455 S
In156 O163 2.326 . S
In156 O164 2.265 . S
In156 O165 2.325 . S
In156 O167 2.294 . S
In156 O168 2.327 1_455 S
O157 In156 2.294 1_655 S
O157 C166 1.240 . S
O158 In156 2.326 . S
O158 C166 1.252 1_455 S
C159 O162 1.252 . S
C159 O163 1.260 1_655 S
C160 O167 1.240 . S
C160 O168 1.252 1_455 S
C161 O164 1.252 . S
C161 O165 1.260 . S
O162 In156 2.267 1_655 S
O162 C159 1.252 . S
O163 In156 2.326 . S
O163 C159 1.260 1_455 S
O164 In156 2.265 . S
O164 C161 1.252 . S
O165 In156 2.325 . S
O165 C161 1.260 . S
C166 O157 1.240 . S
C166 O158 1.252 1_655 S
O167 In156 2.294 . S
O167 C160 1.240 . S
O168 In156 2.327 1_655 S
O168 C160 1.252 1_655 S
In169 O170 2.294 . S
In169 O171 2.326 . S
In169 O175 2.266 . S
In169 O176 2.326 . S
In169 O177 2.266 . S
In169 O178 2.326 . S
In169 O180 2.294 . S
In169 O181 2.326 . S
O170 In169 2.294 . S
O170 C179 1.240 . S
O171 In169 2.326 . S
O171 C179 1.252 . S
C172 O175 1.252 . S
C172 O176 1.260 . S
C173 O180 1.240 . S
C173 O181 1.252 . S
C174 O177 1.252 . S
C174 O178 1.260 . S
O175 In169 2.266 . S
O175 C172 1.252 . S
O176 In169 2.326 . S
O176 C172 1.260 . S
O177 In169 2.266 . S
O177 C174 1.252 . S
O178 In169 2.326 . S
O178 C174 1.260 . S
C179 O170 1.240 . S
C179 O171 1.252 . S
O180 In169 2.294 . S
O180 C173 1.240 . S
O181 In169 2.326 . S
O181 C173 1.252 . S
In182 O183 2.294 . S
In182 O184 2.326 . S
In182 O188 2.266 . S
In182 O189 2.326 . S
In182 O190 2.266 . S
In182 O191 2.326 . S
In182 O193 2.294 . S
In182 O194 2.326 . S
O183 In182 2.294 . S
O183 C192 1.240 . S
O184 In182 2.326 . S
O184 C192 1.252 . S
C185 O188 1.252 . S
C185 O189 1.260 . S
C186 O193 1.240 . S
C186 O194 1.252 . S
C187 O190 1.252 . S
C187 O191 1.260 . S
O188 In182 2.266 . S
O188 C185 1.252 . S
O189 In182 2.326 . S
O189 C185 1.260 . S
O190 In182 2.266 . S
O190 C187 1.252 . S
O191 In182 2.326 . S
O191 C187 1.260 . S
C192 O183 1.240 . S
C192 O184 1.252 . S
O193 In182 2.294 . S
O193 C186 1.240 . S
O194 In182 2.326 . S
O194 C186 1.252 . S
In195 O196 2.294 . S
In195 O197 2.326 . S
In195 O201 2.266 . S
In195 O202 2.326 . S
In195 O203 2.266 . S
In195 O204 2.326 . S
In195 O206 2.294 . S
In195 O207 2.326 . S
O196 In195 2.294 . S
O196 C205 1.240 . S
O197 In195 2.326 . S
O197 C205 1.252 . S
C198 O201 1.252 . S
C198 O202 1.260 . S
C199 O206 1.240 . S
C199 O207 1.252 . S
C200 O203 1.252 . S
C200 O204 1.260 . S
O201 In195 2.266 . S
O201 C198 1.252 . S
O202 In195 2.326 . S
O202 C198 1.260 . S
O203 In195 2.266 . S
O203 C200 1.252 . S
O204 In195 2.326 . S
O204 C200 1.260 . S
C205 O196 1.240 . S
C205 O197 1.252 . S
O206 In195 2.294 . S
O206 C199 1.240 . S
O207 In195 2.326 . S
O207 C199 1.252 . S
In208 O209 2.294 . S
In208 O210 2.326 . S
In208 O214 2.266 . S
In208 O215 2.326 . S
In208 O216 2.266 . S
In208 O217 2.326 . S
In208 O219 2.294 . S
In208 O220 2.326 . S
O209 In208 2.294 . S
O209 C218 1.240 . S
O210 In208 2.326 . S
O210 C218 1.252 . S
C211 O214 1.252 . S
C211 O215 1.260 . S
C212 O219 1.240 . S
C212 O220 1.252 . S
C213 O216 1.252 . S
C213 O217 1.260 . S
O214 In208 2.266 . S
O214 C211 1.252 . S
O215 In208 2.326 . S
O215 C211 1.260 . S
O216 In208 2.266 . S
O216 C213 1.252 . S
O217 In208 2.326 . S
O217 C213 1.260 . S
C218 O209 1.240 . S
C218 O210 1.252 . S
O219 In208 2.294 . S
O219 C212 1.240 . S
O220 In208 2.326 . S
O220 C212 1.252 . S
In221 O222 2.294 . S
In221 O223 2.326 . S
In221 O227 2.266 . S
In221 O228 2.326 . S
In221 O229 2.266 . S
In221 O230 2.326 . S
In221 O232 2.294 . S
In221 O233 2.326 . S
O222 In221 2.294 . S
O222 C231 1.240 . S
O223 In221 2.326 . S
O223 C231 1.252 . S
C224 O227 1.252 . S
C224 O228 1.260 . S
C225 O232 1.240 . S
C225 O233 1.252 . S
C226 O229 1.252 . S
C226 O230 1.260 . S
O227 In221 2.266 . S
O227 C224 1.252 . S
O228 In221 2.326 . S
O228 C224 1.260 . S
O229 In221 2.266 . S
O229 C226 1.252 . S
O230 In221 2.326 . S
O230 C226 1.260 . S
C231 O222 1.240 . S
C231 O223 1.252 . S
O232 In221 2.294 . S
O232 C225 1.240 . S
O233 In221 2.326 . S
O233 C225 1.252 . S
In234 O235 2.294 . S
In234 O236 2.326 . S
In234 O240 2.266 . S
In234 O241 2.326 . S
In234 O242 2.266 . S
In234 O243 2.326 . S
In234 O245 2.294 . S
In234 O246 2.326 . S
O235 In234 2.294 . S
O235 C244 1.240 . S
O236 In234 2.326 . S
O236 C244 1.252 . S
C237 O240 1.252 . S
C237 O241 1.260 . S
C238 O245 1.240 . S
C238 O246 1.252 . S
C239 O242 1.252 . S
C239 O243 1.260 . S
O240 In234 2.266 . S
O240 C237 1.252 . S
O241 In234 2.326 . S
O241 C237 1.260 . S
O242 In234 2.266 . S
O242 C239 1.252 . S
O243 In234 2.326 . S
O243 C239 1.260 . S
C244 O235 1.240 . S
C244 O236 1.252 . S
O245 In234 2.294 . S
O245 C238 1.240 . S
O246 In234 2.326 . S
O246 C238 1.252 . S
In247 O248 2.294 . S
In247 O249 2.326 . S
In247 O253 2.266 . S
In247 O254 2.326 . S
In247 O255 2.266 . S
In247 O256 2.326 . S
In247 O258 2.294 . S
In247 O259 2.326 . S
O248 In247 2.294 . S
O248 C257 1.240 . S
O249 In247 2.326 . S
O249 C257 1.252 . S
C250 O253 1.252 . S
C250 O254 1.260 . S
C251 O258 1.240 . S
C251 O259 1.252 . S
C252 O255 1.252 . S
C252 O256 1.260 . S
O253 In247 2.266 . S
O253 C250 1.252 . S
O254 In247 2.326 . S
O254 C250 1.260 . S
O255 In247 2.266 . S
O255 C252 1.252 . S
O256 In247 2.326 . S
O256 C252 1.260 . S
C257 O248 1.240 . S
C257 O249 1.252 . S
O258 In247 2.294 . S
O258 C251 1.240 . S
O259 In247 2.326 . S
O259 C251 1.252 . S
In260 O261 2.294 . S
In260 O262 2.326 . S
In260 O266 2.266 . S
In260 O267 2.326 . S
In260 O268 2.266 . S
In260 O269 2.326 . S
In260 O271 2.294 . S
In260 O272 2.326 . S
O261 In260 2.294 . S
O261 C270 1.240 . S
O262 In260 2.326 . S
O262 C270 1.252 . S
C263 O266 1.252 . S
C263 O267 1.260 . S
C264 O271 1.240 . S
C264 O272 1.252 . S
C265 O268 1.252 . S
C265 O269 1.260 . S
O266 In260 2.266 . S
O266 C263 1.252 . S
O267 In260 2.326 . S
O267 C263 1.260 . S
O268 In260 2.266 . S
O268 C265 1.252 . S
O269 In260 2.326 . S
O269 C265 1.260 . S
C270 O261 1.240 . S
C270 O262 1.252 . S
O271 In260 2.294 . S
O271 C264 1.240 . S
O272 In260 2.326 . S
O272 C264 1.252 . S
In273 O274 2.297 1_565 S
In273 O275 2.330 . S
In273 O279 2.264 1_564 S
In273 O280 2.322 1_554 S
In273 O281 2.265 1_554 S
In273 O282 2.325 1_554 S
In273 O284 2.294 . S
In273 O285 2.327 1_565 S
O274 In273 2.297 1_545 S
O274 C283 1.240 . S
O275 In273 2.330 . S
O275 C283 1.252 1_565 S
C276 O279 1.252 . S
C276 O280 1.260 1_545 S
C277 O284 1.240 . S
C277 O285 1.252 1_565 S
C278 O281 1.252 . S
C278 O282 1.260 . S
O279 In273 2.264 1_546 S
O279 C276 1.252 . S
O280 In273 2.322 1_556 S
O280 C276 1.260 1_565 S
O281 In273 2.265 1_556 S
O281 C278 1.252 . S
O282 In273 2.325 1_556 S
O282 C278 1.260 . S
C283 O274 1.240 . S
C283 O275 1.252 1_545 S
O284 In273 2.294 . S
O284 C277 1.240 . S
O285 In273 2.327 1_545 S
O285 C277 1.252 1_545 S
In286 O287 2.294 . S
In286 O288 2.327 . S
In286 O292 2.265 1_554 S
In286 O293 2.325 1_554 S
In286 O294 2.264 1_554 S
In286 O295 2.322 1_554 S
In286 O297 2.296 . S
In286 O298 2.330 . S
O287 In286 2.294 . S
O287 C296 1.240 . S
O288 In286 2.327 . S
O288 C296 1.252 . S
C289 O292 1.252 . S
C289 O293 1.260 . S
C290 O297 1.240 . S
C290 O298 1.252 . S
C291 O294 1.252 . S
C291 O295 1.260 . S
O292 In286 2.265 1_556 S
O292 C289 1.252 . S
O293 In286 2.325 1_556 S
O293 C289 1.260 . S
O294 In286 2.264 1_556 S
O294 C291 1.252 . S
O295 In286 2.322 1_556 S
O295 C291 1.260 . S
C296 O287 1.240 . S
C296 O288 1.252 . S
O297 In286 2.296 . S
O297 C290 1.240 . S
O298 In286 2.330 . S
O298 C290 1.252 . S
In299 O300 2.296 . S
In299 O301 2.330 . S
In299 O305 2.264 1_554 S
In299 O306 2.322 1_554 S
In299 O307 2.265 1_554 S
In299 O308 2.325 1_554 S
In299 O310 2.294 . S
In299 O311 2.327 . S
O300 In299 2.296 . S
O300 C309 1.240 . S
O301 In299 2.330 . S
O301 C309 1.252 . S
C302 O305 1.252 . S
C302 O306 1.260 . S
C303 O310 1.240 . S
C303 O311 1.252 . S
C304 O307 1.252 . S
C304 O308 1.260 . S
O305 In299 2.264 1_556 S
O305 C302 1.252 . S
O306 In299 2.322 1_556 S
O306 C302 1.260 . S
O307 In299 2.265 1_556 S
O307 C304 1.252 . S
O308 In299 2.325 1_556 S
O308 C304 1.260 . S
C309 O300 1.240 . S
C309 O301 1.252 . S
O310 In299 2.294 . S
O310 C303 1.240 . S
O311 In299 2.327 . S
O311 C303 1.252 . S
In312 O313 2.294 . S
In312 O314 2.326 . S
In312 O318 2.266 . S
In312 O319 2.326 . S
In312 O320 2.266 . S
In312 O321 2.326 . S
In312 O323 2.294 . S
In312 O324 2.326 . S
O313 In312 2.294 . S
O313 C322 1.240 . S
O314 In312 2.326 . S
O314 C322 1.252 . S
C315 O318 1.252 . S
C315 O319 1.260 . S
C316 O323 1.240 . S
C316 O324 1.252 . S
C317 O320 1.252 . S
C317 O321 1.260 . S
O318 In312 2.266 . S
O318 C315 1.252 . S
O319 In312 2.326 . S
O319 C315 1.260 . S
O320 In312 2.266 . S
O320 C317 1.252 . S
O321 In312 2.326 . S
O321 C317 1.260 . S
C322 O313 1.240 . S
C322 O314 1.252 . S
O323 In312 2.294 . S
O323 C316 1.240 . S
O324 In312 2.326 . S
O324 C316 1.252 . S
In325 O326 2.294 . S
In325 O327 2.326 . S
In325 O331 2.266 . S
In325 O332 2.326 . S
In325 O333 2.266 . S
In325 O334 2.326 . S
In325 O336 2.294 . S
In325 O337 2.326 . S
O326 In325 2.294 . S
O326 C335 1.240 . S
O327 In325 2.326 . S
O327 C335 1.252 . S
C328 O331 1.252 . S
C328 O332 1.260 . S
C329 O336 1.240 . S
C329 O337 1.252 . S
C330 O333 1.252 . S
C330 O334 1.260 . S
O331 In325 2.266 . S
O331 C328 1.252 . S
O332 In325 2.326 . S
O332 C328 1.260 . S
O333 In325 2.266 . S
O333 C330 1.252 . S
O334 In325 2.326 . S
O334 C330 1.260 . S
C335 O326 1.240 . S
C335 O327 1.252 . S
O336 In325 2.294 . S
O336 C329 1.240 . S
O337 In325 2.326 . S
O337 C329 1.252 . S
In338 O339 2.294 . S
In338 O340 2.326 . S
In338 O344 2.266 . S
In338 O345 2.326 . S
In338 O346 2.266 . S
In338 O347 2.326 . S
In338 O349 2.294 . S
In338 O350 2.326 . S
O339 In338 2.294 . S
O339 C348 1.240 . S
O340 In338 2.326 . S
O340 C348 1.252 . S
C341 O344 1.252 . S
C341 O345 1.260 . S
C342 O349 1.240 . S
C342 O350 1.252 . S
C343 O346 1.252 . S
C343 O347 1.260 . S
O344 In338 2.266 . S
O344 C341 1.252 . S
O345 In338 2.326 . S
O345 C341 1.260 . S
O346 In338 2.266 . S
O346 C343 1.252 . S
O347 In338 2.326 . S
O347 C343 1.260 . S
C348 O339 1.240 . S
C348 O340 1.252 . S
O349 In338 2.294 . S
O349 C342 1.240 . S
O350 In338 2.326 . S
O350 C342 1.252 . S
In351 O352 2.297 1_545 S
In351 O353 2.330 . S
In351 O357 2.264 1_546 S
In351 O358 2.322 1_556 S
In351 O359 2.265 1_556 S
In351 O360 2.325 1_556 S
In351 O362 2.294 . S
In351 O363 2.327 1_545 S
O352 In351 2.297 1_565 S
O352 C361 1.240 . S
O353 In351 2.330 . S
O353 C361 1.252 1_545 S
C354 O357 1.252 . S
C354 O358 1.260 1_565 S
C355 O362 1.240 . S
C355 O363 1.252 1_545 S
C356 O359 1.252 . S
C356 O360 1.260 . S
O357 In351 2.264 1_564 S
O357 C354 1.252 . S
O358 In351 2.322 1_554 S
O358 C354 1.260 1_545 S
O359 In351 2.265 1_554 S
O359 C356 1.252 . S
O360 In351 2.325 1_554 S
O360 C356 1.260 . S
C361 O352 1.240 . S
C361 O353 1.252 1_565 S
O362 In351 2.294 . S
O362 C355 1.240 . S
O363 In351 2.327 1_565 S
O363 C355 1.252 1_565 S
In364 O365 2.296 . S
In364 O366 2.330 . S
In364 O370 2.264 1_556 S
In364 O371 2.322 1_556 S
In364 O372 2.265 1_556 S
In364 O373 2.325 1_556 S
In364 O375 2.294 . S
In364 O376 2.327 . S
O365 In364 2.296 . S
O365 C374 1.240 . S
O366 In364 2.330 . S
O366 C374 1.252 . S
C367 O370 1.252 . S
C367 O371 1.260 . S
C368 O375 1.240 . S
C368 O376 1.252 . S
C369 O372 1.252 . S
C369 O373 1.260 . S
O370 In364 2.264 1_554 S
O370 C367 1.252 . S
O371 In364 2.322 1_554 S
O371 C367 1.260 . S
O372 In364 2.265 1_554 S
O372 C369 1.252 . S
O373 In364 2.325 1_554 S
O373 C369 1.260 . S
C374 O365 1.240 . S
C374 O366 1.252 . S
O375 In364 2.294 . S
O375 C368 1.240 . S
O376 In364 2.327 . S
O376 C368 1.252 . S
In377 O378 2.294 . S
In377 O379 2.327 . S
In377 O383 2.265 1_556 S
In377 O384 2.325 1_556 S
In377 O385 2.264 1_556 S
In377 O386 2.322 1_556 S
In377 O388 2.296 . S
In377 O389 2.330 . S
O378 In377 2.294 . S
O378 C387 1.240 . S
O379 In377 2.327 . S
O379 C387 1.252 . S
C380 O383 1.252 . S
C380 O384 1.260 . S
C381 O388 1.240 . S
C381 O389 1.252 . S
C382 O385 1.252 . S
C382 O386 1.260 . S
O383 In377 2.265 1_554 S
O383 C380 1.252 . S
O384 In377 2.325 1_554 S
O384 C380 1.260 . S
O385 In377 2.264 1_554 S
O385 C382 1.252 . S
O386 In377 2.322 1_554 S
O386 C382 1.260 . S
C387 O378 1.240 . S
C387 O379 1.252 . S
O388 In377 2.296 . S
O388 C381 1.240 . S
O389 In377 2.330 . S
O389 C381 1.252 . S
In390 O391 2.294 . S
In390 O392 2.327 1_655 S
In390 O396 2.265 . S
In390 O397 2.325 . S
In390 O398 2.267 1_655 S
In390 O399 2.326 . S
In390 O401 2.294 1_655 S
In390 O402 2.326 . S
O391 In390 2.294 . S
O391 C400 1.240 . S
O392 In390 2.327 1_455 S
O392 C400 1.252 1_455 S
C393 O396 1.252 . S
C393 O397 1.260 . S
C394 O401 1.240 . S
C394 O402 1.252 1_455 S
C395 O398 1.252 . S
C395 O399 1.260 1_455 S
O396 In390 2.265 . S
O396 C393 1.252 . S
O397 In390 2.325 . S
O397 C393 1.260 . S
O398 In390 2.267 1_455 S
O398 C395 1.252 . S
O399 In390 2.326 . S
O399 C395 1.260 1_655 S
C400 O391 1.240 . S
C400 O392 1.252 1_655 S
O401 In390 2.294 1_455 S
O401 C394 1.240 . S
O402 In390 2.326 . S
O402 C394 1.252 1_655 S
In403 O404 2.294 . S
In403 O405 2.326 . S
In403 O409 2.266 . S
In403 O410 2.326 . S
In403 O411 2.266 . S
In403 O412 2.326 . S
In403 O414 2.294 . S
In403 O415 2.326 . S
O404 In403 2.294 . S
O404 C413 1.240 . S
O405 In403 2.326 . S
O405 C413 1.252 . S
C406 O409 1.252 . S
C406 O410 1.260 . S
C407 O414 1.240 . S
C407 O415 1.252 . S
C408 O411 1.252 . S
C408 O412 1.260 . S
O409 In403 2.266 . S
O409 C406 1.252 . S
O410 In403 2.326 . S
O410 C406 1.260 . S
O411 In403 2.266 . S
O411 C408 1.252 . S
O412 In403 2.326 . S
O412 C408 1.260 . S
C413 O404 1.240 . S
C413 O405 1.252 . S
O414 In403 2.294 . S
O414 C407 1.240 . S
O415 In403 2.326 . S
O415 C407 1.252 . S
In416 O417 2.294 . S
In416 O418 2.326 . S
In416 O422 2.266 . S
In416 O423 2.326 . S
In416 O424 2.266 . S
In416 O425 2.326 . S
In416 O427 2.294 . S
In416 O428 2.326 . S
O417 In416 2.294 . S
O417 C426 1.240 . S
O418 In416 2.326 . S
O418 C426 1.252 . S
C419 O422 1.252 . S
C419 O423 1.260 . S
C420 O427 1.240 . S
C420 O428 1.252 . S
C421 O424 1.252 . S
C421 O425 1.260 . S
O422 In416 2.266 . S
O422 C419 1.252 . S
O423 In416 2.326 . S
O423 C419 1.260 . S
O424 In416 2.266 . S
O424 C421 1.252 . S
O425 In416 2.326 . S
O425 C421 1.260 . S
C426 O417 1.240 . S
C426 O418 1.252 . S
O427 In416 2.294 . S
O427 C420 1.240 . S
O428 In416 2.326 . S
O428 C420 1.252 . S
In429 O430 2.294 . S
In429 O431 2.326 . S
In429 O435 2.266 . S
In429 O436 2.326 . S
In429 O437 2.266 . S
In429 O438 2.326 . S
In429 O440 2.294 . S
In429 O441 2.326 . S
O430 In429 2.294 . S
O430 C439 1.240 . S
O431 In429 2.326 . S
O431 C439 1.252 . S
C432 O435 1.252 . S
C432 O436 1.260 . S
C433 O440 1.240 . S
C433 O441 1.252 . S
C434 O437 1.252 . S
C434 O438 1.260 . S
O435 In429 2.266 . S
O435 C432 1.252 . S
O436 In429 2.326 . S
O436 C432 1.260 . S
O437 In429 2.266 . S
O437 C434 1.252 . S
O438 In429 2.326 . S
O438 C434 1.260 . S
C439 O430 1.240 . S
C439 O431 1.252 . S
O440 In429 2.294 . S
O440 C433 1.240 . S
O441 In429 2.326 . S
O441 C433 1.252 . S
In442 O443 2.294 . S
In442 O444 2.326 . S
In442 O448 2.266 . S
In442 O449 2.326 . S
In442 O450 2.266 . S
In442 O451 2.326 . S
In442 O453 2.294 . S
In442 O454 2.326 . S
O443 In442 2.294 . S
O443 C452 1.240 . S
O444 In442 2.326 . S
O444 C452 1.252 . S
C445 O448 1.252 . S
C445 O449 1.260 . S
C446 O453 1.240 . S
C446 O454 1.252 . S
C447 O450 1.252 . S
C447 O451 1.260 . S
O448 In442 2.266 . S
O448 C445 1.252 . S
O449 In442 2.326 . S
O449 C445 1.260 . S
O450 In442 2.266 . S
O450 C447 1.252 . S
O451 In442 2.326 . S
O451 C447 1.260 . S
C452 O443 1.240 . S
C452 O444 1.252 . S
O453 In442 2.294 . S
O453 C446 1.240 . S
O454 In442 2.326 . S
O454 C446 1.252 . S
In455 O456 2.294 . S
In455 O457 2.326 . S
In455 O461 2.266 . S
In455 O462 2.326 . S
In455 O463 2.266 . S
In455 O464 2.326 . S
In455 O466 2.294 . S
In455 O467 2.326 . S
O456 In455 2.294 . S
O456 C465 1.240 . S
O457 In455 2.326 . S
O457 C465 1.252 . S
C458 O461 1.252 . S
C458 O462 1.260 . S
C459 O466 1.240 . S
C459 O467 1.252 . S
C460 O463 1.252 . S
C460 O464 1.260 . S
O461 In455 2.266 . S
O461 C458 1.252 . S
O462 In455 2.326 . S
O462 C458 1.260 . S
O463 In455 2.266 . S
O463 C460 1.252 . S
O464 In455 2.326 . S
O464 C460 1.260 . S
C465 O456 1.240 . S
C465 O457 1.252 . S
O466 In455 2.294 . S
O466 C459 1.240 . S
O467 In455 2.326 . S
O467 C459 1.252 . S
C468 C469 1.363 . S
C468 C474 1.379 . S
C468 N476 1.356 . S
C469 C468 1.363 . S
C469 C475 1.363 . S
C470 C471 1.363 . S
C470 C475 1.379 . S
C470 N477 1.356 . S
C471 C470 1.363 . S
C471 C474 1.363 . S
N472 C474 1.356 . S
N472 H484 0.984 . S
N472 H485 0.985 . S
N473 C475 1.356 . S
N473 H478 0.984 . S
N473 H479 0.985 . S
C474 C468 1.379 . S
C474 C471 1.363 . S
C474 N472 1.356 . S
C475 C469 1.363 . S
C475 C470 1.379 . S
C475 N473 1.356 . S
N476 C468 1.356 . S
N476 H482 0.984 . S
N476 H483 0.984 . S
N477 C470 1.356 . S
N477 H480 0.984 . S
N477 H481 0.985 . S
H478 N473 0.984 . S
H479 N473 0.985 . S
H480 N477 0.984 . S
H481 N477 0.985 . S
H482 N476 0.984 . S
H483 N476 0.984 . S
H484 N472 0.984 . S
H485 N472 0.985 . S
C486 C487 1.363 . S
C486 C492 1.379 . S
C486 N494 1.356 . S
C487 C486 1.363 . S
C487 C493 1.363 . S
C488 C489 1.363 . S
C488 C493 1.379 . S
C488 N495 1.356 . S
C489 C488 1.363 . S
C489 C492 1.363 . S
N490 C492 1.356 . S
N490 H502 0.984 . S
N490 H503 0.985 . S
N491 C493 1.356 . S
N491 H496 0.984 . S
N491 H497 0.985 . S
C492 C486 1.379 . S
C492 C489 1.363 . S
C492 N490 1.356 . S
C493 C487 1.363 . S
C493 C488 1.379 . S
C493 N491 1.356 . S
N494 C486 1.356 . S
N494 H500 0.984 . S
N494 H501 0.984 . S
N495 C488 1.356 . S
N495 H498 0.984 . S
N495 H499 0.985 . S
H496 N491 0.984 . S
H497 N491 0.985 . S
H498 N495 0.984 . S
H499 N495 0.985 . S
H500 N494 0.984 . S
H501 N494 0.984 . S
H502 N490 0.984 . S
H503 N490 0.985 . S
C504 C505 1.363 . S
C504 C510 1.379 . S
C504 N512 1.356 . S
C505 C504 1.363 . S
C505 C511 1.363 . S
C506 C507 1.363 . S
C506 C511 1.379 . S
C506 N513 1.356 . S
C507 C506 1.363 . S
C507 C510 1.363 . S
N508 C510 1.356 . S
N508 H520 0.984 . S
N508 H521 0.985 . S
N509 C511 1.356 . S
N509 H514 0.984 . S
N509 H515 0.985 . S
C510 C504 1.379 . S
C510 C507 1.363 . S
C510 N508 1.356 . S
C511 C505 1.363 . S
C511 C506 1.379 . S
C511 N509 1.356 . S
N512 C504 1.356 . S
N512 H518 0.984 . S
N512 H519 0.984 . S
N513 C506 1.356 . S
N513 H516 0.984 . S
N513 H517 0.985 . S
H514 N509 0.984 . S
H515 N509 0.985 . S
H516 N513 0.984 . S
H517 N513 0.985 . S
H518 N512 0.984 . S
H519 N512 0.984 . S
H520 N508 0.984 . S
H521 N508 0.985 . S
C522 C523 1.363 . S
C522 C528 1.379 . S
C522 N530 1.348 1_554 S
C523 C522 1.363 . S
C523 C529 1.363 . S
C524 C525 1.363 . S
C524 C529 1.379 . S
C524 N531 1.356 . S
C525 C524 1.363 . S
C525 C528 1.363 . S
N526 C528 1.356 . S
N526 H538 0.984 . S
N526 H539 0.985 . S
N527 C529 1.356 . S
N527 H532 0.984 1_554 S
N527 H533 0.985 . S
C528 C522 1.379 . S
C528 C525 1.363 . S
C528 N526 1.356 . S
C529 C523 1.363 . S
C529 C524 1.379 . S
C529 N527 1.356 . S
N530 C522 1.348 1_556 S
N530 H536 0.983 1_556 S
N530 H537 0.995 . S
N531 C524 1.356 . S
N531 H534 0.984 . S
N531 H535 0.985 . S
H532 N527 0.984 1_556 S
H533 N527 0.985 . S
H534 N531 0.984 . S
H535 N531 0.985 . S
H536 N530 0.983 1_554 S
H537 N530 0.995 . S
H538 N526 0.984 . S
H539 N526 0.985 . S
C540 C541 1.363 . S
C540 C546 1.379 . S
C540 N548 1.356 . S
C541 C540 1.363 . S
C541 C547 1.363 . S
C542 C543 1.363 . S
C542 C547 1.379 . S
C542 N549 1.356 . S
C543 C542 1.363 . S
C543 C546 1.363 . S
N544 C546 1.356 1_556 S
N544 H556 0.984 . S
N544 H557 0.985 . S
N545 C547 1.356 . S
N545 H550 0.984 . S
N545 H551 0.985 . S
C546 C540 1.379 . S
C546 C543 1.363 . S
C546 N544 1.356 1_554 S
C547 C541 1.363 . S
C547 C542 1.379 . S
C547 N545 1.356 . S
N548 C540 1.356 . S
N548 H554 0.984 . S
N548 H555 0.984 . S
N549 C542 1.356 . S
N549 H552 0.984 1_554 S
N549 H553 0.985 . S
H550 N545 0.984 . S
H551 N545 0.985 . S
H552 N549 0.984 1_556 S
H553 N549 0.985 . S
H554 N548 0.984 . S
H555 N548 0.984 . S
H556 N544 0.984 . S
H557 N544 0.985 . S
C558 C559 1.363 . S
C558 C564 1.379 . S
C558 N566 1.356 . S
C559 C558 1.363 . S
C559 C565 1.363 . S
C560 C561 1.363 . S
C560 C565 1.379 . S
C560 N567 1.356 1_554 S
C561 C560 1.363 . S
C561 C564 1.363 . S
N562 C564 1.356 . S
N562 H574 0.984 . S
N562 H575 0.985 1_554 S
N563 C565 1.356 . S
N563 H568 0.984 . S
N563 H569 0.985 . S
C564 C558 1.379 . S
C564 C561 1.363 . S
C564 N562 1.356 . S
C565 C559 1.363 . S
C565 C560 1.379 . S
C565 N563 1.356 . S
N566 C558 1.356 . S
N566 H572 0.984 . S
N566 H573 0.984 . S
N567 C560 1.356 1_556 S
N567 H570 0.984 . S
N567 H571 0.985 . S
H568 N563 0.984 . S
H569 N563 0.985 . S
H570 N567 0.984 . S
H571 N567 0.985 . S
H572 N566 0.984 . S
H573 N566 0.984 . S
H574 N562 0.984 . S
H575 N562 0.985 1_556 S
C576 C577 1.363 . S
C576 C582 1.379 . S
C576 N584 1.356 . S
C577 C576 1.363 . S
C577 C583 1.363 . S
C578 C579 1.363 . S
C578 C583 1.379 . S
C578 N585 1.356 . S
C579 C578 1.363 . S
C579 C582 1.363 . S
N580 C582 1.356 . S
N580 H592 0.984 . S
N580 H593 0.985 . S
N581 C583 1.356 . S
N581 H586 0.984 . S
N581 H587 0.985 . S
C582 C576 1.379 . S
C582 C579 1.363 . S
C582 N580 1.356 . S
C583 C577 1.363 . S
C583 C578 1.379 . S
C583 N581 1.356 . S
N584 C576 1.356 . S
N584 H590 0.984 . S
N584 H591 0.984 . S
N585 C578 1.356 . S
N585 H588 0.984 . S
N585 H589 0.985 . S
H586 N581 0.984 . S
H587 N581 0.985 . S
H588 N585 0.984 . S
H589 N585 0.985 . S
H590 N584 0.984 . S
H591 N584 0.984 . S
H592 N580 0.984 . S
H593 N580 0.985 . S
C594 C595 1.363 . S
C594 C600 1.379 . S
C594 N602 1.356 . S
C595 C594 1.363 . S
C595 C601 1.363 . S
C596 C597 1.363 . S
C596 C601 1.379 . S
C596 N603 1.356 . S
C597 C596 1.363 . S
C597 C600 1.363 . S
N598 C600 1.356 . S
N598 H610 0.984 . S
N598 H611 0.985 . S
N599 C601 1.356 . S
N599 H604 0.984 . S
N599 H605 0.985 . S
C600 C594 1.379 . S
C600 C597 1.363 . S
C600 N598 1.356 . S
C601 C595 1.363 . S
C601 C596 1.379 . S
C601 N599 1.356 . S
N602 C594 1.356 . S
N602 H608 0.984 . S
N602 H609 0.984 . S
N603 C596 1.356 . S
N603 H606 0.984 . S
N603 H607 0.985 . S
H604 N599 0.984 . S
H605 N599 0.985 . S
H606 N603 0.984 . S
H607 N603 0.985 . S
H608 N602 0.984 . S
H609 N602 0.984 . S
H610 N598 0.984 . S
H611 N598 0.985 . S
C612 C613 1.363 . S
C612 C618 1.379 . S
C612 N620 1.356 . S
C613 C612 1.363 . S
C613 C619 1.363 . S
C614 C615 1.363 . S
C614 C619 1.379 . S
C614 N621 1.356 . S
C615 C614 1.363 . S
C615 C618 1.363 . S
N616 C618 1.356 . S
N616 H628 0.984 . S
N616 H629 0.985 . S
N617 C619 1.356 . S
N617 H622 0.984 . S
N617 H623 0.985 . S
C618 C612 1.379 . S
C618 C615 1.363 . S
C618 N616 1.356 . S
C619 C613 1.363 . S
C619 C614 1.379 . S
C619 N617 1.356 . S
N620 C612 1.356 . S
N620 H626 0.984 . S
N620 H627 0.984 . S
N621 C614 1.356 . S
N621 H624 0.984 . S
N621 H625 0.985 . S
H622 N617 0.984 . S
H623 N617 0.985 . S
H624 N621 0.984 . S
H625 N621 0.985 . S
H626 N620 0.984 . S
H627 N620 0.984 . S
H628 N616 0.984 . S
H629 N616 0.985 . S
C630 C631 1.363 . S
C630 C636 1.379 . S
C630 N638 1.356 . S
C631 C630 1.363 . S
C631 C637 1.363 . S
C632 C633 1.363 . S
C632 C637 1.379 . S
C632 N639 1.356 . S
C633 C632 1.363 . S
C633 C636 1.363 . S
N634 C636 1.348 1_554 S
N634 H646 0.983 1_554 S
N634 H647 0.995 . S
N635 C637 1.356 . S
N635 H640 0.984 . S
N635 H641 0.985 . S
C636 C630 1.379 . S
C636 C633 1.363 . S
C636 N634 1.348 1_556 S
C637 C631 1.363 . S
C637 C632 1.379 . S
C637 N635 1.356 . S
N638 C630 1.356 . S
N638 H644 0.984 . S
N638 H645 0.984 . S
N639 C632 1.356 . S
N639 H642 0.984 1_556 S
N639 H643 0.985 . S
H640 N635 0.984 . S
H641 N635 0.985 . S
H642 N639 0.984 1_554 S
H643 N639 0.985 . S
H644 N638 0.984 . S
H645 N638 0.984 . S
H646 N634 0.983 1_556 S
H647 N634 0.995 . S
C648 C649 1.363 . S
C648 C654 1.379 . S
C648 N656 1.356 . S
C649 C648 1.363 . S
C649 C655 1.363 . S
C650 C651 1.363 . S
C650 C655 1.379 . S
C650 N657 1.356 . S
C651 C650 1.363 . S
C651 C654 1.363 . S
N652 C654 1.356 . S
N652 H664 0.984 . S
N652 H665 0.985 . S
N653 C655 1.356 1_554 S
N653 H658 0.984 . S
N653 H659 0.983 1_554 S
C654 C648 1.379 . S
C654 C651 1.363 . S
C654 N652 1.356 . S
C655 C649 1.363 . S
C655 C650 1.379 . S
C655 N653 1.356 1_556 S
N656 C648 1.356 . S
N656 H662 0.984 . S
N656 H663 0.984 1_556 S
N657 C650 1.356 . S
N657 H660 0.984 . S
N657 H661 0.985 . S
H658 N653 0.984 . S
H659 N653 0.983 1_556 S
H660 N657 0.984 . S
H661 N657 0.985 . S
H662 N656 0.984 . S
H663 N656 0.984 1_554 S
H664 N652 0.984 . S
H665 N652 0.985 . S
C666 C667 1.363 . S
C666 C672 1.379 . S
C666 N674 1.356 . S
C667 C666 1.363 . S
C667 C673 1.363 . S
C668 C669 1.363 . S
C668 C673 1.379 . S
C668 N675 1.356 1_556 S
C669 C668 1.363 . S
C669 C672 1.363 . S
N670 C672 1.356 . S
N670 H682 0.984 . S
N670 H683 0.985 1_556 S
N671 C673 1.356 . S
N671 H676 0.984 . S
N671 H677 0.985 . S
C672 C666 1.379 . S
C672 C669 1.363 . S
C672 N670 1.356 . S
C673 C667 1.363 . S
C673 C668 1.379 . S
C673 N671 1.356 . S
N674 C666 1.356 . S
N674 H680 0.984 . S
N674 H681 0.984 . S
N675 C668 1.356 1_554 S
N675 H678 0.984 . S
N675 H679 0.985 1_554 S
H676 N671 0.984 . S
H677 N671 0.985 . S
H678 N675 0.984 . S
H679 N675 0.985 1_556 S
H680 N674 0.984 . S
H681 N674 0.984 . S
H682 N670 0.984 . S
H683 N670 0.985 1_554 S
C684 C685 1.363 . S
C684 C690 1.379 . S
C684 N692 1.356 . S
C685 C684 1.363 . S
C685 C691 1.363 . S
C686 C687 1.363 . S
C686 C691 1.379 . S
C686 N693 1.356 . S
C687 C686 1.363 . S
C687 C690 1.363 . S
N688 C690 1.356 . S
N688 H700 0.984 . S
N688 H701 0.985 . S
N689 C691 1.356 . S
N689 H694 0.984 . S
N689 H695 0.985 . S
C690 C684 1.379 . S
C690 C687 1.363 . S
C690 N688 1.356 . S
C691 C685 1.363 . S
C691 C686 1.379 . S
C691 N689 1.356 . S
N692 C684 1.356 . S
N692 H698 0.984 . S
N692 H699 0.984 . S
N693 C686 1.356 . S
N693 H696 0.984 . S
N693 H697 0.985 . S
H694 N689 0.984 . S
H695 N689 0.985 . S
H696 N693 0.984 . S
H697 N693 0.985 . S
H698 N692 0.984 . S
H699 N692 0.984 . S
H700 N688 0.984 . S
H701 N688 0.985 . S
C702 C703 1.363 . S
C702 C708 1.379 . S
C702 N710 1.356 . S
C703 C702 1.363 . S
C703 C709 1.363 . S
C704 C705 1.363 . S
C704 C709 1.379 . S
C704 N711 1.356 . S
C705 C704 1.363 . S
C705 C708 1.363 . S
N706 C708 1.356 . S
N706 H718 0.984 . S
N706 H719 0.985 . S
N707 C709 1.356 . S
N707 H712 0.984 . S
N707 H713 0.985 . S
C708 C702 1.379 . S
C708 C705 1.363 . S
C708 N706 1.356 . S
C709 C703 1.363 . S
C709 C704 1.379 . S
C709 N707 1.356 . S
N710 C702 1.356 . S
N710 H716 0.984 . S
N710 H717 0.984 . S
N711 C704 1.356 . S
N711 H714 0.984 . S
N711 H715 0.985 . S
H712 N707 0.984 . S
H713 N707 0.985 . S
H714 N711 0.984 . S
H715 N711 0.985 . S
H716 N710 0.984 . S
H717 N710 0.984 . S
H718 N706 0.984 . S
H719 N706 0.985 . S
C720 C721 1.363 . S
C720 C726 1.379 . S
C720 N728 1.356 . S
C721 C720 1.363 . S
C721 C727 1.363 . S
C722 C723 1.340 1_545 S
C722 C727 1.377 1_545 S
C722 N729 1.377 . S
C723 C722 1.340 1_565 S
C723 C726 1.363 . S
N724 C726 1.356 . S
N724 H736 0.984 . S
N724 H737 0.985 . S
N725 C727 1.356 1_545 S
N725 H730 0.984 . S
N725 H731 0.985 . S
C726 C720 1.379 . S
C726 C723 1.363 . S
C726 N724 1.356 . S
C727 C721 1.363 . S
C727 C722 1.377 1_565 S
C727 N725 1.356 1_565 S
N728 C720 1.356 . S
N728 H734 0.984 . S
N728 H735 0.984 . S
N729 C722 1.377 . S
N729 H732 0.984 . S
N729 H733 0.985 . S
H730 N725 0.984 . S
H731 N725 0.985 . S
H732 N729 0.984 . S
H733 N729 0.985 . S
H734 N728 0.984 . S
H735 N728 0.984 . S
H736 N724 0.984 . S
H737 N724 0.985 . S
C738 C739 1.363 1_565 S
C738 C744 1.378 1_565 S
C738 N746 1.356 . S
C739 C738 1.363 1_545 S
C739 C745 1.363 . S
C740 C741 1.363 . S
C740 C745 1.379 . S
C740 N747 1.356 . S
C741 C740 1.363 . S
C741 C744 1.377 . S
N742 C744 1.346 1_565 S
N742 H754 0.984 . S
N742 H755 0.985 . S
N743 C745 1.356 . S
N743 H748 0.984 . S
N743 H749 0.985 . S
C744 C738 1.378 1_545 S
C744 C741 1.377 . S
C744 N742 1.346 1_545 S
C745 C739 1.363 . S
C745 C740 1.379 . S
C745 N743 1.356 . S
N746 C738 1.356 . S
N746 H752 0.984 . S
N746 H753 0.984 . S
N747 C740 1.356 . S
N747 H750 0.984 . S
N747 H751 0.985 . S
H748 N743 0.984 . S
H749 N743 0.985 . S
H750 N747 0.984 . S
H751 N747 0.985 . S
H752 N746 0.984 . S
H753 N746 0.984 . S
H754 N742 0.984 . S
H755 N742 0.985 . S
C756 C757 1.363 . S
C756 C762 1.379 . S
C756 N764 1.356 . S
C757 C756 1.363 . S
C757 C763 1.363 . S
C758 C759 1.363 . S
C758 C763 1.379 . S
C758 N765 1.356 . S
C759 C758 1.363 . S
C759 C762 1.363 . S
N760 C762 1.356 . S
N760 H772 0.984 . S
N760 H773 0.985 . S
N761 C763 1.356 . S
N761 H766 0.984 . S
N761 H767 0.985 . S
C762 C756 1.379 . S
C762 C759 1.363 . S
C762 N760 1.356 . S
C763 C757 1.363 . S
C763 C758 1.379 . S
C763 N761 1.356 . S
N764 C756 1.356 . S
N764 H770 0.984 . S
N764 H771 0.984 . S
N765 C758 1.356 . S
N765 H768 0.984 . S
N765 H769 0.985 . S
H766 N761 0.984 . S
H767 N761 0.985 . S
H768 N765 0.984 . S
H769 N765 0.985 . S
H770 N764 0.984 . S
H771 N764 0.984 . S
H772 N760 0.984 . S
H773 N760 0.985 . S
C774 C775 1.363 . S
C774 C780 1.379 . S
C774 N782 1.356 . S
C775 C774 1.363 . S
C775 C781 1.363 . S
C776 C777 1.363 . S
C776 C781 1.379 . S
C776 N783 1.356 . S
C777 C776 1.363 . S
C777 C780 1.363 . S
N778 C780 1.356 . S
N778 H790 0.984 . S
N778 H791 0.985 . S
N779 C781 1.356 . S
N779 H784 0.984 . S
N779 H785 0.985 . S
C780 C774 1.379 . S
C780 C777 1.363 . S
C780 N778 1.356 . S
C781 C775 1.363 . S
C781 C776 1.379 . S
C781 N779 1.356 . S
N782 C774 1.356 . S
N782 H788 0.984 . S
N782 H789 0.984 . S
N783 C776 1.356 . S
N783 H786 0.984 . S
N783 H787 0.985 . S
H784 N779 0.984 . S
H785 N779 0.985 . S
H786 N783 0.984 . S
H787 N783 0.985 . S
H788 N782 0.984 . S
H789 N782 0.984 . S
H790 N778 0.984 . S
H791 N778 0.985 . S
C792 C793 1.363 . S
C792 C798 1.379 . S
C792 N800 1.356 . S
C793 C792 1.363 . S
C793 C799 1.363 . S
C794 C795 1.363 . S
C794 C799 1.379 . S
C794 N801 1.356 . S
C795 C794 1.363 . S
C795 C798 1.363 . S
N796 C798 1.356 . S
N796 H808 0.984 . S
N796 H809 0.985 . S
N797 C799 1.356 . S
N797 H802 0.984 . S
N797 H803 0.985 . S
C798 C792 1.379 . S
C798 C795 1.363 . S
C798 N796 1.356 . S
C799 C793 1.363 . S
C799 C794 1.379 . S
C799 N797 1.356 . S
N800 C792 1.356 . S
N800 H806 0.984 . S
N800 H807 0.984 . S
N801 C794 1.356 . S
N801 H804 0.984 . S
N801 H805 0.985 . S
H802 N797 0.984 . S
H803 N797 0.985 . S
H804 N801 0.984 . S
H805 N801 0.985 . S
H806 N800 0.984 . S
H807 N800 0.984 . S
H808 N796 0.984 . S
H809 N796 0.985 . S
C810 C811 1.363 . S
C810 C816 1.379 . S
C810 N818 1.356 . S
C811 C810 1.363 . S
C811 C817 1.363 . S
C812 C813 1.363 . S
C812 C817 1.379 . S
C812 N819 1.356 . S
C813 C812 1.363 . S
C813 C816 1.363 . S
N814 C816 1.356 . S
N814 H826 0.984 . S
N814 H827 0.985 . S
N815 C817 1.356 . S
N815 H820 0.984 . S
N815 H821 0.985 . S
C816 C810 1.379 . S
C816 C813 1.363 . S
C816 N814 1.356 . S
C817 C811 1.363 . S
C817 C812 1.379 . S
C817 N815 1.356 . S
N818 C810 1.356 . S
N818 H824 0.984 . S
N818 H825 0.984 . S
N819 C812 1.356 . S
N819 H822 0.984 . S
N819 H823 0.985 . S
H820 N815 0.984 . S
H821 N815 0.985 . S
H822 N819 0.984 . S
H823 N819 0.985 . S
H824 N818 0.984 . S
H825 N818 0.984 . S
H826 N814 0.984 . S
H827 N814 0.985 . S
C828 C829 1.363 . S
C828 C834 1.379 . S
C828 N836 1.356 . S
C829 C828 1.363 . S
C829 C835 1.363 . S
C830 C831 1.363 . S
C830 C835 1.379 . S
C830 N837 1.356 . S
C831 C830 1.363 . S
C831 C834 1.363 . S
N832 C834 1.356 . S
N832 H844 0.984 . S
N832 H845 0.985 . S
N833 C835 1.356 . S
N833 H838 0.984 . S
N833 H839 0.985 . S
C834 C828 1.379 . S
C834 C831 1.363 . S
C834 N832 1.356 . S
C835 C829 1.363 . S
C835 C830 1.379 . S
C835 N833 1.356 . S
N836 C828 1.356 . S
N836 H842 0.984 . S
N836 H843 0.984 . S
N837 C830 1.356 . S
N837 H840 0.984 . S
N837 H841 0.985 . S
H838 N833 0.984 . S
H839 N833 0.985 . S
H840 N837 0.984 . S
H841 N837 0.985 . S
H842 N836 0.984 . S
H843 N836 0.984 . S
H844 N832 0.984 . S
H845 N832 0.985 . S
C846 C847 1.363 . S
C846 C852 1.379 . S
C846 N854 1.356 . S
C847 C846 1.363 . S
C847 C853 1.363 . S
C848 C849 1.363 . S
C848 C853 1.379 . S
C848 N855 1.356 . S
C849 C848 1.363 . S
C849 C852 1.363 . S
N850 C852 1.356 . S
N850 H862 0.984 . S
N850 H863 0.985 . S
N851 C853 1.356 . S
N851 H856 0.984 . S
N851 H857 0.985 . S
C852 C846 1.379 . S
C852 C849 1.363 . S
C852 N850 1.356 . S
C853 C847 1.363 . S
C853 C848 1.379 . S
C853 N851 1.356 . S
N854 C846 1.356 . S
N854 H860 0.984 . S
N854 H861 0.984 . S
N855 C848 1.356 . S
N855 H858 0.984 . S
N855 H859 0.985 . S
H856 N851 0.984 . S
H857 N851 0.985 . S
H858 N855 0.984 . S
H859 N855 0.985 . S
H860 N854 0.984 . S
H861 N854 0.984 . S
H862 N850 0.984 . S
H863 N850 0.985 . S
C864 C865 1.363 . S
C864 C870 1.379 . S
C864 N872 1.356 . S
C865 C864 1.363 . S
C865 C871 1.363 . S
C866 C867 1.363 . S
C866 C871 1.379 . S
C866 N873 1.356 . S
C867 C866 1.363 . S
C867 C870 1.363 . S
N868 C870 1.356 . S
N868 H880 0.984 . S
N868 H881 0.985 . S
N869 C871 1.356 . S
N869 H874 0.984 . S
N869 H875 0.985 . S
C870 C864 1.379 . S
C870 C867 1.363 . S
C870 N868 1.356 . S
C871 C865 1.363 . S
C871 C866 1.379 . S
C871 N869 1.356 . S
N872 C864 1.356 . S
N872 H878 0.984 . S
N872 H879 0.984 . S
N873 C866 1.356 . S
N873 H876 0.984 . S
N873 H877 0.985 . S
H874 N869 0.984 . S
H875 N869 0.985 . S
H876 N873 0.984 . S
H877 N873 0.985 . S
H878 N872 0.984 . S
H879 N872 0.984 . S
H880 N868 0.984 . S
H881 N868 0.985 . S
C882 C883 1.363 . S
C882 C888 1.379 . S
C882 N890 1.356 . S
C883 C882 1.363 . S
C883 C889 1.363 . S
C884 C885 1.363 . S
C884 C889 1.379 . S
C884 N891 1.356 . S
C885 C884 1.363 . S
C885 C888 1.363 . S
N886 C888 1.356 . S
N886 H898 0.984 . S
N886 H899 0.985 . S
N887 C889 1.356 . S
N887 H892 0.984 . S
N887 H893 0.985 . S
C888 C882 1.379 . S
C888 C885 1.363 . S
C888 N886 1.356 . S
C889 C883 1.363 . S
C889 C884 1.379 . S
C889 N887 1.356 . S
N890 C882 1.356 . S
N890 H896 0.984 . S
N890 H897 0.984 . S
N891 C884 1.356 . S
N891 H894 0.984 . S
N891 H895 0.985 . S
H892 N887 0.984 . S
H893 N887 0.985 . S
H894 N891 0.984 . S
H895 N891 0.985 . S
H896 N890 0.984 . S
H897 N890 0.984 . S
H898 N886 0.984 . S
H899 N886 0.985 . S
C900 C901 1.363 . S
C900 C906 1.379 . S
C900 N908 1.356 . S
C901 C900 1.363 . S
C901 C907 1.363 . S
C902 C903 1.363 . S
C902 C907 1.379 . S
C902 N909 1.356 . S
C903 C902 1.363 . S
C903 C906 1.363 . S
N904 C906 1.356 . S
N904 H916 0.984 . S
N904 H917 0.985 . S
N905 C907 1.356 . S
N905 H910 0.984 . S
N905 H911 0.985 . S
C906 C900 1.379 . S
C906 C903 1.363 . S
C906 N904 1.356 . S
C907 C901 1.363 . S
C907 C902 1.379 . S
C907 N905 1.356 . S
N908 C900 1.356 . S
N908 H914 0.984 . S
N908 H915 0.984 . S
N909 C902 1.356 . S
N909 H912 0.984 . S
N909 H913 0.985 . S
H910 N905 0.984 . S
H911 N905 0.985 . S
H912 N909 0.984 . S
H913 N909 0.985 . S
H914 N908 0.984 . S
H915 N908 0.984 . S
H916 N904 0.984 . S
H917 N904 0.985 . S
C918 C919 1.363 . S
C918 C924 1.379 . S
C918 N926 1.356 . S
C919 C918 1.363 . S
C919 C925 1.363 . S
C920 C921 1.363 . S
C920 C925 1.379 . S
C920 N927 1.356 . S
C921 C920 1.363 . S
C921 C924 1.363 . S
N922 C924 1.356 . S
N922 H934 0.984 . S
N922 H935 0.985 . S
N923 C925 1.356 . S
N923 H928 0.984 . S
N923 H929 0.985 . S
C924 C918 1.379 . S
C924 C921 1.363 . S
C924 N922 1.356 . S
C925 C919 1.363 . S
C925 C920 1.379 . S
C925 N923 1.356 . S
N926 C918 1.356 . S
N926 H932 0.984 . S
N926 H933 0.984 . S
N927 C920 1.356 . S
N927 H930 0.984 . S
N927 H931 0.985 . S
H928 N923 0.984 . S
H929 N923 0.985 . S
H930 N927 0.984 . S
H931 N927 0.985 . S
H932 N926 0.984 . S
H933 N926 0.984 . S
H934 N922 0.984 . S
H935 N922 0.985 . S
C936 C937 1.363 . S
C936 C942 1.379 . S
C936 N944 1.356 . S
C937 C936 1.363 . S
C937 C943 1.363 . S
C938 C939 1.363 . S
C938 C943 1.379 . S
C938 N945 1.356 . S
C939 C938 1.363 . S
C939 C942 1.363 . S
N940 C942 1.356 . S
N940 H952 0.984 . S
N940 H953 0.985 . S
N941 C943 1.356 . S
N941 H946 0.984 . S
N941 H947 0.985 . S
C942 C936 1.379 . S
C942 C939 1.363 . S
C942 N940 1.356 . S
C943 C937 1.363 . S
C943 C938 1.379 . S
C943 N941 1.356 . S
N944 C936 1.356 . S
N944 H950 0.984 . S
N944 H951 0.984 . S
N945 C938 1.356 . S
N945 H948 0.984 . S
N945 H949 0.985 . S
H946 N941 0.984 . S
H947 N941 0.985 . S
H948 N945 0.984 . S
H949 N945 0.985 . S
H950 N944 0.984 . S
H951 N944 0.984 . S
H952 N940 0.984 . S
H953 N940 0.985 . S
C954 C955 1.363 . S
C954 C960 1.379 . S
C954 N962 1.356 . S
C955 C954 1.363 . S
C955 C961 1.363 . S
C956 C957 1.363 . S
C956 C961 1.379 . S
C956 N963 1.356 . S
C957 C956 1.363 . S
C957 C960 1.363 . S
N958 C960 1.356 . S
N958 H970 0.984 . S
N958 H971 0.985 . S
N959 C961 1.356 . S
N959 H964 0.984 . S
N959 H965 0.985 . S
C960 C954 1.379 . S
C960 C957 1.363 . S
C960 N958 1.356 . S
C961 C955 1.363 . S
C961 C956 1.379 . S
C961 N959 1.356 . S
N962 C954 1.356 . S
N962 H968 0.984 . S
N962 H969 0.984 . S
N963 C956 1.356 . S
N963 H966 0.984 . S
N963 H967 0.985 . S
H964 N959 0.984 . S
H965 N959 0.985 . S
H966 N963 0.984 . S
H967 N963 0.985 . S
H968 N962 0.984 . S
H969 N962 0.984 . S
H970 N958 0.984 . S
H971 N958 0.985 . S
C972 C973 1.363 . S
C972 C978 1.379 . S
C972 N980 1.356 . S
C973 C972 1.363 . S
C973 C979 1.363 . S
C974 C975 1.363 . S
C974 C979 1.379 . S
C974 N981 1.356 . S
C975 C974 1.363 . S
C975 C978 1.363 . S
N976 C978 1.356 . S
N976 H988 0.984 . S
N976 H989 0.985 . S
N977 C979 1.356 . S
N977 H982 0.984 . S
N977 H983 0.985 . S
C978 C972 1.379 . S
C978 C975 1.363 . S
C978 N976 1.356 . S
C979 C973 1.363 . S
C979 C974 1.379 . S
C979 N977 1.356 . S
N980 C972 1.356 . S
N980 H986 0.984 . S
N980 H987 0.984 . S
N981 C974 1.356 . S
N981 H984 0.984 . S
N981 H985 0.985 . S
H982 N977 0.984 . S
H983 N977 0.985 . S
H984 N981 0.984 . S
H985 N981 0.985 . S
H986 N980 0.984 . S
H987 N980 0.984 . S
H988 N976 0.984 . S
H989 N976 0.985 . S
C990 C991 1.363 . S
C990 C996 1.379 . S
C990 N998 1.356 . S
C991 C990 1.363 . S
C991 C997 1.363 . S
C992 C993 1.363 . S
C992 C997 1.379 . S
C992 N999 1.356 . S
C993 C992 1.363 . S
C993 C996 1.363 . S
N994 C996 1.356 . S
N994 H1006 0.984 . S
N994 H1007 0.985 . S
N995 C997 1.356 . S
N995 H1000 0.984 . S
N995 H1001 0.985 . S
C996 C990 1.379 . S
C996 C993 1.363 . S
C996 N994 1.356 . S
C997 C991 1.363 . S
C997 C992 1.379 . S
C997 N995 1.356 . S
N998 C990 1.356 . S
N998 H1004 0.984 . S
N998 H1005 0.984 . S
N999 C992 1.356 . S
N999 H1002 0.984 . S
N999 H1003 0.985 . S
H1000 N995 0.984 . S
H1001 N995 0.985 . S
H1002 N999 0.984 . S
H1003 N999 0.985 . S
H1004 N998 0.984 . S
H1005 N998 0.984 . S
H1006 N994 0.984 . S
H1007 N994 0.985 . S
C1008 C1009 1.363 1_655 S
C1008 C1014 1.379 . S
C1008 N1016 1.356 . S
C1009 C1008 1.363 1_455 S
C1009 C1015 1.363 . S
C1010 C1011 1.363 1_455 S
C1010 C1015 1.379 . S
C1010 N1017 1.356 . S
C1011 C1010 1.363 1_655 S
C1011 C1014 1.363 . S
N1012 C1014 1.356 . S
N1012 H1024 0.984 . S
N1012 H1025 0.985 . S
N1013 C1015 1.356 . S
N1013 H1018 0.984 . S
N1013 H1019 0.985 . S
C1014 C1008 1.379 . S
C1014 C1011 1.363 . S
C1014 N1012 1.356 . S
C1015 C1009 1.363 . S
C1015 C1010 1.379 . S
C1015 N1013 1.356 . S
N1016 C1008 1.356 . S
N1016 H1022 0.984 . S
N1016 H1023 0.984 . S
N1017 C1010 1.356 . S
N1017 H1020 0.984 . S
N1017 H1021 0.985 . S
H1018 N1013 0.984 . S
H1019 N1013 0.985 . S
H1020 N1017 0.984 . S
H1021 N1017 0.985 . S
H1022 N1016 0.984 . S
H1023 N1016 0.984 . S
H1024 N1012 0.984 . S
H1025 N1012 0.985 . S
C1026 C1027 1.363 . S
C1026 C1032 1.379 . S
C1026 N1034 1.356 . S
C1027 C1026 1.363 . S
C1027 C1033 1.363 . S
C1028 C1029 1.363 . S
C1028 C1033 1.379 . S
C1028 N1035 1.356 . S
C1029 C1028 1.363 . S
C1029 C1032 1.363 . S
N1030 C1032 1.356 . S
N1030 H1042 0.984 . S
N1030 H1043 0.985 . S
N1031 C1033 1.356 . S
N1031 H1036 0.984 . S
N1031 H1037 0.985 . S
C1032 C1026 1.379 . S
C1032 C1029 1.363 . S
C1032 N1030 1.356 . S
C1033 C1027 1.363 . S
C1033 C1028 1.379 . S
C1033 N1031 1.356 . S
N1034 C1026 1.356 . S
N1034 H1040 0.984 . S
N1034 H1041 0.984 . S
N1035 C1028 1.356 . S
N1035 H1038 0.984 . S
N1035 H1039 0.985 . S
H1036 N1031 0.984 . S
H1037 N1031 0.985 . S
H1038 N1035 0.984 . S
H1039 N1035 0.985 . S
H1040 N1034 0.984 . S
H1041 N1034 0.984 . S
H1042 N1030 0.984 . S
H1043 N1030 0.985 . S
C1044 C1045 1.363 . S
C1044 C1050 1.379 1_545 S
C1044 N1052 1.356 . S
C1045 C1044 1.363 . S
C1045 C1051 1.363 . S
C1046 C1047 1.363 . S
C1046 C1051 1.379 1_565 S
C1046 N1053 1.356 . S
C1047 C1046 1.363 . S
C1047 C1050 1.363 . S
N1048 C1050 1.356 . S
N1048 H1060 0.984 . S
N1048 H1061 0.985 . S
N1049 C1051 1.356 . S
N1049 H1054 0.984 . S
N1049 H1055 0.985 . S
C1050 C1044 1.379 1_565 S
C1050 C1047 1.363 . S
C1050 N1048 1.356 . S
C1051 C1045 1.363 . S
C1051 C1046 1.379 1_545 S
C1051 N1049 1.356 . S
N1052 C1044 1.356 . S
N1052 H1058 0.952 1_545 S
N1052 H1059 0.984 . S
N1053 C1046 1.356 . S
N1053 H1056 0.984 . S
N1053 H1057 0.952 1_565 S
H1054 N1049 0.984 . S
H1055 N1049 0.985 . S
H1056 N1053 0.984 . S
H1057 N1053 0.952 1_545 S
H1058 N1052 0.952 1_565 S
H1059 N1052 0.984 . S
H1060 N1048 0.984 . S
H1061 N1048 0.985 . S
C1062 C1063 1.363 . S
C1062 C1068 1.379 . S
C1062 N1070 1.356 . S
C1063 C1062 1.363 . S
C1063 C1069 1.363 1_546 S
C1064 C1065 1.363 . S
C1064 C1069 1.379 . S
C1064 N1071 1.356 . S
C1065 C1064 1.363 . S
C1065 C1068 1.363 1_564 S
N1066 C1068 1.356 . S
N1066 H1078 0.984 . S
N1066 H1079 0.985 1_556 S
N1067 C1069 1.356 . S
N1067 H1072 0.984 1_554 S
N1067 H1073 0.985 . S
C1068 C1062 1.379 . S
C1068 C1065 1.363 1_546 S
C1068 N1066 1.356 . S
C1069 C1063 1.363 1_564 S
C1069 C1064 1.379 . S
C1069 N1067 1.356 . S
N1070 C1062 1.356 . S
N1070 H1076 0.984 . S
N1070 H1077 0.984 . S
N1071 C1064 1.356 . S
N1071 H1074 0.984 . S
N1071 H1075 0.985 . S
H1072 N1067 0.984 1_556 S
H1073 N1067 0.985 . S
H1074 N1071 0.984 . S
H1075 N1071 0.985 . S
H1076 N1070 0.984 . S
H1077 N1070 0.984 . S
H1078 N1066 0.984 . S
H1079 N1066 0.985 1_554 S
C1080 C1081 1.363 1_655 S
C1080 C1086 1.379 . S
C1080 N1088 1.356 . S
C1081 C1080 1.363 1_455 S
C1081 C1087 1.363 1_554 S
C1082 C1083 1.363 1_455 S
C1082 C1087 1.379 . S
C1082 N1089 1.356 . S
C1083 C1082 1.363 1_655 S
C1083 C1086 1.363 1_556 S
N1084 C1086 1.356 . S
N1084 H1096 0.984 . S
N1084 H1097 0.990 . S
N1085 C1087 1.356 . S
N1085 H1090 0.988 . S
N1085 H1091 0.985 . S
C1086 C1080 1.379 . S
C1086 C1083 1.363 1_554 S
C1086 N1084 1.356 . S
C1087 C1081 1.363 1_556 S
C1087 C1082 1.379 . S
C1087 N1085 1.356 . S
N1088 C1080 1.356 . S
N1088 H1094 0.984 . S
N1088 H1095 0.984 1_655 S
N1089 C1082 1.356 . S
N1089 H1092 0.984 1_455 S
N1089 H1093 0.985 . S
H1090 N1085 0.988 . S
H1091 N1085 0.985 . S
H1092 N1089 0.984 1_655 S
H1093 N1089 0.985 . S
H1094 N1088 0.984 . S
H1095 N1088 0.984 1_455 S
H1096 N1084 0.984 . S
H1097 N1084 0.990 . S
C1098 C1099 1.363 . S
C1098 C1104 1.379 . S
C1098 N1106 1.356 . S
C1099 C1098 1.363 . S
C1099 C1105 1.363 1_554 S
C1100 C1101 1.363 . S
C1100 C1105 1.379 . S
C1100 N1107 1.356 . S
C1101 C1100 1.363 . S
C1101 C1104 1.363 1_556 S
N1102 C1104 1.356 . S
N1102 H1114 0.984 . S
N1102 H1115 0.985 . S
N1103 C1105 1.356 . S
N1103 H1108 0.984 . S
N1103 H1109 0.985 . S
C1104 C1098 1.379 . S
C1104 C1101 1.363 1_554 S
C1104 N1102 1.356 . S
C1105 C1099 1.363 1_556 S
C1105 C1100 1.379 . S
C1105 N1103 1.356 . S
N1106 C1098 1.356 . S
N1106 H1112 0.984 . S
N1106 H1113 0.984 . S
N1107 C1100 1.356 . S
N1107 H1110 0.984 . S
N1107 H1111 0.985 . S
H1108 N1103 0.984 . S
H1109 N1103 0.985 . S
H1110 N1107 0.984 . S
H1111 N1107 0.985 . S
H1112 N1106 0.984 . S
H1113 N1106 0.984 . S
H1114 N1102 0.984 . S
H1115 N1102 0.985 . S
C1116 C1117 1.363 . S
C1116 C1122 1.379 . S
C1116 N1124 1.356 . S
C1117 C1116 1.363 . S
C1117 C1123 1.363 . S
C1118 C1119 1.363 . S
C1118 C1123 1.379 . S
C1118 N1125 1.356 . S
C1119 C1118 1.363 . S
C1119 C1122 1.363 . S
N1120 C1122 1.356 . S
N1120 H1132 0.984 . S
N1120 H1133 0.985 . S
N1121 C1123 1.356 . S
N1121 H1126 0.984 . S
N1121 H1127 0.985 1_545 S
C1122 C1116 1.379 . S
C1122 C1119 1.363 . S
C1122 N1120 1.356 . S
C1123 C1117 1.363 . S
C1123 C1118 1.379 . S
C1123 N1121 1.356 . S
N1124 C1116 1.356 . S
N1124 H1130 0.984 . S
N1124 H1131 0.984 . S
N1125 C1118 1.356 . S
N1125 H1128 0.984 . S
N1125 H1129 0.985 . S
H1126 N1121 0.984 . S
H1127 N1121 0.985 1_565 S
H1128 N1125 0.984 . S
H1129 N1125 0.985 . S
H1130 N1124 0.984 . S
H1131 N1124 0.984 . S
H1132 N1120 0.984 . S
H1133 N1120 0.985 . S
C1134 C1135 1.363 . S
C1134 C1140 1.379 . S
C1134 N1142 1.356 . S
C1135 C1134 1.363 . S
C1135 C1141 1.363 . S
C1136 C1137 1.363 . S
C1136 C1141 1.379 . S
C1136 N1143 1.356 . S
C1137 C1136 1.363 . S
C1137 C1140 1.363 . S
N1138 C1140 1.356 1_556 S
N1138 H1150 0.984 . S
N1138 H1151 0.985 . S
N1139 C1141 1.356 . S
N1139 H1144 0.984 . S
N1139 H1145 0.985 . S
C1140 C1134 1.379 . S
C1140 C1137 1.363 . S
C1140 N1138 1.356 1_554 S
C1141 C1135 1.363 . S
C1141 C1136 1.379 . S
C1141 N1139 1.356 . S
N1142 C1134 1.356 . S
N1142 H1148 0.984 1_554 S
N1142 H1149 0.984 . S
N1143 C1136 1.356 . S
N1143 H1146 0.984 . S
N1143 H1147 0.985 . S
H1144 N1139 0.984 . S
H1145 N1139 0.985 . S
H1146 N1143 0.984 . S
H1147 N1143 0.985 . S
H1148 N1142 0.984 1_556 S
H1149 N1142 0.984 . S
H1150 N1138 0.984 . S
H1151 N1138 0.985 . S
C1152 C1153 1.363 . S
C1152 C1158 1.379 . S
C1152 N1160 1.356 . S
C1153 C1152 1.363 . S
C1153 C1159 1.363 . S
C1154 C1155 1.363 . S
C1154 C1159 1.379 . S
C1154 N1161 1.356 . S
C1155 C1154 1.363 . S
C1155 C1158 1.363 . S
N1156 C1158 1.356 . S
N1156 H1168 0.984 . S
N1156 H1169 0.985 . S
N1157 C1159 1.356 . S
N1157 H1162 0.984 . S
N1157 H1163 0.985 . S
C1158 C1152 1.379 . S
C1158 C1155 1.363 . S
C1158 N1156 1.356 . S
C1159 C1153 1.363 . S
C1159 C1154 1.379 . S
C1159 N1157 1.356 . S
N1160 C1152 1.356 . S
N1160 H1166 0.984 . S
N1160 H1167 0.984 . S
N1161 C1154 1.356 . S
N1161 H1164 0.984 1_554 S
N1161 H1165 0.985 1_554 S
H1162 N1157 0.984 . S
H1163 N1157 0.985 . S
H1164 N1161 0.984 1_556 S
H1165 N1161 0.985 1_556 S
H1166 N1160 0.984 . S
H1167 N1160 0.984 . S
H1168 N1156 0.984 . S
H1169 N1156 0.985 . S
C1170 C1171 1.363 . S
C1170 C1176 1.379 . S
C1170 N1178 1.356 . S
C1171 C1170 1.363 . S
C1171 C1177 1.363 . S
C1172 C1173 1.363 . S
C1172 C1177 1.379 . S
C1172 N1179 1.356 . S
C1173 C1172 1.363 . S
C1173 C1176 1.363 . S
N1174 C1176 1.356 . S
N1174 H1186 0.984 . S
N1174 H1187 0.985 . S
N1175 C1177 1.356 . S
N1175 H1180 0.984 . S
N1175 H1181 0.985 . S
C1176 C1170 1.379 . S
C1176 C1173 1.363 . S
C1176 N1174 1.356 . S
C1177 C1171 1.363 . S
C1177 C1172 1.379 . S
C1177 N1175 1.356 . S
N1178 C1170 1.356 . S
N1178 H1184 0.984 . S
N1178 H1185 0.984 . S
N1179 C1172 1.356 . S
N1179 H1182 0.984 . S
N1179 H1183 0.985 . S
H1180 N1175 0.984 . S
H1181 N1175 0.985 . S
H1182 N1179 0.984 . S
H1183 N1179 0.985 . S
H1184 N1178 0.984 . S
H1185 N1178 0.984 . S
H1186 N1174 0.984 . S
H1187 N1174 0.985 . S
C1188 C1189 1.363 . S
C1188 C1194 1.379 . S
C1188 N1196 1.356 . S
C1189 C1188 1.363 . S
C1189 C1195 1.363 . S
C1190 C1191 1.363 . S
C1190 C1195 1.379 . S
C1190 N1197 1.356 . S
C1191 C1190 1.363 . S
C1191 C1194 1.363 . S
N1192 C1194 1.356 . S
N1192 H1204 0.984 . S
N1192 H1205 0.985 . S
N1193 C1195 1.356 . S
N1193 H1198 0.984 . S
N1193 H1199 0.985 . S
C1194 C1188 1.379 . S
C1194 C1191 1.363 . S
C1194 N1192 1.356 . S
C1195 C1189 1.363 . S
C1195 C1190 1.379 . S
C1195 N1193 1.356 . S
N1196 C1188 1.356 . S
N1196 H1202 0.984 . S
N1196 H1203 0.984 . S
N1197 C1190 1.356 . S
N1197 H1200 0.984 . S
N1197 H1201 0.985 . S
H1198 N1193 0.984 . S
H1199 N1193 0.985 . S
H1200 N1197 0.984 . S
H1201 N1197 0.985 . S
H1202 N1196 0.984 . S
H1203 N1196 0.984 . S
H1204 N1192 0.984 . S
H1205 N1192 0.985 . S
C1206 C1207 1.363 . S
C1206 C1212 1.379 . S
C1206 N1214 1.356 . S
C1207 C1206 1.363 . S
C1207 C1213 1.363 . S
C1208 C1209 1.363 . S
C1208 C1213 1.379 . S
C1208 N1215 1.356 . S
C1209 C1208 1.363 . S
C1209 C1212 1.363 . S
N1210 C1212 1.356 . S
N1210 H1222 0.984 . S
N1210 H1223 0.985 . S
N1211 C1213 1.356 . S
N1211 H1216 0.984 . S
N1211 H1217 0.985 . S
C1212 C1206 1.379 . S
C1212 C1209 1.363 . S
C1212 N1210 1.356 . S
C1213 C1207 1.363 . S
C1213 C1208 1.379 . S
C1213 N1211 1.356 . S
N1214 C1206 1.356 . S
N1214 H1220 0.984 . S
N1214 H1221 0.984 . S
N1215 C1208 1.356 . S
N1215 H1218 0.984 . S
N1215 H1219 0.985 . S
H1216 N1211 0.984 . S
H1217 N1211 0.985 . S
H1218 N1215 0.984 . S
H1219 N1215 0.985 . S
H1220 N1214 0.984 . S
H1221 N1214 0.984 . S
H1222 N1210 0.984 . S
H1223 N1210 0.985 . S
C1224 C1225 1.363 . S
C1224 C1230 1.379 . S
C1224 N1232 1.356 . S
C1225 C1224 1.363 . S
C1225 C1231 1.363 . S
C1226 C1227 1.363 . S
C1226 C1231 1.379 . S
C1226 N1233 1.356 . S
C1227 C1226 1.363 . S
C1227 C1230 1.363 . S
N1228 C1230 1.356 . S
N1228 H1240 0.984 . S
N1228 H1241 0.985 . S
N1229 C1231 1.356 1_554 S
N1229 H1234 0.984 . S
N1229 H1235 0.985 . S
C1230 C1224 1.379 . S
C1230 C1227 1.363 . S
C1230 N1228 1.356 . S
C1231 C1225 1.363 . S
C1231 C1226 1.379 . S
C1231 N1229 1.356 1_556 S
N1232 C1224 1.356 . S
N1232 H1238 0.997 . S
N1232 H1239 0.984 . S
N1233 C1226 1.356 . S
N1233 H1236 0.984 . S
N1233 H1237 0.985 . S
H1234 N1229 0.984 . S
H1235 N1229 0.985 . S
H1236 N1233 0.984 . S
H1237 N1233 0.985 . S
H1238 N1232 0.997 . S
H1239 N1232 0.984 . S
H1240 N1228 0.984 . S
H1241 N1228 0.985 . S
C1242 C1243 1.363 . S
C1242 C1248 1.379 . S
C1242 N1250 1.356 . S
C1243 C1242 1.363 . S
C1243 C1249 1.363 . S
C1244 C1245 1.363 . S
C1244 C1249 1.379 . S
C1244 N1251 1.356 1_556 S
C1245 C1244 1.363 . S
C1245 C1248 1.363 . S
N1246 C1248 1.356 . S
N1246 H1258 0.984 . S
N1246 H1259 0.985 . S
N1247 C1249 1.356 . S
N1247 H1252 0.984 . S
N1247 H1253 0.985 . S
C1248 C1242 1.379 . S
C1248 C1245 1.363 . S
C1248 N1246 1.356 . S
C1249 C1243 1.363 . S
C1249 C1244 1.379 . S
C1249 N1247 1.356 . S
N1250 C1242 1.356 . S
N1250 H1256 0.984 . S
N1250 H1257 0.984 . S
N1251 C1244 1.356 1_554 S
N1251 H1254 0.984 . S
N1251 H1255 0.985 . S
H1252 N1247 0.984 . S
H1253 N1247 0.985 . S
H1254 N1251 0.984 . S
H1255 N1251 0.985 . S
H1256 N1250 0.984 . S
H1257 N1250 0.984 . S
H1258 N1246 0.984 . S
H1259 N1246 0.985 . S
C1260 C1261 1.363 . S
C1260 C1266 1.379 . S
C1260 N1268 1.356 . S
C1261 C1260 1.363 . S
C1261 C1267 1.363 . S
C1262 C1263 1.363 . S
C1262 C1267 1.379 . S
C1262 N1269 1.356 . S
C1263 C1262 1.363 . S
C1263 C1266 1.363 . S
N1264 C1266 1.356 . S
N1264 H1276 0.984 . S
N1264 H1277 0.985 . S
N1265 C1267 1.356 . S
N1265 H1270 0.984 . S
N1265 H1271 0.985 . S
C1266 C1260 1.379 . S
C1266 C1263 1.363 . S
C1266 N1264 1.356 . S
C1267 C1261 1.363 . S
C1267 C1262 1.379 . S
C1267 N1265 1.356 . S
N1268 C1260 1.356 . S
N1268 H1274 0.984 . S
N1268 H1275 0.984 . S
N1269 C1262 1.356 . S
N1269 H1272 0.984 . S
N1269 H1273 0.985 . S
H1270 N1265 0.984 . S
H1271 N1265 0.985 . S
H1272 N1269 0.984 . S
H1273 N1269 0.985 . S
H1274 N1268 0.984 . S
H1275 N1268 0.984 . S
H1276 N1264 0.984 . S
H1277 N1264 0.985 . S
C1278 C1279 1.363 . S
C1278 C1284 1.379 . S
C1278 N1286 1.356 . S
C1279 C1278 1.363 . S
C1279 C1285 1.363 . S
C1280 C1281 1.363 . S
C1280 C1285 1.379 . S
C1280 N1287 1.356 . S
C1281 C1280 1.363 . S
C1281 C1284 1.363 . S
N1282 C1284 1.356 . S
N1282 H1294 0.984 . S
N1282 H1295 0.985 . S
N1283 C1285 1.356 . S
N1283 H1288 0.984 . S
N1283 H1289 0.985 . S
C1284 C1278 1.379 . S
C1284 C1281 1.363 . S
C1284 N1282 1.356 . S
C1285 C1279 1.363 . S
C1285 C1280 1.379 . S
C1285 N1283 1.356 . S
N1286 C1278 1.356 . S
N1286 H1292 0.984 . S
N1286 H1293 0.984 . S
N1287 C1280 1.356 . S
N1287 H1290 0.984 . S
N1287 H1291 0.985 . S
H1288 N1283 0.984 . S
H1289 N1283 0.985 . S
H1290 N1287 0.984 . S
H1291 N1287 0.985 . S
H1292 N1286 0.984 . S
H1293 N1286 0.984 . S
H1294 N1282 0.984 . S
H1295 N1282 0.985 . S
C1296 C1297 1.363 . S
C1296 C1302 1.379 . S
C1296 N1304 1.356 . S
C1297 C1296 1.363 . S
C1297 C1303 1.363 . S
C1298 C1299 1.363 . S
C1298 C1303 1.379 . S
C1298 N1305 1.356 . S
C1299 C1298 1.363 . S
C1299 C1302 1.363 . S
N1300 C1302 1.356 . S
N1300 H1312 0.984 . S
N1300 H1313 0.985 . S
N1301 C1303 1.356 . S
N1301 H1306 0.984 . S
N1301 H1307 0.985 . S
C1302 C1296 1.379 . S
C1302 C1299 1.363 . S
C1302 N1300 1.356 . S
C1303 C1297 1.363 . S
C1303 C1298 1.379 . S
C1303 N1301 1.356 . S
N1304 C1296 1.356 . S
N1304 H1310 0.984 . S
N1304 H1311 0.984 . S
N1305 C1298 1.356 . S
N1305 H1308 0.984 . S
N1305 H1309 0.985 . S
H1306 N1301 0.984 . S
H1307 N1301 0.985 . S
H1308 N1305 0.984 . S
H1309 N1305 0.985 . S
H1310 N1304 0.984 . S
H1311 N1304 0.984 . S
H1312 N1300 0.984 . S
H1313 N1300 0.985 . S
C1314 C1315 1.363 . S
C1314 C1320 1.379 . S
C1314 N1322 1.356 . S
C1315 C1314 1.363 . S
C1315 C1321 1.363 . S
C1316 C1317 1.363 . S
C1316 C1321 1.379 . S
C1316 N1323 1.356 . S
C1317 C1316 1.363 . S
C1317 C1320 1.363 . S
N1318 C1320 1.356 . S
N1318 H1330 0.984 . S
N1318 H1331 0.985 . S
N1319 C1321 1.356 . S
N1319 H1324 0.984 . S
N1319 H1325 0.985 . S
C1320 C1314 1.379 . S
C1320 C1317 1.363 . S
C1320 N1318 1.356 . S
C1321 C1315 1.363 . S
C1321 C1316 1.379 . S
C1321 N1319 1.356 . S
N1322 C1314 1.356 . S
N1322 H1328 0.984 . S
N1322 H1329 0.984 . S
N1323 C1316 1.356 . S
N1323 H1326 0.984 . S
N1323 H1327 0.985 . S
H1324 N1319 0.984 . S
H1325 N1319 0.985 . S
H1326 N1323 0.984 . S
H1327 N1323 0.985 . S
H1328 N1322 0.984 . S
H1329 N1322 0.984 . S
H1330 N1318 0.984 . S
H1331 N1318 0.985 . S
C1332 C1333 1.363 . S
C1332 C1338 1.379 . S
C1332 N1340 1.356 . S
C1333 C1332 1.363 . S
C1333 C1339 1.363 . S
C1334 C1335 1.363 . S
C1334 C1339 1.379 . S
C1334 N1341 1.356 . S
C1335 C1334 1.363 . S
C1335 C1338 1.363 . S
N1336 C1338 1.356 . S
N1336 H1348 0.984 . S
N1336 H1349 0.985 . S
N1337 C1339 1.356 . S
N1337 H1342 0.984 . S
N1337 H1343 0.985 . S
C1338 C1332 1.379 . S
C1338 C1335 1.363 . S
C1338 N1336 1.356 . S
C1339 C1333 1.363 . S
C1339 C1334 1.379 . S
C1339 N1337 1.356 . S
N1340 C1332 1.356 . S
N1340 H1346 0.984 . S
N1340 H1347 0.984 . S
N1341 C1334 1.356 . S
N1341 H1344 0.984 . S
N1341 H1345 0.985 . S
H1342 N1337 0.984 . S
H1343 N1337 0.985 . S
H1344 N1341 0.984 . S
H1345 N1341 0.985 . S
H1346 N1340 0.984 . S
H1347 N1340 0.984 . S
H1348 N1336 0.984 . S
H1349 N1336 0.985 . S
C1350 C1351 1.363 . S
C1350 C1356 1.427 . S
C1350 N1358 1.356 . S
C1351 C1350 1.363 . S
C1351 C1357 1.363 . S
C1352 C1353 1.363 . S
C1352 C1357 1.379 1_545 S
C1352 N1359 1.356 . S
C1353 C1352 1.363 . S
C1353 C1356 1.339 1_545 S
N1354 C1356 1.321 1_545 S
N1354 H1366 0.984 1_545 S
N1354 H1367 0.985 . S
N1355 C1357 1.356 . S
N1355 H1360 0.984 . S
N1355 H1361 0.985 . S
C1356 C1350 1.427 . S
C1356 C1353 1.339 1_565 S
C1356 N1354 1.321 1_565 S
C1357 C1351 1.363 . S
C1357 C1352 1.379 1_565 S
C1357 N1355 1.356 . S
N1358 C1350 1.356 . S
N1358 H1364 0.984 . S
N1358 H1365 0.984 . S
N1359 C1352 1.356 . S
N1359 H1362 0.984 . S
N1359 H1363 0.985 . S
H1360 N1355 0.984 . S
H1361 N1355 0.985 . S
H1362 N1359 0.984 . S
H1363 N1359 0.985 . S
H1364 N1358 0.984 . S
H1365 N1358 0.984 . S
H1366 N1354 0.984 1_565 S
H1367 N1354 0.985 . S
C1368 C1369 1.363 . S
C1368 C1374 1.379 1_455 S
C1368 N1376 1.356 . S
C1369 C1368 1.363 . S
C1369 C1375 1.363 . S
C1370 C1371 1.363 . S
C1370 C1375 1.379 1_655 S
C1370 N1377 1.356 . S
C1371 C1370 1.363 . S
C1371 C1374 1.363 . S
N1372 C1374 1.356 . S
N1372 H1384 0.984 . S
N1372 H1385 0.985 . S
N1373 C1375 1.356 . S
N1373 H1378 0.984 . S
N1373 H1379 0.985 . S
C1374 C1368 1.379 1_655 S
C1374 C1371 1.363 . S
C1374 N1372 1.356 . S
C1375 C1369 1.363 . S
C1375 C1370 1.379 1_455 S
C1375 N1373 1.356 . S
N1376 C1368 1.356 . S
N1376 H1382 0.984 . S
N1376 H1383 0.984 . S
N1377 C1370 1.356 . S
N1377 H1380 0.984 . S
N1377 H1381 0.985 . S
H1378 N1373 0.984 . S
H1379 N1373 0.985 . S
H1380 N1377 0.984 . S
H1381 N1377 0.985 . S
H1382 N1376 0.984 . S
H1383 N1376 0.984 . S
H1384 N1372 0.984 . S
H1385 N1372 0.985 . S
C1386 C1387 1.363 . S
C1386 C1392 1.379 . S
C1386 N1394 1.356 . S
C1387 C1386 1.363 . S
C1387 C1393 1.363 . S
C1388 C1389 1.363 . S
C1388 C1393 1.379 . S
C1388 N1395 1.356 . S
C1389 C1388 1.363 . S
C1389 C1392 1.363 . S
N1390 C1392 1.356 . S
N1390 H1402 0.984 . S
N1390 H1403 0.985 . S
N1391 C1393 1.356 . S
N1391 H1396 0.984 . S
N1391 H1397 0.985 . S
C1392 C1386 1.379 . S
C1392 C1389 1.363 . S
C1392 N1390 1.356 . S
C1393 C1387 1.363 . S
C1393 C1388 1.379 . S
C1393 N1391 1.356 . S
N1394 C1386 1.356 . S
N1394 H1400 0.984 . S
N1394 H1401 0.984 . S
N1395 C1388 1.356 . S
N1395 H1398 0.984 . S
N1395 H1399 0.985 . S
H1396 N1391 0.984 . S
H1397 N1391 0.985 . S
H1398 N1395 0.984 . S
H1399 N1395 0.985 . S
H1400 N1394 0.984 . S
H1401 N1394 0.984 . S
H1402 N1390 0.984 . S
H1403 N1390 0.985 . S
C1404 C1405 1.397 . S
C1404 C1410 1.341 1_565 S
C1404 N1412 1.373 . S
C1405 C1404 1.397 . S
C1405 C1411 1.363 . S
C1406 C1407 1.363 . S
C1406 C1411 1.379 1_545 S
C1406 N1413 1.356 . S
C1407 C1406 1.363 . S
C1407 C1410 1.363 . S
N1408 C1410 1.356 . S
N1408 H1420 0.984 . S
N1408 H1421 0.985 . S
N1409 C1411 1.356 . S
N1409 H1414 0.984 . S
N1409 H1415 0.985 . S
C1410 C1404 1.341 1_545 S
C1410 C1407 1.363 . S
C1410 N1408 1.356 . S
C1411 C1405 1.363 . S
C1411 C1406 1.379 1_565 S
C1411 N1409 1.356 . S
N1412 C1404 1.373 . S
N1412 H1418 0.984 . S
N1412 H1419 0.984 . S
N1413 C1406 1.356 . S
N1413 H1416 0.984 . S
N1413 H1417 0.985 . S
H1414 N1409 0.984 . S
H1415 N1409 0.985 . S
H1416 N1413 0.984 . S
H1417 N1413 0.985 . S
H1418 N1412 0.984 . S
H1419 N1412 0.984 . S
H1420 N1408 0.984 . S
H1421 N1408 0.985 . S
C1422 C1423 1.363 . S
C1422 C1428 1.379 1_455 S
C1422 N1430 1.356 . S
C1423 C1422 1.363 . S
C1423 C1429 1.363 . S
C1424 C1425 1.363 . S
C1424 C1429 1.379 1_655 S
C1424 N1431 1.356 . S
C1425 C1424 1.363 . S
C1425 C1428 1.363 . S
N1426 C1428 1.356 . S
N1426 H1438 0.984 . S
N1426 H1439 0.985 . S
N1427 C1429 1.356 . S
N1427 H1432 0.984 . S
N1427 H1433 0.985 . S
C1428 C1422 1.379 1_655 S
C1428 C1425 1.363 . S
C1428 N1426 1.356 . S
C1429 C1423 1.363 . S
C1429 C1424 1.379 1_455 S
C1429 N1427 1.356 . S
N1430 C1422 1.356 . S
N1430 H1436 0.984 . S
N1430 H1437 0.984 . S
N1431 C1424 1.356 . S
N1431 H1434 0.984 . S
N1431 H1435 0.985 . S
H1432 N1427 0.984 . S
H1433 N1427 0.985 . S
H1434 N1431 0.984 . S
H1435 N1431 0.985 . S
H1436 N1430 0.984 . S
H1437 N1430 0.984 . S
H1438 N1426 0.984 . S
H1439 N1426 0.985 . S
C1440 C1441 1.363 . S
C1440 C1446 1.379 . S
C1440 N1448 1.356 . S
C1441 C1440 1.363 . S
C1441 C1447 1.363 . S
C1442 C1443 1.363 . S
C1442 C1447 1.379 . S
C1442 N1449 1.356 . S
C1443 C1442 1.363 . S
C1443 C1446 1.363 . S
N1444 C1446 1.356 . S
N1444 H1456 0.984 . S
N1444 H1457 0.985 . S
N1445 C1447 1.356 . S
N1445 H1450 0.984 1_556 S
N1445 H1451 0.985 . S
C1446 C1440 1.379 . S
C1446 C1443 1.363 . S
C1446 N1444 1.356 . S
C1447 C1441 1.363 . S
C1447 C1442 1.379 . S
C1447 N1445 1.356 . S
N1448 C1440 1.356 . S
N1448 H1454 0.984 . S
N1448 H1455 0.984 1_556 S
N1449 C1442 1.356 . S
N1449 H1452 0.984 . S
N1449 H1453 0.985 . S
H1450 N1445 0.984 1_554 S
H1451 N1445 0.985 . S
H1452 N1449 0.984 . S
H1453 N1449 0.985 . S
H1454 N1448 0.984 . S
H1455 N1448 0.984 1_554 S
H1456 N1444 0.984 . S
H1457 N1444 0.985 . S
C1458 C1459 1.363 . S
C1458 C1464 1.379 . S
C1458 N1466 1.356 . S
C1459 C1458 1.363 . S
C1459 C1465 1.363 . S
C1460 C1461 1.363 . S
C1460 C1465 1.379 . S
C1460 N1467 1.356 . S
C1461 C1460 1.363 . S
C1461 C1464 1.363 . S
N1462 C1464 1.356 . S
N1462 H1474 0.984 . S
N1462 H1475 0.985 . S
N1463 C1465 1.356 1_554 S
N1463 H1468 0.984 . S
N1463 H1469 0.985 . S
C1464 C1458 1.379 . S
C1464 C1461 1.363 . S
C1464 N1462 1.356 . S
C1465 C1459 1.363 . S
C1465 C1460 1.379 . S
C1465 N1463 1.356 1_556 S
N1466 C1458 1.356 . S
N1466 H1472 0.984 . S
N1466 H1473 0.984 1_556 S
N1467 C1460 1.356 . S
N1467 H1470 0.984 . S
N1467 H1471 0.985 . S
H1468 N1463 0.984 . S
H1469 N1463 0.985 . S
H1470 N1467 0.984 . S
H1471 N1467 0.985 . S
H1472 N1466 0.984 . S
H1473 N1466 0.984 1_554 S
H1474 N1462 0.984 . S
H1475 N1462 0.985 . S
C1476 C1477 1.363 . S
C1476 C1482 1.379 . S
C1476 N1484 1.356 . S
C1477 C1476 1.363 . S
C1477 C1483 1.363 . S
C1478 C1479 1.363 . S
C1478 C1483 1.379 . S
C1478 N1485 1.356 . S
C1479 C1478 1.363 . S
C1479 C1482 1.363 . S
N1480 C1482 1.356 . S
N1480 H1492 0.984 . S
N1480 H1493 0.985 . S
N1481 C1483 1.356 1_554 S
N1481 H1486 0.984 . S
N1481 H1487 0.985 . S
C1482 C1476 1.379 . S
C1482 C1479 1.363 . S
C1482 N1480 1.356 . S
C1483 C1477 1.363 . S
C1483 C1478 1.379 . S
C1483 N1481 1.356 1_556 S
N1484 C1476 1.356 . S
N1484 H1490 0.984 . S
N1484 H1491 0.984 1_556 S
N1485 C1478 1.356 . S
N1485 H1488 0.984 . S
N1485 H1489 0.985 . S
H1486 N1481 0.984 . S
H1487 N1481 0.985 . S
H1488 N1485 0.984 . S
H1489 N1485 0.985 . S
H1490 N1484 0.984 . S
H1491 N1484 0.984 1_554 S
H1492 N1480 0.984 . S
H1493 N1480 0.985 . S
C1494 C1495 1.363 . S
C1494 C1500 1.379 . S
C1494 N1502 1.356 . S
C1495 C1494 1.363 . S
C1495 C1501 1.363 . S
C1496 C1497 1.363 . S
C1496 C1501 1.379 . S
C1496 N1503 1.356 . S
C1497 C1496 1.363 . S
C1497 C1500 1.363 . S
N1498 C1500 1.356 . S
N1498 H1510 0.984 . S
N1498 H1511 0.985 . S
N1499 C1501 1.356 . S
N1499 H1504 0.984 . S
N1499 H1505 0.985 . S
C1500 C1494 1.379 . S
C1500 C1497 1.363 . S
C1500 N1498 1.356 . S
C1501 C1495 1.363 . S
C1501 C1496 1.379 . S
C1501 N1499 1.356 . S
N1502 C1494 1.356 . S
N1502 H1508 0.984 . S
N1502 H1509 0.984 . S
N1503 C1496 1.356 . S
N1503 H1506 0.984 . S
N1503 H1507 0.985 . S
H1504 N1499 0.984 . S
H1505 N1499 0.985 . S
H1506 N1503 0.984 . S
H1507 N1503 0.985 . S
H1508 N1502 0.984 . S
H1509 N1502 0.984 . S
H1510 N1498 0.984 . S
H1511 N1498 0.985 . S
C1512 C1513 1.363 . S
C1512 C1518 1.379 . S
C1512 N1520 1.356 . S
C1513 C1512 1.363 . S
C1513 C1519 1.363 . S
C1514 C1515 1.363 . S
C1514 C1519 1.379 . S
C1514 N1521 1.356 . S
C1515 C1514 1.363 . S
C1515 C1518 1.363 . S
N1516 C1518 1.356 . S
N1516 H1528 0.984 . S
N1516 H1529 0.985 . S
N1517 C1519 1.356 . S
N1517 H1522 0.984 . S
N1517 H1523 0.985 . S
C1518 C1512 1.379 . S
C1518 C1515 1.363 . S
C1518 N1516 1.356 . S
C1519 C1513 1.363 . S
C1519 C1514 1.379 . S
C1519 N1517 1.356 . S
N1520 C1512 1.356 . S
N1520 H1526 0.984 . S
N1520 H1527 0.984 . S
N1521 C1514 1.356 . S
N1521 H1524 0.984 . S
N1521 H1525 0.985 . S
H1522 N1517 0.984 . S
H1523 N1517 0.985 . S
H1524 N1521 0.984 . S
H1525 N1521 0.985 . S
H1526 N1520 0.984 . S
H1527 N1520 0.984 . S
H1528 N1516 0.984 . S
H1529 N1516 0.985 . S
C1530 C1531 1.363 . S
C1530 C1536 1.379 . S
C1530 N1538 1.356 . S
C1531 C1530 1.363 . S
C1531 C1537 1.363 . S
C1532 C1533 1.363 . S
C1532 C1537 1.379 . S
C1532 N1539 1.356 . S
C1533 C1532 1.363 . S
C1533 C1536 1.363 . S
N1534 C1536 1.356 . S
N1534 H1546 0.984 . S
N1534 H1547 0.985 . S
N1535 C1537 1.356 . S
N1535 H1540 0.984 . S
N1535 H1541 0.985 . S
C1536 C1530 1.379 . S
C1536 C1533 1.363 . S
C1536 N1534 1.356 . S
C1537 C1531 1.363 . S
C1537 C1532 1.379 . S
C1537 N1535 1.356 . S
N1538 C1530 1.356 . S
N1538 H1544 0.984 . S
N1538 H1545 0.984 . S
N1539 C1532 1.356 . S
N1539 H1542 0.984 . S
N1539 H1543 0.985 . S
H1540 N1535 0.984 . S
H1541 N1535 0.985 . S
H1542 N1539 0.984 . S
H1543 N1539 0.985 . S
H1544 N1538 0.984 . S
H1545 N1538 0.984 . S
H1546 N1534 0.984 . S
H1547 N1534 0.985 . S
C1548 C1549 1.363 . S
C1548 C1554 1.379 . S
C1548 N1556 1.356 . S
C1549 C1548 1.363 . S
C1549 C1555 1.363 . S
C1550 C1551 1.363 . S
C1550 C1555 1.379 . S
C1550 N1557 1.356 . S
C1551 C1550 1.363 . S
C1551 C1554 1.363 . S
N1552 C1554 1.356 . S
N1552 H1564 0.984 . S
N1552 H1565 0.985 1_554 S
N1553 C1555 1.356 . S
N1553 H1558 0.984 . S
N1553 H1559 0.985 . S
C1554 C1548 1.379 . S
C1554 C1551 1.363 . S
C1554 N1552 1.356 . S
C1555 C1549 1.363 . S
C1555 C1550 1.379 . S
C1555 N1553 1.356 . S
N1556 C1548 1.356 . S
N1556 H1562 0.984 . S
N1556 H1563 0.984 . S
N1557 C1550 1.356 . S
N1557 H1560 0.984 1_554 S
N1557 H1561 0.985 . S
H1558 N1553 0.984 . S
H1559 N1553 0.985 . S
H1560 N1557 0.984 1_556 S
H1561 N1557 0.985 . S
H1562 N1556 0.984 . S
H1563 N1556 0.984 . S
H1564 N1552 0.984 . S
H1565 N1552 0.985 1_556 S
C1566 C1567 1.363 . S
C1566 C1572 1.379 . S
C1566 N1574 1.356 . S
C1567 C1566 1.363 . S
C1567 C1573 1.363 . S
C1568 C1569 1.363 . S
C1568 C1573 1.379 . S
C1568 N1575 1.356 1_554 S
C1569 C1568 1.363 . S
C1569 C1572 1.363 . S
N1570 C1572 1.356 . S
N1570 H1582 0.984 . S
N1570 H1583 0.985 1_554 S
N1571 C1573 1.356 . S
N1571 H1576 0.984 . S
N1571 H1577 0.985 . S
C1572 C1566 1.379 . S
C1572 C1569 1.363 . S
C1572 N1570 1.356 . S
C1573 C1567 1.363 . S
C1573 C1568 1.379 . S
C1573 N1571 1.356 . S
N1574 C1566 1.356 . S
N1574 H1580 0.984 . S
N1574 H1581 0.984 . S
N1575 C1568 1.356 1_556 S
N1575 H1578 0.984 . S
N1575 H1579 0.985 . S
H1576 N1571 0.984 . S
H1577 N1571 0.985 . S
H1578 N1575 0.984 . S
H1579 N1575 0.985 . S
H1580 N1574 0.984 . S
H1581 N1574 0.984 . S
H1582 N1570 0.984 . S
H1583 N1570 0.985 1_556 S
C1584 C1585 1.363 . S
C1584 C1590 1.379 . S
C1584 N1592 1.356 . S
C1585 C1584 1.363 . S
C1585 C1591 1.363 . S
C1586 C1587 1.363 . S
C1586 C1591 1.379 . S
C1586 N1593 1.356 1_554 S
C1587 C1586 1.363 . S
C1587 C1590 1.363 . S
N1588 C1590 1.356 . S
N1588 H1600 0.984 . S
N1588 H1601 0.985 1_554 S
N1589 C1591 1.356 . S
N1589 H1594 0.984 . S
N1589 H1595 0.985 . S
C1590 C1584 1.379 . S
C1590 C1587 1.363 . S
C1590 N1588 1.356 . S
C1591 C1585 1.363 . S
C1591 C1586 1.379 . S
C1591 N1589 1.356 . S
N1592 C1584 1.356 . S
N1592 H1598 0.984 . S
N1592 H1599 0.984 . S
N1593 C1586 1.356 1_556 S
N1593 H1596 0.984 . S
N1593 H1597 0.985 . S
H1594 N1589 0.984 . S
H1595 N1589 0.985 . S
H1596 N1593 0.984 . S
H1597 N1593 0.985 . S
H1598 N1592 0.984 . S
H1599 N1592 0.984 . S
H1600 N1588 0.984 . S
H1601 N1588 0.985 1_556 S
C1602 C1603 1.363 . S
C1602 C1608 1.379 . S
C1602 N1610 1.356 . S
C1603 C1602 1.363 . S
C1603 C1609 1.363 . S
C1604 C1605 1.363 . S
C1604 C1609 1.379 . S
C1604 N1611 1.356 . S
C1605 C1604 1.363 . S
C1605 C1608 1.363 . S
N1606 C1608 1.356 . S
N1606 H1618 0.984 . S
N1606 H1619 0.985 . S
N1607 C1609 1.356 . S
N1607 H1612 0.984 . S
N1607 H1613 0.985 . S
C1608 C1602 1.379 . S
C1608 C1605 1.363 . S
C1608 N1606 1.356 . S
C1609 C1603 1.363 . S
C1609 C1604 1.379 . S
C1609 N1607 1.356 . S
N1610 C1602 1.356 . S
N1610 H1616 0.984 . S
N1610 H1617 0.984 . S
N1611 C1604 1.356 . S
N1611 H1614 0.984 . S
N1611 H1615 0.985 . S
H1612 N1607 0.984 . S
H1613 N1607 0.985 . S
H1614 N1611 0.984 . S
H1615 N1611 0.985 . S
H1616 N1610 0.984 . S
H1617 N1610 0.984 . S
H1618 N1606 0.984 . S
H1619 N1606 0.985 . S
C1620 C1621 1.363 . S
C1620 C1626 1.379 . S
C1620 N1628 1.356 . S
C1621 C1620 1.363 . S
C1621 C1627 1.363 . S
C1622 C1623 1.363 . S
C1622 C1627 1.379 . S
C1622 N1629 1.356 . S
C1623 C1622 1.363 . S
C1623 C1626 1.363 . S
N1624 C1626 1.356 . S
N1624 H1636 0.984 . S
N1624 H1637 0.985 . S
N1625 C1627 1.356 . S
N1625 H1630 0.984 . S
N1625 H1631 0.985 . S
C1626 C1620 1.379 . S
C1626 C1623 1.363 . S
C1626 N1624 1.356 . S
C1627 C1621 1.363 . S
C1627 C1622 1.379 . S
C1627 N1625 1.356 . S
N1628 C1620 1.356 . S
N1628 H1634 0.984 . S
N1628 H1635 0.984 . S
N1629 C1622 1.356 . S
N1629 H1632 0.984 . S
N1629 H1633 0.985 . S
H1630 N1625 0.984 . S
H1631 N1625 0.985 . S
H1632 N1629 0.984 . S
H1633 N1629 0.985 . S
H1634 N1628 0.984 . S
H1635 N1628 0.984 . S
H1636 N1624 0.984 . S
H1637 N1624 0.985 . S
C1638 C1639 1.363 . S
C1638 C1644 1.379 . S
C1638 N1646 1.356 . S
C1639 C1638 1.363 . S
C1639 C1645 1.363 . S
C1640 C1641 1.363 . S
C1640 C1645 1.379 . S
C1640 N1647 1.356 . S
C1641 C1640 1.363 . S
C1641 C1644 1.363 . S
N1642 C1644 1.356 . S
N1642 H1654 0.984 . S
N1642 H1655 0.985 . S
N1643 C1645 1.356 . S
N1643 H1648 0.984 . S
N1643 H1649 0.985 . S
C1644 C1638 1.379 . S
C1644 C1641 1.363 . S
C1644 N1642 1.356 . S
C1645 C1639 1.363 . S
C1645 C1640 1.379 . S
C1645 N1643 1.356 . S
N1646 C1638 1.356 . S
N1646 H1652 0.984 . S
N1646 H1653 0.984 . S
N1647 C1640 1.356 . S
N1647 H1650 0.984 . S
N1647 H1651 0.985 . S
H1648 N1643 0.984 . S
H1649 N1643 0.985 . S
H1650 N1647 0.984 . S
H1651 N1647 0.985 . S
H1652 N1646 0.984 . S
H1653 N1646 0.984 . S
H1654 N1642 0.984 . S
H1655 N1642 0.985 . S
C1656 C1657 1.363 . S
C1656 C1662 1.379 . S
C1656 N1664 1.356 . S
C1657 C1656 1.363 . S
C1657 C1663 1.363 1_655 S
C1658 C1659 1.363 . S
C1658 C1663 1.379 1_655 S
C1658 N1665 1.356 1_655 S
C1659 C1658 1.363 . S
C1659 C1662 1.363 . S
N1660 C1662 1.356 . S
N1660 H1672 0.984 . S
N1660 H1673 0.985 . S
N1661 C1663 1.356 . S
N1661 H1666 0.984 . S
N1661 H1667 0.985 . S
C1662 C1656 1.379 . S
C1662 C1659 1.363 . S
C1662 N1660 1.356 . S
C1663 C1657 1.363 1_455 S
C1663 C1658 1.379 1_455 S
C1663 N1661 1.356 . S
N1664 C1656 1.356 . S
N1664 H1670 0.984 . S
N1664 H1671 0.984 . S
N1665 C1658 1.356 1_455 S
N1665 H1668 0.984 . S
N1665 H1669 0.985 . S
H1666 N1661 0.984 . S
H1667 N1661 0.985 . S
H1668 N1665 0.984 . S
H1669 N1665 0.985 . S
H1670 N1664 0.984 . S
H1671 N1664 0.984 . S
H1672 N1660 0.984 . S
H1673 N1660 0.985 . S
C1674 C1675 1.363 . S
C1674 C1680 1.379 . S
C1674 N1682 1.356 . S
C1675 C1674 1.363 . S
C1675 C1681 1.363 . S
C1676 C1677 1.363 . S
C1676 C1681 1.379 . S
C1676 N1683 1.356 . S
C1677 C1676 1.363 . S
C1677 C1680 1.363 . S
N1678 C1680 1.356 . S
N1678 H1690 0.984 . S
N1678 H1691 0.985 . S
N1679 C1681 1.356 . S
N1679 H1684 0.984 . S
N1679 H1685 0.985 . S
C1680 C1674 1.379 . S
C1680 C1677 1.363 . S
C1680 N1678 1.356 . S
C1681 C1675 1.363 . S
C1681 C1676 1.379 . S
C1681 N1679 1.356 . S
N1682 C1674 1.356 . S
N1682 H1688 0.984 . S
N1682 H1689 0.984 . S
N1683 C1676 1.356 . S
N1683 H1686 0.984 . S
N1683 H1687 0.985 . S
H1684 N1679 0.984 . S
H1685 N1679 0.985 . S
H1686 N1683 0.984 . S
H1687 N1683 0.985 . S
H1688 N1682 0.984 . S
H1689 N1682 0.984 . S
H1690 N1678 0.984 . S
H1691 N1678 0.985 . S
C1692 C1693 1.363 . S
C1692 C1698 1.379 . S
C1692 N1700 1.356 . S
C1693 C1692 1.363 . S
C1693 C1699 1.363 1_565 S
C1694 C1695 1.363 . S
C1694 C1699 1.379 1_565 S
C1694 N1701 1.356 1_565 S
C1695 C1694 1.363 . S
C1695 C1698 1.363 . S
N1696 C1698 1.356 . S
N1696 H1708 0.984 . S
N1696 H1709 0.985 . S
N1697 C1699 1.356 . S
N1697 H1702 0.984 . S
N1697 H1703 0.985 . S
C1698 C1692 1.379 . S
C1698 C1695 1.363 . S
C1698 N1696 1.356 . S
C1699 C1693 1.363 1_545 S
C1699 C1694 1.379 1_545 S
C1699 N1697 1.356 . S
N1700 C1692 1.356 . S
N1700 H1706 0.984 . S
N1700 H1707 0.984 . S
N1701 C1694 1.356 1_545 S
N1701 H1704 0.984 . S
N1701 H1705 0.985 . S
H1702 N1697 0.984 . S
H1703 N1697 0.985 . S
H1704 N1701 0.984 . S
H1705 N1701 0.985 . S
H1706 N1700 0.984 . S
H1707 N1700 0.984 . S
H1708 N1696 0.984 . S
H1709 N1696 0.985 . S
C1710 C1711 1.363 . S
C1710 C1716 1.379 1_545 S
C1710 N1718 1.356 1_545 S
C1711 C1710 1.363 . S
C1711 C1717 1.363 . S
C1712 C1713 1.363 . S
C1712 C1717 1.379 . S
C1712 N1719 1.356 . S
C1713 C1712 1.363 . S
C1713 C1716 1.363 1_545 S
N1714 C1716 1.356 . S
N1714 H1726 0.984 . S
N1714 H1727 0.985 . S
N1715 C1717 1.356 . S
N1715 H1720 0.984 . S
N1715 H1721 0.985 . S
C1716 C1710 1.379 1_565 S
C1716 C1713 1.363 1_565 S
C1716 N1714 1.356 . S
C1717 C1711 1.363 . S
C1717 C1712 1.379 . S
C1717 N1715 1.356 . S
N1718 C1710 1.356 1_565 S
N1718 H1724 0.984 . S
N1718 H1725 0.990 . S
N1719 C1712 1.356 . S
N1719 H1722 0.984 . S
N1719 H1723 0.985 . S
H1720 N1715 0.984 . S
H1721 N1715 0.985 . S
H1722 N1719 0.984 . S
H1723 N1719 0.985 . S
H1724 N1718 0.984 . S
H1725 N1718 0.990 . S
H1726 N1714 0.984 . S
H1727 N1714 0.985 . S
C1728 C1729 1.363 . S
C1728 C1734 1.379 1_455 S
C1728 N1736 1.356 1_455 S
C1729 C1728 1.363 . S
C1729 C1735 1.363 . S
C1730 C1731 1.363 . S
C1730 C1735 1.379 . S
C1730 N1737 1.356 . S
C1731 C1730 1.363 . S
C1731 C1734 1.363 1_455 S
N1732 C1734 1.356 . S
N1732 H1744 0.984 . S
N1732 H1745 0.985 . S
N1733 C1735 1.356 . S
N1733 H1738 0.984 . S
N1733 H1739 0.985 . S
C1734 C1728 1.379 1_655 S
C1734 C1731 1.363 1_655 S
C1734 N1732 1.356 . S
C1735 C1729 1.363 . S
C1735 C1730 1.379 . S
C1735 N1733 1.356 . S
N1736 C1728 1.356 1_655 S
N1736 H1742 0.984 . S
N1736 H1743 0.984 . S
N1737 C1730 1.356 . S
N1737 H1740 0.984 . S
N1737 H1741 0.985 . S
H1738 N1733 0.984 . S
H1739 N1733 0.985 . S
H1740 N1737 0.984 . S
H1741 N1737 0.985 . S
H1742 N1736 0.984 . S
H1743 N1736 0.984 . S
H1744 N1732 0.984 . S
H1745 N1732 0.985 . S
C1746 C1747 1.363 . S
C1746 C1752 1.379 . S
C1746 N1754 1.356 . S
C1747 C1746 1.363 . S
C1747 C1753 1.363 . S
C1748 C1749 1.363 . S
C1748 C1753 1.379 . S
C1748 N1755 1.356 . S
C1749 C1748 1.363 . S
C1749 C1752 1.363 . S
N1750 C1752 1.356 . S
N1750 H1762 0.984 . S
N1750 H1763 0.985 . S
N1751 C1753 1.356 . S
N1751 H1756 0.984 . S
N1751 H1757 0.985 . S
C1752 C1746 1.379 . S
C1752 C1749 1.363 . S
C1752 N1750 1.356 . S
C1753 C1747 1.363 . S
C1753 C1748 1.379 . S
C1753 N1751 1.356 . S
N1754 C1746 1.356 . S
N1754 H1760 0.984 . S
N1754 H1761 0.984 . S
N1755 C1748 1.356 . S
N1755 H1758 0.984 . S
N1755 H1759 0.985 . S
H1756 N1751 0.984 . S
H1757 N1751 0.985 . S
H1758 N1755 0.984 . S
H1759 N1755 0.985 . S
H1760 N1754 0.984 . S
H1761 N1754 0.984 . S
H1762 N1750 0.984 . S
H1763 N1750 0.985 . S
C469 C212 1.621 . S
C471 C10 1.612 . S
C487 C225 1.623 . S
C489 C17 1.623 . S
C505 C205 1.613 . S
C507 C30 1.622 . S
C523 C342 1.597 1_554 S
C525 C43 1.590 . S
C541 C62 1.606 . S
C543 C322 1.596 1_554 S
C559 C75 1.593 . S
C561 C329 1.592 1_554 S
C577 C88 1.612 . S
C579 C452 1.621 . S
C595 C459 1.623 . S
C597 C95 1.623 . S
C613 C439 1.613 . S
C615 C108 1.622 . S
C631 C121 1.590 . S
C633 C270 1.597 1_556 S
C649 C244 1.596 1_556 S
C651 C134 1.606 . S
C667 C153 1.593 . S
C669 C257 1.592 1_556 S
C685 C374 1.563 . S
C687 C166 1.553 . S
C703 C179 1.551 . S
C705 C381 1.555 . S
C721 C361 1.539 . S
C723 C192 1.540 . S
C739 C420 1.541 . S
C741 C283 1.538 . S
C757 C394 1.554 . S
C759 C290 1.562 . S
C775 C309 1.557 . S
C777 C413 1.549 . S
C793 C238 1.393 . S
C795 C4 1.394 . S
C811 C251 1.510 . S
C813 C23 1.508 . S
C829 C264 1.813 . S
C831 C36 1.827 . S
C847 C49 1.403 . S
C849 C433 1.402 . S
C865 C56 1.852 . S
C867 C446 1.854 . S
C883 C69 1.518 . S
C885 C465 1.526 . S
C901 C82 1.394 . S
C903 C316 1.393 . S
C919 C335 1.510 . S
C921 C101 1.508 . S
C937 C348 1.813 . S
C939 C114 1.827 . S
C955 C199 1.402 . S
C957 C127 1.403 . S
C973 C140 1.852 . S
C975 C218 1.854 . S
C991 C147 1.518 . S
C993 C231 1.526 . S
C1009 C160 1.412 . S
C1011 C400 1.419 . S
C1027 C407 1.476 . S
C1029 C173 1.476 . S
C1045 C426 1.674 . S
C1047 C186 1.674 . S
C1063 C355 1.475 . S
C1065 C277 1.482 . S
C1081 C296 1.762 . S
C1083 C368 1.763 . S
C1099 C303 1.569 . S
C1101 C387 1.569 . S
C1117 C356 1.479 . S
C1119 C5 1.483 . S
C1135 C16 1.484 . S
C1137 C369 1.426 . S
C1153 C29 1.424 . S
C1155 C380 1.490 . S
C1171 C161 1.454 . S
C1173 C42 1.455 . S
C1189 C57 1.437 . S
C1191 C174 1.528 . S
C1207 C70 1.426 . S
C1209 C187 1.383 . S
C1225 C278 1.479 . S
C1227 C83 1.483 . S
C1243 C94 1.484 . S
C1245 C289 1.426 . S
C1261 C304 1.490 . S
C1263 C107 1.425 . S
C1279 C120 1.460 . S
C1281 C393 1.448 . S
C1297 C408 1.528 . S
C1299 C133 1.437 . S
C1315 C419 1.383 . S
C1317 C148 1.426 . S
C1333 C317 1.485 . S
C1335 C200 1.484 . S
C1351 C328 1.536 . S
C1353 C211 1.452 . S
C1369 C341 1.453 . S
C1371 C224 1.539 . S
C1387 C239 1.485 . S
C1389 C434 1.484 . S
C1405 C447 1.452 . S
C1407 C252 1.536 . S
C1423 C458 1.539 . S
C1425 C265 1.453 . S
C1441 C3 1.156 1_556 S
C1443 C213 1.162 . S
C1459 C18 1.192 1_556 S
C1461 C226 1.191 . S
C1477 C31 1.173 1_556 S
C1479 C198 1.166 . S
C1495 C343 1.180 . S
C1497 C44 1.175 . S
C1513 C315 1.176 . S
C1515 C55 1.182 . S
C1531 C330 1.188 . S
C1533 C68 1.188 . S
C1549 C445 1.162 . S
C1551 C81 1.156 1_554 S
C1567 C460 1.191 . S
C1569 C96 1.192 1_554 S
C1585 C432 1.166 . S
C1587 C109 1.173 1_554 S
C1603 C122 1.175 . S
C1605 C263 1.180 . S
C1621 C135 1.182 . S
C1623 C237 1.176 . S
C1639 C146 1.188 . S
C1641 C250 1.188 . S
C1657 C367 1.211 . S
C1659 C159 1.213 . S
C1675 C382 1.233 . S
C1677 C172 1.239 . S
C1693 C185 1.239 . S
C1695 C354 1.232 . S
C1711 C276 1.229 . S
C1713 C421 1.242 . S
C1729 C395 1.210 . S
C1731 C291 1.215 . S
C1747 C406 1.237 . S
C1749 C302 1.235 . S
