# Generated by pormake.
# Topology umb, (4)-cn, num edge types: 1
# Building blocks:
#     Node 0, Type 0, BuildingBlock: CEKHIL_clean_sbu_0, # of connection points: 4
#     Node 1, Type 0, BuildingBlock: CEKHIL_clean_sbu_0, # of connection points: 4
#     Node 2, Type 0, BuildingBlock: CEKHIL_clean_sbu_0, # of connection points: 4
#     Node 3, Type 0, BuildingBlock: CEKHIL_clean_sbu_0, # of connection points: 4
#     Node 4, Type 0, BuildingBlock: CEKHIL_clean_sbu_0, # of connection points: 4
#     Node 5, Type 0, BuildingBlock: CEKHIL_clean_sbu_0, # of connection points: 4
#     Node 6, Type 0, BuildingBlock: CEKHIL_clean_sbu_0, # of connection points: 4
#     Node 7, Type 0, BuildingBlock: CEKHIL_clean_sbu_0, # of connection points: 4
#     Node 8, Type 0, BuildingBlock: CEKHIL_clean_sbu_0, # of connection points: 4
#     Node 9, Type 0, BuildingBlock: CEKHIL_clean_sbu_0, # of connection points: 4
#     Node 10, Type 0, BuildingBlock: CEKHIL_clean_sbu_0, # of connection points: 4
#     Node 11, Type 0, BuildingBlock: CEKHIL_clean_sbu_0, # of connection points: 4
#     Edge 12, Type (0, 0), BuildingBlock: ZUJKAS_clean_linker_0, # of connection points: 2
#     Edge 13, Type (0, 0), BuildingBlock: ZUJKAS_clean_linker_0, # of connection points: 2
#     Edge 14, Type (0, 0), BuildingBlock: ZUJKAS_clean_linker_0, # of connection points: 2
#     Edge 15, Type (0, 0), BuildingBlock: ZUJKAS_clean_linker_0, # of connection points: 2
#     Edge 16, Type (0, 0), BuildingBlock: ZUJKAS_clean_linker_0, # of connection points: 2
#     Edge 17, Type (0, 0), BuildingBlock: ZUJKAS_clean_linker_0, # of connection points: 2
#     Edge 18, Type (0, 0), BuildingBlock: ZUJKAS_clean_linker_0, # of connection points: 2
#     Edge 19, Type (0, 0), BuildingBlock: ZUJKAS_clean_linker_0, # of connection points: 2
#     Edge 20, Type (0, 0), BuildingBlock: ZUJKAS_clean_linker_0, # of connection points: 2
#     Edge 21, Type (0, 0), BuildingBlock: ZUJKAS_clean_linker_0, # of connection points: 2
#     Edge 22, Type (0, 0), BuildingBlock: ZUJKAS_clean_linker_0, # of connection points: 2
#     Edge 23, Type (0, 0), BuildingBlock: ZUJKAS_clean_linker_0, # of connection points: 2
#     Edge 24, Type (0, 0), BuildingBlock: ZUJKAS_clean_linker_0, # of connection points: 2
#     Edge 25, Type (0, 0), BuildingBlock: ZUJKAS_clean_linker_0, # of connection points: 2
#     Edge 26, Type (0, 0), BuildingBlock: ZUJKAS_clean_linker_0, # of connection points: 2
#     Edge 27, Type (0, 0), BuildingBlock: ZUJKAS_clean_linker_0, # of connection points: 2
#     Edge 28, Type (0, 0), BuildingBlock: ZUJKAS_clean_linker_0, # of connection points: 2
#     Edge 29, Type (0, 0), BuildingBlock: ZUJKAS_clean_linker_0, # of connection points: 2
#     Edge 30, Type (0, 0), BuildingBlock: ZUJKAS_clean_linker_0, # of connection points: 2
#     Edge 31, Type (0, 0), BuildingBlock: ZUJKAS_clean_linker_0, # of connection points: 2
#     Edge 32, Type (0, 0), BuildingBlock: ZUJKAS_clean_linker_0, # of connection points: 2
#     Edge 33, Type (0, 0), BuildingBlock: ZUJKAS_clean_linker_0, # of connection points: 2
#     Edge 34, Type (0, 0), BuildingBlock: ZUJKAS_clean_linker_0, # of connection points: 2
#     Edge 35, Type (0, 0), BuildingBlock: ZUJKAS_clean_linker_0, # of connection points: 2
# Relax obj value: 0.272
# Max RMSD: 0.247
# Mean RMSD: 0.247
data_MOF--net-umb--node1-CEKHIL_clean_sbu_0--edge1-ZUJKAS_clean_linker_0
_symmetry_space_group_name_H-M    P1
_symmetry_Int_Tables_number       1
_symmetry_cell_setting            triclinic
loop_
_symmetry_equiv_pos_as_xyz
'x, y, z'
_cell_length_a     60.734307
_cell_length_b     60.714318
_cell_length_c     48.034234
_cell_angle_alpha  90.019152
_cell_angle_beta   89.934582
_cell_angle_gamma 120.02064
loop_
_atom_site_label
_atom_site_type_symbol
_atom_site_fract_x
_atom_site_fract_y
_atom_site_fract_z
_atom_type_partial_charge
Co0 Co 0.51935 0.16235 0.32343 0.0
O1 O 0.49487 0.12689 0.32869 0.0
O2 O 0.53623 0.14298 0.32122 0.0
C3 C 0.4977 0.17216 0.29249 0.0
O4 O 0.55015 0.19675 0.31615 0.0
Co5 Co 0.50901 0.20452 0.34287 0.0
O6 O 0.53968 0.2271 0.3206 0.0
C7 C 0.52605 0.18062 0.38435 0.0
C8 C 0.51407 0.12316 0.32571 0.0
C9 C 0.55538 0.21991 0.31381 0.0
O10 O 0.52664 0.16664 0.36464 0.0
O11 O 0.51854 0.1967 0.38048 0.0
O12 O 0.50968 0.16048 0.28478 0.0
O13 O 0.49615 0.17442 0.31926 0.0
Co14 Co 0.34888 0.51506 0.66175 0.0
O15 O 0.35646 0.48805 0.6667 0.0
O16 O 0.38489 0.52914 0.66257 0.0
C17 C 0.31938 0.49725 0.62802 0.0
O18 O 0.34935 0.54812 0.65548 0.0
Co19 Co 0.29717 0.50927 0.67641 0.0
O20 O 0.30972 0.54172 0.65586 0.0
C21 C 0.3347 0.52186 0.72127 0.0
C22 C 0.3802 0.50597 0.66587 0.0
C23 C 0.3335 0.55595 0.65181 0.0
O24 O 0.34948 0.52032 0.70321 0.0
O25 O 0.31231 0.51743 0.71515 0.0
O26 O 0.34348 0.508 0.6224 0.0
O27 O 0.31354 0.49448 0.65435 0.0
Co28 Co 0.83155 0.35356 0.99201 0.0
O29 O 0.8665 0.36219 0.99632 0.0
O30 O 0.8528 0.38963 0.98962 0.0
C31 C 0.81883 0.32207 0.96058 0.0
O32 O 0.79818 0.35253 0.98627 0.0
Co33 Co 0.78773 0.30227 0.01186 0.0
O34 O 0.76597 0.3126 0.99138 0.0
C35 C 0.81415 0.34287 0.05325 0.0
C36 C 0.87164 0.3856 0.99347 0.0
C37 C 0.7745 0.33583 0.98495 0.0
O38 O 0.82848 0.35688 0.03339 0.0
O39 O 0.79702 0.31958 0.04954 0.0
O40 O 0.83173 0.34575 0.95313 0.0
O41 O 0.81729 0.31788 0.98728 0.0
Co42 Co 0.47471 0.83395 0.32969 0.0
O43 O 0.50116 0.86871 0.33551 0.0
O44 O 0.45995 0.85525 0.33096 0.0
C45 C 0.49361 0.82351 0.29586 0.0
O46 O 0.4421 0.80103 0.32247 0.0
Co47 Co 0.48124 0.78813 0.34312 0.0
O48 O 0.44996 0.76876 0.32064 0.0
C49 C 0.46704 0.81144 0.38844 0.0
C50 C 0.48288 0.87402 0.33474 0.0
C51 C 0.43518 0.77774 0.31727 0.0
O52 O 0.46899 0.82839 0.37106 0.0
O53 O 0.47142 0.79356 0.38173 0.0
O54 O 0.48262 0.83665 0.29037 0.0
O55 O 0.49578 0.81986 0.32215 0.0
Co56 Co 0.63311 0.47235 0.65526 0.0
O57 O 0.62047 0.49564 0.65875 0.0
O58 O 0.5968 0.45375 0.65367 0.0
C59 C 0.6638 0.49371 0.62343 0.0
O60 O 0.63845 0.44241 0.6502 0.0
Co61 Co 0.68653 0.48641 0.67512 0.0
O62 O 0.67945 0.45433 0.65657 0.0
C63 C 0.64571 0.46905 0.71675 0.0
C64 C 0.59798 0.47555 0.65684 0.0
C65 C 0.65682 0.43775 0.64987 0.0
O66 O 0.63076 0.46682 0.69673 0.0
O67 O 0.66958 0.47789 0.71305 0.0
O68 O 0.6401 0.48031 0.6162 0.0
O69 O 0.668 0.49676 0.65011 0.0
Co70 Co 0.15778 0.63806 0.98879 0.0
O71 O 0.12305 0.62908 0.9959 0.0
O72 O 0.13649 0.60212 0.98511 0.0
C73 C 0.16886 0.67089 0.95949 0.0
O74 O 0.19088 0.63944 0.97976 0.0
Co75 Co 0.20248 0.68879 0.00923 0.0
O76 O 0.22364 0.67872 0.98706 0.0
C77 C 0.17683 0.64694 0.04943 0.0
C78 C 0.1178 0.60582 0.99134 0.0
C79 C 0.21467 0.65589 0.97874 0.0
O80 O 0.16263 0.63326 0.02936 0.0
O81 O 0.1934 0.67053 0.04639 0.0
O82 O 0.15569 0.64756 0.9509 0.0
O83 O 0.17191 0.67377 0.98631 0.0
Co84 Co 0.83106 0.47793 0.36864 0.0
O85 O 0.86653 0.50305 0.3658 0.0
O86 O 0.8509 0.46152 0.37124 0.0
C87 C 0.81963 0.49811 0.39984 0.0
O88 O 0.79656 0.4465 0.3731 0.0
Co89 Co 0.7898 0.48885 0.34756 0.0
O90 O 0.76601 0.45636 0.36619 0.0
C91 C 0.81538 0.47288 0.30696 0.0
C92 C 0.87063 0.48408 0.36849 0.0
C93 C 0.77311 0.44058 0.37292 0.0
O94 O 0.82882 0.47219 0.32719 0.0
O95 O 0.79911 0.48025 0.31017 0.0
O96 O 0.83091 0.48579 0.40758 0.0
O97 O 0.81848 0.50077 0.37308 0.0
Co98 Co 0.3537 0.83105 0.70055 0.0
O99 O 0.36378 0.86641 0.69573 0.0
O100 O 0.3899 0.85089 0.69956 0.0
C101 C 0.32453 0.82124 0.7344 0.0
O102 O 0.35167 0.79724 0.70668 0.0
Co103 Co 0.30056 0.7872 0.68611 0.0
O104 O 0.31133 0.76537 0.70562 0.0
C105 C 0.33815 0.81086 0.64095 0.0
C106 C 0.38696 0.87049 0.6964 0.0
C107 C 0.33489 0.77375 0.70982 0.0
O108 O 0.35376 0.82633 0.65905 0.0
O109 O 0.31534 0.79386 0.64716 0.0
O110 O 0.34868 0.83322 0.73994 0.0
O111 O 0.31866 0.8183 0.70809 0.0
Co112 Co 0.52058 0.35955 0.03758 0.0
O113 O 0.49597 0.37053 0.03379 0.0
O114 O 0.53767 0.39586 0.03861 0.0
C115 C 0.50034 0.32896 0.06985 0.0
O116 O 0.55165 0.35615 0.04293 0.0
Co117 Co 0.50937 0.30665 0.01889 0.0
O118 O 0.54159 0.31546 0.03824 0.0
C119 C 0.52462 0.34658 0.97643 0.0
C120 C 0.51537 0.3935 0.03545 0.0
C121 C 0.55738 0.33853 0.04425 0.0
O122 O 0.52597 0.36153 0.99608 0.0
O123 O 0.51715 0.32303 0.98068 0.0
O124 O 0.51284 0.35282 0.07673 0.0
O125 O 0.49748 0.32435 0.04324 0.0
Co126 Co 0.15799 0.51722 0.36674 0.0
O127 O 0.12216 0.49289 0.36678 0.0
O128 O 0.13932 0.53489 0.36831 0.0
C129 C 0.17051 0.49916 0.39918 0.0
O130 O 0.19302 0.54815 0.36815 0.0
Co131 Co 0.1975 0.5036 0.34625 0.0
O132 O 0.22266 0.53687 0.3625 0.0
C133 C 0.17103 0.51763 0.30478 0.0
C134 C 0.11902 0.51256 0.3679 0.0
C135 C 0.21626 0.55342 0.368 0.0
O136 O 0.15828 0.51972 0.32493 0.0
O137 O 0.18725 0.51029 0.30849 0.0
O138 O 0.16018 0.51259 0.40615 0.0
O139 O 0.16979 0.49392 0.37282 0.0
Co140 Co 0.63816 0.15944 0.69814 0.0
O141 O 0.62848 0.12411 0.69491 0.0
O142 O 0.60192 0.13921 0.69743 0.0
C143 C 0.66735 0.17089 0.73219 0.0
O144 O 0.64009 0.19339 0.70255 0.0
Co145 Co 0.69117 0.20246 0.68213 0.0
O146 O 0.68073 0.22464 0.70148 0.0
C147 C 0.65304 0.17794 0.63781 0.0
C148 C 0.60519 0.11972 0.69524 0.0
C149 C 0.65723 0.21679 0.70546 0.0
O150 O 0.63783 0.16273 0.65641 0.0
O151 O 0.67588 0.19518 0.64346 0.0
O152 O 0.6432 0.15886 0.73773 0.0
O153 O 0.67326 0.17253 0.70591 0.0
Co154 Co 0.46934 0.6393 0.03403 0.0
O155 O 0.49628 0.63162 0.02907 0.0
O156 O 0.45532 0.60326 0.0344 0.0
C157 C 0.48794 0.66984 0.06668 0.0
O158 O 0.43637 0.63904 0.0404 0.0
Co159 Co 0.47519 0.69079 0.01752 0.0
O160 O 0.44256 0.67855 0.03757 0.0
C161 C 0.46225 0.65204 0.97392 0.0
C162 C 0.47843 0.6079 0.03072 0.0
C163 C 0.42843 0.65494 0.04271 0.0
O164 O 0.46338 0.63754 0.99264 0.0
O165 O 0.46722 0.67477 0.97917 0.0
O166 O 0.47728 0.64593 0.07317 0.0
O167 O 0.48997 0.67483 0.04016 0.0
H168 H 0.53766 0.21263 0.4296 0.0
H169 H 0.55996 0.21285 0.47227 0.0
H170 H 0.56082 0.14584 0.44428 0.0
H171 H 0.53893 0.14558 0.40167 0.0
H172 H 0.54875 0.1778 0.51457 0.0
H173 H 0.63588 0.19495 0.45899 0.0
H174 H 0.61115 0.19842 0.44238 0.0
H175 H 0.60769 0.16739 0.4466 0.0
C176 C 0.54235 0.19778 0.43263 0.0
C177 C 0.53661 0.17922 0.41194 0.0
C178 C 0.55521 0.19799 0.45702 0.0
C179 C 0.56269 0.17974 0.46122 0.0
C180 C 0.55594 0.16055 0.44123 0.0
H181 H 0.60817 0.14035 0.61611 0.0
H182 H 0.5873 0.14143 0.57317 0.0
C183 C 0.54318 0.16034 0.41689 0.0
C184 C 0.57762 0.1807 0.48635 0.0
H185 H 0.63286 0.18333 0.50686 0.0
C186 C 0.56719 0.17914 0.51287 0.0
C187 C 0.60193 0.1829 0.48426 0.0
C188 C 0.61497 0.18628 0.45655 0.0
C189 C 0.57999 0.17894 0.53722 0.0
C190 C 0.60374 0.17987 0.53506 0.0
C191 C 0.61453 0.18223 0.50858 0.0
C192 C 0.61756 0.17837 0.56004 0.0
C193 C 0.56807 0.17808 0.56508 0.0
C194 C 0.64224 0.19812 0.56634 0.0
C195 C 0.65449 0.19743 0.59085 0.0
C196 C 0.64231 0.17692 0.60958 0.0
C197 C 0.61812 0.15659 0.6024 0.0
C198 C 0.60599 0.15726 0.57791 0.0
H199 H 0.55414 0.1848 0.56355 0.0
H200 H 0.55778 0.15815 0.57269 0.0
H201 H 0.58273 0.1899 0.5807 0.0
H202 H 0.6517 0.21451 0.55276 0.0
H203 H 0.67302 0.21347 0.59566 0.0
H204 H 0.31519 0.53861 0.76276 0.0
H205 H 0.33667 0.56136 0.80544 0.0
H206 H 0.40036 0.55127 0.78599 0.0
H207 H 0.3793 0.52881 0.74336 0.0
H208 H 0.35556 0.54855 0.8519 0.0
H209 H 0.43388 0.62845 0.79423 0.0
H210 H 0.40497 0.60498 0.77749 0.0
H211 H 0.42977 0.59793 0.78517 0.0
C212 C 0.33359 0.54087 0.76774 0.0
C213 C 0.34552 0.53197 0.74937 0.0
C214 C 0.34592 0.55402 0.79212 0.0
C215 C 0.37044 0.55863 0.79859 0.0
C216 C 0.38177 0.54859 0.7811 0.0
H217 H 0.45188 0.60534 0.9547 0.0
H218 H 0.42982 0.58394 0.91205 0.0
C219 C 0.36953 0.53552 0.75677 0.0
C220 C 0.38439 0.57416 0.82339 0.0
H221 H 0.4395 0.62732 0.84322 0.0
C222 C 0.37384 0.56583 0.84997 0.0
C223 C 0.40809 0.597 0.82093 0.0
C224 C 0.41977 0.6078 0.79291 0.0
C225 C 0.38669 0.57922 0.87412 0.0
C226 C 0.41092 0.60138 0.87172 0.0
C227 C 0.4211 0.61018 0.84511 0.0
C228 C 0.42608 0.61537 0.89666 0.0
C229 C 0.3741 0.56961 0.90206 0.0
C230 C 0.43244 0.64069 0.90169 0.0
C231 C 0.44528 0.65318 0.92616 0.0
C232 C 0.45216 0.64062 0.94601 0.0
C233 C 0.4468 0.61566 0.94011 0.0
C234 C 0.43397 0.60325 0.91576 0.0
H235 H 0.35324 0.55676 0.89998 0.0
H236 H 0.38214 0.55873 0.91211 0.0
H237 H 0.3776 0.58564 0.91598 0.0
H238 H 0.42676 0.65052 0.88711 0.0
H239 H 0.44901 0.67233 0.92993 0.0
H240 H 0.79368 0.47292 0.25627 0.0
H241 H 0.79428 0.45147 0.21321 0.0
H242 H 0.8405 0.42541 0.25354 0.0
H243 H 0.84099 0.44753 0.29584 0.0
H244 H 0.85726 0.43922 0.20392 0.0
H245 H 0.75276 0.37757 0.19625 0.0
H246 H 0.76258 0.41076 0.19555 0.0
H247 H 0.7679 0.39711 0.22632 0.0
C248 C 0.80418 0.46284 0.25586 0.0
C249 C 0.81725 0.46204 0.2797 0.0
C250 C 0.80424 0.45026 0.23128 0.0
C251 C 0.81689 0.43615 0.23016 0.0
C252 C 0.83047 0.43597 0.25371 0.0
H253 H 0.78957 0.32111 0.10281 0.0
H254 H 0.79104 0.34302 0.14632 0.0
C255 C 0.83074 0.44877 0.27802 0.0
C256 C 0.81644 0.42174 0.20463 0.0
H257 H 0.77701 0.37683 0.15771 0.0
C258 C 0.83965 0.42553 0.19393 0.0
C259 C 0.79352 0.40336 0.19174 0.0
C260 C 0.76778 0.39672 0.20321 0.0
C261 C 0.84064 0.41183 0.17079 0.0
C262 C 0.81782 0.39439 0.15707 0.0
C263 C 0.79456 0.39031 0.16795 0.0
C264 C 0.81773 0.38073 0.13107 0.0
C265 C 0.86621 0.41579 0.16185 0.0
C266 C 0.83217 0.39445 0.10789 0.0
C267 C 0.83172 0.38196 0.08325 0.0
C268 C 0.81634 0.35535 0.08074 0.0
C269 C 0.80179 0.34155 0.10396 0.0
C270 C 0.80251 0.35411 0.12884 0.0
H271 H 0.87983 0.42226 0.17952 0.0
H272 H 0.86462 0.39808 0.15322 0.0
H273 H 0.87432 0.43078 0.1456 0.0
H274 H 0.84346 0.415 0.10858 0.0
H275 H 0.84294 0.39342 0.06583 0.0
H276 H 0.43739 0.77046 0.42172 0.0
H277 H 0.41402 0.7698 0.46362 0.0
H278 H 0.4499 0.85161 0.46071 0.0
H279 H 0.47222 0.85221 0.41807 0.0
H280 H 0.42494 0.7876 0.51412 0.0
H281 H 0.37804 0.83492 0.46304 0.0
H282 H 0.39657 0.82441 0.44376 0.0
H283 H 0.41196 0.8544 0.46196 0.0
C284 C 0.44055 0.78833 0.43024 0.0
C285 C 0.45658 0.81138 0.41646 0.0
C286 C 0.42704 0.78793 0.45414 0.0
C287 C 0.42946 0.81058 0.46497 0.0
C288 C 0.44681 0.83375 0.45225 0.0
H289 H 0.38084 0.84949 0.61674 0.0
H290 H 0.40108 0.84832 0.57316 0.0
C291 C 0.45988 0.83412 0.42805 0.0
C292 C 0.41377 0.80995 0.48933 0.0
H293 H 0.37437 0.83129 0.51261 0.0
C294 C 0.41372 0.79696 0.51361 0.0
C295 C 0.39876 0.8219 0.48878 0.0
C296 C 0.39609 0.83444 0.46288 0.0
C297 C 0.39982 0.79629 0.5374 0.0
C298 C 0.38569 0.80902 0.53707 0.0
C299 C 0.38536 0.82167 0.51282 0.0
C300 C 0.372 0.81018 0.5622 0.0
C301 C 0.40063 0.78238 0.56304 0.0
C302 C 0.34852 0.78934 0.57011 0.0
C303 C 0.33666 0.79001 0.59495 0.0
C304 C 0.34824 0.81147 0.61248 0.0
C305 C 0.37135 0.83263 0.60386 0.0
C306 C 0.38301 0.83201 0.57895 0.0
H307 H 0.4138 0.77479 0.56062 0.0
H308 H 0.40667 0.79532 0.58131 0.0
H309 H 0.38128 0.76628 0.56748 0.0
H310 H 0.33967 0.77234 0.55738 0.0
H311 H 0.31902 0.77332 0.601 0.0
H312 H 0.54566 0.3966 0.96169 0.0
H313 H 0.56557 0.41673 0.91793 0.0
H314 H 0.54609 0.34369 0.88328 0.0
H315 H 0.52668 0.32321 0.92777 0.0
H316 H 0.59418 0.37832 0.87064 0.0
H317 H 0.53363 0.4199 0.84675 0.0
H318 H 0.54814 0.42978 0.88032 0.0
H319 H 0.52577 0.39667 0.87394 0.0
C320 C 0.54522 0.38459 0.94477 0.0
C321 C 0.53428 0.3581 0.94841 0.0
C322 C 0.55659 0.39624 0.91955 0.0
C323 C 0.55699 0.38179 0.89696 0.0
C324 C 0.54593 0.3553 0.90032 0.0
H325 H 0.59508 0.44166 0.72912 0.0
H326 H 0.57498 0.42072 0.77248 0.0
C327 C 0.53468 0.34357 0.92575 0.0
C328 C 0.56979 0.3946 0.87034 0.0
H329 H 0.57259 0.43674 0.82132 0.0
C330 C 0.58931 0.39094 0.85972 0.0
C331 C 0.56336 0.4109 0.85579 0.0
C332 C 0.5414 0.41434 0.86462 0.0
C333 C 0.60274 0.40334 0.83533 0.0
C334 C 0.59708 0.42055 0.82152 0.0
C335 C 0.57733 0.42393 0.832 0.0
C336 C 0.61013 0.43407 0.79524 0.0
C337 C 0.62238 0.39727 0.82429 0.0
C338 C 0.6368 0.44915 0.79336 0.0
C339 C 0.64856 0.46107 0.76817 0.0
C340 C 0.63388 0.45857 0.74445 0.0
C341 C 0.60718 0.4442 0.74681 0.0
C342 C 0.59554 0.43209 0.77174 0.0
H343 H 0.61925 0.37877 0.83234 0.0
H344 H 0.62213 0.39658 0.80119 0.0
H345 H 0.64154 0.41226 0.83111 0.0
H346 H 0.64857 0.4517 0.81134 0.0
H347 H 0.66912 0.47204 0.76723 0.0
H348 H 0.14422 0.5413 0.2914 0.0
H349 H 0.14466 0.56195 0.24798 0.0
H350 H 0.19275 0.53654 0.21082 0.0
H351 H 0.19329 0.51649 0.25496 0.0
H352 H 0.21025 0.58501 0.19886 0.0
H353 H 0.1071 0.53369 0.17741 0.0
H354 H 0.11372 0.54831 0.21108 0.0
H355 H 0.12094 0.52344 0.20399 0.0
C356 C 0.15461 0.53963 0.27396 0.0
C357 C 0.16861 0.52696 0.27682 0.0
C358 C 0.15472 0.55144 0.24894 0.0
C359 C 0.16834 0.5505 0.22578 0.0
C360 C 0.18197 0.53747 0.22831 0.0
H361 H 0.14973 0.59595 0.0602 0.0
H362 H 0.14883 0.57369 0.10257 0.0
C363 C 0.18213 0.52585 0.25354 0.0
C364 C 0.1693 0.56423 0.19956 0.0
H365 H 0.13199 0.57253 0.15235 0.0
C366 C 0.19312 0.5821 0.18855 0.0
C367 C 0.14701 0.56036 0.1858 0.0
C368 C 0.12078 0.54021 0.19502 0.0
C369 C 0.19525 0.59639 0.16456 0.0
C370 C 0.17295 0.59338 0.1516 0.0
C371 C 0.14915 0.57525 0.16241 0.0
C372 C 0.17366 0.60768 0.12594 0.0
C373 C 0.22142 0.61407 0.15299 0.0
C374 C 0.18759 0.63445 0.1248 0.0
C375 C 0.18842 0.64741 0.10023 0.0
C376 C 0.17492 0.63389 0.07641 0.0
C377 C 0.16036 0.60715 0.07801 0.0
C378 C 0.15982 0.59428 0.10235 0.0
H379 H 0.2355 0.60873 0.1602 0.0
H380 H 0.2213 0.61405 0.12988 0.0
H381 H 0.22789 0.63371 0.1603 0.0
H382 H 0.19785 0.64536 0.14291 0.0
H383 H 0.19971 0.66797 0.09986 0.0
H384 H 0.72169 0.42016 0.37727 0.0
H385 H 0.68977 0.3766 0.36531 0.0
H386 H 0.74806 0.3561 0.35945 0.0
H387 H 0.78028 0.39957 0.37155 0.0
H388 H 0.70414 0.35876 0.30795 0.0
H389 H 0.67868 0.29529 0.40069 0.0
H390 H 0.68696 0.32811 0.40499 0.0
H391 H 0.71089 0.3207 0.39481 0.0
C392 C 0.72768 0.40624 0.37438 0.0
C393 C 0.75356 0.41345 0.37477 0.0
C394 C 0.70943 0.38141 0.36753 0.0
C395 C 0.71681 0.36351 0.36121 0.0
C396 C 0.7422 0.36984 0.36429 0.0
H397 H 0.59691 0.21373 0.31083 0.0
H398 H 0.64122 0.24741 0.31445 0.0
C399 C 0.76051 0.39468 0.37128 0.0
C400 C 0.69855 0.33977 0.3474 0.0
H401 H 0.65292 0.27875 0.36076 0.0
C402 C 0.6932 0.34104 0.31925 0.0
C403 C 0.68487 0.31681 0.36221 0.0
C404 C 0.69051 0.31487 0.39237 0.0
C405 C 0.6731 0.3202 0.30593 0.0
C406 C 0.65797 0.29785 0.3214 0.0
C407 C 0.66463 0.29598 0.34896 0.0
C408 C 0.6329 0.27803 0.3114 0.0
C409 C 0.66757 0.32262 0.27584 0.0
C410 C 0.6138 0.28425 0.3072 0.0
C411 C 0.58846 0.26512 0.30529 0.0
C412 C 0.58188 0.2395 0.30777 0.0
C413 C 0.60132 0.23331 0.3091 0.0
C414 C 0.62667 0.2525 0.31116 0.0
H415 H 0.68516 0.33638 0.26463 0.0
H416 H 0.65896 0.30398 0.26501 0.0
H417 H 0.65402 0.32983 0.27479 0.0
H418 H 0.61823 0.30389 0.30772 0.0
H419 H 0.57395 0.27049 0.30397 0.0
H420 H 0.30636 0.7227 0.72039 0.0
H421 H 0.31987 0.6914 0.71316 0.0
H422 H 0.39675 0.75166 0.69856 0.0
H423 H 0.3837 0.78318 0.70618 0.0
H424 H 0.36793 0.71502 0.65202 0.0
H425 H 0.36932 0.66938 0.75176 0.0
H426 H 0.34328 0.67529 0.74757 0.0
H427 H 0.37518 0.70165 0.74977 0.0
C428 C 0.32631 0.72934 0.71661 0.0
C429 C 0.34383 0.75538 0.71331 0.0
C430 C 0.334 0.71146 0.7126 0.0
C431 C 0.35924 0.7194 0.70525 0.0
C432 C 0.37723 0.74533 0.70433 0.0
H433 H 0.38248 0.59398 0.65915 0.0
H434 H 0.39647 0.63879 0.6668 0.0
C435 C 0.36965 0.76326 0.70868 0.0
C436 C 0.36537 0.70073 0.6937 0.0
H437 H 0.3641 0.64562 0.71 0.0
C438 C 0.36781 0.70017 0.66468 0.0
C439 C 0.36526 0.68161 0.71039 0.0
C440 C 0.36333 0.682 0.74166 0.0
C441 C 0.36808 0.67966 0.6517 0.0
C442 C 0.36602 0.65959 0.66828 0.0
C443 C 0.36567 0.66119 0.69742 0.0
C444 C 0.36023 0.63509 0.65615 0.0
C445 C 0.36918 0.67884 0.62039 0.0
C446 C 0.33552 0.61863 0.64651 0.0
C447 C 0.32726 0.59292 0.64252 0.0
C448 C 0.34371 0.58346 0.64808 0.0
C449 C 0.36927 0.60062 0.65484 0.0
C450 C 0.37738 0.62625 0.65921 0.0
H451 H 0.37646 0.69799 0.61103 0.0
H452 H 0.38146 0.67107 0.6137 0.0
H453 H 0.34975 0.66609 0.61221 0.0
H454 H 0.32202 0.62524 0.64429 0.0
H455 H 0.30756 0.5802 0.63704 0.0
H456 H 0.57752 0.30763 0.05268 0.0
H457 H 0.62191 0.3194 0.04592 0.0
H458 H 0.64255 0.39802 0.03614 0.0
H459 H 0.59832 0.38662 0.04318 0.0
H460 H 0.65094 0.37255 0.98838 0.0
H461 H 0.69196 0.36187 0.08722 0.0
H462 H 0.65998 0.33686 0.08045 0.0
H463 H 0.66621 0.36872 0.08619 0.0
C464 C 0.5916 0.32754 0.05004 0.0
C465 C 0.58434 0.3461 0.04796 0.0
C466 C 0.61695 0.33424 0.04632 0.0
C467 C 0.63529 0.35953 0.04049 0.0
C468 C 0.62854 0.37843 0.04073 0.0
H469 H 0.78385 0.38455 0.98924 0.0
H470 H 0.75211 0.39714 0.99809 0.0
C471 C 0.60325 0.37181 0.04477 0.0
C472 C 0.66009 0.36509 0.02941 0.0
H473 H 0.71095 0.35818 0.04478 0.0
C474 C 0.66449 0.37013 1.00079 0.0
C475 C 0.67754 0.36191 0.04576 0.0
C476 C 0.67387 0.35725 0.07669 0.0
C477 C 0.68506 0.37008 0.98767 0.0
C478 C 0.70142 0.36507 1.00372 0.0
C479 C 0.69813 0.36194 0.03264 0.0
C480 C 0.72005 0.35964 0.99081 0.0
C481 C 0.68849 0.37392 0.95663 0.0
C482 C 0.71223 0.33465 0.98259 0.0
C483 C 0.73022 0.32723 0.97788 0.0
C484 C 0.7562 0.3448 0.98132 0.0
C485 C 0.76396 0.37051 0.98654 0.0
C486 C 0.74592 0.37781 0.99162 0.0
H487 H 0.67634 0.38104 0.94772 0.0
H488 H 0.70871 0.38759 0.95163 0.0
H489 H 0.68346 0.35554 0.94653 0.0
H490 H 0.6922 0.32044 0.982 0.0
H491 H 0.72371 0.30738 0.9736 0.0
H492 H 0.41328 0.72929 0.297 0.0
H493 H 0.3689 0.69625 0.30351 0.0
H494 H 0.3514 0.75204 0.33559 0.0
H495 H 0.39552 0.78533 0.32873 0.0
H496 H 0.35039 0.70717 0.37267 0.0
H497 H 0.29194 0.68093 0.27613 0.0
H498 H 0.32477 0.68908 0.27294 0.0
H499 H 0.31729 0.71302 0.28301 0.0
C500 C 0.39979 0.73469 0.30442 0.0
C501 C 0.40794 0.75975 0.3129 0.0
C502 C 0.37448 0.71585 0.308 0.0
C503 C 0.35718 0.7219 0.32014 0.0
C504 C 0.36462 0.74722 0.32605 0.0
H505 H 0.20995 0.59487 0.3696 0.0
H506 H 0.24286 0.6392 0.36318 0.0
C507 C 0.38984 0.76616 0.3221 0.0
C508 C 0.33353 0.70134 0.33193 0.0
H509 H 0.276 0.65147 0.31374 0.0
C510 C 0.33382 0.69524 0.36003 0.0
C511 C 0.3122 0.68611 0.31525 0.0
C512 C 0.31126 0.69255 0.28514 0.0
C513 C 0.31374 0.67314 0.37152 0.0
C514 C 0.29308 0.657 0.35436 0.0
C515 C 0.29203 0.66401 0.32675 0.0
C516 C 0.27388 0.63139 0.36347 0.0
C517 C 0.31519 0.66662 0.40151 0.0
C518 C 0.28073 0.61264 0.36654 0.0
C519 C 0.26203 0.58725 0.36997 0.0
C520 C 0.23623 0.58034 0.37032 0.0
C521 C 0.22965 0.59952 0.36928 0.0
C522 C 0.24836 0.62486 0.36559 0.0
H523 H 0.32874 0.68367 0.4136 0.0
H524 H 0.29618 0.65791 0.41156 0.0
H525 H 0.32183 0.65261 0.40235 0.0
H526 H 0.30043 0.61746 0.36467 0.0
H527 H 0.26772 0.57297 0.37087 0.0
H528 H 0.60959 0.39577 0.64448 0.0
H529 H 0.59867 0.35176 0.65269 0.0
H530 H 0.67827 0.37504 0.6567 0.0
H531 H 0.68959 0.41918 0.64876 0.0
H532 H 0.63208 0.32075 0.62644 0.0
H533 H 0.62739 0.34414 0.73788 0.0
H534 H 0.6155 0.3556 0.71034 0.0
H535 H 0.64908 0.36881 0.71457 0.0
C536 C 0.62485 0.39151 0.64625 0.0
C537 C 0.65051 0.41107 0.64661 0.0
C538 C 0.6185 0.36635 0.65094 0.0
C539 C 0.63771 0.36052 0.65563 0.0
C540 C 0.66328 0.37947 0.65319 0.0
H541 H 0.68687 0.26766 0.71582 0.0
H542 H 0.67481 0.29994 0.70801 0.0
C543 C 0.66969 0.40464 0.64867 0.0
C544 C 0.63159 0.33568 0.66687 0.0
H545 H 0.62964 0.30713 0.72865 0.0
C546 C 0.6308 0.31731 0.6487 0.0
C547 C 0.62997 0.3316 0.69594 0.0
C548 C 0.63044 0.35097 0.71599 0.0
C549 C 0.63002 0.2954 0.65908 0.0
C550 C 0.63016 0.29215 0.68823 0.0
C551 C 0.62942 0.30981 0.70634 0.0
C552 C 0.63527 0.27281 0.6998 0.0
C553 C 0.63086 0.27671 0.63897 0.0
C554 C 0.61659 0.24709 0.69927 0.0
C555 C 0.62337 0.22858 0.70383 0.0
C556 C 0.64898 0.23572 0.70858 0.0
C557 C 0.66709 0.26159 0.71181 0.0
C558 C 0.66023 0.28003 0.70746 0.0
H559 H 0.63165 0.2826 0.61693 0.0
H560 H 0.64774 0.27472 0.6433 0.0
H561 H 0.61369 0.25772 0.64181 0.0
H562 H 0.59721 0.24135 0.6935 0.0
H563 H 0.60889 0.20879 0.70144 0.0
H564 H 0.20387 0.60651 0.97549 0.0
H565 H 0.23419 0.59189 0.98325 0.0
H566 H 0.29613 0.66922 0.97846 0.0
H567 H 0.26609 0.6842 0.97096 0.0
H568 H 0.30314 0.62444 0.95594 0.0
H569 H 0.26828 0.61847 0.06486 0.0
H570 H 0.2459 0.60337 0.0369 0.0
H571 H 0.26379 0.63739 0.03896 0.0
C572 C 0.22399 0.62038 0.975 0.0
C573 C 0.23259 0.64664 0.97341 0.0
C574 C 0.24123 0.61192 0.97946 0.0
C575 C 0.26717 0.62957 0.9819 0.0
C576 C 0.27605 0.6554 0.97675 0.0
H577 H 0.4038 0.6815 0.05246 0.0
H578 H 0.35923 0.66667 0.04206 0.0
C579 C 0.25886 0.66392 0.97253 0.0
C580 C 0.28456 0.62235 0.99476 0.0
H581 H 0.30709 0.61944 0.05887 0.0
C582 C 0.30364 0.62245 0.97833 0.0
C583 C 0.28499 0.61994 0.02402 0.0
C584 C 0.26473 0.61979 0.0424 0.0
C585 C 0.32426 0.62194 0.99067 0.0
C586 C 0.32566 0.62151 0.02005 0.0
C587 C 0.3057 0.61963 0.03636 0.0
C588 C 0.34972 0.62787 0.03375 0.0
C589 C 0.34544 0.62395 0.97242 0.0
C590 C 0.35839 0.61044 0.03424 0.0
C591 C 0.38382 0.61881 0.04035 0.0
C592 C 0.40083 0.64477 0.0456 0.0
C593 C 0.39127 0.66149 0.04812 0.0
C594 C 0.36582 0.65305 0.04224 0.0
H595 H 0.34164 0.62474 0.94993 0.0
H596 H 0.36361 0.64129 0.9779 0.0
H597 H 0.34795 0.60728 0.97602 0.0
H598 H 0.34603 0.5909 0.02787 0.0
H599 H 0.39052 0.60535 0.03847 0.0
H600 H 0.5512 0.11079 0.321 0.0
H601 H 0.54658 0.06854 0.3242 0.0
H602 H 0.46609 0.03579 0.3387 0.0
H603 H 0.47045 0.07806 0.33527 0.0
H604 H 0.52678 0.0334 0.36955 0.0
H605 H 0.47121 0.99533 0.27199 0.0
H606 H 0.48889 0.02892 0.27977 0.0
H607 H 0.45864 0.00893 0.29607 0.0
C608 C 0.53249 0.0946 0.32479 0.0
C609 C 0.51113 0.09765 0.32771 0.0
C610 C 0.52993 0.07054 0.32668 0.0
C611 C 0.50599 0.04917 0.33138 0.0
C612 C 0.48466 0.05212 0.33465 0.0
H613 H 0.44772 0.88852 0.34225 0.0
H614 H 0.45475 0.93171 0.34353 0.0
C615 C 0.48719 0.07622 0.33276 0.0
C616 C 0.50341 0.02377 0.33286 0.0
H617 H 0.47598 0.96619 0.30043 0.0
C618 C 0.51575 0.01866 0.35445 0.0
C619 C 0.48911 0.00481 0.31296 0.0
C620 C 0.47636 0.00974 0.28872 0.0
C621 C 0.51361 0.99467 0.35709 0.0
C622 C 0.49911 0.97564 0.33732 0.0
C623 C 0.48701 0.98088 0.31558 0.0
C624 C 0.4956 0.94983 0.33899 0.0
C625 C 0.52633 0.98971 0.38132 0.0
C626 C 0.51635 0.94583 0.33628 0.0
C627 C 0.51241 0.9211 0.33571 0.0
C628 C 0.48764 0.90016 0.33746 0.0
C629 C 0.46701 0.90431 0.34069 0.0
C630 C 0.47097 0.92894 0.34146 0.0
H631 H 0.5315 0.00413 0.39804 0.0
H632 H 0.51378 0.97053 0.39027 0.0
H633 H 0.54404 0.9905 0.37397 0.0
H634 H 0.53545 0.96177 0.33383 0.0
H635 H 0.52861 0.91839 0.33307 0.0
H636 H 0.37705 0.45948 0.66933 0.0
H637 H 0.41257 0.45111 0.6717 0.0
H638 H 0.4658 0.53178 0.66989 0.0
H639 H 0.43069 0.54033 0.66775 0.0
H640 H 0.45208 0.46746 0.63119 0.0
H641 H 0.49002 0.50617 0.73599 0.0
H642 H 0.4583 0.49783 0.72516 0.0
H643 H 0.48518 0.52748 0.71435 0.0
C644 C 0.39633 0.4754 0.66972 0.0
C645 C 0.40114 0.50054 0.66837 0.0
C646 C 0.41652 0.47059 0.67108 0.0
C647 C 0.44167 0.49087 0.67141 0.0
C648 C 0.44647 0.51593 0.67026 0.0
H649 H 0.59406 0.51836 0.66003 0.0
H650 H 0.55496 0.52051 0.66384 0.0
C651 C 0.42638 0.52075 0.66883 0.0
C652 C 0.46314 0.48607 0.67105 0.0
H653 H 0.51742 0.49954 0.70567 0.0
C654 C 0.46622 0.47411 0.64762 0.0
C655 C 0.48149 0.49497 0.69249 0.0
C656 C 0.47852 0.50713 0.71855 0.0
C657 C 0.48785 0.47171 0.64451 0.0
C658 C 0.5065 0.48111 0.66569 0.0
C659 C 0.50308 0.4925 0.68944 0.0
C660 C 0.52993 0.47969 0.66337 0.0
C661 C 0.49103 0.46002 0.61815 0.0
C662 C 0.52864 0.45602 0.66213 0.0
C663 C 0.55083 0.45474 0.65977 0.0
C664 C 0.57466 0.47713 0.65892 0.0
C665 C 0.57593 0.50082 0.66054 0.0
C666 C 0.55368 0.50208 0.66277 0.0
H667 H 0.47822 0.45946 0.60132 0.0
H668 H 0.51096 0.47076 0.61054 0.0
H669 H 0.48636 0.4402 0.62248 0.0
H670 H 0.51047 0.43855 0.66315 0.0
H671 H 0.54929 0.4362 0.65884 0.0
H672 H 0.90816 0.39185 0.03042 0.0
H673 H 0.94984 0.43017 0.0368 0.0
H674 H 0.93526 0.46482 0.96595 0.0
H675 H 0.89302 0.42745 0.96105 0.0
H676 H 0.9901 0.45281 0.00847 0.0
H677 H 0.9555 0.52061 0.01943 0.0
H678 H 0.93409 0.48671 0.01914 0.0
H679 H 0.94461 0.50433 0.98692 0.0
C680 C 0.91402 0.40775 0.0163 0.0
C681 C 0.89758 0.40705 0.99542 0.0
C682 C 0.9377 0.4296 0.01998 0.0
C683 C 0.94534 0.45073 1.00242 0.0
C684 C 0.92934 0.44928 0.98056 0.0
H685 H 0.09713 0.56217 0.96181 0.0
H686 H 0.05508 0.52483 0.96774 0.0
C687 C 0.90541 0.42784 0.97749 0.0
C688 C 0.97035 0.47402 1.0062 0.0
H689 H -0.00056 0.53873 1.00467 0.0
C690 C 0.99209 0.47159 0.00814 0.0
C691 C 0.97302 0.49856 1.00678 0.0
C692 C 0.95048 0.50265 0.00832 0.0
C693 C 0.01646 0.49303 0.00894 0.0
C694 C 0.01917 0.5175 1.00622 0.0
C695 C -0.00258 0.51997 1.00602 0.0
C696 C 0.04428 0.54058 1.00215 0.0
C697 C 0.03893 0.48912 0.0128 0.0
C698 C 0.05152 0.5625 0.01823 0.0
C699 C 0.07518 0.58427 0.01403 0.0
C700 C 0.09198 0.58416 0.99405 0.0
C701 C 0.08453 0.5625 0.9776 0.0
C702 C 0.06068 0.54107 0.98124 0.0
H703 H 0.03356 0.4717 0.02522 0.0
H704 H 0.0455 0.48648 0.99215 0.0
H705 H 0.05496 0.50556 0.0234 0.0
H706 H 0.03904 0.56265 0.03427 0.0
H707 H 0.08068 0.60082 0.02701 0.0
H708 H 0.10749 0.55047 0.36685 0.0
H709 H 0.06526 0.54612 0.36768 0.0
H710 H 0.03092 0.46446 0.37067 0.0
H711 H 0.07315 0.46858 0.36998 0.0
H712 H 0.02477 0.51809 0.32842 0.0
H713 H -0.00096 0.48298 0.43717 0.0
H714 H 0.03144 0.49892 0.42463 0.0
H715 H 0.01018 0.4662 0.41583 0.0
C716 C 0.09097 0.53157 0.36779 0.0
C717 C 0.09357 0.50984 0.36846 0.0
C718 C 0.06692 0.52916 0.36823 0.0
C719 C 0.04516 0.50502 0.36956 0.0
C720 C 0.04762 0.48326 0.37007 0.0
H721 H 0.88406 0.44764 0.37218 0.0
H722 H 0.92695 0.45369 0.37186 0.0
C723 C 0.07169 0.48565 0.36955 0.0
C724 C 0.01982 0.50261 0.36976 0.0
H725 H 0.96662 0.48262 0.40946 0.0
C726 C 0.01204 0.51046 0.34613 0.0
C727 C 0.00347 0.49268 0.39299 0.0
C728 C 0.01144 0.48488 0.41923 0.0
C729 C 0.9879 0.50805 0.34485 0.0
C730 C 0.97147 0.49797 0.36804 0.0
C731 C 0.97936 0.49032 0.39175 0.0
C732 C 0.94573 0.49464 0.36791 0.0
C733 C 0.97992 0.51569 0.31851 0.0
C734 C 0.94226 0.51575 0.36602 0.0
C735 C 0.91778 0.51237 0.36613 0.0
C736 C 0.8965 0.48784 0.36832 0.0
C737 C 0.9001 0.46678 0.37043 0.0
C738 C 0.92455 0.47017 0.37028 0.0
H739 H 0.99229 0.51744 0.3006 0.0
H740 H 0.95991 0.50166 0.31314 0.0
H741 H 0.98126 0.53442 0.3217 0.0
H742 H 0.95847 0.53482 0.36468 0.0
H743 H 0.91554 0.52895 0.36462 0.0
H744 H 0.60553 0.07494 0.69176 0.0
H745 H 0.56851 0.03196 0.68883 0.0
H746 H 0.51859 0.06331 0.69128 0.0
H747 H 0.55526 0.10615 0.69396 0.0
H748 H 0.52841 0.00955 0.72859 0.0
H749 H 0.4932 0.01507 0.62364 0.0
H750 H 0.5251 0.0371 0.63527 0.0
H751 H 0.49891 0.04083 0.64647 0.0
C752 C 0.58666 0.07264 0.69148 0.0
C753 C 0.58324 0.09384 0.69305 0.0
C754 C 0.56561 0.04816 0.68979 0.0
C755 C 0.54096 0.04464 0.68941 0.0
C756 C 0.53752 0.06576 0.69097 0.0
H757 H 0.38789 0.91601 0.69455 0.0
H758 H 0.42569 0.95859 0.69252 0.0
C759 C 0.55849 0.09017 0.6927 0.0
C760 C 0.51867 0.01884 0.68893 0.0
H761 H 0.46539 0.97961 0.65176 0.0
C762 C 0.51472 0.00287 0.71172 0.0
C763 C 0.50087 0.01043 0.66692 0.0
C764 C 0.50477 0.02664 0.64155 0.0
C765 C 0.49301 0.97873 0.71339 0.0
C766 C 0.47515 0.97034 0.69143 0.0
C767 C 0.47916 0.98626 0.66856 0.0
C768 C 0.45239 0.94484 0.69165 0.0
C769 C 0.48909 0.96266 0.73891 0.0
C770 C 0.45508 0.92326 0.69123 0.0
C771 C 0.4337 0.8991 0.69249 0.0
C772 C 0.40925 0.89614 0.69395 0.0
C773 C 0.40653 0.91778 0.69354 0.0
C774 C 0.42802 0.94203 0.69237 0.0
H775 H 0.50093 0.97426 0.75667 0.0
H776 H 0.46882 0.95257 0.74545 0.0
H777 H 0.49456 0.94818 0.73405 0.0
H778 H 0.47376 0.92512 0.69009 0.0
H779 H 0.43639 0.88275 0.69247 0.0
H780 H 0.52479 0.61109 0.02515 0.0
H781 H 0.53323 0.57562 0.02249 0.0
H782 H 0.45285 0.52221 0.02903 0.0
H783 H 0.44421 0.55728 0.03149 0.0
H784 H 0.51898 0.53683 0.06366 0.0
H785 H 0.47547 0.49704 0.96093 0.0
H786 H 0.48418 0.52891 0.97163 0.0
H787 H 0.45525 0.50213 0.98416 0.0
C788 C 0.50894 0.59178 0.02581 0.0
C789 C 0.48385 0.58691 0.02849 0.0
C790 C 0.51378 0.57161 0.02427 0.0
C791 C 0.4936 0.54642 0.02513 0.0
C792 C 0.4686 0.54156 0.02775 0.0
H793 H 0.47126 0.3952 0.03415 0.0
H794 H 0.46705 0.43323 0.03134 0.0
C795 C 0.46374 0.56163 0.02935 0.0
C796 C 0.49857 0.52505 0.0249 0.0
H797 H 0.48471 0.47077 0.98988 0.0
C798 C 0.51179 0.52251 0.04741 0.0
C799 C 0.48895 0.50644 1.00369 0.0
C800 C 0.47536 0.50881 0.97859 0.0
C801 C 0.51494 0.50127 0.04978 0.0
C802 C 0.50501 0.48245 0.02875 0.0
C803 C 0.49218 0.48523 1.00599 0.0
C804 C 0.5076 0.45961 0.03012 0.0
C805 C 0.5281 0.49873 0.0752 0.0
C806 C 0.53176 0.46198 0.02995 0.0
C807 C 0.53421 0.44042 0.03176 0.0
C808 C 0.5125 0.41611 0.03342 0.0
C809 C 0.48829 0.41372 0.03299 0.0
C810 C 0.48586 0.43536 0.03135 0.0
H811 H 0.52871 0.51123 0.09244 0.0
H812 H 0.51844 0.47878 0.08278 0.0
H813 H 0.54799 0.50433 0.06974 0.0
H814 H 0.54871 0.48052 0.02837 0.0
H815 H 0.55312 0.44282 0.03172 0.0
H816 H 0.49105 0.16183 0.2373 0.0
H817 H 0.48523 0.18626 0.20068 0.0
H818 H 0.48186 0.23604 0.26243 0.0
H819 H 0.48777 0.2115 0.29951 0.0
H820 H 0.44747 0.20014 0.18968 0.0
H821 H 0.54286 0.2834 0.21172 0.0
H822 H 0.5328 0.25214 0.22557 0.0
H823 H 0.52127 0.2715 0.24073 0.0
C824 C 0.48873 0.17778 0.24321 0.0
C825 C 0.49013 0.18489 0.27133 0.0
C826 C 0.48533 0.19168 0.22219 0.0
C827 C 0.48349 0.21319 0.22873 0.0
C828 C 0.48358 0.21967 0.2569 0.0
H829 H 0.49443 0.3345 0.1247 0.0
H830 H 0.48742 0.30494 0.16245 0.0
C831 C 0.48679 0.20556 0.27807 0.0
C832 C 0.48325 0.22957 0.20582 0.0
H833 H 0.51934 0.28779 0.17553 0.0
C834 C 0.46309 0.21937 0.18663 0.0
C835 C 0.50381 0.25452 0.20168 0.0
C836 C 0.52656 0.26608 0.22082 0.0
C837 C 0.46275 0.23363 0.16366 0.0
C838 C 0.48338 0.25856 0.15947 0.0
C839 C 0.50349 0.2687 0.17873 0.0
C840 C 0.48452 0.27493 0.13573 0.0
C841 C 0.44013 0.22205 0.1444 0.0
C842 C 0.48471 0.26779 0.10786 0.0
C843 C 0.48852 0.28473 0.08597 0.0
C844 C 0.49255 0.30918 0.09172 0.0
C845 C 0.49151 0.31585 0.11954 0.0
C846 C 0.48752 0.29896 0.14122 0.0
H847 H 0.42329 0.20584 0.15433 0.0
H848 H 0.43497 0.23642 0.13781 0.0
H849 H 0.44495 0.21482 0.12549 0.0
H850 H 0.48292 0.24953 0.10307 0.0
H851 H 0.48947 0.27916 0.06479 0.0
H852 H 0.20159 0.53243 0.43742 0.0
H853 H 0.2235 0.52502 0.47551 0.0
H854 H 0.19416 0.4477 0.44761 0.0
H855 H 0.17309 0.45568 0.40824 0.0
H856 H 0.20362 0.49432 0.51746 0.0
H857 H 0.26649 0.46735 0.46095 0.0
H858 H 0.24945 0.48049 0.44337 0.0
H859 H 0.23325 0.44756 0.45356 0.0
C860 C 0.20015 0.51395 0.43914 0.0
C861 C 0.18573 0.49462 0.41992 0.0
C862 C 0.21259 0.50968 0.46102 0.0
C863 C 0.2106 0.4858 0.46461 0.0
C864 C 0.19647 0.46646 0.44508 0.0
H865 H 0.26693 0.46865 0.62973 0.0
H866 H 0.23729 0.46077 0.5911 0.0
C867 C 0.18439 0.47096 0.42263 0.0
C868 C 0.22267 0.48152 0.48951 0.0
H869 H 0.26768 0.46684 0.5099 0.0
C870 C 0.21756 0.48818 0.51581 0.0
C871 C 0.24082 0.47346 0.48745 0.0
C872 C 0.24805 0.46701 0.45982 0.0
C873 C 0.23098 0.4884 0.53972 0.0
C874 C 0.24939 0.48067 0.53762 0.0
C875 C 0.25354 0.47271 0.51158 0.0
C876 C 0.2667 0.48361 0.56114 0.0
C877 C 0.22635 0.49841 0.56655 0.0
C878 C 0.29306 0.49823 0.55707 0.0
C879 C 0.30987 0.5022 0.57877 0.0
C880 C 0.30082 0.49188 0.60534 0.0
C881 C 0.27443 0.47701 0.60955 0.0
C882 C 0.25751 0.47264 0.58751 0.0
H883 H 0.2162 0.50914 0.563 0.0
H884 H 0.2144 0.4822 0.58054 0.0
H885 H 0.24453 0.51113 0.57736 0.0
H886 H 0.30074 0.50701 0.53707 0.0
H887 H 0.33006 0.51383 0.57476 0.0
H888 H 0.79525 0.32859 0.91672 0.0
H889 H 0.77241 0.29906 0.87916 0.0
H890 H 0.78577 0.24262 0.91781 0.0
H891 H 0.80777 0.27213 0.95661 0.0
H892 H 0.78903 0.28021 0.84188 0.0
H893 H 0.71208 0.19972 0.90074 0.0
H894 H 0.73273 0.2301 0.91669 0.0
H895 H 0.74362 0.2078 0.91108 0.0
C896 C 0.79308 0.30976 0.91743 0.0
C897 C 0.80328 0.30263 0.93957 0.0
C898 C 0.78008 0.29289 0.89583 0.0
C899 C 0.77722 0.26848 0.89545 0.0
C900 C 0.7872 0.26111 0.91777 0.0
H901 H 0.71901 0.18817 0.73343 0.0
H902 H 0.74832 0.20961 0.77246 0.0
C903 C 0.79984 0.27797 0.93991 0.0
C904 C 0.7643 0.25153 0.87111 0.0
H905 H 0.71298 0.19473 0.8523 0.0
C906 C 0.77244 0.26144 0.84418 0.0
C907 C 0.74265 0.22702 0.87399 0.0
C908 C 0.73206 0.21556 0.90214 0.0
C909 C 0.75889 0.24829 0.82026 0.0
C910 C 0.73706 0.22389 0.82314 0.0
C911 C 0.7297 0.2134 0.84999 0.0
C912 C 0.71984 0.21018 0.79925 0.0
C913 C 0.76729 0.26141 0.79239 0.0
C914 C 0.69398 0.20266 0.8014 0.0
C915 C 0.67727 0.18994 0.77957 0.0
C916 C 0.68594 0.18461 0.75471 0.0
C917 C 0.71185 0.1922 0.75226 0.0
C918 C 0.72861 0.20459 0.77452 0.0
H919 H 0.78036 0.28221 0.79466 0.0
H920 H 0.77758 0.25349 0.78082 0.0
H921 H 0.75071 0.25838 0.77975 0.0
H922 H 0.68664 0.20682 0.82002 0.0
H923 H 0.65748 0.18454 0.78213 0.0
H924 H 0.49552 0.7185 0.06254 0.0
H925 H 0.50133 0.74748 0.10122 0.0
H926 H 0.50145 0.69345 0.15942 0.0
H927 H 0.49508 0.66444 0.12126 0.0
H928 H 0.4685 0.70854 0.17479 0.0
H929 H 0.56174 0.79329 0.14996 0.0
H930 H 0.53888 0.7834 0.12227 0.0
H931 H 0.55072 0.76293 0.13321 0.0
C932 C 0.49726 0.71308 0.08354 0.0
C933 C 0.49478 0.68918 0.08885 0.0
C934 C 0.50067 0.72968 0.10565 0.0
C935 C 0.50203 0.72276 0.1333 0.0
C936 C 0.50043 0.69925 0.13835 0.0
H937 H 0.50407 0.78435 0.29933 0.0
H938 H 0.50819 0.76035 0.26038 0.0
C939 C 0.49681 0.68268 0.11645 0.0
C940 C 0.50317 0.73882 0.15734 0.0
H941 H 0.53812 0.7976 0.18702 0.0
C942 C 0.48385 0.72795 0.17754 0.0
C943 C 0.52314 0.76419 0.16093 0.0
C944 C 0.54494 0.77663 0.1406 0.0
C945 C 0.48373 0.74178 0.20094 0.0
C946 C 0.50367 0.76712 0.20454 0.0
C947 C 0.52297 0.77809 0.18434 0.0
C948 C 0.50386 0.78293 0.22829 0.0
C949 C 0.46186 0.72937 0.22124 0.0
C950 C 0.50097 0.80406 0.22318 0.0
C951 C 0.49862 0.8177 0.24528 0.0
C952 C 0.49931 0.81066 0.27304 0.0
C953 C 0.50343 0.79022 0.27821 0.0
C954 C 0.50563 0.77642 0.25598 0.0
H955 H 0.44557 0.71182 0.21255 0.0
H956 H 0.46833 0.7241 0.24041 0.0
H957 H 0.45515 0.7427 0.22721 0.0
H958 H 0.49964 0.80948 0.20203 0.0
H959 H 0.49562 0.83345 0.24055 0.0
H960 H 0.7146 0.50869 0.62983 0.0
H961 H 0.74559 0.51714 0.59236 0.0
H962 H 0.68881 0.50521 0.53113 0.0
H963 H 0.65819 0.49706 0.56802 0.0
H964 H 0.73911 0.48193 0.551 0.0
H965 H 0.75032 0.56953 0.5021 0.0
H966 H 0.7371 0.55934 0.53654 0.0
H967 H 0.71768 0.54521 0.50622 0.0
C968 C 0.70899 0.50847 0.6084 0.0
C969 C 0.68397 0.50223 0.6019 0.0
C970 C 0.72665 0.51321 0.58701 0.0
C971 C 0.71965 0.51219 0.55889 0.0
C972 C 0.6949 0.50672 0.55257 0.0
H973 H 0.77625 0.5018 0.39559 0.0
H974 H 0.75299 0.50739 0.4345 0.0
C975 C 0.67732 0.50185 0.57378 0.0
C976 C 0.73707 0.51421 0.53593 0.0
H977 H 0.76363 0.54517 0.47479 0.0
C978 C 0.7448 0.496 0.53456 0.0
C979 C 0.74414 0.53232 0.51421 0.0
C980 C 0.73708 0.55286 0.51491 0.0
C981 C 0.75872 0.49488 0.51176 0.0
C982 C 0.76573 0.51291 0.48994 0.0
C983 C 0.75824 0.53133 0.49143 0.0
C984 C 0.78103 0.51289 0.46569 0.0
C985 C 0.76498 0.47375 0.51084 0.0
C986 C 0.80497 0.51532 0.47003 0.0
C987 C 0.81798 0.51185 0.44807 0.0
C988 C 0.80768 0.50645 0.42108 0.0
C989 C 0.78465 0.50599 0.41616 0.0
C990 C 0.77135 0.50909 0.43839 0.0
H991 H 0.75227 0.45766 0.52464 0.0
H992 H 0.76339 0.46637 0.48934 0.0
H993 H 0.7848 0.48117 0.51808 0.0
H994 H 0.81321 0.519 0.49068 0.0
H995 H 0.83585 0.51261 0.45242 0.0
H996 H 0.21216 0.7176 0.96638 0.0
H997 H 0.23699 0.748 0.92931 0.0
H998 H 0.18027 0.70069 0.86912 0.0
H999 H 0.15565 0.67051 0.90571 0.0
H1000 H 0.25579 0.73369 0.88245 0.0
H1001 H 0.19454 0.77231 0.84849 0.0
H1002 H 0.19086 0.75716 0.88189 0.0
H1003 H 0.17821 0.73823 0.85099 0.0
C1004 C 0.20474 0.71408 0.94537 0.0
C1005 C 0.182 0.69167 0.93894 0.0
C1006 C 0.21895 0.73137 0.9242 0.0
C1007 C 0.21035 0.72675 0.89646 0.0
C1008 C 0.18708 0.70495 0.89037 0.0
H1009 H 0.27414 0.78342 0.73154 0.0
H1010 H 0.24568 0.76125 0.77107 0.0
C1011 C 0.1731 0.68762 0.91134 0.0
C1012 C 0.22669 0.74297 0.87332 0.0
H1013 H 0.22799 0.77853 0.81744 0.0
C1014 C 0.24987 0.74379 0.86847 0.0
C1015 C 0.21874 0.75574 0.85477 0.0
C1016 C 0.19432 0.75605 0.85937 0.0
C1017 C 0.26504 0.75654 0.84528 0.0
C1018 C 0.25713 0.76935 0.82672 0.0
C1019 C 0.234 0.76866 0.83162 0.0
C1020 C 0.27312 0.78407 0.80261 0.0
C1021 C 0.28909 0.75553 0.84042 0.0
C1022 C 0.29756 0.80473 0.80721 0.0
C1023 C 0.31373 0.81723 0.78485 0.0
C1024 C 0.30577 0.80958 0.75728 0.0
C1025 C 0.28079 0.78974 0.75253 0.0
C1026 C 0.26457 0.77706 0.77508 0.0
H1027 H 0.28888 0.73953 0.85188 0.0
H1028 H 0.29189 0.75348 0.81792 0.0
H1029 H 0.30563 0.77349 0.8479 0.0
H1030 H 0.30437 0.81085 0.82821 0.0
H1031 H 0.33275 0.83264 0.78926 0.0
loop_
_geom_bond_atom_site_label_1
_geom_bond_atom_site_label_2
_geom_bond_distance
_geom_bond_site_symmetry_2
_ccdc_geom_bond_type
Co0 O1 2.216 . S
Co0 O2 2.091 . S
Co0 O4 2.004 . S
Co0 O10 2.021 . S
Co0 O12 2.137 . S
Co0 O13 2.244 . S
O1 Co0 2.216 . S
O1 C8 1.247 . S
O2 Co0 2.091 . S
O2 C8 1.261 . S
C3 O12 1.247 . S
C3 O13 1.272 . S
O4 Co0 2.004 . S
O4 C9 1.259 . S
Co5 O6 2.061 . S
Co5 O11 2.052 . S
Co5 O13 2.135 . S
O6 Co5 2.061 . S
O6 C9 1.235 . S
C7 O10 1.238 . S
C7 O11 1.241 . S
C8 O1 1.247 . S
C8 O2 1.261 . S
C9 O4 1.259 . S
C9 O6 1.235 . S
O10 Co0 2.021 . S
O10 C7 1.238 . S
O11 Co5 2.052 . S
O11 C7 1.241 . S
O12 Co0 2.137 . S
O12 C3 1.247 . S
O13 Co0 2.244 . S
O13 C3 1.272 . S
O13 Co5 2.135 . S
Co14 O15 2.216 . S
Co14 O16 2.091 . S
Co14 O18 2.004 . S
Co14 O24 2.021 . S
Co14 O26 2.137 . S
Co14 O27 2.244 . S
O15 Co14 2.216 . S
O15 C22 1.247 . S
O16 Co14 2.091 . S
O16 C22 1.261 . S
C17 O26 1.247 . S
C17 O27 1.272 . S
O18 Co14 2.004 . S
O18 C23 1.259 . S
Co19 O20 2.061 . S
Co19 O25 2.052 . S
Co19 O27 2.135 . S
O20 Co19 2.061 . S
O20 C23 1.235 . S
C21 O24 1.238 . S
C21 O25 1.241 . S
C22 O15 1.247 . S
C22 O16 1.261 . S
C23 O18 1.259 . S
C23 O20 1.235 . S
O24 Co14 2.021 . S
O24 C21 1.238 . S
O25 Co19 2.052 . S
O25 C21 1.241 . S
O26 Co14 2.137 . S
O26 C17 1.247 . S
O27 Co14 2.244 . S
O27 C17 1.272 . S
O27 Co19 2.135 . S
Co28 O29 2.216 . S
Co28 O30 2.091 . S
Co28 O32 2.004 . S
Co28 O38 2.021 1_556 S
Co28 O40 2.137 . S
Co28 O41 2.244 . S
O29 Co28 2.216 . S
O29 C36 1.247 . S
O30 Co28 2.091 . S
O30 C36 1.261 . S
C31 O40 1.247 . S
C31 O41 1.272 . S
O32 Co28 2.004 . S
O32 C37 1.259 . S
Co33 O34 2.061 . S
Co33 O39 2.052 . S
Co33 O41 2.135 1_554 S
O34 Co33 2.061 . S
O34 C37 1.235 1_554 S
C35 O38 1.238 . S
C35 O39 1.241 . S
C36 O29 1.247 . S
C36 O30 1.261 . S
C37 O32 1.259 . S
C37 O34 1.235 1_556 S
O38 Co28 2.021 1_554 S
O38 C35 1.238 . S
O39 Co33 2.052 . S
O39 C35 1.241 . S
O40 Co28 2.137 . S
O40 C31 1.247 . S
O41 Co28 2.244 . S
O41 C31 1.272 . S
O41 Co33 2.135 1_556 S
Co42 O43 2.216 . S
Co42 O44 2.091 . S
Co42 O46 2.004 . S
Co42 O52 2.021 . S
Co42 O54 2.137 . S
Co42 O55 2.244 . S
O43 Co42 2.216 . S
O43 C50 1.247 . S
O44 Co42 2.091 . S
O44 C50 1.261 . S
C45 O54 1.247 . S
C45 O55 1.272 . S
O46 Co42 2.004 . S
O46 C51 1.259 . S
Co47 O48 2.061 . S
Co47 O53 2.052 . S
Co47 O55 2.135 . S
O48 Co47 2.061 . S
O48 C51 1.235 . S
C49 O52 1.238 . S
C49 O53 1.241 . S
C50 O43 1.247 . S
C50 O44 1.261 . S
C51 O46 1.259 . S
C51 O48 1.235 . S
O52 Co42 2.021 . S
O52 C49 1.238 . S
O53 Co47 2.052 . S
O53 C49 1.241 . S
O54 Co42 2.137 . S
O54 C45 1.247 . S
O55 Co42 2.244 . S
O55 C45 1.272 . S
O55 Co47 2.135 . S
Co56 O57 2.216 . S
Co56 O58 2.091 . S
Co56 O60 2.004 . S
Co56 O66 2.021 . S
Co56 O68 2.137 . S
Co56 O69 2.244 . S
O57 Co56 2.216 . S
O57 C64 1.247 . S
O58 Co56 2.091 . S
O58 C64 1.261 . S
C59 O68 1.247 . S
C59 O69 1.272 . S
O60 Co56 2.004 . S
O60 C65 1.259 . S
Co61 O62 2.061 . S
Co61 O67 2.052 . S
Co61 O69 2.135 . S
O62 Co61 2.061 . S
O62 C65 1.235 . S
C63 O66 1.238 . S
C63 O67 1.241 . S
C64 O57 1.247 . S
C64 O58 1.261 . S
C65 O60 1.259 . S
C65 O62 1.235 . S
O66 Co56 2.021 . S
O66 C63 1.238 . S
O67 Co61 2.052 . S
O67 C63 1.241 . S
O68 Co56 2.137 . S
O68 C59 1.247 . S
O69 Co56 2.244 . S
O69 C59 1.272 . S
O69 Co61 2.135 . S
Co70 O71 2.216 . S
Co70 O72 2.091 . S
Co70 O74 2.004 . S
Co70 O80 2.021 1_556 S
Co70 O82 2.137 . S
Co70 O83 2.244 . S
O71 Co70 2.216 . S
O71 C78 1.247 . S
O72 Co70 2.091 . S
O72 C78 1.261 . S
C73 O82 1.247 . S
C73 O83 1.272 . S
O74 Co70 2.004 . S
O74 C79 1.259 . S
Co75 O76 2.061 . S
Co75 O81 2.052 . S
Co75 O83 2.135 1_554 S
O76 Co75 2.061 . S
O76 C79 1.235 1_554 S
C77 O80 1.238 . S
C77 O81 1.241 . S
C78 O71 1.247 . S
C78 O72 1.261 . S
C79 O74 1.259 . S
C79 O76 1.235 1_556 S
O80 Co70 2.021 1_554 S
O80 C77 1.238 . S
O81 Co75 2.052 . S
O81 C77 1.241 . S
O82 Co70 2.137 . S
O82 C73 1.247 . S
O83 Co70 2.244 . S
O83 C73 1.272 . S
O83 Co75 2.135 1_556 S
Co84 O85 2.216 . S
Co84 O86 2.091 . S
Co84 O88 2.004 . S
Co84 O94 2.021 . S
Co84 O96 2.137 . S
Co84 O97 2.244 . S
O85 Co84 2.216 . S
O85 C92 1.247 . S
O86 Co84 2.091 . S
O86 C92 1.261 . S
C87 O96 1.247 . S
C87 O97 1.272 . S
O88 Co84 2.004 . S
O88 C93 1.259 . S
Co89 O90 2.061 . S
Co89 O95 2.052 . S
Co89 O97 2.135 . S
O90 Co89 2.061 . S
O90 C93 1.235 . S
C91 O94 1.238 . S
C91 O95 1.241 . S
C92 O85 1.247 . S
C92 O86 1.261 . S
C93 O88 1.259 . S
C93 O90 1.235 . S
O94 Co84 2.021 . S
O94 C91 1.238 . S
O95 Co89 2.052 . S
O95 C91 1.241 . S
O96 Co84 2.137 . S
O96 C87 1.247 . S
O97 Co84 2.244 . S
O97 C87 1.272 . S
O97 Co89 2.135 . S
Co98 O99 2.216 . S
Co98 O100 2.091 . S
Co98 O102 2.004 . S
Co98 O108 2.021 . S
Co98 O110 2.137 . S
Co98 O111 2.244 . S
O99 Co98 2.216 . S
O99 C106 1.247 . S
O100 Co98 2.091 . S
O100 C106 1.261 . S
C101 O110 1.247 . S
C101 O111 1.272 . S
O102 Co98 2.004 . S
O102 C107 1.259 . S
Co103 O104 2.061 . S
Co103 O109 2.052 . S
Co103 O111 2.135 . S
O104 Co103 2.061 . S
O104 C107 1.235 . S
C105 O108 1.238 . S
C105 O109 1.241 . S
C106 O99 1.247 . S
C106 O100 1.261 . S
C107 O102 1.259 . S
C107 O104 1.235 . S
O108 Co98 2.021 . S
O108 C105 1.238 . S
O109 Co103 2.052 . S
O109 C105 1.241 . S
O110 Co98 2.137 . S
O110 C101 1.247 . S
O111 Co98 2.244 . S
O111 C101 1.272 . S
O111 Co103 2.135 . S
Co112 O113 2.216 . S
Co112 O114 2.091 . S
Co112 O116 2.004 . S
Co112 O122 2.021 1_554 S
Co112 O124 2.137 . S
Co112 O125 2.244 . S
O113 Co112 2.216 . S
O113 C120 1.247 . S
O114 Co112 2.091 . S
O114 C120 1.261 . S
C115 O124 1.247 . S
C115 O125 1.272 . S
O116 Co112 2.004 . S
O116 C121 1.259 . S
Co117 O118 2.058 1_556 S
Co117 O123 2.064 . S
Co117 O125 2.122 1_556 S
O118 Co117 2.058 1_554 S
O118 C121 1.235 . S
C119 O122 1.238 . S
C119 O123 1.241 . S
C120 O113 1.247 . S
C120 O114 1.261 . S
C121 O116 1.259 . S
C121 O118 1.235 . S
O122 Co112 2.021 1_556 S
O122 C119 1.238 . S
O123 Co117 2.064 . S
O123 C119 1.241 . S
O124 Co112 2.137 . S
O124 C115 1.247 . S
O125 Co112 2.244 . S
O125 C115 1.272 . S
O125 Co117 2.122 1_554 S
Co126 O127 2.216 . S
Co126 O128 2.091 . S
Co126 O130 2.004 . S
Co126 O136 2.021 . S
Co126 O138 2.137 . S
Co126 O139 2.244 . S
O127 Co126 2.216 . S
O127 C134 1.247 . S
O128 Co126 2.091 . S
O128 C134 1.261 . S
C129 O138 1.247 . S
C129 O139 1.272 . S
O130 Co126 2.004 . S
O130 C135 1.259 . S
Co131 O132 2.061 . S
Co131 O137 2.052 . S
Co131 O139 2.135 . S
O132 Co131 2.061 . S
O132 C135 1.235 . S
C133 O136 1.238 . S
C133 O137 1.241 . S
C134 O127 1.247 . S
C134 O128 1.261 . S
C135 O130 1.259 . S
C135 O132 1.235 . S
O136 Co126 2.021 . S
O136 C133 1.238 . S
O137 Co131 2.052 . S
O137 C133 1.241 . S
O138 Co126 2.137 . S
O138 C129 1.247 . S
O139 Co126 2.244 . S
O139 C129 1.272 . S
O139 Co131 2.135 . S
Co140 O141 2.216 . S
Co140 O142 2.091 . S
Co140 O144 2.004 . S
Co140 O150 2.021 . S
Co140 O152 2.137 . S
Co140 O153 2.244 . S
O141 Co140 2.216 . S
O141 C148 1.247 . S
O142 Co140 2.091 . S
O142 C148 1.261 . S
C143 O152 1.247 . S
C143 O153 1.272 . S
O144 Co140 2.004 . S
O144 C149 1.259 . S
Co145 O146 2.061 . S
Co145 O151 2.052 . S
Co145 O153 2.135 . S
O146 Co145 2.061 . S
O146 C149 1.235 . S
C147 O150 1.238 . S
C147 O151 1.241 . S
C148 O141 1.247 . S
C148 O142 1.261 . S
C149 O144 1.259 . S
C149 O146 1.235 . S
O150 Co140 2.021 . S
O150 C147 1.238 . S
O151 Co145 2.052 . S
O151 C147 1.241 . S
O152 Co140 2.137 . S
O152 C143 1.247 . S
O153 Co140 2.244 . S
O153 C143 1.272 . S
O153 Co145 2.135 . S
Co154 O155 2.216 . S
Co154 O156 2.091 . S
Co154 O158 2.004 . S
Co154 O164 2.021 1_554 S
Co154 O166 2.137 . S
Co154 O167 2.244 . S
O155 Co154 2.216 . S
O155 C162 1.247 . S
O156 Co154 2.091 . S
O156 C162 1.261 . S
C157 O166 1.247 . S
C157 O167 1.272 . S
O158 Co154 2.004 . S
O158 C163 1.259 . S
Co159 O160 2.058 1_556 S
Co159 O165 2.064 . S
Co159 O167 2.122 1_556 S
O160 Co159 2.058 1_554 S
O160 C163 1.235 . S
C161 O164 1.238 . S
C161 O165 1.241 . S
C162 O155 1.247 . S
C162 O156 1.261 . S
C163 O158 1.259 . S
C163 O160 1.235 . S
O164 Co154 2.021 1_556 S
O164 C161 1.238 . S
O165 Co159 2.064 . S
O165 C161 1.241 . S
O166 Co154 2.137 . S
O166 C157 1.247 . S
O167 Co154 2.244 . S
O167 C157 1.272 . S
O167 Co159 2.122 1_554 S
H168 C176 0.929 . S
H169 C178 0.930 . S
H170 C180 0.930 . S
H171 C183 0.929 . S
H172 C186 0.930 . S
H173 C188 0.960 . S
H174 C188 0.960 . S
H175 C188 0.960 . S
C176 H168 0.929 . S
C176 C177 1.377 . S
C176 C178 1.384 . S
C177 C176 1.377 . S
C177 C183 1.390 . S
C178 H169 0.930 . S
C178 C176 1.384 . S
C178 C179 1.372 . S
C179 C178 1.372 . S
C179 C180 1.400 . S
C179 C184 1.490 . S
C180 H170 0.930 . S
C180 C179 1.400 . S
C180 C183 1.386 . S
H181 C197 0.930 . S
H182 C198 0.931 . S
C183 H171 0.929 . S
C183 C177 1.390 . S
C183 C180 1.386 . S
C184 C179 1.490 . S
C184 C186 1.395 . S
C184 C187 1.403 . S
H185 C191 0.930 . S
C186 H172 0.930 . S
C186 C184 1.395 . S
C186 C189 1.403 . S
C187 C184 1.403 . S
C187 C188 1.524 . S
C187 C191 1.400 . S
C188 H173 0.960 . S
C188 H174 0.960 . S
C188 H175 0.960 . S
C188 C187 1.524 . S
C189 C186 1.403 . S
C189 C190 1.392 . S
C189 C193 1.495 . S
C190 C189 1.392 . S
C190 C191 1.385 . S
C190 C192 1.478 . S
C191 H185 0.930 . S
C191 C187 1.400 . S
C191 C190 1.385 . S
C192 C190 1.478 . S
C192 C194 1.381 . S
C192 C198 1.383 . S
C193 C189 1.495 . S
C193 H199 0.959 . S
C193 H200 0.961 . S
C193 H201 0.960 . S
C194 C192 1.381 . S
C194 C195 1.394 . S
C194 H202 0.930 . S
C195 C194 1.394 . S
C195 C196 1.383 . S
C195 H203 0.929 . S
C196 C195 1.383 . S
C196 C197 1.377 . S
C197 H181 0.930 . S
C197 C196 1.377 . S
C197 C198 1.379 . S
C198 H182 0.931 . S
C198 C192 1.383 . S
C198 C197 1.379 . S
H199 C193 0.959 . S
H200 C193 0.961 . S
H201 C193 0.960 . S
H202 C194 0.930 . S
H203 C195 0.929 . S
H204 C212 0.929 . S
H205 C214 0.930 . S
H206 C216 0.930 . S
H207 C219 0.929 . S
H208 C222 0.930 . S
H209 C224 0.960 . S
H210 C224 0.960 . S
H211 C224 0.960 . S
C212 H204 0.929 . S
C212 C213 1.377 . S
C212 C214 1.384 . S
C213 C212 1.377 . S
C213 C219 1.390 . S
C214 H205 0.930 . S
C214 C212 1.384 . S
C214 C215 1.372 . S
C215 C214 1.372 . S
C215 C216 1.400 . S
C215 C220 1.490 . S
C216 H206 0.930 . S
C216 C215 1.400 . S
C216 C219 1.386 . S
H217 C233 0.930 . S
H218 C234 0.931 . S
C219 H207 0.929 . S
C219 C213 1.390 . S
C219 C216 1.386 . S
C220 C215 1.490 . S
C220 C222 1.395 . S
C220 C223 1.403 . S
H221 C227 0.930 . S
C222 H208 0.930 . S
C222 C220 1.395 . S
C222 C225 1.403 . S
C223 C220 1.403 . S
C223 C224 1.524 . S
C223 C227 1.400 . S
C224 H209 0.960 . S
C224 H210 0.960 . S
C224 H211 0.960 . S
C224 C223 1.524 . S
C225 C222 1.403 . S
C225 C226 1.392 . S
C225 C229 1.495 . S
C226 C225 1.392 . S
C226 C227 1.385 . S
C226 C228 1.478 . S
C227 H221 0.930 . S
C227 C223 1.400 . S
C227 C226 1.385 . S
C228 C226 1.478 . S
C228 C230 1.381 . S
C228 C234 1.383 . S
C229 C225 1.495 . S
C229 H235 0.959 . S
C229 H236 0.961 . S
C229 H237 0.960 . S
C230 C228 1.381 . S
C230 C231 1.394 . S
C230 H238 0.930 . S
C231 C230 1.394 . S
C231 C232 1.383 . S
C231 H239 0.929 . S
C232 C231 1.383 . S
C232 C233 1.377 . S
C233 H217 0.930 . S
C233 C232 1.377 . S
C233 C234 1.379 . S
C234 H218 0.931 . S
C234 C228 1.383 . S
C234 C233 1.379 . S
H235 C229 0.959 . S
H236 C229 0.961 . S
H237 C229 0.960 . S
H238 C230 0.930 . S
H239 C231 0.929 . S
H240 C248 0.929 . S
H241 C250 0.930 . S
H242 C252 0.930 . S
H243 C255 0.929 . S
H244 C258 0.930 . S
H245 C260 0.960 . S
H246 C260 0.960 . S
H247 C260 0.960 . S
C248 H240 0.929 . S
C248 C249 1.377 . S
C248 C250 1.384 . S
C249 C248 1.377 . S
C249 C255 1.390 . S
C250 H241 0.930 . S
C250 C248 1.384 . S
C250 C251 1.372 . S
C251 C250 1.372 . S
C251 C252 1.400 . S
C251 C256 1.490 . S
C252 H242 0.930 . S
C252 C251 1.400 . S
C252 C255 1.386 . S
H253 C269 0.930 . S
H254 C270 0.931 . S
C255 H243 0.929 . S
C255 C249 1.390 . S
C255 C252 1.386 . S
C256 C251 1.490 . S
C256 C258 1.395 . S
C256 C259 1.403 . S
H257 C263 0.930 . S
C258 H244 0.930 . S
C258 C256 1.395 . S
C258 C261 1.403 . S
C259 C256 1.403 . S
C259 C260 1.524 . S
C259 C263 1.400 . S
C260 H245 0.960 . S
C260 H246 0.960 . S
C260 H247 0.960 . S
C260 C259 1.524 . S
C261 C258 1.403 . S
C261 C262 1.392 . S
C261 C265 1.495 . S
C262 C261 1.392 . S
C262 C263 1.385 . S
C262 C264 1.478 . S
C263 H257 0.930 . S
C263 C259 1.400 . S
C263 C262 1.385 . S
C264 C262 1.478 . S
C264 C266 1.381 . S
C264 C270 1.383 . S
C265 C261 1.495 . S
C265 H271 0.959 . S
C265 H272 0.961 . S
C265 H273 0.960 . S
C266 C264 1.381 . S
C266 C267 1.394 . S
C266 H274 0.930 . S
C267 C266 1.394 . S
C267 C268 1.383 . S
C267 H275 0.929 . S
C268 C267 1.383 . S
C268 C269 1.377 . S
C269 H253 0.930 . S
C269 C268 1.377 . S
C269 C270 1.379 . S
C270 H254 0.931 . S
C270 C264 1.383 . S
C270 C269 1.379 . S
H271 C265 0.959 . S
H272 C265 0.961 . S
H273 C265 0.960 . S
H274 C266 0.930 . S
H275 C267 0.929 . S
H276 C284 0.929 . S
H277 C286 0.930 . S
H278 C288 0.930 . S
H279 C291 0.929 . S
H280 C294 0.930 . S
H281 C296 0.960 . S
H282 C296 0.960 . S
H283 C296 0.960 . S
C284 H276 0.929 . S
C284 C285 1.377 . S
C284 C286 1.384 . S
C285 C284 1.377 . S
C285 C291 1.390 . S
C286 H277 0.930 . S
C286 C284 1.384 . S
C286 C287 1.372 . S
C287 C286 1.372 . S
C287 C288 1.400 . S
C287 C292 1.490 . S
C288 H278 0.930 . S
C288 C287 1.400 . S
C288 C291 1.386 . S
H289 C305 0.930 . S
H290 C306 0.931 . S
C291 H279 0.929 . S
C291 C285 1.390 . S
C291 C288 1.386 . S
C292 C287 1.490 . S
C292 C294 1.395 . S
C292 C295 1.403 . S
H293 C299 0.930 . S
C294 H280 0.930 . S
C294 C292 1.395 . S
C294 C297 1.403 . S
C295 C292 1.403 . S
C295 C296 1.524 . S
C295 C299 1.400 . S
C296 H281 0.960 . S
C296 H282 0.960 . S
C296 H283 0.960 . S
C296 C295 1.524 . S
C297 C294 1.403 . S
C297 C298 1.392 . S
C297 C301 1.495 . S
C298 C297 1.392 . S
C298 C299 1.385 . S
C298 C300 1.478 . S
C299 H293 0.930 . S
C299 C295 1.400 . S
C299 C298 1.385 . S
C300 C298 1.478 . S
C300 C302 1.381 . S
C300 C306 1.383 . S
C301 C297 1.495 . S
C301 H307 0.959 . S
C301 H308 0.961 . S
C301 H309 0.960 . S
C302 C300 1.381 . S
C302 C303 1.394 . S
C302 H310 0.930 . S
C303 C302 1.394 . S
C303 C304 1.383 . S
C303 H311 0.929 . S
C304 C303 1.383 . S
C304 C305 1.377 . S
C305 H289 0.930 . S
C305 C304 1.377 . S
C305 C306 1.379 . S
C306 H290 0.931 . S
C306 C300 1.383 . S
C306 C305 1.379 . S
H307 C301 0.959 . S
H308 C301 0.961 . S
H309 C301 0.960 . S
H310 C302 0.930 . S
H311 C303 0.929 . S
H312 C320 0.929 . S
H313 C322 0.930 . S
H314 C324 0.930 . S
H315 C327 0.929 . S
H316 C330 0.930 . S
H317 C332 0.960 . S
H318 C332 0.960 . S
H319 C332 0.960 . S
C320 H312 0.929 . S
C320 C321 1.377 . S
C320 C322 1.384 . S
C321 C320 1.377 . S
C321 C327 1.390 . S
C322 H313 0.930 . S
C322 C320 1.384 . S
C322 C323 1.372 . S
C323 C322 1.372 . S
C323 C324 1.400 . S
C323 C328 1.490 . S
C324 H314 0.930 . S
C324 C323 1.400 . S
C324 C327 1.386 . S
H325 C341 0.930 . S
H326 C342 0.931 . S
C327 H315 0.929 . S
C327 C321 1.390 . S
C327 C324 1.386 . S
C328 C323 1.490 . S
C328 C330 1.395 . S
C328 C331 1.403 . S
H329 C335 0.930 . S
C330 H316 0.930 . S
C330 C328 1.395 . S
C330 C333 1.403 . S
C331 C328 1.403 . S
C331 C332 1.524 . S
C331 C335 1.400 . S
C332 H317 0.960 . S
C332 H318 0.960 . S
C332 H319 0.960 . S
C332 C331 1.524 . S
C333 C330 1.403 . S
C333 C334 1.392 . S
C333 C337 1.495 . S
C334 C333 1.392 . S
C334 C335 1.385 . S
C334 C336 1.478 . S
C335 H329 0.930 . S
C335 C331 1.400 . S
C335 C334 1.385 . S
C336 C334 1.478 . S
C336 C338 1.381 . S
C336 C342 1.383 . S
C337 C333 1.495 . S
C337 H343 0.959 . S
C337 H344 0.961 . S
C337 H345 0.960 . S
C338 C336 1.381 . S
C338 C339 1.394 . S
C338 H346 0.930 . S
C339 C338 1.394 . S
C339 C340 1.383 . S
C339 H347 0.929 . S
C340 C339 1.383 . S
C340 C341 1.377 . S
C341 H325 0.930 . S
C341 C340 1.377 . S
C341 C342 1.379 . S
C342 H326 0.931 . S
C342 C336 1.383 . S
C342 C341 1.379 . S
H343 C337 0.959 . S
H344 C337 0.961 . S
H345 C337 0.960 . S
H346 C338 0.930 . S
H347 C339 0.929 . S
H348 C356 0.929 . S
H349 C358 0.930 . S
H350 C360 0.930 . S
H351 C363 0.929 . S
H352 C366 0.930 . S
H353 C368 0.960 . S
H354 C368 0.960 . S
H355 C368 0.960 . S
C356 H348 0.929 . S
C356 C357 1.377 . S
C356 C358 1.384 . S
C357 C356 1.377 . S
C357 C363 1.390 . S
C358 H349 0.930 . S
C358 C356 1.384 . S
C358 C359 1.372 . S
C359 C358 1.372 . S
C359 C360 1.400 . S
C359 C364 1.490 . S
C360 H350 0.930 . S
C360 C359 1.400 . S
C360 C363 1.386 . S
H361 C377 0.930 . S
H362 C378 0.931 . S
C363 H351 0.929 . S
C363 C357 1.390 . S
C363 C360 1.386 . S
C364 C359 1.490 . S
C364 C366 1.395 . S
C364 C367 1.403 . S
H365 C371 0.930 . S
C366 H352 0.930 . S
C366 C364 1.395 . S
C366 C369 1.403 . S
C367 C364 1.403 . S
C367 C368 1.524 . S
C367 C371 1.400 . S
C368 H353 0.960 . S
C368 H354 0.960 . S
C368 H355 0.960 . S
C368 C367 1.524 . S
C369 C366 1.403 . S
C369 C370 1.392 . S
C369 C373 1.495 . S
C370 C369 1.392 . S
C370 C371 1.385 . S
C370 C372 1.478 . S
C371 H365 0.930 . S
C371 C367 1.400 . S
C371 C370 1.385 . S
C372 C370 1.478 . S
C372 C374 1.381 . S
C372 C378 1.383 . S
C373 C369 1.495 . S
C373 H379 0.959 . S
C373 H380 0.961 . S
C373 H381 0.960 . S
C374 C372 1.381 . S
C374 C375 1.394 . S
C374 H382 0.930 . S
C375 C374 1.394 . S
C375 C376 1.383 . S
C375 H383 0.929 . S
C376 C375 1.383 . S
C376 C377 1.377 . S
C377 H361 0.930 . S
C377 C376 1.377 . S
C377 C378 1.379 . S
C378 H362 0.931 . S
C378 C372 1.383 . S
C378 C377 1.379 . S
H379 C373 0.959 . S
H380 C373 0.961 . S
H381 C373 0.960 . S
H382 C374 0.930 . S
H383 C375 0.929 . S
H384 C392 0.929 . S
H385 C394 0.930 . S
H386 C396 0.930 . S
H387 C399 0.929 . S
H388 C402 0.930 . S
H389 C404 0.960 . S
H390 C404 0.960 . S
H391 C404 0.960 . S
C392 H384 0.929 . S
C392 C393 1.377 . S
C392 C394 1.384 . S
C393 C392 1.377 . S
C393 C399 1.390 . S
C394 H385 0.930 . S
C394 C392 1.384 . S
C394 C395 1.372 . S
C395 C394 1.372 . S
C395 C396 1.400 . S
C395 C400 1.490 . S
C396 H386 0.930 . S
C396 C395 1.400 . S
C396 C399 1.386 . S
H397 C413 0.930 . S
H398 C414 0.931 . S
C399 H387 0.929 . S
C399 C393 1.390 . S
C399 C396 1.386 . S
C400 C395 1.490 . S
C400 C402 1.395 . S
C400 C403 1.403 . S
H401 C407 0.930 . S
C402 H388 0.930 . S
C402 C400 1.395 . S
C402 C405 1.403 . S
C403 C400 1.403 . S
C403 C404 1.524 . S
C403 C407 1.400 . S
C404 H389 0.960 . S
C404 H390 0.960 . S
C404 H391 0.960 . S
C404 C403 1.524 . S
C405 C402 1.403 . S
C405 C406 1.392 . S
C405 C409 1.495 . S
C406 C405 1.392 . S
C406 C407 1.385 . S
C406 C408 1.478 . S
C407 H401 0.930 . S
C407 C403 1.400 . S
C407 C406 1.385 . S
C408 C406 1.478 . S
C408 C410 1.381 . S
C408 C414 1.383 . S
C409 C405 1.495 . S
C409 H415 0.959 . S
C409 H416 0.961 . S
C409 H417 0.960 . S
C410 C408 1.381 . S
C410 C411 1.394 . S
C410 H418 0.930 . S
C411 C410 1.394 . S
C411 C412 1.383 . S
C411 H419 0.929 . S
C412 C411 1.383 . S
C412 C413 1.377 . S
C413 H397 0.930 . S
C413 C412 1.377 . S
C413 C414 1.379 . S
C414 H398 0.931 . S
C414 C408 1.383 . S
C414 C413 1.379 . S
H415 C409 0.959 . S
H416 C409 0.961 . S
H417 C409 0.960 . S
H418 C410 0.930 . S
H419 C411 0.929 . S
H420 C428 0.929 . S
H421 C430 0.930 . S
H422 C432 0.930 . S
H423 C435 0.929 . S
H424 C438 0.930 . S
H425 C440 0.960 . S
H426 C440 0.960 . S
H427 C440 0.960 . S
C428 H420 0.929 . S
C428 C429 1.377 . S
C428 C430 1.384 . S
C429 C428 1.377 . S
C429 C435 1.390 . S
C430 H421 0.930 . S
C430 C428 1.384 . S
C430 C431 1.372 . S
C431 C430 1.372 . S
C431 C432 1.400 . S
C431 C436 1.490 . S
C432 H422 0.930 . S
C432 C431 1.400 . S
C432 C435 1.386 . S
H433 C449 0.930 . S
H434 C450 0.931 . S
C435 H423 0.929 . S
C435 C429 1.390 . S
C435 C432 1.386 . S
C436 C431 1.490 . S
C436 C438 1.395 . S
C436 C439 1.403 . S
H437 C443 0.930 . S
C438 H424 0.930 . S
C438 C436 1.395 . S
C438 C441 1.403 . S
C439 C436 1.403 . S
C439 C440 1.524 . S
C439 C443 1.400 . S
C440 H425 0.960 . S
C440 H426 0.960 . S
C440 H427 0.960 . S
C440 C439 1.524 . S
C441 C438 1.403 . S
C441 C442 1.392 . S
C441 C445 1.495 . S
C442 C441 1.392 . S
C442 C443 1.385 . S
C442 C444 1.478 . S
C443 H437 0.930 . S
C443 C439 1.400 . S
C443 C442 1.385 . S
C444 C442 1.478 . S
C444 C446 1.381 . S
C444 C450 1.383 . S
C445 C441 1.495 . S
C445 H451 0.959 . S
C445 H452 0.961 . S
C445 H453 0.960 . S
C446 C444 1.381 . S
C446 C447 1.394 . S
C446 H454 0.930 . S
C447 C446 1.394 . S
C447 C448 1.383 . S
C447 H455 0.929 . S
C448 C447 1.383 . S
C448 C449 1.377 . S
C449 H433 0.930 . S
C449 C448 1.377 . S
C449 C450 1.379 . S
C450 H434 0.931 . S
C450 C444 1.383 . S
C450 C449 1.379 . S
H451 C445 0.959 . S
H452 C445 0.961 . S
H453 C445 0.960 . S
H454 C446 0.930 . S
H455 C447 0.929 . S
H456 C464 0.929 . S
H457 C466 0.930 . S
H458 C468 0.930 . S
H459 C471 0.929 . S
H460 C474 0.930 . S
H461 C476 0.960 . S
H462 C476 0.960 . S
H463 C476 0.960 . S
C464 H456 0.929 . S
C464 C465 1.377 1_556 S
C464 C466 1.384 . S
C465 C464 1.377 1_554 S
C465 C471 1.390 . S
C466 H457 0.930 . S
C466 C464 1.384 . S
C466 C467 1.372 1_556 S
C467 C466 1.372 1_554 S
C467 C468 1.400 . S
C467 C472 1.490 . S
C468 H458 0.930 . S
C468 C467 1.400 . S
C468 C471 1.386 . S
H469 C485 0.930 . S
H470 C486 0.931 . S
C471 H459 0.929 . S
C471 C465 1.390 . S
C471 C468 1.386 . S
C472 C467 1.490 . S
C472 C474 1.395 1_554 S
C472 C475 1.403 . S
H473 C479 0.930 . S
C474 H460 0.930 . S
C474 C472 1.395 1_556 S
C474 C477 1.403 . S
C475 C472 1.403 . S
C475 C476 1.524 . S
C475 C479 1.400 . S
C476 H461 0.960 . S
C476 H462 0.960 . S
C476 H463 0.960 . S
C476 C475 1.524 . S
C477 C474 1.403 . S
C477 C478 1.392 . S
C477 C481 1.495 . S
C478 C477 1.392 . S
C478 C479 1.385 1_556 S
C478 C480 1.478 . S
C479 H473 0.930 . S
C479 C475 1.400 . S
C479 C478 1.385 1_554 S
C480 C478 1.478 . S
C480 C482 1.381 . S
C480 C486 1.383 1_556 S
C481 C477 1.495 . S
C481 H487 0.959 . S
C481 H488 0.961 . S
C481 H489 0.960 . S
C482 C480 1.381 . S
C482 C483 1.394 . S
C482 H490 0.930 . S
C483 C482 1.394 . S
C483 C484 1.383 . S
C483 H491 0.929 . S
C484 C483 1.383 . S
C484 C485 1.377 1_556 S
C485 H469 0.930 . S
C485 C484 1.377 1_554 S
C485 C486 1.379 . S
C486 H470 0.931 . S
C486 C480 1.383 1_554 S
C486 C485 1.379 . S
H487 C481 0.959 . S
H488 C481 0.961 . S
H489 C481 0.960 . S
H490 C482 0.930 . S
H491 C483 0.929 . S
H492 C500 0.929 . S
H493 C502 0.930 . S
H494 C504 0.930 . S
H495 C507 0.929 . S
H496 C510 0.930 . S
H497 C512 0.960 . S
H498 C512 0.960 . S
H499 C512 0.960 . S
C500 H492 0.929 . S
C500 C501 1.377 . S
C500 C502 1.384 . S
C501 C500 1.377 . S
C501 C507 1.390 . S
C502 H493 0.930 . S
C502 C500 1.384 . S
C502 C503 1.372 . S
C503 C502 1.372 . S
C503 C504 1.400 . S
C503 C508 1.490 . S
C504 H494 0.930 . S
C504 C503 1.400 . S
C504 C507 1.386 . S
H505 C521 0.930 . S
H506 C522 0.931 . S
C507 H495 0.929 . S
C507 C501 1.390 . S
C507 C504 1.386 . S
C508 C503 1.490 . S
C508 C510 1.395 . S
C508 C511 1.403 . S
H509 C515 0.930 . S
C510 H496 0.930 . S
C510 C508 1.395 . S
C510 C513 1.403 . S
C511 C508 1.403 . S
C511 C512 1.524 . S
C511 C515 1.400 . S
C512 H497 0.960 . S
C512 H498 0.960 . S
C512 H499 0.960 . S
C512 C511 1.524 . S
C513 C510 1.403 . S
C513 C514 1.392 . S
C513 C517 1.495 . S
C514 C513 1.392 . S
C514 C515 1.385 . S
C514 C516 1.478 . S
C515 H509 0.930 . S
C515 C511 1.400 . S
C515 C514 1.385 . S
C516 C514 1.478 . S
C516 C518 1.381 . S
C516 C522 1.383 . S
C517 C513 1.495 . S
C517 H523 0.959 . S
C517 H524 0.961 . S
C517 H525 0.960 . S
C518 C516 1.381 . S
C518 C519 1.394 . S
C518 H526 0.930 . S
C519 C518 1.394 . S
C519 C520 1.383 . S
C519 H527 0.929 . S
C520 C519 1.383 . S
C520 C521 1.377 . S
C521 H505 0.930 . S
C521 C520 1.377 . S
C521 C522 1.379 . S
C522 H506 0.931 . S
C522 C516 1.383 . S
C522 C521 1.379 . S
H523 C517 0.959 . S
H524 C517 0.961 . S
H525 C517 0.960 . S
H526 C518 0.930 . S
H527 C519 0.929 . S
H528 C536 0.929 . S
H529 C538 0.930 . S
H530 C540 0.930 . S
H531 C543 0.929 . S
H532 C546 0.930 . S
H533 C548 0.960 . S
H534 C548 0.960 . S
H535 C548 0.960 . S
C536 H528 0.929 . S
C536 C537 1.377 . S
C536 C538 1.384 . S
C537 C536 1.377 . S
C537 C543 1.390 . S
C538 H529 0.930 . S
C538 C536 1.384 . S
C538 C539 1.372 . S
C539 C538 1.372 . S
C539 C540 1.400 . S
C539 C544 1.490 . S
C540 H530 0.930 . S
C540 C539 1.400 . S
C540 C543 1.386 . S
H541 C557 0.930 . S
H542 C558 0.931 . S
C543 H531 0.929 . S
C543 C537 1.390 . S
C543 C540 1.386 . S
C544 C539 1.490 . S
C544 C546 1.395 . S
C544 C547 1.403 . S
H545 C551 0.930 . S
C546 H532 0.930 . S
C546 C544 1.395 . S
C546 C549 1.403 . S
C547 C544 1.403 . S
C547 C548 1.524 . S
C547 C551 1.400 . S
C548 H533 0.960 . S
C548 H534 0.960 . S
C548 H535 0.960 . S
C548 C547 1.524 . S
C549 C546 1.403 . S
C549 C550 1.392 . S
C549 C553 1.495 . S
C550 C549 1.392 . S
C550 C551 1.385 . S
C550 C552 1.478 . S
C551 H545 0.930 . S
C551 C547 1.400 . S
C551 C550 1.385 . S
C552 C550 1.478 . S
C552 C554 1.381 . S
C552 C558 1.383 . S
C553 C549 1.495 . S
C553 H559 0.959 . S
C553 H560 0.961 . S
C553 H561 0.960 . S
C554 C552 1.381 . S
C554 C555 1.394 . S
C554 H562 0.930 . S
C555 C554 1.394 . S
C555 C556 1.383 . S
C555 H563 0.929 . S
C556 C555 1.383 . S
C556 C557 1.377 . S
C557 H541 0.930 . S
C557 C556 1.377 . S
C557 C558 1.379 . S
C558 H542 0.931 . S
C558 C552 1.383 . S
C558 C557 1.379 . S
H559 C553 0.959 . S
H560 C553 0.961 . S
H561 C553 0.960 . S
H562 C554 0.930 . S
H563 C555 0.929 . S
H564 C572 0.929 . S
H565 C574 0.930 . S
H566 C576 0.930 . S
H567 C579 0.929 . S
H568 C582 0.930 . S
H569 C584 0.960 . S
H570 C584 0.960 . S
H571 C584 0.960 . S
C572 H564 0.929 . S
C572 C573 1.377 . S
C572 C574 1.384 . S
C573 C572 1.377 . S
C573 C579 1.390 1_556 S
C574 H565 0.930 . S
C574 C572 1.384 . S
C574 C575 1.372 . S
C575 C574 1.372 . S
C575 C576 1.400 1_556 S
C575 C580 1.489 . S
C576 H566 0.930 . S
C576 C575 1.400 1_554 S
C576 C579 1.386 . S
H577 C593 0.930 . S
H578 C594 0.931 . S
C579 H567 0.929 . S
C579 C573 1.390 1_554 S
C579 C576 1.386 . S
C580 C575 1.489 . S
C580 C582 1.392 . S
C580 C583 1.406 1_556 S
H581 C587 0.930 . S
C582 H568 0.930 . S
C582 C580 1.392 . S
C582 C585 1.403 . S
C583 C580 1.406 1_554 S
C583 C584 1.524 . S
C583 C587 1.400 . S
C584 H569 0.960 . S
C584 H570 0.960 . S
C584 H571 0.960 . S
C584 C583 1.524 . S
C585 C582 1.403 . S
C585 C586 1.392 1_556 S
C585 C589 1.495 . S
C586 C585 1.392 1_554 S
C586 C587 1.385 . S
C586 C588 1.478 . S
C587 H581 0.930 . S
C587 C583 1.400 . S
C587 C586 1.385 . S
C588 C586 1.478 . S
C588 C590 1.381 . S
C588 C594 1.383 . S
C589 C585 1.495 . S
C589 H595 0.959 . S
C589 H596 0.961 . S
C589 H597 0.960 . S
C590 C588 1.381 . S
C590 C591 1.394 . S
C590 H598 0.930 1_554 S
C591 C590 1.394 . S
C591 C592 1.383 . S
C591 H599 0.929 . S
C592 C591 1.383 . S
C592 C593 1.377 . S
C593 H577 0.930 . S
C593 C592 1.377 . S
C593 C594 1.379 . S
C594 H578 0.931 . S
C594 C588 1.383 . S
C594 C593 1.379 . S
H595 C589 0.959 . S
H596 C589 0.961 . S
H597 C589 0.960 . S
H598 C590 0.930 1_556 S
H599 C591 0.929 . S
H600 C608 0.929 . S
H601 C610 0.930 . S
H602 C612 0.930 . S
H603 C615 0.929 . S
H604 C618 0.930 . S
H605 C620 0.960 1_565 S
H606 C620 0.960 . S
H607 C620 0.960 . S
C608 H600 0.929 . S
C608 C609 1.377 . S
C608 C610 1.384 . S
C609 C608 1.377 . S
C609 C615 1.390 . S
C610 H601 0.930 . S
C610 C608 1.384 . S
C610 C611 1.372 . S
C611 C610 1.372 . S
C611 C612 1.400 . S
C611 C616 1.490 . S
C612 H602 0.930 . S
C612 C611 1.400 . S
C612 C615 1.386 . S
H613 C629 0.930 . S
H614 C630 0.931 . S
C615 H603 0.929 . S
C615 C609 1.390 . S
C615 C612 1.386 . S
C616 C611 1.490 . S
C616 C618 1.395 . S
C616 C619 1.403 . S
H617 C623 0.930 . S
C618 H604 0.930 . S
C618 C616 1.395 . S
C618 C621 1.403 1_545 S
C619 C616 1.403 . S
C619 C620 1.524 . S
C619 C623 1.400 1_545 S
C620 H605 0.960 1_545 S
C620 H606 0.960 . S
C620 H607 0.960 . S
C620 C619 1.524 . S
C621 C618 1.403 1_565 S
C621 C622 1.392 . S
C621 C625 1.495 . S
C622 C621 1.392 . S
C622 C623 1.385 . S
C622 C624 1.478 . S
C623 H617 0.930 . S
C623 C619 1.400 1_565 S
C623 C622 1.385 . S
C624 C622 1.478 . S
C624 C626 1.381 . S
C624 C630 1.383 . S
C625 C621 1.495 . S
C625 H631 0.959 1_565 S
C625 H632 0.961 . S
C625 H633 0.960 . S
C626 C624 1.381 . S
C626 C627 1.394 . S
C626 H634 0.930 . S
C627 C626 1.394 . S
C627 C628 1.383 . S
C627 H635 0.929 . S
C628 C627 1.383 . S
C628 C629 1.377 . S
C629 H613 0.930 . S
C629 C628 1.377 . S
C629 C630 1.379 . S
C630 H614 0.931 . S
C630 C624 1.383 . S
C630 C629 1.379 . S
H631 C625 0.959 1_545 S
H632 C625 0.961 . S
H633 C625 0.960 . S
H634 C626 0.930 . S
H635 C627 0.929 . S
H636 C644 0.929 . S
H637 C646 0.930 . S
H638 C648 0.930 . S
H639 C651 0.929 . S
H640 C654 0.930 . S
H641 C656 0.960 . S
H642 C656 0.960 . S
H643 C656 0.960 . S
C644 H636 0.929 . S
C644 C645 1.377 . S
C644 C646 1.384 . S
C645 C644 1.377 . S
C645 C651 1.390 . S
C646 H637 0.930 . S
C646 C644 1.384 . S
C646 C647 1.372 . S
C647 C646 1.372 . S
C647 C648 1.400 . S
C647 C652 1.490 . S
C648 H638 0.930 . S
C648 C647 1.400 . S
C648 C651 1.386 . S
H649 C665 0.930 . S
H650 C666 0.931 . S
C651 H639 0.929 . S
C651 C645 1.390 . S
C651 C648 1.386 . S
C652 C647 1.490 . S
C652 C654 1.395 . S
C652 C655 1.403 . S
H653 C659 0.930 . S
C654 H640 0.930 . S
C654 C652 1.395 . S
C654 C657 1.403 . S
C655 C652 1.403 . S
C655 C656 1.524 . S
C655 C659 1.400 . S
C656 H641 0.960 . S
C656 H642 0.960 . S
C656 H643 0.960 . S
C656 C655 1.524 . S
C657 C654 1.403 . S
C657 C658 1.392 . S
C657 C661 1.495 . S
C658 C657 1.392 . S
C658 C659 1.385 . S
C658 C660 1.478 . S
C659 H653 0.930 . S
C659 C655 1.400 . S
C659 C658 1.385 . S
C660 C658 1.478 . S
C660 C662 1.381 . S
C660 C666 1.383 . S
C661 C657 1.495 . S
C661 H667 0.959 . S
C661 H668 0.961 . S
C661 H669 0.960 . S
C662 C660 1.381 . S
C662 C663 1.394 . S
C662 H670 0.930 . S
C663 C662 1.394 . S
C663 C664 1.383 . S
C663 H671 0.929 . S
C664 C663 1.383 . S
C664 C665 1.377 . S
C665 H649 0.930 . S
C665 C664 1.377 . S
C665 C666 1.379 . S
C666 H650 0.931 . S
C666 C660 1.383 . S
C666 C665 1.379 . S
H667 C661 0.959 . S
H668 C661 0.961 . S
H669 C661 0.960 . S
H670 C662 0.930 . S
H671 C663 0.929 . S
H672 C680 0.929 . S
H673 C682 0.930 . S
H674 C684 0.930 . S
H675 C687 0.929 . S
H676 C690 0.930 . S
H677 C692 0.960 . S
H678 C692 0.960 . S
H679 C692 0.960 . S
C680 H672 0.929 . S
C680 C681 1.377 1_554 S
C680 C682 1.384 . S
C681 C680 1.377 1_556 S
C681 C687 1.390 . S
C682 H673 0.930 . S
C682 C680 1.384 . S
C682 C683 1.372 1_554 S
C683 C682 1.372 1_556 S
C683 C684 1.400 . S
C683 C688 1.490 . S
C684 H674 0.930 . S
C684 C683 1.400 . S
C684 C687 1.386 . S
H685 C701 0.930 . S
H686 C702 0.931 . S
C687 H675 0.929 . S
C687 C681 1.390 . S
C687 C684 1.386 . S
C688 C683 1.490 . S
C688 C690 1.395 . S
C688 C691 1.403 . S
H689 C695 0.930 . S
C690 H676 0.930 . S
C690 C688 1.395 . S
C690 C693 1.403 1_655 S
C691 C688 1.403 . S
C691 C692 1.524 . S
C691 C695 1.400 1_655 S
C692 H677 0.960 . S
C692 H678 0.960 . S
C692 H679 0.960 . S
C692 C691 1.524 . S
C693 C690 1.403 1_455 S
C693 C694 1.392 . S
C693 C697 1.495 1_556 S
C694 C693 1.392 . S
C694 C695 1.385 . S
C694 C696 1.478 . S
C695 H689 0.930 . S
C695 C691 1.400 1_455 S
C695 C694 1.385 . S
C696 C694 1.478 . S
C696 C698 1.381 1_556 S
C696 C702 1.383 . S
C697 C693 1.495 1_554 S
C697 H703 0.959 . S
C697 H704 0.961 1_554 S
C697 H705 0.960 . S
C698 C696 1.381 1_554 S
C698 C699 1.394 . S
C698 H706 0.930 . S
C699 C698 1.394 . S
C699 C700 1.383 1_554 S
C699 H707 0.929 . S
C700 C699 1.383 1_556 S
C700 C701 1.377 . S
C701 H685 0.930 . S
C701 C700 1.377 . S
C701 C702 1.379 . S
C702 H686 0.931 . S
C702 C696 1.383 . S
C702 C701 1.379 . S
H703 C697 0.959 . S
H704 C697 0.961 1_556 S
H705 C697 0.960 . S
H706 C698 0.930 . S
H707 C699 0.929 . S
H708 C716 0.929 . S
H709 C718 0.930 . S
H710 C720 0.930 . S
H711 C723 0.929 . S
H712 C726 0.930 . S
H713 C728 0.960 . S
H714 C728 0.960 . S
H715 C728 0.960 . S
C716 H708 0.929 . S
C716 C717 1.377 . S
C716 C718 1.384 . S
C717 C716 1.377 . S
C717 C723 1.390 . S
C718 H709 0.930 . S
C718 C716 1.384 . S
C718 C719 1.372 . S
C719 C718 1.372 . S
C719 C720 1.400 . S
C719 C724 1.490 . S
C720 H710 0.930 . S
C720 C719 1.400 . S
C720 C723 1.386 . S
H721 C737 0.930 . S
H722 C738 0.931 . S
C723 H711 0.929 . S
C723 C717 1.390 . S
C723 C720 1.386 . S
C724 C719 1.490 . S
C724 C726 1.395 . S
C724 C727 1.403 . S
H725 C731 0.930 . S
C726 H712 0.930 . S
C726 C724 1.395 . S
C726 C729 1.403 1_455 S
C727 C724 1.403 . S
C727 C728 1.524 . S
C727 C731 1.400 1_455 S
C728 H713 0.960 . S
C728 H714 0.960 . S
C728 H715 0.960 . S
C728 C727 1.524 . S
C729 C726 1.403 1_655 S
C729 C730 1.392 . S
C729 C733 1.495 . S
C730 C729 1.392 . S
C730 C731 1.385 . S
C730 C732 1.478 . S
C731 H725 0.930 . S
C731 C727 1.400 1_655 S
C731 C730 1.385 . S
C732 C730 1.478 . S
C732 C734 1.381 . S
C732 C738 1.383 . S
C733 C729 1.495 . S
C733 H739 0.959 . S
C733 H740 0.961 . S
C733 H741 0.960 . S
C734 C732 1.381 . S
C734 C735 1.394 . S
C734 H742 0.930 . S
C735 C734 1.394 . S
C735 C736 1.383 . S
C735 H743 0.929 . S
C736 C735 1.383 . S
C736 C737 1.377 . S
C737 H721 0.930 . S
C737 C736 1.377 . S
C737 C738 1.379 . S
C738 H722 0.931 . S
C738 C732 1.383 . S
C738 C737 1.379 . S
H739 C733 0.959 . S
H740 C733 0.961 . S
H741 C733 0.960 . S
H742 C734 0.930 . S
H743 C735 0.929 . S
H744 C752 0.929 . S
H745 C754 0.930 . S
H746 C756 0.930 . S
H747 C759 0.929 . S
H748 C762 0.930 . S
H749 C764 0.960 . S
H750 C764 0.960 . S
H751 C764 0.960 . S
C752 H744 0.929 . S
C752 C753 1.377 . S
C752 C754 1.384 . S
C753 C752 1.377 . S
C753 C759 1.390 . S
C754 H745 0.930 . S
C754 C752 1.384 . S
C754 C755 1.372 . S
C755 C754 1.372 . S
C755 C756 1.400 . S
C755 C760 1.490 . S
C756 H746 0.930 . S
C756 C755 1.400 . S
C756 C759 1.386 . S
H757 C773 0.930 . S
H758 C774 0.931 . S
C759 H747 0.929 . S
C759 C753 1.390 . S
C759 C756 1.386 . S
C760 C755 1.490 . S
C760 C762 1.395 . S
C760 C763 1.403 . S
H761 C767 0.930 . S
C762 H748 0.930 . S
C762 C760 1.395 . S
C762 C765 1.403 1_545 S
C763 C760 1.403 . S
C763 C764 1.524 . S
C763 C767 1.400 1_545 S
C764 H749 0.960 . S
C764 H750 0.960 . S
C764 H751 0.960 . S
C764 C763 1.524 . S
C765 C762 1.403 1_565 S
C765 C766 1.392 . S
C765 C769 1.495 . S
C766 C765 1.392 . S
C766 C767 1.385 . S
C766 C768 1.478 . S
C767 H761 0.930 . S
C767 C763 1.400 1_565 S
C767 C766 1.385 . S
C768 C766 1.478 . S
C768 C770 1.381 . S
C768 C774 1.383 . S
C769 C765 1.495 . S
C769 H775 0.959 . S
C769 H776 0.961 . S
C769 H777 0.960 . S
C770 C768 1.381 . S
C770 C771 1.394 . S
C770 H778 0.930 . S
C771 C770 1.394 . S
C771 C772 1.383 . S
C771 H779 0.929 . S
C772 C771 1.383 . S
C772 C773 1.377 . S
C773 H757 0.930 . S
C773 C772 1.377 . S
C773 C774 1.379 . S
C774 H758 0.931 . S
C774 C768 1.383 . S
C774 C773 1.379 . S
H775 C769 0.959 . S
H776 C769 0.961 . S
H777 C769 0.960 . S
H778 C770 0.930 . S
H779 C771 0.929 . S
H780 C788 0.929 1_556 S
H781 C790 0.930 1_556 S
H782 C792 0.930 . S
H783 C795 0.929 . S
H784 C798 0.930 . S
H785 C800 0.960 . S
H786 C800 0.960 . S
H787 C800 0.960 . S
C788 H780 0.929 1_554 S
C788 C789 1.377 . S
C788 C790 1.384 . S
C789 C788 1.377 . S
C789 C795 1.390 . S
C790 H781 0.930 1_554 S
C790 C788 1.384 . S
C790 C791 1.372 . S
C791 C790 1.372 . S
C791 C792 1.400 . S
C791 C796 1.490 . S
C792 H782 0.930 . S
C792 C791 1.400 . S
C792 C795 1.386 . S
H793 C809 0.930 . S
H794 C810 0.931 . S
C795 H783 0.929 . S
C795 C789 1.390 . S
C795 C792 1.386 . S
C796 C791 1.490 . S
C796 C798 1.395 . S
C796 C799 1.403 . S
H797 C803 0.930 . S
C798 H784 0.930 . S
C798 C796 1.395 . S
C798 C801 1.403 . S
C799 C796 1.403 . S
C799 C800 1.524 . S
C799 C803 1.400 . S
C800 H785 0.960 . S
C800 H786 0.960 . S
C800 H787 0.960 . S
C800 C799 1.524 . S
C801 C798 1.403 . S
C801 C802 1.392 . S
C801 C805 1.495 . S
C802 C801 1.392 . S
C802 C803 1.385 . S
C802 C804 1.478 . S
C803 H797 0.930 . S
C803 C799 1.400 . S
C803 C802 1.385 . S
C804 C802 1.478 . S
C804 C806 1.381 . S
C804 C810 1.383 . S
C805 C801 1.495 . S
C805 H811 0.959 . S
C805 H812 0.961 . S
C805 H813 0.960 . S
C806 C804 1.381 . S
C806 C807 1.394 . S
C806 H814 0.930 1_554 S
C807 C806 1.394 . S
C807 C808 1.383 . S
C807 H815 0.929 1_554 S
C808 C807 1.383 . S
C808 C809 1.377 . S
C809 H793 0.930 . S
C809 C808 1.377 . S
C809 C810 1.379 . S
C810 H794 0.931 . S
C810 C804 1.383 . S
C810 C809 1.379 . S
H811 C805 0.959 . S
H812 C805 0.961 . S
H813 C805 0.960 . S
H814 C806 0.930 1_556 S
H815 C807 0.929 1_556 S
H816 C824 0.929 . S
H817 C826 0.930 . S
H818 C828 0.930 . S
H819 C831 0.929 . S
H820 C834 0.930 . S
H821 C836 0.960 . S
H822 C836 0.960 . S
H823 C836 0.960 . S
C824 H816 0.929 . S
C824 C825 1.377 . S
C824 C826 1.384 . S
C825 C824 1.377 . S
C825 C831 1.390 . S
C826 H817 0.930 . S
C826 C824 1.384 . S
C826 C827 1.372 . S
C827 C826 1.372 . S
C827 C828 1.400 . S
C827 C832 1.490 . S
C828 H818 0.930 . S
C828 C827 1.400 . S
C828 C831 1.386 . S
H829 C845 0.930 . S
H830 C846 0.931 . S
C831 H819 0.929 . S
C831 C825 1.390 . S
C831 C828 1.386 . S
C832 C827 1.490 . S
C832 C834 1.395 . S
C832 C835 1.403 . S
H833 C839 0.930 . S
C834 H820 0.930 . S
C834 C832 1.395 . S
C834 C837 1.403 . S
C835 C832 1.403 . S
C835 C836 1.524 . S
C835 C839 1.400 . S
C836 H821 0.960 . S
C836 H822 0.960 . S
C836 H823 0.960 . S
C836 C835 1.524 . S
C837 C834 1.403 . S
C837 C838 1.392 . S
C837 C841 1.495 . S
C838 C837 1.392 . S
C838 C839 1.385 . S
C838 C840 1.478 . S
C839 H833 0.930 . S
C839 C835 1.400 . S
C839 C838 1.385 . S
C840 C838 1.478 . S
C840 C842 1.381 . S
C840 C846 1.383 . S
C841 C837 1.495 . S
C841 H847 0.959 . S
C841 H848 0.961 . S
C841 H849 0.960 . S
C842 C840 1.381 . S
C842 C843 1.394 . S
C842 H850 0.930 . S
C843 C842 1.394 . S
C843 C844 1.383 . S
C843 H851 0.929 . S
C844 C843 1.383 . S
C844 C845 1.377 . S
C845 H829 0.930 . S
C845 C844 1.377 . S
C845 C846 1.379 . S
C846 H830 0.931 . S
C846 C840 1.383 . S
C846 C845 1.379 . S
H847 C841 0.959 . S
H848 C841 0.961 . S
H849 C841 0.960 . S
H850 C842 0.930 . S
H851 C843 0.929 . S
H852 C860 0.929 . S
H853 C862 0.930 . S
H854 C864 0.930 . S
H855 C867 0.929 . S
H856 C870 0.930 . S
H857 C872 0.960 . S
H858 C872 0.960 . S
H859 C872 0.960 . S
C860 H852 0.929 . S
C860 C861 1.377 . S
C860 C862 1.384 . S
C861 C860 1.377 . S
C861 C867 1.390 . S
C862 H853 0.930 . S
C862 C860 1.384 . S
C862 C863 1.372 . S
C863 C862 1.372 . S
C863 C864 1.400 . S
C863 C868 1.490 . S
C864 H854 0.930 . S
C864 C863 1.400 . S
C864 C867 1.386 . S
H865 C881 0.930 . S
H866 C882 0.931 . S
C867 H855 0.929 . S
C867 C861 1.390 . S
C867 C864 1.386 . S
C868 C863 1.490 . S
C868 C870 1.395 . S
C868 C871 1.403 . S
H869 C875 0.930 . S
C870 H856 0.930 . S
C870 C868 1.395 . S
C870 C873 1.403 . S
C871 C868 1.403 . S
C871 C872 1.524 . S
C871 C875 1.400 . S
C872 H857 0.960 . S
C872 H858 0.960 . S
C872 H859 0.960 . S
C872 C871 1.524 . S
C873 C870 1.403 . S
C873 C874 1.392 . S
C873 C877 1.495 . S
C874 C873 1.392 . S
C874 C875 1.385 . S
C874 C876 1.478 . S
C875 H869 0.930 . S
C875 C871 1.400 . S
C875 C874 1.385 . S
C876 C874 1.478 . S
C876 C878 1.381 . S
C876 C882 1.383 . S
C877 C873 1.495 . S
C877 H883 0.959 . S
C877 H884 0.961 . S
C877 H885 0.960 . S
C878 C876 1.381 . S
C878 C879 1.394 . S
C878 H886 0.930 . S
C879 C878 1.394 . S
C879 C880 1.383 . S
C879 H887 0.929 . S
C880 C879 1.383 . S
C880 C881 1.377 . S
C881 H865 0.930 . S
C881 C880 1.377 . S
C881 C882 1.379 . S
C882 H866 0.931 . S
C882 C876 1.383 . S
C882 C881 1.379 . S
H883 C877 0.959 . S
H884 C877 0.961 . S
H885 C877 0.960 . S
H886 C878 0.930 . S
H887 C879 0.929 . S
H888 C896 0.929 . S
H889 C898 0.930 . S
H890 C900 0.930 . S
H891 C903 0.929 . S
H892 C906 0.930 . S
H893 C908 0.960 . S
H894 C908 0.960 . S
H895 C908 0.960 . S
C896 H888 0.929 . S
C896 C897 1.377 . S
C896 C898 1.384 . S
C897 C896 1.377 . S
C897 C903 1.390 . S
C898 H889 0.930 . S
C898 C896 1.384 . S
C898 C899 1.372 . S
C899 C898 1.372 . S
C899 C900 1.400 . S
C899 C904 1.490 . S
C900 H890 0.930 . S
C900 C899 1.400 . S
C900 C903 1.386 . S
H901 C917 0.930 . S
H902 C918 0.931 . S
C903 H891 0.929 . S
C903 C897 1.390 . S
C903 C900 1.386 . S
C904 C899 1.490 . S
C904 C906 1.395 . S
C904 C907 1.403 . S
H905 C911 0.930 . S
C906 H892 0.930 . S
C906 C904 1.395 . S
C906 C909 1.403 . S
C907 C904 1.403 . S
C907 C908 1.524 . S
C907 C911 1.400 . S
C908 H893 0.960 . S
C908 H894 0.960 . S
C908 H895 0.960 . S
C908 C907 1.524 . S
C909 C906 1.403 . S
C909 C910 1.392 . S
C909 C913 1.495 . S
C910 C909 1.392 . S
C910 C911 1.385 . S
C910 C912 1.478 . S
C911 H905 0.930 . S
C911 C907 1.400 . S
C911 C910 1.385 . S
C912 C910 1.478 . S
C912 C914 1.381 . S
C912 C918 1.383 . S
C913 C909 1.495 . S
C913 H919 0.959 . S
C913 H920 0.961 . S
C913 H921 0.960 . S
C914 C912 1.381 . S
C914 C915 1.394 . S
C914 H922 0.930 . S
C915 C914 1.394 . S
C915 C916 1.383 . S
C915 H923 0.929 . S
C916 C915 1.383 . S
C916 C917 1.377 . S
C917 H901 0.930 . S
C917 C916 1.377 . S
C917 C918 1.379 . S
C918 H902 0.931 . S
C918 C912 1.383 . S
C918 C917 1.379 . S
H919 C913 0.959 . S
H920 C913 0.961 . S
H921 C913 0.960 . S
H922 C914 0.930 . S
H923 C915 0.929 . S
H924 C932 0.929 . S
H925 C934 0.930 . S
H926 C936 0.930 . S
H927 C939 0.929 . S
H928 C942 0.930 . S
H929 C944 0.960 . S
H930 C944 0.960 . S
H931 C944 0.960 . S
C932 H924 0.929 . S
C932 C933 1.377 . S
C932 C934 1.384 . S
C933 C932 1.377 . S
C933 C939 1.390 . S
C934 H925 0.930 . S
C934 C932 1.384 . S
C934 C935 1.372 . S
C935 C934 1.372 . S
C935 C936 1.400 . S
C935 C940 1.490 . S
C936 H926 0.930 . S
C936 C935 1.400 . S
C936 C939 1.386 . S
H937 C953 0.930 . S
H938 C954 0.931 . S
C939 H927 0.929 . S
C939 C933 1.390 . S
C939 C936 1.386 . S
C940 C935 1.490 . S
C940 C942 1.395 . S
C940 C943 1.403 . S
H941 C947 0.930 . S
C942 H928 0.930 . S
C942 C940 1.395 . S
C942 C945 1.403 . S
C943 C940 1.403 . S
C943 C944 1.524 . S
C943 C947 1.400 . S
C944 H929 0.960 . S
C944 H930 0.960 . S
C944 H931 0.960 . S
C944 C943 1.524 . S
C945 C942 1.403 . S
C945 C946 1.392 . S
C945 C949 1.495 . S
C946 C945 1.392 . S
C946 C947 1.385 . S
C946 C948 1.478 . S
C947 H941 0.930 . S
C947 C943 1.400 . S
C947 C946 1.385 . S
C948 C946 1.478 . S
C948 C950 1.381 . S
C948 C954 1.383 . S
C949 C945 1.495 . S
C949 H955 0.959 . S
C949 H956 0.961 . S
C949 H957 0.960 . S
C950 C948 1.381 . S
C950 C951 1.394 . S
C950 H958 0.930 . S
C951 C950 1.394 . S
C951 C952 1.383 . S
C951 H959 0.929 . S
C952 C951 1.383 . S
C952 C953 1.377 . S
C953 H937 0.930 . S
C953 C952 1.377 . S
C953 C954 1.379 . S
C954 H938 0.931 . S
C954 C948 1.383 . S
C954 C953 1.379 . S
H955 C949 0.959 . S
H956 C949 0.961 . S
H957 C949 0.960 . S
H958 C950 0.930 . S
H959 C951 0.929 . S
H960 C968 0.929 . S
H961 C970 0.930 . S
H962 C972 0.930 . S
H963 C975 0.929 . S
H964 C978 0.930 . S
H965 C980 0.960 . S
H966 C980 0.960 . S
H967 C980 0.960 . S
C968 H960 0.929 . S
C968 C969 1.377 . S
C968 C970 1.384 . S
C969 C968 1.377 . S
C969 C975 1.390 . S
C970 H961 0.930 . S
C970 C968 1.384 . S
C970 C971 1.372 . S
C971 C970 1.372 . S
C971 C972 1.400 . S
C971 C976 1.490 . S
C972 H962 0.930 . S
C972 C971 1.400 . S
C972 C975 1.386 . S
H973 C989 0.930 . S
H974 C990 0.931 . S
C975 H963 0.929 . S
C975 C969 1.390 . S
C975 C972 1.386 . S
C976 C971 1.490 . S
C976 C978 1.395 . S
C976 C979 1.403 . S
H977 C983 0.930 . S
C978 H964 0.930 . S
C978 C976 1.395 . S
C978 C981 1.403 . S
C979 C976 1.403 . S
C979 C980 1.524 . S
C979 C983 1.400 . S
C980 H965 0.960 . S
C980 H966 0.960 . S
C980 H967 0.960 . S
C980 C979 1.524 . S
C981 C978 1.403 . S
C981 C982 1.392 . S
C981 C985 1.495 . S
C982 C981 1.392 . S
C982 C983 1.385 . S
C982 C984 1.478 . S
C983 H977 0.930 . S
C983 C979 1.400 . S
C983 C982 1.385 . S
C984 C982 1.478 . S
C984 C986 1.381 . S
C984 C990 1.383 . S
C985 C981 1.495 . S
C985 H991 0.959 . S
C985 H992 0.961 . S
C985 H993 0.960 . S
C986 C984 1.381 . S
C986 C987 1.394 . S
C986 H994 0.930 . S
C987 C986 1.394 . S
C987 C988 1.383 . S
C987 H995 0.929 . S
C988 C987 1.383 . S
C988 C989 1.377 . S
C989 H973 0.930 . S
C989 C988 1.377 . S
C989 C990 1.379 . S
C990 H974 0.931 . S
C990 C984 1.383 . S
C990 C989 1.379 . S
H991 C985 0.959 . S
H992 C985 0.961 . S
H993 C985 0.960 . S
H994 C986 0.930 . S
H995 C987 0.929 . S
H996 C1004 0.929 . S
H997 C1006 0.930 . S
H998 C1008 0.930 . S
H999 C1011 0.929 . S
H1000 C1014 0.930 . S
H1001 C1016 0.960 . S
H1002 C1016 0.960 . S
H1003 C1016 0.960 . S
C1004 H996 0.929 . S
C1004 C1005 1.377 . S
C1004 C1006 1.384 . S
C1005 C1004 1.377 . S
C1005 C1011 1.390 . S
C1006 H997 0.930 . S
C1006 C1004 1.384 . S
C1006 C1007 1.372 . S
C1007 C1006 1.372 . S
C1007 C1008 1.400 . S
C1007 C1012 1.490 . S
C1008 H998 0.930 . S
C1008 C1007 1.400 . S
C1008 C1011 1.386 . S
H1009 C1025 0.930 . S
H1010 C1026 0.931 . S
C1011 H999 0.929 . S
C1011 C1005 1.390 . S
C1011 C1008 1.386 . S
C1012 C1007 1.490 . S
C1012 C1014 1.395 . S
C1012 C1015 1.403 . S
H1013 C1019 0.930 . S
C1014 H1000 0.930 . S
C1014 C1012 1.395 . S
C1014 C1017 1.403 . S
C1015 C1012 1.403 . S
C1015 C1016 1.524 . S
C1015 C1019 1.400 . S
C1016 H1001 0.960 . S
C1016 H1002 0.960 . S
C1016 H1003 0.960 . S
C1016 C1015 1.524 . S
C1017 C1014 1.403 . S
C1017 C1018 1.392 . S
C1017 C1021 1.495 . S
C1018 C1017 1.392 . S
C1018 C1019 1.385 . S
C1018 C1020 1.478 . S
C1019 H1013 0.930 . S
C1019 C1015 1.400 . S
C1019 C1018 1.385 . S
C1020 C1018 1.478 . S
C1020 C1022 1.381 . S
C1020 C1026 1.383 . S
C1021 C1017 1.495 . S
C1021 H1027 0.959 . S
C1021 H1028 0.961 . S
C1021 H1029 0.960 . S
C1022 C1020 1.381 . S
C1022 C1023 1.394 . S
C1022 H1030 0.930 . S
C1023 C1022 1.394 . S
C1023 C1024 1.383 . S
C1023 H1031 0.929 . S
C1024 C1023 1.383 . S
C1024 C1025 1.377 . S
C1025 H1009 0.930 . S
C1025 C1024 1.377 . S
C1025 C1026 1.379 . S
C1026 H1010 0.931 . S
C1026 C1020 1.383 . S
C1026 C1025 1.379 . S
H1027 C1021 0.959 . S
H1028 C1021 0.961 . S
H1029 C1021 0.960 . S
H1030 C1022 0.930 . S
H1031 C1023 0.929 . S
C177 C7 1.446 . S
C196 C147 1.439 . S
C213 C21 1.444 . S
C232 C161 1.416 . S
C249 C91 1.453 . S
C268 C35 1.472 . S
C285 C49 1.447 . S
C304 C105 1.424 . S
C321 C119 1.453 . S
C340 C63 1.451 . S
C357 C133 1.448 . S
C376 C77 1.427 . S
C393 C93 0.311 . S
C412 C9 0.315 . S
C429 C107 0.285 . S
C448 C23 0.406 . S
C465 C121 0.284 . S
C484 C37 0.404 . S
C501 C51 0.323 . S
C520 C135 0.245 . S
C537 C65 0.325 . S
C556 C149 0.206 . S
C573 C79 0.317 . S
C592 C163 0.249 . S
C609 C8 1.415 . S
C628 C50 1.416 . S
C645 C22 1.411 . S
C664 C64 1.402 . S
C681 C36 1.410 . S
C700 C78 1.398 . S
C717 C134 1.412 . S
C736 C92 1.402 . S
C753 C148 1.412 . S
C772 C106 1.405 . S
C789 C162 1.411 . S
C808 C120 1.400 . S
C825 C3 1.464 . S
C844 C115 1.488 . S
C861 C129 1.465 . S
C880 C17 1.465 . S
C897 C31 1.464 . S
C916 C143 1.466 . S
C933 C157 1.469 . S
C952 C45 1.446 . S
C969 C59 1.472 . S
C988 C87 1.455 . S
C1005 C73 1.470 . S
C1024 C101 1.440 . S
