# Generated by pormake.
# Topology ecf, (8)-cn, num edge types: 1
# Building blocks:
#     Node 0, Type 0, BuildingBlock: TAGTUT_clean_sbu_1, # of connection points: 8
#     Node 1, Type 0, BuildingBlock: TAGTUT_clean_sbu_1, # of connection points: 8
#     Node 2, Type 0, BuildingBlock: TAGTUT_clean_sbu_1, # of connection points: 8
#     Node 3, Type 0, BuildingBlock: TAGTUT_clean_sbu_1, # of connection points: 8
#     Node 4, Type 0, BuildingBlock: TAGTUT_clean_sbu_1, # of connection points: 8
#     Node 5, Type 0, BuildingBlock: TAGTUT_clean_sbu_1, # of connection points: 8
#     Edge 6, Type (0, 0), BuildingBlock: OJICUG_clean_linker_0, # of connection points: 2
#     Edge 7, Type (0, 0), BuildingBlock: OJICUG_clean_linker_0, # of connection points: 2
#     Edge 8, Type (0, 0), BuildingBlock: OJICUG_clean_linker_0, # of connection points: 2
#     Edge 9, Type (0, 0), BuildingBlock: OJICUG_clean_linker_0, # of connection points: 2
#     Edge 10, Type (0, 0), BuildingBlock: OJICUG_clean_linker_0, # of connection points: 2
#     Edge 11, Type (0, 0), BuildingBlock: OJICUG_clean_linker_0, # of connection points: 2
#     Edge 12, Type (0, 0), BuildingBlock: OJICUG_clean_linker_0, # of connection points: 2
#     Edge 13, Type (0, 0), BuildingBlock: OJICUG_clean_linker_0, # of connection points: 2
#     Edge 14, Type (0, 0), BuildingBlock: OJICUG_clean_linker_0, # of connection points: 2
#     Edge 15, Type (0, 0), BuildingBlock: OJICUG_clean_linker_0, # of connection points: 2
#     Edge 16, Type (0, 0), BuildingBlock: OJICUG_clean_linker_0, # of connection points: 2
#     Edge 17, Type (0, 0), BuildingBlock: OJICUG_clean_linker_0, # of connection points: 2
#     Edge 18, Type (0, 0), BuildingBlock: OJICUG_clean_linker_0, # of connection points: 2
#     Edge 19, Type (0, 0), BuildingBlock: OJICUG_clean_linker_0, # of connection points: 2
#     Edge 20, Type (0, 0), BuildingBlock: OJICUG_clean_linker_0, # of connection points: 2
#     Edge 21, Type (0, 0), BuildingBlock: OJICUG_clean_linker_0, # of connection points: 2
#     Edge 22, Type (0, 0), BuildingBlock: OJICUG_clean_linker_0, # of connection points: 2
#     Edge 23, Type (0, 0), BuildingBlock: OJICUG_clean_linker_0, # of connection points: 2
#     Edge 24, Type (0, 0), BuildingBlock: OJICUG_clean_linker_0, # of connection points: 2
#     Edge 25, Type (0, 0), BuildingBlock: OJICUG_clean_linker_0, # of connection points: 2
#     Edge 26, Type (0, 0), BuildingBlock: OJICUG_clean_linker_0, # of connection points: 2
#     Edge 27, Type (0, 0), BuildingBlock: OJICUG_clean_linker_0, # of connection points: 2
#     Edge 28, Type (0, 0), BuildingBlock: OJICUG_clean_linker_0, # of connection points: 2
#     Edge 29, Type (0, 0), BuildingBlock: OJICUG_clean_linker_0, # of connection points: 2
# Relax obj value: 0.213
# Max RMSD: 0.210
# Mean RMSD: 0.189
data_MOF--net-ecf--node1-TAGTUT_clean_sbu_1--edge1-OJICUG_clean_linker_0
_symmetry_space_group_name_H-M    P1
_symmetry_Int_Tables_number       1
_symmetry_cell_setting            triclinic
loop_
_symmetry_equiv_pos_as_xyz
'x, y, z'
_cell_length_a     26.163142
_cell_length_b     26.775808
_cell_length_c     20.817748
_cell_angle_alpha  98.303215
_cell_angle_beta   89.969565
_cell_angle_gamma 119.80126
loop_
_atom_site_label
_atom_site_type_symbol
_atom_site_fract_x
_atom_site_fract_y
_atom_site_fract_z
_atom_type_partial_charge
C0 C 0.97219 0.14127 0.1597 0.0
C1 C 0.07803 0.29644 0.0798 0.0
C2 C 0.2646 0.28613 0.13337 0.0
Mg3 Mg 0.05202 0.27153 0.21498 0.0
O4 O 0.10305 0.24192 0.22235 0.0
Mg5 Mg 0.11788 0.20882 0.13679 0.0
Mg6 Mg 0.18301 0.3069 0.25112 0.0
O7 O 0.26192 0.37416 0.27716 0.0
Mg8 Mg 0.33304 0.37328 0.26691 0.0
Mg9 Mg 0.24607 0.40672 0.36237 0.0
C10 C 0.09928 0.32263 0.36226 0.0
C11 C 0.17445 0.42229 0.24977 0.0
O12 O 0.0173 0.13889 0.13793 0.0
O13 O 0.97558 0.18851 0.1884 0.0
O14 O 0.09283 0.25741 0.07419 0.0
O15 O 0.06619 0.31494 0.13406 0.0
O16 O 0.06537 0.3163 0.31352 0.0
O17 O 0.14881 0.32276 0.3544 0.0
C18 C 0.17896 0.18867 0.25717 0.0
O19 O 0.20232 0.24169 0.28507 0.0
O20 O 0.14642 0.16814 0.2034 0.0
O21 O 0.33711 0.48915 0.35619 0.0
O22 O 0.39014 0.46677 0.2843 0.0
O23 O 0.29134 0.36739 0.41708 0.0
C24 C 0.38261 0.50389 0.32326 0.0
O25 O 0.34355 0.34008 0.35019 0.0
O26 O 0.31308 0.31785 0.17015 0.0
C27 C 0.32488 0.34534 0.40599 0.0
O28 O 0.216 0.2842 0.15065 0.0
O29 O 0.16141 0.37242 0.21795 0.0
O30 O 0.20442 0.44279 0.30485 0.0
C31 C 0.85812 0.37067 0.67127 0.0
C32 C 0.95604 0.28342 0.58533 0.0
C33 C 0.74831 0.08723 0.64743 0.0
Mg34 Mg 0.93792 0.32828 0.72324 0.0
O35 O 0.86443 0.26023 0.72113 0.0
Mg36 Mg 0.81318 0.22641 0.63836 0.0
Mg37 Mg 0.85311 0.1874 0.74815 0.0
O38 O 0.83983 0.11419 0.77779 0.0
Mg39 Mg 0.76118 0.06454 0.7918 0.0
Mg40 Mg 0.89542 0.14727 0.85778 0.0
C41 C 0.95681 0.29026 0.85469 0.0
C42 C 0.9665 0.17367 0.72584 0.0
O43 O 0.82442 0.31881 0.63984 0.0
O44 O 0.90413 0.38409 0.70756 0.0
O45 O 0.89906 0.2508 0.57621 0.0
O46 O -0.0192 0.31537 0.64018 0.0
O47 O 0.97321 0.3293 0.81794 0.0
O48 O 0.91087 0.2391 0.84093 0.0
C49 C 0.72948 0.18636 0.76036 0.0
O50 O 0.76794 0.17817 0.78777 0.0
O51 O 0.73624 0.20409 0.70512 0.0
O52 O 0.86951 0.05101 0.8618 0.0
O53 O 0.77531 -0.00212 0.81708 0.0
O54 O 0.82378 0.12822 0.93192 0.0
C55 C 0.82101 0.00203 0.84543 0.0
O56 O 0.73519 0.09319 0.88092 0.0
O57 O 0.7269 0.05795 0.69417 0.0
C58 C 0.76788 0.10686 0.93316 0.0
O59 O 0.79823 0.13526 0.65423 0.0
O60 O 0.93482 0.19262 0.70425 0.0
O61 O 0.95996 0.15599 0.78083 0.0
C62 C 0.46488 0.86091 0.18334 0.0
C63 C 0.64433 0.95696 0.12124 0.0
C64 C 0.63898 0.75328 0.1732 0.0
Mg65 Mg 0.58978 0.94112 0.25314 0.0
O66 O 0.58696 0.86925 0.24673 0.0
Mg67 Mg 0.56587 0.81822 0.16017 0.0
Mg68 Mg 0.65213 0.85867 0.27823 0.0
O69 O 0.71551 0.84585 0.31147 0.0
Mg70 Mg 0.68766 0.7681 0.31929 0.0
Mg71 Mg 0.74354 0.90133 0.39538 0.0
C72 C 0.65781 0.96079 0.39024 0.0
C73 C 0.77831 0.9711 0.27066 0.0
O74 O 0.48386 0.82908 0.15248 0.0
O75 O 0.49744 0.90554 0.22667 0.0
O76 O 0.62315 0.9013 0.10804 0.0
O77 O 0.63773 -0.01844 0.17512 0.0
O78 O 0.63186 0.9769 0.35243 0.0
O79 O 0.66319 0.91555 0.37404 0.0
C80 C 0.53038 0.73662 0.27406 0.0
O81 O 0.57895 0.77464 0.30737 0.0
O82 O 0.51553 0.7431 0.21837 0.0
O83 O 0.81631 0.87575 0.40095 0.0
O84 O 0.77173 0.78233 0.34899 0.0
O85 O 0.69685 0.83124 0.46229 0.0
C86 C 0.81606 0.82765 0.38138 0.0
O87 O 0.64049 0.74307 0.40385 0.0
O88 O 0.65094 0.73214 0.21895 0.0
C89 C 0.66265 0.77615 0.45874 0.0
O90 O 0.64387 0.80398 0.1825 0.0
O91 O 0.72555 0.93919 0.24416 0.0
O92 O 0.79393 0.96539 0.32619 0.0
C93 C -0.01838 0.77548 0.70261 0.0
C94 C 0.86395 0.61789 0.60107 0.0
C95 C 0.68903 0.66007 0.66016 0.0
Mg96 Mg 0.89685 0.66328 0.74601 0.0
O97 O 0.85632 0.7052 0.75371 0.0
Mg98 Mg 0.83734 0.72344 0.67052 0.0
Mg99 Mg 0.77644 0.65234 0.77298 0.0
O100 O 0.69731 0.59391 0.78863 0.0
Mg101 Mg 0.6283 0.59793 0.77941 0.0
Mg102 Mg 0.71654 0.56825 0.86587 0.0
C103 C 0.861 0.64529 0.88679 0.0
C104 C 0.77297 0.52764 0.74689 0.0
O105 O 0.93862 0.77795 0.67613 0.0
O106 O 0.97567 0.7358 0.73405 0.0
O107 O 0.84708 0.65511 0.60079 0.0
O108 O 0.8795 0.60853 0.65388 0.0
O109 O 0.89294 0.64168 0.84179 0.0
O110 O 0.8139 0.64767 0.87419 0.0
C111 C 0.8032 0.78368 0.79701 0.0
O112 O 0.77417 0.73487 0.81796 0.0
O113 O 0.82941 0.78867 0.74437 0.0
O114 O 0.62341 0.49093 0.84338 0.0
O115 O 0.56774 0.50751 0.77631 0.0
O116 O 0.68085 0.61982 0.92863 0.0
C117 C 0.57615 0.47405 0.80741 0.0
O118 O 0.62817 0.64571 0.87028 0.0
O119 O 0.64302 0.63664 0.69183 0.0
C120 C 0.65044 0.6449 0.92428 0.0
O121 O 0.73771 0.66227 0.67769 0.0
O122 O 0.7851 0.57431 0.72552 0.0
O123 O 0.74875 0.51629 0.79998 0.0
C124 C 0.1741 -0.01582 0.22826 0.0
C125 C 0.20194 0.8691 0.09062 0.0
C126 C -0.00494 0.69714 0.13106 0.0
Mg127 Mg 0.21069 0.89527 0.23882 0.0
O128 O 0.12863 0.85627 0.24619 0.0
Mg129 Mg 0.07919 0.84379 0.1664 0.0
Mg130 Mg 0.10365 0.77621 0.25333 0.0
O131 O 0.08413 0.69676 0.25655 0.0
Mg132 Mg 0.01073 0.62856 0.23458 0.0
Mg133 Mg 0.13558 0.71071 0.33464 0.0
C134 C 0.20883 0.85576 0.37142 0.0
C135 C 0.22305 0.77138 0.22568 0.0
O136 O 0.12468 0.94402 0.19711 0.0
O137 O 0.21509 0.97558 0.24689 0.0
O138 O 0.14839 0.85738 0.09212 0.0
O139 O 0.23349 0.87923 0.14251 0.0
O140 O 0.24108 0.87938 0.32615 0.0
O141 O 0.15668 0.80968 0.35802 0.0
C142 C 0.00157 0.80352 0.29009 0.0
O143 O 0.02425 0.77276 0.30208 0.0
O144 O 0.01485 0.83147 0.24213 0.0
O145 O 0.11836 0.61841 0.29666 0.0
O146 O 0.04193 0.56806 0.21959 0.0
O147 O 0.05077 0.67212 0.39245 0.0
C148 C 0.0863 0.57402 0.25274 0.0
O149 O 0.96937 0.62126 0.32259 0.0
O150 O 0.97607 0.64995 0.15485 0.0
C151 C -0.00567 0.64061 0.38029 0.0
O152 O 0.04447 0.74377 0.154 0.0
O153 O 0.18638 0.78543 0.20628 0.0
O154 O 0.21443 0.74474 0.2741 0.0
C155 C 0.15595 0.15467 0.6399 0.0
C156 C 0.33353 0.23074 0.60823 0.0
C157 C 0.30638 0.01513 0.61827 0.0
Mg158 Mg 0.26904 0.20088 0.73001 0.0
O159 O 0.24393 0.12078 0.71138 0.0
Mg160 Mg 0.23784 0.08934 0.61605 0.0
Mg161 Mg 0.30474 0.10533 0.74371 0.0
O162 O 0.36784 0.09284 0.77528 0.0
Mg163 Mg 0.36683 0.0216 0.75571 0.0
Mg164 Mg 0.38389 0.13231 0.86839 0.0
C165 C 0.28995 0.18465 0.87554 0.0
C166 C 0.42049 0.23166 0.78081 0.0
O167 O 0.16327 0.11361 0.60901 0.0
O168 O 0.19131 0.19211 0.68746 0.0
O169 O 0.30164 0.17656 0.58536 0.0
O170 O 0.33413 0.2505 0.6678 0.0
O171 O 0.28118 0.21281 0.83591 0.0
O172 O 0.29765 0.14073 0.85453 0.0
C173 C 0.1879 -0.01493 0.69801 0.0
O174 O 0.23042 0.01337 0.74304 0.0
O175 O 0.18132 0.00692 0.65011 0.0
O176 O 0.47178 0.1284 0.86393 0.0
O177 O 0.4592 0.05761 0.78138 0.0
O178 O 0.33435 0.04331 0.90405 0.0
C179 C 0.49177 0.10038 0.82659 0.0
O180 O 0.31559 0.96877 0.82504 0.0
O181 O 0.32711 -0.00581 0.65588 0.0
C182 C 0.31202 -0.01132 0.88315 0.0
O183 O 0.30965 0.06536 0.63637 0.0
O184 O 0.37686 0.19769 0.73915 0.0
O185 O 0.43091 0.21622 0.8319 0.0
C186 C 0.18945 0.516 0.22975 0.0
C187 C 0.15073 0.45623 0.22741 0.0
H188 H 0.19846 0.60043 0.23986 0.0
C189 C 0.0894 0.43393 0.22276 0.0
H190 H 0.2369 0.53385 0.23406 0.0
C191 C 0.06724 0.47207 0.22616 0.0
C192 C 0.1066 0.53238 0.23567 0.0
H193 H 0.05899 0.38814 0.22332 0.0
H194 H 0.02006 0.45493 0.227 0.0
C195 C 0.16752 0.55391 0.23406 0.0
C196 C 0.58004 0.08815 0.8158 0.0
C197 C 0.55621 0.12517 0.82561 0.0
H198 H 0.65454 0.0794 0.78846 0.0
C199 C 0.59213 0.18439 0.82022 0.0
H200 H 0.55288 0.04216 0.81844 0.0
C201 C 0.64957 0.20521 0.80086 0.0
C202 C 0.6725 0.16758 0.7889 0.0
H203 H 0.57428 0.2135 0.826 0.0
H204 H 0.67535 0.25012 0.7933 0.0
C205 C 0.63804 0.10943 0.79855 0.0
C206 C 0.48317 0.5888 0.31704 0.0
C207 C 0.42237 0.56638 0.32168 0.0
H208 H 0.56546 0.66172 0.29997 0.0
C209 C 0.39818 0.60233 0.31602 0.0
H210 H 0.50261 0.56169 0.3206 0.0
C211 C 0.43365 0.65869 0.30222 0.0
C212 C 0.49412 0.68054 0.29628 0.0
H213 H 0.35116 0.58563 0.31831 0.0
H214 H 0.41369 0.68469 0.29475 0.0
C215 C 0.51897 0.64587 0.30544 0.0
C216 C 0.77715 0.3946 0.66573 0.0
C217 C 0.83776 0.41359 0.67589 0.0
H218 H 0.70875 0.41633 0.68135 0.0
C219 C 0.877 0.47234 0.70221 0.0
H220 H 0.74563 0.34942 0.64642 0.0
C221 C 0.85574 0.51015 0.72208 0.0
C222 C 0.79504 0.49026 0.71534 0.0
H223 H 0.92381 0.48828 0.71104 0.0
H224 H 0.88651 0.5541 0.74617 0.0
C225 C 0.75589 0.43258 0.68604 0.0
C226 C 0.31986 0.85469 0.20876 0.0
C227 C 0.28089 0.79419 0.19915 0.0
H228 H 0.40923 0.92373 0.20999 0.0
C229 C 0.30134 0.75631 0.17496 0.0
H230 H 0.30561 0.88472 0.22932 0.0
C231 C 0.36078 0.77867 0.16336 0.0
C232 C 0.40082 0.83914 0.17778 0.0
H233 H 0.27206 0.70946 0.16826 0.0
H234 H 0.37613 0.74827 0.14826 0.0
C235 C 0.37937 0.87704 0.19821 0.0
C236 C 0.51955 0.31398 0.77901 0.0
C237 C 0.4586 0.29177 0.77359 0.0
H238 H 0.60474 0.39012 0.7944 0.0
C239 C 0.43565 0.3294 0.77564 0.0
H240 H 0.53759 0.2852 0.77861 0.0
C241 C 0.47392 0.3895 0.78457 0.0
C242 C 0.53489 0.41169 0.79366 0.0
H243 H 0.38853 0.31276 0.77507 0.0
H244 H 0.45598 0.41848 0.78787 0.0
C245 C 0.55757 0.37367 0.78906 0.0
C246 C 0.23971 0.14564 0.26785 0.0
C247 C 0.18915 0.14803 0.28477 0.0
H248 H 0.27345 0.08931 0.23336 0.0
C249 C 0.13809 0.0979 0.29651 0.0
H250 H 0.27924 0.18432 0.25834 0.0
C251 C 0.13355 0.04396 0.27867 0.0
C252 C 0.18111 0.04074 0.25207 0.0
H253 H 0.0988 0.09961 0.30966 0.0
H254 H 0.09207 0.00483 0.28247 0.0
C255 C 0.2357 0.09157 0.25151 0.0
C256 C 0.00327 0.11046 0.67306 0.0
C257 C 0.00734 0.16535 0.68386 0.0
H258 H 0.04772 0.063 0.64473 0.0
C259 C 0.05392 0.21239 0.66057 0.0
H260 H 0.96677 0.07341 0.68978 0.0
C261 C 0.10045 0.20649 0.6352 0.0
C262 C 0.09974 0.15325 0.63189 0.0
H263 H 0.05718 0.25481 0.66784 0.0
H264 H 0.13971 0.245 0.62492 0.0
C265 C 0.04889 0.10418 0.6461 0.0
C266 C 0.86348 0.08576 0.16622 0.0
C267 C 0.91816 0.08754 0.16819 0.0
H268 H 0.77554 0.04691 0.19764 0.0
C269 C 0.92384 0.04645 0.19758 0.0
H270 H 0.85842 0.1176 0.14442 0.0
C271 C 0.87764 0.00816 0.2302 0.0
C272 C 0.82456 0.00926 0.23231 0.0
H273 H 0.96578 0.04761 0.20084 0.0
H274 H 0.88405 0.97879 0.25551 0.0
C275 C 0.81657 0.04619 0.19742 0.0
C276 C 0.8692 0.94282 0.85248 0.0
C277 C 0.81803 0.94714 0.854 0.0
H278 H 0.90387 0.88527 0.83372 0.0
C279 C 0.76259 0.89636 0.85342 0.0
H280 H 0.91241 -0.01879 0.85345 0.0
C281 C 0.75779 0.84146 0.84304 0.0
C282 C 0.80838 0.83724 0.83278 0.0
H283 H 0.72249 0.89878 0.85596 0.0
H284 H 0.71435 0.80268 0.83637 0.0
C285 C 0.8643 0.88803 0.8414 0.0
C286 C 0.86816 0.77157 0.3799 0.0
C287 C 0.87103 0.82599 0.38494 0.0
H288 H 0.90889 0.72141 0.34501 0.0
C289 C 0.92375 0.8751 0.37468 0.0
H290 H 0.82797 0.73324 0.38875 0.0
C291 C 0.96918 0.868 0.34897 0.0
C292 C 0.96252 0.81205 0.3346 0.0
H293 H 0.92721 0.91749 0.37866 0.0
H294 H 0.00741 0.90547 0.33513 0.0
C295 C 0.91407 0.7646 0.3548 0.0
C296 C 0.1119 0.89034 0.64009 0.0
C297 C 0.14405 0.92513 0.69909 0.0
H298 H 0.03255 0.81473 0.59571 0.0
C299 C 0.128 0.90485 0.75819 0.0
H300 H 0.12498 0.90465 0.59364 0.0
C301 C 0.07593 0.85271 0.75881 0.0
C302 C 0.04041 0.82222 0.70049 0.0
H303 H 0.15273 0.93124 0.80384 0.0
H304 H 0.06116 0.83869 0.80501 0.0
C305 C 0.05944 0.83932 0.64093 0.0
C306 C 0.22215 0.22895 0.01909 0.0
C307 C 0.26692 0.25181 0.07005 0.0
H308 H 0.19445 0.18941 0.91875 0.0
C309 C 0.31676 0.24503 0.05828 0.0
H310 H 0.18327 0.23307 0.02556 0.0
C311 C 0.32286 0.21891 0.99685 0.0
C312 C 0.27948 0.19914 0.94507 0.0
H313 H 0.35229 0.26163 0.09617 0.0
H314 H 0.36297 0.21729 0.98893 0.0
C315 C 0.22862 0.20361 0.95767 0.0
C316 C 0.0569 0.32828 0.53891 0.0
C317 C -0.00497 0.28838 0.53048 0.0
H318 H 0.13908 0.37062 0.49346 0.0
C319 C 0.97081 0.25627 0.46816 0.0
H320 H 0.07764 0.35369 0.58635 0.0
C321 C 0.00618 0.2658 0.41558 0.0
C322 C 0.06722 0.30806 0.42284 0.0
H323 H 0.92399 0.22483 0.45937 0.0
H324 H -0.01512 0.24081 0.3681 0.0
C325 C 0.09257 0.33798 0.48578 0.0
C326 C 0.65557 0.03067 0.05245 0.0
C327 C 0.67573 -0.00499 0.07277 0.0
H328 H 0.66841 0.09392 0.99153 0.0
C329 C 0.72838 1e-05 0.05075 0.0
H330 H 0.61522 0.02793 0.06937 0.0
C331 C 0.76039 0.04002 0.00937 0.0
C332 C 0.7395 0.07465 0.98732 0.0
H333 H 0.74525 0.97365 0.06632 0.0
H334 H 0.80035 0.04194 0.99226 0.0
C335 C 0.68634 0.06906 0.00885 0.0
C336 C 0.72884 0.74526 0.59966 0.0
C337 C 0.68446 0.68887 0.60631 0.0
H338 H 0.75541 0.81815 0.55014 0.0
C339 C 0.63095 0.66288 0.56679 0.0
H340 H 0.76996 0.76691 0.63009 0.0
C341 C 0.62243 0.69199 0.52072 0.0
C342 C 0.66646 0.74874 0.51451 0.0
H343 H 0.59554 0.61964 0.5714 0.0
H344 H 0.5816 0.66992 0.48952 0.0
C345 C 0.7197 0.77509 0.55484 0.0
C346 C 0.86363 0.63911 0.00676 0.0
C347 C 0.89117 0.66556 0.95373 0.0
H348 H 0.87529 0.6291 0.1051 0.0
C349 C 0.9515 0.70941 0.96305 0.0
H350 H 0.81742 0.60553 1.00122 0.0
C351 C -0.01539 0.72379 0.02262 0.0
C352 C 0.95838 0.69391 0.07408 0.0
H353 H 0.97384 0.73122 0.92311 0.0
H354 H 0.03148 0.75529 0.02678 0.0
C355 C 0.89703 0.65279 0.06613 0.0
C356 C 0.27484 -0.00435 0.4977 0.0
C357 C 0.27292 0.97502 0.55626 0.0
H358 H 0.25639 0.97415 0.39396 0.0
C359 C 0.24372 0.91375 0.55432 0.0
H360 H 0.2967 0.04214 0.49712 0.0
C361 C 0.21983 0.87439 0.49527 0.0
C362 C 0.22561 0.89522 0.43618 0.0
H363 H 0.24064 0.89607 0.59872 0.0
H364 H 0.19953 0.82797 0.4956 0.0
C365 C 0.25204 0.95636 0.43852 0.0
C366 C 0.62496 0.63916 0.03743 0.0
C367 C 0.63708 0.66926 0.98467 0.0
H368 H 0.61275 0.64121 0.13848 0.0
C369 C 0.63861 0.72283 0.99141 0.0
H370 H 0.62181 0.59684 0.03242 0.0
C371 C 0.63401 0.74883 0.05261 0.0
C372 C 0.62723 0.72085 0.10684 0.0
H373 H 0.64711 0.74611 0.95061 0.0
H374 H 0.63983 0.79225 0.05815 0.0
C375 C 0.61935 0.66442 0.0979 0.0
C376 C 0.89883 0.61632 0.42759 0.0
C377 C 0.95612 0.62464 0.43426 0.0
H378 H 0.82271 0.60554 0.47616 0.0
C379 C 0.97608 0.61691 0.49241 0.0
H380 H 0.88202 0.62101 0.38265 0.0
C381 C 0.94106 0.60541 0.54489 0.0
C382 C 0.88641 0.60354 0.54064 0.0
H383 H 0.01945 0.62147 0.49797 0.0
H384 H 0.95952 0.60384 0.59062 0.0
C385 C 0.86443 0.6064 0.48062 0.0
C386 C 0.22584 0.90471 0.92081 0.0
C387 C 0.28552 0.94841 0.92968 0.0
H388 H 0.15164 0.84389 0.96586 0.0
C389 C 0.31945 0.95697 0.98646 0.0
H390 H 0.1993 0.89712 0.87673 0.0
C391 C 0.29312 0.9253 0.03618 0.0
C392 C 0.23185 0.88606 0.0308 0.0
H393 H 0.3659 -0.01001 0.9935 0.0
H394 H 0.31998 0.93552 0.08097 0.0
C395 C 0.19886 0.87408 0.97151 0.0
C396 C 0.35802 0.25104 0.49607 0.0
C397 C 0.35333 0.27117 0.56078 0.0
H398 H 0.35221 0.25881 0.3958 0.0
C399 C 0.34995 0.32235 0.57479 0.0
H400 H 0.36073 0.21173 0.48393 0.0
C401 C 0.34316 0.34811 0.52428 0.0
C402 C 0.34144 0.32412 0.45922 0.0
H403 H 0.3462 0.33899 0.62413 0.0
H404 H 0.33633 0.38501 0.53603 0.0
C405 C 0.35245 0.27758 0.44561 0.0
C406 C 0.02834 0.33858 0.02385 0.0
C407 C 0.06149 0.31012 0.0204 0.0
H408 H 0.96733 0.35319 0.97229 0.0
C409 C 0.06741 0.28378 0.95959 0.0
H410 H 0.02364 0.3599 0.06997 0.0
C411 C 0.03472 0.27952 0.90456 0.0
C412 C -0.00324 0.30224 0.9099 0.0
H413 H 0.09354 0.26246 0.95527 0.0
H414 H 0.03703 0.25628 0.85857 0.0
C415 C -0.00423 0.33437 0.96853 0.0
C416 C 0.69349 -0.00473 0.5701 0.0
C417 C 0.72141 0.05653 0.58182 0.0
H418 H 0.6531 0.91741 0.49961 0.0
C419 C 0.72802 0.08661 0.52978 0.0
H420 H 0.68865 0.97085 0.60912 0.0
C421 C 0.70654 0.05544 0.46676 0.0
C422 C 0.68028 -0.00565 0.45545 0.0
H423 H 0.74992 0.13382 0.53777 0.0
H424 H 0.71166 0.07897 0.42682 0.0
C425 C 0.67383 0.96457 0.5074 0.0
loop_
_geom_bond_atom_site_label_1
_geom_bond_atom_site_label_2
_geom_bond_distance
_geom_bond_site_symmetry_2
_ccdc_geom_bond_type
C0 O12 1.241 . S
C0 O13 1.280 . S
C1 O14 1.277 . S
C1 O15 1.245 1_455 S
C2 O26 1.247 . S
C2 O28 1.289 . S
Mg3 O4 1.926 1_655 S
Mg3 O13 1.984 . S
Mg3 O15 1.988 . S
Mg3 O16 2.061 1_655 S
O4 Mg3 1.926 1_455 S
O4 Mg5 1.986 . S
O4 Mg6 1.917 . S
Mg5 O4 1.986 . S
Mg5 O12 2.042 1_455 S
Mg5 O14 2.041 . S
Mg5 O20 2.038 . S
Mg5 O28 2.238 . S
Mg6 O4 1.917 . S
Mg6 O7 1.917 . S
Mg6 O17 2.106 . S
Mg6 O19 2.079 . S
Mg6 O28 2.106 . S
Mg6 O29 2.079 . S
O7 Mg6 1.917 . S
O7 Mg8 1.926 . S
O7 Mg9 1.986 . S
Mg8 O7 1.926 . S
Mg8 O22 1.984 . S
Mg8 O25 1.988 . S
Mg8 O26 2.061 . S
Mg9 O7 1.986 . S
Mg9 O17 2.238 . S
Mg9 O21 2.042 . S
Mg9 O23 2.041 . S
Mg9 O30 2.038 . S
C10 O16 1.247 . S
C10 O17 1.289 . S
C11 O29 1.245 . S
C11 O30 1.274 . S
O12 C0 1.241 . S
O12 Mg5 2.042 1_655 S
O13 C0 1.280 . S
O13 Mg3 1.984 . S
O14 C1 1.277 . S
O14 Mg5 2.041 . S
O15 C1 1.245 1_655 S
O15 Mg3 1.988 . S
O16 Mg3 2.061 1_455 S
O16 C10 1.247 . S
O17 Mg6 2.106 . S
O17 Mg9 2.238 . S
O17 C10 1.289 . S
C18 O19 1.245 . S
C18 O20 1.274 . S
O19 Mg6 2.079 . S
O19 C18 1.245 . S
O20 Mg5 2.038 . S
O20 C18 1.274 . S
O21 Mg9 2.042 . S
O21 C24 1.241 . S
O22 Mg8 1.984 . S
O22 C24 1.280 . S
O23 Mg9 2.041 . S
O23 C27 1.277 . S
C24 O21 1.241 . S
C24 O22 1.280 . S
O25 Mg8 1.988 . S
O25 C27 1.245 . S
O26 C2 1.247 . S
O26 Mg8 2.061 . S
C27 O23 1.277 . S
C27 O25 1.245 . S
O28 C2 1.289 . S
O28 Mg5 2.238 . S
O28 Mg6 2.106 . S
O29 Mg6 2.079 . S
O29 C11 1.245 . S
O30 Mg9 2.038 . S
O30 C11 1.274 . S
C31 O43 1.241 . S
C31 O44 1.280 . S
C32 O45 1.277 . S
C32 O46 1.245 . S
C33 O57 1.247 . S
C33 O59 1.289 . S
Mg34 O35 1.926 . S
Mg34 O44 1.984 . S
Mg34 O46 1.988 . S
Mg34 O47 2.061 . S
O35 Mg34 1.926 . S
O35 Mg36 1.986 . S
O35 Mg37 1.917 . S
Mg36 O35 1.986 . S
Mg36 O43 2.042 . S
Mg36 O45 2.041 . S
Mg36 O51 2.038 . S
Mg36 O59 2.238 . S
Mg37 O35 1.917 . S
Mg37 O38 1.917 . S
Mg37 O48 2.106 . S
Mg37 O50 2.079 . S
Mg37 O59 2.106 . S
Mg37 O60 2.079 . S
O38 Mg37 1.917 . S
O38 Mg39 1.926 1_545 S
O38 Mg40 1.986 . S
Mg39 O38 1.926 1_565 S
Mg39 O53 1.984 . S
Mg39 O56 1.988 1_565 S
Mg39 O57 2.061 1_565 S
Mg40 O38 1.986 . S
Mg40 O48 2.238 . S
Mg40 O52 2.033 1_545 S
Mg40 O54 2.041 . S
Mg40 O61 2.038 . S
C41 O47 1.247 . S
C41 O48 1.289 . S
C42 O60 1.245 . S
C42 O61 1.274 . S
O43 C31 1.241 . S
O43 Mg36 2.042 . S
O44 C31 1.280 . S
O44 Mg34 1.984 . S
O45 C32 1.277 . S
O45 Mg36 2.041 . S
O46 C32 1.245 . S
O46 Mg34 1.988 . S
O47 Mg34 2.061 . S
O47 C41 1.247 . S
O48 Mg37 2.106 . S
O48 Mg40 2.238 . S
O48 C41 1.289 . S
C49 O50 1.245 . S
C49 O51 1.274 . S
O50 Mg37 2.079 . S
O50 C49 1.245 . S
O51 Mg36 2.038 . S
O51 C49 1.274 . S
O52 Mg40 2.033 1_565 S
O52 C55 1.245 . S
O53 Mg39 1.984 . S
O53 C55 1.280 . S
O54 Mg40 2.041 . S
O54 C58 1.277 . S
C55 O52 1.245 . S
C55 O53 1.280 . S
O56 Mg39 1.988 1_545 S
O56 C58 1.245 . S
O57 C33 1.247 . S
O57 Mg39 2.061 1_545 S
C58 O54 1.277 . S
C58 O56 1.245 . S
O59 C33 1.289 . S
O59 Mg36 2.238 . S
O59 Mg37 2.106 . S
O60 Mg37 2.079 . S
O60 C42 1.245 . S
O61 Mg40 2.038 . S
O61 C42 1.274 . S
C62 O74 1.241 . S
C62 O75 1.280 . S
C63 O76 1.277 . S
C63 O77 1.245 . S
C64 O88 1.247 . S
C64 O90 1.289 . S
Mg65 O66 1.926 . S
Mg65 O75 1.984 . S
Mg65 O77 1.988 . S
Mg65 O78 2.061 . S
O66 Mg65 1.926 . S
O66 Mg67 1.986 . S
O66 Mg68 1.917 . S
Mg67 O66 1.986 . S
Mg67 O74 2.042 . S
Mg67 O76 2.041 . S
Mg67 O82 2.038 . S
Mg67 O90 2.238 . S
Mg68 O66 1.917 . S
Mg68 O69 1.917 . S
Mg68 O79 2.106 . S
Mg68 O81 2.079 . S
Mg68 O90 2.106 . S
Mg68 O91 2.079 . S
O69 Mg68 1.917 . S
O69 Mg70 1.926 . S
O69 Mg71 1.986 . S
Mg70 O69 1.926 . S
Mg70 O84 1.984 . S
Mg70 O87 1.988 . S
Mg70 O88 2.061 . S
Mg71 O69 1.986 . S
Mg71 O79 2.238 . S
Mg71 O83 2.042 . S
Mg71 O85 2.041 . S
Mg71 O92 2.038 . S
C72 O78 1.247 . S
C72 O79 1.289 . S
C73 O91 1.245 . S
C73 O92 1.274 . S
O74 C62 1.241 . S
O74 Mg67 2.042 . S
O75 C62 1.280 . S
O75 Mg65 1.984 . S
O76 C63 1.277 . S
O76 Mg67 2.041 . S
O77 C63 1.245 . S
O77 Mg65 1.988 . S
O78 Mg65 2.061 . S
O78 C72 1.247 . S
O79 Mg68 2.106 . S
O79 Mg71 2.238 . S
O79 C72 1.289 . S
C80 O81 1.245 . S
C80 O82 1.274 . S
O81 Mg68 2.079 . S
O81 C80 1.245 . S
O82 Mg67 2.038 . S
O82 C80 1.274 . S
O83 Mg71 2.042 . S
O83 C86 1.241 . S
O84 Mg70 1.984 . S
O84 C86 1.280 . S
O85 Mg71 2.041 . S
O85 C89 1.277 . S
C86 O83 1.241 . S
C86 O84 1.280 . S
O87 Mg70 1.988 . S
O87 C89 1.245 . S
O88 C64 1.247 . S
O88 Mg70 2.061 . S
C89 O85 1.277 . S
C89 O87 1.245 . S
O90 C64 1.289 . S
O90 Mg67 2.238 . S
O90 Mg68 2.106 . S
O91 Mg68 2.079 . S
O91 C73 1.245 . S
O92 Mg71 2.038 . S
O92 C73 1.274 . S
C93 O105 1.246 . S
C93 O106 1.280 . S
C94 O107 1.277 . S
C94 O108 1.245 . S
C95 O119 1.247 . S
C95 O121 1.289 . S
Mg96 O97 1.926 1_455 S
Mg96 O106 1.984 . S
Mg96 O108 1.988 1_455 S
Mg96 O109 2.061 1_455 S
O97 Mg96 1.926 1_655 S
O97 Mg98 1.986 . S
O97 Mg99 1.917 . S
Mg98 O97 1.986 . S
Mg98 O105 2.038 1_655 S
Mg98 O107 2.041 . S
Mg98 O113 2.038 . S
Mg98 O121 2.238 . S
Mg99 O97 1.917 . S
Mg99 O100 1.917 . S
Mg99 O110 2.106 . S
Mg99 O112 2.079 . S
Mg99 O121 2.106 . S
Mg99 O122 2.079 . S
O100 Mg99 1.917 . S
O100 Mg101 1.926 . S
O100 Mg102 1.986 . S
Mg101 O100 1.926 . S
Mg101 O115 1.984 . S
Mg101 O118 1.988 . S
Mg101 O119 2.061 . S
Mg102 O100 1.986 . S
Mg102 O110 2.238 . S
Mg102 O114 2.042 . S
Mg102 O116 2.041 . S
Mg102 O123 2.038 . S
C103 O109 1.247 . S
C103 O110 1.289 . S
C104 O122 1.245 . S
C104 O123 1.274 . S
O105 C93 1.246 . S
O105 Mg98 2.038 1_455 S
O106 C93 1.280 . S
O106 Mg96 1.984 . S
O107 C94 1.277 . S
O107 Mg98 2.041 . S
O108 C94 1.245 . S
O108 Mg96 1.988 1_655 S
O109 Mg96 2.061 1_655 S
O109 C103 1.247 . S
O110 Mg99 2.106 . S
O110 Mg102 2.238 . S
O110 C103 1.289 . S
C111 O112 1.245 . S
C111 O113 1.274 . S
O112 Mg99 2.079 . S
O112 C111 1.245 . S
O113 Mg98 2.038 . S
O113 C111 1.274 . S
O114 Mg102 2.042 . S
O114 C117 1.241 . S
O115 Mg101 1.984 . S
O115 C117 1.280 . S
O116 Mg102 2.041 . S
O116 C120 1.277 . S
C117 O114 1.241 . S
C117 O115 1.280 . S
O118 Mg101 1.988 . S
O118 C120 1.245 . S
O119 C95 1.247 . S
O119 Mg101 2.061 . S
C120 O116 1.277 . S
C120 O118 1.245 . S
O121 C95 1.289 . S
O121 Mg98 2.238 . S
O121 Mg99 2.106 . S
O122 Mg99 2.079 . S
O122 C104 1.245 . S
O123 Mg102 2.038 . S
O123 C104 1.274 . S
C124 O136 1.237 1_545 S
C124 O137 1.280 . S
C125 O138 1.277 . S
C125 O139 1.245 . S
C126 O150 1.247 . S
C126 O152 1.289 . S
Mg127 O128 1.926 1_545 S
Mg127 O137 1.984 . S
Mg127 O139 1.988 1_545 S
Mg127 O140 2.061 1_545 S
O128 Mg127 1.926 1_565 S
O128 Mg129 1.986 . S
O128 Mg130 1.917 . S
Mg129 O128 1.986 . S
Mg129 O136 2.051 . S
Mg129 O138 2.041 . S
Mg129 O144 2.038 . S
Mg129 O152 2.238 . S
Mg130 O128 1.917 . S
Mg130 O131 1.917 . S
Mg130 O141 2.106 . S
Mg130 O143 2.079 . S
Mg130 O152 2.106 . S
Mg130 O153 2.079 . S
O131 Mg130 1.917 . S
O131 Mg132 1.926 . S
O131 Mg133 1.986 . S
Mg132 O131 1.926 . S
Mg132 O146 1.984 . S
Mg132 O149 1.988 . S
Mg132 O150 2.061 . S
Mg133 O131 1.986 . S
Mg133 O141 2.238 . S
Mg133 O145 2.042 . S
Mg133 O147 2.041 . S
Mg133 O154 2.038 . S
C134 O140 1.247 . S
C134 O141 1.289 . S
C135 O153 1.245 . S
C135 O154 1.274 . S
O136 C124 1.237 1_565 S
O136 Mg129 2.051 . S
O137 C124 1.280 . S
O137 Mg127 1.984 . S
O138 C125 1.277 . S
O138 Mg129 2.041 . S
O139 C125 1.245 . S
O139 Mg127 1.988 1_565 S
O140 Mg127 2.061 1_565 S
O140 C134 1.247 . S
O141 Mg130 2.106 . S
O141 Mg133 2.238 . S
O141 C134 1.289 . S
C142 O143 1.245 . S
C142 O144 1.274 . S
O143 Mg130 2.079 . S
O143 C142 1.245 . S
O144 Mg129 2.038 . S
O144 C142 1.274 . S
O145 Mg133 2.042 . S
O145 C148 1.241 . S
O146 Mg132 1.984 . S
O146 C148 1.280 . S
O147 Mg133 2.041 . S
O147 C151 1.277 . S
C148 O145 1.241 . S
C148 O146 1.280 . S
O149 Mg132 1.988 . S
O149 C151 1.245 . S
O150 C126 1.247 . S
O150 Mg132 2.061 . S
C151 O147 1.277 . S
C151 O149 1.245 . S
O152 C126 1.289 . S
O152 Mg129 2.238 . S
O152 Mg130 2.106 . S
O153 Mg130 2.079 . S
O153 C135 1.245 . S
O154 Mg133 2.038 . S
O154 C135 1.274 . S
C155 O167 1.241 . S
C155 O168 1.280 . S
C156 O169 1.277 . S
C156 O170 1.245 . S
C157 O181 1.247 . S
C157 O183 1.289 . S
Mg158 O159 1.926 . S
Mg158 O168 1.984 . S
Mg158 O170 1.988 . S
Mg158 O171 2.061 . S
O159 Mg158 1.926 . S
O159 Mg160 1.986 . S
O159 Mg161 1.917 . S
Mg160 O159 1.986 . S
Mg160 O167 2.042 . S
Mg160 O169 2.041 . S
Mg160 O175 2.038 . S
Mg160 O183 2.238 . S
Mg161 O159 1.917 . S
Mg161 O162 1.917 . S
Mg161 O172 2.106 . S
Mg161 O174 2.079 . S
Mg161 O183 2.106 . S
Mg161 O184 2.079 . S
O162 Mg161 1.917 . S
O162 Mg163 1.926 . S
O162 Mg164 1.986 . S
Mg163 O162 1.926 . S
Mg163 O177 1.984 . S
Mg163 O180 1.988 . S
Mg163 O181 2.061 . S
Mg164 O162 1.986 . S
Mg164 O172 2.238 . S
Mg164 O176 2.042 . S
Mg164 O178 2.041 . S
Mg164 O185 2.038 . S
C165 O171 1.247 . S
C165 O172 1.289 . S
C166 O184 1.245 . S
C166 O185 1.274 . S
O167 C155 1.241 . S
O167 Mg160 2.042 . S
O168 C155 1.280 . S
O168 Mg158 1.984 . S
O169 C156 1.277 . S
O169 Mg160 2.041 . S
O170 C156 1.245 . S
O170 Mg158 1.988 . S
O171 Mg158 2.061 . S
O171 C165 1.247 . S
O172 Mg161 2.106 . S
O172 Mg164 2.238 . S
O172 C165 1.289 . S
C173 O174 1.245 . S
C173 O175 1.274 . S
O174 Mg161 2.079 . S
O174 C173 1.245 . S
O175 Mg160 2.038 . S
O175 C173 1.274 . S
O176 Mg164 2.042 . S
O176 C179 1.241 . S
O177 Mg163 1.984 . S
O177 C179 1.280 . S
O178 Mg164 2.041 . S
O178 C182 1.277 . S
C179 O176 1.241 . S
C179 O177 1.280 . S
O180 Mg163 1.988 . S
O180 C182 1.245 . S
O181 C157 1.247 . S
O181 Mg163 2.061 . S
C182 O178 1.277 . S
C182 O180 1.245 . S
O183 C157 1.289 . S
O183 Mg160 2.238 . S
O183 Mg161 2.106 . S
O184 Mg161 2.079 . S
O184 C166 1.245 . S
O185 Mg164 2.038 . S
O185 C166 1.274 . S
C186 C187 1.387 . S
C186 H190 0.950 . S
C186 C195 1.390 . S
C187 C186 1.387 . S
C187 C189 1.387 . S
H188 C195 0.950 . S
C189 C187 1.387 . S
C189 C191 1.390 . S
C189 H193 0.950 . S
H190 C186 0.950 . S
C191 C189 1.390 . S
C191 C192 1.387 . S
C191 H194 0.950 . S
C192 C191 1.387 . S
C192 C195 1.387 . S
H193 C189 0.950 . S
H194 C191 0.950 . S
C195 C186 1.390 . S
C195 H188 0.950 . S
C195 C192 1.387 . S
C196 C197 1.387 . S
C196 H200 0.950 . S
C196 C205 1.390 . S
C197 C196 1.387 . S
C197 C199 1.387 . S
H198 C205 0.950 . S
C199 C197 1.387 . S
C199 C201 1.390 . S
C199 H203 0.950 . S
H200 C196 0.950 . S
C201 C199 1.390 . S
C201 C202 1.387 . S
C201 H204 0.950 . S
C202 C201 1.387 . S
C202 C205 1.387 . S
H203 C199 0.950 . S
H204 C201 0.950 . S
C205 C196 1.390 . S
C205 H198 0.950 . S
C205 C202 1.387 . S
C206 C207 1.387 . S
C206 H210 0.950 . S
C206 C215 1.390 . S
C207 C206 1.387 . S
C207 C209 1.387 . S
H208 C215 0.950 . S
C209 C207 1.387 . S
C209 C211 1.390 . S
C209 H213 0.950 . S
H210 C206 0.950 . S
C211 C209 1.390 . S
C211 C212 1.387 . S
C211 H214 0.950 . S
C212 C211 1.387 . S
C212 C215 1.387 . S
H213 C209 0.950 . S
H214 C211 0.950 . S
C215 C206 1.390 . S
C215 H208 0.950 . S
C215 C212 1.387 . S
C216 C217 1.387 . S
C216 H220 0.950 . S
C216 C225 1.390 . S
C217 C216 1.387 . S
C217 C219 1.387 . S
H218 C225 0.950 . S
C219 C217 1.387 . S
C219 C221 1.390 . S
C219 H223 0.950 . S
H220 C216 0.950 . S
C221 C219 1.390 . S
C221 C222 1.387 . S
C221 H224 0.950 . S
C222 C221 1.387 . S
C222 C225 1.387 . S
H223 C219 0.950 . S
H224 C221 0.950 . S
C225 C216 1.390 . S
C225 H218 0.950 . S
C225 C222 1.387 . S
C226 C227 1.387 . S
C226 H230 0.950 . S
C226 C235 1.390 . S
C227 C226 1.387 . S
C227 C229 1.387 . S
H228 C235 0.950 . S
C229 C227 1.387 . S
C229 C231 1.390 . S
C229 H233 0.950 . S
H230 C226 0.950 . S
C231 C229 1.390 . S
C231 C232 1.387 . S
C231 H234 0.950 . S
C232 C231 1.387 . S
C232 C235 1.387 . S
H233 C229 0.950 . S
H234 C231 0.950 . S
C235 C226 1.390 . S
C235 H228 0.950 . S
C235 C232 1.387 . S
C236 C237 1.387 . S
C236 H240 0.950 . S
C236 C245 1.390 . S
C237 C236 1.387 . S
C237 C239 1.387 . S
H238 C245 0.950 . S
C239 C237 1.387 . S
C239 C241 1.390 . S
C239 H243 0.950 . S
H240 C236 0.950 . S
C241 C239 1.390 . S
C241 C242 1.387 . S
C241 H244 0.950 . S
C242 C241 1.387 . S
C242 C245 1.387 . S
H243 C239 0.950 . S
H244 C241 0.950 . S
C245 C236 1.390 . S
C245 H238 0.950 . S
C245 C242 1.387 . S
C246 C247 1.387 . S
C246 H250 0.950 . S
C246 C255 1.390 . S
C247 C246 1.387 . S
C247 C249 1.387 . S
H248 C255 0.950 . S
C249 C247 1.387 . S
C249 C251 1.390 . S
C249 H253 0.950 . S
H250 C246 0.950 . S
C251 C249 1.390 . S
C251 C252 1.387 . S
C251 H254 0.950 . S
C252 C251 1.387 . S
C252 C255 1.387 . S
H253 C249 0.950 . S
H254 C251 0.950 . S
C255 C246 1.390 . S
C255 H248 0.950 . S
C255 C252 1.387 . S
C256 C257 1.387 1_455 S
C256 H260 0.950 1_455 S
C256 C265 1.390 . S
C257 C256 1.387 1_655 S
C257 C259 1.387 1_655 S
H258 C265 0.950 . S
C259 C257 1.387 1_455 S
C259 C261 1.390 . S
C259 H263 0.950 1_455 S
H260 C256 0.950 1_655 S
C261 C259 1.390 . S
C261 C262 1.387 . S
C261 H264 0.950 . S
C262 C261 1.387 . S
C262 C265 1.387 . S
H263 C259 0.950 1_655 S
H264 C261 0.950 . S
C265 C256 1.390 . S
C265 H258 0.950 . S
C265 C262 1.387 . S
C266 C267 1.387 . S
C266 H270 0.950 . S
C266 C275 1.390 1_545 S
C267 C266 1.387 . S
C267 C269 1.387 . S
H268 C275 0.950 . S
C269 C267 1.387 . S
C269 C271 1.390 . S
C269 H273 0.950 . S
H270 C266 0.950 . S
C271 C269 1.390 . S
C271 C272 1.387 1_545 S
C271 H274 0.950 . S
C272 C271 1.387 1_565 S
C272 C275 1.387 . S
H273 C269 0.950 . S
H274 C271 0.950 . S
C275 C266 1.390 1_565 S
C275 H268 0.950 . S
C275 C272 1.387 . S
C276 C277 1.387 . S
C276 H280 0.950 . S
C276 C285 1.390 . S
C277 C276 1.387 . S
C277 C279 1.387 . S
H278 C285 0.950 . S
C279 C277 1.387 . S
C279 C281 1.390 . S
C279 H283 0.950 . S
H280 C276 0.950 . S
C281 C279 1.390 . S
C281 C282 1.387 . S
C281 H284 0.950 . S
C282 C281 1.387 . S
C282 C285 1.387 . S
H283 C279 0.950 . S
H284 C281 0.950 . S
C285 C276 1.390 . S
C285 H278 0.950 . S
C285 C282 1.387 . S
C286 C287 1.387 . S
C286 H290 0.950 . S
C286 C295 1.390 1_655 S
C287 C286 1.387 . S
C287 C289 1.387 . S
H288 C295 0.950 . S
C289 C287 1.387 . S
C289 C291 1.390 . S
C289 H293 0.950 . S
H290 C286 0.950 . S
C291 C289 1.390 . S
C291 C292 1.387 1_655 S
C291 H294 0.950 . S
C292 C291 1.387 1_455 S
C292 C295 1.387 . S
H293 C289 0.950 . S
H294 C291 0.950 . S
C295 C286 1.390 1_455 S
C295 H288 0.950 . S
C295 C292 1.387 . S
C296 C297 1.387 . S
C296 H300 0.950 . S
C296 C305 1.390 1_545 S
C297 C296 1.387 . S
C297 C299 1.387 1_545 S
H298 C305 0.950 . S
C299 C297 1.387 1_565 S
C299 C301 1.390 . S
C299 H303 0.950 . S
H300 C296 0.950 . S
C301 C299 1.390 . S
C301 C302 1.387 . S
C301 H304 0.950 . S
C302 C301 1.387 . S
C302 C305 1.387 . S
H303 C299 0.950 . S
H304 C301 0.950 . S
C305 C296 1.390 1_565 S
C305 H298 0.950 . S
C305 C302 1.387 . S
C306 C307 1.387 1_556 S
C306 H310 0.950 . S
C306 C315 1.390 . S
C307 C306 1.387 1_554 S
C307 C309 1.387 . S
H308 C315 0.950 . S
C309 C307 1.387 . S
C309 C311 1.390 . S
C309 H313 0.950 . S
H310 C306 0.950 . S
C311 C309 1.390 . S
C311 C312 1.387 1_554 S
C311 H314 0.950 . S
C312 C311 1.387 1_556 S
C312 C315 1.387 . S
H313 C309 0.950 . S
H314 C311 0.950 . S
C315 C306 1.390 . S
C315 H308 0.950 . S
C315 C312 1.387 . S
C316 C317 1.387 1_455 S
C316 H320 0.950 . S
C316 C325 1.390 . S
C317 C316 1.387 1_655 S
C317 C319 1.387 . S
H318 C325 0.950 . S
C319 C317 1.387 . S
C319 C321 1.390 . S
C319 H323 0.950 . S
H320 C316 0.950 . S
C321 C319 1.390 . S
C321 C322 1.387 1_655 S
C321 H324 0.950 . S
C322 C321 1.387 1_455 S
C322 C325 1.387 . S
H323 C319 0.950 . S
H324 C321 0.950 . S
C325 C316 1.390 . S
C325 H318 0.950 . S
C325 C322 1.387 . S
C326 C327 1.387 . S
C326 H330 0.950 . S
C326 C335 1.380 1_564 S
C327 C326 1.387 . S
C327 C329 1.387 . S
H328 C335 0.967 . S
C329 C327 1.387 . S
C329 C331 1.390 1_554 S
C329 H333 0.950 . S
H330 C326 0.950 . S
C331 C329 1.390 1_556 S
C331 C332 1.387 1_565 S
C331 H334 0.950 . S
C332 C331 1.387 1_545 S
C332 C335 1.381 . S
H333 C329 0.950 . S
H334 C331 0.950 . S
C335 C326 1.380 1_546 S
C335 H328 0.967 . S
C335 C332 1.381 . S
C336 C337 1.387 . S
C336 H340 0.950 . S
C336 C345 1.390 . S
C337 C336 1.387 . S
C337 C339 1.387 . S
H338 C345 0.950 . S
C339 C337 1.387 . S
C339 C341 1.390 . S
C339 H343 0.950 . S
H340 C336 0.950 . S
C341 C339 1.390 . S
C341 C342 1.387 . S
C341 H344 0.950 . S
C342 C341 1.387 . S
C342 C345 1.387 . S
H343 C339 0.950 . S
H344 C341 0.950 . S
C345 C336 1.390 . S
C345 H338 0.950 . S
C345 C342 1.387 . S
C346 C347 1.387 . S
C346 H350 0.950 . S
C346 C355 1.390 1_656 S
C347 C346 1.387 . S
C347 C349 1.387 1_655 S
H348 C355 0.950 . S
C349 C347 1.387 1_455 S
C349 C351 1.390 1_556 S
C349 H353 0.950 . S
H350 C346 0.950 . S
C351 C349 1.390 1_554 S
C351 C352 1.387 . S
C351 H354 0.950 . S
C352 C351 1.387 . S
C352 C355 1.387 . S
H353 C349 0.950 . S
H354 C351 0.950 . S
C355 C346 1.390 1_454 S
C355 H348 0.950 . S
C355 C352 1.387 . S
C356 C357 1.387 . S
C356 H360 0.950 . S
C356 C365 1.390 . S
C357 C356 1.387 . S
C357 C359 1.387 . S
H358 C365 0.950 1_565 S
C359 C357 1.387 . S
C359 C361 1.390 1_545 S
C359 H363 0.950 . S
H360 C356 0.950 . S
C361 C359 1.390 1_565 S
C361 C362 1.387 . S
C361 H364 0.950 . S
C362 C361 1.387 . S
C362 C365 1.387 1_565 S
H363 C359 0.950 . S
H364 C361 0.950 . S
C365 C356 1.390 . S
C365 H358 0.950 1_545 S
C365 C362 1.387 1_545 S
C366 C367 1.387 1_554 S
C366 H370 0.950 1_554 S
C366 C375 1.390 . S
C367 C366 1.387 1_556 S
C367 C369 1.387 . S
H368 C375 0.950 . S
C369 C367 1.387 . S
C369 C371 1.390 1_556 S
C369 H373 0.950 . S
H370 C366 0.950 1_556 S
C371 C369 1.390 1_554 S
C371 C372 1.387 . S
C371 H374 0.950 . S
C372 C371 1.387 . S
C372 C375 1.387 . S
H373 C369 0.950 . S
H374 C371 0.950 . S
C375 C366 1.390 . S
C375 H368 0.950 . S
C375 C372 1.387 . S
C376 C377 1.387 . S
C376 H380 0.950 . S
C376 C385 1.390 1_455 S
C377 C376 1.387 . S
C377 C379 1.387 . S
H378 C385 0.950 . S
C379 C377 1.387 . S
C379 C381 1.390 . S
C379 H383 0.950 . S
H380 C376 0.950 . S
C381 C379 1.390 . S
C381 C382 1.387 1_455 S
C381 H384 0.950 . S
C382 C381 1.387 1_655 S
C382 C385 1.387 . S
H383 C379 0.950 . S
H384 C381 0.950 . S
C385 C376 1.390 1_655 S
C385 H378 0.950 . S
C385 C382 1.387 . S
C386 C387 1.387 . S
C386 H390 0.950 . S
C386 C395 1.390 1_546 S
C387 C386 1.387 . S
C387 C389 1.387 1_556 S
H388 C395 0.950 . S
C389 C387 1.387 1_554 S
C389 C391 1.390 . S
C389 H393 0.949 1_554 S
H390 C386 0.950 . S
C391 C389 1.390 . S
C391 C392 1.387 1_545 S
C391 H394 0.950 . S
C392 C391 1.387 1_565 S
C392 C395 1.387 . S
H393 C389 0.949 1_556 S
H394 C391 0.950 . S
C395 C386 1.390 1_564 S
C395 H388 0.950 . S
C395 C392 1.387 . S
C396 C397 1.387 . S
C396 H400 0.950 . S
C396 C405 1.390 . S
C397 C396 1.387 . S
C397 C399 1.387 . S
H398 C405 0.950 . S
C399 C397 1.387 . S
C399 C401 1.390 . S
C399 H403 0.950 . S
H400 C396 0.950 . S
C401 C399 1.390 . S
C401 C402 1.387 . S
C401 H404 0.950 . S
C402 C401 1.387 . S
C402 C405 1.387 . S
H403 C399 0.950 . S
H404 C401 0.950 . S
C405 C396 1.390 . S
C405 H398 0.950 . S
C405 C402 1.387 . S
C406 C407 1.387 . S
C406 H410 0.950 . S
C406 C415 1.390 1_554 S
C407 C406 1.387 . S
C407 C409 1.387 1_654 S
H408 C415 0.950 . S
C409 C407 1.387 1_456 S
C409 C411 1.390 1_455 S
C409 H413 0.950 . S
H410 C406 0.950 . S
C411 C409 1.390 1_655 S
C411 C412 1.387 . S
C411 H414 0.950 . S
C412 C411 1.387 . S
C412 C415 1.387 . S
H413 C409 0.950 . S
H414 C411 0.950 . S
C415 C406 1.390 1_556 S
C415 H408 0.950 . S
C415 C412 1.387 . S
C416 C417 1.387 1_565 S
C416 H420 0.950 . S
C416 C425 1.390 . S
C417 C416 1.387 1_545 S
C417 C419 1.387 . S
H418 C425 0.950 . S
C419 C417 1.387 . S
C419 C421 1.390 1_545 S
C419 H423 0.950 . S
H420 C416 0.950 . S
C421 C419 1.390 1_565 S
C421 C422 1.387 . S
C421 H424 0.950 . S
C422 C421 1.387 . S
C422 C425 1.387 . S
H423 C419 0.950 . S
H424 C421 0.950 . S
C425 C416 1.390 . S
C425 H418 0.950 . S
C425 C422 1.387 . S
C187 C11 1.336 . S
C192 C148 1.430 . S
C197 C179 1.422 . S
C202 C49 1.419 . S
C207 C24 1.435 . S
C212 C80 1.433 . S
C217 C31 1.390 . S
C222 C104 1.362 . S
C227 C135 1.370 . S
C232 C62 1.384 . S
C237 C166 1.329 . S
C242 C117 1.393 . S
C247 C18 1.096 . S
C252 C124 1.175 . S
C257 C42 1.091 . S
C262 C155 1.130 . S
C267 C0 1.258 . S
C272 C73 1.250 . S
C277 C55 1.153 . S
C282 C111 1.086 . S
C287 C86 1.149 . S
C292 C142 1.120 . S
C297 C173 1.088 . S
C302 C93 1.158 . S
C307 C2 1.885 . S
C312 C165 1.945 . S
C317 C32 1.895 . S
C322 C10 1.825 . S
C327 C63 1.709 . S
C332 C58 1.628 . S
C337 C95 1.712 . S
C342 C89 1.737 . S
C347 C103 1.869 . S
C352 C126 1.797 . S
C357 C157 1.720 . S
C362 C134 1.778 . S
C367 C120 1.455 . S
C372 C64 1.408 . S
C377 C151 1.427 . S
C382 C94 1.331 . S
C387 C182 1.494 . S
C392 C125 1.416 . S
C397 C156 1.355 . S
C402 C27 1.395 . S
C407 C1 1.324 1_655 S
C412 C41 1.318 . S
C417 C33 1.569 . S
C422 C72 1.511 . S
