# Generated by pormake.
# Topology unj, (4)-cn, num edge types: 1
# Building blocks:
#     Node 0, Type 0, BuildingBlock: ICAMEG_clean_sbu_1, # of connection points: 4
#     Node 1, Type 0, BuildingBlock: ICAMEG_clean_sbu_1, # of connection points: 4
#     Node 2, Type 0, BuildingBlock: ICAMEG_clean_sbu_1, # of connection points: 4
#     Node 3, Type 0, BuildingBlock: ICAMEG_clean_sbu_1, # of connection points: 4
#     Node 4, Type 0, BuildingBlock: ICAMEG_clean_sbu_1, # of connection points: 4
#     Node 5, Type 0, BuildingBlock: ICAMEG_clean_sbu_1, # of connection points: 4
#     Edge 6, Type (0, 0), BuildingBlock: FUNLAD_clean_linker_1, # of connection points: 2
#     Edge 7, Type (0, 0), BuildingBlock: FUNLAD_clean_linker_1, # of connection points: 2
#     Edge 8, Type (0, 0), BuildingBlock: FUNLAD_clean_linker_1, # of connection points: 2
#     Edge 9, Type (0, 0), BuildingBlock: FUNLAD_clean_linker_1, # of connection points: 2
#     Edge 10, Type (0, 0), BuildingBlock: FUNLAD_clean_linker_1, # of connection points: 2
#     Edge 11, Type (0, 0), BuildingBlock: FUNLAD_clean_linker_1, # of connection points: 2
#     Edge 12, Type (0, 0), BuildingBlock: FUNLAD_clean_linker_1, # of connection points: 2
#     Edge 13, Type (0, 0), BuildingBlock: FUNLAD_clean_linker_1, # of connection points: 2
#     Edge 14, Type (0, 0), BuildingBlock: FUNLAD_clean_linker_1, # of connection points: 2
#     Edge 15, Type (0, 0), BuildingBlock: FUNLAD_clean_linker_1, # of connection points: 2
#     Edge 16, Type (0, 0), BuildingBlock: FUNLAD_clean_linker_1, # of connection points: 2
#     Edge 17, Type (0, 0), BuildingBlock: FUNLAD_clean_linker_1, # of connection points: 2
# Relax obj value: 0.088
# Max RMSD: 0.190
# Mean RMSD: 0.155
data_MOF--net-unj--node1-ICAMEG_clean_sbu_1--edge1-FUNLAD_clean_linker_1
_symmetry_space_group_name_H-M    P1
_symmetry_Int_Tables_number       1
_symmetry_cell_setting            triclinic
loop_
_symmetry_equiv_pos_as_xyz
'x, y, z'
_cell_length_a     32.378056
_cell_length_b     35.548148
_cell_length_c     40.99188
_cell_angle_alpha  90.458082
_cell_angle_beta   89.868392
_cell_angle_gamma 119.59009
loop_
_atom_site_label
_atom_site_type_symbol
_atom_site_fract_x
_atom_site_fract_y
_atom_site_fract_z
_atom_type_partial_charge
Co0 Co 0.60852 0.33305 0.60749 0.0
Co1 Co 0.49626 0.24686 0.61594 0.0
O2 O 0.55364 0.28108 0.59018 0.0
C3 C 0.59644 0.3683 0.54429 0.0
O4 O 0.55342 0.35932 0.55281 0.0
C5 C 0.52018 0.18104 0.59125 0.0
O6 O 0.56334 0.20592 0.60242 0.0
O7 O 0.53477 0.24137 0.65169 0.0
O8 O 0.59809 0.30821 0.65234 0.0
H9 H 0.39767 0.20464 0.71792 0.0
H10 H 0.62014 0.28853 0.54964 0.0
O11 O 0.62164 0.35922 0.56289 0.0
H12 H 0.72976 0.28762 0.63255 0.0
H13 H 0.77549 0.45866 0.60332 0.0
H14 H 0.62739 0.38692 0.66717 0.0
H15 H 0.68142 0.32215 0.64432 0.0
H16 H 0.70641 0.39178 0.58289 0.0
O17 O 0.48866 0.19236 0.59473 0.0
H18 H 0.46907 0.24861 0.68475 0.0
H19 H 0.40179 0.16994 0.60164 0.0
H20 H 0.69575 0.45358 0.68862 0.0
H21 H 0.66836 0.25412 0.5367 0.0
H22 H 0.77048 0.48991 0.65661 0.0
H23 H 0.72348 0.25335 0.57839 0.0
O24 O 0.56746 0.35854 0.61815 0.0
H25 H 0.44896 0.24542 0.49909 0.0
H26 H 0.41934 0.27001 0.61323 0.0
H27 H 0.37395 0.27967 0.56905 0.0
H28 H 0.3886 0.26728 0.51149 0.0
H29 H 0.49385 0.23647 0.54405 0.0
H30 H 0.32979 0.12489 0.63396 0.0
H31 H 0.32738 0.14227 0.69251 0.0
O32 O 0.50177 0.30067 0.63718 0.0
C33 C 0.57277 0.271 0.66484 0.0
C34 C 0.39823 0.19684 0.69241 0.0
C35 C 0.36015 0.15204 0.64529 0.0
N36 N 0.43942 0.21205 0.64126 0.0
C37 C 0.43849 0.22169 0.67349 0.0
C38 C 0.40105 0.1776 0.62714 0.0
C39 C 0.35882 0.16182 0.67814 0.0
C40 C 0.64446 0.28877 0.56776 0.0
N41 N 0.64808 0.30751 0.59763 0.0
C42 C 0.67151 0.26906 0.56035 0.0
C43 C 0.70238 0.26858 0.58377 0.0
C44 C 0.7059 0.28777 0.61418 0.0
C45 C 0.67832 0.30719 0.62072 0.0
C46 C 0.74316 0.44309 0.61752 0.0
C47 C 0.65987 0.4024 0.65318 0.0
C48 C 0.70388 0.40525 0.60605 0.0
N49 N 0.663 0.38529 0.62393 0.0
C50 C 0.69843 0.4402 0.66541 0.0
C51 C 0.74033 0.46059 0.64743 0.0
C52 C 0.52771 0.34151 0.63304 0.0
C53 C 0.44217 0.2508 0.52408 0.0
C54 C 0.42602 0.26465 0.58825 0.0
C55 C 0.40012 0.27009 0.56334 0.0
C56 C 0.40835 0.26312 0.53105 0.0
N57 N 0.45911 0.25253 0.58122 0.0
C58 C 0.46738 0.24566 0.54963 0.0
Co59 Co 0.25868 0.47181 0.78597 0.0
Co60 Co 0.27607 0.57381 0.77421 0.0
O61 O 0.2792 0.5229 0.75804 0.0
C62 C 0.34293 0.47883 0.74738 0.0
O63 O 0.35295 0.51645 0.73528 0.0
C64 C 0.23592 0.56317 0.70652 0.0
O65 O 0.21118 0.52098 0.70969 0.0
O66 O 0.2068 0.53686 0.78188 0.0
O67 O 0.20717 0.48071 0.80605 0.0
H68 H 0.22571 0.65329 0.85226 0.0
H69 H 0.26344 0.46364 0.71383 0.0
O70 O 0.30849 0.4592 0.7672 0.0
H71 H 0.09816 0.35979 0.74358 0.0
H72 H 0.21912 0.31933 0.8122 0.0
H73 H 0.23249 0.45463 0.85573 0.0
H74 H 0.15636 0.40379 0.78588 0.0
H75 H 0.24324 0.38226 0.77645 0.0
O76 O 0.26298 0.58704 0.72927 0.0
H77 H 0.23159 0.59076 0.83164 0.0
H78 H 0.3117 0.66382 0.75026 0.0
H79 H 0.20806 0.39244 0.89228 0.0
H80 H 0.2067 0.41962 0.67087 0.0
H81 H 0.20118 0.32414 0.87054 0.0
H82 H 0.12326 0.36732 0.68558 0.0
O83 O 0.30489 0.50892 0.82024 0.0
H84 H 0.42536 0.62977 0.70791 0.0
H85 H 0.35828 0.63907 0.81381 0.0
H86 H 0.4444 0.6834 0.80454 0.0
H87 H 0.47853 0.67898 0.75126 0.0
H88 H 0.33939 0.58557 0.71837 0.0
H89 H 0.30641 0.72703 0.76991 0.0
H90 H 0.26331 0.72206 0.82133 0.0
O91 O 0.2898 0.56396 0.82 0.0
C92 C 0.18673 0.5024 0.79867 0.0
C93 C 0.24469 0.6559 0.82987 0.0
C94 C 0.28993 0.69726 0.78363 0.0
N95 N 0.27222 0.62366 0.78989 0.0
C96 C 0.24822 0.62061 0.8181 0.0
C97 C 0.29272 0.66131 0.77259 0.0
C98 C 0.26576 0.69446 0.81249 0.0
C99 C 0.22756 0.44045 0.7206 0.0
N100 N 0.21363 0.43595 0.75248 0.0
C101 C 0.19541 0.4158 0.69608 0.0
C102 C 0.14858 0.38654 0.70434 0.0
C103 C 0.13449 0.38229 0.73686 0.0
C104 C 0.16764 0.4074 0.76072 0.0
C105 C 0.22192 0.34889 0.82195 0.0
C106 C 0.22942 0.42499 0.84605 0.0
C107 C 0.23567 0.38467 0.80184 0.0
N108 N 0.23901 0.42203 0.81394 0.0
C109 C 0.21564 0.38989 0.86688 0.0
C110 C 0.21184 0.3516 0.85467 0.0
C111 C 0.30781 0.54297 0.83303 0.0
C112 C 0.41094 0.63195 0.73125 0.0
C113 C 0.37283 0.63661 0.79065 0.0
C114 C 0.42165 0.66196 0.7855 0.0
C115 C 0.44075 0.65952 0.75559 0.0
N116 N 0.34381 0.60951 0.76669 0.0
C117 C 0.36227 0.60708 0.73727 0.0
Co118 Co 0.76275 0.30934 0.92236 0.0
Co119 Co 0.77947 0.221 0.92464 0.0
O120 O 0.76173 0.26082 0.94552 0.0
C121 C 0.81566 0.34957 0.98391 0.0
O122 O 0.83809 0.32745 0.98083 0.0
C123 C 0.68534 0.15988 0.95368 0.0
O124 O 0.66754 0.18206 0.9401 0.0
O125 O 0.73329 0.2091 0.88847 0.0
O126 O 0.73933 0.27419 0.88133 0.0
H127 H 0.82438 0.15732 0.8304 0.0
H128 H 0.71094 0.27969 0.98489 0.0
O129 O 0.78523 0.34608 0.96279 0.0
H130 H 0.59058 0.26479 0.9045 0.0
H131 H 0.73626 0.43685 0.91077 0.0
H132 H 0.79477 0.34764 0.85692 0.0
H133 H 0.674 0.29329 0.88808 0.0
H134 H 0.73425 0.37519 0.9394 0.0
O135 O 0.7291 0.17146 0.95014 0.0
H136 H 0.80389 0.20832 0.85722 0.0
H137 H 0.79033 0.14716 0.94831 0.0
H138 H 0.79711 0.40879 0.82731 0.0
H139 H 0.62797 0.25153 1.00247 0.0
H140 H 0.76768 0.45387 0.85427 0.0
H141 H 0.5671 0.24377 0.96209 0.0
O142 O 0.82989 0.33095 0.90895 0.0
H143 H 0.83035 0.23903 0.04206 0.0
H144 H 0.88161 0.24442 0.92799 0.0
H145 H 0.93927 0.26104 0.97255 0.0
H146 H 0.91373 0.25832 0.03008 0.0
H147 H 0.77397 0.22312 0.99673 0.0
H148 H 0.81012 0.09522 0.92243 0.0
H149 H 0.82753 0.10023 0.86307 0.0
O150 O 0.83115 0.26927 0.89897 0.0
C151 C 0.72482 0.23516 0.87244 0.0
C152 C 0.81703 0.1549 0.8563 0.0
C153 C 0.80897 0.12001 0.90794 0.0
N154 N 0.79627 0.18093 0.90432 0.0
C155 C 0.80555 0.18377 0.87163 0.0
C156 C 0.79767 0.14946 0.92245 0.0
C157 C 0.81874 0.12285 0.87464 0.0
C158 C 0.68472 0.27672 0.96724 0.0
N159 N 0.69735 0.2882 0.93551 0.0
C160 C 0.63777 0.26062 0.97731 0.0
C161 C 0.60362 0.25623 0.95464 0.0
C162 C 0.61676 0.26798 0.92231 0.0
C163 C 0.66405 0.28396 0.91313 0.0
C164 C 0.74912 0.4174 0.89876 0.0
C165 C 0.78169 0.36698 0.86875 0.0
C166 C 0.74818 0.38251 0.91487 0.0
N167 N 0.76408 0.35766 0.89975 0.0
C168 C 0.78321 0.40162 0.85189 0.0
C169 C 0.76673 0.42692 0.86704 0.0
C170 C 0.84972 0.31032 0.89753 0.0
C171 C 0.84188 0.24021 0.0171 0.0
C172 C 0.87026 0.24335 0.95294 0.0
C173 C 0.90304 0.25267 0.97808 0.0
C174 C 0.88867 0.2511 1.01036 0.0
N175 N 0.82442 0.23272 0.95976 0.0
C176 C 0.81006 0.23105 0.99134 0.0
Co177 Co 0.46412 0.72556 0.10006 0.0
Co178 Co 0.5816 0.8028 0.11365 0.0
O179 O 0.5259 0.7718 0.08537 0.0
C180 C 0.48761 0.68356 0.04566 0.0
O181 O 0.52991 0.69837 0.0586 0.0
C182 C 0.57021 0.87349 0.08384 0.0
O183 O 0.52473 0.85182 0.09078 0.0
O184 O 0.54373 0.81341 0.14738 0.0
O185 O 0.46892 0.75847 0.14104 0.0
H186 H 0.67141 0.83841 0.21958 0.0
H187 H 0.47434 0.76466 0.03491 0.0
O188 O 0.45731 0.69176 0.059 0.0
H189 H 0.355 0.78836 0.0923 0.0
H190 H 0.29288 0.61099 0.08519 0.0
H191 H 0.42577 0.68217 0.16319 0.0
H192 H 0.3906 0.74911 0.11892 0.0
H193 H 0.37088 0.66974 0.06728 0.0
O194 O 0.59752 0.85871 0.09162 0.0
H195 H 0.60134 0.7996 0.18386 0.0
H196 H 0.68111 0.87326 0.10262 0.0
H197 H 0.34827 0.6238 0.1822 0.0
H198 H 0.43934 0.80371 1.00721 0.0
H199 H 0.28113 0.58785 0.14309 0.0
H200 H 0.37934 0.81593 0.03601 0.0
O201 O 0.49437 0.69524 0.12223 0.0
H202 H 0.63668 0.79766 0.99981 0.0
H203 H 0.65008 0.76953 0.11581 0.0
H204 H 0.69492 0.75354 0.07459 0.0
H205 H 0.6885 0.76774 1.0161 0.0
H206 H 0.59192 0.81263 0.04181 0.0
H207 H 0.75194 0.91314 0.13751 0.0
H208 H 0.74739 0.89564 0.19641 0.0
O209 O 0.56775 0.74792 0.13579 0.0
C210 C 0.50022 0.7922 0.15595 0.0
C211 C 0.67387 0.84626 0.19393 0.0
C212 C 0.71904 0.88825 0.14788 0.0
N213 N 0.63721 0.83399 0.14117 0.0
C214 C 0.63434 0.82434 0.17358 0.0
C215 C 0.67879 0.86565 0.12827 0.0
C216 C 0.71648 0.8784 0.18093 0.0
C217 C 0.44802 0.76961 0.04751 0.0
N218 N 0.43463 0.75475 0.07854 0.0
C219 C 0.42842 0.79184 0.03174 0.0
C220 C 0.39481 0.79873 0.04792 0.0
C221 C 0.38118 0.78332 0.07952 0.0
C222 C 0.4016 0.76129 0.09454 0.0
C223 C 0.32183 0.62647 0.10248 0.0
C224 C 0.39666 0.66679 0.14606 0.0
C225 C 0.36611 0.65967 0.09246 0.0
N226 N 0.40273 0.67955 0.11423 0.0
C227 C 0.35289 0.63369 0.15694 0.0
C228 C 0.31525 0.61351 0.13497 0.0
C229 C 0.53452 0.70858 0.13613 0.0
C230 C 0.63989 0.79146 0.02522 0.0
C231 C 0.64692 0.77564 0.09041 0.0
C232 C 0.67252 0.76664 0.06718 0.0
C233 C 0.66891 0.77462 0.03438 0.0
N234 N 0.61853 0.79217 0.08125 0.0
C235 C 0.61479 0.80005 0.04913 0.0
Co236 Co 0.81135 0.58468 0.2787 0.0
Co237 Co 0.77539 0.47627 0.27379 0.0
O238 O 0.7844 0.52997 0.25421 0.0
C239 C 0.72335 0.57848 0.25002 0.0
O240 O 0.69901 0.5385 0.26044 0.0
C241 C 0.82408 0.48058 0.21087 0.0
O242 O 0.85305 0.52204 0.21574 0.0
O243 O 0.84348 0.5054 0.28705 0.0
O244 O 0.85642 0.57104 0.30261 0.0
H245 H 0.79141 0.38719 0.3622 0.0
H246 H 0.80725 0.58618 0.20652 0.0
O247 O 0.7679 0.60073 0.25513 0.0
H248 H 0.97723 0.67305 0.23447 0.0
H249 H 0.87275 0.74465 0.29172 0.0
H250 H 0.83855 0.61006 0.34774 0.0
H251 H 0.91694 0.64093 0.2777 0.0
H252 H 0.83969 0.67563 0.26128 0.0
O253 O 0.79184 0.4584 0.23145 0.0
H254 H 0.80195 0.45416 0.337 0.0
H255 H 0.73086 0.38426 0.25137 0.0
H256 H 0.87197 0.67843 0.37905 0.0
H257 H 0.86636 0.61843 0.16248 0.0
H258 H 0.8893 0.74636 0.35101 0.0
H259 H 0.95206 0.66202 0.17635 0.0
O260 O 0.76296 0.55676 0.31372 0.0
H261 H 0.6416 0.4389 0.19516 0.0
H262 H 0.68307 0.41942 0.30704 0.0
H263 H 0.5988 0.38509 0.29082 0.0
H264 H 0.57762 0.39472 0.2345 0.0
H265 H 0.72541 0.47295 0.21252 0.0
H266 H 0.71994 0.31662 0.27552 0.0
H267 H 0.75012 0.31778 0.33139 0.0
O268 O 0.7576 0.49149 0.31672 0.0
C269 C 0.86871 0.54202 0.3009 0.0
C270 C 0.77799 0.38625 0.33787 0.0
C271 C 0.73793 0.34665 0.28921 0.0
N272 N 0.76677 0.42308 0.29285 0.0
C273 C 0.78377 0.42405 0.3235 0.0
C274 C 0.74435 0.38508 0.27562 0.0
C275 C 0.75486 0.34732 0.32056 0.0
C276 C 0.84442 0.60558 0.21276 0.0
N277 N 0.85856 0.61171 0.24465 0.0
C278 C 0.87775 0.62358 0.18771 0.0
C279 C 0.92584 0.64798 0.19551 0.0
C280 C 0.93999 0.65416 0.2281 0.0
C281 C 0.90566 0.63573 0.25249 0.0
C282 C 0.8654 0.71527 0.3042 0.0
C283 C 0.84619 0.63953 0.33534 0.0
C284 C 0.84657 0.67608 0.28711 0.0
N285 N 0.83746 0.63891 0.30269 0.0
C286 C 0.86502 0.67812 0.35321 0.0
C287 C 0.8747 0.71621 0.33747 0.0
C288 C 0.74916 0.52065 0.32781 0.0
C289 C 0.65038 0.43443 0.21976 0.0
C290 C 0.67413 0.42395 0.28256 0.0
C291 C 0.62636 0.40432 0.27348 0.0
C292 C 0.6145 0.40969 0.24186 0.0
N293 N 0.70913 0.44815 0.26074 0.0
C294 C 0.69777 0.45351 0.22969 0.0
Co295 Co 0.29726 0.74054 0.4214 0.0
Co296 Co 0.27184 0.82414 0.41805 0.0
O297 O 0.29474 0.78982 0.44172 0.0
C298 C 0.24653 0.70163 0.48404 0.0
O299 O 0.2195 0.71923 0.48025 0.0
C300 C 0.35616 0.89075 0.45807 0.0
O301 O 0.36978 0.86276 0.46567 0.0
O302 O 0.31736 0.83466 0.38159 0.0
O303 O 0.31729 0.77152 0.37887 0.0
H304 H 0.21447 0.86745 0.319 0.0
H305 H 0.34941 0.77726 0.48321 0.0
O306 O 0.2784 0.70765 0.46328 0.0
H307 H 0.47153 0.79338 0.40374 0.0
H308 H 0.33644 0.61986 0.41633 0.0
H309 H 0.26586 0.69513 0.35777 0.0
H310 H 0.38736 0.75929 0.38755 0.0
H311 H 0.33319 0.68131 0.44204 0.0
O312 O 0.32014 0.87988 0.43981 0.0
H313 H 0.24314 0.82533 0.34958 0.0
H314 H 0.2523 0.89548 0.43621 0.0
H315 H 0.26894 0.63421 0.33101 0.0
H316 H 0.43309 0.81082 0.5007 0.0
H317 H 0.30442 0.5961 0.36035 0.0
H318 H 0.49489 0.81931 0.46077 0.0
O319 O 0.22899 0.71322 0.4084 0.0
H320 H 0.2228 0.81414 0.53566 0.0
H321 H 0.16832 0.7953 0.42142 0.0
H322 H 0.11091 0.77992 0.46588 0.0
H323 H 0.13807 0.7895 0.5235 0.0
H324 H 0.27883 0.82855 0.49052 0.0
H325 H 0.22407 0.93855 0.40649 0.0
H326 H 0.20477 0.92453 0.34749 0.0
O327 O 0.22207 0.77102 0.39529 0.0
C328 C 0.3278 0.8084 0.36733 0.0
C329 C 0.22267 0.8738 0.34473 0.0
C330 C 0.22812 0.91374 0.39382 0.0
N331 N 0.24916 0.85775 0.39468 0.0
C332 C 0.23883 0.84999 0.36219 0.0
C333 C 0.24422 0.88932 0.41049 0.0
C334 C 0.21727 0.90584 0.36072 0.0
C335 C 0.37604 0.7806 0.46574 0.0
N336 N 0.36352 0.76673 0.43427 0.0
C337 C 0.4234 0.79974 0.47577 0.0
C338 C 0.45805 0.80454 0.45334 0.0
C339 C 0.44499 0.79009 0.42133 0.0
C340 C 0.39728 0.77112 0.4122 0.0
C341 C 0.32095 0.63624 0.40329 0.0
C342 C 0.2816 0.67888 0.37063 0.0
C343 C 0.31888 0.67099 0.41776 0.0
N344 N 0.29967 0.69202 0.40133 0.0
C345 C 0.28312 0.64432 0.35538 0.0
C346 C 0.303 0.62294 0.37187 0.0
C347 C 0.20634 0.73037 0.39577 0.0
C348 C 0.2106 0.81014 0.51065 0.0
C349 C 0.1805 0.79956 0.44642 0.0
C350 C 0.14779 0.79083 0.4715 0.0
C351 C 0.16305 0.79622 0.50382 0.0
N352 N 0.2272 0.81351 0.45329 0.0
C353 C 0.2423 0.81857 0.48494 0.0
H354 H 0.53668 0.1316 0.57203 0.0
C355 C 0.50868 0.13989 0.57444 0.0
H356 H 0.43659 0.12 0.56533 0.0
H357 H 0.47111 0.99891 0.45648 0.0
H358 H 0.52487 0.06649 0.42992 0.0
H359 H 0.54555 0.13653 0.45577 0.0
H360 H 0.51318 0.13953 0.50847 0.0
C361 C 0.46528 0.11276 0.56215 0.0
C362 C 0.45357 0.07057 0.54624 0.0
C363 C 0.47207 0.06935 0.51503 0.0
C364 C 0.45888 0.02884 0.49957 0.0
C365 C 0.47893 0.02869 0.46888 0.0
C366 C 0.50998 0.06724 0.45344 0.0
C367 C 0.52173 0.10668 0.46803 0.0
C368 C 0.50305 0.10793 0.49841 0.0
H369 H 0.36851 0.95726 0.46369 0.0
C370 C 0.37935 0.93475 0.4727 0.0
H371 H 0.41898 0.92412 0.50865 0.0
H372 H 0.41236 0.06097 0.60616 0.0
H373 H 0.35729 0.99339 0.63208 0.0
H374 H 0.33309 0.92345 0.60477 0.0
H375 H 0.3639 0.92058 0.5514 0.0
C376 C 0.40978 0.94692 0.498 0.0
C377 C 0.42625 0.98954 0.51486 0.0
C378 C 0.40813 0.99077 0.54617 0.0
C379 C 0.42172 0.03122 0.5618 0.0
C380 C 0.40291 0.03127 0.59302 0.0
C381 C 0.37133 0.9927 0.60823 0.0
C382 C 0.35774 0.95331 0.59287 0.0
C383 C 0.37577 0.95215 0.56222 0.0
H384 H 0.5343 0.40558 0.64291 0.0
C385 C 0.51155 0.371 0.64637 0.0
H386 H 0.44599 0.32218 0.66482 0.0
H387 H 0.46724 0.49056 0.7495 0.0
H388 H 0.53356 0.48994 0.77649 0.0
H389 H 0.56303 0.44154 0.7573 0.0
H390 H 0.52675 0.39375 0.71085 0.0
C391 C 0.46991 0.35669 0.6621 0.0
C392 C 0.45298 0.38673 0.67378 0.0
C393 C 0.47416 0.41406 0.70132 0.0
C394 C 0.45637 0.44129 0.71294 0.0
C395 C 0.47877 0.46875 0.74007 0.0
C396 C 0.51693 0.46878 0.75573 0.0
C397 C 0.53358 0.44159 0.74488 0.0
C398 C 0.51254 0.41442 0.71807 0.0
H399 H 0.36163 0.42699 0.74921 0.0
C400 C 0.36864 0.4562 0.73636 0.0
H401 H 0.40247 0.49574 0.69569 0.0
H402 H 0.40458 0.33902 0.62026 0.0
H403 H 0.33746 0.3388 0.59392 0.0
H404 H 0.30598 0.38506 0.61454 0.0
H405 H 0.34148 0.43194 0.66161 0.0
C406 C 0.39704 0.46808 0.71 0.0
C407 C 0.41693 0.44068 0.6974 0.0
C408 C 0.39597 0.41354 0.66978 0.0
C409 C 0.4139 0.38653 0.65804 0.0
C410 C 0.39214 0.35983 0.6304 0.0
C411 C 0.35365 0.35946 0.61499 0.0
C412 C 0.33595 0.38554 0.62659 0.0
C413 C 0.35671 0.41233 0.65362 0.0
H414 H 0.91238 0.31534 0.87225 0.0
C415 C 0.89698 0.33422 0.88197 0.0
H416 H 0.90834 0.39732 0.89071 0.0
H417 H 0.13292 0.47924 0.88859 0.0
H418 H 0.11882 0.48636 0.9459 0.0
H419 H 0.03723 0.45401 0.96744 0.0
H420 H 0.96919 0.41443 0.93184 0.0
C421 C 0.92208 0.37762 0.88008 0.0
C422 C 0.97125 0.39972 0.86636 0.0
C423 C 1.01066 0.42313 0.88743 0.0
C424 C 0.05778 0.44146 0.87506 0.0
C425 C 0.09643 0.46436 0.89675 0.0
C426 C 0.08885 0.46876 0.92968 0.0
C427 C 0.0429 0.45058 0.9418 0.0
C428 C 1.00415 0.42797 0.92107 0.0
H429 H 0.12002 0.50511 0.80352 0.0
C430 C 0.13786 0.48736 0.81068 0.0
H431 H 0.13278 0.43493 0.83789 0.0
H432 H 0.90399 0.36204 0.81847 0.0
H433 H 0.91808 0.35373 0.76138 0.0
H434 H 0.99961 0.38219 0.74053 0.0
H435 H 0.06756 0.41973 0.77647 0.0
C436 C 0.11491 0.45221 0.82967 0.0
C437 C 0.06555 0.43654 0.84163 0.0
C438 C 1.02615 0.41395 0.82037 0.0
C439 C 0.979 0.39614 0.83265 0.0
C440 C 0.94043 0.37496 0.81067 0.0
C441 C 0.94802 0.37018 0.7778 0.0
C442 C 0.99393 0.38631 0.76604 0.0
C443 C 0.03267 0.40794 0.78695 0.0
H444 H 0.62879 0.93088 0.06083 0.0
C445 C 0.59087 0.91472 0.0658 0.0
H446 H 0.52754 0.91744 0.05989 0.0
H447 H 0.64238 0.12152 0.03722 0.0
H448 H 0.60485 0.1173 0.08931 0.0
H449 H 0.55912 0.04748 0.11736 0.0
H450 H 0.55085 0.9814 0.09355 0.0
C451 C 0.56525 0.93234 0.05458 0.0
C452 C 0.58841 0.97366 0.03577 0.0
C453 C 0.59178 1.01186 0.04948 0.0
C454 C 0.61769 0.05215 0.03303 0.0
C455 C 0.62228 0.08997 0.04816 0.0
C456 C 0.6011 0.08805 0.07818 0.0
C457 C 0.57539 0.04874 0.094 0.0
C458 C 0.57086 1.01103 0.08002 0.0
H459 H 0.61633 0.10963 0.97359 0.0
C460 C 0.65401 0.12015 0.97221 0.0
H461 H 0.70827 0.10609 0.98427 0.0
H462 H 0.58215 0.90566 0.99992 0.0
H463 H 0.61852 0.90956 0.9474 0.0
H464 H 0.6649 0.97943 0.91951 0.0
H465 H 0.67479 0.04578 0.94384 0.0
C466 C 0.67087 0.09641 0.98649 0.0
C467 C 0.63956 0.05406 1.00256 0.0
C468 C 0.63454 1.01554 0.98826 0.0
C469 C 0.60852 0.9753 1.00464 0.0
C470 C 0.60281 0.93726 0.98913 0.0
C471 C 0.62318 0.93898 0.95882 0.0
C472 C 0.64924 0.9783 0.9431 0.0
C473 C 0.6548 1.01619 0.95744 0.0
H474 H 0.72216 0.63295 0.22576 0.0
C475 C 0.70002 0.59924 0.23254 0.0
H476 H 0.63053 0.54563 0.23207 0.0
H477 H 0.53406 0.66317 0.21836 0.0
H478 H 0.50532 0.63005 0.27112 0.0
H479 H 0.53399 0.58397 0.2956 0.0
H480 H 0.59167 0.57078 0.26752 0.0
C481 C 0.65357 0.57893 0.22475 0.0
C482 C 0.63209 0.60259 0.20809 0.0
C483 C 0.59746 0.60919 0.22447 0.0
C484 C 0.58066 0.63565 0.21026 0.0
C485 C 0.5475 0.64294 0.22776 0.0
C486 C 0.53081 0.62423 0.25814 0.0
C487 C 0.54697 0.59829 0.27193 0.0
C488 C 0.58004 0.59091 0.25549 0.0
H489 H 0.51615 0.64257 0.15206 0.0
C490 C 0.54381 0.67634 0.15241 0.0
H491 H 0.6145 0.72101 0.16589 0.0
H492 H 0.69096 0.58971 0.16705 0.0
H493 H 0.71866 0.62195 0.11391 0.0
H494 H 0.69178 0.66983 0.09025 0.0
H495 H 0.63653 0.68527 0.11943 0.0
C496 C 0.58607 0.68757 0.16634 0.0
C497 C 0.59823 0.65522 0.17956 0.0
C498 C 0.63105 0.64691 0.16247 0.0
C499 C 0.64744 0.62011 0.17648 0.0
C500 C 0.67876 0.61111 0.15817 0.0
C501 C 0.69461 0.6291 0.12748 0.0
C502 C 0.67942 0.65599 0.11413 0.0
C503 C 0.64787 0.66475 0.13123 0.0
H504 H 0.14271 0.71989 0.3691 0.0
C505 C 0.15912 0.70312 0.38076 0.0
H506 H 0.14925 0.6419 0.39417 0.0
H507 H 0.92403 0.56478 0.38993 0.0
H508 H 0.93761 0.561 0.44779 0.0
H509 H 1.01896 0.59108 0.46953 0.0
H510 H 0.08727 0.62507 0.43362 0.0
C511 C 0.13488 0.65965 0.38152 0.0
C512 C 0.08572 0.63563 0.36768 0.0
C513 C 0.04615 0.61513 0.3889 0.0
C514 C 0.99917 0.59799 0.37639 0.0
C515 C 0.96039 0.5785 0.39823 0.0
C516 C 0.9677 0.57607 0.43144 0.0
C517 C 1.01351 0.59298 0.44368 0.0
C518 C 0.05241 0.61241 0.4228 0.0
H519 H 0.92721 0.52842 0.31152 0.0
C520 C 0.91519 0.55183 0.31492 0.0
H521 H 0.93164 0.61283 0.33471 0.0
H522 H 0.15287 0.66569 0.31959 0.0
H523 H 0.13924 0.6693 0.26175 0.0
H524 H 0.05814 0.64239 0.24041 0.0
H525 H 0.99014 0.6111 0.27664 0.0
C526 C 0.94344 0.5894 0.33058 0.0
C527 C 0.99176 0.60114 0.34269 0.0
C528 C 0.03116 0.6196 0.32121 0.0
C529 C 0.07809 0.63631 0.33365 0.0
C530 C 0.11666 0.65374 0.31154 0.0
C531 C 0.1093 0.65576 0.27828 0.0
C532 C 0.06363 0.64052 0.26626 0.0
C533 C 1.02488 0.6226 0.28733 0.0
H534 H 0.65173 0.39276 0.5066 0.0
C535 C 0.61775 0.38991 0.51321 0.0
H536 H 0.56448 0.40461 0.49937 0.0
H537 H 0.766 0.5306 0.41607 0.0
H538 H 0.79817 0.56486 0.46829 0.0
H539 H 0.75005 0.53914 0.51838 0.0
H540 H 0.66969 0.47831 0.51655 0.0
C541 C 0.59872 0.40753 0.49366 0.0
C542 C 0.62344 0.42944 0.46288 0.0
C543 C 0.66935 0.46664 0.46401 0.0
C544 C 0.69633 0.48272 0.43488 0.0
C545 C 0.7433 0.51789 0.43716 0.0
C546 C 0.76231 0.53781 0.46706 0.0
C547 C 0.73528 0.52325 0.49527 0.0
C548 C 0.68934 0.48811 0.49392 0.0
H549 H 0.71372 0.53608 0.36803 0.0
C550 C 0.72178 0.5118 0.35853 0.0
H551 H 0.713 0.44929 0.36461 0.0
H552 H 0.53443 0.36113 0.45159 0.0
H553 H 0.49999 0.33009 0.39888 0.0
H554 H 0.54536 0.36002 0.34816 0.0
H555 H 0.62559 0.42106 0.34991 0.0
C556 C 0.70634 0.47423 0.37453 0.0
C557 C 0.67644 0.46277 0.40446 0.0
C558 C 0.62905 0.42797 0.40308 0.0
C559 C 0.60259 0.41118 0.43229 0.0
C560 C 0.55596 0.37543 0.43016 0.0
C561 C 0.53575 0.35729 0.40005 0.0
C562 C 0.56131 0.3741 0.3715 0.0
C563 C 0.60741 0.40899 0.37285 0.0
H564 H 0.26189 0.65742 0.51171 0.0
C565 C 0.24164 0.67437 0.51237 0.0
H566 H 0.19515 0.6873 0.54034 0.0
H567 H 0.12663 0.52581 0.63345 0.0
H568 H 0.05352 0.50985 0.6059 0.0
H569 H 0.05392 0.55478 0.56023 0.0
H570 H 0.12738 0.61639 0.5421 0.0
C571 C 0.21634 0.6713 0.53923 0.0
C572 C 0.21601 0.64489 0.56763 0.0
C573 C 0.17288 0.60856 0.5777 0.0
C574 C 0.17279 0.58204 0.60367 0.0
C575 C 0.12895 0.54667 0.61363 0.0
C576 C 0.08666 0.53714 0.59804 0.0
C577 C 0.08688 0.56246 0.57234 0.0
C578 C 0.12934 0.59778 0.56219 0.0
H579 H 0.24749 0.62004 0.67889 0.0
C580 C 0.23265 0.58517 0.67707 0.0
H581 H 0.19988 0.53071 0.64581 0.0
H582 H 0.30387 0.71648 0.55931 0.0
H583 H 0.37783 0.72916 0.58358 0.0
H584 H 0.37928 0.67701 0.62227 0.0
H585 H 0.30651 0.61286 0.63782 0.0
C586 C 0.21534 0.56556 0.64819 0.0
C587 C 0.21597 0.59133 0.61921 0.0
C588 C 0.2594 0.62669 0.60818 0.0
C589 C 0.2591 0.65472 0.58369 0.0
C590 C 0.30236 0.69245 0.576 0.0
C591 C 0.34509 0.70039 0.59002 0.0
C592 C 0.34586 0.67119 0.61194 0.0
C593 C 0.30369 0.63472 0.62095 0.0
H594 H 0.68339 0.18625 0.83417 0.0
C595 C 0.69587 0.21933 0.84225 0.0
H596 H 0.69509 0.27756 0.83364 0.0
H597 H 0.64348 0.22038 0.6832 0.0
H598 H 0.72357 0.23144 0.67887 0.0
H599 H 0.77187 0.24199 0.72815 0.0
H600 H 0.74025 0.24112 0.78209 0.0
C601 C 0.68373 0.24478 0.82535 0.0
C602 C 0.65215 0.22967 0.7962 0.0
C603 C 0.67107 0.22991 0.76495 0.0
C604 C 0.64358 0.22473 0.7365 0.0
C605 C 0.66327 0.22511 0.70554 0.0
C606 C 0.70907 0.23122 0.70273 0.0
C607 C 0.73623 0.23709 0.73049 0.0
C608 C 0.71767 0.23653 0.7613 0.0
H609 H 0.62232 0.29044 0.70603 0.0
C610 C 0.59085 0.26311 0.69553 0.0
H611 H 0.54163 0.19629 0.70049 0.0
H612 H 0.60328 0.22187 0.85244 0.0
H613 H 0.52272 0.20971 0.85675 0.0
H614 H 0.47544 0.20162 0.80737 0.0
H615 H 0.50844 0.20566 0.75332 0.0
C616 C 0.57326 0.22439 0.70989 0.0
C617 C 0.59762 0.22015 0.73934 0.0
C618 C 0.57739 0.21652 0.77061 0.0
C619 C 0.60475 0.22141 0.79908 0.0
C620 C 0.58415 0.2188 0.83006 0.0
C621 C 0.53794 0.21169 0.83286 0.0
C622 C 0.51131 0.2071 0.80504 0.0
C623 C 0.53065 0.20953 0.7742 0.0
H624 H 0.33184 0.58857 0.87418 0.0
C625 C 0.33255 0.56035 0.86436 0.0
H626 H 0.35803 0.51655 0.87208 0.0
H627 H 0.48791 0.6991 0.95945 0.0
H628 H 0.52142 0.73091 0.90721 0.0
H629 H 0.49328 0.68788 0.85643 0.0
H630 H 0.43059 0.61281 0.85763 0.0
C631 C 0.35717 0.54517 0.88059 0.0
C632 C 0.38229 0.56726 0.91142 0.0
C633 C 0.4207 0.61038 0.91058 0.0
C634 C 0.43831 0.63464 0.94005 0.0
C635 C 0.47429 0.67857 0.9381 0.0
C636 C 0.49371 0.69738 0.90818 0.0
C637 C 0.47774 0.6732 0.87957 0.0
C638 C 0.44162 0.63024 0.8806 0.0
H639 H 0.50216 0.65202 1.00379 0.0
C640 C 0.4753 0.65761 1.01518 0.0
H641 H 0.40465 0.64556 1.01307 0.0
H642 H 0.31252 0.48395 0.92173 0.0
H643 H 0.28168 0.45041 0.9742 0.0
H644 H 0.31374 0.49154 0.02544 0.0
H645 H 0.37667 0.56652 0.02459 0.0
C646 C 0.43218 0.64137 1.00119 0.0
C647 C 0.41875 0.61508 0.97049 0.0
C648 C 0.38271 0.57097 0.97137 0.0
C649 C 0.36451 0.54706 0.94183 0.0
C650 C 0.3277 0.50347 0.94346 0.0
C651 C 0.30973 0.48383 0.97339 0.0
C652 C 0.32776 0.507 1.00225 0.0
C653 C 0.36378 0.55005 1.00141 0.0
H654 H 0.80877 0.3996 1.01118 0.0
C655 C 0.82315 0.37772 1.01247 0.0
H656 H 0.85729 0.35324 0.04241 0.0
H657 H 0.93896 0.50654 0.14553 0.0
H658 H 1.01108 0.51312 0.12217 0.0
H659 H 1.00787 0.46918 0.07435 0.0
H660 H 0.93244 0.41794 0.04982 0.0
C661 C 0.84252 0.37474 0.0406 0.0
C662 C 0.84425 0.40089 0.06989 0.0
C663 C 0.88866 0.43121 0.08368 0.0
C664 C 0.89057 0.45721 0.11093 0.0
C665 C 0.9354 0.48641 0.12461 0.0
C666 C 0.97712 0.4905 0.11145 0.0
C667 C 0.97531 0.46573 0.08455 0.0
C668 C 0.93174 0.4364 0.07072 0.0
H669 H 0.80691 0.42298 0.18126 0.0
C670 C 0.82705 0.45815 0.1813 0.0
H671 H 0.8706 0.51369 0.15356 0.0
H672 H 0.75241 0.34038 0.05402 0.0
H673 H 0.68079 0.33765 0.07447 0.0
H674 H 0.68496 0.39014 0.11592 0.0
H675 H 0.76069 0.44451 0.13796 0.0
C676 C 0.84999 0.47859 0.15402 0.0
C677 C 0.84811 0.45343 0.12406 0.0
C678 C 0.80378 0.42424 0.10942 0.0
C679 C 0.80166 0.39646 0.08351 0.0
C680 C 0.75647 0.36437 0.07202 0.0
C681 C 0.71494 0.3621 0.08382 0.0
C682 C 0.71726 0.39146 0.10728 0.0
C683 C 0.76102 0.42223 0.11999 0.0
H684 H 0.35068 0.84573 0.32117 0.0
C685 C 0.35093 0.81976 0.33481 0.0
H686 H 0.36909 0.77046 0.3351 0.0
H687 H 0.37151 0.72084 0.19268 0.0
H688 H 0.30133 0.65821 0.21287 0.0
H689 H 0.26762 0.65998 0.26647 0.0
H690 H 0.30438 0.72444 0.30031 0.0
C691 C 0.3699 0.79687 0.32148 0.0
C692 C 0.3855 0.80036 0.28678 0.0
C693 C 0.36246 0.76306 0.26647 0.0
C694 C 0.38096 0.76262 0.23504 0.0
C695 C 0.35847 0.72384 0.21629 0.0
C696 C 0.31813 0.68735 0.22766 0.0
C697 C 0.29922 0.6883 0.25785 0.0
C698 C 0.32093 0.72553 0.27712 0.0
H699 H 0.51127 0.81835 0.20627 0.0
C700 C 0.4858 0.80524 0.18636 0.0
H701 H 0.41663 0.78581 0.17015 0.0
H702 H 0.43995 0.87685 0.3195 0.0
H703 H 0.50575 0.94198 0.29745 0.0
H704 H 0.53178 0.94397 0.24058 0.0
H705 H 0.49305 0.88035 0.20574 0.0
C706 C 0.44125 0.7982 0.19054 0.0
C707 C 0.42163 0.80014 0.22323 0.0
C708 C 0.44261 0.83848 0.24261 0.0
C709 C 0.42557 0.83816 0.27481 0.0
C710 C 0.44984 0.87579 0.29447 0.0
C711 C 0.48789 0.91338 0.28215 0.0
C712 C 0.50269 0.91445 0.25018 0.0
C713 C 0.48042 0.87757 0.23052 0.0
loop_
_geom_bond_atom_site_label_1
_geom_bond_atom_site_label_2
_geom_bond_distance
_geom_bond_site_symmetry_2
_ccdc_geom_bond_type
Co0 O2 2.143 . S
Co0 O8 2.074 . S
Co0 O11 2.093 . S
Co0 O24 2.097 . S
Co0 N41 2.151 . S
Co0 N49 2.214 . S
Co1 O2 2.160 . S
Co1 O7 2.058 . S
Co1 O17 2.057 . S
Co1 O32 2.037 . S
Co1 N36 2.145 . S
Co1 N57 2.257 . S
O2 Co0 2.143 . S
O2 Co1 2.160 . S
C3 O4 1.278 . S
C3 O11 1.224 . S
O4 C3 1.278 . S
C5 O6 1.245 . S
C5 O17 1.232 . S
O6 C5 1.245 . S
O7 Co1 2.058 . S
O7 C33 1.269 . S
O8 Co0 2.074 . S
O8 C33 1.257 . S
H9 C34 0.930 . S
H10 C40 0.930 . S
O11 Co0 2.093 . S
O11 C3 1.224 . S
H12 C44 0.929 . S
H13 C46 0.930 . S
H14 C47 0.930 . S
H15 C45 0.929 . S
H16 C48 0.928 . S
O17 Co1 2.057 . S
O17 C5 1.232 . S
H18 C37 0.929 . S
H19 C38 0.929 . S
H20 C50 0.931 . S
H21 C42 0.929 . S
H22 C51 0.930 . S
H23 C43 0.931 . S
O24 Co0 2.097 . S
O24 C52 1.214 . S
H25 C53 0.929 . S
H26 C54 0.929 . S
H27 C55 0.930 . S
H28 C56 0.929 . S
H29 C58 0.930 . S
H30 C35 0.930 . S
H31 C39 0.930 . S
O32 Co1 2.037 . S
O32 C52 1.234 . S
C33 O7 1.269 . S
C33 O8 1.257 . S
C34 H9 0.930 . S
C34 C37 1.388 . S
C34 C39 1.418 . S
C35 H30 0.930 . S
C35 C38 1.404 . S
C35 C39 1.353 . S
N36 Co1 2.145 . S
N36 C37 1.397 . S
N36 C38 1.334 . S
C37 H18 0.929 . S
C37 C34 1.388 . S
C37 N36 1.397 . S
C38 H19 0.929 . S
C38 C35 1.404 . S
C38 N36 1.334 . S
C39 H31 0.930 . S
C39 C34 1.418 . S
C39 C35 1.353 . S
C40 H10 0.930 . S
C40 N41 1.330 . S
C40 C42 1.446 . S
N41 Co0 2.151 . S
N41 C40 1.330 . S
N41 C45 1.418 . S
C42 H21 0.929 . S
C42 C40 1.446 . S
C42 C43 1.332 . S
C43 H23 0.931 . S
C43 C42 1.332 . S
C43 C44 1.267 . S
C44 H12 0.929 . S
C44 C43 1.267 . S
C44 C45 1.251 . S
C45 H15 0.929 . S
C45 N41 1.418 . S
C45 C44 1.251 . S
C46 H13 0.930 . S
C46 C48 1.406 . S
C46 C51 1.261 . S
C47 H14 0.930 . S
C47 N49 1.325 . S
C47 C50 1.357 . S
C48 H16 0.928 . S
C48 C46 1.406 . S
C48 N49 1.261 . S
N49 Co0 2.214 . S
N49 C47 1.325 . S
N49 C48 1.261 . S
C50 H20 0.931 . S
C50 C47 1.357 . S
C50 C51 1.312 . S
C51 H22 0.930 . S
C51 C46 1.261 . S
C51 C50 1.312 . S
C52 O24 1.214 . S
C52 O32 1.234 . S
C53 H25 0.929 . S
C53 C56 1.391 . S
C53 C58 1.391 . S
C54 H26 0.929 . S
C54 C55 1.390 . S
C54 N57 1.391 . S
C55 H27 0.930 . S
C55 C54 1.390 . S
C55 C56 1.392 . S
C56 H28 0.929 . S
C56 C53 1.391 . S
C56 C55 1.392 . S
N57 Co1 2.257 . S
N57 C54 1.391 . S
N57 C58 1.388 . S
C58 H29 0.930 . S
C58 C53 1.391 . S
C58 N57 1.388 . S
Co59 O61 2.143 . S
Co59 O67 2.074 . S
Co59 O70 2.093 . S
Co59 O83 2.097 . S
Co59 N100 2.151 . S
Co59 N108 2.214 . S
Co60 O61 2.160 . S
Co60 O66 2.058 . S
Co60 O76 2.057 . S
Co60 O91 2.037 . S
Co60 N95 2.145 . S
Co60 N116 2.257 . S
O61 Co59 2.143 . S
O61 Co60 2.160 . S
C62 O63 1.278 . S
C62 O70 1.224 . S
O63 C62 1.278 . S
C64 O65 1.245 . S
C64 O76 1.232 . S
O65 C64 1.245 . S
O66 Co60 2.058 . S
O66 C92 1.269 . S
O67 Co59 2.074 . S
O67 C92 1.257 . S
H68 C93 0.930 . S
H69 C99 0.930 . S
O70 Co59 2.093 . S
O70 C62 1.224 . S
H71 C103 0.929 . S
H72 C105 0.930 . S
H73 C106 0.930 . S
H74 C104 0.929 . S
H75 C107 0.928 . S
O76 Co60 2.057 . S
O76 C64 1.232 . S
H77 C96 0.929 . S
H78 C97 0.929 . S
H79 C109 0.931 . S
H80 C101 0.929 . S
H81 C110 0.930 . S
H82 C102 0.931 . S
O83 Co59 2.097 . S
O83 C111 1.214 . S
H84 C112 0.929 . S
H85 C113 0.929 . S
H86 C114 0.930 . S
H87 C115 0.929 . S
H88 C117 0.930 . S
H89 C94 0.930 . S
H90 C98 0.930 . S
O91 Co60 2.037 . S
O91 C111 1.234 . S
C92 O66 1.269 . S
C92 O67 1.257 . S
C93 H68 0.930 . S
C93 C96 1.388 . S
C93 C98 1.418 . S
C94 H89 0.930 . S
C94 C97 1.404 . S
C94 C98 1.353 . S
N95 Co60 2.145 . S
N95 C96 1.397 . S
N95 C97 1.334 . S
C96 H77 0.929 . S
C96 C93 1.388 . S
C96 N95 1.397 . S
C97 H78 0.929 . S
C97 C94 1.404 . S
C97 N95 1.334 . S
C98 H90 0.930 . S
C98 C93 1.418 . S
C98 C94 1.353 . S
C99 H69 0.930 . S
C99 N100 1.330 . S
C99 C101 1.446 . S
N100 Co59 2.151 . S
N100 C99 1.330 . S
N100 C104 1.418 . S
C101 H80 0.929 . S
C101 C99 1.446 . S
C101 C102 1.332 . S
C102 H82 0.931 . S
C102 C101 1.332 . S
C102 C103 1.267 . S
C103 H71 0.929 . S
C103 C102 1.267 . S
C103 C104 1.251 . S
C104 H74 0.929 . S
C104 N100 1.418 . S
C104 C103 1.251 . S
C105 H72 0.930 . S
C105 C107 1.406 . S
C105 C110 1.261 . S
C106 H73 0.930 . S
C106 N108 1.325 . S
C106 C109 1.357 . S
C107 H75 0.928 . S
C107 C105 1.406 . S
C107 N108 1.261 . S
N108 Co59 2.214 . S
N108 C106 1.325 . S
N108 C107 1.261 . S
C109 H79 0.931 . S
C109 C106 1.357 . S
C109 C110 1.312 . S
C110 H81 0.930 . S
C110 C105 1.261 . S
C110 C109 1.312 . S
C111 O83 1.214 . S
C111 O91 1.234 . S
C112 H84 0.929 . S
C112 C115 1.391 . S
C112 C117 1.391 . S
C113 H85 0.929 . S
C113 C114 1.390 . S
C113 N116 1.391 . S
C114 H86 0.930 . S
C114 C113 1.390 . S
C114 C115 1.392 . S
C115 H87 0.929 . S
C115 C112 1.391 . S
C115 C114 1.392 . S
N116 Co60 2.257 . S
N116 C113 1.391 . S
N116 C117 1.388 . S
C117 H88 0.930 . S
C117 C112 1.391 . S
C117 N116 1.388 . S
Co118 O120 2.143 . S
Co118 O126 2.074 . S
Co118 O129 2.093 . S
Co118 O142 2.097 . S
Co118 N159 2.151 . S
Co118 N167 2.214 . S
Co119 O120 2.160 . S
Co119 O125 2.058 . S
Co119 O135 2.057 . S
Co119 O150 2.037 . S
Co119 N154 2.145 . S
Co119 N175 2.257 . S
O120 Co118 2.143 . S
O120 Co119 2.160 . S
C121 O122 1.278 . S
C121 O129 1.224 . S
O122 C121 1.278 . S
C123 O124 1.245 . S
C123 O135 1.232 . S
O124 C123 1.245 . S
O125 Co119 2.058 . S
O125 C151 1.269 . S
O126 Co118 2.074 . S
O126 C151 1.257 . S
H127 C152 0.930 . S
H128 C158 0.930 . S
O129 Co118 2.093 . S
O129 C121 1.224 . S
H130 C162 0.929 . S
H131 C164 0.930 . S
H132 C165 0.930 . S
H133 C163 0.929 . S
H134 C166 0.928 . S
O135 Co119 2.057 . S
O135 C123 1.232 . S
H136 C155 0.929 . S
H137 C156 0.929 . S
H138 C168 0.931 . S
H139 C160 0.929 . S
H140 C169 0.930 . S
H141 C161 0.931 . S
O142 Co118 2.097 . S
O142 C170 1.214 . S
H143 C171 0.929 1_554 S
H144 C172 0.929 . S
H145 C173 0.930 . S
H146 C174 0.929 1_554 S
H147 C176 0.930 . S
H148 C153 0.930 . S
H149 C157 0.930 . S
O150 Co119 2.037 . S
O150 C170 1.234 . S
C151 O125 1.269 . S
C151 O126 1.257 . S
C152 H127 0.930 . S
C152 C155 1.388 . S
C152 C157 1.418 . S
C153 H148 0.930 . S
C153 C156 1.404 . S
C153 C157 1.353 . S
N154 Co119 2.145 . S
N154 C155 1.397 . S
N154 C156 1.334 . S
C155 H136 0.929 . S
C155 C152 1.388 . S
C155 N154 1.397 . S
C156 H137 0.929 . S
C156 C153 1.404 . S
C156 N154 1.334 . S
C157 H149 0.930 . S
C157 C152 1.418 . S
C157 C153 1.353 . S
C158 H128 0.930 . S
C158 N159 1.330 . S
C158 C160 1.446 . S
N159 Co118 2.151 . S
N159 C158 1.330 . S
N159 C163 1.418 . S
C160 H139 0.929 . S
C160 C158 1.446 . S
C160 C161 1.332 . S
C161 H141 0.931 . S
C161 C160 1.332 . S
C161 C162 1.267 . S
C162 H130 0.929 . S
C162 C161 1.267 . S
C162 C163 1.251 . S
C163 H133 0.929 . S
C163 N159 1.418 . S
C163 C162 1.251 . S
C164 H131 0.930 . S
C164 C166 1.406 . S
C164 C169 1.261 . S
C165 H132 0.930 . S
C165 N167 1.325 . S
C165 C168 1.357 . S
C166 H134 0.928 . S
C166 C164 1.406 . S
C166 N167 1.261 . S
N167 Co118 2.214 . S
N167 C165 1.325 . S
N167 C166 1.261 . S
C168 H138 0.931 . S
C168 C165 1.357 . S
C168 C169 1.312 . S
C169 H140 0.930 . S
C169 C164 1.261 . S
C169 C168 1.312 . S
C170 O142 1.214 . S
C170 O150 1.234 . S
C171 H143 0.929 1_556 S
C171 C174 1.391 . S
C171 C176 1.391 . S
C172 H144 0.929 . S
C172 C173 1.390 . S
C172 N175 1.391 . S
C173 H145 0.930 . S
C173 C172 1.390 . S
C173 C174 1.392 . S
C174 H146 0.929 1_556 S
C174 C171 1.391 . S
C174 C173 1.392 . S
N175 Co119 2.257 . S
N175 C172 1.391 . S
N175 C176 1.388 . S
C176 H147 0.930 . S
C176 C171 1.391 . S
C176 N175 1.388 . S
Co177 O179 2.143 . S
Co177 O185 2.074 . S
Co177 O188 2.093 . S
Co177 O201 2.097 . S
Co177 N218 2.151 . S
Co177 N226 2.214 . S
Co178 O179 2.160 . S
Co178 O184 2.058 . S
Co178 O194 2.057 . S
Co178 O209 2.037 . S
Co178 N213 2.145 . S
Co178 N234 2.257 . S
O179 Co177 2.143 . S
O179 Co178 2.160 . S
C180 O181 1.278 . S
C180 O188 1.224 . S
O181 C180 1.278 . S
C182 O183 1.245 . S
C182 O194 1.232 . S
O183 C182 1.245 . S
O184 Co178 2.058 . S
O184 C210 1.269 . S
O185 Co177 2.074 . S
O185 C210 1.257 . S
H186 C211 0.930 . S
H187 C217 0.930 . S
O188 Co177 2.093 . S
O188 C180 1.224 . S
H189 C221 0.929 . S
H190 C223 0.930 . S
H191 C224 0.930 . S
H192 C222 0.929 . S
H193 C225 0.928 . S
O194 Co178 2.057 . S
O194 C182 1.232 . S
H195 C214 0.929 . S
H196 C215 0.929 . S
H197 C227 0.931 . S
H198 C219 0.929 . S
H199 C228 0.930 . S
H200 C220 0.931 . S
O201 Co177 2.097 . S
O201 C229 1.214 . S
H202 C230 0.929 1_556 S
H203 C231 0.929 . S
H204 C232 0.930 . S
H205 C233 0.929 1_556 S
H206 C235 0.930 . S
H207 C212 0.930 . S
H208 C216 0.930 . S
O209 Co178 2.037 . S
O209 C229 1.234 . S
C210 O184 1.269 . S
C210 O185 1.257 . S
C211 H186 0.930 . S
C211 C214 1.388 . S
C211 C216 1.418 . S
C212 H207 0.930 . S
C212 C215 1.404 . S
C212 C216 1.353 . S
N213 Co178 2.145 . S
N213 C214 1.397 . S
N213 C215 1.334 . S
C214 H195 0.929 . S
C214 C211 1.388 . S
C214 N213 1.397 . S
C215 H196 0.929 . S
C215 C212 1.404 . S
C215 N213 1.334 . S
C216 H208 0.930 . S
C216 C211 1.418 . S
C216 C212 1.353 . S
C217 H187 0.930 . S
C217 N218 1.330 . S
C217 C219 1.446 . S
N218 Co177 2.151 . S
N218 C217 1.330 . S
N218 C222 1.418 . S
C219 H198 0.929 . S
C219 C217 1.446 . S
C219 C220 1.332 . S
C220 H200 0.931 . S
C220 C219 1.332 . S
C220 C221 1.267 . S
C221 H189 0.929 . S
C221 C220 1.267 . S
C221 C222 1.251 . S
C222 H192 0.929 . S
C222 N218 1.418 . S
C222 C221 1.251 . S
C223 H190 0.930 . S
C223 C225 1.406 . S
C223 C228 1.261 . S
C224 H191 0.930 . S
C224 N226 1.325 . S
C224 C227 1.357 . S
C225 H193 0.928 . S
C225 C223 1.406 . S
C225 N226 1.261 . S
N226 Co177 2.214 . S
N226 C224 1.325 . S
N226 C225 1.261 . S
C227 H197 0.931 . S
C227 C224 1.357 . S
C227 C228 1.312 . S
C228 H199 0.930 . S
C228 C223 1.261 . S
C228 C227 1.312 . S
C229 O201 1.214 . S
C229 O209 1.234 . S
C230 H202 0.929 1_554 S
C230 C233 1.391 . S
C230 C235 1.391 . S
C231 H203 0.929 . S
C231 C232 1.390 . S
C231 N234 1.391 . S
C232 H204 0.930 . S
C232 C231 1.390 . S
C232 C233 1.392 . S
C233 H205 0.929 1_554 S
C233 C230 1.391 . S
C233 C232 1.392 . S
N234 Co178 2.257 . S
N234 C231 1.391 . S
N234 C235 1.388 . S
C235 H206 0.930 . S
C235 C230 1.391 . S
C235 N234 1.388 . S
Co236 O238 2.143 . S
Co236 O244 2.074 . S
Co236 O247 2.093 . S
Co236 O260 2.097 . S
Co236 N277 2.151 . S
Co236 N285 2.214 . S
Co237 O238 2.160 . S
Co237 O243 2.058 . S
Co237 O253 2.057 . S
Co237 O268 2.037 . S
Co237 N272 2.145 . S
Co237 N293 2.257 . S
O238 Co236 2.143 . S
O238 Co237 2.160 . S
C239 O240 1.278 . S
C239 O247 1.224 . S
O240 C239 1.278 . S
C241 O242 1.245 . S
C241 O253 1.232 . S
O242 C241 1.245 . S
O243 Co237 2.058 . S
O243 C269 1.269 . S
O244 Co236 2.074 . S
O244 C269 1.257 . S
H245 C270 0.930 . S
H246 C276 0.930 . S
O247 Co236 2.093 . S
O247 C239 1.224 . S
H248 C280 0.929 . S
H249 C282 0.930 . S
H250 C283 0.930 . S
H251 C281 0.929 . S
H252 C284 0.928 . S
O253 Co237 2.057 . S
O253 C241 1.232 . S
H254 C273 0.929 . S
H255 C274 0.929 . S
H256 C286 0.931 . S
H257 C278 0.929 . S
H258 C287 0.930 . S
H259 C279 0.931 . S
O260 Co236 2.097 . S
O260 C288 1.214 . S
H261 C289 0.929 . S
H262 C290 0.929 . S
H263 C291 0.930 . S
H264 C292 0.929 . S
H265 C294 0.930 . S
H266 C271 0.930 . S
H267 C275 0.930 . S
O268 Co237 2.037 . S
O268 C288 1.234 . S
C269 O243 1.269 . S
C269 O244 1.257 . S
C270 H245 0.930 . S
C270 C273 1.388 . S
C270 C275 1.418 . S
C271 H266 0.930 . S
C271 C274 1.404 . S
C271 C275 1.353 . S
N272 Co237 2.145 . S
N272 C273 1.397 . S
N272 C274 1.334 . S
C273 H254 0.929 . S
C273 C270 1.388 . S
C273 N272 1.397 . S
C274 H255 0.929 . S
C274 C271 1.404 . S
C274 N272 1.334 . S
C275 H267 0.930 . S
C275 C270 1.418 . S
C275 C271 1.353 . S
C276 H246 0.930 . S
C276 N277 1.330 . S
C276 C278 1.446 . S
N277 Co236 2.151 . S
N277 C276 1.330 . S
N277 C281 1.418 . S
C278 H257 0.929 . S
C278 C276 1.446 . S
C278 C279 1.332 . S
C279 H259 0.931 . S
C279 C278 1.332 . S
C279 C280 1.267 . S
C280 H248 0.929 . S
C280 C279 1.267 . S
C280 C281 1.251 . S
C281 H251 0.929 . S
C281 N277 1.418 . S
C281 C280 1.251 . S
C282 H249 0.930 . S
C282 C284 1.406 . S
C282 C287 1.261 . S
C283 H250 0.930 . S
C283 N285 1.325 . S
C283 C286 1.357 . S
C284 H252 0.928 . S
C284 C282 1.406 . S
C284 N285 1.261 . S
N285 Co236 2.214 . S
N285 C283 1.325 . S
N285 C284 1.261 . S
C286 H256 0.931 . S
C286 C283 1.357 . S
C286 C287 1.312 . S
C287 H258 0.930 . S
C287 C282 1.261 . S
C287 C286 1.312 . S
C288 O260 1.214 . S
C288 O268 1.234 . S
C289 H261 0.929 . S
C289 C292 1.391 . S
C289 C294 1.391 . S
C290 H262 0.929 . S
C290 C291 1.390 . S
C290 N293 1.391 . S
C291 H263 0.930 . S
C291 C290 1.390 . S
C291 C292 1.392 . S
C292 H264 0.929 . S
C292 C289 1.391 . S
C292 C291 1.392 . S
N293 Co237 2.257 . S
N293 C290 1.391 . S
N293 C294 1.388 . S
C294 H265 0.930 . S
C294 C289 1.391 . S
C294 N293 1.388 . S
Co295 O297 2.143 . S
Co295 O303 2.074 . S
Co295 O306 2.093 . S
Co295 O319 2.097 . S
Co295 N336 2.151 . S
Co295 N344 2.214 . S
Co296 O297 2.160 . S
Co296 O302 2.058 . S
Co296 O312 2.057 . S
Co296 O327 2.037 . S
Co296 N331 2.145 . S
Co296 N352 2.257 . S
O297 Co295 2.143 . S
O297 Co296 2.160 . S
C298 O299 1.278 . S
C298 O306 1.224 . S
O299 C298 1.278 . S
C300 O301 1.245 . S
C300 O312 1.232 . S
O301 C300 1.245 . S
O302 Co296 2.058 . S
O302 C328 1.269 . S
O303 Co295 2.074 . S
O303 C328 1.257 . S
H304 C329 0.930 . S
H305 C335 0.930 . S
O306 Co295 2.093 . S
O306 C298 1.224 . S
H307 C339 0.929 . S
H308 C341 0.930 . S
H309 C342 0.930 . S
H310 C340 0.929 . S
H311 C343 0.928 . S
O312 Co296 2.057 . S
O312 C300 1.232 . S
H313 C332 0.929 . S
H314 C333 0.929 . S
H315 C345 0.931 . S
H316 C337 0.929 . S
H317 C346 0.930 . S
H318 C338 0.931 . S
O319 Co295 2.097 . S
O319 C347 1.214 . S
H320 C348 0.929 . S
H321 C349 0.929 . S
H322 C350 0.930 . S
H323 C351 0.929 . S
H324 C353 0.930 . S
H325 C330 0.930 . S
H326 C334 0.930 . S
O327 Co296 2.037 . S
O327 C347 1.234 . S
C328 O302 1.269 . S
C328 O303 1.257 . S
C329 H304 0.930 . S
C329 C332 1.388 . S
C329 C334 1.418 . S
C330 H325 0.930 . S
C330 C333 1.404 . S
C330 C334 1.353 . S
N331 Co296 2.145 . S
N331 C332 1.397 . S
N331 C333 1.334 . S
C332 H313 0.929 . S
C332 C329 1.388 . S
C332 N331 1.397 . S
C333 H314 0.929 . S
C333 C330 1.404 . S
C333 N331 1.334 . S
C334 H326 0.930 . S
C334 C329 1.418 . S
C334 C330 1.353 . S
C335 H305 0.930 . S
C335 N336 1.330 . S
C335 C337 1.446 . S
N336 Co295 2.151 . S
N336 C335 1.330 . S
N336 C340 1.418 . S
C337 H316 0.929 . S
C337 C335 1.446 . S
C337 C338 1.332 . S
C338 H318 0.931 . S
C338 C337 1.332 . S
C338 C339 1.267 . S
C339 H307 0.929 . S
C339 C338 1.267 . S
C339 C340 1.251 . S
C340 H310 0.929 . S
C340 N336 1.418 . S
C340 C339 1.251 . S
C341 H308 0.930 . S
C341 C343 1.406 . S
C341 C346 1.261 . S
C342 H309 0.930 . S
C342 N344 1.325 . S
C342 C345 1.357 . S
C343 H311 0.928 . S
C343 C341 1.406 . S
C343 N344 1.261 . S
N344 Co295 2.214 . S
N344 C342 1.325 . S
N344 C343 1.261 . S
C345 H315 0.931 . S
C345 C342 1.357 . S
C345 C346 1.312 . S
C346 H317 0.930 . S
C346 C341 1.261 . S
C346 C345 1.312 . S
C347 O319 1.214 . S
C347 O327 1.234 . S
C348 H320 0.929 . S
C348 C351 1.391 . S
C348 C353 1.391 . S
C349 H321 0.929 . S
C349 C350 1.390 . S
C349 N352 1.391 . S
C350 H322 0.930 . S
C350 C349 1.390 . S
C350 C351 1.392 . S
C351 H323 0.929 . S
C351 C348 1.391 . S
C351 C350 1.392 . S
N352 Co296 2.257 . S
N352 C349 1.391 . S
N352 C353 1.388 . S
C353 H324 0.930 . S
C353 C348 1.391 . S
C353 N352 1.388 . S
H354 C355 0.951 . S
C355 H354 0.951 . S
C355 C361 1.265 . S
H356 C361 0.950 . S
H357 C365 0.949 . S
H358 C366 0.950 . S
H359 C367 0.951 . S
H360 C368 0.951 . S
C361 C355 1.265 . S
C361 H356 0.950 . S
C361 C362 1.478 . S
C362 C361 1.478 . S
C362 C363 1.397 . S
C362 C379 1.394 . S
C363 C362 1.397 . S
C363 C364 1.438 1_545 S
C363 C368 1.429 . S
C364 C363 1.438 1_565 S
C364 C365 1.428 . S
C364 C377 1.394 . S
C365 H357 0.949 . S
C365 C364 1.428 . S
C365 C366 1.345 1_565 S
C366 H358 0.950 . S
C366 C365 1.345 1_545 S
C366 C367 1.424 . S
C367 H359 0.951 . S
C367 C366 1.424 . S
C367 C368 1.347 . S
C368 H360 0.951 . S
C368 C363 1.429 . S
C368 C367 1.347 . S
H369 C370 0.951 . S
C370 H369 0.951 . S
C370 C376 1.265 . S
H371 C376 0.950 . S
H372 C380 0.949 . S
H373 C381 0.950 . S
H374 C382 0.951 . S
H375 C383 0.951 . S
C376 C370 1.265 . S
C376 H371 0.950 . S
C376 C377 1.478 . S
C377 C364 1.394 . S
C377 C376 1.478 . S
C377 C378 1.397 . S
C378 C377 1.397 . S
C378 C379 1.438 1_565 S
C378 C383 1.429 . S
C379 C362 1.394 . S
C379 C378 1.438 1_545 S
C379 C380 1.428 . S
C380 H372 0.949 . S
C380 C379 1.428 . S
C380 C381 1.345 1_545 S
C381 H373 0.950 . S
C381 C380 1.345 1_565 S
C381 C382 1.424 . S
C382 H374 0.951 . S
C382 C381 1.424 . S
C382 C383 1.347 . S
C383 H375 0.951 . S
C383 C378 1.429 . S
C383 C382 1.347 . S
H384 C385 0.951 . S
C385 H384 0.951 . S
C385 C391 1.265 . S
H386 C391 0.950 . S
H387 C395 0.949 . S
H388 C396 0.950 . S
H389 C397 0.951 . S
H390 C398 0.951 . S
C391 C385 1.265 . S
C391 H386 0.950 . S
C391 C392 1.478 . S
C392 C391 1.478 . S
C392 C393 1.397 . S
C392 C409 1.394 . S
C393 C392 1.397 . S
C393 C394 1.438 . S
C393 C398 1.429 . S
C394 C393 1.438 . S
C394 C395 1.428 . S
C394 C407 1.394 . S
C395 H387 0.949 . S
C395 C394 1.428 . S
C395 C396 1.345 . S
C396 H388 0.950 . S
C396 C395 1.345 . S
C396 C397 1.424 . S
C397 H389 0.951 . S
C397 C396 1.424 . S
C397 C398 1.347 . S
C398 H390 0.951 . S
C398 C393 1.429 . S
C398 C397 1.347 . S
H399 C400 0.951 . S
C400 H399 0.951 . S
C400 C406 1.265 . S
H401 C406 0.950 . S
H402 C410 0.949 . S
H403 C411 0.950 . S
H404 C412 0.951 . S
H405 C413 0.951 . S
C406 C400 1.265 . S
C406 H401 0.950 . S
C406 C407 1.478 . S
C407 C394 1.394 . S
C407 C406 1.478 . S
C407 C408 1.397 . S
C408 C407 1.397 . S
C408 C409 1.438 . S
C408 C413 1.429 . S
C409 C392 1.394 . S
C409 C408 1.438 . S
C409 C410 1.428 . S
C410 H402 0.949 . S
C410 C409 1.428 . S
C410 C411 1.345 . S
C411 H403 0.950 . S
C411 C410 1.345 . S
C411 C412 1.424 . S
C412 H404 0.951 . S
C412 C411 1.424 . S
C412 C413 1.347 . S
C413 H405 0.951 . S
C413 C408 1.429 . S
C413 C412 1.347 . S
H414 C415 0.951 . S
C415 H414 0.951 . S
C415 C421 1.265 . S
H416 C421 0.950 . S
H417 C425 0.949 . S
H418 C426 0.950 . S
H419 C427 0.951 . S
H420 C428 0.951 . S
C421 C415 1.265 . S
C421 H416 0.950 . S
C421 C422 1.478 . S
C422 C421 1.478 . S
C422 C423 1.397 . S
C422 C439 1.394 . S
C423 C422 1.397 . S
C423 C424 1.438 1_655 S
C423 C428 1.429 . S
C424 C423 1.438 1_455 S
C424 C425 1.428 . S
C424 C437 1.394 . S
C425 H417 0.949 . S
C425 C424 1.428 . S
C425 C426 1.345 . S
C426 H418 0.950 . S
C426 C425 1.345 . S
C426 C427 1.424 . S
C427 H419 0.951 . S
C427 C426 1.424 . S
C427 C428 1.347 1_455 S
C428 H420 0.951 . S
C428 C423 1.429 . S
C428 C427 1.347 1_655 S
H429 C430 0.951 . S
C430 H429 0.951 . S
C430 C436 1.265 . S
H431 C436 0.950 . S
H432 C440 0.949 . S
H433 C441 0.950 . S
H434 C442 0.951 . S
H435 C443 0.951 1_455 S
C436 C430 1.265 . S
C436 H431 0.950 . S
C436 C437 1.478 . S
C437 C424 1.394 . S
C437 C436 1.478 . S
C437 C438 1.397 1_455 S
C438 C437 1.397 1_655 S
C438 C439 1.438 . S
C438 C443 1.429 . S
C439 C422 1.394 . S
C439 C438 1.438 . S
C439 C440 1.428 . S
C440 H432 0.949 . S
C440 C439 1.428 . S
C440 C441 1.345 . S
C441 H433 0.950 . S
C441 C440 1.345 . S
C441 C442 1.424 . S
C442 H434 0.951 . S
C442 C441 1.424 . S
C442 C443 1.347 . S
C443 H435 0.951 1_655 S
C443 C438 1.429 . S
C443 C442 1.347 . S
H444 C445 0.951 . S
C445 H444 0.951 . S
C445 C451 1.265 . S
H446 C451 0.950 . S
H447 C455 0.949 . S
H448 C456 0.950 . S
H449 C457 0.951 . S
H450 C458 0.951 . S
C451 C445 1.265 . S
C451 H446 0.950 . S
C451 C452 1.478 . S
C452 C451 1.478 . S
C452 C453 1.397 . S
C452 C469 1.394 1_554 S
C453 C452 1.397 . S
C453 C454 1.438 1_565 S
C453 C458 1.429 . S
C454 C453 1.438 1_545 S
C454 C455 1.428 . S
C454 C467 1.394 1_554 S
C455 H447 0.949 . S
C455 C454 1.428 . S
C455 C456 1.345 . S
C456 H448 0.950 . S
C456 C455 1.345 . S
C456 C457 1.424 . S
C457 H449 0.951 . S
C457 C456 1.424 . S
C457 C458 1.347 1_545 S
C458 H450 0.951 . S
C458 C453 1.429 . S
C458 C457 1.347 1_565 S
H459 C460 0.951 . S
C460 H459 0.951 . S
C460 C466 1.265 . S
H461 C466 0.950 . S
H462 C470 0.949 . S
H463 C471 0.950 . S
H464 C472 0.951 . S
H465 C473 0.972 . S
C466 C460 1.265 . S
C466 H461 0.950 . S
C466 C467 1.478 . S
C467 C454 1.394 1_556 S
C467 C466 1.478 . S
C467 C468 1.394 . S
C468 C467 1.394 . S
C468 C469 1.440 1_545 S
C468 C473 1.437 . S
C469 C452 1.394 1_556 S
C469 C468 1.440 1_565 S
C469 C470 1.428 . S
C470 H462 0.949 . S
C470 C469 1.428 . S
C470 C471 1.345 . S
C471 H463 0.950 . S
C471 C470 1.345 . S
C471 C472 1.424 . S
C472 H464 0.951 . S
C472 C471 1.424 . S
C472 C473 1.320 1_565 S
C473 H465 0.972 . S
C473 C468 1.437 . S
C473 C472 1.320 1_545 S
H474 C475 0.951 . S
C475 H474 0.951 . S
C475 C481 1.265 . S
H476 C481 0.950 . S
H477 C485 0.949 . S
H478 C486 0.950 . S
H479 C487 0.951 . S
H480 C488 0.951 . S
C481 C475 1.265 . S
C481 H476 0.950 . S
C481 C482 1.478 . S
C482 C481 1.478 . S
C482 C483 1.397 . S
C482 C499 1.394 . S
C483 C482 1.397 . S
C483 C484 1.438 . S
C483 C488 1.429 . S
C484 C483 1.438 . S
C484 C485 1.428 . S
C484 C497 1.394 . S
C485 H477 0.949 . S
C485 C484 1.428 . S
C485 C486 1.345 . S
C486 H478 0.950 . S
C486 C485 1.345 . S
C486 C487 1.424 . S
C487 H479 0.951 . S
C487 C486 1.424 . S
C487 C488 1.347 . S
C488 H480 0.951 . S
C488 C483 1.429 . S
C488 C487 1.347 . S
H489 C490 0.951 . S
C490 H489 0.951 . S
C490 C496 1.265 . S
H491 C496 0.950 . S
H492 C500 0.949 . S
H493 C501 0.950 . S
H494 C502 0.951 . S
H495 C503 0.951 . S
C496 C490 1.265 . S
C496 H491 0.950 . S
C496 C497 1.478 . S
C497 C484 1.394 . S
C497 C496 1.478 . S
C497 C498 1.397 . S
C498 C497 1.397 . S
C498 C499 1.438 . S
C498 C503 1.429 . S
C499 C482 1.394 . S
C499 C498 1.438 . S
C499 C500 1.428 . S
C500 H492 0.949 . S
C500 C499 1.428 . S
C500 C501 1.345 . S
C501 H493 0.950 . S
C501 C500 1.345 . S
C501 C502 1.424 . S
C502 H494 0.951 . S
C502 C501 1.424 . S
C502 C503 1.347 . S
C503 H495 0.951 . S
C503 C498 1.429 . S
C503 C502 1.347 . S
H504 C505 0.951 . S
C505 H504 0.951 . S
C505 C511 1.265 . S
H506 C511 0.950 . S
H507 C515 0.949 . S
H508 C516 0.950 . S
H509 C517 0.951 . S
H510 C518 0.951 . S
C511 C505 1.265 . S
C511 H506 0.950 . S
C511 C512 1.478 . S
C512 C511 1.478 . S
C512 C513 1.397 . S
C512 C529 1.394 . S
C513 C512 1.397 . S
C513 C514 1.438 1_455 S
C513 C518 1.429 . S
C514 C513 1.438 1_655 S
C514 C515 1.428 . S
C514 C527 1.394 . S
C515 H507 0.949 . S
C515 C514 1.428 . S
C515 C516 1.345 . S
C516 H508 0.950 . S
C516 C515 1.345 . S
C516 C517 1.424 . S
C517 H509 0.951 . S
C517 C516 1.424 . S
C517 C518 1.347 1_655 S
C518 H510 0.951 . S
C518 C513 1.429 . S
C518 C517 1.347 1_455 S
H519 C520 0.951 . S
C520 H519 0.951 . S
C520 C526 1.265 . S
H521 C526 0.950 . S
H522 C530 0.949 . S
H523 C531 0.950 . S
H524 C532 0.951 . S
H525 C533 0.951 1_655 S
C526 C520 1.265 . S
C526 H521 0.950 . S
C526 C527 1.478 . S
C527 C514 1.394 . S
C527 C526 1.478 . S
C527 C528 1.397 1_655 S
C528 C527 1.397 1_455 S
C528 C529 1.438 . S
C528 C533 1.429 . S
C529 C512 1.394 . S
C529 C528 1.438 . S
C529 C530 1.428 . S
C530 H522 0.949 . S
C530 C529 1.428 . S
C530 C531 1.345 . S
C531 H523 0.950 . S
C531 C530 1.345 . S
C531 C532 1.424 . S
C532 H524 0.951 . S
C532 C531 1.424 . S
C532 C533 1.347 . S
C533 H525 0.951 1_455 S
C533 C528 1.429 . S
C533 C532 1.347 . S
H534 C535 0.951 . S
C535 H534 0.951 . S
C535 C541 1.265 . S
H536 C541 0.950 . S
H537 C545 0.949 . S
H538 C546 0.950 . S
H539 C547 0.951 . S
H540 C548 0.951 . S
C541 C535 1.265 . S
C541 H536 0.950 . S
C541 C542 1.478 . S
C542 C541 1.478 . S
C542 C543 1.397 . S
C542 C559 1.394 . S
C543 C542 1.397 . S
C543 C544 1.438 . S
C543 C548 1.429 . S
C544 C543 1.438 . S
C544 C545 1.428 . S
C544 C557 1.394 . S
C545 H537 0.949 . S
C545 C544 1.428 . S
C545 C546 1.345 . S
C546 H538 0.950 . S
C546 C545 1.345 . S
C546 C547 1.424 . S
C547 H539 0.951 . S
C547 C546 1.424 . S
C547 C548 1.347 . S
C548 H540 0.951 . S
C548 C543 1.429 . S
C548 C547 1.347 . S
H549 C550 0.951 . S
C550 H549 0.951 . S
C550 C556 1.265 . S
H551 C556 0.950 . S
H552 C560 0.949 . S
H553 C561 0.950 . S
H554 C562 0.951 . S
H555 C563 0.951 . S
C556 C550 1.265 . S
C556 H551 0.950 . S
C556 C557 1.478 . S
C557 C544 1.394 . S
C557 C556 1.478 . S
C557 C558 1.397 . S
C558 C557 1.397 . S
C558 C559 1.438 . S
C558 C563 1.429 . S
C559 C542 1.394 . S
C559 C558 1.438 . S
C559 C560 1.428 . S
C560 H552 0.949 . S
C560 C559 1.428 . S
C560 C561 1.345 . S
C561 H553 0.950 . S
C561 C560 1.345 . S
C561 C562 1.424 . S
C562 H554 0.951 . S
C562 C561 1.424 . S
C562 C563 1.347 . S
C563 H555 0.951 . S
C563 C558 1.429 . S
C563 C562 1.347 . S
H564 C565 0.951 . S
C565 H564 0.951 . S
C565 C571 1.265 . S
H566 C571 0.950 . S
H567 C575 0.949 . S
H568 C576 0.950 . S
H569 C577 0.951 . S
H570 C578 0.951 . S
C571 C565 1.265 . S
C571 H566 0.950 . S
C571 C572 1.478 . S
C572 C571 1.478 . S
C572 C573 1.397 . S
C572 C589 1.394 . S
C573 C572 1.397 . S
C573 C574 1.438 . S
C573 C578 1.429 . S
C574 C573 1.438 . S
C574 C575 1.428 . S
C574 C587 1.394 . S
C575 H567 0.949 . S
C575 C574 1.428 . S
C575 C576 1.345 . S
C576 H568 0.950 . S
C576 C575 1.345 . S
C576 C577 1.424 . S
C577 H569 0.951 . S
C577 C576 1.424 . S
C577 C578 1.347 . S
C578 H570 0.951 . S
C578 C573 1.429 . S
C578 C577 1.347 . S
H579 C580 0.951 . S
C580 H579 0.951 . S
C580 C586 1.265 . S
H581 C586 0.950 . S
H582 C590 0.949 . S
H583 C591 0.950 . S
H584 C592 0.951 . S
H585 C593 0.951 . S
C586 C580 1.265 . S
C586 H581 0.950 . S
C586 C587 1.478 . S
C587 C574 1.394 . S
C587 C586 1.478 . S
C587 C588 1.397 . S
C588 C587 1.397 . S
C588 C589 1.438 . S
C588 C593 1.429 . S
C589 C572 1.394 . S
C589 C588 1.438 . S
C589 C590 1.428 . S
C590 H582 0.949 . S
C590 C589 1.428 . S
C590 C591 1.345 . S
C591 H583 0.950 . S
C591 C590 1.345 . S
C591 C592 1.424 . S
C592 H584 0.951 . S
C592 C591 1.424 . S
C592 C593 1.347 . S
C593 H585 0.951 . S
C593 C588 1.429 . S
C593 C592 1.347 . S
H594 C595 0.951 . S
C595 H594 0.951 . S
C595 C601 1.265 . S
H596 C601 0.950 . S
H597 C605 0.949 . S
H598 C606 0.950 . S
H599 C607 0.951 . S
H600 C608 0.951 . S
C601 C595 1.265 . S
C601 H596 0.950 . S
C601 C602 1.478 . S
C602 C601 1.478 . S
C602 C603 1.397 . S
C602 C619 1.394 . S
C603 C602 1.397 . S
C603 C604 1.438 . S
C603 C608 1.429 . S
C604 C603 1.438 . S
C604 C605 1.428 . S
C604 C617 1.394 . S
C605 H597 0.949 . S
C605 C604 1.428 . S
C605 C606 1.345 . S
C606 H598 0.950 . S
C606 C605 1.345 . S
C606 C607 1.424 . S
C607 H599 0.951 . S
C607 C606 1.424 . S
C607 C608 1.347 . S
C608 H600 0.951 . S
C608 C603 1.429 . S
C608 C607 1.347 . S
H609 C610 0.951 . S
C610 H609 0.951 . S
C610 C616 1.265 . S
H611 C616 0.950 . S
H612 C620 0.949 . S
H613 C621 0.950 . S
H614 C622 0.951 . S
H615 C623 0.951 . S
C616 C610 1.265 . S
C616 H611 0.950 . S
C616 C617 1.478 . S
C617 C604 1.394 . S
C617 C616 1.478 . S
C617 C618 1.397 . S
C618 C617 1.397 . S
C618 C619 1.438 . S
C618 C623 1.429 . S
C619 C602 1.394 . S
C619 C618 1.438 . S
C619 C620 1.428 . S
C620 H612 0.949 . S
C620 C619 1.428 . S
C620 C621 1.345 . S
C621 H613 0.950 . S
C621 C620 1.345 . S
C621 C622 1.424 . S
C622 H614 0.951 . S
C622 C621 1.424 . S
C622 C623 1.347 . S
C623 H615 0.951 . S
C623 C618 1.429 . S
C623 C622 1.347 . S
H624 C625 0.951 . S
C625 H624 0.951 . S
C625 C631 1.265 . S
H626 C631 0.950 . S
H627 C635 0.949 . S
H628 C636 0.950 . S
H629 C637 0.951 . S
H630 C638 0.951 . S
C631 C625 1.265 . S
C631 H626 0.950 . S
C631 C632 1.478 . S
C632 C631 1.478 . S
C632 C633 1.397 . S
C632 C649 1.394 . S
C633 C632 1.397 . S
C633 C634 1.438 . S
C633 C638 1.429 . S
C634 C633 1.438 . S
C634 C635 1.428 . S
C634 C647 1.394 . S
C635 H627 0.949 . S
C635 C634 1.428 . S
C635 C636 1.345 . S
C636 H628 0.950 . S
C636 C635 1.345 . S
C636 C637 1.424 . S
C637 H629 0.951 . S
C637 C636 1.424 . S
C637 C638 1.347 . S
C638 H630 0.951 . S
C638 C633 1.429 . S
C638 C637 1.347 . S
H639 C640 0.951 . S
C640 H639 0.951 . S
C640 C646 1.265 . S
H641 C646 0.950 . S
H642 C650 0.949 . S
H643 C651 0.950 . S
H644 C652 0.951 . S
H645 C653 0.951 . S
C646 C640 1.265 . S
C646 H641 0.950 . S
C646 C647 1.478 . S
C647 C634 1.394 . S
C647 C646 1.478 . S
C647 C648 1.397 . S
C648 C647 1.397 . S
C648 C649 1.438 . S
C648 C653 1.429 . S
C649 C632 1.394 . S
C649 C648 1.438 . S
C649 C650 1.428 . S
C650 H642 0.949 . S
C650 C649 1.428 . S
C650 C651 1.345 . S
C651 H643 0.950 . S
C651 C650 1.345 . S
C651 C652 1.424 . S
C652 H644 0.951 . S
C652 C651 1.424 . S
C652 C653 1.347 . S
C653 H645 0.951 . S
C653 C648 1.429 . S
C653 C652 1.347 . S
H654 C655 0.951 . S
C655 H654 0.951 . S
C655 C661 1.265 . S
H656 C661 0.950 . S
H657 C665 0.949 . S
H658 C666 0.950 . S
H659 C667 0.951 . S
H660 C668 0.951 . S
C661 C655 1.265 . S
C661 H656 0.950 . S
C661 C662 1.478 . S
C662 C661 1.478 . S
C662 C663 1.397 . S
C662 C679 1.394 . S
C663 C662 1.397 . S
C663 C664 1.438 . S
C663 C668 1.429 . S
C664 C663 1.438 . S
C664 C665 1.428 . S
C664 C677 1.394 . S
C665 H657 0.949 . S
C665 C664 1.428 . S
C665 C666 1.345 . S
C666 H658 0.950 . S
C666 C665 1.345 . S
C666 C667 1.424 . S
C667 H659 0.951 . S
C667 C666 1.424 . S
C667 C668 1.347 . S
C668 H660 0.951 . S
C668 C663 1.429 . S
C668 C667 1.347 . S
H669 C670 0.951 . S
C670 H669 0.951 . S
C670 C676 1.265 . S
H671 C676 0.950 . S
H672 C680 0.949 . S
H673 C681 0.950 . S
H674 C682 0.951 . S
H675 C683 0.951 . S
C676 C670 1.265 . S
C676 H671 0.950 . S
C676 C677 1.478 . S
C677 C664 1.394 . S
C677 C676 1.478 . S
C677 C678 1.397 . S
C678 C677 1.397 . S
C678 C679 1.438 . S
C678 C683 1.429 . S
C679 C662 1.394 . S
C679 C678 1.438 . S
C679 C680 1.428 . S
C680 H672 0.949 . S
C680 C679 1.428 . S
C680 C681 1.345 . S
C681 H673 0.950 . S
C681 C680 1.345 . S
C681 C682 1.424 . S
C682 H674 0.951 . S
C682 C681 1.424 . S
C682 C683 1.347 . S
C683 H675 0.951 . S
C683 C678 1.429 . S
C683 C682 1.347 . S
H684 C685 0.951 . S
C685 H684 0.951 . S
C685 C691 1.265 . S
H686 C691 0.950 . S
H687 C695 0.949 . S
H688 C696 0.950 . S
H689 C697 0.951 . S
H690 C698 0.951 . S
C691 C685 1.265 . S
C691 H686 0.950 . S
C691 C692 1.478 . S
C692 C691 1.478 . S
C692 C693 1.397 . S
C692 C709 1.394 . S
C693 C692 1.397 . S
C693 C694 1.438 . S
C693 C698 1.429 . S
C694 C693 1.438 . S
C694 C695 1.428 . S
C694 C707 1.394 . S
C695 H687 0.949 . S
C695 C694 1.428 . S
C695 C696 1.345 . S
C696 H688 0.950 . S
C696 C695 1.345 . S
C696 C697 1.424 . S
C697 H689 0.951 . S
C697 C696 1.424 . S
C697 C698 1.347 . S
C698 H690 0.951 . S
C698 C693 1.429 . S
C698 C697 1.347 . S
H699 C700 0.951 . S
C700 H699 0.951 . S
C700 C706 1.265 . S
H701 C706 0.950 . S
H702 C710 0.949 . S
H703 C711 0.950 . S
H704 C712 0.951 . S
H705 C713 0.951 . S
C706 C700 1.265 . S
C706 H701 0.950 . S
C706 C707 1.478 . S
C707 C694 1.394 . S
C707 C706 1.478 . S
C707 C708 1.397 . S
C708 C707 1.397 . S
C708 C709 1.438 . S
C708 C713 1.429 . S
C709 C692 1.394 . S
C709 C708 1.438 . S
C709 C710 1.428 . S
C710 H702 0.949 . S
C710 C709 1.428 . S
C710 C711 1.345 . S
C711 H703 0.950 . S
C711 C710 1.345 . S
C711 C712 1.424 . S
C712 H704 0.951 . S
C712 C711 1.424 . S
C712 C713 1.347 . S
C713 H705 0.951 . S
C713 C708 1.429 . S
C713 C712 1.347 . S
C355 C5 1.798 . S
C370 C300 1.786 . S
C385 C52 1.724 . S
C400 C62 1.725 . S
C415 C170 1.665 . S
C430 C92 1.669 . S
C445 C182 1.785 . S
C460 C123 1.797 . S
C475 C239 1.728 . S
C490 C229 1.720 . S
C505 C347 1.656 . S
C520 C269 1.678 . S
C535 C3 1.456 . S
C550 C288 1.448 . S
C565 C298 1.302 . S
C580 C64 1.312 . S
C595 C151 1.562 . S
C610 C33 1.568 . S
C625 C111 1.451 . S
C640 C180 1.453 1_556 S
C655 C121 1.304 1_554 S
C670 C241 1.313 . S
C685 C328 1.573 . S
C700 C210 1.575 . S
