# Generated by pormake.
# Topology wjh, (4)-cn, num edge types: 1
# Building blocks:
#     Node 0, Type 0, BuildingBlock: UXUYUI_clean_sbu_0, # of connection points: 4
#     Node 1, Type 0, BuildingBlock: UXUYUI_clean_sbu_0, # of connection points: 4
#     Node 2, Type 0, BuildingBlock: UXUYUI_clean_sbu_0, # of connection points: 4
#     Node 3, Type 0, BuildingBlock: UXUYUI_clean_sbu_0, # of connection points: 4
#     Node 4, Type 0, BuildingBlock: UXUYUI_clean_sbu_0, # of connection points: 4
#     Node 5, Type 0, BuildingBlock: UXUYUI_clean_sbu_0, # of connection points: 4
#     Node 6, Type 0, BuildingBlock: UXUYUI_clean_sbu_0, # of connection points: 4
#     Node 7, Type 0, BuildingBlock: UXUYUI_clean_sbu_0, # of connection points: 4
#     Node 8, Type 0, BuildingBlock: UXUYUI_clean_sbu_0, # of connection points: 4
#     Node 9, Type 0, BuildingBlock: UXUYUI_clean_sbu_0, # of connection points: 4
#     Node 10, Type 0, BuildingBlock: UXUYUI_clean_sbu_0, # of connection points: 4
#     Node 11, Type 0, BuildingBlock: UXUYUI_clean_sbu_0, # of connection points: 4
#     Edge 12, Type (0, 0), BuildingBlock: MIFKUJ_clean_linker_0, # of connection points: 2
#     Edge 13, Type (0, 0), BuildingBlock: MIFKUJ_clean_linker_0, # of connection points: 2
#     Edge 14, Type (0, 0), BuildingBlock: MIFKUJ_clean_linker_0, # of connection points: 2
#     Edge 15, Type (0, 0), BuildingBlock: MIFKUJ_clean_linker_0, # of connection points: 2
#     Edge 16, Type (0, 0), BuildingBlock: MIFKUJ_clean_linker_0, # of connection points: 2
#     Edge 17, Type (0, 0), BuildingBlock: MIFKUJ_clean_linker_0, # of connection points: 2
#     Edge 18, Type (0, 0), BuildingBlock: MIFKUJ_clean_linker_0, # of connection points: 2
#     Edge 19, Type (0, 0), BuildingBlock: MIFKUJ_clean_linker_0, # of connection points: 2
#     Edge 20, Type (0, 0), BuildingBlock: MIFKUJ_clean_linker_0, # of connection points: 2
#     Edge 21, Type (0, 0), BuildingBlock: MIFKUJ_clean_linker_0, # of connection points: 2
#     Edge 22, Type (0, 0), BuildingBlock: MIFKUJ_clean_linker_0, # of connection points: 2
#     Edge 23, Type (0, 0), BuildingBlock: MIFKUJ_clean_linker_0, # of connection points: 2
#     Edge 24, Type (0, 0), BuildingBlock: MIFKUJ_clean_linker_0, # of connection points: 2
#     Edge 25, Type (0, 0), BuildingBlock: MIFKUJ_clean_linker_0, # of connection points: 2
#     Edge 26, Type (0, 0), BuildingBlock: MIFKUJ_clean_linker_0, # of connection points: 2
#     Edge 27, Type (0, 0), BuildingBlock: MIFKUJ_clean_linker_0, # of connection points: 2
#     Edge 28, Type (0, 0), BuildingBlock: MIFKUJ_clean_linker_0, # of connection points: 2
#     Edge 29, Type (0, 0), BuildingBlock: MIFKUJ_clean_linker_0, # of connection points: 2
#     Edge 30, Type (0, 0), BuildingBlock: MIFKUJ_clean_linker_0, # of connection points: 2
#     Edge 31, Type (0, 0), BuildingBlock: MIFKUJ_clean_linker_0, # of connection points: 2
#     Edge 32, Type (0, 0), BuildingBlock: MIFKUJ_clean_linker_0, # of connection points: 2
#     Edge 33, Type (0, 0), BuildingBlock: MIFKUJ_clean_linker_0, # of connection points: 2
#     Edge 34, Type (0, 0), BuildingBlock: MIFKUJ_clean_linker_0, # of connection points: 2
#     Edge 35, Type (0, 0), BuildingBlock: MIFKUJ_clean_linker_0, # of connection points: 2
# Relax obj value: 0.245
# Max RMSD: 0.173
# Mean RMSD: 0.173
data_MOF--net-wjh--node1-UXUYUI_clean_sbu_0--edge1-MIFKUJ_clean_linker_0
_symmetry_space_group_name_H-M    P1
_symmetry_Int_Tables_number       1
_symmetry_cell_setting            triclinic
loop_
_symmetry_equiv_pos_as_xyz
'x, y, z'
_cell_length_a     108.3955
_cell_length_b     108.50547
_cell_length_c     43.079999
_cell_angle_alpha  90.006528
_cell_angle_beta   90.008316
_cell_angle_gamma 119.99735
loop_
_atom_site_label
_atom_site_type_symbol
_atom_site_fract_x
_atom_site_fract_y
_atom_site_fract_z
_atom_type_partial_charge
Li0 Li 0.48234 0.12038 0.07083 0.0
Li1 Li 0.50326 0.13461 0.10007 0.0
Li2 Li 0.49031 0.14507 0.079 0.0
Li3 Li 0.50403 0.13804 0.04521 0.0
C4 C 0.47055 0.12687 0.12074 0.0
N5 N 0.44392 0.12079 0.14112 0.0
C6 C 0.46734 0.12515 0.15241 0.0
C7 C 0.4602 0.1255 0.09942 0.0
C8 C 0.45382 0.12208 0.16225 0.0
C9 C 0.4468 0.12242 0.11019 0.0
C10 C 0.49937 0.10839 0.07921 0.0
C11 C 0.50216 0.08779 0.07411 0.0
N12 N 0.49632 0.08332 0.10273 0.0
C13 C 0.4934 0.10361 0.10859 0.0
C14 C 0.5038 0.10043 0.06182 0.0
C15 C 0.49194 0.09091 0.12006 0.0
C16 C 0.46093 0.09727 0.03754 0.0
N17 N 0.46599 0.10213 0.0665 0.0
C18 C 0.44734 0.08095 0.08936 0.0
C19 C 0.45949 0.09429 0.09221 0.0
C20 C 0.44189 0.07559 0.05976 0.0
C21 C 0.44883 0.08391 0.03359 0.0
H22 H 0.46635 0.10377 0.01755 0.0
H23 H 0.46376 0.09836 0.11498 0.0
C24 C 0.51096 0.13887 0.16284 0.0
N25 N 0.51411 0.1351 0.13517 0.0
C26 C 0.51848 0.13932 0.18951 0.0
C27 C 0.53253 0.13228 0.15851 0.0
C28 C 0.52464 0.13182 0.13249 0.0
C29 C 0.52941 0.13599 0.18749 0.0
H30 H 0.5026 0.14154 0.16413 0.0
H31 H 0.5269 0.12886 0.11013 0.0
C32 C 0.4841 0.14252 0.01491 0.0
N33 N 0.48408 0.15906 0.96616 0.0
C34 C 0.49466 0.15686 0.01294 0.0
C35 C 0.47356 0.13661 0.99207 0.0
C36 C 0.49446 0.16504 0.98812 0.0
C37 C 0.47372 0.14515 0.96762 0.0
C38 C 0.52443 0.16031 0.09039 0.0
C39 C 0.52732 0.17039 0.11362 0.0
C40 C 0.53507 0.15739 0.08115 0.0
C41 C 0.54079 0.17732 0.12739 0.0
C42 C 0.54842 0.16456 0.09545 0.0
N43 N 0.55097 0.17428 0.11811 0.0
C44 C 0.48757 0.16394 0.11676 0.0
C45 C 0.47445 0.15961 0.07004 0.0
C46 C 0.48216 0.17232 0.128 0.0
N47 N 0.48374 0.15788 0.08823 0.0
C48 C 0.46883 0.16799 0.0803 0.0
C49 C 0.4726 0.17436 0.10975 0.0
H50 H 0.4945 0.16188 0.13118 0.0
H51 H 0.47101 0.15415 0.04809 0.0
C52 C 0.51163 0.13103 0.98892 0.0
N53 N 0.51497 0.14204 0.00858 0.0
C54 C 0.51963 0.13314 0.96206 0.0
C55 C 0.53429 0.15794 0.97614 0.0
C56 C 0.5259 0.15537 0.00257 0.0
C57 C 0.53123 0.14671 0.95562 0.0
H58 H 0.50284 0.12056 0.99438 0.0
H59 H 0.5282 0.16396 0.0185 0.0
O60 O 0.48384 0.13004 0.11095 0.0
O61 O 0.50088 0.12076 0.06727 0.0
O62 O 0.4841 0.13418 0.03873 0.0
O63 O 0.5112 0.15316 0.07711 0.0
H64 H 0.47523 0.12619 0.16921 0.0
H65 H 0.46244 0.12679 0.07483 0.0
H66 H 0.45119 0.12072 0.1867 0.0
H67 H 0.43871 0.12134 0.09396 0.0
H68 H 0.50554 0.08151 0.06089 0.0
H69 H 0.48991 0.1096 0.12243 0.0
H70 H 0.50844 0.104 0.03902 0.0
H71 H 0.48733 0.08708 0.14275 0.0
H72 H 0.44248 0.07474 0.11009 0.0
H73 H 0.44493 0.08014 0.01037 0.0
H74 H 0.51586 0.14237 0.2114 0.0
H75 H 0.54081 0.12953 0.1561 0.0
H76 H 0.50288 0.16167 0.03039 0.0
H77 H 0.46533 0.12552 0.99324 0.0
H78 H 0.50255 0.17614 0.98632 0.0
H79 H 0.46562 0.14071 0.94979 0.0
H80 H 0.51925 0.17284 0.12099 0.0
H81 H 0.53297 0.14946 0.06356 0.0
H82 H 0.54315 0.18511 0.14547 0.0
H83 H 0.55671 0.16233 0.08869 0.0
H84 H 0.48541 0.17713 0.15075 0.0
H85 H 0.46132 0.16916 0.06577 0.0
H86 H 0.51702 0.12419 0.94693 0.0
H87 H 0.54306 0.16857 0.97177 0.0
Li88 Li 0.36962 0.50309 0.26026 0.0
Li89 Li 0.3631 0.48052 0.23665 0.0
Li90 Li 0.36799 0.50073 0.20494 0.0
Li91 Li 0.34672 0.48907 0.23528 0.0
C92 C 0.39174 0.4976 0.24909 0.0
N93 N 0.41236 0.4954 0.28239 0.0
C94 C 0.38916 0.49278 0.2798 0.0
C95 C 0.40483 0.50132 0.23537 0.0
C96 C 0.39971 0.49174 0.29623 0.0
C97 C 0.41511 0.50013 0.25258 0.0
C98 C 0.34337 0.4719 0.2852 0.0
C99 C 0.32391 0.44783 0.27977 0.0
N100 N 0.32154 0.44731 0.31087 0.0
C101 C 0.34073 0.47114 0.31708 0.0
C102 C 0.33489 0.46016 0.26634 0.0
C103 C 0.32965 0.45861 0.32963 0.0
C104 C 0.3706 0.51495 0.31847 0.0
N105 N 0.37887 0.51554 0.29418 0.0
C106 C 0.39976 0.53344 0.31963 0.0
C107 C 0.39318 0.52463 0.29414 0.0
C108 C 0.39153 0.53296 0.34531 0.0
C109 C 0.37673 0.52361 0.3444 0.0
H110 H 0.35923 0.5077 0.31766 0.0
H111 H 0.39951 0.52495 0.27445 0.0
C112 C 0.36619 0.45803 0.21336 0.0
N113 N 0.36487 0.46406 0.23987 0.0
C114 C 0.3679 0.44612 0.21482 0.0
C115 C 0.36662 0.44675 0.2708 0.0
C116 C 0.36499 0.45865 0.26826 0.0
C117 C 0.36826 0.44042 0.24388 0.0
H118 H 0.36612 0.46263 0.19113 0.0
H119 H 0.36395 0.46364 0.28901 0.0
C120 C 0.36768 0.52434 0.22974 0.0
N121 N 0.38341 0.55366 0.22585 0.0
C122 C 0.36094 0.53242 0.2322 0.0
C123 C 0.38242 0.53118 0.2253 0.0
C124 C 0.36908 0.54723 0.23017 0.0
C125 C 0.39018 0.54601 0.22339 0.0
C126 C 0.34458 0.47993 0.1739 0.0
C127 C 0.33989 0.48965 0.16885 0.0
C128 C 0.34169 0.46939 0.15183 0.0
C129 C 0.33237 0.48865 0.14173 0.0
C130 C 0.33414 0.46874 0.12501 0.0
N131 N 0.32968 0.47831 0.12055 0.0
C132 C 0.38748 0.50938 0.15587 0.0
C133 C 0.37155 0.51835 0.1528 0.0
C134 C 0.39463 0.51697 0.12935 0.0
N135 N 0.37627 0.51032 0.16715 0.0
C136 C 0.37829 0.52599 0.12603 0.0
C137 C 0.3901 0.52547 0.11423 0.0
H138 H 0.39095 0.50288 0.16775 0.0
H139 H 0.36272 0.51906 0.16247 0.0
C140 C 0.32512 0.49011 0.26518 0.0
N141 N 0.32735 0.48349 0.24088 0.0
C142 C 0.31132 0.48583 0.27494 0.0
C143 C 0.3023 0.46829 0.23376 0.0
C144 C 0.31634 0.47273 0.22515 0.0
C145 C 0.29978 0.47475 0.25925 0.0
H146 H 0.33413 0.49842 0.27756 0.0
H147 H 0.31841 0.46729 0.20664 0.0
O148 O 0.38158 0.49866 0.23232 0.0
O149 O 0.35403 0.48422 0.27258 0.0
O150 O 0.35978 0.50983 0.23174 0.0
O151 O 0.35208 0.48071 0.2001 0.0
H152 H 0.37916 0.48993 0.29095 0.0
H153 H 0.40704 0.50511 0.21166 0.0
H154 H 0.39783 0.48802 0.31999 0.0
H155 H 0.42529 0.50297 0.24222 0.0
H156 H 0.31726 0.43868 0.26546 0.0
H157 H 0.34717 0.48016 0.33195 0.0
H158 H 0.33672 0.46057 0.24159 0.0
H159 H 0.32748 0.45787 0.35427 0.0
H160 H 0.41122 0.54034 0.31944 0.0
H161 H 0.36994 0.52305 0.36342 0.0
H162 H 0.36934 0.44169 0.19351 0.0
H163 H 0.36668 0.44261 0.29364 0.0
H164 H 0.34954 0.52727 0.23565 0.0
H165 H 0.38783 0.52513 0.22327 0.0
H166 H 0.364 0.55362 0.23204 0.0
H167 H 0.40159 0.55143 0.21995 0.0
H168 H 0.34195 0.49784 0.18569 0.0
H169 H 0.34526 0.46179 0.15539 0.0
H170 H 0.32868 0.4961 0.13754 0.0
H171 H 0.33183 0.46064 0.10772 0.0
H172 H 0.40362 0.51621 0.12076 0.0
H173 H 0.37458 0.53256 0.1152 0.0
H174 H 0.30967 0.49105 0.29464 0.0
H175 H 0.29355 0.45965 0.22138 0.0
Li176 Li 0.8802 0.35969 0.39205 0.0
Li177 Li 0.86674 0.36947 0.42114 0.0
Li178 Li 0.85472 0.34608 0.39831 0.0
Li179 Li 0.86336 0.36637 0.36593 0.0
C180 C 0.86451 0.34263 0.45218 0.0
N181 N 0.85296 0.32015 0.49342 0.0
C182 C 0.85464 0.34162 0.47436 0.0
C183 C 0.86862 0.33232 0.45112 0.0
C184 C 0.84888 0.33013 0.49496 0.0
C185 C 0.86263 0.32101 0.47216 0.0
C186 C 0.89056 0.39196 0.40032 0.0
C187 C 0.89553 0.41543 0.41532 0.0
N188 N 0.90853 0.41836 0.426 0.0
C189 C 0.90402 0.39525 0.41121 0.0
C190 C 0.88633 0.40218 0.40213 0.0
C191 C 0.91293 0.40864 0.42418 0.0
C192 C 0.90341 0.36044 0.36131 0.0
N193 N 0.89754 0.35977 0.38953 0.0
C194 C 0.91809 0.36213 0.41532 0.0
C195 C 0.90439 0.36025 0.41629 0.0
C196 C 0.92472 0.36342 0.38649 0.0
C197 C 0.91701 0.36213 0.35922 0.0
H198 H 0.89768 0.36008 0.34045 0.0
H199 H 0.89948 0.35987 0.43839 0.0
C200 C 0.85607 0.38144 0.46401 0.0
N201 N 0.86765 0.38033 0.45653 0.0
C202 C 0.85624 0.38899 0.49037 0.0
C203 C 0.8802 0.39399 0.50105 0.0
C204 C 0.87951 0.38623 0.47461 0.0
C205 C 0.86844 0.39544 0.50929 0.0
H206 H 0.8466 0.37626 0.4498 0.0
H207 H 0.88843 0.38486 0.46854 0.0
C208 C 0.8595 0.33663 0.34455 0.0
N209 N 0.84676 0.31051 0.31509 0.0
C210 C 0.8456 0.33072 0.33319 0.0
C211 C 0.86694 0.3293 0.3408 0.0
C212 C 0.83934 0.31748 0.31843 0.0
C213 C 0.86032 0.3161 0.32584 0.0
C214 C 0.8391 0.36342 0.3845 0.0
C215 C 0.8268 0.35267 0.37033 0.0
C216 C 0.8418 0.37744 0.38381 0.0
C217 C 0.81749 0.35615 0.35545 0.0
C218 C 0.83226 0.3805 0.36864 0.0
N219 N 0.8204 0.36988 0.35488 0.0
C220 C 0.8278 0.32604 0.42007 0.0
C221 C 0.84134 0.31565 0.4031 0.0
C222 C 0.81667 0.31278 0.42904 0.0
N223 N 0.83974 0.32722 0.40701 0.0
C224 C 0.83043 0.30215 0.41161 0.0
C225 C 0.81788 0.3006 0.42473 0.0
H226 H 0.82706 0.33547 0.42428 0.0
H227 H 0.85119 0.31691 0.39407 0.0
C228 C 0.87141 0.38836 0.32246 0.0
N229 N 0.86112 0.3748 0.32898 0.0
C230 C 0.87037 0.39525 0.29611 0.0
C231 C 0.84816 0.37408 0.28342 0.0
C232 C 0.84972 0.36754 0.30987 0.0
C233 C 0.85859 0.38811 0.2763 0.0
H234 H 0.88047 0.39385 0.33769 0.0
H235 H 0.84179 0.35671 0.31513 0.0
O236 O 0.86994 0.35356 0.43126 0.0
O237 O 0.88162 0.37885 0.38782 0.0
O238 O 0.86585 0.34959 0.35901 0.0
O239 O 0.84843 0.36026 0.39895 0.0
H240 H 0.85132 0.34951 0.47537 0.0
H241 H 0.8762 0.33294 0.43395 0.0
H242 H 0.84114 0.32913 0.51211 0.0
H243 H 0.86563 0.31288 0.47148 0.0
H244 H 0.89234 0.4234 0.41704 0.0
H245 H 0.90755 0.38757 0.40975 0.0
H246 H 0.87602 0.39988 0.39357 0.0
H247 H 0.92334 0.4113 0.43281 0.0
H248 H 0.92367 0.36333 0.43694 0.0
H249 H 0.92161 0.36286 0.33651 0.0
H250 H 0.84678 0.3895 0.49618 0.0
H251 H 0.88986 0.39884 0.51477 0.0
H252 H 0.83962 0.33614 0.33626 0.0
H253 H 0.87768 0.33367 0.34956 0.0
H254 H 0.82855 0.31273 0.30974 0.0
H255 H 0.86594 0.31028 0.32287 0.0
H256 H 0.82454 0.34177 0.3704 0.0
H257 H 0.85121 0.38589 0.39476 0.0
H258 H 0.80799 0.34794 0.34423 0.0
H259 H 0.83428 0.39132 0.36779 0.0
H260 H 0.80736 0.31215 0.43992 0.0
H261 H 0.83184 0.29305 0.40797 0.0
H262 H 0.8786 0.40611 0.2915 0.0
H263 H 0.83901 0.36815 0.26848 0.0
Li264 Li 0.5145 0.87562 0.55802 0.0
Li265 Li 0.49228 0.86189 0.58711 0.0
Li266 Li 0.50589 0.85075 0.56817 0.0
Li267 Li 0.49292 0.85701 0.53211 0.0
C268 C 0.52452 0.86962 0.61195 0.0
N269 N 0.55018 0.87575 0.63843 0.0
C270 C 0.52642 0.87146 0.64403 0.0
C271 C 0.53566 0.8709 0.59331 0.0
C272 C 0.53948 0.87456 0.65699 0.0
C273 C 0.54855 0.874 0.60715 0.0
C274 C 0.48756 0.88072 0.55185 0.0
C275 C 0.46455 0.87865 0.54443 0.0
N276 N 0.47014 0.89255 0.55258 0.0
C277 C 0.49313 0.89503 0.5598 0.0
C278 C 0.47319 0.8725 0.54383 0.0
C279 C 0.48413 0.90079 0.56018 0.0
C280 C 0.54002 0.89834 0.53225 0.0
N281 N 0.53042 0.894 0.55583 0.0
C282 C 0.54264 0.91692 0.57935 0.0
C283 C 0.53162 0.90285 0.57936 0.0
C284 C 0.55253 0.92188 0.55493 0.0
C285 C 0.55132 0.91237 0.53141 0.0
H286 H 0.53876 0.891 0.5139 0.0
H287 H 0.52383 0.89897 0.59787 0.0
C288 C 0.47216 0.85049 0.63543 0.0
N289 N 0.4816 0.86275 0.62095 0.0
C290 C 0.46474 0.85087 0.66153 0.0
C291 C 0.47708 0.87653 0.65762 0.0
C292 C 0.48427 0.87564 0.63162 0.0
C293 C 0.4672 0.86403 0.67302 0.0
H294 H 0.47063 0.84041 0.62716 0.0
H295 H 0.4922 0.88525 0.62031 0.0
C296 C 0.51401 0.85238 0.50583 0.0
N297 N 0.51587 0.83488 0.46171 0.0
C298 C 0.50284 0.83843 0.50203 0.0
C299 C 0.52614 0.85743 0.48721 0.0
C300 C 0.50397 0.82975 0.4796 0.0
C301 C 0.52688 0.84842 0.46504 0.0
C302 C 0.47223 0.83135 0.56352 0.0
C303 C 0.47129 0.81816 0.55877 0.0
C304 C 0.45977 0.83216 0.56516 0.0
C305 C 0.4579 0.80605 0.55499 0.0
C306 C 0.44659 0.81981 0.56129 0.0
N307 N 0.44594 0.80712 0.55627 0.0
C308 C 0.50503 0.83114 0.6085 0.0
C309 C 0.5213 0.83546 0.56749 0.0
C310 C 0.50885 0.8221 0.623 0.0
N311 N 0.51126 0.83759 0.58138 0.0
C312 C 0.52537 0.82635 0.58109 0.0
C313 C 0.51916 0.81959 0.60934 0.0
H314 H 0.49731 0.83335 0.61923 0.0
H315 H 0.52634 0.84101 0.54629 0.0
C316 C 0.48581 0.86473 0.47704 0.0
N317 N 0.48233 0.85305 0.49461 0.0
C318 C 0.47785 0.86369 0.45077 0.0
C319 C 0.46321 0.83844 0.46026 0.0
C320 C 0.47149 0.83998 0.4864 0.0
C321 C 0.46617 0.85047 0.44246 0.0
H322 H 0.49456 0.87497 0.48404 0.0
H323 H 0.46901 0.83078 0.5004 0.0
O324 O 0.51173 0.86645 0.59904 0.0
O325 O 0.49624 0.87493 0.55145 0.0
O326 O 0.51322 0.86107 0.52778 0.0
O327 O 0.48527 0.8433 0.56726 0.0
H328 H 0.51788 0.87047 0.65875 0.0
H329 H 0.53437 0.86947 0.56844 0.0
H330 H 0.54111 0.876 0.6818 0.0
H331 H 0.55725 0.87499 0.59302 0.0
H332 H 0.4534 0.87239 0.53833 0.0
H333 H 0.50426 0.90159 0.5658 0.0
H334 H 0.46878 0.86152 0.53694 0.0
H335 H 0.48827 0.91182 0.5665 0.0
H336 H 0.54333 0.9239 0.59808 0.0
H337 H 0.55872 0.91588 0.51212 0.0
H338 H 0.45747 0.841 0.67309 0.0
H339 H 0.47928 0.8869 0.66563 0.0
H340 H 0.49343 0.83436 0.51624 0.0
H341 H 0.53493 0.86819 0.48995 0.0
H342 H 0.49538 0.81893 0.47643 0.0
H343 H 0.53621 0.85219 0.45048 0.0
H344 H 0.4808 0.81728 0.55797 0.0
H345 H 0.46026 0.84219 0.56969 0.0
H346 H 0.45703 0.79579 0.5511 0.0
H347 H 0.43688 0.8203 0.56239 0.0
H348 H 0.50401 0.8174 0.64508 0.0
H349 H 0.53329 0.82465 0.56966 0.0
H350 H 0.4807 0.87318 0.43736 0.0
H351 H 0.45428 0.82805 0.45473 0.0
Li352 Li 0.63373 0.51271 0.73308 0.0
Li353 Li 0.62914 0.49194 0.76426 0.0
Li354 Li 0.65285 0.50808 0.73935 0.0
Li355 Li 0.63265 0.49158 0.70765 0.0
C356 C 0.64276 0.523 0.78916 0.0
N357 N 0.64194 0.54459 0.82146 0.0
C358 C 0.63339 0.51978 0.8141 0.0
C359 C 0.65184 0.53721 0.78089 0.0
C360 C 0.63311 0.53085 0.83009 0.0
C361 C 0.65122 0.54796 0.79742 0.0
C362 C 0.60339 0.48283 0.72971 0.0
C363 C 0.58497 0.45834 0.72319 0.0
N364 N 0.57491 0.46212 0.72801 0.0
C365 C 0.59285 0.4865 0.73425 0.0
C366 C 0.59941 0.46865 0.72386 0.0
C367 C 0.57853 0.47587 0.73346 0.0
C368 C 0.63482 0.53709 0.7067 0.0
N369 N 0.62863 0.52691 0.72892 0.0
C370 C 0.61485 0.53703 0.74695 0.0
C371 C 0.61878 0.52665 0.74878 0.0
C372 C 0.62099 0.54769 0.72416 0.0
C373 C 0.63114 0.54767 0.7039 0.0
H374 H 0.64253 0.53695 0.69105 0.0
H375 H 0.61407 0.51841 0.76623 0.0
C376 C 0.62635 0.47545 0.81698 0.0
N377 N 0.61971 0.48093 0.7998 0.0
C378 C 0.61979 0.46737 0.84341 0.0
C379 C 0.59979 0.47094 0.83425 0.0
C380 C 0.60675 0.47897 0.80805 0.0
C381 C 0.6063 0.46499 0.85228 0.0
H382 H 0.63675 0.47735 0.81006 0.0
H383 H 0.60191 0.48382 0.79461 0.0
C384 C 0.65825 0.51918 0.68293 0.0
N385 N 0.68327 0.53333 0.64944 0.0
C386 C 0.66107 0.51218 0.65911 0.0
C387 C 0.66808 0.5334 0.68952 0.0
C388 C 0.67379 0.51952 0.64247 0.0
C389 C 0.68069 0.54035 0.6724 0.0
C390 C 0.6415 0.47406 0.73901 0.0
C391 C 0.65338 0.47343 0.72854 0.0
C392 C 0.62917 0.4615 0.74748 0.0
C393 C 0.65261 0.46022 0.72602 0.0
C394 C 0.62882 0.4485 0.74465 0.0
N395 N 0.64045 0.44814 0.73402 0.0
C396 C 0.67852 0.52541 0.77047 0.0
C397 C 0.68099 0.51391 0.72609 0.0
C398 C 0.693 0.53157 0.77699 0.0
N399 N 0.67281 0.5167 0.74551 0.0
C400 C 0.69553 0.51979 0.73181 0.0
C401 C 0.70167 0.52861 0.75781 0.0
H402 H 0.67178 0.52736 0.78572 0.0
H403 H 0.67619 0.50693 0.70645 0.0
C404 C 0.61583 0.48158 0.65558 0.0
N405 N 0.62578 0.48004 0.67152 0.0
C406 C 0.60907 0.47305 0.62991 0.0
C407 C 0.62341 0.46189 0.6365 0.0
C408 C 0.62986 0.47063 0.66224 0.0
C409 C 0.61269 0.4629 0.62034 0.0
H410 H 0.61294 0.4893 0.66326 0.0
H411 H 0.63798 0.46976 0.67486 0.0
O412 O 0.64302 0.5123 0.77292 0.0
O413 O 0.61747 0.49315 0.73038 0.0
O414 O 0.6459 0.51214 0.69961 0.0
O415 O 0.64212 0.48693 0.74178 0.0
H416 H 0.62634 0.50886 0.82093 0.0
H417 H 0.65916 0.53988 0.76166 0.0
H418 H 0.62586 0.52851 0.84932 0.0
H419 H 0.6581 0.55899 0.7911 0.0
H420 H 0.58177 0.44733 0.71867 0.0
H421 H 0.5957 0.49743 0.73842 0.0
H422 H 0.60735 0.46565 0.71938 0.0
H423 H 0.57028 0.47856 0.73711 0.0
H424 H 0.60715 0.53676 0.76335 0.0
H425 H 0.63599 0.55557 0.68575 0.0
H426 H 0.62515 0.46291 0.85658 0.0
H427 H 0.58953 0.46963 0.84064 0.0
H428 H 0.65356 0.50119 0.65366 0.0
H429 H 0.66606 0.53897 0.70787 0.0
H430 H 0.67615 0.51423 0.62408 0.0
H431 H 0.68845 0.55133 0.67739 0.0
H432 H 0.66307 0.483 0.72223 0.0
H433 H 0.62001 0.46175 0.7565 0.0
H434 H 0.6617 0.45959 0.71774 0.0
H435 H 0.61933 0.43872 0.75104 0.0
H436 H 0.69732 0.5384 0.79711 0.0
H437 H 0.70175 0.51702 0.71669 0.0
H438 H 0.60106 0.47436 0.61772 0.0
H439 H 0.62651 0.4542 0.62983 0.0
Li440 Li 0.12949 0.62971 0.8725 0.0
Li441 Li 0.13882 0.65091 0.90953 0.0
Li442 Li 0.12781 0.62668 0.92818 0.0
Li443 Li 0.11373 0.63478 0.90344 0.0
C444 C 0.1547 0.63402 0.9183 0.0
N445 N 0.17268 0.62756 0.95093 0.0
C446 C 0.16422 0.64364 0.94003 0.0
C447 C 0.15447 0.62121 0.91283 0.0
C448 C 0.1732 0.64015 0.95637 0.0
C449 C 0.1636 0.61811 0.92966 0.0
C450 C 0.11983 0.65257 0.85783 0.0
C451 C 0.11258 0.67026 0.8568 0.0
N452 N 0.10336 0.66306 0.83334 0.0
C453 C 0.11034 0.64538 0.83361 0.0
C454 C 0.12102 0.66514 0.86949 0.0
C455 C 0.10208 0.65084 0.82157 0.0
C456 C 0.12103 0.61493 0.81593 0.0
N457 N 0.13245 0.62314 0.83424 0.0
C458 C 0.14799 0.6202 0.79967 0.0
C459 C 0.14578 0.62599 0.82659 0.0
C460 C 0.13635 0.61137 0.7806 0.0
C461 C 0.12274 0.60889 0.78886 0.0
H462 H 0.11053 0.61271 0.82293 0.0
H463 H 0.15463 0.63254 0.84174 0.0
C464 C 0.15528 0.67442 0.94659 0.0
N465 N 0.15286 0.66985 0.91671 0.0
C466 C 0.16574 0.68832 0.9535 0.0
C467 C 0.17089 0.69256 0.89861 0.0
C468 C 0.16028 0.67855 0.89276 0.0
C469 C 0.17377 0.69755 0.92935 0.0
H470 H 0.14926 0.66715 0.96509 0.0
H471 H 0.15801 0.67456 0.86921 0.0
C472 C 0.10644 0.60193 0.89518 0.0
N473 N 0.09359 0.57263 0.89167 0.0
C474 C 0.0925 0.59334 0.90591 0.0
C475 C 0.11378 0.59559 0.88242 0.0
C476 C 0.08622 0.57856 0.90403 0.0
C477 C 0.10711 0.58077 0.8809 0.0
C478 C 0.11539 0.63804 0.96719 0.0
C479 C 0.10438 0.62393 0.96986 0.0
C480 C 0.11694 0.64794 0.98985 0.0
C481 C 0.09514 0.61994 0.9952 0.0
C482 C 0.10747 0.64354 0.01485 0.0
N483 N 0.09686 0.62975 0.017 0.0
C484 C 0.13682 0.62461 0.98726 0.0
C485 C 0.12344 0.60196 0.96371 0.0
C486 C 0.13875 0.61849 0.01393 0.0
N487 N 0.12932 0.61635 0.96277 0.0
C488 C 0.12499 0.59537 0.99005 0.0
C489 C 0.13273 0.60365 0.01566 0.0
H490 H 0.14138 0.63602 0.98598 0.0
H491 H 0.11746 0.59551 0.94432 0.0
C492 C 0.08496 0.62342 0.88737 0.0
N493 N 0.09595 0.63406 0.9032 0.0
C494 C 0.07152 0.62216 0.8881 0.0
C495 C 0.08109 0.64307 0.92081 0.0
C496 C 0.09436 0.64395 0.91934 0.0
C497 C 0.06943 0.63197 0.90535 0.0
H498 H 0.08661 0.6158 0.87455 0.0
H499 H 0.10338 0.65242 0.93134 0.0
O500 O 0.14561 0.63711 0.90261 0.0
O501 O 0.12768 0.64718 0.87056 0.0
O502 O 0.11262 0.61644 0.89642 0.0
O503 O 0.12453 0.64226 0.94245 0.0
H504 H 0.16458 0.65361 0.94449 0.0
H505 H 0.14728 0.61371 0.8959 0.0
H506 H 0.18054 0.64745 0.97343 0.0
H507 H 0.16346 0.60819 0.92583 0.0
H508 H 0.11332 0.67993 0.8657 0.0
H509 H 0.10926 0.6356 0.82445 0.0
H510 H 0.12825 0.67078 0.88838 0.0
H511 H 0.09463 0.64534 0.80295 0.0
H512 H 0.15867 0.62253 0.79399 0.0
H513 H 0.11344 0.60198 0.77514 0.0
H514 H 0.16781 0.69166 0.97754 0.0
H515 H 0.17682 0.69939 0.87936 0.0
H516 H 0.08659 0.59804 0.91558 0.0
H517 H 0.12453 0.60199 0.87402 0.0
H518 H 0.07546 0.5718 0.91233 0.0
H519 H 0.11269 0.57574 0.8712 0.0
H520 H 0.103 0.61613 0.95263 0.0
H521 H 0.12533 0.65893 0.98806 0.0
H522 H 0.0866 0.60905 0.99754 0.0
H523 H 0.10855 0.6511 0.03254 0.0
H524 H 0.14498 0.62534 0.03287 0.0
H525 H 0.11996 0.58388 0.99049 0.0
H526 H 0.06278 0.61334 0.87615 0.0
H527 H 0.07994 0.65093 0.93406 0.0
Li528 Li 0.85297 0.50803 0.88985 0.0
Li529 Li 0.85977 0.49476 0.92497 0.0
Li530 Li 0.87706 0.51671 0.90066 0.0
Li531 Li 0.86387 0.49506 0.86917 0.0
C532 C 0.86922 0.52558 0.94972 0.0
N533 N 0.88437 0.54926 0.98692 0.0
C534 C 0.87218 0.52401 0.98058 0.0
C535 C 0.8737 0.53919 0.93803 0.0
C536 C 0.87991 0.53611 0.99896 0.0
C537 C 0.88142 0.55103 0.95711 0.0
C538 C 0.83171 0.48003 0.90182 0.0
C539 C 0.80784 0.45987 0.90123 0.0
N540 N 0.80416 0.46592 0.92443 0.0
C541 C 0.82768 0.48605 0.92566 0.0
C542 C 0.82171 0.46685 0.88946 0.0
C543 C 0.81371 0.47875 0.93676 0.0
C544 C 0.83071 0.50677 0.85512 0.0
N545 N 0.83911 0.51317 0.88019 0.0
C546 C 0.82925 0.52838 0.88623 0.0
C547 C 0.83836 0.52356 0.89622 0.0
C548 C 0.821 0.52245 0.85945 0.0
C549 C 0.82161 0.51136 0.84411 0.0
H550 H 0.83146 0.49842 0.84308 0.0
H551 H 0.84506 0.52834 0.91627 0.0
C552 C 0.86797 0.48811 0.98044 0.0
N553 N 0.85655 0.48339 0.9612 0.0
C554 C 0.8674 0.48022 0.00649 0.0
C555 C 0.84336 0.46257 0.99235 0.0
C556 C 0.8444 0.47082 0.96651 0.0
C557 C 0.85499 0.46722 0.01264 0.0
H558 H 0.87765 0.49793 0.97516 0.0
H559 H 0.83564 0.4669 0.9504 0.0
C560 C 0.86432 0.52028 0.836 0.0
N561 N 0.85453 0.53101 0.78996 0.0
C562 C 0.85863 0.51262 0.80856 0.0
C563 C 0.86524 0.53352 0.83975 0.0
C564 C 0.8537 0.51821 0.78562 0.0
C565 C 0.86016 0.53872 0.81631 0.0
C566 C 0.87959 0.48732 0.90694 0.0
C567 C 0.89305 0.48948 0.91464 0.0
C568 C 0.86821 0.47346 0.90302 0.0
C569 C 0.89493 0.47772 0.91822 0.0
C570 C 0.87052 0.46199 0.90681 0.0
N571 N 0.88372 0.46434 0.91427 0.0
C572 C 0.90313 0.53424 0.93121 0.0
C573 C 0.8999 0.54345 0.88389 0.0
C574 C 0.91656 0.54623 0.93515 0.0
N575 N 0.89516 0.5331 0.90587 0.0
C576 C 0.91324 0.55561 0.88688 0.0
C577 C 0.92181 0.55705 0.91263 0.0
H578 H 0.89906 0.52576 0.94819 0.0
H579 H 0.89339 0.5422 0.86388 0.0
C580 C 0.85236 0.47512 0.82077 0.0
N581 N 0.86469 0.48434 0.83539 0.0
C582 C 0.85261 0.46745 0.79502 0.0
C583 C 0.87819 0.47864 0.80041 0.0
C584 C 0.87746 0.48621 0.8259 0.0
C585 C 0.86566 0.46922 0.78447 0.0
H586 H 0.84238 0.47394 0.8288 0.0
H587 H 0.88709 0.49368 0.83796 0.0
O588 O 0.86183 0.51385 0.93122 0.0
O589 O 0.84528 0.487 0.89021 0.0
O590 O 0.86893 0.51482 0.85903 0.0
O591 O 0.8776 0.49875 0.9038 0.0
H592 H 0.86847 0.51358 0.99035 0.0
H593 H 0.87143 0.54062 0.91433 0.0
H594 H 0.88234 0.53504 0.02283 0.0
H595 H 0.8851 0.56163 0.9482 0.0
H596 H 0.8 0.44966 0.89191 0.0
H597 H 0.83522 0.49622 0.93558 0.0
H598 H 0.82464 0.46203 0.87103 0.0
H599 H 0.81045 0.48327 0.9552 0.0
H600 H 0.829 0.53692 0.89868 0.0
H601 H 0.81519 0.50637 0.8237 0.0
H602 H 0.8766 0.48424 0.02158 0.0
H603 H 0.83371 0.45246 0.99583 0.0
H604 H 0.85793 0.50245 0.80502 0.0
H605 H 0.86962 0.53964 0.86069 0.0
H606 H 0.84919 0.51234 0.76438 0.0
H607 H 0.86066 0.54886 0.8191 0.0
H608 H 0.90195 0.50014 0.91789 0.0
H609 H 0.85769 0.47156 0.89723 0.0
H610 H 0.90529 0.47924 0.92419 0.0
H611 H 0.86181 0.45121 0.90387 0.0
H612 H 0.92292 0.54683 0.95508 0.0
H613 H 0.91685 0.56374 0.86911 0.0
H614 H 0.8427 0.46019 0.78351 0.0
H615 H 0.88847 0.48039 0.79281 0.0
Li616 Li 0.34645 0.85659 0.06059 0.0
Li617 Li 0.367 0.86453 0.09467 0.0
Li618 Li 0.36284 0.88233 0.06531 0.0
Li619 Li 0.3711 0.8676 0.03941 0.0
C620 C 0.33959 0.86611 0.11616 0.0
N621 N 0.31651 0.86111 0.15245 0.0
C622 C 0.33567 0.85685 0.14149 0.0
C623 C 0.33194 0.87304 0.10966 0.0
C624 C 0.32392 0.85441 0.15945 0.0
C625 C 0.32026 0.87031 0.12817 0.0
C626 C 0.36022 0.83806 0.07486 0.0
C627 C 0.37301 0.82645 0.09225 0.0
N628 N 0.36049 0.81497 0.10117 0.0
C629 C 0.34747 0.82611 0.08396 0.0
C630 C 0.37309 0.8382 0.07878 0.0
C631 C 0.34784 0.81455 0.09729 0.0
C632 C 0.32544 0.83883 0.0205 0.0
N633 N 0.32751 0.84244 0.05101 0.0
C634 C 0.30339 0.82511 0.06261 0.0
C635 C 0.31683 0.83586 0.0721 0.0
C636 C 0.30098 0.82113 0.03117 0.0
C637 C 0.31219 0.82829 0.00997 0.0
H638 H 0.33418 0.84408 0.00432 0.0
H639 H 0.31878 0.83863 0.09632 0.0
C640 C 0.3869 0.87162 0.14259 0.0
N641 N 0.374 0.86117 0.13242 0.0
C642 C 0.39301 0.86959 0.16919 0.0
C643 C 0.37236 0.84614 0.17465 0.0
C644 C 0.36658 0.8487 0.14815 0.0
C645 C 0.38578 0.85664 0.18534 0.0
H646 H 0.39253 0.88149 0.12986 0.0
H647 H 0.35622 0.84066 0.14001 0.0
C648 C 0.34773 0.87439 0.00777 0.0
N649 N 0.33198 0.88138 0.96858 0.0
C650 C 0.3521 0.87838 0.97709 0.0
C651 C 0.33529 0.87382 0.01842 0.0
C652 C 0.34402 0.88192 0.95767 0.0
C653 C 0.32748 0.87742 0.99828 0.0
C654 C 0.39471 0.88922 0.06229 0.0
C655 C 0.40045 0.90282 0.04948 0.0
C656 C 0.4031 0.88281 0.06448 0.0
C657 C 0.41446 0.90972 0.03858 0.0
C658 C 0.41706 0.89004 0.05328 0.0
N659 N 0.4224 0.90323 0.04064 0.0
C660 C 0.36347 0.90669 0.09139 0.0
C661 C 0.36732 0.90735 0.03711 0.0
C662 C 0.36536 0.92041 0.09065 0.0
N663 N 0.36453 0.90052 0.06484 0.0
C664 C 0.36908 0.92093 0.0352 0.0
C665 C 0.36833 0.92776 0.06226 0.0
H666 H 0.36143 0.90105 0.1132 0.0
H667 H 0.3685 0.90237 0.01651 0.0
C668 C 0.38217 0.85524 0.99838 0.0
N669 N 0.38197 0.86737 0.00527 0.0
C670 C 0.38951 0.85469 0.97231 0.0
C671 C 0.39645 0.87916 0.96118 0.0
C672 C 0.38881 0.87918 0.98722 0.0
C673 C 0.39675 0.86676 0.95336 0.0
H674 H 0.37641 0.84593 0.01282 0.0
H675 H 0.38813 0.88853 0.99278 0.0
O676 O 0.35117 0.86876 0.09856 0.0
O677 O 0.36007 0.84947 0.06183 0.0
O678 O 0.35558 0.87096 0.02708 0.0
O679 O 0.38095 0.88222 0.07269 0.0
H680 H 0.34154 0.85153 0.14708 0.0
H681 H 0.33504 0.88055 0.09073 0.0
H682 H 0.32071 0.84718 0.17897 0.0
H683 H 0.31421 0.87555 0.12331 0.0
H684 H 0.38291 0.82645 0.09562 0.0
H685 H 0.33741 0.82578 0.08097 0.0
H686 H 0.38304 0.84731 0.07164 0.0
H687 H 0.33806 0.80527 0.10459 0.0
H688 H 0.29512 0.8197 0.07984 0.0
H689 H 0.31079 0.82573 0.98546 0.0
H690 H 0.40341 0.87792 0.17665 0.0
H691 H 0.36639 0.83609 0.18675 0.0
H692 H 0.36168 0.8788 0.96844 0.0
H693 H 0.33161 0.87049 0.04184 0.0
H694 H 0.34731 0.88509 0.93392 0.0
H695 H 0.31783 0.87703 0.00623 0.0
H696 H 0.39412 0.90797 0.04779 0.0
H697 H 0.39886 0.87235 0.07459 0.0
H698 H 0.41902 0.92021 0.02843 0.0
H699 H 0.42365 0.88517 0.05465 0.0
H700 H 0.36493 0.92533 0.11217 0.0
H701 H 0.37116 0.92607 0.01275 0.0
H702 H 0.38954 0.84494 0.967 0.0
H703 H 0.40172 0.8886 0.94682 0.0
Li704 Li 0.4894 0.34338 0.23637 0.0
Li705 Li 0.50327 0.36453 0.26849 0.0
Li706 Li 0.48201 0.36067 0.24145 0.0
Li707 Li 0.503 0.36638 0.2132 0.0
C708 C 0.48299 0.34096 0.30005 0.0
N709 N 0.48255 0.32505 0.35056 0.0
C710 C 0.4927 0.33607 0.30199 0.0
C711 C 0.47305 0.33775 0.32381 0.0
C712 C 0.49231 0.32805 0.32771 0.0
C713 C 0.473 0.32969 0.34915 0.0
C714 C 0.52417 0.36212 0.22818 0.0
C715 C 0.54802 0.38229 0.22658 0.0
N716 N 0.55191 0.37506 0.20682 0.0
C717 C 0.52841 0.35488 0.20789 0.0
C718 C 0.53405 0.37594 0.23763 0.0
C719 C 0.54248 0.36161 0.19734 0.0
C720 C 0.48821 0.32039 0.20565 0.0
N721 N 0.48255 0.32374 0.23007 0.0
C722 C 0.46623 0.29917 0.23998 0.0
C723 C 0.47167 0.31351 0.24707 0.0
C724 C 0.47196 0.29538 0.21497 0.0
C725 C 0.48313 0.30621 0.19776 0.0
H726 H 0.4965 0.32877 0.19193 0.0
H727 H 0.46695 0.31646 0.26564 0.0
C728 C 0.5125 0.38146 0.32181 0.0
N729 N 0.51415 0.37176 0.30512 0.0
C730 C 0.52058 0.38744 0.34854 0.0
C731 C 0.53178 0.37322 0.34052 0.0
C732 C 0.52347 0.3675 0.31396 0.0
C733 C 0.53044 0.38339 0.35811 0.0
H734 H 0.50499 0.38463 0.31411 0.0
H735 H 0.52453 0.35973 0.30022 0.0
C736 C 0.47021 0.34155 0.19255 0.0
N737 N 0.44358 0.32116 0.17182 0.0
C738 C 0.46744 0.33933 0.16076 0.0
C739 C 0.45941 0.3334 0.21382 0.0
C740 C 0.45391 0.32897 0.15073 0.0
C741 C 0.44603 0.32315 0.20288 0.0
C742 C 0.49964 0.38941 0.23076 0.0
C743 C 0.49395 0.38781 0.20093 0.0
C744 C 0.50421 0.40216 0.24683 0.0
C745 C 0.49291 0.39901 0.18768 0.0
C746 C 0.503 0.41312 0.23278 0.0
N747 N 0.49742 0.41133 0.20375 0.0
C748 C 0.46054 0.36302 0.27261 0.0
C749 C 0.45981 0.3645 0.21779 0.0
C750 C 0.44852 0.36451 0.27549 0.0
N751 N 0.4659 0.36307 0.24409 0.0
C752 C 0.44782 0.36605 0.21957 0.0
C753 C 0.44203 0.36609 0.24872 0.0
H754 H 0.46561 0.36183 0.29309 0.0
H755 H 0.46426 0.36447 0.19537 0.0
C756 C 0.51172 0.36832 0.15133 0.0
N757 N 0.51434 0.3759 0.17803 0.0
C758 C 0.51966 0.37478 0.12469 0.0
C759 C 0.53297 0.39665 0.15373 0.0
C760 C 0.52474 0.38978 0.17977 0.0
C761 C 0.53043 0.38914 0.12567 0.0
H762 H 0.50346 0.35725 0.15082 0.0
H763 H 0.52662 0.39551 0.20139 0.0
O764 O 0.48318 0.34895 0.27527 0.0
O765 O 0.51035 0.35587 0.23814 0.0
O766 O 0.48347 0.35162 0.20255 0.0
O767 O 0.50075 0.37862 0.2444 0.0
H768 H 0.50042 0.33835 0.28383 0.0
H769 H 0.46545 0.34144 0.32267 0.0
H770 H 0.49975 0.32419 0.32949 0.0
H771 H 0.46537 0.32712 0.36769 0.0
H772 H 0.55575 0.39301 0.23356 0.0
H773 H 0.52094 0.3442 0.2003 0.0
H774 H 0.53091 0.38182 0.25282 0.0
H775 H 0.5459 0.35613 0.18158 0.0
H776 H 0.45745 0.29116 0.25349 0.0
H777 H 0.48795 0.30376 0.17846 0.0
H778 H 0.51933 0.39538 0.36119 0.0
H779 H 0.53913 0.36968 0.34728 0.0
H780 H 0.47568 0.34555 0.14399 0.0
H781 H 0.46131 0.33495 0.23852 0.0
H782 H 0.45163 0.32714 0.12618 0.0
H783 H 0.4376 0.31676 0.21908 0.0
H784 H 0.49037 0.37805 0.18808 0.0
H785 H 0.50866 0.40357 0.26993 0.0
H786 H 0.48853 0.39791 0.16463 0.0
H787 H 0.5065 0.42304 0.24496 0.0
H788 H 0.44434 0.36438 0.2984 0.0
H789 H 0.44333 0.3675 0.19837 0.0
H790 H 0.51749 0.36857 0.10365 0.0
H791 H 0.54107 0.40777 0.15539 0.0
Li792 Li 0.13592 0.50315 0.43323 0.0
Li793 Li 0.14662 0.49268 0.40274 0.0
Li794 Li 0.13538 0.50445 0.37768 0.0
Li795 Li 0.12135 0.4819 0.4034 0.0
C796 C 0.15793 0.5275 0.40555 0.0
N797 N 0.16908 0.55663 0.40691 0.0
C798 C 0.17255 0.53665 0.40162 0.0
C799 C 0.14898 0.53316 0.41016 0.0
C800 C 0.17798 0.55135 0.40238 0.0
C801 C 0.15482 0.54792 0.41078 0.0
C802 C 0.14135 0.48429 0.46486 0.0
C803 C 0.14271 0.47444 0.51407 0.0
N804 N 0.15647 0.48503 0.51715 0.0
C805 C 0.15551 0.49508 0.46851 0.0
C806 C 0.13488 0.47389 0.48779 0.0
C807 C 0.16297 0.49527 0.4951 0.0
C808 C 0.12467 0.51082 0.48327 0.0
N809 N 0.13705 0.51301 0.47045 0.0
C810 C 0.15064 0.53037 0.50902 0.0
C811 C 0.1499 0.52245 0.48286 0.0
C812 C 0.13803 0.52859 0.52236 0.0
C813 C 0.12491 0.51856 0.50936 0.0
H814 H 0.11461 0.50319 0.47293 0.0
H815 H 0.1596 0.52407 0.47207 0.0
C816 C 0.17134 0.49719 0.3752 0.0
N817 N 0.16177 0.48907 0.39723 0.0
C818 C 0.18223 0.4946 0.36672 0.0
C819 C 0.17333 0.47545 0.40423 0.0
C820 C 0.16251 0.47834 0.41179 0.0
C821 C 0.18331 0.48357 0.38121 0.0
H822 H 0.17023 0.50543 0.36359 0.0
H823 H 0.15453 0.47183 0.42872 0.0
C824 C 0.10723 0.49663 0.39156 0.0
N825 N 0.08266 0.49139 0.36094 0.0
C826 C 0.10463 0.49128 0.36126 0.0
C827 C 0.09733 0.49933 0.40623 0.0
C828 C 0.09215 0.48869 0.34619 0.0
C829 C 0.08497 0.49661 0.39037 0.0
C830 C 0.13329 0.4742 0.35451 0.0
C831 C 0.13552 0.47345 0.32279 0.0
C832 C 0.13093 0.4629 0.37391 0.0
C833 C 0.13532 0.46137 0.31096 0.0
C834 C 0.13082 0.451 0.36119 0.0
N835 N 0.133 0.45049 0.33024 0.0
C836 C 0.1446 0.51603 0.31855 0.0
C837 C 0.13005 0.52371 0.3431 0.0
C838 C 0.14582 0.52402 0.29217 0.0
N839 N 0.13672 0.51593 0.34315 0.0
C840 C 0.13088 0.53177 0.31714 0.0
C841 C 0.13879 0.53195 0.29111 0.0
H842 H 0.14993 0.50985 0.31947 0.0
H843 H 0.12395 0.52356 0.36309 0.0
C844 C 0.09609 0.45968 0.42874 0.0
N845 N 0.10357 0.46476 0.40195 0.0
C846 C 0.08218 0.44817 0.42801 0.0
C847 C 0.08421 0.44706 0.3723 0.0
C848 C 0.09802 0.45857 0.3741 0.0
C849 C 0.07598 0.44195 0.39937 0.0
H850 H 0.10075 0.46494 0.45049 0.0
H851 H 0.10409 0.46292 0.35306 0.0
O852 O 0.15253 0.51309 0.40474 0.0
O853 O 0.13372 0.48386 0.43916 0.0
O854 O 0.11928 0.49908 0.40707 0.0
O855 O 0.13375 0.48611 0.36645 0.0
H856 H 0.17961 0.53243 0.398 0.0
H857 H 0.13765 0.52628 0.41332 0.0
H858 H 0.18928 0.55856 0.39937 0.0
H859 H 0.14802 0.55244 0.41435 0.0
H860 H 0.13783 0.46645 0.53201 0.0
H861 H 0.16073 0.50321 0.45101 0.0
H862 H 0.12392 0.46548 0.48531 0.0
H863 H 0.17394 0.50355 0.49822 0.0
H864 H 0.16098 0.5381 0.51814 0.0
H865 H 0.11494 0.51675 0.5192 0.0
H866 H 0.18945 0.50091 0.34835 0.0
H867 H 0.17381 0.46692 0.41614 0.0
H868 H 0.11216 0.48914 0.34943 0.0
H869 H 0.09916 0.50348 0.42966 0.0
H870 H 0.09002 0.48454 0.32277 0.0
H871 H 0.07722 0.49865 0.40148 0.0
H872 H 0.13741 0.48214 0.30749 0.0
H873 H 0.12926 0.46331 0.39855 0.0
H874 H 0.13703 0.46064 0.28645 0.0
H875 H 0.12903 0.44219 0.37594 0.0
H876 H 0.15224 0.52404 0.27292 0.0
H877 H 0.12514 0.53756 0.31728 0.0
H878 H 0.07613 0.44466 0.44937 0.0
H879 H 0.07987 0.44248 0.3498 0.0
Li880 Li 0.62905 0.13275 0.60544 0.0
Li881 Li 0.65 0.14161 0.57242 0.0
Li882 Li 0.62585 0.12878 0.55087 0.0
Li883 Li 0.63446 0.11558 0.58002 0.0
C884 C 0.6341 0.15814 0.58378 0.0
N885 N 0.6314 0.1802 0.60825 0.0
C886 C 0.64602 0.17016 0.59581 0.0
C887 C 0.62087 0.15742 0.58376 0.0
C888 C 0.64442 0.18119 0.60817 0.0
C889 C 0.61971 0.16865 0.59638 0.0
C890 C 0.65748 0.1291 0.62058 0.0
C891 C 0.67685 0.12515 0.6073 0.0
N892 N 0.68022 0.12582 0.6379 0.0
C893 C 0.66112 0.12974 0.65188 0.0
C894 C 0.66539 0.12677 0.59807 0.0
C895 C 0.67267 0.12807 0.66018 0.0
C896 C 0.60797 0.12687 0.65013 0.0
N897 N 0.62156 0.13645 0.64193 0.0
C898 C 0.62363 0.15147 0.68458 0.0
C899 C 0.62955 0.14842 0.65895 0.0
C900 C 0.60943 0.14196 0.69303 0.0
C901 C 0.60167 0.12942 0.67567 0.0
H902 H 0.60199 0.11723 0.63685 0.0
H903 H 0.64046 0.15568 0.65241 0.0
C904 C 0.66933 0.1631 0.53592 0.0
N905 N 0.66844 0.15685 0.56375 0.0
C906 C 0.68228 0.17427 0.52565 0.0
C907 C 0.69315 0.17277 0.57348 0.0
C908 C 0.67992 0.16158 0.58286 0.0
C909 C 0.69443 0.1792 0.54443 0.0
H910 H 0.6599 0.15935 0.52172 0.0
H911 H 0.67885 0.15677 0.60536 0.0
C912 C 0.60207 0.10657 0.575 0.0
N913 N 0.57411 0.09024 0.55584 0.0
C914 C 0.59675 0.09238 0.56626 0.0
C915 C 0.59313 0.1124 0.57428 0.0
C916 C 0.58259 0.08431 0.55658 0.0
C917 C 0.57904 0.10398 0.56443 0.0
C918 C 0.63938 0.1205 0.51161 0.0
C919 C 0.62879 0.10635 0.50683 0.0
C920 C 0.64668 0.129 0.48613 0.0
C921 C 0.62565 0.10096 0.47664 0.0
C922 C 0.64321 0.12323 0.45627 0.0
N923 N 0.63285 0.10945 0.45218 0.0
C924 C 0.61945 0.14203 0.50323 0.0
C925 C 0.60517 0.11691 0.50118 0.0
C926 C 0.61297 0.14339 0.47648 0.0
N927 N 0.61544 0.12895 0.51512 0.0
C928 C 0.59829 0.11778 0.47461 0.0
C929 C 0.60221 0.13115 0.46193 0.0
H930 H 0.62782 0.15144 0.51437 0.0
H931 H 0.60244 0.1066 0.51026 0.0
C932 C 0.62509 0.08881 0.606 0.0
N933 N 0.63398 0.09803 0.58428 0.0
C934 C 0.62252 0.07488 0.60686 0.0
C935 C 0.63911 0.08054 0.56441 0.0
C936 C 0.64137 0.09438 0.56442 0.0
C937 C 0.62918 0.07047 0.5851 0.0
H938 H 0.61944 0.09209 0.62159 0.0
H939 H 0.64846 0.10199 0.54751 0.0
O940 O 0.63543 0.1472 0.57175 0.0
O941 O 0.64609 0.13056 0.61226 0.0
O942 O 0.61589 0.11462 0.58469 0.0
O943 O 0.64242 0.12603 0.54101 0.0
H944 H 0.65635 0.17091 0.5959 0.0
H945 H 0.6116 0.14828 0.57411 0.0
H946 H 0.65352 0.19052 0.61777 0.0
H947 H 0.60951 0.1682 0.59669 0.0
H948 H 0.68307 0.12337 0.59013 0.0
H949 H 0.65507 0.13149 0.66958 0.0
H950 H 0.6628 0.12633 0.57372 0.0
H951 H 0.67561 0.12854 0.68433 0.0
H952 H 0.63002 0.16127 0.69726 0.0
H953 H 0.59085 0.12157 0.68183 0.0
H954 H 0.68279 0.17885 0.50303 0.0
H955 H 0.70222 0.17645 0.58888 0.0
H956 H 0.60349 0.08767 0.56671 0.0
H957 H 0.59704 0.12331 0.58117 0.0
H958 H 0.57836 0.07335 0.54961 0.0
H959 H 0.57202 0.10838 0.56361 0.0
H960 H 0.62287 0.09966 0.52618 0.0
H961 H 0.65496 0.13994 0.48929 0.0
H962 H 0.61741 0.09006 0.47264 0.0
H963 H 0.64877 0.12971 0.43635 0.0
H964 H 0.61626 0.1539 0.4674 0.0
H965 H 0.5902 0.10809 0.46371 0.0
H966 H 0.61495 0.06748 0.6235 0.0
H967 H 0.6444 0.07756 0.54713 0.0
Li968 Li 0.50798 0.65498 0.73357 0.0
Li969 Li 0.49416 0.63285 0.76219 0.0
Li970 Li 0.51518 0.63753 0.73218 0.0
Li971 Li 0.49297 0.63251 0.70662 0.0
C972 C 0.52088 0.65938 0.78745 0.0
N973 N 0.53384 0.68362 0.82371 0.0
C974 C 0.51391 0.66057 0.81361 0.0
C975 C 0.53447 0.67048 0.77984 0.0
C976 C 0.52065 0.67291 0.83164 0.0
C977 C 0.54083 0.68266 0.79842 0.0
C978 C 0.4759 0.64233 0.72029 0.0
C979 C 0.45171 0.62933 0.70153 0.0
N980 N 0.45372 0.64119 0.68634 0.0
C981 C 0.47772 0.6544 0.70458 0.0
C982 C 0.46278 0.6297 0.71889 0.0
C983 C 0.46637 0.6536 0.68753 0.0
C984 C 0.52392 0.68277 0.71055 0.0
N985 N 0.51464 0.67475 0.73317 0.0
C986 C 0.51471 0.69512 0.75428 0.0
C987 C 0.50996 0.68057 0.75483 0.0
C988 C 0.52422 0.70368 0.73096 0.0
C989 C 0.52889 0.69733 0.70904 0.0
H990 H 0.52722 0.67782 0.69327 0.0
H991 H 0.50244 0.67386 0.77233 0.0
C992 C 0.48986 0.61987 0.8206 0.0
N993 N 0.48389 0.62447 0.79918 0.0
C994 C 0.48228 0.61273 0.84711 0.0
C995 C 0.46279 0.61585 0.82974 0.0
C996 C 0.47072 0.62281 0.8034 0.0
C997 C 0.46848 0.61053 0.85186 0.0
H998 H 0.50042 0.62147 0.81669 0.0
H999 H 0.46633 0.62679 0.7862 0.0
C1000 C 0.52269 0.64862 0.67616 0.0
N1001 N 0.5433 0.64992 0.63634 0.0
C1002 C 0.51877 0.63968 0.65025 0.0
C1003 C 0.53709 0.65828 0.6817 0.0
C1004 C 0.52935 0.6405 0.63041 0.0
C1005 C 0.54735 0.65874 0.66135 0.0
C1006 C 0.49086 0.60761 0.74996 0.0
C1007 C 0.49988 0.60371 0.76476 0.0
C1008 C 0.47611 0.59914 0.75344 0.0
C1009 C 0.49397 0.59144 0.78305 0.0
C1010 C 0.47062 0.58697 0.772 0.0
N1011 N 0.47959 0.5834 0.7863 0.0
C1012 C 0.54184 0.64116 0.75053 0.0
C1013 C 0.53091 0.62576 0.70764 0.0
C1014 C 0.55352 0.63907 0.74874 0.0
N1015 N 0.53091 0.63457 0.73004 0.0
C1016 C 0.54245 0.62354 0.7047 0.0
C1017 C 0.55391 0.63022 0.72548 0.0
H1018 H 0.54144 0.64793 0.7684 0.0
H1019 H 0.52191 0.62045 0.69209 0.0
C1020 C 0.48032 0.63208 0.64877 0.0
N1021 N 0.48127 0.62382 0.67131 0.0
C1022 C 0.47207 0.62582 0.62234 0.0
C1023 C 0.46616 0.60273 0.6426 0.0
C1024 C 0.47445 0.60943 0.66869 0.0
C1025 C 0.46489 0.61095 0.61893 0.0
H1026 H 0.48607 0.64353 0.65126 0.0
H1027 H 0.47565 0.60314 0.6866 0.0
O1028 O 0.51438 0.64747 0.76926 0.0
O1029 O 0.48693 0.64284 0.73673 0.0
O1030 O 0.5125 0.64783 0.69613 0.0
O1031 O 0.49645 0.61973 0.73244 0.0
H1032 H 0.50337 0.65211 0.81978 0.0
H1033 H 0.53996 0.66978 0.75953 0.0
H1034 H 0.51536 0.67401 0.85188 0.0
H1035 H 0.5513 0.69138 0.79267 0.0
H1036 H 0.44154 0.6196 0.70005 0.0
H1037 H 0.48781 0.66424 0.70531 0.0
H1038 H 0.46123 0.62023 0.7307 0.0
H1039 H 0.46764 0.66284 0.67516 0.0
H1040 H 0.51088 0.69959 0.77169 0.0
H1041 H 0.53593 0.70344 0.69022 0.0
H1042 H 0.48705 0.60868 0.86327 0.0
H1043 H 0.45233 0.61466 0.83271 0.0
H1044 H 0.50771 0.6321 0.64563 0.0
H1045 H 0.54033 0.66517 0.70181 0.0
H1046 H 0.52648 0.6336 0.61035 0.0
H1047 H 0.55853 0.66608 0.66551 0.0
H1048 H 0.51132 0.61016 0.76242 0.0
H1049 H 0.46898 0.60206 0.74234 0.0
H1050 H 0.50082 0.58833 0.79477 0.0
H1051 H 0.45923 0.58039 0.77513 0.0
H1052 H 0.56214 0.64429 0.7653 0.0
H1053 H 0.54224 0.61638 0.68692 0.0
H1054 H 0.47132 0.63257 0.60481 0.0
H1055 H 0.46109 0.59127 0.64069 0.0
H1056 H 0.5582 0.14793 0.19418 0.0
H1057 H 0.57128 0.14806 0.24062 0.0
H1058 H 0.5316 0.12438 0.29031 0.0
H1059 H 0.51854 0.12452 0.24414 0.0
H1060 H 0.55036 0.14453 0.3259 0.0
H1061 H 0.55034 0.10852 0.26105 0.0
H1062 H 0.55454 0.0987 0.21317 0.0
H1063 H 0.59928 0.12897 0.21872 0.0
H1064 H 0.59531 0.1391 0.26644 0.0
H1065 H 0.57375 0.11772 0.44941 0.0
H1066 H 0.56214 0.11962 0.40231 0.0
H1067 H 0.60318 0.14899 0.36325 0.0
H1068 H 0.61487 0.14714 0.41035 0.0
H1069 H 0.58474 0.12699 0.32224 0.0
H1070 H 0.58428 0.16214 0.3892 0.0
H1071 H 0.57952 0.17104 0.4378 0.0
H1072 H 0.53483 0.14106 0.42887 0.0
H1073 H 0.53935 0.13184 0.38043 0.0
C1074 C 0.5523 0.14272 0.21501 0.0
C1075 C 0.53737 0.13618 0.21558 0.0
C1076 C 0.55976 0.14277 0.2415 0.0
C1077 C 0.55241 0.13605 0.26884 0.0
C1078 C 0.5375 0.12965 0.2695 0.0
C1079 C 0.53006 0.12974 0.24315 0.0
C1080 C 0.5602 0.13569 0.29684 0.0
C1081 C 0.55775 0.14053 0.32512 0.0
C1082 C 0.57008 0.13076 0.29575 0.0
C1083 C 0.5725 0.12466 0.26713 0.0
C1084 C 0.56106 0.11315 0.25193 0.0
C1085 C 0.5634 0.10752 0.22485 0.0
C1086 C 0.57716 0.11324 0.21286 0.0
C1087 C 0.58862 0.12457 0.228 0.0
C1088 C 0.58633 0.13025 0.25508 0.0
C1089 C 0.58028 0.12454 0.43072 0.0
C1090 C 0.59519 0.13231 0.4335 0.0
C1091 C 0.57365 0.12568 0.40396 0.0
C1092 C 0.58182 0.13452 0.37947 0.0
C1093 C 0.59671 0.14215 0.38199 0.0
C1094 C 0.60335 0.14115 0.40891 0.0
C1095 C 0.57477 0.1357 0.35114 0.0
C1096 C 0.57738 0.13102 0.32287 0.0
C1097 C 0.56493 0.14064 0.35228 0.0
C1098 C 0.56218 0.1462 0.38134 0.0
C1099 C 0.57345 0.15736 0.39774 0.0
C1100 C 0.5708 0.16248 0.42523 0.0
C1101 C 0.55689 0.15659 0.43646 0.0
C1102 C 0.5456 0.1456 0.42017 0.0
C1103 C 0.54821 0.14043 0.39268 0.0
H1104 H 0.55485 0.16058 0.45775 0.0
H1105 H 0.57895 0.10886 0.19189 0.0
H1106 H 0.38516 0.5257 0.4065 0.0
H1107 H 0.3969 0.54027 0.4521 0.0
H1108 H 0.4254 0.57495 0.39286 0.0
H1109 H 0.41353 0.56057 0.34704 0.0
H1110 H 0.43944 0.56949 0.4391 0.0
H1111 H 0.39941 0.57679 0.43036 0.0
H1112 H 0.37398 0.56943 0.42559 0.0
H1113 H 0.36531 0.54732 0.5126 0.0
H1114 H 0.39067 0.55438 0.51768 0.0
H1115 H 0.47138 0.6202 0.55877 0.0
H1116 H 0.45818 0.6082 0.51188 0.0
H1117 H 0.42667 0.57372 0.56741 0.0
H1118 H 0.43944 0.58598 0.61456 0.0
H1119 H 0.41414 0.57991 0.52192 0.0
H1120 H 0.45323 0.57109 0.52995 0.0
H1121 H 0.4784 0.5775 0.53524 0.0
H1122 H 0.48852 0.60128 0.45026 0.0
H1123 H 0.46343 0.59518 0.44469 0.0
C1124 C 0.39376 0.53651 0.40311 0.0
C1125 C 0.39839 0.54196 0.37307 0.0
C1126 C 0.40049 0.5448 0.42922 0.0
C1127 C 0.41195 0.55872 0.42583 0.0
C1128 C 0.41658 0.56423 0.39595 0.0
C1129 C 0.40982 0.55596 0.3698 0.0
C1130 C 0.41943 0.56732 0.45351 0.0
C1131 C 0.43397 0.57199 0.45697 0.0
C1132 C 0.41217 0.57021 0.47718 0.0
C1133 C 0.39693 0.56601 0.47426 0.0
C1134 C 0.39206 0.57026 0.44836 0.0
C1135 C 0.37766 0.56616 0.44562 0.0
C1136 C 0.36803 0.55788 0.46874 0.0
C1137 C 0.37278 0.55372 0.49469 0.0
C1138 C 0.38717 0.55778 0.49753 0.0
C1139 C 0.46151 0.61019 0.5611 0.0
C1140 C 0.45652 0.60401 0.59046 0.0
C1141 C 0.45405 0.60326 0.53422 0.0
C1142 C 0.44157 0.58994 0.5361 0.0
C1143 C 0.43632 0.58395 0.56539 0.0
C1144 C 0.44372 0.59091 0.5923 0.0
C1145 C 0.43417 0.58207 0.50755 0.0
C1146 C 0.41964 0.5775 0.50395 0.0
C1147 C 0.4414 0.57915 0.48384 0.0
C1148 C 0.45649 0.58281 0.48709 0.0
C1149 C 0.46084 0.57778 0.51252 0.0
C1150 C 0.47509 0.58134 0.51555 0.0
C1151 C 0.48506 0.58983 0.49314 0.0
C1152 C 0.48079 0.59473 0.46762 0.0
C1153 C 0.46656 0.59122 0.46451 0.0
H1154 H 0.49608 0.59257 0.49552 0.0
H1155 H 0.35688 0.55472 0.46658 0.0
H1156 H 0.85217 0.46608 0.72917 0.0
H1157 H 0.85302 0.45344 0.68303 0.0
H1158 H 0.88113 0.44228 0.73055 0.0
H1159 H 0.8805 0.45517 0.77668 0.0
H1160 H 0.89015 0.45037 0.67343 0.0
H1161 H 0.84538 0.41784 0.71959 0.0
H1162 H 0.82173 0.41005 0.74232 0.0
H1163 H 0.80786 0.4195 0.65678 0.0
H1164 H 0.8315 0.42754 0.63365 0.0
H1165 H 0.88038 0.39597 0.56582 0.0
H1166 H 0.88051 0.40878 0.6126 0.0
H1167 H 0.85696 0.42527 0.56445 0.0
H1168 H 0.85711 0.41286 0.51726 0.0
H1169 H 0.84569 0.41384 0.6226 0.0
H1170 H 0.89112 0.4466 0.57722 0.0
H1171 H 0.91476 0.45373 0.55524 0.0
H1172 H 0.92724 0.44274 0.64077 0.0
H1173 H 0.90358 0.43535 0.66313 0.0
C1174 C 0.85844 0.46084 0.72984 0.0
C1175 C 0.86619 0.46152 0.75657 0.0
C1176 C 0.85891 0.45361 0.70348 0.0
C1177 C 0.86695 0.4467 0.70348 0.0
C1178 C 0.87484 0.44751 0.73004 0.0
C1179 C 0.87448 0.45487 0.75634 0.0
C1180 C 0.86721 0.43877 0.67565 0.0
C1181 C 0.88042 0.44223 0.66261 0.0
C1182 C 0.85452 0.42831 0.66119 0.0
C1183 C 0.84026 0.42342 0.67498 0.0
C1184 C 0.83732 0.41836 0.70569 0.0
C1185 C 0.82391 0.41388 0.71864 0.0
C1186 C 0.81331 0.41431 0.70103 0.0
C1187 C 0.81609 0.41919 0.6704 0.0
C1188 C 0.82949 0.4237 0.65735 0.0
C1189 C 0.87541 0.4025 0.56497 0.0
C1190 C 0.86875 0.40339 0.53769 0.0
C1191 C 0.87544 0.40974 0.5918 0.0
C1192 C 0.86878 0.41799 0.5919 0.0
C1193 C 0.8621 0.4189 0.56484 0.0
C1194 C 0.86215 0.41174 0.53793 0.0
C1195 C 0.8686 0.42552 0.6204 0.0
C1196 C 0.85539 0.42196 0.63354 0.0
C1197 C 0.88128 0.43578 0.63509 0.0
C1198 C 0.89553 0.44028 0.62173 0.0
C1199 C 0.89886 0.44558 0.59126 0.0
C1200 C 0.91227 0.4497 0.57874 0.0
C1201 C 0.92248 0.44865 0.59657 0.0
C1202 C 0.91931 0.44353 0.62698 0.0
C1203 C 0.90591 0.43938 0.63959 0.0
H1204 H 0.93286 0.45184 0.58684 0.0
H1205 H 0.80293 0.41084 0.7111 0.0
H1206 H 0.43936 0.84652 0.68958 0.0
H1207 H 0.42754 0.84716 0.73734 0.0
H1208 H 0.46642 0.88389 0.76823 0.0
H1209 H 0.47846 0.88298 0.72107 0.0
H1210 H 0.45462 0.8651 0.81403 0.0
H1211 H 0.4387 0.88717 0.74054 0.0
H1212 H 0.4281 0.88939 0.69173 0.0
H1213 H 0.3886 0.85186 0.71442 0.0
H1214 H 0.39904 0.8493 0.76321 0.0
H1215 H 0.42356 0.88621 0.93421 0.0
H1216 H 0.4356 0.88565 0.88648 0.0
H1217 H 0.39868 0.84585 0.86075 0.0
H1218 H 0.38661 0.84634 0.90845 0.0
H1219 H 0.40949 0.86638 0.81262 0.0
H1220 H 0.42596 0.84465 0.88658 0.0
H1221 H 0.43682 0.84312 0.93565 0.0
H1222 H 0.47573 0.88113 0.91206 0.0
H1223 H 0.46501 0.883 0.86302 0.0
C1224 C 0.44542 0.85468 0.70661 0.0
C1225 C 0.45984 0.86472 0.70148 0.0
C1226 C 0.43861 0.85512 0.73376 0.0
C1227 C 0.44606 0.86567 0.75618 0.0
C1228 C 0.46046 0.87568 0.75117 0.0
C1229 C 0.46729 0.87523 0.72406 0.0
C1230 C 0.4389 0.8661 0.78514 0.0
C1231 C 0.44486 0.86559 0.81371 0.0
C1232 C 0.42602 0.86645 0.7847 0.0
C1233 C 0.4197 0.86796 0.75539 0.0
C1234 C 0.42779 0.87932 0.73501 0.0
C1235 C 0.42181 0.88066 0.70736 0.0
C1236 C 0.4077 0.87075 0.69994 0.0
C1237 C 0.39954 0.85951 0.72018 0.0
C1238 C 0.40548 0.85812 0.74785 0.0
C1239 C 0.41804 0.87735 0.91833 0.0
C1240 C 0.40419 0.86629 0.92498 0.0
C1241 C 0.42492 0.87701 0.89122 0.0
C1242 C 0.41802 0.86568 0.87025 0.0
C1243 C 0.40417 0.85467 0.87672 0.0
C1244 C 0.39734 0.85491 0.90401 0.0
C1245 C 0.42522 0.86538 0.84134 0.0
C1246 C 0.41926 0.86591 0.81284 0.0
C1247 C 0.43815 0.86516 0.84184 0.0
C1248 C 0.44463 0.86405 0.87128 0.0
C1249 C 0.43678 0.85276 0.89199 0.0
C1250 C 0.44293 0.85181 0.91977 0.0
C1251 C 0.45695 0.86205 0.92701 0.0
C1252 C 0.46486 0.87323 0.90644 0.0
C1253 C 0.45876 0.87423 0.87864 0.0
H1254 H 0.46168 0.8613 0.94853 0.0
H1255 H 0.40308 0.87181 0.67853 0.0
H1256 H 0.55914 0.40742 0.12126 0.0
H1257 H 0.57277 0.41979 0.07494 0.0
H1258 H 0.5343 0.39949 0.02019 0.0
H1259 H 0.52062 0.38709 0.06639 0.0
H1260 H 0.55591 0.39935 0.99019 0.0
H1261 H 0.54843 0.43385 0.04419 0.0
H1262 H 0.54923 0.44836 0.08902 0.0
H1263 H 0.59481 0.46799 0.09206 0.0
H1264 H 0.59425 0.45344 0.04748 0.0
H1265 H 0.5782 0.44493 0.85906 0.0
H1266 H 0.5662 0.43154 0.90583 0.0
H1267 H 0.60609 0.45228 0.95554 0.0
H1268 H 0.61811 0.466 0.90902 0.0
H1269 H 0.58471 0.45208 0.98866 0.0
H1270 H 0.59209 0.41817 0.93262 0.0
H1271 H 0.591 0.40375 0.88735 0.0
H1272 H 0.54533 0.38313 0.88761 0.0
H1273 H 0.54615 0.39758 0.93263 0.0
C1274 C 0.55358 0.40565 0.09938 0.0
C1275 C 0.5388 0.39634 0.09748 0.0
C1276 C 0.56138 0.4127 0.07294 0.0
C1277 C 0.55451 0.41068 0.0442 0.0
C1278 C 0.53981 0.40119 0.04213 0.0
C1279 C 0.53201 0.39409 0.06853 0.0
C1280 C 0.5626 0.4186 0.01632 0.0
C1281 C 0.56209 0.41089 0.98973 0.0
C1282 C 0.57092 0.43364 0.01599 0.0
C1283 C 0.57128 0.44244 0.04271 0.0
C1284 C 0.55861 0.44118 0.05457 0.0
C1285 C 0.55902 0.44943 0.07991 0.0
C1286 C 0.57206 0.45906 0.09344 0.0
C1287 C 0.58472 0.4605 0.08159 0.0
C1288 C 0.58436 0.45226 0.05628 0.0
C1289 C 0.58441 0.44668 0.87999 0.0
C1290 C 0.5991 0.45652 0.88036 0.0
C1291 C 0.57756 0.43893 0.9066 0.0
C1292 C 0.58529 0.44082 0.93405 0.0
C1293 C 0.59995 0.45063 0.93453 0.0
C1294 C 0.60682 0.45837 0.90789 0.0
C1295 C 0.57796 0.43283 0.96248 0.0
C1296 C 0.57861 0.44054 0.98917 0.0
C1297 C 0.56973 0.4178 0.96285 0.0
C1298 C 0.56919 0.40905 0.93584 0.0
C1299 C 0.58182 0.41064 0.92288 0.0
C1300 C 0.58125 0.40245 0.89729 0.0
C1301 C 0.56811 0.39256 0.88457 0.0
C1302 C 0.5555 0.39081 0.89747 0.0
C1303 C 0.55601 0.39899 0.92304 0.0
H1304 H 0.56769 0.38622 0.86476 0.0
H1305 H 0.57236 0.46544 0.11305 0.0
H1306 H 0.13838 0.52436 0.23027 0.0
H1307 H 0.1388 0.53753 0.18394 0.0
H1308 H 0.1406 0.57094 0.24135 0.0
H1309 H 0.14062 0.55807 0.28789 0.0
H1310 H 0.1198 0.56168 0.19512 0.0
H1311 H 0.16957 0.57683 0.20457 0.0
H1312 H 0.1903 0.5734 0.20998 0.0
H1313 H 0.1797 0.55051 0.12374 0.0
H1314 H 0.15877 0.55362 0.11803 0.0
H1315 H 0.13225 0.61116 0.0762 0.0
H1316 H 0.13461 0.59983 0.12293 0.0
H1317 H 0.1384 0.56897 0.06674 0.0
H1318 H 0.13686 0.58074 0.01977 0.0
H1319 H 0.1567 0.5772 0.11297 0.0
H1320 H 0.10686 0.56101 0.10342 0.0
H1321 H 0.08556 0.56344 0.0974 0.0
H1322 H 0.09539 0.58689 0.18283 0.0
H1323 H 0.11687 0.58477 0.18914 0.0
C1324 C 0.13913 0.53462 0.23311 0.0
C1325 C 0.13947 0.54015 0.26287 0.0
C1326 C 0.1393 0.5421 0.20658 0.0
C1327 C 0.13979 0.55522 0.20928 0.0
C1328 C 0.14018 0.5608 0.23884 0.0
C1329 C 0.14011 0.55339 0.26539 0.0
C1330 C 0.13946 0.5629 0.18122 0.0
C1331 C 0.12797 0.56528 0.17734 0.0
C1332 C 0.14991 0.56718 0.15771 0.0
C1333 C 0.16252 0.56534 0.16103 0.0
C1334 C 0.17159 0.57096 0.18689 0.0
C1335 C 0.18339 0.56909 0.18999 0.0
C1336 C 0.1863 0.56171 0.16726 0.0
C1337 C 0.17743 0.55621 0.14135 0.0
C1338 C 0.1656 0.55803 0.13816 0.0
C1339 C 0.13381 0.6021 0.0737 0.0
C1340 C 0.13431 0.59684 0.04416 0.0
C1341 C 0.13498 0.59552 0.10049 0.0
C1342 C 0.13643 0.5834 0.09836 0.0
C1343 C 0.1372 0.57827 0.06895 0.0
C1344 C 0.13616 0.58492 0.04211 0.0
C1345 C 0.13702 0.57601 0.1268 0.0
C1346 C 0.14853 0.57365 0.13075 0.0
C1347 C 0.1265 0.5716 0.15026 0.0
C1348 C 0.11356 0.57285 0.14659 0.0
C1349 C 0.10454 0.56678 0.12081 0.0
C1350 C 0.09242 0.56809 0.11736 0.0
C1351 C 0.08914 0.57535 0.13967 0.0
C1352 C 0.09796 0.58129 0.16553 0.0
C1353 C 0.1101 0.58002 0.16908 0.0
H1354 H 0.07976 0.57635 0.13696 0.0
H1355 H 0.19544 0.56028 0.1697 0.0
H1356 H 0.46702 0.28356 0.15709 0.0
H1357 H 0.46083 0.25933 0.14357 0.0
H1358 H 0.45773 0.24855 0.24079 0.0
H1359 H 0.46455 0.27302 0.25452 0.0
H1360 H 0.47446 0.24143 0.2121 0.0
H1361 H 0.42799 0.23351 0.19318 0.0
H1362 H 0.40959 0.23831 0.17256 0.0
H1363 H 0.42202 0.23547 0.07939 0.0
H1364 H 0.44064 0.23085 0.09942 0.0
H1365 H 0.46215 0.17395 0.1676 0.0
H1366 H 0.4556 0.19078 0.18899 0.0
H1367 H 0.46333 0.21153 0.09991 0.0
H1368 H 0.46989 0.19473 0.07836 0.0
H1369 H 0.44033 0.21062 0.13123 0.0
H1370 H 0.48949 0.22347 0.15136 0.0
H1371 H 0.50815 0.21895 0.17157 0.0
H1372 H 0.49033 0.21281 0.26311 0.0
H1373 H 0.47142 0.21709 0.2433 0.0
C1374 C 0.46496 0.27602 0.17561 0.0
C1375 C 0.46646 0.28024 0.20687 0.0
C1376 C 0.46119 0.2621 0.16785 0.0
C1377 C 0.45868 0.25208 0.19118 0.0
C1378 C 0.45956 0.2561 0.22243 0.0
C1379 C 0.4634 0.27006 0.23023 0.0
C1380 C 0.45691 0.23806 0.1828 0.0
C1381 C 0.46671 0.2345 0.19506 0.0
C1382 C 0.447 0.22917 0.16008 0.0
C1383 C 0.43578 0.23191 0.14785 0.0
C1384 C 0.42688 0.23401 0.16829 0.0
C1385 C 0.41639 0.23668 0.1567 0.0
C1386 C 0.41465 0.23721 0.12469 0.0
C1387 C 0.42338 0.23505 0.10419 0.0
C1388 C 0.43389 0.23238 0.11565 0.0
C1389 C 0.46231 0.18202 0.15252 0.0
C1390 C 0.46677 0.18323 0.12148 0.0
C1391 C 0.45847 0.19154 0.1647 0.0
C1392 C 0.45918 0.20248 0.1461 0.0
C1393 C 0.4627 0.20312 0.11458 0.0
C1394 C 0.46648 0.19355 0.10233 0.0
C1395 C 0.45801 0.21427 0.1602 0.0
C1396 C 0.44776 0.21741 0.14889 0.0
C1397 C 0.4675 0.22283 0.18383 0.0
C1398 C 0.47896 0.22043 0.1958 0.0
C1399 C 0.4895 0.22106 0.17575 0.0
C1400 C 0.50012 0.21855 0.18713 0.0
C1401 C 0.5004 0.21555 0.21858 0.0
C1402 C 0.49008 0.2151 0.23874 0.0
C1403 C 0.47941 0.21757 0.22745 0.0
H1404 H 0.50863 0.21361 0.22736 0.0
H1405 H 0.40653 0.23929 0.11576 0.0
H1406 H 0.27867 0.47578 0.22751 0.0
H1407 H 0.25647 0.47288 0.24944 0.0
H1408 H 0.26608 0.46012 0.33692 0.0
H1409 H 0.2885 0.4636 0.31535 0.0
H1410 H 0.23238 0.4537 0.2776 0.0
H1411 H 0.26017 0.47738 0.39456 0.0
H1412 H 0.28453 0.49201 0.41528 0.0
H1413 H 0.29907 0.51165 0.32607 0.0
H1414 H 0.27477 0.49733 0.30501 0.0
H1415 H 0.1812 0.45739 0.37483 0.0
H1416 H 0.1995 0.45229 0.35638 0.0
H1417 H 0.22873 0.49728 0.34529 0.0
H1418 H 0.21089 0.50248 0.36559 0.0
H1419 H 0.24226 0.48568 0.36804 0.0
H1420 H 0.20937 0.4747 0.28329 0.0
H1421 H 0.18585 0.46254 0.25777 0.0
H1422 H 0.18271 0.42205 0.27435 0.0
H1423 H 0.20615 0.43397 0.30034 0.0
C1424 C 0.2758 0.47203 0.25116 0.0
C1425 C 0.28524 0.47009 0.27001 0.0
C1426 C 0.26315 0.47033 0.26363 0.0
C1427 C 0.2598 0.46656 0.29498 0.0
C1428 C 0.26861 0.46329 0.31286 0.0
C1429 C 0.28136 0.46525 0.30058 0.0
C1430 C 0.24828 0.46797 0.30993 0.0
C1431 C 0.23447 0.46059 0.29754 0.0
C1432 C 0.25112 0.47721 0.33551 0.0
C1433 C 0.26569 0.48616 0.34817 0.0
C1434 C 0.26856 0.48487 0.37944 0.0
C1435 C 0.28235 0.49311 0.39123 0.0
C1436 C 0.29335 0.50271 0.37198 0.0
C1437 C 0.29056 0.50418 0.34094 0.0
C1438 C 0.27678 0.49601 0.32907 0.0
C1439 C 0.19161 0.46621 0.36905 0.0
C1440 C 0.19454 0.48036 0.3715 0.0
C1441 C 0.202 0.46326 0.35811 0.0
C1442 C 0.2154 0.47439 0.34894 0.0
C1443 C 0.21845 0.4885 0.35211 0.0
C1444 C 0.20817 0.49147 0.36341 0.0
C1445 C 0.2263 0.47149 0.33565 0.0
C1446 C 0.24004 0.4786 0.34841 0.0
C1447 C 0.22348 0.46239 0.30978 0.0
C1448 C 0.20943 0.45521 0.29406 0.0
C1449 C 0.20361 0.4632 0.28169 0.0
C1450 C 0.19031 0.45635 0.26711 0.0
C1451 C 0.18277 0.44153 0.26452 0.0
C1452 C 0.18855 0.43353 0.27643 0.0
C1453 C 0.20184 0.44032 0.29107 0.0
H1454 H 0.17247 0.43625 0.25323 0.0
H1455 H 0.30402 0.50905 0.38112 0.0
H1456 H 0.72072 0.18151 0.54925 0.0
H1457 H 0.74334 0.20044 0.52824 0.0
H1458 H 0.72195 0.22214 0.49354 0.0
H1459 H 0.69945 0.20347 0.51475 0.0
H1460 H 0.73887 0.21941 0.4495 0.0
H1461 H 0.7422 0.23376 0.55771 0.0
H1462 H 0.74259 0.23016 0.61415 0.0
H1463 H 0.77844 0.22388 0.60321 0.0
H1464 H 0.77814 0.22726 0.54661 0.0
H1465 H 0.78929 0.29001 0.4182 0.0
H1466 H 0.76999 0.26748 0.43742 0.0
H1467 H 0.80054 0.25631 0.47169 0.0
H1468 H 0.82001 0.27925 0.45381 0.0
H1469 H 0.78095 0.25083 0.51408 0.0
H1470 H 0.77999 0.23964 0.40742 0.0
H1471 H 0.77994 0.24296 0.35083 0.0
H1472 H 0.74016 0.24243 0.3577 0.0
H1473 H 0.74006 0.23931 0.41441 0.0
C1474 C 0.7209 0.19043 0.53752 0.0
C1475 C 0.7083 0.19097 0.53349 0.0
C1476 C 0.73379 0.20118 0.52543 0.0
C1477 C 0.73426 0.21263 0.50929 0.0
C1478 C 0.72176 0.2133 0.50568 0.0
C1479 C 0.70892 0.20261 0.51776 0.0
C1480 C 0.74768 0.22395 0.49564 0.0
C1481 C 0.74806 0.22635 0.46358 0.0
C1482 C 0.75984 0.23256 0.51391 0.0
C1483 C 0.76004 0.23059 0.54792 0.0
C1484 C 0.75009 0.23149 0.56731 0.0
C1485 C 0.75031 0.22952 0.59934 0.0
C1486 C 0.7605 0.22675 0.61225 0.0
C1487 C 0.77053 0.226 0.59317 0.0
C1488 C 0.77035 0.22795 0.56113 0.0
C1489 C 0.79193 0.2828 0.42992 0.0
C1490 C 0.80619 0.28645 0.43456 0.0
C1491 C 0.78087 0.26983 0.44054 0.0
C1492 C 0.78382 0.26011 0.45557 0.0
C1493 C 0.79804 0.26362 0.45997 0.0
C1494 C 0.80914 0.27668 0.4495 0.0
C1495 C 0.77197 0.24666 0.468 0.0
C1496 C 0.77188 0.24378 0.4998 0.0
C1497 C 0.76011 0.23751 0.44942 0.0
C1498 C 0.76007 0.23931 0.41524 0.0
C1499 C 0.77127 0.24032 0.39691 0.0
C1500 C 0.77126 0.24216 0.36479 0.0
C1501 C 0.76006 0.24293 0.35068 0.0
C1502 C 0.74883 0.24183 0.36866 0.0
C1503 C 0.74879 0.24001 0.4008 0.0
H1504 H 0.76007 0.24435 0.32582 0.0
H1505 H 0.76066 0.22523 0.63704 0.0
H1506 H 0.54592 0.82279 0.6138 0.0
H1507 H 0.55267 0.80709 0.64056 0.0
H1508 H 0.50892 0.77959 0.66751 0.0
H1509 H 0.50199 0.79479 0.64006 0.0
H1510 H 0.52901 0.7865 0.71665 0.0
H1511 H 0.52119 0.77054 0.60823 0.0
H1512 H 0.52636 0.77417 0.55215 0.0
H1513 H 0.56995 0.78614 0.56962 0.0
H1514 H 0.56506 0.78276 0.62588 0.0
H1515 H 0.5072 0.71531 0.73828 0.0
H1516 H 0.51282 0.73941 0.72586 0.0
H1517 H 0.55588 0.7505 0.70264 0.0
H1518 H 0.55034 0.72626 0.71543 0.0
H1519 H 0.54394 0.75712 0.65672 0.0
H1520 H 0.55006 0.76689 0.76366 0.0
H1521 H 0.54509 0.76309 0.81973 0.0
H1522 H 0.50597 0.7634 0.80678 0.0
H1523 H 0.51058 0.76698 0.75055 0.0
C1524 C 0.53771 0.81331 0.62512 0.0
C1525 C 0.52341 0.81007 0.62486 0.0
C1526 C 0.54162 0.80445 0.64062 0.0
C1527 C 0.5313 0.7923 0.65618 0.0
C1528 C 0.51706 0.78905 0.65598 0.0
C1529 C 0.51313 0.79778 0.64031 0.0
C1530 C 0.53498 0.78246 0.67179 0.0
C1531 C 0.53232 0.78008 0.70371 0.0
C1532 C 0.5399 0.77458 0.655 0.0
C1533 C 0.54281 0.77659 0.62123 0.0
C1534 C 0.5319 0.77408 0.60012 0.0
C1535 C 0.53478 0.77606 0.56831 0.0
C1536 C 0.54849 0.78044 0.55734 0.0
C1537 C 0.55935 0.78279 0.57815 0.0
C1538 C 0.55653 0.78084 0.61 0.0
C1539 C 0.518 0.72296 0.7315 0.0
C1540 C 0.52831 0.71885 0.72774 0.0
C1541 C 0.52121 0.73678 0.72439 0.0
C1542 C 0.53481 0.7468 0.71357 0.0
C1543 C 0.54533 0.74292 0.71101 0.0
C1544 C 0.54212 0.72907 0.71817 0.0
C1545 C 0.53727 0.76061 0.70147 0.0
C1546 C 0.54111 0.76381 0.67013 0.0
C1547 C 0.53353 0.7693 0.71891 0.0
C1548 C 0.53066 0.76717 0.75279 0.0
C1549 C 0.54035 0.76606 0.77271 0.0
C1550 C 0.5376 0.76396 0.80455 0.0
C1551 C 0.52522 0.763 0.81681 0.0
C1552 C 0.51557 0.76416 0.79725 0.0
C1553 C 0.51826 0.76625 0.76539 0.0
H1554 H 0.52311 0.76137 0.84147 0.0
H1555 H 0.55069 0.78196 0.5327 0.0
H1556 H 0.72483 0.53865 0.71913 0.0
H1557 H 0.74883 0.54361 0.73272 0.0
H1558 H 0.73645 0.53496 0.82894 0.0
H1559 H 0.7125 0.5298 0.81562 0.0
H1560 H 0.76432 0.55716 0.82164 0.0
H1561 H 0.73344 0.50884 0.78408 0.0
H1562 H 0.71778 0.49125 0.74521 0.0
H1563 H 0.75184 0.50869 0.67869 0.0
H1564 H 0.76764 0.52652 0.71708 0.0
H1565 H 0.80217 0.52729 0.89162 0.0
H1566 H 0.78559 0.53423 0.8705 0.0
H1567 H 0.80282 0.5369 0.77879 0.0
H1568 H 0.8192 0.52965 0.7998 0.0
H1569 H 0.77537 0.52161 0.77708 0.0
H1570 H 0.80777 0.56706 0.81868 0.0
H1571 H 0.82333 0.58446 0.85789 0.0
H1572 H 0.78718 0.57295 0.91664 0.0
H1573 H 0.77141 0.55532 0.878 0.0
C1574 C 0.72728 0.53795 0.74322 0.0
C1575 C 0.71672 0.53367 0.76624 0.0
C1576 C 0.741 0.54089 0.75095 0.0
C1577 C 0.74433 0.53951 0.78177 0.0
C1578 C 0.7341 0.53615 0.80504 0.0
C1579 C 0.7204 0.53321 0.79735 0.0
C1580 C 0.75775 0.53981 0.78948 0.0
C1581 C 0.76681 0.54943 0.81196 0.0
C1582 C 0.76109 0.52991 0.77622 0.0
C1583 C 0.75165 0.5191 0.75329 0.0
C1584 C 0.73755 0.50898 0.76109 0.0
C1585 C 0.72866 0.49896 0.73916 0.0
C1586 C 0.7338 0.49888 0.70946 0.0
C1587 C 0.74787 0.50879 0.70167 0.0
C1588 C 0.75679 0.51885 0.7235 0.0
C1589 C 0.80255 0.52959 0.86705 0.0
C1590 C 0.81184 0.52783 0.84726 0.0
C1591 C 0.79315 0.53363 0.85501 0.0
C1592 C 0.79306 0.53623 0.82308 0.0
C1593 C 0.8027 0.53495 0.80348 0.0
C1594 C 0.81199 0.53075 0.81545 0.0
C1595 C 0.78196 0.53883 0.8098 0.0
C1596 C 0.77322 0.52965 0.78631 0.0
C1597 C 0.77898 0.54916 0.82216 0.0
C1598 C 0.78841 0.55979 0.84547 0.0
C1599 C 0.80314 0.56816 0.84005 0.0
C1600 C 0.812 0.57808 0.86217 0.0
C1601 C 0.80625 0.5798 0.88975 0.0
C1602 C 0.79162 0.57161 0.89525 0.0
C1603 C 0.78271 0.56167 0.87323 0.0
H1604 H 0.81313 0.58748 0.90684 0.0
H1605 H 0.7269 0.49112 0.69252 0.0
H1606 H 0.20045 0.7108 0.90444 0.0
H1607 H 0.22095 0.73323 0.92105 0.0
H1608 H 0.19471 0.73907 0.98795 0.0
H1609 H 0.17401 0.71672 0.97098 0.0
H1610 H 0.21486 0.76461 0.95798 0.0
H1611 H 0.21297 0.72516 0.0129 0.0
H1612 H 0.21099 0.70157 0.01731 0.0
H1613 H 0.2492 0.71629 0.96365 0.0
H1614 H 0.25128 0.73991 0.9585 0.0
H1615 H 0.27411 0.81447 0.04993 0.0
H1616 H 0.25139 0.79437 0.03281 0.0
H1617 H 0.2738 0.78114 0.97065 0.0
H1618 H 0.29645 0.80064 0.9887 0.0
H1619 H 0.25434 0.75927 0.00147 0.0
H1620 H 0.25601 0.79849 0.94497 0.0
H1621 H 0.25787 0.82199 0.93944 0.0
H1622 H 0.22035 0.80794 0.99521 0.0
H1623 H 0.21838 0.7844 0.00141 0.0
C1624 C 0.19895 0.71702 0.92214 0.0
C1625 C 0.18567 0.71196 0.93662 0.0
C1626 C 0.21068 0.72978 0.93173 0.0
C1627 C 0.20933 0.73765 0.95599 0.0
C1628 C 0.19593 0.73308 0.96927 0.0
C1629 C 0.18418 0.72029 0.95974 0.0
C1630 C 0.22215 0.74996 0.96911 0.0
C1631 C 0.22345 0.76347 0.96786 0.0
C1632 C 0.23334 0.7484 0.98169 0.0
C1633 C 0.23221 0.73426 0.98509 0.0
C1634 C 0.22089 0.72333 0.00185 0.0
C1635 C 0.21976 0.70996 0.00451 0.0
C1636 C 0.22994 0.70743 0.99071 0.0
C1637 C 0.24131 0.71827 0.9743 0.0
C1638 C 0.24248 0.73165 0.97153 0.0
C1639 C 0.27419 0.80721 0.03279 0.0
C1640 C 0.2871 0.80921 0.02056 0.0
C1641 C 0.2612 0.79583 0.02278 0.0
C1642 C 0.26091 0.78637 0.00018 0.0
C1643 C 0.27378 0.78835 0.98802 0.0
C1644 C 0.28672 0.7996 0.99815 0.0
C1645 C 0.24731 0.77408 0.98968 0.0
C1646 C 0.24579 0.76049 0.99166 0.0
C1647 C 0.23598 0.77562 0.97772 0.0
C1648 C 0.23714 0.78974 0.97393 0.0
C1649 C 0.24822 0.80045 0.95626 0.0
C1650 C 0.24929 0.81377 0.95297 0.0
C1651 C 0.23926 0.81647 0.96704 0.0
C1652 C 0.22813 0.80584 0.98437 0.0
C1653 C 0.22702 0.79251 0.98776 0.0
H1654 H 0.24011 0.82678 0.96446 0.0
H1655 H 0.22904 0.69707 0.99279 0.0
H1656 H 0.62149 0.15402 0.74913 0.0
H1657 H 0.60995 0.15804 0.79358 0.0
H1658 H 0.57047 0.1402 0.74249 0.0
H1659 H 0.5821 0.13686 0.69745 0.0
H1660 H 0.57394 0.16228 0.77447 0.0
H1661 H 0.57729 0.12054 0.79632 0.0
H1662 H 0.58955 0.10675 0.80309 0.0
H1663 H 0.61497 0.13485 0.87634 0.0
H1664 H 0.60297 0.14893 0.86971 0.0
H1665 H 0.52274 0.13763 0.89623 0.0
H1666 H 0.53783 0.14001 0.85172 0.0
H1667 H 0.57531 0.16305 0.90864 0.0
H1668 H 0.56026 0.16065 0.95331 0.0
H1669 H 0.57468 0.14067 0.87546 0.0
H1670 H 0.56871 0.18083 0.85599 0.0
H1671 H 0.55519 0.19337 0.84909 0.0
H1672 H 0.53323 0.16674 0.77105 0.0
H1673 H 0.54646 0.15389 0.77776 0.0
C1674 C 0.61042 0.15117 0.74714 0.0
C1675 C 0.60269 0.14497 0.71979 0.0
C1676 C 0.60379 0.15335 0.77271 0.0
C1677 C 0.58927 0.14919 0.77156 0.0
C1678 C 0.58166 0.14342 0.74398 0.0
C1679 C 0.58829 0.14136 0.71836 0.0
C1680 C 0.58182 0.15038 0.7993 0.0
C1681 C 0.57402 0.15747 0.79649 0.0
C1682 C 0.58215 0.14434 0.82821 0.0
C1683 C 0.58935 0.13588 0.83227 0.0
C1684 C 0.58557 0.12384 0.8137 0.0
C1685 C 0.59246 0.11596 0.81754 0.0
C1686 C 0.60306 0.11994 0.84006 0.0
C1687 C 0.60677 0.13179 0.85886 0.0
C1688 C 0.59993 0.13973 0.85508 0.0
C1689 C 0.5342 0.14326 0.89918 0.0
C1690 C 0.54035 0.14895 0.92818 0.0
C1691 C 0.5428 0.1447 0.87373 0.0
C1692 C 0.55767 0.15178 0.87691 0.0
C1693 C 0.56385 0.1576 0.90574 0.0
C1694 C 0.55526 0.15629 0.93114 0.0
C1695 C 0.56669 0.15242 0.85048 0.0
C1696 C 0.57475 0.14564 0.85354 0.0
C1697 C 0.56645 0.15857 0.82172 0.0
C1698 C 0.5585 0.16632 0.81755 0.0
C1699 C 0.56091 0.17757 0.83751 0.0
C1700 C 0.55332 0.18475 0.8336 0.0
C1701 C 0.54334 0.18084 0.80969 0.0
C1702 C 0.54096 0.16975 0.78958 0.0
C1703 C 0.54851 0.16253 0.79341 0.0
H1704 H 0.53747 0.18641 0.8067 0.0
H1705 H 0.60838 0.11383 0.84301 0.0
H1706 H 0.47785 0.61124 0.91134 0.0
H1707 H 0.46408 0.59678 0.95551 0.0
H1708 H 0.4261 0.57736 0.89924 0.0
H1709 H 0.43984 0.5914 0.85458 0.0
H1710 H 0.42224 0.58572 0.95943 0.0
H1711 H 0.44184 0.55926 0.91099 0.0
H1712 H 0.46119 0.55612 0.88955 0.0
H1713 H 0.48199 0.56624 0.97832 0.0
H1714 H 0.46287 0.56965 0.00018 0.0
H1715 H 0.37899 0.52807 0.05934 0.0
H1716 H 0.39197 0.54267 0.01451 0.0
H1717 H 0.43173 0.55722 0.06307 0.0
H1718 H 0.4188 0.54237 0.10757 0.0
H1719 H 0.43452 0.55137 0.00588 0.0
H1720 H 0.41578 0.57817 0.05497 0.0
H1721 H 0.39721 0.58229 0.07736 0.0
H1722 H 0.37571 0.57277 0.98943 0.0
H1723 H 0.39405 0.5684 0.96661 0.0
C1724 C 0.46659 0.60382 0.90823 0.0
C1725 C 0.45998 0.60242 0.8793 0.0
C1726 C 0.45874 0.59564 0.93356 0.0
C1727 C 0.44412 0.58596 0.9305 0.0
C1728 C 0.43738 0.58482 0.90202 0.0
C1729 C 0.44525 0.5929 0.87658 0.0
C1730 C 0.43597 0.57673 0.95682 0.0
C1731 C 0.42477 0.57807 0.96941 0.0
C1732 C 0.43956 0.56703 0.97016 0.0
C1733 C 0.45099 0.56484 0.95714 0.0
C1734 C 0.4506 0.56092 0.92587 0.0
C1735 C 0.46151 0.55908 0.91365 0.0
C1736 C 0.47283 0.56101 0.93254 0.0
C1737 C 0.47323 0.56476 0.96371 0.0
C1738 C 0.46235 0.56664 0.97603 0.0
C1739 C 0.39049 0.53442 0.0604 0.0
C1740 C 0.3979 0.53412 0.08688 0.0
C1741 C 0.3979 0.54279 0.03486 0.0
C1742 C 0.41282 0.55122 0.03559 0.0
C1743 C 0.42023 0.5508 0.06195 0.0
C1744 C 0.41284 0.54231 0.08733 0.0
C1745 C 0.42076 0.56036 0.00882 0.0
C1746 C 0.43194 0.559 0.99604 0.0
C1747 C 0.41724 0.57016 0.99553 0.0
C1748 C 0.40621 0.57282 0.00917 0.0
C1749 C 0.40703 0.57685 0.04047 0.0
C1750 C 0.39656 0.57925 0.05323 0.0
C1751 C 0.38526 0.57775 0.03486 0.0
C1752 C 0.38445 0.5739 0.00365 0.0
C1753 C 0.39489 0.57147 0.99078 0.0
H1754 H 0.37717 0.57961 0.04478 0.0
H1755 H 0.48127 0.55958 0.92304 0.0
H1756 H 0.87585 0.46209 0.03324 0.0
H1757 H 0.87495 0.44762 0.07747 0.0
H1758 H 0.83176 0.43736 0.0964 0.0
H1759 H 0.83275 0.45227 0.05269 0.0
H1760 H 0.8472 0.44396 0.14885 0.0
H1761 H 0.83835 0.41306 0.06261 0.0
H1762 H 0.84261 0.40597 0.01113 0.0
H1763 H 0.88291 0.41207 0.0423 0.0
H1764 H 0.879 0.4194 0.09387 0.0
H1765 H 0.83499 0.38863 0.25582 0.0
H1766 H 0.83303 0.40103 0.21016 0.0
H1767 H 0.87717 0.41621 0.1883 0.0
H1768 H 0.87916 0.40376 0.2337 0.0
H1769 H 0.85936 0.40578 0.13681 0.0
H1770 H 0.86847 0.43798 0.22221 0.0
H1771 H 0.86394 0.44491 0.27362 0.0
H1772 H 0.82245 0.43582 0.24361 0.0
H1773 H 0.82666 0.42864 0.19212 0.0
C1774 C 0.8662 0.45688 0.04698 0.0
C1775 C 0.85438 0.45835 0.03948 0.0
C1776 C 0.86565 0.44848 0.07205 0.0
C1777 C 0.85322 0.44126 0.08997 0.0
C1778 C 0.84143 0.44279 0.08276 0.0
C1779 C 0.84198 0.45122 0.05766 0.0
C1780 C 0.85268 0.43231 0.1165 0.0
C1781 C 0.84961 0.43544 0.14614 0.0
C1782 C 0.85605 0.42135 0.113 0.0
C1783 C 0.85843 0.4169 0.08204 0.0
C1784 C 0.84818 0.413 0.05843 0.0
C1785 C 0.85052 0.40891 0.02924 0.0
C1786 C 0.86304 0.4086 0.02343 0.0
C1787 C 0.87323 0.41233 0.04683 0.0
C1788 C 0.87095 0.41644 0.07605 0.0
C1789 C 0.84423 0.39452 0.2411 0.0
C1790 C 0.85725 0.39529 0.24833 0.0
C1791 C 0.84312 0.40165 0.21519 0.0
C1792 C 0.85499 0.4096 0.19604 0.0
C1793 C 0.8679 0.41014 0.20285 0.0
C1794 C 0.86905 0.40312 0.22887 0.0
C1795 C 0.85405 0.41755 0.1691 0.0
C1796 C 0.85683 0.41422 0.13942 0.0
C1797 C 0.85035 0.42827 0.17253 0.0
C1798 C 0.84782 0.43262 0.20344 0.0
C1799 C 0.85833 0.43734 0.22666 0.0
C1800 C 0.85583 0.44133 0.25579 0.0
C1801 C 0.8429 0.44076 0.26191 0.0
C1802 C 0.83245 0.43623 0.23886 0.0
C1803 C 0.83489 0.43221 0.20969 0.0
H1804 H 0.84098 0.44387 0.28447 0.0
H1805 H 0.86483 0.40543 0.00081 0.0
H1806 H 0.45408 0.82955 0.39812 0.0
H1807 H 0.43854 0.82803 0.3552 0.0
H1808 H 0.44186 0.86761 0.38441 0.0
H1809 H 0.45689 0.86893 0.42784 0.0
H1810 H 0.41505 0.84869 0.36983 0.0
H1811 H 0.46134 0.86617 0.32342 0.0
H1812 H 0.48315 0.86556 0.31011 0.0
H1813 H 0.45816 0.82599 0.26198 0.0
H1814 H 0.43617 0.82627 0.27538 0.0
H1815 H 0.39854 0.87444 0.23438 0.0
H1816 H 0.41026 0.87062 0.27891 0.0
H1817 H 0.39965 0.82937 0.24296 0.0
H1818 H 0.38792 0.83315 0.19822 0.0
H1819 H 0.42825 0.84604 0.26075 0.0
H1820 H 0.38202 0.83025 0.30319 0.0
H1821 H 0.36063 0.83174 0.31583 0.0
H1822 H 0.38593 0.86903 0.37096 0.0
H1823 H 0.40753 0.8679 0.35827 0.0
C1824 C 0.45139 0.83786 0.39552 0.0
C1825 C 0.45682 0.84943 0.41622 0.0
C1826 C 0.44261 0.83703 0.37087 0.0
C1827 C 0.43917 0.84779 0.36644 0.0
C1828 C 0.4444 0.85921 0.38735 0.0
C1829 C 0.45313 0.86003 0.41196 0.0
C1830 C 0.43025 0.84733 0.33989 0.0
C1831 C 0.41799 0.84821 0.34597 0.0
C1832 C 0.4339 0.84634 0.3088 0.0
C1833 C 0.4471 0.84615 0.30073 0.0
C1834 C 0.46049 0.85728 0.31023 0.0
C1835 C 0.47288 0.857 0.30263 0.0
C1836 C 0.47204 0.84572 0.2853 0.0
C1837 C 0.4588 0.83471 0.27546 0.0
C1838 C 0.44636 0.83492 0.28304 0.0
C1839 C 0.3987 0.86455 0.23602 0.0
C1840 C 0.39233 0.85408 0.21291 0.0
C1841 C 0.4053 0.86235 0.26152 0.0
C1842 C 0.40572 0.84967 0.26426 0.0
C1843 C 0.39937 0.83919 0.24125 0.0
C1844 C 0.39262 0.84133 0.21588 0.0
C1845 C 0.41323 0.84767 0.29073 0.0
C1846 C 0.42522 0.84633 0.28463 0.0
C1847 C 0.4094 0.84834 0.32179 0.0
C1848 C 0.39642 0.84905 0.32955 0.0
C1849 C 0.38305 0.83884 0.31779 0.0
C1850 C 0.37088 0.83961 0.32501 0.0
C1851 C 0.37192 0.85049 0.34413 0.0
C1852 C 0.38514 0.86061 0.35613 0.0
C1853 C 0.39735 0.8599 0.34896 0.0
H1854 H 0.36249 0.85106 0.3497 0.0
H1855 H 0.48165 0.84553 0.27942 0.0
H1856 H 0.58414 0.44891 0.60906 0.0
H1857 H 0.57149 0.43374 0.56487 0.0
H1858 H 0.61113 0.43961 0.5283 0.0
H1859 H 0.62396 0.45513 0.57231 0.0
H1860 H 0.59524 0.44335 0.48412 0.0
H1861 H 0.58776 0.40829 0.56003 0.0
H1862 H 0.58113 0.39651 0.61112 0.0
H1863 H 0.53843 0.3886 0.59947 0.0
H1864 H 0.54486 0.40053 0.54849 0.0
H1865 H 0.55881 0.39248 0.36509 0.0
H1866 H 0.57383 0.40418 0.41026 0.0
H1867 H 0.53763 0.40129 0.45864 0.0
H1868 H 0.52245 0.38919 0.41395 0.0
H1869 H 0.55357 0.39482 0.49638 0.0
H1870 H 0.56162 0.43194 0.42369 0.0
H1871 H 0.56809 0.44416 0.37305 0.0
H1872 H 0.60961 0.44846 0.37917 0.0
H1873 H 0.60331 0.43608 0.42969 0.0
C1874 C 0.59018 0.44701 0.59156 0.0
C1875 C 0.60505 0.45325 0.59405 0.0
C1876 C 0.58292 0.43823 0.5665 0.0
C1877 C 0.59036 0.43543 0.5435 0.0
C1878 C 0.6052 0.44159 0.54592 0.0
C1879 C 0.61249 0.45037 0.57111 0.0
C1880 C 0.5826 0.42654 0.51638 0.0
C1881 C 0.58632 0.43262 0.4867 0.0
C1882 C 0.57078 0.41266 0.51991 0.0
C1883 C 0.56683 0.4054 0.55051 0.0
C1884 C 0.57699 0.40413 0.56845 0.0
C1885 C 0.57325 0.39741 0.59738 0.0
C1886 C 0.55937 0.39183 0.60856 0.0
C1887 C 0.54918 0.39293 0.59079 0.0
C1888 C 0.55286 0.39966 0.56185 0.0
C1889 C 0.554 0.39415 0.38552 0.0
C1890 C 0.53945 0.38997 0.3859 0.0
C1891 C 0.56263 0.40094 0.41119 0.0
C1892 C 0.55687 0.40374 0.43764 0.0
C1893 C 0.54229 0.39925 0.43841 0.0
C1894 C 0.53366 0.39246 0.41277 0.0
C1895 C 0.56609 0.41173 0.46422 0.0
C1896 C 0.56263 0.40547 0.49377 0.0
C1897 C 0.57812 0.42546 0.46061 0.0
C1898 C 0.58193 0.43293 0.43028 0.0
C1899 C 0.57209 0.43538 0.41411 0.0
C1900 C 0.57573 0.44235 0.38546 0.0
C1901 C 0.58923 0.44704 0.37285 0.0
C1902 C 0.59914 0.4448 0.38893 0.0
C1903 C 0.59554 0.43781 0.41758 0.0
H1904 H 0.59204 0.45244 0.35067 0.0
H1905 H 0.55651 0.38663 0.63097 0.0
H1906 H 0.15484 0.53539 0.5741 0.0
H1907 H 0.15599 0.55042 0.6177 0.0
H1908 H 0.12364 0.55673 0.57465 0.0
H1909 H 0.12262 0.54195 0.53075 0.0
H1910 H 0.14609 0.58167 0.59694 0.0
H1911 H 0.11496 0.53385 0.63339 0.0
H1912 H 0.10834 0.50907 0.64527 0.0
H1913 H 0.14351 0.52384 0.70865 0.0
H1914 H 0.15045 0.54873 0.69681 0.0
H1915 H 0.12363 0.6072 0.72362 0.0
H1916 H 0.12551 0.59406 0.67959 0.0
H1917 H 0.15543 0.58665 0.73071 0.0
H1918 H 0.15316 0.59928 0.77532 0.0
H1919 H 0.13572 0.56282 0.70449 0.0
H1920 H 0.16639 0.61051 0.67054 0.0
H1921 H 0.17345 0.63542 0.65873 0.0
H1922 H 0.14007 0.62131 0.59089 0.0
H1923 H 0.13267 0.5963 0.6026 0.0
C1924 C 0.14803 0.54004 0.57388 0.0
C1925 C 0.13859 0.53745 0.54911 0.0
C1926 C 0.14864 0.54855 0.59885 0.0
C1927 C 0.13982 0.55459 0.59945 0.0
C1928 C 0.13051 0.55214 0.57462 0.0
C1929 C 0.12985 0.54359 0.54973 0.0
C1930 C 0.14024 0.56343 0.62604 0.0
C1931 C 0.14368 0.57753 0.62044 0.0
C1932 C 0.1375 0.55811 0.65674 0.0
C1933 C 0.13331 0.54315 0.66396 0.0
C1934 C 0.12135 0.53182 0.64966 0.0
C1935 C 0.11753 0.51775 0.65643 0.0
C1936 C 0.12552 0.51488 0.67763 0.0
C1937 C 0.13734 0.52608 0.69219 0.0
C1938 C 0.14121 0.54017 0.68548 0.0
C1939 C 0.13059 0.60276 0.72552 0.0
C1940 C 0.13824 0.60429 0.753 0.0
C1941 C 0.13178 0.59538 0.70021 0.0
C1942 C 0.14073 0.5895 0.70175 0.0
C1943 C 0.1485 0.59115 0.72899 0.0
C1944 C 0.14729 0.59849 0.75436 0.0
C1945 C 0.14147 0.58108 0.67544 0.0
C1946 C 0.13824 0.56704 0.68106 0.0
C1947 C 0.14448 0.58649 0.64479 0.0
C1948 C 0.14889 0.60152 0.63766 0.0
C1949 C 0.16048 0.61271 0.65328 0.0
C1950 C 0.16455 0.62685 0.64657 0.0
C1951 C 0.15719 0.62994 0.62413 0.0
C1952 C 0.14575 0.6189 0.60829 0.0
C1953 C 0.14162 0.60474 0.61494 0.0
H1954 H 0.16037 0.6409 0.61896 0.0
H1955 H 0.12255 0.50398 0.68285 0.0
H1956 H 0.41712 0.06317 0.09322 0.0
H1957 H 0.39837 0.03811 0.09232 0.0
H1958 H 0.42033 0.03014 0.01836 0.0
H1959 H 0.43897 0.05511 0.01899 0.0
H1960 H 0.39189 0.01469 0.01045 0.0
H1961 H 0.42581 0.02541 0.09485 0.0
H1962 H 0.43846 0.03801 0.1425 0.0
H1963 H 0.39851 0.02222 0.18991 0.0
H1964 H 0.38563 0.00968 0.14235 0.0
H1965 H 0.38824 0.94929 0.02646 0.0
H1966 H 0.39398 0.97396 0.02479 0.0
H1967 H 0.36208 0.9654 0.09438 0.0
H1968 H 0.35581 0.94032 0.09547 0.0
H1969 H 0.38885 0.98879 0.1077 0.0
H1970 H 0.35579 0.9729 0.02477 0.0
H1971 H 0.34414 0.95989 0.9768 0.0
H1972 H 0.38298 0.98485 0.92607 0.0
H1973 H 0.39494 0.99788 0.97383 0.0
C1974 C 0.41783 0.05608 0.07653 0.0
C1975 C 0.42957 0.06103 0.05641 0.0
C1976 C 0.4071 0.0418 0.07598 0.0
C1977 C 0.40808 0.03224 0.05559 0.0
C1978 C 0.41935 0.03735 0.03424 0.0
C1979 C 0.43001 0.05163 0.03462 0.0
C1980 C 0.39831 0.01671 0.05833 0.0
C1981 C 0.39116 0.009 0.0317 0.0
C1982 C 0.39702 0.00934 0.08637 0.0
C1983 C 0.40476 0.01677 0.11499 0.0
C1984 C 0.41973 0.02471 0.11539 0.0
C1985 C 0.42694 0.03183 0.14237 0.0
C1986 C 0.41929 0.03095 0.16919 0.0
C1987 C 0.40442 0.02292 0.1691 0.0
C1988 C 0.39716 0.01581 0.14214 0.0
C1989 C 0.38214 0.95248 0.04088 0.0
C1990 C 0.37146 0.94274 0.06091 0.0
C1991 C 0.38548 0.96663 0.03994 0.0
C1992 C 0.3783 0.97143 0.05911 0.0
C1993 C 0.36765 0.96183 0.07924 0.0
C1994 C 0.36418 0.94756 0.07998 0.0
C1995 C 0.38291 0.98675 0.05947 0.0
C1996 C 0.38914 0.99445 0.08669 0.0
C1997 C 0.38344 0.99408 0.0319 0.0
C1998 C 0.37628 0.98634 0.00298 0.0
C1999 C 0.36188 0.97556 0.00344 0.0
C2000 C 0.35522 0.96819 0.97627 0.0
C2001 C 0.36282 0.97153 0.94841 0.0
C2002 C 0.3771 0.98228 0.94767 0.0
C2003 C 0.38382 0.98968 0.97478 0.0
H2004 H 0.35764 0.96581 0.9274 0.0
H2005 H 0.42489 0.03647 0.19006 0.0
H2006 H 0.43817 0.38274 0.29059 0.0
H2007 H 0.41941 0.38887 0.29095 0.0
H2008 H 0.39955 0.36147 0.21206 0.0
H2009 H 0.41827 0.35512 0.21178 0.0
H2010 H 0.40393 0.38763 0.202 0.0
H2011 H 0.38235 0.35326 0.28129 0.0
H2012 H 0.38085 0.34032 0.32944 0.0
H2013 H 0.39364 0.37827 0.38271 0.0
H2014 H 0.39543 0.39151 0.33484 0.0
H2015 H 0.35757 0.41643 0.20768 0.0
H2016 H 0.36412 0.39783 0.20932 0.0
H2017 H 0.39199 0.41892 0.28689 0.0
H2018 H 0.38564 0.43749 0.28527 0.0
H2019 H 0.37766 0.39003 0.29396 0.0
H2020 H 0.4047 0.42488 0.21339 0.0
H2021 H 0.40694 0.43822 0.16536 0.0
H2022 H 0.38407 0.399 0.11482 0.0
H2023 H 0.38154 0.38542 0.1627 0.0
C2024 C 0.42961 0.3777 0.27384 0.0
C2025 C 0.42975 0.3685 0.25105 0.0
C2026 C 0.41887 0.3812 0.27409 0.0
C2027 C 0.40801 0.37553 0.25168 0.0
C2028 C 0.40782 0.36595 0.22957 0.0
C2029 C 0.41857 0.36241 0.22934 0.0
C2030 C 0.39794 0.38096 0.24941 0.0
C2031 C 0.39784 0.38779 0.22184 0.0
C2032 C 0.39016 0.38131 0.27542 0.0
C2033 C 0.38908 0.3734 0.30438 0.0
C2034 C 0.38494 0.35888 0.30323 0.0
C2035 C 0.38402 0.35148 0.3305 0.0
C2036 C 0.38716 0.35847 0.35911 0.0
C2037 C 0.39121 0.37287 0.36052 0.0
C2038 C 0.39215 0.38032 0.33333 0.0
C2039 C 0.36505 0.41704 0.22515 0.0
C2040 C 0.37115 0.42847 0.24623 0.0
C2041 C 0.3687 0.40638 0.22617 0.0
C2042 C 0.37859 0.40707 0.24812 0.0
C2043 C 0.38425 0.41814 0.26992 0.0
C2044 C 0.3806 0.42876 0.26896 0.0
C2045 C 0.38413 0.39708 0.24699 0.0
C2046 C 0.38339 0.38945 0.27389 0.0
C2047 C 0.39118 0.39599 0.22041 0.0
C2048 C 0.39277 0.40414 0.19165 0.0
C2049 C 0.40006 0.41911 0.19207 0.0
C2050 C 0.4014 0.42671 0.16488 0.0
C2051 C 0.39561 0.41946 0.13708 0.0
C2052 C 0.38851 0.4046 0.13639 0.0
C2053 C 0.38712 0.39694 0.16354 0.0
H2054 H 0.39666 0.42537 0.11604 0.0
H2055 H 0.38645 0.35272 0.38019 0.0
H2056 H 0.0603 0.41896 0.4374 0.0
H2057 H 0.03444 0.40259 0.43576 0.0
H2058 H 0.03134 0.4245 0.35521 0.0
H2059 H 0.05691 0.44095 0.35703 0.0
H2060 H 0.01284 0.42172 0.40169 0.0
H2061 H 0.02792 0.3923 0.34786 0.0
H2062 H 0.04109 0.37933 0.3426 0.0
H2063 H 0.01926 0.35381 0.42206 0.0
H2064 H 0.00609 0.36677 0.42805 0.0
H2065 H 0.94472 0.38197 0.34585 0.0
H2066 H 0.97035 0.39185 0.34816 0.0
H2067 H 0.96548 0.36543 0.42724 0.0
H2068 H 0.93956 0.35487 0.42423 0.0
H2069 H 0.98779 0.36929 0.38782 0.0
H2070 H 0.97203 0.3976 0.44089 0.0
H2071 H 0.95858 0.41025 0.44692 0.0
H2072 H 0.9819 0.43798 0.37137 0.0
H2073 H 0.99533 0.42533 0.36452 0.0
C2074 C 0.05408 0.4202 0.41927 0.0
C2075 C 0.06063 0.43121 0.39729 0.0
C2076 C 0.03936 0.4108 0.41824 0.0
C2077 C 0.03104 0.41234 0.3953 0.0
C2078 C 0.03761 0.42313 0.37305 0.0
C2079 C 0.05224 0.43245 0.37398 0.0
C2080 C 0.01534 0.4034 0.39535 0.0
C2081 C 0.00737 0.41027 0.39839 0.0
C2082 C 0.00825 0.38842 0.39224 0.0
C2083 C 0.01615 0.38062 0.38862 0.0
C2084 C 0.02603 0.38402 0.36439 0.0
C2085 C 0.03347 0.37664 0.36124 0.0
C2086 C 0.03105 0.36578 0.38205 0.0
C2087 C 0.02115 0.36224 0.406 0.0
C2088 C 0.01369 0.36959 0.40927 0.0
C2089 C 0.94897 0.37785 0.36312 0.0
C2090 C 0.94004 0.36771 0.38508 0.0
C2091 C 0.96368 0.38363 0.36457 0.0
C2092 C 0.96979 0.37958 0.38826 0.0
C2093 C 0.96094 0.36876 0.40893 0.0
C2094 C 0.94616 0.36286 0.40736 0.0
C2095 C 0.98538 0.38772 0.39308 0.0
C2096 C 0.99329 0.38073 0.3913 0.0
C2097 C 0.99249 0.40263 0.39765 0.0
C2098 C 0.98461 0.41044 0.40204 0.0
C2099 C 0.97423 0.40634 0.42543 0.0
C2100 C 0.96661 0.41351 0.42901 0.0
C2101 C 0.96937 0.42489 0.4095 0.0
C2102 C 0.97978 0.42915 0.38644 0.0
C2103 C 0.9874 0.42199 0.38272 0.0
H2104 H 0.96345 0.43043 0.4123 0.0
H2105 H 0.03682 0.36008 0.37956 0.0
H2106 H 0.54842 0.94433 0.5627 0.0
H2107 H 0.56617 0.96956 0.56118 0.0
H2108 H 0.59904 0.9593 0.54164 0.0
H2109 H 0.58115 0.93376 0.54332 0.0
H2110 H 0.606 0.98031 0.5895 0.0
H2111 H 0.59078 0.97252 0.48477 0.0
H2112 H 0.57364 0.963 0.44148 0.0
H2113 H 0.55433 0.98707 0.47227 0.0
H2114 H 0.5712 0.99658 0.51605 0.0
H2115 H 0.64561 0.05806 0.57471 0.0
H2116 H 0.63711 0.03281 0.56383 0.0
H2117 H 0.59374 0.02338 0.57582 0.0
H2118 H 0.60204 0.04837 0.5861 0.0
H2119 H 0.59813 0.01254 0.52114 0.0
H2120 H 0.60989 0.01546 0.63162 0.0
H2121 H 0.62647 0.02449 0.67601 0.0
H2122 H 0.65236 0.00944 0.63373 0.0
H2123 H 0.63601 0.00049 0.58887 0.0
C2124 C 0.55943 0.94742 0.55819 0.0
C2125 C 0.56345 0.93712 0.55327 0.0
C2126 C 0.56953 0.96182 0.5571 0.0
C2127 C 0.58386 0.96625 0.55102 0.0
C2128 C 0.588 0.95604 0.54622 0.0
C2129 C 0.57781 0.94153 0.54704 0.0
C2130 C 0.5943 0.98164 0.55046 0.0
C2131 C 0.60461 0.9874 0.574 0.0
C2132 C 0.59239 0.99082 0.53026 0.0
C2133 C 0.58226 0.98524 0.50378 0.0
C2134 C 0.58283 0.97573 0.48243 0.0
C2135 C 0.57316 0.97033 0.45778 0.0
C2136 C 0.5629 0.97442 0.45413 0.0
C2137 C 0.5623 0.98393 0.47511 0.0
C2138 C 0.57193 0.98934 0.49982 0.0
C2139 C 0.63428 0.05055 0.57517 0.0
C2140 C 0.62449 0.05517 0.58145 0.0
C2141 C 0.62946 0.03617 0.56904 0.0
C2142 C 0.61481 0.02629 0.56894 0.0
C2143 C 0.60509 0.03087 0.57569 0.0
C2144 C 0.60987 0.04513 0.58194 0.0
C2145 C 0.60925 0.01116 0.5612 0.0
C2146 C 0.59989 0.00548 0.53597 0.0
C2147 C 0.61206 0.0021 0.5798 0.0
C2148 C 0.62186 0.0075 0.60672 0.0
C2149 C 0.6192 0.01421 0.63165 0.0
C2150 C 0.62853 0.01928 0.65693 0.0
C2151 C 0.64049 0.01759 0.65764 0.0
C2152 C 0.64311 0.01078 0.63311 0.0
C2153 C 0.63382 0.0057 0.60777 0.0
H2154 H 0.6477 0.02152 0.67723 0.0
H2155 H 0.55543 0.97023 0.43504 0.0
H2156 H 0.63777 0.57625 0.71232 0.0
H2157 H 0.63016 0.59399 0.70807 0.0
H2158 H 0.58676 0.56137 0.72624 0.0
H2159 H 0.59413 0.54358 0.72911 0.0
H2160 H 0.58747 0.57777 0.68082 0.0
H2161 H 0.60839 0.58459 0.78307 0.0
H2162 H 0.62766 0.58968 0.82028 0.0
H2163 H 0.65396 0.63044 0.77772 0.0
H2164 H 0.63489 0.62549 0.73998 0.0
H2165 H 0.56472 0.62206 0.77299 0.0
H2166 H 0.58084 0.61251 0.76898 0.0
H2167 H 0.58581 0.62185 0.67088 0.0
H2168 H 0.56932 0.63106 0.67469 0.0
H2169 H 0.60714 0.61963 0.75101 0.0
H2170 H 0.58376 0.59357 0.6333 0.0
H2171 H 0.56246 0.5868 0.6011 0.0
H2172 H 0.53776 0.5814 0.68316 0.0
H2173 H 0.55885 0.58793 0.7158 0.0
C2174 C 0.62658 0.57285 0.71502 0.0
C2175 C 0.61656 0.55853 0.72125 0.0
C2176 C 0.62228 0.58301 0.71286 0.0
C2177 C 0.60792 0.57901 0.7171 0.0
C2178 C 0.5979 0.5647 0.72288 0.0
C2179 C 0.60216 0.55456 0.72488 0.0
C2180 C 0.60313 0.58961 0.71597 0.0
C2181 C 0.59189 0.58701 0.69592 0.0
C2182 C 0.60884 0.60162 0.73581 0.0
C2183 C 0.62029 0.6046 0.75848 0.0
C2184 C 0.61833 0.59458 0.78149 0.0
C2185 C 0.6292 0.59745 0.80271 0.0
C2186 C 0.64204 0.61035 0.8013 0.0
C2187 C 0.64402 0.62043 0.77874 0.0
C2188 C 0.63318 0.61761 0.75744 0.0
C2189 C 0.56954 0.6224 0.75075 0.0
C2190 C 0.56564 0.62706 0.72405 0.0
C2191 C 0.57878 0.61699 0.74848 0.0
C2192 C 0.58431 0.61624 0.71953 0.0
C2193 C 0.58144 0.6221 0.69333 0.0
C2194 C 0.57203 0.62732 0.6955 0.0
C2195 C 0.59133 0.60761 0.71627 0.0
C2196 C 0.60298 0.61059 0.73538 0.0
C2197 C 0.58575 0.59568 0.69623 0.0
C2198 C 0.57291 0.5914 0.6769 0.0
C2199 C 0.57376 0.59088 0.64443 0.0
C2200 C 0.56173 0.58709 0.62612 0.0
C2201 C 0.54878 0.58372 0.64007 0.0
C2202 C 0.5478 0.58405 0.67237 0.0
C2203 C 0.55979 0.58779 0.69078 0.0
H2204 H 0.53949 0.58083 0.62585 0.0
H2205 H 0.65045 0.61256 0.81775 0.0
H2206 H 0.04935 0.62498 0.8601 0.0
H2207 H 0.02443 0.61832 0.86704 0.0
H2208 H 0.03189 0.62799 0.96475 0.0
H2209 H 0.05677 0.63428 0.95811 0.0
H2210 H 0.01031 0.60192 0.95561 0.0
H2211 H 0.02289 0.64769 0.91782 0.0
H2212 H 0.03415 0.66855 0.8832 0.0
H2213 H 0.00856 0.643 0.8071 0.0
H2214 H 0.99729 0.62192 0.84112 0.0
H2215 H 0.9355 0.57278 0.96422 0.0
H2216 H 0.96058 0.59137 0.96845 0.0
H2217 H 0.96625 0.5874 0.87055 0.0
H2218 H 0.94134 0.5689 0.86617 0.0
H2219 H 0.98125 0.615 0.88909 0.0
H2220 H 0.97363 0.56894 0.92377 0.0
H2221 H 0.96273 0.54758 0.95706 0.0
H2222 H 0.97963 0.57383 0.03813 0.0
H2223 H 0.99047 0.59536 0.00528 0.0
C2224 C 0.04571 0.62585 0.88299 0.0
C2225 C 0.05496 0.63003 0.9086 0.0
C2226 C 0.03151 0.62221 0.88687 0.0
C2227 C 0.02633 0.62277 0.91639 0.0
C2228 C 0.0357 0.62757 0.94176 0.0
C2229 C 0.04992 0.63122 0.93788 0.0
C2230 C 0.01082 0.61659 0.92119 0.0
C2231 C 0.00399 0.60506 0.94172 0.0
C2232 C 0.00257 0.62053 0.90267 0.0
C2233 C 0.00928 0.63319 0.88205 0.0
C2234 C 0.01973 0.64649 0.89365 0.0
C2235 C 0.0261 0.65836 0.87413 0.0
C2236 C 0.02209 0.6571 0.84296 0.0
C2237 C 0.01166 0.64396 0.83126 0.0
C2238 C 0.00525 0.63205 0.85067 0.0
C2239 C 0.94209 0.57597 0.94359 0.0
C2240 C 0.9365 0.56931 0.91491 0.0
C2241 C 0.95637 0.58663 0.946 0.0
C2242 C 0.96528 0.59065 0.91985 0.0
C2243 C 0.95953 0.58451 0.89097 0.0
C2244 C 0.94529 0.57392 0.88851 0.0
C2245 C 0.98086 0.60014 0.92276 0.0
C2246 C 0.98766 0.6122 0.90365 0.0
C2247 C 0.98913 0.59668 0.94244 0.0
C2248 C 0.98269 0.58375 0.96214 0.0
C2249 C 0.97492 0.57015 0.94871 0.0
C2250 C 0.96877 0.55802 0.96749 0.0
C2251 C 0.97044 0.55935 -0.0003 0.0
C2252 C 0.97831 0.57282 0.01319 0.0
C2253 C 0.98446 0.58499 0.99451 0.0
H2254 H 0.96567 0.54995 0.0142 0.0
H2255 H 0.02704 0.6663 0.82789 0.0
loop_
_geom_bond_atom_site_label_1
_geom_bond_atom_site_label_2
_geom_bond_distance
_geom_bond_site_symmetry_2
_ccdc_geom_bond_type
Li0 N17 1.990 . S
Li0 O60 1.956 . S
Li0 O61 1.970 . S
Li0 O62 1.961 . S
Li1 N25 1.990 . S
Li1 O60 1.970 . S
Li1 O61 1.956 . S
Li1 O63 1.961 . S
Li2 N47 1.990 . S
Li2 O60 1.961 . S
Li2 O62 1.956 . S
Li2 O63 1.970 . S
Li3 N53 1.990 . S
Li3 O61 1.961 . S
Li3 O62 1.970 . S
Li3 O63 1.956 . S
C4 C6 1.348 . S
C4 C7 1.356 . S
C4 O60 1.325 . S
N5 C8 1.314 . S
N5 C9 1.279 . S
C6 C4 1.348 . S
C6 C8 1.353 . S
C6 H64 0.929 . S
C7 C4 1.356 . S
C7 C9 1.358 . S
C7 H65 0.930 . S
C8 N5 1.314 . S
C8 C6 1.353 . S
C8 H66 0.930 . S
C9 N5 1.279 . S
C9 C7 1.358 . S
C9 H67 0.930 . S
C10 C13 1.348 . S
C10 C14 1.356 . S
C10 O61 1.325 . S
C11 N12 1.279 . S
C11 C14 1.358 . S
C11 H68 0.930 . S
N12 C11 1.279 . S
N12 C15 1.314 . S
C13 C10 1.348 . S
C13 C15 1.353 . S
C13 H69 0.929 . S
C14 C10 1.356 . S
C14 C11 1.358 . S
C14 H70 0.930 . S
C15 N12 1.314 . S
C15 C13 1.353 . S
C15 H71 0.930 . S
C16 N17 1.314 . S
C16 C21 1.353 . S
C16 H22 0.930 . S
N17 Li0 1.990 . S
N17 C16 1.314 . S
N17 C19 1.279 . S
C18 C19 1.358 . S
C18 C20 1.356 . S
C18 H72 0.930 . S
C19 N17 1.279 . S
C19 C18 1.358 . S
C19 H23 0.930 . S
C20 C18 1.356 . S
C20 C21 1.348 . S
C21 C16 1.353 . S
C21 C20 1.348 . S
C21 H73 0.929 . S
H22 C16 0.930 . S
H23 C19 0.930 . S
C24 N25 1.314 . S
C24 C26 1.353 . S
C24 H30 0.930 . S
N25 Li1 1.990 . S
N25 C24 1.314 . S
N25 C28 1.279 . S
C26 C24 1.353 . S
C26 C29 1.348 . S
C26 H74 0.929 . S
C27 C28 1.358 . S
C27 C29 1.356 . S
C27 H75 0.930 . S
C28 N25 1.279 . S
C28 C27 1.358 . S
C28 H31 0.930 . S
C29 C26 1.348 . S
C29 C27 1.356 . S
H30 C24 0.930 . S
H31 C28 0.930 . S
C32 C34 1.348 1_554 S
C32 C35 1.356 . S
C32 O62 1.325 . S
N33 C36 1.314 . S
N33 C37 1.279 . S
C34 C32 1.348 1_556 S
C34 C36 1.353 . S
C34 H76 0.929 . S
C35 C32 1.356 . S
C35 C37 1.358 1_554 S
C35 H77 0.930 . S
C36 N33 1.314 . S
C36 C34 1.353 . S
C36 H78 0.930 . S
C37 N33 1.279 . S
C37 C35 1.358 1_556 S
C37 H79 0.930 1_556 S
C38 C39 1.348 . S
C38 C40 1.356 . S
C38 O63 1.325 . S
C39 C38 1.348 . S
C39 C41 1.353 . S
C39 H80 0.929 . S
C40 C38 1.356 . S
C40 C42 1.358 . S
C40 H81 0.930 . S
C41 C39 1.353 . S
C41 N43 1.314 . S
C41 H82 0.930 . S
C42 C40 1.358 . S
C42 N43 1.279 . S
C42 H83 0.930 . S
N43 C41 1.314 . S
N43 C42 1.279 . S
C44 C46 1.353 . S
C44 N47 1.314 . S
C44 H50 0.930 . S
C45 N47 1.279 . S
C45 C48 1.358 . S
C45 H51 0.930 . S
C46 C44 1.353 . S
C46 C49 1.348 . S
C46 H84 0.929 . S
N47 Li2 1.990 . S
N47 C44 1.314 . S
N47 C45 1.279 . S
C48 C45 1.358 . S
C48 C49 1.356 . S
C48 H85 0.930 . S
C49 C46 1.348 . S
C49 C48 1.356 . S
H50 C44 0.930 . S
H51 C45 0.930 . S
C52 N53 1.314 1_556 S
C52 C54 1.353 . S
C52 H58 0.930 . S
N53 Li3 1.990 . S
N53 C52 1.314 1_554 S
N53 C56 1.279 1_554 S
C54 C52 1.353 . S
C54 C57 1.348 . S
C54 H86 0.929 . S
C55 C56 1.358 . S
C55 C57 1.356 . S
C55 H87 0.930 . S
C56 N53 1.279 1_556 S
C56 C55 1.358 . S
C56 H59 0.930 1_556 S
C57 C54 1.348 . S
C57 C55 1.356 . S
H58 C52 0.930 . S
H59 C56 0.930 1_554 S
O60 Li0 1.956 . S
O60 Li1 1.970 . S
O60 Li2 1.961 . S
O60 C4 1.325 . S
O61 Li0 1.970 . S
O61 Li1 1.956 . S
O61 Li3 1.961 . S
O61 C10 1.325 . S
O62 Li0 1.961 . S
O62 Li2 1.956 . S
O62 Li3 1.970 . S
O62 C32 1.325 . S
O63 Li1 1.961 . S
O63 Li2 1.970 . S
O63 Li3 1.956 . S
O63 C38 1.325 . S
H64 C6 0.929 . S
H65 C7 0.930 . S
H66 C8 0.930 . S
H67 C9 0.930 . S
H68 C11 0.930 . S
H69 C13 0.929 . S
H70 C14 0.930 . S
H71 C15 0.930 . S
H72 C18 0.930 . S
H73 C21 0.929 . S
H74 C26 0.929 . S
H75 C27 0.930 . S
H76 C34 0.929 . S
H77 C35 0.930 . S
H78 C36 0.930 . S
H79 C37 0.930 1_554 S
H80 C39 0.929 . S
H81 C40 0.930 . S
H82 C41 0.930 . S
H83 C42 0.930 . S
H84 C46 0.929 . S
H85 C48 0.930 . S
H86 C54 0.929 . S
H87 C55 0.930 . S
Li88 N105 1.990 . S
Li88 O148 1.956 . S
Li88 O149 1.970 . S
Li88 O150 1.961 . S
Li89 N113 1.990 . S
Li89 O148 1.970 . S
Li89 O149 1.956 . S
Li89 O151 1.961 . S
Li90 N135 1.990 . S
Li90 O148 1.961 . S
Li90 O150 1.956 . S
Li90 O151 1.970 . S
Li91 N141 1.990 . S
Li91 O149 1.961 . S
Li91 O150 1.970 . S
Li91 O151 1.956 . S
C92 C94 1.348 . S
C92 C95 1.356 . S
C92 O148 1.325 . S
N93 C96 1.314 . S
N93 C97 1.279 . S
C94 C92 1.348 . S
C94 C96 1.353 . S
C94 H152 0.929 . S
C95 C92 1.356 . S
C95 C97 1.358 . S
C95 H153 0.930 . S
C96 N93 1.314 . S
C96 C94 1.353 . S
C96 H154 0.930 . S
C97 N93 1.279 . S
C97 C95 1.358 . S
C97 H155 0.930 . S
C98 C101 1.348 . S
C98 C102 1.356 . S
C98 O149 1.325 . S
C99 N100 1.279 . S
C99 C102 1.358 . S
C99 H156 0.930 . S
N100 C99 1.279 . S
N100 C103 1.314 . S
C101 C98 1.348 . S
C101 C103 1.353 . S
C101 H157 0.929 . S
C102 C98 1.356 . S
C102 C99 1.358 . S
C102 H158 0.930 . S
C103 N100 1.314 . S
C103 C101 1.353 . S
C103 H159 0.930 . S
C104 N105 1.314 . S
C104 C109 1.353 . S
C104 H110 0.930 . S
N105 Li88 1.990 . S
N105 C104 1.314 . S
N105 C107 1.279 . S
C106 C107 1.358 . S
C106 C108 1.356 . S
C106 H160 0.930 . S
C107 N105 1.279 . S
C107 C106 1.358 . S
C107 H111 0.930 . S
C108 C106 1.356 . S
C108 C109 1.348 . S
C109 C104 1.353 . S
C109 C108 1.348 . S
C109 H161 0.929 . S
H110 C104 0.930 . S
H111 C107 0.930 . S
C112 N113 1.314 . S
C112 C114 1.353 . S
C112 H118 0.930 . S
N113 Li89 1.990 . S
N113 C112 1.314 . S
N113 C116 1.279 . S
C114 C112 1.353 . S
C114 C117 1.348 . S
C114 H162 0.929 . S
C115 C116 1.358 . S
C115 C117 1.356 . S
C115 H163 0.930 . S
C116 N113 1.279 . S
C116 C115 1.358 . S
C116 H119 0.930 . S
C117 C114 1.348 . S
C117 C115 1.356 . S
H118 C112 0.930 . S
H119 C116 0.930 . S
C120 C122 1.348 . S
C120 C123 1.356 . S
C120 O150 1.325 . S
N121 C124 1.314 . S
N121 C125 1.279 . S
C122 C120 1.348 . S
C122 C124 1.353 . S
C122 H164 0.929 . S
C123 C120 1.356 . S
C123 C125 1.358 . S
C123 H165 0.930 . S
C124 N121 1.314 . S
C124 C122 1.353 . S
C124 H166 0.930 . S
C125 N121 1.279 . S
C125 C123 1.358 . S
C125 H167 0.930 . S
C126 C127 1.348 . S
C126 C128 1.356 . S
C126 O151 1.325 . S
C127 C126 1.348 . S
C127 C129 1.353 . S
C127 H168 0.929 . S
C128 C126 1.356 . S
C128 C130 1.358 . S
C128 H169 0.930 . S
C129 C127 1.353 . S
C129 N131 1.314 . S
C129 H170 0.930 . S
C130 C128 1.358 . S
C130 N131 1.279 . S
C130 H171 0.930 . S
N131 C129 1.314 . S
N131 C130 1.279 . S
C132 C134 1.353 . S
C132 N135 1.314 . S
C132 H138 0.930 . S
C133 N135 1.279 . S
C133 C136 1.358 . S
C133 H139 0.930 . S
C134 C132 1.353 . S
C134 C137 1.348 . S
C134 H172 0.929 . S
N135 Li90 1.990 . S
N135 C132 1.314 . S
N135 C133 1.279 . S
C136 C133 1.358 . S
C136 C137 1.356 . S
C136 H173 0.930 . S
C137 C134 1.348 . S
C137 C136 1.356 . S
H138 C132 0.930 . S
H139 C133 0.930 . S
C140 N141 1.314 . S
C140 C142 1.353 . S
C140 H146 0.930 . S
N141 Li91 1.990 . S
N141 C140 1.314 . S
N141 C144 1.279 . S
C142 C140 1.353 . S
C142 C145 1.348 . S
C142 H174 0.929 . S
C143 C144 1.358 . S
C143 C145 1.356 . S
C143 H175 0.930 . S
C144 N141 1.279 . S
C144 C143 1.358 . S
C144 H147 0.930 . S
C145 C142 1.348 . S
C145 C143 1.356 . S
H146 C140 0.930 . S
H147 C144 0.930 . S
O148 Li88 1.956 . S
O148 Li89 1.970 . S
O148 Li90 1.961 . S
O148 C92 1.325 . S
O149 Li88 1.970 . S
O149 Li89 1.956 . S
O149 Li91 1.961 . S
O149 C98 1.325 . S
O150 Li88 1.961 . S
O150 Li90 1.956 . S
O150 Li91 1.970 . S
O150 C120 1.325 . S
O151 Li89 1.961 . S
O151 Li90 1.970 . S
O151 Li91 1.956 . S
O151 C126 1.325 . S
H152 C94 0.929 . S
H153 C95 0.930 . S
H154 C96 0.930 . S
H155 C97 0.930 . S
H156 C99 0.930 . S
H157 C101 0.929 . S
H158 C102 0.930 . S
H159 C103 0.930 . S
H160 C106 0.930 . S
H161 C109 0.929 . S
H162 C114 0.929 . S
H163 C115 0.930 . S
H164 C122 0.929 . S
H165 C123 0.930 . S
H166 C124 0.930 . S
H167 C125 0.930 . S
H168 C127 0.929 . S
H169 C128 0.930 . S
H170 C129 0.930 . S
H171 C130 0.930 . S
H172 C134 0.929 . S
H173 C136 0.930 . S
H174 C142 0.929 . S
H175 C143 0.930 . S
Li176 N193 1.990 . S
Li176 O236 1.956 . S
Li176 O237 1.970 . S
Li176 O238 1.961 . S
Li177 N201 1.990 . S
Li177 O236 1.970 . S
Li177 O237 1.956 . S
Li177 O239 1.961 . S
Li178 N223 1.990 . S
Li178 O236 1.961 . S
Li178 O238 1.956 . S
Li178 O239 1.970 . S
Li179 N229 1.990 . S
Li179 O237 1.961 . S
Li179 O238 1.970 . S
Li179 O239 1.956 . S
C180 C182 1.348 . S
C180 C183 1.356 . S
C180 O236 1.325 . S
N181 C184 1.314 . S
N181 C185 1.279 . S
C182 C180 1.348 . S
C182 C184 1.353 . S
C182 H240 0.929 . S
C183 C180 1.356 . S
C183 C185 1.358 . S
C183 H241 0.930 . S
C184 N181 1.314 . S
C184 C182 1.353 . S
C184 H242 0.930 . S
C185 N181 1.279 . S
C185 C183 1.358 . S
C185 H243 0.930 . S
C186 C189 1.348 . S
C186 C190 1.356 . S
C186 O237 1.325 . S
C187 N188 1.279 . S
C187 C190 1.358 . S
C187 H244 0.930 . S
N188 C187 1.279 . S
N188 C191 1.314 . S
C189 C186 1.348 . S
C189 C191 1.353 . S
C189 H245 0.929 . S
C190 C186 1.356 . S
C190 C187 1.358 . S
C190 H246 0.930 . S
C191 N188 1.314 . S
C191 C189 1.353 . S
C191 H247 0.930 . S
C192 N193 1.314 . S
C192 C197 1.353 . S
C192 H198 0.930 . S
N193 Li176 1.990 . S
N193 C192 1.314 . S
N193 C195 1.279 . S
C194 C195 1.358 . S
C194 C196 1.356 . S
C194 H248 0.930 . S
C195 N193 1.279 . S
C195 C194 1.358 . S
C195 H199 0.930 . S
C196 C194 1.356 . S
C196 C197 1.348 . S
C197 C192 1.353 . S
C197 C196 1.348 . S
C197 H249 0.929 . S
H198 C192 0.930 . S
H199 C195 0.930 . S
C200 N201 1.314 . S
C200 C202 1.353 . S
C200 H206 0.930 . S
N201 Li177 1.990 . S
N201 C200 1.314 . S
N201 C204 1.279 . S
C202 C200 1.353 . S
C202 C205 1.348 . S
C202 H250 0.929 . S
C203 C204 1.358 . S
C203 C205 1.356 . S
C203 H251 0.930 . S
C204 N201 1.279 . S
C204 C203 1.358 . S
C204 H207 0.930 . S
C205 C202 1.348 . S
C205 C203 1.356 . S
H206 C200 0.930 . S
H207 C204 0.930 . S
C208 C210 1.348 . S
C208 C211 1.356 . S
C208 O238 1.325 . S
N209 C212 1.314 . S
N209 C213 1.279 . S
C210 C208 1.348 . S
C210 C212 1.353 . S
C210 H252 0.929 . S
C211 C208 1.356 . S
C211 C213 1.358 . S
C211 H253 0.930 . S
C212 N209 1.314 . S
C212 C210 1.353 . S
C212 H254 0.930 . S
C213 N209 1.279 . S
C213 C211 1.358 . S
C213 H255 0.930 . S
C214 C215 1.348 . S
C214 C216 1.356 . S
C214 O239 1.325 . S
C215 C214 1.348 . S
C215 C217 1.353 . S
C215 H256 0.929 . S
C216 C214 1.356 . S
C216 C218 1.358 . S
C216 H257 0.930 . S
C217 C215 1.353 . S
C217 N219 1.314 . S
C217 H258 0.930 . S
C218 C216 1.358 . S
C218 N219 1.279 . S
C218 H259 0.930 . S
N219 C217 1.314 . S
N219 C218 1.279 . S
C220 C222 1.353 . S
C220 N223 1.314 . S
C220 H226 0.930 . S
C221 N223 1.279 . S
C221 C224 1.358 . S
C221 H227 0.930 . S
C222 C220 1.353 . S
C222 C225 1.348 . S
C222 H260 0.929 . S
N223 Li178 1.990 . S
N223 C220 1.314 . S
N223 C221 1.279 . S
C224 C221 1.358 . S
C224 C225 1.356 . S
C224 H261 0.930 . S
C225 C222 1.348 . S
C225 C224 1.356 . S
H226 C220 0.930 . S
H227 C221 0.930 . S
C228 N229 1.314 . S
C228 C230 1.353 . S
C228 H234 0.930 . S
N229 Li179 1.990 . S
N229 C228 1.314 . S
N229 C232 1.279 . S
C230 C228 1.353 . S
C230 C233 1.348 . S
C230 H262 0.929 . S
C231 C232 1.358 . S
C231 C233 1.356 . S
C231 H263 0.930 . S
C232 N229 1.279 . S
C232 C231 1.358 . S
C232 H235 0.930 . S
C233 C230 1.348 . S
C233 C231 1.356 . S
H234 C228 0.930 . S
H235 C232 0.930 . S
O236 Li176 1.956 . S
O236 Li177 1.970 . S
O236 Li178 1.961 . S
O236 C180 1.325 . S
O237 Li176 1.970 . S
O237 Li177 1.956 . S
O237 Li179 1.961 . S
O237 C186 1.325 . S
O238 Li176 1.961 . S
O238 Li178 1.956 . S
O238 Li179 1.970 . S
O238 C208 1.325 . S
O239 Li177 1.961 . S
O239 Li178 1.970 . S
O239 Li179 1.956 . S
O239 C214 1.325 . S
H240 C182 0.929 . S
H241 C183 0.930 . S
H242 C184 0.930 . S
H243 C185 0.930 . S
H244 C187 0.930 . S
H245 C189 0.929 . S
H246 C190 0.930 . S
H247 C191 0.930 . S
H248 C194 0.930 . S
H249 C197 0.929 . S
H250 C202 0.929 . S
H251 C203 0.930 . S
H252 C210 0.929 . S
H253 C211 0.930 . S
H254 C212 0.930 . S
H255 C213 0.930 . S
H256 C215 0.929 . S
H257 C216 0.930 . S
H258 C217 0.930 . S
H259 C218 0.930 . S
H260 C222 0.929 . S
H261 C224 0.930 . S
H262 C230 0.929 . S
H263 C231 0.930 . S
Li264 N281 1.990 . S
Li264 O324 1.956 . S
Li264 O325 1.970 . S
Li264 O326 1.961 . S
Li265 N289 1.990 . S
Li265 O324 1.970 . S
Li265 O325 1.956 . S
Li265 O327 1.961 . S
Li266 N311 1.990 . S
Li266 O324 1.961 . S
Li266 O326 1.956 . S
Li266 O327 1.970 . S
Li267 N317 1.990 . S
Li267 O325 1.961 . S
Li267 O326 1.970 . S
Li267 O327 1.956 . S
C268 C270 1.348 . S
C268 C271 1.356 . S
C268 O324 1.325 . S
N269 C272 1.314 . S
N269 C273 1.279 . S
C270 C268 1.348 . S
C270 C272 1.353 . S
C270 H328 0.929 . S
C271 C268 1.356 . S
C271 C273 1.358 . S
C271 H329 0.930 . S
C272 N269 1.314 . S
C272 C270 1.353 . S
C272 H330 0.930 . S
C273 N269 1.279 . S
C273 C271 1.358 . S
C273 H331 0.930 . S
C274 C277 1.348 . S
C274 C278 1.356 . S
C274 O325 1.325 . S
C275 N276 1.279 . S
C275 C278 1.358 . S
C275 H332 0.930 . S
N276 C275 1.279 . S
N276 C279 1.314 . S
C277 C274 1.348 . S
C277 C279 1.353 . S
C277 H333 0.929 . S
C278 C274 1.356 . S
C278 C275 1.358 . S
C278 H334 0.930 . S
C279 N276 1.314 . S
C279 C277 1.353 . S
C279 H335 0.930 . S
C280 N281 1.314 . S
C280 C285 1.353 . S
C280 H286 0.930 . S
N281 Li264 1.990 . S
N281 C280 1.314 . S
N281 C283 1.279 . S
C282 C283 1.358 . S
C282 C284 1.356 . S
C282 H336 0.930 . S
C283 N281 1.279 . S
C283 C282 1.358 . S
C283 H287 0.930 . S
C284 C282 1.356 . S
C284 C285 1.348 . S
C285 C280 1.353 . S
C285 C284 1.348 . S
C285 H337 0.929 . S
H286 C280 0.930 . S
H287 C283 0.930 . S
C288 N289 1.314 . S
C288 C290 1.353 . S
C288 H294 0.930 . S
N289 Li265 1.990 . S
N289 C288 1.314 . S
N289 C292 1.279 . S
C290 C288 1.353 . S
C290 C293 1.348 . S
C290 H338 0.929 . S
C291 C292 1.358 . S
C291 C293 1.356 . S
C291 H339 0.930 . S
C292 N289 1.279 . S
C292 C291 1.358 . S
C292 H295 0.930 . S
C293 C290 1.348 . S
C293 C291 1.356 . S
H294 C288 0.930 . S
H295 C292 0.930 . S
C296 C298 1.348 . S
C296 C299 1.356 . S
C296 O326 1.325 . S
N297 C300 1.314 . S
N297 C301 1.279 . S
C298 C296 1.348 . S
C298 C300 1.353 . S
C298 H340 0.929 . S
C299 C296 1.356 . S
C299 C301 1.358 . S
C299 H341 0.930 . S
C300 N297 1.314 . S
C300 C298 1.353 . S
C300 H342 0.930 . S
C301 N297 1.279 . S
C301 C299 1.358 . S
C301 H343 0.930 . S
C302 C303 1.348 . S
C302 C304 1.356 . S
C302 O327 1.325 . S
C303 C302 1.348 . S
C303 C305 1.353 . S
C303 H344 0.929 . S
C304 C302 1.356 . S
C304 C306 1.358 . S
C304 H345 0.930 . S
C305 C303 1.353 . S
C305 N307 1.314 . S
C305 H346 0.930 . S
C306 C304 1.358 . S
C306 N307 1.279 . S
C306 H347 0.930 . S
N307 C305 1.314 . S
N307 C306 1.279 . S
C308 C310 1.353 . S
C308 N311 1.314 . S
C308 H314 0.930 . S
C309 N311 1.279 . S
C309 C312 1.358 . S
C309 H315 0.930 . S
C310 C308 1.353 . S
C310 C313 1.348 . S
C310 H348 0.929 . S
N311 Li266 1.990 . S
N311 C308 1.314 . S
N311 C309 1.279 . S
C312 C309 1.358 . S
C312 C313 1.356 . S
C312 H349 0.930 . S
C313 C310 1.348 . S
C313 C312 1.356 . S
H314 C308 0.930 . S
H315 C309 0.930 . S
C316 N317 1.314 . S
C316 C318 1.353 . S
C316 H322 0.930 . S
N317 Li267 1.990 . S
N317 C316 1.314 . S
N317 C320 1.279 . S
C318 C316 1.353 . S
C318 C321 1.348 . S
C318 H350 0.929 . S
C319 C320 1.358 . S
C319 C321 1.356 . S
C319 H351 0.930 . S
C320 N317 1.279 . S
C320 C319 1.358 . S
C320 H323 0.930 . S
C321 C318 1.348 . S
C321 C319 1.356 . S
H322 C316 0.930 . S
H323 C320 0.930 . S
O324 Li264 1.956 . S
O324 Li265 1.970 . S
O324 Li266 1.961 . S
O324 C268 1.325 . S
O325 Li264 1.970 . S
O325 Li265 1.956 . S
O325 Li267 1.961 . S
O325 C274 1.325 . S
O326 Li264 1.961 . S
O326 Li266 1.956 . S
O326 Li267 1.970 . S
O326 C296 1.325 . S
O327 Li265 1.961 . S
O327 Li266 1.970 . S
O327 Li267 1.956 . S
O327 C302 1.325 . S
H328 C270 0.929 . S
H329 C271 0.930 . S
H330 C272 0.930 . S
H331 C273 0.930 . S
H332 C275 0.930 . S
H333 C277 0.929 . S
H334 C278 0.930 . S
H335 C279 0.930 . S
H336 C282 0.930 . S
H337 C285 0.929 . S
H338 C290 0.929 . S
H339 C291 0.930 . S
H340 C298 0.929 . S
H341 C299 0.930 . S
H342 C300 0.930 . S
H343 C301 0.930 . S
H344 C303 0.929 . S
H345 C304 0.930 . S
H346 C305 0.930 . S
H347 C306 0.930 . S
H348 C310 0.929 . S
H349 C312 0.930 . S
H350 C318 0.929 . S
H351 C319 0.930 . S
Li352 N369 1.990 . S
Li352 O412 1.956 . S
Li352 O413 1.970 . S
Li352 O414 1.961 . S
Li353 N377 1.990 . S
Li353 O412 1.970 . S
Li353 O413 1.956 . S
Li353 O415 1.961 . S
Li354 N399 1.990 . S
Li354 O412 1.961 . S
Li354 O414 1.956 . S
Li354 O415 1.970 . S
Li355 N405 1.990 . S
Li355 O413 1.961 . S
Li355 O414 1.970 . S
Li355 O415 1.956 . S
C356 C358 1.348 . S
C356 C359 1.356 . S
C356 O412 1.325 . S
N357 C360 1.314 . S
N357 C361 1.279 . S
C358 C356 1.348 . S
C358 C360 1.353 . S
C358 H416 0.929 . S
C359 C356 1.356 . S
C359 C361 1.358 . S
C359 H417 0.930 . S
C360 N357 1.314 . S
C360 C358 1.353 . S
C360 H418 0.930 . S
C361 N357 1.279 . S
C361 C359 1.358 . S
C361 H419 0.930 . S
C362 C365 1.348 . S
C362 C366 1.356 . S
C362 O413 1.325 . S
C363 N364 1.279 . S
C363 C366 1.358 . S
C363 H420 0.930 . S
N364 C363 1.279 . S
N364 C367 1.314 . S
C365 C362 1.348 . S
C365 C367 1.353 . S
C365 H421 0.929 . S
C366 C362 1.356 . S
C366 C363 1.358 . S
C366 H422 0.930 . S
C367 N364 1.314 . S
C367 C365 1.353 . S
C367 H423 0.930 . S
C368 N369 1.314 . S
C368 C373 1.353 . S
C368 H374 0.930 . S
N369 Li352 1.990 . S
N369 C368 1.314 . S
N369 C371 1.279 . S
C370 C371 1.358 . S
C370 C372 1.356 . S
C370 H424 0.930 . S
C371 N369 1.279 . S
C371 C370 1.358 . S
C371 H375 0.930 . S
C372 C370 1.356 . S
C372 C373 1.348 . S
C373 C368 1.353 . S
C373 C372 1.348 . S
C373 H425 0.929 . S
H374 C368 0.930 . S
H375 C371 0.930 . S
C376 N377 1.314 . S
C376 C378 1.353 . S
C376 H382 0.930 . S
N377 Li353 1.990 . S
N377 C376 1.314 . S
N377 C380 1.279 . S
C378 C376 1.353 . S
C378 C381 1.348 . S
C378 H426 0.929 . S
C379 C380 1.358 . S
C379 C381 1.356 . S
C379 H427 0.930 . S
C380 N377 1.279 . S
C380 C379 1.358 . S
C380 H383 0.930 . S
C381 C378 1.348 . S
C381 C379 1.356 . S
H382 C376 0.930 . S
H383 C380 0.930 . S
C384 C386 1.348 . S
C384 C387 1.356 . S
C384 O414 1.325 . S
N385 C388 1.314 . S
N385 C389 1.279 . S
C386 C384 1.348 . S
C386 C388 1.353 . S
C386 H428 0.929 . S
C387 C384 1.356 . S
C387 C389 1.358 . S
C387 H429 0.930 . S
C388 N385 1.314 . S
C388 C386 1.353 . S
C388 H430 0.930 . S
C389 N385 1.279 . S
C389 C387 1.358 . S
C389 H431 0.930 . S
C390 C391 1.348 . S
C390 C392 1.356 . S
C390 O415 1.325 . S
C391 C390 1.348 . S
C391 C393 1.353 . S
C391 H432 0.929 . S
C392 C390 1.356 . S
C392 C394 1.358 . S
C392 H433 0.930 . S
C393 C391 1.353 . S
C393 N395 1.314 . S
C393 H434 0.930 . S
C394 C392 1.358 . S
C394 N395 1.279 . S
C394 H435 0.930 . S
N395 C393 1.314 . S
N395 C394 1.279 . S
C396 C398 1.353 . S
C396 N399 1.314 . S
C396 H402 0.930 . S
C397 N399 1.279 . S
C397 C400 1.358 . S
C397 H403 0.930 . S
C398 C396 1.353 . S
C398 C401 1.348 . S
C398 H436 0.929 . S
N399 Li354 1.990 . S
N399 C396 1.314 . S
N399 C397 1.279 . S
C400 C397 1.358 . S
C400 C401 1.356 . S
C400 H437 0.930 . S
C401 C398 1.348 . S
C401 C400 1.356 . S
H402 C396 0.930 . S
H403 C397 0.930 . S
C404 N405 1.314 . S
C404 C406 1.353 . S
C404 H410 0.930 . S
N405 Li355 1.990 . S
N405 C404 1.314 . S
N405 C408 1.279 . S
C406 C404 1.353 . S
C406 C409 1.348 . S
C406 H438 0.929 . S
C407 C408 1.358 . S
C407 C409 1.356 . S
C407 H439 0.930 . S
C408 N405 1.279 . S
C408 C407 1.358 . S
C408 H411 0.930 . S
C409 C406 1.348 . S
C409 C407 1.356 . S
H410 C404 0.930 . S
H411 C408 0.930 . S
O412 Li352 1.956 . S
O412 Li353 1.970 . S
O412 Li354 1.961 . S
O412 C356 1.325 . S
O413 Li352 1.970 . S
O413 Li353 1.956 . S
O413 Li355 1.961 . S
O413 C362 1.325 . S
O414 Li352 1.961 . S
O414 Li354 1.956 . S
O414 Li355 1.970 . S
O414 C384 1.325 . S
O415 Li353 1.961 . S
O415 Li354 1.970 . S
O415 Li355 1.956 . S
O415 C390 1.325 . S
H416 C358 0.929 . S
H417 C359 0.930 . S
H418 C360 0.930 . S
H419 C361 0.930 . S
H420 C363 0.930 . S
H421 C365 0.929 . S
H422 C366 0.930 . S
H423 C367 0.930 . S
H424 C370 0.930 . S
H425 C373 0.929 . S
H426 C378 0.929 . S
H427 C379 0.930 . S
H428 C386 0.929 . S
H429 C387 0.930 . S
H430 C388 0.930 . S
H431 C389 0.930 . S
H432 C391 0.929 . S
H433 C392 0.930 . S
H434 C393 0.930 . S
H435 C394 0.930 . S
H436 C398 0.929 . S
H437 C400 0.930 . S
H438 C406 0.929 . S
H439 C407 0.930 . S
Li440 N457 1.990 . S
Li440 O500 1.956 . S
Li440 O501 1.970 . S
Li440 O502 1.961 . S
Li441 N465 1.990 . S
Li441 O500 1.970 . S
Li441 O501 1.956 . S
Li441 O503 1.961 . S
Li442 N487 1.990 . S
Li442 O500 1.961 . S
Li442 O502 1.956 . S
Li442 O503 1.970 . S
Li443 N493 1.990 . S
Li443 O501 1.961 . S
Li443 O502 1.970 . S
Li443 O503 1.956 . S
C444 C446 1.348 . S
C444 C447 1.356 . S
C444 O500 1.325 . S
N445 C448 1.314 . S
N445 C449 1.279 . S
C446 C444 1.348 . S
C446 C448 1.353 . S
C446 H504 0.929 . S
C447 C444 1.356 . S
C447 C449 1.358 . S
C447 H505 0.930 . S
C448 N445 1.314 . S
C448 C446 1.353 . S
C448 H506 0.930 . S
C449 N445 1.279 . S
C449 C447 1.358 . S
C449 H507 0.930 . S
C450 C453 1.348 . S
C450 C454 1.356 . S
C450 O501 1.325 . S
C451 N452 1.279 . S
C451 C454 1.358 . S
C451 H508 0.930 . S
N452 C451 1.279 . S
N452 C455 1.314 . S
C453 C450 1.348 . S
C453 C455 1.353 . S
C453 H509 0.929 . S
C454 C450 1.356 . S
C454 C451 1.358 . S
C454 H510 0.930 . S
C455 N452 1.314 . S
C455 C453 1.353 . S
C455 H511 0.930 . S
C456 N457 1.314 . S
C456 C461 1.353 . S
C456 H462 0.930 . S
N457 Li440 1.990 . S
N457 C456 1.314 . S
N457 C459 1.279 . S
C458 C459 1.358 . S
C458 C460 1.356 . S
C458 H512 0.930 . S
C459 N457 1.279 . S
C459 C458 1.358 . S
C459 H463 0.930 . S
C460 C458 1.356 . S
C460 C461 1.348 . S
C461 C456 1.353 . S
C461 C460 1.348 . S
C461 H513 0.929 . S
H462 C456 0.930 . S
H463 C459 0.930 . S
C464 N465 1.314 . S
C464 C466 1.353 . S
C464 H470 0.930 . S
N465 Li441 1.990 . S
N465 C464 1.314 . S
N465 C468 1.279 . S
C466 C464 1.353 . S
C466 C469 1.348 . S
C466 H514 0.929 . S
C467 C468 1.358 . S
C467 C469 1.356 . S
C467 H515 0.930 . S
C468 N465 1.279 . S
C468 C467 1.358 . S
C468 H471 0.930 . S
C469 C466 1.348 . S
C469 C467 1.356 . S
H470 C464 0.930 . S
H471 C468 0.930 . S
C472 C474 1.348 . S
C472 C475 1.356 . S
C472 O502 1.325 . S
N473 C476 1.314 . S
N473 C477 1.279 . S
C474 C472 1.348 . S
C474 C476 1.353 . S
C474 H516 0.929 . S
C475 C472 1.356 . S
C475 C477 1.358 . S
C475 H517 0.930 . S
C476 N473 1.314 . S
C476 C474 1.353 . S
C476 H518 0.930 . S
C477 N473 1.279 . S
C477 C475 1.358 . S
C477 H519 0.930 . S
C478 C479 1.348 . S
C478 C480 1.356 . S
C478 O503 1.325 . S
C479 C478 1.348 . S
C479 C481 1.353 1_556 S
C479 H520 0.929 . S
C480 C478 1.356 . S
C480 C482 1.358 . S
C480 H521 0.930 . S
C481 C479 1.353 1_554 S
C481 N483 1.314 . S
C481 H522 0.930 . S
C482 C480 1.358 . S
C482 N483 1.279 1_556 S
C482 H523 0.930 . S
N483 C481 1.314 . S
N483 C482 1.279 1_554 S
C484 C486 1.353 1_556 S
C484 N487 1.314 . S
C484 H490 0.930 . S
C485 N487 1.279 . S
C485 C488 1.358 1_556 S
C485 H491 0.930 . S
C486 C484 1.353 1_554 S
C486 C489 1.348 . S
C486 H524 0.929 . S
N487 Li442 1.990 . S
N487 C484 1.314 . S
N487 C485 1.279 . S
C488 C485 1.358 1_554 S
C488 C489 1.356 . S
C488 H525 0.930 . S
C489 C486 1.348 . S
C489 C488 1.356 . S
H490 C484 0.930 . S
H491 C485 0.930 . S
C492 N493 1.314 . S
C492 C494 1.353 . S
C492 H498 0.930 . S
N493 Li443 1.990 . S
N493 C492 1.314 . S
N493 C496 1.279 . S
C494 C492 1.353 . S
C494 C497 1.348 . S
C494 H526 0.929 . S
C495 C496 1.358 . S
C495 C497 1.356 . S
C495 H527 0.930 . S
C496 N493 1.279 . S
C496 C495 1.358 . S
C496 H499 0.930 . S
C497 C494 1.348 . S
C497 C495 1.356 . S
H498 C492 0.930 . S
H499 C496 0.930 . S
O500 Li440 1.956 . S
O500 Li441 1.970 . S
O500 Li442 1.961 . S
O500 C444 1.325 . S
O501 Li440 1.970 . S
O501 Li441 1.956 . S
O501 Li443 1.961 . S
O501 C450 1.325 . S
O502 Li440 1.961 . S
O502 Li442 1.956 . S
O502 Li443 1.970 . S
O502 C472 1.325 . S
O503 Li441 1.961 . S
O503 Li442 1.970 . S
O503 Li443 1.956 . S
O503 C478 1.325 . S
H504 C446 0.929 . S
H505 C447 0.930 . S
H506 C448 0.930 . S
H507 C449 0.930 . S
H508 C451 0.930 . S
H509 C453 0.929 . S
H510 C454 0.930 . S
H511 C455 0.930 . S
H512 C458 0.930 . S
H513 C461 0.929 . S
H514 C466 0.929 . S
H515 C467 0.930 . S
H516 C474 0.929 . S
H517 C475 0.930 . S
H518 C476 0.930 . S
H519 C477 0.930 . S
H520 C479 0.929 . S
H521 C480 0.930 . S
H522 C481 0.930 . S
H523 C482 0.930 . S
H524 C486 0.929 . S
H525 C488 0.930 . S
H526 C494 0.929 . S
H527 C495 0.930 . S
Li528 N545 1.990 . S
Li528 O588 1.956 . S
Li528 O589 1.970 . S
Li528 O590 1.961 . S
Li529 N553 1.990 . S
Li529 O588 1.970 . S
Li529 O589 1.956 . S
Li529 O591 1.961 . S
Li530 N575 1.990 . S
Li530 O588 1.961 . S
Li530 O590 1.956 . S
Li530 O591 1.970 . S
Li531 N581 1.990 . S
Li531 O589 1.961 . S
Li531 O590 1.970 . S
Li531 O591 1.956 . S
C532 C534 1.348 . S
C532 C535 1.356 . S
C532 O588 1.325 . S
N533 C536 1.315 . S
N533 C537 1.272 1_554 S
C534 C532 1.348 . S
C534 C536 1.353 1_556 S
C534 H592 0.929 . S
C535 C532 1.356 . S
C535 C537 1.358 . S
C535 H593 0.930 . S
C536 N533 1.315 . S
C536 C534 1.353 1_554 S
C536 H594 0.930 . S
C537 N533 1.272 1_556 S
C537 C535 1.358 . S
C537 H595 0.930 . S
C538 C541 1.348 . S
C538 C542 1.356 . S
C538 O589 1.325 . S
C539 N540 1.279 . S
C539 C542 1.358 . S
C539 H596 0.930 . S
N540 C539 1.279 . S
N540 C543 1.314 . S
C541 C538 1.348 . S
C541 C543 1.353 . S
C541 H597 0.929 . S
C542 C538 1.356 . S
C542 C539 1.358 . S
C542 H598 0.930 . S
C543 N540 1.314 . S
C543 C541 1.353 . S
C543 H599 0.930 . S
C544 N545 1.314 . S
C544 C549 1.353 . S
C544 H550 0.930 . S
N545 Li528 1.990 . S
N545 C544 1.314 . S
N545 C547 1.279 . S
C546 C547 1.358 . S
C546 C548 1.356 . S
C546 H600 0.930 . S
C547 N545 1.279 . S
C547 C546 1.358 . S
C547 H551 0.930 . S
C548 C546 1.356 . S
C548 C549 1.348 . S
C549 C544 1.353 . S
C549 C548 1.348 . S
C549 H601 0.929 . S
H550 C544 0.930 . S
H551 C547 0.930 . S
C552 N553 1.314 . S
C552 C554 1.353 1_556 S
C552 H558 0.930 . S
N553 Li529 1.990 . S
N553 C552 1.314 . S
N553 C556 1.279 . S
C554 C552 1.353 1_554 S
C554 C557 1.348 . S
C554 H602 0.929 . S
C555 C556 1.327 1_554 S
C555 C557 1.380 . S
C555 H603 0.938 . S
C556 N553 1.279 . S
C556 C555 1.327 1_556 S
C556 H559 0.930 . S
C557 C554 1.348 . S
C557 C555 1.380 . S
H558 C552 0.930 . S
H559 C556 0.930 . S
C560 C562 1.348 . S
C560 C563 1.356 . S
C560 O590 1.325 . S
N561 C564 1.314 . S
N561 C565 1.279 . S
C562 C560 1.348 . S
C562 C564 1.353 . S
C562 H604 0.929 . S
C563 C560 1.356 . S
C563 C565 1.358 . S
C563 H605 0.930 . S
C564 N561 1.314 . S
C564 C562 1.353 . S
C564 H606 0.930 . S
C565 N561 1.279 . S
C565 C563 1.358 . S
C565 H607 0.930 . S
C566 C567 1.348 . S
C566 C568 1.356 . S
C566 O591 1.325 . S
C567 C566 1.348 . S
C567 C569 1.353 . S
C567 H608 0.929 . S
C568 C566 1.356 . S
C568 C570 1.358 . S
C568 H609 0.930 . S
C569 C567 1.353 . S
C569 N571 1.314 . S
C569 H610 0.930 . S
C570 C568 1.358 . S
C570 N571 1.279 . S
C570 H611 0.930 . S
N571 C569 1.314 . S
N571 C570 1.279 . S
C572 C574 1.353 . S
C572 N575 1.314 . S
C572 H578 0.930 . S
C573 N575 1.279 . S
C573 C576 1.358 . S
C573 H579 0.930 . S
C574 C572 1.353 . S
C574 C577 1.348 . S
C574 H612 0.929 . S
N575 Li530 1.990 . S
N575 C572 1.314 . S
N575 C573 1.279 . S
C576 C573 1.358 . S
C576 C577 1.356 . S
C576 H613 0.930 . S
C577 C574 1.348 . S
C577 C576 1.356 . S
H578 C572 0.930 . S
H579 C573 0.930 . S
C580 N581 1.314 . S
C580 C582 1.353 . S
C580 H586 0.930 . S
N581 Li531 1.990 . S
N581 C580 1.314 . S
N581 C584 1.279 . S
C582 C580 1.353 . S
C582 C585 1.348 . S
C582 H614 0.929 . S
C583 C584 1.358 . S
C583 C585 1.356 . S
C583 H615 0.930 . S
C584 N581 1.279 . S
C584 C583 1.358 . S
C584 H587 0.930 . S
C585 C582 1.348 . S
C585 C583 1.356 . S
H586 C580 0.930 . S
H587 C584 0.930 . S
O588 Li528 1.956 . S
O588 Li529 1.970 . S
O588 Li530 1.961 . S
O588 C532 1.325 . S
O589 Li528 1.970 . S
O589 Li529 1.956 . S
O589 Li531 1.961 . S
O589 C538 1.325 . S
O590 Li528 1.961 . S
O590 Li530 1.956 . S
O590 Li531 1.970 . S
O590 C560 1.325 . S
O591 Li529 1.961 . S
O591 Li530 1.970 . S
O591 Li531 1.956 . S
O591 C566 1.325 . S
H592 C534 0.929 . S
H593 C535 0.930 . S
H594 C536 0.930 . S
H595 C537 0.930 . S
H596 C539 0.930 . S
H597 C541 0.929 . S
H598 C542 0.930 . S
H599 C543 0.930 . S
H600 C546 0.930 . S
H601 C549 0.929 . S
H602 C554 0.929 . S
H603 C555 0.938 . S
H604 C562 0.929 . S
H605 C563 0.930 . S
H606 C564 0.930 . S
H607 C565 0.930 . S
H608 C567 0.929 . S
H609 C568 0.930 . S
H610 C569 0.930 . S
H611 C570 0.930 . S
H612 C574 0.929 . S
H613 C576 0.930 . S
H614 C582 0.929 . S
H615 C583 0.930 . S
Li616 N633 1.990 . S
Li616 O676 1.956 . S
Li616 O677 1.970 . S
Li616 O678 1.961 . S
Li617 N641 1.990 . S
Li617 O676 1.970 . S
Li617 O677 1.956 . S
Li617 O679 1.961 . S
Li618 N663 1.990 . S
Li618 O676 1.961 . S
Li618 O678 1.956 . S
Li618 O679 1.970 . S
Li619 N669 1.990 1_554 S
Li619 O677 1.961 . S
Li619 O678 1.970 . S
Li619 O679 1.956 . S
C620 C622 1.348 . S
C620 C623 1.356 . S
C620 O676 1.325 . S
N621 C624 1.314 . S
N621 C625 1.279 . S
C622 C620 1.348 . S
C622 C624 1.353 . S
C622 H680 0.929 . S
C623 C620 1.356 . S
C623 C625 1.358 . S
C623 H681 0.930 . S
C624 N621 1.314 . S
C624 C622 1.353 . S
C624 H682 0.930 . S
C625 N621 1.279 . S
C625 C623 1.358 . S
C625 H683 0.930 . S
C626 C629 1.348 . S
C626 C630 1.356 . S
C626 O677 1.325 . S
C627 N628 1.279 . S
C627 C630 1.358 . S
C627 H684 0.930 . S
N628 C627 1.279 . S
N628 C631 1.314 . S
C629 C626 1.348 . S
C629 C631 1.353 . S
C629 H685 0.929 . S
C630 C626 1.356 . S
C630 C627 1.358 . S
C630 H686 0.930 . S
C631 N628 1.314 . S
C631 C629 1.353 . S
C631 H687 0.930 . S
C632 N633 1.314 . S
C632 C637 1.353 . S
C632 H638 0.930 . S
N633 Li616 1.990 . S
N633 C632 1.314 . S
N633 C635 1.279 . S
C634 C635 1.358 . S
C634 C636 1.356 . S
C634 H688 0.930 . S
C635 N633 1.279 . S
C635 C634 1.358 . S
C635 H639 0.930 . S
C636 C634 1.356 . S
C636 C637 1.348 . S
C637 C632 1.353 . S
C637 C636 1.348 . S
C637 H689 0.929 . S
H638 C632 0.930 . S
H639 C635 0.930 . S
C640 N641 1.314 . S
C640 C642 1.353 . S
C640 H646 0.930 . S
N641 Li617 1.990 . S
N641 C640 1.314 . S
N641 C644 1.279 . S
C642 C640 1.353 . S
C642 C645 1.348 . S
C642 H690 0.929 . S
C643 C644 1.358 . S
C643 C645 1.356 . S
C643 H691 0.930 . S
C644 N641 1.279 . S
C644 C643 1.358 . S
C644 H647 0.930 . S
C645 C642 1.348 . S
C645 C643 1.356 . S
H646 C640 0.930 . S
H647 C644 0.930 . S
C648 C650 1.348 1_554 S
C648 C651 1.357 . S
C648 O678 1.325 . S
N649 C652 1.314 . S
N649 C653 1.279 . S
C650 C648 1.348 1_556 S
C650 C652 1.353 . S
C650 H692 0.929 . S
C651 C648 1.357 . S
C651 C653 1.333 1_554 S
C651 H693 0.955 . S
C652 N649 1.314 . S
C652 C650 1.353 . S
C652 H694 0.930 . S
C653 N649 1.279 . S
C653 C651 1.333 1_556 S
C653 H695 0.930 . S
C654 C655 1.348 . S
C654 C656 1.356 . S
C654 O679 1.325 . S
C655 C654 1.348 . S
C655 C657 1.353 . S
C655 H696 0.929 . S
C656 C654 1.356 . S
C656 C658 1.358 . S
C656 H697 0.930 . S
C657 C655 1.353 . S
C657 N659 1.314 . S
C657 H698 0.930 . S
C658 C656 1.358 . S
C658 N659 1.279 . S
C658 H699 0.930 . S
N659 C657 1.314 . S
N659 C658 1.279 . S
C660 C662 1.353 . S
C660 N663 1.314 . S
C660 H666 0.930 . S
C661 N663 1.279 . S
C661 C664 1.358 . S
C661 H667 0.930 . S
C662 C660 1.353 . S
C662 C665 1.348 . S
C662 H700 0.929 . S
N663 Li618 1.990 . S
N663 C660 1.314 . S
N663 C661 1.279 . S
C664 C661 1.358 . S
C664 C665 1.356 . S
C664 H701 0.930 . S
C665 C662 1.348 . S
C665 C664 1.356 . S
H666 C660 0.930 . S
H667 C661 0.930 . S
C668 N669 1.314 . S
C668 C670 1.353 . S
C668 H674 0.930 . S
N669 Li619 1.990 1_556 S
N669 C668 1.314 . S
N669 C672 1.279 . S
C670 C668 1.353 . S
C670 C673 1.348 . S
C670 H702 0.929 . S
C671 C672 1.358 . S
C671 C673 1.356 . S
C671 H703 0.930 . S
C672 N669 1.279 . S
C672 C671 1.358 . S
C672 H675 0.930 1_556 S
C673 C670 1.348 . S
C673 C671 1.356 . S
H674 C668 0.930 . S
H675 C672 0.930 1_554 S
O676 Li616 1.956 . S
O676 Li617 1.970 . S
O676 Li618 1.961 . S
O676 C620 1.325 . S
O677 Li616 1.970 . S
O677 Li617 1.956 . S
O677 Li619 1.961 . S
O677 C626 1.325 . S
O678 Li616 1.961 . S
O678 Li618 1.956 . S
O678 Li619 1.970 . S
O678 C648 1.325 . S
O679 Li617 1.961 . S
O679 Li618 1.970 . S
O679 Li619 1.956 . S
O679 C654 1.325 . S
H680 C622 0.929 . S
H681 C623 0.930 . S
H682 C624 0.930 . S
H683 C625 0.930 . S
H684 C627 0.930 . S
H685 C629 0.929 . S
H686 C630 0.930 . S
H687 C631 0.930 . S
H688 C634 0.930 . S
H689 C637 0.929 . S
H690 C642 0.929 . S
H691 C643 0.930 . S
H692 C650 0.929 . S
H693 C651 0.955 . S
H694 C652 0.930 . S
H695 C653 0.930 . S
H696 C655 0.929 . S
H697 C656 0.930 . S
H698 C657 0.930 . S
H699 C658 0.930 . S
H700 C662 0.929 . S
H701 C664 0.930 . S
H702 C670 0.929 . S
H703 C671 0.930 . S
Li704 N721 1.990 . S
Li704 O764 1.956 . S
Li704 O765 1.970 . S
Li704 O766 1.961 . S
Li705 N729 1.990 . S
Li705 O764 1.970 . S
Li705 O765 1.956 . S
Li705 O767 1.961 . S
Li706 N751 1.990 . S
Li706 O764 1.961 . S
Li706 O766 1.956 . S
Li706 O767 1.970 . S
Li707 N757 1.990 . S
Li707 O765 1.961 . S
Li707 O766 1.970 . S
Li707 O767 1.956 . S
C708 C710 1.348 . S
C708 C711 1.356 . S
C708 O764 1.325 . S
N709 C712 1.314 . S
N709 C713 1.279 . S
C710 C708 1.348 . S
C710 C712 1.353 . S
C710 H768 0.929 . S
C711 C708 1.356 . S
C711 C713 1.358 . S
C711 H769 0.930 . S
C712 N709 1.314 . S
C712 C710 1.353 . S
C712 H770 0.930 . S
C713 N709 1.279 . S
C713 C711 1.358 . S
C713 H771 0.930 . S
C714 C717 1.348 . S
C714 C718 1.356 . S
C714 O765 1.325 . S
C715 N716 1.279 . S
C715 C718 1.358 . S
C715 H772 0.930 . S
N716 C715 1.279 . S
N716 C719 1.314 . S
C717 C714 1.348 . S
C717 C719 1.353 . S
C717 H773 0.929 . S
C718 C714 1.356 . S
C718 C715 1.358 . S
C718 H774 0.930 . S
C719 N716 1.314 . S
C719 C717 1.353 . S
C719 H775 0.930 . S
C720 N721 1.314 . S
C720 C725 1.353 . S
C720 H726 0.930 . S
N721 Li704 1.990 . S
N721 C720 1.314 . S
N721 C723 1.279 . S
C722 C723 1.358 . S
C722 C724 1.356 . S
C722 H776 0.930 . S
C723 N721 1.279 . S
C723 C722 1.358 . S
C723 H727 0.930 . S
C724 C722 1.356 . S
C724 C725 1.348 . S
C725 C720 1.353 . S
C725 C724 1.348 . S
C725 H777 0.929 . S
H726 C720 0.930 . S
H727 C723 0.930 . S
C728 N729 1.314 . S
C728 C730 1.353 . S
C728 H734 0.930 . S
N729 Li705 1.990 . S
N729 C728 1.314 . S
N729 C732 1.279 . S
C730 C728 1.353 . S
C730 C733 1.348 . S
C730 H778 0.929 . S
C731 C732 1.358 . S
C731 C733 1.356 . S
C731 H779 0.930 . S
C732 N729 1.279 . S
C732 C731 1.358 . S
C732 H735 0.930 . S
C733 C730 1.348 . S
C733 C731 1.356 . S
H734 C728 0.930 . S
H735 C732 0.930 . S
C736 C738 1.348 . S
C736 C739 1.356 . S
C736 O766 1.325 . S
N737 C740 1.314 . S
N737 C741 1.279 . S
C738 C736 1.348 . S
C738 C740 1.353 . S
C738 H780 0.929 . S
C739 C736 1.356 . S
C739 C741 1.358 . S
C739 H781 0.930 . S
C740 N737 1.314 . S
C740 C738 1.353 . S
C740 H782 0.930 . S
C741 N737 1.279 . S
C741 C739 1.358 . S
C741 H783 0.930 . S
C742 C743 1.348 . S
C742 C744 1.356 . S
C742 O767 1.325 . S
C743 C742 1.348 . S
C743 C745 1.353 . S
C743 H784 0.929 . S
C744 C742 1.356 . S
C744 C746 1.358 . S
C744 H785 0.930 . S
C745 C743 1.353 . S
C745 N747 1.314 . S
C745 H786 0.930 . S
C746 C744 1.358 . S
C746 N747 1.279 . S
C746 H787 0.930 . S
N747 C745 1.314 . S
N747 C746 1.279 . S
C748 C750 1.353 . S
C748 N751 1.314 . S
C748 H754 0.930 . S
C749 N751 1.279 . S
C749 C752 1.358 . S
C749 H755 0.930 . S
C750 C748 1.353 . S
C750 C753 1.348 . S
C750 H788 0.929 . S
N751 Li706 1.990 . S
N751 C748 1.314 . S
N751 C749 1.279 . S
C752 C749 1.358 . S
C752 C753 1.356 . S
C752 H789 0.930 . S
C753 C750 1.348 . S
C753 C752 1.356 . S
H754 C748 0.930 . S
H755 C749 0.930 . S
C756 N757 1.314 . S
C756 C758 1.353 . S
C756 H762 0.930 . S
N757 Li707 1.990 . S
N757 C756 1.314 . S
N757 C760 1.279 . S
C758 C756 1.353 . S
C758 C761 1.348 . S
C758 H790 0.929 . S
C759 C760 1.358 . S
C759 C761 1.356 . S
C759 H791 0.930 . S
C760 N757 1.279 . S
C760 C759 1.358 . S
C760 H763 0.930 . S
C761 C758 1.348 . S
C761 C759 1.356 . S
H762 C756 0.930 . S
H763 C760 0.930 . S
O764 Li704 1.956 . S
O764 Li705 1.970 . S
O764 Li706 1.961 . S
O764 C708 1.325 . S
O765 Li704 1.970 . S
O765 Li705 1.956 . S
O765 Li707 1.961 . S
O765 C714 1.325 . S
O766 Li704 1.961 . S
O766 Li706 1.956 . S
O766 Li707 1.970 . S
O766 C736 1.325 . S
O767 Li705 1.961 . S
O767 Li706 1.970 . S
O767 Li707 1.956 . S
O767 C742 1.325 . S
H768 C710 0.929 . S
H769 C711 0.930 . S
H770 C712 0.930 . S
H771 C713 0.930 . S
H772 C715 0.930 . S
H773 C717 0.929 . S
H774 C718 0.930 . S
H775 C719 0.930 . S
H776 C722 0.930 . S
H777 C725 0.929 . S
H778 C730 0.929 . S
H779 C731 0.930 . S
H780 C738 0.929 . S
H781 C739 0.930 . S
H782 C740 0.930 . S
H783 C741 0.930 . S
H784 C743 0.929 . S
H785 C744 0.930 . S
H786 C745 0.930 . S
H787 C746 0.930 . S
H788 C750 0.929 . S
H789 C752 0.930 . S
H790 C758 0.929 . S
H791 C759 0.930 . S
Li792 N809 1.990 . S
Li792 O852 1.956 . S
Li792 O853 1.970 . S
Li792 O854 1.961 . S
Li793 N817 1.990 . S
Li793 O852 1.970 . S
Li793 O853 1.956 . S
Li793 O855 1.961 . S
Li794 N839 1.990 . S
Li794 O852 1.961 . S
Li794 O854 1.956 . S
Li794 O855 1.970 . S
Li795 N845 1.990 . S
Li795 O853 1.961 . S
Li795 O854 1.970 . S
Li795 O855 1.956 . S
C796 C798 1.348 . S
C796 C799 1.356 . S
C796 O852 1.325 . S
N797 C800 1.314 . S
N797 C801 1.279 . S
C798 C796 1.348 . S
C798 C800 1.353 . S
C798 H856 0.929 . S
C799 C796 1.356 . S
C799 C801 1.358 . S
C799 H857 0.930 . S
C800 N797 1.314 . S
C800 C798 1.353 . S
C800 H858 0.930 . S
C801 N797 1.279 . S
C801 C799 1.358 . S
C801 H859 0.930 . S
C802 C805 1.348 . S
C802 C806 1.356 . S
C802 O853 1.325 . S
C803 N804 1.279 . S
C803 C806 1.358 . S
C803 H860 0.930 . S
N804 C803 1.279 . S
N804 C807 1.314 . S
C805 C802 1.348 . S
C805 C807 1.353 . S
C805 H861 0.929 . S
C806 C802 1.356 . S
C806 C803 1.358 . S
C806 H862 0.930 . S
C807 N804 1.314 . S
C807 C805 1.353 . S
C807 H863 0.930 . S
C808 N809 1.314 . S
C808 C813 1.353 . S
C808 H814 0.930 . S
N809 Li792 1.990 . S
N809 C808 1.314 . S
N809 C811 1.279 . S
C810 C811 1.358 . S
C810 C812 1.356 . S
C810 H864 0.930 . S
C811 N809 1.279 . S
C811 C810 1.358 . S
C811 H815 0.930 . S
C812 C810 1.356 . S
C812 C813 1.348 . S
C813 C808 1.353 . S
C813 C812 1.348 . S
C813 H865 0.929 . S
H814 C808 0.930 . S
H815 C811 0.930 . S
C816 N817 1.314 . S
C816 C818 1.353 . S
C816 H822 0.930 . S
N817 Li793 1.990 . S
N817 C816 1.314 . S
N817 C820 1.279 . S
C818 C816 1.353 . S
C818 C821 1.348 . S
C818 H866 0.929 . S
C819 C820 1.358 . S
C819 C821 1.356 . S
C819 H867 0.930 . S
C820 N817 1.279 . S
C820 C819 1.358 . S
C820 H823 0.930 . S
C821 C818 1.348 . S
C821 C819 1.356 . S
H822 C816 0.930 . S
H823 C820 0.930 . S
C824 C826 1.348 . S
C824 C827 1.356 . S
C824 O854 1.325 . S
N825 C828 1.314 . S
N825 C829 1.279 . S
C826 C824 1.348 . S
C826 C828 1.353 . S
C826 H868 0.929 . S
C827 C824 1.356 . S
C827 C829 1.358 . S
C827 H869 0.930 . S
C828 N825 1.314 . S
C828 C826 1.353 . S
C828 H870 0.930 . S
C829 N825 1.279 . S
C829 C827 1.358 . S
C829 H871 0.930 . S
C830 C831 1.348 . S
C830 C832 1.356 . S
C830 O855 1.325 . S
C831 C830 1.348 . S
C831 C833 1.353 . S
C831 H872 0.929 . S
C832 C830 1.356 . S
C832 C834 1.358 . S
C832 H873 0.930 . S
C833 C831 1.353 . S
C833 N835 1.314 . S
C833 H874 0.930 . S
C834 C832 1.358 . S
C834 N835 1.279 . S
C834 H875 0.930 . S
N835 C833 1.314 . S
N835 C834 1.279 . S
C836 C838 1.353 . S
C836 N839 1.314 . S
C836 H842 0.930 . S
C837 N839 1.279 . S
C837 C840 1.358 . S
C837 H843 0.930 . S
C838 C836 1.353 . S
C838 C841 1.348 . S
C838 H876 0.929 . S
N839 Li794 1.990 . S
N839 C836 1.314 . S
N839 C837 1.279 . S
C840 C837 1.358 . S
C840 C841 1.356 . S
C840 H877 0.930 . S
C841 C838 1.348 . S
C841 C840 1.356 . S
H842 C836 0.930 . S
H843 C837 0.930 . S
C844 N845 1.314 . S
C844 C846 1.353 . S
C844 H850 0.930 . S
N845 Li795 1.990 . S
N845 C844 1.314 . S
N845 C848 1.279 . S
C846 C844 1.353 . S
C846 C849 1.348 . S
C846 H878 0.929 . S
C847 C848 1.358 . S
C847 C849 1.356 . S
C847 H879 0.930 . S
C848 N845 1.279 . S
C848 C847 1.358 . S
C848 H851 0.930 . S
C849 C846 1.348 . S
C849 C847 1.356 . S
H850 C844 0.930 . S
H851 C848 0.930 . S
O852 Li792 1.956 . S
O852 Li793 1.970 . S
O852 Li794 1.961 . S
O852 C796 1.325 . S
O853 Li792 1.970 . S
O853 Li793 1.956 . S
O853 Li795 1.961 . S
O853 C802 1.325 . S
O854 Li792 1.961 . S
O854 Li794 1.956 . S
O854 Li795 1.970 . S
O854 C824 1.325 . S
O855 Li793 1.961 . S
O855 Li794 1.970 . S
O855 Li795 1.956 . S
O855 C830 1.325 . S
H856 C798 0.929 . S
H857 C799 0.930 . S
H858 C800 0.930 . S
H859 C801 0.930 . S
H860 C803 0.930 . S
H861 C805 0.929 . S
H862 C806 0.930 . S
H863 C807 0.930 . S
H864 C810 0.930 . S
H865 C813 0.929 . S
H866 C818 0.929 . S
H867 C819 0.930 . S
H868 C826 0.929 . S
H869 C827 0.930 . S
H870 C828 0.930 . S
H871 C829 0.930 . S
H872 C831 0.929 . S
H873 C832 0.930 . S
H874 C833 0.930 . S
H875 C834 0.930 . S
H876 C838 0.929 . S
H877 C840 0.930 . S
H878 C846 0.929 . S
H879 C847 0.930 . S
Li880 N897 1.990 . S
Li880 O940 1.956 . S
Li880 O941 1.970 . S
Li880 O942 1.961 . S
Li881 N905 1.990 . S
Li881 O940 1.970 . S
Li881 O941 1.956 . S
Li881 O943 1.961 . S
Li882 N927 1.990 . S
Li882 O940 1.961 . S
Li882 O942 1.956 . S
Li882 O943 1.970 . S
Li883 N933 1.990 . S
Li883 O941 1.961 . S
Li883 O942 1.970 . S
Li883 O943 1.956 . S
C884 C886 1.348 . S
C884 C887 1.356 . S
C884 O940 1.325 . S
N885 C888 1.314 . S
N885 C889 1.279 . S
C886 C884 1.348 . S
C886 C888 1.353 . S
C886 H944 0.929 . S
C887 C884 1.356 . S
C887 C889 1.358 . S
C887 H945 0.930 . S
C888 N885 1.314 . S
C888 C886 1.353 . S
C888 H946 0.930 . S
C889 N885 1.279 . S
C889 C887 1.358 . S
C889 H947 0.930 . S
C890 C893 1.348 . S
C890 C894 1.356 . S
C890 O941 1.325 . S
C891 N892 1.279 . S
C891 C894 1.358 . S
C891 H948 0.930 . S
N892 C891 1.279 . S
N892 C895 1.314 . S
C893 C890 1.348 . S
C893 C895 1.353 . S
C893 H949 0.929 . S
C894 C890 1.356 . S
C894 C891 1.358 . S
C894 H950 0.930 . S
C895 N892 1.314 . S
C895 C893 1.353 . S
C895 H951 0.930 . S
C896 N897 1.314 . S
C896 C901 1.353 . S
C896 H902 0.930 . S
N897 Li880 1.990 . S
N897 C896 1.314 . S
N897 C899 1.279 . S
C898 C899 1.358 . S
C898 C900 1.356 . S
C898 H952 0.930 . S
C899 N897 1.279 . S
C899 C898 1.358 . S
C899 H903 0.930 . S
C900 C898 1.356 . S
C900 C901 1.348 . S
C901 C896 1.353 . S
C901 C900 1.348 . S
C901 H953 0.929 . S
H902 C896 0.930 . S
H903 C899 0.930 . S
C904 N905 1.314 . S
C904 C906 1.353 . S
C904 H910 0.930 . S
N905 Li881 1.990 . S
N905 C904 1.314 . S
N905 C908 1.279 . S
C906 C904 1.353 . S
C906 C909 1.348 . S
C906 H954 0.929 . S
C907 C908 1.358 . S
C907 C909 1.356 . S
C907 H955 0.930 . S
C908 N905 1.279 . S
C908 C907 1.358 . S
C908 H911 0.930 . S
C909 C906 1.348 . S
C909 C907 1.356 . S
H910 C904 0.930 . S
H911 C908 0.930 . S
C912 C914 1.348 . S
C912 C915 1.356 . S
C912 O942 1.325 . S
N913 C916 1.314 . S
N913 C917 1.279 . S
C914 C912 1.348 . S
C914 C916 1.353 . S
C914 H956 0.929 . S
C915 C912 1.356 . S
C915 C917 1.358 . S
C915 H957 0.930 . S
C916 N913 1.314 . S
C916 C914 1.353 . S
C916 H958 0.930 . S
C917 N913 1.279 . S
C917 C915 1.358 . S
C917 H959 0.930 . S
C918 C919 1.348 . S
C918 C920 1.356 . S
C918 O943 1.325 . S
C919 C918 1.348 . S
C919 C921 1.353 . S
C919 H960 0.929 . S
C920 C918 1.356 . S
C920 C922 1.358 . S
C920 H961 0.930 . S
C921 C919 1.353 . S
C921 N923 1.314 . S
C921 H962 0.930 . S
C922 C920 1.358 . S
C922 N923 1.279 . S
C922 H963 0.930 . S
N923 C921 1.314 . S
N923 C922 1.279 . S
C924 C926 1.353 . S
C924 N927 1.314 . S
C924 H930 0.930 . S
C925 N927 1.279 . S
C925 C928 1.358 . S
C925 H931 0.930 . S
C926 C924 1.353 . S
C926 C929 1.348 . S
C926 H964 0.929 . S
N927 Li882 1.990 . S
N927 C924 1.314 . S
N927 C925 1.279 . S
C928 C925 1.358 . S
C928 C929 1.356 . S
C928 H965 0.930 . S
C929 C926 1.348 . S
C929 C928 1.356 . S
H930 C924 0.930 . S
H931 C925 0.930 . S
C932 N933 1.314 . S
C932 C934 1.353 . S
C932 H938 0.930 . S
N933 Li883 1.990 . S
N933 C932 1.314 . S
N933 C936 1.279 . S
C934 C932 1.353 . S
C934 C937 1.348 . S
C934 H966 0.929 . S
C935 C936 1.358 . S
C935 C937 1.356 . S
C935 H967 0.930 . S
C936 N933 1.279 . S
C936 C935 1.358 . S
C936 H939 0.930 . S
C937 C934 1.348 . S
C937 C935 1.356 . S
H938 C932 0.930 . S
H939 C936 0.930 . S
O940 Li880 1.956 . S
O940 Li881 1.970 . S
O940 Li882 1.961 . S
O940 C884 1.325 . S
O941 Li880 1.970 . S
O941 Li881 1.956 . S
O941 Li883 1.961 . S
O941 C890 1.325 . S
O942 Li880 1.961 . S
O942 Li882 1.956 . S
O942 Li883 1.970 . S
O942 C912 1.325 . S
O943 Li881 1.961 . S
O943 Li882 1.970 . S
O943 Li883 1.956 . S
O943 C918 1.325 . S
H944 C886 0.929 . S
H945 C887 0.930 . S
H946 C888 0.930 . S
H947 C889 0.930 . S
H948 C891 0.930 . S
H949 C893 0.929 . S
H950 C894 0.930 . S
H951 C895 0.930 . S
H952 C898 0.930 . S
H953 C901 0.929 . S
H954 C906 0.929 . S
H955 C907 0.930 . S
H956 C914 0.929 . S
H957 C915 0.930 . S
H958 C916 0.930 . S
H959 C917 0.930 . S
H960 C919 0.929 . S
H961 C920 0.930 . S
H962 C921 0.930 . S
H963 C922 0.930 . S
H964 C926 0.929 . S
H965 C928 0.930 . S
H966 C934 0.929 . S
H967 C935 0.930 . S
Li968 N985 1.990 . S
Li968 O1028 1.956 . S
Li968 O1029 1.970 . S
Li968 O1030 1.961 . S
Li969 N993 1.990 . S
Li969 O1028 1.970 . S
Li969 O1029 1.956 . S
Li969 O1031 1.961 . S
Li970 N1015 1.990 . S
Li970 O1028 1.961 . S
Li970 O1030 1.956 . S
Li970 O1031 1.970 . S
Li971 N1021 1.990 . S
Li971 O1029 1.961 . S
Li971 O1030 1.970 . S
Li971 O1031 1.956 . S
C972 C974 1.348 . S
C972 C975 1.356 . S
C972 O1028 1.325 . S
N973 C976 1.314 . S
N973 C977 1.279 . S
C974 C972 1.348 . S
C974 C976 1.353 . S
C974 H1032 0.929 . S
C975 C972 1.356 . S
C975 C977 1.358 . S
C975 H1033 0.930 . S
C976 N973 1.314 . S
C976 C974 1.353 . S
C976 H1034 0.930 . S
C977 N973 1.279 . S
C977 C975 1.358 . S
C977 H1035 0.930 . S
C978 C981 1.348 . S
C978 C982 1.356 . S
C978 O1029 1.325 . S
C979 N980 1.279 . S
C979 C982 1.358 . S
C979 H1036 0.930 . S
N980 C979 1.279 . S
N980 C983 1.314 . S
C981 C978 1.348 . S
C981 C983 1.353 . S
C981 H1037 0.929 . S
C982 C978 1.356 . S
C982 C979 1.358 . S
C982 H1038 0.930 . S
C983 N980 1.314 . S
C983 C981 1.353 . S
C983 H1039 0.930 . S
C984 N985 1.314 . S
C984 C989 1.353 . S
C984 H990 0.930 . S
N985 Li968 1.990 . S
N985 C984 1.314 . S
N985 C987 1.279 . S
C986 C987 1.358 . S
C986 C988 1.356 . S
C986 H1040 0.930 . S
C987 N985 1.279 . S
C987 C986 1.358 . S
C987 H991 0.930 . S
C988 C986 1.356 . S
C988 C989 1.348 . S
C989 C984 1.353 . S
C989 C988 1.348 . S
C989 H1041 0.929 . S
H990 C984 0.930 . S
H991 C987 0.930 . S
C992 N993 1.314 . S
C992 C994 1.353 . S
C992 H998 0.930 . S
N993 Li969 1.990 . S
N993 C992 1.314 . S
N993 C996 1.279 . S
C994 C992 1.353 . S
C994 C997 1.348 . S
C994 H1042 0.929 . S
C995 C996 1.358 . S
C995 C997 1.356 . S
C995 H1043 0.930 . S
C996 N993 1.279 . S
C996 C995 1.358 . S
C996 H999 0.930 . S
C997 C994 1.348 . S
C997 C995 1.356 . S
H998 C992 0.930 . S
H999 C996 0.930 . S
C1000 C1002 1.348 . S
C1000 C1003 1.356 . S
C1000 O1030 1.325 . S
N1001 C1004 1.314 . S
N1001 C1005 1.279 . S
C1002 C1000 1.348 . S
C1002 C1004 1.353 . S
C1002 H1044 0.929 . S
C1003 C1000 1.356 . S
C1003 C1005 1.358 . S
C1003 H1045 0.930 . S
C1004 N1001 1.314 . S
C1004 C1002 1.353 . S
C1004 H1046 0.930 . S
C1005 N1001 1.279 . S
C1005 C1003 1.358 . S
C1005 H1047 0.930 . S
C1006 C1007 1.348 . S
C1006 C1008 1.356 . S
C1006 O1031 1.325 . S
C1007 C1006 1.348 . S
C1007 C1009 1.353 . S
C1007 H1048 0.929 . S
C1008 C1006 1.356 . S
C1008 C1010 1.358 . S
C1008 H1049 0.930 . S
C1009 C1007 1.353 . S
C1009 N1011 1.314 . S
C1009 H1050 0.930 . S
C1010 C1008 1.358 . S
C1010 N1011 1.279 . S
C1010 H1051 0.930 . S
N1011 C1009 1.314 . S
N1011 C1010 1.279 . S
C1012 C1014 1.353 . S
C1012 N1015 1.314 . S
C1012 H1018 0.930 . S
C1013 N1015 1.279 . S
C1013 C1016 1.358 . S
C1013 H1019 0.930 . S
C1014 C1012 1.353 . S
C1014 C1017 1.348 . S
C1014 H1052 0.929 . S
N1015 Li970 1.990 . S
N1015 C1012 1.314 . S
N1015 C1013 1.279 . S
C1016 C1013 1.358 . S
C1016 C1017 1.356 . S
C1016 H1053 0.930 . S
C1017 C1014 1.348 . S
C1017 C1016 1.356 . S
H1018 C1012 0.930 . S
H1019 C1013 0.930 . S
C1020 N1021 1.314 . S
C1020 C1022 1.353 . S
C1020 H1026 0.930 . S
N1021 Li971 1.990 . S
N1021 C1020 1.314 . S
N1021 C1024 1.279 . S
C1022 C1020 1.353 . S
C1022 C1025 1.348 . S
C1022 H1054 0.929 . S
C1023 C1024 1.358 . S
C1023 C1025 1.356 . S
C1023 H1055 0.930 . S
C1024 N1021 1.279 . S
C1024 C1023 1.358 . S
C1024 H1027 0.930 . S
C1025 C1022 1.348 . S
C1025 C1023 1.356 . S
H1026 C1020 0.930 . S
H1027 C1024 0.930 . S
O1028 Li968 1.956 . S
O1028 Li969 1.970 . S
O1028 Li970 1.961 . S
O1028 C972 1.325 . S
O1029 Li968 1.970 . S
O1029 Li969 1.956 . S
O1029 Li971 1.961 . S
O1029 C978 1.325 . S
O1030 Li968 1.961 . S
O1030 Li970 1.956 . S
O1030 Li971 1.970 . S
O1030 C1000 1.325 . S
O1031 Li969 1.961 . S
O1031 Li970 1.970 . S
O1031 Li971 1.956 . S
O1031 C1006 1.325 . S
H1032 C974 0.929 . S
H1033 C975 0.930 . S
H1034 C976 0.930 . S
H1035 C977 0.930 . S
H1036 C979 0.930 . S
H1037 C981 0.929 . S
H1038 C982 0.930 . S
H1039 C983 0.930 . S
H1040 C986 0.930 . S
H1041 C989 0.929 . S
H1042 C994 0.929 . S
H1043 C995 0.930 . S
H1044 C1002 0.929 . S
H1045 C1003 0.930 . S
H1046 C1004 0.930 . S
H1047 C1005 0.930 . S
H1048 C1007 0.929 . S
H1049 C1008 0.930 . S
H1050 C1009 0.930 . S
H1051 C1010 0.930 . S
H1052 C1014 0.929 . S
H1053 C1016 0.930 . S
H1054 C1022 0.929 . S
H1055 C1023 0.930 . S
H1056 C1074 0.951 . S
H1057 C1076 0.951 . S
H1058 C1078 0.950 . S
H1059 C1079 0.950 . S
H1060 C1081 0.950 . S
H1061 C1084 0.950 . S
H1062 C1085 0.950 . S
H1063 C1087 0.950 . S
H1064 C1088 0.950 . S
H1065 C1089 0.951 . S
H1066 C1091 0.951 . S
H1067 C1093 0.950 . S
H1068 C1094 0.950 . S
H1069 C1096 0.950 . S
H1070 C1099 0.950 . S
H1071 C1100 0.950 . S
H1072 C1102 0.950 . S
H1073 C1103 0.950 . S
C1074 H1056 0.951 . S
C1074 C1075 1.366 . S
C1074 C1076 1.388 . S
C1075 C1074 1.366 . S
C1075 C1079 1.385 . S
C1076 H1057 0.951 . S
C1076 C1074 1.388 . S
C1076 C1077 1.366 . S
C1077 C1076 1.366 . S
C1077 C1078 1.414 . S
C1077 C1080 1.499 . S
C1078 H1058 0.950 . S
C1078 C1077 1.414 . S
C1078 C1079 1.374 . S
C1079 H1059 0.950 . S
C1079 C1075 1.385 . S
C1079 C1078 1.374 . S
C1080 C1077 1.499 . S
C1080 C1081 1.373 . S
C1080 C1082 1.389 . S
C1081 H1060 0.950 . S
C1081 C1080 1.373 . S
C1081 C1097 1.377 . S
C1082 C1080 1.389 . S
C1082 C1083 1.524 . S
C1082 C1096 1.377 . S
C1083 C1082 1.524 . S
C1083 C1084 1.397 . S
C1083 C1088 1.363 . S
C1084 H1061 0.950 . S
C1084 C1083 1.397 . S
C1084 C1085 1.334 . S
C1085 H1062 0.950 . S
C1085 C1084 1.334 . S
C1085 C1086 1.287 . S
C1086 C1085 1.287 . S
C1086 C1087 1.524 . S
C1086 H1105 0.913 . S
C1087 H1063 0.950 . S
C1087 C1086 1.524 . S
C1087 C1088 1.415 . S
C1088 H1064 0.950 . S
C1088 C1083 1.363 . S
C1088 C1087 1.415 . S
C1089 H1065 0.951 . S
C1089 C1090 1.366 . S
C1089 C1091 1.388 . S
C1090 C1089 1.366 . S
C1090 C1094 1.385 . S
C1091 H1066 0.951 . S
C1091 C1089 1.388 . S
C1091 C1092 1.366 . S
C1092 C1091 1.366 . S
C1092 C1093 1.414 . S
C1092 C1095 1.499 . S
C1093 H1067 0.950 . S
C1093 C1092 1.414 . S
C1093 C1094 1.374 . S
C1094 H1068 0.950 . S
C1094 C1090 1.385 . S
C1094 C1093 1.374 . S
C1095 C1092 1.499 . S
C1095 C1096 1.373 . S
C1095 C1097 1.389 . S
C1096 H1069 0.950 . S
C1096 C1082 1.377 . S
C1096 C1095 1.373 . S
C1097 C1081 1.377 . S
C1097 C1095 1.389 . S
C1097 C1098 1.524 . S
C1098 C1097 1.524 . S
C1098 C1099 1.397 . S
C1098 C1103 1.363 . S
C1099 H1070 0.950 . S
C1099 C1098 1.397 . S
C1099 C1100 1.334 . S
C1100 H1071 0.950 . S
C1100 C1099 1.334 . S
C1100 C1101 1.287 . S
C1101 C1100 1.287 . S
C1101 C1102 1.524 . S
C1101 H1104 0.999 . S
C1102 H1072 0.950 . S
C1102 C1101 1.524 . S
C1102 C1103 1.415 . S
C1103 H1073 0.950 . S
C1103 C1098 1.363 . S
C1103 C1102 1.415 . S
H1104 C1101 0.999 . S
H1105 C1086 0.913 . S
H1106 C1124 0.951 . S
H1107 C1126 0.951 . S
H1108 C1128 0.950 . S
H1109 C1129 0.950 . S
H1110 C1131 0.950 . S
H1111 C1134 0.950 . S
H1112 C1135 0.950 . S
H1113 C1137 0.950 . S
H1114 C1138 0.950 . S
H1115 C1139 0.951 . S
H1116 C1141 0.951 . S
H1117 C1143 0.950 . S
H1118 C1144 0.950 . S
H1119 C1146 0.950 . S
H1120 C1149 0.950 . S
H1121 C1150 0.950 . S
H1122 C1152 0.950 . S
H1123 C1153 0.950 . S
C1124 H1106 0.951 . S
C1124 C1125 1.366 . S
C1124 C1126 1.388 . S
C1125 C1124 1.366 . S
C1125 C1129 1.385 . S
C1126 H1107 0.951 . S
C1126 C1124 1.388 . S
C1126 C1127 1.366 . S
C1127 C1126 1.366 . S
C1127 C1128 1.414 . S
C1127 C1130 1.499 . S
C1128 H1108 0.950 . S
C1128 C1127 1.414 . S
C1128 C1129 1.374 . S
C1129 H1109 0.950 . S
C1129 C1125 1.385 . S
C1129 C1128 1.374 . S
C1130 C1127 1.499 . S
C1130 C1131 1.373 . S
C1130 C1132 1.389 . S
C1131 H1110 0.950 . S
C1131 C1130 1.373 . S
C1131 C1147 1.377 . S
C1132 C1130 1.389 . S
C1132 C1133 1.524 . S
C1132 C1146 1.377 . S
C1133 C1132 1.524 . S
C1133 C1134 1.397 . S
C1133 C1138 1.363 . S
C1134 H1111 0.950 . S
C1134 C1133 1.397 . S
C1134 C1135 1.334 . S
C1135 H1112 0.950 . S
C1135 C1134 1.334 . S
C1135 C1136 1.287 . S
C1136 C1135 1.287 . S
C1136 C1137 1.524 . S
C1136 H1155 0.913 . S
C1137 H1113 0.950 . S
C1137 C1136 1.524 . S
C1137 C1138 1.415 . S
C1138 H1114 0.950 . S
C1138 C1133 1.363 . S
C1138 C1137 1.415 . S
C1139 H1115 0.951 . S
C1139 C1140 1.366 . S
C1139 C1141 1.388 . S
C1140 C1139 1.366 . S
C1140 C1144 1.385 . S
C1141 H1116 0.951 . S
C1141 C1139 1.388 . S
C1141 C1142 1.366 . S
C1142 C1141 1.366 . S
C1142 C1143 1.414 . S
C1142 C1145 1.499 . S
C1143 H1117 0.950 . S
C1143 C1142 1.414 . S
C1143 C1144 1.374 . S
C1144 H1118 0.950 . S
C1144 C1140 1.385 . S
C1144 C1143 1.374 . S
C1145 C1142 1.499 . S
C1145 C1146 1.373 . S
C1145 C1147 1.389 . S
C1146 H1119 0.950 . S
C1146 C1132 1.377 . S
C1146 C1145 1.373 . S
C1147 C1131 1.377 . S
C1147 C1145 1.389 . S
C1147 C1148 1.524 . S
C1148 C1147 1.524 . S
C1148 C1149 1.397 . S
C1148 C1153 1.363 . S
C1149 H1120 0.950 . S
C1149 C1148 1.397 . S
C1149 C1150 1.334 . S
C1150 H1121 0.950 . S
C1150 C1149 1.334 . S
C1150 C1151 1.287 . S
C1151 C1150 1.287 . S
C1151 C1152 1.524 . S
C1151 H1154 0.999 . S
C1152 H1122 0.950 . S
C1152 C1151 1.524 . S
C1152 C1153 1.415 . S
C1153 H1123 0.950 . S
C1153 C1148 1.363 . S
C1153 C1152 1.415 . S
H1154 C1151 0.999 . S
H1155 C1136 0.913 . S
H1156 C1174 0.951 . S
H1157 C1176 0.951 . S
H1158 C1178 0.950 . S
H1159 C1179 0.950 . S
H1160 C1181 0.950 . S
H1161 C1184 0.950 . S
H1162 C1185 0.950 . S
H1163 C1187 0.950 . S
H1164 C1188 0.950 . S
H1165 C1189 0.951 . S
H1166 C1191 0.951 . S
H1167 C1193 0.950 . S
H1168 C1194 0.950 . S
H1169 C1196 0.950 . S
H1170 C1199 0.950 . S
H1171 C1200 0.950 . S
H1172 C1202 0.950 . S
H1173 C1203 0.950 . S
C1174 H1156 0.951 . S
C1174 C1175 1.366 . S
C1174 C1176 1.388 . S
C1175 C1174 1.366 . S
C1175 C1179 1.385 . S
C1176 H1157 0.951 . S
C1176 C1174 1.388 . S
C1176 C1177 1.366 . S
C1177 C1176 1.366 . S
C1177 C1178 1.414 . S
C1177 C1180 1.499 . S
C1178 H1158 0.950 . S
C1178 C1177 1.414 . S
C1178 C1179 1.374 . S
C1179 H1159 0.950 . S
C1179 C1175 1.385 . S
C1179 C1178 1.374 . S
C1180 C1177 1.499 . S
C1180 C1181 1.373 . S
C1180 C1182 1.389 . S
C1181 H1160 0.950 . S
C1181 C1180 1.373 . S
C1181 C1197 1.377 . S
C1182 C1180 1.389 . S
C1182 C1183 1.524 . S
C1182 C1196 1.377 . S
C1183 C1182 1.524 . S
C1183 C1184 1.397 . S
C1183 C1188 1.363 . S
C1184 H1161 0.950 . S
C1184 C1183 1.397 . S
C1184 C1185 1.334 . S
C1185 H1162 0.950 . S
C1185 C1184 1.334 . S
C1185 C1186 1.287 . S
C1186 C1185 1.287 . S
C1186 C1187 1.524 . S
C1186 H1205 0.913 . S
C1187 H1163 0.950 . S
C1187 C1186 1.524 . S
C1187 C1188 1.415 . S
C1188 H1164 0.950 . S
C1188 C1183 1.363 . S
C1188 C1187 1.415 . S
C1189 H1165 0.951 . S
C1189 C1190 1.366 . S
C1189 C1191 1.388 . S
C1190 C1189 1.366 . S
C1190 C1194 1.385 . S
C1191 H1166 0.951 . S
C1191 C1189 1.388 . S
C1191 C1192 1.366 . S
C1192 C1191 1.366 . S
C1192 C1193 1.414 . S
C1192 C1195 1.499 . S
C1193 H1167 0.950 . S
C1193 C1192 1.414 . S
C1193 C1194 1.374 . S
C1194 H1168 0.950 . S
C1194 C1190 1.385 . S
C1194 C1193 1.374 . S
C1195 C1192 1.499 . S
C1195 C1196 1.373 . S
C1195 C1197 1.389 . S
C1196 H1169 0.950 . S
C1196 C1182 1.377 . S
C1196 C1195 1.373 . S
C1197 C1181 1.377 . S
C1197 C1195 1.389 . S
C1197 C1198 1.524 . S
C1198 C1197 1.524 . S
C1198 C1199 1.397 . S
C1198 C1203 1.363 . S
C1199 H1170 0.950 . S
C1199 C1198 1.397 . S
C1199 C1200 1.334 . S
C1200 H1171 0.950 . S
C1200 C1199 1.334 . S
C1200 C1201 1.287 . S
C1201 C1200 1.287 . S
C1201 C1202 1.524 . S
C1201 H1204 0.999 . S
C1202 H1172 0.950 . S
C1202 C1201 1.524 . S
C1202 C1203 1.415 . S
C1203 H1173 0.950 . S
C1203 C1198 1.363 . S
C1203 C1202 1.415 . S
H1204 C1201 0.999 . S
H1205 C1186 0.913 . S
H1206 C1224 0.951 . S
H1207 C1226 0.951 . S
H1208 C1228 0.950 . S
H1209 C1229 0.950 . S
H1210 C1231 0.950 . S
H1211 C1234 0.950 . S
H1212 C1235 0.950 . S
H1213 C1237 0.950 . S
H1214 C1238 0.950 . S
H1215 C1239 0.951 . S
H1216 C1241 0.951 . S
H1217 C1243 0.950 . S
H1218 C1244 0.950 . S
H1219 C1246 0.950 . S
H1220 C1249 0.950 . S
H1221 C1250 0.950 . S
H1222 C1252 0.950 . S
H1223 C1253 0.950 . S
C1224 H1206 0.951 . S
C1224 C1225 1.366 . S
C1224 C1226 1.388 . S
C1225 C1224 1.366 . S
C1225 C1229 1.385 . S
C1226 H1207 0.951 . S
C1226 C1224 1.388 . S
C1226 C1227 1.366 . S
C1227 C1226 1.366 . S
C1227 C1228 1.414 . S
C1227 C1230 1.499 . S
C1228 H1208 0.950 . S
C1228 C1227 1.414 . S
C1228 C1229 1.374 . S
C1229 H1209 0.950 . S
C1229 C1225 1.385 . S
C1229 C1228 1.374 . S
C1230 C1227 1.499 . S
C1230 C1231 1.373 . S
C1230 C1232 1.389 . S
C1231 H1210 0.950 . S
C1231 C1230 1.373 . S
C1231 C1247 1.377 . S
C1232 C1230 1.389 . S
C1232 C1233 1.524 . S
C1232 C1246 1.377 . S
C1233 C1232 1.524 . S
C1233 C1234 1.397 . S
C1233 C1238 1.363 . S
C1234 H1211 0.950 . S
C1234 C1233 1.397 . S
C1234 C1235 1.334 . S
C1235 H1212 0.950 . S
C1235 C1234 1.334 . S
C1235 C1236 1.287 . S
C1236 C1235 1.287 . S
C1236 C1237 1.524 . S
C1236 H1255 0.913 . S
C1237 H1213 0.950 . S
C1237 C1236 1.524 . S
C1237 C1238 1.415 . S
C1238 H1214 0.950 . S
C1238 C1233 1.363 . S
C1238 C1237 1.415 . S
C1239 H1215 0.951 . S
C1239 C1240 1.366 . S
C1239 C1241 1.388 . S
C1240 C1239 1.366 . S
C1240 C1244 1.385 . S
C1241 H1216 0.951 . S
C1241 C1239 1.388 . S
C1241 C1242 1.366 . S
C1242 C1241 1.366 . S
C1242 C1243 1.414 . S
C1242 C1245 1.499 . S
C1243 H1217 0.950 . S
C1243 C1242 1.414 . S
C1243 C1244 1.374 . S
C1244 H1218 0.950 . S
C1244 C1240 1.385 . S
C1244 C1243 1.374 . S
C1245 C1242 1.499 . S
C1245 C1246 1.373 . S
C1245 C1247 1.389 . S
C1246 H1219 0.950 . S
C1246 C1232 1.377 . S
C1246 C1245 1.373 . S
C1247 C1231 1.377 . S
C1247 C1245 1.389 . S
C1247 C1248 1.524 . S
C1248 C1247 1.524 . S
C1248 C1249 1.397 . S
C1248 C1253 1.363 . S
C1249 H1220 0.950 . S
C1249 C1248 1.397 . S
C1249 C1250 1.334 . S
C1250 H1221 0.950 . S
C1250 C1249 1.334 . S
C1250 C1251 1.287 . S
C1251 C1250 1.287 . S
C1251 C1252 1.524 . S
C1251 H1254 0.999 . S
C1252 H1222 0.950 . S
C1252 C1251 1.524 . S
C1252 C1253 1.415 . S
C1253 H1223 0.950 . S
C1253 C1248 1.363 . S
C1253 C1252 1.415 . S
H1254 C1251 0.999 . S
H1255 C1236 0.913 . S
H1256 C1274 0.951 . S
H1257 C1276 0.951 . S
H1258 C1278 0.950 . S
H1259 C1279 0.950 . S
H1260 C1281 0.950 . S
H1261 C1284 0.950 . S
H1262 C1285 0.950 . S
H1263 C1287 0.950 . S
H1264 C1288 0.950 . S
H1265 C1289 0.951 . S
H1266 C1291 0.951 . S
H1267 C1293 0.950 . S
H1268 C1294 0.950 . S
H1269 C1296 0.950 . S
H1270 C1299 0.950 . S
H1271 C1300 0.950 . S
H1272 C1302 0.950 . S
H1273 C1303 0.950 . S
C1274 H1256 0.951 . S
C1274 C1275 1.366 . S
C1274 C1276 1.388 . S
C1275 C1274 1.366 . S
C1275 C1279 1.385 . S
C1276 H1257 0.951 . S
C1276 C1274 1.388 . S
C1276 C1277 1.366 . S
C1277 C1276 1.366 . S
C1277 C1278 1.414 . S
C1277 C1280 1.499 . S
C1278 H1258 0.950 . S
C1278 C1277 1.414 . S
C1278 C1279 1.374 . S
C1279 H1259 0.950 . S
C1279 C1275 1.385 . S
C1279 C1278 1.374 . S
C1280 C1277 1.499 . S
C1280 C1281 1.373 1_554 S
C1280 C1282 1.389 . S
C1281 H1260 0.950 . S
C1281 C1280 1.373 1_556 S
C1281 C1297 1.377 . S
C1282 C1280 1.389 . S
C1282 C1283 1.524 . S
C1282 C1296 1.377 1_554 S
C1283 C1282 1.524 . S
C1283 C1284 1.397 . S
C1283 C1288 1.363 . S
C1284 H1261 0.950 . S
C1284 C1283 1.397 . S
C1284 C1285 1.334 . S
C1285 H1262 0.950 . S
C1285 C1284 1.334 . S
C1285 C1286 1.287 . S
C1286 C1285 1.287 . S
C1286 C1287 1.524 . S
C1286 H1305 0.913 . S
C1287 H1263 0.950 . S
C1287 C1286 1.524 . S
C1287 C1288 1.415 . S
C1288 H1264 0.950 . S
C1288 C1283 1.363 . S
C1288 C1287 1.415 . S
C1289 H1265 0.951 . S
C1289 C1290 1.366 . S
C1289 C1291 1.388 . S
C1290 C1289 1.366 . S
C1290 C1294 1.385 . S
C1291 H1266 0.951 . S
C1291 C1289 1.388 . S
C1291 C1292 1.366 . S
C1292 C1291 1.366 . S
C1292 C1293 1.414 . S
C1292 C1295 1.499 . S
C1293 H1267 0.950 . S
C1293 C1292 1.414 . S
C1293 C1294 1.374 . S
C1294 H1268 0.950 . S
C1294 C1290 1.385 . S
C1294 C1293 1.374 . S
C1295 C1292 1.499 . S
C1295 C1296 1.373 . S
C1295 C1297 1.389 . S
C1296 H1269 0.950 . S
C1296 C1282 1.377 1_556 S
C1296 C1295 1.373 . S
C1297 C1281 1.377 . S
C1297 C1295 1.389 . S
C1297 C1298 1.524 . S
C1298 C1297 1.524 . S
C1298 C1299 1.397 . S
C1298 C1303 1.363 . S
C1299 H1270 0.950 . S
C1299 C1298 1.397 . S
C1299 C1300 1.334 . S
C1300 H1271 0.950 . S
C1300 C1299 1.334 . S
C1300 C1301 1.287 . S
C1301 C1300 1.287 . S
C1301 C1302 1.524 . S
C1301 H1304 0.999 . S
C1302 H1272 0.950 . S
C1302 C1301 1.524 . S
C1302 C1303 1.415 . S
C1303 H1273 0.950 . S
C1303 C1298 1.363 . S
C1303 C1302 1.415 . S
H1304 C1301 0.999 . S
H1305 C1286 0.913 . S
H1306 C1324 0.951 . S
H1307 C1326 0.951 . S
H1308 C1328 0.950 . S
H1309 C1329 0.950 . S
H1310 C1331 0.950 . S
H1311 C1334 0.950 . S
H1312 C1335 0.950 . S
H1313 C1337 0.950 . S
H1314 C1338 0.950 . S
H1315 C1339 0.951 . S
H1316 C1341 0.951 . S
H1317 C1343 0.950 . S
H1318 C1344 0.950 . S
H1319 C1346 0.950 . S
H1320 C1349 0.950 . S
H1321 C1350 0.950 . S
H1322 C1352 0.950 . S
H1323 C1353 0.950 . S
C1324 H1306 0.951 . S
C1324 C1325 1.366 . S
C1324 C1326 1.388 . S
C1325 C1324 1.366 . S
C1325 C1329 1.385 . S
C1326 H1307 0.951 . S
C1326 C1324 1.388 . S
C1326 C1327 1.366 . S
C1327 C1326 1.366 . S
C1327 C1328 1.414 . S
C1327 C1330 1.499 . S
C1328 H1308 0.950 . S
C1328 C1327 1.414 . S
C1328 C1329 1.374 . S
C1329 H1309 0.950 . S
C1329 C1325 1.385 . S
C1329 C1328 1.374 . S
C1330 C1327 1.499 . S
C1330 C1331 1.373 . S
C1330 C1332 1.389 . S
C1331 H1310 0.950 . S
C1331 C1330 1.373 . S
C1331 C1347 1.377 . S
C1332 C1330 1.389 . S
C1332 C1333 1.524 . S
C1332 C1346 1.377 . S
C1333 C1332 1.524 . S
C1333 C1334 1.397 . S
C1333 C1338 1.363 . S
C1334 H1311 0.950 . S
C1334 C1333 1.397 . S
C1334 C1335 1.334 . S
C1335 H1312 0.950 . S
C1335 C1334 1.334 . S
C1335 C1336 1.287 . S
C1336 C1335 1.287 . S
C1336 C1337 1.524 . S
C1336 H1355 0.913 . S
C1337 H1313 0.950 . S
C1337 C1336 1.524 . S
C1337 C1338 1.415 . S
C1338 H1314 0.950 . S
C1338 C1333 1.363 . S
C1338 C1337 1.415 . S
C1339 H1315 0.951 . S
C1339 C1340 1.366 . S
C1339 C1341 1.388 . S
C1340 C1339 1.366 . S
C1340 C1344 1.385 . S
C1341 H1316 0.951 . S
C1341 C1339 1.388 . S
C1341 C1342 1.366 . S
C1342 C1341 1.366 . S
C1342 C1343 1.414 . S
C1342 C1345 1.499 . S
C1343 H1317 0.950 . S
C1343 C1342 1.414 . S
C1343 C1344 1.374 . S
C1344 H1318 0.950 . S
C1344 C1340 1.385 . S
C1344 C1343 1.374 . S
C1345 C1342 1.499 . S
C1345 C1346 1.373 . S
C1345 C1347 1.389 . S
C1346 H1319 0.950 . S
C1346 C1332 1.377 . S
C1346 C1345 1.373 . S
C1347 C1331 1.377 . S
C1347 C1345 1.389 . S
C1347 C1348 1.524 . S
C1348 C1347 1.524 . S
C1348 C1349 1.397 . S
C1348 C1353 1.363 . S
C1349 H1320 0.950 . S
C1349 C1348 1.397 . S
C1349 C1350 1.334 . S
C1350 H1321 0.950 . S
C1350 C1349 1.334 . S
C1350 C1351 1.287 . S
C1351 C1350 1.287 . S
C1351 C1352 1.524 . S
C1351 H1354 0.999 . S
C1352 H1322 0.950 . S
C1352 C1351 1.524 . S
C1352 C1353 1.415 . S
C1353 H1323 0.950 . S
C1353 C1348 1.363 . S
C1353 C1352 1.415 . S
H1354 C1351 0.999 . S
H1355 C1336 0.913 . S
H1356 C1374 0.951 . S
H1357 C1376 0.951 . S
H1358 C1378 0.950 . S
H1359 C1379 0.950 . S
H1360 C1381 0.950 . S
H1361 C1384 0.950 . S
H1362 C1385 0.950 . S
H1363 C1387 0.950 . S
H1364 C1388 0.950 . S
H1365 C1389 0.951 . S
H1366 C1391 0.951 . S
H1367 C1393 0.950 . S
H1368 C1394 0.950 . S
H1369 C1396 0.950 . S
H1370 C1399 0.950 . S
H1371 C1400 0.950 . S
H1372 C1402 0.950 . S
H1373 C1403 0.950 . S
C1374 H1356 0.951 . S
C1374 C1375 1.366 . S
C1374 C1376 1.388 . S
C1375 C1374 1.366 . S
C1375 C1379 1.385 . S
C1376 H1357 0.951 . S
C1376 C1374 1.388 . S
C1376 C1377 1.366 . S
C1377 C1376 1.366 . S
C1377 C1378 1.414 . S
C1377 C1380 1.499 . S
C1378 H1358 0.950 . S
C1378 C1377 1.414 . S
C1378 C1379 1.374 . S
C1379 H1359 0.950 . S
C1379 C1375 1.385 . S
C1379 C1378 1.374 . S
C1380 C1377 1.499 . S
C1380 C1381 1.373 . S
C1380 C1382 1.389 . S
C1381 H1360 0.950 . S
C1381 C1380 1.373 . S
C1381 C1397 1.377 . S
C1382 C1380 1.389 . S
C1382 C1383 1.524 . S
C1382 C1396 1.377 . S
C1383 C1382 1.524 . S
C1383 C1384 1.397 . S
C1383 C1388 1.363 . S
C1384 H1361 0.950 . S
C1384 C1383 1.397 . S
C1384 C1385 1.334 . S
C1385 H1362 0.950 . S
C1385 C1384 1.334 . S
C1385 C1386 1.287 . S
C1386 C1385 1.287 . S
C1386 C1387 1.524 . S
C1386 H1405 0.913 . S
C1387 H1363 0.950 . S
C1387 C1386 1.524 . S
C1387 C1388 1.415 . S
C1388 H1364 0.950 . S
C1388 C1383 1.363 . S
C1388 C1387 1.415 . S
C1389 H1365 0.951 . S
C1389 C1390 1.366 . S
C1389 C1391 1.388 . S
C1390 C1389 1.366 . S
C1390 C1394 1.385 . S
C1391 H1366 0.951 . S
C1391 C1389 1.388 . S
C1391 C1392 1.366 . S
C1392 C1391 1.366 . S
C1392 C1393 1.414 . S
C1392 C1395 1.499 . S
C1393 H1367 0.950 . S
C1393 C1392 1.414 . S
C1393 C1394 1.374 . S
C1394 H1368 0.950 . S
C1394 C1390 1.385 . S
C1394 C1393 1.374 . S
C1395 C1392 1.499 . S
C1395 C1396 1.373 . S
C1395 C1397 1.389 . S
C1396 H1369 0.950 . S
C1396 C1382 1.377 . S
C1396 C1395 1.373 . S
C1397 C1381 1.377 . S
C1397 C1395 1.389 . S
C1397 C1398 1.524 . S
C1398 C1397 1.524 . S
C1398 C1399 1.397 . S
C1398 C1403 1.363 . S
C1399 H1370 0.950 . S
C1399 C1398 1.397 . S
C1399 C1400 1.334 . S
C1400 H1371 0.950 . S
C1400 C1399 1.334 . S
C1400 C1401 1.287 . S
C1401 C1400 1.287 . S
C1401 C1402 1.524 . S
C1401 H1404 0.999 . S
C1402 H1372 0.950 . S
C1402 C1401 1.524 . S
C1402 C1403 1.415 . S
C1403 H1373 0.950 . S
C1403 C1398 1.363 . S
C1403 C1402 1.415 . S
H1404 C1401 0.999 . S
H1405 C1386 0.913 . S
H1406 C1424 0.951 . S
H1407 C1426 0.951 . S
H1408 C1428 0.950 . S
H1409 C1429 0.950 . S
H1410 C1431 0.950 . S
H1411 C1434 0.950 . S
H1412 C1435 0.950 . S
H1413 C1437 0.950 . S
H1414 C1438 0.950 . S
H1415 C1439 0.951 . S
H1416 C1441 0.951 . S
H1417 C1443 0.950 . S
H1418 C1444 0.950 . S
H1419 C1446 0.950 . S
H1420 C1449 0.950 . S
H1421 C1450 0.950 . S
H1422 C1452 0.950 . S
H1423 C1453 0.950 . S
C1424 H1406 0.951 . S
C1424 C1425 1.366 . S
C1424 C1426 1.388 . S
C1425 C1424 1.366 . S
C1425 C1429 1.385 . S
C1426 H1407 0.951 . S
C1426 C1424 1.388 . S
C1426 C1427 1.366 . S
C1427 C1426 1.366 . S
C1427 C1428 1.414 . S
C1427 C1430 1.499 . S
C1428 H1408 0.950 . S
C1428 C1427 1.414 . S
C1428 C1429 1.374 . S
C1429 H1409 0.950 . S
C1429 C1425 1.385 . S
C1429 C1428 1.374 . S
C1430 C1427 1.499 . S
C1430 C1431 1.373 . S
C1430 C1432 1.389 . S
C1431 H1410 0.950 . S
C1431 C1430 1.373 . S
C1431 C1447 1.377 . S
C1432 C1430 1.389 . S
C1432 C1433 1.524 . S
C1432 C1446 1.377 . S
C1433 C1432 1.524 . S
C1433 C1434 1.397 . S
C1433 C1438 1.363 . S
C1434 H1411 0.950 . S
C1434 C1433 1.397 . S
C1434 C1435 1.334 . S
C1435 H1412 0.950 . S
C1435 C1434 1.334 . S
C1435 C1436 1.287 . S
C1436 C1435 1.287 . S
C1436 C1437 1.524 . S
C1436 H1455 0.913 . S
C1437 H1413 0.950 . S
C1437 C1436 1.524 . S
C1437 C1438 1.415 . S
C1438 H1414 0.950 . S
C1438 C1433 1.363 . S
C1438 C1437 1.415 . S
C1439 H1415 0.951 . S
C1439 C1440 1.366 . S
C1439 C1441 1.388 . S
C1440 C1439 1.366 . S
C1440 C1444 1.385 . S
C1441 H1416 0.951 . S
C1441 C1439 1.388 . S
C1441 C1442 1.366 . S
C1442 C1441 1.366 . S
C1442 C1443 1.414 . S
C1442 C1445 1.499 . S
C1443 H1417 0.950 . S
C1443 C1442 1.414 . S
C1443 C1444 1.374 . S
C1444 H1418 0.950 . S
C1444 C1440 1.385 . S
C1444 C1443 1.374 . S
C1445 C1442 1.499 . S
C1445 C1446 1.373 . S
C1445 C1447 1.389 . S
C1446 H1419 0.950 . S
C1446 C1432 1.377 . S
C1446 C1445 1.373 . S
C1447 C1431 1.377 . S
C1447 C1445 1.389 . S
C1447 C1448 1.524 . S
C1448 C1447 1.524 . S
C1448 C1449 1.397 . S
C1448 C1453 1.363 . S
C1449 H1420 0.950 . S
C1449 C1448 1.397 . S
C1449 C1450 1.334 . S
C1450 H1421 0.950 . S
C1450 C1449 1.334 . S
C1450 C1451 1.287 . S
C1451 C1450 1.287 . S
C1451 C1452 1.524 . S
C1451 H1454 0.999 . S
C1452 H1422 0.950 . S
C1452 C1451 1.524 . S
C1452 C1453 1.415 . S
C1453 H1423 0.950 . S
C1453 C1448 1.363 . S
C1453 C1452 1.415 . S
H1454 C1451 0.999 . S
H1455 C1436 0.913 . S
H1456 C1474 0.951 . S
H1457 C1476 0.951 . S
H1458 C1478 0.950 . S
H1459 C1479 0.950 . S
H1460 C1481 0.950 . S
H1461 C1484 0.950 . S
H1462 C1485 0.950 . S
H1463 C1487 0.950 . S
H1464 C1488 0.950 . S
H1465 C1489 0.951 . S
H1466 C1491 0.951 . S
H1467 C1493 0.950 . S
H1468 C1494 0.950 . S
H1469 C1496 0.950 . S
H1470 C1499 0.950 . S
H1471 C1500 0.950 . S
H1472 C1502 0.950 . S
H1473 C1503 0.950 . S
C1474 H1456 0.951 . S
C1474 C1475 1.366 . S
C1474 C1476 1.388 . S
C1475 C1474 1.366 . S
C1475 C1479 1.385 . S
C1476 H1457 0.951 . S
C1476 C1474 1.388 . S
C1476 C1477 1.366 . S
C1477 C1476 1.366 . S
C1477 C1478 1.414 . S
C1477 C1480 1.499 . S
C1478 H1458 0.950 . S
C1478 C1477 1.414 . S
C1478 C1479 1.374 . S
C1479 H1459 0.950 . S
C1479 C1475 1.385 . S
C1479 C1478 1.374 . S
C1480 C1477 1.499 . S
C1480 C1481 1.373 . S
C1480 C1482 1.389 . S
C1481 H1460 0.950 . S
C1481 C1480 1.373 . S
C1481 C1497 1.377 . S
C1482 C1480 1.389 . S
C1482 C1483 1.524 . S
C1482 C1496 1.377 . S
C1483 C1482 1.524 . S
C1483 C1484 1.397 . S
C1483 C1488 1.363 . S
C1484 H1461 0.950 . S
C1484 C1483 1.397 . S
C1484 C1485 1.334 . S
C1485 H1462 0.950 . S
C1485 C1484 1.334 . S
C1485 C1486 1.287 . S
C1486 C1485 1.287 . S
C1486 C1487 1.524 . S
C1486 H1505 0.913 . S
C1487 H1463 0.950 . S
C1487 C1486 1.524 . S
C1487 C1488 1.415 . S
C1488 H1464 0.950 . S
C1488 C1483 1.363 . S
C1488 C1487 1.415 . S
C1489 H1465 0.951 . S
C1489 C1490 1.366 . S
C1489 C1491 1.388 . S
C1490 C1489 1.366 . S
C1490 C1494 1.385 . S
C1491 H1466 0.951 . S
C1491 C1489 1.388 . S
C1491 C1492 1.366 . S
C1492 C1491 1.366 . S
C1492 C1493 1.414 . S
C1492 C1495 1.499 . S
C1493 H1467 0.950 . S
C1493 C1492 1.414 . S
C1493 C1494 1.374 . S
C1494 H1468 0.950 . S
C1494 C1490 1.385 . S
C1494 C1493 1.374 . S
C1495 C1492 1.499 . S
C1495 C1496 1.373 . S
C1495 C1497 1.389 . S
C1496 H1469 0.950 . S
C1496 C1482 1.377 . S
C1496 C1495 1.373 . S
C1497 C1481 1.377 . S
C1497 C1495 1.389 . S
C1497 C1498 1.524 . S
C1498 C1497 1.524 . S
C1498 C1499 1.397 . S
C1498 C1503 1.363 . S
C1499 H1470 0.950 . S
C1499 C1498 1.397 . S
C1499 C1500 1.334 . S
C1500 H1471 0.950 . S
C1500 C1499 1.334 . S
C1500 C1501 1.287 . S
C1501 C1500 1.287 . S
C1501 C1502 1.524 . S
C1501 H1504 0.999 . S
C1502 H1472 0.950 . S
C1502 C1501 1.524 . S
C1502 C1503 1.415 . S
C1503 H1473 0.950 . S
C1503 C1498 1.363 . S
C1503 C1502 1.415 . S
H1504 C1501 0.999 . S
H1505 C1486 0.913 . S
H1506 C1524 0.951 . S
H1507 C1526 0.951 . S
H1508 C1528 0.950 . S
H1509 C1529 0.950 . S
H1510 C1531 0.950 . S
H1511 C1534 0.950 . S
H1512 C1535 0.950 . S
H1513 C1537 0.950 . S
H1514 C1538 0.950 . S
H1515 C1539 0.951 . S
H1516 C1541 0.951 . S
H1517 C1543 0.950 . S
H1518 C1544 0.950 . S
H1519 C1546 0.950 . S
H1520 C1549 0.950 . S
H1521 C1550 0.950 . S
H1522 C1552 0.950 . S
H1523 C1553 0.950 . S
C1524 H1506 0.951 . S
C1524 C1525 1.366 . S
C1524 C1526 1.388 . S
C1525 C1524 1.366 . S
C1525 C1529 1.385 . S
C1526 H1507 0.951 . S
C1526 C1524 1.388 . S
C1526 C1527 1.366 . S
C1527 C1526 1.366 . S
C1527 C1528 1.414 . S
C1527 C1530 1.499 . S
C1528 H1508 0.950 . S
C1528 C1527 1.414 . S
C1528 C1529 1.374 . S
C1529 H1509 0.950 . S
C1529 C1525 1.385 . S
C1529 C1528 1.374 . S
C1530 C1527 1.499 . S
C1530 C1531 1.373 . S
C1530 C1532 1.389 . S
C1531 H1510 0.950 . S
C1531 C1530 1.373 . S
C1531 C1547 1.377 . S
C1532 C1530 1.389 . S
C1532 C1533 1.524 . S
C1532 C1546 1.377 . S
C1533 C1532 1.524 . S
C1533 C1534 1.397 . S
C1533 C1538 1.363 . S
C1534 H1511 0.950 . S
C1534 C1533 1.397 . S
C1534 C1535 1.334 . S
C1535 H1512 0.950 . S
C1535 C1534 1.334 . S
C1535 C1536 1.287 . S
C1536 C1535 1.287 . S
C1536 C1537 1.524 . S
C1536 H1555 0.913 . S
C1537 H1513 0.950 . S
C1537 C1536 1.524 . S
C1537 C1538 1.415 . S
C1538 H1514 0.950 . S
C1538 C1533 1.363 . S
C1538 C1537 1.415 . S
C1539 H1515 0.951 . S
C1539 C1540 1.366 . S
C1539 C1541 1.388 . S
C1540 C1539 1.366 . S
C1540 C1544 1.385 . S
C1541 H1516 0.951 . S
C1541 C1539 1.388 . S
C1541 C1542 1.366 . S
C1542 C1541 1.366 . S
C1542 C1543 1.414 . S
C1542 C1545 1.499 . S
C1543 H1517 0.950 . S
C1543 C1542 1.414 . S
C1543 C1544 1.374 . S
C1544 H1518 0.950 . S
C1544 C1540 1.385 . S
C1544 C1543 1.374 . S
C1545 C1542 1.499 . S
C1545 C1546 1.373 . S
C1545 C1547 1.389 . S
C1546 H1519 0.950 . S
C1546 C1532 1.377 . S
C1546 C1545 1.373 . S
C1547 C1531 1.377 . S
C1547 C1545 1.389 . S
C1547 C1548 1.524 . S
C1548 C1547 1.524 . S
C1548 C1549 1.397 . S
C1548 C1553 1.363 . S
C1549 H1520 0.950 . S
C1549 C1548 1.397 . S
C1549 C1550 1.334 . S
C1550 H1521 0.950 . S
C1550 C1549 1.334 . S
C1550 C1551 1.287 . S
C1551 C1550 1.287 . S
C1551 C1552 1.524 . S
C1551 H1554 0.999 . S
C1552 H1522 0.950 . S
C1552 C1551 1.524 . S
C1552 C1553 1.415 . S
C1553 H1523 0.950 . S
C1553 C1548 1.363 . S
C1553 C1552 1.415 . S
H1554 C1551 0.999 . S
H1555 C1536 0.913 . S
H1556 C1574 0.951 . S
H1557 C1576 0.951 . S
H1558 C1578 0.950 . S
H1559 C1579 0.950 . S
H1560 C1581 0.950 . S
H1561 C1584 0.950 . S
H1562 C1585 0.950 . S
H1563 C1587 0.950 . S
H1564 C1588 0.950 . S
H1565 C1589 0.951 . S
H1566 C1591 0.951 . S
H1567 C1593 0.950 . S
H1568 C1594 0.950 . S
H1569 C1596 0.950 . S
H1570 C1599 0.950 . S
H1571 C1600 0.950 . S
H1572 C1602 0.950 . S
H1573 C1603 0.950 . S
C1574 H1556 0.951 . S
C1574 C1575 1.366 . S
C1574 C1576 1.388 . S
C1575 C1574 1.366 . S
C1575 C1579 1.385 . S
C1576 H1557 0.951 . S
C1576 C1574 1.388 . S
C1576 C1577 1.366 . S
C1577 C1576 1.366 . S
C1577 C1578 1.414 . S
C1577 C1580 1.499 . S
C1578 H1558 0.950 . S
C1578 C1577 1.414 . S
C1578 C1579 1.374 . S
C1579 H1559 0.950 . S
C1579 C1575 1.385 . S
C1579 C1578 1.374 . S
C1580 C1577 1.499 . S
C1580 C1581 1.373 . S
C1580 C1582 1.389 . S
C1581 H1560 0.950 . S
C1581 C1580 1.373 . S
C1581 C1597 1.377 . S
C1582 C1580 1.389 . S
C1582 C1583 1.524 . S
C1582 C1596 1.377 . S
C1583 C1582 1.524 . S
C1583 C1584 1.397 . S
C1583 C1588 1.363 . S
C1584 H1561 0.950 . S
C1584 C1583 1.397 . S
C1584 C1585 1.334 . S
C1585 H1562 0.950 . S
C1585 C1584 1.334 . S
C1585 C1586 1.287 . S
C1586 C1585 1.287 . S
C1586 C1587 1.524 . S
C1586 H1605 0.913 . S
C1587 H1563 0.950 . S
C1587 C1586 1.524 . S
C1587 C1588 1.415 . S
C1588 H1564 0.950 . S
C1588 C1583 1.363 . S
C1588 C1587 1.415 . S
C1589 H1565 0.951 . S
C1589 C1590 1.366 . S
C1589 C1591 1.388 . S
C1590 C1589 1.366 . S
C1590 C1594 1.385 . S
C1591 H1566 0.951 . S
C1591 C1589 1.388 . S
C1591 C1592 1.366 . S
C1592 C1591 1.366 . S
C1592 C1593 1.414 . S
C1592 C1595 1.499 . S
C1593 H1567 0.950 . S
C1593 C1592 1.414 . S
C1593 C1594 1.374 . S
C1594 H1568 0.950 . S
C1594 C1590 1.385 . S
C1594 C1593 1.374 . S
C1595 C1592 1.499 . S
C1595 C1596 1.373 . S
C1595 C1597 1.389 . S
C1596 H1569 0.950 . S
C1596 C1582 1.377 . S
C1596 C1595 1.373 . S
C1597 C1581 1.377 . S
C1597 C1595 1.389 . S
C1597 C1598 1.524 . S
C1598 C1597 1.524 . S
C1598 C1599 1.397 . S
C1598 C1603 1.363 . S
C1599 H1570 0.950 . S
C1599 C1598 1.397 . S
C1599 C1600 1.334 . S
C1600 H1571 0.950 . S
C1600 C1599 1.334 . S
C1600 C1601 1.287 . S
C1601 C1600 1.287 . S
C1601 C1602 1.524 . S
C1601 H1604 0.999 . S
C1602 H1572 0.950 . S
C1602 C1601 1.524 . S
C1602 C1603 1.415 . S
C1603 H1573 0.950 . S
C1603 C1598 1.363 . S
C1603 C1602 1.415 . S
H1604 C1601 0.999 . S
H1605 C1586 0.913 . S
H1606 C1624 0.951 . S
H1607 C1626 0.951 . S
H1608 C1628 0.950 . S
H1609 C1629 0.950 . S
H1610 C1631 0.950 . S
H1611 C1634 0.950 . S
H1612 C1635 0.950 . S
H1613 C1637 0.950 . S
H1614 C1638 0.950 . S
H1615 C1639 0.951 . S
H1616 C1641 0.951 . S
H1617 C1643 0.950 1_556 S
H1618 C1644 0.950 . S
H1619 C1646 0.950 . S
H1620 C1649 0.950 . S
H1621 C1650 0.950 . S
H1622 C1652 0.950 . S
H1623 C1653 0.950 . S
C1624 H1606 0.951 . S
C1624 C1625 1.366 . S
C1624 C1626 1.388 . S
C1625 C1624 1.366 . S
C1625 C1629 1.385 . S
C1626 H1607 0.951 . S
C1626 C1624 1.388 . S
C1626 C1627 1.366 . S
C1627 C1626 1.366 . S
C1627 C1628 1.414 . S
C1627 C1630 1.499 . S
C1628 H1608 0.950 . S
C1628 C1627 1.414 . S
C1628 C1629 1.374 . S
C1629 H1609 0.950 . S
C1629 C1625 1.385 . S
C1629 C1628 1.374 . S
C1630 C1627 1.499 . S
C1630 C1631 1.373 . S
C1630 C1632 1.389 . S
C1631 H1610 0.950 . S
C1631 C1630 1.373 . S
C1631 C1647 1.377 . S
C1632 C1630 1.389 . S
C1632 C1633 1.524 . S
C1632 C1646 1.377 . S
C1633 C1632 1.524 . S
C1633 C1634 1.397 . S
C1633 C1638 1.363 . S
C1634 H1611 0.950 . S
C1634 C1633 1.397 . S
C1634 C1635 1.334 . S
C1635 H1612 0.950 . S
C1635 C1634 1.334 . S
C1635 C1636 1.287 . S
C1636 C1635 1.287 . S
C1636 C1637 1.524 . S
C1636 H1655 0.913 . S
C1637 H1613 0.950 . S
C1637 C1636 1.524 . S
C1637 C1638 1.415 . S
C1638 H1614 0.950 . S
C1638 C1633 1.363 . S
C1638 C1637 1.415 . S
C1639 H1615 0.951 . S
C1639 C1640 1.366 . S
C1639 C1641 1.388 . S
C1640 C1639 1.366 . S
C1640 C1644 1.385 . S
C1641 H1616 0.951 . S
C1641 C1639 1.388 . S
C1641 C1642 1.366 . S
C1642 C1641 1.366 . S
C1642 C1643 1.414 . S
C1642 C1645 1.499 1_554 S
C1643 H1617 0.950 1_554 S
C1643 C1642 1.414 . S
C1643 C1644 1.374 . S
C1644 H1618 0.950 . S
C1644 C1640 1.385 . S
C1644 C1643 1.374 . S
C1645 C1642 1.499 1_556 S
C1645 C1646 1.373 . S
C1645 C1647 1.389 . S
C1646 H1619 0.950 . S
C1646 C1632 1.377 . S
C1646 C1645 1.373 . S
C1647 C1631 1.377 . S
C1647 C1645 1.389 . S
C1647 C1648 1.524 1_556 S
C1648 C1647 1.524 1_554 S
C1648 C1649 1.397 1_554 S
C1648 C1653 1.363 . S
C1649 H1620 0.950 . S
C1649 C1648 1.397 1_556 S
C1649 C1650 1.334 . S
C1650 H1621 0.950 . S
C1650 C1649 1.334 . S
C1650 C1651 1.287 1_556 S
C1651 C1650 1.287 1_554 S
C1651 C1652 1.524 . S
C1651 H1654 0.999 . S
C1652 H1622 0.950 . S
C1652 C1651 1.524 . S
C1652 C1653 1.415 . S
C1653 H1623 0.950 . S
C1653 C1648 1.363 . S
C1653 C1652 1.415 . S
H1654 C1651 0.999 . S
H1655 C1636 0.913 . S
H1656 C1674 0.951 . S
H1657 C1676 0.951 . S
H1658 C1678 0.950 . S
H1659 C1679 0.950 . S
H1660 C1681 0.950 . S
H1661 C1684 0.950 . S
H1662 C1685 0.950 . S
H1663 C1687 0.950 . S
H1664 C1688 0.950 . S
H1665 C1689 0.951 . S
H1666 C1691 0.951 . S
H1667 C1693 0.950 . S
H1668 C1694 0.950 . S
H1669 C1696 0.950 . S
H1670 C1699 0.950 . S
H1671 C1700 0.950 . S
H1672 C1702 0.950 . S
H1673 C1703 0.950 . S
C1674 H1656 0.951 . S
C1674 C1675 1.366 . S
C1674 C1676 1.388 . S
C1675 C1674 1.366 . S
C1675 C1679 1.385 . S
C1676 H1657 0.951 . S
C1676 C1674 1.388 . S
C1676 C1677 1.366 . S
C1677 C1676 1.366 . S
C1677 C1678 1.414 . S
C1677 C1680 1.499 . S
C1678 H1658 0.950 . S
C1678 C1677 1.414 . S
C1678 C1679 1.374 . S
C1679 H1659 0.950 . S
C1679 C1675 1.385 . S
C1679 C1678 1.374 . S
C1680 C1677 1.499 . S
C1680 C1681 1.373 . S
C1680 C1682 1.389 . S
C1681 H1660 0.950 . S
C1681 C1680 1.373 . S
C1681 C1697 1.377 . S
C1682 C1680 1.389 . S
C1682 C1683 1.524 . S
C1682 C1696 1.377 . S
C1683 C1682 1.524 . S
C1683 C1684 1.397 . S
C1683 C1688 1.363 . S
C1684 H1661 0.950 . S
C1684 C1683 1.397 . S
C1684 C1685 1.334 . S
C1685 H1662 0.950 . S
C1685 C1684 1.334 . S
C1685 C1686 1.287 . S
C1686 C1685 1.287 . S
C1686 C1687 1.524 . S
C1686 H1705 0.913 . S
C1687 H1663 0.950 . S
C1687 C1686 1.524 . S
C1687 C1688 1.415 . S
C1688 H1664 0.950 . S
C1688 C1683 1.363 . S
C1688 C1687 1.415 . S
C1689 H1665 0.951 . S
C1689 C1690 1.366 . S
C1689 C1691 1.388 . S
C1690 C1689 1.366 . S
C1690 C1694 1.385 . S
C1691 H1666 0.951 . S
C1691 C1689 1.388 . S
C1691 C1692 1.366 . S
C1692 C1691 1.366 . S
C1692 C1693 1.414 . S
C1692 C1695 1.499 . S
C1693 H1667 0.950 . S
C1693 C1692 1.414 . S
C1693 C1694 1.374 . S
C1694 H1668 0.950 . S
C1694 C1690 1.385 . S
C1694 C1693 1.374 . S
C1695 C1692 1.499 . S
C1695 C1696 1.373 . S
C1695 C1697 1.389 . S
C1696 H1669 0.950 . S
C1696 C1682 1.377 . S
C1696 C1695 1.373 . S
C1697 C1681 1.377 . S
C1697 C1695 1.389 . S
C1697 C1698 1.524 . S
C1698 C1697 1.524 . S
C1698 C1699 1.397 . S
C1698 C1703 1.363 . S
C1699 H1670 0.950 . S
C1699 C1698 1.397 . S
C1699 C1700 1.334 . S
C1700 H1671 0.950 . S
C1700 C1699 1.334 . S
C1700 C1701 1.287 . S
C1701 C1700 1.287 . S
C1701 C1702 1.524 . S
C1701 H1704 0.999 . S
C1702 H1672 0.950 . S
C1702 C1701 1.524 . S
C1702 C1703 1.415 . S
C1703 H1673 0.950 . S
C1703 C1698 1.363 . S
C1703 C1702 1.415 . S
H1704 C1701 0.999 . S
H1705 C1686 0.913 . S
H1706 C1724 0.951 . S
H1707 C1726 0.951 . S
H1708 C1728 0.950 . S
H1709 C1729 0.950 . S
H1710 C1731 0.950 . S
H1711 C1734 0.950 . S
H1712 C1735 0.950 . S
H1713 C1737 0.950 1_554 S
H1714 C1738 0.950 1_554 S
H1715 C1739 0.951 . S
H1716 C1741 0.951 . S
H1717 C1743 0.950 . S
H1718 C1744 0.950 . S
H1719 C1746 0.950 . S
H1720 C1749 0.950 . S
H1721 C1750 0.950 . S
H1722 C1752 0.950 . S
H1723 C1753 0.950 . S
C1724 H1706 0.951 . S
C1724 C1725 1.366 . S
C1724 C1726 1.388 . S
C1725 C1724 1.366 . S
C1725 C1729 1.385 . S
C1726 H1707 0.951 . S
C1726 C1724 1.388 . S
C1726 C1727 1.366 . S
C1727 C1726 1.366 . S
C1727 C1728 1.414 . S
C1727 C1730 1.499 . S
C1728 H1708 0.950 . S
C1728 C1727 1.414 . S
C1728 C1729 1.374 . S
C1729 H1709 0.950 . S
C1729 C1725 1.385 . S
C1729 C1728 1.374 . S
C1730 C1727 1.499 . S
C1730 C1731 1.373 . S
C1730 C1732 1.389 . S
C1731 H1710 0.950 . S
C1731 C1730 1.373 . S
C1731 C1747 1.377 . S
C1732 C1730 1.389 . S
C1732 C1733 1.524 . S
C1732 C1746 1.377 1_556 S
C1733 C1732 1.524 . S
C1733 C1734 1.397 . S
C1733 C1738 1.363 . S
C1734 H1711 0.950 . S
C1734 C1733 1.397 . S
C1734 C1735 1.334 . S
C1735 H1712 0.950 . S
C1735 C1734 1.334 . S
C1735 C1736 1.287 . S
C1736 C1735 1.287 . S
C1736 C1737 1.524 . S
C1736 H1755 0.913 . S
C1737 H1713 0.950 1_556 S
C1737 C1736 1.524 . S
C1737 C1738 1.415 . S
C1738 H1714 0.950 1_556 S
C1738 C1733 1.363 . S
C1738 C1737 1.415 . S
C1739 H1715 0.951 . S
C1739 C1740 1.366 . S
C1739 C1741 1.388 . S
C1740 C1739 1.366 . S
C1740 C1744 1.385 . S
C1741 H1716 0.951 . S
C1741 C1739 1.388 . S
C1741 C1742 1.366 . S
C1742 C1741 1.366 . S
C1742 C1743 1.414 . S
C1742 C1745 1.499 . S
C1743 H1717 0.950 . S
C1743 C1742 1.414 . S
C1743 C1744 1.374 . S
C1744 H1718 0.950 . S
C1744 C1740 1.385 . S
C1744 C1743 1.374 . S
C1745 C1742 1.499 . S
C1745 C1746 1.373 . S
C1745 C1747 1.389 1_554 S
C1746 H1719 0.950 . S
C1746 C1732 1.377 1_554 S
C1746 C1745 1.373 . S
C1747 C1731 1.377 . S
C1747 C1745 1.389 1_556 S
C1747 C1748 1.529 . S
C1748 C1747 1.529 . S
C1748 C1749 1.378 1_556 S
C1748 C1753 1.377 . S
C1749 H1720 0.950 . S
C1749 C1748 1.378 1_554 S
C1749 C1750 1.334 . S
C1750 H1721 0.950 . S
C1750 C1749 1.334 . S
C1750 C1751 1.287 . S
C1751 C1750 1.287 . S
C1751 C1752 1.524 1_554 S
C1751 H1754 0.999 . S
C1752 H1722 0.950 . S
C1752 C1751 1.524 1_556 S
C1752 C1753 1.415 . S
C1753 H1723 0.950 . S
C1753 C1748 1.377 . S
C1753 C1752 1.415 . S
H1754 C1751 0.999 . S
H1755 C1736 0.913 . S
H1756 C1774 0.951 . S
H1757 C1776 0.951 . S
H1758 C1778 0.950 . S
H1759 C1779 0.950 . S
H1760 C1781 0.950 . S
H1761 C1784 0.950 . S
H1762 C1785 0.950 . S
H1763 C1787 0.950 . S
H1764 C1788 0.950 . S
H1765 C1789 0.951 . S
H1766 C1791 0.951 . S
H1767 C1793 0.950 . S
H1768 C1794 0.950 . S
H1769 C1796 0.950 . S
H1770 C1799 0.950 . S
H1771 C1800 0.950 . S
H1772 C1802 0.950 . S
H1773 C1803 0.950 . S
C1774 H1756 0.951 . S
C1774 C1775 1.366 . S
C1774 C1776 1.388 . S
C1775 C1774 1.366 . S
C1775 C1779 1.385 . S
C1776 H1757 0.951 . S
C1776 C1774 1.388 . S
C1776 C1777 1.366 . S
C1777 C1776 1.366 . S
C1777 C1778 1.414 . S
C1777 C1780 1.499 . S
C1778 H1758 0.950 . S
C1778 C1777 1.414 . S
C1778 C1779 1.374 . S
C1779 H1759 0.950 . S
C1779 C1775 1.385 . S
C1779 C1778 1.374 . S
C1780 C1777 1.499 . S
C1780 C1781 1.373 . S
C1780 C1782 1.389 . S
C1781 H1760 0.950 . S
C1781 C1780 1.373 . S
C1781 C1797 1.377 . S
C1782 C1780 1.389 . S
C1782 C1783 1.524 . S
C1782 C1796 1.377 . S
C1783 C1782 1.524 . S
C1783 C1784 1.397 . S
C1783 C1788 1.363 . S
C1784 H1761 0.950 . S
C1784 C1783 1.397 . S
C1784 C1785 1.334 . S
C1785 H1762 0.950 . S
C1785 C1784 1.334 . S
C1785 C1786 1.287 . S
C1786 C1785 1.287 . S
C1786 C1787 1.524 . S
C1786 H1805 0.913 . S
C1787 H1763 0.950 . S
C1787 C1786 1.524 . S
C1787 C1788 1.415 . S
C1788 H1764 0.950 . S
C1788 C1783 1.363 . S
C1788 C1787 1.415 . S
C1789 H1765 0.951 . S
C1789 C1790 1.366 . S
C1789 C1791 1.388 . S
C1790 C1789 1.366 . S
C1790 C1794 1.385 . S
C1791 H1766 0.951 . S
C1791 C1789 1.388 . S
C1791 C1792 1.366 . S
C1792 C1791 1.366 . S
C1792 C1793 1.414 . S
C1792 C1795 1.499 . S
C1793 H1767 0.950 . S
C1793 C1792 1.414 . S
C1793 C1794 1.374 . S
C1794 H1768 0.950 . S
C1794 C1790 1.385 . S
C1794 C1793 1.374 . S
C1795 C1792 1.499 . S
C1795 C1796 1.373 . S
C1795 C1797 1.389 . S
C1796 H1769 0.950 . S
C1796 C1782 1.377 . S
C1796 C1795 1.373 . S
C1797 C1781 1.377 . S
C1797 C1795 1.389 . S
C1797 C1798 1.524 . S
C1798 C1797 1.524 . S
C1798 C1799 1.397 . S
C1798 C1803 1.363 . S
C1799 H1770 0.950 . S
C1799 C1798 1.397 . S
C1799 C1800 1.334 . S
C1800 H1771 0.950 . S
C1800 C1799 1.334 . S
C1800 C1801 1.287 . S
C1801 C1800 1.287 . S
C1801 C1802 1.524 . S
C1801 H1804 0.999 . S
C1802 H1772 0.950 . S
C1802 C1801 1.524 . S
C1802 C1803 1.415 . S
C1803 H1773 0.950 . S
C1803 C1798 1.363 . S
C1803 C1802 1.415 . S
H1804 C1801 0.999 . S
H1805 C1786 0.913 . S
H1806 C1824 0.951 . S
H1807 C1826 0.951 . S
H1808 C1828 0.950 . S
H1809 C1829 0.950 . S
H1810 C1831 0.950 . S
H1811 C1834 0.950 . S
H1812 C1835 0.950 . S
H1813 C1837 0.950 . S
H1814 C1838 0.950 . S
H1815 C1839 0.951 . S
H1816 C1841 0.951 . S
H1817 C1843 0.950 . S
H1818 C1844 0.950 . S
H1819 C1846 0.950 . S
H1820 C1849 0.950 . S
H1821 C1850 0.950 . S
H1822 C1852 0.950 . S
H1823 C1853 0.950 . S
C1824 H1806 0.951 . S
C1824 C1825 1.366 . S
C1824 C1826 1.388 . S
C1825 C1824 1.366 . S
C1825 C1829 1.385 . S
C1826 H1807 0.951 . S
C1826 C1824 1.388 . S
C1826 C1827 1.366 . S
C1827 C1826 1.366 . S
C1827 C1828 1.414 . S
C1827 C1830 1.499 . S
C1828 H1808 0.950 . S
C1828 C1827 1.414 . S
C1828 C1829 1.374 . S
C1829 H1809 0.950 . S
C1829 C1825 1.385 . S
C1829 C1828 1.374 . S
C1830 C1827 1.499 . S
C1830 C1831 1.373 . S
C1830 C1832 1.389 . S
C1831 H1810 0.950 . S
C1831 C1830 1.373 . S
C1831 C1847 1.377 . S
C1832 C1830 1.389 . S
C1832 C1833 1.524 . S
C1832 C1846 1.377 . S
C1833 C1832 1.524 . S
C1833 C1834 1.397 . S
C1833 C1838 1.363 . S
C1834 H1811 0.950 . S
C1834 C1833 1.397 . S
C1834 C1835 1.334 . S
C1835 H1812 0.950 . S
C1835 C1834 1.334 . S
C1835 C1836 1.287 . S
C1836 C1835 1.287 . S
C1836 C1837 1.524 . S
C1836 H1855 0.913 . S
C1837 H1813 0.950 . S
C1837 C1836 1.524 . S
C1837 C1838 1.415 . S
C1838 H1814 0.950 . S
C1838 C1833 1.363 . S
C1838 C1837 1.415 . S
C1839 H1815 0.951 . S
C1839 C1840 1.366 . S
C1839 C1841 1.388 . S
C1840 C1839 1.366 . S
C1840 C1844 1.385 . S
C1841 H1816 0.951 . S
C1841 C1839 1.388 . S
C1841 C1842 1.366 . S
C1842 C1841 1.366 . S
C1842 C1843 1.414 . S
C1842 C1845 1.499 . S
C1843 H1817 0.950 . S
C1843 C1842 1.414 . S
C1843 C1844 1.374 . S
C1844 H1818 0.950 . S
C1844 C1840 1.385 . S
C1844 C1843 1.374 . S
C1845 C1842 1.499 . S
C1845 C1846 1.373 . S
C1845 C1847 1.389 . S
C1846 H1819 0.950 . S
C1846 C1832 1.377 . S
C1846 C1845 1.373 . S
C1847 C1831 1.377 . S
C1847 C1845 1.389 . S
C1847 C1848 1.524 . S
C1848 C1847 1.524 . S
C1848 C1849 1.397 . S
C1848 C1853 1.363 . S
C1849 H1820 0.950 . S
C1849 C1848 1.397 . S
C1849 C1850 1.334 . S
C1850 H1821 0.950 . S
C1850 C1849 1.334 . S
C1850 C1851 1.287 . S
C1851 C1850 1.287 . S
C1851 C1852 1.524 . S
C1851 H1854 0.999 . S
C1852 H1822 0.950 . S
C1852 C1851 1.524 . S
C1852 C1853 1.415 . S
C1853 H1823 0.950 . S
C1853 C1848 1.363 . S
C1853 C1852 1.415 . S
H1854 C1851 0.999 . S
H1855 C1836 0.913 . S
H1856 C1874 0.951 . S
H1857 C1876 0.951 . S
H1858 C1878 0.950 . S
H1859 C1879 0.950 . S
H1860 C1881 0.950 . S
H1861 C1884 0.950 . S
H1862 C1885 0.950 . S
H1863 C1887 0.950 . S
H1864 C1888 0.950 . S
H1865 C1889 0.951 . S
H1866 C1891 0.951 . S
H1867 C1893 0.950 . S
H1868 C1894 0.950 . S
H1869 C1896 0.950 . S
H1870 C1899 0.950 . S
H1871 C1900 0.950 . S
H1872 C1902 0.950 . S
H1873 C1903 0.950 . S
C1874 H1856 0.951 . S
C1874 C1875 1.366 . S
C1874 C1876 1.388 . S
C1875 C1874 1.366 . S
C1875 C1879 1.385 . S
C1876 H1857 0.951 . S
C1876 C1874 1.388 . S
C1876 C1877 1.366 . S
C1877 C1876 1.366 . S
C1877 C1878 1.414 . S
C1877 C1880 1.499 . S
C1878 H1858 0.950 . S
C1878 C1877 1.414 . S
C1878 C1879 1.374 . S
C1879 H1859 0.950 . S
C1879 C1875 1.385 . S
C1879 C1878 1.374 . S
C1880 C1877 1.499 . S
C1880 C1881 1.373 . S
C1880 C1882 1.389 . S
C1881 H1860 0.950 . S
C1881 C1880 1.373 . S
C1881 C1897 1.377 . S
C1882 C1880 1.389 . S
C1882 C1883 1.524 . S
C1882 C1896 1.377 . S
C1883 C1882 1.524 . S
C1883 C1884 1.397 . S
C1883 C1888 1.363 . S
C1884 H1861 0.950 . S
C1884 C1883 1.397 . S
C1884 C1885 1.334 . S
C1885 H1862 0.950 . S
C1885 C1884 1.334 . S
C1885 C1886 1.287 . S
C1886 C1885 1.287 . S
C1886 C1887 1.524 . S
C1886 H1905 0.913 . S
C1887 H1863 0.950 . S
C1887 C1886 1.524 . S
C1887 C1888 1.415 . S
C1888 H1864 0.950 . S
C1888 C1883 1.363 . S
C1888 C1887 1.415 . S
C1889 H1865 0.951 . S
C1889 C1890 1.366 . S
C1889 C1891 1.388 . S
C1890 C1889 1.366 . S
C1890 C1894 1.385 . S
C1891 H1866 0.951 . S
C1891 C1889 1.388 . S
C1891 C1892 1.366 . S
C1892 C1891 1.366 . S
C1892 C1893 1.414 . S
C1892 C1895 1.499 . S
C1893 H1867 0.950 . S
C1893 C1892 1.414 . S
C1893 C1894 1.374 . S
C1894 H1868 0.950 . S
C1894 C1890 1.385 . S
C1894 C1893 1.374 . S
C1895 C1892 1.499 . S
C1895 C1896 1.373 . S
C1895 C1897 1.389 . S
C1896 H1869 0.950 . S
C1896 C1882 1.377 . S
C1896 C1895 1.373 . S
C1897 C1881 1.377 . S
C1897 C1895 1.389 . S
C1897 C1898 1.524 . S
C1898 C1897 1.524 . S
C1898 C1899 1.397 . S
C1898 C1903 1.363 . S
C1899 H1870 0.950 . S
C1899 C1898 1.397 . S
C1899 C1900 1.334 . S
C1900 H1871 0.950 . S
C1900 C1899 1.334 . S
C1900 C1901 1.287 . S
C1901 C1900 1.287 . S
C1901 C1902 1.524 . S
C1901 H1904 0.999 . S
C1902 H1872 0.950 . S
C1902 C1901 1.524 . S
C1902 C1903 1.415 . S
C1903 H1873 0.950 . S
C1903 C1898 1.363 . S
C1903 C1902 1.415 . S
H1904 C1901 0.999 . S
H1905 C1886 0.913 . S
H1906 C1924 0.951 . S
H1907 C1926 0.951 . S
H1908 C1928 0.950 . S
H1909 C1929 0.950 . S
H1910 C1931 0.950 . S
H1911 C1934 0.950 . S
H1912 C1935 0.950 . S
H1913 C1937 0.950 . S
H1914 C1938 0.950 . S
H1915 C1939 0.951 . S
H1916 C1941 0.951 . S
H1917 C1943 0.950 . S
H1918 C1944 0.950 . S
H1919 C1946 0.950 . S
H1920 C1949 0.950 . S
H1921 C1950 0.950 . S
H1922 C1952 0.950 . S
H1923 C1953 0.950 . S
C1924 H1906 0.951 . S
C1924 C1925 1.366 . S
C1924 C1926 1.388 . S
C1925 C1924 1.366 . S
C1925 C1929 1.385 . S
C1926 H1907 0.951 . S
C1926 C1924 1.388 . S
C1926 C1927 1.366 . S
C1927 C1926 1.366 . S
C1927 C1928 1.414 . S
C1927 C1930 1.499 . S
C1928 H1908 0.950 . S
C1928 C1927 1.414 . S
C1928 C1929 1.374 . S
C1929 H1909 0.950 . S
C1929 C1925 1.385 . S
C1929 C1928 1.374 . S
C1930 C1927 1.499 . S
C1930 C1931 1.373 . S
C1930 C1932 1.389 . S
C1931 H1910 0.950 . S
C1931 C1930 1.373 . S
C1931 C1947 1.377 . S
C1932 C1930 1.389 . S
C1932 C1933 1.524 . S
C1932 C1946 1.377 . S
C1933 C1932 1.524 . S
C1933 C1934 1.397 . S
C1933 C1938 1.363 . S
C1934 H1911 0.950 . S
C1934 C1933 1.397 . S
C1934 C1935 1.334 . S
C1935 H1912 0.950 . S
C1935 C1934 1.334 . S
C1935 C1936 1.287 . S
C1936 C1935 1.287 . S
C1936 C1937 1.524 . S
C1936 H1955 0.913 . S
C1937 H1913 0.950 . S
C1937 C1936 1.524 . S
C1937 C1938 1.415 . S
C1938 H1914 0.950 . S
C1938 C1933 1.363 . S
C1938 C1937 1.415 . S
C1939 H1915 0.951 . S
C1939 C1940 1.366 . S
C1939 C1941 1.388 . S
C1940 C1939 1.366 . S
C1940 C1944 1.385 . S
C1941 H1916 0.951 . S
C1941 C1939 1.388 . S
C1941 C1942 1.366 . S
C1942 C1941 1.366 . S
C1942 C1943 1.414 . S
C1942 C1945 1.499 . S
C1943 H1917 0.950 . S
C1943 C1942 1.414 . S
C1943 C1944 1.374 . S
C1944 H1918 0.950 . S
C1944 C1940 1.385 . S
C1944 C1943 1.374 . S
C1945 C1942 1.499 . S
C1945 C1946 1.373 . S
C1945 C1947 1.389 . S
C1946 H1919 0.950 . S
C1946 C1932 1.377 . S
C1946 C1945 1.373 . S
C1947 C1931 1.377 . S
C1947 C1945 1.389 . S
C1947 C1948 1.524 . S
C1948 C1947 1.524 . S
C1948 C1949 1.397 . S
C1948 C1953 1.363 . S
C1949 H1920 0.950 . S
C1949 C1948 1.397 . S
C1949 C1950 1.334 . S
C1950 H1921 0.950 . S
C1950 C1949 1.334 . S
C1950 C1951 1.287 . S
C1951 C1950 1.287 . S
C1951 C1952 1.524 . S
C1951 H1954 0.999 . S
C1952 H1922 0.950 . S
C1952 C1951 1.524 . S
C1952 C1953 1.415 . S
C1953 H1923 0.950 . S
C1953 C1948 1.363 . S
C1953 C1952 1.415 . S
H1954 C1951 0.999 . S
H1955 C1936 0.913 . S
H1956 C1974 0.951 . S
H1957 C1976 0.951 . S
H1958 C1978 0.950 . S
H1959 C1979 0.950 . S
H1960 C1981 0.950 . S
H1961 C1984 0.950 . S
H1962 C1985 0.950 . S
H1963 C1987 0.950 . S
H1964 C1988 0.950 . S
H1965 C1989 0.951 . S
H1966 C1991 0.951 . S
H1967 C1993 0.950 . S
H1968 C1994 0.950 . S
H1969 C1996 0.950 . S
H1970 C1999 0.950 . S
H1971 C2000 0.950 . S
H1972 C2002 0.950 . S
H1973 C2003 0.950 . S
C1974 H1956 0.951 . S
C1974 C1975 1.366 . S
C1974 C1976 1.388 . S
C1975 C1974 1.366 . S
C1975 C1979 1.385 . S
C1976 H1957 0.951 . S
C1976 C1974 1.388 . S
C1976 C1977 1.366 . S
C1977 C1976 1.366 . S
C1977 C1978 1.414 . S
C1977 C1980 1.499 . S
C1978 H1958 0.950 . S
C1978 C1977 1.414 . S
C1978 C1979 1.374 . S
C1979 H1959 0.950 . S
C1979 C1975 1.385 . S
C1979 C1978 1.374 . S
C1980 C1977 1.499 . S
C1980 C1981 1.373 . S
C1980 C1982 1.389 . S
C1981 H1960 0.950 . S
C1981 C1980 1.373 . S
C1981 C1997 1.377 1_545 S
C1982 C1980 1.389 . S
C1982 C1983 1.524 . S
C1982 C1996 1.377 1_545 S
C1983 C1982 1.524 . S
C1983 C1984 1.397 . S
C1983 C1988 1.363 . S
C1984 H1961 0.950 . S
C1984 C1983 1.397 . S
C1984 C1985 1.334 . S
C1985 H1962 0.950 . S
C1985 C1984 1.334 . S
C1985 C1986 1.287 . S
C1986 C1985 1.287 . S
C1986 C1987 1.524 . S
C1986 H2005 0.913 . S
C1987 H1963 0.950 . S
C1987 C1986 1.524 . S
C1987 C1988 1.415 . S
C1988 H1964 0.950 . S
C1988 C1983 1.363 . S
C1988 C1987 1.415 . S
C1989 H1965 0.951 . S
C1989 C1990 1.366 . S
C1989 C1991 1.388 . S
C1990 C1989 1.366 . S
C1990 C1994 1.385 . S
C1991 H1966 0.951 . S
C1991 C1989 1.388 . S
C1991 C1992 1.366 . S
C1992 C1991 1.366 . S
C1992 C1993 1.414 . S
C1992 C1995 1.499 . S
C1993 H1967 0.950 . S
C1993 C1992 1.414 . S
C1993 C1994 1.374 . S
C1994 H1968 0.950 . S
C1994 C1990 1.385 . S
C1994 C1993 1.374 . S
C1995 C1992 1.499 . S
C1995 C1996 1.373 . S
C1995 C1997 1.389 . S
C1996 H1969 0.950 . S
C1996 C1982 1.377 1_565 S
C1996 C1995 1.373 . S
C1997 C1981 1.377 1_565 S
C1997 C1995 1.389 . S
C1997 C1998 1.524 . S
C1998 C1997 1.524 . S
C1998 C1999 1.397 . S
C1998 C2003 1.363 1_554 S
C1999 H1970 0.950 . S
C1999 C1998 1.397 . S
C1999 C2000 1.334 . S
C2000 H1971 0.950 . S
C2000 C1999 1.334 . S
C2000 C2001 1.287 1_554 S
C2001 C2000 1.287 1_556 S
C2001 C2002 1.524 . S
C2001 H2004 0.999 . S
C2002 H1972 0.950 . S
C2002 C2001 1.524 . S
C2002 C2003 1.415 . S
C2003 H1973 0.950 . S
C2003 C1998 1.363 1_556 S
C2003 C2002 1.415 . S
H2004 C2001 0.999 . S
H2005 C1986 0.913 . S
H2006 C2024 0.951 . S
H2007 C2026 0.951 . S
H2008 C2028 0.950 . S
H2009 C2029 0.950 . S
H2010 C2031 0.950 . S
H2011 C2034 0.950 . S
H2012 C2035 0.950 . S
H2013 C2037 0.950 . S
H2014 C2038 0.950 . S
H2015 C2039 0.951 . S
H2016 C2041 0.951 . S
H2017 C2043 0.950 . S
H2018 C2044 0.950 . S
H2019 C2046 0.950 . S
H2020 C2049 0.950 . S
H2021 C2050 0.950 . S
H2022 C2052 0.950 . S
H2023 C2053 0.950 . S
C2024 H2006 0.951 . S
C2024 C2025 1.366 . S
C2024 C2026 1.388 . S
C2025 C2024 1.366 . S
C2025 C2029 1.385 . S
C2026 H2007 0.951 . S
C2026 C2024 1.388 . S
C2026 C2027 1.366 . S
C2027 C2026 1.366 . S
C2027 C2028 1.414 . S
C2027 C2030 1.499 . S
C2028 H2008 0.950 . S
C2028 C2027 1.414 . S
C2028 C2029 1.374 . S
C2029 H2009 0.950 . S
C2029 C2025 1.385 . S
C2029 C2028 1.374 . S
C2030 C2027 1.499 . S
C2030 C2031 1.373 . S
C2030 C2032 1.389 . S
C2031 H2010 0.950 . S
C2031 C2030 1.373 . S
C2031 C2047 1.377 . S
C2032 C2030 1.389 . S
C2032 C2033 1.524 . S
C2032 C2046 1.377 . S
C2033 C2032 1.524 . S
C2033 C2034 1.397 . S
C2033 C2038 1.363 . S
C2034 H2011 0.950 . S
C2034 C2033 1.397 . S
C2034 C2035 1.334 . S
C2035 H2012 0.950 . S
C2035 C2034 1.334 . S
C2035 C2036 1.287 . S
C2036 C2035 1.287 . S
C2036 C2037 1.524 . S
C2036 H2055 0.913 . S
C2037 H2013 0.950 . S
C2037 C2036 1.524 . S
C2037 C2038 1.415 . S
C2038 H2014 0.950 . S
C2038 C2033 1.363 . S
C2038 C2037 1.415 . S
C2039 H2015 0.951 . S
C2039 C2040 1.366 . S
C2039 C2041 1.388 . S
C2040 C2039 1.366 . S
C2040 C2044 1.385 . S
C2041 H2016 0.951 . S
C2041 C2039 1.388 . S
C2041 C2042 1.366 . S
C2042 C2041 1.366 . S
C2042 C2043 1.414 . S
C2042 C2045 1.499 . S
C2043 H2017 0.950 . S
C2043 C2042 1.414 . S
C2043 C2044 1.374 . S
C2044 H2018 0.950 . S
C2044 C2040 1.385 . S
C2044 C2043 1.374 . S
C2045 C2042 1.499 . S
C2045 C2046 1.373 . S
C2045 C2047 1.389 . S
C2046 H2019 0.950 . S
C2046 C2032 1.377 . S
C2046 C2045 1.373 . S
C2047 C2031 1.377 . S
C2047 C2045 1.389 . S
C2047 C2048 1.524 . S
C2048 C2047 1.524 . S
C2048 C2049 1.397 . S
C2048 C2053 1.363 . S
C2049 H2020 0.950 . S
C2049 C2048 1.397 . S
C2049 C2050 1.334 . S
C2050 H2021 0.950 . S
C2050 C2049 1.334 . S
C2050 C2051 1.287 . S
C2051 C2050 1.287 . S
C2051 C2052 1.524 . S
C2051 H2054 0.999 . S
C2052 H2022 0.950 . S
C2052 C2051 1.524 . S
C2052 C2053 1.415 . S
C2053 H2023 0.950 . S
C2053 C2048 1.363 . S
C2053 C2052 1.415 . S
H2054 C2051 0.999 . S
H2055 C2036 0.913 . S
H2056 C2074 0.951 . S
H2057 C2076 0.951 . S
H2058 C2078 0.950 . S
H2059 C2079 0.950 . S
H2060 C2081 0.950 . S
H2061 C2084 0.950 . S
H2062 C2085 0.950 . S
H2063 C2087 0.950 . S
H2064 C2088 0.950 . S
H2065 C2089 0.951 . S
H2066 C2091 0.951 . S
H2067 C2093 0.950 . S
H2068 C2094 0.950 . S
H2069 C2096 0.950 . S
H2070 C2099 0.950 . S
H2071 C2100 0.950 . S
H2072 C2102 0.950 . S
H2073 C2103 0.950 . S
C2074 H2056 0.951 . S
C2074 C2075 1.366 . S
C2074 C2076 1.388 . S
C2075 C2074 1.366 . S
C2075 C2079 1.385 . S
C2076 H2057 0.951 . S
C2076 C2074 1.388 . S
C2076 C2077 1.366 . S
C2077 C2076 1.366 . S
C2077 C2078 1.414 . S
C2077 C2080 1.499 . S
C2078 H2058 0.950 . S
C2078 C2077 1.414 . S
C2078 C2079 1.374 . S
C2079 H2059 0.950 . S
C2079 C2075 1.385 . S
C2079 C2078 1.374 . S
C2080 C2077 1.499 . S
C2080 C2081 1.373 . S
C2080 C2082 1.389 . S
C2081 H2060 0.950 . S
C2081 C2080 1.373 . S
C2081 C2097 1.377 1_455 S
C2082 C2080 1.389 . S
C2082 C2083 1.524 . S
C2082 C2096 1.377 1_455 S
C2083 C2082 1.524 . S
C2083 C2084 1.397 . S
C2083 C2088 1.363 . S
C2084 H2061 0.950 . S
C2084 C2083 1.397 . S
C2084 C2085 1.334 . S
C2085 H2062 0.950 . S
C2085 C2084 1.334 . S
C2085 C2086 1.287 . S
C2086 C2085 1.287 . S
C2086 C2087 1.524 . S
C2086 H2105 0.913 . S
C2087 H2063 0.950 . S
C2087 C2086 1.524 . S
C2087 C2088 1.415 . S
C2088 H2064 0.950 . S
C2088 C2083 1.363 . S
C2088 C2087 1.415 . S
C2089 H2065 0.951 . S
C2089 C2090 1.366 . S
C2089 C2091 1.388 . S
C2090 C2089 1.366 . S
C2090 C2094 1.385 . S
C2091 H2066 0.951 . S
C2091 C2089 1.388 . S
C2091 C2092 1.366 . S
C2092 C2091 1.366 . S
C2092 C2093 1.414 . S
C2092 C2095 1.499 . S
C2093 H2067 0.950 . S
C2093 C2092 1.414 . S
C2093 C2094 1.374 . S
C2094 H2068 0.950 . S
C2094 C2090 1.385 . S
C2094 C2093 1.374 . S
C2095 C2092 1.499 . S
C2095 C2096 1.373 . S
C2095 C2097 1.389 . S
C2096 H2069 0.950 . S
C2096 C2082 1.377 1_655 S
C2096 C2095 1.373 . S
C2097 C2081 1.377 1_655 S
C2097 C2095 1.389 . S
C2097 C2098 1.524 . S
C2098 C2097 1.524 . S
C2098 C2099 1.397 . S
C2098 C2103 1.363 . S
C2099 H2070 0.950 . S
C2099 C2098 1.397 . S
C2099 C2100 1.334 . S
C2100 H2071 0.950 . S
C2100 C2099 1.334 . S
C2100 C2101 1.287 . S
C2101 C2100 1.287 . S
C2101 C2102 1.524 . S
C2101 H2104 0.999 . S
C2102 H2072 0.950 . S
C2102 C2101 1.524 . S
C2102 C2103 1.415 . S
C2103 H2073 0.950 . S
C2103 C2098 1.363 . S
C2103 C2102 1.415 . S
H2104 C2101 0.999 . S
H2105 C2086 0.913 . S
H2106 C2124 0.951 . S
H2107 C2126 0.951 . S
H2108 C2128 0.950 . S
H2109 C2129 0.950 . S
H2110 C2131 0.950 . S
H2111 C2134 0.950 . S
H2112 C2135 0.950 . S
H2113 C2137 0.950 . S
H2114 C2138 0.950 . S
H2115 C2139 0.951 . S
H2116 C2141 0.951 . S
H2117 C2143 0.950 . S
H2118 C2144 0.950 . S
H2119 C2146 0.950 . S
H2120 C2149 0.950 . S
H2121 C2150 0.950 . S
H2122 C2152 0.950 . S
H2123 C2153 0.950 . S
C2124 H2106 0.951 . S
C2124 C2125 1.366 . S
C2124 C2126 1.388 . S
C2125 C2124 1.366 . S
C2125 C2129 1.385 . S
C2126 H2107 0.951 . S
C2126 C2124 1.388 . S
C2126 C2127 1.366 . S
C2127 C2126 1.366 . S
C2127 C2128 1.414 . S
C2127 C2130 1.499 . S
C2128 H2108 0.950 . S
C2128 C2127 1.414 . S
C2128 C2129 1.374 . S
C2129 H2109 0.950 . S
C2129 C2125 1.385 . S
C2129 C2128 1.374 . S
C2130 C2127 1.499 . S
C2130 C2131 1.373 . S
C2130 C2132 1.389 . S
C2131 H2110 0.950 . S
C2131 C2130 1.373 . S
C2131 C2147 1.377 1_565 S
C2132 C2130 1.389 . S
C2132 C2133 1.524 . S
C2132 C2146 1.377 1_565 S
C2133 C2132 1.524 . S
C2133 C2134 1.397 . S
C2133 C2138 1.363 . S
C2134 H2111 0.950 . S
C2134 C2133 1.397 . S
C2134 C2135 1.334 . S
C2135 H2112 0.950 . S
C2135 C2134 1.334 . S
C2135 C2136 1.287 . S
C2136 C2135 1.287 . S
C2136 C2137 1.524 . S
C2136 H2155 0.913 . S
C2137 H2113 0.950 . S
C2137 C2136 1.524 . S
C2137 C2138 1.415 . S
C2138 H2114 0.950 . S
C2138 C2133 1.363 . S
C2138 C2137 1.415 . S
C2139 H2115 0.951 . S
C2139 C2140 1.366 . S
C2139 C2141 1.388 . S
C2140 C2139 1.366 . S
C2140 C2144 1.385 . S
C2141 H2116 0.951 . S
C2141 C2139 1.388 . S
C2141 C2142 1.366 . S
C2142 C2141 1.366 . S
C2142 C2143 1.414 . S
C2142 C2145 1.499 . S
C2143 H2117 0.950 . S
C2143 C2142 1.414 . S
C2143 C2144 1.374 . S
C2144 H2118 0.950 . S
C2144 C2140 1.385 . S
C2144 C2143 1.374 . S
C2145 C2142 1.499 . S
C2145 C2146 1.373 . S
C2145 C2147 1.389 . S
C2146 H2119 0.950 . S
C2146 C2132 1.377 1_545 S
C2146 C2145 1.373 . S
C2147 C2131 1.377 1_545 S
C2147 C2145 1.389 . S
C2147 C2148 1.524 . S
C2148 C2147 1.524 . S
C2148 C2149 1.397 . S
C2148 C2153 1.363 . S
C2149 H2120 0.950 . S
C2149 C2148 1.397 . S
C2149 C2150 1.334 . S
C2150 H2121 0.950 . S
C2150 C2149 1.334 . S
C2150 C2151 1.287 . S
C2151 C2150 1.287 . S
C2151 C2152 1.524 . S
C2151 H2154 0.999 . S
C2152 H2122 0.950 . S
C2152 C2151 1.524 . S
C2152 C2153 1.415 . S
C2153 H2123 0.950 . S
C2153 C2148 1.363 . S
C2153 C2152 1.415 . S
H2154 C2151 0.999 . S
H2155 C2136 0.913 . S
H2156 C2174 0.951 . S
H2157 C2176 0.951 . S
H2158 C2178 0.950 . S
H2159 C2179 0.950 . S
H2160 C2181 0.950 . S
H2161 C2184 0.950 . S
H2162 C2185 0.950 . S
H2163 C2187 0.950 . S
H2164 C2188 0.950 . S
H2165 C2189 0.951 . S
H2166 C2191 0.951 . S
H2167 C2193 0.950 . S
H2168 C2194 0.950 . S
H2169 C2196 0.950 . S
H2170 C2199 0.950 . S
H2171 C2200 0.950 . S
H2172 C2202 0.950 . S
H2173 C2203 0.950 . S
C2174 H2156 0.951 . S
C2174 C2175 1.366 . S
C2174 C2176 1.388 . S
C2175 C2174 1.366 . S
C2175 C2179 1.385 . S
C2176 H2157 0.951 . S
C2176 C2174 1.388 . S
C2176 C2177 1.366 . S
C2177 C2176 1.366 . S
C2177 C2178 1.414 . S
C2177 C2180 1.499 . S
C2178 H2158 0.950 . S
C2178 C2177 1.414 . S
C2178 C2179 1.374 . S
C2179 H2159 0.950 . S
C2179 C2175 1.385 . S
C2179 C2178 1.374 . S
C2180 C2177 1.499 . S
C2180 C2181 1.373 . S
C2180 C2182 1.389 . S
C2181 H2160 0.950 . S
C2181 C2180 1.373 . S
C2181 C2197 1.377 . S
C2182 C2180 1.389 . S
C2182 C2183 1.524 . S
C2182 C2196 1.377 . S
C2183 C2182 1.524 . S
C2183 C2184 1.397 . S
C2183 C2188 1.363 . S
C2184 H2161 0.950 . S
C2184 C2183 1.397 . S
C2184 C2185 1.334 . S
C2185 H2162 0.950 . S
C2185 C2184 1.334 . S
C2185 C2186 1.287 . S
C2186 C2185 1.287 . S
C2186 C2187 1.524 . S
C2186 H2205 0.913 . S
C2187 H2163 0.950 . S
C2187 C2186 1.524 . S
C2187 C2188 1.415 . S
C2188 H2164 0.950 . S
C2188 C2183 1.363 . S
C2188 C2187 1.415 . S
C2189 H2165 0.951 . S
C2189 C2190 1.366 . S
C2189 C2191 1.388 . S
C2190 C2189 1.366 . S
C2190 C2194 1.385 . S
C2191 H2166 0.951 . S
C2191 C2189 1.388 . S
C2191 C2192 1.366 . S
C2192 C2191 1.366 . S
C2192 C2193 1.414 . S
C2192 C2195 1.499 . S
C2193 H2167 0.950 . S
C2193 C2192 1.414 . S
C2193 C2194 1.374 . S
C2194 H2168 0.950 . S
C2194 C2190 1.385 . S
C2194 C2193 1.374 . S
C2195 C2192 1.499 . S
C2195 C2196 1.373 . S
C2195 C2197 1.389 . S
C2196 H2169 0.950 . S
C2196 C2182 1.377 . S
C2196 C2195 1.373 . S
C2197 C2181 1.377 . S
C2197 C2195 1.389 . S
C2197 C2198 1.524 . S
C2198 C2197 1.524 . S
C2198 C2199 1.397 . S
C2198 C2203 1.363 . S
C2199 H2170 0.950 . S
C2199 C2198 1.397 . S
C2199 C2200 1.334 . S
C2200 H2171 0.950 . S
C2200 C2199 1.334 . S
C2200 C2201 1.287 . S
C2201 C2200 1.287 . S
C2201 C2202 1.524 . S
C2201 H2204 0.999 . S
C2202 H2172 0.950 . S
C2202 C2201 1.524 . S
C2202 C2203 1.415 . S
C2203 H2173 0.950 . S
C2203 C2198 1.363 . S
C2203 C2202 1.415 . S
H2204 C2201 0.999 . S
H2205 C2186 0.913 . S
H2206 C2224 0.951 . S
H2207 C2226 0.951 . S
H2208 C2228 0.950 . S
H2209 C2229 0.950 . S
H2210 C2231 0.950 . S
H2211 C2234 0.950 . S
H2212 C2235 0.950 . S
H2213 C2237 0.950 . S
H2214 C2238 0.950 . S
H2215 C2239 0.951 . S
H2216 C2241 0.951 . S
H2217 C2243 0.950 . S
H2218 C2244 0.950 . S
H2219 C2246 0.950 . S
H2220 C2249 0.950 . S
H2221 C2250 0.950 . S
H2222 C2252 0.950 1_554 S
H2223 C2253 0.950 . S
C2224 H2206 0.951 . S
C2224 C2225 1.366 . S
C2224 C2226 1.388 . S
C2225 C2224 1.366 . S
C2225 C2229 1.385 . S
C2226 H2207 0.951 . S
C2226 C2224 1.388 . S
C2226 C2227 1.366 . S
C2227 C2226 1.366 . S
C2227 C2228 1.414 . S
C2227 C2230 1.499 . S
C2228 H2208 0.950 . S
C2228 C2227 1.414 . S
C2228 C2229 1.374 . S
C2229 H2209 0.950 . S
C2229 C2225 1.385 . S
C2229 C2228 1.374 . S
C2230 C2227 1.499 . S
C2230 C2231 1.373 . S
C2230 C2232 1.389 . S
C2231 H2210 0.950 . S
C2231 C2230 1.373 . S
C2231 C2247 1.377 1_455 S
C2232 C2230 1.389 . S
C2232 C2233 1.524 . S
C2232 C2246 1.377 1_455 S
C2233 C2232 1.524 . S
C2233 C2234 1.397 . S
C2233 C2238 1.363 . S
C2234 H2211 0.950 . S
C2234 C2233 1.397 . S
C2234 C2235 1.334 . S
C2235 H2212 0.950 . S
C2235 C2234 1.334 . S
C2235 C2236 1.287 . S
C2236 C2235 1.287 . S
C2236 C2237 1.524 . S
C2236 H2255 0.913 . S
C2237 H2213 0.950 . S
C2237 C2236 1.524 . S
C2237 C2238 1.415 . S
C2238 H2214 0.950 . S
C2238 C2233 1.363 . S
C2238 C2237 1.415 . S
C2239 H2215 0.951 . S
C2239 C2240 1.366 . S
C2239 C2241 1.388 . S
C2240 C2239 1.366 . S
C2240 C2244 1.385 . S
C2241 H2216 0.951 . S
C2241 C2239 1.388 . S
C2241 C2242 1.366 . S
C2242 C2241 1.366 . S
C2242 C2243 1.414 . S
C2242 C2245 1.499 . S
C2243 H2217 0.950 . S
C2243 C2242 1.414 . S
C2243 C2244 1.374 . S
C2244 H2218 0.950 . S
C2244 C2240 1.385 . S
C2244 C2243 1.374 . S
C2245 C2242 1.499 . S
C2245 C2246 1.373 . S
C2245 C2247 1.389 . S
C2246 H2219 0.950 . S
C2246 C2232 1.377 1_655 S
C2246 C2245 1.373 . S
C2247 C2231 1.377 1_655 S
C2247 C2245 1.389 . S
C2247 C2248 1.524 . S
C2248 C2247 1.524 . S
C2248 C2249 1.397 . S
C2248 C2253 1.363 . S
C2249 H2220 0.950 . S
C2249 C2248 1.397 . S
C2249 C2250 1.334 . S
C2250 H2221 0.950 . S
C2250 C2249 1.334 . S
C2250 C2251 1.287 . S
C2251 C2250 1.287 . S
C2251 C2252 1.524 . S
C2251 H2254 0.999 . S
C2252 H2222 0.950 1_556 S
C2252 C2251 1.524 . S
C2252 C2253 1.415 . S
C2253 H2223 0.950 . S
C2253 C2248 1.363 . S
C2253 C2252 1.415 . S
H2254 C2251 0.999 . S
H2255 C2236 0.913 . S
C1075 C29 1.143 . S
C1090 C929 1.143 . S
C1125 C108 1.142 . S
C1140 C1025 1.143 . S
C1175 C585 1.143 . S
C1190 C205 1.143 . S
C1225 C293 1.143 . S
C1240 C673 1.143 . S
C1275 C761 1.143 . S
C1290 C381 1.143 . S
C1325 C841 1.142 . S
C1340 C489 1.143 . S
C1375 C724 0.944 . S
C1390 C49 0.945 . S
C1425 C145 0.943 . S
C1440 C821 0.942 . S
C1475 C909 0.943 . S
C1490 C225 0.943 . S
C1525 C313 0.943 . S
C1540 C988 0.942 . S
C1575 C401 0.940 . S
C1590 C548 0.940 . S
C1625 C469 0.944 . S
C1640 C636 0.943 . S
C1675 C900 1.787 . S
C1690 C57 1.787 . S
C1725 C997 1.788 . S
C1740 C137 1.788 . S
C1775 C557 1.788 . S
C1790 C233 1.788 . S
C1825 C321 1.788 . S
C1840 C645 1.788 . S
C1875 C409 1.787 . S
C1890 C733 1.788 . S
C1925 C812 1.787 . S
C1940 C460 1.787 . S
C1975 C20 0.976 . S
C1990 C665 0.975 . S
C2025 C753 0.973 . S
C2040 C117 0.974 . S
C2075 C849 0.974 . S
C2090 C196 0.975 . S
C2125 C284 0.976 . S
C2140 C937 0.976 . S
C2175 C372 0.975 . S
C2190 C1017 0.975 . S
C2225 C497 0.974 . S
C2240 C577 0.975 . S
