# Generated by pormake.
# Topology wkl, (6)-cn, num edge types: 1
# Building blocks:
#     Node 0, Type 0, BuildingBlock: IZENUY_clean_sbu_0, # of connection points: 6
#     Node 1, Type 0, BuildingBlock: IZENUY_clean_sbu_0, # of connection points: 6
#     Node 2, Type 0, BuildingBlock: IZENUY_clean_sbu_0, # of connection points: 6
#     Node 3, Type 0, BuildingBlock: IZENUY_clean_sbu_0, # of connection points: 6
#     Node 4, Type 0, BuildingBlock: IZENUY_clean_sbu_0, # of connection points: 6
#     Node 5, Type 0, BuildingBlock: IZENUY_clean_sbu_0, # of connection points: 6
#     Node 6, Type 0, BuildingBlock: IZENUY_clean_sbu_0, # of connection points: 6
#     Node 7, Type 0, BuildingBlock: IZENUY_clean_sbu_0, # of connection points: 6
#     Node 8, Type 0, BuildingBlock: IZENUY_clean_sbu_0, # of connection points: 6
#     Node 9, Type 0, BuildingBlock: IZENUY_clean_sbu_0, # of connection points: 6
#     Node 10, Type 0, BuildingBlock: IZENUY_clean_sbu_0, # of connection points: 6
#     Node 11, Type 0, BuildingBlock: IZENUY_clean_sbu_0, # of connection points: 6
#     Edge 12, Type (0, 0), BuildingBlock: TEMPAE_clean_linker_10, # of connection points: 2
#     Edge 13, Type (0, 0), BuildingBlock: TEMPAE_clean_linker_10, # of connection points: 2
#     Edge 14, Type (0, 0), BuildingBlock: TEMPAE_clean_linker_10, # of connection points: 2
#     Edge 15, Type (0, 0), BuildingBlock: TEMPAE_clean_linker_10, # of connection points: 2
#     Edge 16, Type (0, 0), BuildingBlock: TEMPAE_clean_linker_10, # of connection points: 2
#     Edge 17, Type (0, 0), BuildingBlock: TEMPAE_clean_linker_10, # of connection points: 2
#     Edge 18, Type (0, 0), BuildingBlock: TEMPAE_clean_linker_10, # of connection points: 2
#     Edge 19, Type (0, 0), BuildingBlock: TEMPAE_clean_linker_10, # of connection points: 2
#     Edge 20, Type (0, 0), BuildingBlock: TEMPAE_clean_linker_10, # of connection points: 2
#     Edge 21, Type (0, 0), BuildingBlock: TEMPAE_clean_linker_10, # of connection points: 2
#     Edge 22, Type (0, 0), BuildingBlock: TEMPAE_clean_linker_10, # of connection points: 2
#     Edge 23, Type (0, 0), BuildingBlock: TEMPAE_clean_linker_10, # of connection points: 2
#     Edge 24, Type (0, 0), BuildingBlock: TEMPAE_clean_linker_10, # of connection points: 2
#     Edge 25, Type (0, 0), BuildingBlock: TEMPAE_clean_linker_10, # of connection points: 2
#     Edge 26, Type (0, 0), BuildingBlock: TEMPAE_clean_linker_10, # of connection points: 2
#     Edge 27, Type (0, 0), BuildingBlock: TEMPAE_clean_linker_10, # of connection points: 2
#     Edge 28, Type (0, 0), BuildingBlock: TEMPAE_clean_linker_10, # of connection points: 2
#     Edge 29, Type (0, 0), BuildingBlock: TEMPAE_clean_linker_10, # of connection points: 2
#     Edge 30, Type (0, 0), BuildingBlock: TEMPAE_clean_linker_10, # of connection points: 2
#     Edge 31, Type (0, 0), BuildingBlock: TEMPAE_clean_linker_10, # of connection points: 2
#     Edge 32, Type (0, 0), BuildingBlock: TEMPAE_clean_linker_10, # of connection points: 2
#     Edge 33, Type (0, 0), BuildingBlock: TEMPAE_clean_linker_10, # of connection points: 2
#     Edge 34, Type (0, 0), BuildingBlock: TEMPAE_clean_linker_10, # of connection points: 2
#     Edge 35, Type (0, 0), BuildingBlock: TEMPAE_clean_linker_10, # of connection points: 2
#     Edge 36, Type (0, 0), BuildingBlock: TEMPAE_clean_linker_10, # of connection points: 2
#     Edge 37, Type (0, 0), BuildingBlock: TEMPAE_clean_linker_10, # of connection points: 2
#     Edge 38, Type (0, 0), BuildingBlock: TEMPAE_clean_linker_10, # of connection points: 2
#     Edge 39, Type (0, 0), BuildingBlock: TEMPAE_clean_linker_10, # of connection points: 2
#     Edge 40, Type (0, 0), BuildingBlock: TEMPAE_clean_linker_10, # of connection points: 2
#     Edge 41, Type (0, 0), BuildingBlock: TEMPAE_clean_linker_10, # of connection points: 2
#     Edge 42, Type (0, 0), BuildingBlock: TEMPAE_clean_linker_10, # of connection points: 2
#     Edge 43, Type (0, 0), BuildingBlock: TEMPAE_clean_linker_10, # of connection points: 2
#     Edge 44, Type (0, 0), BuildingBlock: TEMPAE_clean_linker_10, # of connection points: 2
#     Edge 45, Type (0, 0), BuildingBlock: TEMPAE_clean_linker_10, # of connection points: 2
#     Edge 46, Type (0, 0), BuildingBlock: TEMPAE_clean_linker_10, # of connection points: 2
#     Edge 47, Type (0, 0), BuildingBlock: TEMPAE_clean_linker_10, # of connection points: 2
# Relax obj value: 0.387
# Max RMSD: 0.287
# Mean RMSD: 0.287
data_MOF--net-wkl--node1-IZENUY_clean_sbu_0--edge1-TEMPAE_clean_linker_10
_symmetry_space_group_name_H-M    P1
_symmetry_Int_Tables_number       1
_symmetry_cell_setting            triclinic
loop_
_symmetry_equiv_pos_as_xyz
'x, y, z'
_cell_length_a     72.533873
_cell_length_b     72.531888
_cell_length_c     15.223415
_cell_angle_alpha  89.98202
_cell_angle_beta   90.017012
_cell_angle_gamma 119.98325
loop_
_atom_site_label
_atom_site_type_symbol
_atom_site_fract_x
_atom_site_fract_y
_atom_site_fract_z
_atom_type_partial_charge
Fe0 Fe 0.47476 0.10655 0.12475 0.0
Fe1 Fe 0.48815 0.14567 0.00874 0.0
O2 O 0.46816 0.12343 0.06595 0.0
Fe3 Fe 0.44154 0.11826 0.06477 0.0
O4 O 0.44182 0.12151 0.18368 0.0
O5 O 0.45526 0.10086 0.21223 0.0
O6 O 0.49371 0.12825 0.19229 0.0
C7 C 0.50982 0.14454 0.1628 0.0
C8 C 0.4366 0.07695 0.05793 0.0
O9 O 0.50991 0.15062 0.08476 0.0
C10 C 0.45305 0.12873 0.89308 0.0
O11 O 0.49547 0.10935 0.04712 0.0
O12 O 0.49403 0.12895 0.94006 0.0
O13 O 0.42921 0.08913 0.07422 0.0
O14 O 0.45626 0.08364 0.06211 0.0
C15 C 0.46582 0.16318 0.07606 0.0
O16 O 0.47015 0.1445 0.92101 0.0
O17 O 0.44014 0.11482 0.94602 0.0
C18 C 0.49937 0.11596 0.96842 0.0
O19 O 0.48349 0.16381 0.07424 0.0
O20 O 0.44886 0.14639 0.0547 0.0
C21 C 0.44671 0.11146 0.23811 0.0
Fe22 Fe 0.31895 0.44026 0.21493 0.0
Fe23 Fe 0.36394 0.47352 0.27391 0.0
O24 O 0.34041 0.46688 0.21558 0.0
Fe25 Fe 0.33808 0.48683 0.15833 0.0
O26 O 0.31546 0.48226 0.22463 0.0
O27 O 0.29814 0.44762 0.20539 0.0
O28 O 0.31612 0.44063 0.33387 0.0
C29 C 0.33112 0.44559 0.38807 0.0
C30 C 0.31981 0.45166 0.04321 0.0
O31 O 0.35023 0.45412 0.3619 0.0
C32 C 0.37893 0.49799 0.11699 0.0
O33 O 0.33574 0.42793 0.22432 0.0
O34 O 0.36828 0.45494 0.21147 0.0
O35 O 0.3211 0.46874 0.07117 0.0
O36 O 0.32087 0.43878 0.09617 0.0
C37 C 0.361 0.5086 0.31184 0.0
O38 O 0.38175 0.49415 0.19566 0.0
O39 O 0.36056 0.49262 0.08905 0.0
C40 C 0.35529 0.43529 0.20767 0.0
O41 O 0.36129 0.49255 0.34131 0.0
O42 O 0.355 0.50867 0.2338 0.0
C43 C 0.29844 0.4646 0.22764 0.0
Fe44 Fe 0.88767 0.36441 0.40792 0.0
Fe45 Fe 0.84761 0.33865 0.29688 0.0
O46 O 0.8699 0.34073 0.35284 0.0
Fe47 Fe 0.87441 0.31885 0.3536 0.0
O48 O 0.87125 0.31653 0.47245 0.0
O49 O 0.89311 0.35062 0.49706 0.0
O50 O 0.8668 0.36307 0.477 0.0
C51 C 0.85027 0.36268 0.44918 0.0
C52 C 0.91606 0.35413 0.34163 0.0
O53 O 0.84346 0.35609 0.37233 0.0
C54 C 0.8639 0.31981 0.18187 0.0
O55 O 0.88506 0.38219 0.32895 0.0
O56 O 0.86418 0.36075 0.22561 0.0
O57 O 0.90357 0.33501 0.36354 0.0
O58 O 0.90982 0.36748 0.34232 0.0
C59 C 0.82982 0.2992 0.36854 0.0
O60 O 0.84819 0.32123 0.21031 0.0
O61 O 0.87772 0.32047 0.23468 0.0
C62 C 0.87774 0.37913 0.25138 0.0
O63 O 0.82955 0.31641 0.36508 0.0
O64 O 0.84614 0.29845 0.34449 0.0
C65 C 0.88183 0.33171 0.52527 0.0
Fe66 Fe 0.5525 0.87552 0.52474 0.0
Fe67 Fe 0.52048 0.88942 0.57618 0.0
O68 O 0.52631 0.87152 0.52141 0.0
Fe69 Fe 0.50615 0.84975 0.46238 0.0
O70 O 0.50918 0.83085 0.52922 0.0
O71 O 0.54403 0.84707 0.51726 0.0
O72 O 0.55118 0.87234 0.64344 0.0
C73 C 0.54672 0.88309 0.69577 0.0
C74 C 0.54185 0.86545 0.35158 0.0
O75 O 0.53911 0.89436 0.66723 0.0
C76 C 0.49689 0.88062 0.41715 0.0
O77 O 0.56591 0.9047 0.53446 0.0
O78 O 0.54015 0.91168 0.51276 0.0
O79 O 0.52439 0.85001 0.37828 0.0
O80 O 0.55488 0.87892 0.40566 0.0
C81 C 0.48419 0.85225 0.613 0.0
O82 O 0.50064 0.88744 0.49549 0.0
O83 O 0.5018 0.86715 0.39118 0.0
C84 C 0.55967 0.91755 0.51311 0.0
O85 O 0.50037 0.86842 0.64299 0.0
O86 O 0.48425 0.84583 0.53563 0.0
C87 C 0.52644 0.8308 0.53689 0.0
Fe88 Fe 0.65516 0.5101 0.62963 0.0
Fe89 Fe 0.67539 0.55639 0.69233 0.0
O90 O 0.65336 0.53011 0.68886 0.0
Fe91 Fe 0.62956 0.52406 0.74357 0.0
O92 O 0.63069 0.50408 0.81048 0.0
O93 O 0.63734 0.48812 0.70297 0.0
O94 O 0.67716 0.51328 0.69619 0.0
C95 C 0.69442 0.53059 0.7035 0.0
C96 C 0.61494 0.50048 0.58462 0.0
O97 O 0.69557 0.54816 0.68468 0.0
C98 C 0.6403 0.56311 0.67979 0.0
O99 O 0.67302 0.52844 0.54552 0.0
O100 O 0.67437 0.55882 0.57326 0.0
O101 O 0.61182 0.50411 0.66306 0.0
O102 O 0.63336 0.50561 0.55856 0.0
C103 C 0.66199 0.55047 0.86325 0.0
O104 O 0.65937 0.56956 0.70207 0.0
O105 O 0.62678 0.54357 0.67983 0.0
C106 C 0.67493 0.54587 0.51903 0.0
O107 O 0.67724 0.55505 0.81102 0.0
O108 O 0.64312 0.54276 0.83454 0.0
C109 C 0.63087 0.48799 0.78044 0.0
Fe110 Fe 0.11611 0.67354 0.88707 0.0
Fe111 Fe 0.10505 0.62874 0.94599 0.0
O112 O 0.12168 0.65236 0.88772 0.0
Fe113 Fe 0.14409 0.65503 0.83039 0.0
O114 O 0.16195 0.6778 0.89657 0.0
O115 O 0.14414 0.69464 0.87735 0.0
O116 O 0.11931 0.67642 1.00599 0.0
C117 C 0.10946 0.66138 0.0602 0.0
C118 C 0.12672 0.67287 0.71532 0.0
O119 O 0.09912 0.64225 0.03406 0.0
C120 C 0.11478 0.61404 0.78897 0.0
O121 O 0.08702 0.65642 0.89644 0.0
O122 O 0.08202 0.62409 0.88354 0.0
O123 O 0.14267 0.67186 0.74325 0.0
O124 O 0.11269 0.67158 0.76829 0.0
C125 C 0.14326 0.63211 0.98362 0.0
O126 O 0.10814 0.61113 0.86766 0.0
O127 O 0.12761 0.63247 0.76111 0.0
C128 C 0.07503 0.63683 0.88 0.0
O129 O 0.12687 0.63169 0.01332 0.0
O130 O 0.14932 0.63829 0.90574 0.0
C131 C 0.16104 0.69469 0.89898 0.0
Fe132 Fe 0.87549 0.55357 0.80363 0.0
Fe133 Fe 0.88754 0.52034 0.74698 0.0
O134 O 0.87062 0.52704 0.80513 0.0
Fe135 Fe 0.84876 0.50717 0.86504 0.0
O136 O 0.83001 0.5109 0.8004 0.0
O137 O 0.84723 0.54586 0.81129 0.0
O138 O 0.87235 0.55287 0.68477 0.0
C139 C 0.88244 0.54792 0.631 0.0
C140 C 0.86527 0.54287 0.97665 0.0
O141 O 0.89291 0.5393 0.65747 0.0
C142 C 0.87895 0.49669 0.90572 0.0
O143 O 0.90463 0.5661 0.79502 0.0
O144 O 0.91059 0.53932 0.80771 0.0
O145 O 0.84971 0.52547 0.95036 0.0
O146 O 0.87891 0.55563 0.92257 0.0
C147 C 0.84963 0.48486 0.71267 0.0
O148 O 0.88515 0.50009 0.82644 0.0
O149 O 0.86611 0.50223 0.93398 0.0
C150 C 0.91697 0.55892 0.81161 0.0
O151 O 0.86568 0.50092 0.68143 0.0
O152 O 0.84391 0.48506 0.79112 0.0
C153 C 0.83053 0.52846 0.79328 0.0
Fe154 Fe 0.31952 0.87791 0.97523 0.0
Fe155 Fe 0.3644 0.88946 0.91552 0.0
O156 O 0.3409 0.87262 0.9741 0.0
Fe157 Fe 0.33852 0.85028 0.03106 0.0
O158 O 0.31571 0.83227 0.96539 0.0
O159 O 0.29862 0.84981 0.98506 0.0
O160 O 0.31658 0.8747 0.85627 0.0
C161 C 0.33156 0.88472 0.80199 0.0
C162 C 0.32048 0.86734 0.14686 0.0
O163 O 0.35067 0.89529 0.8281 0.0
C164 C 0.3795 0.87982 0.07169 0.0
O165 O 0.33641 0.90701 0.966 0.0
O166 O 0.36891 0.91238 0.9784 0.0
O167 O 0.32175 0.85153 0.11888 0.0
O168 O 0.32154 0.88129 0.09396 0.0
C169 C 0.36125 0.85139 0.87685 0.0
O170 O 0.38225 0.88651 0.99311 0.0
O171 O 0.36115 0.86687 0.09989 0.0
C172 C 0.35596 0.9191 0.98285 0.0
O173 O 0.36159 0.86778 0.84772 0.0
O174 O 0.35525 0.84525 0.95485 0.0
C175 C 0.29872 0.833 0.96339 0.0
Fe176 Fe 0.44173 0.32212 0.14254 0.0
Fe177 Fe 0.47489 0.36703 0.08265 0.0
O178 O 0.46834 0.34357 0.14138 0.0
Fe179 Fe 0.48836 0.34133 0.19851 0.0
O180 O 0.48367 0.31851 0.13312 0.0
O181 O 0.44906 0.30133 0.15281 0.0
O182 O 0.44203 0.31913 0.02362 0.0
C183 C 0.44693 0.33408 0.96923 0.0
C184 C 0.45324 0.32318 0.31423 0.0
O185 O 0.45538 0.3532 0.99521 0.0
C186 C 0.49955 0.38227 0.23883 0.0
O187 O 0.42937 0.3389 0.13282 0.0
O188 O 0.45638 0.37142 0.14541 0.0
O189 O 0.47037 0.32455 0.28637 0.0
O190 O 0.44033 0.32419 0.26126 0.0
C191 C 0.50994 0.36409 0.04424 0.0
O192 O 0.49561 0.38496 0.16019 0.0
O193 O 0.49428 0.36395 0.26714 0.0
C194 C 0.43671 0.35846 0.14909 0.0
O195 O 0.49383 0.36431 0.01501 0.0
O196 O 0.51009 0.35811 0.12227 0.0
C197 C 0.46601 0.30147 0.13149 0.0
Fe198 Fe 0.11649 0.4399 0.33536 0.0
Fe199 Fe 0.10371 0.47265 0.28192 0.0
O200 O 0.12127 0.46639 0.33679 0.0
Fe201 Fe 0.1436 0.48632 0.39343 0.0
O202 O 0.1616 0.48204 0.32521 0.0
O203 O 0.14467 0.44747 0.34499 0.0
O204 O 0.11976 0.44092 0.21657 0.0
C205 C 0.10932 0.44574 0.16381 0.0
C206 C 0.12689 0.45101 0.50741 0.0
O207 O 0.09825 0.45361 0.19203 0.0
C208 C 0.11373 0.497 0.43935 0.0
O209 O 0.08738 0.42718 0.3248 0.0
O210 O 0.08136 0.45353 0.34661 0.0
O211 O 0.14275 0.46806 0.47936 0.0
O212 O 0.11303 0.43805 0.45427 0.0
C213 C 0.14133 0.50824 0.24216 0.0
O214 O 0.10642 0.49292 0.36173 0.0
O215 O 0.12712 0.49191 0.46485 0.0
C216 C 0.07496 0.4339 0.34656 0.0
O217 O 0.12476 0.49226 0.21364 0.0
O218 O 0.14806 0.50816 0.31886 0.0
C219 C 0.16118 0.46448 0.32201 0.0
Fe220 Fe 0.67558 0.11805 0.51738 0.0
Fe221 Fe 0.62985 0.10461 0.46458 0.0
O222 O 0.6536 0.1224 0.51918 0.0
Fe223 Fe 0.65565 0.14457 0.57595 0.0
O224 O 0.67762 0.16275 0.50702 0.0
O225 O 0.69588 0.14641 0.52623 0.0
O226 O 0.67768 0.12124 0.39857 0.0
C227 C 0.66245 0.11065 0.34598 0.0
C228 C 0.67486 0.12844 0.68943 0.0
O229 O 0.64355 0.0994 0.37438 0.0
C230 C 0.61538 0.11427 0.62254 0.0
O231 O 0.65955 0.08888 0.50725 0.0
O232 O 0.62702 0.08241 0.5292 0.0
O233 O 0.6734 0.14414 0.66127 0.0
O234 O 0.67416 0.11467 0.63634 0.0
C235 C 0.63123 0.14194 0.42514 0.0
O236 O 0.61218 0.10703 0.54479 0.0
O237 O 0.63381 0.12782 0.64787 0.0
C238 C 0.64044 0.07626 0.52899 0.0
O239 O 0.63091 0.12551 0.3964 0.0
O240 O 0.63791 0.14863 0.50198 0.0
C241 C 0.6949 0.16264 0.50253 0.0
Fe242 Fe 0.55184 0.67532 0.66458 0.0
Fe243 Fe 0.51959 0.62953 0.61244 0.0
O244 O 0.52557 0.65327 0.66753 0.0
Fe245 Fe 0.50546 0.65501 0.72642 0.0
O246 O 0.50868 0.67704 0.65988 0.0
O247 O 0.54357 0.69545 0.6717 0.0
O248 O 0.55067 0.67724 0.54584 0.0
C249 C 0.54611 0.66203 0.49341 0.0
C250 C 0.54112 0.6748 0.83764 0.0
O251 O 0.53837 0.64314 0.52185 0.0
C252 C 0.49589 0.61477 0.77107 0.0
O253 O 0.56505 0.65933 0.65549 0.0
O254 O 0.53906 0.62667 0.67614 0.0
O255 O 0.52369 0.67285 0.81086 0.0
O256 O 0.55412 0.67427 0.78367 0.0
C257 C 0.48354 0.63083 0.5752 0.0
O258 O 0.4996 0.61172 0.69264 0.0
O259 O 0.50092 0.63316 0.79735 0.0
C260 C 0.5586 0.64019 0.67684 0.0
O261 O 0.49968 0.63073 0.54535 0.0
O262 O 0.48357 0.6372 0.65275 0.0
C263 C 0.52603 0.69425 0.652 0.0
C264 C 0.42944 0.11018 0.76322 0.0
C265 C 0.44847 0.12689 0.7973 0.0
C266 C 0.42613 0.10729 0.67194 0.0
C267 C 0.44231 0.12129 0.61352 0.0
C268 C 0.46118 0.13862 0.6476 0.0
C269 C 0.46397 0.14126 0.73878 0.0
C270 C 0.40571 0.08874 0.6381 0.0
C271 C 0.47896 0.15379 0.58784 0.0
C272 C 0.44969 0.10172 0.39279 0.0
C273 C 0.44294 0.11206 0.3338 0.0
C274 C 0.44877 0.10396 0.48384 0.0
C275 C 0.44069 0.1167 0.51747 0.0
C276 C 0.43291 0.1264 0.45872 0.0
C277 C 0.43423 0.12406 0.36746 0.0
C278 C 0.45745 0.0935 0.5439 0.0
C279 C 0.42399 0.13994 0.49218 0.0
H280 H 0.41734 0.09903 0.80774 0.0
H281 H 0.47875 0.15423 0.76412 0.0
H282 H 0.39873 0.09409 0.58602 0.0
H283 H 0.4091 0.07679 0.60826 0.0
H284 H 0.39375 0.08087 0.69109 0.0
H285 H 0.49192 0.16733 0.62432 0.0
H286 H 0.48584 0.14514 0.55332 0.0
H287 H 0.47275 0.16022 0.53694 0.0
H288 H 0.45645 0.09238 0.3679 0.0
H289 H 0.42895 0.1321 0.32261 0.0
H290 H 0.44552 0.08387 0.59465 0.0
H291 H 0.47176 0.10591 0.57857 0.0
H292 H 0.46195 0.08303 0.50766 0.0
H293 H 0.41207 0.1314 0.54451 0.0
H294 H 0.41642 0.14436 0.43906 0.0
H295 H 0.43697 0.15475 0.52163 0.0
C296 C 0.31793 0.46247 0.88895 0.0
C297 C 0.31712 0.4471 0.9474 0.0
C298 C 0.31788 0.45975 0.79775 0.0
C299 C 0.31682 0.4411 0.76357 0.0
C300 C 0.31497 0.42504 0.82191 0.0
C301 C 0.31526 0.42827 0.9132 0.0
C302 C 0.32011 0.47741 0.73806 0.0
C303 C 0.31362 0.40485 0.78798 0.0
C304 C 0.30606 0.43283 0.5175 0.0
C305 C 0.32681 0.44189 0.48384 0.0
C306 C 0.30239 0.43149 0.60875 0.0
C307 C 0.31988 0.43961 0.6675 0.0
C308 C 0.34075 0.44808 0.63388 0.0
C309 C 0.34393 0.44901 0.54282 0.0
C310 C 0.27989 0.42215 0.64218 0.0
C311 C 0.3599 0.45714 0.69395 0.0
H312 H 0.31938 0.4771 0.91436 0.0
H313 H 0.31459 0.41627 0.95766 0.0
H314 H 0.33567 0.4846 0.70365 0.0
H315 H 0.3075 0.47099 0.68708 0.0
H316 H 0.31917 0.49017 0.7746 0.0
H317 H 0.30978 0.39292 0.84091 0.0
H318 H 0.30132 0.39766 0.73587 0.0
H319 H 0.32906 0.40859 0.75813 0.0
H320 H 0.29272 0.42726 0.47264 0.0
H321 H 0.36005 0.45606 0.51792 0.0
H322 H 0.27773 0.43491 0.6718 0.0
H323 H 0.27672 0.41024 0.69438 0.0
H324 H 0.26794 0.41442 0.58903 0.0
H325 H 0.36144 0.47129 0.72865 0.0
H326 H 0.37493 0.46196 0.65772 0.0
H327 H 0.35788 0.44529 0.74469 0.0
C328 C 0.86907 0.30707 0.65589 0.0
C329 C 0.88111 0.32771 0.6214 0.0
C330 C 0.86666 0.3036 0.74721 0.0
C331 C 0.87635 0.32117 0.80538 0.0
C332 C 0.88906 0.34194 0.771 0.0
C333 C 0.89134 0.34493 0.67974 0.0
C334 C 0.8531 0.28121 0.78133 0.0
C335 C 0.89951 0.36117 0.83048 0.0
C336 C 0.85169 0.31918 0.0276 0.0
C337 C 0.86591 0.31763 0.0857 0.0
C338 C 0.85452 0.3196 0.93632 0.0
C339 C 0.87192 0.31826 0.90164 0.0
C340 C 0.88584 0.3158 0.95954 0.0
C341 C 0.88274 0.31561 0.05092 0.0
C342 C 0.8394 0.32245 0.87716 0.0
C343 C 0.90447 0.31415 0.92506 0.0
H344 H 0.86108 0.29365 0.61156 0.0
H345 H 0.90065 0.36096 0.65414 0.0
H346 H 0.86177 0.27779 0.83295 0.0
H347 H 0.83846 0.27954 0.81191 0.0
H348 H 0.84837 0.26913 0.72843 0.0
H349 H 0.90992 0.37607 0.79379 0.0
H350 H 0.88711 0.36308 0.86513 0.0
H351 H 0.90921 0.35897 0.8813 0.0
H352 H 0.83866 0.32081 0.05343 0.0
H353 H 0.89381 0.3144 0.09507 0.0
H354 H 0.83286 0.30988 0.82604 0.0
H355 H 0.84811 0.338 0.84286 0.0
H356 H 0.82593 0.32193 0.91404 0.0
H357 H 0.89912 0.30177 0.87322 0.0
H358 H 0.91257 0.31024 0.97772 0.0
H359 H 0.91622 0.32949 0.89466 0.0
C360 C 0.56491 0.88491 0.22129 0.0
C361 C 0.54632 0.86765 0.25562 0.0
C362 C 0.56782 0.88819 0.12993 0.0
C363 C 0.55168 0.87401 0.07173 0.0
C364 C 0.53327 0.85618 0.10599 0.0
C365 C 0.53088 0.85318 0.19713 0.0
C366 C 0.58776 0.90727 0.09582 0.0
C367 C 0.51556 0.84075 0.04656 0.0
C368 C 0.54305 0.89259 0.85035 0.0
C369 C 0.55031 0.88265 0.79175 0.0
C370 C 0.54421 0.89059 0.94158 0.0
C371 C 0.55303 0.87851 0.97559 0.0
C372 C 0.56123 0.86919 0.91706 0.0
C373 C 0.55968 0.87127 0.82583 0.0
C374 C 0.53504 0.90059 1.00148 0.0
C375 C 0.57087 0.8563 0.95073 0.0
H376 H 0.57693 0.89619 0.26574 0.0
H377 H 0.51643 0.83978 0.22254 0.0
H378 H 0.59507 0.90239 0.04338 0.0
H379 H 0.58368 0.91876 0.06629 0.0
H380 H 0.59971 0.9155 0.14854 0.0
H381 H 0.50287 0.82701 0.08317 0.0
H382 H 0.50828 0.84908 0.01251 0.0
H383 H 0.52196 0.83461 0.99527 0.0
H384 H 0.53575 0.90139 0.825 0.0
H385 H 0.56537 0.86355 0.78128 0.0
H386 H 0.54685 0.91048 0.05219 0.0
H387 H 0.52093 0.88792 0.03626 0.0
H388 H 0.5301 0.91069 0.96508 0.0
H389 H 0.58292 0.8653 1.00209 0.0
H390 H 0.5785 0.85199 0.89752 0.0
H391 H 0.5583 0.84143 0.98149 0.0
C392 C 0.64873 0.54638 0.01783 0.0
C393 C 0.66596 0.55408 0.95924 0.0
C394 C 0.65189 0.54759 0.10906 0.0
C395 C 0.67283 0.55693 0.14308 0.0
C396 C 0.69036 0.56556 0.08456 0.0
C397 C 0.68673 0.56393 0.99333 0.0
C398 C 0.63271 0.53793 0.16896 0.0
C399 C 0.71292 0.57578 0.11825 0.0
C400 C 0.67796 0.56874 0.38881 0.0
C401 C 0.67719 0.5504 0.42312 0.0
C402 C 0.67751 0.57161 0.29745 0.0
C403 C 0.67607 0.55569 0.23923 0.0
C404 C 0.67608 0.53756 0.27347 0.0
C405 C 0.67674 0.5352 0.36461 0.0
C406 C 0.67774 0.59126 0.26337 0.0
C407 C 0.67437 0.52009 0.21401 0.0
H408 H 0.63261 0.53868 0.99247 0.0
H409 H 0.70016 0.56998 0.94877 0.0
H410 H 0.63173 0.52401 0.20375 0.0
H411 H 0.63426 0.5496 0.21964 0.0
H412 H 0.6176 0.53257 0.13254 0.0
H413 H 0.72481 0.58369 0.06505 0.0
H414 H 0.71561 0.58771 0.16964 0.0
H415 H 0.71568 0.56349 0.14897 0.0
H416 H 0.67829 0.58057 0.43328 0.0
H417 H 0.67615 0.52095 0.39 0.0
H418 H 0.66204 0.58675 0.23395 0.0
H419 H 0.68986 0.59883 0.21086 0.0
H420 H 0.68113 0.60313 0.31609 0.0
H421 H 0.65875 0.51241 0.17994 0.0
H422 H 0.67586 0.50764 0.25061 0.0
H423 H 0.6869 0.5268 0.16274 0.0
C424 C 0.10762 0.67704 0.58527 0.0
C425 C 0.12479 0.67553 0.61953 0.0
C426 C 0.10465 0.67728 0.49397 0.0
C427 C 0.11907 0.67577 0.43568 0.0
C428 C 0.13685 0.67508 0.46993 0.0
C429 C 0.13954 0.67506 0.56114 0.0
C430 C 0.0856 0.67824 0.45996 0.0
C431 C 0.1525 0.67321 0.41031 0.0
C432 C 0.10027 0.64852 0.21497 0.0
C433 C 0.11 0.66567 0.15596 0.0
C434 C 0.10247 0.65172 0.30602 0.0
C435 C 0.11453 0.67264 0.33961 0.0
C436 C 0.12362 0.69013 0.28084 0.0
C437 C 0.12135 0.68644 0.18959 0.0
C438 C 0.09269 0.63257 0.36612 0.0
C439 C 0.13643 0.71267 0.31425 0.0
H440 H 0.09616 0.67746 0.62969 0.0
H441 H 0.15287 0.67389 0.58659 0.0
H442 H 0.0905 0.69049 0.40778 0.0
H443 H 0.07411 0.66271 0.43019 0.0
H444 H 0.07736 0.68188 0.51284 0.0
H445 H 0.16633 0.67444 0.4469 0.0
H446 H 0.14439 0.65764 0.37593 0.0
H447 H 0.15847 0.68581 0.3593 0.0
H448 H 0.09146 0.63238 0.19009 0.0
H449 H 0.12891 0.6998 0.14472 0.0
H450 H 0.08271 0.63436 0.4168 0.0
H451 H 0.10547 0.63132 0.40088 0.0
H452 H 0.08271 0.61748 0.3299 0.0
H453 H 0.12753 0.71562 0.36641 0.0
H454 H 0.14043 0.72458 0.26108 0.0
H455 H 0.15146 0.71513 0.34392 0.0
C456 C 0.85239 0.53277 0.13094 0.0
C457 C 0.86732 0.54771 0.0722 0.0
C458 C 0.8552 0.53547 0.22205 0.0
C459 C 0.87331 0.55368 0.25591 0.0
C460 C 0.8879 0.5694 0.19733 0.0
C461 C 0.8848 0.56619 0.10606 0.0
C462 C 0.83934 0.51818 0.28193 0.0
C463 C 0.90729 0.58913 0.231 0.0
C464 C 0.87118 0.56181 0.50211 0.0
C465 C 0.88205 0.55184 0.53536 0.0
C466 C 0.86912 0.56357 0.41096 0.0
C467 C 0.87791 0.55494 0.35187 0.0
C468 C 0.88952 0.54554 0.38511 0.0
C469 C 0.89153 0.54421 0.47612 0.0
C470 C 0.85682 0.5739 0.37798 0.0
C471 C 0.89892 0.53586 0.32464 0.0
H472 H 0.83878 0.51845 0.10584 0.0
H473 H 0.89641 0.57784 0.06138 0.0
H474 H 0.84715 0.51038 0.31612 0.0
H475 H 0.8337 0.52508 0.33307 0.0
H476 H 0.82532 0.5058 0.24559 0.0
H477 H 0.91564 0.60097 0.17803 0.0
H478 H 0.90275 0.5967 0.28358 0.0
H479 H 0.91858 0.58472 0.26015 0.0
H480 H 0.86383 0.5678 0.54719 0.0
H481 H 0.89996 0.53646 0.50076 0.0
H482 H 0.84164 0.56165 0.34814 0.0
H483 H 0.86596 0.58573 0.32605 0.0
H484 H 0.85311 0.58197 0.43143 0.0
H485 H 0.88593 0.52201 0.28979 0.0
H486 H 0.90865 0.53039 0.36059 0.0
H487 H 0.90904 0.54755 0.27403 0.0
C488 C 0.34439 0.89398 0.64726 0.0
C489 C 0.32725 0.88408 0.7062 0.0
C490 C 0.34123 0.8917 0.55621 0.0
C491 C 0.32035 0.87938 0.52252 0.0
C492 C 0.30285 0.87011 0.5812 0.0
C493 C 0.3065 0.87247 0.67247 0.0
C494 C 0.3604 0.90167 0.49623 0.0
C495 C 0.28034 0.85705 0.54767 0.0
C496 C 0.31594 0.8862 0.27678 0.0
C497 C 0.31774 0.86919 0.24263 0.0
C498 C 0.31559 0.88912 0.36805 0.0
C499 C 0.3173 0.87483 0.42644 0.0
C500 C 0.31829 0.8572 0.39231 0.0
C501 C 0.31841 0.85455 0.3011 0.0
C502 C 0.31433 0.90801 0.40193 0.0
C503 C 0.32037 0.84169 0.45205 0.0
H504 H 0.36051 0.90299 0.6722 0.0
H505 H 0.29315 0.86477 0.71729 0.0
H506 H 0.36185 0.88899 0.4616 0.0
H507 H 0.35847 0.91155 0.44544 0.0
H508 H 0.37544 0.9118 0.53252 0.0
H509 H 0.26839 0.85289 0.60075 0.0
H510 H 0.27725 0.86583 0.49541 0.0
H511 H 0.27811 0.84209 0.51809 0.0
H512 H 0.31537 0.89758 0.23231 0.0
H513 H 0.31981 0.84134 0.27572 0.0
H514 H 0.32978 0.91965 0.43189 0.0
H515 H 0.30202 0.90296 0.45394 0.0
H516 H 0.31057 0.91615 0.34894 0.0
H517 H 0.33592 0.84996 0.48658 0.0
H518 H 0.31935 0.82795 0.41554 0.0
H519 H 0.30774 0.83557 0.50294 0.0
C520 C 0.43411 0.30899 0.83985 0.0
C521 C 0.44326 0.32975 0.87348 0.0
C522 C 0.43278 0.30532 0.74859 0.0
C523 C 0.44101 0.32282 0.68984 0.0
C524 C 0.44959 0.3437 0.72344 0.0
C525 C 0.4505 0.34688 0.81447 0.0
C526 C 0.42333 0.28281 0.71515 0.0
C527 C 0.45878 0.36286 0.66339 0.0
C528 C 0.4639 0.32096 0.46839 0.0
C529 C 0.44861 0.32035 0.40996 0.0
C530 C 0.46111 0.32076 0.55959 0.0
C531 C 0.44249 0.31976 0.59378 0.0
C532 C 0.4265 0.31809 0.53543 0.0
C533 C 0.42979 0.31852 0.44415 0.0
C534 C 0.47868 0.32279 0.61929 0.0
C535 C 0.40635 0.31681 0.56937 0.0
H536 H 0.42846 0.29565 0.88473 0.0
H537 H 0.45762 0.36301 0.83933 0.0
H538 H 0.41146 0.27973 0.66289 0.0
H539 H 0.43604 0.28055 0.68559 0.0
H540 H 0.41553 0.27087 0.76827 0.0
H541 H 0.46372 0.37792 0.69963 0.0
H542 H 0.47288 0.36429 0.62866 0.0
H543 H 0.44696 0.36095 0.61267 0.0
H544 H 0.47851 0.32237 0.44299 0.0
H545 H 0.41786 0.31798 0.39971 0.0
H546 H 0.47216 0.31016 0.67019 0.0
H547 H 0.48599 0.33834 0.6538 0.0
H548 H 0.49138 0.32174 0.58273 0.0
H549 H 0.39912 0.30452 0.62146 0.0
H550 H 0.39444 0.31303 0.51643 0.0
H551 H 0.41015 0.33227 0.59923 0.0
C552 C 0.12126 0.43301 0.03333 0.0
C553 C 0.1099 0.44235 0.06772 0.0
C554 C 0.12349 0.43171 0.94203 0.0
C555 C 0.11433 0.44015 0.88378 0.0
C556 C 0.1023 0.44899 0.91807 0.0
C557 C 0.10017 0.44989 0.00931 0.0
C558 C 0.1363 0.42203 0.90798 0.0
C559 C 0.09245 0.45838 0.85849 0.0
C560 C 0.13939 0.46219 0.6616 0.0
C561 C 0.12479 0.44674 0.60351 0.0
C562 C 0.13654 0.45984 0.75286 0.0
C563 C 0.11871 0.44148 0.78754 0.0
C564 C 0.10437 0.42537 0.72967 0.0
C565 C 0.10752 0.42823 0.63827 0.0
C566 C 0.15213 0.47751 0.81199 0.0
C567 C 0.08528 0.40549 0.76417 0.0
H568 H 0.12883 0.42712 0.07772 0.0
H569 H 0.0914 0.45721 0.03484 0.0
H570 H 0.12726 0.41005 0.85647 0.0
H571 H 0.15118 0.4346 0.87729 0.0
H572 H 0.14058 0.41431 0.96095 0.0
H573 H 0.08249 0.46346 0.89514 0.0
H574 H 0.10519 0.47243 0.8237 0.0
H575 H 0.08244 0.44664 0.80779 0.0
H576 H 0.15278 0.4766 0.6358 0.0
H577 H 0.09614 0.4162 0.59412 0.0
H578 H 0.15824 0.47105 0.86316 0.0
H579 H 0.14394 0.48491 0.84621 0.0
H580 H 0.16587 0.49012 0.7751 0.0
H581 H 0.09018 0.3981 0.81619 0.0
H582 H 0.07686 0.39358 0.71156 0.0
H583 H 0.07393 0.40968 0.79435 0.0
C584 C 0.67592 0.14084 0.84362 0.0
C585 C 0.67701 0.12636 0.78558 0.0
C586 C 0.67538 0.13797 0.93489 0.0
C587 C 0.6761 0.12025 0.96965 0.0
C588 C 0.67811 0.10603 0.91185 0.0
C589 C 0.67844 0.1092 0.82044 0.0
C590 C 0.67304 0.15342 0.99394 0.0
C591 C 0.6791 0.08705 0.94644 0.0
C592 C 0.68711 0.12285 0.21548 0.0
C593 C 0.66642 0.1113 0.24986 0.0
C594 C 0.69063 0.12514 0.12419 0.0
C595 C 0.67306 0.11584 0.06591 0.0
C596 C 0.65221 0.10363 0.10018 0.0
C597 C 0.64917 0.10144 0.19143 0.0
C598 C 0.7131 0.13817 0.0902 0.0
C599 C 0.63298 0.09362 0.04057 0.0
H600 H 0.67475 0.15415 0.81775 0.0
H601 H 0.67928 0.09791 0.77635 0.0
H602 H 0.65744 0.14508 0.02805 0.0
H603 H 0.68558 0.15964 0.04521 0.0
H604 H 0.67402 0.1671 0.95701 0.0
H605 H 0.68273 0.07871 0.89387 0.0
H606 H 0.6914 0.09206 0.99848 0.0
H607 H 0.66361 0.0756 0.97661 0.0
H608 H 0.70055 0.13053 0.25988 0.0
H609 H 0.6331 0.09252 0.21697 0.0
H610 H 0.71524 0.15298 0.05945 0.0
H611 H 0.7162 0.12922 0.03874 0.0
H612 H 0.72512 0.14258 0.1432 0.0
H613 H 0.63152 0.10627 1.00576 0.0
H614 H 0.61798 0.08354 0.07718 0.0
H615 H 0.63485 0.08369 0.98987 0.0
C616 C 0.54225 0.64885 0.33879 0.0
C617 C 0.54967 0.66605 0.39743 0.0
C618 C 0.54336 0.65201 0.24757 0.0
C619 C 0.55229 0.67292 0.21361 0.0
C620 C 0.56063 0.69044 0.27217 0.0
C621 C 0.55913 0.68681 0.36339 0.0
C622 C 0.53401 0.63284 0.18765 0.0
C623 C 0.5704 0.71298 0.23854 0.0
C624 C 0.56413 0.67827 0.96794 0.0
C625 C 0.5456 0.67709 0.93359 0.0
C626 C 0.56703 0.6779 0.05929 0.0
C627 C 0.55096 0.6761 0.11748 0.0
C628 C 0.53262 0.67568 0.08321 0.0
C629 C 0.53022 0.67627 0.99205 0.0
C630 C 0.5869 0.67859 0.09341 0.0
C631 C 0.51498 0.67357 0.14264 0.0
H632 H 0.53485 0.63274 0.3641 0.0
H633 H 0.56493 0.70022 0.40798 0.0
H634 H 0.51996 0.63155 0.15291 0.0
H635 H 0.54577 0.63464 0.13691 0.0
H636 H 0.52895 0.61778 0.22402 0.0
H637 H 0.57808 0.72491 0.29177 0.0
H638 H 0.58244 0.71595 0.18723 0.0
H639 H 0.5579 0.71538 0.20771 0.0
H640 H 0.5761 0.67888 0.9235 0.0
H641 H 0.51582 0.67534 0.96662 0.0
H642 H 0.58271 0.66299 0.12292 0.0
H643 H 0.59429 0.69076 0.14585 0.0
H644 H 0.59882 0.68221 0.04069 0.0
H645 H 0.50758 0.65795 0.17665 0.0
H646 H 0.50236 0.67476 0.10603 0.0
H647 H 0.52147 0.68609 0.19396 0.0
C648 C 0.4036 0.04589 0.998 0.0
C649 C 0.42207 0.0539 0.04912 0.0
C650 C 0.39043 0.02383 0.9863 0.0
C651 C 0.39562 0.00966 0.0291 0.0
C652 C 0.41373 0.01778 0.0842 0.0
C653 C 0.42692 0.03981 0.09238 0.0
C654 C 0.37157 0.01575 0.92524 0.0
C655 C 0.41955 0.00321 0.13269 0.0
C656 C 0.35629 0.95047 0.05173 0.0
C657 C 0.36457 0.94213 0.99061 0.0
C658 C 0.36579 0.9726 0.06345 0.0
C659 C 0.38346 0.98646 0.01069 0.0
C660 C 0.391 0.97797 0.94544 0.0
C661 C 0.38168 0.95588 0.93725 0.0
C662 C 0.35768 0.98107 0.13516 0.0
C663 C 0.40944 0.99218 0.88635 0.0
H664 H 0.39993 0.05688 0.96467 0.0
H665 H 0.44105 0.04606 0.13316 0.0
H666 H 0.37431 0.00823 0.86701 0.0
H667 H 0.35697 0.00336 0.95819 0.0
H668 H 0.36877 0.02869 0.90238 0.0
H669 H 0.43278 0.012 0.17999 0.0
H670 H 0.40556 0.99083 0.16901 0.0
H671 H 0.42447 0.99493 0.08501 0.0
H672 H 0.34303 0.9397 0.09282 0.0
H673 H 0.38781 0.94929 0.88907 0.0
H674 H 0.35486 0.99373 0.10921 0.0
H675 H 0.3699 0.98833 0.18754 0.0
H676 H 0.3427 0.96837 0.16497 0.0
H677 H 0.40696 0.00479 0.85713 0.0
H678 H 0.41166 0.98316 0.8324 0.0
H679 H 0.42433 0.00019 0.92543 0.0
C680 C 0.4033 0.35636 0.20493 0.0
C681 C 0.42216 0.367 0.1563 0.0
C682 C 0.38996 0.36513 0.21433 0.0
C683 C 0.3954 0.38457 0.17169 0.0
C684 C 0.41397 0.39479 0.11923 0.0
C685 C 0.42728 0.38604 0.11334 0.0
C686 C 0.3706 0.35411 0.27264 0.0
C687 C 0.42008 0.41527 0.07103 0.0
C688 C 0.35618 0.40433 0.14086 0.0
C689 C 0.36389 0.42082 0.20249 0.0
C690 C 0.36579 0.39173 0.13174 0.0
C691 C 0.38297 0.39545 0.18753 0.0
C692 C 0.38987 0.41132 0.25329 0.0
C693 C 0.38046 0.42405 0.25896 0.0
C694 C 0.35836 0.37531 0.05953 0.0
C695 C 0.40777 0.41545 0.31549 0.0
H696 H 0.3994 0.3416 0.23799 0.0
H697 H 0.44171 0.39406 0.0744 0.0
H698 H 0.37276 0.36423 0.33077 0.0
H699 H 0.35625 0.35186 0.23728 0.0
H700 H 0.36774 0.33837 0.29584 0.0
H701 H 0.43377 0.41995 0.02597 0.0
H702 H 0.4064 0.41366 0.03227 0.0
H703 H 0.42446 0.42832 0.11904 0.0
H704 H 0.34332 0.40194 0.09742 0.0
H705 H 0.38614 0.43667 0.30751 0.0
H706 H 0.35545 0.3598 0.0857 0.0
H707 H 0.37101 0.38044 0.00893 0.0
H708 H 0.34359 0.37298 0.02742 0.0
H709 H 0.40511 0.4003 0.34482 0.0
H710 H 0.40942 0.42651 0.36936 0.0
H711 H 0.42302 0.42252 0.27885 0.0
C712 C 0.03922 0.42393 0.40621 0.0
C713 C 0.05191 0.41892 0.35344 0.0
C714 C 0.01699 0.41115 0.40548 0.0
C715 C 0.00726 0.39333 0.34859 0.0
C716 C 0.02005 0.38785 0.29703 0.0
C717 C 0.04229 0.40059 0.30097 0.0
C718 C 0.0039 0.41717 0.46326 0.0
C719 C 0.01026 0.36927 0.23419 0.0
C720 C 0.94882 0.35379 0.38818 0.0
C721 C 0.93907 0.3621 0.33418 0.0
C722 C 0.97108 0.36345 0.39205 0.0
C723 C 0.98374 0.38144 0.33888 0.0
C724 C 0.97387 0.38906 0.28036 0.0
C725 C 0.95163 0.37948 0.27973 0.0
C726 C 0.98103 0.35516 0.45661 0.0
C727 C 0.98681 0.40785 0.22081 0.0
H728 H 0.0467 0.43805 0.44711 0.0
H729 H 0.0521 0.39684 0.25936 0.0
H730 H 0.99492 0.42257 0.42187 0.0
H731 H 0.9921 0.40314 0.50119 0.0
H732 H 0.01392 0.43012 0.51001 0.0
H733 H 0.02236 0.36615 0.20384 0.0
H734 H -0.00171 0.35464 0.26837 0.0
H735 H 0.00183 0.37259 0.18107 0.0
H736 H 0.9391 0.34047 0.4311 0.0
H737 H 0.94404 0.38583 0.23772 0.0
H738 H 0.98932 0.3672 0.50886 0.0
H739 H 0.99314 0.35252 0.42362 0.0
H740 H 0.96903 0.34004 0.48797 0.0
H741 H 0.99566 0.42251 0.26078 0.0
H742 H 0.9767 0.41035 0.17291 0.0
H743 H -0.00127 0.40556 0.18409 0.0
C744 C 0.59333 0.94969 0.56015 0.0
C745 C 0.5751 0.94052 0.50699 0.0
C746 C 0.60634 0.97188 0.56559 0.0
C747 C 0.60124 0.9851 0.51495 0.0
C748 C 0.58358 0.97582 0.45711 0.0
C749 C 0.57053 0.95363 0.4548 0.0
C750 C 0.62476 0.98117 0.62931 0.0
C751 C 0.57795 0.98936 0.40024 0.0
C752 C 0.61506 0.04041 0.58861 0.0
C753 C 0.63256 0.05322 0.53514 0.0
C754 C 0.60548 0.01817 0.58625 0.0
C755 C 0.61323 0.00857 0.52701 0.0
C756 C 0.63138 0.02147 0.47505 0.0
C757 C 0.64102 0.04372 0.48059 0.0
C758 C 0.58651 0.00496 0.64454 0.0
C759 C 0.63983 0.01183 0.40984 0.0
H760 H 0.59675 0.93956 0.6013 0.0
H761 H 0.55649 0.94652 0.41336 0.0
H762 H 0.63949 0.99337 0.5965 0.0
H763 H 0.62131 0.98921 0.68361 0.0
H764 H 0.62775 0.96882 0.65794 0.0
H765 H 0.56515 0.97969 0.35232 0.0
H766 H 0.57247 -0.00181 0.44223 0.0
H767 H 0.59217 0.00131 0.36368 0.0
H768 H 0.60859 0.0478 0.63107 0.0
H769 H 0.65443 0.05363 0.43843 0.0
H770 H 0.58863 0.99279 0.68012 0.0
H771 H 0.57196 0.99641 0.60371 0.0
H772 H 0.58394 0.01484 0.69337 0.0
H773 H 0.64216 -0.00061 0.44168 0.0
H774 H 0.65516 0.02395 0.38026 0.0
H775 H 0.62804 0.00401 0.35634 0.0
C776 C 0.61643 0.5745 0.61196 0.0
C777 C 0.63253 0.57831 0.67215 0.0
C778 C 0.60677 0.58709 0.61184 0.0
C779 C 0.61289 0.60337 0.67551 0.0
C780 C 0.62966 0.60772 0.73464 0.0
C781 C 0.63951 0.59528 0.7314 0.0
C782 C 0.58938 0.58236 0.546 0.0
C783 C 0.63628 0.62457 0.80477 0.0
C784 C 0.59332 0.64259 0.64052 0.0
C785 C 0.57393 0.63255 0.68611 0.0
C786 C 0.60658 0.63363 0.63842 0.0
C787 C 0.60045 0.61447 0.68458 0.0
C788 C 0.58149 0.60499 0.73487 0.0
C789 C 0.56833 0.61401 0.73417 0.0
C790 C 0.62648 0.64399 0.58293 0.0
C791 C 0.57465 0.58483 0.78672 0.0
H792 H 0.61112 0.56138 0.56603 0.0
H793 H 0.65181 0.59803 0.77872 0.0
H794 H 0.57384 0.57554 0.58031 0.0
H795 H 0.59224 0.59723 0.51327 0.0
H796 H 0.58822 0.57089 0.49489 0.0
H797 H 0.65083 0.62732 0.8402 0.0
H798 H 0.63923 0.63984 0.77579 0.0
H799 H 0.62319 0.61958 0.85317 0.0
H800 H 0.59762 0.65684 0.60271 0.0
H801 H 0.55341 0.60633 0.76999 0.0
H802 H 0.62456 0.63354 0.52631 0.0
H803 H 0.64038 0.64605 0.62131 0.0
H804 H 0.62998 0.65977 0.5574 0.0
H805 H 0.57046 0.57139 0.74104 0.0
H806 H 0.56066 0.58071 0.82916 0.0
H807 H 0.58792 0.58652 0.82866 0.0
C808 C 0.04364 0.63904 0.82558 0.0
C809 C 0.05191 0.62802 0.87129 0.0
C810 C 0.02155 0.63009 0.81485 0.0
C811 C 0.00757 0.61004 0.85311 0.0
C812 C 0.01593 0.59935 0.9025 0.0
C813 C 0.038 0.60833 0.90983 0.0
C814 C 0.01321 0.64166 0.75988 0.0
C815 C 0.00158 0.57817 0.94602 0.0
C816 C 0.9484 0.58929 0.88325 0.0
C817 C 0.93996 0.57362 0.81809 0.0
C818 C 0.97056 0.60196 0.89386 0.0
C819 C 0.98432 0.59918 0.83612 0.0
C820 C 0.97567 0.58418 0.76698 0.0
C821 C 0.95357 0.57133 0.75976 0.0
C822 C 0.97919 0.61742 0.96959 0.0
C823 C 0.98976 0.58106 0.70274 0.0
H824 H 0.05447 0.65428 0.79586 0.0
H825 H 0.04441 0.59997 0.94653 0.0
H826 H 0.00547 0.63224 0.69994 0.0
H827 H 0.00093 0.64335 0.79663 0.0
H828 H 0.02604 0.65773 0.73966 0.0
H829 H 0.01054 0.573 0.98899 0.0
H830 H 0.98929 0.57908 0.9861 0.0
H831 H 0.99318 0.56579 0.89515 0.0
H832 H 0.93771 0.59093 0.92819 0.0
H833 H 0.94687 0.55932 0.70866 0.0
H834 H 0.99171 0.63331 0.94655 0.0
H835 H 0.98667 0.61176 0.01815 0.0
H836 H 0.96654 0.61914 1.00326 0.0
H837 H 0.00223 0.59663 0.67656 0.0
H838 H 0.98059 0.5707 0.64673 0.0
H839 H -0.00205 0.57364 0.73682 0.0
C840 C 0.52209 0.12255 0.83565 0.0
C841 C 0.51328 0.11113 0.91349 0.0
C842 C 0.53735 0.12016 0.78847 0.0
C843 C 0.54372 0.10575 0.81904 0.0
C844 C 0.53396 0.09322 0.89448 0.0
C845 C 0.51896 0.09619 0.9413 0.0
C846 C 0.54747 0.13391 0.70845 0.0
C847 C 0.53995 0.07731 0.92772 0.0
C848 C 0.57618 0.09488 0.65337 0.0
C849 C 0.59701 0.10963 0.67955 0.0
C850 C 0.55856 0.09247 0.70123 0.0
C851 C 0.56189 0.10533 0.77611 0.0
C852 C 0.58286 0.11939 0.8055 0.0
C853 C 0.60015 0.12125 0.75728 0.0
C854 C 0.53641 0.07688 0.66933 0.0
C855 C 0.58709 0.13345 0.88497 0.0
H856 H 0.51774 0.13405 0.81326 0.0
H857 H 0.51205 0.08712 1.00082 0.0
H858 H 0.56466 0.14486 0.72095 0.0
H859 H 0.54622 0.12391 0.65116 0.0
H860 H 0.54 0.14357 0.6909 0.0
H861 H 0.52875 0.06667 0.97882 0.0
H862 H 0.54029 0.0674 0.87287 0.0
H863 H 0.55616 0.08586 0.95651 0.0
H864 H 0.57359 0.08565 0.59401 0.0
H865 H 0.61616 0.13256 0.77858 0.0
H866 H 0.52909 0.08571 0.64002 0.0
H867 H 0.52617 0.06739 0.72492 0.0
H868 H 0.5365 0.06585 0.61894 0.0
H869 H 0.58151 0.14492 0.87183 0.0
H870 H 0.60426 0.14255 0.90227 0.0
H871 H 0.57811 0.12378 0.94261 0.0
C872 C 0.41827 0.51782 0.08915 0.0
C873 C 0.39758 0.51195 0.06165 0.0
C874 C 0.43612 0.53292 0.0421 0.0
C875 C 0.43318 0.54259 0.96676 0.0
C876 C 0.41234 0.53602 0.93642 0.0
C877 C 0.39481 0.52066 0.98381 0.0
C878 C 0.45811 0.53913 0.07504 0.0
C879 C 0.40852 0.54603 0.8565 0.0
C880 C 0.47367 0.59924 0.90557 0.0
C881 C 0.48225 0.59628 0.82777 0.0
C882 C 0.45832 0.58182 0.95354 0.0
C883 C 0.45163 0.56092 0.92384 0.0
C884 C 0.46126 0.55779 0.84881 0.0
C885 C 0.47635 0.57553 0.80117 0.0
C886 C 0.44836 0.58585 0.03311 0.0
C887 C 0.45494 0.53573 0.81656 0.0
H888 H 0.42056 0.51099 0.14865 0.0
H889 H 0.3789 0.51615 0.96162 0.0
H890 H 0.46835 0.53956 0.02004 0.0
H891 H 0.46564 0.55534 0.10377 0.0
H892 H 0.4577 0.52798 0.12611 0.0
H893 H 0.39138 0.53837 0.83903 0.0
H894 H 0.41454 0.56318 0.86911 0.0
H895 H 0.41734 0.54495 0.79914 0.0
H896 H 0.47821 0.6152 0.92712 0.0
H897 H 0.48308 0.57309 0.74172 0.0
H898 H 0.44922 0.57693 0.09067 0.0
H899 H 0.43127 0.58005 0.02006 0.0
H900 H 0.45622 0.603 0.05048 0.0
H901 H 0.4543 0.52548 0.87198 0.0
H902 H 0.46613 0.53599 0.7661 0.0
H903 H 0.43879 0.52828 0.78721 0.0
C904 C 0.8977 0.47603 0.93181 0.0
C905 C 0.88369 0.48278 0.96123 0.0
C906 C 0.90018 0.46074 0.97874 0.0
C907 C 0.88813 0.45179 0.05602 0.0
C908 C 0.8748 0.45931 0.08838 0.0
C909 C 0.87288 0.47483 0.04099 0.0
C910 C 0.91497 0.45349 0.94346 0.0
C911 C 0.86159 0.45011 0.17044 0.0
C912 C 0.87036 0.39485 0.1192 0.0
C913 C 0.88252 0.39763 0.19491 0.0
C914 C 0.87267 0.41238 0.07131 0.0
C915 C 0.88776 0.43321 0.09891 0.0
C916 C 0.90105 0.4361 0.17183 0.0
C917 C 0.89816 0.41827 0.21949 0.0
C918 C 0.85811 0.40862 0.99402 0.0
C919 C 0.91772 0.45805 0.20167 0.0
H920 H 0.90631 0.48225 0.87078 0.0
H921 H 0.86213 0.48003 0.06472 0.0
H922 H 0.92487 0.45259 0.99704 0.0
H923 H 0.90549 0.4373 0.9152 0.0
H924 H 0.92564 0.46429 0.89139 0.0
H925 H 0.85296 0.45855 0.18954 0.0
H926 H 0.84974 0.43307 0.15948 0.0
H927 H 0.87181 0.4509 0.22614 0.0
H928 H 0.85832 0.37898 0.09927 0.0
H929 H 0.90781 0.42055 0.27726 0.0
H930 H 0.86754 0.41695 0.93489 0.0
H931 H 0.84758 0.41525 0.00867 0.0
H932 H 0.848 0.39144 0.97831 0.0
H933 H 0.92717 0.46777 0.14487 0.0
H934 H 0.92873 0.45748 0.25093 0.0
H935 H 0.90985 0.46628 0.23162 0.0
C936 C 0.47712 0.90011 0.3872 0.0
C937 C 0.48328 0.88547 0.36025 0.0
C938 C 0.46196 0.90265 0.33951 0.0
C939 C 0.45253 0.89 0.264 0.0
C940 C 0.45951 0.87605 0.23386 0.0
C941 C 0.47492 0.87409 0.28192 0.0
C942 C 0.45532 0.91811 0.37227 0.0
C943 C 0.44979 0.86221 0.15375 0.0
C944 C 0.39556 0.87288 0.20396 0.0
C945 C 0.39821 0.8845 0.12667 0.0
C946 C 0.41317 0.87515 0.25112 0.0
C947 C 0.43396 0.88967 0.22114 0.0
C948 C 0.43677 0.90239 0.1463 0.0
C949 C 0.41885 0.89953 0.09944 0.0
C950 C 0.40948 0.86119 0.33047 0.0
C951 C 0.4587 0.91843 0.11377 0.0
H952 H 0.48367 0.90916 0.44705 0.0
H953 H 0.47967 0.86285 0.26003 0.0
H954 H 0.45455 0.92772 0.31715 0.0
H955 H 0.43918 0.90919 0.40148 0.0
H956 H 0.46641 0.92905 0.42297 0.0
H957 H 0.45791 0.85319 0.13592 0.0
H958 H 0.43275 0.85068 0.16644 0.0
H959 H 0.45051 0.87203 0.0966 0.0
H960 H 0.37969 0.8613 0.22589 0.0
H961 H 0.42104 0.90876 0.04038 0.0
H962 H 0.41814 0.87104 0.38822 0.0
H963 H 0.41579 0.85031 0.31744 0.0
H964 H 0.39234 0.85145 0.34758 0.0
H965 H 0.46883 0.92823 0.16903 0.0
H966 H 0.45815 0.92916 0.063 0.0
H967 H 0.46646 0.90999 0.0848 0.0
C968 C 0.57567 0.48014 0.55519 0.0
C969 C 0.59653 0.48674 0.52772 0.0
C970 C 0.55809 0.46482 0.50746 0.0
C971 C 0.56151 0.45571 0.4314 0.0
C972 C 0.58248 0.46316 0.40072 0.0
C973 C 0.59972 0.47871 0.44883 0.0
C974 C 0.53593 0.45768 0.54081 0.0
C975 C 0.58681 0.4538 0.31999 0.0
C976 C 0.5226 0.39854 0.37069 0.0
C977 C 0.51336 0.40102 0.29387 0.0
C978 C 0.53771 0.41625 0.41794 0.0
C979 C 0.54349 0.43697 0.38853 0.0
C980 C 0.5333 0.43958 0.31418 0.0
C981 C 0.51847 0.42156 0.26719 0.0
C982 C 0.54831 0.41279 0.49674 0.0
C983 C 0.53864 0.46141 0.28231 0.0
H984 H 0.57304 0.48644 0.61547 0.0
H985 H 0.61576 0.48382 0.42652 0.0
H986 H 0.52536 0.45667 0.48604 0.0
H987 H 0.52909 0.44155 0.56985 0.0
H988 H 0.53585 0.4686 0.5918 0.0
H989 H 0.60394 0.46229 0.30175 0.0
H990 H 0.58172 0.43682 0.33217 0.0
H991 H 0.5775 0.45434 0.26328 0.0
H992 H 0.51869 0.38274 0.39215 0.0
H993 H 0.51121 0.42361 0.2085 0.0
H994 H 0.54691 0.42121 0.5549 0.0
H995 H 0.56554 0.4195 0.48334 0.0
H996 H 0.54131 0.39566 0.51339 0.0
H997 H 0.52719 0.46064 0.23193 0.0
H998 H 0.55481 0.46954 0.25308 0.0
H999 H 0.53875 0.47134 0.33797 0.0
C1000 C 0.12104 0.51946 0.57352 0.0
C1001 C 0.10925 0.51086 0.49626 0.0
C1002 C 0.11918 0.53486 0.62201 0.0
C1003 C 0.10492 0.5416 0.59339 0.0
C1004 C 0.09197 0.53202 0.5188 0.0
C1005 C 0.0944 0.51686 0.47064 0.0
C1006 C 0.13337 0.54476 0.70109 0.0
C1007 C 0.07619 0.53842 0.4877 0.0
C1008 C 0.09543 0.57473 0.76069 0.0
C1009 C 0.11015 0.59547 0.73331 0.0
C1010 C 0.09265 0.55695 0.71307 0.0
C1011 C 0.10513 0.56 0.63721 0.0
C1012 C 0.11931 0.58088 0.60708 0.0
C1013 C 0.12152 0.59834 0.65509 0.0
C1014 C 0.07699 0.53492 0.7459 0.0
C1015 C 0.13301 0.58481 0.52664 0.0
H1016 H 0.13246 0.51484 0.59433 0.0
H1017 H 0.08504 0.51013 0.41162 0.0
H1018 H 0.1446 0.56187 0.6881 0.0
H1019 H 0.12374 0.54384 0.75925 0.0
H1020 H 0.14273 0.53691 0.71748 0.0
H1021 H 0.06522 0.52736 0.43701 0.0
H1022 H 0.06663 0.5389 0.54364 0.0
H1023 H 0.08485 0.55465 0.4591 0.0
H1024 H 0.0864 0.57236 0.82049 0.0
H1025 H 0.13284 0.61428 0.63302 0.0
H1026 H 0.08575 0.52736 0.77365 0.0
H1027 H 0.06705 0.52472 0.69101 0.0
H1028 H 0.06637 0.53524 0.79769 0.0
H1029 H 0.14418 0.57879 0.53842 0.0
H1030 H 0.14242 0.60197 0.50943 0.0
H1031 H 0.123 0.57603 0.4694 0.0
C1032 C 0.4798 0.19905 0.1437 0.0
C1033 C 0.46551 0.1832 0.08667 0.0
C1034 C 0.47994 0.21839 0.15222 0.0
C1035 C 0.46593 0.22212 0.10022 0.0
C1036 C 0.45165 0.20622 0.0417 0.0
C1037 C 0.45138 0.1868 0.03667 0.0
C1038 C 0.49495 0.23475 0.2172 0.0
C1039 C 0.43688 0.20984 0.98349 0.0
C1040 C 0.45141 0.26338 0.17058 0.0
C1041 C 0.46567 0.28112 0.12106 0.0
C1042 C 0.45161 0.24419 0.16561 0.0
C1043 C 0.46597 0.24255 0.10766 0.0
C1044 C 0.48015 0.26032 0.0562 0.0
C1045 C 0.48006 0.27955 0.06462 0.0
C1046 C 0.43666 0.22578 0.22326 0.0
C1047 C 0.49526 0.25896 0.99185 0.0
H1048 H 0.49068 0.19619 0.18246 0.0
H1049 H 0.44052 0.17463 0.99158 0.0
H1050 H 0.50613 0.24964 0.18243 0.0
H1051 H 0.48582 0.23874 0.26443 0.0
H1052 H 0.50434 0.22909 0.25457 0.0
H1053 H 0.42733 0.19614 0.93919 0.0
H1054 H 0.42583 0.2126 0.0243 0.0
H1055 H 0.44622 0.2243 0.94282 0.0
H1056 H 0.44047 0.26469 0.21522 0.0
H1057 H 0.49105 0.29329 0.02623 0.0
H1058 H 0.44586 0.22054 0.26426 0.0
H1059 H 0.42565 0.21203 0.18203 0.0
H1060 H 0.42706 0.22994 0.26721 0.0
H1061 H 0.50631 0.25513 0.02708 0.0
H1062 H 0.50479 0.27404 0.95489 0.0
H1063 H 0.4862 0.24592 0.94422 0.0
C1064 C 0.19621 0.47858 0.24682 0.0
C1065 C 0.18111 0.4643 0.30635 0.0
C1066 C 0.21534 0.47863 0.23237 0.0
C1067 C 0.21966 0.46454 0.28083 0.0
C1068 C 0.20454 0.45029 0.34192 0.0
C1069 C 0.18528 0.45011 0.35291 0.0
C1070 C 0.23084 0.49361 0.16486 0.0
C1071 C 0.20883 0.43544 0.39651 0.0
C1072 C 0.25994 0.45002 0.19649 0.0
C1073 C 0.27825 0.46427 0.24304 0.0
C1074 C 0.24085 0.45023 0.20694 0.0
C1075 C 0.23994 0.46456 0.26744 0.0
C1076 C 0.25831 0.47871 0.31588 0.0
C1077 C 0.27739 0.47863 0.302 0.0
C1078 C 0.22174 0.4353 0.15244 0.0
C1079 C 0.25776 0.49379 0.38283 0.0
H1080 H 0.19289 0.48947 0.2106 0.0
H1081 H 0.17368 0.43924 0.39979 0.0
H1082 H 0.24619 0.50476 0.19675 0.0
H1083 H 0.23414 0.48446 0.11509 0.0
H1084 H 0.22476 0.50305 0.13073 0.0
H1085 H 0.19571 0.42588 0.44331 0.0
H1086 H 0.21101 0.42439 0.35315 0.0
H1087 H 0.2238 0.44471 0.43425 0.0
H1088 H 0.26071 0.4391 0.15003 0.0
H1089 H 0.29157 0.48958 0.33818 0.0
H1090 H 0.21601 0.44452 0.11441 0.0
H1091 H 0.20852 0.42427 0.19588 0.0
H1092 H 0.22534 0.42573 0.10591 0.0
H1093 H 0.2535 0.50485 0.35048 0.0
H1094 H 0.27328 0.50332 0.4168 0.0
H1095 H 0.24534 0.4847 0.43278 0.0
C1096 C 0.71435 0.1969 0.42091 0.0
C1097 C 0.71461 0.18257 0.48188 0.0
C1098 C 0.73301 0.21598 0.40095 0.0
C1099 C 0.75216 0.22106 0.44522 0.0
C1100 C 0.75239 0.20676 0.50787 0.0
C1101 C 0.73365 0.18749 0.52443 0.0
C1102 C 0.73231 0.23056 0.3319 0.0
C1103 C 0.77237 0.2119 0.55804 0.0
C1104 C 0.80536 0.26045 0.34492 0.0
C1105 C 0.81003 0.2793 0.38858 0.0
C1106 C 0.78635 0.24146 0.36148 0.0
C1107 C 0.77204 0.24123 0.42525 0.0
C1108 C 0.77684 0.26018 0.47048 0.0
C1109 C 0.79567 0.27911 0.45051 0.0
C1110 C 0.7815 0.22171 0.31022 0.0
C1111 C 0.76223 0.26038 0.54064 0.0
H1112 H 0.6996 0.19298 0.38771 0.0
H1113 H 0.73378 0.17649 0.57234 0.0
H1114 H 0.73694 0.24629 0.36114 0.0
H1115 H 0.74394 0.23327 0.27908 0.0
H1116 H 0.71626 0.224 0.30201 0.0
H1117 H 0.76963 0.19945 0.60715 0.0
H1118 H 0.78494 0.21357 0.51189 0.0
H1119 H 0.77852 0.22734 0.5926 0.0
H1120 H 0.81639 0.26067 0.29629 0.0
H1121 H 0.79939 0.2937 0.48456 0.0
H1122 H 0.76592 0.21532 0.2765 0.0
H1123 H 0.78025 0.20917 0.35554 0.0
H1124 H 0.79389 0.22482 0.26028 0.0
H1125 H 0.74635 0.25546 0.51229 0.0
H1126 H 0.76855 0.27634 0.57109 0.0
H1127 H 0.75993 0.24875 0.59289 0.0
C1128 C 0.54106 0.81038 0.61167 0.0
C1129 C 0.52587 0.81066 0.55585 0.0
C1130 C 0.5409 0.79131 0.62907 0.0
C1131 C 0.5257 0.77234 0.5868 0.0
C1132 C 0.51051 0.77266 0.52938 0.0
C1133 C 0.51054 0.79179 0.51584 0.0
C1134 C 0.55688 0.79144 0.69303 0.0
C1135 C 0.49449 0.7529 0.48104 0.0
C1136 C 0.53905 0.72809 0.56974 0.0
C1137 C 0.52559 0.71387 0.63362 0.0
C1138 C 0.53891 0.74702 0.55235 0.0
C1139 C 0.52565 0.75212 0.60277 0.0
C1140 C 0.51229 0.73788 0.66844 0.0
C1141 C 0.51213 0.71868 0.68192 0.0
C1142 C 0.55282 0.76145 0.47974 0.0
C1143 C 0.49846 0.74309 0.72544 0.0
H1144 H 0.55283 0.82504 0.64279 0.0
H1145 H 0.49896 0.79215 0.47181 0.0
H1146 H 0.54851 0.77956 0.74574 0.0
H1147 H 0.56747 0.78682 0.65889 0.0
H1148 H 0.56687 0.8073 0.72375 0.0
H1149 H 0.48424 0.75603 0.4364 0.0
H1150 H 0.50287 0.74644 0.44175 0.0
H1151 H 0.48414 0.7404 0.52861 0.0
H1152 H 0.54937 0.72418 0.5324 0.0
H1153 H 0.50193 0.70768 0.73207 0.0
H1154 H 0.56477 0.77707 0.50732 0.0
H1155 H 0.543 0.76446 0.43226 0.0
H1156 H 0.56132 0.7546 0.44372 0.0
H1157 H 0.50843 0.75851 0.7593 0.0
H1158 H 0.48959 0.73064 0.77573 0.0
H1159 H 0.48682 0.74485 0.68427 0.0
C1160 C 0.80993 0.54311 0.72032 0.0
C1161 C 0.81054 0.52847 0.77834 0.0
C1162 C 0.79096 0.54345 0.70676 0.0
C1163 C 0.77253 0.52939 0.75519 0.0
C1164 C 0.77326 0.51483 0.81508 0.0
C1165 C 0.7922 0.51428 0.8247 0.0
C1166 C 0.79058 0.55868 0.64009 0.0
C1167 C 0.75415 0.50006 0.86991 0.0
C1168 C 0.72948 0.54432 0.77723 0.0
C1169 C 0.71411 0.53002 0.71869 0.0
C1170 C 0.74846 0.54403 0.79114 0.0
C1171 C 0.75239 0.52969 0.74253 0.0
C1172 C 0.737 0.51548 0.68214 0.0
C1173 C 0.71783 0.51555 0.67218 0.0
C1174 C 0.76418 0.55889 0.85832 0.0
C1175 C 0.74091 0.50044 0.6271 0.0
H1176 H 0.82419 0.55402 0.68446 0.0
H1177 H 0.79286 0.50317 0.87049 0.0
H1178 H 0.7779 0.54976 0.59083 0.0
H1179 H 0.78679 0.57002 0.67292 0.0
H1180 H 0.80602 0.56788 0.60524 0.0
H1181 H 0.75766 0.49038 0.91626 0.0
H1182 H 0.74863 0.50942 0.90815 0.0
H1183 H 0.74082 0.48913 0.82672 0.0
H1184 H 0.72644 0.55543 0.81322 0.0
H1185 H 0.70597 0.50471 0.62602 0.0
H1186 H 0.77946 0.57002 0.82591 0.0
H1187 H 0.76757 0.54964 0.90737 0.0
H1188 H 0.75826 0.56834 0.89338 0.0
H1189 H 0.75587 0.50954 0.58912 0.0
H1190 H 0.72768 0.49107 0.58049 0.0
H1191 H 0.7429 0.48922 0.67012 0.0
C1192 C 0.19668 0.7167 0.96828 0.0
C1193 C 0.18085 0.71514 0.91102 0.0
C1194 C 0.21586 0.736 0.9781 0.0
C1195 C 0.21947 0.75385 0.9272 0.0
C1196 C 0.20358 0.75225 0.8686 0.0
C1197 C 0.18431 0.73298 0.86226 0.0
C1198 C 0.23219 0.73731 0.04314 0.0
C1199 C 0.20708 0.77077 0.81152 0.0
C1200 C 0.26053 0.80944 1.00072 0.0
C1201 C 0.27836 0.81308 0.95154 0.0
C1202 C 0.24134 0.79008 0.99445 0.0
C1203 C 0.23982 0.77429 0.93552 0.0
C1204 C 0.25768 0.77808 0.88423 0.0
C1205 C 0.27689 0.79735 0.89398 0.0
C1206 C 0.22283 0.78638 0.05194 0.0
C1207 C 0.25645 0.76186 0.81883 0.0
H1208 H 0.19393 0.70289 1.00614 0.0
H1209 H 0.17216 0.73168 0.81704 0.0
H1210 H 0.24714 0.74115 0.00848 0.0
H1211 H 0.23608 0.75032 0.09084 0.0
H1212 H 0.22658 0.7222 0.07999 0.0
H1213 H 0.19337 0.76668 0.76738 0.0
H1214 H 0.20977 0.78444 0.85313 0.0
H1215 H 0.22155 0.77608 0.77074 0.0
H1216 H 0.26176 0.82152 0.04617 0.0
H1217 H 0.29071 0.80024 0.85581 0.0
H1218 H 0.21766 0.77189 0.09246 0.0
H1219 H 0.20909 0.78363 0.01063 0.0
H1220 H 0.22686 0.80003 0.09635 0.0
H1221 H 0.25274 0.74691 0.85322 0.0
H1222 H 0.27154 0.7676 0.78177 0.0
H1223 H 0.24338 0.75792 0.77135 0.0
C1224 C 0.53065 0.14318 0.29064 0.0
C1225 C 0.53018 0.15281 0.21136 0.0
C1226 C 0.54991 0.14651 0.32598 0.0
C1227 C 0.56922 0.16018 0.282 0.0
C1228 C 0.56906 0.17188 0.20787 0.0
C1229 C 0.54949 0.16792 0.17285 0.0
C1230 C 0.54933 0.1338 0.40574 0.0
C1231 C 0.58937 0.18733 0.16144 0.0
C1232 C 0.61679 0.16688 0.41141 0.0
C1233 C 0.61918 0.15026 0.3766 0.0
C1234 C 0.60181 0.17173 0.37616 0.0
C1235 C 0.58869 0.15939 0.3058 0.0
C1236 C 0.59234 0.14388 0.26566 0.0
C1237 C 0.60769 0.13968 0.30098 0.0
C1238 C 0.59906 0.18904 0.41823 0.0
C1239 C 0.57881 0.13042 0.18997 0.0
H1240 H 0.51586 0.13178 0.32198 0.0
H1241 H 0.54934 0.17576 0.11241 0.0
H1242 H 0.554 0.12194 0.38644 0.0
H1243 H 0.56086 0.14434 0.45591 0.0
H1244 H 0.53327 0.12521 0.43622 0.0
H1245 H 0.58723 0.19889 0.12111 0.0
H1246 H 0.60247 0.19622 0.20908 0.0
H1247 H 0.59429 0.17843 0.11708 0.0
H1248 H 0.62585 0.17542 0.4689 0.0
H1249 H 0.60964 0.12705 0.27255 0.0
H1250 H 0.58553 0.1818 0.46495 0.0
H1251 H 0.59546 0.19793 0.36822 0.0
H1252 H 0.61352 0.20044 0.45524 0.0
H1253 H 0.56216 0.12015 0.21259 0.0
H1254 H 0.58463 0.12007 0.16251 0.0
H1255 H 0.57854 0.14066 0.1365 0.0
C1256 C 0.38331 0.52955 0.43914 0.0
C1257 C 0.3728 0.52892 0.3608 0.0
C1258 C 0.39889 0.54893 0.47481 0.0
C1259 C 0.40373 0.5682 0.43226 0.0
C1260 C 0.39145 0.5678 0.35928 0.0
C1261 C 0.37623 0.54811 0.32373 0.0
C1262 C 0.4115 0.54859 0.55328 0.0
C1263 C 0.39542 0.58803 0.3146 0.0
C1264 C 0.44403 0.61569 0.56341 0.0
C1265 C 0.46314 0.61875 0.52696 0.0
C1266 C 0.42427 0.60056 0.52808 0.0
C1267 C 0.42371 0.58797 0.45599 0.0
C1268 C 0.44293 0.59236 0.41421 0.0
C1269 C 0.46238 0.60786 0.44964 0.0
C1270 C 0.40411 0.59707 0.57185 0.0
C1271 C 0.44309 0.57942 0.33667 0.0
H1272 H 0.3805 0.51483 0.4694 0.0
H1273 H 0.36792 0.54783 0.2641 0.0
H1274 H 0.42813 0.55399 0.53296 0.0
H1275 H 0.41208 0.55967 0.60475 0.0
H1276 H 0.40469 0.53245 0.58253 0.0
H1277 H 0.38133 0.58553 0.27616 0.0
H1278 H 0.3995 0.60093 0.36311 0.0
H1279 H 0.40903 0.59344 0.26866 0.0
H1280 H 0.44442 0.62431 0.62222 0.0
H1281 H 0.47703 0.61036 0.41987 0.0
H1282 H 0.39836 0.58348 0.61811 0.0
H1283 H 0.39136 0.59319 0.52281 0.0
H1284 H 0.40685 0.6113 0.60976 0.0
H1285 H 0.43723 0.56274 0.35769 0.0
H1286 H 0.45925 0.58581 0.30817 0.0
H1287 H 0.43227 0.57906 0.28439 0.0
C1288 C 0.8526 0.38577 0.57512 0.0
C1289 C 0.842 0.3746 0.49893 0.0
C1290 C 0.84864 0.4012 0.61136 0.0
C1291 C 0.83335 0.40524 0.57162 0.0
C1292 C 0.8209 0.39235 0.50095 0.0
C1293 C 0.82551 0.37729 0.46472 0.0
C1294 C 0.86222 0.41446 0.68734 0.0
C1295 C 0.80375 0.39547 0.45951 0.0
C1296 C 0.82595 0.44519 0.70448 0.0
C1297 C 0.84119 0.46434 0.66529 0.0
C1298 C 0.8216 0.42545 0.66984 0.0
C1299 C 0.83306 0.42496 0.59553 0.0
C1300 C 0.84697 0.44414 0.55117 0.0
C1301 C 0.85066 0.46356 0.58604 0.0
C1302 C 0.80591 0.40531 0.71669 0.0
C1303 C 0.85949 0.44439 0.47134 0.0
H1304 H 0.86509 0.38355 0.60321 0.0
H1305 H 0.81694 0.36846 0.40685 0.0
H1306 H 0.87275 0.4311 0.6651 0.0
H1307 H 0.85208 0.41488 0.74089 0.0
H1308 H 0.87232 0.40831 0.71456 0.0
H1309 H 0.79222 0.38116 0.42204 0.0
H1310 H 0.79499 0.3991 0.50999 0.0
H1311 H 0.81112 0.40911 0.41333 0.0
H1312 H 0.81825 0.44558 0.76492 0.0
H1313 H 0.86217 0.47822 0.55421 0.0
H1314 H 0.81462 0.40036 0.76204 0.0
H1315 H 0.79697 0.39213 0.66948 0.0
H1316 H 0.79441 0.40773 0.75613 0.0
H1317 H 0.87101 0.43925 0.49047 0.0
H1318 H 0.86845 0.46044 0.44098 0.0
H1319 H 0.84874 0.43305 0.42108 0.0
C1320 C 0.37682 0.82738 0.86497 0.0
C1321 C 0.37306 0.84291 0.82761 0.0
C1322 C 0.39214 0.82309 0.82919 0.0
C1323 C 0.40418 0.83489 0.7556 0.0
C1324 C 0.39898 0.84903 0.71276 0.0
C1325 C 0.38332 0.85267 0.74873 0.0
C1326 C 0.39651 0.80714 0.87425 0.0
C1327 C 0.41132 0.86188 0.63365 0.0
C1328 C 0.46296 0.8544 0.7375 0.0
C1329 C 0.46377 0.84405 0.66092 0.0
C1330 C 0.44348 0.85041 0.77273 0.0
C1331 C 0.42427 0.83534 0.73156 0.0
C1332 C 0.4249 0.82319 0.6601 0.0
C1333 C 0.44468 0.82785 0.62491 0.0
C1334 C 0.44358 0.86369 0.8495 0.0
C1335 C 0.40477 0.80631 0.61691 0.0
H1336 H 0.36871 0.81945 0.92504 0.0
H1337 H 0.38025 0.86439 0.71823 0.0
H1338 H 0.40046 0.79821 0.82579 0.0
H1339 H 0.41034 0.81561 0.91895 0.0
H1340 H 0.38266 0.79563 0.91403 0.0
H1341 H 0.40421 0.87091 0.60409 0.0
H1342 H 0.42793 0.87338 0.65338 0.0
H1343 H 0.41203 0.85136 0.58261 0.0
H1344 H 0.47759 0.86669 0.76687 0.0
H1345 H 0.44511 0.81948 0.56664 0.0
H1346 H 0.43293 0.85334 0.90237 0.0
H1347 H 0.43748 0.87427 0.82786 0.0
H1348 H 0.45976 0.87372 0.87745 0.0
H1349 H 0.39209 0.79748 0.66624 0.0
H1350 H 0.4076 0.7948 0.57957 0.0
H1351 H 0.39887 0.81394 0.57025 0.0
C1352 C 0.60745 0.46654 0.90448 0.0
C1353 C 0.61886 0.46755 0.82845 0.0
C1354 C 0.59219 0.44695 0.93973 0.0
C1355 C 0.58855 0.42785 0.89917 0.0
C1356 C 0.60159 0.42872 0.82831 0.0
C1357 C 0.61647 0.4486 0.79304 0.0
C1358 C 0.57871 0.4468 0.01582 0.0
C1359 C 0.5989 0.40873 0.78583 0.0
C1360 C 0.54959 0.38024 0.03309 0.0
C1361 C 0.53022 0.37604 0.99511 0.0
C1362 C 0.56911 0.39576 0.99737 0.0
C1363 C 0.56916 0.40755 0.92318 0.0
C1364 C 0.54978 0.40189 0.87969 0.0
C1365 C 0.53058 0.38603 0.91564 0.0
C1366 C 0.5895 0.40063 0.04314 0.0
C1367 C 0.54906 0.41394 0.79992 0.0
H1368 H 0.6094 0.48107 0.93337 0.0
H1369 H 0.62547 0.44919 0.73521 0.0
H1370 H 0.56201 0.44031 0.99365 0.0
H1371 H 0.57862 0.43636 0.0692 0.0
H1372 H 0.58446 0.46296 0.04328 0.0
H1373 H 0.61343 0.41184 0.74925 0.0
H1374 H 0.59519 0.39614 0.83548 0.0
H1375 H 0.58547 0.40255 0.73859 0.0
H1376 H 0.54953 0.37234 0.09363 0.0
H1377 H 0.51574 0.38262 0.88465 0.0
H1378 H 0.59453 0.41448 0.08737 0.0
H1379 H 0.60249 0.40476 0.99506 0.0
H1380 H 0.58741 0.38695 0.08351 0.0
H1381 H 0.55378 0.43049 0.81904 0.0
H1382 H 0.53296 0.40647 0.76989 0.0
H1383 H 0.5605 0.41486 0.74943 0.0
C1384 C 0.16633 0.54761 0.22892 0.0
C1385 C 0.14976 0.52863 0.1937 0.0
C1386 C 0.17114 0.56747 0.1941 0.0
C1387 C 0.15881 0.5683 0.12377 0.0
C1388 C 0.14342 0.54919 0.08306 0.0
C1389 C 0.13925 0.52961 0.11794 0.0
C1390 C 0.18837 0.58749 0.23668 0.0
C1391 C 0.12998 0.54931 0.00735 0.0
C1392 C 0.14213 0.60981 0.11062 0.0
C1393 C 0.15172 0.62011 0.03158 0.0
C1394 C 0.14563 0.59393 0.14525 0.0
C1395 C 0.15944 0.58854 0.10083 0.0
C1396 C 0.17109 0.60059 0.02701 0.0
C1397 C 0.16695 0.61615 0.99266 0.0
C1398 C 0.13297 0.5816 0.22471 0.0
C1399 C 0.18669 0.596 0.98016 0.0
H1400 H 0.17482 0.54704 0.28652 0.0
H1401 H 0.12668 0.51506 0.08913 0.0
H1402 H 0.1972 0.60009 0.18705 0.0
H1403 H 0.18106 0.59362 0.28385 0.0
H1404 H 0.19983 0.58444 0.27332 0.0
H1405 H 0.11973 0.53317 0.97935 0.0
H1406 H 0.1196 0.55554 0.03016 0.0
H1407 H 0.14023 0.55995 0.95423 0.0
H1408 H 0.13064 0.61302 0.14229 0.0
H1409 H 0.17475 0.62428 0.93241 0.0
H1410 H 0.14357 0.58065 0.27475 0.0
H1411 H 0.12124 0.56506 0.20496 0.0
H1412 H 0.12422 0.58886 0.25555 0.0
H1413 H 0.19557 0.59169 0.02742 0.0
H1414 H 0.19825 0.60988 0.94067 0.0
H1415 H 0.17791 0.58235 0.9349 0.0
loop_
_geom_bond_atom_site_label_1
_geom_bond_atom_site_label_2
_geom_bond_distance
_geom_bond_site_symmetry_2
_ccdc_geom_bond_type
Fe0 O2 1.918 . S
Fe0 O5 1.997 . S
Fe0 O6 2.002 . S
Fe0 O11 1.976 1_554 S
Fe0 O14 1.996 . S
Fe1 O2 1.918 1_556 S
Fe1 O9 1.997 1_556 S
Fe1 O12 1.996 . S
Fe1 O16 1.976 . S
Fe1 O19 2.002 . S
O2 Fe0 1.918 . S
O2 Fe1 1.918 1_554 S
O2 Fe3 1.918 . S
Fe3 O2 1.918 . S
Fe3 O4 2.002 . S
Fe3 O13 1.975 1_554 S
Fe3 O17 1.996 1_554 S
Fe3 O20 1.997 . S
O4 Fe3 2.002 . S
O4 C21 1.295 . S
O5 Fe0 1.997 . S
O5 C21 1.235 . S
O6 Fe0 2.002 . S
O6 C7 1.295 . S
C7 O6 1.295 . S
C7 O9 1.235 . S
C8 O13 1.286 1_554 S
C8 O14 1.255 . S
O9 Fe1 1.997 1_554 S
O9 C7 1.235 . S
C10 O16 1.287 . S
C10 O17 1.255 . S
O11 Fe0 1.976 1_556 S
O11 C18 1.287 . S
O12 Fe1 1.996 . S
O12 C18 1.255 . S
O13 Fe3 1.975 1_556 S
O13 C8 1.286 1_556 S
O14 Fe0 1.996 . S
O14 C8 1.255 . S
C15 O19 1.295 1_554 S
C15 O20 1.235 . S
O16 Fe1 1.976 . S
O16 C10 1.287 . S
O17 Fe3 1.996 1_556 S
O17 C10 1.255 . S
C18 O11 1.287 . S
C18 O12 1.255 . S
O19 Fe1 2.002 . S
O19 C15 1.295 1_556 S
O20 Fe3 1.997 . S
O20 C15 1.235 . S
C21 O4 1.295 . S
C21 O5 1.235 . S
Fe22 O24 1.918 . S
Fe22 O27 1.997 . S
Fe22 O28 2.002 . S
Fe22 O33 1.976 . S
Fe22 O36 1.996 . S
Fe23 O24 1.918 . S
Fe23 O31 1.997 . S
Fe23 O34 1.996 . S
Fe23 O38 1.976 . S
Fe23 O41 2.002 . S
O24 Fe22 1.918 . S
O24 Fe23 1.918 . S
O24 Fe25 1.918 . S
Fe25 O24 1.918 . S
Fe25 O26 2.002 . S
Fe25 O35 1.976 . S
Fe25 O39 1.996 . S
Fe25 O42 1.997 . S
O26 Fe25 2.002 . S
O26 C43 1.295 . S
O27 Fe22 1.997 . S
O27 C43 1.235 . S
O28 Fe22 2.002 . S
O28 C29 1.295 . S
C29 O28 1.295 . S
C29 O31 1.235 . S
C30 O35 1.287 . S
C30 O36 1.255 . S
O31 Fe23 1.997 . S
O31 C29 1.235 . S
C32 O38 1.287 . S
C32 O39 1.255 . S
O33 Fe22 1.976 . S
O33 C40 1.287 . S
O34 Fe23 1.996 . S
O34 C40 1.255 . S
O35 Fe25 1.976 . S
O35 C30 1.287 . S
O36 Fe22 1.996 . S
O36 C30 1.255 . S
C37 O41 1.295 . S
C37 O42 1.235 . S
O38 Fe23 1.976 . S
O38 C32 1.287 . S
O39 Fe25 1.996 . S
O39 C32 1.255 . S
C40 O33 1.287 . S
C40 O34 1.255 . S
O41 Fe23 2.002 . S
O41 C37 1.295 . S
O42 Fe25 1.997 . S
O42 C37 1.235 . S
C43 O26 1.295 . S
C43 O27 1.235 . S
Fe44 O46 1.918 . S
Fe44 O49 1.997 . S
Fe44 O50 2.002 . S
Fe44 O55 1.976 . S
Fe44 O58 1.996 . S
Fe45 O46 1.918 . S
Fe45 O53 1.997 . S
Fe45 O56 1.996 . S
Fe45 O60 1.976 . S
Fe45 O63 2.002 . S
O46 Fe44 1.918 . S
O46 Fe45 1.918 . S
O46 Fe47 1.918 . S
Fe47 O46 1.918 . S
Fe47 O48 2.002 . S
Fe47 O57 1.976 . S
Fe47 O61 1.996 . S
Fe47 O64 1.997 . S
O48 Fe47 2.002 . S
O48 C65 1.295 . S
O49 Fe44 1.997 . S
O49 C65 1.235 . S
O50 Fe44 2.002 . S
O50 C51 1.295 . S
C51 O50 1.295 . S
C51 O53 1.235 . S
C52 O57 1.287 . S
C52 O58 1.255 . S
O53 Fe45 1.997 . S
O53 C51 1.235 . S
C54 O60 1.287 . S
C54 O61 1.255 . S
O55 Fe44 1.976 . S
O55 C62 1.287 . S
O56 Fe45 1.996 . S
O56 C62 1.255 . S
O57 Fe47 1.976 . S
O57 C52 1.287 . S
O58 Fe44 1.996 . S
O58 C52 1.255 . S
C59 O63 1.295 . S
C59 O64 1.235 . S
O60 Fe45 1.976 . S
O60 C54 1.287 . S
O61 Fe47 1.996 . S
O61 C54 1.255 . S
C62 O55 1.287 . S
C62 O56 1.255 . S
O63 Fe45 2.002 . S
O63 C59 1.295 . S
O64 Fe47 1.997 . S
O64 C59 1.235 . S
C65 O48 1.295 . S
C65 O49 1.235 . S
Fe66 O68 1.918 . S
Fe66 O71 1.997 . S
Fe66 O72 2.002 . S
Fe66 O77 1.976 . S
Fe66 O80 1.996 . S
Fe67 O68 1.918 . S
Fe67 O75 1.997 . S
Fe67 O78 1.996 . S
Fe67 O82 1.976 . S
Fe67 O85 2.002 . S
O68 Fe66 1.918 . S
O68 Fe67 1.918 . S
O68 Fe69 1.918 . S
Fe69 O68 1.918 . S
Fe69 O70 2.002 . S
Fe69 O79 1.976 . S
Fe69 O83 1.996 . S
Fe69 O86 1.997 . S
O70 Fe69 2.002 . S
O70 C87 1.295 . S
O71 Fe66 1.997 . S
O71 C87 1.235 . S
O72 Fe66 2.002 . S
O72 C73 1.295 . S
C73 O72 1.295 . S
C73 O75 1.235 . S
C74 O79 1.287 . S
C74 O80 1.255 . S
O75 Fe67 1.997 . S
O75 C73 1.235 . S
C76 O82 1.287 . S
C76 O83 1.255 . S
O77 Fe66 1.976 . S
O77 C84 1.287 . S
O78 Fe67 1.996 . S
O78 C84 1.255 . S
O79 Fe69 1.976 . S
O79 C74 1.287 . S
O80 Fe66 1.996 . S
O80 C74 1.255 . S
C81 O85 1.295 . S
C81 O86 1.235 . S
O82 Fe67 1.976 . S
O82 C76 1.287 . S
O83 Fe69 1.996 . S
O83 C76 1.255 . S
C84 O77 1.287 . S
C84 O78 1.255 . S
O85 Fe67 2.002 . S
O85 C81 1.295 . S
O86 Fe69 1.997 . S
O86 C81 1.235 . S
C87 O70 1.295 . S
C87 O71 1.235 . S
Fe88 O90 1.918 . S
Fe88 O93 1.997 . S
Fe88 O94 2.002 . S
Fe88 O99 1.976 . S
Fe88 O102 1.996 . S
Fe89 O90 1.918 . S
Fe89 O97 1.997 . S
Fe89 O100 1.996 . S
Fe89 O104 1.976 . S
Fe89 O107 2.002 . S
O90 Fe88 1.918 . S
O90 Fe89 1.918 . S
O90 Fe91 1.918 . S
Fe91 O90 1.918 . S
Fe91 O92 2.002 . S
Fe91 O101 1.976 . S
Fe91 O105 1.996 . S
Fe91 O108 1.997 . S
O92 Fe91 2.002 . S
O92 C109 1.295 . S
O93 Fe88 1.997 . S
O93 C109 1.235 . S
O94 Fe88 2.002 . S
O94 C95 1.295 . S
C95 O94 1.295 . S
C95 O97 1.235 . S
C96 O101 1.287 . S
C96 O102 1.255 . S
O97 Fe89 1.997 . S
O97 C95 1.235 . S
C98 O104 1.287 . S
C98 O105 1.255 . S
O99 Fe88 1.976 . S
O99 C106 1.287 . S
O100 Fe89 1.996 . S
O100 C106 1.255 . S
O101 Fe91 1.976 . S
O101 C96 1.287 . S
O102 Fe88 1.996 . S
O102 C96 1.255 . S
C103 O107 1.295 . S
C103 O108 1.235 . S
O104 Fe89 1.976 . S
O104 C98 1.287 . S
O105 Fe91 1.996 . S
O105 C98 1.255 . S
C106 O99 1.287 . S
C106 O100 1.255 . S
O107 Fe89 2.002 . S
O107 C103 1.295 . S
O108 Fe91 1.997 . S
O108 C103 1.235 . S
C109 O92 1.295 . S
C109 O93 1.235 . S
Fe110 O112 1.918 . S
Fe110 O115 1.997 . S
Fe110 O116 2.002 . S
Fe110 O121 1.976 . S
Fe110 O124 1.996 . S
Fe111 O112 1.918 . S
Fe111 O119 1.997 1_556 S
Fe111 O122 1.996 . S
Fe111 O126 1.976 . S
Fe111 O129 2.002 . S
O112 Fe110 1.918 . S
O112 Fe111 1.918 . S
O112 Fe113 1.918 . S
Fe113 O112 1.918 . S
Fe113 O114 2.002 . S
Fe113 O123 1.976 . S
Fe113 O127 1.996 . S
Fe113 O130 1.997 . S
O114 Fe113 2.002 . S
O114 C131 1.295 . S
O115 Fe110 1.997 . S
O115 C131 1.235 . S
O116 Fe110 2.002 . S
O116 C117 1.295 1_556 S
C117 O116 1.295 1_554 S
C117 O119 1.235 . S
C118 O123 1.287 . S
C118 O124 1.255 . S
O119 Fe111 1.997 1_554 S
O119 C117 1.235 . S
C120 O126 1.287 . S
C120 O127 1.255 . S
O121 Fe110 1.976 . S
O121 C128 1.287 . S
O122 Fe111 1.996 . S
O122 C128 1.255 . S
O123 Fe113 1.976 . S
O123 C118 1.287 . S
O124 Fe110 1.996 . S
O124 C118 1.255 . S
C125 O129 1.295 . S
C125 O130 1.235 . S
O126 Fe111 1.976 . S
O126 C120 1.287 . S
O127 Fe113 1.996 . S
O127 C120 1.255 . S
C128 O121 1.287 . S
C128 O122 1.255 . S
O129 Fe111 2.002 . S
O129 C125 1.295 . S
O130 Fe113 1.997 . S
O130 C125 1.235 . S
C131 O114 1.295 . S
C131 O115 1.235 . S
Fe132 O134 1.918 . S
Fe132 O137 1.997 . S
Fe132 O138 2.002 . S
Fe132 O143 1.976 . S
Fe132 O146 1.996 . S
Fe133 O134 1.918 . S
Fe133 O141 1.997 . S
Fe133 O144 1.996 . S
Fe133 O148 1.976 . S
Fe133 O151 2.002 . S
O134 Fe132 1.918 . S
O134 Fe133 1.918 . S
O134 Fe135 1.918 . S
Fe135 O134 1.918 . S
Fe135 O136 2.002 . S
Fe135 O145 1.976 1_556 S
Fe135 O149 1.996 . S
Fe135 O152 1.997 . S
O136 Fe135 2.002 . S
O136 C153 1.295 . S
O137 Fe132 1.997 . S
O137 C153 1.235 . S
O138 Fe132 2.002 . S
O138 C139 1.295 . S
C139 O138 1.295 . S
C139 O141 1.235 . S
C140 O145 1.287 . S
C140 O146 1.255 1_554 S
O141 Fe133 1.997 . S
O141 C139 1.235 . S
C142 O148 1.287 . S
C142 O149 1.255 . S
O143 Fe132 1.976 . S
O143 C150 1.287 . S
O144 Fe133 1.996 . S
O144 C150 1.255 . S
O145 Fe135 1.976 1_554 S
O145 C140 1.287 . S
O146 Fe132 1.996 . S
O146 C140 1.255 1_556 S
C147 O151 1.295 . S
C147 O152 1.235 . S
O148 Fe133 1.976 . S
O148 C142 1.287 . S
O149 Fe135 1.996 . S
O149 C142 1.255 . S
C150 O143 1.287 . S
C150 O144 1.255 . S
O151 Fe133 2.002 . S
O151 C147 1.295 . S
O152 Fe135 1.997 . S
O152 C147 1.235 . S
C153 O136 1.295 . S
C153 O137 1.235 . S
Fe154 O156 1.918 . S
Fe154 O159 1.996 1_554 S
Fe154 O160 1.998 1_554 S
Fe154 O165 1.977 . S
Fe154 O168 2.000 . S
Fe155 O156 1.918 1_556 S
Fe155 O163 1.997 . S
Fe155 O166 1.996 . S
Fe155 O170 1.976 1_556 S
Fe155 O173 2.002 . S
O156 Fe154 1.918 . S
O156 Fe155 1.918 1_554 S
O156 Fe157 1.918 . S
Fe157 O156 1.918 . S
Fe157 O158 2.002 . S
Fe157 O167 1.976 . S
Fe157 O171 1.996 . S
Fe157 O174 1.997 1_554 S
O158 Fe157 2.002 . S
O158 C175 1.295 1_554 S
O159 Fe154 1.996 1_556 S
O159 C175 1.235 . S
O160 Fe154 1.998 1_556 S
O160 C161 1.295 . S
C161 O160 1.295 . S
C161 O163 1.235 . S
C162 O167 1.287 . S
C162 O168 1.255 . S
O163 Fe155 1.997 . S
O163 C161 1.235 . S
C164 O170 1.287 . S
C164 O171 1.255 . S
O165 Fe154 1.977 . S
O165 C172 1.287 . S
O166 Fe155 1.996 . S
O166 C172 1.255 1_556 S
O167 Fe157 1.976 . S
O167 C162 1.287 . S
O168 Fe154 2.000 . S
O168 C162 1.255 . S
C169 O173 1.295 . S
C169 O174 1.235 . S
O170 Fe155 1.976 1_554 S
O170 C164 1.287 . S
O171 Fe157 1.996 . S
O171 C164 1.255 . S
C172 O165 1.287 . S
C172 O166 1.255 1_554 S
O173 Fe155 2.002 . S
O173 C169 1.295 . S
O174 Fe157 1.997 1_556 S
O174 C169 1.235 . S
C175 O158 1.295 1_556 S
C175 O159 1.235 . S
Fe176 O178 1.918 . S
Fe176 O181 1.997 . S
Fe176 O182 2.002 . S
Fe176 O187 1.976 . S
Fe176 O190 1.996 . S
Fe177 O178 1.918 . S
Fe177 O185 1.997 . S
Fe177 O188 1.996 . S
Fe177 O192 1.976 . S
Fe177 O195 2.002 . S
O178 Fe176 1.918 . S
O178 Fe177 1.918 . S
O178 Fe179 1.918 . S
Fe179 O178 1.918 . S
Fe179 O180 2.002 . S
Fe179 O189 1.976 . S
Fe179 O193 1.996 . S
Fe179 O196 1.997 . S
O180 Fe179 2.002 . S
O180 C197 1.295 . S
O181 Fe176 1.997 . S
O181 C197 1.235 . S
O182 Fe176 2.002 . S
O182 C183 1.295 1_554 S
C183 O182 1.295 1_556 S
C183 O185 1.235 1_556 S
C184 O189 1.287 . S
C184 O190 1.255 . S
O185 Fe177 1.997 . S
O185 C183 1.235 1_554 S
C186 O192 1.287 . S
C186 O193 1.255 . S
O187 Fe176 1.976 . S
O187 C194 1.287 . S
O188 Fe177 1.996 . S
O188 C194 1.255 . S
O189 Fe179 1.976 . S
O189 C184 1.287 . S
O190 Fe176 1.996 . S
O190 C184 1.255 . S
C191 O195 1.295 . S
C191 O196 1.235 . S
O192 Fe177 1.976 . S
O192 C186 1.287 . S
O193 Fe179 1.996 . S
O193 C186 1.255 . S
C194 O187 1.287 . S
C194 O188 1.255 . S
O195 Fe177 2.002 . S
O195 C191 1.295 . S
O196 Fe179 1.997 . S
O196 C191 1.235 . S
C197 O180 1.295 . S
C197 O181 1.235 . S
Fe198 O200 1.918 . S
Fe198 O203 1.997 . S
Fe198 O204 2.002 . S
Fe198 O209 1.976 . S
Fe198 O212 1.996 . S
Fe199 O200 1.918 . S
Fe199 O207 1.997 . S
Fe199 O210 1.996 . S
Fe199 O214 1.976 . S
Fe199 O217 2.002 . S
O200 Fe198 1.918 . S
O200 Fe199 1.918 . S
O200 Fe201 1.918 . S
Fe201 O200 1.918 . S
Fe201 O202 2.002 . S
Fe201 O211 1.976 . S
Fe201 O215 1.996 . S
Fe201 O218 1.997 . S
O202 Fe201 2.002 . S
O202 C219 1.295 . S
O203 Fe198 1.997 . S
O203 C219 1.235 . S
O204 Fe198 2.002 . S
O204 C205 1.295 . S
C205 O204 1.295 . S
C205 O207 1.235 . S
C206 O211 1.287 . S
C206 O212 1.255 . S
O207 Fe199 1.997 . S
O207 C205 1.235 . S
C208 O214 1.287 . S
C208 O215 1.255 . S
O209 Fe198 1.976 . S
O209 C216 1.287 . S
O210 Fe199 1.996 . S
O210 C216 1.255 . S
O211 Fe201 1.976 . S
O211 C206 1.287 . S
O212 Fe198 1.996 . S
O212 C206 1.255 . S
C213 O217 1.295 . S
C213 O218 1.235 . S
O214 Fe199 1.976 . S
O214 C208 1.287 . S
O215 Fe201 1.996 . S
O215 C208 1.255 . S
C216 O209 1.287 . S
C216 O210 1.255 . S
O217 Fe199 2.002 . S
O217 C213 1.295 . S
O218 Fe201 1.997 . S
O218 C213 1.235 . S
C219 O202 1.295 . S
C219 O203 1.235 . S
Fe220 O222 1.918 . S
Fe220 O225 1.997 . S
Fe220 O226 2.002 . S
Fe220 O231 1.976 . S
Fe220 O234 1.996 . S
Fe221 O222 1.918 . S
Fe221 O229 1.997 . S
Fe221 O232 1.996 . S
Fe221 O236 1.976 . S
Fe221 O239 2.002 . S
O222 Fe220 1.918 . S
O222 Fe221 1.918 . S
O222 Fe223 1.918 . S
Fe223 O222 1.918 . S
Fe223 O224 2.002 . S
Fe223 O233 1.976 . S
Fe223 O237 1.996 . S
Fe223 O240 1.997 . S
O224 Fe223 2.002 . S
O224 C241 1.295 . S
O225 Fe220 1.997 . S
O225 C241 1.235 . S
O226 Fe220 2.002 . S
O226 C227 1.295 . S
C227 O226 1.295 . S
C227 O229 1.235 . S
C228 O233 1.287 . S
C228 O234 1.255 . S
O229 Fe221 1.997 . S
O229 C227 1.235 . S
C230 O236 1.287 . S
C230 O237 1.255 . S
O231 Fe220 1.976 . S
O231 C238 1.287 . S
O232 Fe221 1.996 . S
O232 C238 1.255 . S
O233 Fe223 1.976 . S
O233 C228 1.287 . S
O234 Fe220 1.996 . S
O234 C228 1.255 . S
C235 O239 1.295 . S
C235 O240 1.235 . S
O236 Fe221 1.976 . S
O236 C230 1.287 . S
O237 Fe223 1.996 . S
O237 C230 1.255 . S
C238 O231 1.287 . S
C238 O232 1.255 . S
O239 Fe221 2.002 . S
O239 C235 1.295 . S
O240 Fe223 1.997 . S
O240 C235 1.235 . S
C241 O224 1.295 . S
C241 O225 1.235 . S
Fe242 O244 1.918 . S
Fe242 O247 1.997 . S
Fe242 O248 2.002 . S
Fe242 O253 1.976 . S
Fe242 O256 1.996 . S
Fe243 O244 1.918 . S
Fe243 O251 1.997 . S
Fe243 O254 1.996 . S
Fe243 O258 1.976 . S
Fe243 O261 2.002 . S
O244 Fe242 1.918 . S
O244 Fe243 1.918 . S
O244 Fe245 1.918 . S
Fe245 O244 1.918 . S
Fe245 O246 2.002 . S
Fe245 O255 1.976 . S
Fe245 O259 1.996 . S
Fe245 O262 1.997 . S
O246 Fe245 2.002 . S
O246 C263 1.295 . S
O247 Fe242 1.997 . S
O247 C263 1.235 . S
O248 Fe242 2.002 . S
O248 C249 1.295 . S
C249 O248 1.295 . S
C249 O251 1.235 . S
C250 O255 1.287 . S
C250 O256 1.255 . S
O251 Fe243 1.997 . S
O251 C249 1.235 . S
C252 O258 1.287 . S
C252 O259 1.255 . S
O253 Fe242 1.976 . S
O253 C260 1.287 . S
O254 Fe243 1.996 . S
O254 C260 1.255 . S
O255 Fe245 1.976 . S
O255 C250 1.287 . S
O256 Fe242 1.996 . S
O256 C250 1.255 . S
C257 O261 1.295 . S
C257 O262 1.235 . S
O258 Fe243 1.976 . S
O258 C252 1.287 . S
O259 Fe245 1.996 . S
O259 C252 1.255 . S
C260 O253 1.287 . S
C260 O254 1.255 . S
O261 Fe243 2.002 . S
O261 C257 1.295 . S
O262 Fe245 1.997 . S
O262 C257 1.235 . S
C263 O246 1.295 . S
C263 O247 1.235 . S
C264 C265 1.391 . S
C264 C266 1.394 . S
C264 H280 0.931 . S
C265 C264 1.391 . S
C265 C269 1.376 . S
C266 C264 1.394 . S
C266 C267 1.369 . S
C266 C270 1.531 . S
C267 C266 1.369 . S
C267 C268 1.410 . S
C267 C275 1.503 . S
C268 C267 1.410 . S
C268 C269 1.392 . S
C268 C271 1.511 . S
C269 C265 1.376 . S
C269 C268 1.392 . S
C269 H281 0.929 . S
C270 C266 1.531 . S
C270 H282 0.960 . S
C270 H283 0.962 . S
C270 H284 0.960 . S
C271 C268 1.511 . S
C271 H285 0.961 . S
C271 H286 0.961 . S
C271 H287 0.961 . S
C272 C273 1.370 . S
C272 C274 1.363 . S
C272 H288 0.931 . S
C273 C272 1.370 . S
C273 C277 1.408 . S
C274 C272 1.363 . S
C274 C275 1.370 . S
C274 C278 1.524 . S
C275 C267 1.503 . S
C275 C274 1.370 . S
C275 C276 1.403 . S
C276 C275 1.403 . S
C276 C277 1.404 . S
C276 C279 1.539 . S
C277 C273 1.408 . S
C277 C276 1.404 . S
C277 H289 0.930 . S
C278 C274 1.524 . S
C278 H290 0.956 . S
C278 H291 0.961 . S
C278 H292 0.961 . S
C279 C276 1.539 . S
C279 H293 0.958 . S
C279 H294 0.961 . S
C279 H295 0.960 . S
H280 C264 0.931 . S
H281 C269 0.929 . S
H282 C270 0.960 . S
H283 C270 0.962 . S
H284 C270 0.960 . S
H285 C271 0.961 . S
H286 C271 0.961 . S
H287 C271 0.961 . S
H288 C272 0.931 . S
H289 C277 0.930 . S
H290 C278 0.956 . S
H291 C278 0.961 . S
H292 C278 0.961 . S
H293 C279 0.958 . S
H294 C279 0.961 . S
H295 C279 0.960 . S
C296 C297 1.391 . S
C296 C298 1.394 . S
C296 H312 0.931 . S
C297 C296 1.391 . S
C297 C301 1.376 . S
C298 C296 1.394 . S
C298 C299 1.369 . S
C298 C302 1.531 . S
C299 C298 1.369 . S
C299 C300 1.410 . S
C299 C307 1.503 . S
C300 C299 1.410 . S
C300 C301 1.392 . S
C300 C303 1.511 . S
C301 C297 1.376 . S
C301 C300 1.392 . S
C301 H313 0.929 . S
C302 C298 1.531 . S
C302 H314 0.960 . S
C302 H315 0.962 . S
C302 H316 0.960 . S
C303 C300 1.511 . S
C303 H317 0.961 . S
C303 H318 0.961 . S
C303 H319 0.961 . S
C304 C305 1.370 . S
C304 C306 1.363 . S
C304 H320 0.931 . S
C305 C304 1.370 . S
C305 C309 1.408 . S
C306 C304 1.363 . S
C306 C307 1.370 . S
C306 C310 1.524 . S
C307 C299 1.503 . S
C307 C306 1.370 . S
C307 C308 1.403 . S
C308 C307 1.403 . S
C308 C309 1.404 . S
C308 C311 1.539 . S
C309 C305 1.408 . S
C309 C308 1.404 . S
C309 H321 0.930 . S
C310 C306 1.524 . S
C310 H322 0.956 . S
C310 H323 0.961 . S
C310 H324 0.961 . S
C311 C308 1.539 . S
C311 H325 0.958 . S
C311 H326 0.961 . S
C311 H327 0.960 . S
H312 C296 0.931 . S
H313 C301 0.929 . S
H314 C302 0.960 . S
H315 C302 0.962 . S
H316 C302 0.960 . S
H317 C303 0.961 . S
H318 C303 0.961 . S
H319 C303 0.961 . S
H320 C304 0.931 . S
H321 C309 0.930 . S
H322 C310 0.956 . S
H323 C310 0.961 . S
H324 C310 0.961 . S
H325 C311 0.958 . S
H326 C311 0.961 . S
H327 C311 0.960 . S
C328 C329 1.391 . S
C328 C330 1.394 . S
C328 H344 0.931 . S
C329 C328 1.391 . S
C329 C333 1.376 . S
C330 C328 1.394 . S
C330 C331 1.369 . S
C330 C334 1.531 . S
C331 C330 1.369 . S
C331 C332 1.410 . S
C331 C339 1.503 . S
C332 C331 1.410 . S
C332 C333 1.392 . S
C332 C335 1.511 . S
C333 C329 1.376 . S
C333 C332 1.392 . S
C333 H345 0.929 . S
C334 C330 1.531 . S
C334 H346 0.960 . S
C334 H347 0.962 . S
C334 H348 0.960 . S
C335 C332 1.511 . S
C335 H349 0.961 . S
C335 H350 0.961 . S
C335 H351 0.961 . S
C336 C337 1.370 . S
C336 C338 1.363 1_554 S
C336 H352 0.931 . S
C337 C336 1.370 . S
C337 C341 1.408 . S
C338 C336 1.363 1_556 S
C338 C339 1.370 . S
C338 C342 1.524 . S
C339 C331 1.503 . S
C339 C338 1.370 . S
C339 C340 1.403 . S
C340 C339 1.403 . S
C340 C341 1.404 1_556 S
C340 C343 1.539 . S
C341 C337 1.408 . S
C341 C340 1.404 1_554 S
C341 H353 0.930 . S
C342 C338 1.524 . S
C342 H354 0.956 . S
C342 H355 0.961 . S
C342 H356 0.961 . S
C343 C340 1.539 . S
C343 H357 0.958 . S
C343 H358 0.961 . S
C343 H359 0.960 . S
H344 C328 0.931 . S
H345 C333 0.929 . S
H346 C334 0.960 . S
H347 C334 0.962 . S
H348 C334 0.960 . S
H349 C335 0.961 . S
H350 C335 0.961 . S
H351 C335 0.961 . S
H352 C336 0.931 . S
H353 C341 0.930 . S
H354 C342 0.956 . S
H355 C342 0.961 . S
H356 C342 0.961 . S
H357 C343 0.958 . S
H358 C343 0.961 . S
H359 C343 0.960 . S
C360 C361 1.391 . S
C360 C362 1.394 . S
C360 H376 0.931 . S
C361 C360 1.391 . S
C361 C365 1.376 . S
C362 C360 1.394 . S
C362 C363 1.369 . S
C362 C366 1.531 . S
C363 C362 1.369 . S
C363 C364 1.410 . S
C363 C371 1.503 1_554 S
C364 C363 1.410 . S
C364 C365 1.392 . S
C364 C367 1.511 . S
C365 C361 1.376 . S
C365 C364 1.392 . S
C365 H377 0.929 . S
C366 C362 1.531 . S
C366 H378 0.960 1_554 S
C366 H379 0.962 . S
C366 H380 0.960 . S
C367 C364 1.511 . S
C367 H381 0.961 . S
C367 H382 0.961 . S
C367 H383 0.961 . S
C368 C369 1.370 . S
C368 C370 1.363 . S
C368 H384 0.931 . S
C369 C368 1.370 . S
C369 C373 1.408 . S
C370 C368 1.363 . S
C370 C371 1.370 . S
C370 C374 1.524 1_556 S
C371 C363 1.503 1_556 S
C371 C370 1.370 . S
C371 C372 1.403 . S
C372 C371 1.403 . S
C372 C373 1.404 . S
C372 C375 1.539 . S
C373 C369 1.408 . S
C373 C372 1.404 . S
C373 H385 0.930 . S
C374 C370 1.524 1_554 S
C374 H386 0.956 . S
C374 H387 0.961 . S
C374 H388 0.961 1_554 S
C375 C372 1.539 . S
C375 H389 0.958 . S
C375 H390 0.961 . S
C375 H391 0.960 . S
H376 C360 0.931 . S
H377 C365 0.929 . S
H378 C366 0.960 1_556 S
H379 C366 0.962 . S
H380 C366 0.960 . S
H381 C367 0.961 . S
H382 C367 0.961 . S
H383 C367 0.961 . S
H384 C368 0.931 . S
H385 C373 0.930 . S
H386 C374 0.956 . S
H387 C374 0.961 . S
H388 C374 0.961 1_556 S
H389 C375 0.958 . S
H390 C375 0.961 . S
H391 C375 0.960 . S
C392 C393 1.391 . S
C392 C394 1.394 1_556 S
C392 H408 0.931 . S
C393 C392 1.391 . S
C393 C397 1.376 1_556 S
C394 C392 1.394 1_554 S
C394 C395 1.369 . S
C394 C398 1.531 . S
C395 C394 1.369 . S
C395 C396 1.410 . S
C395 C403 1.503 . S
C396 C395 1.410 . S
C396 C397 1.392 . S
C396 C399 1.511 . S
C397 C393 1.376 1_554 S
C397 C396 1.392 . S
C397 H409 0.929 1_554 S
C398 C394 1.531 . S
C398 H410 0.960 . S
C398 H411 0.962 . S
C398 H412 0.960 . S
C399 C396 1.511 . S
C399 H413 0.961 . S
C399 H414 0.961 . S
C399 H415 0.961 . S
C400 C401 1.370 . S
C400 C402 1.363 . S
C400 H416 0.931 . S
C401 C400 1.370 . S
C401 C405 1.408 . S
C402 C400 1.363 . S
C402 C403 1.370 . S
C402 C406 1.524 . S
C403 C395 1.503 . S
C403 C402 1.370 . S
C403 C404 1.403 . S
C404 C403 1.403 . S
C404 C405 1.404 . S
C404 C407 1.539 . S
C405 C401 1.408 . S
C405 C404 1.404 . S
C405 H417 0.930 . S
C406 C402 1.524 . S
C406 H418 0.956 . S
C406 H419 0.961 . S
C406 H420 0.961 . S
C407 C404 1.539 . S
C407 H421 0.958 . S
C407 H422 0.961 . S
C407 H423 0.960 . S
H408 C392 0.931 . S
H409 C397 0.929 1_556 S
H410 C398 0.960 . S
H411 C398 0.962 . S
H412 C398 0.960 . S
H413 C399 0.961 . S
H414 C399 0.961 . S
H415 C399 0.961 . S
H416 C400 0.931 . S
H417 C405 0.930 . S
H418 C406 0.956 . S
H419 C406 0.961 . S
H420 C406 0.961 . S
H421 C407 0.958 . S
H422 C407 0.961 . S
H423 C407 0.960 . S
C424 C425 1.391 . S
C424 C426 1.394 . S
C424 H440 0.931 . S
C425 C424 1.391 . S
C425 C429 1.376 . S
C426 C424 1.394 . S
C426 C427 1.369 . S
C426 C430 1.531 . S
C427 C426 1.369 . S
C427 C428 1.410 . S
C427 C435 1.503 . S
C428 C427 1.410 . S
C428 C429 1.392 . S
C428 C431 1.511 . S
C429 C425 1.376 . S
C429 C428 1.392 . S
C429 H441 0.929 . S
C430 C426 1.531 . S
C430 H442 0.960 . S
C430 H443 0.962 . S
C430 H444 0.960 . S
C431 C428 1.511 . S
C431 H445 0.961 . S
C431 H446 0.961 . S
C431 H447 0.961 . S
C432 C433 1.370 . S
C432 C434 1.363 . S
C432 H448 0.931 . S
C433 C432 1.370 . S
C433 C437 1.408 . S
C434 C432 1.363 . S
C434 C435 1.370 . S
C434 C438 1.524 . S
C435 C427 1.503 . S
C435 C434 1.370 . S
C435 C436 1.403 . S
C436 C435 1.403 . S
C436 C437 1.404 . S
C436 C439 1.539 . S
C437 C433 1.408 . S
C437 C436 1.404 . S
C437 H449 0.930 . S
C438 C434 1.524 . S
C438 H450 0.956 . S
C438 H451 0.961 . S
C438 H452 0.961 . S
C439 C436 1.539 . S
C439 H453 0.958 . S
C439 H454 0.961 . S
C439 H455 0.960 . S
H440 C424 0.931 . S
H441 C429 0.929 . S
H442 C430 0.960 . S
H443 C430 0.962 . S
H444 C430 0.960 . S
H445 C431 0.961 . S
H446 C431 0.961 . S
H447 C431 0.961 . S
H448 C432 0.931 . S
H449 C437 0.930 . S
H450 C438 0.956 . S
H451 C438 0.961 . S
H452 C438 0.961 . S
H453 C439 0.958 . S
H454 C439 0.961 . S
H455 C439 0.960 . S
C456 C457 1.391 . S
C456 C458 1.394 . S
C456 H472 0.931 . S
C457 C456 1.391 . S
C457 C461 1.376 . S
C458 C456 1.394 . S
C458 C459 1.369 . S
C458 C462 1.531 . S
C459 C458 1.369 . S
C459 C460 1.410 . S
C459 C467 1.503 . S
C460 C459 1.410 . S
C460 C461 1.392 . S
C460 C463 1.511 . S
C461 C457 1.376 . S
C461 C460 1.392 . S
C461 H473 0.929 . S
C462 C458 1.531 . S
C462 H474 0.960 . S
C462 H475 0.962 . S
C462 H476 0.960 . S
C463 C460 1.511 . S
C463 H477 0.961 . S
C463 H478 0.961 . S
C463 H479 0.961 . S
C464 C465 1.370 . S
C464 C466 1.363 . S
C464 H480 0.931 . S
C465 C464 1.370 . S
C465 C469 1.408 . S
C466 C464 1.363 . S
C466 C467 1.370 . S
C466 C470 1.524 . S
C467 C459 1.503 . S
C467 C466 1.370 . S
C467 C468 1.403 . S
C468 C467 1.403 . S
C468 C469 1.404 . S
C468 C471 1.539 . S
C469 C465 1.408 . S
C469 C468 1.404 . S
C469 H481 0.930 . S
C470 C466 1.524 . S
C470 H482 0.956 . S
C470 H483 0.961 . S
C470 H484 0.961 . S
C471 C468 1.539 . S
C471 H485 0.958 . S
C471 H486 0.961 . S
C471 H487 0.960 . S
H472 C456 0.931 . S
H473 C461 0.929 . S
H474 C462 0.960 . S
H475 C462 0.962 . S
H476 C462 0.960 . S
H477 C463 0.961 . S
H478 C463 0.961 . S
H479 C463 0.961 . S
H480 C464 0.931 . S
H481 C469 0.930 . S
H482 C470 0.956 . S
H483 C470 0.961 . S
H484 C470 0.961 . S
H485 C471 0.958 . S
H486 C471 0.961 . S
H487 C471 0.960 . S
C488 C489 1.391 . S
C488 C490 1.394 . S
C488 H504 0.931 . S
C489 C488 1.391 . S
C489 C493 1.376 . S
C490 C488 1.394 . S
C490 C491 1.369 . S
C490 C494 1.531 . S
C491 C490 1.369 . S
C491 C492 1.410 . S
C491 C499 1.503 . S
C492 C491 1.410 . S
C492 C493 1.392 . S
C492 C495 1.511 . S
C493 C489 1.376 . S
C493 C492 1.392 . S
C493 H505 0.929 . S
C494 C490 1.531 . S
C494 H506 0.960 . S
C494 H507 0.962 . S
C494 H508 0.960 . S
C495 C492 1.511 . S
C495 H509 0.961 . S
C495 H510 0.961 . S
C495 H511 0.961 . S
C496 C497 1.370 . S
C496 C498 1.363 . S
C496 H512 0.931 . S
C497 C496 1.370 . S
C497 C501 1.408 . S
C498 C496 1.363 . S
C498 C499 1.370 . S
C498 C502 1.524 . S
C499 C491 1.503 . S
C499 C498 1.370 . S
C499 C500 1.403 . S
C500 C499 1.403 . S
C500 C501 1.404 . S
C500 C503 1.539 . S
C501 C497 1.408 . S
C501 C500 1.404 . S
C501 H513 0.930 . S
C502 C498 1.524 . S
C502 H514 0.956 . S
C502 H515 0.961 . S
C502 H516 0.961 . S
C503 C500 1.539 . S
C503 H517 0.958 . S
C503 H518 0.961 . S
C503 H519 0.960 . S
H504 C488 0.931 . S
H505 C493 0.929 . S
H506 C494 0.960 . S
H507 C494 0.962 . S
H508 C494 0.960 . S
H509 C495 0.961 . S
H510 C495 0.961 . S
H511 C495 0.961 . S
H512 C496 0.931 . S
H513 C501 0.930 . S
H514 C502 0.956 . S
H515 C502 0.961 . S
H516 C502 0.961 . S
H517 C503 0.958 . S
H518 C503 0.961 . S
H519 C503 0.960 . S
C520 C521 1.391 . S
C520 C522 1.394 . S
C520 H536 0.931 . S
C521 C520 1.391 . S
C521 C525 1.376 . S
C522 C520 1.394 . S
C522 C523 1.369 . S
C522 C526 1.531 . S
C523 C522 1.369 . S
C523 C524 1.410 . S
C523 C531 1.503 . S
C524 C523 1.410 . S
C524 C525 1.392 . S
C524 C527 1.511 . S
C525 C521 1.376 . S
C525 C524 1.392 . S
C525 H537 0.929 . S
C526 C522 1.531 . S
C526 H538 0.960 . S
C526 H539 0.962 . S
C526 H540 0.960 . S
C527 C524 1.511 . S
C527 H541 0.961 . S
C527 H542 0.961 . S
C527 H543 0.961 . S
C528 C529 1.370 . S
C528 C530 1.363 . S
C528 H544 0.931 . S
C529 C528 1.370 . S
C529 C533 1.408 . S
C530 C528 1.363 . S
C530 C531 1.370 . S
C530 C534 1.524 . S
C531 C523 1.503 . S
C531 C530 1.370 . S
C531 C532 1.403 . S
C532 C531 1.403 . S
C532 C533 1.404 . S
C532 C535 1.539 . S
C533 C529 1.408 . S
C533 C532 1.404 . S
C533 H545 0.930 . S
C534 C530 1.524 . S
C534 H546 0.956 . S
C534 H547 0.961 . S
C534 H548 0.961 . S
C535 C532 1.539 . S
C535 H549 0.958 . S
C535 H550 0.961 . S
C535 H551 0.960 . S
H536 C520 0.931 . S
H537 C525 0.929 . S
H538 C526 0.960 . S
H539 C526 0.962 . S
H540 C526 0.960 . S
H541 C527 0.961 . S
H542 C527 0.961 . S
H543 C527 0.961 . S
H544 C528 0.931 . S
H545 C533 0.930 . S
H546 C534 0.956 . S
H547 C534 0.961 . S
H548 C534 0.961 . S
H549 C535 0.958 . S
H550 C535 0.961 . S
H551 C535 0.960 . S
C552 C553 1.391 . S
C552 C554 1.394 1_554 S
C552 H568 0.931 . S
C553 C552 1.391 . S
C553 C557 1.376 . S
C554 C552 1.394 1_556 S
C554 C555 1.369 . S
C554 C558 1.531 . S
C555 C554 1.369 . S
C555 C556 1.410 . S
C555 C563 1.503 . S
C556 C555 1.410 . S
C556 C557 1.392 1_556 S
C556 C559 1.511 . S
C557 C553 1.376 . S
C557 C556 1.392 1_554 S
C557 H569 0.929 . S
C558 C554 1.531 . S
C558 H570 0.960 . S
C558 H571 0.962 . S
C558 H572 0.960 . S
C559 C556 1.511 . S
C559 H573 0.961 . S
C559 H574 0.961 . S
C559 H575 0.961 . S
C560 C561 1.370 . S
C560 C562 1.363 . S
C560 H576 0.931 . S
C561 C560 1.370 . S
C561 C565 1.408 . S
C562 C560 1.363 . S
C562 C563 1.370 . S
C562 C566 1.524 . S
C563 C555 1.503 . S
C563 C562 1.370 . S
C563 C564 1.403 . S
C564 C563 1.403 . S
C564 C565 1.404 . S
C564 C567 1.539 . S
C565 C561 1.408 . S
C565 C564 1.404 . S
C565 H577 0.930 . S
C566 C562 1.524 . S
C566 H578 0.956 . S
C566 H579 0.961 . S
C566 H580 0.961 . S
C567 C564 1.539 . S
C567 H581 0.958 . S
C567 H582 0.961 . S
C567 H583 0.960 . S
H568 C552 0.931 . S
H569 C557 0.929 . S
H570 C558 0.960 . S
H571 C558 0.962 . S
H572 C558 0.960 . S
H573 C559 0.961 . S
H574 C559 0.961 . S
H575 C559 0.961 . S
H576 C560 0.931 . S
H577 C565 0.930 . S
H578 C566 0.956 . S
H579 C566 0.961 . S
H580 C566 0.961 . S
H581 C567 0.958 . S
H582 C567 0.961 . S
H583 C567 0.960 . S
C584 C585 1.391 . S
C584 C586 1.394 . S
C584 H600 0.931 . S
C585 C584 1.391 . S
C585 C589 1.376 . S
C586 C584 1.394 . S
C586 C587 1.369 . S
C586 C590 1.531 . S
C587 C586 1.369 . S
C587 C588 1.410 . S
C587 C595 1.503 1_556 S
C588 C587 1.410 . S
C588 C589 1.392 . S
C588 C591 1.511 . S
C589 C585 1.376 . S
C589 C588 1.392 . S
C589 H601 0.929 . S
C590 C586 1.531 . S
C590 H602 0.960 1_556 S
C590 H603 0.962 . S
C590 H604 0.960 . S
C591 C588 1.511 . S
C591 H605 0.961 . S
C591 H606 0.961 . S
C591 H607 0.961 . S
C592 C593 1.370 . S
C592 C594 1.363 . S
C592 H608 0.931 . S
C593 C592 1.370 . S
C593 C597 1.408 . S
C594 C592 1.363 . S
C594 C595 1.370 . S
C594 C598 1.524 . S
C595 C587 1.503 1_554 S
C595 C594 1.370 . S
C595 C596 1.403 . S
C596 C595 1.403 . S
C596 C597 1.404 . S
C596 C599 1.539 . S
C597 C593 1.408 . S
C597 C596 1.404 . S
C597 H609 0.930 . S
C598 C594 1.524 . S
C598 H610 0.956 1_554 S
C598 H611 0.961 1_554 S
C598 H612 0.961 . S
C599 C596 1.539 . S
C599 H613 0.958 . S
C599 H614 0.961 . S
C599 H615 0.960 . S
H600 C584 0.931 . S
H601 C589 0.929 . S
H602 C590 0.960 1_554 S
H603 C590 0.962 . S
H604 C590 0.960 . S
H605 C591 0.961 . S
H606 C591 0.961 . S
H607 C591 0.961 . S
H608 C592 0.931 . S
H609 C597 0.930 . S
H610 C598 0.956 1_556 S
H611 C598 0.961 1_556 S
H612 C598 0.961 . S
H613 C599 0.958 . S
H614 C599 0.961 . S
H615 C599 0.960 . S
C616 C617 1.391 . S
C616 C618 1.394 . S
C616 H632 0.931 . S
C617 C616 1.391 . S
C617 C621 1.376 . S
C618 C616 1.394 . S
C618 C619 1.369 . S
C618 C622 1.531 . S
C619 C618 1.369 . S
C619 C620 1.410 . S
C619 C627 1.503 . S
C620 C619 1.410 . S
C620 C621 1.392 . S
C620 C623 1.511 . S
C621 C617 1.376 . S
C621 C620 1.392 . S
C621 H633 0.929 . S
C622 C618 1.531 . S
C622 H634 0.960 . S
C622 H635 0.962 . S
C622 H636 0.960 . S
C623 C620 1.511 . S
C623 H637 0.961 . S
C623 H638 0.961 . S
C623 H639 0.961 . S
C624 C625 1.370 . S
C624 C626 1.363 1_556 S
C624 H640 0.931 . S
C625 C624 1.370 . S
C625 C629 1.408 . S
C626 C624 1.363 1_554 S
C626 C627 1.370 . S
C626 C630 1.524 . S
C627 C619 1.503 . S
C627 C626 1.370 . S
C627 C628 1.403 . S
C628 C627 1.403 . S
C628 C629 1.404 1_554 S
C628 C631 1.539 . S
C629 C625 1.408 . S
C629 C628 1.404 1_556 S
C629 H641 0.930 . S
C630 C626 1.524 . S
C630 H642 0.956 . S
C630 H643 0.961 . S
C630 H644 0.961 . S
C631 C628 1.539 . S
C631 H645 0.958 . S
C631 H646 0.961 . S
C631 H647 0.960 . S
H632 C616 0.931 . S
H633 C621 0.929 . S
H634 C622 0.960 . S
H635 C622 0.962 . S
H636 C622 0.960 . S
H637 C623 0.961 . S
H638 C623 0.961 . S
H639 C623 0.961 . S
H640 C624 0.931 . S
H641 C629 0.930 . S
H642 C630 0.956 . S
H643 C630 0.961 . S
H644 C630 0.961 . S
H645 C631 0.958 . S
H646 C631 0.961 . S
H647 C631 0.960 . S
C648 C649 1.391 . S
C648 C650 1.394 . S
C648 H664 0.931 . S
C649 C648 1.391 . S
C649 C653 1.376 1_556 S
C650 C648 1.394 . S
C650 C651 1.369 . S
C650 C654 1.531 . S
C651 C650 1.369 . S
C651 C652 1.410 1_556 S
C651 C659 1.504 1_545 S
C652 C651 1.410 1_554 S
C652 C653 1.392 . S
C652 C655 1.511 . S
C653 C649 1.376 1_554 S
C653 C652 1.392 . S
C653 H665 0.929 . S
C654 C650 1.531 . S
C654 H666 0.960 1_545 S
C654 H667 0.962 . S
C654 H668 0.960 . S
C655 C652 1.511 . S
C655 H669 0.961 . S
C655 H670 0.961 1_545 S
C655 H671 0.961 . S
C656 C657 1.370 . S
C656 C658 1.363 . S
C656 H672 0.931 . S
C657 C656 1.370 . S
C657 C661 1.408 1_554 S
C658 C656 1.363 . S
C658 C659 1.360 1_554 S
C658 C662 1.524 . S
C659 C651 1.504 1_565 S
C659 C658 1.360 1_556 S
C659 C660 1.412 . S
C660 C659 1.412 . S
C660 C661 1.404 . S
C660 C663 1.539 . S
C661 C657 1.408 1_556 S
C661 C660 1.404 . S
C661 H673 0.930 . S
C662 C658 1.524 . S
C662 H674 0.965 . S
C662 H675 0.961 1_565 S
C662 H676 0.961 . S
C663 C660 1.539 . S
C663 H677 0.958 . S
C663 H678 0.961 . S
C663 H679 0.960 . S
H664 C648 0.931 . S
H665 C653 0.929 . S
H666 C654 0.960 1_565 S
H667 C654 0.962 . S
H668 C654 0.960 . S
H669 C655 0.961 . S
H670 C655 0.961 1_565 S
H671 C655 0.961 . S
H672 C656 0.931 . S
H673 C661 0.930 . S
H674 C662 0.965 . S
H675 C662 0.961 1_545 S
H676 C662 0.961 . S
H677 C663 0.958 . S
H678 C663 0.961 . S
H679 C663 0.960 . S
C680 C681 1.391 . S
C680 C682 1.394 . S
C680 H696 0.931 . S
C681 C680 1.391 . S
C681 C685 1.376 . S
C682 C680 1.394 . S
C682 C683 1.369 . S
C682 C686 1.531 . S
C683 C682 1.369 . S
C683 C684 1.410 . S
C683 C691 1.503 . S
C684 C683 1.410 . S
C684 C685 1.392 . S
C684 C687 1.511 . S
C685 C681 1.376 . S
C685 C684 1.392 . S
C685 H697 0.929 . S
C686 C682 1.531 . S
C686 H698 0.960 . S
C686 H699 0.962 . S
C686 H700 0.960 . S
C687 C684 1.511 . S
C687 H701 0.960 . S
C687 H702 0.961 . S
C687 H703 0.961 . S
C688 C689 1.370 . S
C688 C690 1.363 . S
C688 H704 0.931 . S
C689 C688 1.370 . S
C689 C693 1.408 . S
C690 C688 1.363 . S
C690 C691 1.370 . S
C690 C694 1.524 . S
C691 C683 1.503 . S
C691 C690 1.370 . S
C691 C692 1.403 . S
C692 C691 1.403 . S
C692 C693 1.404 . S
C692 C695 1.539 . S
C693 C689 1.408 . S
C693 C692 1.404 . S
C693 H705 0.930 . S
C694 C690 1.524 . S
C694 H706 0.956 . S
C694 H707 0.961 . S
C694 H708 0.961 . S
C695 C692 1.539 . S
C695 H709 0.958 . S
C695 H710 0.961 . S
C695 H711 0.960 . S
H696 C680 0.931 . S
H697 C685 0.929 . S
H698 C686 0.960 . S
H699 C686 0.962 . S
H700 C686 0.960 . S
H701 C687 0.960 . S
H702 C687 0.961 . S
H703 C687 0.961 . S
H704 C688 0.931 . S
H705 C693 0.930 . S
H706 C694 0.956 . S
H707 C694 0.961 . S
H708 C694 0.961 . S
H709 C695 0.958 . S
H710 C695 0.961 . S
H711 C695 0.960 . S
C712 C713 1.391 . S
C712 C714 1.394 . S
C712 H728 0.931 . S
C713 C712 1.391 . S
C713 C717 1.376 . S
C714 C712 1.394 . S
C714 C715 1.369 . S
C714 C718 1.531 . S
C715 C714 1.369 . S
C715 C716 1.410 . S
C715 C723 1.503 1_455 S
C716 C715 1.410 . S
C716 C717 1.392 . S
C716 C719 1.511 . S
C717 C713 1.376 . S
C717 C716 1.392 . S
C717 H729 0.929 . S
C718 C714 1.531 . S
C718 H730 0.960 1_455 S
C718 H731 0.962 . S
C718 H732 0.960 . S
C719 C716 1.511 . S
C719 H733 0.961 . S
C719 H734 0.961 1_455 S
C719 H735 0.961 . S
C720 C721 1.370 . S
C720 C722 1.363 . S
C720 H736 0.931 . S
C721 C720 1.370 . S
C721 C725 1.408 . S
C722 C720 1.363 . S
C722 C723 1.370 . S
C722 C726 1.524 . S
C723 C715 1.503 1_655 S
C723 C722 1.370 . S
C723 C724 1.403 . S
C724 C723 1.403 . S
C724 C725 1.404 . S
C724 C727 1.539 . S
C725 C721 1.408 . S
C725 C724 1.404 . S
C725 H737 0.930 . S
C726 C722 1.524 . S
C726 H738 0.956 . S
C726 H739 0.956 1_655 S
C726 H740 0.961 . S
C727 C724 1.539 . S
C727 H741 0.958 . S
C727 H742 0.961 . S
C727 H743 0.910 1_655 S
H728 C712 0.931 . S
H729 C717 0.929 . S
H730 C718 0.960 1_655 S
H731 C718 0.962 . S
H732 C718 0.960 . S
H733 C719 0.961 . S
H734 C719 0.961 1_655 S
H735 C719 0.961 . S
H736 C720 0.931 . S
H737 C725 0.930 . S
H738 C726 0.956 . S
H739 C726 0.956 1_455 S
H740 C726 0.961 . S
H741 C727 0.958 . S
H742 C727 0.961 . S
H743 C727 0.910 1_455 S
C744 C745 1.391 . S
C744 C746 1.394 . S
C744 H760 0.931 . S
C745 C744 1.391 . S
C745 C749 1.376 . S
C746 C744 1.394 . S
C746 C747 1.369 . S
C746 C750 1.531 . S
C747 C746 1.369 . S
C747 C748 1.410 . S
C747 C755 1.503 1_565 S
C748 C747 1.410 . S
C748 C749 1.392 . S
C748 C751 1.511 . S
C749 C745 1.376 . S
C749 C748 1.392 . S
C749 H761 0.929 . S
C750 C746 1.531 . S
C750 H762 0.960 1_565 S
C750 H763 0.962 . S
C750 H764 0.960 . S
C751 C748 1.511 . S
C751 H765 0.961 . S
C751 H766 0.961 1_565 S
C751 H767 0.961 . S
C752 C753 1.370 . S
C752 C754 1.363 . S
C752 H768 0.931 . S
C753 C752 1.370 . S
C753 C757 1.408 . S
C754 C752 1.363 . S
C754 C755 1.370 . S
C754 C758 1.524 . S
C755 C747 1.503 1_545 S
C755 C754 1.370 . S
C755 C756 1.403 . S
C756 C755 1.403 . S
C756 C757 1.404 . S
C756 C759 1.539 . S
C757 C753 1.408 . S
C757 C756 1.404 . S
C757 H769 0.930 . S
C758 C754 1.524 . S
C758 H770 0.955 . S
C758 H771 0.961 1_545 S
C758 H772 0.961 . S
C759 C756 1.539 . S
C759 H773 0.958 . S
C759 H774 0.961 . S
C759 H775 0.960 . S
H760 C744 0.931 . S
H761 C749 0.929 . S
H762 C750 0.960 1_545 S
H763 C750 0.962 . S
H764 C750 0.960 . S
H765 C751 0.961 . S
H766 C751 0.961 1_545 S
H767 C751 0.961 . S
H768 C752 0.931 . S
H769 C757 0.930 . S
H770 C758 0.955 . S
H771 C758 0.961 1_565 S
H772 C758 0.961 . S
H773 C759 0.958 . S
H774 C759 0.961 . S
H775 C759 0.960 . S
C776 C777 1.391 . S
C776 C778 1.394 . S
C776 H792 0.931 . S
C777 C776 1.391 . S
C777 C781 1.376 . S
C778 C776 1.394 . S
C778 C779 1.369 . S
C778 C782 1.531 . S
C779 C778 1.369 . S
C779 C780 1.410 . S
C779 C787 1.503 . S
C780 C779 1.410 . S
C780 C781 1.392 . S
C780 C783 1.511 . S
C781 C777 1.376 . S
C781 C780 1.392 . S
C781 H793 0.929 . S
C782 C778 1.531 . S
C782 H794 0.960 . S
C782 H795 0.962 . S
C782 H796 0.960 . S
C783 C780 1.511 . S
C783 H797 0.961 . S
C783 H798 0.961 . S
C783 H799 0.961 . S
C784 C785 1.370 . S
C784 C786 1.363 . S
C784 H800 0.931 . S
C785 C784 1.370 . S
C785 C789 1.408 . S
C786 C784 1.363 . S
C786 C787 1.370 . S
C786 C790 1.524 . S
C787 C779 1.503 . S
C787 C786 1.370 . S
C787 C788 1.403 . S
C788 C787 1.403 . S
C788 C789 1.404 . S
C788 C791 1.539 . S
C789 C785 1.408 . S
C789 C788 1.404 . S
C789 H801 0.930 . S
C790 C786 1.524 . S
C790 H802 0.956 . S
C790 H803 0.961 . S
C790 H804 0.961 . S
C791 C788 1.539 . S
C791 H805 0.958 . S
C791 H806 0.961 . S
C791 H807 0.960 . S
H792 C776 0.931 . S
H793 C781 0.929 . S
H794 C782 0.960 . S
H795 C782 0.962 . S
H796 C782 0.960 . S
H797 C783 0.961 . S
H798 C783 0.961 . S
H799 C783 0.961 . S
H800 C784 0.931 . S
H801 C789 0.930 . S
H802 C790 0.956 . S
H803 C790 0.961 . S
H804 C790 0.961 . S
H805 C791 0.958 . S
H806 C791 0.961 . S
H807 C791 0.960 . S
C808 C809 1.391 . S
C808 C810 1.394 . S
C808 H824 0.931 . S
C809 C808 1.391 . S
C809 C813 1.376 . S
C810 C808 1.394 . S
C810 C811 1.369 . S
C810 C814 1.531 . S
C811 C810 1.369 . S
C811 C812 1.410 . S
C811 C819 1.503 1_455 S
C812 C811 1.410 . S
C812 C813 1.392 . S
C812 C815 1.511 . S
C813 C809 1.376 . S
C813 C812 1.392 . S
C813 H825 0.929 . S
C814 C810 1.531 . S
C814 H826 0.960 1_455 S
C814 H827 0.962 . S
C814 H828 0.960 . S
C815 C812 1.511 . S
C815 H829 0.961 . S
C815 H830 0.961 1_455 S
C815 H831 0.961 . S
C816 C817 1.370 . S
C816 C818 1.363 . S
C816 H832 0.931 . S
C817 C816 1.370 . S
C817 C821 1.408 . S
C818 C816 1.363 . S
C818 C819 1.370 . S
C818 C822 1.524 . S
C819 C811 1.503 1_655 S
C819 C818 1.370 . S
C819 C820 1.403 . S
C820 C819 1.403 . S
C820 C821 1.404 . S
C820 C823 1.539 . S
C821 C817 1.408 . S
C821 C820 1.404 . S
C821 H833 0.930 . S
C822 C818 1.524 . S
C822 H834 0.956 . S
C822 H835 0.961 1_655 S
C822 H836 0.961 1_556 S
C823 C820 1.539 . S
C823 H837 0.958 . S
C823 H838 0.961 . S
C823 H839 0.960 . S
H824 C808 0.931 . S
H825 C813 0.929 . S
H826 C814 0.960 1_655 S
H827 C814 0.962 . S
H828 C814 0.960 . S
H829 C815 0.961 . S
H830 C815 0.961 1_655 S
H831 C815 0.961 . S
H832 C816 0.931 . S
H833 C821 0.930 . S
H834 C822 0.956 . S
H835 C822 0.961 1_455 S
H836 C822 0.961 1_554 S
H837 C823 0.958 . S
H838 C823 0.961 . S
H839 C823 0.960 . S
C840 C841 1.391 . S
C840 C842 1.394 . S
C840 H856 0.931 . S
C841 C840 1.391 . S
C841 C845 1.376 . S
C842 C840 1.394 . S
C842 C843 1.369 . S
C842 C846 1.531 . S
C843 C842 1.369 . S
C843 C844 1.410 . S
C843 C851 1.503 . S
C844 C843 1.410 . S
C844 C845 1.392 . S
C844 C847 1.511 . S
C845 C841 1.376 . S
C845 C844 1.392 . S
C845 H857 0.929 . S
C846 C842 1.531 . S
C846 H858 0.960 . S
C846 H859 0.962 . S
C846 H860 0.960 . S
C847 C844 1.511 . S
C847 H861 0.961 . S
C847 H862 0.961 . S
C847 H863 0.961 . S
C848 C849 1.370 . S
C848 C850 1.363 . S
C848 H864 0.931 . S
C849 C848 1.370 . S
C849 C853 1.408 . S
C850 C848 1.363 . S
C850 C851 1.370 . S
C850 C854 1.524 . S
C851 C843 1.503 . S
C851 C850 1.370 . S
C851 C852 1.403 . S
C852 C851 1.403 . S
C852 C853 1.404 . S
C852 C855 1.539 . S
C853 C849 1.408 . S
C853 C852 1.404 . S
C853 H865 0.930 . S
C854 C850 1.524 . S
C854 H866 0.956 . S
C854 H867 0.961 . S
C854 H868 0.961 . S
C855 C852 1.539 . S
C855 H869 0.958 . S
C855 H870 0.961 . S
C855 H871 0.960 . S
H856 C840 0.931 . S
H857 C845 0.929 . S
H858 C846 0.960 . S
H859 C846 0.962 . S
H860 C846 0.960 . S
H861 C847 0.961 . S
H862 C847 0.961 . S
H863 C847 0.961 . S
H864 C848 0.931 . S
H865 C853 0.930 . S
H866 C854 0.956 . S
H867 C854 0.961 . S
H868 C854 0.961 . S
H869 C855 0.958 . S
H870 C855 0.961 . S
H871 C855 0.960 . S
C872 C873 1.391 . S
C872 C874 1.394 . S
C872 H888 0.931 . S
C873 C872 1.391 . S
C873 C877 1.376 1_554 S
C874 C872 1.394 . S
C874 C875 1.369 1_554 S
C874 C878 1.531 . S
C875 C874 1.369 1_556 S
C875 C876 1.410 . S
C875 C883 1.503 . S
C876 C875 1.410 . S
C876 C877 1.392 . S
C876 C879 1.511 . S
C877 C873 1.376 1_556 S
C877 C876 1.392 . S
C877 H889 0.929 . S
C878 C874 1.531 . S
C878 H890 0.960 . S
C878 H891 0.962 . S
C878 H892 0.960 . S
C879 C876 1.511 . S
C879 H893 0.961 . S
C879 H894 0.961 . S
C879 H895 0.961 . S
C880 C881 1.370 . S
C880 C882 1.363 . S
C880 H896 0.931 . S
C881 C880 1.370 . S
C881 C885 1.408 . S
C882 C880 1.363 . S
C882 C883 1.370 . S
C882 C886 1.524 . S
C883 C875 1.503 . S
C883 C882 1.370 . S
C883 C884 1.403 . S
C884 C883 1.403 . S
C884 C885 1.404 . S
C884 C887 1.539 . S
C885 C881 1.408 . S
C885 C884 1.404 . S
C885 H897 0.930 . S
C886 C882 1.524 . S
C886 H898 0.956 1_556 S
C886 H899 0.961 . S
C886 H900 0.961 . S
C887 C884 1.539 . S
C887 H901 0.958 . S
C887 H902 0.961 . S
C887 H903 0.960 . S
H888 C872 0.931 . S
H889 C877 0.929 . S
H890 C878 0.960 . S
H891 C878 0.962 . S
H892 C878 0.960 . S
H893 C879 0.961 . S
H894 C879 0.961 . S
H895 C879 0.961 . S
H896 C880 0.931 . S
H897 C885 0.930 . S
H898 C886 0.956 1_554 S
H899 C886 0.961 . S
H900 C886 0.961 . S
H901 C887 0.958 . S
H902 C887 0.961 . S
H903 C887 0.960 . S
C904 C905 1.391 1_554 S
C904 C906 1.394 . S
C904 H920 0.931 . S
C905 C904 1.391 1_556 S
C905 C909 1.376 . S
C906 C904 1.394 . S
C906 C907 1.369 . S
C906 C910 1.531 . S
C907 C906 1.369 . S
C907 C908 1.410 . S
C907 C915 1.503 . S
C908 C907 1.410 . S
C908 C909 1.392 1_554 S
C908 C911 1.511 . S
C909 C905 1.376 . S
C909 C908 1.392 1_556 S
C909 H921 0.929 . S
C910 C906 1.531 . S
C910 H922 0.960 . S
C910 H923 0.962 . S
C910 H924 0.960 . S
C911 C908 1.511 . S
C911 H925 0.961 . S
C911 H926 0.961 . S
C911 H927 0.961 . S
C912 C913 1.370 . S
C912 C914 1.363 . S
C912 H928 0.931 . S
C913 C912 1.370 . S
C913 C917 1.408 . S
C914 C912 1.363 . S
C914 C915 1.370 . S
C914 C918 1.524 1_554 S
C915 C907 1.503 . S
C915 C914 1.370 . S
C915 C916 1.403 . S
C916 C915 1.403 . S
C916 C917 1.404 . S
C916 C919 1.539 . S
C917 C913 1.408 . S
C917 C916 1.404 . S
C917 H929 0.930 . S
C918 C914 1.524 1_556 S
C918 H930 0.956 . S
C918 H931 0.961 . S
C918 H932 0.961 . S
C919 C916 1.539 . S
C919 H933 0.958 . S
C919 H934 0.961 . S
C919 H935 0.960 . S
H920 C904 0.931 . S
H921 C909 0.929 . S
H922 C910 0.960 . S
H923 C910 0.962 . S
H924 C910 0.960 . S
H925 C911 0.961 . S
H926 C911 0.961 . S
H927 C911 0.961 . S
H928 C912 0.931 . S
H929 C917 0.930 . S
H930 C918 0.956 . S
H931 C918 0.961 . S
H932 C918 0.961 . S
H933 C919 0.958 . S
H934 C919 0.961 . S
H935 C919 0.960 . S
C936 C937 1.391 . S
C936 C938 1.394 . S
C936 H952 0.931 . S
C937 C936 1.391 . S
C937 C941 1.376 . S
C938 C936 1.394 . S
C938 C939 1.369 . S
C938 C942 1.531 . S
C939 C938 1.369 . S
C939 C940 1.410 . S
C939 C947 1.503 . S
C940 C939 1.410 . S
C940 C941 1.392 . S
C940 C943 1.511 . S
C941 C937 1.376 . S
C941 C940 1.392 . S
C941 H953 0.929 . S
C942 C938 1.531 . S
C942 H954 0.960 . S
C942 H955 0.962 . S
C942 H956 0.960 . S
C943 C940 1.511 . S
C943 H957 0.961 . S
C943 H958 0.961 . S
C943 H959 0.961 . S
C944 C945 1.370 . S
C944 C946 1.363 . S
C944 H960 0.931 . S
C945 C944 1.370 . S
C945 C949 1.408 . S
C946 C944 1.363 . S
C946 C947 1.370 . S
C946 C950 1.524 . S
C947 C939 1.503 . S
C947 C946 1.370 . S
C947 C948 1.403 . S
C948 C947 1.403 . S
C948 C949 1.404 . S
C948 C951 1.539 . S
C949 C945 1.408 . S
C949 C948 1.404 . S
C949 H961 0.930 . S
C950 C946 1.524 . S
C950 H962 0.956 . S
C950 H963 0.961 . S
C950 H964 0.961 . S
C951 C948 1.539 . S
C951 H965 0.958 . S
C951 H966 0.961 . S
C951 H967 0.960 . S
H952 C936 0.931 . S
H953 C941 0.929 . S
H954 C942 0.960 . S
H955 C942 0.962 . S
H956 C942 0.960 . S
H957 C943 0.961 . S
H958 C943 0.961 . S
H959 C943 0.961 . S
H960 C944 0.931 . S
H961 C949 0.930 . S
H962 C950 0.956 . S
H963 C950 0.961 . S
H964 C950 0.961 . S
H965 C951 0.958 . S
H966 C951 0.961 . S
H967 C951 0.960 . S
C968 C969 1.391 . S
C968 C970 1.394 . S
C968 H984 0.931 . S
C969 C968 1.391 . S
C969 C973 1.376 . S
C970 C968 1.394 . S
C970 C971 1.369 . S
C970 C974 1.531 . S
C971 C970 1.369 . S
C971 C972 1.410 . S
C971 C979 1.503 . S
C972 C971 1.410 . S
C972 C973 1.392 . S
C972 C975 1.511 . S
C973 C969 1.376 . S
C973 C972 1.392 . S
C973 H985 0.929 . S
C974 C970 1.531 . S
C974 H986 0.960 . S
C974 H987 0.962 . S
C974 H988 0.960 . S
C975 C972 1.511 . S
C975 H989 0.961 . S
C975 H990 0.961 . S
C975 H991 0.961 . S
C976 C977 1.370 . S
C976 C978 1.363 . S
C976 H992 0.931 . S
C977 C976 1.370 . S
C977 C981 1.408 . S
C978 C976 1.363 . S
C978 C979 1.370 . S
C978 C982 1.524 . S
C979 C971 1.503 . S
C979 C978 1.370 . S
C979 C980 1.403 . S
C980 C979 1.403 . S
C980 C981 1.404 . S
C980 C983 1.539 . S
C981 C977 1.408 . S
C981 C980 1.404 . S
C981 H993 0.930 . S
C982 C978 1.524 . S
C982 H994 0.956 . S
C982 H995 0.961 . S
C982 H996 0.961 . S
C983 C980 1.539 . S
C983 H997 0.958 . S
C983 H998 0.961 . S
C983 H999 0.960 . S
H984 C968 0.931 . S
H985 C973 0.929 . S
H986 C974 0.960 . S
H987 C974 0.962 . S
H988 C974 0.960 . S
H989 C975 0.961 . S
H990 C975 0.961 . S
H991 C975 0.961 . S
H992 C976 0.931 . S
H993 C981 0.930 . S
H994 C982 0.956 . S
H995 C982 0.961 . S
H996 C982 0.961 . S
H997 C983 0.958 . S
H998 C983 0.961 . S
H999 C983 0.960 . S
C1000 C1001 1.391 . S
C1000 C1002 1.394 . S
C1000 H1016 0.931 . S
C1001 C1000 1.391 . S
C1001 C1005 1.376 . S
C1002 C1000 1.394 . S
C1002 C1003 1.369 . S
C1002 C1006 1.531 . S
C1003 C1002 1.369 . S
C1003 C1004 1.410 . S
C1003 C1011 1.503 . S
C1004 C1003 1.410 . S
C1004 C1005 1.392 . S
C1004 C1007 1.511 . S
C1005 C1001 1.376 . S
C1005 C1004 1.392 . S
C1005 H1017 0.929 . S
C1006 C1002 1.531 . S
C1006 H1018 0.960 . S
C1006 H1019 0.962 . S
C1006 H1020 0.960 . S
C1007 C1004 1.511 . S
C1007 H1021 0.961 . S
C1007 H1022 0.961 . S
C1007 H1023 0.961 . S
C1008 C1009 1.370 . S
C1008 C1010 1.363 . S
C1008 H1024 0.931 . S
C1009 C1008 1.370 . S
C1009 C1013 1.408 . S
C1010 C1008 1.363 . S
C1010 C1011 1.370 . S
C1010 C1014 1.524 . S
C1011 C1003 1.503 . S
C1011 C1010 1.370 . S
C1011 C1012 1.403 . S
C1012 C1011 1.403 . S
C1012 C1013 1.404 . S
C1012 C1015 1.539 . S
C1013 C1009 1.408 . S
C1013 C1012 1.404 . S
C1013 H1025 0.930 . S
C1014 C1010 1.524 . S
C1014 H1026 0.956 . S
C1014 H1027 0.961 . S
C1014 H1028 0.961 . S
C1015 C1012 1.539 . S
C1015 H1029 0.958 . S
C1015 H1030 0.961 . S
C1015 H1031 0.960 . S
H1016 C1000 0.931 . S
H1017 C1005 0.929 . S
H1018 C1006 0.960 . S
H1019 C1006 0.962 . S
H1020 C1006 0.960 . S
H1021 C1007 0.961 . S
H1022 C1007 0.961 . S
H1023 C1007 0.961 . S
H1024 C1008 0.931 . S
H1025 C1013 0.930 . S
H1026 C1014 0.956 . S
H1027 C1014 0.961 . S
H1028 C1014 0.961 . S
H1029 C1015 0.958 . S
H1030 C1015 0.961 . S
H1031 C1015 0.960 . S
C1032 C1033 1.391 . S
C1032 C1034 1.394 . S
C1032 H1048 0.931 . S
C1033 C1032 1.391 . S
C1033 C1037 1.376 1_554 S
C1034 C1032 1.394 . S
C1034 C1035 1.369 . S
C1034 C1038 1.531 . S
C1035 C1034 1.369 . S
C1035 C1036 1.410 . S
C1035 C1043 1.503 . S
C1036 C1035 1.410 . S
C1036 C1037 1.392 1_554 S
C1036 C1039 1.511 1_554 S
C1037 C1033 1.376 1_556 S
C1037 C1036 1.392 1_556 S
C1037 H1049 0.929 . S
C1038 C1034 1.531 . S
C1038 H1050 0.960 . S
C1038 H1051 0.962 . S
C1038 H1052 0.960 . S
C1039 C1036 1.511 1_556 S
C1039 H1053 0.961 . S
C1039 H1054 0.961 . S
C1039 H1055 0.961 . S
C1040 C1041 1.370 . S
C1040 C1042 1.363 . S
C1040 H1056 0.931 . S
C1041 C1040 1.370 . S
C1041 C1045 1.408 . S
C1042 C1040 1.363 . S
C1042 C1043 1.370 . S
C1042 C1046 1.524 . S
C1043 C1035 1.503 . S
C1043 C1042 1.370 . S
C1043 C1044 1.403 . S
C1044 C1043 1.403 . S
C1044 C1045 1.404 . S
C1044 C1047 1.539 . S
C1045 C1041 1.408 . S
C1045 C1044 1.404 . S
C1045 H1057 0.930 . S
C1046 C1042 1.524 . S
C1046 H1058 0.956 . S
C1046 H1059 0.961 . S
C1046 H1060 0.961 . S
C1047 C1044 1.539 . S
C1047 H1061 0.958 . S
C1047 H1062 0.961 . S
C1047 H1063 0.960 . S
H1048 C1032 0.931 . S
H1049 C1037 0.929 . S
H1050 C1038 0.960 . S
H1051 C1038 0.962 . S
H1052 C1038 0.960 . S
H1053 C1039 0.961 . S
H1054 C1039 0.961 . S
H1055 C1039 0.961 . S
H1056 C1040 0.931 . S
H1057 C1045 0.930 . S
H1058 C1046 0.956 . S
H1059 C1046 0.961 . S
H1060 C1046 0.961 . S
H1061 C1047 0.958 . S
H1062 C1047 0.961 . S
H1063 C1047 0.960 . S
C1064 C1065 1.391 . S
C1064 C1066 1.394 . S
C1064 H1080 0.931 . S
C1065 C1064 1.391 . S
C1065 C1069 1.376 . S
C1066 C1064 1.394 . S
C1066 C1067 1.369 . S
C1066 C1070 1.531 . S
C1067 C1066 1.369 . S
C1067 C1068 1.410 . S
C1067 C1075 1.503 . S
C1068 C1067 1.410 . S
C1068 C1069 1.392 . S
C1068 C1071 1.511 . S
C1069 C1065 1.376 . S
C1069 C1068 1.392 . S
C1069 H1081 0.929 . S
C1070 C1066 1.531 . S
C1070 H1082 0.960 . S
C1070 H1083 0.962 . S
C1070 H1084 0.960 . S
C1071 C1068 1.511 . S
C1071 H1085 0.961 . S
C1071 H1086 0.961 . S
C1071 H1087 0.961 . S
C1072 C1073 1.370 . S
C1072 C1074 1.363 . S
C1072 H1088 0.931 . S
C1073 C1072 1.370 . S
C1073 C1077 1.408 . S
C1074 C1072 1.363 . S
C1074 C1075 1.370 . S
C1074 C1078 1.524 . S
C1075 C1067 1.503 . S
C1075 C1074 1.370 . S
C1075 C1076 1.403 . S
C1076 C1075 1.403 . S
C1076 C1077 1.404 . S
C1076 C1079 1.539 . S
C1077 C1073 1.408 . S
C1077 C1076 1.404 . S
C1077 H1089 0.930 . S
C1078 C1074 1.524 . S
C1078 H1090 0.956 . S
C1078 H1091 0.961 . S
C1078 H1092 0.961 . S
C1079 C1076 1.539 . S
C1079 H1093 0.958 . S
C1079 H1094 0.961 . S
C1079 H1095 0.960 . S
H1080 C1064 0.931 . S
H1081 C1069 0.929 . S
H1082 C1070 0.960 . S
H1083 C1070 0.962 . S
H1084 C1070 0.960 . S
H1085 C1071 0.961 . S
H1086 C1071 0.961 . S
H1087 C1071 0.961 . S
H1088 C1072 0.931 . S
H1089 C1077 0.930 . S
H1090 C1078 0.956 . S
H1091 C1078 0.961 . S
H1092 C1078 0.961 . S
H1093 C1079 0.958 . S
H1094 C1079 0.961 . S
H1095 C1079 0.960 . S
C1096 C1097 1.391 . S
C1096 C1098 1.394 . S
C1096 H1112 0.931 . S
C1097 C1096 1.391 . S
C1097 C1101 1.376 . S
C1098 C1096 1.394 . S
C1098 C1099 1.369 . S
C1098 C1102 1.531 . S
C1099 C1098 1.369 . S
C1099 C1100 1.410 . S
C1099 C1107 1.503 . S
C1100 C1099 1.410 . S
C1100 C1101 1.392 . S
C1100 C1103 1.511 . S
C1101 C1097 1.376 . S
C1101 C1100 1.392 . S
C1101 H1113 0.929 . S
C1102 C1098 1.531 . S
C1102 H1114 0.960 . S
C1102 H1115 0.962 . S
C1102 H1116 0.960 . S
C1103 C1100 1.511 . S
C1103 H1117 0.961 . S
C1103 H1118 0.961 . S
C1103 H1119 0.961 . S
C1104 C1105 1.370 . S
C1104 C1106 1.363 . S
C1104 H1120 0.931 . S
C1105 C1104 1.370 . S
C1105 C1109 1.408 . S
C1106 C1104 1.363 . S
C1106 C1107 1.370 . S
C1106 C1110 1.524 . S
C1107 C1099 1.503 . S
C1107 C1106 1.370 . S
C1107 C1108 1.403 . S
C1108 C1107 1.403 . S
C1108 C1109 1.404 . S
C1108 C1111 1.539 . S
C1109 C1105 1.408 . S
C1109 C1108 1.404 . S
C1109 H1121 0.930 . S
C1110 C1106 1.524 . S
C1110 H1122 0.956 . S
C1110 H1123 0.961 . S
C1110 H1124 0.961 . S
C1111 C1108 1.539 . S
C1111 H1125 0.958 . S
C1111 H1126 0.961 . S
C1111 H1127 0.960 . S
H1112 C1096 0.931 . S
H1113 C1101 0.929 . S
H1114 C1102 0.960 . S
H1115 C1102 0.962 . S
H1116 C1102 0.960 . S
H1117 C1103 0.961 . S
H1118 C1103 0.961 . S
H1119 C1103 0.961 . S
H1120 C1104 0.931 . S
H1121 C1109 0.930 . S
H1122 C1110 0.956 . S
H1123 C1110 0.961 . S
H1124 C1110 0.961 . S
H1125 C1111 0.958 . S
H1126 C1111 0.961 . S
H1127 C1111 0.960 . S
C1128 C1129 1.391 . S
C1128 C1130 1.394 . S
C1128 H1144 0.931 . S
C1129 C1128 1.391 . S
C1129 C1133 1.376 . S
C1130 C1128 1.394 . S
C1130 C1131 1.369 . S
C1130 C1134 1.531 . S
C1131 C1130 1.369 . S
C1131 C1132 1.410 . S
C1131 C1139 1.503 . S
C1132 C1131 1.410 . S
C1132 C1133 1.392 . S
C1132 C1135 1.511 . S
C1133 C1129 1.376 . S
C1133 C1132 1.392 . S
C1133 H1145 0.929 . S
C1134 C1130 1.531 . S
C1134 H1146 0.960 . S
C1134 H1147 0.962 . S
C1134 H1148 0.960 . S
C1135 C1132 1.511 . S
C1135 H1149 0.961 . S
C1135 H1150 0.961 . S
C1135 H1151 0.961 . S
C1136 C1137 1.370 . S
C1136 C1138 1.363 . S
C1136 H1152 0.931 . S
C1137 C1136 1.370 . S
C1137 C1141 1.408 . S
C1138 C1136 1.363 . S
C1138 C1139 1.370 . S
C1138 C1142 1.524 . S
C1139 C1131 1.503 . S
C1139 C1138 1.370 . S
C1139 C1140 1.403 . S
C1140 C1139 1.403 . S
C1140 C1141 1.404 . S
C1140 C1143 1.539 . S
C1141 C1137 1.408 . S
C1141 C1140 1.404 . S
C1141 H1153 0.930 . S
C1142 C1138 1.524 . S
C1142 H1154 0.956 . S
C1142 H1155 0.961 . S
C1142 H1156 0.961 . S
C1143 C1140 1.539 . S
C1143 H1157 0.958 . S
C1143 H1158 0.961 . S
C1143 H1159 0.960 . S
H1144 C1128 0.931 . S
H1145 C1133 0.929 . S
H1146 C1134 0.960 . S
H1147 C1134 0.962 . S
H1148 C1134 0.960 . S
H1149 C1135 0.961 . S
H1150 C1135 0.961 . S
H1151 C1135 0.961 . S
H1152 C1136 0.931 . S
H1153 C1141 0.930 . S
H1154 C1142 0.956 . S
H1155 C1142 0.961 . S
H1156 C1142 0.961 . S
H1157 C1143 0.958 . S
H1158 C1143 0.961 . S
H1159 C1143 0.960 . S
C1160 C1161 1.391 . S
C1160 C1162 1.394 . S
C1160 H1176 0.931 . S
C1161 C1160 1.391 . S
C1161 C1165 1.376 . S
C1162 C1160 1.394 . S
C1162 C1163 1.369 . S
C1162 C1166 1.531 . S
C1163 C1162 1.369 . S
C1163 C1164 1.410 . S
C1163 C1171 1.503 . S
C1164 C1163 1.410 . S
C1164 C1165 1.392 . S
C1164 C1167 1.511 . S
C1165 C1161 1.376 . S
C1165 C1164 1.392 . S
C1165 H1177 0.929 . S
C1166 C1162 1.531 . S
C1166 H1178 0.960 . S
C1166 H1179 0.962 . S
C1166 H1180 0.960 . S
C1167 C1164 1.511 . S
C1167 H1181 0.961 . S
C1167 H1182 0.961 . S
C1167 H1183 0.961 . S
C1168 C1169 1.370 . S
C1168 C1170 1.363 . S
C1168 H1184 0.931 . S
C1169 C1168 1.370 . S
C1169 C1173 1.408 . S
C1170 C1168 1.363 . S
C1170 C1171 1.370 . S
C1170 C1174 1.524 . S
C1171 C1163 1.503 . S
C1171 C1170 1.370 . S
C1171 C1172 1.403 . S
C1172 C1171 1.403 . S
C1172 C1173 1.404 . S
C1172 C1175 1.539 . S
C1173 C1169 1.408 . S
C1173 C1172 1.404 . S
C1173 H1185 0.930 . S
C1174 C1170 1.524 . S
C1174 H1186 0.956 . S
C1174 H1187 0.961 . S
C1174 H1188 0.961 . S
C1175 C1172 1.539 . S
C1175 H1189 0.958 . S
C1175 H1190 0.961 . S
C1175 H1191 0.960 . S
H1176 C1160 0.931 . S
H1177 C1165 0.929 . S
H1178 C1166 0.960 . S
H1179 C1166 0.962 . S
H1180 C1166 0.960 . S
H1181 C1167 0.961 . S
H1182 C1167 0.961 . S
H1183 C1167 0.961 . S
H1184 C1168 0.931 . S
H1185 C1173 0.930 . S
H1186 C1174 0.956 . S
H1187 C1174 0.961 . S
H1188 C1174 0.961 . S
H1189 C1175 0.958 . S
H1190 C1175 0.961 . S
H1191 C1175 0.960 . S
C1192 C1193 1.391 . S
C1192 C1194 1.394 . S
C1192 H1208 0.931 . S
C1193 C1192 1.391 . S
C1193 C1197 1.376 . S
C1194 C1192 1.394 . S
C1194 C1195 1.369 . S
C1194 C1198 1.531 . S
C1195 C1194 1.369 . S
C1195 C1196 1.410 . S
C1195 C1203 1.503 . S
C1196 C1195 1.410 . S
C1196 C1197 1.392 . S
C1196 C1199 1.511 . S
C1197 C1193 1.376 . S
C1197 C1196 1.392 . S
C1197 H1209 0.929 . S
C1198 C1194 1.531 . S
C1198 H1210 0.960 . S
C1198 H1211 0.962 . S
C1198 H1212 0.960 . S
C1199 C1196 1.511 . S
C1199 H1213 0.961 . S
C1199 H1214 0.961 . S
C1199 H1215 0.961 . S
C1200 C1201 1.370 1_554 S
C1200 C1202 1.363 . S
C1200 H1216 0.931 . S
C1201 C1200 1.370 1_556 S
C1201 C1205 1.408 . S
C1202 C1200 1.363 . S
C1202 C1203 1.370 1_554 S
C1202 C1206 1.524 . S
C1203 C1195 1.503 . S
C1203 C1202 1.370 1_556 S
C1203 C1204 1.403 . S
C1204 C1203 1.403 . S
C1204 C1205 1.404 . S
C1204 C1207 1.539 . S
C1205 C1201 1.408 . S
C1205 C1204 1.404 . S
C1205 H1217 0.930 . S
C1206 C1202 1.524 . S
C1206 H1218 0.956 . S
C1206 H1219 0.961 . S
C1206 H1220 0.961 . S
C1207 C1204 1.539 . S
C1207 H1221 0.958 . S
C1207 H1222 0.961 . S
C1207 H1223 0.960 . S
H1208 C1192 0.931 . S
H1209 C1197 0.929 . S
H1210 C1198 0.960 . S
H1211 C1198 0.962 . S
H1212 C1198 0.960 . S
H1213 C1199 0.961 . S
H1214 C1199 0.961 . S
H1215 C1199 0.961 . S
H1216 C1200 0.931 . S
H1217 C1205 0.930 . S
H1218 C1206 0.956 . S
H1219 C1206 0.961 . S
H1220 C1206 0.961 . S
H1221 C1207 0.958 . S
H1222 C1207 0.961 . S
H1223 C1207 0.960 . S
C1224 C1225 1.391 . S
C1224 C1226 1.394 . S
C1224 H1240 0.931 . S
C1225 C1224 1.391 . S
C1225 C1229 1.376 . S
C1226 C1224 1.394 . S
C1226 C1227 1.369 . S
C1226 C1230 1.531 . S
C1227 C1226 1.369 . S
C1227 C1228 1.410 . S
C1227 C1235 1.503 . S
C1228 C1227 1.410 . S
C1228 C1229 1.392 . S
C1228 C1231 1.511 . S
C1229 C1225 1.376 . S
C1229 C1228 1.392 . S
C1229 H1241 0.929 . S
C1230 C1226 1.531 . S
C1230 H1242 0.960 . S
C1230 H1243 0.962 . S
C1230 H1244 0.960 . S
C1231 C1228 1.511 . S
C1231 H1245 0.961 . S
C1231 H1246 0.961 . S
C1231 H1247 0.961 . S
C1232 C1233 1.370 . S
C1232 C1234 1.363 . S
C1232 H1248 0.931 . S
C1233 C1232 1.370 . S
C1233 C1237 1.408 . S
C1234 C1232 1.363 . S
C1234 C1235 1.370 . S
C1234 C1238 1.524 . S
C1235 C1227 1.503 . S
C1235 C1234 1.370 . S
C1235 C1236 1.403 . S
C1236 C1235 1.403 . S
C1236 C1237 1.404 . S
C1236 C1239 1.539 . S
C1237 C1233 1.408 . S
C1237 C1236 1.404 . S
C1237 H1249 0.930 . S
C1238 C1234 1.524 . S
C1238 H1250 0.956 . S
C1238 H1251 0.961 . S
C1238 H1252 0.961 . S
C1239 C1236 1.539 . S
C1239 H1253 0.958 . S
C1239 H1254 0.961 . S
C1239 H1255 0.960 . S
H1240 C1224 0.931 . S
H1241 C1229 0.929 . S
H1242 C1230 0.960 . S
H1243 C1230 0.962 . S
H1244 C1230 0.960 . S
H1245 C1231 0.961 . S
H1246 C1231 0.961 . S
H1247 C1231 0.961 . S
H1248 C1232 0.931 . S
H1249 C1237 0.930 . S
H1250 C1238 0.956 . S
H1251 C1238 0.961 . S
H1252 C1238 0.961 . S
H1253 C1239 0.958 . S
H1254 C1239 0.961 . S
H1255 C1239 0.960 . S
C1256 C1257 1.391 . S
C1256 C1258 1.394 . S
C1256 H1272 0.931 . S
C1257 C1256 1.391 . S
C1257 C1261 1.376 . S
C1258 C1256 1.394 . S
C1258 C1259 1.369 . S
C1258 C1262 1.531 . S
C1259 C1258 1.369 . S
C1259 C1260 1.410 . S
C1259 C1267 1.503 . S
C1260 C1259 1.410 . S
C1260 C1261 1.392 . S
C1260 C1263 1.511 . S
C1261 C1257 1.376 . S
C1261 C1260 1.392 . S
C1261 H1273 0.929 . S
C1262 C1258 1.531 . S
C1262 H1274 0.960 . S
C1262 H1275 0.962 . S
C1262 H1276 0.960 . S
C1263 C1260 1.511 . S
C1263 H1277 0.961 . S
C1263 H1278 0.961 . S
C1263 H1279 0.961 . S
C1264 C1265 1.370 . S
C1264 C1266 1.363 . S
C1264 H1280 0.931 . S
C1265 C1264 1.370 . S
C1265 C1269 1.408 . S
C1266 C1264 1.363 . S
C1266 C1267 1.370 . S
C1266 C1270 1.524 . S
C1267 C1259 1.503 . S
C1267 C1266 1.370 . S
C1267 C1268 1.403 . S
C1268 C1267 1.403 . S
C1268 C1269 1.404 . S
C1268 C1271 1.539 . S
C1269 C1265 1.408 . S
C1269 C1268 1.404 . S
C1269 H1281 0.930 . S
C1270 C1266 1.524 . S
C1270 H1282 0.956 . S
C1270 H1283 0.961 . S
C1270 H1284 0.961 . S
C1271 C1268 1.539 . S
C1271 H1285 0.958 . S
C1271 H1286 0.961 . S
C1271 H1287 0.960 . S
H1272 C1256 0.931 . S
H1273 C1261 0.929 . S
H1274 C1262 0.960 . S
H1275 C1262 0.962 . S
H1276 C1262 0.960 . S
H1277 C1263 0.961 . S
H1278 C1263 0.961 . S
H1279 C1263 0.961 . S
H1280 C1264 0.931 . S
H1281 C1269 0.930 . S
H1282 C1270 0.956 . S
H1283 C1270 0.961 . S
H1284 C1270 0.961 . S
H1285 C1271 0.958 . S
H1286 C1271 0.961 . S
H1287 C1271 0.960 . S
C1288 C1289 1.391 . S
C1288 C1290 1.394 . S
C1288 H1304 0.931 . S
C1289 C1288 1.391 . S
C1289 C1293 1.376 . S
C1290 C1288 1.394 . S
C1290 C1291 1.369 . S
C1290 C1294 1.531 . S
C1291 C1290 1.369 . S
C1291 C1292 1.410 . S
C1291 C1299 1.503 . S
C1292 C1291 1.410 . S
C1292 C1293 1.392 . S
C1292 C1295 1.511 . S
C1293 C1289 1.376 . S
C1293 C1292 1.392 . S
C1293 H1305 0.929 . S
C1294 C1290 1.531 . S
C1294 H1306 0.960 . S
C1294 H1307 0.962 . S
C1294 H1308 0.960 . S
C1295 C1292 1.511 . S
C1295 H1309 0.961 . S
C1295 H1310 0.961 . S
C1295 H1311 0.961 . S
C1296 C1297 1.370 . S
C1296 C1298 1.363 . S
C1296 H1312 0.931 . S
C1297 C1296 1.370 . S
C1297 C1301 1.408 . S
C1298 C1296 1.363 . S
C1298 C1299 1.370 . S
C1298 C1302 1.524 . S
C1299 C1291 1.503 . S
C1299 C1298 1.370 . S
C1299 C1300 1.403 . S
C1300 C1299 1.403 . S
C1300 C1301 1.404 . S
C1300 C1303 1.539 . S
C1301 C1297 1.408 . S
C1301 C1300 1.404 . S
C1301 H1313 0.930 . S
C1302 C1298 1.524 . S
C1302 H1314 0.956 . S
C1302 H1315 0.961 . S
C1302 H1316 0.961 . S
C1303 C1300 1.539 . S
C1303 H1317 0.958 . S
C1303 H1318 0.961 . S
C1303 H1319 0.960 . S
H1304 C1288 0.931 . S
H1305 C1293 0.929 . S
H1306 C1294 0.960 . S
H1307 C1294 0.962 . S
H1308 C1294 0.960 . S
H1309 C1295 0.961 . S
H1310 C1295 0.961 . S
H1311 C1295 0.961 . S
H1312 C1296 0.931 . S
H1313 C1301 0.930 . S
H1314 C1302 0.956 . S
H1315 C1302 0.961 . S
H1316 C1302 0.961 . S
H1317 C1303 0.958 . S
H1318 C1303 0.961 . S
H1319 C1303 0.960 . S
C1320 C1321 1.391 . S
C1320 C1322 1.394 . S
C1320 H1336 0.931 . S
C1321 C1320 1.391 . S
C1321 C1325 1.376 . S
C1322 C1320 1.394 . S
C1322 C1323 1.369 . S
C1322 C1326 1.531 . S
C1323 C1322 1.369 . S
C1323 C1324 1.410 . S
C1323 C1331 1.503 . S
C1324 C1323 1.410 . S
C1324 C1325 1.392 . S
C1324 C1327 1.511 . S
C1325 C1321 1.376 . S
C1325 C1324 1.392 . S
C1325 H1337 0.929 . S
C1326 C1322 1.531 . S
C1326 H1338 0.960 . S
C1326 H1339 0.962 . S
C1326 H1340 0.960 . S
C1327 C1324 1.511 . S
C1327 H1341 0.961 . S
C1327 H1342 0.961 . S
C1327 H1343 0.961 . S
C1328 C1329 1.370 . S
C1328 C1330 1.363 . S
C1328 H1344 0.931 . S
C1329 C1328 1.370 . S
C1329 C1333 1.408 . S
C1330 C1328 1.363 . S
C1330 C1331 1.370 . S
C1330 C1334 1.524 . S
C1331 C1323 1.503 . S
C1331 C1330 1.370 . S
C1331 C1332 1.403 . S
C1332 C1331 1.403 . S
C1332 C1333 1.404 . S
C1332 C1335 1.539 . S
C1333 C1329 1.408 . S
C1333 C1332 1.404 . S
C1333 H1345 0.930 . S
C1334 C1330 1.524 . S
C1334 H1346 0.956 . S
C1334 H1347 0.961 . S
C1334 H1348 0.961 . S
C1335 C1332 1.539 . S
C1335 H1349 0.958 . S
C1335 H1350 0.961 . S
C1335 H1351 0.960 . S
H1336 C1320 0.931 . S
H1337 C1325 0.929 . S
H1338 C1326 0.960 . S
H1339 C1326 0.962 . S
H1340 C1326 0.960 . S
H1341 C1327 0.961 . S
H1342 C1327 0.961 . S
H1343 C1327 0.961 . S
H1344 C1328 0.931 . S
H1345 C1333 0.930 . S
H1346 C1334 0.956 . S
H1347 C1334 0.961 . S
H1348 C1334 0.961 . S
H1349 C1335 0.958 . S
H1350 C1335 0.961 . S
H1351 C1335 0.960 . S
C1352 C1353 1.391 . S
C1352 C1354 1.394 . S
C1352 H1368 0.931 . S
C1353 C1352 1.391 . S
C1353 C1357 1.376 . S
C1354 C1352 1.394 . S
C1354 C1355 1.369 . S
C1354 C1358 1.531 . S
C1355 C1354 1.369 . S
C1355 C1356 1.410 . S
C1355 C1363 1.503 . S
C1356 C1355 1.410 . S
C1356 C1357 1.392 . S
C1356 C1359 1.511 . S
C1357 C1353 1.376 . S
C1357 C1356 1.392 . S
C1357 H1369 0.929 . S
C1358 C1354 1.531 . S
C1358 H1370 0.960 . S
C1358 H1371 0.962 . S
C1358 H1372 0.960 . S
C1359 C1356 1.511 . S
C1359 H1373 0.961 . S
C1359 H1374 0.961 . S
C1359 H1375 0.961 . S
C1360 C1361 1.370 . S
C1360 C1362 1.363 . S
C1360 H1376 0.931 . S
C1361 C1360 1.370 . S
C1361 C1365 1.408 1_554 S
C1362 C1360 1.363 . S
C1362 C1363 1.370 1_554 S
C1362 C1366 1.524 . S
C1363 C1355 1.503 . S
C1363 C1362 1.370 1_556 S
C1363 C1364 1.403 . S
C1364 C1363 1.403 . S
C1364 C1365 1.404 . S
C1364 C1367 1.539 . S
C1365 C1361 1.408 1_556 S
C1365 C1364 1.404 . S
C1365 H1377 0.930 . S
C1366 C1362 1.524 . S
C1366 H1378 0.956 . S
C1366 H1379 0.961 . S
C1366 H1380 0.961 . S
C1367 C1364 1.539 . S
C1367 H1381 0.958 . S
C1367 H1382 0.961 . S
C1367 H1383 0.960 . S
H1368 C1352 0.931 . S
H1369 C1357 0.929 . S
H1370 C1358 0.960 . S
H1371 C1358 0.962 . S
H1372 C1358 0.960 . S
H1373 C1359 0.961 . S
H1374 C1359 0.961 . S
H1375 C1359 0.961 . S
H1376 C1360 0.931 . S
H1377 C1365 0.930 . S
H1378 C1366 0.956 . S
H1379 C1366 0.961 . S
H1380 C1366 0.961 . S
H1381 C1367 0.958 . S
H1382 C1367 0.961 . S
H1383 C1367 0.960 . S
C1384 C1385 1.391 . S
C1384 C1386 1.394 . S
C1384 H1400 0.931 . S
C1385 C1384 1.391 . S
C1385 C1389 1.376 . S
C1386 C1384 1.394 . S
C1386 C1387 1.369 . S
C1386 C1390 1.531 . S
C1387 C1386 1.369 . S
C1387 C1388 1.410 . S
C1387 C1395 1.503 . S
C1388 C1387 1.410 . S
C1388 C1389 1.392 . S
C1388 C1391 1.511 . S
C1389 C1385 1.376 . S
C1389 C1388 1.392 . S
C1389 H1401 0.929 . S
C1390 C1386 1.531 . S
C1390 H1402 0.960 1_554 S
C1390 H1403 0.962 . S
C1390 H1404 0.960 1_554 S
C1391 C1388 1.511 . S
C1391 H1405 0.961 . S
C1391 H1406 0.961 . S
C1391 H1407 0.961 . S
C1392 C1393 1.370 1_554 S
C1392 C1394 1.363 . S
C1392 H1408 0.931 . S
C1393 C1392 1.370 1_556 S
C1393 C1397 1.408 . S
C1394 C1392 1.363 . S
C1394 C1395 1.370 . S
C1394 C1398 1.524 . S
C1395 C1387 1.503 . S
C1395 C1394 1.370 . S
C1395 C1396 1.403 1_554 S
C1396 C1395 1.403 1_556 S
C1396 C1397 1.404 . S
C1396 C1399 1.539 . S
C1397 C1393 1.408 . S
C1397 C1396 1.404 . S
C1397 H1409 0.930 . S
C1398 C1394 1.524 . S
C1398 H1410 0.956 . S
C1398 H1411 0.961 . S
C1398 H1412 0.961 . S
C1399 C1396 1.539 . S
C1399 H1413 0.958 . S
C1399 H1414 0.961 . S
C1399 H1415 0.960 . S
H1400 C1384 0.931 . S
H1401 C1389 0.929 . S
H1402 C1390 0.960 1_556 S
H1403 C1390 0.962 . S
H1404 C1390 0.960 1_556 S
H1405 C1391 0.961 . S
H1406 C1391 0.961 . S
H1407 C1391 0.961 . S
H1408 C1392 0.931 . S
H1409 C1397 0.930 . S
H1410 C1398 0.956 . S
H1411 C1398 0.961 . S
H1412 C1398 0.961 . S
H1413 C1399 0.958 . S
H1414 C1399 0.961 . S
H1415 C1399 0.960 . S
C265 C10 1.455 . S
C273 C21 1.464 . S
C297 C30 1.419 1_556 S
C305 C29 1.474 . S
C329 C65 1.482 . S
C337 C54 1.439 . S
C361 C74 1.444 . S
C369 C73 1.462 . S
C393 C103 1.466 . S
C401 C106 1.451 . S
C425 C118 1.462 . S
C433 C117 1.467 . S
C457 C140 1.421 . S
C465 C139 1.462 . S
C489 C161 1.458 . S
C497 C162 1.450 . S
C521 C183 1.462 . S
C529 C184 1.427 . S
C553 C205 1.478 . S
C561 C206 1.432 . S
C585 C228 1.427 . S
C593 C227 1.461 . S
C617 C249 1.456 . S
C625 C250 1.427 . S
C649 C8 1.439 1_556 S
C657 C172 1.431 . S
C681 C194 1.429 . S
C689 C40 1.431 . S
C713 C216 1.428 . S
C721 C52 1.447 . S
C745 C84 1.443 . S
C753 C238 1.431 . S
C777 C98 1.426 . S
C785 C260 1.432 . S
C809 C128 1.438 . S
C817 C150 1.430 . S
C841 C18 1.127 . S
C849 C230 1.138 . S
C873 C32 1.156 . S
C881 C252 1.142 . S
C905 C142 1.130 . S
C913 C62 1.127 . S
C937 C76 1.152 . S
C945 C164 1.144 . S
C969 C96 1.125 . S
C977 C186 1.125 . S
C1001 C208 1.105 . S
C1009 C120 1.126 . S
C1033 C15 1.136 . S
C1041 C197 1.136 . S
C1065 C219 1.133 . S
C1073 C43 1.136 . S
C1097 C241 1.120 . S
C1105 C59 1.140 . S
C1129 C87 1.146 . S
C1137 C263 1.130 . S
C1161 C153 1.145 . S
C1169 C95 1.130 . S
C1193 C131 1.118 . S
C1201 C175 1.140 . S
C1225 C7 1.319 . S
C1233 C235 1.333 . S
C1257 C37 1.341 . S
C1265 C257 1.366 . S
C1289 C51 1.351 . S
C1297 C147 1.367 . S
C1321 C169 1.374 . S
C1329 C81 1.367 . S
C1353 C109 1.328 . S
C1361 C191 1.362 . S
C1385 C213 1.342 . S
C1393 C125 1.332 . S
