# Generated by pormake.
# Topology acs-f, (3)-cn, num edge types: 1
# Building blocks:
#     Node 0, Type 0, BuildingBlock: WUSLED_clean_sbu_0, # of connection points: 3
#     Node 1, Type 0, BuildingBlock: WUSLED_clean_sbu_0, # of connection points: 3
#     Node 2, Type 0, BuildingBlock: WUSLED_clean_sbu_0, # of connection points: 3
#     Node 3, Type 0, BuildingBlock: WUSLED_clean_sbu_0, # of connection points: 3
#     Node 4, Type 0, BuildingBlock: WUSLED_clean_sbu_0, # of connection points: 3
#     Node 5, Type 0, BuildingBlock: WUSLED_clean_sbu_0, # of connection points: 3
#     Node 6, Type 0, BuildingBlock: WUSLED_clean_sbu_0, # of connection points: 3
#     Node 7, Type 0, BuildingBlock: WUSLED_clean_sbu_0, # of connection points: 3
#     Node 8, Type 0, BuildingBlock: WUSLED_clean_sbu_0, # of connection points: 3
#     Node 9, Type 0, BuildingBlock: WUSLED_clean_sbu_0, # of connection points: 3
#     Node 10, Type 0, BuildingBlock: WUSLED_clean_sbu_0, # of connection points: 3
#     Node 11, Type 0, BuildingBlock: WUSLED_clean_sbu_0, # of connection points: 3
#     Edge 12, Type (0, 0), BuildingBlock: EZIPEK_clean_linker_0, # of connection points: 2
#     Edge 13, Type (0, 0), BuildingBlock: EZIPEK_clean_linker_0, # of connection points: 2
#     Edge 14, Type (0, 0), BuildingBlock: EZIPEK_clean_linker_0, # of connection points: 2
#     Edge 15, Type (0, 0), BuildingBlock: EZIPEK_clean_linker_0, # of connection points: 2
#     Edge 16, Type (0, 0), BuildingBlock: EZIPEK_clean_linker_0, # of connection points: 2
#     Edge 17, Type (0, 0), BuildingBlock: EZIPEK_clean_linker_0, # of connection points: 2
#     Edge 18, Type (0, 0), BuildingBlock: EZIPEK_clean_linker_0, # of connection points: 2
#     Edge 19, Type (0, 0), BuildingBlock: EZIPEK_clean_linker_0, # of connection points: 2
#     Edge 20, Type (0, 0), BuildingBlock: EZIPEK_clean_linker_0, # of connection points: 2
#     Edge 21, Type (0, 0), BuildingBlock: EZIPEK_clean_linker_0, # of connection points: 2
#     Edge 22, Type (0, 0), BuildingBlock: EZIPEK_clean_linker_0, # of connection points: 2
#     Edge 23, Type (0, 0), BuildingBlock: EZIPEK_clean_linker_0, # of connection points: 2
#     Edge 24, Type (0, 0), BuildingBlock: EZIPEK_clean_linker_0, # of connection points: 2
#     Edge 25, Type (0, 0), BuildingBlock: EZIPEK_clean_linker_0, # of connection points: 2
#     Edge 26, Type (0, 0), BuildingBlock: EZIPEK_clean_linker_0, # of connection points: 2
#     Edge 27, Type (0, 0), BuildingBlock: EZIPEK_clean_linker_0, # of connection points: 2
#     Edge 28, Type (0, 0), BuildingBlock: EZIPEK_clean_linker_0, # of connection points: 2
#     Edge 29, Type (0, 0), BuildingBlock: EZIPEK_clean_linker_0, # of connection points: 2
# Relax obj value: 0.266
# Max RMSD: 0.159
# Mean RMSD: 0.148
data_MOF--net-acs-f--node1-WUSLED_clean_sbu_0--edge1-EZIPEK_clean_linker_0
_symmetry_space_group_name_H-M    P1
_symmetry_Int_Tables_number       1
_symmetry_cell_setting            triclinic
loop_
_symmetry_equiv_pos_as_xyz
'x, y, z'
_cell_length_a     43.294889
_cell_length_b     43.267242
_cell_length_c     53.494731
_cell_angle_alpha  89.799334
_cell_angle_beta   89.719157
_cell_angle_gamma 114.76649
loop_
_atom_site_label
_atom_site_type_symbol
_atom_site_fract_x
_atom_site_fract_y
_atom_site_fract_z
_atom_type_partial_charge
C0 C 0.11569 0.35687 0.18541 0.0
C1 C 0.10258 0.35362 0.20985 0.0
C2 C 0.14916 0.34122 0.22532 0.0
C3 C 0.11903 0.34545 0.22968 0.0
C4 C 0.1611 0.34293 0.20071 0.0
C5 C 0.14444 0.35056 0.18095 0.0
U6 U 0.05629 0.39358 0.15628 0.0
O7 O 0.07277 0.43765 0.13064 0.0
O8 O 0.0355 0.38742 0.11805 0.0
C9 C 0.05437 0.41942 0.11211 0.0
C10 C 0.10247 0.37018 0.16463 0.0
C11 C 0.04217 0.4364 0.09309 0.0
C12 C 0.05136 0.46318 0.0521 0.0
C13 C 0.06099 0.44675 0.07097 0.0
C14 C 1.00431 0.46053 0.07745 0.0
C15 C 0.02102 0.46808 0.05368 0.0
C16 C 0.01423 0.4442 0.09659 0.0
C17 C 0.98991 0.4009 0.20434 0.0
C18 C 0.97336 0.44474 0.21885 0.0
C19 C 0.9472 0.38827 0.23715 0.0
C20 C 0.96637 0.3777 0.22105 0.0
C21 C 0.95267 0.42257 0.23745 0.0
C22 C 0.99175 0.43394 0.20227 0.0
C23 C 0.01664 0.39219 0.19382 0.0
O24 O 0.07174 0.35097 0.15659 0.0
O25 O 0.1084 0.40243 0.16632 0.0
O26 O 0.04654 0.41743 0.18956 0.0
O27 O 0.0081 0.36753 0.17737 0.0
H28 H 0.0805 0.35862 0.2137 0.0
H29 H 0.10942 0.34429 0.24856 0.0
H30 H 0.18421 0.33977 0.19691 0.0
H31 H 0.15494 0.35302 0.16224 0.0
H32 H 0.06892 0.47281 0.03664 0.0
H33 H 0.08387 0.44269 0.06839 0.0
H34 H 0.98436 0.468 0.08239 0.0
H35 H 1.00047 0.43828 0.11421 0.0
H36 H 0.97715 0.47113 0.21831 0.0
H37 H 0.93035 0.37044 0.25072 0.0
H38 H 0.96461 0.35207 0.22294 0.0
H39 H 0.00936 0.45217 0.18928 0.0
C40 C 0.655 0.72133 0.19264 0.0
C41 C 0.65887 0.71098 0.21691 0.0
C42 C 0.66944 0.76738 0.2327 0.0
C43 C 0.66645 0.73405 0.23682 0.0
C44 C 0.6671 0.77788 0.20822 0.0
C45 C 0.66008 0.7551 0.1884 0.0
U46 U 0.62103 0.632 0.16194 0.0
O47 O 0.57633 0.61068 0.13752 0.0
O48 O 0.62704 0.61962 0.12258 0.0
C49 C 0.59454 0.61013 0.11793 0.0
C50 C 0.64211 0.69714 0.17184 0.0
C51 C 0.57799 0.58563 0.09779 0.0
C52 C 0.56161 0.57802 0.05401 0.0
C53 C 0.58002 0.5988 0.07353 0.0
C54 C 0.53938 0.52986 0.08248 0.0
C55 C 0.54076 0.54354 0.05836 0.0
C56 C 0.55783 0.55086 0.10218 0.0
C57 C 0.61524 0.55597 0.20514 0.0
C58 C 0.57264 0.5035 0.22256 0.0
C59 C 0.63241 0.51644 0.22719 0.0
C60 C 0.64087 0.54681 0.21383 0.0
C61 C 0.59824 0.49561 0.23285 0.0
C62 C 0.58101 0.53324 0.20864 0.0
C63 C 0.6244 0.5915 0.19737 0.0
O64 O 0.6622 0.68399 0.16276 0.0
O65 O 0.61033 0.67491 0.17407 0.0
O66 O 0.59932 0.60089 0.19521 0.0
O67 O 0.64856 0.60527 0.18047 0.0
H68 H 0.6548 0.68491 0.22059 0.0
H69 H 0.66814 0.72544 0.2556 0.0
H70 H 0.66932 0.80339 0.20461 0.0
H71 H 0.6571 0.76349 0.16982 0.0
H72 H 0.56297 0.58903 0.03559 0.0
H73 H 0.59512 0.62562 0.06981 0.0
H74 H 0.52349 0.50322 0.08612 0.0
H75 H 0.55575 0.54022 0.1208 0.0
H76 H 0.54606 0.4873 0.22621 0.0
H77 H 0.6525 0.5103 0.23444 0.0
H78 H 0.66745 0.56402 0.21151 0.0
H79 H 0.56062 0.53935 0.20202 0.0
C80 C 0.27167 0.91032 0.19221 0.0
C81 C 0.28245 0.90523 0.21605 0.0
C82 C 0.22355 0.8762 0.22992 0.0
C83 C 0.2585 0.88813 0.23474 0.0
C84 C 0.21291 0.88325 0.20672 0.0
C85 C 0.23681 0.9001 0.18799 0.0
U86 U 0.35854 0.96517 0.16119 0.0
O87 O 0.38681 0.94621 0.13574 0.0
O88 O 0.37037 0.98535 0.12265 0.0
C89 C 0.38489 0.96496 0.11695 0.0
C90 C 0.29551 0.92197 0.17074 0.0
C91 C 0.41159 0.97542 0.09748 0.0
C92 C 0.42788 0.96511 0.05595 0.0
C93 C 0.40406 0.9569 0.07533 0.0
C94 C 0.46812 0.00987 0.08088 0.0
C95 C 0.45965 0.99381 0.05707 0.0
C96 C 0.44416 1.00136 0.10054 0.0
C97 C 0.42394 0.0276 0.2091 0.0
C98 C 0.48518 0.05962 0.2071 0.0
C99 C 0.45609 0.04593 0.24727 0.0
C100 C 0.42506 0.03059 0.23516 0.0
C101 C 0.48638 0.05879 0.23338 0.0
C102 C 0.4539 0.0434 0.19491 0.0
C103 C 0.39197 1.0033 0.19852 0.0
O104 O 0.30351 0.95291 0.16215 0.0
O105 O 0.32156 0.91394 0.17161 0.0
O106 O 0.38992 0.97255 0.19451 0.0
O107 O 0.37671 0.0139 0.18153 0.0
H108 H 0.30921 0.91301 0.21986 0.0
H109 H 0.26714 0.88293 0.25258 0.0
H110 H 0.18605 0.87414 0.20269 0.0
H111 H 0.22795 0.90369 0.16977 0.0
H112 H 0.42099 0.94774 0.04043 0.0
H113 H 0.37965 0.93539 0.07309 0.0
H114 H 0.49326 0.02815 0.08541 0.0
H115 H 0.45128 0.01464 0.11819 0.0
H116 H 0.50851 0.06943 0.19621 0.0
H117 H 0.45661 0.04513 0.26751 0.0
H118 H 0.40208 0.01855 0.24632 0.0
H119 H 0.45337 0.04119 0.17474 0.0
C120 C 0.65454 0.89881 0.34722 0.0
C121 C 0.6405 0.8967 0.32327 0.0
C122 C 0.66953 0.86242 0.30899 0.0
C123 C 0.64784 0.87847 0.30433 0.0
C124 C 0.68545 0.86663 0.33229 0.0
C125 C 0.67795 0.88466 0.35127 0.0
U126 U 0.62029 0.95833 0.3791 0.0
O127 O 0.57568 0.94252 0.40401 0.0
O128 O 0.6263 0.97652 0.41812 0.0
C129 C 0.59376 0.95922 0.4232 0.0
C130 C 0.64178 0.91124 0.3689 0.0
C131 C 0.57744 0.97285 0.44173 0.0
C132 C 0.56057 0.97256 0.4852 0.0
C133 C 0.57889 0.96434 0.46689 0.0
C134 C 0.53965 0.99916 0.45363 0.0
C135 C 0.54046 0.9896 0.47872 0.0
C136 C 0.55799 0.99071 0.43514 0.0
C137 C 0.61493 0.02779 0.33379 0.0
C138 C 0.56915 0.04324 0.32257 0.0
C139 C 0.62161 0.06543 0.29844 0.0
C140 C 0.63515 0.04896 0.31461 0.0
C141 C 0.58765 0.0604 0.30135 0.0
C142 C 0.58276 0.02698 0.33882 0.0
C143 C 0.62391 1.00065 0.34293 0.0
O144 O 0.66176 0.94112 0.37802 0.0
O145 O 0.60974 0.90626 0.36786 0.0
O146 O 0.59855 0.97048 0.34581 0.0
O147 O 0.64775 0.00793 0.35992 0.0
H148 H 0.62249 0.90754 0.31959 0.0
H149 H 0.63529 0.87542 0.28644 0.0
H150 H 0.70212 0.8543 0.33623 0.0
H151 H 0.68903 0.88596 0.36957 0.0
H152 H 0.56145 0.96493 0.5044 0.0
H153 H 0.59345 0.95026 0.4723 0.0
H154 H 0.52427 0.01241 0.44834 0.0
H155 H 0.55635 0.99733 0.4158 0.0
H156 H 0.54292 0.03939 0.32506 0.0
H157 H 0.63609 0.07851 0.28207 0.0
H158 H 0.65997 0.04972 0.31041 0.0
H159 H 0.56683 0.01092 0.35361 0.0
C160 C 0.10141 0.74151 0.3455 0.0
C161 C 0.08795 0.73429 0.32126 0.0
C162 C 0.13376 0.78657 0.30567 0.0
C163 C 0.10385 0.75693 0.30147 0.0
C164 C 0.14635 0.79405 0.33006 0.0
C165 C 0.13026 0.77178 0.34978 0.0
U166 U 0.04487 0.65326 0.37361 0.0
O167 O 0.06243 0.62455 0.39964 0.0
O168 O 0.0219 0.63987 0.41139 0.0
C169 C 0.04236 0.62573 0.41777 0.0
C170 C 0.0882 0.7169 0.36626 0.0
C171 C 0.03189 0.59916 0.43731 0.0
C172 C 0.03986 0.58463 0.48001 0.0
C173 C 0.04638 0.60874 0.46101 0.0
C174 C 1.00308 0.54067 0.45218 0.0
C175 C 0.01829 0.55039 0.4758 0.0
C176 C 0.01002 0.56495 0.43291 0.0
C177 C 0.98716 0.58891 0.32302 0.0
C178 C 0.94741 0.52943 0.32467 0.0
C179 C 0.97389 0.55526 0.28527 0.0
C180 C 0.99051 0.58634 0.29716 0.0
C181 C 0.95345 0.52633 0.29912 0.0
C182 C 0.96464 0.56068 0.33673 0.0
C183 C 0.01018 0.62076 0.33464 0.0
O184 O 0.05645 0.70805 0.37325 0.0
O185 O 0.09662 0.69112 0.36526 0.0
O186 O 0.04075 0.62326 0.33988 0.0
O187 O 0.99791 0.6351 0.35123 0.0
H188 H 0.06586 0.71084 0.31754 0.0
H189 H 0.09376 0.75067 0.28276 0.0
H190 H 0.16932 0.81669 0.33372 0.0
H191 H 0.14108 0.77767 0.36831 0.0
H192 H 0.05187 0.59263 0.49801 0.0
H193 H 0.06345 0.63499 0.4647 0.0
H194 H 0.98645 0.51428 0.44858 0.0
H195 H 0.99879 0.55704 0.41467 0.0
H196 H 0.93175 0.50714 0.33556 0.0
H197 H 0.9789 0.55329 0.2656 0.0
H198 H 0.00767 0.60803 0.28634 0.0
H199 H 0.96175 0.56233 0.35674 0.0
C200 C 0.29241 0.35462 0.33931 0.0
C201 C 0.30227 0.36687 0.31481 0.0
C202 C 0.24339 0.33895 0.30132 0.0
C203 C 0.27785 0.35918 0.29597 0.0
C204 C 0.23401 0.32453 0.32523 0.0
C205 C 0.25837 0.3324 0.3441 0.0
U206 U 0.38047 0.39072 0.3714 0.0
O207 O 0.39952 0.43641 0.39499 0.0
O208 O 0.39417 0.38715 0.41075 0.0
C209 C 0.40179 0.41953 0.41484 0.0
C210 C 0.31557 0.36859 0.36066 0.0
C211 C 0.42649 0.43826 0.43432 0.0
C212 C 0.44047 0.47962 0.46788 0.0
C213 C 0.41978 0.46239 0.44802 0.0
C214 C 0.47537 0.44889 0.46091 0.0
C215 C 0.46836 0.47304 0.47456 0.0
C216 C 0.45453 0.43156 0.44081 0.0
C217 C 0.4535 0.39108 0.32592 0.0
C218 C 0.51405 0.42472 0.32068 0.0
C219 C 0.48425 0.37867 0.29227 0.0
C220 C 0.45416 0.37144 0.30547 0.0
C221 C 0.51535 0.40516 0.29969 0.0
C222 C 0.48363 0.41767 0.33366 0.0
C223 C 0.42003 0.38562 0.336 0.0
O224 O 0.32854 0.34913 0.37104 0.0
O225 O 0.33752 0.4005 0.35838 0.0
O226 O 0.41328 0.41237 0.33863 0.0
O227 O 0.40624 0.36211 0.35331 0.0
H228 H 0.32841 0.38396 0.31059 0.0
H229 H 0.28551 0.37058 0.27761 0.0
H230 H 0.20753 0.30904 0.3297 0.0
H231 H 0.25023 0.32275 0.36284 0.0
H232 H 0.43444 0.49784 0.47829 0.0
H233 H 0.39797 0.46754 0.44358 0.0
H234 H 0.49679 0.44341 0.46591 0.0
H235 H 0.46003 0.41284 0.43062 0.0
H236 H 0.53596 0.44696 0.32658 0.0
H237 H 0.48161 0.36405 0.27562 0.0
H238 H 0.43078 0.35138 0.29877 0.0
H239 H 0.48344 0.43385 0.34902 0.0
C240 C 0.90678 0.66665 0.84338 0.0
C241 C 0.90653 0.65547 0.81869 0.0
C242 C 0.86892 0.68176 0.80637 0.0
C243 C 0.88759 0.66291 0.80031 0.0
C244 C 0.87123 0.69495 0.83055 0.0
C245 C 0.88991 0.68733 0.84892 0.0
U246 U 0.9648 0.62848 0.87334 0.0
O247 O 0.94728 0.58422 0.89882 0.0
O248 O 0.98464 0.63416 0.91183 0.0
C249 C 0.96553 0.60214 0.91752 0.0
C250 C 0.91985 0.65322 0.86428 0.0
C251 C 0.97758 0.58484 0.93639 0.0
C252 C 0.9699 0.56062 0.97817 0.0
C253 C 0.96079 0.5776 0.95942 0.0
C254 C 0.01237 0.55655 0.95099 0.0
C255 C 0.99804 0.55218 0.97554 0.0
C256 C 1.00286 0.57336 0.93191 0.0
C257 C 0.03042 0.61555 0.82916 0.0
C258 C 0.04208 0.56687 0.81943 0.0
C259 C 0.07371 0.62077 0.79832 0.0
C260 C 0.05616 0.6355 0.81237 0.0
C261 C 0.0647 0.58574 0.8005 0.0
C262 C 0.02514 0.58175 0.83386 0.0
C263 C 1.00495 0.62787 0.83675 0.0
O264 O 0.91317 0.62074 0.86308 0.0
O265 O 0.95066 0.67209 0.87238 0.0
O266 O 0.01391 0.65272 0.85307 0.0
O267 O 0.97379 0.60442 0.83999 0.0
H268 H 0.9194 0.63952 0.81394 0.0
H269 H 0.88614 0.65257 0.78171 0.0
H270 H 0.85688 0.70939 0.83558 0.0
H271 H 0.88963 0.69604 0.86785 0.0
H272 H 0.95334 0.55327 0.99428 0.0
H273 H 0.93969 0.58438 0.96279 0.0
H274 H 0.02992 0.54606 0.94553 0.0
H275 H 0.01474 0.5767 0.91362 0.0
H276 H 0.03544 0.53991 0.82163 0.0
H277 H 0.09142 0.63568 0.78393 0.0
H278 H 0.06057 0.66163 0.80852 0.0
H279 H 1.00575 0.566 0.84699 0.0
C280 C 0.34506 0.29198 0.83626 0.0
C281 C 0.36152 0.29894 0.81281 0.0
C282 C 0.33058 0.23958 0.80085 0.0
C283 C 0.35436 0.27286 0.79527 0.0
C284 C 0.31222 0.23329 0.8234 0.0
C285 C 0.31957 0.25925 0.84101 0.0
U286 U 0.37976 0.37892 0.87299 0.0
O287 O 0.42355 0.39464 0.89821 0.0
O288 O 0.37305 0.38531 0.91335 0.0
C289 C 0.40538 0.394 0.9181 0.0
C290 C 0.35807 0.31569 0.85753 0.0
C291 C 0.42184 0.41959 0.9376 0.0
C292 C 0.43914 0.42931 0.9811 0.0
C293 C 0.42044 0.40757 0.96214 0.0
C294 C 0.46032 0.47624 0.95152 0.0
C295 C 0.45965 0.46364 0.97592 0.0
C296 C 0.44154 0.45427 0.93237 0.0
C297 C 0.379 0.45292 0.82649 0.0
C298 C 0.38983 0.51235 0.82175 0.0
C299 C 0.39608 0.48063 0.78624 0.0
C300 C 0.38557 0.45136 0.80099 0.0
C301 C 0.40052 0.51168 0.79703 0.0
C302 C 0.37909 0.4829 0.83651 0.0
C303 C 0.37928 0.42626 0.84322 0.0
O304 O 0.38995 0.33801 0.85621 0.0
O305 O 0.33787 0.32765 0.86812 0.0
O306 O 0.35394 0.40979 0.8587 0.0
O307 O 0.40479 0.41731 0.84355 0.0
H308 H 0.38126 0.32394 0.8086 0.0
H309 H 0.36856 0.27826 0.77785 0.0
H310 H 0.29376 0.20781 0.82801 0.0
H311 H 0.30677 0.25317 0.85901 0.0
H312 H 0.43831 0.41913 0.99975 0.0
H313 H 0.40567 0.38088 0.96649 0.0
H314 H 0.47593 0.50277 0.94724 0.0
H315 H 0.44311 0.46407 0.91352 0.0
H316 H 0.39344 0.53626 0.83033 0.0
H317 H 0.40427 0.47982 0.76717 0.0
H318 H 0.38543 0.42832 0.793 0.0
H319 H 0.37426 0.48446 0.85625 0.0
C320 C 0.74443 0.09259 0.83929 0.0
C321 C 0.73596 0.10425 0.81686 0.0
C322 C 0.79525 0.12784 0.80345 0.0
C323 C 0.76125 0.12188 0.79914 0.0
C324 C 0.80324 0.11391 0.82488 0.0
C325 C 0.77806 0.09667 0.84274 0.0
U326 U 0.65664 0.03962 0.87071 0.0
O327 O 0.63078 0.05935 0.89765 0.0
O328 O 0.64553 0.01836 0.909 0.0
C329 C 0.63226 0.03943 0.91576 0.0
C330 C 0.72025 0.08069 0.86061 0.0
C331 C 0.60581 0.02889 0.93541 0.0
C332 C 0.59159 0.03676 0.97813 0.0
C333 C 0.61514 0.04444 0.95863 0.0
C334 C 0.54812 0.99835 0.95138 0.0
C335 C 0.558 0.01114 0.976 0.0
C336 C 0.57184 0.00646 0.93155 0.0
C337 C 0.5851 0.97917 0.82656 0.0
C338 C 0.52643 0.96948 0.82007 0.0
C339 C 0.55197 0.9403 0.79429 0.0
C340 C 0.58213 0.95562 0.80772 0.0
C341 C 0.52482 0.94896 0.79944 0.0
C342 C 0.55646 0.98449 0.83369 0.0
C343 C 0.61942 1.00268 0.8342 0.0
O344 O 0.69518 0.09022 0.8605 0.0
O345 O 0.71099 0.04921 0.86847 0.0
O346 O 0.63583 0.99133 0.8497 0.0
O347 O 0.62415 0.03428 0.8384 0.0
H348 H 0.71018 0.10121 0.81355 0.0
H349 H 0.75453 0.13204 0.78254 0.0
H350 H 0.82929 0.11805 0.82841 0.0
H351 H 0.78522 0.08797 0.85985 0.0
H352 H 0.60031 0.05254 0.9944 0.0
H353 H 0.64081 0.06354 0.96158 0.0
H354 H 0.52203 0.98317 0.94651 0.0
H355 H 0.5635 0.9958 0.9132 0.0
H356 H 0.50548 0.97615 0.82428 0.0
H357 H 0.55105 0.9246 0.77833 0.0
H358 H 0.60406 0.95138 0.80191 0.0
H359 H 0.55817 1.00242 0.84828 0.0
C360 C 0.35136 0.10454 0.69219 0.0
C361 C 0.3332 0.08739 0.71359 0.0
C362 C 0.33392 0.14068 0.72943 0.0
C363 C 0.32432 0.10539 0.73208 0.0
C364 C 0.35117 0.15725 0.70768 0.0
C365 C 0.35969 0.13937 0.68929 0.0
U366 U 0.38234 0.04179 0.65603 0.0
O367 O 0.37347 0.02901 0.61595 0.0
O368 O 0.42437 0.06312 0.62901 0.0
C369 C 0.40563 0.04686 0.61 0.0
C370 C 0.36272 0.08808 0.67226 0.0
C371 C 0.42153 0.03186 0.59214 0.0
C372 C 0.43845 0.02946 0.54906 0.0
C373 C 0.41996 0.03864 0.56666 0.0
C374 C 0.45963 0.00512 0.58203 0.0
C375 C 0.45886 0.01317 0.55659 0.0
C376 C 0.44108 0.01448 0.59977 0.0
C377 C 0.38514 0.97163 0.70462 0.0
C378 C 0.40318 0.92745 0.71588 0.0
C379 C 0.40672 0.97051 0.74606 0.0
C380 C 0.3922 0.98479 0.72887 0.0
C381 C 0.41478 0.94357 0.7388 0.0
C382 C 0.38818 0.94141 0.69886 0.0
C383 C 0.38505 0.99335 0.68367 0.0
O384 O 0.39435 0.09167 0.67307 0.0
O385 O 0.34139 0.05855 0.66336 0.0
O386 O 0.35719 0.98921 0.67162 0.0
O387 O 0.41002 0.02395 0.68205 0.0
H388 H 0.32641 0.06048 0.71616 0.0
H389 H 0.311 0.09213 0.74877 0.0
H390 H 0.35875 0.18433 0.7052 0.0
H391 H 0.37345 0.15301 0.67283 0.0
H392 H 0.43757 0.03587 0.52956 0.0
H393 H 0.40528 0.05223 0.56044 0.0
H394 H 0.47522 0.99246 0.58814 0.0
H395 H 0.4428 0.00911 0.61939 0.0
H396 H 0.40948 0.90684 0.70998 0.0
H397 H 0.41567 0.9832 0.76373 0.0
H398 H 0.39011 0.00818 0.73356 0.0
H399 H 0.38307 0.93113 0.68011 0.0
C400 C 0.9198 0.27079 0.69385 0.0
C401 C 0.93914 0.2649 0.7128 0.0
C402 C 0.88731 0.22167 0.7314 0.0
C403 C 0.92294 0.2403 0.73146 0.0
C404 C 0.86834 0.22757 0.71236 0.0
C405 C 0.88441 0.25178 0.6938 0.0
U406 U 0.97689 0.35671 0.65868 0.0
O407 O 0.99454 0.36227 0.6194 0.0
O408 O 0.95445 0.37811 0.63062 0.0
C409 C 0.97348 0.37538 0.61236 0.0
C410 C 0.9347 0.29515 0.67305 0.0
C411 C 0.98529 0.40294 0.5936 0.0
C412 C 0.98021 0.41956 0.55095 0.0
C413 C 0.97315 0.39443 0.56922 0.0
C414 C 0.01303 0.46252 0.58093 0.0
C415 C 1.00005 0.45381 0.55659 0.0
C416 C 1.00544 0.43719 0.59947 0.0
C417 C 0.0378 0.42413 0.70923 0.0
C418 C 0.08404 0.47887 0.71789 0.0
C419 C 0.03874 0.45229 0.74836 0.0
C420 C 0.02366 0.42427 0.7328 0.0
C421 C 0.06775 0.48055 0.74023 0.0
C422 C 0.0691 0.45054 0.70242 0.0
C423 C 0.0169 0.40041 0.69029 0.0
O424 O 0.9266 0.32116 0.67234 0.0
O425 O 0.96611 0.30271 0.66568 0.0
O426 O 0.02738 0.38117 0.67687 0.0
O427 O 0.98526 0.39595 0.68687 0.0
H428 H 0.9665 0.27918 0.7132 0.0
H429 H 0.93798 0.23612 0.7461 0.0
H430 H 0.84093 0.21352 0.71195 0.0
H431 H 0.86904 0.25567 0.67925 0.0
H432 H 0.96997 0.41231 0.53236 0.0
H433 H 0.95736 0.3682 0.56442 0.0
H434 H 0.02835 0.48888 0.58563 0.0
H435 H 0.01474 0.4443 0.6183 0.0
H436 H 0.10626 0.50071 0.71135 0.0
H437 H 0.02585 0.45341 0.76552 0.0
H438 H 0.99954 0.40399 0.73832 0.0
H439 H 0.0802 0.45081 0.68418 0.0
C440 C 0.72451 0.66715 0.69271 0.0
C441 C 0.71622 0.67464 0.7167 0.0
C442 C 0.77208 0.68206 0.73177 0.0
C443 C 0.74009 0.68246 0.7361 0.0
C444 C 0.78056 0.676 0.70752 0.0
C445 C 0.75705 0.66874 0.68821 0.0
U446 U 0.63422 0.6325 0.66236 0.0
O447 O 0.62103 0.63498 0.62276 0.0
O448 O 0.6146 0.58597 0.63961 0.0
C449 C 0.61294 0.60239 0.61933 0.0
C450 C 0.69922 0.65358 0.67266 0.0
C451 C 0.58856 0.58349 0.59974 0.0
C452 C 0.57583 0.54297 0.56571 0.0
C453 C 0.59648 0.56061 0.58546 0.0
C454 C 0.53861 0.57087 0.5739 0.0
C455 C 0.54678 0.54791 0.55968 0.0
C456 C 0.55939 0.58857 0.59393 0.0
C457 C 0.55753 0.6289 0.70364 0.0
C458 C 0.50241 0.58451 0.71464 0.0
C459 C 0.52066 0.64057 0.73288 0.0
C460 C 0.55073 0.65175 0.71885 0.0
C461 C 0.49763 0.60621 0.73214 0.0
C462 C 0.53221 0.59582 0.70034 0.0
C463 C 0.5931 0.63767 0.69656 0.0
O464 O 0.67663 0.62215 0.67596 0.0
O465 O 0.68639 0.67355 0.66289 0.0
O466 O 0.6072 0.66097 0.67914 0.0
O467 O 0.60228 0.61232 0.69553 0.0
H468 H 0.69108 0.6732 0.72062 0.0
H469 H 0.73303 0.687 0.75472 0.0
H470 H 0.80495 0.67549 0.70376 0.0
H471 H 0.7638 0.66279 0.66988 0.0
H472 H 0.58277 0.52571 0.55486 0.0
H473 H 0.61912 0.5567 0.58942 0.0
H474 H 0.51631 0.5751 0.56942 0.0
H475 H 0.55292 0.60627 0.60462 0.0
H476 H 0.48455 0.55798 0.71369 0.0
H477 H 0.51722 0.65757 0.74631 0.0
H478 H 0.57002 0.67735 0.72168 0.0
H479 H 0.53673 0.57784 0.68851 0.0
C480 C 0.2024 0.30982 0.26643 0.0
C481 C 0.21681 0.33744 0.2832 0.0
C482 C 0.1866 0.36709 0.26243 0.0
C483 C 0.17051 0.33873 0.24643 0.0
N484 N 0.15824 0.28058 0.23608 0.0
N485 N 0.21617 0.38819 0.30126 0.0
C486 C 0.17698 0.30927 0.2493 0.0
C487 C 0.20675 0.36468 0.28252 0.0
N488 N 0.21354 0.28457 0.26654 0.0
N489 N 0.18457 0.39724 0.25753 0.0
H490 H 0.23153 0.38784 0.31613 0.0
H491 H 0.20615 0.40614 0.3033 0.0
H492 H 0.17126 0.4009 0.24248 0.0
H493 H 0.19894 0.41972 0.26692 0.0
H494 H 0.20683 0.26559 0.25308 0.0
H495 H 0.23135 0.28384 0.27933 0.0
H496 H 0.15949 0.25731 0.23886 0.0
H497 H 0.13915 0.27926 0.22373 0.0
C498 C 0.70029 0.8222 0.25637 0.0
C499 C 0.67148 0.79048 0.25394 0.0
C500 C 0.64519 0.80404 0.29055 0.0
C501 C 0.67164 0.8374 0.2908 0.0
N502 N 0.7235 0.87958 0.27319 0.0
N503 N 0.61361 0.754 0.26607 0.0
C504 C 0.69908 0.84686 0.27353 0.0
C505 C 0.64324 0.78199 0.27045 0.0
N506 N 0.72902 0.82834 0.24266 0.0
N507 N 0.62206 0.79319 0.30974 0.0
H508 H 0.61029 0.73763 0.25108 0.0
H509 H 0.59112 0.74884 0.27588 0.0
H510 H 0.62222 0.80868 0.32467 0.0
H511 H 0.60475 0.76789 0.31203 0.0
H512 H 0.75192 0.84958 0.24511 0.0
H513 H 0.73084 0.81059 0.23028 0.0
H514 H 0.74219 0.88921 0.25938 0.0
H515 H 0.72375 0.89788 0.28594 0.0
C516 C 0.15857 0.84338 0.28334 0.0
C517 C 0.15373 0.8088 0.28456 0.0
C518 C 0.1897 0.81766 0.24722 0.0
C519 C 0.19817 0.85305 0.2481 0.0
N520 N 0.19288 0.90055 0.2678 0.0
N521 N 0.16938 0.76441 0.27003 0.0
C522 C 0.18314 0.86621 0.26637 0.0
C523 C 0.17029 0.79619 0.267 0.0
N524 N 0.13903 0.85411 0.29796 0.0
N525 N 0.19994 0.80442 0.22733 0.0
H526 H 0.15642 0.74801 0.28462 0.0
H527 H 0.18414 0.75545 0.25944 0.0
H528 H 0.21498 0.81935 0.21276 0.0
H529 H 0.19103 0.77837 0.22417 0.0
H530 H 0.13903 0.87809 0.2964 0.0
H531 H 0.12043 0.83787 0.31021 0.0
H532 H 0.1858 0.91218 0.28237 0.0
H533 H 0.20999 0.91778 0.25518 0.0
C534 C 0.82835 0.71206 0.75372 0.0
C535 C 0.79565 0.68432 0.75271 0.0
C536 C 0.80967 0.6584 0.78935 0.0
C537 C 0.84356 0.68387 0.78848 0.0
N538 N 0.88624 0.73432 0.76955 0.0
N539 N 0.75708 0.62829 0.76714 0.0
C540 C 0.85321 0.71064 0.77059 0.0
C541 C 0.78666 0.65691 0.77004 0.0
N542 N 0.83524 0.73999 0.73887 0.0
N543 N 0.79928 0.63563 0.80878 0.0
H544 H 0.73965 0.62546 0.753 0.0
H545 H 0.75114 0.60597 0.77735 0.0
H546 H 0.81558 0.63469 0.82275 0.0
H547 H 0.77388 0.61946 0.8122 0.0
H548 H 0.8574 0.76233 0.74002 0.0
H549 H 0.81742 0.74189 0.72663 0.0
H550 H 0.89601 0.75248 0.75541 0.0
H551 H 0.9046 0.73462 0.78222 0.0
C552 C 0.30687 0.20356 0.76253 0.0
C553 C 0.32749 0.21083 0.78418 0.0
C554 C 0.34903 0.16887 0.77154 0.0
C555 C 0.32849 0.1615 0.74982 0.0
N556 N 0.28342 0.16681 0.72664 0.0
N557 N 0.36217 0.19534 0.81229 0.0
C558 C 0.30596 0.17735 0.74597 0.0
C559 C 0.34648 0.1917 0.78967 0.0
N560 N 0.28857 0.22211 0.75773 0.0
N561 N 0.37275 0.15589 0.7741 0.0
H562 H 0.3627 0.21311 0.82558 0.0
H563 H 0.37242 0.17893 0.81876 0.0
H564 H 0.3758 0.13921 0.76136 0.0
H565 H 0.39135 0.16364 0.78786 0.0
H566 H 0.27559 0.22078 0.74118 0.0
H567 H 0.28747 0.24021 0.77012 0.0
H568 H 0.26449 0.17523 0.7236 0.0
H569 H 0.28194 0.1474 0.71453 0.0
C570 C 0.8529 0.1614 0.74595 0.0
C571 C 0.86886 0.19672 0.75159 0.0
C572 C 0.84174 0.18533 0.7931 0.0
C573 C 0.8227 0.15077 0.78635 0.0
N574 N 0.81124 0.10458 0.75773 0.0
N575 N 0.87721 0.24304 0.77963 0.0
C576 C 0.82875 0.13837 0.76315 0.0
C577 C 0.86344 0.2088 0.77511 0.0
N578 N 0.86111 0.15018 0.7241 0.0
N579 N 0.83909 0.19577 0.81681 0.0
H580 H 0.89355 0.26118 0.76718 0.0
H581 H 0.8708 0.25394 0.79497 0.0
H582 H 0.8219 0.18017 0.8301 0.0
H583 H 0.85559 0.21917 0.824 0.0
H584 H 0.85155 0.12486 0.71866 0.0
H585 H 0.87931 0.16642 0.7116 0.0
H586 H 0.81241 0.09357 0.74073 0.0
H587 H 0.79468 0.08703 0.77045 0.0
C588 C 0.98727 0.49984 0.03497 0.0
C589 C 0.01051 0.48481 0.03181 0.0
C590 C 0.03165 0.51989 0.99381 0.0
C591 C 0.0085 0.53503 0.99719 0.0
N592 N 0.98347 0.55318 0.03153 0.0
N593 N 0.03771 0.46759 0.99841 0.0
C594 C 0.99161 0.52906 0.02081 0.0
C595 C 0.02795 0.49106 1.00838 0.0
N596 N 0.95767 0.48338 0.04787 0.0
N597 N 0.06061 0.536 0.98009 0.0
H598 H 0.03059 0.4436 1.00658 0.0
H599 H 0.04877 0.47061 0.98066 0.0
H600 H 0.06836 0.56115 0.97409 0.0
H601 H 0.07914 0.52657 0.97863 0.0
H602 H 0.93948 0.49327 0.0493 0.0
H603 H 0.94909 0.45774 0.05278 0.0
H604 H 0.97253 0.54988 0.04935 0.0
H605 H 0.99191 0.57767 0.02398 0.0
C606 C 0.51286 0.48453 1.00178 0.0
C607 C 0.48126 0.48565 0.99618 0.0
C608 C 0.48812 0.52367 0.03186 0.0
C609 C 0.51961 0.52236 0.03757 0.0
N610 N 0.56436 0.50552 0.02676 0.0
N611 N 0.43663 0.5027 1.00688 0.0
C612 C 0.53255 0.5037 0.02225 0.0
C613 C 0.46841 0.50448 1.01141 0.0
N614 N 0.52342 0.46417 0.98793 0.0
N615 N 0.47763 0.54414 0.04564 0.0
H616 H 0.42197 0.48976 0.99168 0.0
H617 H 0.42376 0.51239 0.01872 0.0
H618 H 0.49045 0.55721 0.06145 0.0
H619 H 0.45727 0.54975 0.04091 0.0
H620 H 0.54387 0.45866 0.99257 0.0
H621 H 0.51062 0.45117 0.97209 0.0
H622 H 0.57724 0.49585 1.01492 0.0
H623 H 0.57905 0.51853 0.04193 0.0
C624 C 0.47392 0.98644 1.01117 0.0
C625 C 0.48428 1.00314 0.03458 0.0
C626 C 0.54321 0.01798 0.02195 0.0
C627 C 0.53308 1.00191 0.99834 0.0
N628 N 0.4871 0.95222 0.98163 0.0
N629 N 0.53046 0.0537 0.05012 0.0
C630 C 0.49783 0.98094 0.9957 0.0
C631 C 0.51949 0.02421 0.03698 0.0
N632 N 0.44233 0.97925 1.00209 0.0
N633 N 0.57388 0.02328 0.03189 0.0
H634 H 0.51361 0.06392 0.05581 0.0
H635 H 0.5562 0.07034 0.05105 0.0
H636 H 0.58946 0.013 0.02376 0.0
H637 H 0.58107 0.03362 0.04967 0.0
H638 H 0.43475 0.96883 0.98439 0.0
H639 H 0.4259 0.98789 1.01095 0.0
H640 H 0.46152 0.93514 0.98071 0.0
H641 H 0.5042 0.94306 0.9746 0.0
C642 C 0.46629 0.9761 0.52309 0.0
C643 C 0.48047 0.00615 0.53764 0.0
C644 C 0.53366 0.02585 0.51314 0.0
C645 C 0.5193 0.99602 0.49836 0.0
N646 N 0.47423 0.9407 0.49072 0.0
N647 N 0.52578 0.06126 0.54552 0.0
C648 C 0.48615 0.97061 0.50369 0.0
C649 C 0.51378 0.03138 0.53249 0.0
N650 N 0.43333 0.95343 0.52734 0.0
N651 N 0.56677 0.04828 0.50912 0.0
H652 H 0.5125 0.06574 0.56036 0.0
H653 H 0.548 0.08244 0.54101 0.0
H654 H 0.58161 0.04568 0.49457 0.0
H655 H 0.58038 0.06852 0.52083 0.0
H656 H 0.41976 0.93297 0.5158 0.0
H657 H 0.41861 0.95592 0.54203 0.0
H658 H 0.45213 0.91943 0.4953 0.0
H659 H 0.48749 0.93625 0.47586 0.0
C660 C 0.98808 0.50079 0.53715 0.0
C661 C 0.0064 0.48015 0.53671 0.0
C662 C 0.03111 0.50424 0.49568 0.0
C663 C 0.01282 0.52492 0.49618 0.0
N664 N 0.97734 0.54645 0.51825 0.0
N665 N 0.04376 0.46021 0.51551 0.0
C666 C 0.9923 0.52419 0.5172 0.0
C667 C 0.02755 0.48141 0.51594 0.0
N668 N 0.96503 0.4965 0.55594 0.0
N669 N 0.05329 0.50786 0.47639 0.0
H670 H 0.04418 0.44541 0.53083 0.0
H671 H 0.05592 0.45614 0.4999 0.0
H672 H 0.05653 0.52417 0.46123 0.0
H673 H 0.07001 0.49628 0.4757 0.0
H674 H 0.94792 0.50766 0.55605 0.0
H675 H 0.96118 0.47977 0.57091 0.0
H676 H 0.96614 0.55088 0.53428 0.0
H677 H 0.97758 0.56207 0.50329 0.0
C678 C 0.47627 0.48115 0.52103 0.0
C679 C 0.48928 0.49122 0.49643 0.0
C680 C 0.53876 0.53948 0.51327 0.0
C681 C 0.5259 0.52936 0.53789 0.0
N682 N 0.48158 0.49281 0.56566 0.0
N683 N 0.53434 0.52691 0.46883 0.0
C684 C 0.49436 0.50078 0.54189 0.0
C685 C 0.52098 0.51952 0.49248 0.0
N686 N 0.44738 0.4518 0.52437 0.0
N687 N 0.56715 0.56924 0.50977 0.0
H688 H 0.52134 0.51402 0.45303 0.0
H689 H 0.55908 0.5443 0.46481 0.0
H690 H 0.58053 0.58474 0.52448 0.0
H691 H 0.57618 0.5802 0.49238 0.0
H692 H 0.43775 0.44092 0.54166 0.0
H693 H 0.43381 0.43664 0.50956 0.0
H694 H 0.45714 0.47498 0.56997 0.0
H695 H 0.49494 0.50532 0.58145 0.0
C696 C 0.92074 0.48151 0.26778 0.0
C697 C 0.9445 0.49258 0.28767 0.0
C698 C 0.95869 0.44418 0.28108 0.0
C699 C 0.94058 0.43737 0.25831 0.0
N700 N 0.89842 0.44315 0.23237 0.0
N701 N 0.98988 0.48722 0.31099 0.0
C702 C 0.91927 0.45386 0.25263 0.0
C703 C 0.96391 0.47424 0.29415 0.0
N704 N 0.90092 0.49846 0.26297 0.0
N705 N 0.97152 0.42244 0.29012 0.0
H706 H 0.99599 0.50989 0.32061 0.0
H707 H 0.00765 0.47714 0.31371 0.0
H708 H 0.96858 0.40009 0.28121 0.0
H709 H 0.98163 0.42458 0.30801 0.0
H710 H 0.88336 0.49254 0.24858 0.0
H711 H 0.9015 0.51847 0.27408 0.0
H712 H 0.88275 0.45425 0.22603 0.0
H713 H 0.89635 0.42193 0.22205 0.0
C714 C 0.57776 0.44278 0.29241 0.0
C715 C 0.54762 0.41618 0.28395 0.0
C716 C 0.56645 0.43312 0.24095 0.0
C717 C 0.58818 0.46585 0.24999 0.0
N718 N 0.61756 0.50087 0.28533 0.0
N719 N 0.53258 0.37389 0.25176 0.0
C720 C 0.59579 0.47021 0.27596 0.0
C721 C 0.54716 0.40728 0.25843 0.0
N722 N 0.58924 0.44103 0.31579 0.0
N723 N 0.56405 0.42723 0.21582 0.0
H724 H 0.52476 0.35467 0.26534 0.0
H725 H 0.53235 0.36532 0.23358 0.0
H726 H 0.58002 0.44507 0.20297 0.0
H727 H 0.54602 0.40522 0.2078 0.0
H728 H 0.61273 0.45842 0.32233 0.0
H729 H 0.5763 0.41995 0.32735 0.0
H730 H 0.62076 0.5055 0.30447 0.0
H731 H 0.63067 0.52228 0.27428 0.0
C732 C 0.53379 0.09229 0.26262 0.0
C733 C 0.51813 0.06393 0.24652 0.0
C734 C 0.55487 0.03822 0.26248 0.0
C735 C 0.56865 0.0651 0.27989 0.0
N736 N 0.57692 0.12049 0.29415 0.0
N737 N 0.51358 0.0087 0.23208 0.0
C738 C 0.55993 0.09317 0.27913 0.0
C739 C 0.52903 0.03717 0.24626 0.0
N740 N 0.52243 0.1174 0.26277 0.0
N741 N 0.56513 0.01228 0.26209 0.0
H742 H 0.49298 1.00392 0.22031 0.0
H743 H 0.49298 1.00392 0.22031 0.0
H744 H 0.58365 0.01101 0.27386 0.0
H745 H 0.55541 0.99211 0.24952 0.0
H746 H 0.53006 0.13722 0.27555 0.0
H747 H 0.5043 0.11792 0.25019 0.0
H748 H 0.57356 0.14291 0.29388 0.0
H749 H 0.59633 0.12149 0.30607 0.0
C750 C 0.05516 0.55855 0.75846 0.0
C751 C 0.07406 0.56702 0.78097 0.0
C752 C 0.0971 0.52521 0.77233 0.0
C753 C 0.07492 0.51385 0.75166 0.0
N754 N 0.03336 0.51916 0.72409 0.0
N755 N 0.11943 0.56614 0.80608 0.0
C756 C 0.05484 0.53105 0.74402 0.0
C757 C 0.09727 0.55281 0.7868 0.0
N758 N 0.03725 0.57656 0.75103 0.0
N759 N 0.11639 0.50826 0.77878 0.0
H760 H 0.12011 0.58679 0.81648 0.0
H761 H 0.13866 0.55874 0.81067 0.0
H762 H 0.11732 0.48864 0.76796 0.0
H763 H 0.1307 0.51275 0.79501 0.0
H764 H 0.02661 0.57466 0.73339 0.0
H765 H 0.03482 0.59545 0.76172 0.0
H766 H 0.0142 0.52679 0.71979 0.0
H767 H 0.03344 0.50014 0.71222 0.0
C768 C 0.4376 0.58154 0.74832 0.0
C769 C 0.47262 0.59078 0.75256 0.0
C770 C 0.45959 0.55511 0.79007 0.0
C771 C 0.4244 0.54332 0.78463 0.0
N772 N 0.37891 0.54657 0.76088 0.0
N773 N 0.51746 0.59468 0.78082 0.0
C774 C 0.41306 0.55747 0.76465 0.0
C775 C 0.48372 0.5805 0.77468 0.0
N776 N 0.42829 0.59596 0.72866 0.0
N777 N 0.47013 0.5398 0.80856 0.0
H778 H 0.53645 0.61197 0.76945 0.0
H779 H 0.52651 0.59158 0.79821 0.0
H780 H 0.45361 0.52152 0.82081 0.0
H781 H 0.49527 0.54345 0.81089 0.0
H782 H 0.40336 0.59133 0.72434 0.0
H783 H 0.44618 0.61422 0.71704 0.0
H784 H 0.36823 0.554 0.74598 0.0
H785 H 0.36078 0.52968 0.77312 0.0
C786 C 0.50446 0.96553 0.7603 0.0
C787 C 0.49781 0.94261 0.78078 0.0
C788 C 0.43741 0.91486 0.77002 0.0
C789 C 0.44348 0.93987 0.7512 0.0
N790 N 0.482 0.98739 0.72652 0.0
N791 N 0.46129 0.89087 0.80176 0.0
C792 C 0.47697 0.96426 0.74542 0.0
C793 C 0.46521 0.9157 0.78456 0.0
N794 N 0.53712 0.98842 0.75514 0.0
N795 N 0.40489 0.89141 0.77457 0.0
H796 H 0.48149 0.89102 0.81241 0.0
H797 H 0.43896 0.86901 0.80439 0.0
H798 H 0.38438 0.88973 0.76361 0.0
H799 H 0.39782 0.87431 0.78948 0.0
H800 H 0.54458 1.00314 0.73896 0.0
H801 H 0.55777 0.99181 0.76646 0.0
H802 H 0.50457 0.00874 0.72326 0.0
H803 H 0.46301 0.98599 0.71408 0.0
loop_
_geom_bond_atom_site_label_1
_geom_bond_atom_site_label_2
_geom_bond_distance
_geom_bond_site_symmetry_2
_ccdc_geom_bond_type
C0 C1 1.264 . S
C0 C5 1.479 . S
C0 C10 1.465 . S
C1 C0 1.264 . S
C1 C3 1.339 . S
C1 H28 0.931 . S
C2 C3 1.395 . S
C2 C4 1.320 . S
C3 C1 1.339 . S
C3 C2 1.395 . S
C3 H29 0.929 . S
C4 C2 1.320 . S
C4 C5 1.405 . S
C4 H30 0.930 . S
C5 C0 1.479 . S
C5 C4 1.405 . S
C5 H31 0.931 . S
U6 O7 2.454 . S
U6 O8 2.458 1_455 S
U6 C9 2.984 1_455 S
U6 C10 2.847 . S
U6 C23 2.882 1_455 S
U6 O24 2.441 . S
U6 O25 2.420 . S
U6 O26 2.455 1_455 S
U6 O27 2.449 . S
O7 U6 2.454 . S
O7 C9 1.353 1_455 S
O8 U6 2.458 1_655 S
O8 C9 1.286 . S
C9 U6 2.984 1_655 S
C9 O7 1.353 1_655 S
C9 O8 1.286 . S
C9 C11 1.363 . S
C10 C0 1.465 . S
C10 U6 2.847 . S
C10 O24 1.249 . S
C10 O25 1.202 . S
C11 C9 1.363 . S
C11 C13 1.408 1_655 S
C11 C16 1.342 . S
C12 C13 1.310 1_655 S
C12 C15 1.461 . S
C12 H32 0.932 1_655 S
C13 C11 1.408 1_455 S
C13 C12 1.310 1_455 S
C13 H33 0.930 . S
C14 C15 1.474 . S
C14 C16 1.285 . S
C14 H34 0.929 . S
C15 C12 1.461 . S
C15 C14 1.474 . S
C16 C11 1.342 . S
C16 C14 1.285 . S
C16 H35 0.930 . S
C17 C20 1.424 . S
C17 C22 1.245 . S
C17 C23 1.428 . S
C18 C21 1.260 . S
C18 C22 1.477 . S
C18 H36 0.932 . S
C19 C20 1.384 . S
C19 C21 1.479 . S
C19 H37 0.929 . S
C20 C17 1.424 . S
C20 C19 1.384 . S
C20 H38 0.928 . S
C21 C18 1.260 . S
C21 C19 1.479 . S
C22 C17 1.245 . S
C22 C18 1.477 . S
C22 H39 0.932 . S
C23 U6 2.882 1_655 S
C23 C17 1.428 . S
C23 O26 1.301 . S
C23 O27 1.282 1_655 S
O24 U6 2.441 . S
O24 C10 1.249 . S
O25 U6 2.420 . S
O25 C10 1.202 . S
O26 U6 2.455 1_655 S
O26 C23 1.301 . S
O27 U6 2.449 . S
O27 C23 1.282 1_455 S
H28 C1 0.931 . S
H29 C3 0.929 . S
H30 C4 0.930 . S
H31 C5 0.931 . S
H32 C12 0.932 1_455 S
H33 C13 0.930 . S
H34 C14 0.929 . S
H35 C16 0.930 . S
H36 C18 0.932 . S
H37 C19 0.929 . S
H38 C20 0.928 . S
H39 C22 0.932 . S
C40 C41 1.264 . S
C40 C45 1.479 . S
C40 C50 1.465 . S
C41 C40 1.264 . S
C41 C43 1.339 . S
C41 H68 0.931 . S
C42 C43 1.395 . S
C42 C44 1.320 . S
C43 C41 1.339 . S
C43 C42 1.395 . S
C43 H69 0.929 . S
C44 C42 1.320 . S
C44 C45 1.405 . S
C44 H70 0.930 . S
C45 C40 1.479 . S
C45 C44 1.405 . S
C45 H71 0.931 . S
U46 O47 2.454 . S
U46 O48 2.458 . S
U46 C49 2.984 . S
U46 C50 2.847 . S
U46 C63 2.882 . S
U46 O64 2.441 . S
U46 O65 2.420 . S
U46 O66 2.455 . S
U46 O67 2.449 . S
O47 U46 2.454 . S
O47 C49 1.353 . S
O48 U46 2.458 . S
O48 C49 1.286 . S
C49 U46 2.984 . S
C49 O47 1.353 . S
C49 O48 1.286 . S
C49 C51 1.363 . S
C50 C40 1.465 . S
C50 U46 2.847 . S
C50 O64 1.249 . S
C50 O65 1.202 . S
C51 C49 1.363 . S
C51 C53 1.408 . S
C51 C56 1.342 . S
C52 C53 1.310 . S
C52 C55 1.461 . S
C52 H72 0.932 . S
C53 C51 1.408 . S
C53 C52 1.310 . S
C53 H73 0.930 . S
C54 C55 1.474 . S
C54 C56 1.285 . S
C54 H74 0.929 . S
C55 C52 1.461 . S
C55 C54 1.474 . S
C56 C51 1.342 . S
C56 C54 1.285 . S
C56 H75 0.930 . S
C57 C60 1.424 . S
C57 C62 1.245 . S
C57 C63 1.428 . S
C58 C61 1.260 . S
C58 C62 1.477 . S
C58 H76 0.932 . S
C59 C60 1.384 . S
C59 C61 1.479 . S
C59 H77 0.929 . S
C60 C57 1.424 . S
C60 C59 1.384 . S
C60 H78 0.928 . S
C61 C58 1.260 . S
C61 C59 1.479 . S
C62 C57 1.245 . S
C62 C58 1.477 . S
C62 H79 0.932 . S
C63 U46 2.882 . S
C63 C57 1.428 . S
C63 O66 1.301 . S
C63 O67 1.282 . S
O64 U46 2.441 . S
O64 C50 1.249 . S
O65 U46 2.420 . S
O65 C50 1.202 . S
O66 U46 2.455 . S
O66 C63 1.301 . S
O67 U46 2.449 . S
O67 C63 1.282 . S
H68 C41 0.931 . S
H69 C43 0.929 . S
H70 C44 0.930 . S
H71 C45 0.931 . S
H72 C52 0.932 . S
H73 C53 0.930 . S
H74 C54 0.929 . S
H75 C56 0.930 . S
H76 C58 0.932 . S
H77 C59 0.929 . S
H78 C60 0.928 . S
H79 C62 0.932 . S
C80 C81 1.264 . S
C80 C85 1.479 . S
C80 C90 1.465 . S
C81 C80 1.264 . S
C81 C83 1.339 . S
C81 H108 0.931 . S
C82 C83 1.395 . S
C82 C84 1.320 . S
C83 C81 1.339 . S
C83 C82 1.395 . S
C83 H109 0.929 . S
C84 C82 1.320 . S
C84 C85 1.405 . S
C84 H110 0.930 . S
C85 C80 1.479 . S
C85 C84 1.405 . S
C85 H111 0.931 . S
U86 O87 2.454 . S
U86 O88 2.458 1_565 S
U86 C89 2.984 1_565 S
U86 C90 2.847 . S
U86 C103 2.882 1_565 S
U86 O104 2.441 . S
U86 O105 2.420 . S
U86 O106 2.455 1_565 S
U86 O107 2.449 . S
O87 U86 2.454 . S
O87 C89 1.353 1_565 S
O88 U86 2.458 1_545 S
O88 C89 1.286 . S
C89 U86 2.984 1_545 S
C89 O87 1.353 1_545 S
C89 O88 1.286 . S
C89 C91 1.363 . S
C90 C80 1.465 . S
C90 U86 2.847 . S
C90 O104 1.249 . S
C90 O105 1.202 . S
C91 C89 1.363 . S
C91 C93 1.408 1_545 S
C91 C96 1.342 . S
C92 C93 1.310 1_545 S
C92 C95 1.461 . S
C92 H112 0.932 1_545 S
C93 C91 1.408 1_565 S
C93 C92 1.310 1_565 S
C93 H113 0.930 . S
C94 C95 1.474 . S
C94 C96 1.285 . S
C94 H114 0.929 . S
C95 C92 1.461 . S
C95 C94 1.474 . S
C96 C91 1.342 . S
C96 C94 1.285 . S
C96 H115 0.930 . S
C97 C100 1.424 . S
C97 C102 1.245 . S
C97 C103 1.428 . S
C98 C101 1.260 . S
C98 C102 1.477 . S
C98 H116 0.932 . S
C99 C100 1.384 . S
C99 C101 1.479 . S
C99 H117 0.929 . S
C100 C97 1.424 . S
C100 C99 1.384 . S
C100 H118 0.928 . S
C101 C98 1.260 . S
C101 C99 1.479 . S
C102 C97 1.245 . S
C102 C98 1.477 . S
C102 H119 0.932 . S
C103 U86 2.882 1_545 S
C103 C97 1.428 . S
C103 O106 1.301 . S
C103 O107 1.282 1_545 S
O104 U86 2.441 . S
O104 C90 1.249 . S
O105 U86 2.420 . S
O105 C90 1.202 . S
O106 U86 2.455 1_545 S
O106 C103 1.301 . S
O107 U86 2.449 . S
O107 C103 1.282 1_565 S
H108 C81 0.931 . S
H109 C83 0.929 . S
H110 C84 0.930 . S
H111 C85 0.931 . S
H112 C92 0.932 1_565 S
H113 C93 0.930 . S
H114 C94 0.929 . S
H115 C96 0.930 . S
H116 C98 0.932 . S
H117 C99 0.929 . S
H118 C100 0.928 . S
H119 C102 0.932 . S
C120 C121 1.264 . S
C120 C125 1.479 . S
C120 C130 1.465 . S
C121 C120 1.264 . S
C121 C123 1.339 . S
C121 H148 0.931 . S
C122 C123 1.395 . S
C122 C124 1.320 . S
C123 C121 1.339 . S
C123 C122 1.395 . S
C123 H149 0.929 . S
C124 C122 1.320 . S
C124 C125 1.405 . S
C124 H150 0.930 . S
C125 C120 1.479 . S
C125 C124 1.405 . S
C125 H151 0.931 . S
U126 O127 2.454 . S
U126 O128 2.458 1_565 S
U126 C129 2.984 1_565 S
U126 C130 2.847 . S
U126 C143 2.882 1_565 S
U126 O144 2.441 . S
U126 O145 2.420 . S
U126 O146 2.455 1_565 S
U126 O147 2.449 . S
O127 U126 2.454 . S
O127 C129 1.353 1_565 S
O128 U126 2.458 1_545 S
O128 C129 1.286 . S
C129 U126 2.984 1_545 S
C129 O127 1.353 1_545 S
C129 O128 1.286 . S
C129 C131 1.363 . S
C130 C120 1.465 . S
C130 U126 2.847 . S
C130 O144 1.249 . S
C130 O145 1.202 . S
C131 C129 1.363 . S
C131 C133 1.408 1_545 S
C131 C136 1.342 . S
C132 C133 1.310 1_545 S
C132 C135 1.461 . S
C132 H152 0.932 1_545 S
C133 C131 1.408 1_565 S
C133 C132 1.310 1_565 S
C133 H153 0.930 . S
C134 C135 1.474 . S
C134 C136 1.285 . S
C134 H154 0.929 . S
C135 C132 1.461 . S
C135 C134 1.474 . S
C136 C131 1.342 . S
C136 C134 1.285 . S
C136 H155 0.930 . S
C137 C140 1.424 . S
C137 C142 1.245 . S
C137 C143 1.428 . S
C138 C141 1.260 . S
C138 C142 1.477 . S
C138 H156 0.932 . S
C139 C140 1.384 . S
C139 C141 1.479 . S
C139 H157 0.929 . S
C140 C137 1.424 . S
C140 C139 1.384 . S
C140 H158 0.928 . S
C141 C138 1.260 . S
C141 C139 1.479 . S
C142 C137 1.245 . S
C142 C138 1.477 . S
C142 H159 0.932 . S
C143 U126 2.882 1_545 S
C143 C137 1.428 . S
C143 O146 1.301 . S
C143 O147 1.282 1_545 S
O144 U126 2.441 . S
O144 C130 1.249 . S
O145 U126 2.420 . S
O145 C130 1.202 . S
O146 U126 2.455 1_545 S
O146 C143 1.301 . S
O147 U126 2.449 . S
O147 C143 1.282 1_565 S
H148 C121 0.931 . S
H149 C123 0.929 . S
H150 C124 0.930 . S
H151 C125 0.931 . S
H152 C132 0.932 1_565 S
H153 C133 0.930 . S
H154 C134 0.929 . S
H155 C136 0.930 . S
H156 C138 0.932 . S
H157 C139 0.929 . S
H158 C140 0.928 . S
H159 C142 0.932 . S
C160 C161 1.264 . S
C160 C165 1.479 . S
C160 C170 1.465 . S
C161 C160 1.264 . S
C161 C163 1.339 . S
C161 H188 0.931 . S
C162 C163 1.395 . S
C162 C164 1.320 . S
C163 C161 1.339 . S
C163 C162 1.395 . S
C163 H189 0.929 . S
C164 C162 1.320 . S
C164 C165 1.405 . S
C164 H190 0.930 . S
C165 C160 1.479 . S
C165 C164 1.405 . S
C165 H191 0.931 . S
U166 O167 2.454 . S
U166 O168 2.458 1_455 S
U166 C169 2.984 1_455 S
U166 C170 2.847 . S
U166 C183 2.882 1_455 S
U166 O184 2.441 . S
U166 O185 2.420 . S
U166 O186 2.455 1_455 S
U166 O187 2.449 . S
O167 U166 2.454 . S
O167 C169 1.353 1_455 S
O168 U166 2.458 1_655 S
O168 C169 1.286 . S
C169 U166 2.984 1_655 S
C169 O167 1.353 1_655 S
C169 O168 1.286 . S
C169 C171 1.363 . S
C170 C160 1.465 . S
C170 U166 2.847 . S
C170 O184 1.249 . S
C170 O185 1.202 . S
C171 C169 1.363 . S
C171 C173 1.408 1_655 S
C171 C176 1.342 . S
C172 C173 1.310 1_655 S
C172 C175 1.461 . S
C172 H192 0.932 1_655 S
C173 C171 1.408 1_455 S
C173 C172 1.310 1_455 S
C173 H193 0.930 . S
C174 C175 1.474 . S
C174 C176 1.285 . S
C174 H194 0.929 . S
C175 C172 1.461 . S
C175 C174 1.474 . S
C176 C171 1.342 . S
C176 C174 1.285 . S
C176 H195 0.930 . S
C177 C180 1.424 . S
C177 C182 1.245 . S
C177 C183 1.428 . S
C178 C181 1.260 . S
C178 C182 1.477 . S
C178 H196 0.932 . S
C179 C180 1.384 . S
C179 C181 1.479 . S
C179 H197 0.929 . S
C180 C177 1.424 . S
C180 C179 1.384 . S
C180 H198 0.928 . S
C181 C178 1.260 . S
C181 C179 1.479 . S
C182 C177 1.245 . S
C182 C178 1.477 . S
C182 H199 0.932 . S
C183 U166 2.882 1_655 S
C183 C177 1.428 . S
C183 O186 1.301 . S
C183 O187 1.282 1_655 S
O184 U166 2.441 . S
O184 C170 1.249 . S
O185 U166 2.420 . S
O185 C170 1.202 . S
O186 U166 2.455 1_655 S
O186 C183 1.301 . S
O187 U166 2.449 . S
O187 C183 1.282 1_455 S
H188 C161 0.931 . S
H189 C163 0.929 . S
H190 C164 0.930 . S
H191 C165 0.931 . S
H192 C172 0.932 1_455 S
H193 C173 0.930 . S
H194 C174 0.929 . S
H195 C176 0.930 . S
H196 C178 0.932 . S
H197 C179 0.929 . S
H198 C180 0.928 . S
H199 C182 0.932 . S
C200 C201 1.264 . S
C200 C205 1.479 . S
C200 C210 1.465 . S
C201 C200 1.264 . S
C201 C203 1.339 . S
C201 H228 0.931 . S
C202 C203 1.395 . S
C202 C204 1.320 . S
C203 C201 1.339 . S
C203 C202 1.395 . S
C203 H229 0.929 . S
C204 C202 1.320 . S
C204 C205 1.405 . S
C204 H230 0.930 . S
C205 C200 1.479 . S
C205 C204 1.405 . S
C205 H231 0.931 . S
U206 O207 2.454 . S
U206 O208 2.458 . S
U206 C209 2.984 . S
U206 C210 2.847 . S
U206 C223 2.882 . S
U206 O224 2.441 . S
U206 O225 2.420 . S
U206 O226 2.455 . S
U206 O227 2.449 . S
O207 U206 2.454 . S
O207 C209 1.353 . S
O208 U206 2.458 . S
O208 C209 1.286 . S
C209 U206 2.984 . S
C209 O207 1.353 . S
C209 O208 1.286 . S
C209 C211 1.363 . S
C210 C200 1.465 . S
C210 U206 2.847 . S
C210 O224 1.249 . S
C210 O225 1.202 . S
C211 C209 1.363 . S
C211 C213 1.408 . S
C211 C216 1.342 . S
C212 C213 1.310 . S
C212 C215 1.461 . S
C212 H232 0.932 . S
C213 C211 1.408 . S
C213 C212 1.310 . S
C213 H233 0.930 . S
C214 C215 1.474 . S
C214 C216 1.285 . S
C214 H234 0.929 . S
C215 C212 1.461 . S
C215 C214 1.474 . S
C216 C211 1.342 . S
C216 C214 1.285 . S
C216 H235 0.930 . S
C217 C220 1.424 . S
C217 C222 1.245 . S
C217 C223 1.428 . S
C218 C221 1.260 . S
C218 C222 1.477 . S
C218 H236 0.932 . S
C219 C220 1.384 . S
C219 C221 1.479 . S
C219 H237 0.929 . S
C220 C217 1.424 . S
C220 C219 1.384 . S
C220 H238 0.928 . S
C221 C218 1.260 . S
C221 C219 1.479 . S
C222 C217 1.245 . S
C222 C218 1.477 . S
C222 H239 0.932 . S
C223 U206 2.882 . S
C223 C217 1.428 . S
C223 O226 1.301 . S
C223 O227 1.282 . S
O224 U206 2.441 . S
O224 C210 1.249 . S
O225 U206 2.420 . S
O225 C210 1.202 . S
O226 U206 2.455 . S
O226 C223 1.301 . S
O227 U206 2.449 . S
O227 C223 1.282 . S
H228 C201 0.931 . S
H229 C203 0.929 . S
H230 C204 0.930 . S
H231 C205 0.931 . S
H232 C212 0.932 . S
H233 C213 0.930 . S
H234 C214 0.929 . S
H235 C216 0.930 . S
H236 C218 0.932 . S
H237 C219 0.929 . S
H238 C220 0.928 . S
H239 C222 0.932 . S
C240 C241 1.264 . S
C240 C245 1.479 . S
C240 C250 1.465 . S
C241 C240 1.264 . S
C241 C243 1.339 . S
C241 H268 0.931 . S
C242 C243 1.395 . S
C242 C244 1.320 . S
C243 C241 1.339 . S
C243 C242 1.395 . S
C243 H269 0.929 . S
C244 C242 1.320 . S
C244 C245 1.405 . S
C244 H270 0.930 . S
C245 C240 1.479 . S
C245 C244 1.405 . S
C245 H271 0.931 . S
U246 O247 2.454 1_455 S
U246 O248 2.458 . S
U246 C249 2.984 . S
U246 C250 2.847 1_455 S
U246 C263 2.882 . S
U246 O264 2.441 1_455 S
U246 O265 2.420 1_455 S
U246 O266 2.455 . S
U246 O267 2.449 . S
O247 U246 2.454 1_655 S
O247 C249 1.353 1_655 S
O248 U246 2.458 . S
O248 C249 1.286 . S
C249 U246 2.984 . S
C249 O247 1.353 1_455 S
C249 O248 1.286 . S
C249 C251 1.363 . S
C250 C240 1.465 . S
C250 U246 2.847 1_655 S
C250 O264 1.249 . S
C250 O265 1.202 . S
C251 C249 1.363 . S
C251 C253 1.408 . S
C251 C256 1.342 . S
C252 C253 1.310 . S
C252 C255 1.461 . S
C252 H272 0.932 1_455 S
C253 C251 1.408 . S
C253 C252 1.310 . S
C253 H273 0.930 1_455 S
C254 C255 1.474 . S
C254 C256 1.285 . S
C254 H274 0.929 . S
C255 C252 1.461 . S
C255 C254 1.474 . S
C256 C251 1.342 . S
C256 C254 1.285 . S
C256 H275 0.930 . S
C257 C260 1.424 . S
C257 C262 1.245 . S
C257 C263 1.428 . S
C258 C261 1.260 . S
C258 C262 1.477 . S
C258 H276 0.932 . S
C259 C260 1.384 . S
C259 C261 1.479 . S
C259 H277 0.929 . S
C260 C257 1.424 . S
C260 C259 1.384 . S
C260 H278 0.928 . S
C261 C258 1.260 . S
C261 C259 1.479 . S
C262 C257 1.245 . S
C262 C258 1.477 . S
C262 H279 0.932 . S
C263 U246 2.882 . S
C263 C257 1.428 . S
C263 O266 1.301 . S
C263 O267 1.282 . S
O264 U246 2.441 1_655 S
O264 C250 1.249 . S
O265 U246 2.420 1_655 S
O265 C250 1.202 . S
O266 U246 2.455 . S
O266 C263 1.301 . S
O267 U246 2.449 . S
O267 C263 1.282 . S
H268 C241 0.931 . S
H269 C243 0.929 . S
H270 C244 0.930 . S
H271 C245 0.931 . S
H272 C252 0.932 1_655 S
H273 C253 0.930 1_655 S
H274 C254 0.929 . S
H275 C256 0.930 . S
H276 C258 0.932 . S
H277 C259 0.929 . S
H278 C260 0.928 . S
H279 C262 0.932 . S
C280 C281 1.264 . S
C280 C285 1.479 . S
C280 C290 1.465 . S
C281 C280 1.264 . S
C281 C283 1.339 . S
C281 H308 0.931 . S
C282 C283 1.395 . S
C282 C284 1.320 . S
C283 C281 1.339 . S
C283 C282 1.395 . S
C283 H309 0.929 . S
C284 C282 1.320 . S
C284 C285 1.405 . S
C284 H310 0.930 . S
C285 C280 1.479 . S
C285 C284 1.405 . S
C285 H311 0.931 . S
U286 O287 2.454 . S
U286 O288 2.458 . S
U286 C289 2.984 . S
U286 C290 2.847 . S
U286 C303 2.882 . S
U286 O304 2.441 . S
U286 O305 2.420 . S
U286 O306 2.455 . S
U286 O307 2.449 . S
O287 U286 2.454 . S
O287 C289 1.353 . S
O288 U286 2.458 . S
O288 C289 1.286 . S
C289 U286 2.984 . S
C289 O287 1.353 . S
C289 O288 1.286 . S
C289 C291 1.363 . S
C290 C280 1.465 . S
C290 U286 2.847 . S
C290 O304 1.249 . S
C290 O305 1.202 . S
C291 C289 1.363 . S
C291 C293 1.408 . S
C291 C296 1.342 . S
C292 C293 1.310 . S
C292 C295 1.461 . S
C292 H312 0.932 . S
C293 C291 1.408 . S
C293 C292 1.310 . S
C293 H313 0.930 . S
C294 C295 1.474 . S
C294 C296 1.285 . S
C294 H314 0.929 . S
C295 C292 1.461 . S
C295 C294 1.474 . S
C296 C291 1.342 . S
C296 C294 1.285 . S
C296 H315 0.930 . S
C297 C300 1.424 . S
C297 C302 1.245 . S
C297 C303 1.428 . S
C298 C301 1.260 . S
C298 C302 1.477 . S
C298 H316 0.932 . S
C299 C300 1.384 . S
C299 C301 1.479 . S
C299 H317 0.929 . S
C300 C297 1.424 . S
C300 C299 1.384 . S
C300 H318 0.928 . S
C301 C298 1.260 . S
C301 C299 1.479 . S
C302 C297 1.245 . S
C302 C298 1.477 . S
C302 H319 0.932 . S
C303 U286 2.882 . S
C303 C297 1.428 . S
C303 O306 1.301 . S
C303 O307 1.282 . S
O304 U286 2.441 . S
O304 C290 1.249 . S
O305 U286 2.420 . S
O305 C290 1.202 . S
O306 U286 2.455 . S
O306 C303 1.301 . S
O307 U286 2.449 . S
O307 C303 1.282 . S
H308 C281 0.931 . S
H309 C283 0.929 . S
H310 C284 0.930 . S
H311 C285 0.931 . S
H312 C292 0.932 . S
H313 C293 0.930 . S
H314 C294 0.929 . S
H315 C296 0.930 . S
H316 C298 0.932 . S
H317 C299 0.929 . S
H318 C300 0.928 . S
H319 C302 0.932 . S
C320 C321 1.264 . S
C320 C325 1.479 . S
C320 C330 1.465 . S
C321 C320 1.264 . S
C321 C323 1.339 . S
C321 H348 0.931 . S
C322 C323 1.395 . S
C322 C324 1.320 . S
C323 C321 1.339 . S
C323 C322 1.395 . S
C323 H349 0.929 . S
C324 C322 1.320 . S
C324 C325 1.405 . S
C324 H350 0.930 . S
C325 C320 1.479 . S
C325 C324 1.405 . S
C325 H351 0.931 . S
U326 O327 2.456 . S
U326 O328 2.458 . S
U326 C329 2.984 . S
U326 C330 2.847 1_565 S
U326 C343 2.882 . S
U326 O344 2.441 1_565 S
U326 O345 2.420 1_565 S
U326 O346 2.455 . S
U326 O347 2.449 . S
O327 U326 2.456 . S
O327 C329 1.355 . S
O328 U326 2.458 . S
O328 C329 1.286 . S
C329 U326 2.984 . S
C329 O327 1.355 . S
C329 O328 1.286 . S
C329 C331 1.363 . S
C330 C320 1.465 . S
C330 U326 2.847 1_545 S
C330 O344 1.249 . S
C330 O345 1.202 . S
C331 C329 1.363 . S
C331 C333 1.408 . S
C331 C336 1.342 . S
C332 C333 1.310 . S
C332 C335 1.461 . S
C332 H352 0.933 . S
C333 C331 1.408 . S
C333 C332 1.310 . S
C333 H353 0.930 1_565 S
C334 C335 1.474 . S
C334 C336 1.285 . S
C334 H354 0.929 . S
C335 C332 1.461 . S
C335 C334 1.474 . S
C336 C331 1.342 . S
C336 C334 1.285 . S
C336 H355 0.930 . S
C337 C340 1.424 . S
C337 C342 1.245 . S
C337 C343 1.428 . S
C338 C341 1.260 . S
C338 C342 1.477 . S
C338 H356 0.932 . S
C339 C340 1.384 . S
C339 C341 1.479 . S
C339 H357 0.929 . S
C340 C337 1.424 . S
C340 C339 1.384 . S
C340 H358 0.928 . S
C341 C338 1.260 . S
C341 C339 1.479 . S
C342 C337 1.245 . S
C342 C338 1.477 . S
C342 H359 0.932 . S
C343 U326 2.882 . S
C343 C337 1.428 . S
C343 O346 1.301 . S
C343 O347 1.282 . S
O344 U326 2.441 1_545 S
O344 C330 1.249 . S
O345 U326 2.420 1_545 S
O345 C330 1.202 . S
O346 U326 2.455 . S
O346 C343 1.301 . S
O347 U326 2.449 . S
O347 C343 1.282 . S
H348 C321 0.931 . S
H349 C323 0.929 . S
H350 C324 0.930 . S
H351 C325 0.931 . S
H352 C332 0.933 . S
H353 C333 0.930 1_545 S
H354 C334 0.929 . S
H355 C336 0.930 . S
H356 C338 0.932 . S
H357 C339 0.929 . S
H358 C340 0.928 . S
H359 C342 0.932 . S
C360 C361 1.264 . S
C360 C365 1.479 . S
C360 C370 1.465 . S
C361 C360 1.264 . S
C361 C363 1.339 . S
C361 H388 0.931 . S
C362 C363 1.395 . S
C362 C364 1.320 . S
C363 C361 1.339 . S
C363 C362 1.395 . S
C363 H389 0.929 . S
C364 C362 1.320 . S
C364 C365 1.405 . S
C364 H390 0.930 . S
C365 C360 1.479 . S
C365 C364 1.405 . S
C365 H391 0.931 . S
U366 O367 2.454 1_565 S
U366 O368 2.458 . S
U366 C369 2.984 . S
U366 C370 2.847 1_565 S
U366 C383 2.882 . S
U366 O384 2.441 1_565 S
U366 O385 2.420 1_565 S
U366 O386 2.455 . S
U366 O387 2.449 . S
O367 U366 2.454 1_545 S
O367 C369 1.353 1_545 S
O368 U366 2.458 . S
O368 C369 1.286 . S
C369 U366 2.984 . S
C369 O367 1.353 1_565 S
C369 O368 1.286 . S
C369 C371 1.363 . S
C370 C360 1.465 . S
C370 U366 2.847 1_545 S
C370 O384 1.249 . S
C370 O385 1.202 . S
C371 C369 1.363 . S
C371 C373 1.408 . S
C371 C376 1.342 . S
C372 C373 1.310 . S
C372 C375 1.461 . S
C372 H392 0.932 1_565 S
C373 C371 1.408 . S
C373 C372 1.310 . S
C373 H393 0.930 1_565 S
C374 C375 1.474 . S
C374 C376 1.285 . S
C374 H394 0.929 . S
C375 C372 1.461 . S
C375 C374 1.474 . S
C376 C371 1.342 . S
C376 C374 1.285 . S
C376 H395 0.930 . S
C377 C380 1.424 . S
C377 C382 1.245 . S
C377 C383 1.428 . S
C378 C381 1.260 . S
C378 C382 1.477 . S
C378 H396 0.932 . S
C379 C380 1.384 . S
C379 C381 1.479 . S
C379 H397 0.929 . S
C380 C377 1.424 . S
C380 C379 1.384 . S
C380 H398 0.928 . S
C381 C378 1.260 . S
C381 C379 1.479 . S
C382 C377 1.245 . S
C382 C378 1.477 . S
C382 H399 0.932 . S
C383 U366 2.882 . S
C383 C377 1.428 . S
C383 O386 1.301 . S
C383 O387 1.282 . S
O384 U366 2.441 1_545 S
O384 C370 1.249 . S
O385 U366 2.420 1_545 S
O385 C370 1.202 . S
O386 U366 2.455 . S
O386 C383 1.301 . S
O387 U366 2.449 . S
O387 C383 1.282 . S
H388 C361 0.931 . S
H389 C363 0.929 . S
H390 C364 0.930 . S
H391 C365 0.931 . S
H392 C372 0.932 1_545 S
H393 C373 0.930 1_545 S
H394 C374 0.929 . S
H395 C376 0.930 . S
H396 C378 0.932 . S
H397 C379 0.929 . S
H398 C380 0.928 . S
H399 C382 0.932 . S
C400 C401 1.264 . S
C400 C405 1.479 . S
C400 C410 1.465 . S
C401 C400 1.264 . S
C401 C403 1.339 . S
C401 H428 0.931 . S
C402 C403 1.395 . S
C402 C404 1.320 . S
C403 C401 1.339 . S
C403 C402 1.395 . S
C403 H429 0.929 . S
C404 C402 1.320 . S
C404 C405 1.405 . S
C404 H430 0.930 . S
C405 C400 1.479 . S
C405 C404 1.405 . S
C405 H431 0.931 . S
U406 O407 2.456 . S
U406 O408 2.458 . S
U406 C409 2.984 . S
U406 C410 2.847 1_455 S
U406 C423 2.882 . S
U406 O424 2.441 1_455 S
U406 O425 2.420 1_455 S
U406 O426 2.455 . S
U406 O427 2.449 . S
O407 U406 2.456 . S
O407 C409 1.355 . S
O408 U406 2.458 . S
O408 C409 1.286 . S
C409 U406 2.984 . S
C409 O407 1.355 . S
C409 O408 1.286 . S
C409 C411 1.363 . S
C410 C400 1.465 . S
C410 U406 2.847 1_655 S
C410 O424 1.249 . S
C410 O425 1.202 . S
C411 C409 1.363 . S
C411 C413 1.408 . S
C411 C416 1.342 . S
C412 C413 1.310 . S
C412 C415 1.461 . S
C412 H432 0.933 . S
C413 C411 1.408 . S
C413 C412 1.310 . S
C413 H433 0.930 1_455 S
C414 C415 1.474 . S
C414 C416 1.285 . S
C414 H434 0.929 . S
C415 C412 1.461 . S
C415 C414 1.474 . S
C416 C411 1.342 . S
C416 C414 1.285 . S
C416 H435 0.930 . S
C417 C420 1.424 . S
C417 C422 1.245 . S
C417 C423 1.428 . S
C418 C421 1.260 . S
C418 C422 1.477 . S
C418 H436 0.932 . S
C419 C420 1.384 . S
C419 C421 1.479 . S
C419 H437 0.929 . S
C420 C417 1.424 . S
C420 C419 1.384 . S
C420 H438 0.928 . S
C421 C418 1.260 . S
C421 C419 1.479 . S
C422 C417 1.245 . S
C422 C418 1.477 . S
C422 H439 0.932 . S
C423 U406 2.882 . S
C423 C417 1.428 . S
C423 O426 1.301 . S
C423 O427 1.282 . S
O424 U406 2.441 1_655 S
O424 C410 1.249 . S
O425 U406 2.420 1_655 S
O425 C410 1.202 . S
O426 U406 2.455 . S
O426 C423 1.301 . S
O427 U406 2.449 . S
O427 C423 1.282 . S
H428 C401 0.931 . S
H429 C403 0.929 . S
H430 C404 0.930 . S
H431 C405 0.931 . S
H432 C412 0.933 . S
H433 C413 0.930 1_655 S
H434 C414 0.929 . S
H435 C416 0.930 . S
H436 C418 0.932 . S
H437 C419 0.929 . S
H438 C420 0.928 . S
H439 C422 0.932 . S
C440 C441 1.264 . S
C440 C445 1.479 . S
C440 C450 1.465 . S
C441 C440 1.264 . S
C441 C443 1.339 . S
C441 H468 0.931 . S
C442 C443 1.395 . S
C442 C444 1.320 . S
C443 C441 1.339 . S
C443 C442 1.395 . S
C443 H469 0.929 . S
C444 C442 1.320 . S
C444 C445 1.405 . S
C444 H470 0.930 . S
C445 C440 1.479 . S
C445 C444 1.405 . S
C445 H471 0.931 . S
U446 O447 2.454 . S
U446 O448 2.458 . S
U446 C449 2.984 . S
U446 C450 2.847 . S
U446 C463 2.882 . S
U446 O464 2.441 . S
U446 O465 2.420 . S
U446 O466 2.455 . S
U446 O467 2.449 . S
O447 U446 2.454 . S
O447 C449 1.353 . S
O448 U446 2.458 . S
O448 C449 1.286 . S
C449 U446 2.984 . S
C449 O447 1.353 . S
C449 O448 1.286 . S
C449 C451 1.363 . S
C450 C440 1.465 . S
C450 U446 2.847 . S
C450 O464 1.249 . S
C450 O465 1.202 . S
C451 C449 1.363 . S
C451 C453 1.408 . S
C451 C456 1.342 . S
C452 C453 1.310 . S
C452 C455 1.461 . S
C452 H472 0.932 . S
C453 C451 1.408 . S
C453 C452 1.310 . S
C453 H473 0.930 . S
C454 C455 1.474 . S
C454 C456 1.285 . S
C454 H474 0.929 . S
C455 C452 1.461 . S
C455 C454 1.474 . S
C456 C451 1.342 . S
C456 C454 1.285 . S
C456 H475 0.930 . S
C457 C460 1.424 . S
C457 C462 1.245 . S
C457 C463 1.428 . S
C458 C461 1.260 . S
C458 C462 1.477 . S
C458 H476 0.932 . S
C459 C460 1.384 . S
C459 C461 1.479 . S
C459 H477 0.929 . S
C460 C457 1.424 . S
C460 C459 1.384 . S
C460 H478 0.928 . S
C461 C458 1.260 . S
C461 C459 1.479 . S
C462 C457 1.245 . S
C462 C458 1.477 . S
C462 H479 0.932 . S
C463 U446 2.882 . S
C463 C457 1.428 . S
C463 O466 1.301 . S
C463 O467 1.282 . S
O464 U446 2.441 . S
O464 C450 1.249 . S
O465 U446 2.420 . S
O465 C450 1.202 . S
O466 U446 2.455 . S
O466 C463 1.301 . S
O467 U446 2.449 . S
O467 C463 1.282 . S
H468 C441 0.931 . S
H469 C443 0.929 . S
H470 C444 0.930 . S
H471 C445 0.931 . S
H472 C452 0.932 . S
H473 C453 0.930 . S
H474 C454 0.929 . S
H475 C456 0.930 . S
H476 C458 0.932 . S
H477 C459 0.929 . S
H478 C460 0.928 . S
H479 C462 0.932 . S
C480 C481 1.363 . S
C480 C486 1.379 . S
C480 N488 1.356 . S
C481 C480 1.363 . S
C481 C487 1.363 . S
C482 C483 1.363 . S
C482 C487 1.379 . S
C482 N489 1.356 . S
C483 C482 1.363 . S
C483 C486 1.363 . S
N484 C486 1.356 . S
N484 H496 0.984 . S
N484 H497 0.985 . S
N485 C487 1.356 . S
N485 H490 0.984 . S
N485 H491 0.985 . S
C486 C480 1.379 . S
C486 C483 1.363 . S
C486 N484 1.356 . S
C487 C481 1.363 . S
C487 C482 1.379 . S
C487 N485 1.356 . S
N488 C480 1.356 . S
N488 H494 0.984 . S
N488 H495 0.984 . S
N489 C482 1.356 . S
N489 H492 0.984 . S
N489 H493 0.985 . S
H490 N485 0.984 . S
H491 N485 0.985 . S
H492 N489 0.984 . S
H493 N489 0.985 . S
H494 N488 0.984 . S
H495 N488 0.984 . S
H496 N484 0.984 . S
H497 N484 0.985 . S
C498 C499 1.363 . S
C498 C504 1.379 . S
C498 N506 1.356 . S
C499 C498 1.363 . S
C499 C505 1.363 . S
C500 C501 1.363 . S
C500 C505 1.379 . S
C500 N507 1.356 . S
C501 C500 1.363 . S
C501 C504 1.363 . S
N502 C504 1.356 . S
N502 H514 0.984 . S
N502 H515 0.985 . S
N503 C505 1.356 . S
N503 H508 0.984 . S
N503 H509 0.985 . S
C504 C498 1.379 . S
C504 C501 1.363 . S
C504 N502 1.356 . S
C505 C499 1.363 . S
C505 C500 1.379 . S
C505 N503 1.356 . S
N506 C498 1.356 . S
N506 H512 0.984 . S
N506 H513 0.984 . S
N507 C500 1.356 . S
N507 H510 0.984 . S
N507 H511 0.985 . S
H508 N503 0.984 . S
H509 N503 0.985 . S
H510 N507 0.984 . S
H511 N507 0.985 . S
H512 N506 0.984 . S
H513 N506 0.984 . S
H514 N502 0.984 . S
H515 N502 0.985 . S
C516 C517 1.363 . S
C516 C522 1.379 . S
C516 N524 1.356 . S
C517 C516 1.363 . S
C517 C523 1.363 . S
C518 C519 1.363 . S
C518 C523 1.379 . S
C518 N525 1.356 . S
C519 C518 1.363 . S
C519 C522 1.363 . S
N520 C522 1.356 . S
N520 H532 0.984 . S
N520 H533 0.985 . S
N521 C523 1.356 . S
N521 H526 0.984 . S
N521 H527 0.985 . S
C522 C516 1.379 . S
C522 C519 1.363 . S
C522 N520 1.356 . S
C523 C517 1.363 . S
C523 C518 1.379 . S
C523 N521 1.356 . S
N524 C516 1.356 . S
N524 H530 0.984 . S
N524 H531 0.984 . S
N525 C518 1.356 . S
N525 H528 0.984 . S
N525 H529 0.985 . S
H526 N521 0.984 . S
H527 N521 0.985 . S
H528 N525 0.984 . S
H529 N525 0.985 . S
H530 N524 0.984 . S
H531 N524 0.984 . S
H532 N520 0.984 . S
H533 N520 0.985 . S
C534 C535 1.363 . S
C534 C540 1.379 . S
C534 N542 1.356 . S
C535 C534 1.363 . S
C535 C541 1.363 . S
C536 C537 1.363 . S
C536 C541 1.379 . S
C536 N543 1.356 . S
C537 C536 1.363 . S
C537 C540 1.363 . S
N538 C540 1.356 . S
N538 H550 0.984 . S
N538 H551 0.985 . S
N539 C541 1.356 . S
N539 H544 0.984 . S
N539 H545 0.985 . S
C540 C534 1.379 . S
C540 C537 1.363 . S
C540 N538 1.356 . S
C541 C535 1.363 . S
C541 C536 1.379 . S
C541 N539 1.356 . S
N542 C534 1.356 . S
N542 H548 0.984 . S
N542 H549 0.984 . S
N543 C536 1.356 . S
N543 H546 0.984 . S
N543 H547 0.985 . S
H544 N539 0.984 . S
H545 N539 0.985 . S
H546 N543 0.984 . S
H547 N543 0.985 . S
H548 N542 0.984 . S
H549 N542 0.984 . S
H550 N538 0.984 . S
H551 N538 0.985 . S
C552 C553 1.363 . S
C552 C558 1.379 . S
C552 N560 1.356 . S
C553 C552 1.363 . S
C553 C559 1.363 . S
C554 C555 1.363 . S
C554 C559 1.379 . S
C554 N561 1.356 . S
C555 C554 1.363 . S
C555 C558 1.363 . S
N556 C558 1.356 . S
N556 H568 0.984 . S
N556 H569 0.985 . S
N557 C559 1.356 . S
N557 H562 0.984 . S
N557 H563 0.985 . S
C558 C552 1.379 . S
C558 C555 1.363 . S
C558 N556 1.356 . S
C559 C553 1.363 . S
C559 C554 1.379 . S
C559 N557 1.356 . S
N560 C552 1.356 . S
N560 H566 0.984 . S
N560 H567 0.984 . S
N561 C554 1.356 . S
N561 H564 0.984 . S
N561 H565 0.985 . S
H562 N557 0.984 . S
H563 N557 0.985 . S
H564 N561 0.984 . S
H565 N561 0.985 . S
H566 N560 0.984 . S
H567 N560 0.984 . S
H568 N556 0.984 . S
H569 N556 0.985 . S
C570 C571 1.363 . S
C570 C576 1.379 . S
C570 N578 1.356 . S
C571 C570 1.363 . S
C571 C577 1.363 . S
C572 C573 1.363 . S
C572 C577 1.379 . S
C572 N579 1.356 . S
C573 C572 1.363 . S
C573 C576 1.363 . S
N574 C576 1.356 . S
N574 H586 0.984 . S
N574 H587 0.985 . S
N575 C577 1.356 . S
N575 H580 0.984 . S
N575 H581 0.985 . S
C576 C570 1.379 . S
C576 C573 1.363 . S
C576 N574 1.356 . S
C577 C571 1.363 . S
C577 C572 1.379 . S
C577 N575 1.356 . S
N578 C570 1.356 . S
N578 H584 0.984 . S
N578 H585 0.984 . S
N579 C572 1.356 . S
N579 H582 0.984 . S
N579 H583 0.985 . S
H580 N575 0.984 . S
H581 N575 0.985 . S
H582 N579 0.984 . S
H583 N579 0.985 . S
H584 N578 0.984 . S
H585 N578 0.984 . S
H586 N574 0.984 . S
H587 N574 0.985 . S
C588 C589 1.363 . S
C588 C594 1.379 . S
C588 N596 1.356 . S
C589 C588 1.363 . S
C589 C595 1.363 1_654 S
C590 C591 1.363 . S
C590 C595 1.379 . S
C590 N597 1.356 . S
C591 C590 1.363 . S
C591 C594 1.363 1_456 S
N592 C594 1.356 . S
N592 H604 0.984 . S
N592 H605 0.985 . S
N593 C595 1.356 . S
N593 H598 0.984 . S
N593 H599 0.985 . S
C594 C588 1.379 . S
C594 C591 1.363 1_654 S
C594 N592 1.356 . S
C595 C589 1.363 1_456 S
C595 C590 1.379 . S
C595 N593 1.356 . S
N596 C588 1.356 . S
N596 H602 0.984 . S
N596 H603 0.984 . S
N597 C590 1.356 . S
N597 H600 0.984 . S
N597 H601 0.985 . S
H598 N593 0.984 . S
H599 N593 0.985 . S
H600 N597 0.984 . S
H601 N597 0.985 . S
H602 N596 0.984 . S
H603 N596 0.984 . S
H604 N592 0.984 . S
H605 N592 0.985 . S
C606 C607 1.363 . S
C606 C612 1.379 . S
C606 N614 1.356 . S
C607 C606 1.363 . S
C607 C613 1.363 1_556 S
C608 C609 1.363 . S
C608 C613 1.379 . S
C608 N615 1.356 . S
C609 C608 1.363 . S
C609 C612 1.363 1_554 S
N610 C612 1.356 . S
N610 H622 0.984 . S
N610 H623 0.985 . S
N611 C613 1.356 . S
N611 H616 0.984 . S
N611 H617 0.985 . S
C612 C606 1.379 . S
C612 C609 1.363 1_556 S
C612 N610 1.356 . S
C613 C607 1.363 1_554 S
C613 C608 1.379 . S
C613 N611 1.356 . S
N614 C606 1.356 . S
N614 H620 0.984 . S
N614 H621 0.984 . S
N615 C608 1.356 . S
N615 H618 0.984 . S
N615 H619 0.985 . S
H616 N611 0.984 . S
H617 N611 0.985 . S
H618 N615 0.984 . S
H619 N615 0.985 . S
H620 N614 0.984 . S
H621 N614 0.984 . S
H622 N610 0.984 . S
H623 N610 0.985 . S
C624 C625 1.363 1_566 S
C624 C630 1.379 . S
C624 N632 1.356 . S
C625 C624 1.363 1_544 S
C625 C631 1.363 . S
C626 C627 1.363 1_544 S
C626 C631 1.379 . S
C626 N633 1.356 . S
C627 C626 1.363 1_566 S
C627 C630 1.363 . S
N628 C630 1.356 . S
N628 H640 0.984 . S
N628 H641 0.985 . S
N629 C631 1.356 . S
N629 H634 0.984 . S
N629 H635 0.985 . S
C630 C624 1.379 . S
C630 C627 1.363 . S
C630 N628 1.356 . S
C631 C625 1.363 . S
C631 C626 1.379 . S
C631 N629 1.356 . S
N632 C624 1.356 . S
N632 H638 0.984 . S
N632 H639 0.984 . S
N633 C626 1.356 . S
N633 H636 0.984 . S
N633 H637 0.985 . S
H634 N629 0.984 . S
H635 N629 0.985 . S
H636 N633 0.984 . S
H637 N633 0.985 . S
H638 N632 0.984 . S
H639 N632 0.984 . S
H640 N628 0.984 . S
H641 N628 0.985 . S
C642 C643 1.363 . S
C642 C648 1.379 . S
C642 N650 1.356 . S
C643 C642 1.363 . S
C643 C649 1.363 1_565 S
C644 C645 1.363 . S
C644 C649 1.379 . S
C644 N651 1.356 . S
C645 C644 1.363 . S
C645 C648 1.363 1_545 S
N646 C648 1.356 . S
N646 H658 0.984 . S
N646 H659 0.985 . S
N647 C649 1.356 . S
N647 H652 0.984 . S
N647 H653 0.985 . S
C648 C642 1.379 . S
C648 C645 1.363 1_565 S
C648 N646 1.356 . S
C649 C643 1.363 1_545 S
C649 C644 1.379 . S
C649 N647 1.356 . S
N650 C642 1.356 . S
N650 H656 0.984 . S
N650 H657 0.984 . S
N651 C644 1.356 . S
N651 H654 0.984 . S
N651 H655 0.985 . S
H652 N647 0.984 . S
H653 N647 0.985 . S
H654 N651 0.984 . S
H655 N651 0.985 . S
H656 N650 0.984 . S
H657 N650 0.984 . S
H658 N646 0.984 . S
H659 N646 0.985 . S
C660 C661 1.363 1_655 S
C660 C666 1.379 . S
C660 N668 1.356 . S
C661 C660 1.363 1_455 S
C661 C667 1.363 . S
C662 C663 1.363 1_455 S
C662 C667 1.379 . S
C662 N669 1.356 . S
C663 C662 1.363 1_655 S
C663 C666 1.363 . S
N664 C666 1.356 . S
N664 H676 0.984 . S
N664 H677 0.985 . S
N665 C667 1.356 . S
N665 H670 0.984 . S
N665 H671 0.985 . S
C666 C660 1.379 . S
C666 C663 1.363 . S
C666 N664 1.356 . S
C667 C661 1.363 . S
C667 C662 1.379 . S
C667 N665 1.356 . S
N668 C660 1.356 . S
N668 H674 0.984 . S
N668 H675 0.984 . S
N669 C662 1.356 . S
N669 H672 1.010 . S
N669 H673 0.985 . S
H670 N665 0.984 . S
H671 N665 0.985 . S
H672 N669 1.010 . S
H673 N669 0.985 . S
H674 N668 0.984 . S
H675 N668 0.984 . S
H676 N664 0.984 . S
H677 N664 0.985 . S
C678 C679 1.363 . S
C678 C684 1.379 . S
C678 N686 1.356 . S
C679 C678 1.363 . S
C679 C685 1.363 . S
C680 C681 1.363 . S
C680 C685 1.379 . S
C680 N687 1.356 . S
C681 C680 1.363 . S
C681 C684 1.363 . S
N682 C684 1.356 . S
N682 H694 0.984 . S
N682 H695 0.985 . S
N683 C685 1.356 . S
N683 H688 0.984 . S
N683 H689 0.985 . S
C684 C678 1.379 . S
C684 C681 1.363 . S
C684 N682 1.356 . S
C685 C679 1.363 . S
C685 C680 1.379 . S
C685 N683 1.356 . S
N686 C678 1.356 . S
N686 H692 0.984 . S
N686 H693 0.984 . S
N687 C680 1.356 . S
N687 H690 0.984 . S
N687 H691 0.985 . S
H688 N683 0.984 . S
H689 N683 0.985 . S
H690 N687 0.984 . S
H691 N687 0.985 . S
H692 N686 0.984 . S
H693 N686 0.984 . S
H694 N682 0.984 . S
H695 N682 0.985 . S
C696 C697 1.363 . S
C696 C702 1.379 . S
C696 N704 1.356 . S
C697 C696 1.363 . S
C697 C703 1.363 . S
C698 C699 1.363 . S
C698 C703 1.379 . S
C698 N705 1.356 . S
C699 C698 1.363 . S
C699 C702 1.363 . S
N700 C702 1.356 . S
N700 H712 0.984 . S
N700 H713 0.985 . S
N701 C703 1.356 . S
N701 H706 0.984 . S
N701 H707 0.985 . S
C702 C696 1.379 . S
C702 C699 1.363 . S
C702 N700 1.356 . S
C703 C697 1.363 . S
C703 C698 1.379 . S
C703 N701 1.356 . S
N704 C696 1.356 . S
N704 H710 0.984 . S
N704 H711 0.984 . S
N705 C698 1.356 . S
N705 H708 0.984 . S
N705 H709 0.985 . S
H706 N701 0.984 . S
H707 N701 0.985 . S
H708 N705 0.984 . S
H709 N705 0.985 . S
H710 N704 0.984 . S
H711 N704 0.984 . S
H712 N700 0.984 . S
H713 N700 0.985 . S
C714 C715 1.363 . S
C714 C720 1.379 . S
C714 N722 1.356 . S
C715 C714 1.363 . S
C715 C721 1.363 . S
C716 C717 1.363 . S
C716 C721 1.379 . S
C716 N723 1.356 . S
C717 C716 1.363 . S
C717 C720 1.363 . S
N718 C720 1.356 . S
N718 H730 0.984 . S
N718 H731 0.985 . S
N719 C721 1.356 . S
N719 H724 0.984 . S
N719 H725 0.985 . S
C720 C714 1.379 . S
C720 C717 1.363 . S
C720 N718 1.356 . S
C721 C715 1.363 . S
C721 C716 1.379 . S
C721 N719 1.356 . S
N722 C714 1.356 . S
N722 H728 0.984 . S
N722 H729 0.984 . S
N723 C716 1.356 . S
N723 H726 0.984 . S
N723 H727 0.985 . S
H724 N719 0.984 . S
H725 N719 0.985 . S
H726 N723 0.984 . S
H727 N723 0.985 . S
H728 N722 0.984 . S
H729 N722 0.984 . S
H730 N718 0.984 . S
H731 N718 0.985 . S
C732 C733 1.363 . S
C732 C738 1.379 . S
C732 N740 1.356 . S
C733 C732 1.363 . S
C733 C739 1.363 . S
C734 C735 1.363 . S
C734 C739 1.379 . S
C734 N741 1.356 . S
C735 C734 1.363 . S
C735 C738 1.363 . S
N736 C738 1.356 . S
N736 H748 0.984 . S
N736 H749 0.985 . S
N737 C739 1.356 . S
N737 H742 0.984 . S
N737 H743 0.985 . S
C738 C732 1.379 . S
C738 C735 1.363 . S
C738 N736 1.356 . S
C739 C733 1.363 . S
C739 C734 1.379 . S
C739 N737 1.356 . S
N740 C732 1.356 . S
N740 H746 0.984 . S
N740 H747 0.984 . S
N741 C734 1.356 . S
N741 H744 0.984 . S
N741 H745 0.985 . S
H742 N737 0.984 . S
H743 N737 0.985 . S
H744 N741 0.984 . S
H745 N741 0.985 . S
H746 N740 0.984 . S
H747 N740 0.984 . S
H748 N736 0.984 . S
H749 N736 0.985 . S
C750 C751 1.363 . S
C750 C756 1.379 . S
C750 N758 1.356 . S
C751 C750 1.363 . S
C751 C757 1.363 . S
C752 C753 1.363 . S
C752 C757 1.379 . S
C752 N759 1.356 . S
C753 C752 1.363 . S
C753 C756 1.363 . S
N754 C756 1.356 . S
N754 H766 0.984 . S
N754 H767 0.985 . S
N755 C757 1.356 . S
N755 H760 0.984 . S
N755 H761 0.985 . S
C756 C750 1.379 . S
C756 C753 1.363 . S
C756 N754 1.356 . S
C757 C751 1.363 . S
C757 C752 1.379 . S
C757 N755 1.356 . S
N758 C750 1.356 . S
N758 H764 0.984 . S
N758 H765 0.984 . S
N759 C752 1.356 . S
N759 H762 0.984 . S
N759 H763 0.985 . S
H760 N755 0.984 . S
H761 N755 0.985 . S
H762 N759 0.984 . S
H763 N759 0.985 . S
H764 N758 0.984 . S
H765 N758 0.984 . S
H766 N754 0.984 . S
H767 N754 0.985 . S
C768 C769 1.363 . S
C768 C774 1.379 . S
C768 N776 1.356 . S
C769 C768 1.363 . S
C769 C775 1.363 . S
C770 C771 1.363 . S
C770 C775 1.379 . S
C770 N777 1.356 . S
C771 C770 1.363 . S
C771 C774 1.363 . S
N772 C774 1.356 . S
N772 H784 0.984 . S
N772 H785 0.985 . S
N773 C775 1.356 . S
N773 H778 0.984 . S
N773 H779 0.985 . S
C774 C768 1.379 . S
C774 C771 1.363 . S
C774 N772 1.356 . S
C775 C769 1.363 . S
C775 C770 1.379 . S
C775 N773 1.356 . S
N776 C768 1.356 . S
N776 H782 0.984 . S
N776 H783 0.984 . S
N777 C770 1.356 . S
N777 H780 0.984 . S
N777 H781 0.985 . S
H778 N773 0.984 . S
H779 N773 0.985 . S
H780 N777 0.984 . S
H781 N777 0.985 . S
H782 N776 0.984 . S
H783 N776 0.984 . S
H784 N772 0.984 . S
H785 N772 0.985 . S
C786 C787 1.363 . S
C786 C792 1.379 . S
C786 N794 1.356 . S
C787 C786 1.363 . S
C787 C793 1.363 . S
C788 C789 1.363 . S
C788 C793 1.379 . S
C788 N795 1.356 . S
C789 C788 1.363 . S
C789 C792 1.363 . S
N790 C792 1.356 . S
N790 H802 0.984 . S
N790 H803 0.985 . S
N791 C793 1.356 . S
N791 H796 0.984 . S
N791 H797 0.985 . S
C792 C786 1.379 . S
C792 C789 1.363 . S
C792 N790 1.356 . S
C793 C787 1.363 . S
C793 C788 1.379 . S
C793 N791 1.356 . S
N794 C786 1.356 . S
N794 H800 0.984 . S
N794 H801 0.984 . S
N795 C788 1.356 . S
N795 H798 0.984 . S
N795 H799 0.985 . S
H796 N791 0.984 . S
H797 N791 0.985 . S
H798 N795 0.984 . S
H799 N795 0.985 . S
H800 N794 0.984 . S
H801 N794 0.984 . S
H802 N790 0.984 . S
H803 N790 0.985 . S
C481 C202 2.815 . S
C483 C2 2.805 . S
C499 C42 2.815 . S
C501 C122 2.805 . S
C517 C162 2.597 . S
C519 C82 2.594 . S
C535 C442 2.894 . S
C537 C242 2.873 . S
C553 C282 2.894 . S
C555 C362 2.873 . S
C571 C402 2.648 . S
C573 C322 2.645 . S
C589 C15 3.561 . S
C591 C255 3.586 . S
C607 C295 3.584 . S
C609 C55 3.559 . S
C625 C95 3.236 . S
C627 C335 3.253 . S
C643 C375 3.584 . S
C645 C135 3.562 . S
C661 C415 3.258 . S
C663 C175 3.231 . S
C679 C215 3.559 . S
C681 C455 3.584 . S
C697 C181 0.852 . S
C699 C21 0.816 . S
C715 C221 0.906 . S
C717 C61 0.906 . S
C733 C101 0.852 . S
C735 C141 0.816 . S
C751 C261 0.875 . S
C753 C421 0.888 . S
C769 C461 0.967 . S
C771 C301 0.967 . S
C787 C341 0.888 . S
C789 C381 0.875 . S
