# Generated by pormake.
# Topology xfb, (7)-cn, num edge types: 1
# Building blocks:
#     Node 0, Type 0, BuildingBlock: HICVOG_clean_sbu_0, # of connection points: 7
#     Node 1, Type 0, BuildingBlock: HICVOG_clean_sbu_0, # of connection points: 7
#     Node 2, Type 0, BuildingBlock: HICVOG_clean_sbu_0, # of connection points: 7
#     Node 3, Type 0, BuildingBlock: HICVOG_clean_sbu_0, # of connection points: 7
#     Node 4, Type 0, BuildingBlock: HICVOG_clean_sbu_0, # of connection points: 7
#     Node 5, Type 0, BuildingBlock: HICVOG_clean_sbu_0, # of connection points: 7
#     Node 6, Type 0, BuildingBlock: HICVOG_clean_sbu_0, # of connection points: 7
#     Node 7, Type 0, BuildingBlock: HICVOG_clean_sbu_0, # of connection points: 7
#     Node 8, Type 0, BuildingBlock: HICVOG_clean_sbu_0, # of connection points: 7
#     Node 9, Type 0, BuildingBlock: HICVOG_clean_sbu_0, # of connection points: 7
#     Node 10, Type 0, BuildingBlock: HICVOG_clean_sbu_0, # of connection points: 7
#     Node 11, Type 0, BuildingBlock: HICVOG_clean_sbu_0, # of connection points: 7
#     Node 12, Type 0, BuildingBlock: HICVOG_clean_sbu_0, # of connection points: 7
#     Node 13, Type 0, BuildingBlock: HICVOG_clean_sbu_0, # of connection points: 7
#     Node 14, Type 0, BuildingBlock: HICVOG_clean_sbu_0, # of connection points: 7
#     Node 15, Type 0, BuildingBlock: HICVOG_clean_sbu_0, # of connection points: 7
#     Edge 16, Type (0, 0), None
#     Edge 17, Type (0, 0), None
#     Edge 18, Type (0, 0), None
#     Edge 19, Type (0, 0), None
#     Edge 20, Type (0, 0), None
#     Edge 21, Type (0, 0), None
#     Edge 22, Type (0, 0), None
#     Edge 23, Type (0, 0), None
#     Edge 24, Type (0, 0), None
#     Edge 25, Type (0, 0), None
#     Edge 26, Type (0, 0), None
#     Edge 27, Type (0, 0), None
#     Edge 28, Type (0, 0), None
#     Edge 29, Type (0, 0), None
#     Edge 30, Type (0, 0), None
#     Edge 31, Type (0, 0), None
#     Edge 32, Type (0, 0), None
#     Edge 33, Type (0, 0), None
#     Edge 34, Type (0, 0), None
#     Edge 35, Type (0, 0), None
#     Edge 36, Type (0, 0), None
#     Edge 37, Type (0, 0), None
#     Edge 38, Type (0, 0), None
#     Edge 39, Type (0, 0), None
#     Edge 40, Type (0, 0), None
#     Edge 41, Type (0, 0), None
#     Edge 42, Type (0, 0), None
#     Edge 43, Type (0, 0), None
#     Edge 44, Type (0, 0), None
#     Edge 45, Type (0, 0), None
#     Edge 46, Type (0, 0), None
#     Edge 47, Type (0, 0), None
#     Edge 48, Type (0, 0), None
#     Edge 49, Type (0, 0), None
#     Edge 50, Type (0, 0), None
#     Edge 51, Type (0, 0), None
#     Edge 52, Type (0, 0), None
#     Edge 53, Type (0, 0), None
#     Edge 54, Type (0, 0), None
#     Edge 55, Type (0, 0), None
#     Edge 56, Type (0, 0), None
#     Edge 57, Type (0, 0), None
#     Edge 58, Type (0, 0), None
#     Edge 59, Type (0, 0), None
#     Edge 60, Type (0, 0), None
#     Edge 61, Type (0, 0), None
#     Edge 62, Type (0, 0), None
#     Edge 63, Type (0, 0), None
#     Edge 64, Type (0, 0), None
#     Edge 65, Type (0, 0), None
#     Edge 66, Type (0, 0), None
#     Edge 67, Type (0, 0), None
#     Edge 68, Type (0, 0), None
#     Edge 69, Type (0, 0), None
#     Edge 70, Type (0, 0), None
#     Edge 71, Type (0, 0), None
# Relax obj value: 0.148
# Max RMSD: 0.221
# Mean RMSD: 0.221
data_MOF--net-xfb--node1-HICVOG_clean_sbu_0--edge1-none
_symmetry_space_group_name_H-M    P1
_symmetry_Int_Tables_number       1
_symmetry_cell_setting            triclinic
loop_
_symmetry_equiv_pos_as_xyz
'x, y, z'
_cell_length_a     28.251793
_cell_length_b     28.251758
_cell_length_c     11.70871
_cell_angle_alpha  90.00067
_cell_angle_beta   89.99284
_cell_angle_gamma 90.000003
loop_
_atom_site_label
_atom_site_type_symbol
_atom_site_fract_x
_atom_site_fract_y
_atom_site_fract_z
_atom_type_partial_charge
Zn0 Zn 0.13009 0.16845 0.17882 0.0
C1 C 0.23327 0.25567 0.25789 0.0
N2 N 0.20761 0.28648 0.19488 0.0
C3 C 0.16497 0.26494 0.18594 0.0
N4 N 0.16473 0.22267 0.23753 0.0
N5 N 0.20656 0.21734 0.28758 0.0
C6 C 0.28947 0.1147 0.49919 0.0
O7 O 0.25812 0.0804 0.50021 0.0
O8 O 0.06113 0.17194 0.12923 0.0
Zn9 Zn 0.21437 0.16332 0.39307 0.0
N10 N 0.16551 0.1505 0.0426 0.0
C11 C 0.23832 0.1274 0.95669 0.0
C12 C 0.21131 0.1364 0.05362 0.0
C13 C 0.14624 0.15798 0.93737 0.0
N14 N 0.21921 0.13502 0.85215 0.0
C15 C 0.17394 0.15067 0.83889 0.0
O16 O 0.20316 0.10048 0.31727 0.0
C17 C 0.16189 0.08684 0.29254 0.0
O18 O 0.12844 0.11609 0.29168 0.0
H19 H 0.22748 0.13373 0.13656 0.0
H20 H 0.11043 0.17126 0.93098 0.0
C21 C 0.18658 0.15913 0.6276 0.0
C22 C 0.15621 0.16177 0.72244 0.0
C23 C 0.09432 0.18689 0.59953 0.0
C24 C 0.12479 0.18396 0.5057 0.0
N25 N 0.17035 0.16984 0.52135 0.0
N26 N 0.11063 0.17575 0.70545 0.0
H27 H 0.22305 0.14901 0.63844 0.0
C28 C 0.03298 0.14239 0.17639 0.0
O29 O 0.03772 0.13389 0.28592 0.0
O30 O 0.27882 0.15504 0.4581 0.0
H31 H 0.1121 0.19275 0.42127 0.0
H32 H 0.27471 0.11586 0.96436 0.0
H33 H 0.05795 0.19794 0.58825 0.0
Zn34 Zn 0.59982 0.38011 0.42883 0.0
C35 C 0.5126 0.48329 0.50782 0.0
N36 N 0.4818 0.45763 0.44479 0.0
C37 C 0.50333 0.41499 0.43591 0.0
N38 N 0.54559 0.41474 0.48755 0.0
N39 N 0.55091 0.45658 0.53757 0.0
C40 C 0.65351 0.53946 0.7493 0.0
O41 O 0.6878 0.5081 0.75033 0.0
O42 O 0.59633 0.31115 0.37928 0.0
Zn43 Zn 0.60492 0.46439 0.64308 0.0
N44 N 0.61775 0.41552 0.29259 0.0
C45 C 0.64083 0.48834 0.20667 0.0
C46 C 0.63185 0.46132 0.3036 0.0
C47 C 0.61026 0.39625 0.18735 0.0
N48 N 0.63321 0.46922 0.10214 0.0
C49 C 0.61756 0.42395 0.08888 0.0
O50 O 0.66777 0.45321 0.56728 0.0
C51 C 0.68143 0.41195 0.54254 0.0
O52 O 0.65219 0.37849 0.54164 0.0
H53 H 0.63453 0.47749 0.38654 0.0
H54 H 0.59698 0.36044 0.18097 0.0
C55 C 0.60908 0.43659 0.8776 0.0
C56 C 0.60647 0.40622 0.97243 0.0
C57 C 0.58139 0.34432 0.84948 0.0
C58 C 0.58431 0.37479 0.75566 0.0
N59 N 0.5984 0.42036 0.77134 0.0
N60 N 0.59251 0.36063 0.95541 0.0
H61 H 0.61917 0.47307 0.88847 0.0
C62 C 0.6259 0.28302 0.42644 0.0
O63 O 0.63439 0.28777 0.53597 0.0
O64 O 0.61317 0.52884 0.70818 0.0
H65 H 0.57554 0.3621 0.67122 0.0
H66 H 0.65238 0.52472 0.21435 0.0
H67 H 0.57036 0.30794 0.83817 0.0
Zn68 Zn 0.38819 0.84987 0.67879 0.0
C69 C 0.28501 0.76265 0.75783 0.0
N70 N 0.31067 0.73185 0.6948 0.0
C71 C 0.35331 0.75339 0.68588 0.0
N72 N 0.35355 0.79565 0.73749 0.0
N73 N 0.31172 0.80098 0.78755 0.0
C74 C 0.22882 0.90358 0.99925 0.0
O75 O 0.26016 0.93788 1.00029 0.0
O76 O 0.45714 0.84639 0.62917 0.0
Zn77 Zn 0.30391 0.85499 0.89307 0.0
N78 N 0.35277 0.86782 0.54258 0.0
C79 C 0.27996 0.89094 0.4567 0.0
C80 C 0.30697 0.88194 0.55362 0.0
C81 C 0.37204 0.86033 0.43734 0.0
N82 N 0.29908 0.88331 0.35216 0.0
C83 C 0.34434 0.86764 0.33888 0.0
O84 O 0.31512 0.91784 0.81731 0.0
C85 C 0.35639 0.93148 0.79257 0.0
O86 O 0.38984 0.90223 0.79166 0.0
H87 H 0.29081 0.88463 0.63656 0.0
H88 H 0.40784 0.84704 0.43094 0.0
C89 C 0.3317 0.85917 0.1276 0.0
C90 C 0.36206 0.85654 0.22242 0.0
C91 C 0.42395 0.83141 0.09948 0.0
C92 C 0.39349 0.83434 1.00566 0.0
N93 N 0.34792 0.84846 0.02133 0.0
N94 N 0.40764 0.84255 0.2054 0.0
H95 H 0.29523 0.86929 0.13846 0.0
C96 C 0.48529 0.87592 0.67637 0.0
O97 O 0.48056 0.88438 0.78592 0.0
O98 O 0.23946 0.86325 0.95813 0.0
H99 H 0.40618 0.82555 0.92122 0.0
H100 H 0.24358 0.9025 0.46439 0.0
H101 H 0.46032 0.82035 0.08817 0.0
Zn102 Zn 0.91336 0.55394 0.14315 0.0
C103 C 0.01495 0.60333 0.93593 0.0
N104 N 0.03643 0.56065 0.94459 0.0
C105 C 1.00565 0.53502 1.00773 0.0
N106 N 0.96741 0.56179 0.03777 0.0
N107 N 0.97275 0.60366 0.9879 0.0
C108 C 0.89237 0.73528 0.92643 0.0
O109 O 0.88385 0.73053 0.03595 0.0
O110 O 0.90511 0.48949 0.20822 0.0
Zn111 Zn 0.91851 0.63819 0.92895 0.0
N112 N 0.91982 0.59795 0.27144 0.0
C113 C 0.9367 0.67402 0.34961 0.0
C114 C 0.93381 0.64356 0.25577 0.0
C115 C 0.90922 0.58169 0.37773 0.0
N116 N 0.92566 0.65767 0.45556 0.0
C117 C 0.91181 0.61205 0.47257 0.0
O118 O 0.86608 0.63982 0.04161 0.0
C119 C 0.83685 0.60634 0.04247 0.0
O120 O 0.85053 0.56508 0.06721 0.0
H121 H 0.94253 0.65628 0.17132 0.0
H122 H 0.89922 0.54518 0.3886 0.0
C123 C 0.90807 0.622 0.6875 0.0
C124 C 0.90083 0.59428 0.58906 0.0
C125 C 0.87779 0.52983 0.70691 0.0
C126 C 0.88671 0.55687 0.80382 0.0
N127 N 0.90068 0.60271 0.79276 0.0
N128 N 0.88532 0.54896 0.60236 0.0
H129 H 0.92123 0.65786 0.68108 0.0
C130 C 0.86478 0.47886 0.24936 0.0
O131 O 0.83049 0.51023 0.25042 0.0
O132 O 0.92195 0.70715 0.87929 0.0
H133 H 0.88409 0.5407 0.88678 0.0
H134 H 0.94765 0.71042 0.3383 0.0
H135 H 0.86635 0.49341 0.71463 0.0
Zn136 Zn 0.80392 0.85494 0.64842 0.0
C137 C 0.85328 0.75338 0.85574 0.0
N138 N 0.81061 0.73189 0.84703 0.0
C139 C 0.78498 0.76266 0.78386 0.0
N140 N 0.81176 0.80089 0.75383 0.0
N141 N 0.85362 0.79556 0.80371 0.0
C142 C 0.98526 0.8759 0.86511 0.0
O143 O 0.98053 0.8844 0.75557 0.0
O144 O 0.73947 0.86319 0.58337 0.0
Zn145 Zn 0.88817 0.8498 0.86262 0.0
N146 N 0.84793 0.84846 0.52012 0.0
C147 C 0.92399 0.83154 0.44191 0.0
C148 C 0.89353 0.83444 0.53576 0.0
C149 C 0.83167 0.85908 0.41384 0.0
N150 N 0.90764 0.8426 0.33598 0.0
C151 C 0.86203 0.85648 0.31899 0.0
O152 O 0.88982 0.90221 0.74992 0.0
C153 C 0.85635 0.93145 0.74903 0.0
O154 O 0.81509 0.91778 0.72432 0.0
H155 H 0.90625 0.82571 0.6202 0.0
H156 H 0.79517 0.8691 0.40299 0.0
C157 C 0.87198 0.86023 0.10406 0.0
C158 C 0.84427 0.8675 0.20252 0.0
C159 C 0.77984 0.89062 0.08472 0.0
C160 C 0.80687 0.88167 0.98779 0.0
N161 N 0.8527 0.86766 0.99882 0.0
N162 N 0.79897 0.88305 0.18926 0.0
H163 H 0.90783 0.84704 0.11045 0.0
C164 C 0.72885 0.90353 0.54223 0.0
O165 O 0.76022 0.93781 0.54119 0.0
O166 O 0.95712 0.84635 0.91226 0.0
H167 H 0.7907 0.88432 0.90484 0.0
H168 H 0.96039 0.82057 0.4532 0.0
H169 H 0.74343 0.90209 0.07703 0.0
Zn170 Zn 0.41333 0.55395 0.39827 0.0
C171 C 0.51491 0.60332 0.60551 0.0
N172 N 0.53638 0.56064 0.59687 0.0
C173 C 0.5056 0.53501 0.53374 0.0
N174 N 0.46738 0.56179 0.50367 0.0
N175 N 0.47272 0.60366 0.55354 0.0
C176 C 0.3924 0.73531 0.61508 0.0
O177 O 0.3838 0.7306 0.50559 0.0
O178 O 0.40506 0.48948 0.33326 0.0
Zn179 Zn 0.41848 0.6382 0.61247 0.0
N180 N 0.41982 0.59794 0.26994 0.0
C181 C 0.43678 0.67399 0.19174 0.0
C182 C 0.43387 0.64353 0.28559 0.0
C183 C 0.40918 0.58168 0.16368 0.0
N184 N 0.42571 0.65764 0.08581 0.0
C185 C 0.4118 0.61203 0.06882 0.0
O186 O 0.36608 0.63987 0.49975 0.0
C187 C 0.33684 0.60641 0.49887 0.0
O188 O 0.35049 0.56514 0.47415 0.0
H189 H 0.44261 0.65625 0.37002 0.0
H190 H 0.39912 0.54519 0.15283 0.0
C191 C 0.40804 0.622 0.8539 0.0
C192 C 0.40077 0.59428 0.95235 0.0
C193 C 0.37765 0.52986 0.83451 0.0
C194 C 0.38659 0.55689 0.7376 0.0
N195 N 0.40061 0.60272 0.74865 0.0
N196 N 0.38521 0.54898 0.93906 0.0
H197 H 0.42124 0.65784 0.86031 0.0
C198 C 0.36473 0.47884 0.29217 0.0
O199 O 0.33043 0.5102 0.29112 0.0
O200 O 0.42194 0.70715 0.66218 0.0
H201 H 0.38394 0.54073 0.65464 0.0
H202 H 0.44778 0.71037 0.20303 0.0
H203 H 0.36617 0.49345 0.82681 0.0
Zn204 Zn 0.71437 0.16338 0.14835 0.0
C205 C 0.665 0.26494 0.3557 0.0
N206 N 0.70767 0.28643 0.34699 0.0
C207 C 0.73329 0.25567 0.2838 0.0
N208 N 0.70652 0.21743 0.25376 0.0
N209 N 0.66466 0.22276 0.30365 0.0
C210 C 0.53303 0.14241 0.36511 0.0
O211 O 0.53778 0.13389 0.25558 0.0
O212 O 0.77883 0.15513 0.08327 0.0
Zn213 Zn 0.63011 0.16852 0.36259 0.0
N214 N 0.67036 0.16985 1.02008 0.0
C215 C 0.59429 0.18676 0.94193 0.0
C216 C 0.62476 0.18386 0.03575 0.0
C217 C 0.68662 0.15923 0.91379 0.0
N218 N 0.61064 0.1757 0.83598 0.0
C219 C 0.65626 0.16183 0.81896 0.0
O220 O 0.62849 0.1161 0.2499 0.0
C221 C 0.66196 0.08688 0.24903 0.0
O222 O 0.70322 0.10055 0.22428 0.0
H223 H 0.61204 0.19259 0.1202 0.0
H224 H 0.72312 0.14922 0.90292 0.0
C225 C 0.6463 0.15808 0.60403 0.0
C226 C 0.67402 0.15083 0.70247 0.0
C227 C 0.73846 0.12775 0.58461 0.0
C228 C 0.71142 0.13669 0.48771 0.0
N229 N 0.66559 0.15067 0.49878 0.0
N230 N 0.71933 0.1353 0.68917 0.0
H231 H 0.61045 0.17126 0.61046 0.0
C232 C 0.78945 0.11479 0.04215 0.0
O233 O 0.75809 0.08051 0.04112 0.0
O234 O 0.56116 0.17197 0.41224 0.0
H235 H 0.72759 0.13406 0.40475 0.0
H236 H 0.5579 0.19772 0.95324 0.0
H237 H 0.77488 0.1163 0.57689 0.0
Zn238 Zn 0.09986 0.38012 0.11266 0.0
C239 C 0.01266 0.48331 0.03366 0.0
N240 N 0.98184 0.45764 0.09666 0.0
C241 C 1.00338 0.415 0.10555 0.0
N242 N 0.04564 0.41476 0.05395 0.0
N243 N 0.05098 0.45659 1.00392 0.0
C244 C 0.1536 0.53949 0.79225 0.0
O245 O 0.18791 0.50815 0.79122 0.0
O246 O 0.09637 0.31117 0.16228 0.0
Zn247 Zn 0.105 0.4644 0.89841 0.0
N248 N 0.11781 0.41555 0.24886 0.0
C249 C 0.1409 0.48836 0.33476 0.0
C250 C 0.13191 0.46135 0.23783 0.0
C251 C 0.11033 0.39628 0.35411 0.0
N252 N 0.13329 0.46925 0.4393 0.0
C253 C 0.11764 0.42398 0.45257 0.0
O254 O 0.16784 0.45319 0.97418 0.0
C255 C 0.18148 0.41191 0.99891 0.0
O256 O 0.15222 0.37847 0.99979 0.0
H257 H 0.13459 0.47752 0.15489 0.0
H258 H 0.09705 0.36047 0.36051 0.0
C259 C 0.10918 0.43661 0.66387 0.0
C260 C 0.10655 0.40625 0.56903 0.0
C261 C 0.08143 0.34436 0.69196 0.0
C262 C 0.08436 0.37482 0.78579 0.0
N263 N 0.09848 0.42039 0.77013 0.0
N264 N 0.09256 0.36067 0.58604 0.0
H265 H 0.11929 0.47309 0.65301 0.0
C266 C 0.1259 0.28301 0.11512 0.0
O267 O 0.13448 0.28772 1.00562 0.0
O268 O 0.11327 0.52885 0.83336 0.0
H269 H 0.07557 0.36213 0.87023 0.0
H270 H 0.15245 0.52475 0.32706 0.0
H271 H 0.07038 0.30799 0.70326 0.0
Zn272 Zn 0.63008 0.66844 0.67888 0.0
C273 C 0.73327 0.75565 0.7579 0.0
N274 N 0.70761 0.78646 0.69492 0.0
C275 C 0.66497 0.76493 0.686 0.0
N276 N 0.66473 0.72266 0.73759 0.0
N277 N 0.70656 0.71733 0.78762 0.0
C278 C 0.78947 0.61469 0.99923 0.0
O279 O 0.75813 0.58038 1.00026 0.0
O280 O 0.56112 0.67194 0.62927 0.0
Zn281 Zn 0.71436 0.66331 0.89312 0.0
N282 N 0.66551 0.65049 0.54266 0.0
C283 C 0.73832 0.62739 0.45675 0.0
C284 C 0.71131 0.63639 0.55368 0.0
C285 C 0.64624 0.65798 0.43743 0.0
N286 N 0.7192 0.63501 0.35222 0.0
C287 C 0.67394 0.65066 0.33896 0.0
O288 O 0.70315 0.60047 0.81734 0.0
C289 C 0.66188 0.58683 0.79261 0.0
O290 O 0.62843 0.61609 0.79174 0.0
H291 H 0.72747 0.63371 0.63662 0.0
H292 H 0.61043 0.67126 0.43104 0.0
C293 C 0.68658 0.65912 0.12766 0.0
C294 C 0.65621 0.66176 0.2225 0.0
C295 C 0.59432 0.68689 0.0996 0.0
C296 C 0.62479 0.68396 1.00576 0.0
N297 N 0.67035 0.66983 0.02141 0.0
N298 N 0.61063 0.67575 0.20552 0.0
H299 H 0.72305 0.649 0.1385 0.0
C300 C 0.53297 0.64239 0.67639 0.0
O301 O 0.53769 0.63378 0.78587 0.0
O302 O 0.77882 0.65502 0.95814 0.0
H303 H 0.6121 0.69275 0.92133 0.0
H304 H 0.7747 0.61584 0.46443 0.0
H305 H 0.55796 0.69795 0.08831 0.0
Zn306 Zn 0.09983 0.88011 0.92877 0.0
C307 C 0.01261 0.9833 1.00779 0.0
N308 N 0.98181 0.95764 0.94473 0.0
C309 C 1.00336 0.91501 0.93576 0.0
N310 N 0.0456 0.91475 0.98745 0.0
N311 N 0.05092 0.95658 0.03752 0.0
C312 C 0.15352 0.03946 0.24925 0.0
O313 O 0.18781 1.0081 0.25027 0.0
O314 O 0.09634 0.81115 0.87921 0.0
Zn315 Zn 0.10493 0.96439 0.14304 0.0
N316 N 0.11778 0.91551 0.79253 0.0
C317 C 0.14089 0.98832 0.7066 0.0
C318 C 0.1319 0.96131 0.80354 0.0
C319 C 0.11028 0.89624 0.6873 0.0
N320 N 0.13326 0.9692 0.60207 0.0
C321 C 0.11759 0.92394 0.58882 0.0
O322 O 0.16778 0.9532 0.06725 0.0
C323 C 0.18143 0.91193 0.04251 0.0
O324 O 0.15219 0.87848 0.04161 0.0
H325 H 0.13459 0.97748 0.88647 0.0
H326 H 0.09698 0.86044 0.68092 0.0
C327 C 0.1091 0.93658 0.37755 0.0
C328 C 0.10648 0.90621 0.47237 0.0
C329 C 0.08137 0.84432 0.34944 0.0
C330 C 0.08429 0.87479 0.25562 0.0
N331 N 0.0984 0.92036 0.27129 0.0
N332 N 0.09251 0.86063 0.45536 0.0
H333 H 0.11921 0.97306 0.38841 0.0
C334 C 0.1259 0.78302 0.92637 0.0
O335 O 0.13439 0.78776 0.03591 0.0
O336 O 0.11319 0.02883 0.20813 0.0
H337 H 0.07551 0.8621 0.17118 0.0
H338 H 0.15246 0.0247 0.71428 0.0
H339 H 0.07033 0.80795 0.33813 0.0
Zn340 Zn 0.88819 0.34988 0.17885 0.0
C341 C 0.78501 0.26267 0.25785 0.0
N342 N 0.81067 0.23186 0.19484 0.0
C343 C 0.85331 0.25339 0.18593 0.0
N344 N 0.85356 0.29566 0.23755 0.0
N345 N 0.81172 0.30099 0.28759 0.0
C346 C 0.72882 0.40359 0.49929 0.0
O347 O 0.76016 0.4379 0.50033 0.0
O348 O 0.95714 0.34639 0.12921 0.0
Zn349 Zn 0.80392 0.355 0.39312 0.0
N350 N 0.85277 0.36783 0.04264 0.0
C351 C 0.77997 0.39096 0.95676 0.0
C352 C 0.80698 0.38196 0.05368 0.0
C353 C 0.87204 0.36034 0.9374 0.0
N354 N 0.79908 0.38332 0.85222 0.0
C355 C 0.84434 0.36765 0.83894 0.0
O356 O 0.81513 0.41785 0.31737 0.0
C357 C 0.8564 0.43149 0.29264 0.0
O358 O 0.88985 0.40223 0.29173 0.0
H359 H 0.79081 0.38465 0.13662 0.0
H360 H 0.90784 0.34704 0.931 0.0
C361 C 0.8317 0.35918 0.62766 0.0
C362 C 0.86206 0.35654 0.72248 0.0
C363 C 0.92395 0.3314 0.59954 0.0
C364 C 0.89349 0.33433 0.50572 0.0
N365 N 0.84792 0.34846 0.52139 0.0
N366 N 0.90764 0.34255 0.70547 0.0
H367 H 0.79523 0.3693 0.63852 0.0
C368 C 0.98531 0.37592 0.17637 0.0
O369 O 0.98059 0.38449 0.28587 0.0
O370 O 0.73946 0.36326 0.45818 0.0
H371 H 0.90618 0.32555 0.42128 0.0
H372 H 0.74359 0.40252 0.96446 0.0
H373 H 0.96032 0.32034 0.58823 0.0
Zn374 Zn 0.41335 0.05394 0.6431 0.0
C375 C 0.51492 0.10331 0.43579 0.0
N376 N 0.53642 0.06064 0.44453 0.0
C377 C 0.50565 0.03501 0.5077 0.0
N378 N 0.4674 0.06178 0.53771 0.0
N379 N 0.47273 0.10365 0.4878 0.0
C380 C 0.39237 0.23528 0.42637 0.0
O381 O 0.38385 0.23054 0.53589 0.0
O382 O 0.4051 0.98949 0.70817 0.0
Zn383 Zn 0.4185 0.1382 0.42889 0.0
N384 N 0.41982 0.09796 0.77139 0.0
C385 C 0.43672 0.17402 0.84956 0.0
C386 C 0.43382 0.14356 0.75572 0.0
C387 C 0.4092 0.08169 0.87768 0.0
N388 N 0.42567 0.15767 0.95551 0.0
C389 C 0.4118 0.11205 0.97252 0.0
O390 O 0.36607 0.13983 0.54158 0.0
C391 C 0.33685 0.10635 0.54245 0.0
O392 O 0.35052 0.06509 0.56719 0.0
H393 H 0.44255 0.15628 0.67128 0.0
H394 H 0.39919 0.04519 0.88854 0.0
C395 C 0.40806 0.12201 0.18745 0.0
C396 C 0.4008 0.09429 0.089 0.0
C397 C 0.37773 0.02984 0.20684 0.0
C398 C 0.38666 0.05688 0.30376 0.0
N399 N 0.40065 0.10272 0.2927 0.0
N400 N 0.38527 0.04898 0.10229 0.0
H401 H 0.42123 0.15786 0.18103 0.0
C402 C 0.36476 0.97886 0.74931 0.0
O403 O 0.33048 0.01022 0.75036 0.0
O404 O 0.42194 0.20715 0.37923 0.0
H405 H 0.38403 0.04072 0.38671 0.0
H406 H 0.44768 0.21042 0.83826 0.0
H407 H 0.36627 0.99343 0.21455 0.0
Zn408 Zn 0.30392 0.35495 0.14837 0.0
C409 C 0.35328 0.25339 0.35569 0.0
N410 N 0.3106 0.2319 0.347 0.0
C411 C 0.28498 0.26268 0.28385 0.0
N412 N 0.31176 0.30091 0.25378 0.0
N413 N 0.35362 0.29557 0.30366 0.0
C414 C 0.48527 0.3759 0.36511 0.0
O415 O 0.48056 0.38451 0.25562 0.0
O416 O 0.23947 0.3632 0.08333 0.0
Zn417 Zn 0.38817 0.34981 0.36256 0.0
N418 N 0.34793 0.34846 1.02006 0.0
C419 C 0.42399 0.33154 0.94185 0.0
C420 C 0.39353 0.33444 0.0357 0.0
C421 C 0.33167 0.35909 0.91378 0.0
N422 N 0.40764 0.3426 0.83592 0.0
C423 C 0.36203 0.35648 0.81893 0.0
O424 O 0.38983 0.40222 0.24985 0.0
C425 C 0.35636 0.43145 0.24896 0.0
O426 O 0.3151 0.41779 0.22425 0.0
H427 H 0.40625 0.32571 0.12014 0.0
H428 H 0.29518 0.36911 0.90294 0.0
C429 C 0.37199 0.36024 0.604 0.0
C430 C 0.34427 0.3675 0.70246 0.0
C431 C 0.27984 0.39063 0.58465 0.0
C432 C 0.30687 0.38169 0.48773 0.0
N433 N 0.3527 0.36767 0.49876 0.0
N434 N 0.29897 0.38306 0.68919 0.0
H435 H 0.40783 0.34704 0.61039 0.0
C436 C 0.22885 0.40354 0.0422 0.0
O437 O 0.26022 0.43782 0.04114 0.0
O438 O 0.45712 0.34635 0.41221 0.0
H439 H 0.29071 0.38434 0.40478 0.0
H440 H 0.46038 0.32056 0.95314 0.0
H441 H 0.24343 0.40211 0.57697 0.0
Zn442 Zn 0.91332 0.05395 0.89831 0.0
C443 C 0.01489 0.1033 0.10565 0.0
N444 N 0.03637 0.06063 0.09693 0.0
C445 C 1.00559 0.035 0.03377 0.0
N446 N 0.96737 0.06178 1.00373 0.0
N447 N 0.9727 0.10365 0.05363 0.0
C448 C 0.8924 0.23532 0.11514 0.0
O449 O 0.8838 0.23061 1.00565 0.0
O450 O 0.90505 0.98949 0.83331 0.0
Zn451 Zn 0.91847 0.13821 0.11253 0.0
N452 N 0.91982 0.09794 0.76999 0.0
C453 C 0.9368 0.17398 0.69179 0.0
C454 C 0.93388 0.14352 0.78563 0.0
C455 C 0.90917 0.08169 0.66373 0.0
N456 N 0.92571 0.15764 0.58586 0.0
C457 C 0.91179 0.11204 0.56888 0.0
O458 O 0.86608 0.13988 0.99978 0.0
C459 C 0.83684 0.10642 0.99889 0.0
O460 O 0.85048 0.06515 0.97418 0.0
H461 H 0.94264 0.15624 0.87006 0.0
H462 H 0.89909 0.0452 0.65289 0.0
C463 C 0.90802 0.12201 0.35395 0.0
C464 C 0.90075 0.09429 0.45241 0.0
C465 C 0.87759 0.02988 0.33458 0.0
C466 C 0.88654 0.05691 0.23766 0.0
N467 N 0.90058 0.10273 0.24871 0.0
N468 N 0.88517 0.049 0.43913 0.0
H469 H 0.92124 0.15784 0.36036 0.0
C470 C 0.86471 0.97884 0.79223 0.0
O471 O 0.83041 0.01019 0.79118 0.0
O472 O 0.92193 0.20715 0.16224 0.0
H473 H 0.88389 0.04075 0.15471 0.0
H474 H 0.94781 0.21037 0.70307 0.0
H475 H 0.86609 0.99347 0.32688 0.0
Zn476 Zn 0.21437 0.66337 0.6483 0.0
C477 C 0.16499 0.76493 0.85564 0.0
N478 N 0.20767 0.78642 0.84696 0.0
C479 C 0.2333 0.75565 0.78379 0.0
N480 N 0.20652 0.71742 0.75371 0.0
N481 N 0.16465 0.72275 0.8036 0.0
C482 C 0.03301 0.64241 0.86511 0.0
O483 O 0.03775 0.63379 0.75563 0.0
O484 O 0.27882 0.65512 0.58323 0.0
Zn485 Zn 0.13011 0.66852 0.86253 0.0
N486 N 0.17036 0.66985 0.52002 0.0
C487 C 0.0943 0.68676 0.44186 0.0
C488 C 0.12476 0.68386 0.53569 0.0
C489 C 0.18662 0.65923 0.41373 0.0
N490 N 0.11064 0.6757 0.33592 0.0
C491 C 0.15626 0.66183 0.3189 0.0
O492 O 0.12848 0.6161 0.74984 0.0
C493 C 0.16195 0.58687 0.74896 0.0
O494 O 0.20321 0.60054 0.72421 0.0
H495 H 0.11204 0.69259 0.62014 0.0
H496 H 0.22312 0.6492 0.40286 0.0
C497 C 0.1463 0.65808 0.10397 0.0
C498 C 0.17402 0.65082 0.20241 0.0
C499 C 0.23846 0.62774 0.08455 0.0
C500 C 0.21142 0.63667 0.98764 0.0
N501 N 0.16558 0.65066 0.99871 0.0
N502 N 0.21933 0.63529 0.18911 0.0
H503 H 0.11045 0.67126 0.1104 0.0
C504 C 0.28945 0.61478 0.54212 0.0
O505 O 0.25809 0.58049 0.54107 0.0
O506 O 0.06116 0.67197 0.9122 0.0
H507 H 0.22759 0.63404 0.90469 0.0
H508 H 0.0579 0.69773 0.45318 0.0
H509 H 0.27487 0.61628 0.07683 0.0
Zn510 Zn 0.59988 0.88012 0.61272 0.0
C511 C 0.51266 0.98331 0.5337 0.0
N512 N 0.48185 0.95765 0.59672 0.0
C513 C 0.5034 0.91502 0.6057 0.0
N514 N 0.54566 0.91477 0.55404 0.0
N515 N 0.55099 0.95659 0.50398 0.0
C516 C 0.65362 0.03949 0.29231 0.0
O517 O 0.68793 1.00815 0.29128 0.0
O518 O 0.59637 0.81117 0.66234 0.0
Zn519 Zn 0.60501 0.96439 0.39845 0.0
N520 N 0.61784 0.91554 0.74892 0.0
C521 C 0.64097 0.98834 0.83483 0.0
C522 C 0.63196 0.96134 0.7379 0.0
C523 C 0.61035 0.89627 0.85416 0.0
N524 N 0.63334 0.96923 0.93936 0.0
C525 C 0.61766 0.92397 0.95263 0.0
O526 O 0.66785 0.95318 0.47421 0.0
C527 C 0.68148 0.9119 0.49893 0.0
O528 O 0.65222 0.87846 0.49982 0.0
H529 H 0.63465 0.9775 0.65496 0.0
H530 H 0.59705 0.86047 0.86056 0.0
C531 C 0.60919 0.93661 0.16392 0.0
C532 C 0.60656 0.90625 0.06909 0.0
C533 C 0.58141 0.84436 0.19201 0.0
C534 C 0.58434 0.87483 0.28584 0.0
N535 N 0.59848 0.92039 0.27018 0.0
N536 N 0.59256 0.86067 0.08609 0.0
H537 H 0.61933 0.97308 0.15307 0.0
C538 C 0.6259 0.783 0.61519 0.0
O539 O 0.63448 0.78771 0.50568 0.0
O540 O 0.61328 0.02885 0.33341 0.0
H541 H 0.57555 0.86214 0.37027 0.0
H542 H 0.65253 0.02472 0.82714 0.0
H543 H 0.57034 0.80799 0.20331 0.0
loop_
_geom_bond_atom_site_label_1
_geom_bond_atom_site_label_2
_geom_bond_distance
_geom_bond_site_symmetry_2
_ccdc_geom_bond_type
Zn0 N4 2.020 . S
Zn0 O8 2.019 . S
Zn0 N10 2.119 1_554 S
Zn0 O18 1.975 . S
C1 N2 1.334 . S
C1 N5 1.336 . S
N2 C1 1.334 . S
N2 C3 1.334 . S
C3 N2 1.334 . S
C3 N4 1.336 . S
N4 Zn0 2.020 . S
N4 C3 1.336 . S
N4 N5 1.354 . S
N5 C1 1.336 . S
N5 N4 1.354 . S
N5 Zn9 2.020 . S
C6 O7 1.244 . S
C6 O30 1.257 . S
O7 C6 1.244 . S
O8 Zn0 2.019 . S
O8 C28 1.257 . S
Zn9 N5 2.020 . S
Zn9 O16 1.975 . S
Zn9 N25 2.119 . S
Zn9 O30 2.019 . S
N10 Zn0 2.119 1_556 S
N10 C12 1.334 . S
N10 C13 1.328 . S
C11 C12 1.391 . S
C11 N14 1.329 . S
C11 H32 0.930 . S
C12 N10 1.334 . S
C12 C11 1.391 . S
C12 H19 0.930 1_556 S
C13 N10 1.328 . S
C13 C15 1.392 . S
C13 H20 0.930 . S
N14 C11 1.329 . S
N14 C15 1.331 . S
C15 C13 1.392 . S
C15 N14 1.331 . S
O16 Zn9 1.975 . S
O16 C17 1.252 . S
C17 O16 1.252 . S
C17 O18 1.252 . S
O18 Zn0 1.975 . S
O18 C17 1.252 . S
H19 C12 0.930 1_554 S
H20 C13 0.930 . S
C21 C22 1.392 . S
C21 N25 1.328 . S
C21 H27 0.930 . S
C22 C21 1.392 . S
C22 N26 1.331 . S
C23 C24 1.391 . S
C23 N26 1.329 . S
C23 H33 0.930 . S
C24 C23 1.391 . S
C24 N25 1.334 . S
C24 H31 0.930 . S
N25 Zn9 2.119 . S
N25 C21 1.328 . S
N25 C24 1.334 . S
N26 C22 1.331 . S
N26 C23 1.329 . S
H27 C21 0.930 . S
C28 O8 1.257 . S
C28 O29 1.244 . S
O29 C28 1.244 . S
O30 C6 1.257 . S
O30 Zn9 2.019 . S
H31 C24 0.930 . S
H32 C11 0.930 . S
H33 C23 0.930 . S
Zn34 N38 2.020 . S
Zn34 O42 2.019 . S
Zn34 N44 2.119 . S
Zn34 O52 1.975 . S
C35 N36 1.334 . S
C35 N39 1.336 . S
N36 C35 1.334 . S
N36 C37 1.334 . S
C37 N36 1.334 . S
C37 N38 1.336 . S
N38 Zn34 2.020 . S
N38 C37 1.336 . S
N38 N39 1.354 . S
N39 C35 1.336 . S
N39 N38 1.354 . S
N39 Zn43 2.020 . S
C40 O41 1.244 . S
C40 O64 1.257 . S
O41 C40 1.244 . S
O42 Zn34 2.019 . S
O42 C62 1.257 . S
Zn43 N39 2.020 . S
Zn43 O50 1.975 . S
Zn43 N59 2.119 . S
Zn43 O64 2.019 . S
N44 Zn34 2.119 . S
N44 C46 1.334 . S
N44 C47 1.328 . S
C45 C46 1.391 . S
C45 N48 1.329 . S
C45 H66 0.930 . S
C46 N44 1.334 . S
C46 C45 1.391 . S
C46 H53 0.930 . S
C47 N44 1.328 . S
C47 C49 1.392 . S
C47 H54 0.930 . S
N48 C45 1.329 . S
N48 C49 1.331 . S
C49 C47 1.392 . S
C49 N48 1.331 . S
O50 Zn43 1.975 . S
O50 C51 1.252 . S
C51 O50 1.252 . S
C51 O52 1.252 . S
O52 Zn34 1.975 . S
O52 C51 1.252 . S
H53 C46 0.930 . S
H54 C47 0.930 . S
C55 C56 1.392 . S
C55 N59 1.328 . S
C55 H61 0.930 . S
C56 C55 1.392 . S
C56 N60 1.331 . S
C57 C58 1.391 . S
C57 N60 1.329 . S
C57 H67 0.930 . S
C58 C57 1.391 . S
C58 N59 1.334 . S
C58 H65 0.930 . S
N59 Zn43 2.119 . S
N59 C55 1.328 . S
N59 C58 1.334 . S
N60 C56 1.331 . S
N60 C57 1.329 . S
H61 C55 0.930 . S
C62 O42 1.257 . S
C62 O63 1.244 . S
O63 C62 1.244 . S
O64 C40 1.257 . S
O64 Zn43 2.019 . S
H65 C58 0.930 . S
H66 C45 0.930 . S
H67 C57 0.930 . S
Zn68 N72 2.020 . S
Zn68 O76 2.019 . S
Zn68 N78 2.119 . S
Zn68 O86 1.975 . S
C69 N70 1.334 . S
C69 N73 1.336 . S
N70 C69 1.334 . S
N70 C71 1.334 . S
C71 N70 1.334 . S
C71 N72 1.336 . S
N72 Zn68 2.020 . S
N72 C71 1.336 . S
N72 N73 1.354 . S
N73 C69 1.336 . S
N73 N72 1.354 . S
N73 Zn77 2.020 . S
C74 O75 1.244 . S
C74 O98 1.257 . S
O75 C74 1.244 . S
O76 Zn68 2.019 . S
O76 C96 1.257 . S
Zn77 N73 2.020 . S
Zn77 O84 1.975 . S
Zn77 N93 2.119 . S
Zn77 O98 2.019 . S
N78 Zn68 2.119 . S
N78 C80 1.334 . S
N78 C81 1.328 . S
C79 C80 1.391 . S
C79 N82 1.329 . S
C79 H100 0.930 . S
C80 N78 1.334 . S
C80 C79 1.391 . S
C80 H87 0.930 . S
C81 N78 1.328 . S
C81 C83 1.392 . S
C81 H88 0.930 . S
N82 C79 1.329 . S
N82 C83 1.331 . S
C83 C81 1.392 . S
C83 N82 1.331 . S
O84 Zn77 1.975 . S
O84 C85 1.252 . S
C85 O84 1.252 . S
C85 O86 1.252 . S
O86 Zn68 1.975 . S
O86 C85 1.252 . S
H87 C80 0.930 . S
H88 C81 0.930 . S
C89 C90 1.392 . S
C89 N93 1.328 1_554 S
C89 H95 0.930 . S
C90 C89 1.392 . S
C90 N94 1.331 . S
C91 C92 1.391 1_554 S
C91 N94 1.329 . S
C91 H101 0.930 . S
C92 C91 1.391 1_556 S
C92 N93 1.334 . S
C92 H99 0.930 . S
N93 Zn77 2.119 . S
N93 C89 1.328 1_556 S
N93 C92 1.334 . S
N94 C90 1.331 . S
N94 C91 1.329 . S
H95 C89 0.930 . S
C96 O76 1.257 . S
C96 O97 1.244 . S
O97 C96 1.244 . S
O98 C74 1.257 . S
O98 Zn77 2.019 . S
H99 C92 0.930 . S
H100 C79 0.930 . S
H101 C91 0.930 . S
Zn102 N106 2.020 . S
Zn102 O110 2.019 . S
Zn102 N112 2.119 . S
Zn102 O120 1.975 . S
C103 N104 1.338 . S
C103 N107 1.328 1_455 S
N104 C103 1.338 . S
N104 C105 1.334 1_456 S
C105 N104 1.334 1_654 S
C105 N106 1.336 . S
N106 Zn102 2.020 . S
N106 C105 1.336 . S
N106 N107 1.354 1_554 S
N107 C103 1.328 1_655 S
N107 N106 1.354 1_556 S
N107 Zn111 2.020 . S
C108 O109 1.244 . S
C108 O132 1.257 . S
O109 C108 1.244 . S
O110 Zn102 2.019 . S
O110 C130 1.257 . S
Zn111 N107 2.020 . S
Zn111 O118 1.975 . S
Zn111 N127 2.119 . S
Zn111 O132 2.019 . S
N112 Zn102 2.119 . S
N112 C114 1.334 . S
N112 C115 1.328 . S
C113 C114 1.391 . S
C113 N116 1.329 . S
C113 H134 0.930 . S
C114 N112 1.334 . S
C114 C113 1.391 . S
C114 H121 0.930 . S
C115 N112 1.328 . S
C115 C117 1.392 . S
C115 H122 0.930 . S
N116 C113 1.329 . S
N116 C117 1.331 . S
C117 C115 1.392 . S
C117 N116 1.331 . S
O118 Zn111 1.975 . S
O118 C119 1.252 . S
C119 O118 1.252 . S
C119 O120 1.252 1_556 S
O120 Zn102 1.975 . S
O120 C119 1.252 1_554 S
H121 C114 0.930 . S
H122 C115 0.930 . S
C123 C124 1.392 . S
C123 N127 1.328 . S
C123 H129 0.930 . S
C124 C123 1.392 . S
C124 N128 1.331 . S
C125 C126 1.391 . S
C125 N128 1.329 . S
C125 H135 0.930 . S
C126 C125 1.391 . S
C126 N127 1.334 . S
C126 H133 0.930 . S
N127 Zn111 2.119 . S
N127 C123 1.328 . S
N127 C126 1.334 . S
N128 C124 1.331 . S
N128 C125 1.329 . S
H129 C123 0.930 . S
C130 O110 1.257 . S
C130 O131 1.244 . S
O131 C130 1.244 . S
O132 C108 1.257 . S
O132 Zn111 2.019 . S
H133 C126 0.930 . S
H134 C113 0.930 . S
H135 C125 0.930 . S
Zn136 N140 2.020 . S
Zn136 O144 2.019 . S
Zn136 N146 2.119 . S
Zn136 O154 1.975 . S
C137 N138 1.334 . S
C137 N141 1.336 . S
N138 C137 1.334 . S
N138 C139 1.334 . S
C139 N138 1.334 . S
C139 N140 1.336 . S
N140 Zn136 2.020 . S
N140 C139 1.336 . S
N140 N141 1.354 . S
N141 C137 1.336 . S
N141 N140 1.354 . S
N141 Zn145 2.020 . S
C142 O143 1.244 . S
C142 O166 1.257 . S
O143 C142 1.244 . S
O144 Zn136 2.019 . S
O144 C164 1.257 . S
Zn145 N141 2.020 . S
Zn145 O152 1.975 . S
Zn145 N161 2.119 1_556 S
Zn145 O166 2.019 . S
N146 Zn136 2.119 . S
N146 C148 1.334 . S
N146 C149 1.328 . S
C147 C148 1.391 . S
C147 N150 1.329 . S
C147 H168 0.930 . S
C148 N146 1.334 . S
C148 C147 1.391 . S
C148 H155 0.930 . S
C149 N146 1.328 . S
C149 C151 1.392 . S
C149 H156 0.930 . S
N150 C147 1.329 . S
N150 C151 1.331 . S
C151 C149 1.392 . S
C151 N150 1.331 . S
O152 Zn145 1.975 . S
O152 C153 1.252 . S
C153 O152 1.252 . S
C153 O154 1.252 . S
O154 Zn136 1.975 . S
O154 C153 1.252 . S
H155 C148 0.930 . S
H156 C149 0.930 . S
C157 C158 1.392 . S
C157 N161 1.328 . S
C157 H163 0.930 . S
C158 C157 1.392 . S
C158 N162 1.331 . S
C159 C160 1.391 . S
C159 N162 1.329 . S
C159 H169 0.930 . S
C160 C159 1.391 . S
C160 N161 1.334 . S
C160 H167 0.930 1_554 S
N161 Zn145 2.119 1_554 S
N161 C157 1.328 . S
N161 C160 1.334 . S
N162 C158 1.331 . S
N162 C159 1.329 . S
H163 C157 0.930 . S
C164 O144 1.257 . S
C164 O165 1.244 . S
O165 C164 1.244 . S
O166 C142 1.257 . S
O166 Zn145 2.019 . S
H167 C160 0.930 1_556 S
H168 C147 0.930 . S
H169 C159 0.930 . S
Zn170 N174 2.020 . S
Zn170 O178 2.019 . S
Zn170 N180 2.119 . S
Zn170 O188 1.975 . S
C171 N172 1.334 . S
C171 N175 1.336 . S
N172 C171 1.334 . S
N172 C173 1.334 . S
C173 N172 1.334 . S
C173 N174 1.336 . S
N174 Zn170 2.020 . S
N174 C173 1.336 . S
N174 N175 1.354 . S
N175 C171 1.336 . S
N175 N174 1.354 . S
N175 Zn179 2.020 . S
C176 O177 1.244 . S
C176 O200 1.257 . S
O177 C176 1.244 . S
O178 Zn170 2.019 . S
O178 C198 1.257 . S
Zn179 N175 2.020 . S
Zn179 O186 1.975 . S
Zn179 N195 2.119 . S
Zn179 O200 2.019 . S
N180 Zn170 2.119 . S
N180 C182 1.334 . S
N180 C183 1.328 . S
C181 C182 1.391 . S
C181 N184 1.329 . S
C181 H202 0.930 . S
C182 N180 1.334 . S
C182 C181 1.391 . S
C182 H189 0.930 . S
C183 N180 1.328 . S
C183 C185 1.392 . S
C183 H190 0.930 . S
N184 C181 1.329 . S
N184 C185 1.331 . S
C185 C183 1.392 . S
C185 N184 1.331 . S
O186 Zn179 1.975 . S
O186 C187 1.252 . S
C187 O186 1.252 . S
C187 O188 1.252 . S
O188 Zn170 1.975 . S
O188 C187 1.252 . S
H189 C182 0.930 . S
H190 C183 0.930 . S
C191 C192 1.392 . S
C191 N195 1.328 . S
C191 H197 0.930 . S
C192 C191 1.392 . S
C192 N196 1.331 . S
C193 C194 1.391 . S
C193 N196 1.329 . S
C193 H203 0.930 . S
C194 C193 1.391 . S
C194 N195 1.334 . S
C194 H201 0.930 . S
N195 Zn179 2.119 . S
N195 C191 1.328 . S
N195 C194 1.334 . S
N196 C192 1.331 . S
N196 C193 1.329 . S
H197 C191 0.930 . S
C198 O178 1.257 . S
C198 O199 1.244 . S
O199 C198 1.244 . S
O200 C176 1.257 . S
O200 Zn179 2.019 . S
H201 C194 0.930 . S
H202 C181 0.930 . S
H203 C193 0.930 . S
Zn204 N208 2.020 . S
Zn204 O212 2.019 . S
Zn204 N214 2.119 . S
Zn204 O222 1.975 . S
C205 N206 1.334 . S
C205 N209 1.336 . S
N206 C205 1.334 . S
N206 C207 1.334 . S
C207 N206 1.334 . S
C207 N208 1.336 . S
N208 Zn204 2.020 . S
N208 C207 1.336 . S
N208 N209 1.354 . S
N209 C205 1.336 . S
N209 N208 1.354 . S
N209 Zn213 2.020 . S
C210 O211 1.244 . S
C210 O234 1.257 . S
O211 C210 1.244 . S
O212 Zn204 2.019 . S
O212 C232 1.257 . S
Zn213 N209 2.020 . S
Zn213 O220 1.975 . S
Zn213 N229 2.119 . S
Zn213 O234 2.019 . S
N214 Zn204 2.119 . S
N214 C216 1.334 . S
N214 C217 1.328 1_554 S
C215 C216 1.391 1_556 S
C215 N218 1.329 . S
C215 H236 0.930 . S
C216 N214 1.334 . S
C216 C215 1.391 1_554 S
C216 H223 0.930 . S
C217 N214 1.328 1_556 S
C217 C219 1.392 . S
C217 H224 0.930 . S
N218 C215 1.329 . S
N218 C219 1.331 . S
C219 C217 1.392 . S
C219 N218 1.331 . S
O220 Zn213 1.975 . S
O220 C221 1.252 . S
C221 O220 1.252 . S
C221 O222 1.252 . S
O222 Zn204 1.975 . S
O222 C221 1.252 . S
H223 C216 0.930 . S
H224 C217 0.930 . S
C225 C226 1.392 . S
C225 N229 1.328 . S
C225 H231 0.930 . S
C226 C225 1.392 . S
C226 N230 1.331 . S
C227 C228 1.391 . S
C227 N230 1.329 . S
C227 H237 0.930 . S
C228 C227 1.391 . S
C228 N229 1.334 . S
C228 H235 0.930 . S
N229 Zn213 2.119 . S
N229 C225 1.328 . S
N229 C228 1.334 . S
N230 C226 1.331 . S
N230 C227 1.329 . S
H231 C225 0.930 . S
C232 O212 1.257 . S
C232 O233 1.244 . S
O233 C232 1.244 . S
O234 C210 1.257 . S
O234 Zn213 2.019 . S
H235 C228 0.930 . S
H236 C215 0.930 . S
H237 C227 0.930 . S
Zn238 N242 2.020 . S
Zn238 O246 2.019 . S
Zn238 N248 2.119 . S
Zn238 O256 1.975 . S
C239 N240 1.334 1_456 S
C239 N243 1.336 . S
N240 C239 1.334 1_654 S
N240 C241 1.338 . S
C241 N240 1.338 . S
C241 N242 1.328 1_655 S
N242 Zn238 2.020 . S
N242 C241 1.328 1_455 S
N242 N243 1.354 1_554 S
N243 C239 1.336 . S
N243 N242 1.354 1_556 S
N243 Zn247 2.020 . S
C244 O245 1.244 . S
C244 O268 1.257 . S
O245 C244 1.244 . S
O246 Zn238 2.019 . S
O246 C266 1.257 . S
Zn247 N243 2.020 . S
Zn247 O254 1.975 . S
Zn247 N263 2.119 . S
Zn247 O268 2.019 . S
N248 Zn238 2.119 . S
N248 C250 1.334 . S
N248 C251 1.328 . S
C249 C250 1.391 . S
C249 N252 1.329 . S
C249 H270 0.930 . S
C250 N248 1.334 . S
C250 C249 1.391 . S
C250 H257 0.930 . S
C251 N248 1.328 . S
C251 C253 1.392 . S
C251 H258 0.930 . S
N252 C249 1.329 . S
N252 C253 1.331 . S
C253 C251 1.392 . S
C253 N252 1.331 . S
O254 Zn247 1.975 . S
O254 C255 1.252 1_556 S
C255 O254 1.252 1_554 S
C255 O256 1.252 . S
O256 Zn238 1.975 . S
O256 C255 1.252 . S
H257 C250 0.930 . S
H258 C251 0.930 . S
C259 C260 1.392 . S
C259 N263 1.328 . S
C259 H265 0.930 . S
C260 C259 1.392 . S
C260 N264 1.331 . S
C261 C262 1.391 . S
C261 N264 1.329 . S
C261 H271 0.930 . S
C262 C261 1.391 . S
C262 N263 1.334 . S
C262 H269 0.930 . S
N263 Zn247 2.119 . S
N263 C259 1.328 . S
N263 C262 1.334 . S
N264 C260 1.331 . S
N264 C261 1.329 . S
H265 C259 0.930 . S
C266 O246 1.257 . S
C266 O267 1.244 . S
O267 C266 1.244 . S
O268 C244 1.257 . S
O268 Zn247 2.019 . S
H269 C262 0.930 . S
H270 C249 0.930 . S
H271 C261 0.930 . S
Zn272 N276 2.020 . S
Zn272 O280 2.019 . S
Zn272 N282 2.119 . S
Zn272 O290 1.975 . S
C273 N274 1.334 . S
C273 N277 1.336 . S
N274 C273 1.334 . S
N274 C275 1.334 . S
C275 N274 1.334 . S
C275 N276 1.336 . S
N276 Zn272 2.020 . S
N276 C275 1.336 . S
N276 N277 1.354 . S
N277 C273 1.336 . S
N277 N276 1.354 . S
N277 Zn281 2.020 . S
C278 O279 1.244 . S
C278 O302 1.257 . S
O279 C278 1.244 . S
O280 Zn272 2.019 . S
O280 C300 1.257 . S
Zn281 N277 2.020 . S
Zn281 O288 1.975 . S
Zn281 N297 2.119 . S
Zn281 O302 2.019 . S
N282 Zn272 2.119 . S
N282 C284 1.334 . S
N282 C285 1.328 . S
C283 C284 1.391 . S
C283 N286 1.329 . S
C283 H304 0.930 . S
C284 N282 1.334 . S
C284 C283 1.391 . S
C284 H291 0.930 . S
C285 N282 1.328 . S
C285 C287 1.392 . S
C285 H292 0.930 . S
N286 C283 1.329 . S
N286 C287 1.331 . S
C287 C285 1.392 . S
C287 N286 1.331 . S
O288 Zn281 1.975 . S
O288 C289 1.252 . S
C289 O288 1.252 . S
C289 O290 1.252 . S
O290 Zn272 1.975 . S
O290 C289 1.252 . S
H291 C284 0.930 . S
H292 C285 0.930 . S
C293 C294 1.392 . S
C293 N297 1.328 1_554 S
C293 H299 0.930 . S
C294 C293 1.392 . S
C294 N298 1.331 . S
C295 C296 1.391 1_554 S
C295 N298 1.329 . S
C295 H305 0.930 . S
C296 C295 1.391 1_556 S
C296 N297 1.334 . S
C296 H303 0.930 . S
N297 Zn281 2.119 . S
N297 C293 1.328 1_556 S
N297 C296 1.334 . S
N298 C294 1.331 . S
N298 C295 1.329 . S
H299 C293 0.930 . S
C300 O280 1.257 . S
C300 O301 1.244 . S
O301 C300 1.244 . S
O302 C278 1.257 . S
O302 Zn281 2.019 . S
H303 C296 0.930 . S
H304 C283 0.930 . S
H305 C295 0.930 . S
Zn306 N310 2.020 . S
Zn306 O314 2.019 . S
Zn306 N316 2.119 . S
Zn306 O324 1.975 . S
C307 N308 1.334 1_454 S
C307 N311 1.336 . S
N308 C307 1.334 1_656 S
N308 C309 1.338 . S
C309 N308 1.338 . S
C309 N310 1.328 1_655 S
N310 Zn306 2.020 . S
N310 C309 1.328 1_455 S
N310 N311 1.354 1_556 S
N311 C307 1.336 . S
N311 N310 1.354 1_554 S
N311 Zn315 2.020 . S
C312 O313 1.244 . S
C312 O336 1.257 . S
O313 C312 1.244 . S
O314 Zn306 2.019 . S
O314 C334 1.257 . S
Zn315 N311 2.020 . S
Zn315 O322 1.975 . S
Zn315 N331 2.119 . S
Zn315 O336 2.019 1_565 S
N316 Zn306 2.119 . S
N316 C318 1.334 . S
N316 C319 1.328 . S
C317 C318 1.391 . S
C317 N320 1.329 . S
C317 H338 0.930 1_565 S
C318 N316 1.334 . S
C318 C317 1.391 . S
C318 H325 0.930 . S
C319 N316 1.328 . S
C319 C321 1.392 . S
C319 H326 0.930 . S
N320 C317 1.329 . S
N320 C321 1.331 . S
C321 C319 1.392 . S
C321 N320 1.331 . S
O322 Zn315 1.975 . S
O322 C323 1.252 1_554 S
C323 O322 1.252 1_556 S
C323 O324 1.252 . S
O324 Zn306 1.975 . S
O324 C323 1.252 . S
H325 C318 0.930 . S
H326 C319 0.930 . S
C327 C328 1.392 . S
C327 N331 1.328 . S
C327 H333 0.930 . S
C328 C327 1.392 . S
C328 N332 1.331 . S
C329 C330 1.391 . S
C329 N332 1.329 . S
C329 H339 0.930 . S
C330 C329 1.391 . S
C330 N331 1.334 . S
C330 H337 0.930 . S
N331 Zn315 2.119 . S
N331 C327 1.328 . S
N331 C330 1.334 . S
N332 C328 1.331 . S
N332 C329 1.329 . S
H333 C327 0.930 . S
C334 O314 1.257 . S
C334 O335 1.244 . S
O335 C334 1.244 . S
O336 C312 1.257 . S
O336 Zn315 2.019 1_545 S
H337 C330 0.930 . S
H338 C317 0.930 1_545 S
H339 C329 0.930 . S
Zn340 N344 2.020 . S
Zn340 O348 2.019 . S
Zn340 N350 2.119 1_554 S
Zn340 O358 1.975 . S
C341 N342 1.334 . S
C341 N345 1.336 . S
N342 C341 1.334 . S
N342 C343 1.334 . S
C343 N342 1.334 . S
C343 N344 1.336 . S
N344 Zn340 2.020 . S
N344 C343 1.336 . S
N344 N345 1.354 . S
N345 C341 1.336 . S
N345 N344 1.354 . S
N345 Zn349 2.020 . S
C346 O347 1.244 . S
C346 O370 1.257 . S
O347 C346 1.244 . S
O348 Zn340 2.019 . S
O348 C368 1.257 . S
Zn349 N345 2.020 . S
Zn349 O356 1.975 . S
Zn349 N365 2.119 . S
Zn349 O370 2.019 . S
N350 Zn340 2.119 1_556 S
N350 C352 1.334 . S
N350 C353 1.328 . S
C351 C352 1.391 . S
C351 N354 1.329 . S
C351 H372 0.930 . S
C352 N350 1.334 . S
C352 C351 1.391 . S
C352 H359 0.930 1_556 S
C353 N350 1.328 . S
C353 C355 1.392 . S
C353 H360 0.930 . S
N354 C351 1.329 . S
N354 C355 1.331 . S
C355 C353 1.392 . S
C355 N354 1.331 . S
O356 Zn349 1.975 . S
O356 C357 1.252 . S
C357 O356 1.252 . S
C357 O358 1.252 . S
O358 Zn340 1.975 . S
O358 C357 1.252 . S
H359 C352 0.930 1_554 S
H360 C353 0.930 . S
C361 C362 1.392 . S
C361 N365 1.328 . S
C361 H367 0.930 . S
C362 C361 1.392 . S
C362 N366 1.331 . S
C363 C364 1.391 . S
C363 N366 1.329 . S
C363 H373 0.930 . S
C364 C363 1.391 . S
C364 N365 1.334 . S
C364 H371 0.930 . S
N365 Zn349 2.119 . S
N365 C361 1.328 . S
N365 C364 1.334 . S
N366 C362 1.331 . S
N366 C363 1.329 . S
H367 C361 0.930 . S
C368 O348 1.257 . S
C368 O369 1.244 . S
O369 C368 1.244 . S
O370 C346 1.257 . S
O370 Zn349 2.019 . S
H371 C364 0.930 . S
H372 C351 0.930 . S
H373 C363 0.930 . S
Zn374 N378 2.020 . S
Zn374 O382 2.019 1_545 S
Zn374 N384 2.119 . S
Zn374 O392 1.975 . S
C375 N376 1.334 . S
C375 N379 1.336 . S
N376 C375 1.334 . S
N376 C377 1.334 . S
C377 N376 1.334 . S
C377 N378 1.336 . S
N378 Zn374 2.020 . S
N378 C377 1.336 . S
N378 N379 1.354 . S
N379 C375 1.336 . S
N379 N378 1.354 . S
N379 Zn383 2.020 . S
C380 O381 1.244 . S
C380 O404 1.257 . S
O381 C380 1.244 . S
O382 Zn374 2.019 1_565 S
O382 C402 1.257 . S
Zn383 N379 2.020 . S
Zn383 O390 1.975 . S
Zn383 N399 2.119 . S
Zn383 O404 2.019 . S
N384 Zn374 2.119 . S
N384 C386 1.334 . S
N384 C387 1.328 . S
C385 C386 1.391 . S
C385 N388 1.329 . S
C385 H406 0.930 . S
C386 N384 1.334 . S
C386 C385 1.391 . S
C386 H393 0.930 . S
C387 N384 1.328 . S
C387 C389 1.392 . S
C387 H394 0.930 . S
N388 C385 1.329 . S
N388 C389 1.331 . S
C389 C387 1.392 . S
C389 N388 1.331 . S
O390 Zn383 1.975 . S
O390 C391 1.252 . S
C391 O390 1.252 . S
C391 O392 1.252 . S
O392 Zn374 1.975 . S
O392 C391 1.252 . S
H393 C386 0.930 . S
H394 C387 0.930 . S
C395 C396 1.392 . S
C395 N399 1.328 . S
C395 H401 0.930 . S
C396 C395 1.392 . S
C396 N400 1.331 . S
C397 C398 1.391 . S
C397 N400 1.329 . S
C397 H407 0.930 1_545 S
C398 C397 1.391 . S
C398 N399 1.334 . S
C398 H405 0.930 . S
N399 Zn383 2.119 . S
N399 C395 1.328 . S
N399 C398 1.334 . S
N400 C396 1.331 . S
N400 C397 1.329 . S
H401 C395 0.930 . S
C402 O382 1.257 . S
C402 O403 1.244 . S
O403 C402 1.244 . S
O404 C380 1.257 . S
O404 Zn383 2.019 . S
H405 C398 0.930 . S
H406 C385 0.930 . S
H407 C397 0.930 1_565 S
Zn408 N412 2.020 . S
Zn408 O416 2.019 . S
Zn408 N418 2.119 . S
Zn408 O426 1.975 . S
C409 N410 1.334 . S
C409 N413 1.336 . S
N410 C409 1.334 . S
N410 C411 1.334 . S
C411 N410 1.334 . S
C411 N412 1.336 . S
N412 Zn408 2.020 . S
N412 C411 1.336 . S
N412 N413 1.354 . S
N413 C409 1.336 . S
N413 N412 1.354 . S
N413 Zn417 2.020 . S
C414 O415 1.244 . S
C414 O438 1.257 . S
O415 C414 1.244 . S
O416 Zn408 2.019 . S
O416 C436 1.257 . S
Zn417 N413 2.020 . S
Zn417 O424 1.975 . S
Zn417 N433 2.119 . S
Zn417 O438 2.019 . S
N418 Zn408 2.119 . S
N418 C420 1.334 . S
N418 C421 1.328 1_554 S
C419 C420 1.391 1_556 S
C419 N422 1.329 . S
C419 H440 0.930 . S
C420 N418 1.334 . S
C420 C419 1.391 1_554 S
C420 H427 0.930 . S
C421 N418 1.328 1_556 S
C421 C423 1.392 . S
C421 H428 0.930 . S
N422 C419 1.329 . S
N422 C423 1.331 . S
C423 C421 1.392 . S
C423 N422 1.331 . S
O424 Zn417 1.975 . S
O424 C425 1.252 . S
C425 O424 1.252 . S
C425 O426 1.252 . S
O426 Zn408 1.975 . S
O426 C425 1.252 . S
H427 C420 0.930 . S
H428 C421 0.930 . S
C429 C430 1.392 . S
C429 N433 1.328 . S
C429 H435 0.930 . S
C430 C429 1.392 . S
C430 N434 1.331 . S
C431 C432 1.391 . S
C431 N434 1.329 . S
C431 H441 0.930 . S
C432 C431 1.391 . S
C432 N433 1.334 . S
C432 H439 0.930 . S
N433 Zn417 2.119 . S
N433 C429 1.328 . S
N433 C432 1.334 . S
N434 C430 1.331 . S
N434 C431 1.329 . S
H435 C429 0.930 . S
C436 O416 1.257 . S
C436 O437 1.244 . S
O437 C436 1.244 . S
O438 C414 1.257 . S
O438 Zn417 2.019 . S
H439 C432 0.930 . S
H440 C419 0.930 . S
H441 C431 0.930 . S
Zn442 N446 2.020 . S
Zn442 O450 2.019 1_545 S
Zn442 N452 2.119 . S
Zn442 O460 1.975 . S
C443 N444 1.338 . S
C443 N447 1.328 1_455 S
N444 C443 1.338 . S
N444 C445 1.334 1_454 S
C445 N444 1.334 1_656 S
C445 N446 1.336 . S
N446 Zn442 2.020 . S
N446 C445 1.336 . S
N446 N447 1.354 1_556 S
N447 C443 1.328 1_655 S
N447 N446 1.354 1_554 S
N447 Zn451 2.020 . S
C448 O449 1.244 . S
C448 O472 1.257 . S
O449 C448 1.244 . S
O450 Zn442 2.019 1_565 S
O450 C470 1.257 . S
Zn451 N447 2.020 . S
Zn451 O458 1.975 . S
Zn451 N467 2.119 . S
Zn451 O472 2.019 . S
N452 Zn442 2.119 . S
N452 C454 1.334 . S
N452 C455 1.328 . S
C453 C454 1.391 . S
C453 N456 1.329 . S
C453 H474 0.930 . S
C454 N452 1.334 . S
C454 C453 1.391 . S
C454 H461 0.930 . S
C455 N452 1.328 . S
C455 C457 1.392 . S
C455 H462 0.930 . S
N456 C453 1.329 . S
N456 C457 1.331 . S
C457 C455 1.392 . S
C457 N456 1.331 . S
O458 Zn451 1.975 . S
O458 C459 1.252 . S
C459 O458 1.252 . S
C459 O460 1.252 1_554 S
O460 Zn442 1.975 . S
O460 C459 1.252 1_556 S
H461 C454 0.930 . S
H462 C455 0.930 . S
C463 C464 1.392 . S
C463 N467 1.328 . S
C463 H469 0.930 . S
C464 C463 1.392 . S
C464 N468 1.331 . S
C465 C466 1.391 . S
C465 N468 1.329 . S
C465 H475 0.930 1_545 S
C466 C465 1.391 . S
C466 N467 1.334 . S
C466 H473 0.930 . S
N467 Zn451 2.119 . S
N467 C463 1.328 . S
N467 C466 1.334 . S
N468 C464 1.331 . S
N468 C465 1.329 . S
H469 C463 0.930 . S
C470 O450 1.257 . S
C470 O471 1.244 . S
O471 C470 1.244 . S
O472 C448 1.257 . S
O472 Zn451 2.019 . S
H473 C466 0.930 . S
H474 C453 0.930 . S
H475 C465 0.930 1_565 S
Zn476 N480 2.020 . S
Zn476 O484 2.019 . S
Zn476 N486 2.119 . S
Zn476 O494 1.975 . S
C477 N478 1.334 . S
C477 N481 1.336 . S
N478 C477 1.334 . S
N478 C479 1.334 . S
C479 N478 1.334 . S
C479 N480 1.336 . S
N480 Zn476 2.020 . S
N480 C479 1.336 . S
N480 N481 1.354 . S
N481 C477 1.336 . S
N481 N480 1.354 . S
N481 Zn485 2.020 . S
C482 O483 1.244 . S
C482 O506 1.257 . S
O483 C482 1.244 . S
O484 Zn476 2.019 . S
O484 C504 1.257 . S
Zn485 N481 2.020 . S
Zn485 O492 1.975 . S
Zn485 N501 2.119 1_556 S
Zn485 O506 2.019 . S
N486 Zn476 2.119 . S
N486 C488 1.334 . S
N486 C489 1.328 . S
C487 C488 1.391 . S
C487 N490 1.329 . S
C487 H508 0.930 . S
C488 N486 1.334 . S
C488 C487 1.391 . S
C488 H495 0.930 . S
C489 N486 1.328 . S
C489 C491 1.392 . S
C489 H496 0.930 . S
N490 C487 1.329 . S
N490 C491 1.331 . S
C491 C489 1.392 . S
C491 N490 1.331 . S
O492 Zn485 1.975 . S
O492 C493 1.252 . S
C493 O492 1.252 . S
C493 O494 1.252 . S
O494 Zn476 1.975 . S
O494 C493 1.252 . S
H495 C488 0.930 . S
H496 C489 0.930 . S
C497 C498 1.392 . S
C497 N501 1.328 . S
C497 H503 0.930 . S
C498 C497 1.392 . S
C498 N502 1.331 . S
C499 C500 1.391 . S
C499 N502 1.329 . S
C499 H509 0.930 . S
C500 C499 1.391 . S
C500 N501 1.334 . S
C500 H507 0.930 1_554 S
N501 Zn485 2.119 1_554 S
N501 C497 1.328 . S
N501 C500 1.334 . S
N502 C498 1.331 . S
N502 C499 1.329 . S
H503 C497 0.930 . S
C504 O484 1.257 . S
C504 O505 1.244 . S
O505 C504 1.244 . S
O506 C482 1.257 . S
O506 Zn485 2.019 . S
H507 C500 0.930 1_556 S
H508 C487 0.930 . S
H509 C499 0.930 . S
Zn510 N514 2.020 . S
Zn510 O518 2.019 . S
Zn510 N520 2.119 . S
Zn510 O528 1.975 . S
C511 N512 1.334 . S
C511 N515 1.336 . S
N512 C511 1.334 . S
N512 C513 1.334 . S
C513 N512 1.334 . S
C513 N514 1.336 . S
N514 Zn510 2.020 . S
N514 C513 1.336 . S
N514 N515 1.354 . S
N515 C511 1.336 . S
N515 N514 1.354 . S
N515 Zn519 2.020 . S
C516 O517 1.244 . S
C516 O540 1.257 . S
O517 C516 1.244 . S
O518 Zn510 2.019 . S
O518 C538 1.257 . S
Zn519 N515 2.020 . S
Zn519 O526 1.975 . S
Zn519 N535 2.119 . S
Zn519 O540 2.019 1_565 S
N520 Zn510 2.119 . S
N520 C522 1.334 . S
N520 C523 1.328 . S
C521 C522 1.391 . S
C521 N524 1.329 . S
C521 H542 0.930 1_565 S
C522 N520 1.334 . S
C522 C521 1.391 . S
C522 H529 0.930 . S
C523 N520 1.328 . S
C523 C525 1.392 . S
C523 H530 0.930 . S
N524 C521 1.329 . S
N524 C525 1.331 . S
C525 C523 1.392 . S
C525 N524 1.331 . S
O526 Zn519 1.975 . S
O526 C527 1.252 . S
C527 O526 1.252 . S
C527 O528 1.252 . S
O528 Zn510 1.975 . S
O528 C527 1.252 . S
H529 C522 0.930 . S
H530 C523 0.930 . S
C531 C532 1.392 . S
C531 N535 1.328 . S
C531 H537 0.930 . S
C532 C531 1.392 . S
C532 N536 1.331 . S
C533 C534 1.391 . S
C533 N536 1.329 . S
C533 H543 0.930 . S
C534 C533 1.391 . S
C534 N535 1.334 . S
C534 H541 0.930 . S
N535 Zn519 2.119 . S
N535 C531 1.328 . S
N535 C534 1.334 . S
N536 C532 1.331 . S
N536 C533 1.329 . S
H537 C531 0.930 . S
C538 O518 1.257 . S
C538 O539 1.244 . S
O539 C538 1.244 . S
O540 C516 1.257 . S
O540 Zn519 2.019 1_545 S
H541 C534 0.930 . S
H542 C521 0.930 1_545 S
H543 C533 0.930 . S
C15 C22 1.345 . S
C56 C49 1.345 1_556 S
C83 C90 1.345 . S
C124 C117 1.345 . S
C158 C151 1.345 . S
C192 C185 1.345 1_556 S
C219 C226 1.345 . S
C253 C260 1.345 . S
C294 C287 1.345 . S
C321 C328 1.345 . S
C355 C362 1.345 . S
C389 C396 1.345 1_556 S
C423 C430 1.345 . S
C464 C457 1.345 . S
C498 C491 1.345 . S
C532 C525 1.345 1_554 S
C1 C411 2.938 . S
C173 C35 2.938 . S
C479 C69 2.938 . S
C239 C105 2.938 1_456 S
C139 C273 2.938 . S
C207 C341 2.938 . S
C445 C307 2.938 1_646 S
C377 C511 2.938 1_545 S
C312 C17 1.731 . S
C51 C346 1.731 . S
C85 C402 1.731 . S
C278 C119 1.731 . S
C470 C153 1.731 . S
C504 C187 1.731 . S
C516 C221 1.731 . S
C255 C436 1.731 . S
C40 C289 1.731 . S
C323 C74 1.731 . S
C130 C357 1.731 . S
C6 C391 1.731 . S
C425 C198 1.731 . S
C232 C459 1.731 . S
C493 C244 1.731 . S
C527 C164 1.731 . S
C3 C266 1.927 . S
C37 C414 1.927 . S
C176 C71 1.927 . S
C482 C103 1.930 . S
C108 C137 1.927 . S
C171 C300 1.927 . S
C62 C205 1.927 . S
C241 C368 1.930 . S
C538 C275 1.927 . S
C309 C142 1.930 . S
C343 C448 1.927 . S
C210 C375 1.927 . S
C380 C409 1.927 . S
C443 C28 1.930 . S
C334 C477 1.927 . S
C96 C513 1.927 . S
