# Generated by pormake.
# Topology kag, (6)-cn, num edge types: 1
# Building blocks:
#     Node 0, Type 0, BuildingBlock: GEDQOX_clean_sbu_0, # of connection points: 6
#     Node 1, Type 0, BuildingBlock: GEDQOX_clean_sbu_0, # of connection points: 6
#     Node 2, Type 0, BuildingBlock: GEDQOX_clean_sbu_0, # of connection points: 6
#     Edge 3, Type (0, 0), BuildingBlock: TEMPAE_clean_linker_10, # of connection points: 2
#     Edge 4, Type (0, 0), BuildingBlock: TEMPAE_clean_linker_10, # of connection points: 2
#     Edge 5, Type (0, 0), BuildingBlock: TEMPAE_clean_linker_10, # of connection points: 2
#     Edge 6, Type (0, 0), BuildingBlock: TEMPAE_clean_linker_10, # of connection points: 2
#     Edge 7, Type (0, 0), BuildingBlock: TEMPAE_clean_linker_10, # of connection points: 2
#     Edge 8, Type (0, 0), BuildingBlock: TEMPAE_clean_linker_10, # of connection points: 2
#     Edge 9, Type (0, 0), BuildingBlock: TEMPAE_clean_linker_10, # of connection points: 2
#     Edge 10, Type (0, 0), BuildingBlock: TEMPAE_clean_linker_10, # of connection points: 2
#     Edge 11, Type (0, 0), BuildingBlock: TEMPAE_clean_linker_10, # of connection points: 2
# Relax obj value: 0.076
# Max RMSD: 0.199
# Mean RMSD: 0.113
data_MOF--net-kag--node1-GEDQOX_clean_sbu_0--edge1-TEMPAE_clean_linker_10
_symmetry_space_group_name_H-M    P1
_symmetry_Int_Tables_number       1
_symmetry_cell_setting            triclinic
loop_
_symmetry_equiv_pos_as_xyz
'x, y, z'
_cell_length_a     50.080305
_cell_length_b     42.8215
_cell_length_c     14.946083
_cell_angle_alpha  95.075758
_cell_angle_beta   89.184691
_cell_angle_gamma 140.45066
loop_
_atom_site_label
_atom_site_type_symbol
_atom_site_fract_x
_atom_site_fract_y
_atom_site_fract_z
_atom_type_partial_charge
Nd0 Nd 1.04192 0.57283 0.04037 0.0
Nd1 Nd 0.05117 0.50913 0.9958 0.0
C2 C 1.02972 0.61698 0.12828 0.0
C3 C 0.9994 0.61532 0.12082 0.0
C4 C 0.99994 0.64035 0.18938 0.0
C5 C 0.97072 0.63826 0.18411 0.0
C6 C 0.94037 0.61104 0.11002 0.0
C7 C 0.94003 0.58601 0.04126 0.0
C8 C 0.96924 0.58804 0.04675 0.0
C9 C 1.03165 0.55059 0.85392 0.0
C10 C 0.95621 0.45074 1.00165 0.0
C11 C 0.06747 0.46614 0.92901 0.0
C12 C 0.10148 0.47359 0.92559 0.0
C13 C 0.10243 0.4531 0.84913 0.0
C14 C 0.13218 0.45597 0.84675 0.0
C15 C 0.16154 0.47932 0.92109 0.0
C16 C 0.16122 0.50102 0.99685 0.0
C17 C 0.13151 0.4983 0.999 0.0
C18 C 1.04256 0.5204 0.17435 0.0
C19 C 0.13821 0.63203 0.02605 0.0
O20 O 1.01469 0.57708 0.1512 0.0
O21 O 0.05529 0.63586 0.06415 0.0
O22 O 1.02824 0.57534 0.89451 0.0
O23 O 1.03843 0.53755 0.9127 0.0
O24 O 0.97393 0.4924 0.04498 0.0
O25 O 0.97939 0.44967 0.962 0.0
O26 O 0.07095 0.49388 0.8841 0.0
O27 O 0.05226 0.459 0.00694 0.0
O28 O 1.02503 0.47957 0.13173 0.0
O29 O 0.06507 0.55435 0.12332 0.0
O30 O 0.12154 0.58842 0.00946 0.0
O31 O 0.11464 0.63585 0.04213 0.0
H32 H 1.02297 0.6615 0.24711 0.0
H33 H 0.97221 0.65847 0.23759 0.0
H34 H 0.91681 0.56428 0.98384 0.0
H35 H 0.96819 0.56814 0.9935 0.0
H36 H 0.07945 0.43378 0.79193 0.0
H37 H 0.13127 0.43844 0.7878 0.0
H38 H 0.18377 0.5198 0.05468 0.0
H39 H 0.13151 0.51468 0.05855 0.0
Nd40 Nd 0.54049 0.06787 0.01328 0.0
Nd41 Nd 0.5565 1.01383 0.0234 0.0
C42 C 0.53851 0.12676 0.99164 0.0
C43 C 0.53826 0.16092 0.98293 0.0
C44 C 0.51893 0.15602 0.90602 0.0
C45 C 0.51808 0.18783 0.89996 0.0
C46 C 0.53639 0.22517 0.97087 0.0
C47 C 0.55606 0.2302 0.04724 0.0
C48 C 0.55698 0.19859 0.05315 0.0
C49 C 0.53906 0.04693 0.1838 0.0
C50 C 0.63779 0.13087 0.02098 0.0
C51 C 0.56509 0.96295 0.06847 0.0
C52 C 0.55651 0.92095 0.04877 0.0
C53 C 0.52637 0.87876 0.09389 0.0
C54 C 0.52301 0.84288 0.08676 0.0
C55 C 0.54998 0.84843 0.03496 0.0
C56 C 0.57931 0.89003 0.98789 0.0
C57 C 0.58255 0.92573 0.99476 0.0
C58 C 0.55526 1.02976 0.84937 0.0
C59 C 0.45672 0.94901 0.00983 0.0
O60 O 0.52031 0.08947 0.93128 0.0
O61 O 0.55776 0.13244 0.06173 0.0
O62 O 0.51206 0.04167 0.14926 0.0
O63 O 0.56613 0.06326 0.1293 0.0
O64 O 0.61061 0.12537 0.98209 0.0
O65 O 0.62352 0.09442 0.06124 0.0
O66 O 0.53556 0.95508 0.09662 0.0
O67 O 0.59015 0.99898 0.01845 0.0
O68 O 0.57764 1.02741 0.88015 0.0
O69 O 0.53075 1.01833 0.90671 0.0
O70 O 0.48303 0.94925 0.02382 0.0
O71 O 0.47069 0.98984 0.99711 0.0
H72 H 0.50419 0.12738 0.85075 0.0
H73 H 0.50237 0.18255 0.8404 0.0
H74 H 0.57113 0.25896 0.10251 0.0
H75 H 0.57229 0.20361 0.1133 0.0
H76 H 0.5062 0.87417 0.13707 0.0
H77 H 0.49958 0.81107 0.12296 0.0
H78 H 0.60109 0.89622 0.9484 0.0
H79 H 0.6067 0.9581 0.96029 0.0
Nd80 Nd 0.49552 0.49456 0.95619 0.0
Nd81 Nd 0.59344 0.58123 1.0013 0.0
C82 C 0.42255 0.44039 0.86952 0.0
C83 C 0.39316 0.44008 0.88124 0.0
C84 C 0.3611 0.4159 0.8139 0.0
C85 C 0.33573 0.41966 0.82132 0.0
C86 C 0.34217 0.44789 0.89614 0.0
C87 C 0.37406 0.47144 0.96412 0.0
C88 C 0.39935 0.46765 0.95661 0.0
C89 C 0.51269 0.51502 0.14261 0.0
C90 C 0.54985 0.6099 0.00957 0.0
C91 C 0.67131 0.63795 0.06059 0.0
C92 C 0.69594 0.63126 0.06865 0.0
C93 C 0.72838 0.65946 0.1376 0.0
C94 C 0.75281 0.65453 0.14436 0.0
C95 C 0.74532 0.62132 0.08198 0.0
C96 C 0.71213 0.5924 0.0139 0.0
C97 C 0.68764 0.59725 0.00744 0.0
C98 C 0.56645 0.56415 0.82427 0.0
C99 C 0.5382 0.46429 0.96398 0.0
O100 O 0.45876 0.48076 0.84202 0.0
O101 O 0.42639 0.42506 0.93447 0.0
O102 O 0.47496 0.48104 0.10254 0.0
O103 O 0.53867 0.53608 0.08339 0.0
O104 O 0.51634 0.56524 0.96645 0.0
O105 O 0.58284 0.62394 0.04113 0.0
O106 O 0.64091 0.615 0.11375 0.0
O107 O 0.66066 0.6356 0.97861 0.0
O108 O 0.59825 0.60794 0.86813 0.0
O109 O 0.55041 0.53118 0.87387 0.0
O110 O 0.5742 0.51147 0.99157 0.0
O111 O 0.50351 0.44833 0.94031 0.0
H112 H 0.35631 0.39507 0.75466 0.0
H113 H 0.31188 0.40163 0.76716 0.0
H114 H 0.3796 0.49298 0.0231 0.0
H115 H 0.4243 0.48703 0.00889 0.0
H116 H 0.735 0.68558 0.18595 0.0
H117 H 0.77754 0.67671 0.19864 0.0
H118 H 0.70565 0.56679 0.96422 0.0
H119 H 0.66257 0.57487 0.95385 0.0
C120 C 0.05089 0.53448 0.71585 0.0
C121 C 1.03158 0.54386 0.75421 0.0
C122 C 0.05369 0.53212 0.62178 0.0
C123 C 1.03601 0.53829 0.5641 0.0
C124 C 1.0158 0.54684 0.60271 0.0
C125 C 1.0143 0.5501 0.69697 0.0
C126 C 0.07613 0.52373 0.5842 0.0
C127 C 0.99554 0.55239 0.54437 0.0
C128 C 0.07146 0.5728 0.32529 0.0
C129 C 1.04044 0.52644 0.27309 0.0
C130 C 0.0707 0.57726 0.41995 0.0
C131 C 1.03761 0.53449 0.4634 0.0
C132 C 1.00565 0.48784 0.41023 0.0
C133 C 1.00773 0.48438 0.31637 0.0
C134 C 0.10576 0.62764 0.47375 0.0
C135 C 0.96917 0.44138 0.45252 0.0
H136 H 0.06488 0.53038 0.7596 0.0
H137 H 0.99936 0.55743 0.72604 0.0
H138 H 0.0542 0.48931 0.53631 0.0
H139 H 0.10233 0.55458 0.54601 0.0
H140 H 0.08906 0.52082 0.63784 0.0
H141 H 0.98033 0.55791 0.58443 0.0
H142 H 1.01947 0.58434 0.50588 0.0
H143 H 0.97142 0.51902 0.49451 0.0
H144 H 0.09696 0.60543 0.29248 0.0
H145 H 0.98348 0.44841 0.2765 0.0
H146 H 0.12181 0.62766 0.52426 0.0
H147 H 0.09272 0.63663 0.51137 0.0
H148 H 0.12947 0.65715 0.43045 0.0
H149 H 0.9809 0.43516 0.50107 0.0
H150 H 0.94608 0.40821 0.40162 0.0
H151 H 0.95267 0.44542 0.49086 0.0
C152 C 0.58006 0.07422 0.32961 0.0
C153 C 0.54129 0.04251 0.27989 0.0
C154 C 0.58213 0.07281 0.42292 0.0
C155 C 0.54445 1.03756 0.46679 0.0
C156 C 0.5052 1.00445 0.41579 0.0
C157 C 0.50416 1.008 0.32351 0.0
C158 C 0.62467 0.10973 0.47496 0.0
C159 C 0.46423 0.96502 0.45852 0.0
C160 C 0.55151 1.00528 0.68786 0.0
C161 C 0.55012 1.02986 0.75205 0.0
C162 C 0.54862 1.00647 0.59505 0.0
C163 C 0.54602 1.03465 0.56549 0.0
C164 C 0.5449 0.0599 0.63035 0.0
C165 C 0.54617 0.05642 0.72284 0.0
C166 C 0.54823 0.97739 0.52863 0.0
C167 C 0.54347 0.0916 0.6022 0.0
H168 H 0.60883 0.10131 0.29619 0.0
H169 H 0.47412 0.98331 0.28498 0.0
H170 H 0.62737 0.13098 0.53124 0.0
H171 H 0.6282 0.09022 0.50515 0.0
H172 H 0.65094 0.13607 0.43186 0.0
H173 H 0.43641 0.94073 0.40873 0.0
H174 H 0.46317 0.9418 0.49112 0.0
H175 H 0.46188 0.98234 0.51197 0.0
H176 H 0.55441 0.98454 0.71034 0.0
H177 H 0.54563 0.07594 0.77252 0.0
H178 H 0.57637 1.00284 0.48986 0.0
H179 H 0.52014 0.95229 0.47947 0.0
H180 H 0.54792 0.955 0.56227 0.0
H181 H 0.57091 0.12058 0.56376 0.0
H182 H 0.54376 0.10975 0.66083 0.0
H183 H 0.51472 0.06888 0.55686 0.0
C184 C 0.53529 0.51128 0.67364 0.0
C185 C 0.55668 0.5556 0.72494 0.0
C186 C 0.52901 0.50492 0.57873 0.0
C187 C 0.54351 0.54331 0.53389 0.0
C188 C 0.56423 0.58765 0.58597 0.0
C189 C 0.57096 0.59342 0.68032 0.0
C190 C 0.50737 0.45735 0.52625 0.0
C191 C 0.57923 0.62907 0.54201 0.0
C192 C 0.55994 0.54734 0.28131 0.0
C193 C 0.52206 0.52455 0.24232 0.0
C194 C 0.56719 0.55317 0.37577 0.0
C195 C 0.53622 0.53681 0.43298 0.0
C196 C 0.4983 0.51468 0.3936 0.0
C197 C 0.49152 0.50831 0.29915 0.0
C198 C 0.60774 0.57612 0.41427 0.0
C199 C 0.46479 0.49779 0.45132 0.0
H200 H 0.52443 0.48201 0.70748 0.0
H201 H 0.58739 0.62773 0.71948 0.0
H202 H 0.47821 0.43847 0.4883 0.0
H203 H 0.52814 0.46543 0.47611 0.0
H204 H 0.49904 0.43168 0.57052 0.0
H205 H 0.59385 0.66068 0.59197 0.0
H206 H 0.60261 0.64259 0.49379 0.0
H207 H 0.55241 0.6153 0.50299 0.0
H208 H 0.58342 0.55938 0.23787 0.0
H209 H 0.46217 0.49072 0.26959 0.0
H210 H 0.60074 0.54999 0.45388 0.0
H211 H 0.62529 0.60987 0.46107 0.0
H212 H 0.62831 0.58615 0.36102 0.0
H213 H 0.45316 0.46894 0.49113 0.0
H214 H 0.4376 0.48258 0.41063 0.0
H215 H 0.47831 0.52917 0.5 0.0
C216 C 0.2114 0.48787 0.84327 0.0
C217 C 0.19104 0.47898 0.92066 0.0
C218 C 0.23719 0.48453 0.84004 0.0
C219 C 0.24268 0.47185 0.91594 0.0
C220 C 0.22291 0.46382 0.99491 0.0
C221 C 0.19738 0.46753 0.99635 0.0
C222 C 0.25802 0.49378 0.75485 0.0
C223 C 0.22794 0.45017 0.07718 0.0
C224 C 0.27313 0.41362 0.87647 0.0
C225 C 0.31649 0.4538 0.90225 0.0
C226 C 0.24876 0.41898 0.88083 0.0
C227 C 0.26816 0.46565 0.91179 0.0
C228 C 0.31185 0.50631 0.93825 0.0
C229 C 0.33544 0.49989 0.93311 0.0
C230 C 0.20222 0.37467 0.85224 0.0
C231 C 0.33377 0.5567 0.97143 0.0
H232 H 0.20706 0.49734 0.78496 0.0
H233 H 0.18134 0.46002 0.05599 0.0
H234 H 0.29255 0.52322 0.77018 0.0
H235 H 0.24647 0.45984 0.72623 0.0
H236 H 0.25173 0.50492 0.70288 0.0
H237 H 0.21177 0.44695 0.13435 0.0
H238 H 0.21488 0.41438 0.06034 0.0
H239 H 0.2618 0.47831 0.0993 0.0
H240 H 0.2581 0.37773 0.85369 0.0
H241 H 0.36896 0.53129 0.95202 0.0
H242 H 0.19433 0.3824 0.79606 0.0
H243 H 0.18396 0.36714 0.90899 0.0
H244 H 0.19191 0.34093 0.83001 0.0
H245 H 0.33004 0.56996 0.91848 0.0
H246 H 0.36791 0.58443 0.99003 0.0
H247 H 0.31912 0.55441 0.03118 0.0
C248 C 0.69999 0.21351 0.96277 0.0
C249 C 0.6845 0.17784 0.01757 0.0
C250 C 0.74371 0.25738 0.95769 0.0
C251 C 0.77334 0.26679 0.0094 0.0
C252 C 0.7579 0.23103 0.06519 0.0
C253 C 0.714 0.18718 0.06815 0.0
C254 C 0.75821 0.29373 0.89648 0.0
C255 C 0.78785 0.23926 0.12251 0.0
C256 C 0.88747 0.36084 0.94332 0.0
C257 C 0.90927 0.4038 1.00154 0.0
C258 C 0.8435 0.3165 0.94436 0.0
C259 C 0.82032 0.31419 0.00619 0.0
C260 C 0.84223 0.35739 0.06535 0.0
C261 C 0.88599 0.4014 0.06182 0.0
C262 C 0.82179 0.272 0.8789 0.0
C263 C 0.81947 0.35704 0.13343 0.0
H264 H 0.67786 0.20698 0.92285 0.0
H265 H 0.70278 0.16027 0.11092 0.0
H266 H 0.7775 0.32981 0.93658 0.0
H267 H 0.77847 0.30017 0.84722 0.0
H268 H 0.73148 0.28073 0.85892 0.0
H269 H 0.77114 0.20833 0.16279 0.0
H270 H 0.80848 0.24355 0.07914 0.0
H271 H 0.80854 0.27396 0.1692 0.0
H272 H 0.90474 0.36189 0.89623 0.0
H273 H 0.90216 0.43391 0.10782 0.0
H274 H 0.79609 0.25942 0.8371 0.0
H275 H 0.8072 0.24104 0.91635 0.0
H276 H 0.84377 0.27982 0.83354 0.0
H277 H 0.79407 0.34735 0.09847 0.0
H278 H 0.84086 0.39331 0.17542 0.0
H279 H 0.80438 0.3284 0.17851 0.0
C280 C 0.54236 0.79158 0.11073 0.0
C281 C 0.54888 0.81231 0.03275 0.0
C282 C 0.54264 0.75891 0.11041 0.0
C283 C 0.54993 0.7467 0.03041 0.0
C284 C 0.55644 0.76733 0.95145 0.0
C285 C 0.55566 0.79958 0.95346 0.0
C286 C 0.53529 0.7376 0.19596 0.0
C287 C 0.56414 0.75523 0.86454 0.0
C288 C 0.58729 0.69587 0.0451 0.0
C289 C 0.55008 0.64512 0.01934 0.0
C290 C 0.5877 0.72929 0.04958 0.0
C291 C 0.54994 0.71162 0.0286 0.0
C292 C 0.5122 0.66034 0.00415 0.0
C293 C 0.51274 0.62789 0.9997 0.0
C294 C 0.62871 0.78368 0.07526 0.0
C295 C 0.47111 0.6396 0.98222 0.0
H296 H 0.5378 0.8016 0.17288 0.0
H297 H 0.5601 0.81458 0.89236 0.0
H298 H 0.50765 0.69665 0.18407 0.0
H299 H 0.56287 0.74816 0.21657 0.0
H300 H 0.5298 0.75042 0.25242 0.0
H301 H 0.56958 0.7751 0.80954 0.0
H302 H 0.59192 0.76504 0.87531 0.0
H303 H 0.53672 0.71492 0.8424 0.0
H304 H 0.61634 0.7097 0.06012 0.0
H305 H 0.48365 0.58876 0.98043 0.0
H306 H 0.62555 0.79786 0.13467 0.0
H307 H 0.6367 0.80449 0.01909 0.0
H308 H 0.65515 0.79151 0.0913 0.0
H309 H 0.46258 0.64694 0.04222 0.0
H310 H 0.44498 0.59917 0.9608 0.0
H311 H 0.47431 0.65801 0.92753 0.0
C312 C 0.89978 0.61383 0.02299 0.0
C313 C 0.90943 0.60911 0.1045 0.0
C314 C 0.87178 0.61383 0.01772 0.0
C315 C 0.85294 0.60899 0.09582 0.0
C316 C 0.86194 0.60331 0.17789 0.0
C317 C 0.89006 0.60345 0.18123 0.0
C318 C 0.86304 0.62003 0.92897 0.0
C319 C 0.84237 0.59782 0.26256 0.0
C320 C 0.8163 0.6606 0.10714 0.0
C321 C 0.77267 0.61781 0.08656 0.0
C322 C 0.84265 0.65815 0.11069 0.0
C323 C 0.8251 0.61183 0.09259 0.0
C324 C 0.78114 0.56846 0.0716 0.0
C325 C 0.75546 0.57195 0.0691 0.0
C326 C 0.88936 0.70526 0.13342 0.0
C327 C 0.76122 0.51838 0.05177 0.0
H328 H 0.91491 0.61872 0.96362 0.0
H329 H 0.89681 0.59899 0.24411 0.0
H330 H 0.82866 0.58919 0.9098 0.0
H331 H 0.87414 0.65476 0.93575 0.0
H332 H 0.87876 0.6212 0.87363 0.0
H333 H 0.85152 0.59209 0.32019 0.0
H334 H 0.85217 0.63138 0.2816 0.0
H335 H 0.80756 0.56609 0.25042 0.0
H336 H 0.83006 0.69629 0.11916 0.0
H337 H 0.72178 0.53861 0.05427 0.0
H338 H 0.90687 0.71071 0.07707 0.0
H339 H 0.89991 0.70264 0.19388 0.0
H340 H 0.89799 0.73827 0.14671 0.0
H341 H 0.77523 0.51823 0.99383 0.0
H342 H 0.7266 0.48828 0.03591 0.0
H343 H 0.76769 0.51032 0.11057 0.0
C344 C 0.21332 0.6824 0.06264 0.0
C345 C 0.18504 0.67837 0.02526 0.0
C346 C 0.25747 0.72607 0.06247 0.0
C347 C 0.27424 0.76634 0.0202 0.0
C348 C 0.24563 0.76184 0.98052 0.0
C349 C 0.20174 0.71865 0.98525 0.0
C350 C 0.28624 0.72936 0.10895 0.0
C351 C 0.26135 0.80244 0.9315 0.0
C352 C 0.38844 0.89866 0.07945 0.0
C353 C 0.41032 0.9021 0.01244 0.0
C354 C 0.34473 0.85464 0.08411 0.0
C355 C 0.32147 0.81313 0.01801 0.0
C356 C 0.34352 0.81685 0.94931 0.0
C357 C 0.38761 0.86073 0.94846 0.0
C358 C 0.3235 0.85244 0.16062 0.0
C359 C 0.32038 0.77473 0.87544 0.0
H360 H 0.20089 0.6517 0.09406 0.0
H361 H 0.18028 0.71582 0.95517 0.0
H362 H 0.3053 0.73362 0.05937 0.0
H363 H 0.30849 0.76249 0.16004 0.0
H364 H 0.2686 0.69617 0.14279 0.0
H365 H 0.23521 0.7923 0.8996 0.0
H366 H 0.28111 0.83663 0.97902 0.0
H367 H 0.28142 0.81107 0.87844 0.0
H368 H 0.4058 0.93032 0.12957 0.0
H369 H 0.40421 0.86313 0.89624 0.0
H370 H 0.30647 0.82003 0.19637 0.0
H371 H 0.29986 0.84766 0.13382 0.0
H372 H 0.34626 0.88634 0.21002 0.0
H373 H 0.30537 0.74153 0.90463 0.0
H374 H 0.34151 0.78393 0.82485 0.0
H375 H 0.29487 0.76489 0.84053 0.0
C376 C 0.57409 0.44492 0.98174 0.0
C377 C 0.53721 0.4284 0.96 0.0
C378 C 0.57376 0.41173 0.98064 0.0
C379 C 0.5356 0.36043 0.9575 0.0
C380 C 0.49833 0.34347 0.93467 0.0
C381 C 0.49958 0.37755 0.93606 0.0
C382 C 0.61431 0.43165 0.00522 0.0
C383 C 0.45695 0.28914 0.90983 0.0
C384 C 0.54176 0.27819 0.88598 0.0
C385 C 0.53494 0.25868 0.96611 0.0
C386 C 0.54172 0.31093 0.88191 0.0
C387 C 0.53455 0.32454 0.95969 0.0
C388 C 0.52712 0.30449 0.04038 0.0
C389 C 0.5274 0.27195 0.04259 0.0
C390 C 0.54995 0.33153 0.79461 0.0
C391 C 0.51915 0.3177 0.12482 0.0
H392 H 0.60342 0.48399 1.00032 0.0
H393 H 0.47087 0.36418 0.91917 0.0
H394 H 0.61098 0.41555 0.06509 0.0
H395 H 0.62145 0.42071 0.9491 0.0
H396 H 0.64141 0.47255 0.02038 0.0
H397 H 0.43099 0.28192 0.89171 0.0
H398 H 0.45994 0.27411 0.852 0.0
H399 H 0.4483 0.26861 0.96719 0.0
H400 H 0.54806 0.26871 0.82674 0.0
H401 H 0.52139 0.25655 0.10447 0.0
H402 H 0.57887 0.37235 0.80465 0.0
H403 H 0.52359 0.32306 0.77313 0.0
H404 H 0.55387 0.31638 0.73952 0.0
H405 H 0.54668 0.35813 0.14574 0.0
H406 H 0.51318 0.29835 0.18169 0.0
H407 H 0.49162 0.30813 0.11138 0.0
loop_
_geom_bond_atom_site_label_1
_geom_bond_atom_site_label_2
_geom_bond_distance
_geom_bond_site_symmetry_2
_ccdc_geom_bond_type
Nd0 C2 2.836 1_556 S
Nd0 O20 2.500 1_556 S
Nd0 O21 2.492 . S
Nd0 O22 2.487 . S
Nd0 O23 2.682 1_655 S
Nd0 O24 2.410 . S
Nd0 O29 2.414 1_556 S
Nd0 O31 2.425 1_656 S
Nd1 C11 2.836 1_554 S
Nd1 O23 2.414 1_554 S
Nd1 O25 2.425 1_454 S
Nd1 O26 2.500 1_554 S
Nd1 O27 2.492 . S
Nd1 O28 2.487 . S
Nd1 O29 2.682 1_455 S
Nd1 O30 2.410 . S
C2 Nd0 2.836 1_554 S
C2 C3 1.498 . S
C2 O20 1.258 . S
C2 O21 1.239 1_554 S
C3 C2 1.498 . S
C3 C4 1.366 . S
C3 C8 1.407 1_554 S
C4 C3 1.366 . S
C4 C5 1.392 . S
C4 H32 0.930 . S
C5 C4 1.392 . S
C5 C6 1.398 . S
C5 H33 0.929 . S
C6 C5 1.398 . S
C6 C7 1.352 1_554 S
C7 C6 1.352 1_556 S
C7 C8 1.384 . S
C7 H34 0.930 . S
C8 C3 1.407 1_556 S
C8 C7 1.384 . S
C8 H35 0.929 . S
C9 O22 1.206 1_455 S
C9 O23 1.291 . S
C10 O24 1.251 . S
C10 O25 1.270 . S
C11 Nd1 2.836 1_556 S
C11 C12 1.498 . S
C11 O26 1.258 . S
C11 O27 1.239 1_556 S
C12 C11 1.498 . S
C12 C13 1.366 . S
C12 C17 1.407 1_556 S
C13 C12 1.366 . S
C13 C14 1.392 . S
C13 H36 0.930 . S
C14 C13 1.392 . S
C14 C15 1.398 . S
C14 H37 0.929 . S
C15 C14 1.398 . S
C15 C16 1.352 1_556 S
C16 C15 1.352 1_554 S
C16 C17 1.384 . S
C16 H38 0.930 . S
C17 C12 1.407 1_554 S
C17 C16 1.384 . S
C17 H39 0.929 . S
C18 O28 1.241 . S
C18 O29 1.273 1_455 S
C19 O30 1.251 . S
C19 O31 1.270 . S
O20 Nd0 2.500 1_554 S
O20 C2 1.258 . S
O21 Nd0 2.492 . S
O21 C2 1.239 1_556 S
O22 Nd0 2.487 . S
O22 C9 1.206 1_655 S
O23 Nd0 2.682 1_455 S
O23 Nd1 2.414 1_556 S
O23 C9 1.291 . S
O24 Nd0 2.410 . S
O24 C10 1.251 . S
O25 Nd1 2.425 1_656 S
O25 C10 1.270 . S
O26 Nd1 2.500 1_556 S
O26 C11 1.258 . S
O27 Nd1 2.492 . S
O27 C11 1.239 1_554 S
O28 Nd1 2.487 . S
O28 C18 1.241 . S
O29 Nd0 2.414 1_554 S
O29 Nd1 2.682 1_655 S
O29 C18 1.273 1_655 S
O30 Nd1 2.410 . S
O30 C19 1.251 . S
O31 Nd0 2.425 1_454 S
O31 C19 1.270 . S
H32 C4 0.930 . S
H33 C5 0.929 . S
H34 C7 0.930 . S
H35 C8 0.929 . S
H36 C13 0.930 . S
H37 C14 0.929 . S
H38 C16 0.930 . S
H39 C17 0.929 . S
Nd40 C42 2.836 . S
Nd40 O60 2.500 1_554 S
Nd40 O61 2.492 . S
Nd40 O62 2.487 . S
Nd40 O63 2.682 1_545 S
Nd40 O64 2.410 . S
Nd40 O69 2.414 1_554 S
Nd40 O71 2.424 1_545 S
Nd41 C51 2.836 . S
Nd41 O63 2.414 1_556 S
Nd41 O65 2.424 1_565 S
Nd41 O66 2.500 1_556 S
Nd41 O67 2.492 . S
Nd41 O68 2.487 . S
Nd41 O69 2.682 1_565 S
Nd41 O70 2.410 . S
C42 Nd40 2.836 . S
C42 C43 1.498 . S
C42 O60 1.258 1_554 S
C42 O61 1.239 . S
C43 C42 1.498 . S
C43 C44 1.366 1_554 S
C43 C48 1.407 . S
C44 C43 1.366 1_556 S
C44 C45 1.392 . S
C44 H72 0.930 . S
C45 C44 1.392 . S
C45 C46 1.398 1_556 S
C45 H73 0.929 . S
C46 C45 1.398 1_554 S
C46 C47 1.352 . S
C47 C46 1.352 . S
C47 C48 1.384 . S
C47 H74 0.930 . S
C48 C43 1.407 . S
C48 C47 1.384 . S
C48 H75 0.929 . S
C49 O62 1.241 . S
C49 O63 1.273 1_545 S
C50 O64 1.251 . S
C50 O65 1.268 1_554 S
C51 Nd41 2.836 . S
C51 C52 1.498 . S
C51 O66 1.258 1_556 S
C51 O67 1.239 . S
C52 C51 1.498 . S
C52 C53 1.366 1_556 S
C52 C57 1.407 . S
C53 C52 1.366 1_554 S
C53 C54 1.392 . S
C53 H76 0.930 . S
C54 C53 1.392 . S
C54 C55 1.398 1_554 S
C54 H77 0.929 . S
C55 C54 1.398 1_556 S
C55 C56 1.352 . S
C56 C55 1.352 . S
C56 C57 1.384 . S
C56 H78 0.930 . S
C57 C52 1.407 . S
C57 C56 1.384 . S
C57 H79 0.929 . S
C58 O68 1.241 . S
C58 O69 1.273 1_565 S
C59 O70 1.251 . S
C59 O71 1.268 1_556 S
O60 Nd40 2.500 1_556 S
O60 C42 1.258 1_556 S
O61 Nd40 2.492 . S
O61 C42 1.239 . S
O62 Nd40 2.487 . S
O62 C49 1.241 . S
O63 Nd40 2.682 1_565 S
O63 Nd41 2.414 1_554 S
O63 C49 1.273 1_565 S
O64 Nd40 2.410 . S
O64 C50 1.251 . S
O65 Nd41 2.424 1_545 S
O65 C50 1.268 1_556 S
O66 Nd41 2.500 1_554 S
O66 C51 1.258 1_554 S
O67 Nd41 2.492 . S
O67 C51 1.239 . S
O68 Nd41 2.487 . S
O68 C58 1.241 . S
O69 Nd40 2.414 1_556 S
O69 Nd41 2.682 1_545 S
O69 C58 1.273 1_545 S
O70 Nd41 2.410 . S
O70 C59 1.251 . S
O71 Nd40 2.424 1_565 S
O71 C59 1.268 1_554 S
H72 C44 0.930 . S
H73 C45 0.929 . S
H74 C47 0.930 . S
H75 C48 0.929 . S
H76 C53 0.930 . S
H77 C54 0.929 . S
H78 C56 0.930 . S
H79 C57 0.929 . S
Nd80 C82 2.836 1_554 S
Nd80 O100 2.500 1_554 S
Nd80 O101 2.492 . S
Nd80 O102 2.487 . S
Nd80 O103 2.682 . S
Nd80 O104 2.410 . S
Nd80 O109 2.414 1_554 S
Nd80 O111 2.424 1_554 S
Nd81 C91 2.836 1_556 S
Nd81 O103 2.414 1_556 S
Nd81 O105 2.424 1_556 S
Nd81 O106 2.500 1_556 S
Nd81 O107 2.492 . S
Nd81 O108 2.487 . S
Nd81 O109 2.682 . S
Nd81 O110 2.410 . S
C82 Nd80 2.836 1_556 S
C82 C83 1.498 . S
C82 O100 1.258 . S
C82 O101 1.239 1_556 S
C83 C82 1.498 . S
C83 C84 1.366 . S
C83 C88 1.407 1_556 S
C84 C83 1.366 . S
C84 C85 1.392 . S
C84 H112 0.930 . S
C85 C84 1.392 . S
C85 C86 1.398 . S
C85 H113 0.929 . S
C86 C85 1.398 . S
C86 C87 1.352 1_556 S
C87 C86 1.352 1_554 S
C87 C88 1.384 . S
C87 H114 0.930 . S
C88 C83 1.407 1_554 S
C88 C87 1.384 . S
C88 H115 0.929 . S
C89 O102 1.241 . S
C89 O103 1.273 . S
C90 O104 1.251 . S
C90 O105 1.268 . S
C91 Nd81 2.836 1_554 S
C91 C92 1.498 . S
C91 O106 1.258 . S
C91 O107 1.239 1_554 S
C92 C91 1.498 . S
C92 C93 1.366 . S
C92 C97 1.407 1_554 S
C93 C92 1.366 . S
C93 C94 1.392 . S
C93 H116 0.930 . S
C94 C93 1.392 . S
C94 C95 1.398 . S
C94 H117 0.929 . S
C95 C94 1.398 . S
C95 C96 1.352 1_554 S
C96 C95 1.352 1_556 S
C96 C97 1.384 . S
C96 H118 0.930 . S
C97 C92 1.407 1_556 S
C97 C96 1.384 . S
C97 H119 0.929 . S
C98 O108 1.241 . S
C98 O109 1.273 . S
C99 O110 1.251 . S
C99 O111 1.268 . S
O100 Nd80 2.500 1_556 S
O100 C82 1.258 . S
O101 Nd80 2.492 . S
O101 C82 1.239 1_554 S
O102 Nd80 2.487 . S
O102 C89 1.241 . S
O103 Nd80 2.682 . S
O103 Nd81 2.414 1_554 S
O103 C89 1.273 . S
O104 Nd80 2.410 . S
O104 C90 1.251 . S
O105 Nd81 2.424 1_554 S
O105 C90 1.268 . S
O106 Nd81 2.500 1_554 S
O106 C91 1.258 . S
O107 Nd81 2.492 . S
O107 C91 1.239 1_556 S
O108 Nd81 2.487 . S
O108 C98 1.241 . S
O109 Nd80 2.414 1_556 S
O109 Nd81 2.682 . S
O109 C98 1.273 . S
O110 Nd81 2.410 . S
O110 C99 1.251 . S
O111 Nd80 2.424 1_556 S
O111 C99 1.268 . S
H112 C84 0.930 . S
H113 C85 0.929 . S
H114 C87 0.930 . S
H115 C88 0.929 . S
H116 C93 0.930 . S
H117 C94 0.929 . S
H118 C96 0.930 . S
H119 C97 0.929 . S
C120 C121 1.429 . S
C120 C122 1.394 . S
C120 H136 0.931 . S
C121 C120 1.429 . S
C121 C125 1.337 1_455 S
C122 C120 1.394 . S
C122 C123 1.369 1_455 S
C122 C126 1.531 . S
C123 C122 1.369 1_655 S
C123 C124 1.410 . S
C123 C131 1.503 . S
C124 C123 1.410 . S
C124 C125 1.392 . S
C124 C127 1.511 . S
C125 C121 1.337 1_655 S
C125 C124 1.392 . S
C125 H137 0.929 . S
C126 C122 1.531 . S
C126 H138 0.960 . S
C126 H139 0.962 . S
C126 H140 0.960 . S
C127 C124 1.511 . S
C127 H141 0.961 . S
C127 H142 0.961 . S
C127 H143 0.961 . S
C128 C129 1.370 1_455 S
C128 C130 1.363 . S
C128 H144 0.931 . S
C129 C128 1.370 1_655 S
C129 C133 1.408 . S
C130 C128 1.363 . S
C130 C131 1.370 1_455 S
C130 C134 1.524 . S
C131 C123 1.503 . S
C131 C130 1.370 1_655 S
C131 C132 1.403 . S
C132 C131 1.403 . S
C132 C133 1.404 . S
C132 C135 1.539 . S
C133 C129 1.408 . S
C133 C132 1.404 . S
C133 H145 0.930 . S
C134 C130 1.524 . S
C134 H146 0.956 . S
C134 H147 0.961 . S
C134 H148 0.961 . S
C135 C132 1.539 . S
C135 H149 0.958 . S
C135 H150 0.961 . S
C135 H151 0.960 . S
H136 C120 0.931 . S
H137 C125 0.929 . S
H138 C126 0.960 . S
H139 C126 0.962 . S
H140 C126 0.960 . S
H141 C127 0.961 . S
H142 C127 0.961 . S
H143 C127 0.961 . S
H144 C128 0.931 . S
H145 C133 0.930 . S
H146 C134 0.956 . S
H147 C134 0.961 . S
H148 C134 0.961 . S
H149 C135 0.958 . S
H150 C135 0.961 . S
H151 C135 0.960 . S
C152 C153 1.391 . S
C152 C154 1.394 . S
C152 H168 0.931 . S
C153 C152 1.391 . S
C153 C157 1.376 1_545 S
C154 C152 1.394 . S
C154 C155 1.369 . S
C154 C158 1.531 . S
C155 C154 1.369 . S
C155 C156 1.410 1_545 S
C155 C163 1.503 . S
C156 C155 1.410 1_565 S
C156 C157 1.392 . S
C156 C159 1.511 . S
C157 C153 1.376 1_565 S
C157 C156 1.392 . S
C157 H169 0.929 . S
C158 C154 1.531 . S
C158 H170 0.960 . S
C158 H171 0.962 . S
C158 H172 0.960 . S
C159 C156 1.511 . S
C159 H173 0.961 . S
C159 H174 0.961 . S
C159 H175 0.961 . S
C160 C161 1.351 1_565 S
C160 C162 1.363 . S
C160 H176 0.931 . S
C161 C160 1.351 1_545 S
C161 C165 1.432 . S
C162 C160 1.363 . S
C162 C163 1.370 1_565 S
C162 C166 1.524 . S
C163 C155 1.503 . S
C163 C162 1.370 1_545 S
C163 C164 1.403 . S
C164 C163 1.403 . S
C164 C165 1.404 . S
C164 C167 1.539 . S
C165 C161 1.432 . S
C165 C164 1.404 . S
C165 H177 0.930 . S
C166 C162 1.524 . S
C166 H178 0.956 . S
C166 H179 0.961 . S
C166 H180 0.961 . S
C167 C164 1.539 . S
C167 H181 0.958 . S
C167 H182 0.961 . S
C167 H183 0.960 . S
H168 C152 0.931 . S
H169 C157 0.929 . S
H170 C158 0.960 . S
H171 C158 0.962 . S
H172 C158 0.960 . S
H173 C159 0.961 . S
H174 C159 0.961 . S
H175 C159 0.961 . S
H176 C160 0.931 . S
H177 C165 0.930 . S
H178 C166 0.956 . S
H179 C166 0.961 . S
H180 C166 0.961 . S
H181 C167 0.958 . S
H182 C167 0.961 . S
H183 C167 0.960 . S
C184 C185 1.391 . S
C184 C186 1.394 . S
C184 H200 0.931 . S
C185 C184 1.391 . S
C185 C189 1.376 . S
C186 C184 1.394 . S
C186 C187 1.369 . S
C186 C190 1.531 . S
C187 C186 1.369 . S
C187 C188 1.410 . S
C187 C195 1.503 . S
C188 C187 1.410 . S
C188 C189 1.392 . S
C188 C191 1.511 . S
C189 C185 1.376 . S
C189 C188 1.392 . S
C189 H201 0.929 . S
C190 C186 1.531 . S
C190 H202 0.960 . S
C190 H203 0.962 . S
C190 H204 0.960 . S
C191 C188 1.511 . S
C191 H205 0.961 . S
C191 H206 0.961 . S
C191 H207 0.961 . S
C192 C193 1.370 . S
C192 C194 1.363 . S
C192 H208 0.931 . S
C193 C192 1.370 . S
C193 C197 1.408 . S
C194 C192 1.363 . S
C194 C195 1.370 . S
C194 C198 1.524 . S
C195 C187 1.503 . S
C195 C194 1.370 . S
C195 C196 1.403 . S
C196 C195 1.403 . S
C196 C197 1.404 . S
C196 C199 1.539 . S
C197 C193 1.408 . S
C197 C196 1.404 . S
C197 H209 0.930 . S
C198 C194 1.524 . S
C198 H210 0.956 . S
C198 H211 0.961 . S
C198 H212 0.961 . S
C199 C196 1.539 . S
C199 H213 0.958 . S
C199 H214 0.961 . S
C199 H215 0.960 . S
H200 C184 0.931 . S
H201 C189 0.929 . S
H202 C190 0.960 . S
H203 C190 0.962 . S
H204 C190 0.960 . S
H205 C191 0.961 . S
H206 C191 0.961 . S
H207 C191 0.961 . S
H208 C192 0.931 . S
H209 C197 0.930 . S
H210 C198 0.956 . S
H211 C198 0.961 . S
H212 C198 0.961 . S
H213 C199 0.958 . S
H214 C199 0.961 . S
H215 C199 0.960 . S
C216 C217 1.391 . S
C216 C218 1.394 . S
C216 H232 0.931 . S
C217 C216 1.391 . S
C217 C221 1.376 . S
C218 C216 1.394 . S
C218 C219 1.369 . S
C218 C222 1.531 . S
C219 C218 1.369 . S
C219 C220 1.410 . S
C219 C227 1.503 . S
C220 C219 1.410 . S
C220 C221 1.392 . S
C220 C223 1.511 1_556 S
C221 C217 1.376 . S
C221 C220 1.392 . S
C221 H233 0.929 . S
C222 C218 1.531 . S
C222 H234 0.960 1_556 S
C222 H235 0.962 . S
C222 H236 0.960 . S
C223 C220 1.511 1_554 S
C223 H237 0.961 1_554 S
C223 H238 0.961 1_554 S
C223 H239 0.961 . S
C224 C225 1.370 . S
C224 C226 1.363 . S
C224 H240 0.931 . S
C225 C224 1.370 . S
C225 C229 1.408 1_556 S
C226 C224 1.363 . S
C226 C227 1.370 . S
C226 C230 1.524 . S
C227 C219 1.503 . S
C227 C226 1.370 . S
C227 C228 1.403 1_556 S
C228 C227 1.403 1_554 S
C228 C229 1.404 . S
C228 C231 1.539 . S
C229 C225 1.408 1_554 S
C229 C228 1.404 . S
C229 H241 0.930 . S
C230 C226 1.524 . S
C230 H242 0.956 . S
C230 H243 0.961 . S
C230 H244 0.961 . S
C231 C228 1.539 . S
C231 H245 0.958 . S
C231 H246 0.961 . S
C231 H247 0.960 . S
H232 C216 0.931 . S
H233 C221 0.929 . S
H234 C222 0.960 1_554 S
H235 C222 0.962 . S
H236 C222 0.960 . S
H237 C223 0.961 1_556 S
H238 C223 0.961 1_556 S
H239 C223 0.961 . S
H240 C224 0.931 . S
H241 C229 0.930 . S
H242 C230 0.956 . S
H243 C230 0.961 . S
H244 C230 0.961 . S
H245 C231 0.958 . S
H246 C231 0.961 . S
H247 C231 0.960 . S
C248 C249 1.391 . S
C248 C250 1.394 . S
C248 H264 0.931 . S
C249 C248 1.391 . S
C249 C253 1.376 1_554 S
C250 C248 1.394 . S
C250 C251 1.369 . S
C250 C254 1.531 . S
C251 C250 1.369 . S
C251 C252 1.410 1_554 S
C251 C259 1.503 . S
C252 C251 1.410 1_556 S
C252 C253 1.392 . S
C252 C255 1.511 . S
C253 C249 1.376 1_556 S
C253 C252 1.392 . S
C253 H265 0.929 . S
C254 C250 1.531 . S
C254 H266 0.960 . S
C254 H267 0.962 . S
C254 H268 0.960 . S
C255 C252 1.511 . S
C255 H269 0.961 . S
C255 H270 0.961 . S
C255 H271 0.961 . S
C256 C257 1.366 1_556 S
C256 C258 1.363 . S
C256 H272 0.931 . S
C257 C256 1.366 1_554 S
C257 C261 1.414 . S
C258 C256 1.363 . S
C258 C259 1.370 1_556 S
C258 C262 1.524 . S
C259 C251 1.503 . S
C259 C258 1.370 1_554 S
C259 C260 1.403 . S
C260 C259 1.403 . S
C260 C261 1.404 . S
C260 C263 1.539 . S
C261 C257 1.414 . S
C261 C260 1.404 . S
C261 H273 0.930 . S
C262 C258 1.524 . S
C262 H274 0.956 . S
C262 H275 0.961 . S
C262 H276 0.961 . S
C263 C260 1.539 . S
C263 H277 0.958 . S
C263 H278 0.961 . S
C263 H279 0.960 . S
H264 C248 0.931 . S
H265 C253 0.929 . S
H266 C254 0.960 . S
H267 C254 0.962 . S
H268 C254 0.960 . S
H269 C255 0.961 . S
H270 C255 0.961 . S
H271 C255 0.961 . S
H272 C256 0.931 . S
H273 C261 0.930 . S
H274 C262 0.956 . S
H275 C262 0.961 . S
H276 C262 0.961 . S
H277 C263 0.958 . S
H278 C263 0.961 . S
H279 C263 0.960 . S
C280 C281 1.391 1_554 S
C280 C282 1.394 . S
C280 H296 0.931 . S
C281 C280 1.391 1_556 S
C281 C285 1.376 . S
C282 C280 1.394 . S
C282 C283 1.369 . S
C282 C286 1.531 . S
C283 C282 1.369 . S
C283 C284 1.410 1_554 S
C283 C291 1.503 . S
C284 C283 1.410 1_556 S
C284 C285 1.392 . S
C284 C287 1.511 . S
C285 C281 1.376 . S
C285 C284 1.392 . S
C285 H297 0.929 . S
C286 C282 1.531 . S
C286 H298 0.960 . S
C286 H299 0.962 . S
C286 H300 0.960 . S
C287 C284 1.511 . S
C287 H301 0.961 . S
C287 H302 0.961 . S
C287 H303 0.961 . S
C288 C289 1.370 1_556 S
C288 C290 1.363 . S
C288 H304 0.931 . S
C289 C288 1.370 1_554 S
C289 C293 1.408 . S
C290 C288 1.363 . S
C290 C291 1.370 1_556 S
C290 C294 1.524 . S
C291 C283 1.503 . S
C291 C290 1.370 1_554 S
C291 C292 1.403 . S
C292 C291 1.403 . S
C292 C293 1.404 . S
C292 C295 1.539 . S
C293 C289 1.408 . S
C293 C292 1.404 . S
C293 H305 0.930 . S
C294 C290 1.524 . S
C294 H306 0.956 . S
C294 H307 0.961 . S
C294 H308 0.961 . S
C295 C292 1.539 . S
C295 H309 0.958 . S
C295 H310 0.961 . S
C295 H311 0.960 . S
H296 C280 0.931 . S
H297 C285 0.929 . S
H298 C286 0.960 . S
H299 C286 0.962 . S
H300 C286 0.960 . S
H301 C287 0.961 . S
H302 C287 0.961 . S
H303 C287 0.961 . S
H304 C288 0.931 . S
H305 C293 0.930 . S
H306 C294 0.956 . S
H307 C294 0.961 . S
H308 C294 0.961 . S
H309 C295 0.958 . S
H310 C295 0.961 . S
H311 C295 0.960 . S
C312 C313 1.391 1_556 S
C312 C314 1.394 . S
C312 H328 0.931 . S
C313 C312 1.391 1_554 S
C313 C317 1.376 . S
C314 C312 1.394 . S
C314 C315 1.369 1_556 S
C314 C318 1.531 . S
C315 C314 1.369 1_554 S
C315 C316 1.410 . S
C315 C323 1.503 . S
C316 C315 1.410 . S
C316 C317 1.392 . S
C316 C319 1.511 . S
C317 C313 1.376 . S
C317 C316 1.392 . S
C317 H329 0.929 . S
C318 C314 1.531 . S
C318 H330 0.960 . S
C318 H331 0.962 1_556 S
C318 H332 0.960 . S
C319 C316 1.511 . S
C319 H333 0.961 . S
C319 H334 0.961 . S
C319 H335 0.961 . S
C320 C321 1.370 . S
C320 C322 1.363 . S
C320 H336 0.931 . S
C321 C320 1.370 . S
C321 C325 1.408 1_554 S
C322 C320 1.363 . S
C322 C323 1.370 . S
C322 C326 1.524 . S
C323 C315 1.503 . S
C323 C322 1.370 . S
C323 C324 1.403 1_554 S
C324 C323 1.403 1_556 S
C324 C325 1.404 . S
C324 C327 1.539 . S
C325 C321 1.408 1_556 S
C325 C324 1.404 . S
C325 H337 0.930 . S
C326 C322 1.524 . S
C326 H338 0.956 . S
C326 H339 0.961 . S
C326 H340 0.961 . S
C327 C324 1.539 . S
C327 H341 0.958 . S
C327 H342 0.961 . S
C327 H343 0.960 . S
H328 C312 0.931 . S
H329 C317 0.929 . S
H330 C318 0.960 . S
H331 C318 0.962 1_554 S
H332 C318 0.960 . S
H333 C319 0.961 . S
H334 C319 0.961 . S
H335 C319 0.961 . S
H336 C320 0.931 . S
H337 C325 0.930 . S
H338 C326 0.956 . S
H339 C326 0.961 . S
H340 C326 0.961 . S
H341 C327 0.958 . S
H342 C327 0.961 . S
H343 C327 0.960 . S
C344 C345 1.391 1_554 S
C344 C346 1.394 . S
C344 H360 0.931 . S
C345 C344 1.391 1_556 S
C345 C349 1.376 . S
C346 C344 1.394 . S
C346 C347 1.369 1_554 S
C346 C350 1.531 . S
C347 C346 1.369 1_556 S
C347 C348 1.410 . S
C347 C355 1.503 . S
C348 C347 1.410 . S
C348 C349 1.392 . S
C348 C351 1.511 . S
C349 C345 1.376 . S
C349 C348 1.392 . S
C349 H361 0.929 . S
C350 C346 1.531 . S
C350 H362 0.960 . S
C350 H363 0.962 . S
C350 H364 0.960 . S
C351 C348 1.511 . S
C351 H365 0.961 . S
C351 H366 0.961 . S
C351 H367 0.961 . S
C352 C353 1.370 1_554 S
C352 C354 1.363 . S
C352 H368 0.931 . S
C353 C352 1.370 1_556 S
C353 C357 1.408 . S
C354 C352 1.363 . S
C354 C355 1.370 1_554 S
C354 C358 1.524 . S
C355 C347 1.503 . S
C355 C354 1.370 1_556 S
C355 C356 1.403 . S
C356 C355 1.403 . S
C356 C357 1.404 . S
C356 C359 1.539 . S
C357 C353 1.408 . S
C357 C356 1.404 . S
C357 H369 0.930 . S
C358 C354 1.524 . S
C358 H370 0.956 . S
C358 H371 0.961 . S
C358 H372 0.961 . S
C359 C356 1.539 . S
C359 H373 0.958 . S
C359 H374 0.961 . S
C359 H375 0.960 . S
H360 C344 0.931 . S
H361 C349 0.929 . S
H362 C350 0.960 . S
H363 C350 0.962 . S
H364 C350 0.960 . S
H365 C351 0.961 . S
H366 C351 0.961 . S
H367 C351 0.961 . S
H368 C352 0.931 . S
H369 C357 0.930 . S
H370 C358 0.956 . S
H371 C358 0.961 . S
H372 C358 0.961 . S
H373 C359 0.958 . S
H374 C359 0.961 . S
H375 C359 0.960 . S
C376 C377 1.391 . S
C376 C378 1.394 . S
C376 H392 0.931 . S
C377 C376 1.391 . S
C377 C381 1.376 1_554 S
C378 C376 1.394 . S
C378 C379 1.369 . S
C378 C382 1.531 . S
C379 C378 1.369 . S
C379 C380 1.410 1_554 S
C379 C387 1.503 . S
C380 C379 1.410 1_556 S
C380 C381 1.392 . S
C380 C383 1.511 . S
C381 C377 1.376 1_556 S
C381 C380 1.392 . S
C381 H393 0.929 . S
C382 C378 1.531 . S
C382 H394 0.960 . S
C382 H395 0.962 . S
C382 H396 0.960 . S
C383 C380 1.511 . S
C383 H397 0.961 . S
C383 H398 0.961 . S
C383 H399 0.961 1_556 S
C384 C385 1.370 1_556 S
C384 C386 1.363 . S
C384 H400 0.931 . S
C385 C384 1.370 1_554 S
C385 C389 1.408 . S
C386 C384 1.363 . S
C386 C387 1.370 1_556 S
C386 C390 1.524 . S
C387 C379 1.503 . S
C387 C386 1.370 1_554 S
C387 C388 1.403 . S
C388 C387 1.403 . S
C388 C389 1.404 . S
C388 C391 1.539 . S
C389 C385 1.408 . S
C389 C388 1.404 . S
C389 H401 0.930 . S
C390 C386 1.524 . S
C390 H402 0.956 . S
C390 H403 0.961 . S
C390 H404 0.961 . S
C391 C388 1.539 . S
C391 H405 0.958 . S
C391 H406 0.961 . S
C391 H407 0.960 . S
H392 C376 0.931 . S
H393 C381 0.929 . S
H394 C382 0.960 . S
H395 C382 0.962 . S
H396 C382 0.960 . S
H397 C383 0.961 . S
H398 C383 0.961 . S
H399 C383 0.961 1_554 S
H400 C384 0.931 . S
H401 C389 0.930 . S
H402 C390 0.956 . S
H403 C390 0.961 . S
H404 C390 0.961 . S
H405 C391 0.958 . S
H406 C391 0.961 . S
H407 C391 0.960 . S
C121 C9 1.452 . S
C129 C18 1.437 1_655 S
C153 C49 1.424 . S
C161 C58 1.458 1_545 S
C185 C98 1.472 . S
C193 C89 1.428 . S
C217 C15 0.907 . S
C225 C86 0.914 . S
C249 C50 2.560 . S
C257 C10 2.625 1_554 S
C281 C55 2.011 . S
C289 C90 2.053 . S
C313 C6 0.914 . S
C321 C95 0.911 . S
C345 C19 2.624 1_556 S
C353 C59 2.580 . S
C377 C99 2.064 1_554 S
C385 C46 1.989 . S
