# Generated by pormake.
# Topology wje, (4)-cn, num edge types: 1
# Building blocks:
#     Node 0, Type 0, BuildingBlock: NAHDIM_clean_sbu_0, # of connection points: 4
#     Node 1, Type 0, BuildingBlock: NAHDIM_clean_sbu_0, # of connection points: 4
#     Node 2, Type 0, BuildingBlock: NAHDIM_clean_sbu_0, # of connection points: 4
#     Node 3, Type 0, BuildingBlock: NAHDIM_clean_sbu_0, # of connection points: 4
#     Node 4, Type 0, BuildingBlock: NAHDIM_clean_sbu_0, # of connection points: 4
#     Node 5, Type 0, BuildingBlock: NAHDIM_clean_sbu_0, # of connection points: 4
#     Node 6, Type 0, BuildingBlock: NAHDIM_clean_sbu_0, # of connection points: 4
#     Node 7, Type 0, BuildingBlock: NAHDIM_clean_sbu_0, # of connection points: 4
#     Node 8, Type 0, BuildingBlock: NAHDIM_clean_sbu_0, # of connection points: 4
#     Node 9, Type 0, BuildingBlock: NAHDIM_clean_sbu_0, # of connection points: 4
#     Node 10, Type 0, BuildingBlock: NAHDIM_clean_sbu_0, # of connection points: 4
#     Node 11, Type 0, BuildingBlock: NAHDIM_clean_sbu_0, # of connection points: 4
#     Edge 12, Type (0, 0), BuildingBlock: XUDNAN_clean_linker_2, # of connection points: 2
#     Edge 13, Type (0, 0), BuildingBlock: XUDNAN_clean_linker_2, # of connection points: 2
#     Edge 14, Type (0, 0), BuildingBlock: XUDNAN_clean_linker_2, # of connection points: 2
#     Edge 15, Type (0, 0), BuildingBlock: XUDNAN_clean_linker_2, # of connection points: 2
#     Edge 16, Type (0, 0), BuildingBlock: XUDNAN_clean_linker_2, # of connection points: 2
#     Edge 17, Type (0, 0), BuildingBlock: XUDNAN_clean_linker_2, # of connection points: 2
#     Edge 18, Type (0, 0), BuildingBlock: XUDNAN_clean_linker_2, # of connection points: 2
#     Edge 19, Type (0, 0), BuildingBlock: XUDNAN_clean_linker_2, # of connection points: 2
#     Edge 20, Type (0, 0), BuildingBlock: XUDNAN_clean_linker_2, # of connection points: 2
#     Edge 21, Type (0, 0), BuildingBlock: XUDNAN_clean_linker_2, # of connection points: 2
#     Edge 22, Type (0, 0), BuildingBlock: XUDNAN_clean_linker_2, # of connection points: 2
#     Edge 23, Type (0, 0), BuildingBlock: XUDNAN_clean_linker_2, # of connection points: 2
#     Edge 24, Type (0, 0), BuildingBlock: XUDNAN_clean_linker_2, # of connection points: 2
#     Edge 25, Type (0, 0), BuildingBlock: XUDNAN_clean_linker_2, # of connection points: 2
#     Edge 26, Type (0, 0), BuildingBlock: XUDNAN_clean_linker_2, # of connection points: 2
#     Edge 27, Type (0, 0), BuildingBlock: XUDNAN_clean_linker_2, # of connection points: 2
#     Edge 28, Type (0, 0), BuildingBlock: XUDNAN_clean_linker_2, # of connection points: 2
#     Edge 29, Type (0, 0), BuildingBlock: XUDNAN_clean_linker_2, # of connection points: 2
#     Edge 30, Type (0, 0), BuildingBlock: XUDNAN_clean_linker_2, # of connection points: 2
#     Edge 31, Type (0, 0), BuildingBlock: XUDNAN_clean_linker_2, # of connection points: 2
#     Edge 32, Type (0, 0), BuildingBlock: XUDNAN_clean_linker_2, # of connection points: 2
#     Edge 33, Type (0, 0), BuildingBlock: XUDNAN_clean_linker_2, # of connection points: 2
#     Edge 34, Type (0, 0), BuildingBlock: XUDNAN_clean_linker_2, # of connection points: 2
#     Edge 35, Type (0, 0), BuildingBlock: XUDNAN_clean_linker_2, # of connection points: 2
# Relax obj value: 0.167
# Max RMSD: 0.138
# Mean RMSD: 0.138
data_MOF--net-wje--node1-NAHDIM_clean_sbu_0--edge1-XUDNAN_clean_linker_2
_symmetry_space_group_name_H-M    P1
_symmetry_Int_Tables_number       1
_symmetry_cell_setting            triclinic
loop_
_symmetry_equiv_pos_as_xyz
'x, y, z'
_cell_length_a     41.309043
_cell_length_b     41.284168
_cell_length_c     35.947808
_cell_angle_alpha  89.970382
_cell_angle_beta   89.966676
_cell_angle_gamma 119.99031
loop_
_atom_site_label
_atom_site_type_symbol
_atom_site_fract_x
_atom_site_fract_y
_atom_site_fract_z
_atom_type_partial_charge
C0 C 0.29037 0.02056 0.1974 0.0
O1 O 0.29803 0.99526 0.18479 0.0
O2 O 0.25158 0.93364 0.26232 0.0
Zn3 Zn 0.29314 0.98732 0.26546 0.0
O4 O 0.34259 0.99172 0.25258 0.0
C5 C 0.26195 0.9866 0.33583 0.0
O6 O 0.23128 0.96865 0.31599 0.0
O7 O 0.28524 0.02183 0.23211 0.0
C8 C 0.35682 0.97721 0.27334 0.0
O9 O 0.33905 0.95953 0.30373 0.0
C10 C 0.25627 0.90596 0.25613 0.0
O11 O 0.28842 0.91192 0.2429 0.0
O12 O 0.29345 0.00039 0.31951 0.0
C13 C 0.27244 0.32608 0.54557 0.0
O14 O 0.30272 0.32667 0.53335 0.0
O15 O 0.32383 0.30275 0.61936 0.0
Zn16 Zn 0.31175 0.34424 0.61568 0.0
O17 O 0.35911 0.39207 0.60161 0.0
C18 C 0.27716 0.31987 0.68735 0.0
O19 O 0.26292 0.28671 0.67184 0.0
O20 O 0.27016 0.33248 0.57975 0.0
C21 C 0.37617 0.41674 0.62649 0.0
O22 O 0.36144 0.41157 0.65985 0.0
C23 C 0.34859 0.30836 0.64354 0.0
O24 O 0.36548 0.34064 0.66092 0.0
O25 O 0.29616 0.34881 0.66748 0.0
C26 C 0.93886 0.27772 0.87555 0.0
O27 O 0.9702 0.30683 0.86432 0.0
O28 O 0.01434 0.30055 0.94927 0.0
Zn29 Zn 0.96961 0.30736 0.94705 0.0
O30 O 0.98409 0.36035 0.93436 0.0
C31 C 0.96808 0.31621 0.02478 0.0
O32 O -0.00116 0.34734 0.01631 0.0
O33 O 0.93245 0.27208 0.9102 0.0
C34 C 0.96354 0.3732 0.94548 0.0
O35 O 0.93298 0.35129 0.9643 0.0
C36 C 0.04728 0.32771 0.95398 0.0
O37 O 0.05327 0.36209 0.95296 0.0
O38 O 0.94843 0.29451 -0.0013 0.0
C39 C 0.65963 0.93123 0.22147 0.0
O40 O 0.64284 0.94266 0.19828 0.0
O41 O 0.69818 0.03012 0.28475 0.0
Zn42 Zn 0.65244 0.97972 0.27693 0.0
O43 O 0.61242 0.98317 0.24841 0.0
C44 C 0.6103 0.96798 0.34584 0.0
O45 O 0.59148 0.9802 0.32673 0.0
O46 O 0.66616 0.94365 0.25457 0.0
C47 C 0.5799 0.95457 0.24858 0.0
O48 O 0.57507 0.92353 0.26386 0.0
C49 C 0.69324 0.05377 0.30286 0.0
O50 O 0.65896 0.04654 0.30918 0.0
O51 O 0.63489 0.96316 0.32949 0.0
C52 C 0.74318 0.69594 0.56756 0.0
O53 O 0.71103 0.69064 0.55499 0.0
O54 O 0.7028 0.73309 0.6487 0.0
Zn55 Zn 0.70749 0.68738 0.63871 0.0
O56 O 0.65764 0.6457 0.61997 0.0
C57 C 0.73684 0.69605 0.71318 0.0
O58 O 0.75339 0.73181 0.7049 0.0
O59 O 0.74836 0.69685 0.60247 0.0
C60 C 0.63519 0.62129 0.64288 0.0
O61 O 0.64539 0.62295 0.67773 0.0
C62 C 0.68162 0.72964 0.67598 0.0
O63 O 0.66357 0.69727 0.69312 0.0
O64 O 0.71857 0.67206 0.68814 0.0
C65 C 0.09852 0.76591 0.91999 0.0
O66 O 0.06663 0.74512 0.90276 0.0
O67 O 0.01567 0.71819 0.98113 0.0
Zn68 Zn 0.06111 0.7124 0.97785 0.0
O69 O 0.05 0.66415 0.95319 0.0
C70 C 0.07204 0.73084 0.0548 0.0
O71 O 0.06672 0.75805 0.04334 0.0
O72 O 0.10287 0.75695 0.95264 0.0
C73 C 0.02914 0.63446 0.9714 0.0
O74 O 0.01549 0.63711 0.00356 0.0
C75 C 0.98269 0.69417 0.9714 0.0
O76 O 0.97678 0.66387 0.95372 0.0
O77 O 0.07394 0.7092 0.0309 0.0
C78 C 0.94292 0.67577 0.44157 0.0
O79 O 0.96757 0.678 0.46604 0.0
O80 O 0.0376 0.70329 0.40258 0.0
Zn81 Zn 0.98708 0.65875 0.39183 0.0
O82 O 0.97985 0.60979 0.41179 0.0
C83 C 0.00054 0.68564 0.31728 0.0
O84 O 0.00875 0.71709 0.33408 0.0
O85 O 0.9457 0.66779 0.40803 0.0
C86 C -0.00461 0.59445 0.3942 0.0
O87 O 0.01651 0.61165 0.36526 0.0
C88 C 0.06701 0.70101 0.40599 0.0
O89 O 0.06384 0.6685 0.41381 0.0
O90 O 0.98755 0.65572 0.33625 0.0
C91 C 0.27702 0.96541 0.756 0.0
O92 O 0.31291 0.98813 0.76131 0.0
O93 O 0.31497 0.04722 0.68666 0.0
Zn94 Zn 0.30084 0.99304 0.68366 0.0
O95 O 0.34489 0.98523 0.69046 0.0
C96 C 0.3009 0.99441 0.6057 0.0
O97 O 0.33518 0.02091 0.61317 0.0
O98 O 0.26362 0.96281 0.72359 0.0
C99 C 0.37931 0.00964 0.68782 0.0
O100 O 0.38911 0.04407 0.67831 0.0
C101 C 0.33644 0.07208 0.70963 0.0
O102 O 0.35231 0.06327 0.73636 0.0
O103 O 0.27934 0.97613 0.63249 0.0
C104 C 0.31745 0.24627 0.07703 0.0
O105 O 0.30882 0.26507 0.10063 0.0
O106 O 0.2808 0.30345 0.0422 0.0
Zn107 Zn 0.32984 0.30696 0.02944 0.0
O108 O 0.37409 0.35274 0.05221 0.0
C109 C 0.30595 0.29054 0.95289 0.0
O110 O 0.27734 0.26056 0.96711 0.0
O111 O 0.32822 0.25929 0.04449 0.0
C112 C 0.39009 0.38239 0.03262 0.0
O113 O 0.3774 0.3821 -0.00091 0.0
C114 C 0.2754 0.32959 0.03108 0.0
O115 O 0.30346 0.35977 0.01658 0.0
O116 O 0.33272 0.31242 0.97391 0.0
C117 C 0.05248 0.30196 0.41561 0.0
O118 O 0.03023 0.30504 0.43971 0.0
O119 O 0.95181 0.25327 0.37979 0.0
Zn120 Zn -0.00149 0.30008 0.36444 0.0
O121 O -0.00175 0.34586 0.3836 0.0
C122 C 0.97749 0.27065 0.29078 0.0
O123 O 0.9624 0.23889 0.30914 0.0
O124 O 0.04446 0.29926 0.38123 0.0
C125 C 0.96797 0.34682 0.38423 0.0
O126 O 0.93688 0.31772 0.37266 0.0
C127 C 0.92984 0.24661 0.40707 0.0
O128 O 0.93867 0.27193 0.43317 0.0
O129 O -0.00356 0.30119 0.30841 0.0
C130 C 0.72862 0.0776 0.7386 0.0
O131 O 0.70357 0.05454 0.76245 0.0
O132 O 0.68384 0.97858 0.69694 0.0
Zn133 Zn 0.67764 0.02316 0.68793 0.0
O134 O 0.63144 0.0174 0.71248 0.0
C135 C 0.67661 0.00829 0.6091 0.0
O136 O 0.69658 0.99287 0.61853 0.0
O137 O 0.72341 0.07024 0.7041 0.0
C138 C 0.60166 0.98589 0.70988 0.0
O139 O 0.60327 0.95763 0.69511 0.0
C140 C 0.67609 0.96003 0.72702 0.0
O141 O 0.66387 0.97053 0.75572 0.0
O142 O 0.66773 0.02451 0.63371 0.0
C143 C 0.69388 0.73332 0.10946 0.0
O144 O 0.70417 0.71119 0.12528 0.0
O145 O 0.73789 0.69202 0.06272 0.0
Zn146 Zn 0.68745 0.68568 0.05163 0.0
O147 O 0.64534 0.63678 0.07075 0.0
C148 C 0.67586 0.65569 0.97858 0.0
O149 O 0.66381 0.62501 -0.00169 0.0
O150 O 0.6844 0.72817 0.0754 0.0
C151 C 0.61312 0.62863 0.05913 0.0
O152 O 0.60989 0.65276 0.03783 0.0
C153 C 0.74505 0.66584 0.05741 0.0
O154 O 0.71762 0.63222 0.0493 0.0
O155 O 0.68562 0.68639 0.99532 0.0
H156 H 0.28205 0.08062 0.21554 0.0
H157 H 0.30235 0.02637 0.1222 0.0
H158 H 0.30986 0.07742 0.08087 0.0
H159 H 0.23017 0.11622 0.16365 0.0
H160 H 0.25036 0.15931 0.18959 0.0
H161 H 0.24433 0.11728 0.21127 0.0
H162 H 0.31486 0.15133 0.22757 0.0
H163 H 0.32118 0.19334 0.20569 0.0
H164 H 0.34894 0.17311 0.19099 0.0
H165 H 0.31895 0.13619 0.05049 0.0
H166 H 0.32629 0.19727 0.03267 0.0
H167 H 0.29973 0.21292 0.14578 0.0
C168 C 0.28755 0.07916 0.18632 0.0
C169 C 0.29156 0.04944 0.17211 0.0
C170 C 0.29908 0.0488 0.13373 0.0
C171 C 0.30343 0.07769 0.11002 0.0
C172 C 0.30002 0.10692 0.12507 0.0
C173 C 0.29197 0.10775 0.16226 0.0
C174 C 0.2908 0.14291 0.17164 0.0
C175 C 0.25158 0.13335 0.18481 0.0
C176 C 0.32073 0.16656 0.20069 0.0
C177 C 0.29993 0.16195 0.13402 0.0
C178 C 0.30509 0.14071 0.10752 0.0
C179 C 0.3147 0.15295 0.07093 0.0
C180 C 0.31893 0.18775 0.06112 0.0
C181 C 0.31353 0.20988 0.08779 0.0
C182 C 0.30389 0.19664 0.12469 0.0
H183 H 0.20688 0.32436 0.56228 0.0
H184 H 0.2687 0.31272 0.47049 0.0
H185 H 0.21822 0.30342 0.42733 0.0
H186 H 0.11451 0.25506 0.53059 0.0
H187 H 0.0932 0.28153 0.54628 0.0
H188 H 0.13361 0.28593 0.56998 0.0
H189 H 0.16821 0.35766 0.55961 0.0
H190 H 0.12797 0.35349 0.53583 0.0
H191 H 0.17289 0.37582 0.51308 0.0
H192 H 0.1618 0.29745 0.39394 0.0
H193 H 0.10369 0.29497 0.37292 0.0
H194 H 0.07916 0.31048 0.48686 0.0
C195 C 0.20978 0.31962 0.53315 0.0
C196 C 0.24177 0.31925 0.51977 0.0
C197 C 0.24445 0.31309 0.4814 0.0
C198 C 0.21591 0.30775 0.45667 0.0
C199 C 0.18489 0.30857 0.47079 0.0
C200 C 0.18163 0.31425 0.50815 0.0
C201 C 0.14587 0.31467 0.51618 0.0
C202 C 0.12029 0.28237 0.5423 0.0
C203 C 0.15426 0.35267 0.5321 0.0
C204 C 0.12965 0.3087 0.47741 0.0
C205 C 0.15249 0.30511 0.45163 0.0
C206 C 0.14361 0.30005 0.41391 0.0
C207 C 0.11056 0.29872 0.40225 0.0
C208 C 0.08683 0.30249 0.42823 0.0
C209 C 0.09659 0.30738 0.4663 0.0
H210 H 0.7491 0.09949 0.81069 0.0
H211 H 0.78565 0.13129 0.6965 0.0
H212 H 0.84339 0.18646 0.71898 0.0
H213 H 0.78429 0.19274 0.84622 0.0
H214 H 0.79818 0.18255 0.89022 0.0
H215 H 0.75956 0.14598 0.86498 0.0
H216 H 0.79196 0.10603 0.8663 0.0
H217 H 0.8307 0.14249 0.89148 0.0
H218 H 0.8388 0.12545 0.84833 0.0
H219 H 0.89758 0.23778 0.75419 0.0
H220 H 0.94389 0.28138 0.79942 0.0
H221 H 0.8714 0.21536 0.89019 0.0
C222 C 0.76913 0.11809 0.79034 0.0
C223 C 0.76284 0.1111 0.75183 0.0
C224 C 0.78986 0.1361 0.72616 0.0
C225 C 0.82274 0.16751 0.73865 0.0
C226 C 0.82811 0.17346 0.77684 0.0
C227 C 0.80203 0.14946 0.80229 0.0
C228 C 0.81463 0.16188 0.84182 0.0
C229 C 0.78755 0.17136 0.86198 0.0
C230 C 0.81931 0.1322 0.86323 0.0
C231 C 0.85193 0.19658 0.83466 0.0
C232 C 0.85923 0.20285 0.79703 0.0
C233 C 0.89214 0.23319 0.78373 0.0
C234 C 0.91827 0.25777 0.80963 0.0
C235 C 0.91128 0.2518 0.84833 0.0
C236 C 0.87761 0.22075 0.86081 0.0
H237 H 0.66728 0.77992 0.08826 0.0
H238 H 0.71931 0.75468 0.1802 0.0
H239 H 0.71799 0.80392 0.21762 0.0
H240 H 0.71495 0.88059 0.10246 0.0
H241 H 0.67458 0.8844 0.09068 0.0
H242 H 0.68072 0.84797 0.07028 0.0
H243 H 0.61555 0.79808 0.09474 0.0
H244 H 0.60922 0.83434 0.11519 0.0
H245 H 0.60525 0.79656 0.14367 0.0
H246 H 0.71001 0.8544 0.24568 0.0
H247 H 0.6948 0.90285 0.26335 0.0
H248 H 0.64733 0.89565 0.15375 0.0
C249 C 0.67861 0.78493 0.11617 0.0
C250 C 0.69346 0.76346 0.13127 0.0
C251 C 0.70777 0.7707 0.16801 0.0
C252 C 0.70723 0.79869 0.1895 0.0
C253 C 0.69228 0.81919 0.1739 0.0
C254 C 0.67818 0.81273 0.13814 0.0
C255 C 0.66278 0.83823 0.12856 0.0
C256 C 0.68457 0.86435 0.09607 0.0
C257 C 0.6207 0.81543 0.12005 0.0
C258 C 0.67018 0.85974 0.16468 0.0
C259 C 0.6874 0.84839 0.19031 0.0
C260 C 0.69663 0.86365 0.22584 0.0
C261 C 0.68783 0.89116 0.2356 0.0
C262 C 0.66986 0.9031 0.20995 0.0
C263 C 0.66116 0.88724 0.17394 0.0
H264 H 0.92579 0.6881 0.51199 0.0
H265 H 0.88948 0.67649 0.397 0.0
H266 H 0.83651 0.68444 0.41628 0.0
H267 H 0.83566 0.63655 0.55154 0.0
H268 H 0.84648 0.66581 0.59212 0.0
H269 H 0.88288 0.66169 0.56894 0.0
H270 H 0.92135 0.73373 0.56133 0.0
H271 H 0.885 0.73807 0.58447 0.0
H272 H 0.90046 0.75783 0.53877 0.0
H273 H 0.78576 0.69062 0.44847 0.0
H274 H 0.74044 0.69334 0.49135 0.0
H275 H 0.8101 0.70089 0.58514 0.0
C276 C 0.90694 0.68758 0.49078 0.0
C277 C 0.91185 0.68174 0.45297 0.0
C278 C 0.88633 0.68096 0.42615 0.0
C279 C 0.85619 0.68554 0.4368 0.0
C280 C 0.85202 0.69099 0.47434 0.0
C281 C 0.87671 0.69206 0.50091 0.0
C282 C 0.8651 0.69674 0.53958 0.0
C283 C 0.85704 0.66319 0.5645 0.0
C284 C 0.89475 0.7338 0.55706 0.0
C285 C 0.82969 0.69752 0.53067 0.0
C286 C 0.82277 0.69446 0.49287 0.0
C287 C 0.79102 0.6933 0.47811 0.0
C288 C 0.76544 0.69486 0.5027 0.0
C289 C 0.77171 0.69741 0.54161 0.0
C290 C 0.80456 0.69921 0.55555 0.0
H291 H 0.2044 0.9073 0.75276 0.0
H292 H 0.29718 0.96852 0.82871 0.0
H293 H 0.26054 0.92552 0.87938 0.0
H294 H 0.12967 0.88553 0.82044 0.0
H295 H 0.0997 0.83958 0.80151 0.0
H296 H 0.13226 0.87678 0.7717 0.0
H297 H 0.16076 0.83603 0.75167 0.0
H298 H 0.1285 0.79883 0.78156 0.0
H299 H 0.17807 0.81728 0.78671 0.0
H300 H 0.21586 0.874 0.92072 0.0
H301 H 0.16491 0.81794 0.95078 0.0
H302 H 0.10086 0.79003 0.84829 0.0
C303 C 0.21679 0.91201 0.78017 0.0
C304 C 0.25364 0.94132 0.78678 0.0
C305 C 0.269 0.94627 0.82296 0.0
C306 C 0.24841 0.92202 0.85197 0.0
C307 C 0.21246 0.89302 0.84439 0.0
C308 C 0.19663 0.88799 0.80949 0.0
C309 C 0.15797 0.85371 0.80851 0.0
C310 C 0.12814 0.86456 0.80005 0.0
C311 C 0.15625 0.82476 0.78045 0.0
C312 C 0.15484 0.84001 0.84816 0.0
C313 C 0.18654 0.86319 0.86838 0.0
C314 C 0.19074 0.85577 0.9053 0.0
C315 C 0.16169 0.82378 0.92208 0.0
C316 C 0.12886 0.79962 0.90193 0.0
C317 C 0.12549 0.80804 0.86451 0.0
H318 H 0.38324 0.93237 0.29868 0.0
H319 H 0.40846 0.02334 0.22215 0.0
H320 H 0.46659 0.0244 0.20336 0.0
H321 H 0.47582 0.96417 0.32908 0.0
H322 H 0.47035 0.9181 0.33161 0.0
H323 H 0.43044 0.92408 0.33789 0.0
H324 H 0.39601 0.8767 0.28471 0.0
H325 H 0.43603 0.87084 0.27807 0.0
H326 H 0.41768 0.88463 0.23953 0.0
H327 H 0.52443 0.01868 0.19689 0.0
H328 H 0.57651 0.00548 0.20226 0.0
H329 H 0.5108 0.91554 0.27971 0.0
C330 C 0.40096 0.9525 0.27794 0.0
C331 C 0.39151 0.97792 0.26201 0.0
C332 C 0.41523 0.00361 0.2347 0.0
C333 C 0.44823 0.00437 0.22381 0.0
C334 C 0.45672 0.97886 0.24007 0.0
C335 C 0.43362 0.95325 0.26636 0.0
C336 C 0.44928 0.92921 0.28002 0.0
C337 C 0.45693 0.93421 0.32213 0.0
C338 C 0.42319 0.8879 0.26997 0.0
C339 C 0.48521 0.94579 0.25789 0.0
C340 C 0.48908 0.97444 0.23501 0.0
C341 C 0.52141 0.99585 0.21416 0.0
C342 C 0.55079 0.98817 0.21733 0.0
C343 C 0.54734 0.95908 0.24082 0.0
C344 C 0.51381 0.93724 0.26069 0.0
H345 H 0.57649 0.57821 0.68821 0.0
H346 H 0.6082 0.59917 0.57181 0.0
H347 H 0.54436 0.54979 0.55391 0.0
H348 H 0.51915 0.47956 0.68225 0.0
H349 H 0.48537 0.4774 0.71539 0.0
H350 H 0.53328 0.51437 0.71831 0.0
H351 H 0.51193 0.56366 0.715 0.0
H352 H 0.46392 0.52682 0.71196 0.0
H353 H 0.48331 0.56259 0.67664 0.0
H354 H 0.47696 0.49542 0.54965 0.0
H355 H 0.41217 0.44335 0.55938 0.0
H356 H 0.42597 0.46184 0.67856 0.0
C357 C 0.57015 0.57246 0.65891 0.0
C358 C 0.59732 0.59231 0.63138 0.0
C359 C 0.58772 0.5842 0.59335 0.0
C360 C 0.55159 0.55624 0.58295 0.0
C361 C 0.52546 0.53711 0.61095 0.0
C362 C 0.53435 0.54517 0.64813 0.0
C363 C 0.50153 0.52104 0.67303 0.0
C364 C 0.51037 0.49665 0.69874 0.0
C365 C 0.48947 0.54496 0.69546 0.0
C366 C 0.47272 0.49775 0.64415 0.0
C367 C 0.48689 0.50717 0.60847 0.0
C368 C 0.46552 0.48811 0.57747 0.0
C369 C 0.42881 0.4586 0.58324 0.0
C370 C 0.41394 0.4488 0.61968 0.0
C371 C 0.43626 0.46895 0.65031 0.0
H372 H 0.97664 0.56607 0.99761 0.0
H373 H 0.06421 0.61944 0.91469 0.0
H374 H 0.05412 0.55745 0.89575 0.0
H375 H -0.00145 0.49863 0.02656 0.0
H376 H 0.95079 0.46195 0.03284 0.0
H377 H 0.96284 0.51007 0.03757 0.0
H378 H 0.9137 0.50065 0.98755 0.0
H379 H 0.90135 0.45237 0.98276 0.0
H380 H 0.91557 0.48246 0.94251 0.0
H381 H 0.03858 0.49014 0.89051 0.0
H382 H 0.01657 0.42261 0.89707 0.0
H383 H 0.93775 0.41384 0.98188 0.0
C384 C 0.99342 0.56475 0.97514 0.0
C385 C 0.02128 0.59753 0.95766 0.0
C386 C 0.04261 0.59461 0.92836 0.0
C387 C 0.03709 0.55956 0.91744 0.0
C388 C 0.00981 0.5278 0.93577 0.0
C389 C 0.98803 0.53009 0.9637 0.0
C390 C 0.96148 0.49204 0.97992 0.0
C391 C 0.96888 0.49061 0.02169 0.0
C392 C 0.9206 0.48125 0.97274 0.0
C393 C 0.97236 0.46802 0.95745 0.0
C394 C 0.00022 0.48908 0.93206 0.0
C395 C 0.01637 0.47327 0.90987 0.0
C396 C 0.00379 0.43497 0.91388 0.0
C397 C 0.97525 0.41298 0.93975 0.0
C398 C 0.95916 0.42978 0.96143 0.0
H399 H 0.03883 0.56379 0.37846 0.0
H400 H 0.93459 0.53963 0.43108 0.0
H401 H 0.91842 0.47374 0.43968 0.0
H402 H 0.00518 0.48243 0.32789 0.0
H403 H 0.04539 0.4768 0.33405 0.0
H404 H 0.05061 0.52269 0.33593 0.0
H405 H 0.08054 0.53315 0.40136 0.0
H406 H 0.07567 0.48728 0.39958 0.0
H407 H 0.05591 0.49979 0.43788 0.0
H408 H 0.90955 0.40905 0.43328 0.0
H409 H 0.91151 0.35153 0.41831 0.0
H410 H 0.0236 0.41893 0.37428 0.0
C411 C 0.01294 0.54478 0.39247 0.0
C412 C 0.98787 0.55664 0.40405 0.0
C413 C 0.95426 0.53108 0.42225 0.0
C414 C 0.94484 0.49364 0.42717 0.0
C415 C 0.96977 0.48259 0.41451 0.0
C416 C 0.0035 0.50761 0.39822 0.0
C417 C 0.02469 0.48844 0.38561 0.0
C418 C 0.03186 0.49285 0.34337 0.0
C419 C 0.06137 0.50303 0.40742 0.0
C420 C -0.00303 0.44842 0.39595 0.0
C421 C 0.96545 0.44558 0.41259 0.0
C422 C 0.93446 0.41101 0.42118 0.0
C423 C 0.93573 0.37855 0.41242 0.0
C424 C 0.96791 0.38101 0.39573 0.0
C425 C -0.00094 0.41639 0.38795 0.0
H426 H 0.58532 0.04235 0.7098 0.0
H427 H 0.5351 0.9222 0.72244 0.0
H428 H 0.47238 0.91589 0.72333 0.0
H429 H 0.51585 0.05385 0.76583 0.0
H430 H 0.51738 0.08859 0.73434 0.0
H431 H 0.55827 0.08417 0.74081 0.0
H432 H 0.56126 0.07568 0.66971 0.0
H433 H 0.52015 0.0795 0.66303 0.0
H434 H 0.52115 0.03888 0.64625 0.0
H435 H 0.41542 0.92193 0.71647 0.0
H436 H 0.3679 0.93974 0.7029 0.0
H437 H 0.45537 0.05586 0.69209 0.0
C438 C 0.5612 0.01486 0.714 0.0
C439 C 0.56498 0.98277 0.71653 0.0
C440 C 0.53273 0.94713 0.72076 0.0
C441 C 0.49705 0.9433 0.72133 0.0
C442 C 0.49419 0.97537 0.71747 0.0
C443 C 0.52539 0.0105 0.71407 0.0
C444 C 0.5146 0.04 0.70675 0.0
C445 C 0.52727 0.06832 0.73885 0.0
C446 C 0.53021 0.05965 0.66921 0.0
C447 C 0.47247 0.01584 0.70567 0.0
C448 C 0.46128 0.97874 0.71241 0.0
C449 C 0.42381 0.95095 0.71154 0.0
C450 C 0.39705 0.96136 0.70366 0.0
C451 C 0.40791 -0.0008 0.69637 0.0
C452 C 0.44616 0.02672 0.69755 0.0
H453 H 0.42066 0.45189 0.00236 0.0
H454 H 0.4342 0.39067 0.09347 0.0
H455 H 0.49179 0.44829 0.11289 0.0
H456 H 0.51568 0.5058 0.97859 0.0
H457 H 0.51337 0.54715 0.96739 0.0
H458 H 0.4725 0.50171 0.96239 0.0
H459 H 0.43539 0.52171 0.00574 0.0
H460 H 0.47617 0.56729 0.01084 0.0
H461 H 0.45327 0.53962 0.05147 0.0
H462 H 0.55111 0.51213 0.11856 0.0
H463 H 0.6045 0.57671 0.11196 0.0
H464 H 0.54904 0.595 0.0186 0.0
C465 C 0.43548 0.45053 0.02662 0.0
C466 C 0.42305 0.4168 0.04637 0.0
C467 C 0.44322 0.41631 0.07801 0.0
C468 C 0.47594 0.44885 0.08918 0.0
C469 C 0.48768 0.48158 0.06865 0.0
C470 C 0.46776 0.48261 0.03825 0.0
C471 C 0.48643 0.52076 0.02016 0.0
C472 C 0.49766 0.51871 0.97976 0.0
C473 C 0.46131 0.53838 0.0222 0.0
C474 C 0.5203 0.54112 0.04485 0.0
C475 C 0.52077 0.51816 0.07261 0.0
C476 C 0.5507 0.53047 0.09728 0.0
C477 C 0.58089 0.5671 0.0933 0.0
C478 C 0.58064 0.59095 0.06509 0.0
C479 C 0.54973 0.57772 0.04092 0.0
H480 H 0.0808 0.76896 0.37935 0.0
H481 H 0.13202 0.7 0.39358 0.0
H482 H 0.18493 0.74367 0.35415 0.0
H483 H 0.10314 0.78908 0.28567 0.0
H484 H 0.11269 0.83672 0.28751 0.0
H485 H 0.08031 0.80261 0.31993 0.0
H486 H 0.11835 0.84334 0.37598 0.0
H487 H 0.15007 0.87849 0.34397 0.0
H488 H 0.16776 0.8598 0.37864 0.0
H489 H 0.22955 0.79204 0.30876 0.0
H490 H 0.26754 0.84686 0.26879 0.0
H491 H 0.18661 0.88362 0.28438 0.0
C492 C 0.10354 0.76344 0.37501 0.0
C493 C 0.10219 0.73098 0.38961 0.0
C494 C 0.13245 0.72474 0.38289 0.0
C495 C 0.1625 0.74923 0.36026 0.0
C496 C 0.16197 0.77992 0.34483 0.0
C497 C 0.13368 0.78753 0.35256 0.0
C498 C 0.13926 0.8219 0.33192 0.0
C499 C 0.10693 0.81199 0.30465 0.0
C500 C 0.14416 0.8527 0.35926 0.0
C501 C 0.17519 0.83252 0.3114 0.0
C502 C 0.18765 0.80776 0.31888 0.0
C503 C 0.22021 0.81178 0.30291 0.0
C504 C 0.24142 0.84284 0.27995 0.0
C505 C 0.2301 0.8696 0.27347 0.0
C506 C 0.19602 0.86367 0.28871 0.0
H507 H 0.31276 0.23542 0.61954 0.0
H508 H 0.39857 0.31217 0.69554 0.0
H509 H 0.40569 0.26033 0.72012 0.0
H510 H 0.26949 0.15938 0.68198 0.0
H511 H 0.25963 0.12399 0.64744 0.0
H512 H 0.26279 0.1675 0.63405 0.0
H513 H 0.31374 0.17875 0.5854 0.0
H514 H 0.31051 0.13508 0.59842 0.0
H515 H 0.355 0.17777 0.59998 0.0
H516 H 0.40105 0.19949 0.73892 0.0
H517 H 0.38682 0.13434 0.74838 0.0
H518 H 0.30443 0.09782 0.65988 0.0
C519 C 0.33345 0.24146 0.64094 0.0
C520 C 0.35516 0.27788 0.65552 0.0
C521 C 0.38166 0.28451 0.68383 0.0
C522 C 0.38591 0.25525 0.69804 0.0
C523 C 0.36357 0.21955 0.68355 0.0
C524 C 0.33808 0.21259 0.65544 0.0
C525 C 0.31681 0.17151 0.64543 0.0
C526 C 0.27469 0.15461 0.65267 0.0
C527 C 0.32449 0.16543 0.6049 0.0
C528 C 0.33411 0.15646 0.67253 0.0
C529 C 0.36101 0.18457 0.69429 0.0
C530 C 0.38021 0.17724 0.72188 0.0
C531 C 0.37185 0.14016 0.72713 0.0
C532 C 0.3446 0.111 0.70485 0.0
C533 C 0.32554 0.11946 0.67729 0.0
H534 H 0.25465 0.37991 0.00874 0.0
H535 H 0.20951 0.26453 0.04374 0.0
H536 H 0.14598 0.25162 0.02799 0.0
H537 H 0.17615 0.39033 0.04211 0.0
H538 H 0.17931 0.41924 0.00312 0.0
H539 H 0.22064 0.41981 0.02001 0.0
H540 H 0.23282 0.4032 0.95389 0.0
H541 H 0.19119 0.40188 0.93692 0.0
H542 H 0.19706 0.36174 0.93123 0.0
H543 H 0.08846 0.24988 0.00288 0.0
H544 H 0.03963 0.26105 0.97693 0.0
H545 H 0.12231 0.37794 0.9595 0.0
C546 C 0.23135 0.35209 0.01381 0.0
C547 C 0.23703 0.32322 0.02748 0.0
C548 C 0.20581 0.28715 0.03349 0.0
C549 C 0.16965 0.27949 0.02445 0.0
C550 C 0.16522 0.30829 0.0098 0.0
C551 C 0.19512 0.34402 0.00512 0.0
C552 C 0.18296 0.36977 0.98807 0.0
C553 C 0.19018 0.40166 0.01494 0.0
C554 C 0.20215 0.38503 0.95029 0.0
C555 C 0.14159 0.34279 0.98338 0.0
C556 C 0.13196 0.30743 0.99592 0.0
C557 C 0.09557 0.27753 0.99335 0.0
C558 C 0.0681 0.28412 0.9783 0.0
C559 C 0.07716 0.3204 0.96624 0.0
C560 C 0.11449 0.34995 0.96861 0.0
H561 H 0.90553 0.18614 0.36152 0.0
H562 H 0.86678 0.23706 0.44259 0.0
H563 H 0.80139 0.19198 0.42548 0.0
H564 H 0.84298 0.17427 0.29242 0.0
H565 H 0.83558 0.12983 0.27598 0.0
H566 H 0.879 0.16215 0.29803 0.0
H567 H 0.8703 0.11212 0.34664 0.0
H568 H 0.82729 0.07912 0.3242 0.0
H569 H 0.82757 0.08867 0.37316 0.0
H570 H 0.74106 0.14671 0.39384 0.0
H571 H 0.68947 0.09925 0.35583 0.0
H572 H 0.76819 0.0782 0.29545 0.0
C573 C 0.88329 0.18722 0.37643 0.0
C574 C 0.89121 0.21509 0.40341 0.0
C575 C 0.86135 0.21571 0.4221 0.0
C576 C 0.82415 0.1904 0.41236 0.0
C577 C 0.81746 0.16451 0.38425 0.0
C578 C 0.84619 0.16225 0.3671 0.0
C579 C 0.8318 0.13316 0.33654 0.0
C580 C 0.84832 0.15093 0.2985 0.0
C581 C 0.8397 0.10138 0.3457 0.0
C582 C 0.79048 0.11994 0.33853 0.0
C583 C 0.78277 0.13835 0.3662 0.0
C584 C 0.74671 0.13177 0.37243 0.0
C585 C 0.71764 0.10497 0.35044 0.0
C586 C 0.72477 0.08496 0.32264 0.0
C587 C 0.7618 0.09294 0.31648 0.0
H588 H 0.70344 0.79706 0.64169 0.0
H589 H 0.65532 0.73512 0.74378 0.0
H590 H 0.65184 0.78866 0.76932 0.0
H591 H 0.7589 0.88843 0.68427 0.0
H592 H 0.75014 0.91268 0.64743 0.0
H593 H 0.75043 0.87004 0.63759 0.0
H594 H 0.68378 0.84103 0.6098 0.0
H595 H 0.68337 0.88361 0.61943 0.0
H596 H 0.64673 0.83974 0.63747 0.0
H597 H 0.65224 0.84824 0.78343 0.0
H598 H 0.65402 0.90895 0.78383 0.0
H599 H 0.70099 0.93166 0.67236 0.0
C600 C 0.69236 0.79488 0.66947 0.0
C601 C 0.67959 0.76194 0.6907 0.0
C602 C 0.66501 0.76001 0.72687 0.0
C603 C 0.6631 0.79034 0.74174 0.0
C604 C 0.67576 0.82236 0.72007 0.0
C605 C 0.68994 0.82482 0.68467 0.0
C606 C 0.70029 0.86192 0.66669 0.0
C607 C 0.74245 0.88461 0.65853 0.0
C608 C 0.67715 0.85622 0.63126 0.0
C609 C 0.6894 0.87972 0.69741 0.0
C610 C 0.67561 0.85659 0.72808 0.0
C611 C 0.6631 0.8667 0.75963 0.0
C612 C 0.66427 0.90124 0.75962 0.0
C613 C 0.67763 0.92505 0.72817 0.0
C614 C 0.6907 0.91416 0.69691 0.0
H615 H 0.77049 0.62246 0.02577 0.0
H616 H 0.80812 0.73076 0.07696 0.0
H617 H 0.87326 0.74983 0.06039 0.0
H618 H 0.85158 0.61337 0.052 0.0
H619 H 0.8512 0.59145 0.00852 0.0
H620 H 0.80818 0.58541 0.02758 0.0
H621 H 0.79594 0.61018 0.96599 0.0
H622 H 0.83925 0.617 0.947 0.0
H623 H 0.83048 0.65558 0.94891 0.0
H624 H 0.93354 0.75849 0.03482 0.0
H625 H 0.98562 0.75474 0.00563 0.0
H626 H 0.90819 0.64126 0.9698 0.0
C627 C 0.79248 0.64987 0.0343 0.0
C628 C 0.78427 0.67508 0.05281 0.0
C629 C 0.81381 0.71095 0.06287 0.0
C630 C 0.85087 0.72207 0.0535 0.0
C631 C 0.85783 0.697 0.03409 0.0
C632 C 0.82955 0.66151 0.02493 0.0
C633 C 0.84432 0.64049 0.00274 0.0
C634 C 0.83848 0.60562 0.02399 0.0
C635 C 0.82643 0.63023 0.96386 0.0
C636 C 0.88528 0.66986 0.00049 0.0
C637 C 0.8925 0.7022 0.01884 0.0
C638 C 0.92828 0.73326 0.02052 0.0
C639 C 0.95763 0.7309 0.0037 0.0
C640 C 0.95097 0.69775 0.98532 0.0
C641 C 0.91418 0.66708 0.98336 0.0
H642 H 0.31952 0.02225 0.38571 0.0
H643 H 0.19934 0.9486 0.37886 0.0
H644 H 0.19604 0.94248 0.4472 0.0
H645 H 0.33565 0.97425 0.45843 0.0
H646 H 0.37111 0.01592 0.48103 0.0
H647 H 0.36395 0.01603 0.43164 0.0
H648 H 0.35369 0.07276 0.43872 0.0
H649 H 0.3612 0.07307 0.4881 0.0
H650 H 0.3188 0.06996 0.47079 0.0
H651 H 0.20629 0.94171 0.5162 0.0
H652 H 0.22898 0.94982 0.58105 0.0
H653 H 0.34213 0.02459 0.54254 0.0
C654 C 0.29244 0.00521 0.39858 0.0
C655 C 0.25969 0.98602 0.37691 0.0
C656 C 0.22481 0.96381 0.39486 0.0
C657 C 0.22264 0.96002 0.43368 0.0
C658 C 0.25554 0.9788 0.45417 0.0
C659 C 0.28972 0.00127 0.43729 0.0
C660 C 0.32094 0.01811 0.46563 0.0
C661 C 0.34959 0.0053 0.45877 0.0
C662 C 0.33976 0.06102 0.46582 0.0
C663 C 0.29902 0.00133 0.50103 0.0
C664 C 0.26136 0.97865 0.49387 0.0
C665 C 0.2357 0.9596 0.52219 0.0
C666 C 0.24886 0.96426 0.5589 0.0
C667 C 0.28729 0.98789 0.56688 0.0
C668 C 0.31256 0.00644 0.53741 0.0
H669 H 0.26592 0.24587 0.89422 0.0
H670 H 0.34247 0.36125 0.92479 0.0
H671 H 0.33772 0.38161 0.86158 0.0
H672 H 0.30365 0.25292 0.80303 0.0
H673 H 0.25912 0.22189 0.78191 0.0
H674 H 0.26659 0.21672 0.83035 0.0
H675 H 0.2088 0.22273 0.8474 0.0
H676 H 0.20151 0.22845 0.79898 0.0
H677 H 0.20672 0.26331 0.83235 0.0
H678 H 0.32539 0.38965 0.79548 0.0
H679 H 0.31289 0.38426 0.72815 0.0
H680 H 0.24632 0.26346 0.73917 0.0
C681 C 0.28155 0.2754 0.88756 0.0
C682 C 0.3045 0.302 0.91435 0.0
C683 C 0.32491 0.34036 0.90459 0.0
C684 C 0.32212 0.35226 0.86888 0.0
C685 C 0.29907 0.32541 0.84316 0.0
C686 C 0.27958 0.28774 0.85178 0.0
C687 C 0.25895 0.26452 0.81812 0.0
C688 C 0.27293 0.23743 0.80774 0.0
C689 C 0.21647 0.24352 0.82461 0.0
C690 C 0.27024 0.29504 0.78921 0.0
C691 C 0.29284 0.32998 0.80447 0.0
C692 C 0.30767 0.36246 0.78317 0.0
C693 C 0.30029 0.35909 0.74493 0.0
C694 C 0.27867 0.32343 0.72831 0.0
C695 C 0.26272 0.29113 0.75103 0.0
H696 H 0.0121 0.32902 0.2415 0.0
H697 H 0.92492 0.21257 0.24964 0.0
H698 H 0.90986 0.21303 0.18335 0.0
H699 H 0.96432 0.35863 0.17743 0.0
H700 H 0.00611 0.38933 0.15173 0.0
H701 H 0.00912 0.38047 0.20034 0.0
H702 H 0.05639 0.35842 0.18496 0.0
H703 H 0.05377 0.36754 0.13641 0.0
H704 H 0.04402 0.3218 0.15119 0.0
H705 H 0.9046 0.22586 0.11614 0.0
H706 H 0.91322 0.2486 0.05136 0.0
H707 H 0.00467 0.35621 0.08679 0.0
C708 C 0.98978 0.30366 0.22936 0.0
C709 C 0.96963 0.2708 0.25074 0.0
C710 C 0.94083 0.23806 0.23377 0.0
C711 C 0.93188 0.23809 0.19619 0.0
C712 C 0.95212 0.27102 0.17595 0.0
C713 C 0.98069 0.30309 0.1918 0.0
C714 C -0.00071 0.33421 0.16344 0.0
C715 C -0.0056 0.36763 0.17387 0.0
C716 C 0.04082 0.34618 0.15872 0.0
C717 C 0.9769 0.31448 0.12911 0.0
C718 C 0.94954 0.27821 0.13701 0.0
C719 C 0.92587 0.25425 0.10959 0.0
C720 C 0.93091 0.26746 0.07291 0.0
C721 C 0.95962 0.30417 0.064 0.0
C722 C 0.98239 0.32807 0.09269 0.0
H723 H 0.65364 0.95482 0.39424 0.0
H724 H 0.56551 0.98302 0.39013 0.0
H725 H 0.57156 0.99433 0.4578 0.0
H726 H 0.62942 0.90918 0.48678 0.0
H727 H 0.67786 0.92776 0.49895 0.0
H728 H 0.66343 0.91774 0.45104 0.0
H729 H 0.71218 0.98597 0.43342 0.0
H730 H 0.72628 -0.00352 0.48129 0.0
H731 H 0.71074 0.02408 0.45629 0.0
H732 H 0.59213 0.00963 0.52397 0.0
H733 H 0.62138 0.0217 0.58595 0.0
H734 H 0.69564 0.98278 0.54708 0.0
C735 C 0.6349 0.96241 0.40766 0.0
C736 C 0.60909 0.96803 0.38688 0.0
C737 C 0.58543 0.97844 0.40548 0.0
C738 C 0.58871 0.98503 0.44389 0.0
C739 C 0.61552 0.98074 0.46326 0.0
C740 C 0.63779 0.96907 0.44593 0.0
C741 C 0.66569 0.96839 0.47273 0.0
C742 C 0.65866 0.92838 0.47767 0.0
C743 C 0.7061 0.99534 0.46017 0.0
C744 C 0.65612 0.9822 0.5077 0.0
C745 C 0.62713 0.98918 0.50161 0.0
C746 C 0.61449 0.00377 0.52924 0.0
C747 C 0.6315 0.01079 0.56427 0.0
C748 C 0.66074 0.00308 0.57135 0.0
C749 C 0.6732 0.98872 0.54257 0.0
H750 H 0.70626 0.71468 0.9291 0.0
H751 H 0.6602 0.59449 0.93679 0.0
H752 H 0.67495 0.59266 0.87076 0.0
H753 H 0.67202 0.71426 0.83638 0.0
H754 H 0.71296 0.75731 0.82289 0.0
H755 H 0.69877 0.74914 0.87094 0.0
H756 H 0.76448 0.76081 0.88922 0.0
H757 H 0.77866 0.76846 0.84112 0.0
H758 H 0.78226 0.73337 0.86773 0.0
H759 H 0.69411 0.60334 0.80413 0.0
H760 H 0.71266 0.62557 0.73965 0.0
H761 H 0.74709 0.7388 0.77505 0.0
C762 C 0.69905 0.68795 0.91683 0.0
C763 C 0.6821 0.65474 0.93819 0.0
C764 C 0.67318 0.62033 0.92107 0.0
C765 C 0.68159 0.61898 0.88358 0.0
C766 C 0.6989 0.65226 0.86352 0.0
C767 C 0.70723 0.68606 0.87935 0.0
C768 C 0.72511 0.71755 0.85123 0.0
C769 C 0.70076 0.73562 0.845 0.0
C770 C 0.765 0.74677 0.86304 0.0
C771 C 0.72545 0.69609 0.8172 0.0
C772 C 0.71031 0.65849 0.82497 0.0
C773 C 0.70622 0.63276 0.79769 0.0
C774 C 0.71694 0.64565 0.76121 0.0
C775 C 0.73164 0.68392 0.75242 0.0
C776 C 0.73664 0.7095 0.78102 0.0
H777 H 0.01988 0.74148 0.26587 0.0
H778 H 0.00615 0.63084 0.28032 0.0
H779 H 0.02851 0.6331 0.21622 0.0
H780 H 0.98692 0.72695 0.17162 0.0
H781 H 0.01905 0.7743 0.15741 0.0
H782 H 0.00354 0.76447 0.205 0.0
H783 H 0.07231 0.79699 0.22624 0.0
H784 H 0.0886 0.80579 0.17885 0.0
H785 H 0.10268 0.78048 0.20949 0.0
H786 H 0.05229 0.64717 0.15094 0.0
H787 H 0.0688 0.66886 0.08617 0.0
H788 H 0.06516 0.7695 0.11339 0.0
C789 C 0.02153 0.71771 0.25553 0.0
C790 C 0.0113 0.68599 0.27806 0.0
C791 C 0.01365 0.65536 0.26347 0.0
C792 C 0.02662 0.65649 0.22722 0.0
C793 C 0.03688 0.68834 0.20588 0.0
C794 C 0.03399 0.71818 0.21925 0.0
C795 C 0.04477 0.7481 0.1898 0.0
C796 C 0.01159 0.75377 0.1804 0.0
C797 C 0.07915 0.78501 0.20183 0.0
C798 C 0.05401 0.73031 0.15776 0.0
C799 C 0.04976 0.69609 0.16781 0.0
C800 C 0.05578 0.67395 0.14271 0.0
C801 C 0.0653 0.68661 0.10601 0.0
C802 C 0.06828 0.72089 0.09468 0.0
C803 C 0.06332 0.74329 0.12121 0.0
loop_
_geom_bond_atom_site_label_1
_geom_bond_atom_site_label_2
_geom_bond_distance
_geom_bond_site_symmetry_2
_ccdc_geom_bond_type
C0 O1 1.160 . S
C0 O7 1.185 . S
O1 C0 1.160 . S
O2 Zn3 1.899 1_565 S
O2 C10 1.284 . S
Zn3 O2 1.899 1_545 S
Zn3 O4 2.032 . S
Zn3 O7 2.086 . S
Zn3 O12 1.977 . S
O4 Zn3 2.032 . S
O4 C8 1.278 1_545 S
C5 O6 1.203 1_545 S
C5 O12 1.267 . S
O6 C5 1.203 1_565 S
O7 C0 1.185 . S
O7 Zn3 2.086 . S
C8 O4 1.278 1_565 S
C8 O9 1.211 . S
O9 C8 1.211 . S
C10 O2 1.284 . S
C10 O11 1.273 . S
O11 C10 1.273 . S
O12 Zn3 1.977 . S
O12 C5 1.267 . S
C13 O14 1.160 . S
C13 O20 1.185 . S
O14 C13 1.160 . S
O15 Zn16 1.899 . S
O15 C23 1.284 . S
Zn16 O15 1.899 . S
Zn16 O17 2.032 . S
Zn16 O20 2.086 . S
Zn16 O25 1.977 . S
O17 Zn16 2.032 . S
O17 C21 1.278 . S
C18 O19 1.203 . S
C18 O25 1.267 . S
O19 C18 1.203 . S
O20 C13 1.185 . S
O20 Zn16 2.086 . S
C21 O17 1.278 . S
C21 O22 1.211 . S
O22 C21 1.211 . S
C23 O15 1.284 . S
C23 O24 1.273 . S
O24 C23 1.273 . S
O25 Zn16 1.977 . S
O25 C18 1.267 . S
C26 O27 1.160 . S
C26 O33 1.185 . S
O27 C26 1.160 . S
O28 Zn29 1.899 1_455 S
O28 C36 1.284 . S
Zn29 O28 1.899 1_655 S
Zn29 O30 2.032 . S
Zn29 O33 2.086 . S
Zn29 O38 1.977 1_556 S
O30 Zn29 2.032 . S
O30 C34 1.278 1_655 S
C31 O32 1.203 1_655 S
C31 O38 1.267 . S
O32 C31 1.203 1_455 S
O33 C26 1.185 . S
O33 Zn29 2.086 . S
C34 O30 1.278 1_455 S
C34 O35 1.211 . S
O35 C34 1.211 . S
C36 O28 1.284 . S
C36 O37 1.273 . S
O37 C36 1.273 . S
O38 Zn29 1.977 1_554 S
O38 C31 1.267 . S
C39 O40 1.160 . S
C39 O46 1.185 . S
O40 C39 1.160 . S
O41 Zn42 1.899 1_545 S
O41 C49 1.284 . S
Zn42 O41 1.899 1_565 S
Zn42 O43 2.032 . S
Zn42 O46 2.086 . S
Zn42 O51 1.977 . S
O43 Zn42 2.032 . S
O43 C47 1.278 1_565 S
C44 O45 1.203 1_565 S
C44 O51 1.267 . S
O45 C44 1.203 1_545 S
O46 C39 1.185 . S
O46 Zn42 2.086 . S
C47 O43 1.278 1_545 S
C47 O48 1.211 . S
O48 C47 1.211 . S
C49 O41 1.284 . S
C49 O50 1.273 . S
O50 C49 1.273 . S
O51 Zn42 1.977 . S
O51 C44 1.267 . S
C52 O53 1.160 . S
C52 O59 1.185 . S
O53 C52 1.160 . S
O54 Zn55 1.899 . S
O54 C62 1.284 . S
Zn55 O54 1.899 . S
Zn55 O56 2.032 . S
Zn55 O59 2.086 . S
Zn55 O64 1.977 . S
O56 Zn55 2.032 . S
O56 C60 1.278 . S
C57 O58 1.203 . S
C57 O64 1.267 . S
O58 C57 1.203 . S
O59 C52 1.185 . S
O59 Zn55 2.086 . S
C60 O56 1.278 . S
C60 O61 1.211 . S
O61 C60 1.211 . S
C62 O54 1.284 . S
C62 O63 1.273 . S
O63 C62 1.273 . S
O64 Zn55 1.977 . S
O64 C57 1.267 . S
C65 O66 1.160 . S
C65 O72 1.185 . S
O66 C65 1.160 . S
O67 Zn68 1.899 1_655 S
O67 C75 1.284 . S
Zn68 O67 1.899 1_455 S
Zn68 O69 2.032 . S
Zn68 O72 2.086 . S
Zn68 O77 1.977 1_556 S
O69 Zn68 2.032 . S
O69 C73 1.278 1_455 S
C70 O71 1.203 1_455 S
C70 O77 1.267 . S
O71 C70 1.203 1_655 S
O72 C65 1.185 . S
O72 Zn68 2.086 . S
C73 O69 1.278 1_655 S
C73 O74 1.211 . S
O74 C73 1.211 . S
C75 O67 1.284 . S
C75 O76 1.273 . S
O76 C75 1.273 . S
O77 Zn68 1.977 1_554 S
O77 C70 1.267 . S
C78 O79 1.160 . S
C78 O85 1.185 . S
O79 C78 1.160 . S
O80 Zn81 1.899 1_455 S
O80 C88 1.284 . S
Zn81 O80 1.899 1_655 S
Zn81 O82 2.032 . S
Zn81 O85 2.086 . S
Zn81 O90 1.977 . S
O82 Zn81 2.032 . S
O82 C86 1.278 1_655 S
C83 O84 1.203 1_655 S
C83 O90 1.267 . S
O84 C83 1.203 1_455 S
O85 C78 1.185 . S
O85 Zn81 2.086 . S
C86 O82 1.278 1_455 S
C86 O87 1.211 . S
O87 C86 1.211 . S
C88 O80 1.284 . S
C88 O89 1.273 . S
O89 C88 1.273 . S
O90 Zn81 1.977 . S
O90 C83 1.267 . S
C91 O92 1.160 . S
C91 O98 1.185 . S
O92 C91 1.160 . S
O93 Zn94 1.899 1_545 S
O93 C101 1.284 . S
Zn94 O93 1.899 1_565 S
Zn94 O95 2.032 . S
Zn94 O98 2.086 . S
Zn94 O103 1.977 . S
O95 Zn94 2.032 . S
O95 C99 1.278 1_565 S
C96 O97 1.203 1_565 S
C96 O103 1.267 . S
O97 C96 1.203 1_545 S
O98 C91 1.185 . S
O98 Zn94 2.086 . S
C99 O95 1.278 1_545 S
C99 O100 1.211 . S
O100 C99 1.211 . S
C101 O93 1.284 . S
C101 O102 1.273 . S
O102 C101 1.273 . S
O103 Zn94 1.977 . S
O103 C96 1.267 . S
C104 O105 1.160 . S
C104 O111 1.185 . S
O105 C104 1.160 . S
O106 Zn107 1.899 . S
O106 C114 1.284 . S
Zn107 O106 1.899 . S
Zn107 O108 2.032 . S
Zn107 O111 2.086 . S
Zn107 O116 1.977 1_554 S
O108 Zn107 2.032 . S
O108 C112 1.278 . S
C109 O110 1.203 . S
C109 O116 1.267 . S
O110 C109 1.203 . S
O111 C104 1.185 . S
O111 Zn107 2.086 . S
C112 O108 1.278 . S
C112 O113 1.211 . S
O113 C112 1.211 . S
C114 O106 1.284 . S
C114 O115 1.273 . S
O115 C114 1.273 . S
O116 Zn107 1.977 1_556 S
O116 C109 1.267 . S
C117 O118 1.160 . S
C117 O124 1.185 . S
O118 C117 1.160 . S
O119 Zn120 1.899 1_655 S
O119 C127 1.284 . S
Zn120 O119 1.899 1_455 S
Zn120 O121 2.032 . S
Zn120 O124 2.086 . S
Zn120 O129 1.977 . S
O121 Zn120 2.032 . S
O121 C125 1.278 1_455 S
C122 O123 1.203 1_455 S
C122 O129 1.267 . S
O123 C122 1.203 1_655 S
O124 C117 1.185 . S
O124 Zn120 2.086 . S
C125 O121 1.278 1_655 S
C125 O126 1.211 . S
O126 C125 1.211 . S
C127 O119 1.284 . S
C127 O128 1.273 . S
O128 C127 1.273 . S
O129 Zn120 1.977 . S
O129 C122 1.267 . S
C130 O131 1.160 . S
C130 O137 1.185 . S
O131 C130 1.160 . S
O132 Zn133 1.899 1_565 S
O132 C140 1.284 . S
Zn133 O132 1.899 1_545 S
Zn133 O134 2.032 . S
Zn133 O137 2.086 . S
Zn133 O142 1.977 . S
O134 Zn133 2.032 . S
O134 C138 1.278 1_545 S
C135 O136 1.203 1_545 S
C135 O142 1.267 . S
O136 C135 1.203 1_565 S
O137 C130 1.185 . S
O137 Zn133 2.086 . S
C138 O134 1.278 1_565 S
C138 O139 1.211 . S
O139 C138 1.211 . S
C140 O132 1.284 . S
C140 O141 1.273 . S
O141 C140 1.273 . S
O142 Zn133 1.977 . S
O142 C135 1.267 . S
C143 O144 1.160 . S
C143 O150 1.185 . S
O144 C143 1.160 . S
O145 Zn146 1.899 . S
O145 C153 1.284 . S
Zn146 O145 1.899 . S
Zn146 O147 2.032 . S
Zn146 O150 2.086 . S
Zn146 O155 1.977 1_554 S
O147 Zn146 2.032 . S
O147 C151 1.278 . S
C148 O149 1.203 . S
C148 O155 1.267 . S
O149 C148 1.203 . S
O150 C143 1.185 . S
O150 Zn146 2.086 . S
C151 O147 1.278 . S
C151 O152 1.211 . S
O152 C151 1.211 . S
C153 O145 1.284 . S
C153 O154 1.273 . S
O154 C153 1.273 . S
O155 Zn146 1.977 1_556 S
O155 C148 1.267 . S
H156 C168 0.930 . S
H157 C170 0.930 . S
H158 C171 0.930 . S
H159 C175 0.959 . S
H160 C175 0.959 . S
H161 C175 0.961 . S
H162 C176 0.960 . S
H163 C176 0.961 . S
H164 C176 0.959 . S
H165 C179 0.929 . S
H166 C180 0.931 . S
H167 C182 0.930 . S
C168 H156 0.930 . S
C168 C169 1.399 . S
C168 C173 1.399 . S
C169 C168 1.399 . S
C169 C170 1.376 . S
C170 H157 0.930 . S
C170 C169 1.376 . S
C170 C171 1.388 . S
C171 H158 0.930 . S
C171 C170 1.388 . S
C171 C172 1.390 . S
C172 C171 1.390 . S
C172 C173 1.394 . S
C172 C178 1.465 . S
C173 C168 1.399 . S
C173 C172 1.394 . S
C173 C174 1.516 . S
C174 C173 1.516 . S
C174 C175 1.502 . S
C174 C176 1.561 . S
C174 C177 1.526 . S
C175 H159 0.959 . S
C175 H160 0.959 . S
C175 H161 0.961 . S
C175 C174 1.502 . S
C176 H162 0.960 . S
C176 H163 0.961 . S
C176 H164 0.959 . S
C176 C174 1.561 . S
C177 C174 1.526 . S
C177 C178 1.396 . S
C177 C182 1.390 . S
C178 C172 1.465 . S
C178 C177 1.396 . S
C178 C179 1.399 . S
C179 H165 0.929 . S
C179 C178 1.399 . S
C179 C180 1.385 . S
C180 H166 0.931 . S
C180 C179 1.385 . S
C180 C181 1.389 . S
C181 C180 1.389 . S
C181 C182 1.387 . S
C182 H167 0.930 . S
C182 C177 1.390 . S
C182 C181 1.387 . S
H183 C195 0.930 . S
H184 C197 0.930 . S
H185 C198 0.930 . S
H186 C202 0.959 . S
H187 C202 0.959 . S
H188 C202 0.961 . S
H189 C203 0.960 . S
H190 C203 0.961 . S
H191 C203 0.959 . S
H192 C206 0.929 . S
H193 C207 0.931 . S
H194 C209 0.930 . S
C195 H183 0.930 . S
C195 C196 1.399 . S
C195 C200 1.399 . S
C196 C195 1.399 . S
C196 C197 1.376 . S
C197 H184 0.930 . S
C197 C196 1.376 . S
C197 C198 1.388 . S
C198 H185 0.930 . S
C198 C197 1.388 . S
C198 C199 1.390 . S
C199 C198 1.390 . S
C199 C200 1.394 . S
C199 C205 1.465 . S
C200 C195 1.399 . S
C200 C199 1.394 . S
C200 C201 1.516 . S
C201 C200 1.516 . S
C201 C202 1.502 . S
C201 C203 1.561 . S
C201 C204 1.526 . S
C202 H186 0.959 . S
C202 H187 0.959 . S
C202 H188 0.961 . S
C202 C201 1.502 . S
C203 H189 0.960 . S
C203 H190 0.961 . S
C203 H191 0.959 . S
C203 C201 1.561 . S
C204 C201 1.526 . S
C204 C205 1.396 . S
C204 C209 1.390 . S
C205 C199 1.465 . S
C205 C204 1.396 . S
C205 C206 1.399 . S
C206 H192 0.929 . S
C206 C205 1.399 . S
C206 C207 1.385 . S
C207 H193 0.931 . S
C207 C206 1.385 . S
C207 C208 1.389 . S
C208 C207 1.389 . S
C208 C209 1.387 . S
C209 H194 0.930 . S
C209 C204 1.390 . S
C209 C208 1.387 . S
H210 C222 0.930 . S
H211 C224 0.930 . S
H212 C225 0.930 . S
H213 C229 0.959 . S
H214 C229 0.959 . S
H215 C229 0.961 . S
H216 C230 0.960 . S
H217 C230 0.961 . S
H218 C230 0.959 . S
H219 C233 0.929 . S
H220 C234 0.931 . S
H221 C236 0.930 . S
C222 H210 0.930 . S
C222 C223 1.399 . S
C222 C227 1.399 . S
C223 C222 1.399 . S
C223 C224 1.376 . S
C224 H211 0.930 . S
C224 C223 1.376 . S
C224 C225 1.388 . S
C225 H212 0.930 . S
C225 C224 1.388 . S
C225 C226 1.390 . S
C226 C225 1.390 . S
C226 C227 1.394 . S
C226 C232 1.465 . S
C227 C222 1.399 . S
C227 C226 1.394 . S
C227 C228 1.516 . S
C228 C227 1.516 . S
C228 C229 1.502 . S
C228 C230 1.561 . S
C228 C231 1.526 . S
C229 H213 0.959 . S
C229 H214 0.959 . S
C229 H215 0.961 . S
C229 C228 1.502 . S
C230 H216 0.960 . S
C230 H217 0.961 . S
C230 H218 0.959 . S
C230 C228 1.561 . S
C231 C228 1.526 . S
C231 C232 1.396 . S
C231 C236 1.390 . S
C232 C226 1.465 . S
C232 C231 1.396 . S
C232 C233 1.399 . S
C233 H219 0.929 . S
C233 C232 1.399 . S
C233 C234 1.385 . S
C234 H220 0.931 . S
C234 C233 1.385 . S
C234 C235 1.389 . S
C235 C234 1.389 . S
C235 C236 1.387 . S
C236 H221 0.930 . S
C236 C231 1.390 . S
C236 C235 1.387 . S
H237 C249 0.930 . S
H238 C251 0.930 . S
H239 C252 0.930 . S
H240 C256 0.959 . S
H241 C256 0.959 . S
H242 C256 0.961 . S
H243 C257 0.960 . S
H244 C257 0.961 . S
H245 C257 0.959 . S
H246 C260 0.929 . S
H247 C261 0.931 . S
H248 C263 0.930 . S
C249 H237 0.930 . S
C249 C250 1.399 . S
C249 C254 1.399 . S
C250 C249 1.399 . S
C250 C251 1.376 . S
C251 H238 0.930 . S
C251 C250 1.376 . S
C251 C252 1.388 . S
C252 H239 0.930 . S
C252 C251 1.388 . S
C252 C253 1.390 . S
C253 C252 1.390 . S
C253 C254 1.394 . S
C253 C259 1.465 . S
C254 C249 1.399 . S
C254 C253 1.394 . S
C254 C255 1.516 . S
C255 C254 1.516 . S
C255 C256 1.502 . S
C255 C257 1.561 . S
C255 C258 1.526 . S
C256 H240 0.959 . S
C256 H241 0.959 . S
C256 H242 0.961 . S
C256 C255 1.502 . S
C257 H243 0.960 . S
C257 H244 0.961 . S
C257 H245 0.959 . S
C257 C255 1.561 . S
C258 C255 1.526 . S
C258 C259 1.396 . S
C258 C263 1.390 . S
C259 C253 1.465 . S
C259 C258 1.396 . S
C259 C260 1.399 . S
C260 H246 0.929 . S
C260 C259 1.399 . S
C260 C261 1.385 . S
C261 H247 0.931 . S
C261 C260 1.385 . S
C261 C262 1.389 . S
C262 C261 1.389 . S
C262 C263 1.387 . S
C263 H248 0.930 . S
C263 C258 1.390 . S
C263 C262 1.387 . S
H264 C276 0.930 . S
H265 C278 0.930 . S
H266 C279 0.930 . S
H267 C283 0.959 . S
H268 C283 0.959 . S
H269 C283 0.961 . S
H270 C284 0.960 . S
H271 C284 0.961 . S
H272 C284 0.959 . S
H273 C287 0.929 . S
H274 C288 0.931 . S
H275 C290 0.930 . S
C276 H264 0.930 . S
C276 C277 1.399 . S
C276 C281 1.399 . S
C277 C276 1.399 . S
C277 C278 1.376 . S
C278 H265 0.930 . S
C278 C277 1.376 . S
C278 C279 1.388 . S
C279 H266 0.930 . S
C279 C278 1.388 . S
C279 C280 1.390 . S
C280 C279 1.390 . S
C280 C281 1.394 . S
C280 C286 1.465 . S
C281 C276 1.399 . S
C281 C280 1.394 . S
C281 C282 1.516 . S
C282 C281 1.516 . S
C282 C283 1.502 . S
C282 C284 1.561 . S
C282 C285 1.526 . S
C283 H267 0.959 . S
C283 H268 0.959 . S
C283 H269 0.961 . S
C283 C282 1.502 . S
C284 H270 0.960 . S
C284 H271 0.961 . S
C284 H272 0.959 . S
C284 C282 1.561 . S
C285 C282 1.526 . S
C285 C286 1.396 . S
C285 C290 1.390 . S
C286 C280 1.465 . S
C286 C285 1.396 . S
C286 C287 1.399 . S
C287 H273 0.929 . S
C287 C286 1.399 . S
C287 C288 1.385 . S
C288 H274 0.931 . S
C288 C287 1.385 . S
C288 C289 1.389 . S
C289 C288 1.389 . S
C289 C290 1.387 . S
C290 H275 0.930 . S
C290 C285 1.390 . S
C290 C289 1.387 . S
H291 C303 0.930 . S
H292 C305 0.930 . S
H293 C306 0.930 . S
H294 C310 0.959 . S
H295 C310 0.959 . S
H296 C310 0.961 . S
H297 C311 0.960 . S
H298 C311 0.961 . S
H299 C311 0.959 . S
H300 C314 0.929 . S
H301 C315 0.931 . S
H302 C317 0.930 . S
C303 H291 0.930 . S
C303 C304 1.399 . S
C303 C308 1.399 . S
C304 C303 1.399 . S
C304 C305 1.376 . S
C305 H292 0.930 . S
C305 C304 1.376 . S
C305 C306 1.388 . S
C306 H293 0.930 . S
C306 C305 1.388 . S
C306 C307 1.390 . S
C307 C306 1.390 . S
C307 C308 1.394 . S
C307 C313 1.465 . S
C308 C303 1.399 . S
C308 C307 1.394 . S
C308 C309 1.516 . S
C309 C308 1.516 . S
C309 C310 1.502 . S
C309 C311 1.561 . S
C309 C312 1.526 . S
C310 H294 0.959 . S
C310 H295 0.959 . S
C310 H296 0.961 . S
C310 C309 1.502 . S
C311 H297 0.960 . S
C311 H298 0.961 . S
C311 H299 0.959 . S
C311 C309 1.561 . S
C312 C309 1.526 . S
C312 C313 1.396 . S
C312 C317 1.390 . S
C313 C307 1.465 . S
C313 C312 1.396 . S
C313 C314 1.399 . S
C314 H300 0.929 . S
C314 C313 1.399 . S
C314 C315 1.385 . S
C315 H301 0.931 . S
C315 C314 1.385 . S
C315 C316 1.389 . S
C316 C315 1.389 . S
C316 C317 1.387 . S
C317 H302 0.930 . S
C317 C312 1.390 . S
C317 C316 1.387 . S
H318 C330 0.930 . S
H319 C332 0.930 . S
H320 C333 0.930 . S
H321 C337 0.959 . S
H322 C337 0.959 . S
H323 C337 0.961 . S
H324 C338 0.960 . S
H325 C338 0.961 . S
H326 C338 0.959 . S
H327 C341 0.929 . S
H328 C342 0.931 . S
H329 C344 0.930 . S
C330 H318 0.930 . S
C330 C331 1.384 1_565 S
C330 C335 1.399 . S
C331 C330 1.384 1_545 S
C331 C332 1.387 . S
C332 H319 0.930 . S
C332 C331 1.387 . S
C332 C333 1.388 . S
C333 H320 0.930 . S
C333 C332 1.388 . S
C333 C334 1.390 . S
C334 C333 1.390 . S
C334 C335 1.394 1_545 S
C334 C340 1.465 . S
C335 C330 1.399 . S
C335 C334 1.394 1_565 S
C335 C336 1.516 . S
C336 C335 1.516 . S
C336 C337 1.502 . S
C336 C338 1.561 . S
C336 C339 1.526 . S
C337 H321 0.959 . S
C337 H322 0.959 . S
C337 H323 0.961 . S
C337 C336 1.502 . S
C338 H324 0.960 . S
C338 H325 0.961 . S
C338 H326 0.959 . S
C338 C336 1.561 . S
C339 C336 1.526 . S
C339 C340 1.396 1_565 S
C339 C344 1.390 . S
C340 C334 1.465 . S
C340 C339 1.396 1_545 S
C340 C341 1.399 . S
C341 H327 0.929 . S
C341 C340 1.399 . S
C341 C342 1.385 . S
C342 H328 0.931 . S
C342 C341 1.385 . S
C342 C343 1.389 . S
C343 C342 1.389 . S
C343 C344 1.387 1_545 S
C344 H329 0.930 . S
C344 C339 1.390 . S
C344 C343 1.387 1_565 S
H345 C357 0.930 . S
H346 C359 0.930 . S
H347 C360 0.930 . S
H348 C364 0.959 . S
H349 C364 0.959 . S
H350 C364 0.961 . S
H351 C365 0.960 . S
H352 C365 0.961 . S
H353 C365 0.959 . S
H354 C368 0.929 . S
H355 C369 0.931 . S
H356 C371 0.930 . S
C357 H345 0.930 . S
C357 C358 1.399 . S
C357 C362 1.399 . S
C358 C357 1.399 . S
C358 C359 1.376 . S
C359 H346 0.930 . S
C359 C358 1.376 . S
C359 C360 1.388 . S
C360 H347 0.930 . S
C360 C359 1.388 . S
C360 C361 1.390 . S
C361 C360 1.390 . S
C361 C362 1.394 . S
C361 C367 1.465 . S
C362 C357 1.399 . S
C362 C361 1.394 . S
C362 C363 1.516 . S
C363 C362 1.516 . S
C363 C364 1.502 . S
C363 C365 1.561 . S
C363 C366 1.526 . S
C364 H348 0.959 . S
C364 H349 0.959 . S
C364 H350 0.961 . S
C364 C363 1.502 . S
C365 H351 0.960 . S
C365 H352 0.961 . S
C365 H353 0.959 . S
C365 C363 1.561 . S
C366 C363 1.526 . S
C366 C367 1.396 . S
C366 C371 1.390 . S
C367 C361 1.465 . S
C367 C366 1.396 . S
C367 C368 1.399 . S
C368 H354 0.929 . S
C368 C367 1.399 . S
C368 C369 1.385 . S
C369 H355 0.931 . S
C369 C368 1.385 . S
C369 C370 1.389 . S
C370 C369 1.389 . S
C370 C371 1.387 . S
C371 H356 0.930 . S
C371 C366 1.390 . S
C371 C370 1.387 . S
H372 C384 0.929 . S
H373 C386 0.930 . S
H374 C387 0.930 . S
H375 C391 0.959 . S
H376 C391 0.959 . S
H377 C391 0.961 . S
H378 C392 0.960 . S
H379 C392 0.961 . S
H380 C392 0.959 1_556 S
H381 C395 0.929 . S
H382 C396 0.927 . S
H383 C398 0.930 . S
C384 H372 0.929 . S
C384 C385 1.399 . S
C384 C389 1.399 . S
C385 C384 1.399 . S
C385 C386 1.376 . S
C386 H373 0.930 . S
C386 C385 1.376 . S
C386 C387 1.388 . S
C387 H374 0.930 . S
C387 C386 1.388 . S
C387 C388 1.390 . S
C388 C387 1.390 . S
C388 C389 1.394 . S
C388 C394 1.465 . S
C389 C384 1.399 . S
C389 C388 1.394 . S
C389 C390 1.516 . S
C390 C389 1.516 . S
C390 C391 1.502 1_656 S
C390 C392 1.561 1_556 S
C390 C393 1.526 . S
C391 H375 0.959 . S
C391 H376 0.959 . S
C391 H377 0.961 . S
C391 C390 1.502 1_454 S
C392 H378 0.960 . S
C392 H379 0.961 . S
C392 H380 0.959 1_554 S
C392 C390 1.561 1_554 S
C393 C390 1.526 . S
C393 C394 1.396 . S
C393 C398 1.390 1_655 S
C394 C388 1.465 . S
C394 C393 1.396 . S
C394 C395 1.399 . S
C395 H381 0.929 . S
C395 C394 1.399 . S
C395 C396 1.396 . S
C396 H382 0.927 . S
C396 C395 1.396 . S
C396 C397 1.385 1_655 S
C397 C396 1.385 1_455 S
C397 C398 1.387 . S
C398 H383 0.930 . S
C398 C393 1.390 1_455 S
C398 C397 1.387 . S
H399 C411 0.930 . S
H400 C413 0.930 . S
H401 C414 0.930 . S
H402 C418 0.959 . S
H403 C418 0.959 . S
H404 C418 0.961 . S
H405 C419 0.960 . S
H406 C419 0.961 . S
H407 C419 0.959 . S
H408 C422 0.929 . S
H409 C423 0.931 . S
H410 C425 0.930 . S
C411 H399 0.930 . S
C411 C412 1.380 1_455 S
C411 C416 1.399 . S
C412 C411 1.380 1_655 S
C412 C413 1.390 . S
C413 H400 0.930 . S
C413 C412 1.390 . S
C413 C414 1.388 . S
C414 H401 0.930 . S
C414 C413 1.388 . S
C414 C415 1.390 . S
C415 C414 1.390 . S
C415 C416 1.394 1_655 S
C415 C421 1.465 . S
C416 C411 1.399 . S
C416 C415 1.394 1_455 S
C416 C417 1.516 . S
C417 C416 1.516 . S
C417 C418 1.502 . S
C417 C419 1.561 . S
C417 C420 1.526 . S
C418 H402 0.959 . S
C418 H403 0.959 . S
C418 H404 0.961 . S
C418 C417 1.502 . S
C419 H405 0.960 . S
C419 H406 0.961 . S
C419 H407 0.959 . S
C419 C417 1.561 . S
C420 C417 1.526 . S
C420 C421 1.396 1_455 S
C420 C425 1.390 . S
C421 C415 1.465 . S
C421 C420 1.396 1_655 S
C421 C422 1.399 . S
C422 H408 0.929 . S
C422 C421 1.399 . S
C422 C423 1.385 . S
C423 H409 0.931 . S
C423 C422 1.385 . S
C423 C424 1.389 . S
C424 C423 1.389 . S
C424 C425 1.387 1_655 S
C425 H410 0.930 . S
C425 C420 1.390 . S
C425 C424 1.387 1_455 S
H426 C438 0.930 . S
H427 C440 0.930 . S
H428 C441 0.930 . S
H429 C445 0.959 . S
H430 C445 0.959 . S
H431 C445 0.961 . S
H432 C446 0.960 . S
H433 C446 0.961 . S
H434 C446 0.959 . S
H435 C449 0.929 . S
H436 C450 0.931 . S
H437 C452 0.930 . S
C438 H426 0.930 . S
C438 C439 1.399 1_545 S
C438 C443 1.399 . S
C439 C438 1.399 1_565 S
C439 C440 1.376 . S
C440 H427 0.930 . S
C440 C439 1.376 . S
C440 C441 1.388 . S
C441 H428 0.930 . S
C441 C440 1.388 . S
C441 C442 1.390 . S
C442 C441 1.390 . S
C442 C443 1.394 1_565 S
C442 C448 1.465 . S
C443 C438 1.399 . S
C443 C442 1.394 1_545 S
C443 C444 1.516 . S
C444 C443 1.516 . S
C444 C445 1.502 . S
C444 C446 1.561 . S
C444 C447 1.526 . S
C445 H429 0.959 . S
C445 H430 0.959 . S
C445 H431 0.961 . S
C445 C444 1.502 . S
C446 H432 0.960 . S
C446 H433 0.961 . S
C446 H434 0.959 . S
C446 C444 1.561 . S
C447 C444 1.526 . S
C447 C448 1.396 1_545 S
C447 C452 1.390 . S
C448 C442 1.465 . S
C448 C447 1.396 1_565 S
C448 C449 1.399 . S
C449 H435 0.929 . S
C449 C448 1.399 . S
C449 C450 1.385 . S
C450 H436 0.931 . S
C450 C449 1.385 . S
C450 C451 1.403 . S
C451 C450 1.403 . S
C451 C452 1.383 1_565 S
C452 H437 0.930 . S
C452 C447 1.390 . S
C452 C451 1.383 1_545 S
H453 C465 0.930 . S
H454 C467 0.930 . S
H455 C468 0.930 . S
H456 C472 0.959 . S
H457 C472 0.959 1_556 S
H458 C472 0.961 1_556 S
H459 C473 0.960 . S
H460 C473 0.961 . S
H461 C473 0.959 . S
H462 C476 0.929 . S
H463 C477 0.931 . S
H464 C479 0.930 . S
C465 H453 0.930 . S
C465 C466 1.399 . S
C465 C470 1.399 . S
C466 C465 1.399 . S
C466 C467 1.376 . S
C467 H454 0.930 . S
C467 C466 1.376 . S
C467 C468 1.388 . S
C468 H455 0.930 . S
C468 C467 1.388 . S
C468 C469 1.390 . S
C469 C468 1.390 . S
C469 C470 1.394 . S
C469 C475 1.465 . S
C470 C465 1.399 . S
C470 C469 1.394 . S
C470 C471 1.516 . S
C471 C470 1.516 . S
C471 C472 1.502 . S
C471 C473 1.561 1_554 S
C471 C474 1.526 . S
C472 H456 0.959 . S
C472 H457 0.959 1_554 S
C472 H458 0.961 1_554 S
C472 C471 1.502 . S
C473 H459 0.960 . S
C473 H460 0.961 . S
C473 H461 0.959 . S
C473 C471 1.561 1_556 S
C474 C471 1.526 . S
C474 C475 1.396 . S
C474 C479 1.390 . S
C475 C469 1.465 . S
C475 C474 1.396 . S
C475 C476 1.399 . S
C476 H462 0.929 . S
C476 C475 1.399 . S
C476 C477 1.385 . S
C477 H463 0.931 . S
C477 C476 1.385 . S
C477 C478 1.389 . S
C478 C477 1.389 . S
C478 C479 1.387 . S
C479 H464 0.930 . S
C479 C474 1.390 . S
C479 C478 1.387 . S
H480 C492 0.930 . S
H481 C494 0.930 . S
H482 C495 0.930 . S
H483 C499 0.959 . S
H484 C499 0.959 . S
H485 C499 0.961 . S
H486 C500 0.960 . S
H487 C500 0.961 . S
H488 C500 0.959 . S
H489 C503 0.929 . S
H490 C504 0.931 . S
H491 C506 0.930 . S
C492 H480 0.930 . S
C492 C493 1.399 . S
C492 C497 1.399 . S
C493 C492 1.399 . S
C493 C494 1.376 . S
C494 H481 0.930 . S
C494 C493 1.376 . S
C494 C495 1.388 . S
C495 H482 0.930 . S
C495 C494 1.388 . S
C495 C496 1.390 . S
C496 C495 1.390 . S
C496 C497 1.394 . S
C496 C502 1.465 . S
C497 C492 1.399 . S
C497 C496 1.394 . S
C497 C498 1.516 . S
C498 C497 1.516 . S
C498 C499 1.502 . S
C498 C500 1.561 . S
C498 C501 1.526 . S
C499 H483 0.959 . S
C499 H484 0.959 . S
C499 H485 0.961 . S
C499 C498 1.502 . S
C500 H486 0.960 . S
C500 H487 0.961 . S
C500 H488 0.959 . S
C500 C498 1.561 . S
C501 C498 1.526 . S
C501 C502 1.396 . S
C501 C506 1.390 . S
C502 C496 1.465 . S
C502 C501 1.396 . S
C502 C503 1.399 . S
C503 H489 0.929 . S
C503 C502 1.399 . S
C503 C504 1.385 . S
C504 H490 0.931 . S
C504 C503 1.385 . S
C504 C505 1.389 . S
C505 C504 1.389 . S
C505 C506 1.387 . S
C506 H491 0.930 . S
C506 C501 1.390 . S
C506 C505 1.387 . S
H507 C519 0.930 . S
H508 C521 0.930 . S
H509 C522 0.930 . S
H510 C526 0.959 . S
H511 C526 0.959 . S
H512 C526 0.961 . S
H513 C527 0.960 . S
H514 C527 0.961 . S
H515 C527 0.959 . S
H516 C530 0.929 . S
H517 C531 0.931 . S
H518 C533 0.930 . S
C519 H507 0.930 . S
C519 C520 1.399 . S
C519 C524 1.399 . S
C520 C519 1.399 . S
C520 C521 1.376 . S
C521 H508 0.930 . S
C521 C520 1.376 . S
C521 C522 1.388 . S
C522 H509 0.930 . S
C522 C521 1.388 . S
C522 C523 1.390 . S
C523 C522 1.390 . S
C523 C524 1.394 . S
C523 C529 1.465 . S
C524 C519 1.399 . S
C524 C523 1.394 . S
C524 C525 1.516 . S
C525 C524 1.516 . S
C525 C526 1.502 . S
C525 C527 1.561 . S
C525 C528 1.526 . S
C526 H510 0.959 . S
C526 H511 0.959 . S
C526 H512 0.961 . S
C526 C525 1.502 . S
C527 H513 0.960 . S
C527 H514 0.961 . S
C527 H515 0.959 . S
C527 C525 1.561 . S
C528 C525 1.526 . S
C528 C529 1.396 . S
C528 C533 1.390 . S
C529 C523 1.465 . S
C529 C528 1.396 . S
C529 C530 1.399 . S
C530 H516 0.929 . S
C530 C529 1.399 . S
C530 C531 1.385 . S
C531 H517 0.931 . S
C531 C530 1.385 . S
C531 C532 1.389 . S
C532 C531 1.389 . S
C532 C533 1.387 . S
C533 H518 0.930 . S
C533 C528 1.390 . S
C533 C532 1.387 . S
H534 C546 0.930 . S
H535 C548 0.930 . S
H536 C549 0.930 . S
H537 C553 0.959 . S
H538 C553 0.959 . S
H539 C553 0.961 . S
H540 C554 0.960 1_554 S
H541 C554 0.961 . S
H542 C554 0.959 . S
H543 C557 0.929 . S
H544 C558 0.931 . S
H545 C560 0.930 . S
C546 H534 0.930 . S
C546 C547 1.399 . S
C546 C551 1.399 . S
C547 C546 1.399 . S
C547 C548 1.376 . S
C548 H535 0.930 . S
C548 C547 1.376 . S
C548 C549 1.388 1_554 S
C549 H536 0.930 . S
C549 C548 1.388 1_556 S
C549 C550 1.390 . S
C550 C549 1.390 . S
C550 C551 1.394 1_556 S
C550 C556 1.465 . S
C551 C546 1.399 . S
C551 C550 1.394 1_554 S
C551 C552 1.516 . S
C552 C551 1.516 . S
C552 C553 1.502 . S
C552 C554 1.561 1_554 S
C552 C555 1.526 1_554 S
C553 H537 0.959 . S
C553 H538 0.959 . S
C553 H539 0.961 . S
C553 C552 1.502 . S
C554 H540 0.960 1_556 S
C554 H541 0.961 . S
C554 H542 0.959 . S
C554 C552 1.561 1_556 S
C555 C552 1.526 1_556 S
C555 C556 1.396 . S
C555 C560 1.390 . S
C556 C550 1.465 . S
C556 C555 1.396 . S
C556 C557 1.399 . S
C557 H543 0.929 . S
C557 C556 1.399 . S
C557 C558 1.385 . S
C558 H544 0.931 . S
C558 C557 1.385 . S
C558 C559 1.389 . S
C559 C558 1.389 . S
C559 C560 1.387 . S
C560 H545 0.930 . S
C560 C555 1.390 . S
C560 C559 1.387 . S
H561 C573 0.930 . S
H562 C575 0.930 . S
H563 C576 0.930 . S
H564 C580 0.959 . S
H565 C580 0.959 . S
H566 C580 0.961 . S
H567 C581 0.960 . S
H568 C581 0.961 . S
H569 C581 0.959 . S
H570 C584 0.929 . S
H571 C585 0.931 . S
H572 C587 0.930 . S
C573 H561 0.930 . S
C573 C574 1.399 . S
C573 C578 1.399 . S
C574 C573 1.399 . S
C574 C575 1.376 . S
C575 H562 0.930 . S
C575 C574 1.376 . S
C575 C576 1.388 . S
C576 H563 0.930 . S
C576 C575 1.388 . S
C576 C577 1.390 . S
C577 C576 1.390 . S
C577 C578 1.394 . S
C577 C583 1.465 . S
C578 C573 1.399 . S
C578 C577 1.394 . S
C578 C579 1.516 . S
C579 C578 1.516 . S
C579 C580 1.502 . S
C579 C581 1.561 . S
C579 C582 1.526 . S
C580 H564 0.959 . S
C580 H565 0.959 . S
C580 H566 0.961 . S
C580 C579 1.502 . S
C581 H567 0.960 . S
C581 H568 0.961 . S
C581 H569 0.959 . S
C581 C579 1.561 . S
C582 C579 1.526 . S
C582 C583 1.396 . S
C582 C587 1.390 . S
C583 C577 1.465 . S
C583 C582 1.396 . S
C583 C584 1.399 . S
C584 H570 0.929 . S
C584 C583 1.399 . S
C584 C585 1.385 . S
C585 H571 0.931 . S
C585 C584 1.385 . S
C585 C586 1.389 . S
C586 C585 1.389 . S
C586 C587 1.387 . S
C587 H572 0.930 . S
C587 C582 1.390 . S
C587 C586 1.387 . S
H588 C600 0.930 . S
H589 C602 0.930 . S
H590 C603 0.930 . S
H591 C607 0.959 . S
H592 C607 0.959 . S
H593 C607 0.961 . S
H594 C608 0.960 . S
H595 C608 0.961 . S
H596 C608 0.959 . S
H597 C611 0.929 . S
H598 C612 0.931 . S
H599 C614 0.930 . S
C600 H588 0.930 . S
C600 C601 1.399 . S
C600 C605 1.399 . S
C601 C600 1.399 . S
C601 C602 1.376 . S
C602 H589 0.930 . S
C602 C601 1.376 . S
C602 C603 1.388 . S
C603 H590 0.930 . S
C603 C602 1.388 . S
C603 C604 1.390 . S
C604 C603 1.390 . S
C604 C605 1.394 . S
C604 C610 1.465 . S
C605 C600 1.399 . S
C605 C604 1.394 . S
C605 C606 1.516 . S
C606 C605 1.516 . S
C606 C607 1.502 . S
C606 C608 1.561 . S
C606 C609 1.526 . S
C607 H591 0.959 . S
C607 H592 0.959 . S
C607 H593 0.961 . S
C607 C606 1.502 . S
C608 H594 0.960 . S
C608 H595 0.961 . S
C608 H596 0.959 . S
C608 C606 1.561 . S
C609 C606 1.526 . S
C609 C610 1.396 . S
C609 C614 1.390 . S
C610 C604 1.465 . S
C610 C609 1.396 . S
C610 C611 1.399 . S
C611 H597 0.929 . S
C611 C610 1.399 . S
C611 C612 1.385 . S
C612 H598 0.931 . S
C612 C611 1.385 . S
C612 C613 1.389 . S
C613 C612 1.389 . S
C613 C614 1.387 . S
C614 H599 0.930 . S
C614 C609 1.390 . S
C614 C613 1.387 . S
H615 C627 0.930 . S
H616 C629 0.930 . S
H617 C630 0.916 1_556 S
H618 C634 0.959 . S
H619 C634 0.959 . S
H620 C634 0.961 . S
H621 C635 0.960 . S
H622 C635 0.961 . S
H623 C635 0.959 . S
H624 C638 0.929 . S
H625 C639 0.931 . S
H626 C641 0.930 . S
C627 H615 0.930 . S
C627 C628 1.399 . S
C627 C632 1.399 . S
C628 C627 1.399 . S
C628 C629 1.376 . S
C629 H616 0.930 . S
C629 C628 1.376 . S
C629 C630 1.404 . S
C630 H617 0.916 1_554 S
C630 C629 1.404 . S
C630 C631 1.389 1_554 S
C631 C630 1.389 1_556 S
C631 C632 1.384 1_556 S
C631 C637 1.474 . S
C632 C627 1.399 . S
C632 C631 1.384 1_554 S
C632 C633 1.516 . S
C633 C632 1.516 . S
C633 C634 1.502 . S
C633 C635 1.561 1_554 S
C633 C636 1.526 1_554 S
C634 H618 0.959 . S
C634 H619 0.959 . S
C634 H620 0.961 . S
C634 C633 1.502 . S
C635 H621 0.960 . S
C635 H622 0.961 . S
C635 H623 0.959 . S
C635 C633 1.561 1_556 S
C636 C633 1.526 1_556 S
C636 C637 1.396 . S
C636 C641 1.390 . S
C637 C631 1.474 . S
C637 C636 1.396 . S
C637 C638 1.399 . S
C638 H624 0.929 . S
C638 C637 1.399 . S
C638 C639 1.385 . S
C639 H625 0.931 . S
C639 C638 1.385 . S
C639 C640 1.389 . S
C640 C639 1.389 . S
C640 C641 1.387 . S
C641 H626 0.930 . S
C641 C636 1.390 . S
C641 C640 1.387 . S
H642 C654 0.930 . S
H643 C656 0.930 . S
H644 C657 0.930 . S
H645 C661 0.959 . S
H646 C661 0.959 . S
H647 C661 0.961 . S
H648 C662 0.960 . S
H649 C662 0.961 . S
H650 C662 0.959 . S
H651 C665 0.929 . S
H652 C666 0.931 . S
H653 C668 0.930 . S
C654 H642 0.930 . S
C654 C655 1.399 . S
C654 C659 1.399 . S
C655 C654 1.399 . S
C655 C656 1.376 1_545 S
C656 H643 0.930 . S
C656 C655 1.376 1_565 S
C656 C657 1.388 . S
C657 H644 0.930 . S
C657 C656 1.388 . S
C657 C658 1.390 . S
C658 C657 1.390 . S
C658 C659 1.394 1_565 S
C658 C664 1.465 . S
C659 C654 1.399 . S
C659 C658 1.394 1_545 S
C659 C660 1.516 . S
C660 C659 1.516 . S
C660 C661 1.502 . S
C660 C662 1.561 . S
C660 C663 1.526 . S
C661 H645 0.959 . S
C661 H646 0.959 . S
C661 H647 0.961 . S
C661 C660 1.502 . S
C662 H648 0.960 . S
C662 H649 0.961 . S
C662 H650 0.959 . S
C662 C660 1.561 . S
C663 C660 1.526 . S
C663 C664 1.396 1_545 S
C663 C668 1.390 . S
C664 C658 1.465 . S
C664 C663 1.396 1_565 S
C664 C665 1.399 . S
C665 H651 0.929 . S
C665 C664 1.399 . S
C665 C666 1.385 . S
C666 H652 0.931 . S
C666 C665 1.385 . S
C666 C667 1.389 . S
C667 C666 1.389 . S
C667 C668 1.387 1_565 S
C668 H653 0.930 . S
C668 C663 1.390 . S
C668 C667 1.387 1_545 S
H669 C681 0.930 . S
H670 C683 0.930 . S
H671 C684 0.930 . S
H672 C688 0.959 . S
H673 C688 0.959 . S
H674 C688 0.961 . S
H675 C689 0.960 . S
H676 C689 0.961 . S
H677 C689 0.959 . S
H678 C692 0.929 . S
H679 C693 0.931 . S
H680 C695 0.930 . S
C681 H669 0.930 . S
C681 C682 1.399 . S
C681 C686 1.399 . S
C682 C681 1.399 . S
C682 C683 1.376 . S
C683 H670 0.930 . S
C683 C682 1.376 . S
C683 C684 1.388 . S
C684 H671 0.930 . S
C684 C683 1.388 . S
C684 C685 1.390 . S
C685 C684 1.390 . S
C685 C686 1.394 . S
C685 C691 1.465 . S
C686 C681 1.399 . S
C686 C685 1.394 . S
C686 C687 1.516 . S
C687 C686 1.516 . S
C687 C688 1.502 . S
C687 C689 1.561 . S
C687 C690 1.526 . S
C688 H672 0.959 . S
C688 H673 0.959 . S
C688 H674 0.961 . S
C688 C687 1.502 . S
C689 H675 0.960 . S
C689 H676 0.961 . S
C689 H677 0.959 . S
C689 C687 1.561 . S
C690 C687 1.526 . S
C690 C691 1.396 . S
C690 C695 1.390 . S
C691 C685 1.465 . S
C691 C690 1.396 . S
C691 C692 1.399 . S
C692 H678 0.929 . S
C692 C691 1.399 . S
C692 C693 1.385 . S
C693 H679 0.931 . S
C693 C692 1.385 . S
C693 C694 1.389 . S
C694 C693 1.389 . S
C694 C695 1.387 . S
C695 H680 0.930 . S
C695 C690 1.390 . S
C695 C694 1.387 . S
H696 C708 0.930 . S
H697 C710 0.930 . S
H698 C711 0.930 . S
H699 C715 0.959 . S
H700 C715 0.959 . S
H701 C715 0.961 . S
H702 C716 0.960 . S
H703 C716 0.961 . S
H704 C716 0.959 . S
H705 C719 0.929 . S
H706 C720 0.931 . S
H707 C722 0.930 . S
C708 H696 0.930 . S
C708 C709 1.399 . S
C708 C713 1.399 . S
C709 C708 1.399 . S
C709 C710 1.376 . S
C710 H697 0.930 . S
C710 C709 1.376 . S
C710 C711 1.388 . S
C711 H698 0.930 . S
C711 C710 1.388 . S
C711 C712 1.390 . S
C712 C711 1.390 . S
C712 C713 1.394 . S
C712 C718 1.465 1_455 S
C713 C708 1.399 . S
C713 C712 1.394 . S
C713 C714 1.516 . S
C714 C713 1.516 . S
C714 C715 1.502 1_455 S
C714 C716 1.561 . S
C714 C717 1.526 . S
C715 H699 0.959 . S
C715 H700 0.959 . S
C715 H701 0.961 . S
C715 C714 1.502 1_655 S
C716 H702 0.960 . S
C716 H703 0.961 . S
C716 H704 0.959 . S
C716 C714 1.561 . S
C717 C714 1.526 . S
C717 C718 1.397 1_455 S
C717 C722 1.389 1_455 S
C718 C712 1.465 1_655 S
C718 C717 1.397 1_655 S
C718 C719 1.399 . S
C719 H705 0.929 . S
C719 C718 1.399 . S
C719 C720 1.385 . S
C720 H706 0.931 . S
C720 C719 1.385 . S
C720 C721 1.389 . S
C721 C720 1.389 . S
C721 C722 1.387 . S
C722 H707 0.930 . S
C722 C717 1.389 1_655 S
C722 C721 1.387 . S
H723 C735 0.930 . S
H724 C737 0.930 . S
H725 C738 0.930 . S
H726 C742 0.959 . S
H727 C742 0.959 . S
H728 C742 0.961 . S
H729 C743 0.960 . S
H730 C743 0.961 . S
H731 C743 0.959 . S
H732 C746 0.929 . S
H733 C747 0.931 . S
H734 C749 0.930 . S
C735 H723 0.930 . S
C735 C736 1.399 . S
C735 C740 1.399 . S
C736 C735 1.399 . S
C736 C737 1.376 1_565 S
C737 H724 0.930 . S
C737 C736 1.376 1_545 S
C737 C738 1.388 . S
C738 H725 0.930 . S
C738 C737 1.388 . S
C738 C739 1.390 . S
C739 C738 1.390 . S
C739 C740 1.394 1_545 S
C739 C745 1.465 . S
C740 C735 1.399 . S
C740 C739 1.394 1_565 S
C740 C741 1.516 . S
C741 C740 1.516 . S
C741 C742 1.502 . S
C741 C743 1.561 . S
C741 C744 1.526 . S
C742 H726 0.959 . S
C742 H727 0.959 . S
C742 H728 0.961 . S
C742 C741 1.502 . S
C743 H729 0.960 . S
C743 H730 0.961 . S
C743 H731 0.959 . S
C743 C741 1.561 . S
C744 C741 1.526 . S
C744 C745 1.396 1_565 S
C744 C749 1.390 . S
C745 C739 1.465 . S
C745 C744 1.396 1_545 S
C745 C746 1.399 . S
C746 H732 0.929 . S
C746 C745 1.399 . S
C746 C747 1.385 . S
C747 H733 0.931 . S
C747 C746 1.385 . S
C747 C748 1.389 . S
C748 C747 1.389 . S
C748 C749 1.387 1_545 S
C749 H734 0.930 . S
C749 C744 1.390 . S
C749 C748 1.387 1_565 S
H750 C762 0.930 . S
H751 C764 0.930 . S
H752 C765 0.930 . S
H753 C769 0.959 . S
H754 C769 0.959 . S
H755 C769 0.961 . S
H756 C770 0.960 . S
H757 C770 0.961 . S
H758 C770 0.959 . S
H759 C773 0.929 . S
H760 C774 0.931 . S
H761 C776 0.930 . S
C762 H750 0.930 . S
C762 C763 1.399 . S
C762 C767 1.399 . S
C763 C762 1.399 . S
C763 C764 1.376 . S
C764 H751 0.930 . S
C764 C763 1.376 . S
C764 C765 1.388 . S
C765 H752 0.930 . S
C765 C764 1.388 . S
C765 C766 1.390 . S
C766 C765 1.390 . S
C766 C767 1.394 . S
C766 C772 1.465 . S
C767 C762 1.399 . S
C767 C766 1.394 . S
C767 C768 1.516 . S
C768 C767 1.516 . S
C768 C769 1.502 . S
C768 C770 1.561 . S
C768 C771 1.526 . S
C769 H753 0.959 . S
C769 H754 0.959 . S
C769 H755 0.961 . S
C769 C768 1.502 . S
C770 H756 0.960 . S
C770 H757 0.961 . S
C770 H758 0.959 . S
C770 C768 1.561 . S
C771 C768 1.526 . S
C771 C772 1.396 . S
C771 C776 1.390 . S
C772 C766 1.465 . S
C772 C771 1.396 . S
C772 C773 1.399 . S
C773 H759 0.929 . S
C773 C772 1.399 . S
C773 C774 1.385 . S
C774 H760 0.931 . S
C774 C773 1.385 . S
C774 C775 1.389 . S
C775 C774 1.389 . S
C775 C776 1.387 . S
C776 H761 0.930 . S
C776 C771 1.390 . S
C776 C775 1.387 . S
H777 C789 0.930 . S
H778 C791 0.930 . S
H779 C792 0.930 . S
H780 C796 0.959 . S
H781 C796 0.959 1_455 S
H782 C796 0.961 . S
H783 C797 0.960 . S
H784 C797 0.961 . S
H785 C797 0.959 . S
H786 C800 0.928 . S
H787 C801 0.931 . S
H788 C803 0.930 . S
C789 H777 0.930 . S
C789 C790 1.399 . S
C789 C794 1.399 1_655 S
C790 C789 1.399 . S
C790 C791 1.376 . S
C791 H778 0.930 . S
C791 C790 1.376 . S
C791 C792 1.388 . S
C792 H779 0.930 . S
C792 C791 1.388 . S
C792 C793 1.390 . S
C793 C792 1.390 . S
C793 C794 1.394 1_655 S
C793 C799 1.465 1_655 S
C794 C789 1.399 1_455 S
C794 C793 1.394 1_455 S
C794 C795 1.516 . S
C795 C794 1.516 . S
C795 C796 1.502 1_455 S
C795 C797 1.561 . S
C795 C798 1.526 . S
C796 H780 0.959 . S
C796 H781 0.959 1_655 S
C796 H782 0.961 . S
C796 C795 1.502 1_655 S
C797 H783 0.960 . S
C797 H784 0.961 . S
C797 H785 0.959 . S
C797 C795 1.561 . S
C798 C795 1.526 . S
C798 C799 1.396 . S
C798 C803 1.390 . S
C799 C793 1.465 1_455 S
C799 C798 1.396 . S
C799 C800 1.400 1_455 S
C800 H786 0.928 . S
C800 C799 1.400 1_655 S
C800 C801 1.385 1_655 S
C801 H787 0.931 . S
C801 C800 1.385 1_455 S
C801 C802 1.389 . S
C802 C801 1.389 . S
C802 C803 1.387 . S
C803 H788 0.930 . S
C803 C798 1.390 . S
C803 C802 1.387 . S
C169 C0 1.709 . S
C181 C104 1.714 . S
C196 C13 1.728 . S
C208 C117 1.731 . S
C223 C130 1.690 . S
C235 C26 1.690 . S
C250 C143 1.732 . S
C262 C39 1.734 . S
C277 C78 1.729 . S
C289 C52 1.726 . S
C304 C91 1.695 . S
C316 C65 1.699 . S
C331 C8 1.343 1_545 S
C343 C47 1.334 . S
C358 C60 1.368 . S
C370 C21 1.369 . S
C385 C73 1.374 . S
C397 C34 1.374 . S
C412 C86 1.340 1_655 S
C424 C125 1.330 . S
C439 C138 1.307 . S
C451 C99 1.303 1_565 S
C466 C112 1.361 . S
C478 C151 1.362 . S
C493 C88 0.946 . S
C505 C10 1.032 . S
C520 C23 0.962 . S
C532 C101 1.009 . S
C547 C114 0.974 . S
C559 C36 1.042 . S
C574 C127 0.946 . S
C586 C49 1.033 . S
C601 C62 0.981 . S
C613 C140 0.988 . S
C628 C153 0.980 . S
C640 C75 1.038 . S
C655 C5 0.940 . S
C667 C96 0.996 . S
C682 C109 0.874 . S
C694 C18 1.015 . S
C709 C122 0.980 . S
C721 C31 0.960 . S
C736 C44 0.902 . S
C748 C135 1.018 . S
C763 C148 0.875 . S
C775 C57 1.007 . S
C790 C83 0.929 . S
C802 C70 0.937 . S
