# Generated by pormake.
# Topology wio, (6)-cn, num edge types: 1
# Building blocks:
#     Node 0, Type 0, BuildingBlock: INOVEN_clean_sbu_0, # of connection points: 6
#     Node 1, Type 0, BuildingBlock: INOVEN_clean_sbu_0, # of connection points: 6
#     Node 2, Type 0, BuildingBlock: INOVEN_clean_sbu_0, # of connection points: 6
#     Node 3, Type 0, BuildingBlock: INOVEN_clean_sbu_0, # of connection points: 6
#     Node 4, Type 0, BuildingBlock: INOVEN_clean_sbu_0, # of connection points: 6
#     Node 5, Type 0, BuildingBlock: INOVEN_clean_sbu_0, # of connection points: 6
#     Node 6, Type 0, BuildingBlock: INOVEN_clean_sbu_0, # of connection points: 6
#     Node 7, Type 0, BuildingBlock: INOVEN_clean_sbu_0, # of connection points: 6
#     Node 8, Type 0, BuildingBlock: INOVEN_clean_sbu_0, # of connection points: 6
#     Node 9, Type 0, BuildingBlock: INOVEN_clean_sbu_0, # of connection points: 6
#     Node 10, Type 0, BuildingBlock: INOVEN_clean_sbu_0, # of connection points: 6
#     Node 11, Type 0, BuildingBlock: INOVEN_clean_sbu_0, # of connection points: 6
#     Node 12, Type 0, BuildingBlock: INOVEN_clean_sbu_0, # of connection points: 6
#     Node 13, Type 0, BuildingBlock: INOVEN_clean_sbu_0, # of connection points: 6
#     Node 14, Type 0, BuildingBlock: INOVEN_clean_sbu_0, # of connection points: 6
#     Node 15, Type 0, BuildingBlock: INOVEN_clean_sbu_0, # of connection points: 6
#     Node 16, Type 0, BuildingBlock: INOVEN_clean_sbu_0, # of connection points: 6
#     Node 17, Type 0, BuildingBlock: INOVEN_clean_sbu_0, # of connection points: 6
#     Node 18, Type 0, BuildingBlock: INOVEN_clean_sbu_0, # of connection points: 6
#     Node 19, Type 0, BuildingBlock: INOVEN_clean_sbu_0, # of connection points: 6
#     Node 20, Type 0, BuildingBlock: INOVEN_clean_sbu_0, # of connection points: 6
#     Node 21, Type 0, BuildingBlock: INOVEN_clean_sbu_0, # of connection points: 6
#     Node 22, Type 0, BuildingBlock: INOVEN_clean_sbu_0, # of connection points: 6
#     Node 23, Type 0, BuildingBlock: INOVEN_clean_sbu_0, # of connection points: 6
#     Node 24, Type 0, BuildingBlock: INOVEN_clean_sbu_0, # of connection points: 6
#     Node 25, Type 0, BuildingBlock: INOVEN_clean_sbu_0, # of connection points: 6
#     Node 26, Type 0, BuildingBlock: INOVEN_clean_sbu_0, # of connection points: 6
#     Node 27, Type 0, BuildingBlock: INOVEN_clean_sbu_0, # of connection points: 6
#     Node 28, Type 0, BuildingBlock: INOVEN_clean_sbu_0, # of connection points: 6
#     Node 29, Type 0, BuildingBlock: INOVEN_clean_sbu_0, # of connection points: 6
#     Node 30, Type 0, BuildingBlock: INOVEN_clean_sbu_0, # of connection points: 6
#     Node 31, Type 0, BuildingBlock: INOVEN_clean_sbu_0, # of connection points: 6
#     Edge 32, Type (0, 0), BuildingBlock: XIVTED_clean_linker_0, # of connection points: 2
#     Edge 33, Type (0, 0), BuildingBlock: XIVTED_clean_linker_0, # of connection points: 2
#     Edge 34, Type (0, 0), BuildingBlock: XIVTED_clean_linker_0, # of connection points: 2
#     Edge 35, Type (0, 0), BuildingBlock: XIVTED_clean_linker_0, # of connection points: 2
#     Edge 36, Type (0, 0), BuildingBlock: XIVTED_clean_linker_0, # of connection points: 2
#     Edge 37, Type (0, 0), BuildingBlock: XIVTED_clean_linker_0, # of connection points: 2
#     Edge 38, Type (0, 0), BuildingBlock: XIVTED_clean_linker_0, # of connection points: 2
#     Edge 39, Type (0, 0), BuildingBlock: XIVTED_clean_linker_0, # of connection points: 2
#     Edge 40, Type (0, 0), BuildingBlock: XIVTED_clean_linker_0, # of connection points: 2
#     Edge 41, Type (0, 0), BuildingBlock: XIVTED_clean_linker_0, # of connection points: 2
#     Edge 42, Type (0, 0), BuildingBlock: XIVTED_clean_linker_0, # of connection points: 2
#     Edge 43, Type (0, 0), BuildingBlock: XIVTED_clean_linker_0, # of connection points: 2
#     Edge 44, Type (0, 0), BuildingBlock: XIVTED_clean_linker_0, # of connection points: 2
#     Edge 45, Type (0, 0), BuildingBlock: XIVTED_clean_linker_0, # of connection points: 2
#     Edge 46, Type (0, 0), BuildingBlock: XIVTED_clean_linker_0, # of connection points: 2
#     Edge 47, Type (0, 0), BuildingBlock: XIVTED_clean_linker_0, # of connection points: 2
#     Edge 48, Type (0, 0), BuildingBlock: XIVTED_clean_linker_0, # of connection points: 2
#     Edge 49, Type (0, 0), BuildingBlock: XIVTED_clean_linker_0, # of connection points: 2
#     Edge 50, Type (0, 0), BuildingBlock: XIVTED_clean_linker_0, # of connection points: 2
#     Edge 51, Type (0, 0), BuildingBlock: XIVTED_clean_linker_0, # of connection points: 2
#     Edge 52, Type (0, 0), BuildingBlock: XIVTED_clean_linker_0, # of connection points: 2
#     Edge 53, Type (0, 0), BuildingBlock: XIVTED_clean_linker_0, # of connection points: 2
#     Edge 54, Type (0, 0), BuildingBlock: XIVTED_clean_linker_0, # of connection points: 2
#     Edge 55, Type (0, 0), BuildingBlock: XIVTED_clean_linker_0, # of connection points: 2
#     Edge 56, Type (0, 0), BuildingBlock: XIVTED_clean_linker_0, # of connection points: 2
#     Edge 57, Type (0, 0), BuildingBlock: XIVTED_clean_linker_0, # of connection points: 2
#     Edge 58, Type (0, 0), BuildingBlock: XIVTED_clean_linker_0, # of connection points: 2
#     Edge 59, Type (0, 0), BuildingBlock: XIVTED_clean_linker_0, # of connection points: 2
#     Edge 60, Type (0, 0), BuildingBlock: XIVTED_clean_linker_0, # of connection points: 2
#     Edge 61, Type (0, 0), BuildingBlock: XIVTED_clean_linker_0, # of connection points: 2
#     Edge 62, Type (0, 0), BuildingBlock: XIVTED_clean_linker_0, # of connection points: 2
#     Edge 63, Type (0, 0), BuildingBlock: XIVTED_clean_linker_0, # of connection points: 2
#     Edge 64, Type (0, 0), BuildingBlock: XIVTED_clean_linker_0, # of connection points: 2
#     Edge 65, Type (0, 0), BuildingBlock: XIVTED_clean_linker_0, # of connection points: 2
#     Edge 66, Type (0, 0), BuildingBlock: XIVTED_clean_linker_0, # of connection points: 2
#     Edge 67, Type (0, 0), BuildingBlock: XIVTED_clean_linker_0, # of connection points: 2
#     Edge 68, Type (0, 0), BuildingBlock: XIVTED_clean_linker_0, # of connection points: 2
#     Edge 69, Type (0, 0), BuildingBlock: XIVTED_clean_linker_0, # of connection points: 2
#     Edge 70, Type (0, 0), BuildingBlock: XIVTED_clean_linker_0, # of connection points: 2
#     Edge 71, Type (0, 0), BuildingBlock: XIVTED_clean_linker_0, # of connection points: 2
#     Edge 72, Type (0, 0), BuildingBlock: XIVTED_clean_linker_0, # of connection points: 2
#     Edge 73, Type (0, 0), BuildingBlock: XIVTED_clean_linker_0, # of connection points: 2
#     Edge 74, Type (0, 0), BuildingBlock: XIVTED_clean_linker_0, # of connection points: 2
#     Edge 75, Type (0, 0), BuildingBlock: XIVTED_clean_linker_0, # of connection points: 2
#     Edge 76, Type (0, 0), BuildingBlock: XIVTED_clean_linker_0, # of connection points: 2
#     Edge 77, Type (0, 0), BuildingBlock: XIVTED_clean_linker_0, # of connection points: 2
#     Edge 78, Type (0, 0), BuildingBlock: XIVTED_clean_linker_0, # of connection points: 2
#     Edge 79, Type (0, 0), BuildingBlock: XIVTED_clean_linker_0, # of connection points: 2
#     Edge 80, Type (0, 0), BuildingBlock: XIVTED_clean_linker_0, # of connection points: 2
#     Edge 81, Type (0, 0), BuildingBlock: XIVTED_clean_linker_0, # of connection points: 2
#     Edge 82, Type (0, 0), BuildingBlock: XIVTED_clean_linker_0, # of connection points: 2
#     Edge 83, Type (0, 0), BuildingBlock: XIVTED_clean_linker_0, # of connection points: 2
#     Edge 84, Type (0, 0), BuildingBlock: XIVTED_clean_linker_0, # of connection points: 2
#     Edge 85, Type (0, 0), BuildingBlock: XIVTED_clean_linker_0, # of connection points: 2
#     Edge 86, Type (0, 0), BuildingBlock: XIVTED_clean_linker_0, # of connection points: 2
#     Edge 87, Type (0, 0), BuildingBlock: XIVTED_clean_linker_0, # of connection points: 2
#     Edge 88, Type (0, 0), BuildingBlock: XIVTED_clean_linker_0, # of connection points: 2
#     Edge 89, Type (0, 0), BuildingBlock: XIVTED_clean_linker_0, # of connection points: 2
#     Edge 90, Type (0, 0), BuildingBlock: XIVTED_clean_linker_0, # of connection points: 2
#     Edge 91, Type (0, 0), BuildingBlock: XIVTED_clean_linker_0, # of connection points: 2
#     Edge 92, Type (0, 0), BuildingBlock: XIVTED_clean_linker_0, # of connection points: 2
#     Edge 93, Type (0, 0), BuildingBlock: XIVTED_clean_linker_0, # of connection points: 2
#     Edge 94, Type (0, 0), BuildingBlock: XIVTED_clean_linker_0, # of connection points: 2
#     Edge 95, Type (0, 0), BuildingBlock: XIVTED_clean_linker_0, # of connection points: 2
#     Edge 96, Type (0, 0), BuildingBlock: XIVTED_clean_linker_0, # of connection points: 2
#     Edge 97, Type (0, 0), BuildingBlock: XIVTED_clean_linker_0, # of connection points: 2
#     Edge 98, Type (0, 0), BuildingBlock: XIVTED_clean_linker_0, # of connection points: 2
#     Edge 99, Type (0, 0), BuildingBlock: XIVTED_clean_linker_0, # of connection points: 2
#     Edge 100, Type (0, 0), BuildingBlock: XIVTED_clean_linker_0, # of connection points: 2
#     Edge 101, Type (0, 0), BuildingBlock: XIVTED_clean_linker_0, # of connection points: 2
#     Edge 102, Type (0, 0), BuildingBlock: XIVTED_clean_linker_0, # of connection points: 2
#     Edge 103, Type (0, 0), BuildingBlock: XIVTED_clean_linker_0, # of connection points: 2
#     Edge 104, Type (0, 0), BuildingBlock: XIVTED_clean_linker_0, # of connection points: 2
#     Edge 105, Type (0, 0), BuildingBlock: XIVTED_clean_linker_0, # of connection points: 2
#     Edge 106, Type (0, 0), BuildingBlock: XIVTED_clean_linker_0, # of connection points: 2
#     Edge 107, Type (0, 0), BuildingBlock: XIVTED_clean_linker_0, # of connection points: 2
#     Edge 108, Type (0, 0), BuildingBlock: XIVTED_clean_linker_0, # of connection points: 2
#     Edge 109, Type (0, 0), BuildingBlock: XIVTED_clean_linker_0, # of connection points: 2
#     Edge 110, Type (0, 0), BuildingBlock: XIVTED_clean_linker_0, # of connection points: 2
#     Edge 111, Type (0, 0), BuildingBlock: XIVTED_clean_linker_0, # of connection points: 2
#     Edge 112, Type (0, 0), BuildingBlock: XIVTED_clean_linker_0, # of connection points: 2
#     Edge 113, Type (0, 0), BuildingBlock: XIVTED_clean_linker_0, # of connection points: 2
#     Edge 114, Type (0, 0), BuildingBlock: XIVTED_clean_linker_0, # of connection points: 2
#     Edge 115, Type (0, 0), BuildingBlock: XIVTED_clean_linker_0, # of connection points: 2
#     Edge 116, Type (0, 0), BuildingBlock: XIVTED_clean_linker_0, # of connection points: 2
#     Edge 117, Type (0, 0), BuildingBlock: XIVTED_clean_linker_0, # of connection points: 2
#     Edge 118, Type (0, 0), BuildingBlock: XIVTED_clean_linker_0, # of connection points: 2
#     Edge 119, Type (0, 0), BuildingBlock: XIVTED_clean_linker_0, # of connection points: 2
#     Edge 120, Type (0, 0), BuildingBlock: XIVTED_clean_linker_0, # of connection points: 2
#     Edge 121, Type (0, 0), BuildingBlock: XIVTED_clean_linker_0, # of connection points: 2
#     Edge 122, Type (0, 0), BuildingBlock: XIVTED_clean_linker_0, # of connection points: 2
#     Edge 123, Type (0, 0), BuildingBlock: XIVTED_clean_linker_0, # of connection points: 2
#     Edge 124, Type (0, 0), BuildingBlock: XIVTED_clean_linker_0, # of connection points: 2
#     Edge 125, Type (0, 0), BuildingBlock: XIVTED_clean_linker_0, # of connection points: 2
#     Edge 126, Type (0, 0), BuildingBlock: XIVTED_clean_linker_0, # of connection points: 2
#     Edge 127, Type (0, 0), BuildingBlock: XIVTED_clean_linker_0, # of connection points: 2
# Relax obj value: 0.185
# Max RMSD: 0.231
# Mean RMSD: 0.231
data_MOF--net-wio--node1-INOVEN_clean_sbu_0--edge1-XIVTED_clean_linker_0
_symmetry_space_group_name_H-M    P1
_symmetry_Int_Tables_number       1
_symmetry_cell_setting            triclinic
loop_
_symmetry_equiv_pos_as_xyz
'x, y, z'
_cell_length_a     61.410891
_cell_length_b     61.400048
_cell_length_c     55.571609
_cell_angle_alpha  89.968505
_cell_angle_beta   90.010971
_cell_angle_gamma 90.010574
loop_
_atom_site_label
_atom_site_type_symbol
_atom_site_fract_x
_atom_site_fract_y
_atom_site_fract_z
_atom_type_partial_charge
Gd0 Gd 0.15213 0.11422 0.28335 0.0
Gd1 Gd 0.10492 0.12578 0.29426 0.0
C2 C 0.12118 0.13246 0.23994 0.0
C3 C 0.1889 0.10035 0.26637 0.0
C4 C 0.20487 0.10535 0.2472 0.0
C5 C 0.22624 0.11106 0.25365 0.0
C6 C 0.19954 0.10356 0.22268 0.0
C7 C 0.23695 0.11233 0.21151 0.0
C8 C 0.21544 0.10697 0.20503 0.0
C9 C 0.24208 0.11462 0.23601 0.0
C10 C 0.14675 0.15326 0.30486 0.0
C11 C 0.13446 0.10005 0.3349 0.0
C12 C 0.07047 0.14267 0.31406 0.0
C13 C 0.05613 0.13965 0.33519 0.0
C14 C 0.0543 0.11946 0.34689 0.0
C15 C 0.04377 0.1573 0.34357 0.0
C16 C 0.02702 0.13444 0.37442 0.0
C17 C 0.0294 0.15476 0.36297 0.0
C18 C 0.03987 0.11688 0.36627 0.0
C19 C 0.11065 0.08489 0.27669 0.0
O20 O 0.13905 0.12221 0.2467 0.0
O21 O 0.10621 0.13862 0.25577 0.0
O22 O 0.1874 0.11447 0.28388 0.0
O23 O 0.17001 0.09229 0.26001 0.0
O24 O 0.16323 0.14051 0.3081 0.0
O25 O 0.13439 0.14565 0.2886 0.0
O26 O 0.1169 0.11205 0.33036 0.0
O27 O 0.14905 0.09606 0.318 0.0
O28 O 0.06974 0.12775 0.29728 0.0
O29 O 0.09027 0.14942 0.31839 0.0
O30 O 0.09325 0.09649 0.27302 0.0
O31 O 0.12296 0.09488 0.29099 0.0
H32 H 0.23081 0.11239 0.27243 0.0
H33 H 0.18319 0.09926 0.2171 0.0
H34 H 0.21092 0.10532 0.18628 0.0
H35 H 0.25853 0.11848 0.24161 0.0
H36 H 0.06385 0.10566 0.34089 0.0
H37 H 0.04498 0.17304 0.33484 0.0
H38 H 0.01967 0.16859 0.36849 0.0
H39 H 0.03875 0.10108 0.37484 0.0
Gd40 Gd 0.14325 0.90084 0.53223 0.0
Gd41 Gd 0.13084 0.85359 0.54275 0.0
C42 C 0.12166 0.87152 0.48921 0.0
C43 C 0.15956 0.93687 0.51596 0.0
C44 C 0.15554 0.9542 0.49827 0.0
C45 C 0.13767 0.95357 0.48255 0.0
C46 C 0.16972 0.97202 0.49762 0.0
C47 C 0.14856 0.9885 0.46532 0.0
C48 C 0.16629 0.989 0.48136 0.0
C49 C 0.13419 0.97062 0.46618 0.0
C50 C 0.10457 0.8962 0.55455 0.0
C51 C 0.15731 0.88213 0.58346 0.0
C52 C 0.11422 0.81902 0.56255 0.0
C53 C 0.11797 0.80393 0.58314 0.0
C54 C 0.12686 0.78319 0.57901 0.0
C55 C 0.1115 0.80935 0.60673 0.0
C56 C 0.12312 0.77371 0.62153 0.0
C57 C 0.11405 0.79442 0.62567 0.0
C58 C 0.12947 0.76833 0.59791 0.0
C59 C 0.17168 0.8589 0.52471 0.0
O60 O 0.13213 0.88931 0.49593 0.0
O61 O 0.11706 0.85571 0.50473 0.0
O62 O 0.14606 0.9359 0.5341 0.0
O63 O 0.16489 0.91766 0.50759 0.0
O64 O 0.11747 0.91269 0.5572 0.0
O65 O 0.11165 0.88369 0.53816 0.0
O66 O 0.14492 0.86487 0.5789 0.0
O67 O 0.16156 0.89671 0.56663 0.0
O68 O 0.1281 0.81835 0.54468 0.0
O69 O 0.1078 0.83886 0.56744 0.0
O70 O 0.15978 0.84173 0.52098 0.0
O71 O 0.16195 0.87116 0.53922 0.0
H72 H 0.12648 0.93993 0.48293 0.0
H73 H 0.18348 0.97285 0.5098 0.0
H74 H 0.17746 1.00266 0.48152 0.0
H75 H 0.1205 0.96962 0.45394 0.0
H76 H 0.13161 0.7783 0.56103 0.0
H77 H 0.10434 0.82509 0.61058 0.0
H78 H 0.10911 0.7992 0.64361 0.0
H79 H 0.13614 0.75242 0.59389 0.0
Gd80 Gd 0.35938 0.89237 0.77981 0.0
Gd81 Gd 0.4065 0.88259 0.79217 0.0
C82 C 0.39062 0.87111 0.73848 0.0
C83 C 0.32287 0.90554 0.76158 0.0
C84 C 0.30632 0.8995 0.74333 0.0
C85 C 0.28845 0.88629 0.74957 0.0
C86 C 0.30713 0.90853 0.72011 0.0
C87 C 0.2721 0.89216 0.71018 0.0
C88 C 0.29026 0.90485 0.70371 0.0
C89 C 0.27159 0.88258 0.73313 0.0
C90 C 0.36524 0.85464 0.80387 0.0
C91 C 0.37629 0.90944 0.83077 0.0
C92 C 0.44121 0.86739 0.81305 0.0
C93 C 0.45578 0.87131 0.83401 0.0
C94 C 0.47477 0.88386 0.83133 0.0
C95 C 0.45187 0.86117 0.85634 0.0
C96 C 0.48554 0.8762 0.8728 0.0
C97 C 0.46656 0.8636 0.8755 0.0
C98 C 0.4894 0.88631 0.85045 0.0
C99 C 0.40032 0.92271 0.77235 0.0
O100 O 0.37183 0.8802 0.74413 0.0
O101 O 0.40636 0.86836 0.75453 0.0
O102 O 0.32421 0.89332 0.78082 0.0
O103 O 0.34193 0.91222 0.75391 0.0
O104 O 0.3484 0.86713 0.80609 0.0
O105 O 0.37763 0.8617 0.78734 0.0
O106 O 0.39384 0.89718 0.82743 0.0
O107 O 0.3621 0.91252 0.81321 0.0
O108 O 0.44171 0.88147 0.79536 0.0
O109 O 0.42154 0.86021 0.81741 0.0
O110 O 0.41787 0.91116 0.76959 0.0
O111 O 0.38792 0.91296 0.78676 0.0
H112 H 0.28714 0.8793 0.76741 0.0
H113 H 0.32055 0.91892 0.71476 0.0
H114 H 0.2913 0.91223 0.68604 0.0
H115 H 0.25774 0.87291 0.73876 0.0
H116 H 0.47857 0.89153 0.81428 0.0
H117 H 0.43758 0.85111 0.85896 0.0
H118 H 0.46296 0.8557 0.89246 0.0
H119 H 0.50403 0.89578 0.84749 0.0
Gd120 Gd 0.36631 0.10996 0.03002 0.0
Gd121 Gd 0.37573 0.15717 0.04277 0.0
C122 C 0.38728 0.14165 0.98888 0.0
C123 C 0.35336 0.07337 1.01185 0.0
C124 C 0.35901 0.05721 0.99313 0.0
C125 C 0.36484 0.03599 1.0001 0.0
C126 C 0.35727 0.06207 0.96848 0.0
C127 C 0.36597 0.02445 0.95824 0.0
C128 C 0.36069 0.04584 0.95123 0.0
C129 C 0.36839 0.01981 0.98286 0.0
C130 C 0.40406 0.11615 0.05389 0.0
C131 C 0.34927 0.12628 0.08122 0.0
C132 C 0.3906 0.19184 0.064 0.0
C133 C 0.3864 0.20636 0.08496 0.0
C134 C 0.37442 0.22568 0.08196 0.0
C135 C 0.39574 0.20208 0.10763 0.0
C136 C 0.38101 0.23602 0.12379 0.0
C137 C 0.39306 0.21671 0.12681 0.0
C138 C 0.37171 0.24024 0.10109 0.0
C139 C 0.33572 0.15073 1.02296 0.0
O140 O 0.37819 0.12279 0.99435 0.0
O141 O 0.39003 0.15725 1.00511 0.0
O142 O 0.36647 0.07469 0.03034 0.0
O143 O 0.34588 0.09236 1.00488 0.0
O144 O 0.39173 0.09919 0.05623 0.0
O145 O 0.39677 0.12851 0.03748 0.0
O146 O 0.36126 0.14405 0.07794 0.0
O147 O 0.34637 0.11212 0.06361 0.0
O148 O 0.37675 0.19239 0.04611 0.0
O149 O 0.39777 0.17217 0.06838 0.0
O150 O 0.34704 0.16846 1.02039 0.0
O151 O 0.34558 0.13831 0.03727 0.0
H152 H 0.3661 0.03176 1.01898 0.0
H153 H 0.35284 0.07826 0.9625 0.0
H154 H 0.35896 0.04997 0.93238 0.0
H155 H 0.37221 1.00346 0.98885 0.0
H156 H 0.3674 0.22977 0.06466 0.0
H157 H 0.40536 0.18753 0.11053 0.0
H158 H 0.40033 0.21282 0.14404 0.0
H159 H 0.36269 0.25511 0.09789 0.0
Gd160 Gd 0.15299 0.89315 0.26458 0.0
Gd161 Gd 0.10588 0.88069 0.25435 0.0
C162 C 0.12312 0.87371 0.30836 0.0
C163 C 0.18939 0.90882 0.28068 0.0
C164 C 0.20582 0.90519 0.29948 0.0
C165 C 0.20519 0.88684 0.31453 0.0
C166 C 0.2228 0.92023 0.30191 0.0
C167 C 0.2386 0.89875 0.33438 0.0
C168 C 0.23903 0.91706 0.31916 0.0
C169 C 0.2215 0.88361 0.33183 0.0
C170 C 0.14812 0.85421 0.24269 0.0
C171 C 0.13431 0.90725 0.21344 0.0
C172 C 0.07144 0.86341 0.23492 0.0
C173 C 0.05721 0.86653 0.21375 0.0
C174 C 0.0573 0.88607 0.20063 0.0
C175 C 0.04314 0.84971 0.20668 0.0
C176 C 0.02859 0.8722 0.1742 0.0
C177 C 0.029 0.85248 0.18712 0.0
C178 C 0.04312 0.88888 0.18107 0.0
C179 C 0.11101 0.92155 0.2722 0.0
O180 O 0.14089 0.88397 0.30125 0.0
O181 O 0.10777 0.86783 0.29282 0.0
O182 O 0.18819 0.89406 0.2638 0.0
O183 O 0.17028 0.91579 0.28769 0.0
O184 O 0.16434 0.8673 0.23934 0.0
O185 O 0.13585 0.86143 0.25924 0.0
O186 O 0.11711 0.89476 0.21808 0.0
O187 O 0.14894 0.91144 0.23022 0.0
O188 O 0.0707 0.87839 0.25163 0.0
O189 O 0.09126 0.85673 0.23059 0.0
O190 O 0.09396 0.90952 0.27613 0.0
O191 O 0.12331 0.91193 0.25758 0.0
H192 H 0.19215 0.87505 0.31286 0.0
H193 H 0.2236 0.93441 0.29032 0.0
H194 H 0.25209 0.92887 0.32035 0.0
H195 H 0.22057 0.86946 0.34343 0.0
H196 H 0.06817 0.8992 0.20564 0.0
H197 H 0.04287 0.83448 0.21654 0.0
H198 H 0.01793 0.83938 0.1826 0.0
H199 H 0.04352 0.90417 0.17136 0.0
Gd200 Gd 0.36472 0.90047 0.51833 0.0
Gd201 Gd 0.37516 0.8533 0.5056 0.0
C202 C 0.386 0.86901 0.55958 0.0
C203 C 0.35079 0.93662 0.53664 0.0
C204 C 0.35643 0.95291 0.55525 0.0
C205 C 0.36288 0.97392 0.54816 0.0
C206 C 0.35414 0.94835 0.57992 0.0
C207 C 0.36372 0.98581 0.5899 0.0
C208 C 0.35773 0.96465 0.59705 0.0
C209 C 0.3666 0.99016 0.56529 0.0
C210 C 0.40268 0.89515 0.49478 0.0
C211 C 0.34867 0.88371 0.46679 0.0
C212 C 0.39153 0.81902 0.48502 0.0
C213 C 0.38876 0.80531 0.46343 0.0
C214 C 0.36934 0.80534 0.45014 0.0
C215 C 0.40585 0.79162 0.45627 0.0
C216 C 0.38381 0.7772 0.42342 0.0
C217 C 0.40343 0.77773 0.43649 0.0
C218 C 0.36687 0.7914 0.43034 0.0
C219 C 0.33498 0.85918 0.52508 0.0
O220 O 0.37693 0.88785 0.55397 0.0
O221 O 0.38881 0.85331 0.54351 0.0
O222 O 0.36356 0.93569 0.51784 0.0
O223 O 0.34403 0.91741 0.54376 0.0
O224 O 0.39017 0.912 0.49268 0.0
O225 O 0.39551 0.8825 0.511 0.0
O226 O 0.36074 0.86604 0.47029 0.0
O227 O 0.34537 0.89793 0.48428 0.0
O228 O 0.37611 0.81821 0.50123 0.0
O229 O 0.39885 0.83875 0.48149 0.0
O230 O 0.34645 0.84153 0.52772 0.0
O231 O 0.34477 0.8717 0.51083 0.0
H232 H 0.36455 0.97795 0.52927 0.0
H233 H 0.3492 0.93234 0.58601 0.0
H234 H 0.35562 0.96075 0.61591 0.0
H235 H 0.37096 0.00635 0.55919 0.0
H236 H 0.35601 0.81594 0.45525 0.0
H237 H 0.421 0.79141 0.46628 0.0
H238 H 0.41672 0.7669 0.43193 0.0
H239 H 0.35164 0.79166 0.42052 0.0
Gd240 Gd 0.36077 0.11703 0.76885 0.0
Gd241 Gd 0.40806 0.12632 0.75585 0.0
C242 C 0.39284 0.13756 0.80994 0.0
C243 C 0.3244 0.10384 0.78738 0.0
C244 C 0.30787 0.10985 0.80566 0.0
C245 C 0.29005 0.12314 0.7995 0.0
C246 C 0.30864 0.10066 0.82881 0.0
C247 C 0.27364 0.11704 0.83881 0.0
C248 C 0.29176 0.10427 0.8452 0.0
C249 C 0.27318 0.12678 0.81593 0.0
C250 C 0.36678 0.15474 0.74491 0.0
C251 C 0.37702 0.10036 0.7174 0.0
C252 C 0.44275 0.14163 0.73503 0.0
C253 C 0.4562 0.13882 0.71319 0.0
C254 C 0.45729 0.11886 0.70093 0.0
C255 C 0.4687 0.1564 0.70487 0.0
C256 C 0.48427 0.13387 0.67306 0.0
C257 C 0.48256 0.15399 0.68504 0.0
C258 C 0.47121 0.1164 0.6811 0.0
C259 C 0.40132 0.08619 0.77542 0.0
O260 O 0.37373 0.12909 0.80438 0.0
O261 O 0.4086 0.13988 0.79382 0.0
O262 O 0.3256 0.11598 0.76807 0.0
O263 O 0.34352 0.09727 0.79501 0.0
O264 O 0.34963 0.1426 0.74312 0.0
O265 O 0.37937 0.14743 0.76113 0.0
O266 O 0.39471 0.11246 0.72058 0.0
O267 O 0.36306 0.09716 0.73518 0.0
O268 O 0.44309 0.1259 0.75092 0.0
O269 O 0.42332 0.14987 0.73202 0.0
O270 O 0.41917 0.09733 0.77803 0.0
O271 O 0.38898 0.09631 0.76127 0.0
H272 H 0.28877 0.13024 0.78171 0.0
H273 H 0.32202 0.0902 0.83409 0.0
H274 H 0.29276 0.09677 0.86282 0.0
H275 H 0.25936 0.13651 0.81035 0.0
H276 H 0.44762 0.10512 0.70689 0.0
H277 H 0.46807 0.17195 0.71405 0.0
H278 H 0.49248 0.16772 0.67961 0.0
H279 H 0.47184 0.10076 0.67213 0.0
Gd280 Gd 0.14299 0.10756 1.01555 0.0
Gd281 Gd 0.13186 0.15504 1.00571 0.0
C282 C 0.12212 0.13694 0.05898 0.0
C283 C 0.15679 0.07066 0.03213 0.0
C284 C 0.15128 0.0543 0.05074 0.0
C285 C 0.14456 0.03339 0.04362 0.0
C286 C 0.15373 0.05876 0.0754 0.0
C287 C 0.14391 0.02134 0.08532 0.0
C288 C 0.15013 0.04242 0.0925 0.0
C289 C 0.14078 0.01711 0.06073 0.0
C290 C 0.10489 0.11335 0.99244 0.0
C291 C 0.15816 0.12642 0.96489 0.0
C292 C 0.1155 0.19001 0.98647 0.0
C293 C 0.11825 0.20417 0.96514 0.0
C294 C 0.13826 0.20586 0.95308 0.0
C295 C 0.1005 0.21649 0.95694 0.0
C296 C 0.12293 0.23298 0.92558 0.0
C297 C 0.10278 0.23072 0.93738 0.0
C298 C 0.14058 0.22015 0.93353 0.0
C299 C 0.17238 0.14866 0.02422 0.0
O300 O 0.13193 0.1189 0.05194 0.0
O301 O 0.11822 0.15317 0.04378 0.0
O302 O 0.1433 0.07233 1.01402 0.0
O303 O 0.16444 0.08952 0.03926 0.0
O304 O 0.11778 0.09694 0.98934 0.0
O305 O 0.11179 0.12538 1.0094 0.0
O306 O 0.14604 0.14385 0.96956 0.0
O307 O 0.1619 0.11151 0.98154 0.0
O308 O 0.13103 0.19026 1.0026 0.0
O309 O 0.10789 0.17046 0.98256 0.0
O310 O 0.1607 0.16594 0.02824 0.0
O311 O 0.16258 0.1368 1.00934 0.0
H312 H 0.14269 0.02947 0.02472 0.0
H313 H 0.15882 0.07472 0.08151 0.0
H314 H 0.15244 0.04621 0.11136 0.0
H315 H 0.13623 1.00099 0.05463 0.0
H316 H 0.15213 0.19632 0.95892 0.0
H317 H 0.08489 0.21538 0.96595 0.0
H318 H 0.08889 0.24045 0.93201 0.0
H319 H 0.15626 0.22119 0.92468 0.0
Gd320 Gd 0.9042 0.88312 0.75471 0.0
Gd321 Gd 0.85673 0.89355 0.76457 0.0
C322 C 0.87519 0.9093 0.71396 0.0
C323 C 0.9393 0.86747 0.73516 0.0
C324 C 0.95433 0.87121 0.71455 0.0
C325 C 0.97524 0.87965 0.71877 0.0
C326 C 0.94874 0.86505 0.69092 0.0
C327 C 0.98463 0.87595 0.67625 0.0
C328 C 0.96371 0.86739 0.67201 0.0
C329 C 0.99014 0.88205 0.69991 0.0
C330 C 0.89759 0.92354 0.77317 0.0
C331 C 0.8865 0.87331 0.80803 0.0
C332 C 0.81956 0.90664 0.78112 0.0
C333 C 0.80361 0.90135 0.80019 0.0
C334 C 0.78235 0.89536 0.79363 0.0
C335 C 0.80883 0.90316 0.82474 0.0
C336 C 0.7715 0.89397 0.83571 0.0
C337 C 0.79291 0.89956 0.84231 0.0
C338 C 0.76648 0.8916 0.81118 0.0
C339 C 0.86329 0.85535 0.74177 0.0
O340 O 0.89285 0.8975 0.71864 0.0
O341 O 0.86014 0.91255 0.73054 0.0
O342 O 0.93953 0.88171 0.75269 0.0
O343 O 0.9197 0.86035 0.73036 0.0
O344 O 0.91501 0.91204 0.77701 0.0
O345 O 0.88564 0.91369 0.7584 0.0
O346 O 0.86848 0.88323 0.8011 0.0
O347 O 0.90249 0.86915 0.79264 0.0
O348 O 0.82148 0.89251 0.76366 0.0
O349 O 0.83822 0.91514 0.78764 0.0
O350 O 0.84683 0.86807 0.73814 0.0
O351 O 0.87496 0.86258 0.75882 0.0
H352 H 0.98023 0.88414 0.7368 0.0
H353 H 0.93285 0.85826 0.68701 0.0
H354 H 0.95884 0.86267 0.65403 0.0
H355 H 0.0062 0.88834 0.70399 0.0
H356 H 0.77787 0.89398 0.77483 0.0
H357 H 0.8251 0.90767 0.8304 0.0
H358 H 0.79733 0.90127 0.86108 0.0
H359 H 0.7501 0.88755 0.80551 0.0
Gd360 Gd 0.87763 0.15383 0.50391 0.0
Gd361 Gd 0.86512 0.10682 0.51399 0.0
C362 C 0.85169 0.12537 0.46257 0.0
C363 C 0.89524 0.18822 0.48476 0.0
C364 C 0.8922 0.2027 0.46378 0.0
C365 C 0.87262 0.20298 0.45076 0.0
C366 C 0.90918 0.21661 0.45678 0.0
C367 C 0.88677 0.23173 0.42455 0.0
C368 C 0.90653 0.23095 0.43737 0.0
C369 C 0.86992 0.21737 0.43137 0.0
C370 C 0.83648 0.14889 0.52093 0.0
C371 C 0.88369 0.13675 0.55807 0.0
C372 C 0.84965 0.07012 0.52955 0.0
C373 C 0.85304 0.05357 0.54829 0.0
C374 C 0.87108 0.05419 0.56379 0.0
C375 C 0.83817 0.03637 0.55007 0.0
C376 C 0.85915 0.02038 0.58283 0.0
C377 C 0.84117 0.01995 0.56712 0.0
C378 C 0.87414 0.03768 0.58093 0.0
C379 C 0.90432 0.11182 0.49259 0.0
O380 O 0.86393 0.14268 0.46746 0.0
O381 O 0.84734 0.11067 0.47925 0.0
O382 O 0.88035 0.189 0.50157 0.0
O383 O 0.90163 0.16836 0.48014 0.0
O384 O 0.84851 0.16589 0.52503 0.0
O385 O 0.84626 0.13641 0.50662 0.0
O386 O 0.8733 0.11908 0.55092 0.0
O387 O 0.8901 0.15188 0.54251 0.0
O388 O 0.86479 0.07161 0.51312 0.0
O389 O 0.84225 0.08909 0.53646 0.0
O390 O 0.89125 0.09566 0.48895 0.0
O391 O 0.89691 0.12394 0.50917 0.0
H392 H 0.85937 0.19223 0.45573 0.0
H393 H 0.92445 0.21659 0.46655 0.0
H394 H 0.91976 0.24188 0.43289 0.0
H395 H 0.85459 0.21726 0.42173 0.0
H396 H 0.88276 0.06738 0.56259 0.0
H397 H 0.82426 0.03555 0.5381 0.0
H398 H 0.82951 0.00673 0.56779 0.0
H399 H 0.88803 0.03862 0.59289 0.0
Gd400 Gd 0.60357 0.12875 0.25356 0.0
Gd401 Gd 0.65042 0.11694 0.26555 0.0
C402 C 0.63345 0.10283 0.21365 0.0
C403 C 0.56944 0.14593 0.23341 0.0
C404 C 0.55488 0.14263 0.21257 0.0
C405 C 0.55428 0.12281 0.20002 0.0
C406 C 0.54114 0.15964 0.20527 0.0
C407 C 0.52562 0.13685 0.17363 0.0
C408 C 0.52669 0.15682 0.18602 0.0
C409 C 0.53977 0.11993 0.18077 0.0
C410 C 0.6086 0.08761 0.27085 0.0
C411 C 0.61878 0.13506 0.30819 0.0
C412 C 0.68692 0.10292 0.28318 0.0
C413 C 0.70357 0.10868 0.30146 0.0
C414 C 0.72211 0.12079 0.29493 0.0
C415 C 0.70205 0.10062 0.32508 0.0
C416 C 0.73762 0.11588 0.33489 0.0
C417 C 0.71885 0.10422 0.3416 0.0
C418 C 0.73889 0.12446 0.31149 0.0
C419 C 0.64558 0.15632 0.24439 0.0
O420 O 0.61619 0.11539 0.2176 0.0
O421 O 0.64739 0.09841 0.23111 0.0
O422 O 0.56844 0.1315 0.25071 0.0
O423 O 0.58938 0.15197 0.22861 0.0
O424 O 0.5912 0.09928 0.27403 0.0
O425 O 0.62138 0.09766 0.25713 0.0
O426 O 0.63652 0.12434 0.302 0.0
O427 O 0.60442 0.14171 0.29194 0.0
O428 O 0.6856 0.11539 0.26418 0.0
O429 O 0.66784 0.09634 0.2908 0.0
O430 O 0.66219 0.14367 0.24162 0.0
O431 O 0.63294 0.14848 0.26021 0.0
H432 H 0.5649 0.10952 0.20523 0.0
H433 H 0.54139 0.17508 0.2147 0.0
H434 H 0.51592 0.17011 0.1813 0.0
H435 H 0.53965 0.10444 0.17147 0.0
H436 H 0.72397 0.12699 0.27679 0.0
H437 H 0.68809 0.0911 0.33069 0.0
H438 H 0.71725 0.09762 0.35959 0.0
H439 H 0.75322 0.13329 0.30567 0.0
Gd440 Gd 0.63398 0.85196 1.00566 0.0
Gd441 Gd 0.6433 0.89926 1.01859 0.0
C442 C 0.66038 0.88293 0.96736 0.0
C443 C 0.61918 0.81725 0.98444 0.0
C444 C 0.6234 0.80246 0.96373 0.0
C445 C 0.63379 0.78235 0.96749 0.0
C446 C 0.61554 0.80728 0.9405 0.0
C447 C 0.6285 0.77224 0.92537 0.0
C448 C 0.61808 0.79237 0.92157 0.0
C449 C 0.63637 0.7675 0.9486 0.0
C450 C 0.67394 0.85853 0.02554 0.0
C451 C 0.62198 0.86751 0.05942 0.0
C452 C 0.65627 0.93579 0.0369 0.0
C453 C 0.65031 0.95234 0.05514 0.0
C454 C 0.64118 0.97227 0.04779 0.0
C455 C 0.6554 0.94934 0.07958 0.0
C456 C 0.64346 0.98631 0.08865 0.0
C457 C 0.65199 0.96614 0.09615 0.0
C458 C 0.63768 0.98902 0.06438 0.0
C459 C 0.60566 0.89309 0.99456 0.0
O460 O 0.64833 0.8652 0.97054 0.0
O461 O 0.66338 0.89699 0.98507 0.0
O462 O 0.63284 0.81672 1.00252 0.0
O463 O 0.61223 0.83695 0.97977 0.0
O464 O 0.66286 0.84061 0.02779 0.0
O465 O 0.66402 0.87098 1.01135 0.0
O466 O 0.63108 0.88639 0.05406 0.0
O467 O 0.61942 0.85188 0.04319 0.0
O468 O 0.64388 0.93448 1.0178 0.0
O469 O 0.6631 0.91674 0.04446 0.0
O470 O 0.61788 0.91016 0.99252 0.0
O471 O 0.61291 0.88066 1.01093 0.0
H472 H 0.63963 0.77788 0.98522 0.0
H473 H 0.60718 0.82248 0.93697 0.0
H474 H 0.61196 0.79666 0.90392 0.0
H475 H 0.64411 0.75203 0.95239 0.0
H476 H 0.63735 0.97518 0.02903 0.0
H477 H 0.66253 0.93425 0.08587 0.0
H478 H 0.65636 0.96346 0.1148 0.0
H479 H 0.6313 1.00443 0.058 0.0
Gd480 Gd 0.90474 0.12697 0.79232 0.0
Gd481 Gd 0.8573 0.1167 0.78302 0.0
C482 C 0.87628 0.1001 0.83301 0.0
C483 C 0.94006 0.14241 0.81162 0.0
C484 C 0.95488 0.13878 0.83243 0.0
C485 C 0.97562 0.12981 0.82857 0.0
C486 C 0.94928 0.14548 0.85588 0.0
C487 C 0.9848 0.13401 0.87109 0.0
C488 C 0.96407 0.14313 0.87497 0.0
C489 C 0.99034 0.12739 0.84761 0.0
C490 C 0.89803 0.08683 0.7732 0.0
C491 C 0.88661 0.137 0.73925 0.0
C492 C 0.81971 0.10415 0.76712 0.0
C493 C 0.8038 0.10935 0.74801 0.0
C494 C 0.78248 0.11514 0.7545 0.0
C495 C 0.80915 0.10767 0.72349 0.0
C496 C 0.77174 0.1164 0.71239 0.0
C497 C 0.79324 0.11111 0.70587 0.0
C498 C 0.76663 0.11874 0.73689 0.0
C499 C 0.86422 0.15446 0.80662 0.0
O500 O 0.89378 0.11217 0.82836 0.0
O501 O 0.86113 0.09703 0.81649 0.0
O502 O 0.94007 0.12779 0.79449 0.0
O503 O 0.92058 0.15003 0.81608 0.0
O504 O 0.91527 0.09856 0.76915 0.0
O505 O 0.88624 0.09637 0.78838 0.0
O506 O 0.8686 0.12719 0.74638 0.0
O507 O 0.9028 0.14101 0.75444 0.0
O508 O 0.82209 0.11866 0.78411 0.0
O509 O 0.83812 0.09504 0.76073 0.0
O510 O 0.84802 0.14148 0.81052 0.0
O511 O 0.87553 0.14764 0.78907 0.0
H512 H 0.98062 0.12488 0.81069 0.0
H513 H 0.93352 0.15269 0.85951 0.0
H514 H 0.9592 0.14827 0.89281 0.0
H515 H 0.00627 0.12068 0.8438 0.0
H516 H 0.77795 0.11644 0.77329 0.0
H517 H 0.82548 0.10337 0.71789 0.0
H518 H 0.79772 0.10944 0.6871 0.0
H519 H 0.75017 0.12258 0.74249 0.0
Gd520 Gd 0.63262 0.15528 0.5421 0.0
Gd521 Gd 0.64443 0.10793 0.53079 0.0
C522 C 0.6596 0.12615 0.58189 0.0
C523 C 0.61586 0.18957 0.56239 0.0
C524 C 0.61913 0.20371 0.58362 0.0
C525 C 0.639 0.20424 0.59608 0.0
C526 C 0.60203 0.21713 0.59139 0.0
C527 C 0.62488 0.2323 0.62322 0.0
C528 C 0.60484 0.23125 0.61097 0.0
C529 C 0.64186 0.21841 0.61565 0.0
C530 C 0.67311 0.14985 0.52327 0.0
C531 C 0.62241 0.13788 0.48854 0.0
C532 C 0.66011 0.07194 0.51375 0.0
C533 C 0.65597 0.05522 0.49542 0.0
C534 C 0.63707 0.05541 0.4812 0.0
C535 C 0.67118 0.03846 0.49249 0.0
C536 C 0.64889 0.02212 0.46106 0.0
C537 C 0.66769 0.02207 0.47553 0.0
C538 C 0.63354 0.03894 0.46416 0.0
C539 C 0.60619 0.11295 0.55395 0.0
O540 O 0.64698 0.14337 0.57788 0.0
O541 O 0.6635 0.11178 0.56474 0.0
O542 O 0.63063 0.19045 0.54544 0.0
O543 O 0.60919 0.16971 0.56662 0.0
O544 O 0.66142 0.16727 0.52016 0.0
O545 O 0.66344 0.13741 0.53768 0.0
O546 O 0.63258 0.1198 0.49488 0.0
O547 O 0.61856 0.15377 0.50419 0.0
O548 O 0.64637 0.07277 0.53169 0.0
O549 O 0.66602 0.09122 0.50605 0.0
O550 O 0.61902 0.09639 0.55655 0.0
O551 O 0.61319 0.12534 0.53739 0.0
H552 H 0.65236 0.19386 0.59054 0.0
H553 H 0.58654 0.21693 0.58207 0.0
H554 H 0.59148 0.2418 0.61602 0.0
H555 H 0.65741 0.21849 0.62483 0.0
H556 H 0.62513 0.06826 0.48329 0.0
H557 H 0.68577 0.03799 0.50345 0.0
H558 H 0.67968 0.00921 0.47392 0.0
H559 H 0.61899 0.03957 0.45316 0.0
Gd560 Gd 0.60164 0.8842 0.29167 0.0
Gd561 Gd 0.64857 0.89435 0.2783 0.0
C562 C 0.63236 0.91135 0.32959 0.0
C563 C 0.56741 0.8688 0.3133 0.0
C564 C 0.55259 0.87302 0.33398 0.0
C565 C 0.53252 0.88347 0.33022 0.0
C566 C 0.55739 0.86511 0.35718 0.0
C567 C 0.52243 0.8782 0.37235 0.0
C568 C 0.54251 0.86769 0.37613 0.0
C569 C 0.5177 0.88609 0.34913 0.0
C570 C 0.60716 0.92419 0.27149 0.0
C571 C 0.61698 0.87222 0.23787 0.0
C572 C 0.68452 0.90791 0.25914 0.0
C573 C 0.70118 0.90166 0.24112 0.0
C574 C 0.71717 0.88592 0.24638 0.0
C575 C 0.7024 0.91297 0.2192 0.0
C576 C 0.73589 0.89388 0.20874 0.0
C577 C 0.71949 0.90907 0.20316 0.0
C578 C 0.73429 0.88203 0.23032 0.0
C579 C 0.64338 0.85654 0.30238 0.0
O580 O 0.61468 0.8992 0.32654 0.0
O581 O 0.64635 0.91442 0.31183 0.0
O582 O 0.56647 0.88213 0.29494 0.0
O583 O 0.5873 0.86246 0.31805 0.0
O584 O 0.58956 0.91262 0.26936 0.0
O585 O 0.61996 0.91466 0.28565 0.0
O586 O 0.63571 0.88167 0.24303 0.0
O587 O 0.60151 0.86946 0.25423 0.0
O588 O 0.68366 0.89654 0.27903 0.0
O589 O 0.66525 0.91361 0.25118 0.0
O590 O 0.6603 0.869 0.30406 0.0
O591 O 0.63065 0.8636 0.2862 0.0
H592 H 0.52806 0.88934 0.31251 0.0
H593 H 0.57256 0.85668 0.36069 0.0
H594 H 0.54679 0.86155 0.39378 0.0
H595 H 0.50226 0.89389 0.34536 0.0
H596 H 0.71686 0.87703 0.2632 0.0
H597 H 0.69042 0.92527 0.2147 0.0
H598 H 0.72003 0.91823 0.18651 0.0
H599 H 0.74674 0.87036 0.23526 0.0
Gd600 Gd 0.87797 0.85434 0.04265 0.0
Gd601 Gd 0.8676 0.9017 0.03409 0.0
C602 C 0.8526 0.88273 0.08456 0.0
C603 C 0.8935 0.81874 0.0613 0.0
C604 C 0.88963 0.80346 0.08169 0.0
C605 C 0.88045 0.78289 0.07726 0.0
C606 C 0.89625 0.8085 0.10532 0.0
C607 C 0.8843 0.77279 0.11958 0.0
C608 C 0.89362 0.79334 0.12403 0.0
C609 C 0.87776 0.76781 0.09593 0.0
C610 C 0.83724 0.86108 0.02512 0.0
C611 C 0.88523 0.87222 0.9892 0.0
C612 C 0.85535 0.93967 1.0188 0.0
C613 C 0.86 0.95543 0.99931 0.0
C614 C 0.86789 0.97621 1.00529 0.0
C615 C 0.85579 0.95057 0.97503 0.0
C616 C 0.86647 0.98735 0.96329 0.0
C617 C 0.85896 0.96639 0.95722 0.0
C618 C 0.8712 0.99196 0.98749 0.0
C619 C 0.90613 0.8946 0.05615 0.0
O620 O 0.86404 0.86501 0.07916 0.0
O621 O 0.84926 0.89819 0.06846 0.0
O622 O 0.87917 0.81897 0.04387 0.0
O623 O 0.90088 0.83819 0.06639 0.0
O624 O 0.84898 0.84401 1.02037 0.0
O625 O 0.84715 0.87284 0.04009 0.0
O626 O 0.87535 0.88998 0.99686 0.0
O627 O 0.89102 0.85655 1.00435 0.0
O628 O 0.87071 0.93683 0.03476 0.0
O629 O 0.8453 0.92155 1.0132 0.0
O630 O 0.89323 0.9107 0.06068 0.0
O631 O 0.89877 0.88338 0.03877 0.0
H632 H 0.87556 0.77832 0.05923 0.0
H633 H 0.90361 0.8241 0.1094 0.0
H634 H 0.8987 0.79782 0.14202 0.0
H635 H 0.87089 0.75203 0.09168 0.0
H636 H 0.87113 0.98042 0.02389 0.0
H637 H 0.84976 0.93468 0.96981 0.0
H638 H 0.85541 0.96225 0.93869 0.0
H639 H 0.87676 0.008 0.99279 0.0
Gd640 Gd 0.6497 0.61487 0.77855 0.0
Gd641 Gd 0.60261 0.62567 0.79196 0.0
C642 C 0.61816 0.63683 0.73789 0.0
C643 C 0.68536 0.5994 0.76051 0.0
C644 C 0.70215 0.60324 0.74217 0.0
C645 C 0.70291 0.62252 0.72861 0.0
C646 C 0.71821 0.58737 0.73884 0.0
C647 C 0.73581 0.60978 0.70834 0.0
C648 C 0.73487 0.59058 0.72215 0.0
C649 C 0.71967 0.62578 0.71181 0.0
C650 C 0.64482 0.65288 0.80221 0.0
C651 C 0.63324 0.59896 0.83035 0.0
C652 C 0.5685 0.64144 0.81348 0.0
C653 C 0.55393 0.63748 0.83449 0.0
C654 C 0.5342 0.62622 0.83144 0.0
C655 C 0.55866 0.64632 0.85729 0.0
C656 C 0.52433 0.63251 0.87347 0.0
C657 C 0.54406 0.64385 0.87653 0.0
C658 C 0.51965 0.62372 0.85064 0.0
C659 C 0.6081 0.58545 0.77236 0.0
O660 O 0.63688 0.62732 0.74311 0.0
O661 O 0.60273 0.6399 0.75427 0.0
O662 O 0.68485 0.61303 0.77857 0.0
O663 O 0.66597 0.5937 0.75297 0.0
O664 O 0.66174 0.6404 0.80389 0.0
O665 O 0.63193 0.64574 0.78622 0.0
O666 O 0.6156 0.6111 0.82705 0.0
O667 O 0.64729 0.59564 0.81271 0.0
O668 O 0.56746 0.62777 0.79544 0.0
O669 O 0.5884 0.64798 0.81782 0.0
O670 O 0.59046 0.59695 0.77008 0.0
O671 O 0.62081 0.59517 0.78643 0.0
H672 H 0.69062 0.63498 0.73104 0.0
H673 H 0.71797 0.57248 0.74933 0.0
H674 H 0.7472 0.57808 0.72029 0.0
H675 H 0.71981 0.64065 0.70133 0.0
H676 H 0.52977 0.6196 0.81405 0.0
H677 H 0.57356 0.65538 0.86024 0.0
H678 H 0.5483 0.65071 0.89386 0.0
H679 H 0.50446 0.61526 0.84739 0.0
Gd680 Gd 0.64415 0.40259 0.03185 0.0
Gd681 Gd 0.63222 0.35518 0.0426 0.0
C682 C 0.62241 0.37304 0.98912 0.0
C683 C 0.65998 0.43872 1.01529 0.0
C684 C 0.6565 0.45527 0.99658 0.0
C685 C 0.63757 0.45564 0.98245 0.0
C686 C 0.67238 0.47135 0.9933 0.0
C687 C 0.6506 0.48822 0.96176 0.0
C688 C 0.66948 0.48766 0.9761 0.0
C689 C 0.63461 0.47204 0.96517 0.0
C690 C 0.60594 0.39745 0.05503 0.0
C691 C 0.6592 0.38398 0.08284 0.0
C692 C 0.61574 0.32066 0.06265 0.0
C693 C 0.61933 0.30569 0.08339 0.0
C694 C 0.62824 0.28493 0.07948 0.0
C695 C 0.61261 0.31122 0.10686 0.0
C696 C 0.62402 0.27562 0.12198 0.0
C697 C 0.61493 0.29636 0.12591 0.0
C698 C 0.63063 0.27015 0.09848 0.0
C699 C 0.67273 0.36077 0.02389 0.0
O700 O 0.63267 0.39099 0.99571 0.0
O701 O 0.61822 0.35713 1.00466 0.0
O702 O 0.64542 0.43777 0.03242 0.0
O703 O 0.66656 0.4195 1.00814 0.0
O704 O 0.61886 0.41393 0.05777 0.0
O705 O 0.61283 0.38516 0.03833 0.0
O706 O 0.64687 0.36661 0.07849 0.0
O707 O 0.66291 0.39869 0.06598 0.0
O708 O 0.62978 0.31994 0.04494 0.0
O709 O 0.60917 0.34049 0.06731 0.0
O710 O 0.66098 0.34344 1.02047 0.0
O711 O 0.66307 0.37299 0.03851 0.0
H712 H 0.62513 0.44331 0.98479 0.0
H713 H 0.68702 0.47137 1.00418 0.0
H714 H 0.68195 0.50002 0.97423 0.0
H715 H 0.61999 0.47188 0.95427 0.0
H716 H 0.63317 0.27996 0.06159 0.0
H717 H 0.60541 0.32697 0.11053 0.0
H718 H 0.60979 0.3012 0.14376 0.0
H719 H 0.63732 0.25421 0.09463 0.0
Gd720 Gd 0.85809 0.39208 0.28297 0.0
Gd721 Gd 0.90592 0.38242 0.29194 0.0
C722 C 0.88743 0.37205 0.23903 0.0
C723 C 0.82048 0.40447 0.26692 0.0
C724 C 0.80436 0.39901 0.24804 0.0
C725 C 0.78366 0.39142 0.25483 0.0
C726 C 0.80875 0.40241 0.22349 0.0
C727 C 0.77166 0.39175 0.2131 0.0
C728 C 0.79254 0.39886 0.20622 0.0
C729 C 0.76752 0.3877 0.23756 0.0
C730 C 0.86547 0.3543 0.30626 0.0
C731 C 0.87715 0.4085 0.333 0.0
C732 C 0.94158 0.36758 0.31116 0.0
C733 C 0.95655 0.3715 0.33183 0.0
C734 C 0.97703 0.38101 0.3278 0.0
C735 C 0.95139 0.36448 0.3553 0.0
C736 C 0.98681 0.3767 0.37018 0.0
C737 C 0.96634 0.36705 0.37423 0.0
C738 C 0.9919 0.38364 0.34668 0.0
C739 C 0.89828 0.42256 0.2731 0.0
O740 O 0.86931 0.38151 0.24636 0.0
O741 O 0.9039 0.36843 0.25401 0.0
O742 O 0.82288 0.39031 0.28429 0.0
O743 O 0.83889 0.41341 0.26023 0.0
O744 O 0.8489 0.36687 0.30993 0.0
O745 O 0.87688 0.36141 0.28889 0.0
O746 O 0.89499 0.39708 0.32801 0.0
O747 O 0.86168 0.41129 0.31679 0.0
O748 O 0.94129 0.38205 0.29386 0.0
O749 O 0.92222 0.35976 0.31585 0.0
O750 O 0.91573 0.41122 0.26886 0.0
O751 O 0.88685 0.41264 0.28833 0.0
H752 H 0.77979 0.38882 0.27364 0.0
H753 H 0.82455 0.40819 0.21762 0.0
H754 H 0.79629 0.40188 0.18747 0.0
H755 H 0.75155 0.38245 0.24345 0.0
H756 H 0.98172 0.3862 0.30989 0.0
H757 H 0.93586 0.35684 0.35907 0.0
H758 H 0.96177 0.36165 0.39208 0.0
H759 H 0.00763 0.39077 0.34271 0.0
Gd760 Gd 0.86605 0.60945 0.52932 0.0
Gd761 Gd 0.8762 0.65691 0.54136 0.0
C762 C 0.88693 0.64055 0.4875 0.0
C763 C 0.8512 0.57311 0.51232 0.0
C764 C 0.85568 0.55586 0.4947 0.0
C765 C 0.87309 0.55719 0.47841 0.0
C766 C 0.84229 0.53742 0.49463 0.0
C767 C 0.86324 0.52174 0.46173 0.0
C768 C 0.84602 0.52054 0.47837 0.0
C769 C 0.87687 0.54021 0.46203 0.0
C770 C 0.904 0.61534 0.55284 0.0
C771 C 0.84987 0.62692 0.58061 0.0
C772 C 0.89229 0.69155 0.56153 0.0
C773 C 0.88936 0.70527 0.58311 0.0
C774 C 0.87003 0.7048 0.59655 0.0
C775 C 0.90617 0.71937 0.59012 0.0
C776 C 0.88402 0.7333 0.62317 0.0
C777 C 0.90356 0.73322 0.60993 0.0
C778 C 0.86737 0.7187 0.61637 0.0
C779 C 0.83596 0.65049 0.52213 0.0
O780 O 0.87819 0.62163 0.49347 0.0
O781 O 0.88957 0.65652 0.5033 0.0
O782 O 0.86442 0.57429 0.53071 0.0
O783 O 0.8455 0.59222 0.50393 0.0
O784 O 0.89171 0.59833 0.55503 0.0
O785 O 0.8967 0.62775 0.53646 0.0
O786 O 0.86187 0.6446 0.5769 0.0
O787 O 0.84668 0.61251 0.56329 0.0
O788 O 0.87678 0.69204 0.54539 0.0
O789 O 0.89994 0.67195 0.56507 0.0
O790 O 0.84732 0.66817 0.51918 0.0
O791 O 0.84594 0.6382 0.53647 0.0
H792 H 0.88365 0.57133 0.47831 0.0
H793 H 0.8289 0.53606 0.50725 0.0
H794 H 0.83545 0.50643 0.47896 0.0
H795 H 0.89017 0.54172 0.44934 0.0
H796 H 0.85692 0.69389 0.59157 0.0
H797 H 0.92124 0.71993 0.58 0.0
H798 H 0.91663 0.74436 0.61438 0.0
H799 H 0.85223 0.71806 0.62632 0.0
Gd800 Gd 0.65203 0.39277 0.7642 0.0
Gd801 Gd 0.60471 0.38087 0.75396 0.0
C802 C 0.6215 0.3749 0.80819 0.0
C803 C 0.68876 0.40809 0.77988 0.0
C804 C 0.70567 0.40432 0.79814 0.0
C805 C 0.70475 0.38661 0.81409 0.0
C806 C 0.72347 0.41854 0.79907 0.0
C807 C 0.73938 0.39764 0.83195 0.0
C808 C 0.74015 0.41525 0.81575 0.0
C809 C 0.72151 0.38327 0.83087 0.0
C810 C 0.64657 0.35331 0.74353 0.0
C811 C 0.63368 0.40607 0.71255 0.0
C812 C 0.57006 0.36379 0.7348 0.0
C813 C 0.5555 0.36693 0.71388 0.0
C814 C 0.55404 0.38703 0.70193 0.0
C815 C 0.54264 0.34949 0.70588 0.0
C816 C 0.52622 0.37238 0.67486 0.0
C817 C 0.52818 0.35215 0.68659 0.0
C818 C 0.53952 0.38974 0.68266 0.0
C819 C 0.61046 0.42206 0.77069 0.0
O820 O 0.63933 0.3851 0.80113 0.0
O821 O 0.60643 0.36849 0.79258 0.0
O822 O 0.68723 0.39355 0.76282 0.0
O823 O 0.66979 0.41496 0.78744 0.0
O824 O 0.66315 0.36591 0.74009 0.0
O825 O 0.63431 0.36125 0.75967 0.0
O826 O 0.61623 0.39407 0.71748 0.0
O827 O 0.64841 0.41035 0.72923 0.0
O828 O 0.5695 0.37867 0.75164 0.0
O829 O 0.58982 0.35711 0.73014 0.0
O830 O 0.59317 0.41042 0.77478 0.0
O831 O 0.6227 0.41189 0.75647 0.0
H832 H 0.69111 0.37542 0.81356 0.0
H833 H 0.72453 0.43218 0.78674 0.0
H834 H 0.75379 0.42643 0.81577 0.0
H835 H 0.72031 0.36968 0.84322 0.0
H836 H 0.56398 0.40067 0.70764 0.0
H837 H 0.54356 0.33383 0.71481 0.0
H838 H 0.51809 0.3385 0.68133 0.0
H839 H 0.53871 0.40546 0.67387 0.0
Gd840 Gd 0.86424 0.40235 1.01484 0.0
Gd841 Gd 0.87706 0.35538 1.00376 0.0
C842 C 0.88374 0.37194 0.05807 0.0
C843 C 0.84829 0.43848 0.03132 0.0
C844 C 0.85167 0.45479 0.0503 0.0
C845 C 0.87067 0.45515 0.06434 0.0
C846 C 0.83577 0.47081 0.05379 0.0
C847 C 0.85772 0.48763 0.08522 0.0
C848 C 0.83874 0.48706 0.07103 0.0
C849 C 0.8737 0.47149 0.08165 0.0
C850 C 0.90336 0.39799 0.99316 0.0
C851 C 0.85056 0.38429 0.96314 0.0
C852 C 0.89478 0.32137 0.98399 0.0
C853 C 0.89151 0.30675 0.96321 0.0
C854 C 0.87146 0.30562 0.95115 0.0
C855 C 0.90874 0.29351 0.95545 0.0
C856 C 0.8857 0.27734 0.92444 0.0
C857 C 0.9059 0.27898 0.93627 0.0
C858 C 0.86857 0.29103 0.93199 0.0
C859 C 0.83602 0.36006 1.02125 0.0
O860 O 0.87295 0.38955 0.05146 0.0
O861 O 0.89013 0.35715 0.04212 0.0
O862 O 0.86315 0.43754 1.01454 0.0
O863 O 0.84137 0.41926 0.03806 0.0
O864 O 0.89032 0.4143 0.9902 0.0
O865 O 0.89604 0.3854 1.00936 0.0
O866 O 0.86285 0.36692 0.96768 0.0
O867 O 0.84638 0.39885 0.98002 0.0
O868 O 0.88042 0.32028 1.00134 0.0
O869 O 0.90059 0.34137 0.97908 0.0
O870 O 0.84799 0.34291 0.02485 0.0
O871 O 0.84578 0.37265 1.00707 0.0
H872 H 0.88314 0.44287 0.06184 0.0
H873 H 0.82108 0.47087 0.04297 0.0
H874 H 0.82626 0.4994 0.073 0.0
H875 H 0.88839 0.47132 0.09243 0.0
H876 H 0.858 0.31586 0.9567 0.0
H877 H 0.92436 0.29418 0.96448 0.0
H878 H 0.91937 0.26857 0.9312 0.0
H879 H 0.85288 0.29047 0.92311 0.0
Gd880 Gd 0.85852 0.61606 0.2668 0.0
Gd881 Gd 0.90579 0.62585 0.25455 0.0
C882 C 0.88977 0.6371 0.30831 0.0
C883 C 0.82194 0.60275 0.28463 0.0
C884 C 0.80583 0.60817 0.30347 0.0
C885 C 0.78436 0.61312 0.29666 0.0
C886 C 0.81107 0.60726 0.32807 0.0
C887 C 0.77334 0.6151 0.33864 0.0
C888 C 0.79496 0.61065 0.34548 0.0
C889 C 0.76831 0.61666 0.31405 0.0
C890 C 0.86458 0.65373 0.24274 0.0
C891 C 0.87546 0.59925 0.21568 0.0
C892 C 0.94052 0.64115 0.23386 0.0
C893 C 0.95518 0.63735 0.21297 0.0
C894 C 0.97556 0.62749 0.21656 0.0
C895 C 0.94991 0.64497 0.18977 0.0
C896 C 0.98505 0.63273 0.17428 0.0
C897 C 0.96467 0.64268 0.17065 0.0
C898 C 0.99025 0.62515 0.1975 0.0
C899 C 0.8994 0.58582 0.27433 0.0
O900 O 0.87096 0.62806 0.30259 0.0
O901 O 0.90553 0.6399 0.29229 0.0
O902 O 0.82326 0.61619 0.26643 0.0
O903 O 0.84092 0.59516 0.29146 0.0
O904 O 0.84772 0.64126 0.24042 0.0
O905 O 0.87689 0.64666 0.25933 0.0
O906 O 0.89329 0.61108 0.21929 0.0
O907 O 0.86099 0.59641 0.233 0.0
O908 O 0.94102 0.62697 0.25144 0.0
O909 O 0.92085 0.64834 0.22949 0.0
O910 O 0.91704 0.59725 0.27711 0.0
O911 O 0.88709 0.59559 0.25984 0.0
H912 H 0.77988 0.61377 0.27781 0.0
H913 H 0.82748 0.60355 0.33391 0.0
H914 H 0.79939 0.60959 0.36431 0.0
H915 H 0.75178 0.61983 0.30821 0.0
H916 H 0.98035 0.62186 0.23427 0.0
H917 H 0.93447 0.65293 0.18638 0.0
H918 H 0.96006 0.64858 0.15301 0.0
H919 H 0.00593 0.61779 0.20113 0.0
Gd920 Gd 0.64261 0.6103 0.51868 0.0
Gd921 Gd 0.6324 0.65728 0.50508 0.0
C922 C 0.62109 0.64222 0.55919 0.0
C923 C 0.65644 0.57436 0.53767 0.0
C924 C 0.65049 0.55749 0.55561 0.0
C925 C 0.6356 0.54081 0.54994 0.0
C926 C 0.66133 0.55675 0.57784 0.0
C927 C 0.64346 0.52246 0.58783 0.0
C928 C 0.6578 0.5395 0.59379 0.0
C929 C 0.63208 0.52354 0.56592 0.0
C930 C 0.60478 0.61535 0.49465 0.0
C931 C 0.65942 0.6265 0.46724 0.0
C932 C 0.61696 0.69152 0.48346 0.0
C933 C 0.62088 0.70602 0.4624 0.0
C934 C 0.63331 0.7251 0.46497 0.0
C935 C 0.61073 0.70199 0.44011 0.0
C936 C 0.62544 0.73578 0.4235 0.0
C937 C 0.61302 0.71666 0.4209 0.0
C938 C 0.63561 0.73972 0.4458 0.0
C939 C 0.67258 0.65164 0.52493 0.0
O940 O 0.63032 0.62338 0.55403 0.0
O941 O 0.61819 0.65762 0.54276 0.0
O942 O 0.64498 0.57521 0.51785 0.0
O943 O 0.66199 0.59365 0.54571 0.0
O944 O 0.61719 0.59838 0.49318 0.0
O945 O 0.61186 0.62825 0.51068 0.0
O946 O 0.64692 0.64395 0.47011 0.0
O947 O 0.66277 0.61278 0.48521 0.0
O948 O 0.63076 0.69244 0.50138 0.0
O949 O 0.61019 0.67169 0.4792 0.0
O950 O 0.66111 0.66931 0.52706 0.0
O951 O 0.66279 0.63892 0.51094 0.0
H952 H 0.62712 0.54072 0.53285 0.0
H953 H 0.673 0.56924 0.58267 0.0
H954 H 0.66657 0.53936 0.6107 0.0
H955 H 0.62107 0.5106 0.56067 0.0
H956 H 0.64099 0.72901 0.48198 0.0
H957 H 0.60076 0.68763 0.43757 0.0
H958 H 0.60509 0.71297 0.40398 0.0
H959 H 0.64495 0.75445 0.4487 0.0
Gd960 Gd 0.40521 0.38287 0.25424 0.0
Gd961 Gd 0.35841 0.39549 0.26633 0.0
C962 C 0.37553 0.40899 0.21415 0.0
C963 C 0.4392 0.3657 0.23388 0.0
C964 C 0.45471 0.36962 0.21373 0.0
C965 C 0.476 0.37667 0.21873 0.0
C966 C 0.44909 0.36509 0.18966 0.0
C967 C 0.48567 0.37488 0.17614 0.0
C968 C 0.46439 0.36768 0.17111 0.0
C969 C 0.49122 0.37934 0.20022 0.0
C970 C 0.40074 0.42406 0.27132 0.0
C971 C 0.38976 0.37674 0.30893 0.0
C972 C 0.32236 0.4114 0.2831 0.0
C973 C 0.30521 0.40746 0.30103 0.0
C974 C 0.30525 0.38893 0.31584 0.0
C975 C 0.28812 0.42243 0.30279 0.0
C976 C 0.27116 0.40072 0.33434 0.0
C977 C 0.27127 0.41911 0.31923 0.0
C978 C 0.28831 0.38557 0.33238 0.0
C979 C 0.36278 0.35579 0.24578 0.0
O980 O 0.39282 0.39649 0.21824 0.0
O981 O 0.36152 0.41346 0.2315 0.0
O982 O 0.44031 0.37877 0.25245 0.0
O983 O 0.41915 0.3604 0.22841 0.0
O984 O 0.41805 0.41225 0.27443 0.0
O985 O 0.3878 0.41414 0.25767 0.0
O986 O 0.37221 0.38786 0.3028 0.0
O987 O 0.40392 0.36978 0.2926 0.0
O988 O 0.32327 0.39778 0.26509 0.0
O989 O 0.34159 0.41698 0.29116 0.0
O990 O 0.34617 0.36846 0.24297 0.0
O991 O 0.37556 0.36376 0.26133 0.0
H992 H 0.48101 0.3799 0.23708 0.0
H993 H 0.43291 0.35939 0.18512 0.0
H994 H 0.45947 0.36425 0.15278 0.0
H995 H 0.50754 0.38453 0.2049 0.0
H996 H 0.31834 0.37716 0.31462 0.0
H997 H 0.28775 0.43672 0.29133 0.0
H998 H 0.25818 0.43092 0.31992 0.0
H999 H 0.28882 0.37134 0.34388 0.0
Gd1000 Gd 0.37777 0.65477 1.00313 0.0
Gd1001 Gd 0.36485 0.60797 1.01573 0.0
C1002 C 0.35207 0.62474 0.96313 0.0
C1003 C 0.39578 0.6884 0.9828 0.0
C1004 C 0.39272 0.70315 0.96204 0.0
C1005 C 0.37265 0.70482 0.9501 0.0
C1006 C 0.41024 0.71599 0.95421 0.0
C1007 C 0.38752 0.73275 0.92326 0.0
C1008 C 0.4077 0.73061 0.93505 0.0
C1009 C 0.37007 0.7195 0.93093 0.0
C1010 C 0.33637 0.65046 1.01972 0.0
C1011 C 0.38341 0.6397 0.0581 0.0
C1012 C 0.34849 0.57222 0.03282 0.0
C1013 C 0.3523 0.55506 0.05079 0.0
C1014 C 0.37094 0.55484 0.06541 0.0
C1015 C 0.33707 0.5382 0.05281 0.0
C1016 C 0.35877 0.52099 0.08421 0.0
C1017 C 0.34025 0.52134 0.06929 0.0
C1018 C 0.37417 0.53789 0.082 0.0
C1019 C 0.40471 0.61198 0.99549 0.0
O1020 O 0.36463 0.642 0.96713 0.0
O1021 O 0.34728 0.61095 0.98063 0.0
O1022 O 0.38162 0.68981 1.00033 0.0
O1023 O 0.40112 0.66828 0.97787 0.0
O1024 O 0.3481 0.66787 1.02267 0.0
O1025 O 0.34649 0.63737 1.00643 0.0
O1026 O 0.37236 0.62207 0.05207 0.0
O1027 O 0.3904 0.65381 0.04171 0.0
O1028 O 0.36198 0.57287 1.01467 0.0
O1029 O 0.34327 0.59156 0.04083 0.0
O1030 O 0.3921 0.59527 0.99305 0.0
O1031 O 0.39662 0.62503 1.01071 0.0
H1032 H 0.35896 0.69491 0.9557 0.0
H1033 H 0.42588 0.71492 0.96317 0.0
H1034 H 0.42143 0.74066 0.92991 0.0
H1035 H 0.35437 0.72045 0.9221 0.0
H1036 H 0.38292 0.56774 0.06401 0.0
H1037 H 0.32269 0.53802 0.0415 0.0
H1038 H 0.32825 0.50844 0.07017 0.0
H1039 H 0.38851 0.53822 0.09335 0.0
Gd1040 Gd 0.10412 0.62677 0.75298 0.0
Gd1041 Gd 0.15115 0.61526 0.76528 0.0
C1042 C 0.13429 0.60055 0.71346 0.0
C1043 C 0.07009 0.6438 0.73246 0.0
C1044 C 0.05541 0.64053 0.71167 0.0
C1045 C 0.05283 0.62007 0.7008 0.0
C1046 C 0.04346 0.65828 0.7028 0.0
C1047 C 0.02565 0.63502 0.6731 0.0
C1048 C 0.02876 0.65558 0.68374 0.0
C1049 C 0.03808 0.61733 0.68174 0.0
C1050 C 0.10938 0.58585 0.77079 0.0
C1051 C 0.1194 0.63394 0.80759 0.0
C1052 C 0.18763 0.60143 0.78315 0.0
C1053 C 0.20426 0.60713 0.80149 0.0
C1054 C 0.22315 0.61863 0.79482 0.0
C1055 C 0.2024 0.59956 0.82528 0.0
C1056 C 0.23831 0.6141 0.83501 0.0
C1057 C 0.2192 0.60305 0.84184 0.0
C1058 C 0.23992 0.62218 0.81142 0.0
C1059 C 0.14604 0.65442 0.74369 0.0
O1060 O 0.11686 0.61293 0.71727 0.0
O1061 O 0.14834 0.5965 0.73094 0.0
O1062 O 0.06901 0.62956 0.74995 0.0
O1063 O 0.09007 0.64972 0.72761 0.0
O1064 O 0.09183 0.59738 0.77366 0.0
O1065 O 0.12215 0.59588 0.75702 0.0
O1066 O 0.13722 0.62324 0.80158 0.0
O1067 O 0.10496 0.64021 0.79121 0.0
O1068 O 0.18634 0.61396 0.76418 0.0
O1069 O 0.16854 0.59478 0.79067 0.0
O1070 O 0.16278 0.6419 0.74108 0.0
O1071 O 0.13344 0.64658 0.75954 0.0
H1072 H 0.06206 0.60618 0.70719 0.0
H1073 H 0.04524 0.67423 0.7109 0.0
H1074 H 0.01937 0.66952 0.67783 0.0
H1075 H 0.03639 0.60132 0.67379 0.0
H1076 H 0.22527 0.62442 0.77655 0.0
H1077 H 0.18818 0.59052 0.83101 0.0
H1078 H 0.21732 0.59685 0.85998 0.0
H1079 H 0.2545 0.63054 0.80549 0.0
Gd1080 Gd 0.13276 0.35401 0.50406 0.0
Gd1081 Gd 0.14476 0.401 0.51549 0.0
C1082 C 0.15892 0.38348 0.46378 0.0
C1083 C 0.11602 0.31974 0.48377 0.0
C1084 C 0.11984 0.30456 0.46328 0.0
C1085 C 0.12951 0.28415 0.46737 0.0
C1086 C 0.11257 0.30953 0.43986 0.0
C1087 C 0.12489 0.27413 0.42512 0.0
C1088 C 0.11507 0.29451 0.42103 0.0
C1089 C 0.13206 0.26919 0.44858 0.0
C1090 C 0.17376 0.35906 0.52161 0.0
C1091 C 0.12567 0.37014 0.55842 0.0
C1092 C 0.16003 0.43753 0.53174 0.0
C1093 C 0.15668 0.45419 0.55036 0.0
C1094 C 0.13791 0.4546 0.56477 0.0
C1095 C 0.17237 0.47054 0.55301 0.0
C1096 C 0.15073 0.48778 0.5844 0.0
C1097 C 0.16945 0.48717 0.56981 0.0
C1098 C 0.13494 0.47131 0.58166 0.0
C1099 C 0.10572 0.39599 0.49362 0.0
O1100 O 0.14673 0.36601 0.46807 0.0
O1101 O 0.16295 0.39787 0.48087 0.0
O1102 O 0.12951 0.31882 0.502 0.0
O1103 O 0.11008 0.33969 0.47868 0.0
O1104 O 0.16197 0.34176 0.52502 0.0
O1105 O 0.16388 0.37172 0.50759 0.0
O1106 O 0.13647 0.38783 0.55208 0.0
O1107 O 0.11931 0.35552 0.54227 0.0
O1108 O 0.14512 0.43621 0.51504 0.0
O1109 O 0.16718 0.41849 0.53876 0.0
O1110 O 0.11856 0.41246 0.49061 0.0
O1111 O 0.11322 0.3836 0.50989 0.0
H1112 H 0.13488 0.27957 0.48524 0.0
H1113 H 0.10477 0.32498 0.43607 0.0
H1114 H 0.10949 0.29895 0.4032 0.0
H1115 H 0.13931 0.25353 0.45258 0.0
H1116 H 0.12559 0.44208 0.56288 0.0
H1117 H 0.18686 0.47057 0.54187 0.0
H1118 H 0.18176 0.49974 0.57112 0.0
H1119 H 0.12045 0.47119 0.59277 0.0
Gd1120 Gd 0.40604 0.62722 0.29172 0.0
Gd1121 Gd 0.35855 0.61675 0.28171 0.0
C1122 C 0.37723 0.60004 0.33187 0.0
C1123 C 0.44109 0.64274 0.31159 0.0
C1124 C 0.45596 0.63906 0.33238 0.0
C1125 C 0.47648 0.62951 0.32864 0.0
C1126 C 0.45069 0.64642 0.35567 0.0
C1127 C 0.4861 0.63458 0.37094 0.0
C1128 C 0.46557 0.6442 0.37471 0.0
C1129 C 0.49129 0.62724 0.34763 0.0
C1130 C 0.39955 0.58722 0.27224 0.0
C1131 C 0.38815 0.63785 0.23862 0.0
C1132 C 0.32135 0.60402 0.26486 0.0
C1133 C 0.30529 0.60996 0.2461 0.0
C1134 C 0.28453 0.61727 0.253 0.0
C1135 C 0.30985 0.60732 0.22148 0.0
C1136 C 0.2728 0.61815 0.21119 0.0
C1137 C 0.29375 0.61134 0.20423 0.0
C1138 C 0.26849 0.62145 0.23574 0.0
C1139 C 0.36503 0.65456 0.30527 0.0
O1140 O 0.39478 0.6121 0.32747 0.0
O1141 O 0.36219 0.597 0.3152 0.0
O1142 O 0.44135 0.62843 0.29414 0.0
O1143 O 0.42149 0.65001 0.31613 0.0
O1144 O 0.41692 0.59887 0.26864 0.0
O1145 O 0.38759 0.59669 0.2873 0.0
O1146 O 0.37006 0.628 0.24542 0.0
O1147 O 0.40432 0.64154 0.25396 0.0
O1148 O 0.32331 0.61747 0.28296 0.0
O1149 O 0.34003 0.59582 0.25791 0.0
O1150 O 0.34864 0.6417 0.30872 0.0
O1151 O 0.37669 0.64768 0.28804 0.0
H1152 H 0.48125 0.62407 0.31086 0.0
H1153 H 0.43515 0.6541 0.35921 0.0
H1154 H 0.46092 0.64989 0.39242 0.0
H1155 H 0.50706 0.62012 0.34388 0.0
H1156 H 0.28053 0.61929 0.27186 0.0
H1157 H 0.3257 0.60178 0.21552 0.0
H1158 H 0.29762 0.60888 0.18541 0.0
H1159 H 0.25246 0.62646 0.24169 0.0
Gd1160 Gd 0.13301 0.65646 0.04107 0.0
Gd1161 Gd 0.14432 0.60929 0.0305 0.0
C1162 C 0.1606 0.62769 0.0808 0.0
C1163 C 0.11678 0.69108 0.06121 0.0
C1164 C 0.11988 0.70497 0.08269 0.0
C1165 C 0.13991 0.70599 0.09481 0.0
C1166 C 0.10247 0.7177 0.09099 0.0
C1167 C 0.12528 0.73321 0.12264 0.0
C1168 C 0.1051 0.73164 0.11074 0.0
C1169 C 0.1426 0.72 0.11455 0.0
C1170 C 0.17308 0.65087 1.02135 0.0
C1171 C 0.12226 0.63872 0.98789 0.0
C1172 C 0.15776 0.57256 1.01316 0.0
C1173 C 0.15154 0.55626 0.99476 0.0
C1174 C 0.14391 0.53571 1.00208 0.0
C1175 C 0.15425 0.56038 0.97005 0.0
C1176 C 0.14282 0.52335 0.96052 0.0
C1177 C 0.14997 0.54408 0.95313 0.0
C1178 C 0.13946 0.51947 0.98514 0.0
C1179 C 0.10654 0.61468 0.0544 0.0
O1180 O 0.14795 0.64489 0.0768 0.0
O1181 O 0.16425 0.61319 0.06374 0.0
O1182 O 0.13199 0.69164 0.04474 0.0
O1183 O 0.10938 0.67142 0.06499 0.0
O1184 O 0.16106 0.668 1.01786 0.0
O1185 O 0.16388 0.63863 0.03637 0.0
O1186 O 0.13239 0.62074 0.99451 0.0
O1187 O 0.11859 0.65484 1.00329 0.0
O1188 O 0.14509 0.57408 0.03199 0.0
O1189 O 0.16497 0.59151 1.00572 0.0
O1190 O 0.1197 0.59846 0.05738 0.0
O1191 O 0.11307 0.62673 0.03731 0.0
H1192 H 0.15353 0.69614 0.08888 0.0
H1193 H 0.08686 0.71711 0.08193 0.0
H1194 H 0.09148 0.74167 0.1162 0.0
H1195 H 0.15828 0.7205 0.12345 0.0
H1196 H 0.14185 0.53201 1.02101 0.0
H1197 H 0.16006 0.57604 0.96377 0.0
H1198 H 0.15249 0.54761 0.93423 0.0
H1199 H 0.1342 0.50361 0.9914 0.0
Gd1200 Gd 0.10333 0.3825 0.79201 0.0
Gd1201 Gd 0.15072 0.39269 0.78222 0.0
C1202 C 0.13214 0.40961 0.83214 0.0
C1203 C 0.06797 0.3675 0.81176 0.0
C1204 C 0.05305 0.37143 0.83244 0.0
C1205 C 0.03192 0.37928 0.82814 0.0
C1206 C 0.05894 0.36608 0.85623 0.0
C1207 C 0.02288 0.37654 0.87087 0.0
C1208 C 0.04402 0.36858 0.8752 0.0
C1209 C 0.01709 0.38187 0.84705 0.0
C1210 C 0.10992 0.42247 0.77227 0.0
C1211 C 0.12142 0.37148 0.73907 0.0
C1212 C 0.18813 0.40524 0.76579 0.0
C1213 C 0.20412 0.39974 0.74686 0.0
C1214 C 0.22555 0.39453 0.75354 0.0
C1215 C 0.19874 0.40059 0.72229 0.0
C1216 C 0.23633 0.39228 0.71149 0.0
C1217 C 0.21472 0.39696 0.70479 0.0
C1218 C 0.24147 0.39073 0.73606 0.0
C1219 C 0.1441 0.35533 0.80669 0.0
O1220 O 0.11458 0.39757 0.8278 0.0
O1221 O 0.14711 0.41264 0.81542 0.0
O1222 O 0.06798 0.38182 0.79431 0.0
O1223 O 0.08744 0.35994 0.81639 0.0
O1224 O 0.09272 0.41064 0.76844 0.0
O1225 O 0.1218 0.41309 0.78751 0.0
O1226 O 0.13945 0.38136 0.74594 0.0
O1227 O 0.10517 0.36789 0.75433 0.0
O1228 O 0.18595 0.39116 0.78327 0.0
O1229 O 0.16961 0.41396 0.75914 0.0
O1230 O 0.16037 0.36837 0.81 0.0
O1231 O 0.13257 0.36179 0.78912 0.0
H1232 H 0.02672 0.38317 0.81001 0.0
H1233 H 0.07501 0.35978 0.86023 0.0
H1234 H 0.04913 0.36448 0.89329 0.0
H1235 H 1.00087 0.38767 0.84289 0.0
H1236 H 0.23011 0.39386 0.77237 0.0
H1237 H 0.18233 0.40441 0.71655 0.0
H1238 H 0.21022 0.39802 0.68598 0.0
H1239 H 0.258 0.38737 0.7418 0.0
Gd1240 Gd 0.37736 0.35435 0.54258 0.0
Gd1241 Gd 0.36643 0.40187 0.53212 0.0
C1242 C 0.35014 0.38311 0.58256 0.0
C1243 C 0.39315 0.31945 0.56257 0.0
C1244 C 0.38931 0.30436 0.58315 0.0
C1245 C 0.37946 0.28402 0.57916 0.0
C1246 C 0.39682 0.30925 0.60649 0.0
C1247 C 0.38448 0.27386 0.62134 0.0
C1248 C 0.39443 0.29419 0.62534 0.0
C1249 C 0.37702 0.26903 0.59797 0.0
C1250 C 0.33713 0.36046 0.52332 0.0
C1251 C 0.38802 0.37232 0.48939 0.0
C1252 C 0.35174 0.43862 0.51589 0.0
C1253 C 0.35554 0.45535 0.49743 0.0
C1254 C 0.37396 0.45501 0.48248 0.0
C1255 C 0.34045 0.4723 0.49516 0.0
C1256 C 0.36186 0.4885 0.46289 0.0
C1257 C 0.34356 0.48871 0.47812 0.0
C1258 C 0.37712 0.47151 0.46534 0.0
C1259 C 0.40422 0.39582 0.55598 0.0
O1260 O 0.36243 0.3657 0.57834 0.0
O1261 O 0.3469 0.39795 0.56572 0.0
O1262 O 0.37923 0.31905 0.54474 0.0
O1263 O 0.39994 0.33916 0.56746 0.0
O1264 O 0.34879 0.34307 0.51995 0.0
O1265 O 0.34673 0.37261 0.5381 0.0
O1266 O 0.37805 0.39041 0.49598 0.0
O1267 O 0.39171 0.35622 0.50483 0.0
O1268 O 0.3663 0.43709 0.53297 0.0
O1269 O 0.34461 0.41967 0.50852 0.0
O1270 O 0.39138 0.41231 0.55898 0.0
O1271 O 0.39742 0.38397 0.53886 0.0
H1272 H 0.3739 0.2795 0.56135 0.0
H1273 H 0.40476 0.32464 0.61021 0.0
H1274 H 0.40022 0.29857 0.6431 0.0
H1275 H 0.36965 0.25341 0.59403 0.0
H1276 H 0.38581 0.44202 0.48406 0.0
H1277 H 0.32623 0.4729 0.50669 0.0
H1278 H 0.33167 0.5017 0.47704 0.0
H1279 H 0.39128 0.47076 0.45376 0.0
H1280 H 0.24405 0.08609 0.17262 0.0
H1281 H 0.34285 0.15548 0.11843 0.0
H1282 H 0.26934 0.14322 0.20813 0.0
H1283 H 0.32406 0.09155 0.09358 0.0
H1284 H 0.31624 0.15216 0.15126 0.0
H1285 H 0.27279 0.08912 0.14258 0.0
C1286 C 0.25556 0.09939 0.17399 0.0
C1287 C 0.2542 0.11448 0.19287 0.0
C1288 C 0.31814 0.13882 0.1387 0.0
C1289 C 0.28747 0.11794 0.15857 0.0
C1290 C 0.33338 0.14067 0.12002 0.0
C1291 C 0.33561 0.12385 0.10307 0.0
C1292 C 0.30501 0.1201 0.14028 0.0
C1293 C 0.32284 0.10505 0.10602 0.0
C1294 C 0.27213 0.10101 0.15694 0.0
C1295 C 0.26987 0.13116 0.19395 0.0
N1296 N 0.30803 0.10379 0.12407 0.0
N1297 N 0.28581 0.13252 0.17697 0.0
H1298 H 0.17144 0.0845 0.35515 0.0
H1299 H 0.11045 0.00839 0.45074 0.0
H1300 H 0.10189 0.08666 0.36575 0.0
H1301 H 0.17994 0.00942 0.43914 0.0
H1302 H 0.10652 0.03802 0.42136 0.0
H1303 H 0.17455 0.0589 0.38836 0.0
C1304 C 0.15681 0.07976 0.36471 0.0
C1305 C 0.13637 0.08763 0.35759 0.0
C1306 C 0.12261 0.03181 0.42539 0.0
C1307 C 0.13974 0.05783 0.39556 0.0
C1308 C 0.12486 0.01478 0.44201 0.0
C1309 C 0.14558 0.00639 0.44751 0.0
C1310 C 0.1412 0.04042 0.41412 0.0
C1311 C 0.16368 0.01552 0.43583 0.0
C1312 C 0.15858 0.06505 0.38367 0.0
C1313 C 0.11798 0.08103 0.37073 0.0
N1314 N 0.16105 0.03193 0.41972 0.0
N1315 N 0.12006 0.06627 0.38894 0.0
H1316 H 0.24751 0.85568 0.70006 0.0
H1317 H 0.17429 0.91866 0.6033 0.0
H1318 H 0.25345 0.92393 0.68265 0.0
H1319 H 0.16944 0.84932 0.61471 0.0
H1320 H 0.20025 0.92103 0.63619 0.0
H1321 H 0.21655 0.85307 0.67223 0.0
C1322 C 0.24227 0.87012 0.69047 0.0
C1323 C 0.25327 0.89001 0.6935 0.0
C1324 C 0.19343 0.90527 0.63174 0.0
C1325 C 0.21786 0.88715 0.66178 0.0
C1326 C 0.17851 0.90392 0.61297 0.0
C1327 C 0.16984 0.88373 0.60611 0.0
C1328 C 0.20001 0.88626 0.64374 0.0
C1329 C 0.17575 0.86522 0.61944 0.0
C1330 C 0.22463 0.8686 0.67458 0.0
C1331 C 0.2458 0.90816 0.68055 0.0
N1332 N 0.19072 0.86687 0.63748 0.0
N1333 N 0.22865 0.90626 0.6653 0.0
H1334 H 0.40619 0.91611 0.86722 0.0
H1335 H 0.33901 0.01679 0.92015 0.0
H1336 H 0.3419 0.9349 0.8435 0.0
H1337 H 0.39643 0.99162 0.95523 0.0
H1338 H 0.3411 0.98728 0.89097 0.0
H1339 H 0.40375 0.94334 0.8995 0.0
C1340 C 0.39147 0.9257 0.86897 0.0
C1341 C 0.3743 0.92332 0.85247 0.0
C1342 C 0.35326 0.98813 0.90504 0.0
C1343 C 0.37157 0.95462 0.88902 0.0
C1344 C 0.35219 0.00514 0.92159 0.0
C1345 C 0.36764 0.00677 0.94008 0.0
C1346 C 0.37 0.97261 0.9068 0.0
C1347 C 0.38412 0.99091 0.94131 0.0
C1348 C 0.39014 0.9413 0.88732 0.0
C1349 C 0.35566 0.93625 0.85559 0.0
N1350 N 0.38494 0.97453 0.92482 0.0
N1351 N 0.35489 0.95141 0.8733 0.0
H1352 H 0.32972 0.92066 0.44994 0.0
H1353 H 0.25981 0.86104 0.34775 0.0
H1354 H 0.33722 0.85239 0.43348 0.0
H1355 H 0.25669 0.92979 0.36346 0.0
H1356 H 0.28852 0.85714 0.37819 0.0
H1357 H 0.30407 0.92411 0.41684 0.0
C1358 C 0.32612 0.90639 0.43918 0.0
C1359 C 0.33557 0.88618 0.44459 0.0
C1360 C 0.28159 0.87307 0.37487 0.0
C1361 C 0.30579 0.88996 0.40662 0.0
C1362 C 0.26508 0.87529 0.35764 0.0
C1363 C 0.25583 0.8958 0.35296 0.0
C1364 C 0.2888 0.89148 0.3876 0.0
C1365 C 0.26352 0.91372 0.36614 0.0
C1366 C 0.31139 0.90837 0.42026 0.0
C1367 C 0.33035 0.8683 0.4299 0.0
N1368 N 0.27946 0.91112 0.38282 0.0
N1369 N 0.31563 0.87056 0.4117 0.0
H1370 H 0.33654 0.99462 0.62748 0.0
H1371 H 0.40675 0.09298 0.68099 0.0
H1372 H 0.39518 0.01767 0.5931 0.0
H1373 H 0.34181 0.0762 0.70436 0.0
H1374 H 0.40352 0.06598 0.64856 0.0
H1375 H 0.33931 0.02418 0.65654 0.0
C1376 C 0.35012 0.00583 0.62616 0.0
C1377 C 0.36572 1.00358 0.60792 0.0
C1378 C 0.38994 0.06842 0.66068 0.0
C1379 C 0.36889 0.03778 0.64106 0.0
C1380 C 0.39172 0.0839 0.67911 0.0
C1381 C 0.3746 0.08675 0.69556 0.0
C1382 C 0.37096 0.0557 0.65886 0.0
C1383 C 0.35554 0.07445 0.6923 0.0
C1384 C 0.35159 0.02286 0.64264 0.0
C1385 C 0.38274 0.01887 0.60683 0.0
N1386 N 0.35434 0.0594 0.67452 0.0
N1387 N 0.38395 0.03528 0.62326 0.0
H1388 H 0.17533 0.08999 0.94499 0.0
H1389 H 0.24908 0.15348 0.84911 0.0
H1390 H 0.17067 0.15941 0.93406 0.0
H1391 H 0.25491 0.08514 0.8661 0.0
H1392 H 0.21804 0.15596 0.87684 0.0
H1393 H 0.20153 0.08781 0.91232 0.0
C1394 C 0.17965 0.10479 0.93548 0.0
C1395 C 0.17095 0.12494 0.94241 0.0
C1396 C 0.22612 0.14044 0.87443 0.0
C1397 C 0.20138 0.12262 0.90503 0.0
C1398 C 0.2438 0.13899 0.85859 0.0
C1399 C 0.25478 0.11911 0.85546 0.0
C1400 C 0.21931 0.12183 0.88708 0.0
C1401 C 0.24727 0.1009 0.86827 0.0
C1402 C 0.19471 0.10354 0.91684 0.0
C1403 C 0.17699 0.14354 0.92928 0.0
N1404 N 0.23009 0.10272 0.88348 0.0
N1405 N 0.19208 0.14198 0.91136 0.0
H1406 H 0.10206 0.91588 0.17994 0.0
H1407 H 0.17199 0.01191 0.1218 0.0
H1408 H 0.16966 0.92853 0.19606 0.0
H1409 H 0.11205 0.98991 0.0894 0.0
H1410 H 0.16976 0.98214 0.15065 0.0
H1411 H 0.1041 0.94271 0.14706 0.0
C1412 C 0.11739 0.92397 0.17632 0.0
C1413 C 0.13564 0.92014 0.19096 0.0
C1414 C 0.15707 0.98372 0.13723 0.0
C1415 C 0.13796 0.95095 0.15386 0.0
C1416 C 0.15824 1.00089 0.12089 0.0
C1417 C 0.14212 1.00348 0.10326 0.0
C1418 C 0.13955 0.96903 0.13618 0.0
C1419 C 0.12487 0.98842 0.10268 0.0
C1420 C 0.11851 0.93934 0.15767 0.0
C1421 C 0.15507 0.93115 0.18551 0.0
N1422 N 0.12395 0.97188 0.11901 0.0
N1423 N 0.15562 0.94615 0.16764 0.0
H1424 H 0.73947 0.86273 0.83911 0.0
H1425 H 0.68486 0.91805 0.95462 0.0
H1426 H 0.76385 0.92043 0.87427 0.0
H1427 H 0.66723 0.85359 0.93042 0.0
H1428 H 0.71083 0.92074 0.92181 0.0
H1429 H 0.71048 0.86038 0.86943 0.0
C1430 C 0.73871 0.87491 0.85318 0.0
C1431 C 0.75418 0.89175 0.85424 0.0
C1432 C 0.70125 0.90602 0.92355 0.0
C1433 C 0.72105 0.88923 0.88879 0.0
C1434 C 0.6863 0.90448 0.94228 0.0
C1435 C 0.67393 0.88546 0.94548 0.0
C1436 C 0.70398 0.88844 0.90772 0.0
C1437 C 0.67645 0.86854 0.92869 0.0
C1438 C 0.72221 0.87352 0.87048 0.0
C1439 C 0.7525 0.90699 0.87294 0.0
N1440 N 0.69131 0.87037 0.91058 0.0
N1441 N 0.73623 0.9054 0.88938 0.0
H1442 H 0.82759 1.00158 0.61059 0.0
H1443 H 0.9078 0.92161 0.68249 0.0
H1444 H 0.89678 0.99946 0.5972 0.0
H1445 H 0.83861 0.92692 0.69473 0.0
H1446 H 0.9044 0.94781 0.64916 0.0
H1447 H 0.83166 0.97245 0.63988 0.0
C1448 C 0.84367 0.99488 0.61368 0.0
C1449 C 0.86184 1.00296 0.60125 0.0
C1450 C 0.88997 0.94304 0.65905 0.0
C1451 C 0.86672 0.96951 0.63523 0.0
C1452 C 0.89187 0.92798 0.67792 0.0
C1453 C 0.87348 0.9222 0.69152 0.0
C1454 C 0.86953 0.95223 0.65376 0.0
C1455 C 0.85328 0.93105 0.68493 0.0
C1456 C 0.84601 0.97825 0.63054 0.0
C1457 C 0.88234 0.99388 0.60649 0.0
N1458 N 0.85189 0.94565 0.66668 0.0
N1459 N 0.88423 0.97762 0.62308 0.0
H1460 H 0.76333 0.15182 0.34389 0.0
H1461 H 0.83473 0.08895 0.44248 0.0
H1462 H 0.7547 0.08453 0.36417 0.0
H1463 H 0.83985 0.1583 0.43127 0.0
H1464 H 0.80885 0.08674 0.40949 0.0
H1465 H 0.79408 0.15432 0.37207 0.0
C1466 C 0.76794 0.13757 0.35419 0.0
C1467 C 0.75627 0.11798 0.35183 0.0
C1468 C 0.81571 0.10247 0.41402 0.0
C1469 C 0.79143 0.12071 0.38392 0.0
C1470 C 0.8306 0.10373 0.43283 0.0
C1471 C 0.83931 0.12387 0.4398 0.0
C1472 C 0.80924 0.12152 0.40203 0.0
C1473 C 0.83351 0.14244 0.42647 0.0
C1474 C 0.78544 0.13903 0.37028 0.0
C1475 C 0.76291 0.10007 0.36569 0.0
N1476 N 0.81859 0.14086 0.40836 0.0
N1477 N 0.77998 0.10188 0.38108 0.0
H1478 H 0.6737 0.99911 0.12166 0.0
H1479 H 0.60171 0.09385 0.17984 0.0
H1480 H 0.61017 0.016 0.09425 0.0
H1481 H 0.66915 0.08158 0.19705 0.0
H1482 H 0.60413 0.0667 0.14744 0.0
H1483 H 0.6717 0.02971 0.14937 0.0
C1484 C 0.65923 0.00919 0.1216 0.0
C1485 C 0.642 0.00485 0.10575 0.0
C1486 C 0.61844 0.0702 0.15815 0.0
C1487 C 0.63966 0.0403 0.13736 0.0
C1488 C 0.61711 0.08579 0.17652 0.0
C1489 C 0.63521 0.08983 0.19132 0.0
C1490 C 0.63796 0.05862 0.15471 0.0
C1491 C 0.6547 0.07882 0.1863 0.0
C1492 C 0.65816 0.02683 0.13729 0.0
C1493 C 0.62384 0.0188 0.10614 0.0
N1494 N 0.65548 0.06363 0.16864 0.0
N1495 N 0.62307 0.03584 0.12181 0.0
H1496 H 0.76454 0.08929 0.6744 0.0
H1497 H 0.66636 0.15718 0.61721 0.0
H1498 H 0.73931 0.1472 0.70836 0.0
H1499 H 0.6834 0.09146 0.59699 0.0
H1500 H 0.69287 0.15503 0.65033 0.0
H1501 H 0.73558 0.09144 0.64454 0.0
C1502 C 0.75298 0.10259 0.67545 0.0
C1503 C 0.75442 0.11815 0.69382 0.0
C1504 C 0.69057 0.14105 0.63874 0.0
C1505 C 0.72091 0.12061 0.65976 0.0
C1506 C 0.67539 0.14222 0.61992 0.0
C1507 C 0.67279 0.12455 0.60413 0.0
C1508 C 0.70325 0.12213 0.64158 0.0
C1509 C 0.68499 0.10561 0.60847 0.0
C1510 C 0.73629 0.1037 0.65852 0.0
C1511 C 0.73871 0.1348 0.69454 0.0
N1512 N 0.69976 0.105 0.62657 0.0
N1513 N 0.72265 0.13568 0.67766 0.0
H1514 H 0.6112 1.00019 0.44906 0.0
H1515 H 0.66936 0.931 0.34527 0.0
H1516 H 0.67937 1.00462 0.43087 0.0
H1517 H 0.60157 0.92266 0.36357 0.0
H1518 H 0.67317 0.95685 0.37809 0.0
H1519 H 0.60696 0.97139 0.41879 0.0
C1520 C 0.62525 0.99518 0.43867 0.0
C1521 C 0.6457 0.00483 0.44261 0.0
C1522 C 0.65746 0.94932 0.37513 0.0
C1523 C 0.641 0.97176 0.40815 0.0
C1524 C 0.65527 0.93448 0.35636 0.0
C1525 C 0.63508 0.92472 0.35155 0.0
C1526 C 0.63928 0.95471 0.38924 0.0
C1527 C 0.61746 0.92977 0.36667 0.0
C1528 C 0.62284 0.97863 0.42154 0.0
C1529 C 0.66337 0.99749 0.42878 0.0
N1530 N 0.61991 0.9446 0.38473 0.0
N1531 N 0.66059 0.98149 0.41222 0.0
H1532 H 0.83808 0.91925 0.10667 0.0
H1533 H 0.75722 0.85618 0.1955 0.0
H1534 H 0.83775 0.84925 0.11332 0.0
H1535 H 0.75873 0.9259 0.18573 0.0
H1536 H 0.78875 0.85292 0.16858 0.0
H1537 H 0.81173 0.92164 0.13921 0.0
C1538 C 0.83266 0.90436 0.11526 0.0
C1539 C 0.83998 0.88402 0.10716 0.0
C1540 C 0.78219 0.86891 0.17242 0.0
C1541 C 0.80934 0.88659 0.1443 0.0
C1542 C 0.76422 0.8708 0.18781 0.0
C1543 C 0.75512 0.89134 0.19268 0.0
C1544 C 0.79117 0.88771 0.16195 0.0
C1545 C 0.76484 0.90969 0.18212 0.0
C1546 C 0.81751 0.90572 0.13381 0.0
C1547 C 0.83253 0.86527 0.11906 0.0
N1548 N 0.78222 0.90742 0.16727 0.0
N1549 N 0.81735 0.86697 0.13687 0.0
H1550 H 0.90827 0.0916 0.86685 0.0
H1551 H 0.83757 0.99681 0.92745 0.0
H1552 H 0.84125 0.07744 0.8493 0.0
H1553 H 0.89916 0.01759 0.95695 0.0
H1554 H 0.83991 0.02577 0.8976 0.0
H1555 H 0.9062 0.06486 0.89978 0.0
C1556 C 0.89307 0.08314 0.8701 0.0
C1557 C 0.87497 0.08665 0.85513 0.0
C1558 C 0.85295 0.02408 0.91059 0.0
C1559 C 0.87261 0.05592 0.89238 0.0
C1560 C 0.8517 0.00738 0.92752 0.0
C1561 C 0.86824 1.00468 0.94467 0.0
C1562 C 0.87094 0.03824 0.91058 0.0
C1563 C 0.88598 0.01917 0.94413 0.0
C1564 C 0.89193 0.06782 0.8888 0.0
C1565 C 0.85572 0.07516 0.86014 0.0
N1566 N 0.88693 0.03528 0.92729 0.0
N1567 N 0.85513 0.06025 0.87814 0.0
H1568 H 0.75229 0.57929 0.67754 0.0
H1569 H 0.83832 0.65857 0.61357 0.0
H1570 H 0.75955 0.64677 0.69771 0.0
H1571 H 0.83026 0.59031 0.59734 0.0
H1572 H 0.81127 0.65485 0.64596 0.0
H1573 H 0.78198 0.5834 0.64903 0.0
C1574 C 0.76023 0.59498 0.6761 0.0
C1575 C 0.75346 0.61266 0.69023 0.0
C1576 C 0.81562 0.64068 0.63541 0.0
C1577 C 0.78759 0.61762 0.65716 0.0
C1578 C 0.83116 0.64275 0.61706 0.0
C1579 C 0.83644 0.62475 0.60261 0.0
C1580 C 0.8054 0.62047 0.63928 0.0
C1581 C 0.82656 0.60469 0.60783 0.0
C1582 C 0.7772 0.59736 0.65969 0.0
C1583 C 0.76411 0.63274 0.68707 0.0
N1584 N 0.81148 0.60315 0.62557 0.0
N1585 N 0.78068 0.63468 0.67087 0.0
H1586 H 0.60252 0.58932 0.86501 0.0
H1587 H 0.68151 0.50425 0.93111 0.0
H1588 H 0.66967 0.57803 0.8458 0.0
H1589 H 0.61373 0.51157 0.94996 0.0
H1590 H 0.67754 0.53313 0.90146 0.0
H1591 H 0.60649 0.56322 0.89825 0.0
C1592 C 0.61816 0.58162 0.86798 0.0
C1593 C 0.63575 0.58576 0.85249 0.0
C1594 C 0.6635 0.52851 0.91207 0.0
C1595 C 0.64033 0.5558 0.89023 0.0
C1596 C 0.66579 0.51203 0.92913 0.0
C1597 C 0.64796 0.50549 0.94318 0.0
C1598 C 0.64319 0.53864 0.90886 0.0
C1599 C 0.62787 0.51594 0.93939 0.0
C1600 C 0.62037 0.56662 0.88684 0.0
C1601 C 0.6556 0.57522 0.85711 0.0
N1602 N 0.62603 0.53202 0.9226 0.0
N1603 N 0.65729 0.56071 0.87542 0.0
H1604 H 0.68043 0.41962 0.0997 0.0
H1605 H 0.74117 0.3591 0.20815 0.0
H1606 H 0.66815 0.35211 0.1167 0.0
H1607 H 0.76144 0.42028 0.17719 0.0
H1608 H 0.71143 0.35725 0.17858 0.0
H1609 H 0.70647 0.42138 0.13251 0.0
C1610 C 0.68306 0.40516 0.11049 0.0
C1611 C 0.67224 0.3856 0.10521 0.0
C1612 C 0.72243 0.37103 0.1783 0.0
C1613 C 0.70241 0.3875 0.14294 0.0
C1614 C 0.73935 0.37214 0.19516 0.0
C1615 C 0.7539 0.38982 0.19503 0.0
C1616 C 0.7199 0.38788 0.16143 0.0
C1617 C 0.75085 0.40619 0.17775 0.0
C1618 C 0.69805 0.40617 0.12922 0.0
C1619 C 0.67616 0.36751 0.1201 0.0
N1620 N 0.7342 0.40485 0.16175 0.0
N1621 N 0.69111 0.36884 0.13822 0.0
H1622 H 0.90163 0.50309 0.44605 0.0
H1623 H 0.84038 0.42338 0.35428 0.0
H1624 H 0.83195 0.49981 0.43655 0.0
H1625 H 0.91028 0.42385 0.36202 0.0
H1626 H 0.8375 0.44964 0.38681 0.0
H1627 H 0.90575 0.47328 0.41691 0.0
C1628 C 0.88722 0.49617 0.43781 0.0
C1629 C 0.86639 0.50394 0.44387 0.0
C1630 C 0.85351 0.44394 0.38164 0.0
C1631 C 0.87098 0.46974 0.41078 0.0
C1632 C 0.85516 0.42885 0.36306 0.0
C1633 C 0.8756 0.4215 0.35533 0.0
C1634 C 0.87247 0.45206 0.39255 0.0
C1635 C 0.89418 0.42905 0.36749 0.0
C1636 C 0.88958 0.47906 0.42133 0.0
C1637 C 0.8483 0.49418 0.43281 0.0
N1638 N 0.8922 0.44415 0.38536 0.0
N1639 N 0.85104 0.4777 0.41685 0.0
H1640 H 0.75907 0.35958 0.84712 0.0
H1641 H 0.83469 0.4211 0.9428 0.0
H1642 H 0.76002 0.42913 0.85826 0.0
H1643 H 0.83727 0.35154 0.9324 0.0
H1644 H 0.80903 0.42399 0.90964 0.0
H1645 H 0.78845 0.35579 0.87682 0.0
C1646 C 0.76538 0.37403 0.85583 0.0
C1647 C 0.75705 0.39473 0.85008 0.0
C1648 C 0.81528 0.40806 0.91436 0.0
C1649 C 0.79082 0.39051 0.88385 0.0
C1650 C 0.83003 0.40642 0.93329 0.0
C1651 C 0.83806 0.38604 0.94046 0.0
C1652 C 0.80818 0.38915 0.90251 0.0
C1653 C 0.83153 0.36758 0.92739 0.0
C1654 C 0.78227 0.37186 0.87264 0.0
C1655 C 0.76608 0.41288 0.86176 0.0
N1656 N 0.81674 0.36954 0.90918 0.0
N1657 N 0.78237 0.41033 0.87803 0.0
H1658 H 0.90661 0.58854 0.18183 0.0
H1659 H 0.82701 0.50388 0.11597 0.0
H1660 H 0.83888 0.57895 0.19971 0.0
H1661 H 0.89475 0.51086 0.0968 0.0
H1662 H 0.8312 0.53287 0.14541 0.0
H1663 H 0.90263 0.56212 0.14889 0.0
C1664 C 0.89085 0.58115 0.17863 0.0
C1665 C 0.87309 0.58586 0.19366 0.0
C1666 C 0.84519 0.52815 0.13478 0.0
C1667 C 0.8685 0.55554 0.15629 0.0
C1668 C 0.84277 0.51161 0.11784 0.0
C1669 C 0.86052 0.50494 0.10375 0.0
C1670 C 0.86554 0.53823 0.13784 0.0
C1671 C 0.88067 0.51532 0.10741 0.0
C1672 C 0.88864 0.56597 0.15994 0.0
C1673 C 0.8531 0.5757 0.18876 0.0
N1674 N 0.88264 0.53147 0.12409 0.0
N1675 N 0.8514 0.56101 0.17064 0.0
H1676 H 0.76687 0.58915 0.37787 0.0
H1677 H 0.66505 0.6554 0.42961 0.0
H1678 H 0.73984 0.64482 0.34106 0.0
H1679 H 0.68578 0.59245 0.45566 0.0
H1680 H 0.69205 0.65264 0.39714 0.0
H1681 H 0.73767 0.59141 0.40745 0.0
C1682 C 0.75487 0.60198 0.37613 0.0
C1683 C 0.75588 0.61688 0.35704 0.0
C1684 C 0.69049 0.63939 0.40988 0.0
C1685 C 0.7221 0.61944 0.39077 0.0
C1686 C 0.67503 0.6409 0.42835 0.0
C1687 C 0.67325 0.62421 0.44554 0.0
C1688 C 0.70428 0.62113 0.40875 0.0
C1689 C 0.68666 0.60583 0.44301 0.0
C1690 C 0.73805 0.60315 0.3929 0.0
C1691 C 0.7396 0.63293 0.35545 0.0
N1692 N 0.70167 0.60489 0.42516 0.0
N1693 N 0.72342 0.63386 0.37217 0.0
H1694 H 0.67022 0.42188 0.69152 0.0
H1695 H 0.60636 0.49961 0.60003 0.0
H1696 H 0.60051 0.4192 0.68241 0.0
H1697 H 0.6758 0.50099 0.61189 0.0
H1698 H 0.6037 0.46806 0.627 0.0
H1699 H 0.67247 0.44809 0.65879 0.0
C1700 C 0.65538 0.4266 0.68235 0.0
C1701 C 0.63514 0.41848 0.68981 0.0
C1702 C 0.61951 0.47525 0.62361 0.0
C1703 C 0.63752 0.44896 0.65245 0.0
C1704 C 0.62105 0.49323 0.60819 0.0
C1705 C 0.64131 0.50316 0.60389 0.0
C1706 C 0.63838 0.46708 0.6347 0.0
C1707 C 0.65977 0.49423 0.61504 0.0
C1708 C 0.65666 0.44166 0.66368 0.0
C1709 C 0.61646 0.42505 0.67717 0.0
N1710 N 0.65784 0.47681 0.62993 0.0
N1711 N 0.61805 0.44017 0.65928 0.0
H1712 H 0.17101 0.35124 0.43179 0.0
H1713 H 0.25232 0.43192 0.36253 0.0
H1714 H 0.17639 0.42028 0.44496 0.0
H1715 H 0.24952 0.36304 0.34736 0.0
H1716 H 0.22273 0.42763 0.39113 0.0
H1717 H 0.19737 0.35495 0.39868 0.0
C1718 C 0.17739 0.36721 0.42743 0.0
C1719 C 0.17161 0.38546 0.44124 0.0
C1720 C 0.22846 0.4134 0.38154 0.0
C1721 C 0.20187 0.38976 0.40378 0.0
C1722 C 0.24537 0.41587 0.36507 0.0
C1723 C 0.2534 0.39785 0.35234 0.0
C1724 C 0.2194 0.39271 0.38557 0.0
C1725 C 0.24398 0.37737 0.3569 0.0
C1726 C 0.19257 0.36928 0.40869 0.0
C1727 C 0.18052 0.40572 0.43496 0.0
N1728 N 0.22746 0.37534 0.37315 0.0
N1729 N 0.19524 0.40728 0.41686 0.0
H1730 H 0.40754 0.42026 0.18149 0.0
H1731 H 0.32752 0.50265 0.11279 0.0
H1732 H 0.33884 0.4271 0.19584 0.0
H1733 H 0.39622 0.49883 0.09697 0.0
H1734 H 0.33161 0.47309 0.14151 0.0
H1735 H 0.4039 0.44654 0.14826 0.0
C1736 C 0.39165 0.42694 0.17737 0.0
C1737 C 0.37348 0.42159 0.19154 0.0
C1738 C 0.34584 0.4786 0.13175 0.0
C1739 C 0.36927 0.45176 0.15393 0.0
C1740 C 0.34349 0.49548 0.11521 0.0
C1741 C 0.36152 0.50322 0.10226 0.0
C1742 C 0.36643 0.46925 0.13563 0.0
C1743 C 0.38189 0.49352 0.10667 0.0
C1744 C 0.38962 0.44207 0.15855 0.0
C1745 C 0.35333 0.43088 0.18555 0.0
N1746 N 0.3838 0.47703 0.12299 0.0
N1747 N 0.35182 0.44554 0.16737 0.0
H1748 H 0.26494 0.64955 0.84306 0.0
H1749 H 0.33347 0.58812 0.94521 0.0
H1750 H 0.25433 0.58312 0.86556 0.0
H1751 H 0.34172 0.65652 0.92984 0.0
H1752 H 0.30761 0.58544 0.91222 0.0
H1753 H 0.29554 0.65201 0.87139 0.0
C1754 C 0.26908 0.63547 0.85387 0.0
C1755 C 0.25689 0.61615 0.85207 0.0
C1756 C 0.31516 0.60104 0.91584 0.0
C1757 C 0.2919 0.61884 0.8844 0.0
C1758 C 0.33003 0.60256 0.93465 0.0
C1759 C 0.33964 0.62261 0.94043 0.0
C1760 C 0.3096 0.61974 0.90265 0.0
C1761 C 0.3347 0.64073 0.92598 0.0
C1762 C 0.28651 0.63691 0.87006 0.0
C1763 C 0.26295 0.59847 0.86662 0.0
N1764 N 0.31979 0.63892 0.90788 0.0
N1765 N 0.27995 0.60026 0.88211 0.0
H1766 H 0.10249 0.5894 0.68054 0.0
H1767 H 0.18187 0.50521 0.61382 0.0
H1768 H 0.17091 0.58159 0.69601 0.0
H1769 H 0.11359 0.5107 0.59641 0.0
H1770 H 0.17795 0.53482 0.64249 0.0
H1771 H 0.10611 0.56283 0.64766 0.0
C1772 C 0.11833 0.58243 0.67675 0.0
C1773 C 0.13641 0.58761 0.69113 0.0
C1774 C 0.16378 0.52966 0.6324 0.0
C1775 C 0.14058 0.5571 0.65391 0.0
C1776 C 0.16604 0.51274 0.6159 0.0
C1777 C 0.14807 0.50547 0.60252 0.0
C1778 C 0.14335 0.53949 0.63578 0.0
C1779 C 0.12786 0.51563 0.60647 0.0
C1780 C 0.12034 0.56714 0.65813 0.0
C1781 C 0.15648 0.57794 0.68555 0.0
N1782 N 0.12603 0.53214 0.62274 0.0
N1783 N 0.15798 0.56312 0.66755 0.0
H1784 H 0.18202 0.59199 0.09708 0.0
H1785 H 0.24221 0.65079 0.20693 0.0
H1786 H 0.16964 0.65927 0.11495 0.0
H1787 H 0.26292 0.59043 0.17448 0.0
H1788 H 0.21262 0.65318 0.17719 0.0
H1789 H 0.20802 0.58987 0.12987 0.0
C1790 C 0.18464 0.60633 0.10805 0.0
C1791 C 0.17379 0.62593 0.10303 0.0
C1792 C 0.2237 0.63947 0.17662 0.0
C1793 C 0.20391 0.62362 0.14077 0.0
C1794 C 0.24052 0.63805 0.19357 0.0
C1795 C 0.25515 0.62045 0.19306 0.0
C1796 C 0.22133 0.62298 0.1593 0.0
C1797 C 0.25227 0.60446 0.17534 0.0
C1798 C 0.1996 0.60512 0.12677 0.0
C1799 C 0.17768 0.64385 0.11815 0.0
N1800 N 0.23571 0.60609 0.15928 0.0
N1801 N 0.1926 0.64233 0.13628 0.0
H1802 H 0.16825 0.42989 0.84907 0.0
H1803 H 0.10964 0.4933 0.95669 0.0
H1804 H 0.10024 0.42 0.86544 0.0
H1805 H 0.17054 0.51238 0.92423 0.0
H1806 H 0.10687 0.46326 0.92755 0.0
H1807 H 0.17057 0.45624 0.88148 0.0
C1808 C 0.15378 0.43312 0.85964 0.0
C1809 C 0.13393 0.42289 0.85428 0.0
C1810 C 0.12078 0.47408 0.92685 0.0
C1811 C 0.13649 0.45341 0.89156 0.0
C1812 C 0.12241 0.49116 0.94346 0.0
C1813 C 0.14029 0.50545 0.94276 0.0
C1814 C 0.13733 0.47112 0.90972 0.0
C1815 C 0.15632 0.502 0.92521 0.0
C1816 C 0.15513 0.44829 0.87813 0.0
C1817 C 0.11585 0.42756 0.8689 0.0
N1818 N 0.15449 0.48519 0.90951 0.0
N1819 N 0.11751 0.44267 0.88681 0.0
H1820 H 0.34294 0.35187 0.61765 0.0
H1821 H 0.24304 0.41856 0.67265 0.0
H1822 H 0.32576 0.41755 0.59727 0.0
H1823 H 0.2694 0.36206 0.70847 0.0
H1824 H 0.27223 0.41642 0.64308 0.0
H1825 H 0.31588 0.35375 0.65026 0.0
C1826 C 0.33375 0.36675 0.6202 0.0
C1827 C 0.3365 0.3845 0.60452 0.0
C1828 C 0.27171 0.40446 0.6574 0.0
C1829 C 0.30541 0.38658 0.64136 0.0
C1830 C 0.25489 0.40556 0.67416 0.0
C1831 C 0.25371 0.39042 0.693 0.0
C1832 C 0.28749 0.38797 0.65925 0.0
C1833 C 0.26979 0.37414 0.69428 0.0
C1834 C 0.31826 0.36777 0.63872 0.0
C1835 C 0.32409 0.40334 0.60866 0.0
N1836 N 0.28598 0.37326 0.67755 0.0
N1837 N 0.30901 0.40378 0.62646 0.0
H1838 H 0.33043 0.50624 0.43413 0.0
H1839 H 0.40977 0.58813 0.36366 0.0
H1840 H 0.39928 0.51017 0.4491 0.0
H1841 H 0.3409 0.58118 0.35026 0.0
H1842 H 0.40658 0.56168 0.39677 0.0
H1843 H 0.33433 0.53524 0.40468 0.0
C1844 C 0.34639 0.51331 0.43134 0.0
C1845 C 0.36452 0.5058 0.44429 0.0
C1846 C 0.39217 0.56613 0.38667 0.0
C1847 C 0.36921 0.53912 0.41011 0.0
C1848 C 0.39396 0.58133 0.3679 0.0
C1849 C 0.3756 0.58676 0.35406 0.0
C1850 C 0.37189 0.55644 0.39159 0.0
C1851 C 0.35554 0.57735 0.36025 0.0
C1852 C 0.34864 0.52987 0.41439 0.0
C1853 C 0.38488 0.51533 0.43942 0.0
N1854 N 0.35427 0.56263 0.3784 0.0
N1855 N 0.38669 0.53152 0.42273 0.0
H1856 H 0.09656 0.26366 0.38804 0.0
H1857 H 0.17292 0.16727 0.34046 0.0
H1858 H 0.15998 0.24774 0.4165 0.0
H1859 H 0.11311 0.18406 0.30421 0.0
H1860 H 0.16777 0.19748 0.36772 0.0
H1861 H 0.10159 0.23576 0.35678 0.0
C1862 C 0.1116 0.25447 0.38765 0.0
C1863 C 0.12779 0.25799 0.40519 0.0
C1864 C 0.15567 0.19473 0.35387 0.0
C1865 C 0.13353 0.22593 0.36952 0.0
C1866 C 0.15861 0.17737 0.33816 0.0
C1867 C 0.14327 0.17284 0.32012 0.0
C1868 C 0.13712 0.20793 0.35185 0.0
C1869 C 0.12517 0.18673 0.3181 0.0
C1870 C 0.1144 0.23848 0.36984 0.0
C1871 C 0.14682 0.2454 0.4038 0.0
N1872 N 0.12248 0.20361 0.33392 0.0
N1873 N 0.14908 0.23 0.38644 0.0
H1874 H 0.09168 0.92242 0.59063 0.0
H1875 H 0.99349 0.84818 0.63824 0.0
H1876 H 0.07336 0.86303 0.55446 0.0
H1877 H 0.01251 0.91002 0.66852 0.0
H1878 H 0.02132 0.8528 0.60681 0.0
H1879 H 0.06176 0.91765 0.6184 0.0
C1880 C 0.08129 0.90829 0.58846 0.0
C1881 C 0.08526 0.89297 0.57026 0.0
C1882 C 0.01931 0.86535 0.62031 0.0
C1883 C 0.05054 0.88727 0.60255 0.0
C1884 C 1.00336 0.86279 0.63821 0.0
C1885 C 1.00071 0.87866 0.65628 0.0
C1886 C 0.03267 0.88394 0.62042 0.0
C1887 C 0.01414 0.89714 0.65536 0.0
C1888 C 0.06411 0.90557 0.60446 0.0
C1889 C 0.07107 0.87508 0.56843 0.0
N1890 N 0.02946 0.89919 0.63788 0.0
N1891 N 0.05436 0.87263 0.5845 0.0
H1892 H 0.33919 0.84108 0.83998 0.0
H1893 H 0.41597 0.7446 0.88691 0.0
H1894 H 0.39907 0.82431 0.80392 0.0
H1895 H 0.35222 0.75919 0.91529 0.0
H1896 H 0.41099 0.77331 0.85662 0.0
H1897 H 0.34447 0.81088 0.86749 0.0
C1898 C 0.35352 0.83098 0.83779 0.0
C1899 C 0.36881 0.83541 0.81966 0.0
C1900 C 0.39807 0.77011 0.8694 0.0
C1901 C 0.37507 0.80044 0.85157 0.0
C1902 C 0.40092 0.75379 0.88681 0.0
C1903 C 0.38449 0.74937 0.90381 0.0
C1904 C 0.37869 0.78226 0.86902 0.0
C1905 C 0.36526 0.76169 0.90248 0.0
C1906 C 0.35653 0.81365 0.85361 0.0
C1907 C 0.387 0.82164 0.8178 0.0
N1908 N 0.36298 0.77753 0.88556 0.0
N1909 N 0.38971 0.80481 0.83366 0.0
H1910 H 0.43369 0.15045 0.0536 0.0
H1911 H 0.50101 0.10046 0.16481 0.0
H1912 H 0.41869 0.08996 0.08945 0.0
H1913 H 0.51233 0.16549 0.1381 0.0
H1914 H 0.473 0.09549 0.13428 0.0
H1915 H 0.46441 0.15571 0.08167 0.0
C1916 C 0.43683 0.13832 0.06732 0.0
C1917 C 0.42345 0.11987 0.06933 0.0
C1918 C 0.48162 0.11087 0.13498 0.0
C1919 C 0.4586 0.12555 0.10115 0.0
C1920 C 0.49781 0.11365 0.15236 0.0
C1921 C 0.50915 0.13343 0.15415 0.0
C1922 C 0.47658 0.12795 0.11905 0.0
C1923 C 0.50386 0.15004 0.13764 0.0
C1924 C 0.45436 0.14129 0.08329 0.0
C1925 C 0.42846 0.1045 0.08723 0.0
N1926 N 0.48797 0.14695 0.12082 0.0
N1927 N 0.44552 0.1077 0.10235 0.0
H1928 H 0.17359 0.84109 0.20597 0.0
H1929 H 0.09703 0.74453 0.15941 0.0
H1930 H 0.11521 0.82276 0.24407 0.0
H1931 H 0.16085 0.75908 0.13119 0.0
H1932 H 0.10231 0.77271 0.19026 0.0
H1933 H 0.16829 0.81086 0.17862 0.0
C1934 C 0.15958 0.83065 0.20866 0.0
C1935 C 0.14467 0.83472 0.22726 0.0
C1936 C 0.11519 0.76958 0.17741 0.0
C1937 C 0.13837 0.79967 0.19548 0.0
C1938 C 0.11216 0.75358 0.15968 0.0
C1939 C 0.12852 0.74933 0.14254 0.0
C1940 C 0.13465 0.78161 0.17792 0.0
C1941 C 0.14786 0.76145 0.14408 0.0
C1942 C 0.15657 0.81329 0.19292 0.0
C1943 C 0.12692 0.82044 0.22976 0.0
N1944 N 0.15029 0.77702 0.16127 0.0
N1945 N 0.12415 0.80361 0.21391 0.0
H1946 H 0.49689 0.91368 0.38204 0.0
H1947 H 0.43364 0.8619 0.49509 0.0
H1948 H 0.51127 0.84915 0.40844 0.0
H1949 H 0.41578 0.92131 0.45862 0.0
H1950 H 0.46408 0.85745 0.46642 0.0
H1951 H 0.46921 0.91749 0.41302 0.0
C1952 C 0.49418 0.90023 0.3943 0.0
C1953 C 0.50634 0.88096 0.39232 0.0
C1954 C 0.45345 0.87144 0.46481 0.0
C1955 C 0.4745 0.88531 0.42838 0.0
C1956 C 0.43607 0.87394 0.4811 0.0
C1957 C 0.42196 0.89185 0.47907 0.0
C1958 C 0.45679 0.88713 0.44666 0.0
C1959 C 0.42611 0.90717 0.46088 0.0
C1960 C 0.47838 0.90245 0.41214 0.0
C1961 C 0.50238 0.86435 0.40928 0.0
N1962 N 0.44302 0.90445 0.44549 0.0
N1963 N 0.48673 0.86685 0.42651 0.0
H1964 H 0.34941 0.24753 0.63036 0.0
H1965 H 0.4005 0.18529 0.74461 0.0
H1966 H 0.41318 0.26322 0.65801 0.0
H1967 H 0.34082 0.16776 0.70855 0.0
H1968 H 0.40524 0.21541 0.71552 0.0
H1969 H 0.34557 0.21989 0.6614 0.0
C1970 C 0.3627 0.24512 0.6429 0.0
C1971 C 0.38175 0.25766 0.64126 0.0
C1972 C 0.39113 0.20492 0.71409 0.0
C1973 C 0.37736 0.22584 0.67743 0.0
C1974 C 0.38847 0.18771 0.73062 0.0
C1975 C 0.37038 0.17379 0.72886 0.0
C1976 C 0.37544 0.20826 0.69593 0.0
C1977 C 0.35509 0.17794 0.71063 0.0
C1978 C 0.36046 0.22933 0.66079 0.0
C1979 C 0.39815 0.25404 0.65857 0.0
N1980 N 0.35799 0.19465 0.695 0.0
N1981 N 0.39564 0.2384 0.67585 0.0
H1982 H 0.09206 0.08763 0.95596 0.0
H1983 H 0.99417 0.16216 0.90864 0.0
H1984 H 0.0733 0.14625 0.99336 0.0
H1985 H 0.01171 0.09937 0.87971 0.0
H1986 H 0.02193 0.15744 0.94017 0.0
H1987 H 0.06198 0.09247 0.92849 0.0
C1988 C 0.08155 0.10162 0.95846 0.0
C1989 C 0.08547 0.11671 0.97692 0.0
C1990 C 0.01959 0.1447 0.92696 0.0
C1991 C 0.05051 0.12249 0.94493 0.0
C1992 C 1.00369 0.14732 0.909 0.0
C1993 C 1.00069 0.13123 0.89125 0.0
C1994 C 0.03255 0.12584 0.92719 0.0
C1995 C 0.01365 0.11244 0.89259 0.0
C1996 C 0.06426 0.10437 0.94263 0.0
C1997 C 0.07109 0.1344 0.97917 0.0
N1998 N 0.02894 0.11036 0.91008 0.0
N1999 N 0.05428 0.13692 0.96322 0.0
H2000 H 0.89718 0.82513 0.74354 0.0
H2001 H 0.84707 0.75641 0.6336 0.0
H2002 H 0.83737 0.84022 0.70639 0.0
H2003 H 0.9132 0.74723 0.6579 0.0
H2004 H 0.84208 0.78414 0.66437 0.0
H2005 H 0.90249 0.79394 0.71607 0.0
C2006 C 0.88522 0.82192 0.72968 0.0
C2007 C 0.86698 0.8355 0.72706 0.0
C2008 C 0.8577 0.77604 0.6631 0.0
C2009 C 0.87265 0.7998 0.69604 0.0
C2010 C 0.8605 0.76 0.64559 0.0
C2011 C 0.8806 0.74938 0.64302 0.0
C2012 C 0.87507 0.78167 0.67837 0.0
C2013 C 0.89749 0.75516 0.65897 0.0
C2014 C 0.88821 0.80412 0.71406 0.0
C2015 C 0.85178 0.83034 0.70906 0.0
N2016 N 0.89437 0.77092 0.67593 0.0
N2017 N 0.85496 0.81303 0.69435 0.0
H2018 H 0.01579 0.16243 0.41151 0.0
H2019 H 0.91751 0.08674 0.45563 0.0
H2020 H 1.00004 0.09947 0.38172 0.0
H2021 H 0.9359 0.14466 0.49455 0.0
H2022 H 0.94795 0.09209 0.42862 0.0
H2023 H 0.98706 0.15732 0.44179 0.0
C2024 C 0.00636 0.14753 0.41131 0.0
C2025 C 0.01046 0.13134 0.39392 0.0
C2026 C 0.9455 0.10371 0.44302 0.0
C2027 C 0.97755 0.12543 0.42865 0.0
C2028 C 0.92802 0.10066 0.45857 0.0
C2029 C 0.92391 0.1154 0.47733 0.0
C2030 C 0.95925 0.12176 0.44593 0.0
C2031 C 0.93827 0.13305 0.48014 0.0
C2032 C 0.99003 0.1446 0.42871 0.0
C2033 C 0.99782 0.1123 0.39484 0.0
N2034 N 0.95526 0.13584 0.46448 0.0
N2035 N 0.98198 0.10997 0.41173 0.0
H2036 H 0.59598 0.26626 0.15967 0.0
H2037 H 0.67209 0.17022 0.20905 0.0
H2038 H 0.65862 0.2486 0.13048 0.0
H2039 H 0.61161 0.18676 0.24401 0.0
H2040 H 0.66697 0.20002 0.18121 0.0
H2041 H 0.60087 0.2387 0.19139 0.0
C2042 C 0.61082 0.25675 0.16 0.0
C2043 C 0.62683 0.25969 0.14214 0.0
C2044 C 0.65471 0.19731 0.19489 0.0
C2045 C 0.63244 0.22805 0.17834 0.0
C2046 C 0.65764 0.18019 0.21094 0.0
C2047 C 0.64211 0.1757 0.22879 0.0
C2048 C 0.63599 0.21033 0.19638 0.0
C2049 C 0.62383 0.18941 0.23029 0.0
C2050 C 0.61353 0.24095 0.17806 0.0
C2051 C 0.64561 0.24672 0.14345 0.0
N2052 N 0.62117 0.20607 0.21415 0.0
N2053 N 0.64782 0.23155 0.16108 0.0
H2054 H 0.50788 0.91292 0.88593 0.0
H2055 H 0.57635 0.85839 0.99348 0.0
H2056 H 0.49947 0.84551 0.90594 0.0
H2057 H 0.59045 0.92047 0.96058 0.0
H2058 H 0.54564 0.85385 0.96516 0.0
H2059 H 0.53548 0.91665 0.91703 0.0
C2060 C 0.51187 0.89883 0.89681 0.0
C2061 C 0.50145 0.87879 0.89298 0.0
C2062 C 0.5555 0.86845 0.96428 0.0
C2063 C 0.53318 0.88302 0.92915 0.0
C2064 C 0.57302 0.87101 0.98037 0.0
C2065 C 0.58617 0.8897 0.9792 0.0
C2066 C 0.55103 0.88486 0.94724 0.0
C2067 C 0.5809 0.90571 0.96213 0.0
C2068 C 0.52763 0.901 0.91471 0.0
C2069 C 0.507 0.86131 0.90824 0.0
N2070 N 0.56387 0.90291 0.94693 0.0
N2071 N 0.52257 0.86378 0.92556 0.0
H2072 H 0.84983 0.25166 0.9171 0.0
H2073 H 0.89727 0.18555 0.80378 0.0
H2074 H 0.91367 0.26464 0.88798 0.0
H2075 H 0.83966 0.16817 0.84383 0.0
H2076 H 0.9028 0.21662 0.83137 0.0
H2077 H 0.84471 0.2234 0.88695 0.0
C2078 C 0.86272 0.24877 0.90419 0.0
C2079 C 0.88221 0.26067 0.90518 0.0
C2080 C 0.88896 0.20596 0.834 0.0
C2081 C 0.87657 0.22779 0.8705 0.0
C2082 C 0.88584 0.18823 0.81831 0.0
C2083 C 0.86812 0.17408 0.82164 0.0
C2084 C 0.87406 0.20961 0.85287 0.0
C2085 C 0.85362 0.17853 0.84056 0.0
C2086 C 0.85986 0.23243 0.88703 0.0
C2087 C 0.89846 0.25575 0.88811 0.0
N2088 N 0.85691 0.19578 0.85534 0.0
N2089 N 0.89529 0.2397 0.8715 0.0
H2090 H 0.4954 0.16232 0.63642 0.0
H2091 H 0.59308 0.087 0.59031 0.0
H2092 H 0.51051 0.09859 0.66461 0.0
H2093 H 0.57481 0.14583 0.55295 0.0
H2094 H 0.56258 0.09178 0.61743 0.0
H2095 H 0.52391 0.15751 0.60588 0.0
C2096 C 0.50464 0.1473 0.63619 0.0
C2097 C 0.50047 0.13083 0.65324 0.0
C2098 C 0.56508 0.10371 0.60334 0.0
C2099 C 0.53312 0.12526 0.61823 0.0
C2100 C 0.58259 0.101 0.58775 0.0
C2101 C 0.58672 0.11617 0.56941 0.0
C2102 C 0.55139 0.12186 0.60088 0.0
C2103 C 0.57242 0.1339 0.56705 0.0
C2104 C 0.52084 0.14455 0.61865 0.0
C2105 C 0.51283 0.11164 0.65177 0.0
N2106 N 0.55543 0.13636 0.58274 0.0
N2107 N 0.52858 0.10948 0.63476 0.0
H2108 H 0.67145 0.84171 0.33587 0.0
H2109 H 0.59446 0.7491 0.39041 0.0
H2110 H 0.60902 0.82683 0.30432 0.0
H2111 H 0.66167 0.75901 0.41028 0.0
H2112 H 0.59849 0.77692 0.35893 0.0
H2113 H 0.66717 0.81133 0.3633 0.0
C2114 C 0.65676 0.83199 0.33465 0.0
C2115 C 0.64045 0.83704 0.31787 0.0
C2116 C 0.61235 0.77289 0.37013 0.0
C2117 C 0.63533 0.80189 0.34973 0.0
C2118 C 0.61011 0.75693 0.38806 0.0
C2119 C 0.6277 0.75176 0.4033 0.0
C2120 C 0.6323 0.78382 0.36742 0.0
C2121 C 0.64749 0.76268 0.39944 0.0
C2122 C 0.65434 0.81455 0.35041 0.0
C2123 C 0.62186 0.8237 0.31719 0.0
N2124 N 0.64918 0.77816 0.38207 0.0
N2125 N 0.6197 0.80679 0.33306 0.0
H2126 H 0.93632 0.86059 0.05372 0.0
H2127 H 0.00515 0.90913 0.16452 0.0
H2128 H 0.92154 0.91998 0.0918 0.0
H2129 H 0.01449 0.84338 0.13914 0.0
H2130 H 0.97736 0.91447 0.13389 0.0
H2131 H 0.96751 0.85478 0.08114 0.0
C2132 C 0.9396 0.87236 0.06775 0.0
C2133 C 0.92609 0.89063 0.07065 0.0
C2134 C 0.9855 0.89885 0.13489 0.0
C2135 C 0.96178 0.88438 0.10163 0.0
C2136 C 1.00157 0.89585 0.15233 0.0
C2137 C 0.01229 0.87576 0.15454 0.0
C2138 C 0.9799 0.88169 0.11931 0.0
C2139 C 0.00651 0.85907 0.13834 0.0
C2140 C 0.95739 0.86908 0.08335 0.0
C2141 C 0.93134 0.90556 0.08889 0.0
N2142 N 0.9907 0.86238 0.12144 0.0
N2143 N 0.94863 0.9021 0.10357 0.0
H2144 H 0.61105 0.68319 0.80314 0.0
H2145 H 0.66381 0.74645 0.91565 0.0
H2146 H 0.6717 0.66635 0.8376 0.0
H2147 H 0.59934 0.76117 0.88938 0.0
H2148 H 0.66746 0.71878 0.88461 0.0
H2149 H 0.60676 0.71344 0.83205 0.0
C2150 C 0.62341 0.68582 0.81673 0.0
C2151 C 0.64163 0.67206 0.81811 0.0
C2152 C 0.65247 0.72803 0.88553 0.0
C2153 C 0.63705 0.70665 0.85087 0.0
C2154 C 0.65034 0.74382 0.90341 0.0
C2155 C 0.63115 0.7561 0.90542 0.0
C2156 C 0.6353 0.72427 0.8693 0.0
C2157 C 0.61449 0.75221 0.8885 0.0
C2158 C 0.621 0.70309 0.83317 0.0
C2159 C 0.65732 0.67643 0.83584 0.0
N2160 N 0.6169 0.73658 0.87124 0.0
N2161 N 0.65465 0.69321 0.85143 0.0
H2162 H 0.59422 0.42214 0.09293 0.0
H2163 H 0.49346 0.34902 0.13624 0.0
H2164 H 0.57423 0.36484 0.05387 0.0
H2165 H 0.5154 0.40783 0.17112 0.0
H2166 H 0.52161 0.35416 0.10528 0.0
H2167 H 0.56445 0.41678 0.12083 0.0
C2168 C 0.5835 0.40835 0.09016 0.0
C2169 C 0.58692 0.39381 0.07107 0.0
C2170 C 0.52019 0.36593 0.1197 0.0
C2171 C 0.55236 0.38744 0.10345 0.0
C2172 C 0.50405 0.36308 0.13734 0.0
C2173 C 0.50209 0.37793 0.15653 0.0
C2174 C 0.53443 0.3838 0.12119 0.0
C2175 C 0.51645 0.39571 0.15703 0.0
C2176 C 0.56641 0.40528 0.10623 0.0
C2177 C 0.57235 0.37631 0.06849 0.0
N2178 N 0.53192 0.39808 0.13975 0.0
N2179 N 0.55571 0.37354 0.0846 0.0
H2180 H 0.8994 0.32406 0.30433 0.0
H2181 H 0.85019 0.25582 0.41525 0.0
H2182 H 0.84009 0.33947 0.34226 0.0
H2183 H 0.91566 0.24553 0.38945 0.0
H2184 H 0.84516 0.28384 0.38478 0.0
H2185 H 0.90493 0.29295 0.33193 0.0
C2186 C 0.8876 0.32095 0.31839 0.0
C2187 C 0.8694 0.33458 0.32115 0.0
C2188 C 0.86065 0.27545 0.38566 0.0
C2189 C 0.87535 0.29898 0.35234 0.0
C2190 C 0.86347 0.25924 0.403 0.0
C2191 C 0.88338 0.24819 0.40504 0.0
C2192 C 0.87783 0.28082 0.37001 0.0
C2193 C 0.9001 0.25377 0.38878 0.0
C2194 C 0.89072 0.3032 0.33408 0.0
C2195 C 0.85443 0.32955 0.33944 0.0
N2196 N 0.89697 0.2697 0.37198 0.0
N2197 N 0.85774 0.31229 0.35422 0.0
H2198 H 0.93506 0.64845 0.55153 0.0
H2199 H 0.99764 0.60064 0.6673 0.0
H2200 H 0.91667 0.59046 0.59035 0.0
H2201 H 0.01488 0.66229 0.6352 0.0
H2202 H 0.96937 0.59608 0.63702 0.0
H2203 H 0.96554 0.65358 0.58 0.0
C2204 C 0.93738 0.63687 0.566 0.0
C2205 C 0.92314 0.61913 0.56868 0.0
C2206 C 0.97934 0.61062 0.63647 0.0
C2207 C 0.958 0.62465 0.60098 0.0
C2208 C 0.99568 0.61315 0.65373 0.0
C2209 C 0.00882 0.63186 0.6539 0.0
C2210 C 0.97592 0.62688 0.61903 0.0
C2211 C 0.00504 0.64769 0.63599 0.0
C2212 C 0.95478 0.63975 0.58219 0.0
C2213 C 0.92713 0.60442 0.58755 0.0
N2214 N 0.98897 0.64485 0.61931 0.0
N2215 N 0.94405 0.60753 0.60286 0.0
H2216 H 0.61271 0.32293 0.74507 0.0
H2217 H 0.66122 0.25695 0.6321 0.0
H2218 H 0.67205 0.33881 0.70744 0.0
H2219 H 0.59646 0.24511 0.65927 0.0
H2220 H 0.66639 0.28454 0.66298 0.0
H2221 H 0.60709 0.29227 0.71691 0.0
C2222 C 0.62449 0.32002 0.73095 0.0
C2223 C 0.64269 0.33369 0.72842 0.0
C2224 C 0.65103 0.2759 0.66232 0.0
C2225 C 0.63666 0.29856 0.69657 0.0
C2226 C 0.64813 0.25993 0.64473 0.0
C2227 C 0.62837 0.24855 0.64295 0.0
C2228 C 0.63409 0.28071 0.67851 0.0
C2229 C 0.61189 0.25361 0.65971 0.0
C2230 C 0.62133 0.30252 0.71494 0.0
C2231 C 0.65768 0.32887 0.71008 0.0
N2232 N 0.6151 0.2693 0.67675 0.0
N2233 N 0.65432 0.31186 0.69497 0.0
H2234 H 0.91577 0.42356 0.95625 0.0
H2235 H 0.01491 0.34975 0.91006 0.0
H2236 H 0.93495 0.36512 0.99378 0.0
H2237 H 0.99417 0.41013 0.87758 0.0
H2238 H 0.98718 0.35467 0.94155 0.0
H2239 H 0.94553 0.41852 0.92831 0.0
C2240 C 0.92631 0.40958 0.95868 0.0
C2241 C 0.9226 0.3946 0.97732 0.0
C2242 C 0.98878 0.36683 0.92755 0.0
C2243 C 0.95718 0.38859 0.94483 0.0
C2244 C 0.00468 0.36411 0.9096 0.0
C2245 C 0.00684 0.37946 0.8909 0.0
C2246 C 0.97498 0.38509 0.92686 0.0
C2247 C 0.99295 0.39762 0.89124 0.0
C2248 C 0.9434 0.4067 0.94258 0.0
C2249 C 0.93701 0.37691 0.97948 0.0
N2250 N 0.97771 0.39985 0.90878 0.0
N2251 N 0.95363 0.3743 0.96331 0.0
H2252 H 0.84941 0.74592 0.12724 0.0
H2253 H 0.89828 0.6842 0.24298 0.0
H2254 H 0.91203 0.76258 0.15726 0.0
H2255 H 0.83907 0.66673 0.20595 0.0
H2256 H 0.90346 0.7143 0.21398 0.0
H2257 H 0.84501 0.71826 0.15817 0.0
C2258 C 0.86233 0.74371 0.14029 0.0
C2259 C 0.88123 0.75653 0.13937 0.0
C2260 C 0.88934 0.70384 0.21232 0.0
C2261 C 0.87619 0.72469 0.17538 0.0
C2262 C 0.88643 0.68666 0.22882 0.0
C2263 C 0.86834 0.67277 0.22676 0.0
C2264 C 0.87394 0.70716 0.19387 0.0
C2265 C 0.85332 0.6769 0.20826 0.0
C2266 C 0.85976 0.72791 0.15811 0.0
C2267 C 0.89713 0.75317 0.15728 0.0
N2268 N 0.85647 0.69358 0.19265 0.0
N2269 N 0.89432 0.73751 0.17447 0.0
H2270 H 0.59179 0.58839 0.45921 0.0
H2271 H 0.49586 0.66349 0.40764 0.0
H2272 H 0.57449 0.64927 0.49285 0.0
H2273 H 0.51299 0.59999 0.38033 0.0
H2274 H 0.52348 0.65922 0.43934 0.0
H2275 H 0.56227 0.59301 0.43079 0.0
C2276 C 0.58172 0.60281 0.46067 0.0
C2277 C 0.58584 0.61857 0.47838 0.0
C2278 C 0.52111 0.64623 0.42643 0.0
C2279 C 0.55159 0.62409 0.44537 0.0
C2280 C 0.50527 0.64859 0.40838 0.0
C2281 C 0.50213 0.63214 0.39106 0.0
C2282 C 0.53389 0.62726 0.42724 0.0
C2283 C 0.51501 0.61332 0.39288 0.0
C2284 C 0.56477 0.60545 0.44432 0.0
C2285 C 0.57208 0.63685 0.4793 0.0
N2286 N 0.53025 0.61146 0.41049 0.0
N2287 N 0.5556 0.63918 0.46292 0.0
H2288 H 0.34438 0.25905 0.1357 0.0
H2289 H 0.39725 0.32618 0.24533 0.0
H2290 H 0.41088 0.24906 0.15826 0.0
H2291 H 0.3355 0.34037 0.21182 0.0
H2292 H 0.40204 0.29554 0.21698 0.0
H2293 H 0.34018 0.28642 0.16696 0.0
C2294 C 0.35817 0.26265 0.14718 0.0
C2295 C 0.3781 0.25184 0.14402 0.0
C2296 C 0.38745 0.30539 0.21597 0.0
C2297 C 0.37332 0.28332 0.1804 0.0
C2298 C 0.38475 0.32287 0.23209 0.0
C2299 C 0.36612 0.33608 0.23071 0.0
C2300 C 0.37124 0.30101 0.19868 0.0
C2301 C 0.35023 0.3308 0.21351 0.0
C2302 C 0.35574 0.27827 0.16518 0.0
C2303 C 0.39518 0.2569 0.16002 0.0
N2304 N 0.35318 0.31383 0.19826 0.0
N2305 N 0.39245 0.27236 0.17742 0.0
H2306 H 0.51262 0.6622 0.90872 0.0
H2307 H 0.41931 0.58469 0.96119 0.0
H2308 H 0.49995 0.59655 0.88483 0.0
H2309 H 0.43488 0.64612 0.99464 0.0
H2310 H 0.44938 0.58954 0.93358 0.0
H2311 H 0.48517 0.65747 0.9405 0.0
C2312 C 0.50425 0.64674 0.91023 0.0
C2313 C 0.50854 0.62981 0.89379 0.0
C2314 C 0.44639 0.60205 0.9469 0.0
C2315 C 0.47696 0.62441 0.93007 0.0
C2316 C 0.42912 0.59928 0.96279 0.0
C2317 C 0.42427 0.61518 0.98011 0.0
C2318 C 0.45914 0.62097 0.948 0.0
C2319 C 0.43777 0.63364 0.98129 0.0
C2320 C 0.48851 0.64411 0.92835 0.0
C2321 C 0.49698 0.61024 0.89663 0.0
N2322 N 0.45453 0.63614 0.96528 0.0
N2323 N 0.48177 0.60816 0.91423 0.0
H2324 H 0.09551 0.76425 0.65956 0.0
H2325 H 0.17221 0.66822 0.70795 0.0
H2326 H 0.15781 0.74663 0.62944 0.0
H2327 H 0.11201 0.68472 0.74351 0.0
H2328 H 0.16678 0.698 0.6801 0.0
H2329 H 0.10076 0.73663 0.69113 0.0
C2330 C 0.11035 0.75473 0.65965 0.0
C2331 C 0.12616 0.75771 0.64158 0.0
C2332 C 0.15465 0.69527 0.69392 0.0
C2333 C 0.13218 0.726 0.67762 0.0
C2334 C 0.15776 0.67818 0.70997 0.0
C2335 C 0.1424 0.6737 0.728 0.0
C2336 C 0.13593 0.70827 0.69561 0.0
C2337 C 0.1241 0.68738 0.72966 0.0
C2338 C 0.11327 0.7389 0.67763 0.0
C2339 C 0.14495 0.74473 0.64259 0.0
N2340 N 0.12128 0.70401 0.71354 0.0
N2341 N 0.14736 0.72952 0.66016 0.0
H2342 H 0.01322 0.4118 0.37863 0.0
H2343 H 0.07514 0.36225 0.49396 0.0
H2344 H 0.99702 0.34865 0.40764 0.0
H2345 H 0.09218 0.42186 0.45742 0.0
H2346 H 0.04496 0.35717 0.46501 0.0
H2347 H 0.04062 0.41612 0.40982 0.0
C2348 C 0.01547 0.39874 0.39151 0.0
C2349 C 1.00287 0.37972 0.3902 0.0
C2350 C 0.05534 0.37135 0.46346 0.0
C2351 C 0.03443 0.38467 0.42656 0.0
C2352 C 0.07256 0.37422 0.47994 0.0
C2353 C 0.08641 0.39236 0.47796 0.0
C2354 C 0.05191 0.38688 0.44514 0.0
C2355 C 0.08209 0.40754 0.45966 0.0
C2356 C 0.03112 0.40127 0.40949 0.0
C2357 C 0.00628 0.36364 0.40794 0.0
N2358 N 0.06539 0.40443 0.44408 0.0
N2359 N 0.0218 0.36641 0.42529 0.0
H2360 H 0.34737 0.75314 0.41344 0.0
H2361 H 0.39843 0.6853 0.30344 0.0
H2362 H 0.41302 0.76398 0.38844 0.0
H2363 H 0.33902 0.66912 0.34083 0.0
H2364 H 0.40321 0.71665 0.33081 0.0
H2365 H 0.34283 0.7252 0.38284 0.0
C2366 C 0.36078 0.74987 0.40132 0.0
C2367 C 0.38062 0.76101 0.40365 0.0
C2368 C 0.38914 0.70619 0.33289 0.0
C2369 C 0.37563 0.72848 0.36851 0.0
C2370 C 0.38645 0.68831 0.31733 0.0
C2371 C 0.36845 0.6744 0.32004 0.0
C2372 C 0.37353 0.71025 0.35094 0.0
C2373 C 0.35323 0.67927 0.33809 0.0
C2374 C 0.35824 0.7337 0.38392 0.0
C2375 C 0.39751 0.75564 0.38755 0.0
N2376 N 0.35612 0.69667 0.35275 0.0
N2377 N 0.39467 0.73973 0.3707 0.0
H2378 H 0.09351 0.58823 0.09023 0.0
H2379 H 0.99536 0.6619 0.138 0.0
H2380 H 0.07471 0.64723 0.05352 0.0
H2381 H 0.0112 0.59775 0.16448 0.0
H2382 H 0.02339 0.65772 0.10673 0.0
H2383 H 0.06295 0.59237 0.11725 0.0
C2384 C 0.08289 0.60214 0.08779 0.0
C2385 C 0.0869 0.61755 0.06967 0.0
C2386 C 0.02061 0.64456 0.11933 0.0
C2387 C 0.05145 0.62252 0.10108 0.0
C2388 C 1.00454 0.64687 0.13714 0.0
C2389 C 1.00101 0.63023 0.15416 0.0
C2390 C 0.03322 0.62548 0.11854 0.0
C2391 C 0.01357 0.61122 0.15219 0.0
C2392 C 0.06533 0.60449 0.10333 0.0
C2393 C 0.0724 0.63514 0.06746 0.0
N2394 N 0.02908 0.60946 0.13489 0.0
N2395 N 0.05535 0.63726 0.08314 0.0
H2396 H 0.16945 0.34245 0.84359 0.0
H2397 H 0.09451 0.24404 0.88883 0.0
H2398 H 0.11112 0.32393 0.80547 0.0
H2399 H 0.15778 0.25994 0.91771 0.0
H2400 H 0.09918 0.27277 0.85844 0.0
H2401 H 0.16441 0.31208 0.87077 0.0
C2402 C 0.1555 0.33193 0.84086 0.0
C2403 C 0.14059 0.33592 0.82222 0.0
C2404 C 0.11207 0.26983 0.87135 0.0
C2405 C 0.1346 0.30068 0.85382 0.0
C2406 C 0.10939 0.2535 0.8888 0.0
C2407 C 0.12579 0.24946 0.90597 0.0
C2408 C 0.1312 0.28236 0.87114 0.0
C2409 C 0.14479 0.26213 0.90477 0.0
C2410 C 0.15264 0.31447 0.8565 0.0
C2411 C 0.1229 0.32158 0.81972 0.0
N2412 N 0.14688 0.27797 0.88783 0.0
N2413 N 0.1203 0.30462 0.83545 0.0
H2414 H 0.5144 0.34425 0.63819 0.0
H2415 H 0.41727 0.42093 0.59307 0.0
H2416 H 0.4999 0.4078 0.66716 0.0
H2417 H 0.43525 0.36259 0.55472 0.0
H2418 H 0.44754 0.41539 0.62037 0.0
H2419 H 0.48573 0.34955 0.6079 0.0
C2420 C 0.50525 0.35932 0.63821 0.0
C2421 C 0.50967 0.37561 0.65538 0.0
C2422 C 0.44503 0.40373 0.60603 0.0
C2423 C 0.47683 0.38175 0.62064 0.0
C2424 C 0.42765 0.40688 0.59033 0.0
C2425 C 0.42352 0.3921 0.57162 0.0
C2426 C 0.45859 0.38552 0.6033 0.0
C2427 C 0.43766 0.37425 0.56906 0.0
C2428 C 0.48896 0.36235 0.62081 0.0
C2429 C 0.4974 0.39487 0.65423 0.0
N2430 N 0.45453 0.37137 0.58484 0.0
N2431 N 0.48156 0.39732 0.63733 0.0
H2432 H 0.14587 0.05831 0.28165 0.0
H2433 H 0.07704 0.94838 0.28425 0.0
H2434 H 0.07699 0.05696 0.26666 0.0
H2435 H 0.14521 0.94926 0.26564 0.0
H2436 H 0.07702 0.98836 0.2843 0.0
H2437 H 0.14632 0.01837 0.28126 0.0
C2438 C 0.13089 0.04959 0.27802 0.0
C2439 C 0.11139 0.06093 0.27401 0.0
C2440 C 0.09198 0.97976 0.28032 0.0
C2441 C 0.11167 0.01532 0.27425 0.0
C2442 C 0.09206 0.95698 0.2805 0.0
C2443 C 0.11118 0.94551 0.27498 0.0
C2444 C 0.11125 0.99114 0.27499 0.0
C2445 C 0.13014 0.95748 0.27005 0.0
C2446 C 0.13115 0.02683 0.27788 0.0
C2447 C 0.0924 0.04885 0.26964 0.0
N2448 N 0.12973 0.97964 0.27026 0.0
N2449 N 0.09296 0.02668 0.27013 0.0
H2450 H 0.19889 0.82486 0.51378 0.0
H2451 H 0.30838 0.89447 0.52134 0.0
H2452 H 0.19907 0.89326 0.53135 0.0
H2453 H 0.30705 0.8251 0.53342 0.0
H2454 H 0.26848 0.8947 0.52039 0.0
H2455 H 0.23885 0.82494 0.51516 0.0
C2456 C 0.20735 0.83995 0.51757 0.0
C2457 C 0.19568 0.8591 0.52241 0.0
C2458 C 0.27692 0.87946 0.52346 0.0
C2459 C 0.24128 0.85929 0.52413 0.0
C2460 C 0.29966 0.87933 0.5241 0.0
C2461 C 0.31101 0.85976 0.52762 0.0
C2462 C 0.26543 0.85981 0.52586 0.0
C2463 C 0.29893 0.84057 0.53086 0.0
C2464 C 0.23012 0.83994 0.51859 0.0
C2465 C 0.20746 0.87816 0.52746 0.0
N2466 N 0.27678 0.84103 0.52965 0.0
N2467 N 0.22959 0.87779 0.52813 0.0
H2468 H 0.43453 0.94997 0.76224 0.0
H2469 H 0.3657 0.05999 0.77118 0.0
H2470 H 0.36585 0.95022 0.77843 0.0
H2471 H 0.43501 0.05768 0.78333 0.0
H2472 H 0.36502 0.02009 0.7694 0.0
H2473 H 0.43463 0.98987 0.76424 0.0
C2474 C 0.4194 0.95843 0.76586 0.0
C2475 C 0.40013 0.94677 0.77016 0.0
C2476 C 0.38034 0.02831 0.77266 0.0
C2477 C 0.40017 0.99239 0.77261 0.0
C2478 C 0.38072 0.05106 0.77378 0.0
C2479 C 0.40042 0.06216 0.77755 0.0
C2480 C 0.39986 0.01655 0.77486 0.0
C2481 C 0.41945 0.04979 0.78059 0.0
C2482 C 0.41952 0.98119 0.76723 0.0
C2483 C 0.38105 0.95859 0.77497 0.0
N2484 N 0.41873 0.02766 0.77893 0.0
N2485 N 0.38153 0.98074 0.77603 0.0
H2486 H 0.19924 0.11384 1.01816 0.0
H2487 H 0.308 0.18466 1.01339 0.0
H2488 H 0.20015 0.18253 0.03424 0.0
H2489 H 0.3088 0.11567 0.02801 0.0
H2490 H 0.26808 0.18402 1.01494 0.0
H2491 H 0.23915 0.11395 1.0169 0.0
C2492 C 0.20787 0.12888 1.02173 0.0
C2493 C 0.19639 0.14816 0.02648 0.0
C2494 C 0.27701 0.16901 1.01768 0.0
C2495 C 0.24198 0.14855 0.02435 0.0
C2496 C 0.29977 0.16932 1.01656 0.0
C2497 C 0.31171 0.15017 1.02055 0.0
C2498 C 0.26611 0.14936 1.02245 0.0
C2499 C 0.3002 0.13079 0.0248 0.0
C2500 C 0.23061 0.12895 1.02091 0.0
C2501 C 0.20836 0.16726 0.03072 0.0
N2502 N 0.27805 0.13086 0.02559 0.0
N2503 N 0.2305 0.16702 0.0293 0.0
H2504 H 0.93186 0.05958 0.76168 0.0
H2505 H 0.86243 0.9501 0.76792 0.0
H2506 H 0.86357 0.05952 0.77977 0.0
H2507 H 0.93137 0.95155 0.7826 0.0
H2508 H 0.86215 0.99001 0.76695 0.0
H2509 H 0.93166 0.01961 0.76284 0.0
C2510 C 0.91675 0.05115 0.76551 0.0
C2511 C 0.89767 0.06285 0.77058 0.0
C2512 C 0.87729 0.98159 0.77059 0.0
C2513 C 0.89737 0.01725 0.77203 0.0
C2514 C 0.87745 0.95884 0.77125 0.0
C2515 C 0.89691 0.94753 0.77553 0.0
C2516 C 0.89684 0.99311 0.7737 0.0
C2517 C 0.91597 0.95964 0.77945 0.0
C2518 C 0.91671 0.02838 0.76642 0.0
C2519 C 0.87861 0.05111 0.77569 0.0
N2520 N 0.91551 0.98179 0.77818 0.0
N2521 N 0.87891 0.02896 0.77622 0.0
H2522 H 0.69963 0.11455 0.52724 0.0
H2523 H 0.80965 0.1831 0.53227 0.0
H2524 H 0.7011 0.18372 0.51386 0.0
H2525 H 0.80867 0.11489 0.51382 0.0
H2526 H 0.76968 0.18339 0.53142 0.0
H2527 H 0.7395 0.11405 0.52715 0.0
C2528 C 0.70836 0.12958 0.52396 0.0
C2529 C 0.69705 0.14917 0.52035 0.0
C2530 C 0.77824 0.16836 0.52764 0.0
C2531 C 0.74267 0.14883 0.52097 0.0
C2532 C 0.80102 0.16813 0.52835 0.0
C2533 C 0.81246 0.14891 0.52315 0.0
C2534 C 0.76684 0.14916 0.52211 0.0
C2535 C 0.80046 0.13003 0.51798 0.0
C2536 C 0.7311 0.1293 0.52402 0.0
C2537 C 0.70918 0.16823 0.5165 0.0
N2538 N 0.77832 0.1306 0.51768 0.0
N2539 N 0.73136 0.16764 0.51717 0.0
H2540 H 0.64357 0.06074 0.26585 0.0
H2541 H 0.57292 0.95154 0.26178 0.0
H2542 H 0.57447 0.05982 0.27957 0.0
H2543 H 0.64205 0.9514 0.27548 0.0
H2544 H 0.57333 0.99149 0.26251 0.0
H2545 H 0.64353 0.02084 0.26474 0.0
C2546 C 0.62843 0.05211 0.26888 0.0
C2547 C 0.60902 0.06358 0.27292 0.0
C2548 C 0.58842 0.9827 0.26523 0.0
C2549 C 0.60874 0.01797 0.27109 0.0
C2550 C 0.58824 0.95991 0.26458 0.0
C2551 C 0.6075 0.94816 0.26857 0.0
C2552 C 0.60805 0.9938 0.26956 0.0
C2553 C 0.62685 0.95986 0.27231 0.0
C2554 C 0.62841 0.02936 0.26817 0.0
C2555 C 0.58983 0.05161 0.27657 0.0
N2556 N 0.62664 0.98202 0.27269 0.0
N2557 N 0.59013 0.02945 0.27535 0.0
H2558 H 0.69979 0.8945 1.02307 0.0
H2559 H 0.81033 0.82738 1.01243 0.0
H2560 H 0.70257 0.82492 0.03318 0.0
H2561 H 0.80946 0.89479 0.03419 0.0
H2562 H 0.77043 0.82687 1.01406 0.0
H2563 H 0.73971 0.89563 1.02243 0.0
C2564 C 0.70883 0.87951 0.02548 0.0
C2565 C 0.69788 0.85961 0.02834 0.0
C2566 C 0.77899 0.84178 1.01838 0.0
C2567 C 0.74347 0.8607 0.02689 0.0
C2568 C 0.80174 0.84215 1.01723 0.0
C2569 C 0.8132 0.86118 1.02317 0.0
C2570 C 0.76761 0.86066 0.02512 0.0
C2571 C 0.80122 0.8798 0.02945 0.0
C2572 C 0.73158 0.88015 0.02502 0.0
C2573 C 0.71036 0.84063 0.03113 0.0
N2574 N 0.77908 0.87911 0.03019 0.0
N2575 N 0.73249 0.8416 0.03007 0.0
H2576 H 0.57412 0.55788 0.76249 0.0
H2577 H 0.64514 0.44909 0.76376 0.0
H2578 H 0.64321 0.5585 0.77643 0.0
H2579 H 0.57671 0.4497 0.78115 0.0
H2580 H 0.64493 0.48904 0.76301 0.0
H2581 H 0.57487 0.51792 0.76286 0.0
C2582 C 0.5895 0.54961 0.76527 0.0
C2583 C 0.60865 0.5615 0.76941 0.0
C2584 C 0.63001 0.48042 0.76715 0.0
C2585 C 0.60959 0.51587 0.76992 0.0
C2586 C 0.63013 0.45765 0.76766 0.0
C2587 C 0.61094 0.44609 0.77266 0.0
C2588 C 0.61046 0.49171 0.77119 0.0
C2589 C 0.59189 0.45798 0.77738 0.0
C2590 C 0.58987 0.52683 0.7657 0.0
C2591 C 0.62809 0.54994 0.77311 0.0
N2592 N 0.59208 0.48013 0.7763 0.0
N2593 N 0.62809 0.52777 0.77323 0.0
H2594 H 0.8089 0.32587 0.03195 0.0
H2595 H 0.69962 0.39566 0.02926 0.0
H2596 H 0.80858 0.39447 1.01526 0.0
H2597 H 0.70035 0.32692 1.01341 0.0
H2598 H 0.7395 0.39572 0.02926 0.0
H2599 H 0.76891 0.32603 0.03132 0.0
C2600 C 0.80042 0.34102 0.02849 0.0
C2601 C 0.81204 0.36021 0.02371 0.0
C2602 C 0.73093 0.38067 0.02557 0.0
C2603 C 0.76643 0.36049 1.02292 0.0
C2604 C 0.7082 0.38064 0.02546 0.0
C2605 C 0.69668 0.3613 1.02112 0.0
C2606 C 0.74228 0.36111 1.02184 0.0
C2607 C 0.7086 0.34222 1.01663 0.0
C2608 C 0.77763 0.34105 0.0279 0.0
C2609 C 0.80023 0.37934 1.01911 0.0
N2610 N 0.73077 0.34255 1.01735 0.0
N2611 N 0.77809 0.37902 1.01891 0.0
H2612 H 0.9334 0.55824 0.284 0.0
H2613 H 0.86328 0.44911 0.2799 0.0
H2614 H 0.86443 0.55882 0.26934 0.0
H2615 H 0.93165 0.4506 0.2623 0.0
H2616 H 0.8631 0.48904 0.2812 0.0
H2617 H 0.93288 0.51832 0.28248 0.0
C2618 C 0.91809 0.54996 0.28084 0.0
C2619 C 0.89891 0.56184 0.27682 0.0
C2620 C 0.87808 0.48062 0.27685 0.0
C2621 C 0.89824 0.51625 0.27496 0.0
C2622 C 0.87818 0.45787 0.276 0.0
C2623 C 0.89747 0.44656 0.27083 0.0
C2624 C 0.89754 0.49213 0.27302 0.0
C2625 C 0.91638 0.45869 0.26617 0.0
C2626 C 0.91785 0.52721 0.27973 0.0
C2627 C 0.87956 0.55026 0.27259 0.0
N2628 N 0.916 0.48082 0.26764 0.0
N2629 N 0.8797 0.52811 0.27182 0.0
H2630 H 0.70017 0.6859 0.53364 0.0
H2631 H 0.80929 0.61536 0.52752 0.0
H2632 H 0.69967 0.61669 0.52045 0.0
H2633 H 0.80796 0.68436 0.51308 0.0
H2634 H 0.7694 0.61529 0.52928 0.0
H2635 H 0.74008 0.68548 0.53173 0.0
C2636 C 0.70847 0.67057 0.53071 0.0
C2637 C 0.69661 0.65129 0.52722 0.0
C2638 C 0.77782 0.63041 0.52552 0.0
C2639 C 0.74221 0.65072 0.52486 0.0
C2640 C 0.80057 0.63044 0.52441 0.0
C2641 C 0.81193 0.64987 0.52002 0.0
C2642 C 0.76635 0.65002 0.52267 0.0
C2643 C 0.79984 0.66899 0.51634 0.0
C2644 C 0.73122 0.67038 0.52938 0.0
C2645 C 0.70821 0.63191 0.52327 0.0
N2646 N 0.77772 0.66863 0.51799 0.0
N2647 N 0.73035 0.63211 0.52222 0.0
H2648 H 0.36461 0.5604 0.27736 0.0
H2649 H 0.43501 0.45141 0.28064 0.0
H2650 H 0.43338 0.55964 0.26168 0.0
H2651 H 0.36601 0.45122 0.26619 0.0
H2652 H 0.43466 0.49138 0.27941 0.0
H2653 H 0.36463 0.5205 0.27781 0.0
C2654 C 0.37965 0.5518 0.27369 0.0
C2655 C 0.39899 0.56331 0.26933 0.0
C2656 C 0.4196 0.48255 0.2766 0.0
C2657 C 0.39926 0.51774 0.27051 0.0
C2658 C 0.41975 0.45979 0.27754 0.0
C2659 C 0.4005 0.44804 0.27353 0.0
C2660 C 0.4 0.49361 0.27201 0.0
C2661 C 0.3812 0.45969 0.26939 0.0
C2662 C 0.37967 0.52907 0.27405 0.0
C2663 C 0.41808 0.55139 0.26492 0.0
N2664 N 0.38142 0.48183 0.26879 0.0
N2665 N 0.41779 0.52924 0.26588 0.0
H2666 H 0.30963 0.61534 1.01555 0.0
H2667 H 0.19999 0.68506 1.00991 0.0
H2668 H 0.30853 0.68471 0.02755 0.0
H2669 H 0.2006 0.61647 0.02667 0.0
H2670 H 0.23998 0.68502 1.01029 0.0
H2671 H 0.26975 0.6152 1.01465 0.0
C2672 C 0.30096 0.6305 1.01825 0.0
C2673 C 0.31237 0.65004 1.02177 0.0
C2674 C 0.23133 0.66997 1.01374 0.0
C2675 C 0.26678 0.65009 1.02014 0.0
C2676 C 0.20854 0.66993 1.01328 0.0
C2677 C 0.197 0.65072 1.01822 0.0
C2678 C 0.24262 0.65059 1.01882 0.0
C2679 C 0.20889 0.63163 1.02273 0.0
C2680 C 0.27822 0.63042 1.01765 0.0
C2681 C 0.30035 0.66927 0.02497 0.0
N2682 N 0.23103 0.63203 1.02288 0.0
N2683 N 0.27819 0.66885 0.02386 0.0
H2684 H 0.07608 0.44939 0.75983 0.0
H2685 H 0.14484 0.55944 0.76747 0.0
H2686 H 0.14411 0.45011 0.77907 0.0
H2687 H 0.07535 0.55769 0.77841 0.0
H2688 H 0.14536 0.51952 0.76675 0.0
H2689 H 0.07597 0.48935 0.76048 0.0
C2690 C 0.09107 0.45795 0.76383 0.0
C2691 C 0.11015 0.44644 0.76938 0.0
C2692 C 0.13003 0.52787 0.76949 0.0
C2693 C 0.1101 0.49207 0.77025 0.0
C2694 C 0.12973 0.55062 0.76999 0.0
C2695 C 0.11004 0.56186 0.77315 0.0
C2696 C 0.11043 0.51625 0.77168 0.0
C2697 C 0.0909 0.54966 0.77612 0.0
C2698 C 0.09093 0.48074 0.76443 0.0
C2699 C 0.12906 0.45837 0.77464 0.0
N2700 N 0.09153 0.5275 0.77507 0.0
N2701 N 0.12858 0.48053 0.77491 0.0
H2702 H 0.20114 0.32497 0.53181 0.0
H2703 H 0.31018 0.39535 0.52851 0.0
H2704 H 0.201 0.39372 0.51588 0.0
H2705 H 0.30952 0.32654 0.51304 0.0
H2706 H 0.27028 0.39529 0.52878 0.0
H2707 H 0.24112 0.32536 0.53091 0.0
C2708 C 0.20952 0.34019 0.52846 0.0
C2709 C 0.19777 0.35936 0.52396 0.0
C2710 C 0.27887 0.38025 0.52511 0.0
C2711 C 0.24338 0.3599 0.52285 0.0
C2712 C 0.30162 0.38029 0.52485 0.0
C2713 C 0.31316 0.36096 0.52056 0.0
C2714 C 0.26755 0.36063 0.52156 0.0
C2715 C 0.30126 0.34184 0.51622 0.0
C2716 C 0.2323 0.34036 0.52772 0.0
C2717 C 0.20945 0.3786 0.5195 0.0
N2718 N 0.27909 0.3421 0.51708 0.0
N2719 N 0.2316 0.3784 0.51913 0.0
H2720 H 0.11341 0.17335 0.08786 0.0
H2721 H 0.13524 0.10451 0.20606 0.0
H2722 H 0.11834 0.10327 0.09038 0.0
H2723 H 0.09979 0.16483 0.21289 0.0
H2724 H 0.13223 0.10692 0.16275 0.0
H2725 H 0.11012 0.17365 0.13234 0.0
C2726 C 0.11342 0.15806 0.09759 0.0
C2727 C 0.11645 0.13828 0.08519 0.0
C2728 C 0.12495 0.11967 0.17354 0.0
C2729 C 0.11304 0.13858 0.13591 0.0
C2730 C 0.12676 0.11837 0.19845 0.0
C2731 C 0.1178 0.13451 0.21336 0.0
C2732 C 0.11434 0.13744 0.16285 0.0
C2733 C 0.10686 0.15196 0.20213 0.0
C2734 C 0.11159 0.15827 0.12297 0.0
C2735 C 0.11641 0.11901 0.0989 0.0
N2736 N 0.10562 0.15312 0.17747 0.0
N2737 N 0.11503 0.11971 0.12326 0.0
H2738 H 0.11039 0.83503 0.46154 0.0
H2739 H 0.14569 0.89475 0.34317 0.0
H2740 H 0.12094 0.90439 0.45649 0.0
H2741 H 0.09488 0.84666 0.33498 0.0
H2742 H 0.14193 0.89244 0.38633 0.0
H2743 H 0.10792 0.83356 0.417 0.0
C2744 C 0.11179 0.84995 0.45125 0.0
C2745 C 0.11623 0.86982 0.46297 0.0
C2746 C 0.13157 0.88232 0.3752 0.0
C2747 C 0.11377 0.86813 0.41226 0.0
C2748 C 0.13375 0.88349 0.35034 0.0
C2749 C 0.12055 0.87089 0.33503 0.0
C2750 C 0.11626 0.86821 0.38548 0.0
C2751 C 0.10536 0.85676 0.34597 0.0
C2752 C 0.1104 0.84907 0.42586 0.0
C2753 C 0.11793 0.88858 0.44854 0.0
N2754 N 0.10368 0.85568 0.3706 0.0
N2755 N 0.11704 0.88719 0.42419 0.0
H2756 H 0.36296 0.84876 0.70907 0.0
H2757 H 0.40711 0.89729 0.5894 0.0
H2758 H 0.42501 0.88146 0.70909 0.0
H2759 H 0.3774 0.83374 0.58851 0.0
H2760 H 0.4118 0.89419 0.63318 0.0
H2761 H 0.36543 0.84485 0.66513 0.0
C2762 C 0.37733 0.8547 0.69985 0.0
C2763 C 0.39396 0.86518 0.71279 0.0
C2764 C 0.40462 0.88076 0.62336 0.0
C2765 C 0.39643 0.86159 0.66239 0.0
C2766 C 0.40194 0.8825 0.59839 0.0
C2767 C 0.39209 0.86563 0.58524 0.0
C2768 C 0.39662 0.86236 0.63551 0.0
C2769 C 0.38538 0.84697 0.59789 0.0
C2770 C 0.3787 0.8525 0.6748 0.0
C2771 C 0.41202 0.87295 0.69987 0.0
N2772 N 0.38735 0.84602 0.62236 0.0
N2773 N 0.41258 0.87141 0.67535 0.0
H2774 H 0.42758 0.12698 0.83876 0.0
H2775 H 0.37901 0.17728 0.96039 0.0
H2776 H 0.36568 0.15994 0.83998 0.0
H2777 H 0.40808 0.11345 0.95863 0.0
H2778 H 0.38311 0.17959 0.91628 0.0
H2779 H 0.42961 0.13052 0.88293 0.0
C2780 C 0.41476 0.13553 0.84822 0.0
C2781 C 0.3965 0.14331 0.83566 0.0
C2782 C 0.38897 0.16529 0.92568 0.0
C2783 C 0.39881 0.14757 0.88605 0.0
C2784 C 0.38683 0.16405 0.95083 0.0
C2785 C 0.39333 0.1452 0.96322 0.0
C2786 C 0.39825 0.14783 0.91292 0.0
C2787 C 0.40292 0.12831 0.94981 0.0
C2788 C 0.41583 0.13736 0.87341 0.0
C2789 C 0.38008 0.15381 0.84895 0.0
N2790 N 0.40517 0.13004 0.92546 0.0
N2791 N 0.38165 0.15571 0.87334 0.0
H2792 H 0.92285 0.86133 0.83563 0.0
H2793 H 0.86293 0.89456 0.95522 0.0
H2794 H 0.85377 0.87347 0.84094 0.0
H2795 H 0.91253 0.84504 0.96162 0.0
H2796 H 0.8649 0.89176 0.91195 0.0
H2797 H 0.92434 0.85835 0.88013 0.0
C2798 C 0.908 0.86303 0.84596 0.0
C2799 C 0.88821 0.86799 0.83432 0.0
C2800 C 0.87542 0.88145 0.92269 0.0
C2801 C 0.88993 0.86495 0.88501 0.0
C2802 C 0.87444 0.8831 0.94761 0.0
C2803 C 0.88761 0.87001 0.96244 0.0
C2804 C 0.88987 0.86678 0.91187 0.0
C2805 C 0.902 0.85541 0.951 0.0
C2806 C 0.90889 0.86134 0.87133 0.0
C2807 C 0.86953 0.87003 0.84881 0.0
N2808 N 0.90289 0.85426 0.92632 0.0
N2809 N 0.87094 0.86882 0.87314 0.0
H2810 H 0.92304 0.1468 0.71079 0.0
H2811 H 0.85748 0.11956 0.59209 0.0
H2812 H 0.85327 0.13896 0.70718 0.0
H2813 H 0.91434 0.16042 0.58529 0.0
H2814 H 0.8596 0.12274 0.63537 0.0
H2815 H 0.92385 0.14956 0.66627 0.0
C2816 C 0.90791 0.14603 0.70082 0.0
C2817 C 0.88809 0.14233 0.71295 0.0
C2818 C 0.87166 0.13113 0.62457 0.0
C2819 C 0.88899 0.14512 0.66218 0.0
C2820 C 0.87057 0.12921 0.59966 0.0
C2821 C 0.8858 0.13968 0.58474 0.0
C2822 C 0.88831 0.14339 0.63527 0.0
C2823 C 0.9022 0.15211 0.59601 0.0
C2824 C 0.90841 0.14756 0.67542 0.0
C2825 C 0.86904 0.14141 0.69891 0.0
N2826 N 0.90317 0.15347 0.62068 0.0
N2827 N 0.87004 0.1425 0.67454 0.0
H2828 H 0.61569 0.17478 0.45995 0.0
H2829 H 0.62433 0.10328 0.3407 0.0
H2830 H 0.61496 0.10457 0.45759 0.0
H2831 H 0.60413 0.17035 0.33588 0.0
H2832 H 0.62147 0.10506 0.38415 0.0
H2833 H 0.61122 0.17538 0.41565 0.0
C2834 C 0.61418 0.15955 0.45028 0.0
C2835 C 0.61597 0.13959 0.46263 0.0
C2836 C 0.61742 0.11945 0.37381 0.0
C2837 C 0.61115 0.14017 0.41207 0.0
C2838 C 0.6191 0.11844 0.34886 0.0
C2839 C 0.61446 0.13667 0.33454 0.0
C2840 C 0.61139 0.13902 0.38507 0.0
C2841 C 0.60771 0.15585 0.34624 0.0
C2842 C 0.61172 0.15991 0.42499 0.0
C2843 C 0.61403 0.12039 0.44903 0.0
N2844 N 0.60665 0.15664 0.37091 0.0
N2845 N 0.61195 0.1212 0.42473 0.0
H2846 H 0.59947 0.8953 0.08844 0.0
H2847 H 0.64451 0.84923 0.209 0.0
H2848 H 0.63118 0.83274 0.08884 0.0
H2849 H 0.58241 0.8818 0.20838 0.0
H2850 H 0.64194 0.8444 0.1652 0.0
H2851 H 0.59454 0.89263 0.13221 0.0
C2852 C 0.60499 0.88078 0.09771 0.0
C2853 C 0.61551 0.86408 0.08494 0.0
C2854 C 0.62867 0.85221 0.1747 0.0
C2855 C 0.61071 0.86134 0.13521 0.0
C2856 C 0.6301 0.85494 0.19968 0.0
C2857 C 0.6135 0.86567 0.21239 0.0
C2858 C 0.6109 0.86102 0.16211 0.0
C2859 C 0.59538 0.87311 0.19934 0.0
C2860 C 0.60219 0.87929 0.12268 0.0
C2861 C 0.62268 0.8458 0.09793 0.0
N2862 N 0.59476 0.87106 0.17486 0.0
N2863 N 0.62056 0.84512 0.1224 0.0
H2864 H 0.58211 0.62921 0.70991 0.0
H2865 H 0.63178 0.67708 0.58764 0.0
H2866 H 0.64641 0.65719 0.70729 0.0
H2867 H 0.59856 0.6153 0.58939 0.0
H2868 H 0.62851 0.67926 0.63183 0.0
H2869 H 0.57939 0.6334 0.66584 0.0
C2870 C 0.59537 0.63681 0.70017 0.0
C2871 C 0.61447 0.64298 0.71229 0.0
C2872 C 0.62153 0.66549 0.62242 0.0
C2873 C 0.61136 0.648 0.66206 0.0
C2874 C 0.62319 0.66434 0.59723 0.0
C2875 C 0.61526 0.64607 0.58482 0.0
C2876 C 0.61135 0.64854 0.6352 0.0
C2877 C 0.60477 0.62973 0.59825 0.0
C2878 C 0.59388 0.63901 0.67505 0.0
C2879 C 0.63137 0.6523 0.69866 0.0
N2880 N 0.60304 0.63137 0.62265 0.0
N2881 N 0.62941 0.6546 0.67435 0.0
H2882 H 0.6358 0.40323 0.8416 0.0
H2883 H 0.61352 0.33628 0.96092 0.0
H2884 H 0.60001 0.343 0.83578 0.0
H2885 H 0.61841 0.40631 0.95722 0.0
H2886 H 0.61024 0.33534 0.91646 0.0
H2887 H 0.63264 0.40151 0.88495 0.0
C2888 C 0.62724 0.38951 0.84944 0.0
C2889 C 0.61823 0.3732 0.8348 0.0
C2890 C 0.6117 0.35086 0.92557 0.0
C2891 C 0.61457 0.37108 0.88535 0.0
C2892 C 0.6135 0.35143 0.95093 0.0
C2893 C 0.61656 0.37138 0.96299 0.0
C2894 C 0.61317 0.37036 0.91229 0.0
C2895 C 0.61649 0.39046 0.94896 0.0
C2896 C 0.62533 0.38863 0.87437 0.0
C2897 C 0.60715 0.35599 0.84632 0.0
N2898 N 0.61513 0.38942 0.92461 0.0
N2899 N 0.60583 0.35522 0.87099 0.0
H2900 H 0.91583 0.34905 0.08384 0.0
H2901 H 0.85344 0.36782 0.20818 0.0
H2902 H 0.85759 0.38741 0.09317 0.0
H2903 H 0.92361 0.36401 0.20943 0.0
H2904 H 0.85412 0.36499 0.16472 0.0
H2905 H 0.91863 0.34584 0.12834 0.0
C2906 C 0.90365 0.35669 0.09511 0.0
C2907 C 0.88651 0.36864 0.08461 0.0
C2908 C 0.86943 0.36459 0.1744 0.0
C2909 C 0.88938 0.36467 0.13519 0.0
C2910 C 0.8691 0.36617 0.19939 0.0
C2911 C 0.88854 0.36651 0.21277 0.0
C2912 C 0.88933 0.36322 0.16212 0.0
C2913 C 0.90821 0.3639 0.19996 0.0
C2914 C 0.90532 0.35494 0.12045 0.0
C2915 C 0.87123 0.37821 0.10019 0.0
N2916 N 0.90815 0.36256 0.17529 0.0
N2917 N 0.87296 0.37589 0.1244 0.0
H2918 H 0.86168 0.65856 0.33805 0.0
H2919 H 0.90816 0.61226 0.45776 0.0
H2920 H 0.92463 0.62763 0.33748 0.0
H2921 H 0.87744 0.67532 0.45819 0.0
H2922 H 0.91224 0.61491 0.41385 0.0
H2923 H 0.86448 0.66275 0.38193 0.0
C2924 C 0.87629 0.65304 0.34713 0.0
C2925 C 0.89309 0.643 0.33404 0.0
C2926 C 0.90497 0.62834 0.4236 0.0
C2927 C 0.89596 0.64692 0.38441 0.0
C2928 C 0.90265 0.62685 0.44864 0.0
C2929 C 0.8927 0.64373 0.4617 0.0
C2930 C 0.89651 0.64645 0.4113 0.0
C2931 C 0.88552 0.66211 0.44888 0.0
C2932 C 0.87785 0.65541 0.37216 0.0
C2933 C 0.91148 0.63579 0.34681 0.0
N2934 N 0.88715 0.66279 0.42437 0.0
N2935 N 0.91224 0.63747 0.37132 0.0
H2936 H 0.38398 0.40806 0.34197 0.0
H2937 H 0.39406 0.3356 0.46036 0.0
H2938 H 0.40475 0.34123 0.33612 0.0
H2939 H 0.39558 0.40581 0.45866 0.0
H2940 H 0.39794 0.33534 0.41599 0.0
H2941 H 0.38729 0.40583 0.38536 0.0
C2942 C 0.38939 0.39285 0.34987 0.0
C2943 C 0.39407 0.37482 0.33528 0.0
C2944 C 0.39775 0.35074 0.42548 0.0
C2945 C 0.39769 0.37197 0.38576 0.0
C2946 C 0.39564 0.3509 0.45082 0.0
C2947 C 0.39424 0.37077 0.46339 0.0
C2948 C 0.39835 0.37058 0.41274 0.0
C2949 C 0.39623 0.39006 0.44994 0.0
C2950 C 0.39134 0.39159 0.3748 0.0
C2951 C 0.4011 0.35557 0.34668 0.0
N2952 N 0.39794 0.38945 0.42559 0.0
N2953 N 0.40244 0.35454 0.37133 0.0
H2954 H 0.42474 0.64437 0.20947 0.0
H2955 H 0.35205 0.63409 0.09113 0.0
H2956 H 0.35451 0.64465 0.20789 0.0
H2957 H 0.41893 0.65465 0.08526 0.0
H2958 H 0.3543 0.63728 0.13453 0.0
H2959 H 0.42487 0.64828 0.16509 0.0
C2960 C 0.40941 0.64567 0.19995 0.0
C2961 C 0.38959 0.64394 0.21257 0.0
C2962 C 0.36856 0.64132 0.12396 0.0
C2963 C 0.38963 0.6481 0.1619 0.0
C2964 C 0.36727 0.63944 0.09904 0.0
C2965 C 0.38531 0.64409 0.08443 0.0
C2966 C 0.38821 0.64757 0.13492 0.0
C2967 C 0.40458 0.65104 0.09583 0.0
C2968 C 0.4095 0.6478 0.17462 0.0
C2969 C 0.37025 0.64558 0.19914 0.0
N2970 N 0.40564 0.65231 0.12048 0.0
N2971 N 0.3708 0.64734 0.1748 0.0
H2972 H 0.1009 0.6687 0.83324 0.0
H2973 H 0.11406 0.60475 0.95818 0.0
H2974 H 0.12917 0.60495 0.84226 0.0
H2975 H 0.11594 0.675 0.95799 0.0
H2976 H 0.1099 0.60498 0.91481 0.0
H2977 H 0.09795 0.67173 0.87773 0.0
C2978 C 0.10624 0.65531 0.84447 0.0
C2979 C 0.11538 0.63656 0.83396 0.0
C2980 C 0.11103 0.62043 0.92414 0.0
C2981 C 0.11179 0.63979 0.8845 0.0
C2982 C 0.11335 0.62035 0.94907 0.0
C2983 C 0.11567 0.6399 0.96196 0.0
C2984 C 0.111 0.6402 0.91147 0.0
C2985 C 0.11425 0.65952 0.94886 0.0
C2986 C 0.10469 0.65711 0.8698 0.0
C2987 C 0.12217 0.61978 0.84942 0.0
N2988 N 0.11225 0.6592 0.92425 0.0
N2989 N 0.12015 0.62177 0.87364 0.0
H2990 H 0.15538 0.36471 0.70885 0.0
H2991 H 0.09185 0.34991 0.58414 0.0
H2992 H 0.08512 0.36471 0.70931 0.0
H2993 H 0.15365 0.38223 0.5933 0.0
H2994 H 0.08893 0.34678 0.62863 0.0
H2995 H 0.15494 0.36127 0.66542 0.0
C2996 C 0.13974 0.36374 0.69988 0.0
C2997 C 0.12023 0.36532 0.713 0.0
C2998 C 0.10308 0.35449 0.62072 0.0
C2999 C 0.1197 0.36143 0.6624 0.0
C3000 C 0.10482 0.35617 0.59539 0.0
C3001 C 0.12298 0.36647 0.58488 0.0
C3002 C 0.11993 0.3626 0.63544 0.0
C3003 C 0.13924 0.37436 0.6004 0.0
C3004 C 0.13955 0.36183 0.6749 0.0
C3005 C 0.10056 0.3636 0.70002 0.0
N3006 N 0.13737 0.37215 0.62462 0.0
N3007 N 0.10077 0.36196 0.67537 0.0
loop_
_geom_bond_atom_site_label_1
_geom_bond_atom_site_label_2
_geom_bond_distance
_geom_bond_site_symmetry_2
_ccdc_geom_bond_type
Gd0 C3 2.818 . S
Gd0 O20 2.377 . S
Gd0 O22 2.448 . S
Gd0 O23 2.506 . S
Gd0 O24 2.435 . S
Gd0 O25 2.717 . S
Gd0 O27 2.395 . S
Gd0 O31 2.327 . S
Gd1 C12 2.818 . S
Gd1 O21 2.395 . S
Gd1 O25 2.327 . S
Gd1 O26 2.377 . S
Gd1 O28 2.448 . S
Gd1 O29 2.506 . S
Gd1 O30 2.435 . S
Gd1 O31 2.717 . S
C2 O20 1.240 . S
C2 O21 1.240 . S
C3 Gd0 2.818 . S
C3 C4 1.510 . S
C3 O22 1.249 . S
C3 O23 1.252 . S
C4 C3 1.510 . S
C4 C5 1.404 . S
C4 C6 1.352 . S
C5 C4 1.404 . S
C5 C9 1.389 . S
C5 H32 0.930 . S
C6 C4 1.352 . S
C6 C8 1.374 . S
C6 H33 0.931 . S
C7 C8 1.359 . S
C7 C9 1.364 . S
C8 C6 1.374 . S
C8 C7 1.359 . S
C8 H34 0.931 . S
C9 C5 1.389 . S
C9 C7 1.364 . S
C9 H35 0.931 . S
C10 O24 1.256 . S
C10 O25 1.257 . S
C11 O26 1.240 . S
C11 O27 1.240 . S
C12 Gd1 2.818 . S
C12 C13 1.510 . S
C12 O28 1.249 . S
C12 O29 1.252 . S
C13 C12 1.510 . S
C13 C14 1.404 . S
C13 C15 1.352 . S
C14 C13 1.404 . S
C14 C18 1.389 . S
C14 H36 0.930 . S
C15 C13 1.352 . S
C15 C17 1.374 . S
C15 H37 0.931 . S
C16 C17 1.359 . S
C16 C18 1.364 . S
C17 C15 1.374 . S
C17 C16 1.359 . S
C17 H38 0.931 . S
C18 C14 1.389 . S
C18 C16 1.364 . S
C18 H39 0.931 . S
C19 O30 1.256 . S
C19 O31 1.257 . S
O20 Gd0 2.377 . S
O20 C2 1.240 . S
O21 Gd1 2.395 . S
O21 C2 1.240 . S
O22 Gd0 2.448 . S
O22 C3 1.249 . S
O23 Gd0 2.506 . S
O23 C3 1.252 . S
O24 Gd0 2.435 . S
O24 C10 1.256 . S
O25 Gd0 2.717 . S
O25 Gd1 2.327 . S
O25 C10 1.257 . S
O26 Gd1 2.377 . S
O26 C11 1.240 . S
O27 Gd0 2.395 . S
O27 C11 1.240 . S
O28 Gd1 2.448 . S
O28 C12 1.249 . S
O29 Gd1 2.506 . S
O29 C12 1.252 . S
O30 Gd1 2.435 . S
O30 C19 1.256 . S
O31 Gd0 2.327 . S
O31 Gd1 2.717 . S
O31 C19 1.257 . S
H32 C5 0.930 . S
H33 C6 0.931 . S
H34 C8 0.931 . S
H35 C9 0.931 . S
H36 C14 0.930 . S
H37 C15 0.931 . S
H38 C17 0.931 . S
H39 C18 0.931 . S
Gd40 C43 2.818 . S
Gd40 O60 2.377 . S
Gd40 O62 2.448 . S
Gd40 O63 2.506 . S
Gd40 O64 2.435 . S
Gd40 O65 2.717 . S
Gd40 O67 2.395 . S
Gd40 O71 2.327 . S
Gd41 C52 2.818 . S
Gd41 O61 2.395 . S
Gd41 O65 2.327 . S
Gd41 O66 2.377 . S
Gd41 O68 2.448 . S
Gd41 O69 2.506 . S
Gd41 O70 2.435 . S
Gd41 O71 2.717 . S
C42 O60 1.240 . S
C42 O61 1.240 . S
C43 Gd40 2.818 . S
C43 C44 1.510 . S
C43 O62 1.249 . S
C43 O63 1.252 . S
C44 C43 1.510 . S
C44 C45 1.404 . S
C44 C46 1.352 . S
C45 C44 1.404 . S
C45 C49 1.389 . S
C45 H72 0.930 . S
C46 C44 1.352 . S
C46 C48 1.374 . S
C46 H73 0.931 . S
C47 C48 1.359 . S
C47 C49 1.364 . S
C48 C46 1.374 . S
C48 C47 1.359 . S
C48 H74 0.931 . S
C49 C45 1.389 . S
C49 C47 1.364 . S
C49 H75 0.931 1_565 S
C50 O64 1.256 . S
C50 O65 1.257 . S
C51 O66 1.240 . S
C51 O67 1.240 . S
C52 Gd41 2.818 . S
C52 C53 1.510 . S
C52 O68 1.249 . S
C52 O69 1.252 . S
C53 C52 1.510 . S
C53 C54 1.404 . S
C53 C55 1.352 . S
C54 C53 1.404 . S
C54 C58 1.389 . S
C54 H76 0.930 . S
C55 C53 1.352 . S
C55 C57 1.374 . S
C55 H77 0.931 . S
C56 C57 1.359 . S
C56 C58 1.364 . S
C57 C55 1.374 . S
C57 C56 1.359 . S
C57 H78 0.931 . S
C58 C54 1.389 . S
C58 C56 1.364 . S
C58 H79 0.931 . S
C59 O70 1.256 . S
C59 O71 1.257 . S
O60 Gd40 2.377 . S
O60 C42 1.240 . S
O61 Gd41 2.395 . S
O61 C42 1.240 . S
O62 Gd40 2.448 . S
O62 C43 1.249 . S
O63 Gd40 2.506 . S
O63 C43 1.252 . S
O64 Gd40 2.435 . S
O64 C50 1.256 . S
O65 Gd40 2.717 . S
O65 Gd41 2.327 . S
O65 C50 1.257 . S
O66 Gd41 2.377 . S
O66 C51 1.240 . S
O67 Gd40 2.395 . S
O67 C51 1.240 . S
O68 Gd41 2.448 . S
O68 C52 1.249 . S
O69 Gd41 2.506 . S
O69 C52 1.252 . S
O70 Gd41 2.435 . S
O70 C59 1.256 . S
O71 Gd40 2.327 . S
O71 Gd41 2.717 . S
O71 C59 1.257 . S
H72 C45 0.930 . S
H73 C46 0.931 . S
H74 C48 0.931 . S
H75 C49 0.931 1_545 S
H76 C54 0.930 . S
H77 C55 0.931 . S
H78 C57 0.931 . S
H79 C58 0.931 . S
Gd80 C83 2.818 . S
Gd80 O100 2.377 . S
Gd80 O102 2.448 . S
Gd80 O103 2.506 . S
Gd80 O104 2.435 . S
Gd80 O105 2.717 . S
Gd80 O107 2.395 . S
Gd80 O111 2.327 . S
Gd81 C92 2.818 . S
Gd81 O101 2.395 . S
Gd81 O105 2.327 . S
Gd81 O106 2.377 . S
Gd81 O108 2.448 . S
Gd81 O109 2.506 . S
Gd81 O110 2.435 . S
Gd81 O111 2.717 . S
C82 O100 1.240 . S
C82 O101 1.240 . S
C83 Gd80 2.818 . S
C83 C84 1.510 . S
C83 O102 1.249 . S
C83 O103 1.252 . S
C84 C83 1.510 . S
C84 C85 1.404 . S
C84 C86 1.352 . S
C85 C84 1.404 . S
C85 C89 1.389 . S
C85 H112 0.930 . S
C86 C84 1.352 . S
C86 C88 1.374 . S
C86 H113 0.931 . S
C87 C88 1.359 . S
C87 C89 1.364 . S
C88 C86 1.374 . S
C88 C87 1.359 . S
C88 H114 0.931 . S
C89 C85 1.389 . S
C89 C87 1.364 . S
C89 H115 0.931 . S
C90 O104 1.256 . S
C90 O105 1.257 . S
C91 O106 1.240 . S
C91 O107 1.240 . S
C92 Gd81 2.818 . S
C92 C93 1.510 . S
C92 O108 1.249 . S
C92 O109 1.252 . S
C93 C92 1.510 . S
C93 C94 1.404 . S
C93 C95 1.352 . S
C94 C93 1.404 . S
C94 C98 1.389 . S
C94 H116 0.930 . S
C95 C93 1.352 . S
C95 C97 1.374 . S
C95 H117 0.931 . S
C96 C97 1.359 . S
C96 C98 1.364 . S
C97 C95 1.374 . S
C97 C96 1.359 . S
C97 H118 0.931 . S
C98 C94 1.389 . S
C98 C96 1.364 . S
C98 H119 0.931 . S
C99 O110 1.256 . S
C99 O111 1.257 . S
O100 Gd80 2.377 . S
O100 C82 1.240 . S
O101 Gd81 2.395 . S
O101 C82 1.240 . S
O102 Gd80 2.448 . S
O102 C83 1.249 . S
O103 Gd80 2.506 . S
O103 C83 1.252 . S
O104 Gd80 2.435 . S
O104 C90 1.256 . S
O105 Gd80 2.717 . S
O105 Gd81 2.327 . S
O105 C90 1.257 . S
O106 Gd81 2.377 . S
O106 C91 1.240 . S
O107 Gd80 2.395 . S
O107 C91 1.240 . S
O108 Gd81 2.448 . S
O108 C92 1.249 . S
O109 Gd81 2.506 . S
O109 C92 1.252 . S
O110 Gd81 2.435 . S
O110 C99 1.256 . S
O111 Gd80 2.327 . S
O111 Gd81 2.717 . S
O111 C99 1.257 . S
H112 C85 0.930 . S
H113 C86 0.931 . S
H114 C88 0.931 . S
H115 C89 0.931 . S
H116 C94 0.930 . S
H117 C95 0.931 . S
H118 C97 0.931 . S
H119 C98 0.931 . S
Gd120 C123 2.818 1_554 S
Gd120 O140 2.377 1_554 S
Gd120 O142 2.448 . S
Gd120 O143 2.506 1_554 S
Gd120 O144 2.435 . S
Gd120 O145 2.717 . S
Gd120 O147 2.395 . S
Gd120 O151 2.327 . S
Gd121 C132 2.818 . S
Gd121 O141 2.395 1_554 S
Gd121 O145 2.327 . S
Gd121 O146 2.377 . S
Gd121 O148 2.448 . S
Gd121 O149 2.506 . S
Gd121 O150 2.435 . S
Gd121 O151 2.717 . S
C122 O140 1.240 . S
C122 O141 1.240 . S
C123 Gd120 2.818 1_556 S
C123 C124 1.510 . S
C123 O142 1.249 1_556 S
C123 O143 1.252 . S
C124 C123 1.510 . S
C124 C125 1.404 . S
C124 C126 1.352 . S
C125 C124 1.404 . S
C125 C129 1.389 . S
C125 H152 0.930 . S
C126 C124 1.352 . S
C126 C128 1.374 . S
C126 H153 0.931 . S
C127 C128 1.359 . S
C127 C129 1.364 . S
C128 C126 1.374 . S
C128 C127 1.359 . S
C128 H154 0.931 . S
C129 C125 1.389 . S
C129 C127 1.364 . S
C129 H155 0.931 1_545 S
C130 O144 1.256 . S
C130 O145 1.257 . S
C131 O146 1.240 . S
C131 O147 1.240 . S
C132 Gd121 2.818 . S
C132 C133 1.510 . S
C132 O148 1.249 . S
C132 O149 1.252 . S
C133 C132 1.510 . S
C133 C134 1.404 . S
C133 C135 1.352 . S
C134 C133 1.404 . S
C134 C138 1.389 . S
C134 H156 0.930 . S
C135 C133 1.352 . S
C135 C137 1.374 . S
C135 H157 0.931 . S
C136 C137 1.359 . S
C136 C138 1.364 . S
C137 C135 1.374 . S
C137 C136 1.359 . S
C137 H158 0.931 . S
C138 C134 1.389 . S
C138 C136 1.364 . S
C138 H159 0.931 . S
C139 O150 1.256 . S
C139 O151 1.257 . S
O140 Gd120 2.377 1_556 S
O140 C122 1.240 . S
O141 Gd121 2.395 1_556 S
O141 C122 1.240 . S
O142 Gd120 2.448 . S
O142 C123 1.249 1_554 S
O143 Gd120 2.506 1_556 S
O143 C123 1.252 . S
O144 Gd120 2.435 . S
O144 C130 1.256 . S
O145 Gd120 2.717 . S
O145 Gd121 2.327 . S
O145 C130 1.257 . S
O146 Gd121 2.377 . S
O146 C131 1.240 . S
O147 Gd120 2.395 . S
O147 C131 1.240 . S
O148 Gd121 2.448 . S
O148 C132 1.249 . S
O149 Gd121 2.506 . S
O149 C132 1.252 . S
O150 Gd121 2.435 . S
O150 C139 1.256 . S
O151 Gd120 2.327 . S
O151 Gd121 2.717 . S
O151 C139 1.257 . S
H152 C125 0.930 . S
H153 C126 0.931 . S
H154 C128 0.931 . S
H155 C129 0.931 1_565 S
H156 C134 0.930 . S
H157 C135 0.931 . S
H158 C137 0.931 . S
H159 C138 0.931 . S
Gd160 C163 2.818 . S
Gd160 O180 2.377 . S
Gd160 O182 2.448 . S
Gd160 O183 2.506 . S
Gd160 O184 2.435 . S
Gd160 O185 2.717 . S
Gd160 O187 2.395 . S
Gd160 O191 2.327 . S
Gd161 C172 2.818 . S
Gd161 O181 2.395 . S
Gd161 O185 2.327 . S
Gd161 O186 2.377 . S
Gd161 O188 2.448 . S
Gd161 O189 2.506 . S
Gd161 O190 2.435 . S
Gd161 O191 2.717 . S
C162 O180 1.240 . S
C162 O181 1.240 . S
C163 Gd160 2.818 . S
C163 C164 1.510 . S
C163 O182 1.249 . S
C163 O183 1.252 . S
C164 C163 1.510 . S
C164 C165 1.404 . S
C164 C166 1.352 . S
C165 C164 1.404 . S
C165 C169 1.389 . S
C165 H192 0.930 . S
C166 C164 1.352 . S
C166 C168 1.374 . S
C166 H193 0.931 . S
C167 C168 1.359 . S
C167 C169 1.364 . S
C168 C166 1.374 . S
C168 C167 1.359 . S
C168 H194 0.931 . S
C169 C165 1.389 . S
C169 C167 1.364 . S
C169 H195 0.931 . S
C170 O184 1.256 . S
C170 O185 1.257 . S
C171 O186 1.240 . S
C171 O187 1.240 . S
C172 Gd161 2.818 . S
C172 C173 1.510 . S
C172 O188 1.249 . S
C172 O189 1.252 . S
C173 C172 1.510 . S
C173 C174 1.404 . S
C173 C175 1.352 . S
C174 C173 1.404 . S
C174 C178 1.389 . S
C174 H196 0.930 . S
C175 C173 1.352 . S
C175 C177 1.374 . S
C175 H197 0.931 . S
C176 C177 1.359 . S
C176 C178 1.364 . S
C177 C175 1.374 . S
C177 C176 1.359 . S
C177 H198 0.931 . S
C178 C174 1.389 . S
C178 C176 1.364 . S
C178 H199 0.931 . S
C179 O190 1.256 . S
C179 O191 1.257 . S
O180 Gd160 2.377 . S
O180 C162 1.240 . S
O181 Gd161 2.395 . S
O181 C162 1.240 . S
O182 Gd160 2.448 . S
O182 C163 1.249 . S
O183 Gd160 2.506 . S
O183 C163 1.252 . S
O184 Gd160 2.435 . S
O184 C170 1.256 . S
O185 Gd160 2.717 . S
O185 Gd161 2.327 . S
O185 C170 1.257 . S
O186 Gd161 2.377 . S
O186 C171 1.240 . S
O187 Gd160 2.395 . S
O187 C171 1.240 . S
O188 Gd161 2.448 . S
O188 C172 1.249 . S
O189 Gd161 2.506 . S
O189 C172 1.252 . S
O190 Gd161 2.435 . S
O190 C179 1.256 . S
O191 Gd160 2.327 . S
O191 Gd161 2.717 . S
O191 C179 1.257 . S
H192 C165 0.930 . S
H193 C166 0.931 . S
H194 C168 0.931 . S
H195 C169 0.931 . S
H196 C174 0.930 . S
H197 C175 0.931 . S
H198 C177 0.931 . S
H199 C178 0.931 . S
Gd200 C203 2.818 . S
Gd200 O220 2.377 . S
Gd200 O222 2.448 . S
Gd200 O223 2.506 . S
Gd200 O224 2.435 . S
Gd200 O225 2.717 . S
Gd200 O227 2.395 . S
Gd200 O231 2.327 . S
Gd201 C212 2.818 . S
Gd201 O221 2.395 . S
Gd201 O225 2.327 . S
Gd201 O226 2.377 . S
Gd201 O228 2.448 . S
Gd201 O229 2.506 . S
Gd201 O230 2.435 . S
Gd201 O231 2.717 . S
C202 O220 1.240 . S
C202 O221 1.240 . S
C203 Gd200 2.818 . S
C203 C204 1.510 . S
C203 O222 1.249 . S
C203 O223 1.252 . S
C204 C203 1.510 . S
C204 C205 1.404 . S
C204 C206 1.352 . S
C205 C204 1.404 . S
C205 C209 1.389 . S
C205 H232 0.930 . S
C206 C204 1.352 . S
C206 C208 1.374 . S
C206 H233 0.931 . S
C207 C208 1.359 . S
C207 C209 1.364 . S
C208 C206 1.374 . S
C208 C207 1.359 . S
C208 H234 0.931 . S
C209 C205 1.389 . S
C209 C207 1.364 . S
C209 H235 0.931 1_565 S
C210 O224 1.256 . S
C210 O225 1.257 . S
C211 O226 1.240 . S
C211 O227 1.240 . S
C212 Gd201 2.818 . S
C212 C213 1.510 . S
C212 O228 1.249 . S
C212 O229 1.252 . S
C213 C212 1.510 . S
C213 C214 1.404 . S
C213 C215 1.352 . S
C214 C213 1.404 . S
C214 C218 1.389 . S
C214 H236 0.930 . S
C215 C213 1.352 . S
C215 C217 1.374 . S
C215 H237 0.931 . S
C216 C217 1.359 . S
C216 C218 1.364 . S
C217 C215 1.374 . S
C217 C216 1.359 . S
C217 H238 0.931 . S
C218 C214 1.389 . S
C218 C216 1.364 . S
C218 H239 0.931 . S
C219 O230 1.256 . S
C219 O231 1.257 . S
O220 Gd200 2.377 . S
O220 C202 1.240 . S
O221 Gd201 2.395 . S
O221 C202 1.240 . S
O222 Gd200 2.448 . S
O222 C203 1.249 . S
O223 Gd200 2.506 . S
O223 C203 1.252 . S
O224 Gd200 2.435 . S
O224 C210 1.256 . S
O225 Gd200 2.717 . S
O225 Gd201 2.327 . S
O225 C210 1.257 . S
O226 Gd201 2.377 . S
O226 C211 1.240 . S
O227 Gd200 2.395 . S
O227 C211 1.240 . S
O228 Gd201 2.448 . S
O228 C212 1.249 . S
O229 Gd201 2.506 . S
O229 C212 1.252 . S
O230 Gd201 2.435 . S
O230 C219 1.256 . S
O231 Gd200 2.327 . S
O231 Gd201 2.717 . S
O231 C219 1.257 . S
H232 C205 0.930 . S
H233 C206 0.931 . S
H234 C208 0.931 . S
H235 C209 0.931 1_545 S
H236 C214 0.930 . S
H237 C215 0.931 . S
H238 C217 0.931 . S
H239 C218 0.931 . S
Gd240 C243 2.818 . S
Gd240 O260 2.377 . S
Gd240 O262 2.448 . S
Gd240 O263 2.506 . S
Gd240 O264 2.435 . S
Gd240 O265 2.717 . S
Gd240 O267 2.395 . S
Gd240 O271 2.327 . S
Gd241 C252 2.818 . S
Gd241 O261 2.395 . S
Gd241 O265 2.327 . S
Gd241 O266 2.377 . S
Gd241 O268 2.448 . S
Gd241 O269 2.506 . S
Gd241 O270 2.435 . S
Gd241 O271 2.717 . S
C242 O260 1.240 . S
C242 O261 1.240 . S
C243 Gd240 2.818 . S
C243 C244 1.510 . S
C243 O262 1.249 . S
C243 O263 1.252 . S
C244 C243 1.510 . S
C244 C245 1.404 . S
C244 C246 1.352 . S
C245 C244 1.404 . S
C245 C249 1.389 . S
C245 H272 0.930 . S
C246 C244 1.352 . S
C246 C248 1.374 . S
C246 H273 0.931 . S
C247 C248 1.359 . S
C247 C249 1.364 . S
C248 C246 1.374 . S
C248 C247 1.359 . S
C248 H274 0.931 . S
C249 C245 1.389 . S
C249 C247 1.364 . S
C249 H275 0.931 . S
C250 O264 1.256 . S
C250 O265 1.257 . S
C251 O266 1.240 . S
C251 O267 1.240 . S
C252 Gd241 2.818 . S
C252 C253 1.510 . S
C252 O268 1.249 . S
C252 O269 1.252 . S
C253 C252 1.510 . S
C253 C254 1.404 . S
C253 C255 1.352 . S
C254 C253 1.404 . S
C254 C258 1.389 . S
C254 H276 0.930 . S
C255 C253 1.352 . S
C255 C257 1.374 . S
C255 H277 0.931 . S
C256 C257 1.359 . S
C256 C258 1.364 . S
C257 C255 1.374 . S
C257 C256 1.359 . S
C257 H278 0.931 . S
C258 C254 1.389 . S
C258 C256 1.364 . S
C258 H279 0.931 . S
C259 O270 1.256 . S
C259 O271 1.257 . S
O260 Gd240 2.377 . S
O260 C242 1.240 . S
O261 Gd241 2.395 . S
O261 C242 1.240 . S
O262 Gd240 2.448 . S
O262 C243 1.249 . S
O263 Gd240 2.506 . S
O263 C243 1.252 . S
O264 Gd240 2.435 . S
O264 C250 1.256 . S
O265 Gd240 2.717 . S
O265 Gd241 2.327 . S
O265 C250 1.257 . S
O266 Gd241 2.377 . S
O266 C251 1.240 . S
O267 Gd240 2.395 . S
O267 C251 1.240 . S
O268 Gd241 2.448 . S
O268 C252 1.249 . S
O269 Gd241 2.506 . S
O269 C252 1.252 . S
O270 Gd241 2.435 . S
O270 C259 1.256 . S
O271 Gd240 2.327 . S
O271 Gd241 2.717 . S
O271 C259 1.257 . S
H272 C245 0.930 . S
H273 C246 0.931 . S
H274 C248 0.931 . S
H275 C249 0.931 . S
H276 C254 0.930 . S
H277 C255 0.931 . S
H278 C257 0.931 . S
H279 C258 0.931 . S
Gd280 C283 2.818 1_556 S
Gd280 O300 2.377 1_556 S
Gd280 O302 2.448 . S
Gd280 O303 2.506 1_556 S
Gd280 O304 2.435 . S
Gd280 O305 2.717 . S
Gd280 O307 2.395 . S
Gd280 O311 2.327 . S
Gd281 C292 2.818 . S
Gd281 O301 2.395 1_556 S
Gd281 O305 2.327 . S
Gd281 O306 2.377 . S
Gd281 O308 2.448 . S
Gd281 O309 2.506 . S
Gd281 O310 2.435 . S
Gd281 O311 2.717 . S
C282 O300 1.240 . S
C282 O301 1.240 . S
C283 Gd280 2.818 1_554 S
C283 C284 1.510 . S
C283 O302 1.249 1_554 S
C283 O303 1.252 . S
C284 C283 1.510 . S
C284 C285 1.404 . S
C284 C286 1.352 . S
C285 C284 1.404 . S
C285 C289 1.389 . S
C285 H312 0.930 . S
C286 C284 1.352 . S
C286 C288 1.374 . S
C286 H313 0.931 . S
C287 C288 1.359 . S
C287 C289 1.364 . S
C288 C286 1.374 . S
C288 C287 1.359 . S
C288 H314 0.931 . S
C289 C285 1.389 . S
C289 C287 1.364 . S
C289 H315 0.931 1_545 S
C290 O304 1.256 . S
C290 O305 1.257 . S
C291 O306 1.240 . S
C291 O307 1.240 . S
C292 Gd281 2.818 . S
C292 C293 1.510 . S
C292 O308 1.249 . S
C292 O309 1.252 . S
C293 C292 1.510 . S
C293 C294 1.404 . S
C293 C295 1.352 . S
C294 C293 1.404 . S
C294 C298 1.389 . S
C294 H316 0.930 . S
C295 C293 1.352 . S
C295 C297 1.374 . S
C295 H317 0.931 . S
C296 C297 1.359 . S
C296 C298 1.364 . S
C297 C295 1.374 . S
C297 C296 1.359 . S
C297 H318 0.931 . S
C298 C294 1.389 . S
C298 C296 1.364 . S
C298 H319 0.931 . S
C299 O310 1.256 . S
C299 O311 1.257 . S
O300 Gd280 2.377 1_554 S
O300 C282 1.240 . S
O301 Gd281 2.395 1_554 S
O301 C282 1.240 . S
O302 Gd280 2.448 . S
O302 C283 1.249 1_556 S
O303 Gd280 2.506 1_554 S
O303 C283 1.252 . S
O304 Gd280 2.435 . S
O304 C290 1.256 . S
O305 Gd280 2.717 . S
O305 Gd281 2.327 . S
O305 C290 1.257 . S
O306 Gd281 2.377 . S
O306 C291 1.240 . S
O307 Gd280 2.395 . S
O307 C291 1.240 . S
O308 Gd281 2.448 . S
O308 C292 1.249 . S
O309 Gd281 2.506 . S
O309 C292 1.252 . S
O310 Gd281 2.435 . S
O310 C299 1.256 . S
O311 Gd280 2.327 . S
O311 Gd281 2.717 . S
O311 C299 1.257 . S
H312 C285 0.930 . S
H313 C286 0.931 . S
H314 C288 0.931 . S
H315 C289 0.931 1_565 S
H316 C294 0.930 . S
H317 C295 0.931 . S
H318 C297 0.931 . S
H319 C298 0.931 . S
Gd320 C323 2.818 . S
Gd320 O340 2.377 . S
Gd320 O342 2.448 . S
Gd320 O343 2.506 . S
Gd320 O344 2.435 . S
Gd320 O345 2.717 . S
Gd320 O347 2.395 . S
Gd320 O351 2.327 . S
Gd321 C332 2.818 . S
Gd321 O341 2.395 . S
Gd321 O345 2.327 . S
Gd321 O346 2.377 . S
Gd321 O348 2.448 . S
Gd321 O349 2.506 . S
Gd321 O350 2.435 . S
Gd321 O351 2.717 . S
C322 O340 1.240 . S
C322 O341 1.240 . S
C323 Gd320 2.818 . S
C323 C324 1.510 . S
C323 O342 1.249 . S
C323 O343 1.252 . S
C324 C323 1.510 . S
C324 C325 1.404 . S
C324 C326 1.352 . S
C325 C324 1.404 . S
C325 C329 1.389 . S
C325 H352 0.930 . S
C326 C324 1.352 . S
C326 C328 1.374 . S
C326 H353 0.931 . S
C327 C328 1.359 . S
C327 C329 1.364 . S
C328 C326 1.374 . S
C328 C327 1.359 . S
C328 H354 0.931 . S
C329 C325 1.389 . S
C329 C327 1.364 . S
C329 H355 0.931 . S
C330 O344 1.256 . S
C330 O345 1.257 . S
C331 O346 1.240 . S
C331 O347 1.240 . S
C332 Gd321 2.818 . S
C332 C333 1.510 . S
C332 O348 1.249 . S
C332 O349 1.252 . S
C333 C332 1.510 . S
C333 C334 1.404 . S
C333 C335 1.352 . S
C334 C333 1.404 . S
C334 C338 1.389 . S
C334 H356 0.930 . S
C335 C333 1.352 . S
C335 C337 1.374 . S
C335 H357 0.931 . S
C336 C337 1.359 . S
C336 C338 1.364 . S
C337 C335 1.374 . S
C337 C336 1.359 . S
C337 H358 0.931 . S
C338 C334 1.389 . S
C338 C336 1.364 . S
C338 H359 0.931 . S
C339 O350 1.256 . S
C339 O351 1.257 . S
O340 Gd320 2.377 . S
O340 C322 1.240 . S
O341 Gd321 2.395 . S
O341 C322 1.240 . S
O342 Gd320 2.448 . S
O342 C323 1.249 . S
O343 Gd320 2.506 . S
O343 C323 1.252 . S
O344 Gd320 2.435 . S
O344 C330 1.256 . S
O345 Gd320 2.717 . S
O345 Gd321 2.327 . S
O345 C330 1.257 . S
O346 Gd321 2.377 . S
O346 C331 1.240 . S
O347 Gd320 2.395 . S
O347 C331 1.240 . S
O348 Gd321 2.448 . S
O348 C332 1.249 . S
O349 Gd321 2.506 . S
O349 C332 1.252 . S
O350 Gd321 2.435 . S
O350 C339 1.256 . S
O351 Gd320 2.327 . S
O351 Gd321 2.717 . S
O351 C339 1.257 . S
H352 C325 0.930 . S
H353 C326 0.931 . S
H354 C328 0.931 . S
H355 C329 0.931 . S
H356 C334 0.930 . S
H357 C335 0.931 . S
H358 C337 0.931 . S
H359 C338 0.931 . S
Gd360 C363 2.818 . S
Gd360 O380 2.377 . S
Gd360 O382 2.448 . S
Gd360 O383 2.506 . S
Gd360 O384 2.435 . S
Gd360 O385 2.717 . S
Gd360 O387 2.395 . S
Gd360 O391 2.327 . S
Gd361 C372 2.818 . S
Gd361 O381 2.395 . S
Gd361 O385 2.327 . S
Gd361 O386 2.377 . S
Gd361 O388 2.448 . S
Gd361 O389 2.506 . S
Gd361 O390 2.435 . S
Gd361 O391 2.717 . S
C362 O380 1.240 . S
C362 O381 1.240 . S
C363 Gd360 2.818 . S
C363 C364 1.510 . S
C363 O382 1.249 . S
C363 O383 1.252 . S
C364 C363 1.510 . S
C364 C365 1.404 . S
C364 C366 1.352 . S
C365 C364 1.404 . S
C365 C369 1.389 . S
C365 H392 0.930 . S
C366 C364 1.352 . S
C366 C368 1.374 . S
C366 H393 0.931 . S
C367 C368 1.359 . S
C367 C369 1.364 . S
C368 C366 1.374 . S
C368 C367 1.359 . S
C368 H394 0.931 . S
C369 C365 1.389 . S
C369 C367 1.364 . S
C369 H395 0.931 . S
C370 O384 1.256 . S
C370 O385 1.257 . S
C371 O386 1.240 . S
C371 O387 1.240 . S
C372 Gd361 2.818 . S
C372 C373 1.510 . S
C372 O388 1.249 . S
C372 O389 1.252 . S
C373 C372 1.510 . S
C373 C374 1.404 . S
C373 C375 1.352 . S
C374 C373 1.404 . S
C374 C378 1.389 . S
C374 H396 0.930 . S
C375 C373 1.352 . S
C375 C377 1.374 . S
C375 H397 0.931 . S
C376 C377 1.359 . S
C376 C378 1.364 . S
C377 C375 1.374 . S
C377 C376 1.359 . S
C377 H398 0.931 . S
C378 C374 1.389 . S
C378 C376 1.364 . S
C378 H399 0.931 1_545 S
C379 O390 1.256 . S
C379 O391 1.257 . S
O380 Gd360 2.377 . S
O380 C362 1.240 . S
O381 Gd361 2.395 . S
O381 C362 1.240 . S
O382 Gd360 2.448 . S
O382 C363 1.249 . S
O383 Gd360 2.506 . S
O383 C363 1.252 . S
O384 Gd360 2.435 . S
O384 C370 1.256 . S
O385 Gd360 2.717 . S
O385 Gd361 2.327 . S
O385 C370 1.257 . S
O386 Gd361 2.377 . S
O386 C371 1.240 . S
O387 Gd360 2.395 . S
O387 C371 1.240 . S
O388 Gd361 2.448 . S
O388 C372 1.249 . S
O389 Gd361 2.506 . S
O389 C372 1.252 . S
O390 Gd361 2.435 . S
O390 C379 1.256 . S
O391 Gd360 2.327 . S
O391 Gd361 2.717 . S
O391 C379 1.257 . S
H392 C365 0.930 . S
H393 C366 0.931 . S
H394 C368 0.931 . S
H395 C369 0.931 . S
H396 C374 0.930 . S
H397 C375 0.931 . S
H398 C377 0.931 . S
H399 C378 0.931 1_565 S
Gd400 C403 2.818 . S
Gd400 O420 2.377 . S
Gd400 O422 2.448 . S
Gd400 O423 2.506 . S
Gd400 O424 2.435 . S
Gd400 O425 2.717 . S
Gd400 O427 2.395 . S
Gd400 O431 2.327 . S
Gd401 C412 2.818 . S
Gd401 O421 2.395 . S
Gd401 O425 2.327 . S
Gd401 O426 2.377 . S
Gd401 O428 2.448 . S
Gd401 O429 2.506 . S
Gd401 O430 2.435 . S
Gd401 O431 2.717 . S
C402 O420 1.240 . S
C402 O421 1.240 . S
C403 Gd400 2.818 . S
C403 C404 1.510 . S
C403 O422 1.249 . S
C403 O423 1.252 . S
C404 C403 1.510 . S
C404 C405 1.404 . S
C404 C406 1.352 . S
C405 C404 1.404 . S
C405 C409 1.389 . S
C405 H432 0.930 . S
C406 C404 1.352 . S
C406 C408 1.374 . S
C406 H433 0.931 . S
C407 C408 1.359 . S
C407 C409 1.364 . S
C408 C406 1.374 . S
C408 C407 1.359 . S
C408 H434 0.931 . S
C409 C405 1.389 . S
C409 C407 1.364 . S
C409 H435 0.931 . S
C410 O424 1.256 . S
C410 O425 1.257 . S
C411 O426 1.240 . S
C411 O427 1.240 . S
C412 Gd401 2.818 . S
C412 C413 1.510 . S
C412 O428 1.249 . S
C412 O429 1.252 . S
C413 C412 1.510 . S
C413 C414 1.404 . S
C413 C415 1.352 . S
C414 C413 1.404 . S
C414 C418 1.389 . S
C414 H436 0.930 . S
C415 C413 1.352 . S
C415 C417 1.374 . S
C415 H437 0.931 . S
C416 C417 1.359 . S
C416 C418 1.364 . S
C417 C415 1.374 . S
C417 C416 1.359 . S
C417 H438 0.931 . S
C418 C414 1.389 . S
C418 C416 1.364 . S
C418 H439 0.931 . S
C419 O430 1.256 . S
C419 O431 1.257 . S
O420 Gd400 2.377 . S
O420 C402 1.240 . S
O421 Gd401 2.395 . S
O421 C402 1.240 . S
O422 Gd400 2.448 . S
O422 C403 1.249 . S
O423 Gd400 2.506 . S
O423 C403 1.252 . S
O424 Gd400 2.435 . S
O424 C410 1.256 . S
O425 Gd400 2.717 . S
O425 Gd401 2.327 . S
O425 C410 1.257 . S
O426 Gd401 2.377 . S
O426 C411 1.240 . S
O427 Gd400 2.395 . S
O427 C411 1.240 . S
O428 Gd401 2.448 . S
O428 C412 1.249 . S
O429 Gd401 2.506 . S
O429 C412 1.252 . S
O430 Gd401 2.435 . S
O430 C419 1.256 . S
O431 Gd400 2.327 . S
O431 Gd401 2.717 . S
O431 C419 1.257 . S
H432 C405 0.930 . S
H433 C406 0.931 . S
H434 C408 0.931 . S
H435 C409 0.931 . S
H436 C414 0.930 . S
H437 C415 0.931 . S
H438 C417 0.931 . S
H439 C418 0.931 . S
Gd440 C443 2.818 . S
Gd440 O460 2.377 . S
Gd440 O462 2.448 . S
Gd440 O463 2.506 . S
Gd440 O464 2.435 . S
Gd440 O465 2.717 . S
Gd440 O467 2.395 1_556 S
Gd440 O471 2.327 . S
Gd441 C452 2.818 1_556 S
Gd441 O461 2.395 . S
Gd441 O465 2.327 . S
Gd441 O466 2.377 1_556 S
Gd441 O468 2.448 . S
Gd441 O469 2.506 1_556 S
Gd441 O470 2.435 . S
Gd441 O471 2.717 . S
C442 O460 1.240 . S
C442 O461 1.240 . S
C443 Gd440 2.818 . S
C443 C444 1.510 . S
C443 O462 1.249 . S
C443 O463 1.252 . S
C444 C443 1.510 . S
C444 C445 1.404 . S
C444 C446 1.352 . S
C445 C444 1.404 . S
C445 C449 1.389 . S
C445 H472 0.930 . S
C446 C444 1.352 . S
C446 C448 1.374 . S
C446 H473 0.931 . S
C447 C448 1.359 . S
C447 C449 1.364 . S
C448 C446 1.374 . S
C448 C447 1.359 . S
C448 H474 0.931 . S
C449 C445 1.389 . S
C449 C447 1.364 . S
C449 H475 0.931 . S
C450 O464 1.256 . S
C450 O465 1.257 . S
C451 O466 1.240 . S
C451 O467 1.240 . S
C452 Gd441 2.818 1_554 S
C452 C453 1.510 . S
C452 O468 1.249 1_554 S
C452 O469 1.252 . S
C453 C452 1.510 . S
C453 C454 1.404 . S
C453 C455 1.352 . S
C454 C453 1.404 . S
C454 C458 1.389 . S
C454 H476 0.930 . S
C455 C453 1.352 . S
C455 C457 1.374 . S
C455 H477 0.931 . S
C456 C457 1.359 . S
C456 C458 1.364 . S
C457 C455 1.374 . S
C457 C456 1.359 . S
C457 H478 0.931 . S
C458 C454 1.389 . S
C458 C456 1.364 . S
C458 H479 0.931 1_565 S
C459 O470 1.256 . S
C459 O471 1.257 . S
O460 Gd440 2.377 . S
O460 C442 1.240 . S
O461 Gd441 2.395 . S
O461 C442 1.240 . S
O462 Gd440 2.448 . S
O462 C443 1.249 . S
O463 Gd440 2.506 . S
O463 C443 1.252 . S
O464 Gd440 2.435 . S
O464 C450 1.256 . S
O465 Gd440 2.717 . S
O465 Gd441 2.327 . S
O465 C450 1.257 . S
O466 Gd441 2.377 1_554 S
O466 C451 1.240 . S
O467 Gd440 2.395 1_554 S
O467 C451 1.240 . S
O468 Gd441 2.448 . S
O468 C452 1.249 1_556 S
O469 Gd441 2.506 1_554 S
O469 C452 1.252 . S
O470 Gd441 2.435 . S
O470 C459 1.256 . S
O471 Gd440 2.327 . S
O471 Gd441 2.717 . S
O471 C459 1.257 . S
H472 C445 0.930 . S
H473 C446 0.931 . S
H474 C448 0.931 . S
H475 C449 0.931 . S
H476 C454 0.930 . S
H477 C455 0.931 . S
H478 C457 0.931 . S
H479 C458 0.931 1_545 S
Gd480 C483 2.818 . S
Gd480 O500 2.377 . S
Gd480 O502 2.448 . S
Gd480 O503 2.506 . S
Gd480 O504 2.435 . S
Gd480 O505 2.717 . S
Gd480 O507 2.395 . S
Gd480 O511 2.327 . S
Gd481 C492 2.818 . S
Gd481 O501 2.395 . S
Gd481 O505 2.327 . S
Gd481 O506 2.377 . S
Gd481 O508 2.448 . S
Gd481 O509 2.506 . S
Gd481 O510 2.435 . S
Gd481 O511 2.717 . S
C482 O500 1.240 . S
C482 O501 1.240 . S
C483 Gd480 2.818 . S
C483 C484 1.510 . S
C483 O502 1.249 . S
C483 O503 1.252 . S
C484 C483 1.510 . S
C484 C485 1.404 . S
C484 C486 1.352 . S
C485 C484 1.404 . S
C485 C489 1.389 . S
C485 H512 0.930 . S
C486 C484 1.352 . S
C486 C488 1.374 . S
C486 H513 0.931 . S
C487 C488 1.359 . S
C487 C489 1.364 . S
C488 C486 1.374 . S
C488 C487 1.359 . S
C488 H514 0.931 . S
C489 C485 1.389 . S
C489 C487 1.364 . S
C489 H515 0.931 . S
C490 O504 1.256 . S
C490 O505 1.257 . S
C491 O506 1.240 . S
C491 O507 1.240 . S
C492 Gd481 2.818 . S
C492 C493 1.510 . S
C492 O508 1.249 . S
C492 O509 1.252 . S
C493 C492 1.510 . S
C493 C494 1.404 . S
C493 C495 1.352 . S
C494 C493 1.404 . S
C494 C498 1.389 . S
C494 H516 0.930 . S
C495 C493 1.352 . S
C495 C497 1.374 . S
C495 H517 0.931 . S
C496 C497 1.359 . S
C496 C498 1.364 . S
C497 C495 1.374 . S
C497 C496 1.359 . S
C497 H518 0.931 . S
C498 C494 1.389 . S
C498 C496 1.364 . S
C498 H519 0.931 . S
C499 O510 1.256 . S
C499 O511 1.257 . S
O500 Gd480 2.377 . S
O500 C482 1.240 . S
O501 Gd481 2.395 . S
O501 C482 1.240 . S
O502 Gd480 2.448 . S
O502 C483 1.249 . S
O503 Gd480 2.506 . S
O503 C483 1.252 . S
O504 Gd480 2.435 . S
O504 C490 1.256 . S
O505 Gd480 2.717 . S
O505 Gd481 2.327 . S
O505 C490 1.257 . S
O506 Gd481 2.377 . S
O506 C491 1.240 . S
O507 Gd480 2.395 . S
O507 C491 1.240 . S
O508 Gd481 2.448 . S
O508 C492 1.249 . S
O509 Gd481 2.506 . S
O509 C492 1.252 . S
O510 Gd481 2.435 . S
O510 C499 1.256 . S
O511 Gd480 2.327 . S
O511 Gd481 2.717 . S
O511 C499 1.257 . S
H512 C485 0.930 . S
H513 C486 0.931 . S
H514 C488 0.931 . S
H515 C489 0.931 . S
H516 C494 0.930 . S
H517 C495 0.931 . S
H518 C497 0.931 . S
H519 C498 0.931 . S
Gd520 C523 2.818 . S
Gd520 O540 2.377 . S
Gd520 O542 2.448 . S
Gd520 O543 2.506 . S
Gd520 O544 2.435 . S
Gd520 O545 2.717 . S
Gd520 O547 2.395 . S
Gd520 O551 2.327 . S
Gd521 C532 2.818 . S
Gd521 O541 2.395 . S
Gd521 O545 2.327 . S
Gd521 O546 2.377 . S
Gd521 O548 2.448 . S
Gd521 O549 2.506 . S
Gd521 O550 2.435 . S
Gd521 O551 2.717 . S
C522 O540 1.240 . S
C522 O541 1.240 . S
C523 Gd520 2.818 . S
C523 C524 1.510 . S
C523 O542 1.249 . S
C523 O543 1.252 . S
C524 C523 1.510 . S
C524 C525 1.404 . S
C524 C526 1.352 . S
C525 C524 1.404 . S
C525 C529 1.389 . S
C525 H552 0.930 . S
C526 C524 1.352 . S
C526 C528 1.374 . S
C526 H553 0.931 . S
C527 C528 1.359 . S
C527 C529 1.364 . S
C528 C526 1.374 . S
C528 C527 1.359 . S
C528 H554 0.931 . S
C529 C525 1.389 . S
C529 C527 1.364 . S
C529 H555 0.931 . S
C530 O544 1.256 . S
C530 O545 1.257 . S
C531 O546 1.240 . S
C531 O547 1.240 . S
C532 Gd521 2.818 . S
C532 C533 1.510 . S
C532 O548 1.249 . S
C532 O549 1.252 . S
C533 C532 1.510 . S
C533 C534 1.404 . S
C533 C535 1.352 . S
C534 C533 1.404 . S
C534 C538 1.389 . S
C534 H556 0.930 . S
C535 C533 1.352 . S
C535 C537 1.374 . S
C535 H557 0.931 . S
C536 C537 1.359 . S
C536 C538 1.364 . S
C537 C535 1.374 . S
C537 C536 1.359 . S
C537 H558 0.931 . S
C538 C534 1.389 . S
C538 C536 1.364 . S
C538 H559 0.931 1_545 S
C539 O550 1.256 . S
C539 O551 1.257 . S
O540 Gd520 2.377 . S
O540 C522 1.240 . S
O541 Gd521 2.395 . S
O541 C522 1.240 . S
O542 Gd520 2.448 . S
O542 C523 1.249 . S
O543 Gd520 2.506 . S
O543 C523 1.252 . S
O544 Gd520 2.435 . S
O544 C530 1.256 . S
O545 Gd520 2.717 . S
O545 Gd521 2.327 . S
O545 C530 1.257 . S
O546 Gd521 2.377 . S
O546 C531 1.240 . S
O547 Gd520 2.395 . S
O547 C531 1.240 . S
O548 Gd521 2.448 . S
O548 C532 1.249 . S
O549 Gd521 2.506 . S
O549 C532 1.252 . S
O550 Gd521 2.435 . S
O550 C539 1.256 . S
O551 Gd520 2.327 . S
O551 Gd521 2.717 . S
O551 C539 1.257 . S
H552 C525 0.930 . S
H553 C526 0.931 . S
H554 C528 0.931 . S
H555 C529 0.931 . S
H556 C534 0.930 . S
H557 C535 0.931 . S
H558 C537 0.931 . S
H559 C538 0.931 1_565 S
Gd560 C563 2.818 . S
Gd560 O580 2.377 . S
Gd560 O582 2.448 . S
Gd560 O583 2.506 . S
Gd560 O584 2.435 . S
Gd560 O585 2.717 . S
Gd560 O587 2.395 . S
Gd560 O591 2.327 . S
Gd561 C572 2.818 . S
Gd561 O581 2.395 . S
Gd561 O585 2.327 . S
Gd561 O586 2.377 . S
Gd561 O588 2.448 . S
Gd561 O589 2.506 . S
Gd561 O590 2.435 . S
Gd561 O591 2.717 . S
C562 O580 1.240 . S
C562 O581 1.240 . S
C563 Gd560 2.818 . S
C563 C564 1.510 . S
C563 O582 1.249 . S
C563 O583 1.252 . S
C564 C563 1.510 . S
C564 C565 1.404 . S
C564 C566 1.352 . S
C565 C564 1.404 . S
C565 C569 1.389 . S
C565 H592 0.930 . S
C566 C564 1.352 . S
C566 C568 1.374 . S
C566 H593 0.931 . S
C567 C568 1.359 . S
C567 C569 1.364 . S
C568 C566 1.374 . S
C568 C567 1.359 . S
C568 H594 0.931 . S
C569 C565 1.389 . S
C569 C567 1.364 . S
C569 H595 0.931 . S
C570 O584 1.256 . S
C570 O585 1.257 . S
C571 O586 1.240 . S
C571 O587 1.240 . S
C572 Gd561 2.818 . S
C572 C573 1.510 . S
C572 O588 1.249 . S
C572 O589 1.252 . S
C573 C572 1.510 . S
C573 C574 1.404 . S
C573 C575 1.352 . S
C574 C573 1.404 . S
C574 C578 1.389 . S
C574 H596 0.930 . S
C575 C573 1.352 . S
C575 C577 1.374 . S
C575 H597 0.931 . S
C576 C577 1.359 . S
C576 C578 1.364 . S
C577 C575 1.374 . S
C577 C576 1.359 . S
C577 H598 0.931 . S
C578 C574 1.389 . S
C578 C576 1.364 . S
C578 H599 0.931 . S
C579 O590 1.256 . S
C579 O591 1.257 . S
O580 Gd560 2.377 . S
O580 C562 1.240 . S
O581 Gd561 2.395 . S
O581 C562 1.240 . S
O582 Gd560 2.448 . S
O582 C563 1.249 . S
O583 Gd560 2.506 . S
O583 C563 1.252 . S
O584 Gd560 2.435 . S
O584 C570 1.256 . S
O585 Gd560 2.717 . S
O585 Gd561 2.327 . S
O585 C570 1.257 . S
O586 Gd561 2.377 . S
O586 C571 1.240 . S
O587 Gd560 2.395 . S
O587 C571 1.240 . S
O588 Gd561 2.448 . S
O588 C572 1.249 . S
O589 Gd561 2.506 . S
O589 C572 1.252 . S
O590 Gd561 2.435 . S
O590 C579 1.256 . S
O591 Gd560 2.327 . S
O591 Gd561 2.717 . S
O591 C579 1.257 . S
H592 C565 0.930 . S
H593 C566 0.931 . S
H594 C568 0.931 . S
H595 C569 0.931 . S
H596 C574 0.930 . S
H597 C575 0.931 . S
H598 C577 0.931 . S
H599 C578 0.931 . S
Gd600 C603 2.818 . S
Gd600 O620 2.377 . S
Gd600 O622 2.448 . S
Gd600 O623 2.506 . S
Gd600 O624 2.435 . S
Gd600 O625 2.717 . S
Gd600 O627 2.395 1_554 S
Gd600 O631 2.327 . S
Gd601 C612 2.818 1_554 S
Gd601 O621 2.395 . S
Gd601 O625 2.327 . S
Gd601 O626 2.377 1_554 S
Gd601 O628 2.448 . S
Gd601 O629 2.506 1_554 S
Gd601 O630 2.435 . S
Gd601 O631 2.717 . S
C602 O620 1.240 . S
C602 O621 1.240 . S
C603 Gd600 2.818 . S
C603 C604 1.510 . S
C603 O622 1.249 . S
C603 O623 1.252 . S
C604 C603 1.510 . S
C604 C605 1.404 . S
C604 C606 1.352 . S
C605 C604 1.404 . S
C605 C609 1.389 . S
C605 H632 0.930 . S
C606 C604 1.352 . S
C606 C608 1.374 . S
C606 H633 0.931 . S
C607 C608 1.359 . S
C607 C609 1.364 . S
C608 C606 1.374 . S
C608 C607 1.359 . S
C608 H634 0.931 . S
C609 C605 1.389 . S
C609 C607 1.364 . S
C609 H635 0.931 . S
C610 O624 1.256 . S
C610 O625 1.257 . S
C611 O626 1.240 . S
C611 O627 1.240 . S
C612 Gd601 2.818 1_556 S
C612 C613 1.510 . S
C612 O628 1.249 1_556 S
C612 O629 1.252 . S
C613 C612 1.510 . S
C613 C614 1.404 . S
C613 C615 1.352 . S
C614 C613 1.404 . S
C614 C618 1.389 . S
C614 H636 0.930 . S
C615 C613 1.352 . S
C615 C617 1.374 . S
C615 H637 0.931 . S
C616 C617 1.359 . S
C616 C618 1.364 . S
C617 C615 1.374 . S
C617 C616 1.359 . S
C617 H638 0.931 . S
C618 C614 1.389 . S
C618 C616 1.364 . S
C618 H639 0.931 1_565 S
C619 O630 1.256 . S
C619 O631 1.257 . S
O620 Gd600 2.377 . S
O620 C602 1.240 . S
O621 Gd601 2.395 . S
O621 C602 1.240 . S
O622 Gd600 2.448 . S
O622 C603 1.249 . S
O623 Gd600 2.506 . S
O623 C603 1.252 . S
O624 Gd600 2.435 . S
O624 C610 1.256 . S
O625 Gd600 2.717 . S
O625 Gd601 2.327 . S
O625 C610 1.257 . S
O626 Gd601 2.377 1_556 S
O626 C611 1.240 . S
O627 Gd600 2.395 1_556 S
O627 C611 1.240 . S
O628 Gd601 2.448 . S
O628 C612 1.249 1_554 S
O629 Gd601 2.506 1_556 S
O629 C612 1.252 . S
O630 Gd601 2.435 . S
O630 C619 1.256 . S
O631 Gd600 2.327 . S
O631 Gd601 2.717 . S
O631 C619 1.257 . S
H632 C605 0.930 . S
H633 C606 0.931 . S
H634 C608 0.931 . S
H635 C609 0.931 . S
H636 C614 0.930 . S
H637 C615 0.931 . S
H638 C617 0.931 . S
H639 C618 0.931 1_545 S
Gd640 C643 2.818 . S
Gd640 O660 2.377 . S
Gd640 O662 2.448 . S
Gd640 O663 2.506 . S
Gd640 O664 2.435 . S
Gd640 O665 2.717 . S
Gd640 O667 2.395 . S
Gd640 O671 2.327 . S
Gd641 C652 2.818 . S
Gd641 O661 2.395 . S
Gd641 O665 2.327 . S
Gd641 O666 2.377 . S
Gd641 O668 2.448 . S
Gd641 O669 2.506 . S
Gd641 O670 2.435 . S
Gd641 O671 2.717 . S
C642 O660 1.240 . S
C642 O661 1.240 . S
C643 Gd640 2.818 . S
C643 C644 1.510 . S
C643 O662 1.249 . S
C643 O663 1.252 . S
C644 C643 1.510 . S
C644 C645 1.404 . S
C644 C646 1.352 . S
C645 C644 1.404 . S
C645 C649 1.389 . S
C645 H672 0.930 . S
C646 C644 1.352 . S
C646 C648 1.374 . S
C646 H673 0.931 . S
C647 C648 1.359 . S
C647 C649 1.364 . S
C648 C646 1.374 . S
C648 C647 1.359 . S
C648 H674 0.931 . S
C649 C645 1.389 . S
C649 C647 1.364 . S
C649 H675 0.931 . S
C650 O664 1.256 . S
C650 O665 1.257 . S
C651 O666 1.240 . S
C651 O667 1.240 . S
C652 Gd641 2.818 . S
C652 C653 1.510 . S
C652 O668 1.249 . S
C652 O669 1.252 . S
C653 C652 1.510 . S
C653 C654 1.404 . S
C653 C655 1.352 . S
C654 C653 1.404 . S
C654 C658 1.389 . S
C654 H676 0.930 . S
C655 C653 1.352 . S
C655 C657 1.374 . S
C655 H677 0.931 . S
C656 C657 1.359 . S
C656 C658 1.364 . S
C657 C655 1.374 . S
C657 C656 1.359 . S
C657 H678 0.931 . S
C658 C654 1.389 . S
C658 C656 1.364 . S
C658 H679 0.931 . S
C659 O670 1.256 . S
C659 O671 1.257 . S
O660 Gd640 2.377 . S
O660 C642 1.240 . S
O661 Gd641 2.395 . S
O661 C642 1.240 . S
O662 Gd640 2.448 . S
O662 C643 1.249 . S
O663 Gd640 2.506 . S
O663 C643 1.252 . S
O664 Gd640 2.435 . S
O664 C650 1.256 . S
O665 Gd640 2.717 . S
O665 Gd641 2.327 . S
O665 C650 1.257 . S
O666 Gd641 2.377 . S
O666 C651 1.240 . S
O667 Gd640 2.395 . S
O667 C651 1.240 . S
O668 Gd641 2.448 . S
O668 C652 1.249 . S
O669 Gd641 2.506 . S
O669 C652 1.252 . S
O670 Gd641 2.435 . S
O670 C659 1.256 . S
O671 Gd640 2.327 . S
O671 Gd641 2.717 . S
O671 C659 1.257 . S
H672 C645 0.930 . S
H673 C646 0.931 . S
H674 C648 0.931 . S
H675 C649 0.931 . S
H676 C654 0.930 . S
H677 C655 0.931 . S
H678 C657 0.931 . S
H679 C658 0.931 . S
Gd680 C683 2.818 1_554 S
Gd680 O700 2.377 1_554 S
Gd680 O702 2.448 . S
Gd680 O703 2.506 1_554 S
Gd680 O704 2.435 . S
Gd680 O705 2.717 . S
Gd680 O707 2.395 . S
Gd680 O711 2.327 . S
Gd681 C692 2.818 . S
Gd681 O701 2.395 1_554 S
Gd681 O705 2.327 . S
Gd681 O706 2.377 . S
Gd681 O708 2.448 . S
Gd681 O709 2.506 . S
Gd681 O710 2.435 . S
Gd681 O711 2.717 . S
C682 O700 1.240 . S
C682 O701 1.240 . S
C683 Gd680 2.818 1_556 S
C683 C684 1.510 . S
C683 O702 1.249 1_556 S
C683 O703 1.252 . S
C684 C683 1.510 . S
C684 C685 1.404 . S
C684 C686 1.352 . S
C685 C684 1.404 . S
C685 C689 1.389 . S
C685 H712 0.930 . S
C686 C684 1.352 . S
C686 C688 1.374 . S
C686 H713 0.931 . S
C687 C688 1.359 . S
C687 C689 1.364 . S
C688 C686 1.374 . S
C688 C687 1.359 . S
C688 H714 0.931 . S
C689 C685 1.389 . S
C689 C687 1.364 . S
C689 H715 0.931 . S
C690 O704 1.256 . S
C690 O705 1.257 . S
C691 O706 1.240 . S
C691 O707 1.240 . S
C692 Gd681 2.818 . S
C692 C693 1.510 . S
C692 O708 1.249 . S
C692 O709 1.252 . S
C693 C692 1.510 . S
C693 C694 1.404 . S
C693 C695 1.352 . S
C694 C693 1.404 . S
C694 C698 1.389 . S
C694 H716 0.930 . S
C695 C693 1.352 . S
C695 C697 1.374 . S
C695 H717 0.931 . S
C696 C697 1.359 . S
C696 C698 1.364 . S
C697 C695 1.374 . S
C697 C696 1.359 . S
C697 H718 0.931 . S
C698 C694 1.389 . S
C698 C696 1.364 . S
C698 H719 0.931 . S
C699 O710 1.256 . S
C699 O711 1.257 . S
O700 Gd680 2.377 1_556 S
O700 C682 1.240 . S
O701 Gd681 2.395 1_556 S
O701 C682 1.240 . S
O702 Gd680 2.448 . S
O702 C683 1.249 1_554 S
O703 Gd680 2.506 1_556 S
O703 C683 1.252 . S
O704 Gd680 2.435 . S
O704 C690 1.256 . S
O705 Gd680 2.717 . S
O705 Gd681 2.327 . S
O705 C690 1.257 . S
O706 Gd681 2.377 . S
O706 C691 1.240 . S
O707 Gd680 2.395 . S
O707 C691 1.240 . S
O708 Gd681 2.448 . S
O708 C692 1.249 . S
O709 Gd681 2.506 . S
O709 C692 1.252 . S
O710 Gd681 2.435 . S
O710 C699 1.256 . S
O711 Gd680 2.327 . S
O711 Gd681 2.717 . S
O711 C699 1.257 . S
H712 C685 0.930 . S
H713 C686 0.931 . S
H714 C688 0.931 . S
H715 C689 0.931 . S
H716 C694 0.930 . S
H717 C695 0.931 . S
H718 C697 0.931 . S
H719 C698 0.931 . S
Gd720 C723 2.818 . S
Gd720 O740 2.377 . S
Gd720 O742 2.448 . S
Gd720 O743 2.506 . S
Gd720 O744 2.435 . S
Gd720 O745 2.717 . S
Gd720 O747 2.395 . S
Gd720 O751 2.327 . S
Gd721 C732 2.818 . S
Gd721 O741 2.395 . S
Gd721 O745 2.327 . S
Gd721 O746 2.377 . S
Gd721 O748 2.448 . S
Gd721 O749 2.506 . S
Gd721 O750 2.435 . S
Gd721 O751 2.717 . S
C722 O740 1.240 . S
C722 O741 1.240 . S
C723 Gd720 2.818 . S
C723 C724 1.510 . S
C723 O742 1.249 . S
C723 O743 1.252 . S
C724 C723 1.510 . S
C724 C725 1.404 . S
C724 C726 1.352 . S
C725 C724 1.404 . S
C725 C729 1.389 . S
C725 H752 0.930 . S
C726 C724 1.352 . S
C726 C728 1.374 . S
C726 H753 0.931 . S
C727 C728 1.359 . S
C727 C729 1.364 . S
C728 C726 1.374 . S
C728 C727 1.359 . S
C728 H754 0.931 . S
C729 C725 1.389 . S
C729 C727 1.364 . S
C729 H755 0.931 . S
C730 O744 1.256 . S
C730 O745 1.257 . S
C731 O746 1.240 . S
C731 O747 1.240 . S
C732 Gd721 2.818 . S
C732 C733 1.510 . S
C732 O748 1.249 . S
C732 O749 1.252 . S
C733 C732 1.510 . S
C733 C734 1.404 . S
C733 C735 1.352 . S
C734 C733 1.404 . S
C734 C738 1.389 . S
C734 H756 0.930 . S
C735 C733 1.352 . S
C735 C737 1.374 . S
C735 H757 0.931 . S
C736 C737 1.359 . S
C736 C738 1.364 . S
C737 C735 1.374 . S
C737 C736 1.359 . S
C737 H758 0.931 . S
C738 C734 1.389 . S
C738 C736 1.364 . S
C738 H759 0.931 . S
C739 O750 1.256 . S
C739 O751 1.257 . S
O740 Gd720 2.377 . S
O740 C722 1.240 . S
O741 Gd721 2.395 . S
O741 C722 1.240 . S
O742 Gd720 2.448 . S
O742 C723 1.249 . S
O743 Gd720 2.506 . S
O743 C723 1.252 . S
O744 Gd720 2.435 . S
O744 C730 1.256 . S
O745 Gd720 2.717 . S
O745 Gd721 2.327 . S
O745 C730 1.257 . S
O746 Gd721 2.377 . S
O746 C731 1.240 . S
O747 Gd720 2.395 . S
O747 C731 1.240 . S
O748 Gd721 2.448 . S
O748 C732 1.249 . S
O749 Gd721 2.506 . S
O749 C732 1.252 . S
O750 Gd721 2.435 . S
O750 C739 1.256 . S
O751 Gd720 2.327 . S
O751 Gd721 2.717 . S
O751 C739 1.257 . S
H752 C725 0.930 . S
H753 C726 0.931 . S
H754 C728 0.931 . S
H755 C729 0.931 . S
H756 C734 0.930 . S
H757 C735 0.931 . S
H758 C737 0.931 . S
H759 C738 0.931 . S
Gd760 C763 2.818 . S
Gd760 O780 2.377 . S
Gd760 O782 2.448 . S
Gd760 O783 2.506 . S
Gd760 O784 2.435 . S
Gd760 O785 2.717 . S
Gd760 O787 2.395 . S
Gd760 O791 2.327 . S
Gd761 C772 2.818 . S
Gd761 O781 2.395 . S
Gd761 O785 2.327 . S
Gd761 O786 2.377 . S
Gd761 O788 2.448 . S
Gd761 O789 2.506 . S
Gd761 O790 2.435 . S
Gd761 O791 2.717 . S
C762 O780 1.240 . S
C762 O781 1.240 . S
C763 Gd760 2.818 . S
C763 C764 1.510 . S
C763 O782 1.249 . S
C763 O783 1.252 . S
C764 C763 1.510 . S
C764 C765 1.404 . S
C764 C766 1.352 . S
C765 C764 1.404 . S
C765 C769 1.389 . S
C765 H792 0.930 . S
C766 C764 1.352 . S
C766 C768 1.374 . S
C766 H793 0.931 . S
C767 C768 1.359 . S
C767 C769 1.364 . S
C768 C766 1.374 . S
C768 C767 1.359 . S
C768 H794 0.931 . S
C769 C765 1.389 . S
C769 C767 1.364 . S
C769 H795 0.931 . S
C770 O784 1.256 . S
C770 O785 1.257 . S
C771 O786 1.240 . S
C771 O787 1.240 . S
C772 Gd761 2.818 . S
C772 C773 1.510 . S
C772 O788 1.249 . S
C772 O789 1.252 . S
C773 C772 1.510 . S
C773 C774 1.404 . S
C773 C775 1.352 . S
C774 C773 1.404 . S
C774 C778 1.389 . S
C774 H796 0.930 . S
C775 C773 1.352 . S
C775 C777 1.374 . S
C775 H797 0.931 . S
C776 C777 1.359 . S
C776 C778 1.364 . S
C777 C775 1.374 . S
C777 C776 1.359 . S
C777 H798 0.931 . S
C778 C774 1.389 . S
C778 C776 1.364 . S
C778 H799 0.931 . S
C779 O790 1.256 . S
C779 O791 1.257 . S
O780 Gd760 2.377 . S
O780 C762 1.240 . S
O781 Gd761 2.395 . S
O781 C762 1.240 . S
O782 Gd760 2.448 . S
O782 C763 1.249 . S
O783 Gd760 2.506 . S
O783 C763 1.252 . S
O784 Gd760 2.435 . S
O784 C770 1.256 . S
O785 Gd760 2.717 . S
O785 Gd761 2.327 . S
O785 C770 1.257 . S
O786 Gd761 2.377 . S
O786 C771 1.240 . S
O787 Gd760 2.395 . S
O787 C771 1.240 . S
O788 Gd761 2.448 . S
O788 C772 1.249 . S
O789 Gd761 2.506 . S
O789 C772 1.252 . S
O790 Gd761 2.435 . S
O790 C779 1.256 . S
O791 Gd760 2.327 . S
O791 Gd761 2.717 . S
O791 C779 1.257 . S
H792 C765 0.930 . S
H793 C766 0.931 . S
H794 C768 0.931 . S
H795 C769 0.931 . S
H796 C774 0.930 . S
H797 C775 0.931 . S
H798 C777 0.931 . S
H799 C778 0.931 . S
Gd800 C803 2.818 . S
Gd800 O820 2.377 . S
Gd800 O822 2.448 . S
Gd800 O823 2.506 . S
Gd800 O824 2.435 . S
Gd800 O825 2.717 . S
Gd800 O827 2.395 . S
Gd800 O831 2.327 . S
Gd801 C812 2.818 . S
Gd801 O821 2.395 . S
Gd801 O825 2.327 . S
Gd801 O826 2.377 . S
Gd801 O828 2.448 . S
Gd801 O829 2.506 . S
Gd801 O830 2.435 . S
Gd801 O831 2.717 . S
C802 O820 1.240 . S
C802 O821 1.240 . S
C803 Gd800 2.818 . S
C803 C804 1.510 . S
C803 O822 1.249 . S
C803 O823 1.252 . S
C804 C803 1.510 . S
C804 C805 1.404 . S
C804 C806 1.352 . S
C805 C804 1.404 . S
C805 C809 1.389 . S
C805 H832 0.930 . S
C806 C804 1.352 . S
C806 C808 1.374 . S
C806 H833 0.931 . S
C807 C808 1.359 . S
C807 C809 1.364 . S
C808 C806 1.374 . S
C808 C807 1.359 . S
C808 H834 0.931 . S
C809 C805 1.389 . S
C809 C807 1.364 . S
C809 H835 0.931 . S
C810 O824 1.256 . S
C810 O825 1.257 . S
C811 O826 1.240 . S
C811 O827 1.240 . S
C812 Gd801 2.818 . S
C812 C813 1.510 . S
C812 O828 1.249 . S
C812 O829 1.252 . S
C813 C812 1.510 . S
C813 C814 1.404 . S
C813 C815 1.352 . S
C814 C813 1.404 . S
C814 C818 1.389 . S
C814 H836 0.930 . S
C815 C813 1.352 . S
C815 C817 1.374 . S
C815 H837 0.931 . S
C816 C817 1.359 . S
C816 C818 1.364 . S
C817 C815 1.374 . S
C817 C816 1.359 . S
C817 H838 0.931 . S
C818 C814 1.389 . S
C818 C816 1.364 . S
C818 H839 0.931 . S
C819 O830 1.256 . S
C819 O831 1.257 . S
O820 Gd800 2.377 . S
O820 C802 1.240 . S
O821 Gd801 2.395 . S
O821 C802 1.240 . S
O822 Gd800 2.448 . S
O822 C803 1.249 . S
O823 Gd800 2.506 . S
O823 C803 1.252 . S
O824 Gd800 2.435 . S
O824 C810 1.256 . S
O825 Gd800 2.717 . S
O825 Gd801 2.327 . S
O825 C810 1.257 . S
O826 Gd801 2.377 . S
O826 C811 1.240 . S
O827 Gd800 2.395 . S
O827 C811 1.240 . S
O828 Gd801 2.448 . S
O828 C812 1.249 . S
O829 Gd801 2.506 . S
O829 C812 1.252 . S
O830 Gd801 2.435 . S
O830 C819 1.256 . S
O831 Gd800 2.327 . S
O831 Gd801 2.717 . S
O831 C819 1.257 . S
H832 C805 0.930 . S
H833 C806 0.931 . S
H834 C808 0.931 . S
H835 C809 0.931 . S
H836 C814 0.930 . S
H837 C815 0.931 . S
H838 C817 0.931 . S
H839 C818 0.931 . S
Gd840 C843 2.818 1_556 S
Gd840 O860 2.377 1_556 S
Gd840 O862 2.448 . S
Gd840 O863 2.506 1_556 S
Gd840 O864 2.435 . S
Gd840 O865 2.717 . S
Gd840 O867 2.395 . S
Gd840 O871 2.327 . S
Gd841 C852 2.818 . S
Gd841 O861 2.395 1_556 S
Gd841 O865 2.327 . S
Gd841 O866 2.377 . S
Gd841 O868 2.448 . S
Gd841 O869 2.506 . S
Gd841 O870 2.435 . S
Gd841 O871 2.717 . S
C842 O860 1.240 . S
C842 O861 1.240 . S
C843 Gd840 2.818 1_554 S
C843 C844 1.510 . S
C843 O862 1.249 1_554 S
C843 O863 1.252 . S
C844 C843 1.510 . S
C844 C845 1.404 . S
C844 C846 1.352 . S
C845 C844 1.404 . S
C845 C849 1.389 . S
C845 H872 0.930 . S
C846 C844 1.352 . S
C846 C848 1.374 . S
C846 H873 0.931 . S
C847 C848 1.359 . S
C847 C849 1.364 . S
C848 C846 1.374 . S
C848 C847 1.359 . S
C848 H874 0.931 . S
C849 C845 1.389 . S
C849 C847 1.364 . S
C849 H875 0.931 . S
C850 O864 1.256 . S
C850 O865 1.257 . S
C851 O866 1.240 . S
C851 O867 1.240 . S
C852 Gd841 2.818 . S
C852 C853 1.510 . S
C852 O868 1.249 . S
C852 O869 1.252 . S
C853 C852 1.510 . S
C853 C854 1.404 . S
C853 C855 1.352 . S
C854 C853 1.404 . S
C854 C858 1.389 . S
C854 H876 0.930 . S
C855 C853 1.352 . S
C855 C857 1.374 . S
C855 H877 0.931 . S
C856 C857 1.359 . S
C856 C858 1.364 . S
C857 C855 1.374 . S
C857 C856 1.359 . S
C857 H878 0.931 . S
C858 C854 1.389 . S
C858 C856 1.364 . S
C858 H879 0.931 . S
C859 O870 1.256 . S
C859 O871 1.257 . S
O860 Gd840 2.377 1_554 S
O860 C842 1.240 . S
O861 Gd841 2.395 1_554 S
O861 C842 1.240 . S
O862 Gd840 2.448 . S
O862 C843 1.249 1_556 S
O863 Gd840 2.506 1_554 S
O863 C843 1.252 . S
O864 Gd840 2.435 . S
O864 C850 1.256 . S
O865 Gd840 2.717 . S
O865 Gd841 2.327 . S
O865 C850 1.257 . S
O866 Gd841 2.377 . S
O866 C851 1.240 . S
O867 Gd840 2.395 . S
O867 C851 1.240 . S
O868 Gd841 2.448 . S
O868 C852 1.249 . S
O869 Gd841 2.506 . S
O869 C852 1.252 . S
O870 Gd841 2.435 . S
O870 C859 1.256 . S
O871 Gd840 2.327 . S
O871 Gd841 2.717 . S
O871 C859 1.257 . S
H872 C845 0.930 . S
H873 C846 0.931 . S
H874 C848 0.931 . S
H875 C849 0.931 . S
H876 C854 0.930 . S
H877 C855 0.931 . S
H878 C857 0.931 . S
H879 C858 0.931 . S
Gd880 C883 2.818 . S
Gd880 O900 2.377 . S
Gd880 O902 2.448 . S
Gd880 O903 2.506 . S
Gd880 O904 2.435 . S
Gd880 O905 2.717 . S
Gd880 O907 2.395 . S
Gd880 O911 2.327 . S
Gd881 C892 2.818 . S
Gd881 O901 2.395 . S
Gd881 O905 2.327 . S
Gd881 O906 2.377 . S
Gd881 O908 2.448 . S
Gd881 O909 2.506 . S
Gd881 O910 2.435 . S
Gd881 O911 2.717 . S
C882 O900 1.240 . S
C882 O901 1.240 . S
C883 Gd880 2.818 . S
C883 C884 1.510 . S
C883 O902 1.249 . S
C883 O903 1.252 . S
C884 C883 1.510 . S
C884 C885 1.404 . S
C884 C886 1.352 . S
C885 C884 1.404 . S
C885 C889 1.389 . S
C885 H912 0.930 . S
C886 C884 1.352 . S
C886 C888 1.374 . S
C886 H913 0.931 . S
C887 C888 1.359 . S
C887 C889 1.364 . S
C888 C886 1.374 . S
C888 C887 1.359 . S
C888 H914 0.931 . S
C889 C885 1.389 . S
C889 C887 1.364 . S
C889 H915 0.931 . S
C890 O904 1.256 . S
C890 O905 1.257 . S
C891 O906 1.240 . S
C891 O907 1.240 . S
C892 Gd881 2.818 . S
C892 C893 1.510 . S
C892 O908 1.249 . S
C892 O909 1.252 . S
C893 C892 1.510 . S
C893 C894 1.404 . S
C893 C895 1.352 . S
C894 C893 1.404 . S
C894 C898 1.389 . S
C894 H916 0.930 . S
C895 C893 1.352 . S
C895 C897 1.374 . S
C895 H917 0.931 . S
C896 C897 1.359 . S
C896 C898 1.364 . S
C897 C895 1.374 . S
C897 C896 1.359 . S
C897 H918 0.931 . S
C898 C894 1.389 . S
C898 C896 1.364 . S
C898 H919 0.931 . S
C899 O910 1.256 . S
C899 O911 1.257 . S
O900 Gd880 2.377 . S
O900 C882 1.240 . S
O901 Gd881 2.395 . S
O901 C882 1.240 . S
O902 Gd880 2.448 . S
O902 C883 1.249 . S
O903 Gd880 2.506 . S
O903 C883 1.252 . S
O904 Gd880 2.435 . S
O904 C890 1.256 . S
O905 Gd880 2.717 . S
O905 Gd881 2.327 . S
O905 C890 1.257 . S
O906 Gd881 2.377 . S
O906 C891 1.240 . S
O907 Gd880 2.395 . S
O907 C891 1.240 . S
O908 Gd881 2.448 . S
O908 C892 1.249 . S
O909 Gd881 2.506 . S
O909 C892 1.252 . S
O910 Gd881 2.435 . S
O910 C899 1.256 . S
O911 Gd880 2.327 . S
O911 Gd881 2.717 . S
O911 C899 1.257 . S
H912 C885 0.930 . S
H913 C886 0.931 . S
H914 C888 0.931 . S
H915 C889 0.931 . S
H916 C894 0.930 . S
H917 C895 0.931 . S
H918 C897 0.931 . S
H919 C898 0.931 . S
Gd920 C923 2.818 . S
Gd920 O940 2.377 . S
Gd920 O942 2.448 . S
Gd920 O943 2.506 . S
Gd920 O944 2.435 . S
Gd920 O945 2.717 . S
Gd920 O947 2.395 . S
Gd920 O951 2.327 . S
Gd921 C932 2.818 . S
Gd921 O941 2.395 . S
Gd921 O945 2.327 . S
Gd921 O946 2.377 . S
Gd921 O948 2.448 . S
Gd921 O949 2.506 . S
Gd921 O950 2.435 . S
Gd921 O951 2.717 . S
C922 O940 1.240 . S
C922 O941 1.240 . S
C923 Gd920 2.818 . S
C923 C924 1.510 . S
C923 O942 1.249 . S
C923 O943 1.252 . S
C924 C923 1.510 . S
C924 C925 1.404 . S
C924 C926 1.352 . S
C925 C924 1.404 . S
C925 C929 1.389 . S
C925 H952 0.930 . S
C926 C924 1.352 . S
C926 C928 1.374 . S
C926 H953 0.931 . S
C927 C928 1.359 . S
C927 C929 1.364 . S
C928 C926 1.374 . S
C928 C927 1.359 . S
C928 H954 0.931 . S
C929 C925 1.389 . S
C929 C927 1.364 . S
C929 H955 0.931 . S
C930 O944 1.256 . S
C930 O945 1.257 . S
C931 O946 1.240 . S
C931 O947 1.240 . S
C932 Gd921 2.818 . S
C932 C933 1.510 . S
C932 O948 1.249 . S
C932 O949 1.252 . S
C933 C932 1.510 . S
C933 C934 1.404 . S
C933 C935 1.352 . S
C934 C933 1.404 . S
C934 C938 1.389 . S
C934 H956 0.930 . S
C935 C933 1.352 . S
C935 C937 1.374 . S
C935 H957 0.931 . S
C936 C937 1.359 . S
C936 C938 1.364 . S
C937 C935 1.374 . S
C937 C936 1.359 . S
C937 H958 0.931 . S
C938 C934 1.389 . S
C938 C936 1.364 . S
C938 H959 0.931 . S
C939 O950 1.256 . S
C939 O951 1.257 . S
O940 Gd920 2.377 . S
O940 C922 1.240 . S
O941 Gd921 2.395 . S
O941 C922 1.240 . S
O942 Gd920 2.448 . S
O942 C923 1.249 . S
O943 Gd920 2.506 . S
O943 C923 1.252 . S
O944 Gd920 2.435 . S
O944 C930 1.256 . S
O945 Gd920 2.717 . S
O945 Gd921 2.327 . S
O945 C930 1.257 . S
O946 Gd921 2.377 . S
O946 C931 1.240 . S
O947 Gd920 2.395 . S
O947 C931 1.240 . S
O948 Gd921 2.448 . S
O948 C932 1.249 . S
O949 Gd921 2.506 . S
O949 C932 1.252 . S
O950 Gd921 2.435 . S
O950 C939 1.256 . S
O951 Gd920 2.327 . S
O951 Gd921 2.717 . S
O951 C939 1.257 . S
H952 C925 0.930 . S
H953 C926 0.931 . S
H954 C928 0.931 . S
H955 C929 0.931 . S
H956 C934 0.930 . S
H957 C935 0.931 . S
H958 C937 0.931 . S
H959 C938 0.931 . S
Gd960 C963 2.818 . S
Gd960 O980 2.377 . S
Gd960 O982 2.448 . S
Gd960 O983 2.506 . S
Gd960 O984 2.435 . S
Gd960 O985 2.717 . S
Gd960 O987 2.395 . S
Gd960 O991 2.327 . S
Gd961 C972 2.818 . S
Gd961 O981 2.395 . S
Gd961 O985 2.327 . S
Gd961 O986 2.377 . S
Gd961 O988 2.448 . S
Gd961 O989 2.506 . S
Gd961 O990 2.435 . S
Gd961 O991 2.717 . S
C962 O980 1.240 . S
C962 O981 1.240 . S
C963 Gd960 2.818 . S
C963 C964 1.510 . S
C963 O982 1.249 . S
C963 O983 1.252 . S
C964 C963 1.510 . S
C964 C965 1.404 . S
C964 C966 1.352 . S
C965 C964 1.404 . S
C965 C969 1.389 . S
C965 H992 0.930 . S
C966 C964 1.352 . S
C966 C968 1.374 . S
C966 H993 0.931 . S
C967 C968 1.359 . S
C967 C969 1.364 . S
C968 C966 1.374 . S
C968 C967 1.359 . S
C968 H994 0.931 . S
C969 C965 1.389 . S
C969 C967 1.364 . S
C969 H995 0.931 . S
C970 O984 1.256 . S
C970 O985 1.257 . S
C971 O986 1.240 . S
C971 O987 1.240 . S
C972 Gd961 2.818 . S
C972 C973 1.510 . S
C972 O988 1.249 . S
C972 O989 1.252 . S
C973 C972 1.510 . S
C973 C974 1.404 . S
C973 C975 1.352 . S
C974 C973 1.404 . S
C974 C978 1.389 . S
C974 H996 0.930 . S
C975 C973 1.352 . S
C975 C977 1.374 . S
C975 H997 0.931 . S
C976 C977 1.359 . S
C976 C978 1.364 . S
C977 C975 1.374 . S
C977 C976 1.359 . S
C977 H998 0.931 . S
C978 C974 1.389 . S
C978 C976 1.364 . S
C978 H999 0.931 . S
C979 O990 1.256 . S
C979 O991 1.257 . S
O980 Gd960 2.377 . S
O980 C962 1.240 . S
O981 Gd961 2.395 . S
O981 C962 1.240 . S
O982 Gd960 2.448 . S
O982 C963 1.249 . S
O983 Gd960 2.506 . S
O983 C963 1.252 . S
O984 Gd960 2.435 . S
O984 C970 1.256 . S
O985 Gd960 2.717 . S
O985 Gd961 2.327 . S
O985 C970 1.257 . S
O986 Gd961 2.377 . S
O986 C971 1.240 . S
O987 Gd960 2.395 . S
O987 C971 1.240 . S
O988 Gd961 2.448 . S
O988 C972 1.249 . S
O989 Gd961 2.506 . S
O989 C972 1.252 . S
O990 Gd961 2.435 . S
O990 C979 1.256 . S
O991 Gd960 2.327 . S
O991 Gd961 2.717 . S
O991 C979 1.257 . S
H992 C965 0.930 . S
H993 C966 0.931 . S
H994 C968 0.931 . S
H995 C969 0.931 . S
H996 C974 0.930 . S
H997 C975 0.931 . S
H998 C977 0.931 . S
H999 C978 0.931 . S
Gd1000 C1003 2.818 . S
Gd1000 O1020 2.377 . S
Gd1000 O1022 2.448 . S
Gd1000 O1023 2.506 . S
Gd1000 O1024 2.435 . S
Gd1000 O1025 2.717 . S
Gd1000 O1027 2.395 1_556 S
Gd1000 O1031 2.327 . S
Gd1001 C1012 2.818 1_556 S
Gd1001 O1021 2.395 . S
Gd1001 O1025 2.327 . S
Gd1001 O1026 2.377 1_556 S
Gd1001 O1028 2.448 . S
Gd1001 O1029 2.506 1_556 S
Gd1001 O1030 2.435 . S
Gd1001 O1031 2.717 . S
C1002 O1020 1.240 . S
C1002 O1021 1.240 . S
C1003 Gd1000 2.818 . S
C1003 C1004 1.510 . S
C1003 O1022 1.249 . S
C1003 O1023 1.252 . S
C1004 C1003 1.510 . S
C1004 C1005 1.404 . S
C1004 C1006 1.352 . S
C1005 C1004 1.404 . S
C1005 C1009 1.389 . S
C1005 H1032 0.930 . S
C1006 C1004 1.352 . S
C1006 C1008 1.374 . S
C1006 H1033 0.931 . S
C1007 C1008 1.359 . S
C1007 C1009 1.364 . S
C1008 C1006 1.374 . S
C1008 C1007 1.359 . S
C1008 H1034 0.931 . S
C1009 C1005 1.389 . S
C1009 C1007 1.364 . S
C1009 H1035 0.931 . S
C1010 O1024 1.256 . S
C1010 O1025 1.257 . S
C1011 O1026 1.240 . S
C1011 O1027 1.240 . S
C1012 Gd1001 2.818 1_554 S
C1012 C1013 1.510 . S
C1012 O1028 1.249 1_554 S
C1012 O1029 1.252 . S
C1013 C1012 1.510 . S
C1013 C1014 1.404 . S
C1013 C1015 1.352 . S
C1014 C1013 1.404 . S
C1014 C1018 1.389 . S
C1014 H1036 0.930 . S
C1015 C1013 1.352 . S
C1015 C1017 1.374 . S
C1015 H1037 0.931 . S
C1016 C1017 1.359 . S
C1016 C1018 1.364 . S
C1017 C1015 1.374 . S
C1017 C1016 1.359 . S
C1017 H1038 0.931 . S
C1018 C1014 1.389 . S
C1018 C1016 1.364 . S
C1018 H1039 0.931 . S
C1019 O1030 1.256 . S
C1019 O1031 1.257 . S
O1020 Gd1000 2.377 . S
O1020 C1002 1.240 . S
O1021 Gd1001 2.395 . S
O1021 C1002 1.240 . S
O1022 Gd1000 2.448 . S
O1022 C1003 1.249 . S
O1023 Gd1000 2.506 . S
O1023 C1003 1.252 . S
O1024 Gd1000 2.435 . S
O1024 C1010 1.256 . S
O1025 Gd1000 2.717 . S
O1025 Gd1001 2.327 . S
O1025 C1010 1.257 . S
O1026 Gd1001 2.377 1_554 S
O1026 C1011 1.240 . S
O1027 Gd1000 2.395 1_554 S
O1027 C1011 1.240 . S
O1028 Gd1001 2.448 . S
O1028 C1012 1.249 1_556 S
O1029 Gd1001 2.506 1_554 S
O1029 C1012 1.252 . S
O1030 Gd1001 2.435 . S
O1030 C1019 1.256 . S
O1031 Gd1000 2.327 . S
O1031 Gd1001 2.717 . S
O1031 C1019 1.257 . S
H1032 C1005 0.930 . S
H1033 C1006 0.931 . S
H1034 C1008 0.931 . S
H1035 C1009 0.931 . S
H1036 C1014 0.930 . S
H1037 C1015 0.931 . S
H1038 C1017 0.931 . S
H1039 C1018 0.931 . S
Gd1040 C1043 2.818 . S
Gd1040 O1060 2.377 . S
Gd1040 O1062 2.448 . S
Gd1040 O1063 2.506 . S
Gd1040 O1064 2.435 . S
Gd1040 O1065 2.717 . S
Gd1040 O1067 2.395 . S
Gd1040 O1071 2.327 . S
Gd1041 C1052 2.818 . S
Gd1041 O1061 2.395 . S
Gd1041 O1065 2.327 . S
Gd1041 O1066 2.377 . S
Gd1041 O1068 2.448 . S
Gd1041 O1069 2.506 . S
Gd1041 O1070 2.435 . S
Gd1041 O1071 2.717 . S
C1042 O1060 1.240 . S
C1042 O1061 1.240 . S
C1043 Gd1040 2.818 . S
C1043 C1044 1.510 . S
C1043 O1062 1.249 . S
C1043 O1063 1.252 . S
C1044 C1043 1.510 . S
C1044 C1045 1.404 . S
C1044 C1046 1.352 . S
C1045 C1044 1.404 . S
C1045 C1049 1.389 . S
C1045 H1072 0.930 . S
C1046 C1044 1.352 . S
C1046 C1048 1.374 . S
C1046 H1073 0.931 . S
C1047 C1048 1.359 . S
C1047 C1049 1.364 . S
C1048 C1046 1.374 . S
C1048 C1047 1.359 . S
C1048 H1074 0.931 . S
C1049 C1045 1.389 . S
C1049 C1047 1.364 . S
C1049 H1075 0.931 . S
C1050 O1064 1.256 . S
C1050 O1065 1.257 . S
C1051 O1066 1.240 . S
C1051 O1067 1.240 . S
C1052 Gd1041 2.818 . S
C1052 C1053 1.510 . S
C1052 O1068 1.249 . S
C1052 O1069 1.252 . S
C1053 C1052 1.510 . S
C1053 C1054 1.404 . S
C1053 C1055 1.352 . S
C1054 C1053 1.404 . S
C1054 C1058 1.389 . S
C1054 H1076 0.930 . S
C1055 C1053 1.352 . S
C1055 C1057 1.374 . S
C1055 H1077 0.931 . S
C1056 C1057 1.359 . S
C1056 C1058 1.364 . S
C1057 C1055 1.374 . S
C1057 C1056 1.359 . S
C1057 H1078 0.931 . S
C1058 C1054 1.389 . S
C1058 C1056 1.364 . S
C1058 H1079 0.931 . S
C1059 O1070 1.256 . S
C1059 O1071 1.257 . S
O1060 Gd1040 2.377 . S
O1060 C1042 1.240 . S
O1061 Gd1041 2.395 . S
O1061 C1042 1.240 . S
O1062 Gd1040 2.448 . S
O1062 C1043 1.249 . S
O1063 Gd1040 2.506 . S
O1063 C1043 1.252 . S
O1064 Gd1040 2.435 . S
O1064 C1050 1.256 . S
O1065 Gd1040 2.717 . S
O1065 Gd1041 2.327 . S
O1065 C1050 1.257 . S
O1066 Gd1041 2.377 . S
O1066 C1051 1.240 . S
O1067 Gd1040 2.395 . S
O1067 C1051 1.240 . S
O1068 Gd1041 2.448 . S
O1068 C1052 1.249 . S
O1069 Gd1041 2.506 . S
O1069 C1052 1.252 . S
O1070 Gd1041 2.435 . S
O1070 C1059 1.256 . S
O1071 Gd1040 2.327 . S
O1071 Gd1041 2.717 . S
O1071 C1059 1.257 . S
H1072 C1045 0.930 . S
H1073 C1046 0.931 . S
H1074 C1048 0.931 . S
H1075 C1049 0.931 . S
H1076 C1054 0.930 . S
H1077 C1055 0.931 . S
H1078 C1057 0.931 . S
H1079 C1058 0.931 . S
Gd1080 C1083 2.818 . S
Gd1080 O1100 2.377 . S
Gd1080 O1102 2.448 . S
Gd1080 O1103 2.506 . S
Gd1080 O1104 2.435 . S
Gd1080 O1105 2.717 . S
Gd1080 O1107 2.395 . S
Gd1080 O1111 2.327 . S
Gd1081 C1092 2.818 . S
Gd1081 O1101 2.395 . S
Gd1081 O1105 2.327 . S
Gd1081 O1106 2.377 . S
Gd1081 O1108 2.448 . S
Gd1081 O1109 2.506 . S
Gd1081 O1110 2.435 . S
Gd1081 O1111 2.717 . S
C1082 O1100 1.240 . S
C1082 O1101 1.240 . S
C1083 Gd1080 2.818 . S
C1083 C1084 1.510 . S
C1083 O1102 1.249 . S
C1083 O1103 1.252 . S
C1084 C1083 1.510 . S
C1084 C1085 1.404 . S
C1084 C1086 1.352 . S
C1085 C1084 1.404 . S
C1085 C1089 1.389 . S
C1085 H1112 0.930 . S
C1086 C1084 1.352 . S
C1086 C1088 1.374 . S
C1086 H1113 0.931 . S
C1087 C1088 1.359 . S
C1087 C1089 1.364 . S
C1088 C1086 1.374 . S
C1088 C1087 1.359 . S
C1088 H1114 0.931 . S
C1089 C1085 1.389 . S
C1089 C1087 1.364 . S
C1089 H1115 0.931 . S
C1090 O1104 1.256 . S
C1090 O1105 1.257 . S
C1091 O1106 1.240 . S
C1091 O1107 1.240 . S
C1092 Gd1081 2.818 . S
C1092 C1093 1.510 . S
C1092 O1108 1.249 . S
C1092 O1109 1.252 . S
C1093 C1092 1.510 . S
C1093 C1094 1.404 . S
C1093 C1095 1.352 . S
C1094 C1093 1.404 . S
C1094 C1098 1.389 . S
C1094 H1116 0.930 . S
C1095 C1093 1.352 . S
C1095 C1097 1.374 . S
C1095 H1117 0.931 . S
C1096 C1097 1.359 . S
C1096 C1098 1.364 . S
C1097 C1095 1.374 . S
C1097 C1096 1.359 . S
C1097 H1118 0.931 . S
C1098 C1094 1.389 . S
C1098 C1096 1.364 . S
C1098 H1119 0.931 . S
C1099 O1110 1.256 . S
C1099 O1111 1.257 . S
O1100 Gd1080 2.377 . S
O1100 C1082 1.240 . S
O1101 Gd1081 2.395 . S
O1101 C1082 1.240 . S
O1102 Gd1080 2.448 . S
O1102 C1083 1.249 . S
O1103 Gd1080 2.506 . S
O1103 C1083 1.252 . S
O1104 Gd1080 2.435 . S
O1104 C1090 1.256 . S
O1105 Gd1080 2.717 . S
O1105 Gd1081 2.327 . S
O1105 C1090 1.257 . S
O1106 Gd1081 2.377 . S
O1106 C1091 1.240 . S
O1107 Gd1080 2.395 . S
O1107 C1091 1.240 . S
O1108 Gd1081 2.448 . S
O1108 C1092 1.249 . S
O1109 Gd1081 2.506 . S
O1109 C1092 1.252 . S
O1110 Gd1081 2.435 . S
O1110 C1099 1.256 . S
O1111 Gd1080 2.327 . S
O1111 Gd1081 2.717 . S
O1111 C1099 1.257 . S
H1112 C1085 0.930 . S
H1113 C1086 0.931 . S
H1114 C1088 0.931 . S
H1115 C1089 0.931 . S
H1116 C1094 0.930 . S
H1117 C1095 0.931 . S
H1118 C1097 0.931 . S
H1119 C1098 0.931 . S
Gd1120 C1123 2.818 . S
Gd1120 O1140 2.377 . S
Gd1120 O1142 2.448 . S
Gd1120 O1143 2.506 . S
Gd1120 O1144 2.435 . S
Gd1120 O1145 2.717 . S
Gd1120 O1147 2.395 . S
Gd1120 O1151 2.327 . S
Gd1121 C1132 2.818 . S
Gd1121 O1141 2.395 . S
Gd1121 O1145 2.327 . S
Gd1121 O1146 2.377 . S
Gd1121 O1148 2.448 . S
Gd1121 O1149 2.506 . S
Gd1121 O1150 2.435 . S
Gd1121 O1151 2.717 . S
C1122 O1140 1.240 . S
C1122 O1141 1.240 . S
C1123 Gd1120 2.818 . S
C1123 C1124 1.510 . S
C1123 O1142 1.249 . S
C1123 O1143 1.252 . S
C1124 C1123 1.510 . S
C1124 C1125 1.404 . S
C1124 C1126 1.352 . S
C1125 C1124 1.404 . S
C1125 C1129 1.389 . S
C1125 H1152 0.930 . S
C1126 C1124 1.352 . S
C1126 C1128 1.374 . S
C1126 H1153 0.931 . S
C1127 C1128 1.359 . S
C1127 C1129 1.364 . S
C1128 C1126 1.374 . S
C1128 C1127 1.359 . S
C1128 H1154 0.931 . S
C1129 C1125 1.389 . S
C1129 C1127 1.364 . S
C1129 H1155 0.931 . S
C1130 O1144 1.256 . S
C1130 O1145 1.257 . S
C1131 O1146 1.240 . S
C1131 O1147 1.240 . S
C1132 Gd1121 2.818 . S
C1132 C1133 1.510 . S
C1132 O1148 1.249 . S
C1132 O1149 1.252 . S
C1133 C1132 1.510 . S
C1133 C1134 1.404 . S
C1133 C1135 1.352 . S
C1134 C1133 1.404 . S
C1134 C1138 1.389 . S
C1134 H1156 0.930 . S
C1135 C1133 1.352 . S
C1135 C1137 1.374 . S
C1135 H1157 0.931 . S
C1136 C1137 1.359 . S
C1136 C1138 1.364 . S
C1137 C1135 1.374 . S
C1137 C1136 1.359 . S
C1137 H1158 0.931 . S
C1138 C1134 1.389 . S
C1138 C1136 1.364 . S
C1138 H1159 0.931 . S
C1139 O1150 1.256 . S
C1139 O1151 1.257 . S
O1140 Gd1120 2.377 . S
O1140 C1122 1.240 . S
O1141 Gd1121 2.395 . S
O1141 C1122 1.240 . S
O1142 Gd1120 2.448 . S
O1142 C1123 1.249 . S
O1143 Gd1120 2.506 . S
O1143 C1123 1.252 . S
O1144 Gd1120 2.435 . S
O1144 C1130 1.256 . S
O1145 Gd1120 2.717 . S
O1145 Gd1121 2.327 . S
O1145 C1130 1.257 . S
O1146 Gd1121 2.377 . S
O1146 C1131 1.240 . S
O1147 Gd1120 2.395 . S
O1147 C1131 1.240 . S
O1148 Gd1121 2.448 . S
O1148 C1132 1.249 . S
O1149 Gd1121 2.506 . S
O1149 C1132 1.252 . S
O1150 Gd1121 2.435 . S
O1150 C1139 1.256 . S
O1151 Gd1120 2.327 . S
O1151 Gd1121 2.717 . S
O1151 C1139 1.257 . S
H1152 C1125 0.930 . S
H1153 C1126 0.931 . S
H1154 C1128 0.931 . S
H1155 C1129 0.931 . S
H1156 C1134 0.930 . S
H1157 C1135 0.931 . S
H1158 C1137 0.931 . S
H1159 C1138 0.931 . S
Gd1160 C1163 2.818 . S
Gd1160 O1180 2.377 . S
Gd1160 O1182 2.448 . S
Gd1160 O1183 2.506 . S
Gd1160 O1184 2.435 . S
Gd1160 O1185 2.717 . S
Gd1160 O1187 2.395 1_554 S
Gd1160 O1191 2.327 . S
Gd1161 C1172 2.818 1_554 S
Gd1161 O1181 2.395 . S
Gd1161 O1185 2.327 . S
Gd1161 O1186 2.377 1_554 S
Gd1161 O1188 2.448 . S
Gd1161 O1189 2.506 1_554 S
Gd1161 O1190 2.435 . S
Gd1161 O1191 2.717 . S
C1162 O1180 1.240 . S
C1162 O1181 1.240 . S
C1163 Gd1160 2.818 . S
C1163 C1164 1.510 . S
C1163 O1182 1.249 . S
C1163 O1183 1.252 . S
C1164 C1163 1.510 . S
C1164 C1165 1.404 . S
C1164 C1166 1.352 . S
C1165 C1164 1.404 . S
C1165 C1169 1.389 . S
C1165 H1192 0.930 . S
C1166 C1164 1.352 . S
C1166 C1168 1.374 . S
C1166 H1193 0.931 . S
C1167 C1168 1.359 . S
C1167 C1169 1.364 . S
C1168 C1166 1.374 . S
C1168 C1167 1.359 . S
C1168 H1194 0.931 . S
C1169 C1165 1.389 . S
C1169 C1167 1.364 . S
C1169 H1195 0.931 . S
C1170 O1184 1.256 . S
C1170 O1185 1.257 . S
C1171 O1186 1.240 . S
C1171 O1187 1.240 . S
C1172 Gd1161 2.818 1_556 S
C1172 C1173 1.510 . S
C1172 O1188 1.249 1_556 S
C1172 O1189 1.252 . S
C1173 C1172 1.510 . S
C1173 C1174 1.404 . S
C1173 C1175 1.352 . S
C1174 C1173 1.404 . S
C1174 C1178 1.389 . S
C1174 H1196 0.930 . S
C1175 C1173 1.352 . S
C1175 C1177 1.374 . S
C1175 H1197 0.931 . S
C1176 C1177 1.359 . S
C1176 C1178 1.364 . S
C1177 C1175 1.374 . S
C1177 C1176 1.359 . S
C1177 H1198 0.931 . S
C1178 C1174 1.389 . S
C1178 C1176 1.364 . S
C1178 H1199 0.931 . S
C1179 O1190 1.256 . S
C1179 O1191 1.257 . S
O1180 Gd1160 2.377 . S
O1180 C1162 1.240 . S
O1181 Gd1161 2.395 . S
O1181 C1162 1.240 . S
O1182 Gd1160 2.448 . S
O1182 C1163 1.249 . S
O1183 Gd1160 2.506 . S
O1183 C1163 1.252 . S
O1184 Gd1160 2.435 . S
O1184 C1170 1.256 . S
O1185 Gd1160 2.717 . S
O1185 Gd1161 2.327 . S
O1185 C1170 1.257 . S
O1186 Gd1161 2.377 1_556 S
O1186 C1171 1.240 . S
O1187 Gd1160 2.395 1_556 S
O1187 C1171 1.240 . S
O1188 Gd1161 2.448 . S
O1188 C1172 1.249 1_554 S
O1189 Gd1161 2.506 1_556 S
O1189 C1172 1.252 . S
O1190 Gd1161 2.435 . S
O1190 C1179 1.256 . S
O1191 Gd1160 2.327 . S
O1191 Gd1161 2.717 . S
O1191 C1179 1.257 . S
H1192 C1165 0.930 . S
H1193 C1166 0.931 . S
H1194 C1168 0.931 . S
H1195 C1169 0.931 . S
H1196 C1174 0.930 . S
H1197 C1175 0.931 . S
H1198 C1177 0.931 . S
H1199 C1178 0.931 . S
Gd1200 C1203 2.818 . S
Gd1200 O1220 2.377 . S
Gd1200 O1222 2.448 . S
Gd1200 O1223 2.506 . S
Gd1200 O1224 2.435 . S
Gd1200 O1225 2.717 . S
Gd1200 O1227 2.395 . S
Gd1200 O1231 2.327 . S
Gd1201 C1212 2.818 . S
Gd1201 O1221 2.395 . S
Gd1201 O1225 2.327 . S
Gd1201 O1226 2.377 . S
Gd1201 O1228 2.448 . S
Gd1201 O1229 2.506 . S
Gd1201 O1230 2.435 . S
Gd1201 O1231 2.717 . S
C1202 O1220 1.240 . S
C1202 O1221 1.240 . S
C1203 Gd1200 2.818 . S
C1203 C1204 1.510 . S
C1203 O1222 1.249 . S
C1203 O1223 1.252 . S
C1204 C1203 1.510 . S
C1204 C1205 1.404 . S
C1204 C1206 1.352 . S
C1205 C1204 1.404 . S
C1205 C1209 1.389 . S
C1205 H1232 0.930 . S
C1206 C1204 1.352 . S
C1206 C1208 1.374 . S
C1206 H1233 0.931 . S
C1207 C1208 1.359 . S
C1207 C1209 1.364 . S
C1208 C1206 1.374 . S
C1208 C1207 1.359 . S
C1208 H1234 0.931 . S
C1209 C1205 1.389 . S
C1209 C1207 1.364 . S
C1209 H1235 0.931 . S
C1210 O1224 1.256 . S
C1210 O1225 1.257 . S
C1211 O1226 1.240 . S
C1211 O1227 1.240 . S
C1212 Gd1201 2.818 . S
C1212 C1213 1.510 . S
C1212 O1228 1.249 . S
C1212 O1229 1.252 . S
C1213 C1212 1.510 . S
C1213 C1214 1.404 . S
C1213 C1215 1.352 . S
C1214 C1213 1.404 . S
C1214 C1218 1.389 . S
C1214 H1236 0.930 . S
C1215 C1213 1.352 . S
C1215 C1217 1.374 . S
C1215 H1237 0.931 . S
C1216 C1217 1.359 . S
C1216 C1218 1.364 . S
C1217 C1215 1.374 . S
C1217 C1216 1.359 . S
C1217 H1238 0.931 . S
C1218 C1214 1.389 . S
C1218 C1216 1.364 . S
C1218 H1239 0.931 . S
C1219 O1230 1.256 . S
C1219 O1231 1.257 . S
O1220 Gd1200 2.377 . S
O1220 C1202 1.240 . S
O1221 Gd1201 2.395 . S
O1221 C1202 1.240 . S
O1222 Gd1200 2.448 . S
O1222 C1203 1.249 . S
O1223 Gd1200 2.506 . S
O1223 C1203 1.252 . S
O1224 Gd1200 2.435 . S
O1224 C1210 1.256 . S
O1225 Gd1200 2.717 . S
O1225 Gd1201 2.327 . S
O1225 C1210 1.257 . S
O1226 Gd1201 2.377 . S
O1226 C1211 1.240 . S
O1227 Gd1200 2.395 . S
O1227 C1211 1.240 . S
O1228 Gd1201 2.448 . S
O1228 C1212 1.249 . S
O1229 Gd1201 2.506 . S
O1229 C1212 1.252 . S
O1230 Gd1201 2.435 . S
O1230 C1219 1.256 . S
O1231 Gd1200 2.327 . S
O1231 Gd1201 2.717 . S
O1231 C1219 1.257 . S
H1232 C1205 0.930 . S
H1233 C1206 0.931 . S
H1234 C1208 0.931 . S
H1235 C1209 0.931 . S
H1236 C1214 0.930 . S
H1237 C1215 0.931 . S
H1238 C1217 0.931 . S
H1239 C1218 0.931 . S
Gd1240 C1243 2.818 . S
Gd1240 O1260 2.377 . S
Gd1240 O1262 2.448 . S
Gd1240 O1263 2.506 . S
Gd1240 O1264 2.435 . S
Gd1240 O1265 2.717 . S
Gd1240 O1267 2.395 . S
Gd1240 O1271 2.327 . S
Gd1241 C1252 2.818 . S
Gd1241 O1261 2.395 . S
Gd1241 O1265 2.327 . S
Gd1241 O1266 2.377 . S
Gd1241 O1268 2.448 . S
Gd1241 O1269 2.506 . S
Gd1241 O1270 2.435 . S
Gd1241 O1271 2.717 . S
C1242 O1260 1.240 . S
C1242 O1261 1.240 . S
C1243 Gd1240 2.818 . S
C1243 C1244 1.510 . S
C1243 O1262 1.249 . S
C1243 O1263 1.252 . S
C1244 C1243 1.510 . S
C1244 C1245 1.404 . S
C1244 C1246 1.352 . S
C1245 C1244 1.404 . S
C1245 C1249 1.389 . S
C1245 H1272 0.930 . S
C1246 C1244 1.352 . S
C1246 C1248 1.374 . S
C1246 H1273 0.931 . S
C1247 C1248 1.359 . S
C1247 C1249 1.364 . S
C1248 C1246 1.374 . S
C1248 C1247 1.359 . S
C1248 H1274 0.931 . S
C1249 C1245 1.389 . S
C1249 C1247 1.364 . S
C1249 H1275 0.931 . S
C1250 O1264 1.256 . S
C1250 O1265 1.257 . S
C1251 O1266 1.240 . S
C1251 O1267 1.240 . S
C1252 Gd1241 2.818 . S
C1252 C1253 1.510 . S
C1252 O1268 1.249 . S
C1252 O1269 1.252 . S
C1253 C1252 1.510 . S
C1253 C1254 1.404 . S
C1253 C1255 1.352 . S
C1254 C1253 1.404 . S
C1254 C1258 1.389 . S
C1254 H1276 0.930 . S
C1255 C1253 1.352 . S
C1255 C1257 1.374 . S
C1255 H1277 0.931 . S
C1256 C1257 1.359 . S
C1256 C1258 1.364 . S
C1257 C1255 1.374 . S
C1257 C1256 1.359 . S
C1257 H1278 0.931 . S
C1258 C1254 1.389 . S
C1258 C1256 1.364 . S
C1258 H1279 0.931 . S
C1259 O1270 1.256 . S
C1259 O1271 1.257 . S
O1260 Gd1240 2.377 . S
O1260 C1242 1.240 . S
O1261 Gd1241 2.395 . S
O1261 C1242 1.240 . S
O1262 Gd1240 2.448 . S
O1262 C1243 1.249 . S
O1263 Gd1240 2.506 . S
O1263 C1243 1.252 . S
O1264 Gd1240 2.435 . S
O1264 C1250 1.256 . S
O1265 Gd1240 2.717 . S
O1265 Gd1241 2.327 . S
O1265 C1250 1.257 . S
O1266 Gd1241 2.377 . S
O1266 C1251 1.240 . S
O1267 Gd1240 2.395 . S
O1267 C1251 1.240 . S
O1268 Gd1241 2.448 . S
O1268 C1252 1.249 . S
O1269 Gd1241 2.506 . S
O1269 C1252 1.252 . S
O1270 Gd1241 2.435 . S
O1270 C1259 1.256 . S
O1271 Gd1240 2.327 . S
O1271 Gd1241 2.717 . S
O1271 C1259 1.257 . S
H1272 C1245 0.930 . S
H1273 C1246 0.931 . S
H1274 C1248 0.931 . S
H1275 C1249 0.931 . S
H1276 C1254 0.930 . S
H1277 C1255 0.931 . S
H1278 C1257 0.931 . S
H1279 C1258 0.931 . S
H1280 C1286 0.930 . S
H1281 C1290 0.930 . S
H1282 C1295 0.929 . S
H1283 C1293 0.929 . S
H1284 C1288 0.929 . S
H1285 C1294 0.929 . S
C1286 H1280 0.930 . S
C1286 C1287 1.367 . S
C1286 C1294 1.378 . S
C1287 C1286 1.367 . S
C1287 C1295 1.433 . S
C1288 H1284 0.929 . S
C1288 C1290 1.378 . S
C1288 C1292 1.350 . S
C1289 C1292 1.463 . S
C1289 C1294 1.350 . S
C1289 N1297 1.427 . S
C1290 H1281 0.930 . S
C1290 C1288 1.378 . S
C1290 C1291 1.367 . S
C1291 C1290 1.367 . S
C1291 C1293 1.433 . S
C1292 C1288 1.350 . S
C1292 C1289 1.463 . S
C1292 N1296 1.427 . S
C1293 H1283 0.929 . S
C1293 C1291 1.433 . S
C1293 N1296 1.384 . S
C1294 H1285 0.929 . S
C1294 C1286 1.378 . S
C1294 C1289 1.350 . S
C1295 H1282 0.929 . S
C1295 C1287 1.433 . S
C1295 N1297 1.384 . S
N1296 C1292 1.427 . S
N1296 C1293 1.384 . S
N1297 C1289 1.427 . S
N1297 C1295 1.384 . S
H1298 C1304 0.930 . S
H1299 C1308 0.930 . S
H1300 C1313 0.929 . S
H1301 C1311 0.929 . S
H1302 C1306 0.929 . S
H1303 C1312 0.929 . S
C1304 H1298 0.930 . S
C1304 C1305 1.367 . S
C1304 C1312 1.378 . S
C1305 C1304 1.367 . S
C1305 C1313 1.433 . S
C1306 H1302 0.929 . S
C1306 C1308 1.378 . S
C1306 C1310 1.350 . S
C1307 C1310 1.463 . S
C1307 C1312 1.350 . S
C1307 N1315 1.427 . S
C1308 H1299 0.930 . S
C1308 C1306 1.378 . S
C1308 C1309 1.367 . S
C1309 C1308 1.367 . S
C1309 C1311 1.433 1_545 S
C1310 C1306 1.350 . S
C1310 C1307 1.463 . S
C1310 N1314 1.427 . S
C1311 H1301 0.929 . S
C1311 C1309 1.433 1_565 S
C1311 N1314 1.384 1_565 S
C1312 H1303 0.929 . S
C1312 C1304 1.378 . S
C1312 C1307 1.350 . S
C1313 H1300 0.929 . S
C1313 C1305 1.433 . S
C1313 N1315 1.384 . S
N1314 C1310 1.427 . S
N1314 C1311 1.384 1_545 S
N1315 C1307 1.427 . S
N1315 C1313 1.384 . S
H1316 C1322 0.930 . S
H1317 C1326 0.930 . S
H1318 C1331 0.929 . S
H1319 C1329 0.929 . S
H1320 C1324 0.929 . S
H1321 C1330 0.929 . S
C1322 H1316 0.930 . S
C1322 C1323 1.367 . S
C1322 C1330 1.378 . S
C1323 C1322 1.367 . S
C1323 C1331 1.433 . S
C1324 H1320 0.929 . S
C1324 C1326 1.378 . S
C1324 C1328 1.350 . S
C1325 C1328 1.463 . S
C1325 C1330 1.350 . S
C1325 N1333 1.427 . S
C1326 H1317 0.930 . S
C1326 C1324 1.378 . S
C1326 C1327 1.367 . S
C1327 C1326 1.367 . S
C1327 C1329 1.433 . S
C1328 C1324 1.350 . S
C1328 C1325 1.463 . S
C1328 N1332 1.427 . S
C1329 H1319 0.929 . S
C1329 C1327 1.433 . S
C1329 N1332 1.384 . S
C1330 H1321 0.929 . S
C1330 C1322 1.378 . S
C1330 C1325 1.350 . S
C1331 H1318 0.929 . S
C1331 C1323 1.433 . S
C1331 N1333 1.384 . S
N1332 C1328 1.427 . S
N1332 C1329 1.384 . S
N1333 C1325 1.427 . S
N1333 C1331 1.384 . S
H1334 C1340 0.930 . S
H1335 C1344 0.930 . S
H1336 C1349 0.929 . S
H1337 C1347 0.929 . S
H1338 C1342 0.929 . S
H1339 C1348 0.929 . S
C1340 H1334 0.930 . S
C1340 C1341 1.367 . S
C1340 C1348 1.378 . S
C1341 C1340 1.367 . S
C1341 C1349 1.433 . S
C1342 H1338 0.929 . S
C1342 C1344 1.378 . S
C1342 C1346 1.350 . S
C1343 C1346 1.463 . S
C1343 C1348 1.350 . S
C1343 N1351 1.427 . S
C1344 H1335 0.930 . S
C1344 C1342 1.378 . S
C1344 C1345 1.367 . S
C1345 C1344 1.367 . S
C1345 C1347 1.433 . S
C1346 C1342 1.350 . S
C1346 C1343 1.463 . S
C1346 N1350 1.427 . S
C1347 H1337 0.929 . S
C1347 C1345 1.433 . S
C1347 N1350 1.384 . S
C1348 H1339 0.929 . S
C1348 C1340 1.378 . S
C1348 C1343 1.350 . S
C1349 H1336 0.929 . S
C1349 C1341 1.433 . S
C1349 N1351 1.384 . S
N1350 C1346 1.427 . S
N1350 C1347 1.384 . S
N1351 C1343 1.427 . S
N1351 C1349 1.384 . S
H1352 C1358 0.930 . S
H1353 C1362 0.930 . S
H1354 C1367 0.929 . S
H1355 C1365 0.929 . S
H1356 C1360 0.929 . S
H1357 C1366 0.929 . S
C1358 H1352 0.930 . S
C1358 C1359 1.367 . S
C1358 C1366 1.378 . S
C1359 C1358 1.367 . S
C1359 C1367 1.433 . S
C1360 H1356 0.929 . S
C1360 C1362 1.378 . S
C1360 C1364 1.350 . S
C1361 C1364 1.463 . S
C1361 C1366 1.350 . S
C1361 N1369 1.427 . S
C1362 H1353 0.930 . S
C1362 C1360 1.378 . S
C1362 C1363 1.367 . S
C1363 C1362 1.367 . S
C1363 C1365 1.433 . S
C1364 C1360 1.350 . S
C1364 C1361 1.463 . S
C1364 N1368 1.427 . S
C1365 H1355 0.929 . S
C1365 C1363 1.433 . S
C1365 N1368 1.384 . S
C1366 H1357 0.929 . S
C1366 C1358 1.378 . S
C1366 C1361 1.350 . S
C1367 H1354 0.929 . S
C1367 C1359 1.433 . S
C1367 N1369 1.384 . S
N1368 C1364 1.427 . S
N1368 C1365 1.384 . S
N1369 C1361 1.427 . S
N1369 C1367 1.384 . S
H1370 C1376 0.930 . S
H1371 C1380 0.930 . S
H1372 C1385 0.929 1_565 S
H1373 C1383 0.929 . S
H1374 C1378 0.929 . S
H1375 C1384 0.929 . S
C1376 H1370 0.930 . S
C1376 C1377 1.367 . S
C1376 C1384 1.378 . S
C1377 C1376 1.367 . S
C1377 C1385 1.433 . S
C1378 H1374 0.929 . S
C1378 C1380 1.378 . S
C1378 C1382 1.350 . S
C1379 C1382 1.463 . S
C1379 C1384 1.350 . S
C1379 N1387 1.427 . S
C1380 H1371 0.930 . S
C1380 C1378 1.378 . S
C1380 C1381 1.367 . S
C1381 C1380 1.367 . S
C1381 C1383 1.433 . S
C1382 C1378 1.350 . S
C1382 C1379 1.463 . S
C1382 N1386 1.427 . S
C1383 H1373 0.929 . S
C1383 C1381 1.433 . S
C1383 N1386 1.384 . S
C1384 H1375 0.929 . S
C1384 C1376 1.378 . S
C1384 C1379 1.350 . S
C1385 H1372 0.929 1_545 S
C1385 C1377 1.433 . S
C1385 N1387 1.384 . S
N1386 C1382 1.427 . S
N1386 C1383 1.384 . S
N1387 C1379 1.427 . S
N1387 C1385 1.384 . S
H1388 C1394 0.930 . S
H1389 C1398 0.930 . S
H1390 C1403 0.929 . S
H1391 C1401 0.929 . S
H1392 C1396 0.929 . S
H1393 C1402 0.929 . S
C1394 H1388 0.930 . S
C1394 C1395 1.367 . S
C1394 C1402 1.378 . S
C1395 C1394 1.367 . S
C1395 C1403 1.433 . S
C1396 H1392 0.929 . S
C1396 C1398 1.378 . S
C1396 C1400 1.350 . S
C1397 C1400 1.463 . S
C1397 C1402 1.350 . S
C1397 N1405 1.427 . S
C1398 H1389 0.930 . S
C1398 C1396 1.378 . S
C1398 C1399 1.367 . S
C1399 C1398 1.367 . S
C1399 C1401 1.433 . S
C1400 C1396 1.350 . S
C1400 C1397 1.463 . S
C1400 N1404 1.427 . S
C1401 H1391 0.929 . S
C1401 C1399 1.433 . S
C1401 N1404 1.384 . S
C1402 H1393 0.929 . S
C1402 C1394 1.378 . S
C1402 C1397 1.350 . S
C1403 H1390 0.929 . S
C1403 C1395 1.433 . S
C1403 N1405 1.384 . S
N1404 C1400 1.427 . S
N1404 C1401 1.384 . S
N1405 C1397 1.427 . S
N1405 C1403 1.384 . S
H1406 C1412 0.930 . S
H1407 C1416 0.930 1_545 S
H1408 C1421 0.929 . S
H1409 C1419 0.929 . S
H1410 C1414 0.929 . S
H1411 C1420 0.929 . S
C1412 H1406 0.930 . S
C1412 C1413 1.367 . S
C1412 C1420 1.378 . S
C1413 C1412 1.367 . S
C1413 C1421 1.433 . S
C1414 H1410 0.929 . S
C1414 C1416 1.378 . S
C1414 C1418 1.350 . S
C1415 C1418 1.463 . S
C1415 C1420 1.350 . S
C1415 N1423 1.427 . S
C1416 H1407 0.930 1_565 S
C1416 C1414 1.378 . S
C1416 C1417 1.367 . S
C1417 C1416 1.367 . S
C1417 C1419 1.433 . S
C1418 C1414 1.350 . S
C1418 C1415 1.463 . S
C1418 N1422 1.427 . S
C1419 H1409 0.929 . S
C1419 C1417 1.433 . S
C1419 N1422 1.384 . S
C1420 H1411 0.929 . S
C1420 C1412 1.378 . S
C1420 C1415 1.350 . S
C1421 H1408 0.929 . S
C1421 C1413 1.433 . S
C1421 N1423 1.384 . S
N1422 C1418 1.427 . S
N1422 C1419 1.384 . S
N1423 C1415 1.427 . S
N1423 C1421 1.384 . S
H1424 C1430 0.930 . S
H1425 C1434 0.930 . S
H1426 C1439 0.929 . S
H1427 C1437 0.929 . S
H1428 C1432 0.929 . S
H1429 C1438 0.929 . S
C1430 H1424 0.930 . S
C1430 C1431 1.367 . S
C1430 C1438 1.378 . S
C1431 C1430 1.367 . S
C1431 C1439 1.433 . S
C1432 H1428 0.929 . S
C1432 C1434 1.378 . S
C1432 C1436 1.350 . S
C1433 C1436 1.463 . S
C1433 C1438 1.350 . S
C1433 N1441 1.427 . S
C1434 H1425 0.930 . S
C1434 C1432 1.378 . S
C1434 C1435 1.367 . S
C1435 C1434 1.367 . S
C1435 C1437 1.433 . S
C1436 C1432 1.350 . S
C1436 C1433 1.463 . S
C1436 N1440 1.427 . S
C1437 H1427 0.929 . S
C1437 C1435 1.433 . S
C1437 N1440 1.384 . S
C1438 H1429 0.929 . S
C1438 C1430 1.378 . S
C1438 C1433 1.350 . S
C1439 H1426 0.929 . S
C1439 C1431 1.433 . S
C1439 N1441 1.384 . S
N1440 C1436 1.427 . S
N1440 C1437 1.384 . S
N1441 C1433 1.427 . S
N1441 C1439 1.384 . S
H1442 C1448 0.930 . S
H1443 C1452 0.930 . S
H1444 C1457 0.929 . S
H1445 C1455 0.929 . S
H1446 C1450 0.929 . S
H1447 C1456 0.929 . S
C1448 H1442 0.930 . S
C1448 C1449 1.367 1_545 S
C1448 C1456 1.378 1_545 S
C1449 C1448 1.367 1_565 S
C1449 C1457 1.433 . S
C1450 H1446 0.929 . S
C1450 C1452 1.378 . S
C1450 C1454 1.350 . S
C1451 C1454 1.463 . S
C1451 C1456 1.350 . S
C1451 N1459 1.427 . S
C1452 H1443 0.930 . S
C1452 C1450 1.378 . S
C1452 C1453 1.367 . S
C1453 C1452 1.367 . S
C1453 C1455 1.433 . S
C1454 C1450 1.350 . S
C1454 C1451 1.463 . S
C1454 N1458 1.427 . S
C1455 H1445 0.929 . S
C1455 C1453 1.433 . S
C1455 N1458 1.384 . S
C1456 H1447 0.929 . S
C1456 C1448 1.378 1_565 S
C1456 C1451 1.350 . S
C1457 H1444 0.929 . S
C1457 C1449 1.433 . S
C1457 N1459 1.384 . S
N1458 C1454 1.427 . S
N1458 C1455 1.384 . S
N1459 C1451 1.427 . S
N1459 C1457 1.384 . S
H1460 C1466 0.930 . S
H1461 C1470 0.930 . S
H1462 C1475 0.929 . S
H1463 C1473 0.929 . S
H1464 C1468 0.929 . S
H1465 C1474 0.929 . S
C1466 H1460 0.930 . S
C1466 C1467 1.367 . S
C1466 C1474 1.378 . S
C1467 C1466 1.367 . S
C1467 C1475 1.433 . S
C1468 H1464 0.929 . S
C1468 C1470 1.378 . S
C1468 C1472 1.350 . S
C1469 C1472 1.463 . S
C1469 C1474 1.350 . S
C1469 N1477 1.427 . S
C1470 H1461 0.930 . S
C1470 C1468 1.378 . S
C1470 C1471 1.367 . S
C1471 C1470 1.367 . S
C1471 C1473 1.433 . S
C1472 C1468 1.350 . S
C1472 C1469 1.463 . S
C1472 N1476 1.427 . S
C1473 H1463 0.929 . S
C1473 C1471 1.433 . S
C1473 N1476 1.384 . S
C1474 H1465 0.929 . S
C1474 C1466 1.378 . S
C1474 C1469 1.350 . S
C1475 H1462 0.929 . S
C1475 C1467 1.433 . S
C1475 N1477 1.384 . S
N1476 C1472 1.427 . S
N1476 C1473 1.384 . S
N1477 C1469 1.427 . S
N1477 C1475 1.384 . S
H1478 C1484 0.930 1_565 S
H1479 C1488 0.930 . S
H1480 C1493 0.929 . S
H1481 C1491 0.929 . S
H1482 C1486 0.929 . S
H1483 C1492 0.929 . S
C1484 H1478 0.930 1_545 S
C1484 C1485 1.367 . S
C1484 C1492 1.378 . S
C1485 C1484 1.367 . S
C1485 C1493 1.433 . S
C1486 H1482 0.929 . S
C1486 C1488 1.378 . S
C1486 C1490 1.350 . S
C1487 C1490 1.463 . S
C1487 C1492 1.350 . S
C1487 N1495 1.427 . S
C1488 H1479 0.930 . S
C1488 C1486 1.378 . S
C1488 C1489 1.367 . S
C1489 C1488 1.367 . S
C1489 C1491 1.433 . S
C1490 C1486 1.350 . S
C1490 C1487 1.463 . S
C1490 N1494 1.427 . S
C1491 H1481 0.929 . S
C1491 C1489 1.433 . S
C1491 N1494 1.384 . S
C1492 H1483 0.929 . S
C1492 C1484 1.378 . S
C1492 C1487 1.350 . S
C1493 H1480 0.929 . S
C1493 C1485 1.433 . S
C1493 N1495 1.384 . S
N1494 C1490 1.427 . S
N1494 C1491 1.384 . S
N1495 C1487 1.427 . S
N1495 C1493 1.384 . S
H1496 C1502 0.930 . S
H1497 C1506 0.930 . S
H1498 C1511 0.929 . S
H1499 C1509 0.929 . S
H1500 C1504 0.929 . S
H1501 C1510 0.929 . S
C1502 H1496 0.930 . S
C1502 C1503 1.367 . S
C1502 C1510 1.378 . S
C1503 C1502 1.367 . S
C1503 C1511 1.433 . S
C1504 H1500 0.929 . S
C1504 C1506 1.378 . S
C1504 C1508 1.350 . S
C1505 C1508 1.463 . S
C1505 C1510 1.350 . S
C1505 N1513 1.427 . S
C1506 H1497 0.930 . S
C1506 C1504 1.378 . S
C1506 C1507 1.367 . S
C1507 C1506 1.367 . S
C1507 C1509 1.433 . S
C1508 C1504 1.350 . S
C1508 C1505 1.463 . S
C1508 N1512 1.427 . S
C1509 H1499 0.929 . S
C1509 C1507 1.433 . S
C1509 N1512 1.384 . S
C1510 H1501 0.929 . S
C1510 C1502 1.378 . S
C1510 C1505 1.350 . S
C1511 H1498 0.929 . S
C1511 C1503 1.433 . S
C1511 N1513 1.384 . S
N1512 C1508 1.427 . S
N1512 C1509 1.384 . S
N1513 C1505 1.427 . S
N1513 C1511 1.384 . S
H1514 C1520 0.930 . S
H1515 C1524 0.930 . S
H1516 C1529 0.941 . S
H1517 C1527 0.929 . S
H1518 C1522 0.929 . S
H1519 C1528 0.929 . S
C1520 H1514 0.930 . S
C1520 C1521 1.367 . S
C1520 C1528 1.378 . S
C1521 C1520 1.367 . S
C1521 C1529 1.431 1_565 S
C1522 H1518 0.929 . S
C1522 C1524 1.378 . S
C1522 C1526 1.350 . S
C1523 C1526 1.463 . S
C1523 C1528 1.350 . S
C1523 N1531 1.427 . S
C1524 H1515 0.930 . S
C1524 C1522 1.378 . S
C1524 C1525 1.367 . S
C1525 C1524 1.367 . S
C1525 C1527 1.433 . S
C1526 C1522 1.350 . S
C1526 C1523 1.463 . S
C1526 N1530 1.427 . S
C1527 H1517 0.929 . S
C1527 C1525 1.433 . S
C1527 N1530 1.384 . S
C1528 H1519 0.929 . S
C1528 C1520 1.378 . S
C1528 C1523 1.350 . S
C1529 H1516 0.941 . S
C1529 C1521 1.431 1_545 S
C1529 N1531 1.373 1_545 S
N1530 C1526 1.427 . S
N1530 C1527 1.384 . S
N1531 C1523 1.427 . S
N1531 C1529 1.373 1_565 S
H1532 C1538 0.930 . S
H1533 C1542 0.930 . S
H1534 C1547 0.929 . S
H1535 C1545 0.929 . S
H1536 C1540 0.929 . S
H1537 C1546 0.929 . S
C1538 H1532 0.930 . S
C1538 C1539 1.367 . S
C1538 C1546 1.378 . S
C1539 C1538 1.367 . S
C1539 C1547 1.433 . S
C1540 H1536 0.929 . S
C1540 C1542 1.378 . S
C1540 C1544 1.350 . S
C1541 C1544 1.463 . S
C1541 C1546 1.350 . S
C1541 N1549 1.427 . S
C1542 H1533 0.930 . S
C1542 C1540 1.378 . S
C1542 C1543 1.367 . S
C1543 C1542 1.367 . S
C1543 C1545 1.433 . S
C1544 C1540 1.350 . S
C1544 C1541 1.463 . S
C1544 N1548 1.427 . S
C1545 H1535 0.929 . S
C1545 C1543 1.433 . S
C1545 N1548 1.384 . S
C1546 H1537 0.929 . S
C1546 C1538 1.378 . S
C1546 C1541 1.350 . S
C1547 H1534 0.929 . S
C1547 C1539 1.433 . S
C1547 N1549 1.384 . S
N1548 C1544 1.427 . S
N1548 C1545 1.384 . S
N1549 C1541 1.427 . S
N1549 C1547 1.384 . S
H1550 C1556 0.930 . S
H1551 C1560 0.930 . S
H1552 C1565 0.929 . S
H1553 C1563 0.929 1_565 S
H1554 C1558 0.929 . S
H1555 C1564 0.929 . S
C1556 H1550 0.930 . S
C1556 C1557 1.367 . S
C1556 C1564 1.378 . S
C1557 C1556 1.367 . S
C1557 C1565 1.433 . S
C1558 H1554 0.929 . S
C1558 C1560 1.378 . S
C1558 C1562 1.350 . S
C1559 C1562 1.463 . S
C1559 C1564 1.350 . S
C1559 N1567 1.427 . S
C1560 H1551 0.930 . S
C1560 C1558 1.378 . S
C1560 C1561 1.367 . S
C1561 C1560 1.367 . S
C1561 C1563 1.433 . S
C1562 C1558 1.350 . S
C1562 C1559 1.463 . S
C1562 N1566 1.427 . S
C1563 H1553 0.929 1_545 S
C1563 C1561 1.433 . S
C1563 N1566 1.384 . S
C1564 H1555 0.929 . S
C1564 C1556 1.378 . S
C1564 C1559 1.350 . S
C1565 H1552 0.929 . S
C1565 C1557 1.433 . S
C1565 N1567 1.384 . S
N1566 C1562 1.427 . S
N1566 C1563 1.384 . S
N1567 C1559 1.427 . S
N1567 C1565 1.384 . S
H1568 C1574 0.930 . S
H1569 C1578 0.930 . S
H1570 C1583 0.929 . S
H1571 C1581 0.929 . S
H1572 C1576 0.929 . S
H1573 C1582 0.929 . S
C1574 H1568 0.930 . S
C1574 C1575 1.367 . S
C1574 C1582 1.378 . S
C1575 C1574 1.367 . S
C1575 C1583 1.433 . S
C1576 H1572 0.929 . S
C1576 C1578 1.378 . S
C1576 C1580 1.350 . S
C1577 C1580 1.463 . S
C1577 C1582 1.350 . S
C1577 N1585 1.427 . S
C1578 H1569 0.930 . S
C1578 C1576 1.378 . S
C1578 C1579 1.367 . S
C1579 C1578 1.367 . S
C1579 C1581 1.433 . S
C1580 C1576 1.350 . S
C1580 C1577 1.463 . S
C1580 N1584 1.427 . S
C1581 H1571 0.929 . S
C1581 C1579 1.433 . S
C1581 N1584 1.384 . S
C1582 H1573 0.929 . S
C1582 C1574 1.378 . S
C1582 C1577 1.350 . S
C1583 H1570 0.929 . S
C1583 C1575 1.433 . S
C1583 N1585 1.384 . S
N1584 C1580 1.427 . S
N1584 C1581 1.384 . S
N1585 C1577 1.427 . S
N1585 C1583 1.384 . S
H1586 C1592 0.930 . S
H1587 C1596 0.930 . S
H1588 C1601 0.929 . S
H1589 C1599 0.929 . S
H1590 C1594 0.929 . S
H1591 C1600 0.929 . S
C1592 H1586 0.930 . S
C1592 C1593 1.367 . S
C1592 C1600 1.378 . S
C1593 C1592 1.367 . S
C1593 C1601 1.433 . S
C1594 H1590 0.929 . S
C1594 C1596 1.378 . S
C1594 C1598 1.350 . S
C1595 C1598 1.463 . S
C1595 C1600 1.350 . S
C1595 N1603 1.427 . S
C1596 H1587 0.930 . S
C1596 C1594 1.378 . S
C1596 C1597 1.367 . S
C1597 C1596 1.367 . S
C1597 C1599 1.433 . S
C1598 C1594 1.350 . S
C1598 C1595 1.463 . S
C1598 N1602 1.427 . S
C1599 H1589 0.929 . S
C1599 C1597 1.433 . S
C1599 N1602 1.384 . S
C1600 H1591 0.929 . S
C1600 C1592 1.378 . S
C1600 C1595 1.350 . S
C1601 H1588 0.929 . S
C1601 C1593 1.433 . S
C1601 N1603 1.384 . S
N1602 C1598 1.427 . S
N1602 C1599 1.384 . S
N1603 C1595 1.427 . S
N1603 C1601 1.384 . S
H1604 C1610 0.930 . S
H1605 C1614 0.930 . S
H1606 C1619 0.929 . S
H1607 C1617 0.929 . S
H1608 C1612 0.929 . S
H1609 C1618 0.929 . S
C1610 H1604 0.930 . S
C1610 C1611 1.367 . S
C1610 C1618 1.378 . S
C1611 C1610 1.367 . S
C1611 C1619 1.433 . S
C1612 H1608 0.929 . S
C1612 C1614 1.378 . S
C1612 C1616 1.350 . S
C1613 C1616 1.463 . S
C1613 C1618 1.350 . S
C1613 N1621 1.427 . S
C1614 H1605 0.930 . S
C1614 C1612 1.378 . S
C1614 C1615 1.367 . S
C1615 C1614 1.367 . S
C1615 C1617 1.433 . S
C1616 C1612 1.350 . S
C1616 C1613 1.463 . S
C1616 N1620 1.427 . S
C1617 H1607 0.929 . S
C1617 C1615 1.433 . S
C1617 N1620 1.384 . S
C1618 H1609 0.929 . S
C1618 C1610 1.378 . S
C1618 C1613 1.350 . S
C1619 H1606 0.929 . S
C1619 C1611 1.433 . S
C1619 N1621 1.384 . S
N1620 C1616 1.427 . S
N1620 C1617 1.384 . S
N1621 C1613 1.427 . S
N1621 C1619 1.384 . S
H1622 C1628 0.930 . S
H1623 C1632 0.930 . S
H1624 C1637 0.929 . S
H1625 C1635 0.929 . S
H1626 C1630 0.929 . S
H1627 C1636 0.929 . S
C1628 H1622 0.930 . S
C1628 C1629 1.367 . S
C1628 C1636 1.378 . S
C1629 C1628 1.367 . S
C1629 C1637 1.433 . S
C1630 H1626 0.929 . S
C1630 C1632 1.378 . S
C1630 C1634 1.350 . S
C1631 C1634 1.463 . S
C1631 C1636 1.350 . S
C1631 N1639 1.427 . S
C1632 H1623 0.930 . S
C1632 C1630 1.378 . S
C1632 C1633 1.367 . S
C1633 C1632 1.367 . S
C1633 C1635 1.433 . S
C1634 C1630 1.350 . S
C1634 C1631 1.463 . S
C1634 N1638 1.427 . S
C1635 H1625 0.929 . S
C1635 C1633 1.433 . S
C1635 N1638 1.384 . S
C1636 H1627 0.929 . S
C1636 C1628 1.378 . S
C1636 C1631 1.350 . S
C1637 H1624 0.929 . S
C1637 C1629 1.433 . S
C1637 N1639 1.384 . S
N1638 C1634 1.427 . S
N1638 C1635 1.384 . S
N1639 C1631 1.427 . S
N1639 C1637 1.384 . S
H1640 C1646 0.930 . S
H1641 C1650 0.930 . S
H1642 C1655 0.929 . S
H1643 C1653 0.929 . S
H1644 C1648 0.929 . S
H1645 C1654 0.929 . S
C1646 H1640 0.930 . S
C1646 C1647 1.367 . S
C1646 C1654 1.378 . S
C1647 C1646 1.367 . S
C1647 C1655 1.433 . S
C1648 H1644 0.929 . S
C1648 C1650 1.378 . S
C1648 C1652 1.350 . S
C1649 C1652 1.463 . S
C1649 C1654 1.350 . S
C1649 N1657 1.427 . S
C1650 H1641 0.930 . S
C1650 C1648 1.378 . S
C1650 C1651 1.367 . S
C1651 C1650 1.367 . S
C1651 C1653 1.433 . S
C1652 C1648 1.350 . S
C1652 C1649 1.463 . S
C1652 N1656 1.427 . S
C1653 H1643 0.929 . S
C1653 C1651 1.433 . S
C1653 N1656 1.384 . S
C1654 H1645 0.929 . S
C1654 C1646 1.378 . S
C1654 C1649 1.350 . S
C1655 H1642 0.929 . S
C1655 C1647 1.433 . S
C1655 N1657 1.384 . S
N1656 C1652 1.427 . S
N1656 C1653 1.384 . S
N1657 C1649 1.427 . S
N1657 C1655 1.384 . S
H1658 C1664 0.930 . S
H1659 C1668 0.930 . S
H1660 C1673 0.929 . S
H1661 C1671 0.929 . S
H1662 C1666 0.929 . S
H1663 C1672 0.929 . S
C1664 H1658 0.930 . S
C1664 C1665 1.367 . S
C1664 C1672 1.378 . S
C1665 C1664 1.367 . S
C1665 C1673 1.433 . S
C1666 H1662 0.929 . S
C1666 C1668 1.378 . S
C1666 C1670 1.350 . S
C1667 C1670 1.463 . S
C1667 C1672 1.350 . S
C1667 N1675 1.427 . S
C1668 H1659 0.930 . S
C1668 C1666 1.378 . S
C1668 C1669 1.367 . S
C1669 C1668 1.367 . S
C1669 C1671 1.433 . S
C1670 C1666 1.350 . S
C1670 C1667 1.463 . S
C1670 N1674 1.427 . S
C1671 H1661 0.929 . S
C1671 C1669 1.433 . S
C1671 N1674 1.384 . S
C1672 H1663 0.929 . S
C1672 C1664 1.378 . S
C1672 C1667 1.350 . S
C1673 H1660 0.929 . S
C1673 C1665 1.433 . S
C1673 N1675 1.384 . S
N1674 C1670 1.427 . S
N1674 C1671 1.384 . S
N1675 C1667 1.427 . S
N1675 C1673 1.384 . S
H1676 C1682 0.930 . S
H1677 C1686 0.930 . S
H1678 C1691 0.929 . S
H1679 C1689 0.929 . S
H1680 C1684 0.929 . S
H1681 C1690 0.929 . S
C1682 H1676 0.930 . S
C1682 C1683 1.367 . S
C1682 C1690 1.378 . S
C1683 C1682 1.367 . S
C1683 C1691 1.433 . S
C1684 H1680 0.929 . S
C1684 C1686 1.378 . S
C1684 C1688 1.350 . S
C1685 C1688 1.463 . S
C1685 C1690 1.350 . S
C1685 N1693 1.427 . S
C1686 H1677 0.930 . S
C1686 C1684 1.378 . S
C1686 C1687 1.367 . S
C1687 C1686 1.367 . S
C1687 C1689 1.433 . S
C1688 C1684 1.350 . S
C1688 C1685 1.463 . S
C1688 N1692 1.427 . S
C1689 H1679 0.929 . S
C1689 C1687 1.433 . S
C1689 N1692 1.384 . S
C1690 H1681 0.929 . S
C1690 C1682 1.378 . S
C1690 C1685 1.350 . S
C1691 H1678 0.929 . S
C1691 C1683 1.433 . S
C1691 N1693 1.384 . S
N1692 C1688 1.427 . S
N1692 C1689 1.384 . S
N1693 C1685 1.427 . S
N1693 C1691 1.384 . S
H1694 C1700 0.930 . S
H1695 C1704 0.930 . S
H1696 C1709 0.929 . S
H1697 C1707 0.929 . S
H1698 C1702 0.929 . S
H1699 C1708 0.929 . S
C1700 H1694 0.930 . S
C1700 C1701 1.367 . S
C1700 C1708 1.378 . S
C1701 C1700 1.367 . S
C1701 C1709 1.433 . S
C1702 H1698 0.929 . S
C1702 C1704 1.378 . S
C1702 C1706 1.350 . S
C1703 C1706 1.463 . S
C1703 C1708 1.350 . S
C1703 N1711 1.427 . S
C1704 H1695 0.930 . S
C1704 C1702 1.378 . S
C1704 C1705 1.367 . S
C1705 C1704 1.367 . S
C1705 C1707 1.433 . S
C1706 C1702 1.350 . S
C1706 C1703 1.463 . S
C1706 N1710 1.427 . S
C1707 H1697 0.929 . S
C1707 C1705 1.433 . S
C1707 N1710 1.384 . S
C1708 H1699 0.929 . S
C1708 C1700 1.378 . S
C1708 C1703 1.350 . S
C1709 H1696 0.929 . S
C1709 C1701 1.433 . S
C1709 N1711 1.384 . S
N1710 C1706 1.427 . S
N1710 C1707 1.384 . S
N1711 C1703 1.427 . S
N1711 C1709 1.384 . S
H1712 C1718 0.930 . S
H1713 C1722 0.930 . S
H1714 C1727 0.929 . S
H1715 C1725 0.929 . S
H1716 C1720 0.929 . S
H1717 C1726 0.929 . S
C1718 H1712 0.930 . S
C1718 C1719 1.367 . S
C1718 C1726 1.378 . S
C1719 C1718 1.367 . S
C1719 C1727 1.433 . S
C1720 H1716 0.929 . S
C1720 C1722 1.378 . S
C1720 C1724 1.350 . S
C1721 C1724 1.463 . S
C1721 C1726 1.350 . S
C1721 N1729 1.427 . S
C1722 H1713 0.930 . S
C1722 C1720 1.378 . S
C1722 C1723 1.367 . S
C1723 C1722 1.367 . S
C1723 C1725 1.433 . S
C1724 C1720 1.350 . S
C1724 C1721 1.463 . S
C1724 N1728 1.427 . S
C1725 H1715 0.929 . S
C1725 C1723 1.433 . S
C1725 N1728 1.384 . S
C1726 H1717 0.929 . S
C1726 C1718 1.378 . S
C1726 C1721 1.350 . S
C1727 H1714 0.929 . S
C1727 C1719 1.433 . S
C1727 N1729 1.384 . S
N1728 C1724 1.427 . S
N1728 C1725 1.384 . S
N1729 C1721 1.427 . S
N1729 C1727 1.384 . S
H1730 C1736 0.930 . S
H1731 C1740 0.930 . S
H1732 C1745 0.929 . S
H1733 C1743 0.929 . S
H1734 C1738 0.929 . S
H1735 C1744 0.929 . S
C1736 H1730 0.930 . S
C1736 C1737 1.367 . S
C1736 C1744 1.378 . S
C1737 C1736 1.367 . S
C1737 C1745 1.433 . S
C1738 H1734 0.929 . S
C1738 C1740 1.378 . S
C1738 C1742 1.350 . S
C1739 C1742 1.463 . S
C1739 C1744 1.350 . S
C1739 N1747 1.427 . S
C1740 H1731 0.930 . S
C1740 C1738 1.378 . S
C1740 C1741 1.367 . S
C1741 C1740 1.367 . S
C1741 C1743 1.433 . S
C1742 C1738 1.350 . S
C1742 C1739 1.463 . S
C1742 N1746 1.427 . S
C1743 H1733 0.929 . S
C1743 C1741 1.433 . S
C1743 N1746 1.384 . S
C1744 H1735 0.929 . S
C1744 C1736 1.378 . S
C1744 C1739 1.350 . S
C1745 H1732 0.929 . S
C1745 C1737 1.433 . S
C1745 N1747 1.384 . S
N1746 C1742 1.427 . S
N1746 C1743 1.384 . S
N1747 C1739 1.427 . S
N1747 C1745 1.384 . S
H1748 C1754 0.930 . S
H1749 C1758 0.930 . S
H1750 C1763 0.929 . S
H1751 C1761 0.929 . S
H1752 C1756 0.929 . S
H1753 C1762 0.929 . S
C1754 H1748 0.930 . S
C1754 C1755 1.367 . S
C1754 C1762 1.378 . S
C1755 C1754 1.367 . S
C1755 C1763 1.433 . S
C1756 H1752 0.929 . S
C1756 C1758 1.378 . S
C1756 C1760 1.350 . S
C1757 C1760 1.463 . S
C1757 C1762 1.350 . S
C1757 N1765 1.427 . S
C1758 H1749 0.930 . S
C1758 C1756 1.378 . S
C1758 C1759 1.367 . S
C1759 C1758 1.367 . S
C1759 C1761 1.433 . S
C1760 C1756 1.350 . S
C1760 C1757 1.463 . S
C1760 N1764 1.427 . S
C1761 H1751 0.929 . S
C1761 C1759 1.433 . S
C1761 N1764 1.384 . S
C1762 H1753 0.929 . S
C1762 C1754 1.378 . S
C1762 C1757 1.350 . S
C1763 H1750 0.929 . S
C1763 C1755 1.433 . S
C1763 N1765 1.384 . S
N1764 C1760 1.427 . S
N1764 C1761 1.384 . S
N1765 C1757 1.427 . S
N1765 C1763 1.384 . S
H1766 C1772 0.930 . S
H1767 C1776 0.930 . S
H1768 C1781 0.929 . S
H1769 C1779 0.929 . S
H1770 C1774 0.929 . S
H1771 C1780 0.929 . S
C1772 H1766 0.930 . S
C1772 C1773 1.367 . S
C1772 C1780 1.378 . S
C1773 C1772 1.367 . S
C1773 C1781 1.433 . S
C1774 H1770 0.929 . S
C1774 C1776 1.378 . S
C1774 C1778 1.350 . S
C1775 C1778 1.463 . S
C1775 C1780 1.350 . S
C1775 N1783 1.427 . S
C1776 H1767 0.930 . S
C1776 C1774 1.378 . S
C1776 C1777 1.367 . S
C1777 C1776 1.367 . S
C1777 C1779 1.433 . S
C1778 C1774 1.350 . S
C1778 C1775 1.463 . S
C1778 N1782 1.427 . S
C1779 H1769 0.929 . S
C1779 C1777 1.433 . S
C1779 N1782 1.384 . S
C1780 H1771 0.929 . S
C1780 C1772 1.378 . S
C1780 C1775 1.350 . S
C1781 H1768 0.929 . S
C1781 C1773 1.433 . S
C1781 N1783 1.384 . S
N1782 C1778 1.427 . S
N1782 C1779 1.384 . S
N1783 C1775 1.427 . S
N1783 C1781 1.384 . S
H1784 C1790 0.930 . S
H1785 C1794 0.930 . S
H1786 C1799 0.929 . S
H1787 C1797 0.929 . S
H1788 C1792 0.929 . S
H1789 C1798 0.929 . S
C1790 H1784 0.930 . S
C1790 C1791 1.367 . S
C1790 C1798 1.378 . S
C1791 C1790 1.367 . S
C1791 C1799 1.433 . S
C1792 H1788 0.929 . S
C1792 C1794 1.378 . S
C1792 C1796 1.350 . S
C1793 C1796 1.463 . S
C1793 C1798 1.350 . S
C1793 N1801 1.427 . S
C1794 H1785 0.930 . S
C1794 C1792 1.378 . S
C1794 C1795 1.367 . S
C1795 C1794 1.367 . S
C1795 C1797 1.433 . S
C1796 C1792 1.350 . S
C1796 C1793 1.463 . S
C1796 N1800 1.427 . S
C1797 H1787 0.929 . S
C1797 C1795 1.433 . S
C1797 N1800 1.384 . S
C1798 H1789 0.929 . S
C1798 C1790 1.378 . S
C1798 C1793 1.350 . S
C1799 H1786 0.929 . S
C1799 C1791 1.433 . S
C1799 N1801 1.384 . S
N1800 C1796 1.427 . S
N1800 C1797 1.384 . S
N1801 C1793 1.427 . S
N1801 C1799 1.384 . S
H1802 C1808 0.930 . S
H1803 C1812 0.930 . S
H1804 C1817 0.929 . S
H1805 C1815 0.929 . S
H1806 C1810 0.929 . S
H1807 C1816 0.929 . S
C1808 H1802 0.930 . S
C1808 C1809 1.367 . S
C1808 C1816 1.378 . S
C1809 C1808 1.367 . S
C1809 C1817 1.433 . S
C1810 H1806 0.929 . S
C1810 C1812 1.378 . S
C1810 C1814 1.350 . S
C1811 C1814 1.463 . S
C1811 C1816 1.350 . S
C1811 N1819 1.427 . S
C1812 H1803 0.930 . S
C1812 C1810 1.378 . S
C1812 C1813 1.367 . S
C1813 C1812 1.367 . S
C1813 C1815 1.433 . S
C1814 C1810 1.350 . S
C1814 C1811 1.463 . S
C1814 N1818 1.427 . S
C1815 H1805 0.929 . S
C1815 C1813 1.433 . S
C1815 N1818 1.384 . S
C1816 H1807 0.929 . S
C1816 C1808 1.378 . S
C1816 C1811 1.350 . S
C1817 H1804 0.929 . S
C1817 C1809 1.433 . S
C1817 N1819 1.384 . S
N1818 C1814 1.427 . S
N1818 C1815 1.384 . S
N1819 C1811 1.427 . S
N1819 C1817 1.384 . S
H1820 C1826 0.930 . S
H1821 C1830 0.930 . S
H1822 C1835 0.929 . S
H1823 C1833 0.929 . S
H1824 C1828 0.929 . S
H1825 C1834 0.929 . S
C1826 H1820 0.930 . S
C1826 C1827 1.367 . S
C1826 C1834 1.378 . S
C1827 C1826 1.367 . S
C1827 C1835 1.433 . S
C1828 H1824 0.929 . S
C1828 C1830 1.378 . S
C1828 C1832 1.350 . S
C1829 C1832 1.463 . S
C1829 C1834 1.350 . S
C1829 N1837 1.427 . S
C1830 H1821 0.930 . S
C1830 C1828 1.378 . S
C1830 C1831 1.367 . S
C1831 C1830 1.367 . S
C1831 C1833 1.433 . S
C1832 C1828 1.350 . S
C1832 C1829 1.463 . S
C1832 N1836 1.427 . S
C1833 H1823 0.929 . S
C1833 C1831 1.433 . S
C1833 N1836 1.384 . S
C1834 H1825 0.929 . S
C1834 C1826 1.378 . S
C1834 C1829 1.350 . S
C1835 H1822 0.929 . S
C1835 C1827 1.433 . S
C1835 N1837 1.384 . S
N1836 C1832 1.427 . S
N1836 C1833 1.384 . S
N1837 C1829 1.427 . S
N1837 C1835 1.384 . S
H1838 C1844 0.930 . S
H1839 C1848 0.930 . S
H1840 C1853 0.929 . S
H1841 C1851 0.929 . S
H1842 C1846 0.929 . S
H1843 C1852 0.929 . S
C1844 H1838 0.930 . S
C1844 C1845 1.367 . S
C1844 C1852 1.378 . S
C1845 C1844 1.367 . S
C1845 C1853 1.433 . S
C1846 H1842 0.929 . S
C1846 C1848 1.378 . S
C1846 C1850 1.350 . S
C1847 C1850 1.463 . S
C1847 C1852 1.350 . S
C1847 N1855 1.427 . S
C1848 H1839 0.930 . S
C1848 C1846 1.378 . S
C1848 C1849 1.367 . S
C1849 C1848 1.367 . S
C1849 C1851 1.433 . S
C1850 C1846 1.350 . S
C1850 C1847 1.463 . S
C1850 N1854 1.427 . S
C1851 H1841 0.929 . S
C1851 C1849 1.433 . S
C1851 N1854 1.384 . S
C1852 H1843 0.929 . S
C1852 C1844 1.378 . S
C1852 C1847 1.350 . S
C1853 H1840 0.929 . S
C1853 C1845 1.433 . S
C1853 N1855 1.384 . S
N1854 C1850 1.427 . S
N1854 C1851 1.384 . S
N1855 C1847 1.427 . S
N1855 C1853 1.384 . S
H1856 C1862 0.930 . S
H1857 C1866 0.930 . S
H1858 C1871 0.929 . S
H1859 C1869 0.929 . S
H1860 C1864 0.929 . S
H1861 C1870 0.929 . S
C1862 H1856 0.930 . S
C1862 C1863 1.367 . S
C1862 C1870 1.378 . S
C1863 C1862 1.367 . S
C1863 C1871 1.433 . S
C1864 H1860 0.929 . S
C1864 C1866 1.378 . S
C1864 C1868 1.350 . S
C1865 C1868 1.463 . S
C1865 C1870 1.350 . S
C1865 N1873 1.427 . S
C1866 H1857 0.930 . S
C1866 C1864 1.378 . S
C1866 C1867 1.367 . S
C1867 C1866 1.367 . S
C1867 C1869 1.433 . S
C1868 C1864 1.350 . S
C1868 C1865 1.463 . S
C1868 N1872 1.427 . S
C1869 H1859 0.929 . S
C1869 C1867 1.433 . S
C1869 N1872 1.384 . S
C1870 H1861 0.929 . S
C1870 C1862 1.378 . S
C1870 C1865 1.350 . S
C1871 H1858 0.929 . S
C1871 C1863 1.433 . S
C1871 N1873 1.384 . S
N1872 C1868 1.427 . S
N1872 C1869 1.384 . S
N1873 C1865 1.427 . S
N1873 C1871 1.384 . S
H1874 C1880 0.930 . S
H1875 C1884 0.930 . S
H1876 C1889 0.929 . S
H1877 C1887 0.929 1_655 S
H1878 C1882 0.929 . S
H1879 C1888 0.929 . S
C1880 H1874 0.930 . S
C1880 C1881 1.367 . S
C1880 C1888 1.378 . S
C1881 C1880 1.367 . S
C1881 C1889 1.433 . S
C1882 H1878 0.929 . S
C1882 C1884 1.378 . S
C1882 C1886 1.350 . S
C1883 C1886 1.463 . S
C1883 C1888 1.350 . S
C1883 N1891 1.427 . S
C1884 H1875 0.930 . S
C1884 C1882 1.378 . S
C1884 C1885 1.367 1_455 S
C1885 C1884 1.367 1_655 S
C1885 C1887 1.433 1_655 S
C1886 C1882 1.350 . S
C1886 C1883 1.463 . S
C1886 N1890 1.427 . S
C1887 H1877 0.929 1_455 S
C1887 C1885 1.433 1_455 S
C1887 N1890 1.384 . S
C1888 H1879 0.929 . S
C1888 C1880 1.378 . S
C1888 C1883 1.350 . S
C1889 H1876 0.929 . S
C1889 C1881 1.433 . S
C1889 N1891 1.384 . S
N1890 C1886 1.427 . S
N1890 C1887 1.384 . S
N1891 C1883 1.427 . S
N1891 C1889 1.384 . S
H1892 C1898 0.930 . S
H1893 C1902 0.930 . S
H1894 C1907 0.929 . S
H1895 C1905 0.929 . S
H1896 C1900 0.929 . S
H1897 C1906 0.929 . S
C1898 H1892 0.930 . S
C1898 C1899 1.367 . S
C1898 C1906 1.378 . S
C1899 C1898 1.367 . S
C1899 C1907 1.433 . S
C1900 H1896 0.929 . S
C1900 C1902 1.378 . S
C1900 C1904 1.350 . S
C1901 C1904 1.463 . S
C1901 C1906 1.350 . S
C1901 N1909 1.427 . S
C1902 H1893 0.930 . S
C1902 C1900 1.378 . S
C1902 C1903 1.367 . S
C1903 C1902 1.367 . S
C1903 C1905 1.433 . S
C1904 C1900 1.350 . S
C1904 C1901 1.463 . S
C1904 N1908 1.427 . S
C1905 H1895 0.929 . S
C1905 C1903 1.433 . S
C1905 N1908 1.384 . S
C1906 H1897 0.929 . S
C1906 C1898 1.378 . S
C1906 C1901 1.350 . S
C1907 H1894 0.929 . S
C1907 C1899 1.433 . S
C1907 N1909 1.384 . S
N1908 C1904 1.427 . S
N1908 C1905 1.384 . S
N1909 C1901 1.427 . S
N1909 C1907 1.384 . S
H1910 C1916 0.930 . S
H1911 C1920 0.930 . S
H1912 C1925 0.929 . S
H1913 C1923 0.929 . S
H1914 C1918 0.929 . S
H1915 C1924 0.929 . S
C1916 H1910 0.930 . S
C1916 C1917 1.367 . S
C1916 C1924 1.378 . S
C1917 C1916 1.367 . S
C1917 C1925 1.433 . S
C1918 H1914 0.929 . S
C1918 C1920 1.378 . S
C1918 C1922 1.350 . S
C1919 C1922 1.463 . S
C1919 C1924 1.350 . S
C1919 N1927 1.427 . S
C1920 H1911 0.930 . S
C1920 C1918 1.378 . S
C1920 C1921 1.367 . S
C1921 C1920 1.367 . S
C1921 C1923 1.433 . S
C1922 C1918 1.350 . S
C1922 C1919 1.463 . S
C1922 N1926 1.427 . S
C1923 H1913 0.929 . S
C1923 C1921 1.433 . S
C1923 N1926 1.384 . S
C1924 H1915 0.929 . S
C1924 C1916 1.378 . S
C1924 C1919 1.350 . S
C1925 H1912 0.929 . S
C1925 C1917 1.433 . S
C1925 N1927 1.384 . S
N1926 C1922 1.427 . S
N1926 C1923 1.384 . S
N1927 C1919 1.427 . S
N1927 C1925 1.384 . S
H1928 C1934 0.930 . S
H1929 C1938 0.930 . S
H1930 C1943 0.929 . S
H1931 C1941 0.929 . S
H1932 C1936 0.929 . S
H1933 C1942 0.929 . S
C1934 H1928 0.930 . S
C1934 C1935 1.367 . S
C1934 C1942 1.378 . S
C1935 C1934 1.367 . S
C1935 C1943 1.433 . S
C1936 H1932 0.929 . S
C1936 C1938 1.378 . S
C1936 C1940 1.350 . S
C1937 C1940 1.463 . S
C1937 C1942 1.350 . S
C1937 N1945 1.427 . S
C1938 H1929 0.930 . S
C1938 C1936 1.378 . S
C1938 C1939 1.367 . S
C1939 C1938 1.367 . S
C1939 C1941 1.433 . S
C1940 C1936 1.350 . S
C1940 C1937 1.463 . S
C1940 N1944 1.427 . S
C1941 H1931 0.929 . S
C1941 C1939 1.433 . S
C1941 N1944 1.384 . S
C1942 H1933 0.929 . S
C1942 C1934 1.378 . S
C1942 C1937 1.350 . S
C1943 H1930 0.929 . S
C1943 C1935 1.433 . S
C1943 N1945 1.384 . S
N1944 C1940 1.427 . S
N1944 C1941 1.384 . S
N1945 C1937 1.427 . S
N1945 C1943 1.384 . S
H1946 C1952 0.930 . S
H1947 C1956 0.930 . S
H1948 C1961 0.929 . S
H1949 C1959 0.929 . S
H1950 C1954 0.929 . S
H1951 C1960 0.929 . S
C1952 H1946 0.930 . S
C1952 C1953 1.367 . S
C1952 C1960 1.378 . S
C1953 C1952 1.367 . S
C1953 C1961 1.433 . S
C1954 H1950 0.929 . S
C1954 C1956 1.378 . S
C1954 C1958 1.350 . S
C1955 C1958 1.463 . S
C1955 C1960 1.350 . S
C1955 N1963 1.427 . S
C1956 H1947 0.930 . S
C1956 C1954 1.378 . S
C1956 C1957 1.367 . S
C1957 C1956 1.367 . S
C1957 C1959 1.433 . S
C1958 C1954 1.350 . S
C1958 C1955 1.463 . S
C1958 N1962 1.427 . S
C1959 H1949 0.929 . S
C1959 C1957 1.433 . S
C1959 N1962 1.384 . S
C1960 H1951 0.929 . S
C1960 C1952 1.378 . S
C1960 C1955 1.350 . S
C1961 H1948 0.929 . S
C1961 C1953 1.433 . S
C1961 N1963 1.384 . S
N1962 C1958 1.427 . S
N1962 C1959 1.384 . S
N1963 C1955 1.427 . S
N1963 C1961 1.384 . S
H1964 C1970 0.930 . S
H1965 C1974 0.930 . S
H1966 C1979 0.929 . S
H1967 C1977 0.929 . S
H1968 C1972 0.929 . S
H1969 C1978 0.929 . S
C1970 H1964 0.930 . S
C1970 C1971 1.367 . S
C1970 C1978 1.378 . S
C1971 C1970 1.367 . S
C1971 C1979 1.433 . S
C1972 H1968 0.929 . S
C1972 C1974 1.378 . S
C1972 C1976 1.350 . S
C1973 C1976 1.463 . S
C1973 C1978 1.350 . S
C1973 N1981 1.427 . S
C1974 H1965 0.930 . S
C1974 C1972 1.378 . S
C1974 C1975 1.367 . S
C1975 C1974 1.367 . S
C1975 C1977 1.433 . S
C1976 C1972 1.350 . S
C1976 C1973 1.463 . S
C1976 N1980 1.427 . S
C1977 H1967 0.929 . S
C1977 C1975 1.433 . S
C1977 N1980 1.384 . S
C1978 H1969 0.929 . S
C1978 C1970 1.378 . S
C1978 C1973 1.350 . S
C1979 H1966 0.929 . S
C1979 C1971 1.433 . S
C1979 N1981 1.384 . S
N1980 C1976 1.427 . S
N1980 C1977 1.384 . S
N1981 C1973 1.427 . S
N1981 C1979 1.384 . S
H1982 C1988 0.930 . S
H1983 C1992 0.930 . S
H1984 C1997 0.929 . S
H1985 C1995 0.929 1_655 S
H1986 C1990 0.929 . S
H1987 C1996 0.929 . S
C1988 H1982 0.930 . S
C1988 C1989 1.367 . S
C1988 C1996 1.378 . S
C1989 C1988 1.367 . S
C1989 C1997 1.433 . S
C1990 H1986 0.929 . S
C1990 C1992 1.378 . S
C1990 C1994 1.350 . S
C1991 C1994 1.463 . S
C1991 C1996 1.350 . S
C1991 N1999 1.427 . S
C1992 H1983 0.930 . S
C1992 C1990 1.378 . S
C1992 C1993 1.367 1_455 S
C1993 C1992 1.367 1_655 S
C1993 C1995 1.433 1_655 S
C1994 C1990 1.350 . S
C1994 C1991 1.463 . S
C1994 N1998 1.427 . S
C1995 H1985 0.929 1_455 S
C1995 C1993 1.433 1_455 S
C1995 N1998 1.384 . S
C1996 H1987 0.929 . S
C1996 C1988 1.378 . S
C1996 C1991 1.350 . S
C1997 H1984 0.929 . S
C1997 C1989 1.433 . S
C1997 N1999 1.384 . S
N1998 C1994 1.427 . S
N1998 C1995 1.384 . S
N1999 C1991 1.427 . S
N1999 C1997 1.384 . S
H2000 C2006 0.930 . S
H2001 C2010 0.930 . S
H2002 C2015 0.929 . S
H2003 C2013 0.929 . S
H2004 C2008 0.929 . S
H2005 C2014 0.929 . S
C2006 H2000 0.930 . S
C2006 C2007 1.367 . S
C2006 C2014 1.378 . S
C2007 C2006 1.367 . S
C2007 C2015 1.433 . S
C2008 H2004 0.929 . S
C2008 C2010 1.378 . S
C2008 C2012 1.350 . S
C2009 C2012 1.463 . S
C2009 C2014 1.350 . S
C2009 N2017 1.427 . S
C2010 H2001 0.930 . S
C2010 C2008 1.378 . S
C2010 C2011 1.367 . S
C2011 C2010 1.367 . S
C2011 C2013 1.433 . S
C2012 C2008 1.350 . S
C2012 C2009 1.463 . S
C2012 N2016 1.427 . S
C2013 H2003 0.929 . S
C2013 C2011 1.433 . S
C2013 N2016 1.384 . S
C2014 H2005 0.929 . S
C2014 C2006 1.378 . S
C2014 C2009 1.350 . S
C2015 H2002 0.929 . S
C2015 C2007 1.433 . S
C2015 N2017 1.384 . S
N2016 C2012 1.427 . S
N2016 C2013 1.384 . S
N2017 C2009 1.427 . S
N2017 C2015 1.384 . S
H2018 C2024 0.930 . S
H2019 C2028 0.930 . S
H2020 C2033 0.929 . S
H2021 C2031 0.929 . S
H2022 C2026 0.929 . S
H2023 C2032 0.929 . S
C2024 H2018 0.930 . S
C2024 C2025 1.367 . S
C2024 C2032 1.378 1_455 S
C2025 C2024 1.367 . S
C2025 C2033 1.433 1_455 S
C2026 H2022 0.929 . S
C2026 C2028 1.378 . S
C2026 C2030 1.350 . S
C2027 C2030 1.463 . S
C2027 C2032 1.350 . S
C2027 N2035 1.427 . S
C2028 H2019 0.930 . S
C2028 C2026 1.378 . S
C2028 C2029 1.367 . S
C2029 C2028 1.367 . S
C2029 C2031 1.433 . S
C2030 C2026 1.350 . S
C2030 C2027 1.463 . S
C2030 N2034 1.427 . S
C2031 H2021 0.929 . S
C2031 C2029 1.433 . S
C2031 N2034 1.384 . S
C2032 H2023 0.929 . S
C2032 C2024 1.378 1_655 S
C2032 C2027 1.350 . S
C2033 H2020 0.929 . S
C2033 C2025 1.433 1_655 S
C2033 N2035 1.384 . S
N2034 C2030 1.427 . S
N2034 C2031 1.384 . S
N2035 C2027 1.427 . S
N2035 C2033 1.384 . S
H2036 C2042 0.930 . S
H2037 C2046 0.930 . S
H2038 C2051 0.929 . S
H2039 C2049 0.929 . S
H2040 C2044 0.929 . S
H2041 C2050 0.929 . S
C2042 H2036 0.930 . S
C2042 C2043 1.367 . S
C2042 C2050 1.378 . S
C2043 C2042 1.367 . S
C2043 C2051 1.433 . S
C2044 H2040 0.929 . S
C2044 C2046 1.378 . S
C2044 C2048 1.350 . S
C2045 C2048 1.463 . S
C2045 C2050 1.350 . S
C2045 N2053 1.427 . S
C2046 H2037 0.930 . S
C2046 C2044 1.378 . S
C2046 C2047 1.367 . S
C2047 C2046 1.367 . S
C2047 C2049 1.433 . S
C2048 C2044 1.350 . S
C2048 C2045 1.463 . S
C2048 N2052 1.427 . S
C2049 H2039 0.929 . S
C2049 C2047 1.433 . S
C2049 N2052 1.384 . S
C2050 H2041 0.929 . S
C2050 C2042 1.378 . S
C2050 C2045 1.350 . S
C2051 H2038 0.929 . S
C2051 C2043 1.433 . S
C2051 N2053 1.384 . S
N2052 C2048 1.427 . S
N2052 C2049 1.384 . S
N2053 C2045 1.427 . S
N2053 C2051 1.384 . S
H2054 C2060 0.930 . S
H2055 C2064 0.930 . S
H2056 C2069 0.929 . S
H2057 C2067 0.929 . S
H2058 C2062 0.929 . S
H2059 C2068 0.929 . S
C2060 H2054 0.930 . S
C2060 C2061 1.367 . S
C2060 C2068 1.378 . S
C2061 C2060 1.367 . S
C2061 C2069 1.433 . S
C2062 H2058 0.929 . S
C2062 C2064 1.378 . S
C2062 C2066 1.350 . S
C2063 C2066 1.463 . S
C2063 C2068 1.350 . S
C2063 N2071 1.427 . S
C2064 H2055 0.930 . S
C2064 C2062 1.378 . S
C2064 C2065 1.367 . S
C2065 C2064 1.367 . S
C2065 C2067 1.433 . S
C2066 C2062 1.350 . S
C2066 C2063 1.463 . S
C2066 N2070 1.427 . S
C2067 H2057 0.929 . S
C2067 C2065 1.433 . S
C2067 N2070 1.384 . S
C2068 H2059 0.929 . S
C2068 C2060 1.378 . S
C2068 C2063 1.350 . S
C2069 H2056 0.929 . S
C2069 C2061 1.433 . S
C2069 N2071 1.384 . S
N2070 C2066 1.427 . S
N2070 C2067 1.384 . S
N2071 C2063 1.427 . S
N2071 C2069 1.384 . S
H2072 C2078 0.930 . S
H2073 C2082 0.930 . S
H2074 C2087 0.929 . S
H2075 C2085 0.929 . S
H2076 C2080 0.929 . S
H2077 C2086 0.929 . S
C2078 H2072 0.930 . S
C2078 C2079 1.367 . S
C2078 C2086 1.378 . S
C2079 C2078 1.367 . S
C2079 C2087 1.433 . S
C2080 H2076 0.929 . S
C2080 C2082 1.378 . S
C2080 C2084 1.350 . S
C2081 C2084 1.463 . S
C2081 C2086 1.350 . S
C2081 N2089 1.427 . S
C2082 H2073 0.930 . S
C2082 C2080 1.378 . S
C2082 C2083 1.367 . S
C2083 C2082 1.367 . S
C2083 C2085 1.433 . S
C2084 C2080 1.350 . S
C2084 C2081 1.463 . S
C2084 N2088 1.427 . S
C2085 H2075 0.929 . S
C2085 C2083 1.433 . S
C2085 N2088 1.384 . S
C2086 H2077 0.929 . S
C2086 C2078 1.378 . S
C2086 C2081 1.350 . S
C2087 H2074 0.929 . S
C2087 C2079 1.433 . S
C2087 N2089 1.384 . S
N2088 C2084 1.427 . S
N2088 C2085 1.384 . S
N2089 C2081 1.427 . S
N2089 C2087 1.384 . S
H2090 C2096 0.930 . S
H2091 C2100 0.930 . S
H2092 C2105 0.929 . S
H2093 C2103 0.929 . S
H2094 C2098 0.929 . S
H2095 C2104 0.929 . S
C2096 H2090 0.930 . S
C2096 C2097 1.367 . S
C2096 C2104 1.378 . S
C2097 C2096 1.367 . S
C2097 C2105 1.433 . S
C2098 H2094 0.929 . S
C2098 C2100 1.378 . S
C2098 C2102 1.350 . S
C2099 C2102 1.463 . S
C2099 C2104 1.350 . S
C2099 N2107 1.427 . S
C2100 H2091 0.930 . S
C2100 C2098 1.378 . S
C2100 C2101 1.367 . S
C2101 C2100 1.367 . S
C2101 C2103 1.433 . S
C2102 C2098 1.350 . S
C2102 C2099 1.463 . S
C2102 N2106 1.427 . S
C2103 H2093 0.929 . S
C2103 C2101 1.433 . S
C2103 N2106 1.384 . S
C2104 H2095 0.929 . S
C2104 C2096 1.378 . S
C2104 C2099 1.350 . S
C2105 H2092 0.929 . S
C2105 C2097 1.433 . S
C2105 N2107 1.384 . S
N2106 C2102 1.427 . S
N2106 C2103 1.384 . S
N2107 C2099 1.427 . S
N2107 C2105 1.384 . S
H2108 C2114 0.930 . S
H2109 C2118 0.930 . S
H2110 C2123 0.929 . S
H2111 C2121 0.929 . S
H2112 C2116 0.929 . S
H2113 C2122 0.929 . S
C2114 H2108 0.930 . S
C2114 C2115 1.367 . S
C2114 C2122 1.378 . S
C2115 C2114 1.367 . S
C2115 C2123 1.433 . S
C2116 H2112 0.929 . S
C2116 C2118 1.378 . S
C2116 C2120 1.350 . S
C2117 C2120 1.463 . S
C2117 C2122 1.350 . S
C2117 N2125 1.427 . S
C2118 H2109 0.930 . S
C2118 C2116 1.378 . S
C2118 C2119 1.367 . S
C2119 C2118 1.367 . S
C2119 C2121 1.433 . S
C2120 C2116 1.350 . S
C2120 C2117 1.463 . S
C2120 N2124 1.427 . S
C2121 H2111 0.929 . S
C2121 C2119 1.433 . S
C2121 N2124 1.384 . S
C2122 H2113 0.929 . S
C2122 C2114 1.378 . S
C2122 C2117 1.350 . S
C2123 H2110 0.929 . S
C2123 C2115 1.433 . S
C2123 N2125 1.384 . S
N2124 C2120 1.427 . S
N2124 C2121 1.384 . S
N2125 C2117 1.427 . S
N2125 C2123 1.384 . S
H2126 C2132 0.930 . S
H2127 C2136 0.930 . S
H2128 C2141 0.929 . S
H2129 C2139 0.929 . S
H2130 C2134 0.929 . S
H2131 C2140 0.929 . S
C2132 H2126 0.930 . S
C2132 C2133 1.367 . S
C2132 C2140 1.378 . S
C2133 C2132 1.367 . S
C2133 C2141 1.433 . S
C2134 H2130 0.929 . S
C2134 C2136 1.378 . S
C2134 C2138 1.350 . S
C2135 C2138 1.463 . S
C2135 C2140 1.350 . S
C2135 N2143 1.427 . S
C2136 H2127 0.930 . S
C2136 C2134 1.378 . S
C2136 C2137 1.321 1_655 S
C2137 C2136 1.321 1_455 S
C2137 C2139 1.437 . S
C2138 C2134 1.350 . S
C2138 C2135 1.463 . S
C2138 N2142 1.427 . S
C2139 H2129 0.929 . S
C2139 C2137 1.437 . S
C2139 N2142 1.384 1_455 S
C2140 H2131 0.929 . S
C2140 C2132 1.378 . S
C2140 C2135 1.350 . S
C2141 H2128 0.929 . S
C2141 C2133 1.433 . S
C2141 N2143 1.384 . S
N2142 C2138 1.427 . S
N2142 C2139 1.384 1_655 S
N2143 C2135 1.427 . S
N2143 C2141 1.384 . S
H2144 C2150 0.930 . S
H2145 C2154 0.930 . S
H2146 C2159 0.929 . S
H2147 C2157 0.929 . S
H2148 C2152 0.929 . S
H2149 C2158 0.929 . S
C2150 H2144 0.930 . S
C2150 C2151 1.367 . S
C2150 C2158 1.378 . S
C2151 C2150 1.367 . S
C2151 C2159 1.433 . S
C2152 H2148 0.929 . S
C2152 C2154 1.378 . S
C2152 C2156 1.350 . S
C2153 C2156 1.463 . S
C2153 C2158 1.350 . S
C2153 N2161 1.427 . S
C2154 H2145 0.930 . S
C2154 C2152 1.378 . S
C2154 C2155 1.367 . S
C2155 C2154 1.367 . S
C2155 C2157 1.433 . S
C2156 C2152 1.350 . S
C2156 C2153 1.463 . S
C2156 N2160 1.427 . S
C2157 H2147 0.929 . S
C2157 C2155 1.433 . S
C2157 N2160 1.384 . S
C2158 H2149 0.929 . S
C2158 C2150 1.378 . S
C2158 C2153 1.350 . S
C2159 H2146 0.929 . S
C2159 C2151 1.433 . S
C2159 N2161 1.384 . S
N2160 C2156 1.427 . S
N2160 C2157 1.384 . S
N2161 C2153 1.427 . S
N2161 C2159 1.384 . S
H2162 C2168 0.930 . S
H2163 C2172 0.930 . S
H2164 C2177 0.929 . S
H2165 C2175 0.929 . S
H2166 C2170 0.929 . S
H2167 C2176 0.929 . S
C2168 H2162 0.930 . S
C2168 C2169 1.367 . S
C2168 C2176 1.378 . S
C2169 C2168 1.367 . S
C2169 C2177 1.433 . S
C2170 H2166 0.929 . S
C2170 C2172 1.378 . S
C2170 C2174 1.350 . S
C2171 C2174 1.463 . S
C2171 C2176 1.350 . S
C2171 N2179 1.427 . S
C2172 H2163 0.930 . S
C2172 C2170 1.378 . S
C2172 C2173 1.367 . S
C2173 C2172 1.367 . S
C2173 C2175 1.433 . S
C2174 C2170 1.350 . S
C2174 C2171 1.463 . S
C2174 N2178 1.427 . S
C2175 H2165 0.929 . S
C2175 C2173 1.433 . S
C2175 N2178 1.384 . S
C2176 H2167 0.929 . S
C2176 C2168 1.378 . S
C2176 C2171 1.350 . S
C2177 H2164 0.929 . S
C2177 C2169 1.433 . S
C2177 N2179 1.384 . S
N2178 C2174 1.427 . S
N2178 C2175 1.384 . S
N2179 C2171 1.427 . S
N2179 C2177 1.384 . S
H2180 C2186 0.930 . S
H2181 C2190 0.930 . S
H2182 C2195 0.929 . S
H2183 C2193 0.929 . S
H2184 C2188 0.929 . S
H2185 C2194 0.929 . S
C2186 H2180 0.930 . S
C2186 C2187 1.367 . S
C2186 C2194 1.378 . S
C2187 C2186 1.367 . S
C2187 C2195 1.433 . S
C2188 H2184 0.929 . S
C2188 C2190 1.378 . S
C2188 C2192 1.350 . S
C2189 C2192 1.463 . S
C2189 C2194 1.350 . S
C2189 N2197 1.427 . S
C2190 H2181 0.930 . S
C2190 C2188 1.378 . S
C2190 C2191 1.367 . S
C2191 C2190 1.367 . S
C2191 C2193 1.433 . S
C2192 C2188 1.350 . S
C2192 C2189 1.463 . S
C2192 N2196 1.427 . S
C2193 H2183 0.929 . S
C2193 C2191 1.433 . S
C2193 N2196 1.384 . S
C2194 H2185 0.929 . S
C2194 C2186 1.378 . S
C2194 C2189 1.350 . S
C2195 H2182 0.929 . S
C2195 C2187 1.433 . S
C2195 N2197 1.384 . S
N2196 C2192 1.427 . S
N2196 C2193 1.384 . S
N2197 C2189 1.427 . S
N2197 C2195 1.384 . S
H2198 C2204 0.930 . S
H2199 C2208 0.930 . S
H2200 C2213 0.929 . S
H2201 C2211 0.929 1_455 S
H2202 C2206 0.929 . S
H2203 C2212 0.929 . S
C2204 H2198 0.930 . S
C2204 C2205 1.367 . S
C2204 C2212 1.378 . S
C2205 C2204 1.367 . S
C2205 C2213 1.433 . S
C2206 H2202 0.929 . S
C2206 C2208 1.378 . S
C2206 C2210 1.350 . S
C2207 C2210 1.463 . S
C2207 C2212 1.350 . S
C2207 N2215 1.427 . S
C2208 H2199 0.930 . S
C2208 C2206 1.378 . S
C2208 C2209 1.367 1_655 S
C2209 C2208 1.367 1_455 S
C2209 C2211 1.433 1_455 S
C2210 C2206 1.350 . S
C2210 C2207 1.463 . S
C2210 N2214 1.427 . S
C2211 H2201 0.929 1_655 S
C2211 C2209 1.433 1_655 S
C2211 N2214 1.384 . S
C2212 H2203 0.929 . S
C2212 C2204 1.378 . S
C2212 C2207 1.350 . S
C2213 H2200 0.929 . S
C2213 C2205 1.433 . S
C2213 N2215 1.384 . S
N2214 C2210 1.427 . S
N2214 C2211 1.384 . S
N2215 C2207 1.427 . S
N2215 C2213 1.384 . S
H2216 C2222 0.930 . S
H2217 C2226 0.930 . S
H2218 C2231 0.929 . S
H2219 C2229 0.929 . S
H2220 C2224 0.929 . S
H2221 C2230 0.929 . S
C2222 H2216 0.930 . S
C2222 C2223 1.367 . S
C2222 C2230 1.378 . S
C2223 C2222 1.367 . S
C2223 C2231 1.433 . S
C2224 H2220 0.929 . S
C2224 C2226 1.378 . S
C2224 C2228 1.350 . S
C2225 C2228 1.463 . S
C2225 C2230 1.350 . S
C2225 N2233 1.427 . S
C2226 H2217 0.930 . S
C2226 C2224 1.378 . S
C2226 C2227 1.367 . S
C2227 C2226 1.367 . S
C2227 C2229 1.433 . S
C2228 C2224 1.350 . S
C2228 C2225 1.463 . S
C2228 N2232 1.427 . S
C2229 H2219 0.929 . S
C2229 C2227 1.433 . S
C2229 N2232 1.384 . S
C2230 H2221 0.929 . S
C2230 C2222 1.378 . S
C2230 C2225 1.350 . S
C2231 H2218 0.929 . S
C2231 C2223 1.433 . S
C2231 N2233 1.384 . S
N2232 C2228 1.427 . S
N2232 C2229 1.384 . S
N2233 C2225 1.427 . S
N2233 C2231 1.384 . S
H2234 C2240 0.930 . S
H2235 C2244 0.930 1_455 S
H2236 C2249 0.929 . S
H2237 C2247 0.929 . S
H2238 C2242 0.929 . S
H2239 C2248 0.929 . S
C2240 H2234 0.930 . S
C2240 C2241 1.367 . S
C2240 C2248 1.378 . S
C2241 C2240 1.367 . S
C2241 C2249 1.433 . S
C2242 H2238 0.929 . S
C2242 C2244 1.378 . S
C2242 C2246 1.350 . S
C2243 C2246 1.463 . S
C2243 C2248 1.350 . S
C2243 N2251 1.427 . S
C2244 H2235 0.930 1_655 S
C2244 C2242 1.378 . S
C2244 C2245 1.367 1_655 S
C2245 C2244 1.367 1_455 S
C2245 C2247 1.433 1_455 S
C2246 C2242 1.350 . S
C2246 C2243 1.463 . S
C2246 N2250 1.427 . S
C2247 H2237 0.929 . S
C2247 C2245 1.433 1_655 S
C2247 N2250 1.384 . S
C2248 H2239 0.929 . S
C2248 C2240 1.378 . S
C2248 C2243 1.350 . S
C2249 H2236 0.929 . S
C2249 C2241 1.433 . S
C2249 N2251 1.384 . S
N2250 C2246 1.427 . S
N2250 C2247 1.384 . S
N2251 C2243 1.427 . S
N2251 C2249 1.384 . S
H2252 C2258 0.930 . S
H2253 C2262 0.930 . S
H2254 C2267 0.929 . S
H2255 C2265 0.929 . S
H2256 C2260 0.929 . S
H2257 C2266 0.929 . S
C2258 H2252 0.930 . S
C2258 C2259 1.367 . S
C2258 C2266 1.378 . S
C2259 C2258 1.367 . S
C2259 C2267 1.433 . S
C2260 H2256 0.929 . S
C2260 C2262 1.378 . S
C2260 C2264 1.350 . S
C2261 C2264 1.463 . S
C2261 C2266 1.350 . S
C2261 N2269 1.427 . S
C2262 H2253 0.930 . S
C2262 C2260 1.378 . S
C2262 C2263 1.367 . S
C2263 C2262 1.367 . S
C2263 C2265 1.433 . S
C2264 C2260 1.350 . S
C2264 C2261 1.463 . S
C2264 N2268 1.427 . S
C2265 H2255 0.929 . S
C2265 C2263 1.433 . S
C2265 N2268 1.384 . S
C2266 H2257 0.929 . S
C2266 C2258 1.378 . S
C2266 C2261 1.350 . S
C2267 H2254 0.929 . S
C2267 C2259 1.433 . S
C2267 N2269 1.384 . S
N2268 C2264 1.427 . S
N2268 C2265 1.384 . S
N2269 C2261 1.427 . S
N2269 C2267 1.384 . S
H2270 C2276 0.930 . S
H2271 C2280 0.930 . S
H2272 C2285 0.929 . S
H2273 C2283 0.929 . S
H2274 C2278 0.929 . S
H2275 C2284 0.929 . S
C2276 H2270 0.930 . S
C2276 C2277 1.367 . S
C2276 C2284 1.378 . S
C2277 C2276 1.367 . S
C2277 C2285 1.433 . S
C2278 H2274 0.929 . S
C2278 C2280 1.378 . S
C2278 C2282 1.350 . S
C2279 C2282 1.463 . S
C2279 C2284 1.350 . S
C2279 N2287 1.427 . S
C2280 H2271 0.930 . S
C2280 C2278 1.378 . S
C2280 C2281 1.367 . S
C2281 C2280 1.367 . S
C2281 C2283 1.433 . S
C2282 C2278 1.350 . S
C2282 C2279 1.463 . S
C2282 N2286 1.427 . S
C2283 H2273 0.929 . S
C2283 C2281 1.433 . S
C2283 N2286 1.384 . S
C2284 H2275 0.929 . S
C2284 C2276 1.378 . S
C2284 C2279 1.350 . S
C2285 H2272 0.929 . S
C2285 C2277 1.433 . S
C2285 N2287 1.384 . S
N2286 C2282 1.427 . S
N2286 C2283 1.384 . S
N2287 C2279 1.427 . S
N2287 C2285 1.384 . S
H2288 C2294 0.930 . S
H2289 C2298 0.930 . S
H2290 C2303 0.929 . S
H2291 C2301 0.929 . S
H2292 C2296 0.929 . S
H2293 C2302 0.929 . S
C2294 H2288 0.930 . S
C2294 C2295 1.367 . S
C2294 C2302 1.378 . S
C2295 C2294 1.367 . S
C2295 C2303 1.433 . S
C2296 H2292 0.929 . S
C2296 C2298 1.378 . S
C2296 C2300 1.350 . S
C2297 C2300 1.463 . S
C2297 C2302 1.350 . S
C2297 N2305 1.427 . S
C2298 H2289 0.930 . S
C2298 C2296 1.378 . S
C2298 C2299 1.367 . S
C2299 C2298 1.367 . S
C2299 C2301 1.433 . S
C2300 C2296 1.350 . S
C2300 C2297 1.463 . S
C2300 N2304 1.427 . S
C2301 H2291 0.929 . S
C2301 C2299 1.433 . S
C2301 N2304 1.384 . S
C2302 H2293 0.929 . S
C2302 C2294 1.378 . S
C2302 C2297 1.350 . S
C2303 H2290 0.929 . S
C2303 C2295 1.433 . S
C2303 N2305 1.384 . S
N2304 C2300 1.427 . S
N2304 C2301 1.384 . S
N2305 C2297 1.427 . S
N2305 C2303 1.384 . S
H2306 C2312 0.930 . S
H2307 C2316 0.930 . S
H2308 C2321 0.929 . S
H2309 C2319 0.929 . S
H2310 C2314 0.929 . S
H2311 C2320 0.929 . S
C2312 H2306 0.930 . S
C2312 C2313 1.367 . S
C2312 C2320 1.378 . S
C2313 C2312 1.367 . S
C2313 C2321 1.433 . S
C2314 H2310 0.929 . S
C2314 C2316 1.378 . S
C2314 C2318 1.350 . S
C2315 C2318 1.463 . S
C2315 C2320 1.350 . S
C2315 N2323 1.427 . S
C2316 H2307 0.930 . S
C2316 C2314 1.378 . S
C2316 C2317 1.367 . S
C2317 C2316 1.367 . S
C2317 C2319 1.433 . S
C2318 C2314 1.350 . S
C2318 C2315 1.463 . S
C2318 N2322 1.427 . S
C2319 H2309 0.929 . S
C2319 C2317 1.433 . S
C2319 N2322 1.384 . S
C2320 H2311 0.929 . S
C2320 C2312 1.378 . S
C2320 C2315 1.350 . S
C2321 H2308 0.929 . S
C2321 C2313 1.433 . S
C2321 N2323 1.384 . S
N2322 C2318 1.427 . S
N2322 C2319 1.384 . S
N2323 C2315 1.427 . S
N2323 C2321 1.384 . S
H2324 C2330 0.930 . S
H2325 C2334 0.930 . S
H2326 C2339 0.929 . S
H2327 C2337 0.929 . S
H2328 C2332 0.929 . S
H2329 C2338 0.929 . S
C2330 H2324 0.930 . S
C2330 C2331 1.367 . S
C2330 C2338 1.378 . S
C2331 C2330 1.367 . S
C2331 C2339 1.433 . S
C2332 H2328 0.929 . S
C2332 C2334 1.378 . S
C2332 C2336 1.350 . S
C2333 C2336 1.463 . S
C2333 C2338 1.350 . S
C2333 N2341 1.427 . S
C2334 H2325 0.930 . S
C2334 C2332 1.378 . S
C2334 C2335 1.367 . S
C2335 C2334 1.367 . S
C2335 C2337 1.433 . S
C2336 C2332 1.350 . S
C2336 C2333 1.463 . S
C2336 N2340 1.427 . S
C2337 H2327 0.929 . S
C2337 C2335 1.433 . S
C2337 N2340 1.384 . S
C2338 H2329 0.929 . S
C2338 C2330 1.378 . S
C2338 C2333 1.350 . S
C2339 H2326 0.929 . S
C2339 C2331 1.433 . S
C2339 N2341 1.384 . S
N2340 C2336 1.427 . S
N2340 C2337 1.384 . S
N2341 C2333 1.427 . S
N2341 C2339 1.384 . S
H2342 C2348 0.930 . S
H2343 C2352 0.930 . S
H2344 C2357 0.929 . S
H2345 C2355 0.929 . S
H2346 C2350 0.929 . S
H2347 C2356 0.929 . S
C2348 H2342 0.930 . S
C2348 C2349 1.367 1_455 S
C2348 C2356 1.378 . S
C2349 C2348 1.367 1_655 S
C2349 C2357 1.433 1_655 S
C2350 H2346 0.929 . S
C2350 C2352 1.378 . S
C2350 C2354 1.350 . S
C2351 C2354 1.463 . S
C2351 C2356 1.350 . S
C2351 N2359 1.427 . S
C2352 H2343 0.930 . S
C2352 C2350 1.378 . S
C2352 C2353 1.367 . S
C2353 C2352 1.367 . S
C2353 C2355 1.433 . S
C2354 C2350 1.350 . S
C2354 C2351 1.463 . S
C2354 N2358 1.427 . S
C2355 H2345 0.929 . S
C2355 C2353 1.433 . S
C2355 N2358 1.384 . S
C2356 H2347 0.929 . S
C2356 C2348 1.378 . S
C2356 C2351 1.350 . S
C2357 H2344 0.929 . S
C2357 C2349 1.433 1_455 S
C2357 N2359 1.384 . S
N2358 C2354 1.427 . S
N2358 C2355 1.384 . S
N2359 C2351 1.427 . S
N2359 C2357 1.384 . S
H2360 C2366 0.930 . S
H2361 C2370 0.930 . S
H2362 C2375 0.929 . S
H2363 C2373 0.929 . S
H2364 C2368 0.929 . S
H2365 C2374 0.929 . S
C2366 H2360 0.930 . S
C2366 C2367 1.367 . S
C2366 C2374 1.378 . S
C2367 C2366 1.367 . S
C2367 C2375 1.433 . S
C2368 H2364 0.929 . S
C2368 C2370 1.378 . S
C2368 C2372 1.350 . S
C2369 C2372 1.463 . S
C2369 C2374 1.350 . S
C2369 N2377 1.427 . S
C2370 H2361 0.930 . S
C2370 C2368 1.378 . S
C2370 C2371 1.367 . S
C2371 C2370 1.367 . S
C2371 C2373 1.433 . S
C2372 C2368 1.350 . S
C2372 C2369 1.463 . S
C2372 N2376 1.427 . S
C2373 H2363 0.929 . S
C2373 C2371 1.433 . S
C2373 N2376 1.384 . S
C2374 H2365 0.929 . S
C2374 C2366 1.378 . S
C2374 C2369 1.350 . S
C2375 H2362 0.929 . S
C2375 C2367 1.433 . S
C2375 N2377 1.384 . S
N2376 C2372 1.427 . S
N2376 C2373 1.384 . S
N2377 C2369 1.427 . S
N2377 C2375 1.384 . S
H2378 C2384 0.930 . S
H2379 C2388 0.930 1_655 S
H2380 C2393 0.929 . S
H2381 C2391 0.929 . S
H2382 C2386 0.929 . S
H2383 C2392 0.929 . S
C2384 H2378 0.930 . S
C2384 C2385 1.367 . S
C2384 C2392 1.378 . S
C2385 C2384 1.367 . S
C2385 C2393 1.433 . S
C2386 H2382 0.929 . S
C2386 C2388 1.378 . S
C2386 C2390 1.350 . S
C2387 C2390 1.463 . S
C2387 C2392 1.350 . S
C2387 N2395 1.427 . S
C2388 H2379 0.930 1_455 S
C2388 C2386 1.378 . S
C2388 C2389 1.367 1_455 S
C2389 C2388 1.367 1_655 S
C2389 C2391 1.433 1_655 S
C2390 C2386 1.350 . S
C2390 C2387 1.463 . S
C2390 N2394 1.427 . S
C2391 H2381 0.929 . S
C2391 C2389 1.433 1_455 S
C2391 N2394 1.384 . S
C2392 H2383 0.929 . S
C2392 C2384 1.378 . S
C2392 C2387 1.350 . S
C2393 H2380 0.929 . S
C2393 C2385 1.433 . S
C2393 N2395 1.384 . S
N2394 C2390 1.427 . S
N2394 C2391 1.384 . S
N2395 C2387 1.427 . S
N2395 C2393 1.384 . S
H2396 C2402 0.930 . S
H2397 C2406 0.930 . S
H2398 C2411 0.929 . S
H2399 C2409 0.929 . S
H2400 C2404 0.929 . S
H2401 C2410 0.929 . S
C2402 H2396 0.930 . S
C2402 C2403 1.367 . S
C2402 C2410 1.378 . S
C2403 C2402 1.367 . S
C2403 C2411 1.433 . S
C2404 H2400 0.929 . S
C2404 C2406 1.378 . S
C2404 C2408 1.350 . S
C2405 C2408 1.463 . S
C2405 C2410 1.350 . S
C2405 N2413 1.427 . S
C2406 H2397 0.930 . S
C2406 C2404 1.378 . S
C2406 C2407 1.367 . S
C2407 C2406 1.367 . S
C2407 C2409 1.433 . S
C2408 C2404 1.350 . S
C2408 C2405 1.463 . S
C2408 N2412 1.427 . S
C2409 H2399 0.929 . S
C2409 C2407 1.433 . S
C2409 N2412 1.384 . S
C2410 H2401 0.929 . S
C2410 C2402 1.378 . S
C2410 C2405 1.350 . S
C2411 H2398 0.929 . S
C2411 C2403 1.433 . S
C2411 N2413 1.384 . S
N2412 C2408 1.427 . S
N2412 C2409 1.384 . S
N2413 C2405 1.427 . S
N2413 C2411 1.384 . S
H2414 C2420 0.930 . S
H2415 C2424 0.930 . S
H2416 C2429 0.929 . S
H2417 C2427 0.929 . S
H2418 C2422 0.929 . S
H2419 C2428 0.929 . S
C2420 H2414 0.930 . S
C2420 C2421 1.367 . S
C2420 C2428 1.378 . S
C2421 C2420 1.367 . S
C2421 C2429 1.433 . S
C2422 H2418 0.929 . S
C2422 C2424 1.378 . S
C2422 C2426 1.350 . S
C2423 C2426 1.463 . S
C2423 C2428 1.350 . S
C2423 N2431 1.427 . S
C2424 H2415 0.930 . S
C2424 C2422 1.378 . S
C2424 C2425 1.367 . S
C2425 C2424 1.367 . S
C2425 C2427 1.433 . S
C2426 C2422 1.350 . S
C2426 C2423 1.463 . S
C2426 N2430 1.427 . S
C2427 H2417 0.929 . S
C2427 C2425 1.433 . S
C2427 N2430 1.384 . S
C2428 H2419 0.929 . S
C2428 C2420 1.378 . S
C2428 C2423 1.350 . S
C2429 H2416 0.929 . S
C2429 C2421 1.433 . S
C2429 N2431 1.384 . S
N2430 C2426 1.427 . S
N2430 C2427 1.384 . S
N2431 C2423 1.427 . S
N2431 C2429 1.384 . S
H2432 C2438 0.930 . S
H2433 C2442 0.930 . S
H2434 C2447 0.929 . S
H2435 C2445 0.929 . S
H2436 C2440 0.929 . S
H2437 C2446 0.929 . S
C2438 H2432 0.930 . S
C2438 C2439 1.367 . S
C2438 C2446 1.378 . S
C2439 C2438 1.367 . S
C2439 C2447 1.433 . S
C2440 H2436 0.929 . S
C2440 C2442 1.378 . S
C2440 C2444 1.350 . S
C2441 C2444 1.463 1_545 S
C2441 C2446 1.350 . S
C2441 N2449 1.427 . S
C2442 H2433 0.930 . S
C2442 C2440 1.378 . S
C2442 C2443 1.367 . S
C2443 C2442 1.367 . S
C2443 C2445 1.433 . S
C2444 C2440 1.350 . S
C2444 C2441 1.463 1_565 S
C2444 N2448 1.427 . S
C2445 H2435 0.929 . S
C2445 C2443 1.433 . S
C2445 N2448 1.384 . S
C2446 H2437 0.929 . S
C2446 C2438 1.378 . S
C2446 C2441 1.350 . S
C2447 H2434 0.929 . S
C2447 C2439 1.433 . S
C2447 N2449 1.384 . S
N2448 C2444 1.427 . S
N2448 C2445 1.384 . S
N2449 C2441 1.427 . S
N2449 C2447 1.384 . S
H2450 C2456 0.930 . S
H2451 C2460 0.930 . S
H2452 C2465 0.929 . S
H2453 C2463 0.929 . S
H2454 C2458 0.929 . S
H2455 C2464 0.929 . S
C2456 H2450 0.930 . S
C2456 C2457 1.367 . S
C2456 C2464 1.378 . S
C2457 C2456 1.367 . S
C2457 C2465 1.433 . S
C2458 H2454 0.929 . S
C2458 C2460 1.378 . S
C2458 C2462 1.350 . S
C2459 C2462 1.463 . S
C2459 C2464 1.350 . S
C2459 N2467 1.427 . S
C2460 H2451 0.930 . S
C2460 C2458 1.378 . S
C2460 C2461 1.367 . S
C2461 C2460 1.367 . S
C2461 C2463 1.433 . S
C2462 C2458 1.350 . S
C2462 C2459 1.463 . S
C2462 N2466 1.427 . S
C2463 H2453 0.929 . S
C2463 C2461 1.433 . S
C2463 N2466 1.384 . S
C2464 H2455 0.929 . S
C2464 C2456 1.378 . S
C2464 C2459 1.350 . S
C2465 H2452 0.929 . S
C2465 C2457 1.433 . S
C2465 N2467 1.384 . S
N2466 C2462 1.427 . S
N2466 C2463 1.384 . S
N2467 C2459 1.427 . S
N2467 C2465 1.384 . S
H2468 C2474 0.930 . S
H2469 C2478 0.930 . S
H2470 C2483 0.929 . S
H2471 C2481 0.929 . S
H2472 C2476 0.929 . S
H2473 C2482 0.929 . S
C2474 H2468 0.930 . S
C2474 C2475 1.367 . S
C2474 C2482 1.378 . S
C2475 C2474 1.367 . S
C2475 C2483 1.433 . S
C2476 H2472 0.929 . S
C2476 C2478 1.378 . S
C2476 C2480 1.350 . S
C2477 C2480 1.463 1_565 S
C2477 C2482 1.350 . S
C2477 N2485 1.427 . S
C2478 H2469 0.930 . S
C2478 C2476 1.378 . S
C2478 C2479 1.367 . S
C2479 C2478 1.367 . S
C2479 C2481 1.433 . S
C2480 C2476 1.350 . S
C2480 C2477 1.463 1_545 S
C2480 N2484 1.427 . S
C2481 H2471 0.929 . S
C2481 C2479 1.433 . S
C2481 N2484 1.384 . S
C2482 H2473 0.929 . S
C2482 C2474 1.378 . S
C2482 C2477 1.350 . S
C2483 H2470 0.929 . S
C2483 C2475 1.433 . S
C2483 N2485 1.384 . S
N2484 C2480 1.427 . S
N2484 C2481 1.384 . S
N2485 C2477 1.427 . S
N2485 C2483 1.384 . S
H2486 C2492 0.930 . S
H2487 C2496 0.930 . S
H2488 C2501 0.929 . S
H2489 C2499 0.929 . S
H2490 C2494 0.929 . S
H2491 C2500 0.929 . S
C2492 H2486 0.930 . S
C2492 C2493 1.367 . S
C2492 C2500 1.378 . S
C2493 C2492 1.367 . S
C2493 C2501 1.433 1_556 S
C2494 H2490 0.929 . S
C2494 C2496 1.378 . S
C2494 C2498 1.350 . S
C2495 C2498 1.463 1_556 S
C2495 C2500 1.350 . S
C2495 N2503 1.427 1_556 S
C2496 H2487 0.930 . S
C2496 C2494 1.378 . S
C2496 C2497 1.367 . S
C2497 C2496 1.367 . S
C2497 C2499 1.433 1_554 S
C2498 C2494 1.350 . S
C2498 C2495 1.463 1_554 S
C2498 N2502 1.427 1_554 S
C2499 H2489 0.929 . S
C2499 C2497 1.433 1_556 S
C2499 N2502 1.384 . S
C2500 H2491 0.929 . S
C2500 C2492 1.378 . S
C2500 C2495 1.350 . S
C2501 H2488 0.929 . S
C2501 C2493 1.433 1_554 S
C2501 N2503 1.384 . S
N2502 C2498 1.427 1_556 S
N2502 C2499 1.384 . S
N2503 C2495 1.427 1_554 S
N2503 C2501 1.384 . S
H2504 C2510 0.930 . S
H2505 C2514 0.930 . S
H2506 C2519 0.929 . S
H2507 C2517 0.929 . S
H2508 C2512 0.929 . S
H2509 C2518 0.929 . S
C2510 H2504 0.930 . S
C2510 C2511 1.367 . S
C2510 C2518 1.378 . S
C2511 C2510 1.367 . S
C2511 C2519 1.433 . S
C2512 H2508 0.929 . S
C2512 C2514 1.378 . S
C2512 C2516 1.350 . S
C2513 C2516 1.463 1_545 S
C2513 C2518 1.350 . S
C2513 N2521 1.427 . S
C2514 H2505 0.930 . S
C2514 C2512 1.378 . S
C2514 C2515 1.367 . S
C2515 C2514 1.367 . S
C2515 C2517 1.433 . S
C2516 C2512 1.350 . S
C2516 C2513 1.463 1_565 S
C2516 N2520 1.427 . S
C2517 H2507 0.929 . S
C2517 C2515 1.433 . S
C2517 N2520 1.384 . S
C2518 H2509 0.929 . S
C2518 C2510 1.378 . S
C2518 C2513 1.350 . S
C2519 H2506 0.929 . S
C2519 C2511 1.433 . S
C2519 N2521 1.384 . S
N2520 C2516 1.427 . S
N2520 C2517 1.384 . S
N2521 C2513 1.427 . S
N2521 C2519 1.384 . S
H2522 C2528 0.930 . S
H2523 C2532 0.930 . S
H2524 C2537 0.929 . S
H2525 C2535 0.929 . S
H2526 C2530 0.929 . S
H2527 C2536 0.929 . S
C2528 H2522 0.930 . S
C2528 C2529 1.367 . S
C2528 C2536 1.378 . S
C2529 C2528 1.367 . S
C2529 C2537 1.433 . S
C2530 H2526 0.929 . S
C2530 C2532 1.378 . S
C2530 C2534 1.350 . S
C2531 C2534 1.463 . S
C2531 C2536 1.350 . S
C2531 N2539 1.427 . S
C2532 H2523 0.930 . S
C2532 C2530 1.378 . S
C2532 C2533 1.367 . S
C2533 C2532 1.367 . S
C2533 C2535 1.433 . S
C2534 C2530 1.350 . S
C2534 C2531 1.463 . S
C2534 N2538 1.427 . S
C2535 H2525 0.929 . S
C2535 C2533 1.433 . S
C2535 N2538 1.384 . S
C2536 H2527 0.929 . S
C2536 C2528 1.378 . S
C2536 C2531 1.350 . S
C2537 H2524 0.929 . S
C2537 C2529 1.433 . S
C2537 N2539 1.384 . S
N2538 C2534 1.427 . S
N2538 C2535 1.384 . S
N2539 C2531 1.427 . S
N2539 C2537 1.384 . S
H2540 C2546 0.930 . S
H2541 C2550 0.930 . S
H2542 C2555 0.929 . S
H2543 C2553 0.929 . S
H2544 C2548 0.929 . S
H2545 C2554 0.929 . S
C2546 H2540 0.930 . S
C2546 C2547 1.367 . S
C2546 C2554 1.378 . S
C2547 C2546 1.367 . S
C2547 C2555 1.433 . S
C2548 H2544 0.929 . S
C2548 C2550 1.378 . S
C2548 C2552 1.350 . S
C2549 C2552 1.463 1_545 S
C2549 C2554 1.350 . S
C2549 N2557 1.427 . S
C2550 H2541 0.930 . S
C2550 C2548 1.378 . S
C2550 C2551 1.367 . S
C2551 C2550 1.367 . S
C2551 C2553 1.433 . S
C2552 C2548 1.350 . S
C2552 C2549 1.463 1_565 S
C2552 N2556 1.427 . S
C2553 H2543 0.929 . S
C2553 C2551 1.433 . S
C2553 N2556 1.384 . S
C2554 H2545 0.929 . S
C2554 C2546 1.378 . S
C2554 C2549 1.350 . S
C2555 H2542 0.929 . S
C2555 C2547 1.433 . S
C2555 N2557 1.384 . S
N2556 C2552 1.427 . S
N2556 C2553 1.384 . S
N2557 C2549 1.427 . S
N2557 C2555 1.384 . S
H2558 C2564 0.930 . S
H2559 C2568 0.930 . S
H2560 C2573 0.929 . S
H2561 C2571 0.929 . S
H2562 C2566 0.929 . S
H2563 C2572 0.929 . S
C2564 H2558 0.930 . S
C2564 C2565 1.367 . S
C2564 C2572 1.378 . S
C2565 C2564 1.367 . S
C2565 C2573 1.435 . S
C2566 H2562 0.929 . S
C2566 C2568 1.378 . S
C2566 C2570 1.351 . S
C2567 C2570 1.462 1_556 S
C2567 C2572 1.351 . S
C2567 N2575 1.427 . S
C2568 H2559 0.930 . S
C2568 C2566 1.378 . S
C2568 C2569 1.367 . S
C2569 C2568 1.367 . S
C2569 C2571 1.435 . S
C2570 C2566 1.351 . S
C2570 C2567 1.462 1_554 S
C2570 N2574 1.427 . S
C2571 H2561 0.929 . S
C2571 C2569 1.435 . S
C2571 N2574 1.383 . S
C2572 H2563 0.929 . S
C2572 C2564 1.378 . S
C2572 C2567 1.351 . S
C2573 H2560 0.929 . S
C2573 C2565 1.435 . S
C2573 N2575 1.383 . S
N2574 C2570 1.427 . S
N2574 C2571 1.383 . S
N2575 C2567 1.427 . S
N2575 C2573 1.383 . S
H2576 C2582 0.930 . S
H2577 C2586 0.930 . S
H2578 C2591 0.929 . S
H2579 C2589 0.929 . S
H2580 C2584 0.929 . S
H2581 C2590 0.929 . S
C2582 H2576 0.930 . S
C2582 C2583 1.367 . S
C2582 C2590 1.378 . S
C2583 C2582 1.367 . S
C2583 C2591 1.433 . S
C2584 H2580 0.929 . S
C2584 C2586 1.378 . S
C2584 C2588 1.350 . S
C2585 C2588 1.463 . S
C2585 C2590 1.350 . S
C2585 N2593 1.427 . S
C2586 H2577 0.930 . S
C2586 C2584 1.378 . S
C2586 C2587 1.367 . S
C2587 C2586 1.367 . S
C2587 C2589 1.433 . S
C2588 C2584 1.350 . S
C2588 C2585 1.463 . S
C2588 N2592 1.427 . S
C2589 H2579 0.929 . S
C2589 C2587 1.433 . S
C2589 N2592 1.384 . S
C2590 H2581 0.929 . S
C2590 C2582 1.378 . S
C2590 C2585 1.350 . S
C2591 H2578 0.929 . S
C2591 C2583 1.433 . S
C2591 N2593 1.384 . S
N2592 C2588 1.427 . S
N2592 C2589 1.384 . S
N2593 C2585 1.427 . S
N2593 C2591 1.384 . S
H2594 C2600 0.930 . S
H2595 C2604 0.930 . S
H2596 C2609 0.929 . S
H2597 C2607 0.929 . S
H2598 C2602 0.929 . S
H2599 C2608 0.929 . S
C2600 H2594 0.930 . S
C2600 C2601 1.367 . S
C2600 C2608 1.378 . S
C2601 C2600 1.367 . S
C2601 C2609 1.433 1_556 S
C2602 H2598 0.929 . S
C2602 C2604 1.378 . S
C2602 C2606 1.353 . S
C2603 C2606 1.462 1_556 S
C2603 C2608 1.353 . S
C2603 N2611 1.425 1_556 S
C2604 H2595 0.930 . S
C2604 C2602 1.378 . S
C2604 C2605 1.367 . S
C2605 C2604 1.367 . S
C2605 C2607 1.433 1_554 S
C2606 C2602 1.353 . S
C2606 C2603 1.462 1_554 S
C2606 N2610 1.425 1_554 S
C2607 H2597 0.929 . S
C2607 C2605 1.433 1_556 S
C2607 N2610 1.384 . S
C2608 H2599 0.929 . S
C2608 C2600 1.378 . S
C2608 C2603 1.353 . S
C2609 H2596 0.929 . S
C2609 C2601 1.433 1_554 S
C2609 N2611 1.384 . S
N2610 C2606 1.425 1_556 S
N2610 C2607 1.384 . S
N2611 C2603 1.425 1_554 S
N2611 C2609 1.384 . S
H2612 C2618 0.930 . S
H2613 C2622 0.930 . S
H2614 C2627 0.929 . S
H2615 C2625 0.929 . S
H2616 C2620 0.929 . S
H2617 C2626 0.929 . S
C2618 H2612 0.930 . S
C2618 C2619 1.367 . S
C2618 C2626 1.378 . S
C2619 C2618 1.367 . S
C2619 C2627 1.433 . S
C2620 H2616 0.929 . S
C2620 C2622 1.378 . S
C2620 C2624 1.350 . S
C2621 C2624 1.463 . S
C2621 C2626 1.350 . S
C2621 N2629 1.427 . S
C2622 H2613 0.930 . S
C2622 C2620 1.378 . S
C2622 C2623 1.367 . S
C2623 C2622 1.367 . S
C2623 C2625 1.433 . S
C2624 C2620 1.350 . S
C2624 C2621 1.463 . S
C2624 N2628 1.427 . S
C2625 H2615 0.929 . S
C2625 C2623 1.433 . S
C2625 N2628 1.384 . S
C2626 H2617 0.929 . S
C2626 C2618 1.378 . S
C2626 C2621 1.350 . S
C2627 H2614 0.929 . S
C2627 C2619 1.433 . S
C2627 N2629 1.384 . S
N2628 C2624 1.427 . S
N2628 C2625 1.384 . S
N2629 C2621 1.427 . S
N2629 C2627 1.384 . S
H2630 C2636 0.930 . S
H2631 C2640 0.930 . S
H2632 C2645 0.929 . S
H2633 C2643 0.929 . S
H2634 C2638 0.929 . S
H2635 C2644 0.929 . S
C2636 H2630 0.930 . S
C2636 C2637 1.367 . S
C2636 C2644 1.378 . S
C2637 C2636 1.367 . S
C2637 C2645 1.433 . S
C2638 H2634 0.929 . S
C2638 C2640 1.378 . S
C2638 C2642 1.350 . S
C2639 C2642 1.463 . S
C2639 C2644 1.350 . S
C2639 N2647 1.427 . S
C2640 H2631 0.930 . S
C2640 C2638 1.378 . S
C2640 C2641 1.367 . S
C2641 C2640 1.367 . S
C2641 C2643 1.433 . S
C2642 C2638 1.350 . S
C2642 C2639 1.463 . S
C2642 N2646 1.427 . S
C2643 H2633 0.929 . S
C2643 C2641 1.433 . S
C2643 N2646 1.384 . S
C2644 H2635 0.929 . S
C2644 C2636 1.378 . S
C2644 C2639 1.350 . S
C2645 H2632 0.929 . S
C2645 C2637 1.433 . S
C2645 N2647 1.384 . S
N2646 C2642 1.427 . S
N2646 C2643 1.384 . S
N2647 C2639 1.427 . S
N2647 C2645 1.384 . S
H2648 C2654 0.930 . S
H2649 C2658 0.930 . S
H2650 C2663 0.929 . S
H2651 C2661 0.929 . S
H2652 C2656 0.929 . S
H2653 C2662 0.929 . S
C2654 H2648 0.930 . S
C2654 C2655 1.367 . S
C2654 C2662 1.378 . S
C2655 C2654 1.367 . S
C2655 C2663 1.433 . S
C2656 H2652 0.929 . S
C2656 C2658 1.378 . S
C2656 C2660 1.350 . S
C2657 C2660 1.463 . S
C2657 C2662 1.350 . S
C2657 N2665 1.427 . S
C2658 H2649 0.930 . S
C2658 C2656 1.378 . S
C2658 C2659 1.367 . S
C2659 C2658 1.367 . S
C2659 C2661 1.433 . S
C2660 C2656 1.350 . S
C2660 C2657 1.463 . S
C2660 N2664 1.427 . S
C2661 H2651 0.929 . S
C2661 C2659 1.433 . S
C2661 N2664 1.384 . S
C2662 H2653 0.929 . S
C2662 C2654 1.378 . S
C2662 C2657 1.350 . S
C2663 H2650 0.929 . S
C2663 C2655 1.433 . S
C2663 N2665 1.384 . S
N2664 C2660 1.427 . S
N2664 C2661 1.384 . S
N2665 C2657 1.427 . S
N2665 C2663 1.384 . S
H2666 C2672 0.930 . S
H2667 C2676 0.930 . S
H2668 C2681 0.929 . S
H2669 C2679 0.929 . S
H2670 C2674 0.929 . S
H2671 C2680 0.929 . S
C2672 H2666 0.930 . S
C2672 C2673 1.367 1_554 S
C2672 C2680 1.378 . S
C2673 C2672 1.367 1_556 S
C2673 C2681 1.433 . S
C2674 H2670 0.929 . S
C2674 C2676 1.378 . S
C2674 C2678 1.350 1_556 S
C2675 C2678 1.463 1_556 S
C2675 C2680 1.350 1_556 S
C2675 N2683 1.427 . S
C2676 H2667 0.930 . S
C2676 C2674 1.378 . S
C2676 C2677 1.367 1_556 S
C2677 C2676 1.367 1_554 S
C2677 C2679 1.433 . S
C2678 C2674 1.350 1_554 S
C2678 C2675 1.463 1_554 S
C2678 N2682 1.427 . S
C2679 H2669 0.929 . S
C2679 C2677 1.433 . S
C2679 N2682 1.384 . S
C2680 H2671 0.929 . S
C2680 C2672 1.378 . S
C2680 C2675 1.350 1_554 S
C2681 H2668 0.929 . S
C2681 C2673 1.433 . S
C2681 N2683 1.384 . S
N2682 C2678 1.427 . S
N2682 C2679 1.384 . S
N2683 C2675 1.427 . S
N2683 C2681 1.384 . S
H2684 C2690 0.930 . S
H2685 C2694 0.930 . S
H2686 C2699 0.929 . S
H2687 C2697 0.929 . S
H2688 C2692 0.929 . S
H2689 C2698 0.929 . S
C2690 H2684 0.930 . S
C2690 C2691 1.367 . S
C2690 C2698 1.378 . S
C2691 C2690 1.367 . S
C2691 C2699 1.433 . S
C2692 H2688 0.929 . S
C2692 C2694 1.378 . S
C2692 C2696 1.350 . S
C2693 C2696 1.463 . S
C2693 C2698 1.350 . S
C2693 N2701 1.427 . S
C2694 H2685 0.930 . S
C2694 C2692 1.378 . S
C2694 C2695 1.367 . S
C2695 C2694 1.367 . S
C2695 C2697 1.433 . S
C2696 C2692 1.350 . S
C2696 C2693 1.463 . S
C2696 N2700 1.427 . S
C2697 H2687 0.929 . S
C2697 C2695 1.433 . S
C2697 N2700 1.384 . S
C2698 H2689 0.929 . S
C2698 C2690 1.378 . S
C2698 C2693 1.350 . S
C2699 H2686 0.929 . S
C2699 C2691 1.433 . S
C2699 N2701 1.384 . S
N2700 C2696 1.427 . S
N2700 C2697 1.384 . S
N2701 C2693 1.427 . S
N2701 C2699 1.384 . S
H2702 C2708 0.930 . S
H2703 C2712 0.930 . S
H2704 C2717 0.929 . S
H2705 C2715 0.929 . S
H2706 C2710 0.929 . S
H2707 C2716 0.929 . S
C2708 H2702 0.930 . S
C2708 C2709 1.367 . S
C2708 C2716 1.378 . S
C2709 C2708 1.367 . S
C2709 C2717 1.433 . S
C2710 H2706 0.929 . S
C2710 C2712 1.378 . S
C2710 C2714 1.350 . S
C2711 C2714 1.463 . S
C2711 C2716 1.350 . S
C2711 N2719 1.427 . S
C2712 H2703 0.930 . S
C2712 C2710 1.378 . S
C2712 C2713 1.367 . S
C2713 C2712 1.367 . S
C2713 C2715 1.433 . S
C2714 C2710 1.350 . S
C2714 C2711 1.463 . S
C2714 N2718 1.427 . S
C2715 H2705 0.929 . S
C2715 C2713 1.433 . S
C2715 N2718 1.384 . S
C2716 H2707 0.929 . S
C2716 C2708 1.378 . S
C2716 C2711 1.350 . S
C2717 H2704 0.929 . S
C2717 C2709 1.433 . S
C2717 N2719 1.384 . S
N2718 C2714 1.427 . S
N2718 C2715 1.384 . S
N2719 C2711 1.427 . S
N2719 C2717 1.384 . S
H2720 C2726 0.930 . S
H2721 C2730 0.930 . S
H2722 C2735 0.929 . S
H2723 C2733 0.929 . S
H2724 C2728 0.929 . S
H2725 C2734 0.929 . S
C2726 H2720 0.930 . S
C2726 C2727 1.367 . S
C2726 C2734 1.378 . S
C2727 C2726 1.367 . S
C2727 C2735 1.433 . S
C2728 H2724 0.929 . S
C2728 C2730 1.378 . S
C2728 C2732 1.350 . S
C2729 C2732 1.463 . S
C2729 C2734 1.350 . S
C2729 N2737 1.427 . S
C2730 H2721 0.930 . S
C2730 C2728 1.378 . S
C2730 C2731 1.367 . S
C2731 C2730 1.367 . S
C2731 C2733 1.433 . S
C2732 C2728 1.350 . S
C2732 C2729 1.463 . S
C2732 N2736 1.427 . S
C2733 H2723 0.929 . S
C2733 C2731 1.433 . S
C2733 N2736 1.384 . S
C2734 H2725 0.929 . S
C2734 C2726 1.378 . S
C2734 C2729 1.350 . S
C2735 H2722 0.929 . S
C2735 C2727 1.433 . S
C2735 N2737 1.384 . S
N2736 C2732 1.427 . S
N2736 C2733 1.384 . S
N2737 C2729 1.427 . S
N2737 C2735 1.384 . S
H2738 C2744 0.930 . S
H2739 C2748 0.930 . S
H2740 C2753 0.929 . S
H2741 C2751 0.929 . S
H2742 C2746 0.929 . S
H2743 C2752 0.929 . S
C2744 H2738 0.930 . S
C2744 C2745 1.367 . S
C2744 C2752 1.378 . S
C2745 C2744 1.367 . S
C2745 C2753 1.433 . S
C2746 H2742 0.929 . S
C2746 C2748 1.378 . S
C2746 C2750 1.350 . S
C2747 C2750 1.463 . S
C2747 C2752 1.350 . S
C2747 N2755 1.427 . S
C2748 H2739 0.930 . S
C2748 C2746 1.378 . S
C2748 C2749 1.367 . S
C2749 C2748 1.367 . S
C2749 C2751 1.433 . S
C2750 C2746 1.350 . S
C2750 C2747 1.463 . S
C2750 N2754 1.427 . S
C2751 H2741 0.929 . S
C2751 C2749 1.433 . S
C2751 N2754 1.384 . S
C2752 H2743 0.929 . S
C2752 C2744 1.378 . S
C2752 C2747 1.350 . S
C2753 H2740 0.929 . S
C2753 C2745 1.433 . S
C2753 N2755 1.384 . S
N2754 C2750 1.427 . S
N2754 C2751 1.384 . S
N2755 C2747 1.427 . S
N2755 C2753 1.384 . S
H2756 C2762 0.930 . S
H2757 C2766 0.930 . S
H2758 C2771 0.929 . S
H2759 C2769 0.929 . S
H2760 C2764 0.929 . S
H2761 C2770 0.929 . S
C2762 H2756 0.930 . S
C2762 C2763 1.367 . S
C2762 C2770 1.378 . S
C2763 C2762 1.367 . S
C2763 C2771 1.433 . S
C2764 H2760 0.929 . S
C2764 C2766 1.378 . S
C2764 C2768 1.350 . S
C2765 C2768 1.463 . S
C2765 C2770 1.350 . S
C2765 N2773 1.427 . S
C2766 H2757 0.930 . S
C2766 C2764 1.378 . S
C2766 C2767 1.367 . S
C2767 C2766 1.367 . S
C2767 C2769 1.433 . S
C2768 C2764 1.350 . S
C2768 C2765 1.463 . S
C2768 N2772 1.427 . S
C2769 H2759 0.929 . S
C2769 C2767 1.433 . S
C2769 N2772 1.384 . S
C2770 H2761 0.929 . S
C2770 C2762 1.378 . S
C2770 C2765 1.350 . S
C2771 H2758 0.929 . S
C2771 C2763 1.433 . S
C2771 N2773 1.384 . S
N2772 C2768 1.427 . S
N2772 C2769 1.384 . S
N2773 C2765 1.427 . S
N2773 C2771 1.384 . S
H2774 C2780 0.930 . S
H2775 C2784 0.930 . S
H2776 C2789 0.929 . S
H2777 C2787 0.929 . S
H2778 C2782 0.929 . S
H2779 C2788 0.929 . S
C2780 H2774 0.930 . S
C2780 C2781 1.367 . S
C2780 C2788 1.378 . S
C2781 C2780 1.367 . S
C2781 C2789 1.433 . S
C2782 H2778 0.929 . S
C2782 C2784 1.378 . S
C2782 C2786 1.350 . S
C2783 C2786 1.463 . S
C2783 C2788 1.350 . S
C2783 N2791 1.427 . S
C2784 H2775 0.930 . S
C2784 C2782 1.378 . S
C2784 C2785 1.367 . S
C2785 C2784 1.367 . S
C2785 C2787 1.433 . S
C2786 C2782 1.350 . S
C2786 C2783 1.463 . S
C2786 N2790 1.427 . S
C2787 H2777 0.929 . S
C2787 C2785 1.433 . S
C2787 N2790 1.384 . S
C2788 H2779 0.929 . S
C2788 C2780 1.378 . S
C2788 C2783 1.350 . S
C2789 H2776 0.929 . S
C2789 C2781 1.433 . S
C2789 N2791 1.384 . S
N2790 C2786 1.427 . S
N2790 C2787 1.384 . S
N2791 C2783 1.427 . S
N2791 C2789 1.384 . S
H2792 C2798 0.930 . S
H2793 C2802 0.930 . S
H2794 C2807 0.929 . S
H2795 C2805 0.929 . S
H2796 C2800 0.929 . S
H2797 C2806 0.929 . S
C2798 H2792 0.930 . S
C2798 C2799 1.367 . S
C2798 C2806 1.378 . S
C2799 C2798 1.367 . S
C2799 C2807 1.433 . S
C2800 H2796 0.929 . S
C2800 C2802 1.378 . S
C2800 C2804 1.350 . S
C2801 C2804 1.463 . S
C2801 C2806 1.350 . S
C2801 N2809 1.427 . S
C2802 H2793 0.930 . S
C2802 C2800 1.378 . S
C2802 C2803 1.367 . S
C2803 C2802 1.367 . S
C2803 C2805 1.433 . S
C2804 C2800 1.350 . S
C2804 C2801 1.463 . S
C2804 N2808 1.427 . S
C2805 H2795 0.929 . S
C2805 C2803 1.433 . S
C2805 N2808 1.384 . S
C2806 H2797 0.929 . S
C2806 C2798 1.378 . S
C2806 C2801 1.350 . S
C2807 H2794 0.929 . S
C2807 C2799 1.433 . S
C2807 N2809 1.384 . S
N2808 C2804 1.427 . S
N2808 C2805 1.384 . S
N2809 C2801 1.427 . S
N2809 C2807 1.384 . S
H2810 C2816 0.930 . S
H2811 C2820 0.930 . S
H2812 C2825 0.929 . S
H2813 C2823 0.929 . S
H2814 C2818 0.929 . S
H2815 C2824 0.929 . S
C2816 H2810 0.930 . S
C2816 C2817 1.367 . S
C2816 C2824 1.378 . S
C2817 C2816 1.367 . S
C2817 C2825 1.433 . S
C2818 H2814 0.929 . S
C2818 C2820 1.378 . S
C2818 C2822 1.350 . S
C2819 C2822 1.463 . S
C2819 C2824 1.350 . S
C2819 N2827 1.427 . S
C2820 H2811 0.930 . S
C2820 C2818 1.378 . S
C2820 C2821 1.367 . S
C2821 C2820 1.367 . S
C2821 C2823 1.433 . S
C2822 C2818 1.350 . S
C2822 C2819 1.463 . S
C2822 N2826 1.427 . S
C2823 H2813 0.929 . S
C2823 C2821 1.433 . S
C2823 N2826 1.384 . S
C2824 H2815 0.929 . S
C2824 C2816 1.378 . S
C2824 C2819 1.350 . S
C2825 H2812 0.929 . S
C2825 C2817 1.433 . S
C2825 N2827 1.384 . S
N2826 C2822 1.427 . S
N2826 C2823 1.384 . S
N2827 C2819 1.427 . S
N2827 C2825 1.384 . S
H2828 C2834 0.930 . S
H2829 C2838 0.930 . S
H2830 C2843 0.929 . S
H2831 C2841 0.929 . S
H2832 C2836 0.929 . S
H2833 C2842 0.929 . S
C2834 H2828 0.930 . S
C2834 C2835 1.367 . S
C2834 C2842 1.378 . S
C2835 C2834 1.367 . S
C2835 C2843 1.433 . S
C2836 H2832 0.929 . S
C2836 C2838 1.378 . S
C2836 C2840 1.350 . S
C2837 C2840 1.463 . S
C2837 C2842 1.350 . S
C2837 N2845 1.427 . S
C2838 H2829 0.930 . S
C2838 C2836 1.378 . S
C2838 C2839 1.367 . S
C2839 C2838 1.367 . S
C2839 C2841 1.433 . S
C2840 C2836 1.350 . S
C2840 C2837 1.463 . S
C2840 N2844 1.427 . S
C2841 H2831 0.929 . S
C2841 C2839 1.433 . S
C2841 N2844 1.384 . S
C2842 H2833 0.929 . S
C2842 C2834 1.378 . S
C2842 C2837 1.350 . S
C2843 H2830 0.929 . S
C2843 C2835 1.433 . S
C2843 N2845 1.384 . S
N2844 C2840 1.427 . S
N2844 C2841 1.384 . S
N2845 C2837 1.427 . S
N2845 C2843 1.384 . S
H2846 C2852 0.930 . S
H2847 C2856 0.930 . S
H2848 C2861 0.929 . S
H2849 C2859 0.929 . S
H2850 C2854 0.929 . S
H2851 C2860 0.929 . S
C2852 H2846 0.930 . S
C2852 C2853 1.367 . S
C2852 C2860 1.378 . S
C2853 C2852 1.367 . S
C2853 C2861 1.433 . S
C2854 H2850 0.929 . S
C2854 C2856 1.378 . S
C2854 C2858 1.350 . S
C2855 C2858 1.463 . S
C2855 C2860 1.350 . S
C2855 N2863 1.427 . S
C2856 H2847 0.930 . S
C2856 C2854 1.378 . S
C2856 C2857 1.367 . S
C2857 C2856 1.367 . S
C2857 C2859 1.433 . S
C2858 C2854 1.350 . S
C2858 C2855 1.463 . S
C2858 N2862 1.427 . S
C2859 H2849 0.929 . S
C2859 C2857 1.433 . S
C2859 N2862 1.384 . S
C2860 H2851 0.929 . S
C2860 C2852 1.378 . S
C2860 C2855 1.350 . S
C2861 H2848 0.929 . S
C2861 C2853 1.433 . S
C2861 N2863 1.384 . S
N2862 C2858 1.427 . S
N2862 C2859 1.384 . S
N2863 C2855 1.427 . S
N2863 C2861 1.384 . S
H2864 C2870 0.930 . S
H2865 C2874 0.930 . S
H2866 C2879 0.929 . S
H2867 C2877 0.929 . S
H2868 C2872 0.929 . S
H2869 C2878 0.929 . S
C2870 H2864 0.930 . S
C2870 C2871 1.367 . S
C2870 C2878 1.378 . S
C2871 C2870 1.367 . S
C2871 C2879 1.433 . S
C2872 H2868 0.929 . S
C2872 C2874 1.378 . S
C2872 C2876 1.350 . S
C2873 C2876 1.463 . S
C2873 C2878 1.350 . S
C2873 N2881 1.427 . S
C2874 H2865 0.930 . S
C2874 C2872 1.378 . S
C2874 C2875 1.367 . S
C2875 C2874 1.367 . S
C2875 C2877 1.433 . S
C2876 C2872 1.350 . S
C2876 C2873 1.463 . S
C2876 N2880 1.427 . S
C2877 H2867 0.929 . S
C2877 C2875 1.433 . S
C2877 N2880 1.384 . S
C2878 H2869 0.929 . S
C2878 C2870 1.378 . S
C2878 C2873 1.350 . S
C2879 H2866 0.929 . S
C2879 C2871 1.433 . S
C2879 N2881 1.384 . S
N2880 C2876 1.427 . S
N2880 C2877 1.384 . S
N2881 C2873 1.427 . S
N2881 C2879 1.384 . S
H2882 C2888 0.930 . S
H2883 C2892 0.930 . S
H2884 C2897 0.929 . S
H2885 C2895 0.929 . S
H2886 C2890 0.929 . S
H2887 C2896 0.929 . S
C2888 H2882 0.930 . S
C2888 C2889 1.367 . S
C2888 C2896 1.378 . S
C2889 C2888 1.367 . S
C2889 C2897 1.433 . S
C2890 H2886 0.929 . S
C2890 C2892 1.378 . S
C2890 C2894 1.350 . S
C2891 C2894 1.463 . S
C2891 C2896 1.350 . S
C2891 N2899 1.427 . S
C2892 H2883 0.930 . S
C2892 C2890 1.378 . S
C2892 C2893 1.367 . S
C2893 C2892 1.367 . S
C2893 C2895 1.433 . S
C2894 C2890 1.350 . S
C2894 C2891 1.463 . S
C2894 N2898 1.427 . S
C2895 H2885 0.929 . S
C2895 C2893 1.433 . S
C2895 N2898 1.384 . S
C2896 H2887 0.929 . S
C2896 C2888 1.378 . S
C2896 C2891 1.350 . S
C2897 H2884 0.929 . S
C2897 C2889 1.433 . S
C2897 N2899 1.384 . S
N2898 C2894 1.427 . S
N2898 C2895 1.384 . S
N2899 C2891 1.427 . S
N2899 C2897 1.384 . S
H2900 C2906 0.930 . S
H2901 C2910 0.930 . S
H2902 C2915 0.929 . S
H2903 C2913 0.929 . S
H2904 C2908 0.929 . S
H2905 C2914 0.929 . S
C2906 H2900 0.930 . S
C2906 C2907 1.367 . S
C2906 C2914 1.378 . S
C2907 C2906 1.367 . S
C2907 C2915 1.433 . S
C2908 H2904 0.929 . S
C2908 C2910 1.378 . S
C2908 C2912 1.350 . S
C2909 C2912 1.463 . S
C2909 C2914 1.350 . S
C2909 N2917 1.427 . S
C2910 H2901 0.930 . S
C2910 C2908 1.378 . S
C2910 C2911 1.367 . S
C2911 C2910 1.367 . S
C2911 C2913 1.433 . S
C2912 C2908 1.350 . S
C2912 C2909 1.463 . S
C2912 N2916 1.427 . S
C2913 H2903 0.929 . S
C2913 C2911 1.433 . S
C2913 N2916 1.384 . S
C2914 H2905 0.929 . S
C2914 C2906 1.378 . S
C2914 C2909 1.350 . S
C2915 H2902 0.929 . S
C2915 C2907 1.433 . S
C2915 N2917 1.384 . S
N2916 C2912 1.427 . S
N2916 C2913 1.384 . S
N2917 C2909 1.427 . S
N2917 C2915 1.384 . S
H2918 C2924 0.930 . S
H2919 C2928 0.930 . S
H2920 C2933 0.929 . S
H2921 C2931 0.929 . S
H2922 C2926 0.929 . S
H2923 C2932 0.929 . S
C2924 H2918 0.930 . S
C2924 C2925 1.367 . S
C2924 C2932 1.378 . S
C2925 C2924 1.367 . S
C2925 C2933 1.433 . S
C2926 H2922 0.929 . S
C2926 C2928 1.378 . S
C2926 C2930 1.350 . S
C2927 C2930 1.463 . S
C2927 C2932 1.350 . S
C2927 N2935 1.427 . S
C2928 H2919 0.930 . S
C2928 C2926 1.378 . S
C2928 C2929 1.367 . S
C2929 C2928 1.367 . S
C2929 C2931 1.433 . S
C2930 C2926 1.350 . S
C2930 C2927 1.463 . S
C2930 N2934 1.427 . S
C2931 H2921 0.929 . S
C2931 C2929 1.433 . S
C2931 N2934 1.384 . S
C2932 H2923 0.929 . S
C2932 C2924 1.378 . S
C2932 C2927 1.350 . S
C2933 H2920 0.929 . S
C2933 C2925 1.433 . S
C2933 N2935 1.384 . S
N2934 C2930 1.427 . S
N2934 C2931 1.384 . S
N2935 C2927 1.427 . S
N2935 C2933 1.384 . S
H2936 C2942 0.930 . S
H2937 C2946 0.930 . S
H2938 C2951 0.929 . S
H2939 C2949 0.929 . S
H2940 C2944 0.929 . S
H2941 C2950 0.929 . S
C2942 H2936 0.930 . S
C2942 C2943 1.367 . S
C2942 C2950 1.378 . S
C2943 C2942 1.367 . S
C2943 C2951 1.433 . S
C2944 H2940 0.929 . S
C2944 C2946 1.378 . S
C2944 C2948 1.350 . S
C2945 C2948 1.463 . S
C2945 C2950 1.350 . S
C2945 N2953 1.427 . S
C2946 H2937 0.930 . S
C2946 C2944 1.378 . S
C2946 C2947 1.367 . S
C2947 C2946 1.367 . S
C2947 C2949 1.433 . S
C2948 C2944 1.350 . S
C2948 C2945 1.463 . S
C2948 N2952 1.427 . S
C2949 H2939 0.929 . S
C2949 C2947 1.433 . S
C2949 N2952 1.384 . S
C2950 H2941 0.929 . S
C2950 C2942 1.378 . S
C2950 C2945 1.350 . S
C2951 H2938 0.929 . S
C2951 C2943 1.433 . S
C2951 N2953 1.384 . S
N2952 C2948 1.427 . S
N2952 C2949 1.384 . S
N2953 C2945 1.427 . S
N2953 C2951 1.384 . S
H2954 C2960 0.930 . S
H2955 C2964 0.930 . S
H2956 C2969 0.929 . S
H2957 C2967 0.929 . S
H2958 C2962 0.929 . S
H2959 C2968 0.929 . S
C2960 H2954 0.930 . S
C2960 C2961 1.367 . S
C2960 C2968 1.378 . S
C2961 C2960 1.367 . S
C2961 C2969 1.433 . S
C2962 H2958 0.929 . S
C2962 C2964 1.378 . S
C2962 C2966 1.350 . S
C2963 C2966 1.463 . S
C2963 C2968 1.350 . S
C2963 N2971 1.427 . S
C2964 H2955 0.930 . S
C2964 C2962 1.378 . S
C2964 C2965 1.367 . S
C2965 C2964 1.367 . S
C2965 C2967 1.433 . S
C2966 C2962 1.350 . S
C2966 C2963 1.463 . S
C2966 N2970 1.427 . S
C2967 H2957 0.929 . S
C2967 C2965 1.433 . S
C2967 N2970 1.384 . S
C2968 H2959 0.929 . S
C2968 C2960 1.378 . S
C2968 C2963 1.350 . S
C2969 H2956 0.929 . S
C2969 C2961 1.433 . S
C2969 N2971 1.384 . S
N2970 C2966 1.427 . S
N2970 C2967 1.384 . S
N2971 C2963 1.427 . S
N2971 C2969 1.384 . S
H2972 C2978 0.930 . S
H2973 C2982 0.930 . S
H2974 C2987 0.929 . S
H2975 C2985 0.929 . S
H2976 C2980 0.929 . S
H2977 C2986 0.929 . S
C2978 H2972 0.930 . S
C2978 C2979 1.367 . S
C2978 C2986 1.378 . S
C2979 C2978 1.367 . S
C2979 C2987 1.433 . S
C2980 H2976 0.929 . S
C2980 C2982 1.378 . S
C2980 C2984 1.350 . S
C2981 C2984 1.463 . S
C2981 C2986 1.350 . S
C2981 N2989 1.427 . S
C2982 H2973 0.930 . S
C2982 C2980 1.378 . S
C2982 C2983 1.367 . S
C2983 C2982 1.367 . S
C2983 C2985 1.433 . S
C2984 C2980 1.350 . S
C2984 C2981 1.463 . S
C2984 N2988 1.427 . S
C2985 H2975 0.929 . S
C2985 C2983 1.433 . S
C2985 N2988 1.384 . S
C2986 H2977 0.929 . S
C2986 C2978 1.378 . S
C2986 C2981 1.350 . S
C2987 H2974 0.929 . S
C2987 C2979 1.433 . S
C2987 N2989 1.384 . S
N2988 C2984 1.427 . S
N2988 C2985 1.384 . S
N2989 C2981 1.427 . S
N2989 C2987 1.384 . S
H2990 C2996 0.930 . S
H2991 C3000 0.930 . S
H2992 C3005 0.929 . S
H2993 C3003 0.929 . S
H2994 C2998 0.929 . S
H2995 C3004 0.929 . S
C2996 H2990 0.930 . S
C2996 C2997 1.367 . S
C2996 C3004 1.378 . S
C2997 C2996 1.367 . S
C2997 C3005 1.433 . S
C2998 H2994 0.929 . S
C2998 C3000 1.378 . S
C2998 C3002 1.350 . S
C2999 C3002 1.463 . S
C2999 C3004 1.350 . S
C2999 N3007 1.427 . S
C3000 H2991 0.930 . S
C3000 C2998 1.378 . S
C3000 C3001 1.367 . S
C3001 C3000 1.367 . S
C3001 C3003 1.433 . S
C3002 C2998 1.350 . S
C3002 C2999 1.463 . S
C3002 N3006 1.427 . S
C3003 H2993 0.929 . S
C3003 C3001 1.433 . S
C3003 N3006 1.384 . S
C3004 H2995 0.929 . S
C3004 C2996 1.378 . S
C3004 C2999 1.350 . S
C3005 H2992 0.929 . S
C3005 C2997 1.433 . S
C3005 N3007 1.384 . S
N3006 C3002 1.427 . S
N3006 C3003 1.384 . S
N3007 C2999 1.427 . S
N3007 C3005 1.384 . S
C1287 C7 1.059 . S
C1291 C131 1.036 . S
C1305 C11 1.020 . S
C1309 C47 1.064 1_545 S
C1323 C87 1.062 . S
C1327 C51 1.029 . S
C1341 C91 1.033 . S
C1345 C127 1.060 1_565 S
C1359 C211 1.021 . S
C1363 C167 1.064 . S
C1377 C207 1.061 1_545 S
C1381 C251 1.029 . S
C1395 C291 1.038 . S
C1399 C247 1.060 . S
C1413 C171 1.038 . S
C1417 C287 1.059 1_565 S
C1431 C336 1.063 . S
C1435 C442 1.029 . S
C1449 C376 1.058 1_565 S
C1453 C322 1.041 . S
C1467 C416 1.061 . S
C1471 C362 1.033 . S
C1485 C456 1.059 1_545 S
C1489 C402 1.038 . S
C1503 C496 1.060 . S
C1507 C522 1.032 . S
C1521 C536 1.064 1_565 S
C1525 C562 1.022 . S
C1539 C602 1.029 . S
C1543 C576 1.062 . S
C1557 C482 1.027 . S
C1561 C616 1.061 1_545 S
C1575 C647 1.059 . S
C1579 C771 1.040 . S
C1593 C651 1.041 . S
C1597 C687 1.059 . S
C1611 C691 1.036 . S
C1615 C727 1.061 . S
C1629 C767 1.064 . S
C1633 C731 1.020 . S
C1647 C807 1.063 . S
C1651 C851 1.022 . S
C1665 C891 1.041 . S
C1669 C847 1.059 . S
C1683 C887 1.059 . S
C1687 C931 1.037 . S
C1701 C811 1.024 . S
C1705 C927 1.063 . S
C1719 C1082 1.041 . S
C1723 C976 1.059 . S
C1737 C962 1.040 . S
C1741 C1016 1.059 . S
C1755 C1056 1.060 . S
C1759 C1002 1.037 . S
C1773 C1042 1.040 . S
C1777 C1096 1.058 . S
C1791 C1162 1.022 . S
C1795 C1136 1.064 . S
C1809 C1202 1.032 . S
C1813 C1176 1.062 . S
C1827 C1242 1.038 . S
C1831 C1216 1.059 . S
C1845 C1256 1.058 . S
C1849 C1122 1.040 . S
C1863 C1087 1.564 . S
C1867 C10 1.525 . S
C1881 C50 1.524 . S
C1885 C327 1.564 . S
C1899 C90 1.526 . S
C1903 C1007 1.569 . S
C1917 C130 1.531 . S
C1921 C407 1.567 . S
C1935 C170 1.524 . S
C1939 C1167 1.567 . S
C1953 C567 1.572 . S
C1957 C210 1.537 . S
C1971 C1247 1.573 . S
C1975 C250 1.536 . S
C1989 C290 1.525 . S
C1993 C487 1.564 . S
C2007 C339 1.530 . S
C2011 C776 1.566 . S
C2025 C16 1.568 . S
C2029 C379 1.525 . S
C2043 C696 1.565 . S
C2047 C419 1.523 . S
C2061 C96 1.573 . S
C2065 C459 1.537 . S
C2079 C856 1.566 . S
C2083 C499 1.530 . S
C2097 C256 1.572 . S
C2101 C539 1.533 . S
C2115 C579 1.525 . S
C2119 C936 1.564 . S
C2133 C619 1.529 . S
C2137 C176 1.611 . S
C2151 C650 1.537 . S
C2155 C447 1.572 . S
C2169 C690 1.523 . S
C2173 C967 1.564 . S
C2187 C730 1.535 . S
C2191 C367 1.569 . S
C2205 C770 1.526 . S
C2209 C1047 1.564 . S
C2223 C810 1.528 . S
C2227 C527 1.565 . S
C2241 C850 1.523 . S
C2245 C1207 1.565 . S
C2259 C607 1.573 . S
C2263 C890 1.537 . S
C2277 C930 1.523 . S
C2281 C1127 1.564 . S
C2295 C136 1.571 . S
C2299 C979 1.537 . S
C2313 C656 1.564 . S
C2317 C1019 1.525 . S
C2331 C56 1.565 . S
C2335 C1059 1.523 . S
C2349 C736 1.573 . S
C2353 C1099 1.537 . S
C2367 C216 1.570 . S
C2371 C1139 1.535 . S
C2385 C1179 1.523 . S
C2389 C896 1.565 . S
C2403 C1219 1.532 . S
C2407 C296 1.572 . S
C2421 C816 1.568 . S
C2425 C1259 1.526 . S
C2439 C19 0.682 . S
C2443 C179 0.670 . S
C2457 C59 0.650 . S
C2461 C219 0.672 . S
C2475 C99 0.648 . S
C2479 C259 0.655 . S
C2493 C299 0.653 . S
C2497 C139 0.650 . S
C2511 C490 0.656 . S
C2515 C330 0.679 . S
C2529 C530 0.682 . S
C2533 C370 0.671 . S
C2547 C410 0.657 . S
C2551 C570 0.647 . S
C2565 C450 0.676 . S
C2569 C610 0.653 . S
C2583 C659 0.649 . S
C2587 C819 0.671 . S
C2601 C859 0.651 . S
C2605 C699 0.675 . S
C2619 C899 0.647 . S
C2623 C739 0.662 . S
C2637 C939 0.650 . S
C2641 C779 0.673 . S
C2655 C1130 0.661 . S
C2659 C970 0.647 . S
C2673 C1010 0.681 . S
C2677 C1170 0.659 . S
C2691 C1210 0.651 . S
C2695 C1050 0.674 . S
C2709 C1090 0.652 . S
C2713 C1250 0.676 . S
C2727 C282 2.769 . S
C2731 C2 2.767 . S
C2745 C42 2.768 . S
C2749 C162 2.767 . S
C2763 C82 2.770 . S
C2767 C202 2.769 . S
C2781 C242 2.767 . S
C2785 C122 2.767 . S
C2799 C331 2.770 . S
C2803 C611 2.768 . S
C2817 C491 2.770 . S
C2821 C371 2.768 . S
C2835 C531 2.768 . S
C2839 C411 2.767 . S
C2853 C451 2.769 . S
C2857 C571 2.770 . S
C2871 C642 2.767 . S
C2875 C922 2.767 . S
C2889 C802 2.767 . S
C2893 C682 2.767 . S
C2907 C842 2.769 . S
C2911 C722 2.767 . S
C2925 C882 2.770 . S
C2929 C762 2.770 . S
C2943 C971 2.768 . S
C2947 C1251 2.770 . S
C2961 C1131 2.769 . S
C2965 C1011 2.768 . S
C2979 C1051 2.770 . S
C2983 C1171 2.768 . S
C2997 C1211 2.768 . S
C3001 C1091 2.770 . S
