# Generated by pormake.
# Topology tfs, (6)-cn, num edge types: 1
# Building blocks:
#     Node 0, Type 0, BuildingBlock: PAMTUU_clean_sbu_0, # of connection points: 6
#     Node 1, Type 0, BuildingBlock: PAMTUU_clean_sbu_0, # of connection points: 6
#     Node 2, Type 0, BuildingBlock: PAMTUU_clean_sbu_0, # of connection points: 6
#     Node 3, Type 0, BuildingBlock: PAMTUU_clean_sbu_0, # of connection points: 6
#     Node 4, Type 0, BuildingBlock: PAMTUU_clean_sbu_0, # of connection points: 6
#     Node 5, Type 0, BuildingBlock: PAMTUU_clean_sbu_0, # of connection points: 6
#     Edge 6, Type (0, 0), BuildingBlock: XIVTED_clean_linker_0, # of connection points: 2
#     Edge 7, Type (0, 0), BuildingBlock: XIVTED_clean_linker_0, # of connection points: 2
#     Edge 8, Type (0, 0), BuildingBlock: XIVTED_clean_linker_0, # of connection points: 2
#     Edge 9, Type (0, 0), BuildingBlock: XIVTED_clean_linker_0, # of connection points: 2
#     Edge 10, Type (0, 0), BuildingBlock: XIVTED_clean_linker_0, # of connection points: 2
#     Edge 11, Type (0, 0), BuildingBlock: XIVTED_clean_linker_0, # of connection points: 2
#     Edge 12, Type (0, 0), BuildingBlock: XIVTED_clean_linker_0, # of connection points: 2
#     Edge 13, Type (0, 0), BuildingBlock: XIVTED_clean_linker_0, # of connection points: 2
#     Edge 14, Type (0, 0), BuildingBlock: XIVTED_clean_linker_0, # of connection points: 2
#     Edge 15, Type (0, 0), BuildingBlock: XIVTED_clean_linker_0, # of connection points: 2
#     Edge 16, Type (0, 0), BuildingBlock: XIVTED_clean_linker_0, # of connection points: 2
#     Edge 17, Type (0, 0), BuildingBlock: XIVTED_clean_linker_0, # of connection points: 2
#     Edge 18, Type (0, 0), BuildingBlock: XIVTED_clean_linker_0, # of connection points: 2
#     Edge 19, Type (0, 0), BuildingBlock: XIVTED_clean_linker_0, # of connection points: 2
#     Edge 20, Type (0, 0), BuildingBlock: XIVTED_clean_linker_0, # of connection points: 2
#     Edge 21, Type (0, 0), BuildingBlock: XIVTED_clean_linker_0, # of connection points: 2
#     Edge 22, Type (0, 0), BuildingBlock: XIVTED_clean_linker_0, # of connection points: 2
#     Edge 23, Type (0, 0), BuildingBlock: XIVTED_clean_linker_0, # of connection points: 2
# Relax obj value: 0.385
# Max RMSD: 0.386
# Mean RMSD: 0.315
data_MOF--net-tfs--node1-PAMTUU_clean_sbu_0--edge1-XIVTED_clean_linker_0
_symmetry_space_group_name_H-M    P1
_symmetry_Int_Tables_number       1
_symmetry_cell_setting            triclinic
loop_
_symmetry_equiv_pos_as_xyz
'x, y, z'
_cell_length_a     60.211835
_cell_length_b     52.294736
_cell_length_c     14.067738
_cell_angle_alpha  79.217712
_cell_angle_beta   98.51069
_cell_angle_gamma 134.84408
loop_
_atom_site_label
_atom_site_type_symbol
_atom_site_fract_x
_atom_site_fract_y
_atom_site_fract_z
_atom_type_partial_charge
Tb0 Tb 0.25944 0.5586 0.036 0.0
Tb1 Tb 0.27944 0.51286 0.13382 0.0
C2 C 0.27384 0.55103 0.2495 0.0
C3 C 0.23041 0.60501 0.96873 0.0
C4 C 0.20887 0.63766 0.98167 0.0
C5 C 0.21666 0.62582 0.06604 0.0
C6 C 0.2274 0.60964 0.05962 0.0
C7 C 0.22051 0.61435 0.88529 0.0
C8 C 0.20977 0.63046 0.89161 0.0
C9 C 0.24793 0.59582 0.95725 0.0
O10 O 0.31031 0.5974 0.04212 0.0
O11 O 0.31753 0.55983 0.04082 0.0
O12 O 0.25133 0.48722 0.00731 0.0
O13 O 0.26216 0.53742 0.9252 0.0
O14 O 0.28503 0.48981 0.26261 0.0
O15 O 0.30229 0.49639 0.1267 0.0
O16 O 0.23016 0.4757 0.16936 0.0
O17 O 0.21518 0.50433 0.08276 0.0
O18 O 0.25455 0.55009 0.18985 0.0
O19 O 0.29484 0.55449 0.21446 0.0
C20 C 0.32792 0.5923 0.02729 0.0
O21 O 0.27091 0.60726 0.01916 0.0
O22 O 0.23219 0.56328 0.93688 0.0
C23 C 0.25072 0.50464 0.92869 0.0
C24 C 0.28966 0.44895 0.24557 0.0
C25 C 0.28407 0.39009 0.31241 0.0
C26 C 0.29584 0.40944 0.22022 0.0
C27 C 0.29869 0.43855 0.18738 0.0
C28 C 0.27657 0.42863 0.33595 0.0
C29 C 0.27369 0.39944 0.36881 0.0
C30 C 0.29839 0.48383 0.21835 0.0
C31 C 0.20882 0.47652 0.13817 0.0
H32 H 0.21634 0.6311 0.13645 0.0
H33 H 0.23492 0.60259 0.12508 0.0
H34 H 0.22264 0.61096 0.81454 0.0
H35 H 0.20339 0.63866 0.82551 0.0
H36 H 0.3045 0.40343 0.1753 0.0
H37 H 0.30938 0.45399 0.11813 0.0
H38 H 0.26969 0.43613 0.3831 0.0
H39 H 0.26412 0.38482 0.43963 0.0
Tb40 Tb 0.84937 0.17443 0.57514 0.0
Tb41 Tb 0.7725 0.10953 0.63406 0.0
C42 C 0.8235 0.13544 0.7797 0.0
C43 C 0.93403 0.23707 0.49213 0.0
C44 C 0.99014 0.27867 0.39234 0.0
C45 C 0.98839 0.26723 0.49211 0.0
C46 C 0.96068 0.24672 0.54128 0.0
C47 C 0.93506 0.24667 0.39152 0.0
C48 C 0.96284 0.2672 0.34211 0.0
C49 C 0.90775 0.22232 0.54992 0.0
O50 O 0.83183 0.12424 0.53514 0.0
O51 O 0.77855 0.08065 0.56897 0.0
O52 O 0.77358 0.13192 0.48653 0.0
O53 O 0.82318 0.16104 0.44054 0.0
O54 O 0.74206 0.08531 0.74921 0.0
O55 O 0.72438 0.06593 0.60881 0.0
O56 O 0.7911 0.16092 0.66574 0.0
O57 O 0.83591 0.20351 0.57509 0.0
O58 O 0.84321 0.16693 0.72818 0.0
O59 O 0.80175 0.1071 0.73424 0.0
C60 C 0.80335 0.09124 0.53392 0.0
O61 O 0.88863 0.22542 0.50991 0.0
O62 O 0.89338 0.19177 0.60633 0.0
C63 C 0.79472 0.14745 0.42118 0.0
C64 C 0.69265 0.06358 0.69909 0.0
C65 C 0.6454 0.06233 0.70999 0.0
C66 C 0.66481 0.08083 0.62913 0.0
C67 C 0.68828 0.08161 0.62393 0.0
C68 C 0.6736 0.04538 0.78026 0.0
C69 C 0.65033 0.04496 0.78604 0.0
C70 C 0.71719 0.06395 0.69471 0.0
C71 C 0.81392 0.19422 0.62521 0.0
H72 H 0.00892 0.27581 0.53361 0.0
H73 H 0.96058 0.24002 0.61903 0.0
H74 H 0.91486 0.23963 0.35166 0.0
H75 H 0.96315 0.27497 0.26499 0.0
H76 H 0.66217 0.09521 0.57028 0.0
H77 H 0.70303 0.09635 0.56119 0.0
H78 H 0.67674 0.03149 0.83931 0.0
H79 H 0.63598 0.03064 0.84955 0.0
Tb80 Tb 0.60985 0.8961 0.98108 0.0
Tb81 Tb 0.62406 0.84313 -0.00313 0.0
C82 C 0.6419 0.89946 0.82379 0.0
C83 C 0.57161 0.93172 0.95981 0.0
C84 C 0.52528 0.93298 0.95447 0.0
C85 C 0.54761 0.9532 0.88152 0.0
C86 C 0.57038 0.95239 0.88402 0.0
C87 C 0.54906 0.91096 0.03207 0.0
C88 C 0.52603 0.9115 0.02919 0.0
C89 C 0.59773 0.93423 0.96372 0.0
O90 O 0.56879 0.84645 0.91895 0.0
O91 O 0.57372 0.8073 -0.00807 0.0
O92 O 0.62476 0.85087 0.14177 0.0
O93 O 0.59159 0.85913 0.11367 0.0
O94 O 0.64927 0.83519 0.94199 0.0
O95 O 0.61183 0.79411 0.04325 0.0
O96 O 0.66813 0.89404 0.04538 0.0
O97 O 0.65616 0.9277 0.0491 0.0
O98 O 0.64365 0.91928 0.87431 0.0
O99 O 0.62455 0.86479 0.85045 0.0
C100 C 0.55685 0.81342 0.9472 0.0
O101 O 0.60441 0.92435 0.04633 0.0
O102 O 0.59972 0.92379 0.89078 0.0
C103 C 0.60856 0.85566 0.17286 0.0
C104 C 0.65192 0.79532 0.04082 0.0
C105 C 0.68152 0.77228 0.12893 0.0
C106 C 0.67399 0.78512 0.18408 0.0
C107 C 0.65933 0.79661 0.14034 0.0
C108 C 0.6602 0.78357 0.98538 0.0
C109 C 0.67483 0.77217 0.02877 0.0
C110 C 0.63377 0.80357 -0.00664 0.0
C111 C 0.67528 0.92295 0.06494 0.0
H112 H 0.54743 0.96959 0.82219 0.0
H113 H 0.58732 0.96829 0.82695 0.0
H114 H 0.54945 0.89476 0.0914 0.0
H115 H 0.50931 0.89582 0.08687 0.0
H116 H 0.67914 0.78595 0.26115 0.0
H117 H 0.65324 0.80574 0.18443 0.0
H118 H 0.65452 0.78221 0.90856 0.0
H119 H 0.67977 0.76195 0.9842 0.0
Tb120 Tb 0.73331 0.49951 0.53887 0.0
Tb121 Tb 0.75198 0.45209 0.63342 0.0
C122 C 0.76349 0.50806 0.74158 0.0
C123 C 0.72416 0.56447 0.43008 0.0
C124 C 0.72996 0.62387 0.37888 0.0
C125 C 0.73435 0.61471 0.47565 0.0
C126 C 0.73148 0.58531 0.50107 0.0
C127 C 0.72133 0.57471 0.33297 0.0
C128 C 0.72428 0.60413 0.30752 0.0
C129 C 0.71504 0.52942 0.45613 0.0
O130 O 0.78251 0.53608 0.50235 0.0
O131 O 0.79591 0.50461 0.57771 0.0
O132 O 0.75545 0.45949 0.47902 0.0
O133 O 0.71635 0.45723 0.45765 0.0
O134 O 0.73955 0.40282 0.65094 0.0
O135 O 0.77918 0.447 0.73108 0.0
O136 O 0.7013 0.41432 0.629 0.0
O137 O 0.69526 0.45282 0.63311 0.0
O138 O 0.76238 0.52533 0.66381 0.0
O139 O 0.7516 0.47507 0.74505 0.0
C140 C 0.80287 0.53328 0.52635 0.0
O141 O 0.7283 0.52355 0.41084 0.0
O142 O 0.71099 0.51647 0.54752 0.0
C143 C 0.73641 0.45945 0.42095 0.0
C144 C 0.77971 0.40427 0.69927 0.0
C145 C 0.80078 0.37104 0.6874 0.0
C146 C 0.79142 0.38103 0.60316 0.0
C147 C 0.78093 0.39751 0.60904 0.0
C148 C 0.7911 0.39668 0.78217 0.0
C149 C 0.80161 0.3803 0.77636 0.0
C150 C 0.76281 0.41417 0.71151 0.0
C151 C 0.68431 0.42005 0.64567 0.0
H152 H 0.73918 0.62968 0.53216 0.0
H153 H 0.73381 0.5781 0.57667 0.0
H154 H 0.71534 0.55886 0.27705 0.0
H155 H 0.72041 0.61012 0.23249 0.0
H156 H 0.79039 0.37415 0.53361 0.0
H157 H 0.77227 0.40321 0.54398 0.0
H158 H 0.79039 0.40175 0.8524 0.0
H159 H 0.80924 0.37357 0.84223 0.0
Tb160 Tb 0.24053 0.90091 0.04947 0.0
Tb161 Tb 0.16305 0.83632 0.09692 0.0
C162 C 0.21482 0.85956 0.25787 0.0
C163 C 0.32016 0.94482 -0.00708 0.0
C164 C 0.36424 0.94147 0.9767 0.0
C165 C 0.33876 0.91532 0.03908 0.0
C166 C 0.31685 0.91688 0.04672 0.0
C167 C 0.3454 0.97091 0.93056 0.0
C168 C 0.3672 0.96922 0.92227 0.0
C169 C 0.29695 0.94636 -0.00112 0.0
O170 O 0.22166 0.8505 0.00834 0.0
O171 O 0.17626 0.80704 0.09553 0.0
O172 O 0.17201 0.84751 0.94489 0.0
O173 O 0.21408 0.9071 0.94595 0.0
O174 O 0.12247 0.78486 0.15571 0.0
O175 O 0.11972 0.8199 0.05669 0.0
O176 O 0.18011 0.88551 0.14288 0.0
O177 O 0.2339 0.92891 0.11665 0.0
O178 O 0.2366 0.87526 0.19488 0.0
O179 O 0.18685 0.84704 0.23527 0.0
C180 C 0.19854 0.81682 0.04579 0.0
O181 O 0.27302 0.92811 0.93903 0.0
O182 O 0.28839 0.94148 0.08558 0.0
C183 C 0.19203 0.87983 0.8973 0.0
C184 C 0.07542 0.7712 0.15586 0.0
C185 C 0.01741 0.72749 0.24469 0.0
C186 C 0.01867 0.72831 0.14526 0.0
C187 C 0.04738 0.75008 0.10131 0.0
C188 C 0.07452 0.77177 0.25464 0.0
C189 C 0.0456 0.7502 0.29871 0.0
C190 C 0.10418 0.78836 0.10884 0.0
C191 C 0.20868 0.91814 0.14879 0.0
H192 H 0.33589 0.89382 0.08294 0.0
H193 H 0.29733 0.89629 0.0947 0.0
H194 H 0.34811 0.99244 0.88762 0.0
H195 H 0.38608 0.98931 0.87204 0.0
H196 H 0.9973 0.71121 0.10202 0.0
H197 H 0.04758 0.74915 0.02513 0.0
H198 H 0.09594 0.78776 0.29811 0.0
H199 H 0.04516 0.74985 0.37566 0.0
Tb200 Tb 0.38765 0.1663 0.68084 0.0
Tb201 Tb 0.40309 0.11471 0.69184 0.0
C202 C 0.40042 0.15243 0.50116 0.0
C203 C 0.35885 0.21329 0.64092 0.0
C204 C 0.33067 0.23929 0.56756 0.0
C205 C 0.34953 0.24234 0.50839 0.0
C206 C 0.36352 0.22953 0.54471 0.0
C207 C 0.33887 0.20871 0.69846 0.0
C208 C 0.32485 0.22142 0.66219 0.0
C209 C 0.37735 0.20516 0.68662 0.0
O210 O 0.34327 0.1145 0.63712 0.0
O211 O 0.35577 0.08152 0.63082 0.0
O212 O 0.37046 0.09146 0.80291 0.0
O213 O 0.38913 0.14577 0.82663 0.0
O214 O 0.40916 0.08757 0.6234 0.0
O215 O 0.41415 0.08761 0.77913 0.0
O216 O 0.44422 0.16488 0.75176 0.0
O217 O 0.43802 0.20286 0.67885 0.0
O218 O 0.38474 0.15736 0.5354 0.0
O219 O 0.41877 0.15043 0.55711 0.0
C220 C 0.33617 0.08555 0.61802 0.0
O221 O 0.36235 0.17365 0.7383 0.0
O222 O 0.39947 0.21513 0.63643 0.0
C223 C 0.37236 0.11127 0.85404 0.0
C224 C 0.44265 0.08064 0.70725 0.0
C225 C 0.48783 0.07752 0.71066 0.0
C226 C 0.47058 0.06501 0.79337 0.0
C227 C 0.44826 0.06653 0.79158 0.0
C228 C 0.46036 0.09401 0.62503 0.0
C229 C 0.48278 0.09256 0.62685 0.0
C230 C 0.41632 0.0778 0.70497 0.0
C231 C 0.45555 0.19761 0.72267 0.0
H232 H 0.35474 0.25621 0.43548 0.0
H233 H 0.37894 0.23365 0.49857 0.0
H234 H 0.335 0.19645 0.77298 0.0
H235 H 0.31003 0.21804 0.70921 0.0
H236 H 0.47358 0.05296 0.8588 0.0
H237 H 0.43478 0.05577 0.85577 0.0
H238 H 0.45655 0.10499 0.55878 0.0
H239 H 0.49602 0.10304 0.5623 0.0
H240 H 0.32836 0.27699 0.67016 0.0
H241 H 0.27176 0.33929 0.21844 0.0
H242 H 0.30725 0.24284 0.38699 0.0
H243 H 0.29984 0.37862 0.49739 0.0
H244 H 0.2796 0.2992 0.28213 0.0
H245 H 0.31257 0.30922 0.61169 0.0
C246 C 0.31997 0.2758 0.59594 0.0
C247 C 0.31914 0.25706 0.5335 0.0
C248 C 0.28379 0.3164 0.32955 0.0
C249 C 0.30148 0.29469 0.46531 0.0
C250 C 0.27941 0.3394 0.29317 0.0
C251 C 0.28528 0.36259 0.35237 0.0
C252 C 0.29416 0.31656 0.42589 0.0
C253 C 0.29465 0.36102 0.44914 0.0
C254 C 0.31118 0.29451 0.56235 0.0
C255 C 0.30865 0.25724 0.43746 0.0
N256 N 0.29898 0.33864 0.48253 0.0
N257 N 0.30034 0.27586 0.40624 0.0
H258 H 0.18486 0.41446 0.25983 0.0
H259 H 0.01305 0.33682 0.25553 0.0
H260 H 0.15757 0.46668 0.08854 0.0
H261 H 0.03797 0.28116 0.41888 0.0
H262 H 0.06518 0.3828 0.1873 0.0
H263 H 0.13091 0.36423 0.31424 0.0
C264 C 0.16758 0.41537 0.23318 0.0
C265 C 0.17596 0.44504 0.16947 0.0
C266 C 0.05922 0.36042 0.23758 0.0
C267 C 0.11402 0.38748 0.23189 0.0
C268 C 0.02926 0.33386 0.27603 0.0
C269 C 0.02093 0.30492 0.34342 0.0
C270 C 0.08128 0.35829 0.26671 0.0
C271 C 0.04339 0.30319 0.36836 0.0
C272 C 0.13673 0.38662 0.26438 0.0
C273 C 0.1524 0.44456 0.13777 0.0
N274 N 0.07252 0.32957 0.33046 0.0
N275 N 0.12265 0.41638 0.16948 0.0
H276 H 0.76532 0.01799 0.5732 0.0
H277 H 0.70142 0.90813 0.21019 0.0
H278 H 0.82396 0.10812 0.35305 0.0
H279 H 0.71365 0.99631 0.05224 0.0
H280 H 0.74164 0.94897 0.32831 0.0
H281 H 0.7416 0.97608 0.45241 0.0
C282 C 0.77414 0.02884 0.50029 0.0
C283 C 0.7969 0.06646 0.47315 0.0
C284 C 0.73591 0.95945 0.26664 0.0
C285 C 0.76927 0.01893 0.33419 0.0
C286 C 0.71327 0.93636 0.19877 0.0
C287 C 0.70415 0.94892 0.12189 0.0
C288 C 0.74975 0.99539 0.25632 0.0
C289 C 0.7199 0.98558 0.11104 0.0
C290 C 0.7606 0.00495 0.43134 0.0
C291 C 0.80693 0.07926 0.37716 0.0
N292 N 0.74189 0.00754 0.17786 0.0
N293 N 0.79235 0.05554 0.31033 0.0
H294 H 0.70211 0.63511 0.47844 0.0
H295 H 0.72654 0.77966 0.06088 0.0
H296 H 0.75388 0.67545 0.21971 0.0
H297 H 0.6658 0.72934 0.30274 0.0
H298 H 0.74264 0.74812 0.129 0.0
H299 H 0.69498 0.67623 0.4269 0.0
C300 C 0.71246 0.65305 0.41155 0.0
C301 C 0.72853 0.65164 0.35316 0.0
C302 C 0.72599 0.74421 0.16759 0.0
C303 C 0.71995 0.69848 0.29281 0.0
C304 C 0.71668 0.76213 0.12857 0.0
C305 C 0.69448 0.7569 0.17548 0.0
C306 C 0.71305 0.72083 0.25436 0.0
C307 C 0.68309 0.73444 0.26415 0.0
C308 C 0.70814 0.67634 0.38176 0.0
C309 C 0.74095 0.6752 0.2664 0.0
N310 N 0.6923 0.71703 0.30021 0.0
N311 N 0.73626 0.69747 0.23865 0.0
H312 H 0.99154 0.73865 0.35656 0.0
H313 H 0.84228 0.52767 0.48927 0.0
H314 H 0.97341 0.65468 0.23984 0.0
H315 H 0.83674 0.60611 0.47769 0.0
H316 H 0.89496 0.57578 0.4251 0.0
H317 H 0.93905 0.69209 0.42819 0.0
C318 C 0.97657 0.71044 0.34662 0.0
C319 C 0.98661 0.70037 0.29208 0.0
C320 C 0.88227 0.58252 0.43681 0.0
C321 C 0.92727 0.6474 0.37405 0.0
C322 C 0.85224 0.55511 0.47397 0.0
C323 C 0.83507 0.56289 0.48904 0.0
C324 C 0.89562 0.61823 0.41591 0.0
C325 C 0.84914 0.59894 0.46675 0.0
C326 C 0.94669 0.68403 0.3868 0.0
C327 C 0.96641 0.66354 0.28085 0.0
N328 N 0.87875 0.62542 0.43181 0.0
N329 N 0.93783 0.63841 0.3219 0.0
H330 H 0.24534 0.99114 0.11278 0.0
H331 H 0.30654 0.09798 0.48152 0.0
H332 H 0.18812 0.89952 0.33066 0.0
H333 H 0.29969 0.01259 0.62912 0.0
H334 H 0.26606 0.05667 0.36465 0.0
H335 H 0.26826 0.03204 0.23598 0.0
C336 C 0.23663 0.97972 0.18577 0.0
C337 C 0.21448 0.94201 0.21152 0.0
C338 C 0.27299 0.04686 0.424 0.0
C339 C 0.24127 0.98838 0.35311 0.0
C340 C 0.29582 0.07022 0.49114 0.0
C341 C 0.30669 0.05873 0.56423 0.0
C342 C 0.26061 0.01165 0.43159 0.0
C343 C 0.29218 0.02258 0.57305 0.0
C344 C 0.24971 1.00301 0.25606 0.0
C345 C 0.20464 0.92846 0.30768 0.0
N346 N 0.26996 1.00032 0.50706 0.0
N347 N 0.21883 0.95166 0.37578 0.0
H348 H 0.2338 0.82329 0.92266 0.0
H349 H 0.17389 0.62975 0.11206 0.0
H350 H 0.16165 0.74676 0.13495 0.0
H351 H 0.232 0.69923 0.86329 0.0
H352 H 0.16916 0.67194 0.12435 0.0
H353 H 0.23369 0.77796 0.90263 0.0
C354 C 0.21786 0.79691 0.96502 0.0
C355 C 0.19776 0.7889 0.03084 0.0
C356 C 0.18268 0.6777 0.06657 0.0
C357 C 0.19761 0.73672 0.00836 0.0
C358 C 0.18547 0.65371 0.05974 0.0
C359 C 0.20328 0.66089 0.98636 0.0
C360 C 0.19814 0.70927 0.00027 0.0
C361 C 0.21764 0.69226 0.92016 0.0
C362 C 0.21775 0.77095 0.95329 0.0
C363 C 0.17753 0.75413 0.08329 0.0
N364 N 0.21493 0.71534 0.92913 0.0
N365 N 0.17811 0.72937 0.07139 0.0
H366 H 0.49882 0.05951 0.56473 0.0
H367 H 0.62757 0.0685 0.86682 0.0
H368 H 0.52763 0.08631 0.85831 0.0
H369 H 0.60574 0.05378 0.56382 0.0
H370 H 0.58777 0.06967 0.86984 0.0
H371 H 0.53536 0.0532 0.56698 0.0
C372 C 0.51299 0.06437 0.62948 0.0
C373 C 0.51023 0.07379 0.71115 0.0
C374 C 0.5917 0.06618 0.80272 0.0
C375 C 0.55186 0.06588 0.71479 0.0
C376 C 0.61429 0.06525 0.80107 0.0
C377 C 0.62031 0.06143 0.71462 0.0
C378 C 0.57489 0.06313 0.71742 0.0
C379 C 0.60242 0.05757 0.63161 0.0
C380 C 0.53369 0.06045 0.63097 0.0
C381 C 0.5287 0.07875 0.7938 0.0
N382 N 0.58065 0.05863 0.63503 0.0
N383 N 0.54874 0.07482 0.79341 0.0
H384 H 0.50973 0.81192 0.91073 0.0
H385 H 0.37375 0.59447 0.00403 0.0
H386 H 0.52591 0.74208 0.96195 0.0
H387 H 0.35764 0.66366 0.98718 0.0
H388 H 0.42876 0.64822 0.96786 0.0
H389 H 0.45315 0.75789 0.91636 0.0
C390 C 0.50142 0.7853 0.92163 0.0
C391 C 0.52266 0.78158 0.93669 0.0
C392 C 0.41316 0.65164 0.97158 0.0
C393 C 0.458 0.71968 0.94396 0.0
C394 C 0.38168 0.6209 -0.0078 0.0
C395 C 0.36098 0.62446 -0.00042 0.0
C396 C 0.42415 0.68631 0.95804 0.0
C397 C 0.37272 0.65953 0.98303 0.0
C398 C 0.46912 0.75445 0.92543 0.0
C399 C 0.51049 0.74634 0.95097 0.0
N400 N 0.40351 0.68906 0.96355 0.0
N401 N 0.47907 0.71686 0.9548 0.0
H402 H 0.78029 0.312 0.8138 0.0
H403 H 0.84938 0.26291 0.52765 0.0
H404 H 0.83315 0.37619 0.55307 0.0
H405 H 0.78048 0.1899 0.75059 0.0
H406 H 0.84898 0.3082 0.54649 0.0
H407 H 0.78604 0.27099 0.80318 0.0
C408 C 0.79354 0.31781 0.75499 0.0
C409 C 0.80637 0.34771 0.68437 0.0
C410 C 0.83402 0.28228 0.5913 0.0
C411 C 0.81253 0.30026 0.67078 0.0
C412 C 0.83428 0.25643 0.58083 0.0
C413 C 0.81481 0.22244 0.63731 0.0
C414 C 0.81438 0.27419 0.65931 0.0
C415 C 0.79571 0.21559 0.70493 0.0
C416 C 0.79655 0.29413 0.74847 0.0
C417 C 0.8227 0.35333 0.60866 0.0
N418 N 0.796 0.24121 0.714 0.0
N419 N 0.8253 0.32978 0.60378 0.0
H420 H 0.35386 0.88113 0.97712 0.0
H421 H 0.53385 0.99286 0.91119 0.0
H422 H 0.42803 0.99805 0.9583 0.0
H423 H 0.46273 0.8771 -0.00554 0.0
H424 H 0.49464 0.99514 0.91112 0.0
H425 H 0.39277 0.87906 0.96864 0.0
C426 C 0.37833 0.9064 0.97159 0.0
C427 C 0.38762 0.93985 0.96877 0.0
C428 C 0.48763 0.96925 0.92952 0.0
C429 C 0.43235 0.93764 0.95738 0.0
C430 C 0.50996 0.96788 0.92895 0.0
C431 C 0.50161 0.93472 0.95316 0.0
C432 C 0.45662 0.9372 0.95391 0.0
C433 C 0.47033 0.90331 0.97663 0.0
C434 C 0.40054 0.90519 0.96622 0.0
C435 C 0.41968 0.97169 0.9593 0.0
N436 N 0.44901 0.90532 0.97628 0.0
N437 N 0.44087 0.96981 0.95399 0.0
H438 H 0.63804 0.41788 0.66262 0.0
H439 H 0.50338 0.20047 0.76536 0.0
H440 H 0.65505 0.34915 0.69246 0.0
H441 H 0.48562 0.26883 0.69995 0.0
H442 H 0.55976 0.25505 0.761 0.0
H443 H 0.58284 0.36394 0.69741 0.0
C444 C 0.63027 0.39154 0.67717 0.0
C445 C 0.65125 0.38812 0.67363 0.0
C446 C 0.54349 0.25806 0.7484 0.0
C447 C 0.58799 0.32614 0.71349 0.0
C448 C 0.51128 0.22689 0.75137 0.0
C449 C 0.48966 0.22999 0.73213 0.0
C450 C 0.55415 0.29256 0.72646 0.0
C451 C 0.50135 0.26502 0.7142 0.0
C452 C 0.59871 0.3607 0.69688 0.0
C453 C 0.63975 0.35317 0.69343 0.0
N454 N 0.53271 0.29484 0.71127 0.0
N455 N 0.60893 0.3236 0.71198 0.0
H456 H 0.27295 0.4833 0.84779 0.0
H457 H 0.22163 0.52299 0.33493 0.0
H458 H 0.20796 0.49496 0.80223 0.0
H459 H 0.30416 0.54115 0.39121 0.0
H460 H 0.20483 0.4928 0.49912 0.0
H461 H 0.27071 0.48133 0.67349 0.0
C462 C 0.25719 0.48382 0.80131 0.0
C463 C 0.24104 0.48997 0.83725 0.0
C464 C 0.2265 0.50319 0.47514 0.0
C465 C 0.2389 0.48862 0.64073 0.0
C466 C 0.23636 0.52089 0.38202 0.0
C467 C 0.26472 0.53534 0.3503 0.0
C468 C 0.24527 0.50021 0.53704 0.0
C469 C 0.28241 0.53097 0.41346 0.0
C470 C 0.25614 0.48308 0.70222 0.0
C471 C 0.22106 0.49075 0.77558 0.0
N472 N 0.27252 0.51403 0.50443 0.0
N473 N 0.22096 0.49082 0.67943 0.0
H474 H 0.75081 0.08548 0.33844 0.0
H475 H 0.85672 0.19358 0.87896 0.0
H476 H 0.82016 0.20205 0.276 0.0
H477 H 0.77576 0.0776 0.90098 0.0
H478 H 0.84119 0.19594 0.02339 0.0
H479 H 0.75404 0.08064 0.17221 0.0
C480 C 0.76537 0.10996 0.28779 0.0
C481 C 0.78528 0.14423 0.31963 0.0
C482 C 0.82668 0.1699 -0.0032 0.0
C483 C 0.79013 0.13911 0.13276 0.0
C484 C 0.8358 0.16844 0.91482 0.0
C485 C 0.81736 0.13536 0.87721 0.0
C486 C 0.79916 0.13799 0.04302 0.0
C487 C 0.79059 0.10372 0.92739 0.0
C488 C 0.76766 0.10724 0.19369 0.0
C489 C 0.80444 0.17522 0.25318 0.0
N490 N 0.78224 0.1058 0.0081 0.0
N491 N 0.80685 0.17196 0.16303 0.0
H492 H 0.67679 0.89515 0.74305 0.0
H493 H 0.59638 0.88961 0.24598 0.0
H494 H 0.63262 0.93487 0.68507 0.0
H495 H 0.64373 0.85353 0.31207 0.0
H496 H 0.61936 0.9193 0.39336 0.0
H497 H 0.67969 0.89858 0.56973 0.0
C498 C 0.6686 0.90566 0.69305 0.0
C499 C 0.65365 0.91375 0.72647 0.0
C500 C 0.62486 0.90509 0.375 0.0
C501 C 0.65494 0.91555 0.53044 0.0
C502 C 0.61123 0.88749 0.29208 0.0
C503 C 0.61765 0.86845 0.26791 0.0
C504 C 0.64474 0.90326 0.43408 0.0
C505 C 0.63771 0.8674 0.32871 0.0
C506 C 0.67 0.90741 0.59439 0.0
C507 C 0.64378 0.9278 0.6606 0.0
N508 N 0.65042 0.88445 0.40918 0.0
N509 N 0.64359 0.9271 0.56472 0.0
H510 H 0.70727 0.47225 0.28323 0.0
H511 H 0.80695 0.51872 0.86684 0.0
H512 H 0.78593 0.48284 0.32982 0.0
H513 H 0.74026 0.52772 0.82445 0.0
H514 H 0.80827 0.51979 0.03997 0.0
H515 H 0.7246 0.50231 0.11918 0.0
C516 C 0.72809 0.48073 0.25876 0.0
C517 C 0.74486 0.47443 0.31947 0.0
C518 C 0.794 0.52263 -0.00707 0.0
C519 C 0.76505 0.50928 0.13274 0.0
C520 C 0.7935 0.52232 0.89427 0.0
C521 C 0.77313 0.52258 0.83323 0.0
C522 C 0.77305 0.5218 0.0299 0.0
C523 C 0.75608 0.52725 0.87053 0.0
C524 C 0.73823 0.49837 0.16561 0.0
C525 C 0.77192 0.48647 0.28474 0.0
N526 N 0.75567 0.52557 0.96765 0.0
N527 N 0.78102 0.50307 0.19324 0.0
H528 H 0.18549 0.80465 0.40281 0.0
H529 H 0.2433 0.93708 0.78526 0.0
H530 H 0.26088 0.92084 0.34204 0.0
H531 H 0.15373 0.82596 0.78186 0.0
H532 H 0.25666 0.93247 0.63683 0.0
H533 H 0.18364 0.81186 0.56684 0.0
C534 C 0.20259 0.83156 0.42592 0.0
C535 C 0.22331 0.86219 0.36012 0.0
C536 C 0.23412 0.90925 0.66902 0.0
C537 C 0.22008 0.87094 0.54386 0.0
C538 C 0.2263 0.91195 0.75277 0.0
C539 C 0.1976 0.88157 0.79702 0.0
C540 C 0.2131 0.87595 0.63052 0.0
C541 C 0.17634 0.84987 0.75131 0.0
C542 C 0.20115 0.83581 0.51853 0.0
C543 C 0.24478 0.89664 0.39197 0.0
N544 N 0.18469 0.84777 0.67132 0.0
N545 N 0.24211 0.90027 0.48155 0.0
H546 H 0.35711 0.14441 0.37782 0.0
H547 H 0.37761 0.07156 -0.00864 0.0
H548 H 0.41695 0.12493 0.41614 0.0
H549 H 0.33963 0.11863 0.9344 0.0
H550 H 0.37282 0.06663 0.16541 0.0
H551 H 0.33385 0.11316 0.23457 0.0
C552 C 0.36567 0.13395 0.35556 0.0
C553 C 0.38959 0.13807 0.40775 0.0
C554 C 0.36455 0.07686 0.11456 0.0
C555 C 0.36293 0.10225 0.24358 0.0
C556 C 0.36713 0.0795 0.01579 0.0
C557 C 0.35998 0.09669 0.95063 0.0
C558 C 0.3548 0.09156 0.146 0.0
C559 C 0.34622 0.10625 0.98395 0.0
C560 C 0.35201 0.11563 0.27452 0.0
C561 C 0.39915 0.12319 0.37656 0.0
N562 N 0.3446 0.1042 0.08009 0.0
N563 N 0.38603 0.10629 0.29535 0.0
loop_
_geom_bond_atom_site_label_1
_geom_bond_atom_site_label_2
_geom_bond_distance
_geom_bond_site_symmetry_2
_ccdc_geom_bond_type
Tb0 C9 2.764 1_554 S
Tb0 O10 2.325 . S
Tb0 O13 2.303 1_554 S
Tb0 O17 2.322 . S
Tb0 O18 2.349 . S
Tb0 O21 2.415 1_554 S
Tb0 O22 2.399 . S
Tb1 O11 2.322 . S
Tb1 O12 2.349 1_554 S
Tb1 O14 2.415 . S
Tb1 O15 2.399 . S
Tb1 O16 2.325 . S
Tb1 O19 2.303 . S
Tb1 C30 2.764 . S
C2 O18 1.261 . S
C2 O19 1.257 . S
C3 C6 1.358 1_556 S
C3 C7 1.332 . S
C3 C9 1.504 . S
C4 C5 1.373 . S
C4 C8 1.308 . S
C5 C4 1.373 . S
C5 C6 1.429 1_556 S
C5 H32 0.932 1_556 S
C6 C3 1.358 1_554 S
C6 C5 1.429 1_554 S
C6 H33 0.930 . S
C7 C3 1.332 . S
C7 C8 1.394 . S
C7 H34 0.932 . S
C8 C4 1.308 . S
C8 C7 1.394 . S
C8 H35 0.929 . S
C9 Tb0 2.764 1_556 S
C9 C3 1.504 . S
C9 O21 1.239 . S
C9 O22 1.263 1_556 S
O10 Tb0 2.325 . S
O10 C20 1.236 . S
O11 Tb1 2.322 . S
O11 C20 1.257 . S
O12 Tb1 2.349 1_556 S
O12 C23 1.261 . S
O13 Tb0 2.303 1_556 S
O13 C23 1.257 . S
O14 Tb1 2.415 . S
O14 C30 1.239 . S
O15 Tb1 2.399 . S
O15 C30 1.263 . S
O16 Tb1 2.325 . S
O16 C31 1.236 . S
O17 Tb0 2.322 . S
O17 C31 1.257 . S
O18 Tb0 2.349 . S
O18 C2 1.261 . S
O19 Tb1 2.303 . S
O19 C2 1.257 . S
C20 O10 1.236 . S
C20 O11 1.257 . S
O21 Tb0 2.415 1_556 S
O21 C9 1.239 . S
O22 Tb0 2.399 . S
O22 C9 1.263 1_554 S
C23 O12 1.261 . S
C23 O13 1.257 . S
C24 C27 1.358 . S
C24 C28 1.332 . S
C24 C30 1.504 . S
C25 C26 1.373 . S
C25 C29 1.308 . S
C26 C25 1.373 . S
C26 C27 1.429 . S
C26 H36 0.932 . S
C27 C24 1.358 . S
C27 C26 1.429 . S
C27 H37 0.930 . S
C28 C24 1.332 . S
C28 C29 1.394 . S
C28 H38 0.932 . S
C29 C25 1.308 . S
C29 C28 1.394 . S
C29 H39 0.929 . S
C30 Tb1 2.764 . S
C30 O14 1.239 . S
C30 O15 1.263 . S
C30 C24 1.504 . S
C31 O16 1.236 . S
C31 O17 1.257 . S
H32 C5 0.932 1_554 S
H33 C6 0.930 . S
H34 C7 0.932 . S
H35 C8 0.929 . S
H36 C26 0.932 . S
H37 C27 0.930 . S
H38 C28 0.932 . S
H39 C29 0.929 . S
Tb40 C49 2.764 . S
Tb40 O50 2.325 . S
Tb40 O53 2.303 . S
Tb40 O57 2.322 . S
Tb40 O58 2.349 . S
Tb40 O61 2.415 . S
Tb40 O62 2.399 . S
Tb41 O51 2.322 . S
Tb41 O52 2.349 . S
Tb41 O54 2.415 . S
Tb41 O55 2.399 . S
Tb41 O56 2.325 . S
Tb41 O59 2.303 . S
Tb41 C70 2.764 . S
C42 O58 1.261 . S
C42 O59 1.257 . S
C43 C46 1.358 . S
C43 C47 1.332 . S
C43 C49 1.504 . S
C44 C45 1.373 . S
C44 C48 1.308 . S
C45 C44 1.373 . S
C45 C46 1.429 . S
C45 H72 0.932 . S
C46 C43 1.358 . S
C46 C45 1.429 . S
C46 H73 0.930 . S
C47 C43 1.332 . S
C47 C48 1.394 . S
C47 H74 0.932 . S
C48 C44 1.308 . S
C48 C47 1.394 . S
C48 H75 0.929 . S
C49 Tb40 2.764 . S
C49 C43 1.504 . S
C49 O61 1.239 . S
C49 O62 1.263 . S
O50 Tb40 2.325 . S
O50 C60 1.236 . S
O51 Tb41 2.322 . S
O51 C60 1.257 . S
O52 Tb41 2.349 . S
O52 C63 1.261 . S
O53 Tb40 2.303 . S
O53 C63 1.257 . S
O54 Tb41 2.415 . S
O54 C70 1.239 . S
O55 Tb41 2.399 . S
O55 C70 1.263 . S
O56 Tb41 2.325 . S
O56 C71 1.236 . S
O57 Tb40 2.322 . S
O57 C71 1.257 . S
O58 Tb40 2.349 . S
O58 C42 1.261 . S
O59 Tb41 2.303 . S
O59 C42 1.257 . S
C60 O50 1.236 . S
C60 O51 1.257 . S
O61 Tb40 2.415 . S
O61 C49 1.239 . S
O62 Tb40 2.399 . S
O62 C49 1.263 . S
C63 O52 1.261 . S
C63 O53 1.257 . S
C64 C67 1.358 . S
C64 C68 1.332 . S
C64 C70 1.504 . S
C65 C66 1.373 . S
C65 C69 1.308 . S
C66 C65 1.373 . S
C66 C67 1.429 . S
C66 H76 0.932 . S
C67 C64 1.358 . S
C67 C66 1.429 . S
C67 H77 0.930 . S
C68 C64 1.332 . S
C68 C69 1.394 . S
C68 H78 0.932 . S
C69 C65 1.308 . S
C69 C68 1.394 . S
C69 H79 0.929 . S
C70 Tb41 2.764 . S
C70 O54 1.239 . S
C70 O55 1.263 . S
C70 C64 1.504 . S
C71 O56 1.236 . S
C71 O57 1.257 . S
H72 C45 0.932 . S
H73 C46 0.930 . S
H74 C47 0.932 . S
H75 C48 0.929 . S
H76 C66 0.932 . S
H77 C67 0.930 . S
H78 C68 0.932 . S
H79 C69 0.929 . S
Tb80 C89 2.764 . S
Tb80 O90 2.325 . S
Tb80 O93 2.303 1_556 S
Tb80 O97 2.322 . S
Tb80 O98 2.349 . S
Tb80 O101 2.415 1_556 S
Tb80 O102 2.399 . S
Tb81 O91 2.322 . S
Tb81 O92 2.349 . S
Tb81 O94 2.415 1_554 S
Tb81 O95 2.399 . S
Tb81 O96 2.325 . S
Tb81 O99 2.303 1_554 S
Tb81 C110 2.764 . S
C82 O98 1.261 . S
C82 O99 1.257 . S
C83 C86 1.358 . S
C83 C87 1.326 1_556 S
C83 C89 1.504 . S
C84 C85 1.373 . S
C84 C88 1.308 . S
C85 C84 1.373 . S
C85 C86 1.429 . S
C85 H112 0.932 . S
C86 C83 1.358 . S
C86 C85 1.429 . S
C86 H113 0.930 . S
C87 C83 1.326 1_554 S
C87 C88 1.395 1_554 S
C87 H114 0.938 . S
C88 C84 1.308 . S
C88 C87 1.395 1_556 S
C88 H115 0.929 1_556 S
C89 Tb80 2.764 . S
C89 C83 1.504 . S
C89 O101 1.239 1_556 S
C89 O102 1.263 . S
O90 Tb80 2.325 . S
O90 C100 1.236 . S
O91 Tb81 2.322 . S
O91 C100 1.257 1_554 S
O92 Tb81 2.349 . S
O92 C103 1.261 . S
O93 Tb80 2.303 1_554 S
O93 C103 1.257 . S
O94 Tb81 2.415 1_556 S
O94 C110 1.239 1_556 S
O95 Tb81 2.399 . S
O95 C110 1.263 . S
O96 Tb81 2.325 . S
O96 C111 1.236 . S
O97 Tb80 2.322 . S
O97 C111 1.257 1_556 S
O98 Tb80 2.349 . S
O98 C82 1.261 . S
O99 Tb81 2.303 1_556 S
O99 C82 1.257 . S
C100 O90 1.236 . S
C100 O91 1.257 1_556 S
O101 Tb80 2.415 1_554 S
O101 C89 1.239 1_554 S
O102 Tb80 2.399 . S
O102 C89 1.263 . S
C103 O92 1.261 . S
C103 O93 1.257 . S
C104 C107 1.358 . S
C104 C108 1.328 1_554 S
C104 C110 1.504 . S
C105 C106 1.373 . S
C105 C109 1.308 . S
C106 C105 1.373 . S
C106 C107 1.429 . S
C106 H116 0.932 . S
C107 C104 1.358 . S
C107 C106 1.429 . S
C107 H117 0.930 . S
C108 C104 1.328 1_556 S
C108 C109 1.395 1_556 S
C108 H118 0.936 . S
C109 C105 1.308 . S
C109 C108 1.395 1_554 S
C109 H119 0.929 1_554 S
C110 Tb81 2.764 . S
C110 O94 1.239 1_554 S
C110 O95 1.263 . S
C110 C104 1.504 . S
C111 O96 1.236 . S
C111 O97 1.257 1_554 S
H112 C85 0.932 . S
H113 C86 0.930 . S
H114 C87 0.938 . S
H115 C88 0.929 1_554 S
H116 C106 0.932 . S
H117 C107 0.930 . S
H118 C108 0.936 . S
H119 C109 0.929 1_556 S
Tb120 C129 2.764 . S
Tb120 O130 2.325 . S
Tb120 O133 2.303 . S
Tb120 O137 2.322 . S
Tb120 O138 2.349 . S
Tb120 O141 2.415 . S
Tb120 O142 2.399 . S
Tb121 O131 2.322 . S
Tb121 O132 2.349 . S
Tb121 O134 2.415 . S
Tb121 O135 2.399 . S
Tb121 O136 2.325 . S
Tb121 O139 2.303 . S
Tb121 C150 2.764 . S
C122 O138 1.261 . S
C122 O139 1.257 . S
C123 C126 1.358 . S
C123 C127 1.332 . S
C123 C129 1.504 . S
C124 C125 1.373 . S
C124 C128 1.308 . S
C125 C124 1.373 . S
C125 C126 1.429 . S
C125 H152 0.932 . S
C126 C123 1.358 . S
C126 C125 1.429 . S
C126 H153 0.930 . S
C127 C123 1.332 . S
C127 C128 1.394 . S
C127 H154 0.932 . S
C128 C124 1.308 . S
C128 C127 1.394 . S
C128 H155 0.929 . S
C129 Tb120 2.764 . S
C129 C123 1.504 . S
C129 O141 1.239 . S
C129 O142 1.263 . S
O130 Tb120 2.325 . S
O130 C140 1.236 . S
O131 Tb121 2.322 . S
O131 C140 1.257 . S
O132 Tb121 2.349 . S
O132 C143 1.261 . S
O133 Tb120 2.303 . S
O133 C143 1.257 . S
O134 Tb121 2.415 . S
O134 C150 1.239 . S
O135 Tb121 2.399 . S
O135 C150 1.263 . S
O136 Tb121 2.325 . S
O136 C151 1.236 . S
O137 Tb120 2.322 . S
O137 C151 1.257 . S
O138 Tb120 2.349 . S
O138 C122 1.261 . S
O139 Tb121 2.303 . S
O139 C122 1.257 . S
C140 O130 1.236 . S
C140 O131 1.257 . S
O141 Tb120 2.415 . S
O141 C129 1.239 . S
O142 Tb120 2.399 . S
O142 C129 1.263 . S
C143 O132 1.261 . S
C143 O133 1.257 . S
C144 C147 1.358 . S
C144 C148 1.332 . S
C144 C150 1.504 . S
C145 C146 1.373 . S
C145 C149 1.308 . S
C146 C145 1.373 . S
C146 C147 1.429 . S
C146 H156 0.932 . S
C147 C144 1.358 . S
C147 C146 1.429 . S
C147 H157 0.930 . S
C148 C144 1.332 . S
C148 C149 1.394 . S
C148 H158 0.932 . S
C149 C145 1.308 . S
C149 C148 1.394 . S
C149 H159 0.929 . S
C150 Tb121 2.764 . S
C150 O134 1.239 . S
C150 O135 1.263 . S
C150 C144 1.504 . S
C151 O136 1.236 . S
C151 O137 1.257 . S
H152 C125 0.932 . S
H153 C126 0.930 . S
H154 C127 0.932 . S
H155 C128 0.929 . S
H156 C146 0.932 . S
H157 C147 0.930 . S
H158 C148 0.932 . S
H159 C149 0.929 . S
Tb160 C169 2.764 . S
Tb160 O170 2.325 . S
Tb160 O173 2.303 1_554 S
Tb160 O177 2.322 . S
Tb160 O178 2.349 . S
Tb160 O181 2.415 1_554 S
Tb160 O182 2.399 . S
Tb161 O171 2.322 . S
Tb161 O172 2.349 1_554 S
Tb161 O174 2.415 . S
Tb161 O175 2.399 1_554 S
Tb161 O176 2.325 . S
Tb161 O179 2.303 . S
Tb161 C190 2.764 . S
C162 O178 1.261 . S
C162 O179 1.257 . S
C163 C166 1.358 1_556 S
C163 C167 1.332 . S
C163 C169 1.504 1_556 S
C164 C165 1.373 1_556 S
C164 C168 1.308 . S
C165 C164 1.373 1_554 S
C165 C166 1.429 . S
C165 H192 0.932 . S
C166 C163 1.358 1_554 S
C166 C165 1.429 . S
C166 H193 0.930 . S
C167 C163 1.332 . S
C167 C168 1.394 . S
C167 H194 0.932 . S
C168 C164 1.308 . S
C168 C167 1.394 . S
C168 H195 0.929 . S
C169 Tb160 2.764 . S
C169 C163 1.504 1_554 S
C169 O181 1.239 1_554 S
C169 O182 1.263 . S
O170 Tb160 2.325 . S
O170 C180 1.236 . S
O171 Tb161 2.322 . S
O171 C180 1.257 . S
O172 Tb161 2.349 1_556 S
O172 C183 1.261 . S
O173 Tb160 2.303 1_556 S
O173 C183 1.257 . S
O174 Tb161 2.415 . S
O174 C190 1.239 . S
O175 Tb161 2.399 1_556 S
O175 C190 1.263 1_556 S
O176 Tb161 2.325 . S
O176 C191 1.236 . S
O177 Tb160 2.322 . S
O177 C191 1.257 . S
O178 Tb160 2.349 . S
O178 C162 1.261 . S
O179 Tb161 2.303 . S
O179 C162 1.257 . S
C180 O170 1.236 . S
C180 O171 1.257 . S
O181 Tb160 2.415 1_556 S
O181 C169 1.239 1_556 S
O182 Tb160 2.399 . S
O182 C169 1.263 . S
C183 O172 1.261 . S
C183 O173 1.257 . S
C184 C187 1.358 . S
C184 C188 1.332 . S
C184 C190 1.504 . S
C185 C186 1.373 . S
C185 C189 1.308 . S
C186 C185 1.373 . S
C186 C187 1.429 . S
C186 H196 0.932 . S
C187 C184 1.358 . S
C187 C186 1.429 . S
C187 H197 0.930 1_554 S
C188 C184 1.332 . S
C188 C189 1.394 . S
C188 H198 0.932 . S
C189 C185 1.308 . S
C189 C188 1.394 . S
C189 H199 0.929 . S
C190 Tb161 2.764 . S
C190 O174 1.239 . S
C190 O175 1.263 1_554 S
C190 C184 1.504 . S
C191 O176 1.236 . S
C191 O177 1.257 . S
H192 C165 0.932 . S
H193 C166 0.930 . S
H194 C167 0.932 . S
H195 C168 0.929 . S
H196 C186 0.932 . S
H197 C187 0.930 1_556 S
H198 C188 0.932 . S
H199 C189 0.929 . S
Tb200 C209 2.764 . S
Tb200 O210 2.325 . S
Tb200 O213 2.303 . S
Tb200 O217 2.322 . S
Tb200 O218 2.349 . S
Tb200 O221 2.415 . S
Tb200 O222 2.399 . S
Tb201 O211 2.322 . S
Tb201 O212 2.349 . S
Tb201 O214 2.415 . S
Tb201 O215 2.399 . S
Tb201 O216 2.325 . S
Tb201 O219 2.303 . S
Tb201 C230 2.764 . S
C202 O218 1.261 . S
C202 O219 1.257 . S
C203 C206 1.358 . S
C203 C207 1.332 . S
C203 C209 1.504 . S
C204 C205 1.373 . S
C204 C208 1.308 . S
C205 C204 1.373 . S
C205 C206 1.429 . S
C205 H232 0.932 . S
C206 C203 1.358 . S
C206 C205 1.429 . S
C206 H233 0.930 . S
C207 C203 1.332 . S
C207 C208 1.394 . S
C207 H234 0.932 . S
C208 C204 1.308 . S
C208 C207 1.394 . S
C208 H235 0.929 . S
C209 Tb200 2.764 . S
C209 C203 1.504 . S
C209 O221 1.239 . S
C209 O222 1.263 . S
O210 Tb200 2.325 . S
O210 C220 1.236 . S
O211 Tb201 2.322 . S
O211 C220 1.257 . S
O212 Tb201 2.349 . S
O212 C223 1.261 . S
O213 Tb200 2.303 . S
O213 C223 1.257 . S
O214 Tb201 2.415 . S
O214 C230 1.239 . S
O215 Tb201 2.399 . S
O215 C230 1.263 . S
O216 Tb201 2.325 . S
O216 C231 1.236 . S
O217 Tb200 2.322 . S
O217 C231 1.257 . S
O218 Tb200 2.349 . S
O218 C202 1.261 . S
O219 Tb201 2.303 . S
O219 C202 1.257 . S
C220 O210 1.236 . S
C220 O211 1.257 . S
O221 Tb200 2.415 . S
O221 C209 1.239 . S
O222 Tb200 2.399 . S
O222 C209 1.263 . S
C223 O212 1.261 . S
C223 O213 1.257 . S
C224 C227 1.358 . S
C224 C228 1.332 . S
C224 C230 1.504 . S
C225 C226 1.373 . S
C225 C229 1.308 . S
C226 C225 1.373 . S
C226 C227 1.429 . S
C226 H236 0.932 . S
C227 C224 1.358 . S
C227 C226 1.429 . S
C227 H237 0.930 . S
C228 C224 1.332 . S
C228 C229 1.394 . S
C228 H238 0.932 . S
C229 C225 1.308 . S
C229 C228 1.394 . S
C229 H239 0.929 . S
C230 Tb201 2.764 . S
C230 O214 1.239 . S
C230 O215 1.263 . S
C230 C224 1.504 . S
C231 O216 1.236 . S
C231 O217 1.257 . S
H232 C205 0.932 . S
H233 C206 0.930 . S
H234 C207 0.932 . S
H235 C208 0.929 . S
H236 C226 0.932 . S
H237 C227 0.930 . S
H238 C228 0.932 . S
H239 C229 0.929 . S
H240 C246 0.930 . S
H241 C250 0.930 . S
H242 C255 0.929 . S
H243 C253 0.929 . S
H244 C248 0.929 . S
H245 C254 0.929 . S
C246 H240 0.930 . S
C246 C247 1.367 . S
C246 C254 1.378 . S
C247 C246 1.367 . S
C247 C255 1.433 . S
C248 H244 0.929 . S
C248 C250 1.378 . S
C248 C252 1.350 . S
C249 C252 1.463 . S
C249 C254 1.350 . S
C249 N257 1.427 . S
C250 H241 0.930 . S
C250 C248 1.378 . S
C250 C251 1.367 . S
C251 C250 1.367 . S
C251 C253 1.433 . S
C252 C248 1.350 . S
C252 C249 1.463 . S
C252 N256 1.427 . S
C253 H243 0.929 . S
C253 C251 1.433 . S
C253 N256 1.384 . S
C254 H245 0.929 . S
C254 C246 1.378 . S
C254 C249 1.350 . S
C255 H242 0.929 . S
C255 C247 1.433 . S
C255 N257 1.384 . S
N256 C252 1.427 . S
N256 C253 1.384 . S
N257 C249 1.427 . S
N257 C255 1.384 . S
H258 C264 0.930 . S
H259 C268 0.930 1_655 S
H260 C273 0.929 . S
H261 C271 0.929 . S
H262 C266 0.929 . S
H263 C272 0.929 . S
C264 H258 0.930 . S
C264 C265 1.367 . S
C264 C272 1.378 . S
C265 C264 1.367 . S
C265 C273 1.433 . S
C266 H262 0.929 . S
C266 C268 1.378 . S
C266 C270 1.350 . S
C267 C270 1.463 . S
C267 C272 1.350 . S
C267 N275 1.427 . S
C268 H259 0.930 1_455 S
C268 C266 1.378 . S
C268 C269 1.367 . S
C269 C268 1.367 . S
C269 C271 1.433 . S
C270 C266 1.350 . S
C270 C267 1.463 . S
C270 N274 1.427 . S
C271 H261 0.929 . S
C271 C269 1.433 . S
C271 N274 1.384 . S
C272 H263 0.929 . S
C272 C264 1.378 . S
C272 C267 1.350 . S
C273 H260 0.929 . S
C273 C265 1.433 . S
C273 N275 1.384 . S
N274 C270 1.427 . S
N274 C271 1.384 . S
N275 C267 1.427 . S
N275 C273 1.384 . S
H276 C282 0.930 . S
H277 C286 0.930 . S
H278 C291 0.929 . S
H279 C289 0.929 . S
H280 C284 0.929 . S
H281 C290 0.929 . S
C282 H276 0.930 . S
C282 C283 1.367 . S
C282 C290 1.378 . S
C283 C282 1.367 . S
C283 C291 1.433 . S
C284 H280 0.929 . S
C284 C286 1.378 . S
C284 C288 1.350 . S
C285 C288 1.463 1_545 S
C285 C290 1.350 . S
C285 N293 1.427 . S
C286 H277 0.930 . S
C286 C284 1.378 . S
C286 C287 1.367 . S
C287 C286 1.367 . S
C287 C289 1.433 . S
C288 C284 1.350 . S
C288 C285 1.463 1_565 S
C288 N292 1.427 . S
C289 H279 0.929 . S
C289 C287 1.433 . S
C289 N292 1.384 . S
C290 H281 0.929 . S
C290 C282 1.378 . S
C290 C285 1.350 . S
C291 H278 0.929 . S
C291 C283 1.433 . S
C291 N293 1.384 . S
N292 C288 1.427 . S
N292 C289 1.384 . S
N293 C285 1.427 . S
N293 C291 1.384 . S
H294 C300 0.930 . S
H295 C304 0.930 . S
H296 C309 0.929 . S
H297 C307 0.929 . S
H298 C302 0.929 . S
H299 C308 0.929 . S
C300 H294 0.930 . S
C300 C301 1.367 . S
C300 C308 1.378 . S
C301 C300 1.367 . S
C301 C309 1.433 . S
C302 H298 0.929 . S
C302 C304 1.378 . S
C302 C306 1.350 . S
C303 C306 1.463 . S
C303 C308 1.350 . S
C303 N311 1.427 . S
C304 H295 0.930 . S
C304 C302 1.378 . S
C304 C305 1.367 . S
C305 C304 1.367 . S
C305 C307 1.433 . S
C306 C302 1.350 . S
C306 C303 1.463 . S
C306 N310 1.427 . S
C307 H297 0.929 . S
C307 C305 1.433 . S
C307 N310 1.384 . S
C308 H299 0.929 . S
C308 C300 1.378 . S
C308 C303 1.350 . S
C309 H296 0.929 . S
C309 C301 1.433 . S
C309 N311 1.384 . S
N310 C306 1.427 . S
N310 C307 1.384 . S
N311 C303 1.427 . S
N311 C309 1.384 . S
H312 C318 0.930 . S
H313 C322 0.930 . S
H314 C327 0.929 . S
H315 C325 0.929 . S
H316 C320 0.929 . S
H317 C326 0.929 . S
C318 H312 0.930 . S
C318 C319 1.367 . S
C318 C326 1.378 . S
C319 C318 1.367 . S
C319 C327 1.433 . S
C320 H316 0.929 . S
C320 C322 1.378 . S
C320 C324 1.350 . S
C321 C324 1.463 . S
C321 C326 1.350 . S
C321 N329 1.427 . S
C322 H313 0.930 . S
C322 C320 1.378 . S
C322 C323 1.367 . S
C323 C322 1.367 . S
C323 C325 1.433 . S
C324 C320 1.350 . S
C324 C321 1.463 . S
C324 N328 1.427 . S
C325 H315 0.929 . S
C325 C323 1.433 . S
C325 N328 1.384 . S
C326 H317 0.929 . S
C326 C318 1.378 . S
C326 C321 1.350 . S
C327 H314 0.929 . S
C327 C319 1.433 . S
C327 N329 1.384 . S
N328 C324 1.427 . S
N328 C325 1.384 . S
N329 C321 1.427 . S
N329 C327 1.384 . S
H330 C336 0.930 . S
H331 C340 0.930 . S
H332 C345 0.929 . S
H333 C343 0.929 . S
H334 C338 0.929 . S
H335 C344 0.929 . S
C336 H330 0.930 . S
C336 C337 1.367 . S
C336 C344 1.378 . S
C337 C336 1.367 . S
C337 C345 1.433 1_565 S
C338 H334 0.929 . S
C338 C340 1.378 . S
C338 C342 1.350 . S
C339 C342 1.463 1_565 S
C339 C344 1.350 . S
C339 N347 1.427 1_565 S
C340 H331 0.930 . S
C340 C338 1.378 . S
C340 C341 1.367 . S
C341 C340 1.367 . S
C341 C343 1.433 1_545 S
C342 C338 1.350 . S
C342 C339 1.463 1_545 S
C342 N346 1.427 1_545 S
C343 H333 0.929 . S
C343 C341 1.433 1_565 S
C343 N346 1.384 . S
C344 H335 0.929 . S
C344 C336 1.378 . S
C344 C339 1.350 . S
C345 H332 0.929 . S
C345 C337 1.433 1_545 S
C345 N347 1.384 . S
N346 C342 1.427 1_565 S
N346 C343 1.384 . S
N347 C339 1.427 1_545 S
N347 C345 1.384 . S
H348 C354 0.930 . S
H349 C358 0.930 1_554 S
H350 C363 0.929 . S
H351 C361 0.929 . S
H352 C356 0.929 1_554 S
H353 C362 0.929 . S
C354 H348 0.930 . S
C354 C355 1.367 . S
C354 C362 1.378 . S
C355 C354 1.367 . S
C355 C363 1.433 1_556 S
C356 H352 0.929 1_556 S
C356 C358 1.378 . S
C356 C360 1.350 . S
C357 C360 1.463 . S
C357 C362 1.350 . S
C357 N365 1.427 1_556 S
C358 H349 0.930 1_556 S
C358 C356 1.378 . S
C358 C359 1.367 . S
C359 C358 1.367 . S
C359 C361 1.433 . S
C360 C356 1.350 . S
C360 C357 1.463 . S
C360 N364 1.427 . S
C361 H351 0.929 . S
C361 C359 1.433 . S
C361 N364 1.384 . S
C362 H353 0.929 . S
C362 C354 1.378 . S
C362 C357 1.350 . S
C363 H350 0.929 . S
C363 C355 1.433 1_554 S
C363 N365 1.384 . S
N364 C360 1.427 . S
N364 C361 1.384 . S
N365 C357 1.427 1_554 S
N365 C363 1.384 . S
H366 C372 0.930 1_565 S
H367 C376 0.930 . S
H368 C381 0.929 . S
H369 C379 0.929 . S
H370 C374 0.929 . S
H371 C380 0.929 1_565 S
C372 H366 0.930 1_545 S
C372 C373 1.367 . S
C372 C380 1.378 . S
C373 C372 1.367 . S
C373 C381 1.433 . S
C374 H370 0.929 . S
C374 C376 1.378 . S
C374 C378 1.350 . S
C375 C378 1.463 . S
C375 C380 1.350 . S
C375 N383 1.427 . S
C376 H367 0.930 . S
C376 C374 1.378 . S
C376 C377 1.367 . S
C377 C376 1.367 . S
C377 C379 1.433 1_545 S
C378 C374 1.350 . S
C378 C375 1.463 . S
C378 N382 1.427 1_545 S
C379 H369 0.929 . S
C379 C377 1.433 1_565 S
C379 N382 1.384 . S
C380 H371 0.929 1_545 S
C380 C372 1.378 . S
C380 C375 1.350 . S
C381 H368 0.929 . S
C381 C373 1.433 . S
C381 N383 1.384 . S
N382 C378 1.427 1_565 S
N382 C379 1.384 . S
N383 C375 1.427 . S
N383 C381 1.384 . S
H384 C390 0.930 . S
H385 C394 0.930 . S
H386 C399 0.929 . S
H387 C397 0.929 . S
H388 C392 0.929 . S
H389 C398 0.929 . S
C390 H384 0.930 . S
C390 C391 1.367 . S
C390 C398 1.378 . S
C391 C390 1.367 . S
C391 C399 1.433 1_556 S
C392 H388 0.929 . S
C392 C394 1.378 . S
C392 C396 1.350 . S
C393 C396 1.462 1_556 S
C393 C398 1.350 . S
C393 N401 1.427 1_556 S
C394 H385 0.930 . S
C394 C392 1.378 . S
C394 C395 1.367 . S
C395 C394 1.367 . S
C395 C397 1.433 1_554 S
C396 C392 1.350 . S
C396 C393 1.462 1_554 S
C396 N400 1.427 1_554 S
C397 H387 0.929 . S
C397 C395 1.433 1_556 S
C397 N400 1.384 . S
C398 H389 0.929 . S
C398 C390 1.378 . S
C398 C393 1.350 . S
C399 H386 0.929 . S
C399 C391 1.433 1_554 S
C399 N401 1.384 . S
N400 C396 1.427 1_556 S
N400 C397 1.384 . S
N401 C393 1.427 1_554 S
N401 C399 1.384 . S
H402 C408 0.930 . S
H403 C412 0.930 . S
H404 C417 0.929 . S
H405 C415 0.929 . S
H406 C410 0.929 . S
H407 C416 0.929 . S
C408 H402 0.930 . S
C408 C409 1.367 . S
C408 C416 1.378 . S
C409 C408 1.367 . S
C409 C417 1.433 . S
C410 H406 0.929 . S
C410 C412 1.378 . S
C410 C414 1.350 . S
C411 C414 1.463 . S
C411 C416 1.350 . S
C411 N419 1.427 . S
C412 H403 0.930 . S
C412 C410 1.378 . S
C412 C413 1.367 . S
C413 C412 1.367 . S
C413 C415 1.433 . S
C414 C410 1.350 . S
C414 C411 1.463 . S
C414 N418 1.427 . S
C415 H405 0.929 . S
C415 C413 1.433 . S
C415 N418 1.384 . S
C416 H407 0.929 . S
C416 C408 1.378 . S
C416 C411 1.350 . S
C417 H404 0.929 . S
C417 C409 1.433 . S
C417 N419 1.384 . S
N418 C414 1.427 . S
N418 C415 1.384 . S
N419 C411 1.427 . S
N419 C417 1.384 . S
H420 C426 0.930 1_554 S
H421 C430 0.930 1_545 S
H422 C435 0.929 . S
H423 C433 0.929 . S
H424 C428 0.929 1_545 S
H425 C434 0.929 . S
C426 H420 0.930 1_556 S
C426 C427 1.367 . S
C426 C434 1.378 . S
C427 C426 1.367 . S
C427 C435 1.433 1_565 S
C428 H424 0.929 1_565 S
C428 C430 1.378 . S
C428 C432 1.350 . S
C429 C432 1.463 . S
C429 C434 1.350 . S
C429 N437 1.427 1_565 S
C430 H421 0.930 1_565 S
C430 C428 1.378 . S
C430 C431 1.367 . S
C431 C430 1.367 . S
C431 C433 1.433 . S
C432 C428 1.350 . S
C432 C429 1.463 . S
C432 N436 1.427 . S
C433 H423 0.929 . S
C433 C431 1.433 . S
C433 N436 1.384 . S
C434 H425 0.929 . S
C434 C426 1.378 . S
C434 C429 1.350 . S
C435 H422 0.929 . S
C435 C427 1.433 1_545 S
C435 N437 1.384 . S
N436 C432 1.427 . S
N436 C433 1.384 . S
N437 C429 1.427 1_545 S
N437 C435 1.384 . S
H438 C444 0.930 . S
H439 C448 0.930 . S
H440 C453 0.929 . S
H441 C451 0.929 . S
H442 C446 0.929 . S
H443 C452 0.929 . S
C444 H438 0.930 . S
C444 C445 1.367 . S
C444 C452 1.378 . S
C445 C444 1.367 . S
C445 C453 1.433 . S
C446 H442 0.929 . S
C446 C448 1.378 . S
C446 C450 1.350 . S
C447 C450 1.463 . S
C447 C452 1.350 . S
C447 N455 1.427 . S
C448 H439 0.930 . S
C448 C446 1.378 . S
C448 C449 1.367 . S
C449 C448 1.367 . S
C449 C451 1.433 . S
C450 C446 1.350 . S
C450 C447 1.463 . S
C450 N454 1.427 . S
C451 H441 0.929 . S
C451 C449 1.433 . S
C451 N454 1.384 . S
C452 H443 0.929 . S
C452 C444 1.378 . S
C452 C447 1.350 . S
C453 H440 0.929 . S
C453 C445 1.433 . S
C453 N455 1.384 . S
N454 C450 1.427 . S
N454 C451 1.384 . S
N455 C447 1.427 . S
N455 C453 1.384 . S
H456 C462 0.930 . S
H457 C466 0.930 . S
H458 C471 0.929 . S
H459 C469 0.929 . S
H460 C464 0.929 . S
H461 C470 0.929 . S
C462 H456 0.930 . S
C462 C463 1.367 . S
C462 C470 1.378 . S
C463 C462 1.367 . S
C463 C471 1.433 . S
C464 H460 0.929 . S
C464 C466 1.378 . S
C464 C468 1.350 . S
C465 C468 1.463 . S
C465 C470 1.350 . S
C465 N473 1.427 . S
C466 H457 0.930 . S
C466 C464 1.378 . S
C466 C467 1.367 . S
C467 C466 1.367 . S
C467 C469 1.433 . S
C468 C464 1.350 . S
C468 C465 1.463 . S
C468 N472 1.427 . S
C469 H459 0.929 . S
C469 C467 1.433 . S
C469 N472 1.384 . S
C470 H461 0.929 . S
C470 C462 1.378 . S
C470 C465 1.350 . S
C471 H458 0.929 . S
C471 C463 1.433 . S
C471 N473 1.384 . S
N472 C468 1.427 . S
N472 C469 1.384 . S
N473 C465 1.427 . S
N473 C471 1.384 . S
H474 C480 0.930 . S
H475 C484 0.930 . S
H476 C489 0.929 . S
H477 C487 0.929 . S
H478 C482 0.929 . S
H479 C488 0.929 . S
C480 H474 0.930 . S
C480 C481 1.367 . S
C480 C488 1.378 . S
C481 C480 1.367 . S
C481 C489 1.433 . S
C482 H478 0.929 . S
C482 C484 1.378 1_554 S
C482 C486 1.350 . S
C483 C486 1.463 . S
C483 C488 1.350 . S
C483 N491 1.427 . S
C484 H475 0.930 . S
C484 C482 1.378 1_556 S
C484 C485 1.367 . S
C485 C484 1.367 . S
C485 C487 1.433 . S
C486 C482 1.350 . S
C486 C483 1.463 . S
C486 N490 1.427 . S
C487 H477 0.929 . S
C487 C485 1.433 . S
C487 N490 1.384 1_556 S
C488 H479 0.929 . S
C488 C480 1.378 . S
C488 C483 1.350 . S
C489 H476 0.929 . S
C489 C481 1.433 . S
C489 N491 1.384 . S
N490 C486 1.427 . S
N490 C487 1.384 1_554 S
N491 C483 1.427 . S
N491 C489 1.384 . S
H492 C498 0.930 . S
H493 C502 0.930 . S
H494 C507 0.929 . S
H495 C505 0.929 . S
H496 C500 0.929 . S
H497 C506 0.929 . S
C498 H492 0.930 . S
C498 C499 1.367 . S
C498 C506 1.378 . S
C499 C498 1.367 . S
C499 C507 1.433 . S
C500 H496 0.929 . S
C500 C502 1.378 . S
C500 C504 1.350 . S
C501 C504 1.463 . S
C501 C506 1.350 . S
C501 N509 1.427 . S
C502 H493 0.930 . S
C502 C500 1.378 . S
C502 C503 1.367 . S
C503 C502 1.367 . S
C503 C505 1.433 . S
C504 C500 1.350 . S
C504 C501 1.463 . S
C504 N508 1.427 . S
C505 H495 0.929 . S
C505 C503 1.433 . S
C505 N508 1.384 . S
C506 H497 0.929 . S
C506 C498 1.378 . S
C506 C501 1.350 . S
C507 H494 0.929 . S
C507 C499 1.433 . S
C507 N509 1.384 . S
N508 C504 1.427 . S
N508 C505 1.384 . S
N509 C501 1.427 . S
N509 C507 1.384 . S
H510 C516 0.930 . S
H511 C520 0.930 . S
H512 C525 0.929 . S
H513 C523 0.929 . S
H514 C518 0.929 . S
H515 C524 0.929 . S
C516 H510 0.930 . S
C516 C517 1.367 . S
C516 C524 1.378 . S
C517 C516 1.367 . S
C517 C525 1.433 . S
C518 H514 0.929 . S
C518 C520 1.378 1_554 S
C518 C522 1.350 . S
C519 C522 1.463 . S
C519 C524 1.350 . S
C519 N527 1.427 . S
C520 H511 0.930 . S
C520 C518 1.378 1_556 S
C520 C521 1.367 . S
C521 C520 1.367 . S
C521 C523 1.433 . S
C522 C518 1.350 . S
C522 C519 1.463 . S
C522 N526 1.427 . S
C523 H513 0.929 . S
C523 C521 1.433 . S
C523 N526 1.384 1_556 S
C524 H515 0.929 . S
C524 C516 1.378 . S
C524 C519 1.350 . S
C525 H512 0.929 . S
C525 C517 1.433 . S
C525 N527 1.384 . S
N526 C522 1.427 . S
N526 C523 1.384 1_554 S
N527 C519 1.427 . S
N527 C525 1.384 . S
H528 C534 0.930 . S
H529 C538 0.930 . S
H530 C543 0.929 . S
H531 C541 0.929 . S
H532 C536 0.929 . S
H533 C542 0.929 . S
C534 H528 0.930 . S
C534 C535 1.367 . S
C534 C542 1.378 . S
C535 C534 1.367 . S
C535 C543 1.433 . S
C536 H532 0.929 . S
C536 C538 1.378 . S
C536 C540 1.350 . S
C537 C540 1.463 . S
C537 C542 1.350 . S
C537 N545 1.427 . S
C538 H529 0.930 . S
C538 C536 1.378 . S
C538 C539 1.367 . S
C539 C538 1.367 . S
C539 C541 1.433 . S
C540 C536 1.350 . S
C540 C537 1.463 . S
C540 N544 1.427 . S
C541 H531 0.929 . S
C541 C539 1.433 . S
C541 N544 1.384 . S
C542 H533 0.929 . S
C542 C534 1.378 . S
C542 C537 1.350 . S
C543 H530 0.929 . S
C543 C535 1.433 . S
C543 N545 1.384 . S
N544 C540 1.427 . S
N544 C541 1.384 . S
N545 C537 1.427 . S
N545 C543 1.384 . S
H546 C552 0.930 . S
H547 C556 0.930 . S
H548 C561 0.929 . S
H549 C559 0.929 1_556 S
H550 C554 0.929 . S
H551 C560 0.929 . S
C552 H546 0.930 . S
C552 C553 1.367 . S
C552 C560 1.378 . S
C553 C552 1.367 . S
C553 C561 1.433 . S
C554 H550 0.929 . S
C554 C556 1.378 1_554 S
C554 C558 1.350 . S
C555 C558 1.463 . S
C555 C560 1.350 . S
C555 N563 1.427 . S
C556 H547 0.930 . S
C556 C554 1.378 1_556 S
C556 C557 1.367 . S
C557 C556 1.367 . S
C557 C559 1.433 1_556 S
C558 C554 1.350 . S
C558 C555 1.463 . S
C558 N562 1.427 . S
C559 H549 0.929 1_554 S
C559 C557 1.433 1_554 S
C559 N562 1.384 . S
C560 H551 0.929 . S
C560 C552 1.378 . S
C560 C555 1.350 . S
C561 H548 0.929 . S
C561 C553 1.433 . S
C561 N563 1.384 . S
N562 C558 1.427 . S
N562 C559 1.384 . S
N563 C555 1.427 . S
N563 C561 1.384 . S
C247 C204 2.505 . S
C251 C25 2.613 . S
C265 C31 3.369 . S
C269 C44 3.060 1_455 S
C283 C60 1.244 . S
C287 C111 1.227 . S
C301 C124 2.614 . S
C305 C105 2.513 . S
C319 C185 3.069 1_655 S
C323 C140 3.371 . S
C337 C191 1.241 . S
C341 C220 1.217 . S
C355 C180 2.185 1_556 S
C359 C4 2.119 . S
C373 C225 1.562 . S
C377 C65 1.539 . S
C391 C100 2.631 . S
C395 C20 2.588 . S
C409 C145 2.130 . S
C413 C71 2.188 . S
C427 C164 1.539 . S
C431 C84 1.564 . S
C445 C151 2.589 . S
C449 C231 2.630 . S
C463 C23 0.920 . S
C467 C2 0.920 . S
C481 C63 1.015 . S
C485 C42 1.015 . S
C499 C82 1.005 . S
C503 C103 1.005 . S
C517 C143 0.921 . S
C521 C122 0.921 . S
C535 C162 1.019 . S
C539 C183 1.019 . S
C553 C202 1.002 . S
C557 C223 1.002 . S
