# Generated by pormake.
# Topology wio, (6)-cn, num edge types: 1
# Building blocks:
#     Node 0, Type 0, BuildingBlock: PAMTUU_clean_sbu_0, # of connection points: 6
#     Node 1, Type 0, BuildingBlock: PAMTUU_clean_sbu_0, # of connection points: 6
#     Node 2, Type 0, BuildingBlock: PAMTUU_clean_sbu_0, # of connection points: 6
#     Node 3, Type 0, BuildingBlock: PAMTUU_clean_sbu_0, # of connection points: 6
#     Node 4, Type 0, BuildingBlock: PAMTUU_clean_sbu_0, # of connection points: 6
#     Node 5, Type 0, BuildingBlock: PAMTUU_clean_sbu_0, # of connection points: 6
#     Node 6, Type 0, BuildingBlock: PAMTUU_clean_sbu_0, # of connection points: 6
#     Node 7, Type 0, BuildingBlock: PAMTUU_clean_sbu_0, # of connection points: 6
#     Node 8, Type 0, BuildingBlock: PAMTUU_clean_sbu_0, # of connection points: 6
#     Node 9, Type 0, BuildingBlock: PAMTUU_clean_sbu_0, # of connection points: 6
#     Node 10, Type 0, BuildingBlock: PAMTUU_clean_sbu_0, # of connection points: 6
#     Node 11, Type 0, BuildingBlock: PAMTUU_clean_sbu_0, # of connection points: 6
#     Node 12, Type 0, BuildingBlock: PAMTUU_clean_sbu_0, # of connection points: 6
#     Node 13, Type 0, BuildingBlock: PAMTUU_clean_sbu_0, # of connection points: 6
#     Node 14, Type 0, BuildingBlock: PAMTUU_clean_sbu_0, # of connection points: 6
#     Node 15, Type 0, BuildingBlock: PAMTUU_clean_sbu_0, # of connection points: 6
#     Node 16, Type 0, BuildingBlock: PAMTUU_clean_sbu_0, # of connection points: 6
#     Node 17, Type 0, BuildingBlock: PAMTUU_clean_sbu_0, # of connection points: 6
#     Node 18, Type 0, BuildingBlock: PAMTUU_clean_sbu_0, # of connection points: 6
#     Node 19, Type 0, BuildingBlock: PAMTUU_clean_sbu_0, # of connection points: 6
#     Node 20, Type 0, BuildingBlock: PAMTUU_clean_sbu_0, # of connection points: 6
#     Node 21, Type 0, BuildingBlock: PAMTUU_clean_sbu_0, # of connection points: 6
#     Node 22, Type 0, BuildingBlock: PAMTUU_clean_sbu_0, # of connection points: 6
#     Node 23, Type 0, BuildingBlock: PAMTUU_clean_sbu_0, # of connection points: 6
#     Node 24, Type 0, BuildingBlock: PAMTUU_clean_sbu_0, # of connection points: 6
#     Node 25, Type 0, BuildingBlock: PAMTUU_clean_sbu_0, # of connection points: 6
#     Node 26, Type 0, BuildingBlock: PAMTUU_clean_sbu_0, # of connection points: 6
#     Node 27, Type 0, BuildingBlock: PAMTUU_clean_sbu_0, # of connection points: 6
#     Node 28, Type 0, BuildingBlock: PAMTUU_clean_sbu_0, # of connection points: 6
#     Node 29, Type 0, BuildingBlock: PAMTUU_clean_sbu_0, # of connection points: 6
#     Node 30, Type 0, BuildingBlock: PAMTUU_clean_sbu_0, # of connection points: 6
#     Node 31, Type 0, BuildingBlock: PAMTUU_clean_sbu_0, # of connection points: 6
#     Edge 32, Type (0, 0), BuildingBlock: OJICUG_clean_linker_0, # of connection points: 2
#     Edge 33, Type (0, 0), BuildingBlock: OJICUG_clean_linker_0, # of connection points: 2
#     Edge 34, Type (0, 0), BuildingBlock: OJICUG_clean_linker_0, # of connection points: 2
#     Edge 35, Type (0, 0), BuildingBlock: OJICUG_clean_linker_0, # of connection points: 2
#     Edge 36, Type (0, 0), BuildingBlock: OJICUG_clean_linker_0, # of connection points: 2
#     Edge 37, Type (0, 0), BuildingBlock: OJICUG_clean_linker_0, # of connection points: 2
#     Edge 38, Type (0, 0), BuildingBlock: OJICUG_clean_linker_0, # of connection points: 2
#     Edge 39, Type (0, 0), BuildingBlock: OJICUG_clean_linker_0, # of connection points: 2
#     Edge 40, Type (0, 0), BuildingBlock: OJICUG_clean_linker_0, # of connection points: 2
#     Edge 41, Type (0, 0), BuildingBlock: OJICUG_clean_linker_0, # of connection points: 2
#     Edge 42, Type (0, 0), BuildingBlock: OJICUG_clean_linker_0, # of connection points: 2
#     Edge 43, Type (0, 0), BuildingBlock: OJICUG_clean_linker_0, # of connection points: 2
#     Edge 44, Type (0, 0), BuildingBlock: OJICUG_clean_linker_0, # of connection points: 2
#     Edge 45, Type (0, 0), BuildingBlock: OJICUG_clean_linker_0, # of connection points: 2
#     Edge 46, Type (0, 0), BuildingBlock: OJICUG_clean_linker_0, # of connection points: 2
#     Edge 47, Type (0, 0), BuildingBlock: OJICUG_clean_linker_0, # of connection points: 2
#     Edge 48, Type (0, 0), BuildingBlock: OJICUG_clean_linker_0, # of connection points: 2
#     Edge 49, Type (0, 0), BuildingBlock: OJICUG_clean_linker_0, # of connection points: 2
#     Edge 50, Type (0, 0), BuildingBlock: OJICUG_clean_linker_0, # of connection points: 2
#     Edge 51, Type (0, 0), BuildingBlock: OJICUG_clean_linker_0, # of connection points: 2
#     Edge 52, Type (0, 0), BuildingBlock: OJICUG_clean_linker_0, # of connection points: 2
#     Edge 53, Type (0, 0), BuildingBlock: OJICUG_clean_linker_0, # of connection points: 2
#     Edge 54, Type (0, 0), BuildingBlock: OJICUG_clean_linker_0, # of connection points: 2
#     Edge 55, Type (0, 0), BuildingBlock: OJICUG_clean_linker_0, # of connection points: 2
#     Edge 56, Type (0, 0), BuildingBlock: OJICUG_clean_linker_0, # of connection points: 2
#     Edge 57, Type (0, 0), BuildingBlock: OJICUG_clean_linker_0, # of connection points: 2
#     Edge 58, Type (0, 0), BuildingBlock: OJICUG_clean_linker_0, # of connection points: 2
#     Edge 59, Type (0, 0), BuildingBlock: OJICUG_clean_linker_0, # of connection points: 2
#     Edge 60, Type (0, 0), BuildingBlock: OJICUG_clean_linker_0, # of connection points: 2
#     Edge 61, Type (0, 0), BuildingBlock: OJICUG_clean_linker_0, # of connection points: 2
#     Edge 62, Type (0, 0), BuildingBlock: OJICUG_clean_linker_0, # of connection points: 2
#     Edge 63, Type (0, 0), BuildingBlock: OJICUG_clean_linker_0, # of connection points: 2
#     Edge 64, Type (0, 0), BuildingBlock: OJICUG_clean_linker_0, # of connection points: 2
#     Edge 65, Type (0, 0), BuildingBlock: OJICUG_clean_linker_0, # of connection points: 2
#     Edge 66, Type (0, 0), BuildingBlock: OJICUG_clean_linker_0, # of connection points: 2
#     Edge 67, Type (0, 0), BuildingBlock: OJICUG_clean_linker_0, # of connection points: 2
#     Edge 68, Type (0, 0), BuildingBlock: OJICUG_clean_linker_0, # of connection points: 2
#     Edge 69, Type (0, 0), BuildingBlock: OJICUG_clean_linker_0, # of connection points: 2
#     Edge 70, Type (0, 0), BuildingBlock: OJICUG_clean_linker_0, # of connection points: 2
#     Edge 71, Type (0, 0), BuildingBlock: OJICUG_clean_linker_0, # of connection points: 2
#     Edge 72, Type (0, 0), BuildingBlock: OJICUG_clean_linker_0, # of connection points: 2
#     Edge 73, Type (0, 0), BuildingBlock: OJICUG_clean_linker_0, # of connection points: 2
#     Edge 74, Type (0, 0), BuildingBlock: OJICUG_clean_linker_0, # of connection points: 2
#     Edge 75, Type (0, 0), BuildingBlock: OJICUG_clean_linker_0, # of connection points: 2
#     Edge 76, Type (0, 0), BuildingBlock: OJICUG_clean_linker_0, # of connection points: 2
#     Edge 77, Type (0, 0), BuildingBlock: OJICUG_clean_linker_0, # of connection points: 2
#     Edge 78, Type (0, 0), BuildingBlock: OJICUG_clean_linker_0, # of connection points: 2
#     Edge 79, Type (0, 0), BuildingBlock: OJICUG_clean_linker_0, # of connection points: 2
#     Edge 80, Type (0, 0), BuildingBlock: OJICUG_clean_linker_0, # of connection points: 2
#     Edge 81, Type (0, 0), BuildingBlock: OJICUG_clean_linker_0, # of connection points: 2
#     Edge 82, Type (0, 0), BuildingBlock: OJICUG_clean_linker_0, # of connection points: 2
#     Edge 83, Type (0, 0), BuildingBlock: OJICUG_clean_linker_0, # of connection points: 2
#     Edge 84, Type (0, 0), BuildingBlock: OJICUG_clean_linker_0, # of connection points: 2
#     Edge 85, Type (0, 0), BuildingBlock: OJICUG_clean_linker_0, # of connection points: 2
#     Edge 86, Type (0, 0), BuildingBlock: OJICUG_clean_linker_0, # of connection points: 2
#     Edge 87, Type (0, 0), BuildingBlock: OJICUG_clean_linker_0, # of connection points: 2
#     Edge 88, Type (0, 0), BuildingBlock: OJICUG_clean_linker_0, # of connection points: 2
#     Edge 89, Type (0, 0), BuildingBlock: OJICUG_clean_linker_0, # of connection points: 2
#     Edge 90, Type (0, 0), BuildingBlock: OJICUG_clean_linker_0, # of connection points: 2
#     Edge 91, Type (0, 0), BuildingBlock: OJICUG_clean_linker_0, # of connection points: 2
#     Edge 92, Type (0, 0), BuildingBlock: OJICUG_clean_linker_0, # of connection points: 2
#     Edge 93, Type (0, 0), BuildingBlock: OJICUG_clean_linker_0, # of connection points: 2
#     Edge 94, Type (0, 0), BuildingBlock: OJICUG_clean_linker_0, # of connection points: 2
#     Edge 95, Type (0, 0), BuildingBlock: OJICUG_clean_linker_0, # of connection points: 2
#     Edge 96, Type (0, 0), BuildingBlock: OJICUG_clean_linker_0, # of connection points: 2
#     Edge 97, Type (0, 0), BuildingBlock: OJICUG_clean_linker_0, # of connection points: 2
#     Edge 98, Type (0, 0), BuildingBlock: OJICUG_clean_linker_0, # of connection points: 2
#     Edge 99, Type (0, 0), BuildingBlock: OJICUG_clean_linker_0, # of connection points: 2
#     Edge 100, Type (0, 0), BuildingBlock: OJICUG_clean_linker_0, # of connection points: 2
#     Edge 101, Type (0, 0), BuildingBlock: OJICUG_clean_linker_0, # of connection points: 2
#     Edge 102, Type (0, 0), BuildingBlock: OJICUG_clean_linker_0, # of connection points: 2
#     Edge 103, Type (0, 0), BuildingBlock: OJICUG_clean_linker_0, # of connection points: 2
#     Edge 104, Type (0, 0), BuildingBlock: OJICUG_clean_linker_0, # of connection points: 2
#     Edge 105, Type (0, 0), BuildingBlock: OJICUG_clean_linker_0, # of connection points: 2
#     Edge 106, Type (0, 0), BuildingBlock: OJICUG_clean_linker_0, # of connection points: 2
#     Edge 107, Type (0, 0), BuildingBlock: OJICUG_clean_linker_0, # of connection points: 2
#     Edge 108, Type (0, 0), BuildingBlock: OJICUG_clean_linker_0, # of connection points: 2
#     Edge 109, Type (0, 0), BuildingBlock: OJICUG_clean_linker_0, # of connection points: 2
#     Edge 110, Type (0, 0), BuildingBlock: OJICUG_clean_linker_0, # of connection points: 2
#     Edge 111, Type (0, 0), BuildingBlock: OJICUG_clean_linker_0, # of connection points: 2
#     Edge 112, Type (0, 0), BuildingBlock: OJICUG_clean_linker_0, # of connection points: 2
#     Edge 113, Type (0, 0), BuildingBlock: OJICUG_clean_linker_0, # of connection points: 2
#     Edge 114, Type (0, 0), BuildingBlock: OJICUG_clean_linker_0, # of connection points: 2
#     Edge 115, Type (0, 0), BuildingBlock: OJICUG_clean_linker_0, # of connection points: 2
#     Edge 116, Type (0, 0), BuildingBlock: OJICUG_clean_linker_0, # of connection points: 2
#     Edge 117, Type (0, 0), BuildingBlock: OJICUG_clean_linker_0, # of connection points: 2
#     Edge 118, Type (0, 0), BuildingBlock: OJICUG_clean_linker_0, # of connection points: 2
#     Edge 119, Type (0, 0), BuildingBlock: OJICUG_clean_linker_0, # of connection points: 2
#     Edge 120, Type (0, 0), BuildingBlock: OJICUG_clean_linker_0, # of connection points: 2
#     Edge 121, Type (0, 0), BuildingBlock: OJICUG_clean_linker_0, # of connection points: 2
#     Edge 122, Type (0, 0), BuildingBlock: OJICUG_clean_linker_0, # of connection points: 2
#     Edge 123, Type (0, 0), BuildingBlock: OJICUG_clean_linker_0, # of connection points: 2
#     Edge 124, Type (0, 0), BuildingBlock: OJICUG_clean_linker_0, # of connection points: 2
#     Edge 125, Type (0, 0), BuildingBlock: OJICUG_clean_linker_0, # of connection points: 2
#     Edge 126, Type (0, 0), BuildingBlock: OJICUG_clean_linker_0, # of connection points: 2
#     Edge 127, Type (0, 0), BuildingBlock: OJICUG_clean_linker_0, # of connection points: 2
# Relax obj value: 0.206
# Max RMSD: 0.252
# Mean RMSD: 0.252
data_MOF--net-wio--node1-PAMTUU_clean_sbu_0--edge1-OJICUG_clean_linker_0
_symmetry_space_group_name_H-M    P1
_symmetry_Int_Tables_number       1
_symmetry_cell_setting            triclinic
loop_
_symmetry_equiv_pos_as_xyz
'x, y, z'
_cell_length_a     49.602889
_cell_length_b     49.430252
_cell_length_c     41.457944
_cell_angle_alpha  90.043346
_cell_angle_beta   89.983609
_cell_angle_gamma 90.038638
loop_
_atom_site_label
_atom_site_type_symbol
_atom_site_fract_x
_atom_site_fract_y
_atom_site_fract_z
_atom_type_partial_charge
Tb0 Tb 0.08455 0.11156 0.30602 0.0
Tb1 Tb 0.151 0.11035 0.29861 0.0
C2 C 0.11658 0.05726 0.2899 0.0
C3 C 0.01574 0.11798 0.34189 0.0
C4 C 0.98105 0.12073 0.39613 0.0
C5 C 0.97256 0.10837 0.36724 0.0
C6 C 0.9897 0.10703 0.34048 0.0
C7 C 0.02431 0.13065 0.3705 0.0
C8 C 0.00705 0.13217 0.39731 0.0
C9 C 0.03391 0.11465 0.31389 0.0
O10 O 0.09887 0.10054 0.35408 0.0
O11 O 0.14297 0.08853 0.34272 0.0
O12 O 0.14192 0.13874 0.33687 0.0
O13 O 0.09975 0.1512 0.3209 0.0
O14 O 0.18831 0.09073 0.29415 0.0
O15 O 0.18595 0.13428 0.29632 0.0
O16 O 0.13517 0.13044 0.25584 0.0
O17 O 0.093 0.11173 0.25395 0.0
O18 O 0.0953 0.06908 0.30251 0.0
O19 O 0.13796 0.07098 0.28029 0.0
C20 C 0.12178 0.08863 0.3618 0.0
O21 O 0.04915 0.13511 0.30617 0.0
O22 O 0.04728 0.09207 0.31286 0.0
C23 C 0.12144 0.15534 0.33836 0.0
C24 C 0.22165 0.11567 0.26652 0.0
C25 C 0.26128 0.11922 0.21822 0.0
C26 C 0.26633 0.12952 0.2492 0.0
C27 C 0.24665 0.12765 0.27321 0.0
C28 C 0.21623 0.10601 0.2354 0.0
C29 C 0.23596 0.10767 0.21145 0.0
C30 C 0.20162 0.11343 0.29238 0.0
C31 C 0.11366 0.12329 0.23948 0.0
H32 H 0.95257 0.09971 0.36527 0.0
H33 H 0.9827 0.09712 0.31872 0.0
H34 H 0.04445 0.13903 0.37225 0.0
H35 H 0.01429 0.14166 0.41921 0.0
H36 H 0.28569 0.13841 0.25505 0.0
H37 H 0.25105 0.13533 0.29713 0.0
H38 H 0.19687 0.09701 0.22971 0.0
H39 H 0.23142 0.09995 0.1876 0.0
Tb40 Tb 0.13325 0.8376 0.55662 0.0
Tb41 Tb 0.13618 0.90401 0.54918 0.0
C42 C 0.18817 0.8682 0.54066 0.0
C43 C 0.12642 0.76993 0.59492 0.0
C44 C 0.12333 0.73607 0.64993 0.0
C45 C 0.1431 0.75643 0.64781 0.0
C46 C 0.14455 0.77327 0.62071 0.0
C47 C 0.10645 0.74989 0.59717 0.0
C48 C 0.10484 0.7332 0.62441 0.0
C49 C 0.12794 0.78718 0.56575 0.0
O50 O 0.14551 0.85162 0.60443 0.0
O51 O 0.15812 0.89572 0.59312 0.0
O52 O 0.10821 0.89553 0.58794 0.0
O53 O 0.09406 0.85439 0.57026 0.0
O54 O 0.15651 0.94096 0.54373 0.0
O55 O 0.11315 0.93961 0.54784 0.0
O56 O 0.11553 0.88859 0.50642 0.0
O57 O 0.13261 0.84561 0.50457 0.0
O58 O 0.17596 0.84722 0.55363 0.0
O59 O 0.17489 0.88976 0.53067 0.0
C60 C 0.15786 0.8744 0.6121 0.0
O61 O 0.10782 0.80356 0.56101 0.0
O62 O 0.15086 0.79903 0.55995 0.0
C63 C 0.09082 0.87568 0.58877 0.0
C64 C 0.13153 0.97477 0.51693 0.0
C65 C 0.12694 0.01411 0.46835 0.0
C66 C 0.11734 0.01944 0.49956 0.0
C67 C 0.11974 -0.0001 0.52372 0.0
C68 C 0.14049 0.96908 0.48558 0.0
C69 C 0.13832 0.98868 0.4615 0.0
C70 C 0.13417 0.95482 0.54285 0.0
C71 C 0.12169 0.86664 0.49014 0.0
H72 H 0.15745 0.7594 0.66719 0.0
H73 H 0.15997 0.78878 0.61989 0.0
H74 H 0.09218 0.74701 0.57768 0.0
H75 H 0.08954 0.71756 0.62512 0.0
H76 H 0.10859 0.0389 0.50546 0.0
H77 H 0.11258 0.00449 0.54781 0.0
H78 H 0.1493 0.94962 0.47981 0.0
H79 H 0.14551 0.98395 0.43747 0.0
Tb80 Tb 0.40955 0.88519 0.80621 0.0
Tb81 Tb 0.34313 0.88642 0.79873 0.0
C82 C 0.37759 0.93938 0.78958 0.0
C83 C 0.47838 0.8788 0.84188 0.0
C84 C 0.51315 0.87646 0.89599 0.0
C85 C 0.52211 0.88718 0.8664 0.0
C86 C 0.50492 0.88832 0.8397 0.0
C87 C 0.46934 0.86768 0.87116 0.0
C88 C 0.48664 0.86636 0.89794 0.0
C89 C 0.46019 0.88213 0.81396 0.0
O90 O 0.39519 0.89629 0.85423 0.0
O91 O 0.35118 0.90846 0.84273 0.0
O92 O 0.35215 0.85813 0.83705 0.0
O93 O 0.39431 0.84558 0.82111 0.0
O94 O 0.30582 0.90604 0.79433 0.0
O95 O 0.30819 0.86249 0.79628 0.0
O96 O 0.35903 0.86617 0.75603 0.0
O97 O 0.40118 0.88491 0.75417 0.0
O98 O 0.39882 0.92765 0.80242 0.0
O99 O 0.35624 0.92561 0.78002 0.0
C100 C 0.37233 0.90833 0.86187 0.0
O101 O 0.44495 0.86164 0.80628 0.0
O102 O 0.44679 0.90468 0.81307 0.0
C103 C 0.3726 0.84149 0.83856 0.0
C104 C 0.27258 0.88116 0.76646 0.0
C105 C 0.23316 0.87765 0.71793 0.0
C106 C 0.22787 0.86758 0.74895 0.0
C107 C 0.24745 0.86943 0.77307 0.0
C108 C 0.27823 0.89061 0.73531 0.0
C109 C 0.2586 0.88896 0.71125 0.0
C110 C 0.29252 0.88335 0.7924 0.0
C111 C 0.38056 0.87328 0.73971 0.0
H112 H 0.5425 0.89475 0.86387 0.0
H113 H 0.51228 0.89703 0.81739 0.0
H114 H 0.44881 0.86042 0.87346 0.0
H115 H 0.47905 0.85815 0.92039 0.0
H116 H 0.20842 0.85888 0.75474 0.0
H117 H 0.24288 0.86192 0.79701 0.0
H118 H 0.29768 0.89941 0.72969 0.0
H119 H 0.26332 0.8965 0.68737 0.0
Tb120 Tb 0.36094 0.15932 0.05696 0.0
Tb121 Tb 0.35844 0.09284 0.04965 0.0
C122 C 0.30626 0.12828 1.04089 0.0
C123 C 0.36768 0.22711 0.09522 0.0
C124 C 0.37111 0.26123 0.15006 0.0
C125 C 0.38949 0.26394 0.12439 0.0
C126 C 0.38771 0.24712 0.09723 0.0
C127 C 0.34967 0.22394 0.12117 0.0
C128 C 0.3513 0.2409 0.14819 0.0
C129 C 0.36589 0.20979 0.06607 0.0
O130 O 0.34903 0.14528 0.10486 0.0
O131 O 0.33647 0.10116 0.09359 0.0
O132 O 0.38653 0.10163 0.0882 0.0
O133 O 0.40031 0.14282 0.07033 0.0
O134 O 0.33831 0.05572 1.0447 0.0
O135 O 0.38171 0.05741 0.04795 0.0
O136 O 0.37884 0.10832 1.00679 0.0
O137 O 0.36143 0.15117 1.0049 0.0
O138 O 0.31831 0.14936 0.0539 0.0
O139 O 0.3197 0.10679 1.03097 0.0
C140 C 0.33674 0.1225 0.11258 0.0
O141 O 0.3861 0.19362 0.06082 0.0
O142 O 0.34301 0.19771 0.06076 0.0
C143 C 0.40381 0.12158 0.08881 0.0
C144 C 0.36316 0.02208 1.01742 0.0
C145 C 0.36743 0.9828 0.96866 0.0
C146 C 0.37688 0.97729 0.99988 0.0
C147 C 0.37464 0.9968 1.02413 0.0
C148 C 0.35433 0.02793 0.98609 0.0
C149 C 0.35634 0.00837 0.96191 0.0
C150 C 0.36074 0.04203 1.04341 0.0
C151 C 0.37242 0.13014 0.99046 0.0
H152 H 0.40482 0.27954 0.1249 0.0
H153 H 0.40188 0.2499 0.07761 0.0
H154 H 0.33421 0.20847 0.12055 0.0
H155 H 0.33703 0.23806 0.16768 0.0
H156 H 0.3854 0.95772 1.0057 0.0
H157 H 0.3817 0.99208 0.04821 0.0
H158 H 0.34576 0.04752 0.9804 0.0
H159 H 0.34928 0.01325 0.93788 0.0
Tb160 Tb 0.08462 0.88562 0.28319 0.0
Tb161 Tb 0.15103 0.88693 0.29071 0.0
C162 C 0.1166 0.94 0.2991 0.0
C163 C 0.01573 0.87944 0.24756 0.0
C164 C 0.98086 0.87717 0.19352 0.0
C165 C 0.97223 0.88861 0.22288 0.0
C166 C 0.98947 0.88971 0.24954 0.0
C167 C 0.02446 0.86769 0.21848 0.0
C168 C 0.00711 0.86641 0.19175 0.0
C169 C 0.03397 0.88252 0.2755 0.0
O170 O 0.09894 0.89663 0.23512 0.0
O171 O 0.14307 0.90859 0.24647 0.0
O172 O 0.14206 0.85847 0.25247 0.0
O173 O 0.09981 0.846 0.26823 0.0
O174 O 0.1883 0.90665 0.2953 0.0
O175 O 0.18601 0.8631 0.293 0.0
O176 O 0.13515 0.86684 0.33351 0.0
O177 O 0.09297 0.88545 0.33524 0.0
O178 O 0.09538 0.92811 0.28641 0.0
O179 O 0.13793 0.92632 0.30887 0.0
C180 C 0.12189 0.90847 0.22737 0.0
O181 O 0.04924 0.86199 0.2828 0.0
O182 O 0.04733 0.9051 0.27678 0.0
C183 C 0.12156 0.84187 0.25085 0.0
C184 C 0.2216 0.88173 0.32294 0.0
C185 C 0.26105 0.87804 0.3714 0.0
C186 C 0.26626 0.86799 0.34034 0.0
C187 C 0.24668 0.86993 0.31625 0.0
C188 C 0.21603 0.89118 0.35412 0.0
C189 C 0.23567 0.88945 0.37814 0.0
C190 C 0.20164 0.88399 0.29703 0.0
C191 C 0.11357 0.8739 0.34977 0.0
H192 H 0.95206 0.89673 0.22528 0.0
H193 H 0.98236 0.89892 0.2717 0.0
H194 H 0.04478 0.85985 0.2163 0.0
H195 H 0.01446 0.85764 0.16947 0.0
H196 H 0.28567 0.85922 0.3345 0.0
H197 H 0.25119 0.86242 0.29229 0.0
H198 H 0.19662 0.90004 0.3598 0.0
H199 H 0.23101 0.89698 0.40205 0.0
Tb200 Tb 0.35965 0.83708 0.53301 0.0
Tb201 Tb 0.35729 0.90364 0.54082 0.0
C202 C 0.30507 0.86796 0.54953 0.0
C203 C 0.36696 0.7683 0.49688 0.0
C204 C 0.36948 0.73378 0.44241 0.0
C205 C 0.35781 0.72491 0.47151 0.0
C206 C 0.35659 0.74197 0.49839 0.0
C207 C 0.37896 0.77726 0.46806 0.0
C208 C 0.38037 0.76008 0.44112 0.0
C209 C 0.36376 0.78637 0.52503 0.0
O210 O 0.3483 0.85139 0.48507 0.0
O211 O 0.33531 0.89526 0.4969 0.0
O212 O 0.3857 0.89528 0.50233 0.0
O213 O 0.39881 0.85312 0.51809 0.0
O214 O 0.33636 0.94024 0.54759 0.0
O215 O 0.37954 0.93968 0.54129 0.0
O216 O 0.37832 0.88809 0.58312 0.0
O217 O 0.36026 0.84551 0.58503 0.0
O218 O 0.31707 0.84689 0.53654 0.0
O219 O 0.31855 0.88943 0.55942 0.0
C220 C 0.33585 0.87412 0.4776 0.0
O221 O 0.38394 0.80214 0.53218 0.0
O222 O 0.34097 0.79922 0.52676 0.0
C223 C 0.40253 0.87496 0.50064 0.0
C224 C 0.36125 0.9751 0.57265 0.0
C225 C 0.36705 0.01614 0.61925 0.0
C226 C 0.34994 0.01984 0.59261 0.0
C227 C 0.34716 -0.00049 0.56947 0.0
C228 C 0.37824 0.97119 0.59932 0.0
C229 C 0.38121 0.99164 0.62238 0.0
C230 C 0.35843 0.95451 0.54732 0.0
C231 C 0.37181 0.86627 0.59941 0.0
H232 H 0.34958 0.70467 0.47352 0.0
H233 H 0.3472 0.73467 0.52033 0.0
H234 H 0.38689 0.79764 0.46625 0.0
H235 H 0.38933 0.76759 0.41904 0.0
H236 H 0.33888 0.03855 0.58955 0.0
H237 H 0.33404 0.00288 0.54896 0.0
H238 H 0.38921 0.95241 0.60231 0.0
H239 H 0.39419 0.9881 0.64296 0.0
Tb240 Tb 0.41023 0.11107 0.78396 0.0
Tb241 Tb 0.34357 0.11008 0.78995 0.0
C242 C 0.37769 0.05671 0.79802 0.0
C243 C 0.47928 0.1179 0.74946 0.0
C244 C 0.51406 0.12117 0.69542 0.0
C245 C 0.52277 0.10928 0.72446 0.0
C246 C 0.50557 0.10768 0.75113 0.0
C247 C 0.47051 0.13018 0.72073 0.0
C248 C 0.48782 0.13196 0.694 0.0
C249 C 0.46096 0.11409 0.7772 0.0
O250 O 0.39669 0.10079 0.73548 0.0
O251 O 0.35197 0.08959 0.74484 0.0
O252 O 0.35301 0.13954 0.75301 0.0
O253 O 0.39559 0.15087 0.76912 0.0
O254 O 0.30616 0.09042 0.7936 0.0
O255 O 0.30864 0.13397 0.79248 0.0
O256 O 0.359 0.12948 0.83354 0.0
O257 O 0.40114 0.11076 0.83578 0.0
O258 O 0.39921 0.06861 0.78613 0.0
O259 O 0.35624 0.07037 0.80747 0.0
C260 C 0.37368 0.08969 0.72657 0.0
O261 O 0.44573 0.13447 0.78526 0.0
O262 O 0.44748 0.09155 0.77741 0.0
C263 C 0.37386 0.15573 0.75198 0.0
C264 C 0.2729 0.11502 0.82186 0.0
C265 C 0.23357 0.11856 0.87058 0.0
C266 C 0.22835 0.12888 0.83967 0.0
C267 C 0.24787 0.12702 0.81546 0.0
C268 C 0.27847 0.10525 0.85288 0.0
C269 C 0.25889 0.1069 0.87703 0.0
C270 C 0.2929 0.11309 0.79591 0.0
C271 C 0.3804 0.12229 0.85006 0.0
H272 H 0.54295 0.10111 0.72657 0.0
H273 H 0.51271 0.09807 0.77301 0.0
H274 H 0.45016 0.13798 0.71879 0.0
H275 H 0.48043 0.14107 0.67197 0.0
H276 H 0.209 0.13784 0.83404 0.0
H277 H 0.24336 0.1348 0.79163 0.0
H278 H 0.29785 0.09625 0.85837 0.0
H279 H 0.26358 0.09916 0.90081 0.0
Tb280 Tb 0.13478 0.1592 1.03274 0.0
Tb281 Tb 0.13686 0.0927 1.03981 0.0
C282 C 0.18929 0.12802 0.04879 0.0
C283 C 0.12804 0.22694 0.99465 0.0
C284 C 0.12425 0.2609 0.9398 0.0
C285 C 0.14403 0.24055 0.94148 0.0
C286 C 0.14583 0.22367 0.9685 0.0
C287 C 0.10803 0.24695 0.99283 0.0
C288 C 0.10607 0.26369 0.96567 0.0
C289 C 0.13 0.20967 1.02378 0.0
O290 O 0.14648 0.14512 0.98474 0.0
O291 O 0.15885 0.10097 0.99588 0.0
O292 O 0.1085 0.10155 1.00154 0.0
O293 O 0.09531 0.14292 1.01958 0.0
O294 O 0.15683 0.05552 1.04469 0.0
O295 O 0.11345 0.05733 1.04135 0.0
O296 O 0.11664 0.10816 0.08286 0.0
O297 O 0.13405 0.15107 0.08477 0.0
O298 O 0.17733 0.1492 1.03601 0.0
O299 O 0.17579 0.10644 0.05837 0.0
C300 C 0.15867 0.1223 0.97695 0.0
O301 O 0.10976 0.19358 1.02926 0.0
O302 O 0.15287 0.19752 1.02879 0.0
C303 C 0.09145 0.12168 1.00117 0.0
C304 C 0.1318 0.02194 0.07184 0.0
C305 C 0.12726 0.98267 0.12052 0.0
C306 C 0.11767 0.97727 0.08932 0.0
C307 C 0.12004 0.99677 0.06512 0.0
C308 C 0.14077 0.0277 0.10316 0.0
C309 C 0.13863 0.00814 0.1273 0.0
C310 C 0.13435 0.04189 0.04591 0.0
C311 C 0.12291 0.13009 0.09915 0.0
H312 H 0.15813 0.23765 0.92183 0.0
H313 H 0.16126 0.20819 0.96897 0.0
H314 H 0.09402 0.24978 1.0126 0.0
H315 H 0.09077 0.27931 0.9653 0.0
H316 H 0.10893 0.95778 0.08349 0.0
H317 H 0.11287 0.99213 1.04105 0.0
H318 H 0.14956 0.0472 0.10888 0.0
H319 H 0.14581 0.01293 0.15131 0.0
Tb320 Tb 0.84405 0.88785 0.79064 0.0
Tb321 Tb 0.91073 0.88671 0.78426 0.0
C322 C 0.87402 0.84254 0.75183 0.0
C323 C 0.7734 0.88267 0.82278 0.0
C324 C 0.734 0.87872 0.87141 0.0
C325 C 0.72886 0.86853 0.84039 0.0
C326 C 0.74841 0.8706 0.81624 0.0
C327 C 0.7789 0.89229 0.85391 0.0
C328 C 0.75929 0.89043 0.87801 0.0
C329 C 0.79339 0.88488 0.79683 0.0
O330 O 0.85964 0.86778 0.83362 0.0
O331 O 0.90179 0.88651 0.83611 0.0
O332 O 0.9 0.92916 0.78769 0.0
O333 O 0.85707 0.92714 0.80918 0.0
O334 O 0.94616 0.8632 0.78499 0.0
O335 O 0.94802 0.90615 0.77753 0.0
O336 O 0.89695 0.89749 0.73606 0.0
O337 O 0.8524 0.909 0.74599 0.0
O338 O 0.8533 0.85885 0.75309 0.0
O339 O 0.89576 0.84709 0.76908 0.0
C340 C 0.88103 0.87488 0.85025 0.0
O341 O 0.80673 0.90755 0.7949 0.0
O342 O 0.80905 0.86401 0.79294 0.0
C343 C 0.87858 0.94088 0.80008 0.0
C344 C 0.97948 0.87989 0.74897 0.0
C345 C 0.01384 0.87708 0.69448 0.0
C346 C 0.02303 0.88802 0.72387 0.0
C347 C 0.00604 0.88939 0.75076 0.0
C348 C 0.97022 0.86852 0.7199 0.0
C349 C 0.98731 0.86697 0.69294 0.0
C350 C 0.9614 0.88358 0.77696 0.0
C351 C 0.874 0.9089 0.72754 0.0
H352 H 0.70953 0.85954 0.83463 0.0
H353 H 0.74394 0.86293 0.79233 0.0
H354 H 0.79824 0.90135 0.85951 0.0
H355 H 0.76393 0.89809 0.90187 0.0
H356 H 0.04343 0.89561 0.72609 0.0
H357 H 0.01356 0.8983 0.77289 0.0
H358 H 0.94966 0.86129 0.71788 0.0
H359 H 0.97954 0.85859 0.67066 0.0
Tb360 Tb 0.85782 0.09404 0.54087 0.0
Tb361 Tb 0.85996 0.1606 0.5332 0.0
C362 C 0.90316 0.12292 0.50098 0.0
C363 C 0.86182 0.02278 0.57299 0.0
C364 C 0.86739 0.98207 0.61995 0.0
C365 C 0.85 0.97839 0.59357 0.0
C366 C 0.84733 0.99855 0.57024 0.0
C367 C 0.8791 0.02668 0.59941 0.0
C368 C 0.88196 0.0064 0.62264 0.0
C369 C 0.85908 0.04321 0.54749 0.0
O370 O 0.87848 0.10976 0.5834 0.0
O371 O 0.86004 0.15213 0.58522 0.0
O372 O 0.81741 0.15049 0.53595 0.0
O373 O 0.81884 0.10803 0.55893 0.0
O374 O 0.88411 0.19569 0.5329 0.0
O375 O 0.84119 0.19836 0.52679 0.0
O376 O 0.84896 0.14629 0.48512 0.0
O377 O 0.83627 0.10226 0.49661 0.0
O378 O 0.88647 0.10245 0.50269 0.0
O379 O 0.89924 0.14482 0.5183 0.0
C380 C 0.87161 0.13147 0.5997 0.0
O381 O 0.83696 0.05737 0.5475 0.0
O382 O 0.88018 0.05811 0.54155 0.0
C383 C 0.80536 0.12937 0.54874 0.0
C384 C 0.86737 0.22958 0.49757 0.0
C385 C 0.87031 0.2644 0.44346 0.0
C386 C 0.85834 0.27308 0.47248 0.0
C387 C 0.85691 0.25587 0.49919 0.0
C388 C 0.87969 0.22083 0.46884 0.0
C389 C 0.8813 0.23817 0.44208 0.0
C390 C 0.86394 0.21136 0.52552 0.0
C391 C 0.83678 0.12343 0.47741 0.0
H392 H 0.83863 0.95981 0.59085 0.0
H393 H 0.83398 0.99518 0.54993 0.0
H394 H 0.89037 0.04533 0.60208 0.0
H395 H 0.89517 0.00992 0.64302 0.0
H396 H 0.85002 0.29326 0.47456 0.0
H397 H 0.84729 0.26301 0.52106 0.0
H398 H 0.88769 0.2005 0.46695 0.0
H399 H 0.89048 0.2308 0.42006 0.0
Tb400 Tb 0.65166 0.11048 0.29089 0.0
Tb401 Tb 0.58525 0.11202 0.28345 0.0
C402 C 0.62235 0.15566 0.25128 0.0
C403 C 0.72234 0.11554 0.32298 0.0
C404 C 0.762 0.11922 0.37123 0.0
C405 C 0.76687 0.12981 0.34037 0.0
C406 C 0.74719 0.12788 0.31638 0.0
C407 C 0.7171 0.10553 0.35399 0.0
C408 C 0.73684 0.10726 0.3779 0.0
C409 C 0.70229 0.11329 0.29715 0.0
O410 O 0.63592 0.13062 0.33376 0.0
O411 O 0.59359 0.11226 0.33551 0.0
O412 O 0.59576 0.06948 0.28676 0.0
O413 O 0.63839 0.07115 0.30906 0.0
O414 O 0.55005 0.13586 0.28291 0.0
O415 O 0.54782 0.09275 0.27705 0.0
O416 O 0.59951 0.10092 0.23538 0.0
O417 O 0.64356 0.08873 0.24671 0.0
O418 O 0.64274 0.13894 0.25269 0.0
O419 O 0.60067 0.15162 0.2688 0.0
C420 C 0.61428 0.12371 0.35003 0.0
O421 O 0.68885 0.09067 0.29543 0.0
O422 O 0.68674 0.13423 0.29313 0.0
C423 C 0.61697 0.05754 0.29938 0.0
C424 C 0.51651 0.11851 0.2476 0.0
C425 C 0.48182 0.12072 0.19339 0.0
C426 C 0.47289 0.10986 0.22292 0.0
C427 C 0.49003 0.10879 0.24967 0.0
C428 C 0.52553 0.12974 0.21836 0.0
C429 C 0.50827 0.13099 0.19154 0.0
C430 C 0.53463 0.11541 0.27563 0.0
C431 C 0.62238 0.08892 0.22763 0.0
H432 H 0.7861 0.13902 0.33459 0.0
H433 H 0.75145 0.13581 0.29256 0.0
H434 H 0.69787 0.09625 0.35962 0.0
H435 H 0.73243 0.09931 0.40167 0.0
H436 H 0.45255 0.10214 0.22539 0.0
H437 H 0.48269 0.1 0.27194 0.0
H438 H 0.54601 0.13716 0.21613 0.0
H439 H 0.51584 0.13931 0.16914 0.0
Tb440 Tb 0.63638 0.90414 1.04006 0.0
Tb441 Tb 0.63379 0.83771 1.03256 0.0
C442 C 0.59112 0.87554 1.00063 0.0
C443 C 0.63153 0.97491 0.07237 0.0
C444 C 0.62715 0.01429 0.12101 0.0
C445 C 0.61752 0.01963 0.08983 0.0
C446 C 0.61981 8e-05 0.06564 0.0
C447 C 0.64051 0.96921 0.10369 0.0
C448 C 0.63845 0.98882 0.1278 0.0
C449 C 0.63409 0.95495 0.04641 0.0
O450 O 0.61581 0.88868 0.08285 0.0
O451 O 0.63299 0.84573 0.08466 0.0
O452 O 0.67641 0.84752 1.03584 0.0
O453 O 0.67508 0.8901 0.05877 0.0
O454 O 0.60853 0.80355 1.02808 0.0
O455 O 0.65158 0.79923 1.02916 0.0
O456 O 0.64617 0.8518 0.98478 0.0
O457 O 0.65853 0.89595 0.99622 0.0
O458 O 0.60847 0.89543 1.00129 0.0
O459 O 0.59449 0.85433 1.01916 0.0
C460 C 0.62199 0.86675 0.09911 0.0
O461 O 0.65651 0.94123 0.0453 0.0
O462 O 0.61313 0.9396 1.04164 0.0
C463 C 0.68848 0.86856 0.04888 0.0
C464 C 0.62728 0.76986 0.99427 0.0
C465 C 0.62426 0.73573 0.93942 0.0
C466 C 0.60556 0.73318 0.96478 0.0
C467 C 0.60714 0.75 0.99194 0.0
C468 C 0.64565 0.77285 0.96865 0.0
C469 C 0.64423 0.75588 0.94163 0.0
C470 C 0.62873 0.78726 1.02337 0.0
C471 C 0.65847 0.87463 0.9772 0.0
H472 H 0.60883 0.03912 0.08398 0.0
H473 H 0.61263 0.00468 1.04158 0.0
H474 H 0.64928 0.94972 0.10941 0.0
H475 H 0.64566 0.98407 0.1518 0.0
H476 H 0.5901 0.71771 0.96401 0.0
H477 H 0.59269 0.74737 1.0113 0.0
H478 H 0.66122 0.78822 0.96952 0.0
H479 H 0.65875 0.75859 0.92237 0.0
Tb480 Tb 0.84276 0.11027 0.79964 0.0
Tb481 Tb 0.90915 0.11345 0.80646 0.0
C482 C 0.87118 0.15652 0.83772 0.0
C483 C 0.77219 0.11419 0.7673 0.0
C484 C 0.73304 0.11839 0.71851 0.0
C485 C 0.72757 0.12797 0.74972 0.0
C486 C 0.747 0.12578 0.77396 0.0
C487 C 0.778 0.10517 0.736 0.0
C488 C 0.75851 0.10714 0.71182 0.0
C489 C 0.79211 0.11201 0.79328 0.0
O490 O 0.85795 0.13061 0.75652 0.0
O491 O 0.90086 0.11361 0.75449 0.0
O492 O 0.89931 0.07058 0.80524 0.0
O493 O 0.8572 0.0714 0.7816 0.0
O494 O 0.94281 0.13906 0.81237 0.0
O495 O 0.94786 0.09609 0.80789 0.0
O496 O 0.89565 0.10142 0.85445 0.0
O497 O 0.8511 0.08966 0.84466 0.0
O498 O 0.85142 0.13905 0.83751 0.0
O499 O 0.89229 0.15299 0.81911 0.0
C500 C 0.87973 0.1243 0.74011 0.0
O501 O 0.80598 0.08964 0.79471 0.0
O502 O 0.80722 0.13323 0.79775 0.0
C503 C 0.87851 0.05817 0.79221 0.0
C504 C 0.97708 0.11924 0.84421 0.0
C505 C 0.01128 0.12071 0.89902 0.0
C506 C 0.01257 0.14114 0.87544 0.0
C507 C 0.99572 0.14035 0.84831 0.0
C508 C 0.9754 0.09903 0.868 0.0
C509 C 0.99239 0.0997 0.895 0.0
C510 C 0.95945 0.11889 0.8153 0.0
C511 C 0.87273 0.08993 0.86307 0.0
H512 H 0.70809 0.13659 0.75553 0.0
H513 H 0.74231 0.13299 0.79801 0.0
H514 H 0.7975 0.09652 0.73033 0.0
H515 H 0.76337 0.09997 0.68781 0.0
H516 H 0.02705 0.15745 0.87756 0.0
H517 H -0.00264 0.15621 0.83039 0.0
H518 H 0.961 0.08265 0.86577 0.0
H519 H 0.99065 0.0838 0.91285 0.0
Tb520 Tb 0.63585 0.09377 0.54944 0.0
Tb521 Tb 0.63435 0.16032 0.55686 0.0
C522 C 0.59133 0.12314 0.59 0.0
C523 C 0.63035 0.02302 0.5172 0.0
C524 C 0.62619 0.98359 0.46856 0.0
C525 C 0.61641 0.97827 0.49969 0.0
C526 C 0.61859 0.99784 0.52388 0.0
C527 C 0.63951 0.0287 0.48594 0.0
C528 C 0.63755 0.00907 0.46183 0.0
C529 C 0.63288 0.04297 0.54318 0.0
O530 O 0.61548 0.10951 0.50677 0.0
O531 O 0.63394 0.15188 0.50484 0.0
O532 O 0.67671 0.15008 0.55212 0.0
O533 O 0.67492 0.10694 0.53073 0.0
O534 O 0.61067 0.19569 0.55591 0.0
O535 O 0.65334 0.19779 0.56448 0.0
O536 O 0.64602 0.14607 0.60475 0.0
O537 O 0.65824 0.10196 0.59309 0.0
O538 O 0.60799 0.10269 0.58824 0.0
O539 O 0.59512 0.14488 0.57242 0.0
C540 C 0.62235 0.13118 0.49042 0.0
O541 O 0.65547 0.0564 0.54459 0.0
O542 O 0.6121 0.05861 0.5476 0.0
C543 C 0.6885 0.12866 0.53969 0.0
C544 C 0.62656 0.2293 0.59224 0.0
C545 C 0.62302 0.26384 0.64654 0.0
C546 C 0.63496 0.2728 0.61764 0.0
C547 C 0.63669 0.25572 0.59083 0.0
C548 C 0.61416 0.22029 0.62079 0.0
C549 C 0.61223 0.2375 0.64766 0.0
C550 C 0.63077 0.21109 0.56444 0.0
C551 C 0.65825 0.12321 0.6122 0.0
H552 H 0.60768 0.95878 0.50551 0.0
H553 H 0.6113 0.99325 0.5479 0.0
H554 H 0.64833 0.04819 0.48027 0.0
H555 H 0.64487 0.01381 0.43787 0.0
H556 H 0.64311 0.29307 0.61579 0.0
H557 H 0.64639 0.26303 0.5691 0.0
H558 H 0.60643 0.19983 0.62249 0.0
H559 H 0.60307 0.22994 0.6696 0.0
Tb560 Tb 0.65081 0.88715 0.29874 0.0
Tb561 Tb 0.58436 0.88594 0.30611 0.0
C562 C 0.62118 0.84212 0.33839 0.0
C563 C 0.72146 0.88183 0.26668 0.0
C564 C 0.76105 0.8782 0.21833 0.0
C565 C 0.7661 0.86794 0.24931 0.0
C566 C 0.74645 0.86986 0.27334 0.0
C567 C 0.71604 0.89148 0.23557 0.0
C568 C 0.73575 0.88978 0.2116 0.0
C569 C 0.70143 0.88408 0.29255 0.0
O570 O 0.635 0.86711 0.25583 0.0
O571 O 0.59278 0.88565 0.25403 0.0
O572 O 0.59519 0.92843 0.3027 0.0
O573 O 0.63783 0.9265 0.28045 0.0
O574 O 0.54892 0.86241 0.30633 0.0
O575 O 0.54712 0.90547 0.31282 0.0
O576 O 0.59866 0.89694 0.35419 0.0
O577 O 0.64276 0.90901 0.34289 0.0
O578 O 0.64168 0.85873 0.33693 0.0
O579 O 0.59948 0.84629 0.32097 0.0
C580 C 0.61344 0.87413 0.23953 0.0
O581 O 0.68815 0.90677 0.29437 0.0
O582 O 0.68573 0.86322 0.29644 0.0
C583 C 0.61649 0.94024 0.2901 0.0
C584 C 0.51547 0.8797 0.34187 0.0
C585 C 0.4806 0.87712 0.39595 0.0
C586 C 0.47201 0.88883 0.36676 0.0
C587 C 0.48924 0.89008 0.34007 0.0
C588 C 0.52416 0.86768 0.37079 0.0
C589 C 0.50682 0.86625 0.39754 0.0
C590 C 0.5337 0.88292 0.31391 0.0
C591 C 0.62156 0.9089 0.36195 0.0
H592 H 0.78545 0.85904 0.25513 0.0
H593 H 0.75085 0.86219 0.29725 0.0
H594 H 0.6967 0.90047 0.2299 0.0
H595 H 0.7312 0.89746 0.18775 0.0
H596 H 0.45186 0.89703 0.36448 0.0
H597 H 0.48215 0.89949 0.31806 0.0
H598 H 0.54445 0.85976 0.37283 0.0
H599 H 0.51414 0.85728 0.41968 0.0
Tb600 Tb 0.85745 0.90421 0.04918 0.0
Tb601 Tb 0.85991 0.83762 0.05665 0.0
C602 C 0.90275 0.87552 0.08904 0.0
C603 C 0.8612 0.97557 1.01729 0.0
C604 C 0.86662 0.01639 0.97041 0.0
C605 C 0.88117 0.99209 0.96756 0.0
C606 C 0.87839 0.97175 0.99076 0.0
C607 C 0.84673 -0.00022 1.02019 0.0
C608 C 0.84933 0.02 0.99691 0.0
C609 C 0.85852 0.95507 1.04273 0.0
O610 O 0.87859 0.8887 1.00692 0.0
O611 O 0.86039 0.84621 1.00466 0.0
O612 O 0.81734 0.8474 0.05317 0.0
O613 O 0.81882 0.88994 1.03037 0.0
O614 O 0.88431 0.80275 0.05717 0.0
O615 O 0.84138 0.79969 0.06288 0.0
O616 O 0.84855 0.85182 0.10467 0.0
O617 O 0.83549 0.89571 0.09308 0.0
O618 O 0.88585 0.8958 0.0876 0.0
O619 O 0.89907 0.85378 0.07138 0.0
C620 C 0.87199 0.867 0.99044 0.0
O621 O 0.83645 0.94079 1.04265 0.0
O622 O 0.87966 0.94027 0.04865 0.0
C623 C 0.80535 0.86846 1.04022 0.0
C624 C 0.86759 0.76872 0.09237 0.0
C625 C 0.8705 0.73397 0.14655 0.0
C626 C 0.8585 0.72526 0.11756 0.0
C627 C 0.8571 0.74244 0.09082 0.0
C628 C 0.87993 0.77751 0.12108 0.0
C629 C 0.88153 0.76021 0.14788 0.0
C630 C 0.86421 0.7869 0.06437 0.0
C631 C 0.83606 0.87453 0.11226 0.0
H632 H 0.89431 0.98862 0.9471 0.0
H633 H 0.88965 0.95312 0.98797 0.0
H634 H 0.83346 0.0031 1.04058 0.0
H635 H 0.83797 0.03856 0.99975 0.0
H636 H 0.85016 0.70508 0.11552 0.0
H637 H 0.84746 0.73527 0.06897 0.0
H638 H 0.88797 0.79784 0.12293 0.0
H639 H 0.89073 0.76759 0.16988 0.0
Tb640 Tb 0.58426 0.61145 0.80577 0.0
Tb641 Tb 0.65076 0.60961 0.79835 0.0
C642 C 0.61558 0.557 0.78972 0.0
C643 C 0.51544 0.61851 0.84137 0.0
C644 C 0.48066 0.62137 0.89546 0.0
C645 C 0.47203 0.60945 0.86638 0.0
C646 C 0.48922 0.60807 0.83968 0.0
C647 C 0.52415 0.63078 0.87017 0.0
C648 C 0.50684 0.63235 0.89692 0.0
C649 C 0.53365 0.61513 0.81342 0.0
O650 O 0.59851 0.60075 0.85395 0.0
O651 O 0.64238 0.58799 0.84253 0.0
O652 O 0.64215 0.63873 0.83607 0.0
O653 O 0.59984 0.65099 0.82012 0.0
O654 O 0.6874 0.58871 0.79244 0.0
O655 O 0.68652 0.63217 0.79731 0.0
O656 O 0.63517 0.63021 0.75578 0.0
O657 O 0.59291 0.61168 0.75378 0.0
O658 O 0.59453 0.56889 0.80272 0.0
O659 O 0.63687 0.57064 0.77975 0.0
C660 C 0.62126 0.58856 0.86171 0.0
O661 O 0.54918 0.63546 0.80602 0.0
O662 O 0.54671 0.59239 0.81219 0.0
C663 C 0.62163 0.65531 0.83734 0.0
C664 C 0.72199 0.61331 0.7666 0.0
C665 C 0.763 0.61828 0.72002 0.0
C666 C 0.73903 0.63325 0.7171 0.0
C667 C 0.7186 0.6307 0.74014 0.0
C668 C 0.74587 0.59839 0.76955 0.0
C669 C 0.76618 0.60076 0.74641 0.0
C670 C 0.70145 0.61095 0.79198 0.0
C671 C 0.61358 0.62332 0.73942 0.0
H672 H 0.4519 0.60115 0.86423 0.0
H673 H 0.48212 0.59848 0.81775 0.0
H674 H 0.54444 0.63877 0.87212 0.0
H675 H 0.51417 0.64149 0.91899 0.0
H676 H 0.73589 0.64657 0.69671 0.0
H677 H 0.70024 0.64232 0.7373 0.0
H678 H 0.74886 0.58496 0.78989 0.0
H679 H 0.78448 0.58907 0.74931 0.0
Tb680 Tb 0.63427 0.33731 0.05667 0.0
Tb681 Tb 0.63552 0.40393 0.04934 0.0
C682 C 0.68839 0.36944 1.04035 0.0
C683 C 0.62731 0.26828 0.09223 0.0
C684 C 0.62419 0.23358 0.14643 0.0
C685 C 0.6362 0.22483 0.11747 0.0
C686 C 0.63772 0.24198 0.09072 0.0
C687 C 0.61491 0.27711 0.12088 0.0
C688 C 0.6132 0.25982 0.14769 0.0
C689 C 0.63103 0.28651 0.06435 0.0
O690 O 0.6454 0.35168 0.10468 0.0
O691 O 0.65756 0.39587 0.09329 0.0
O692 O 0.6074 0.39483 0.0878 0.0
O693 O 0.59484 0.35255 0.07178 0.0
O694 O 0.655 0.44141 1.04458 0.0
O695 O 0.61164 0.43897 0.04736 0.0
O696 O 0.61537 0.388 1.00657 0.0
O697 O 0.63397 0.34571 1.00465 0.0
O698 O 0.67661 0.34801 0.05281 0.0
O699 O 0.67472 0.39093 1.03093 0.0
C700 C 0.65749 0.37459 0.11234 0.0
O701 O 0.61075 0.3018 0.05627 0.0
O702 O 0.65355 0.29993 0.06384 0.0
C703 C 0.59082 0.37429 0.08933 0.0
C704 C 0.62984 0.47465 1.01704 0.0
C705 C 0.62568 0.51407 0.96843 0.0
C706 C 0.61545 0.5192 0.99941 0.0
C707 C 0.61763 0.49963 1.02358 0.0
C708 C 0.63944 0.46915 0.98591 0.0
C709 C 0.63748 0.48877 0.96182 0.0
C710 C 0.63237 0.45472 1.04302 0.0
C711 C 0.62234 0.36636 0.99023 0.0
H712 H 0.64451 0.20464 0.11548 0.0
H713 H 0.64742 0.2348 0.06892 0.0
H714 H 0.60695 0.29746 0.12268 0.0
H715 H 0.60398 0.26725 0.16966 0.0
H716 H 0.60637 0.53854 1.00513 0.0
H717 H 0.60999 0.5041 0.04749 0.0
H718 H 0.6486 0.44981 0.98033 0.0
H719 H 0.64515 0.48416 0.93798 0.0
Tb720 Tb 0.90908 0.38609 0.30622 0.0
Tb721 Tb 0.84266 0.38741 0.29886 0.0
C722 C 0.87719 0.44042 0.28996 0.0
C723 C 0.97805 0.37916 0.34166 0.0
C724 C 0.01308 0.37593 0.3955 0.0
C725 C 0.02158 0.38803 0.36649 0.0
C726 C 0.00427 0.3896 0.33992 0.0
C727 C 0.96947 0.36669 0.37037 0.0
C728 C 0.9869 0.36493 0.397 0.0
C729 C 0.95973 0.38282 0.31388 0.0
O730 O 0.89479 0.39735 0.35427 0.0
O731 O 0.85072 0.4094 0.34289 0.0
O732 O 0.85166 0.35909 0.33719 0.0
O733 O 0.89382 0.34653 0.32125 0.0
O734 O 0.80539 0.4071 0.29441 0.0
O735 O 0.80766 0.36355 0.2966 0.0
O736 O 0.85841 0.36728 0.25599 0.0
O737 O 0.90063 0.38586 0.25414 0.0
O738 O 0.89849 0.42858 0.30247 0.0
O739 O 0.85575 0.42672 0.28049 0.0
C740 C 0.87191 0.40935 0.36196 0.0
O741 O 0.94443 0.36246 0.30592 0.0
O742 O 0.94639 0.40542 0.31335 0.0
C743 C 0.87212 0.34246 0.33872 0.0
C744 C 0.77204 0.3822 0.26677 0.0
C745 C 0.73255 0.37857 0.21833 0.0
C746 C 0.72724 0.36875 0.24946 0.0
C747 C 0.74685 0.37065 0.27353 0.0
C748 C 0.7777 0.39142 0.23552 0.0
C749 C 0.75804 0.38972 0.21151 0.0
C750 C 0.79203 0.38444 0.29265 0.0
C751 C 0.87996 0.37433 0.23965 0.0
H752 H 0.04171 0.39634 0.36429 0.0
H753 H 0.01129 0.39935 0.31807 0.0
H754 H 0.94919 0.35869 0.37235 0.0
H755 H 0.97965 0.35565 0.41901 0.0
H756 H 0.70775 0.36018 0.25535 0.0
H757 H 0.74227 0.36332 0.29755 0.0
H758 H 0.7972 0.40008 0.22979 0.0
H759 H 0.76277 0.39707 0.18756 0.0
Tb760 Tb 0.86063 0.66044 0.55685 0.0
Tb761 Tb 0.85771 0.59386 0.55009 0.0
C762 C 0.80558 0.62958 0.54218 0.0
C763 C 0.86769 0.72833 0.59456 0.0
C764 C 0.87126 0.76228 0.64955 0.0
C765 C 0.88971 0.76492 0.62394 0.0
C766 C 0.88787 0.74817 0.59671 0.0
C767 C 0.84957 0.72527 0.62042 0.0
C768 C 0.85127 0.74213 0.64751 0.0
C769 C 0.86598 0.71093 0.56549 0.0
O770 O 0.84865 0.64692 0.60483 0.0
O771 O 0.83681 0.60229 0.59489 0.0
O772 O 0.8862 0.60249 0.58823 0.0
O773 O 0.8999 0.64384 0.57064 0.0
O774 O 0.83731 0.55689 0.54498 0.0
O775 O 0.88071 0.55826 0.54841 0.0
O776 O 0.87806 0.60909 0.507 0.0
O777 O 0.86087 0.65201 0.5049 0.0
O778 O 0.81789 0.65068 0.55481 0.0
O779 O 0.81882 0.60802 0.53211 0.0
C780 C 0.83703 0.62399 0.61333 0.0
O781 O 0.88607 0.69453 0.56064 0.0
O782 O 0.84303 0.69904 0.55996 0.0
C783 C 0.90341 0.62249 0.58897 0.0
C784 C 0.86206 0.52309 0.51768 0.0
C785 C 0.86659 0.48388 0.4688 0.0
C786 C 0.87624 0.47847 0.49996 0.0
C787 C 0.87388 0.49793 0.52426 0.0
C788 C 0.85299 0.52884 0.48641 0.0
C789 C 0.85513 0.50932 0.46218 0.0
C790 C 0.85964 0.54303 0.54371 0.0
C791 C 0.87174 0.6309 0.49056 0.0
H792 H 0.90517 0.78039 0.62456 0.0
H793 H 0.90214 0.75086 0.57718 0.0
H794 H 0.83398 0.70993 0.61967 0.0
H795 H 0.83694 0.73933 0.66694 0.0
H796 H 0.88504 0.45901 0.5057 0.0
H797 H 0.88113 0.49328 0.54828 0.0
H798 H 0.84417 0.54832 0.48079 0.0
H799 H 0.8479 0.51413 0.43821 0.0
Tb800 Tb 0.58406 0.38517 0.78374 0.0
Tb801 Tb 0.65064 0.38727 0.79029 0.0
C802 C 0.61567 0.43985 0.79865 0.0
C803 C 0.5154 0.37926 0.74789 0.0
C804 C 0.4808 0.37811 0.69352 0.0
C805 C 0.47186 0.3885 0.7233 0.0
C806 C 0.48896 0.38905 0.75014 0.0
C807 C 0.52445 0.36863 0.71834 0.0
C808 C 0.50725 0.36791 0.69145 0.0
C809 C 0.53344 0.38141 0.77617 0.0
O810 O 0.5977 0.39647 0.73558 0.0
O811 O 0.64224 0.40816 0.74545 0.0
O812 O 0.64159 0.35848 0.75251 0.0
O813 O 0.59972 0.34561 0.76922 0.0
O814 O 0.68772 0.40743 0.79465 0.0
O815 O 0.68589 0.36385 0.7925 0.0
O816 O 0.63527 0.36703 0.83332 0.0
O817 O 0.5928 0.38498 0.83565 0.0
O818 O 0.59455 0.42777 0.78598 0.0
O819 O 0.63704 0.42637 0.80861 0.0
C820 C 0.62062 0.40797 0.72701 0.0
O821 O 0.54916 0.36091 0.78203 0.0
O822 O 0.54629 0.40417 0.77919 0.0
C823 C 0.62127 0.34164 0.75146 0.0
C824 C 0.72131 0.38287 0.82241 0.0
C825 C 0.76068 0.37916 0.87104 0.0
C826 C 0.76594 0.36911 0.83999 0.0
C827 C 0.7464 0.37105 0.81583 0.0
C828 C 0.71571 0.39237 0.85357 0.0
C829 C 0.73531 0.39064 0.87767 0.0
C830 C 0.7013 0.38491 0.79648 0.0
C831 C 0.61372 0.37376 0.84988 0.0
H832 H 0.45152 0.39615 0.72594 0.0
H833 H 0.48159 0.39738 0.77265 0.0
H834 H 0.54489 0.36117 0.71595 0.0
H835 H 0.51486 0.35996 0.66886 0.0
H836 H 0.78534 0.3603 0.83421 0.0
H837 H 0.75094 0.36348 0.7919 0.0
H838 H 0.69629 0.40123 0.85919 0.0
H839 H 0.73059 0.39818 0.90156 0.0
Tb840 Tb 0.85949 0.33793 1.03267 0.0
Tb841 Tb 0.8581 0.40448 1.0399 0.0
C842 C 0.80531 0.36983 0.04926 0.0
C843 C 0.86676 0.26904 0.99692 0.0
C844 C 0.8698 0.23454 0.94249 0.0
C845 C 0.85866 0.22537 0.97176 0.0
C846 C 0.85717 0.24243 0.99862 0.0
C847 C 0.87836 0.27827 0.96798 0.0
C848 C 0.88003 0.2611 0.94105 0.0
C849 C 0.86296 0.28715 1.0249 0.0
O850 O 0.84804 0.35215 0.98468 0.0
O851 O 0.83585 0.39631 0.99613 0.0
O852 O 0.88613 0.39538 1.00134 0.0
O853 O 0.89888 0.35328 1.01759 0.0
O854 O 0.83861 0.44194 1.04457 0.0
O855 O 0.88198 0.43955 1.04174 0.0
O856 O 0.8782 0.38881 0.08284 0.0
O857 O 0.85992 0.34634 0.08472 0.0
O858 O 0.81713 0.34837 1.03693 0.0
O859 O 0.81891 0.39148 0.05839 0.0
C860 C 0.83585 0.37501 0.9771 0.0
O861 O 0.88317 0.30256 1.033 0.0
O862 O 0.84038 0.30044 1.02547 0.0
C863 C 0.90282 0.37494 0.99991 0.0
C864 C 0.86378 0.4752 0.07208 0.0
C865 C 0.86794 0.51453 0.12083 0.0
C866 C 0.87764 0.51996 0.08968 0.0
C867 C 0.87546 0.50043 0.06544 0.0
C868 C 0.85474 0.46942 0.10336 0.0
C869 C 0.8567 0.489 0.12753 0.0
C870 C 0.86125 0.45528 0.04607 0.0
C871 C 0.87142 0.3671 0.09916 0.0
H872 H 0.85097 0.20493 0.97388 0.0
H873 H 0.8481 0.23493 1.02065 0.0
H874 H 0.88568 0.29887 0.96606 0.0
H875 H 0.88858 0.26883 0.91885 0.0
H876 H 0.88628 0.53949 0.0839 0.0
H877 H 0.88267 0.5051 1.0414 0.0
H878 H 0.846 0.44988 0.10901 0.0
H879 H 0.84944 0.48418 0.1515 0.0
Tb880 Tb 0.90909 0.61216 0.2836 0.0
Tb881 Tb 0.84272 0.61067 0.29071 0.0
C882 C 0.87719 0.55769 0.29935 0.0
C883 C 0.97798 0.61921 0.24831 0.0
C884 C 0.01269 0.62214 0.19418 0.0
C885 C 0.02131 0.6101 0.22317 0.0
C886 C 0.00415 0.60868 0.24988 0.0
C887 C 0.9693 0.63166 0.21964 0.0
C888 C 0.98658 0.63327 0.19286 0.0
C889 C 0.95974 0.61555 0.27615 0.0
O890 O 0.89502 0.60117 0.23542 0.0
O891 O 0.85095 0.5889 0.24656 0.0
O892 O 0.85178 0.63916 0.25258 0.0
O893 O 0.89387 0.65177 0.26874 0.0
O894 O 0.80543 0.59092 0.29489 0.0
O895 O 0.80772 0.63448 0.29294 0.0
O896 O 0.85835 0.63063 0.33378 0.0
O897 O 0.90056 0.61208 0.33561 0.0
O898 O 0.8985 0.56962 0.28691 0.0
O899 O 0.85575 0.57132 0.30891 0.0
C900 C 0.87219 0.58912 0.22756 0.0
O901 O 0.9444 0.63588 0.28406 0.0
O902 O 0.94644 0.59291 0.27672 0.0
C903 C 0.87222 0.65586 0.25121 0.0
C904 C 0.77209 0.6157 0.32263 0.0
C905 C 0.73267 0.61927 0.37115 0.0
C906 C 0.72734 0.62914 0.34007 0.0
C907 C 0.74691 0.62726 0.31594 0.0
C908 C 0.77776 0.60641 0.35383 0.0
C909 C 0.75814 0.60808 0.37789 0.0
C910 C 0.79208 0.61356 0.29674 0.0
C911 C 0.87988 0.62354 0.35012 0.0
H912 H 0.04139 0.60168 0.22519 0.0
H913 H 0.01122 0.59894 0.27171 0.0
H914 H 0.94905 0.63972 0.21779 0.0
H915 H 0.97927 0.64252 0.17087 0.0
H916 H 0.70785 0.63774 0.33425 0.0
H917 H 0.74232 0.63465 0.29196 0.0
H918 H 0.79726 0.59775 0.3595 0.0
H919 H 0.76289 0.6007 0.40182 0.0
Tb920 Tb 0.63409 0.66029 0.53288 0.0
Tb921 Tb 0.63644 0.59371 0.54065 0.0
C922 C 0.68858 0.62949 0.54998 0.0
C923 C 0.62621 0.72923 0.49717 0.0
C924 C 0.62301 0.764 0.44304 0.0
C925 C 0.63507 0.77273 0.47198 0.0
C926 C 0.63663 0.75554 0.49869 0.0
C927 C 0.61375 0.72043 0.46854 0.0
C928 C 0.612 0.73775 0.44177 0.0
C929 C 0.62992 0.71101 0.52507 0.0
O930 O 0.64551 0.64591 0.48498 0.0
O931 O 0.6586 0.6021 0.49687 0.0
O932 O 0.60814 0.60199 0.50203 0.0
O933 O 0.59499 0.64418 0.51779 0.0
O934 O 0.65736 0.5571 0.54733 0.0
O935 O 0.61415 0.5577 0.54136 0.0
O936 O 0.61525 0.60939 0.58279 0.0
O937 O 0.63356 0.65183 0.58488 0.0
O938 O 0.67666 0.65057 0.53696 0.0
O939 O 0.67507 0.60795 0.55958 0.0
C940 C 0.65804 0.62321 0.47757 0.0
O941 O 0.60985 0.69528 0.53277 0.0
O942 O 0.6527 0.69809 0.52599 0.0
C943 C 0.59132 0.62233 0.50029 0.0
C944 C 0.63256 0.52239 0.57282 0.0
C945 C 0.62705 0.48156 0.61969 0.0
C946 C 0.61231 0.50576 0.62234 0.0
C947 C 0.61513 0.5261 0.59915 0.0
C948 C 0.64722 0.49828 0.57012 0.0
C949 C 0.64458 0.47806 0.5934 0.0
C950 C 0.63527 0.54287 0.54733 0.0
C951 C 0.62192 0.63111 0.59919 0.0
H952 H 0.6434 0.79292 0.47398 0.0
H953 H 0.64636 0.76271 0.52048 0.0
H954 H 0.60578 0.70007 0.46672 0.0
H955 H 0.60274 0.73035 0.41981 0.0
H956 H 0.59898 0.50915 0.64264 0.0
H957 H 0.60371 0.54465 0.60178 0.0
H958 H 0.66068 0.49504 0.54989 0.0
H959 H 0.65609 0.45958 0.59069 0.0
Tb960 Tb 0.34357 0.38678 0.29131 0.0
Tb961 Tb 0.41009 0.38608 0.28415 0.0
C962 C 0.37356 0.34178 0.25205 0.0
C963 C 0.27297 0.38121 0.32341 0.0
C964 C 0.23355 0.37753 0.37197 0.0
C965 C 0.22823 0.36765 0.34086 0.0
C966 C 0.2478 0.36958 0.31673 0.0
C967 C 0.27864 0.3905 0.35464 0.0
C968 C 0.25902 0.38877 0.37871 0.0
C969 C 0.29295 0.38342 0.29749 0.0
O970 O 0.35948 0.36698 0.33427 0.0
O971 O 0.40153 0.38597 0.33615 0.0
O972 O 0.39927 0.42841 0.28856 0.0
O973 O 0.35631 0.42614 0.30999 0.0
O974 O 0.44574 0.36292 0.28535 0.0
O975 O 0.44711 0.4057 0.27631 0.0
O976 O 0.39572 0.39688 0.23606 0.0
O977 O 0.35165 0.40891 0.24742 0.0
O978 O 0.35285 0.35811 0.25335 0.0
O979 O 0.39528 0.34635 0.2693 0.0
C980 C 0.38094 0.37429 0.35061 0.0
O981 O 0.30611 0.40618 0.2955 0.0
O982 O 0.30877 0.36265 0.29374 0.0
C983 C 0.37782 0.43998 0.30107 0.0
C984 C 0.47897 0.37916 0.24885 0.0
C985 C 0.51354 0.37579 0.19464 0.0
C986 C 0.52239 0.38769 0.22364 0.0
C987 C 0.5053 0.38933 0.2504 0.0
C988 C 0.47007 0.3668 0.2202 0.0
C989 C 0.48729 0.36496 0.19337 0.0
C990 C 0.46075 0.38328 0.2766 0.0
C991 C 0.37286 0.40888 0.22837 0.0
H992 H 0.20876 0.35902 0.33501 0.0
H993 H 0.24321 0.3622 0.29273 0.0
H994 H 0.29812 0.39922 0.36031 0.0
H995 H 0.26378 0.39617 0.40265 0.0
H996 H 0.54258 0.39587 0.22562 0.0
H997 H 0.51253 0.399 0.27221 0.0
H998 H 0.44969 0.35905 0.21837 0.0
H999 H 0.4798 0.35583 0.17137 0.0
Tb1000 Tb 0.3582 0.59345 1.04045 0.0
Tb1001 Tb 0.35948 0.66005 1.03308 0.0
C1002 C 0.40286 0.62303 1.00033 0.0
C1003 C 0.36389 0.5228 0.07293 0.0
C1004 C 0.36814 0.48356 0.12174 0.0
C1005 C 0.37798 0.47818 0.09064 0.0
C1006 C 0.37576 0.49766 0.06638 0.0
C1007 C 0.35467 0.52854 0.10415 0.0
C1008 C 0.35667 0.50901 0.12835 0.0
C1009 C 0.36136 0.54267 0.04687 0.0
O1010 O 0.3784 0.60943 0.08316 0.0
O1011 O 0.35967 0.65166 0.08508 0.0
O1012 O 0.31714 0.64947 1.03749 0.0
O1013 O 0.31908 0.60646 0.05911 0.0
O1014 O 0.38294 0.6956 1.03409 0.0
O1015 O 0.34028 0.69737 1.02531 0.0
O1016 O 0.34829 0.64564 0.98511 0.0
O1017 O 0.33594 0.60153 0.99667 0.0
O1018 O 0.38626 0.6025 1.0019 0.0
O1019 O 0.39887 0.64478 1.01787 0.0
C1020 C 0.37132 0.63104 0.09952 0.0
O1021 O 0.33872 0.55597 0.04529 0.0
O1022 O 0.38208 0.55841 1.04248 0.0
C1023 C 0.30541 0.62804 0.04998 0.0
C1024 C 0.36695 0.7291 0.99772 0.0
C1025 C 0.37057 0.76377 0.94357 0.0
C1026 C 0.35846 0.77261 0.97243 0.0
C1027 C 0.3567 0.75546 0.99916 0.0
C1028 C 0.3795 0.72022 0.96919 0.0
C1029 C 0.38146 0.73749 0.9424 0.0
C1030 C 0.36277 0.71084 1.02546 0.0
C1031 C 0.33605 0.62278 0.97758 0.0
H1032 H 0.38679 0.45871 0.0849 0.0
H1033 H 0.38311 0.49301 1.04239 0.0
H1034 H 0.34577 0.54801 0.10974 0.0
H1035 H 0.3493 0.51381 0.15228 0.0
H1036 H 0.35022 0.79283 0.97434 0.0
H1037 H 0.34688 0.76269 1.02088 0.0
H1038 H 0.38734 0.69981 0.96745 0.0
H1039 H 0.39075 0.73002 0.9205 0.0
Tb1040 Tb 0.15141 0.61043 0.79049 0.0
Tb1041 Tb 0.08488 0.61129 0.78349 0.0
C1042 C 0.12144 0.65572 0.7519 0.0
C1043 C 0.22199 0.61558 0.82254 0.0
C1044 C 0.26128 0.61893 0.87123 0.0
C1045 C 0.26683 0.62863 0.84011 0.0
C1046 C 0.24732 0.62686 0.8159 0.0
C1047 C 0.2161 0.60644 0.85375 0.0
C1048 C 0.23566 0.60801 0.8779 0.0
C1049 C 0.20204 0.61361 0.79658 0.0
O1050 O 0.13562 0.63004 0.83369 0.0
O1051 O 0.09342 0.61133 0.83553 0.0
O1052 O 0.09587 0.56892 0.78677 0.0
O1053 O 0.13859 0.57101 0.80879 0.0
O1054 O 0.04936 0.63466 0.78382 0.0
O1055 O 0.04771 0.59169 0.77636 0.0
O1056 O 0.09916 0.60076 0.73524 0.0
O1057 O 0.14329 0.58871 0.74628 0.0
O1058 O 0.14212 0.63934 0.75288 0.0
O1059 O 0.09981 0.65111 0.76927 0.0
C1060 C 0.1141 0.62285 0.85002 0.0
O1061 O 0.18882 0.5909 0.79435 0.0
O1062 O 0.18628 0.63445 0.79311 0.0
C1063 C 0.11724 0.55721 0.79926 0.0
C1064 C 0.01607 0.61779 0.74781 0.0
C1065 C 0.9814 0.62075 0.69362 0.0
C1066 C 0.97249 0.60939 0.72289 0.0
C1067 C 0.98963 0.60795 0.74963 0.0
C1068 C 0.02506 0.62954 0.71885 0.0
C1069 C 0.0078 0.63117 0.69204 0.0
C1070 C 0.03422 0.6142 0.77576 0.0
C1071 C 0.12203 0.58885 0.72732 0.0
H1072 H 0.28642 0.63701 0.83432 0.0
H1073 H 0.25207 0.63412 0.79191 0.0
H1074 H 0.19649 0.59799 0.85937 0.0
H1075 H 0.23073 0.60076 0.90185 0.0
H1076 H 0.95219 0.60155 0.72516 0.0
H1077 H 0.9823 0.59876 0.77168 0.0
H1078 H 0.04551 0.63706 0.71682 0.0
H1079 H 0.01536 0.63988 0.66985 0.0
Tb1080 Tb 0.13577 0.4032 0.54049 0.0
Tb1081 Tb 0.13428 0.3366 0.53327 0.0
C1082 C 0.09119 0.37369 0.50009 0.0
C1083 C 0.1303 0.47406 0.57262 0.0
C1084 C 0.12625 0.5137 0.62106 0.0
C1085 C 0.11618 0.51879 0.59001 0.0
C1086 C 0.11831 0.49911 0.56593 0.0
C1087 C 0.13972 0.4686 0.60382 0.0
C1088 C 0.13782 0.48834 0.62783 0.0
C1089 C 0.13281 0.45402 0.5467 0.0
O1090 O 0.11534 0.38751 0.58317 0.0
O1091 O 0.13375 0.34515 0.58528 0.0
O1092 O 0.17665 0.34688 0.53821 0.0
O1093 O 0.17473 0.39006 0.55949 0.0
O1094 O 0.11065 0.30115 0.53424 0.0
O1095 O 0.15333 0.29917 0.52563 0.0
O1096 O 0.14591 0.35083 0.48538 0.0
O1097 O 0.1583 0.39493 0.49695 0.0
O1098 O 0.10786 0.39416 0.50176 0.0
O1099 O 0.09503 0.35194 0.51765 0.0
C1100 C 0.12219 0.3659 0.59962 0.0
O1101 O 0.15539 0.44061 0.54526 0.0
O1102 O 0.11203 0.43834 0.54233 0.0
C1103 C 0.18837 0.36834 0.55069 0.0
C1104 C 0.12661 0.26756 0.4979 0.0
C1105 C 0.12312 0.23295 0.44361 0.0
C1106 C 0.13517 0.22409 0.47248 0.0
C1107 C 0.13687 0.2412 0.49927 0.0
C1108 C 0.11411 0.27647 0.46937 0.0
C1109 C 0.11221 0.25923 0.44252 0.0
C1110 C 0.13077 0.2858 0.52569 0.0
C1111 C 0.15826 0.37363 0.4779 0.0
H1112 H 0.10728 0.53818 0.58416 0.0
H1113 H 0.11081 0.50354 0.54196 0.0
H1114 H 0.14872 0.44922 0.60952 0.0
H1115 H 0.14536 0.48377 0.65173 0.0
H1116 H 0.14342 0.20387 0.47432 0.0
H1117 H 0.14666 0.23396 0.52098 0.0
H1118 H 0.10627 0.29688 0.46768 0.0
H1119 H 0.10297 0.26672 0.42061 0.0
Tb1120 Tb 0.34252 0.60942 0.29907 0.0
Tb1121 Tb 0.40907 0.6123 0.30607 0.0
C1122 C 0.3712 0.65568 0.33768 0.0
C1123 C 0.27144 0.61228 0.26688 0.0
C1124 C 0.23057 0.61734 0.22013 0.0
C1125 C 0.25464 0.63222 0.21728 0.0
C1126 C 0.27499 0.62962 0.2404 0.0
C1127 C 0.24749 0.59741 0.26974 0.0
C1128 C 0.22726 0.59983 0.24652 0.0
C1129 C 0.29184 0.61004 0.29245 0.0
O1130 O 0.3578 0.63015 0.25634 0.0
O1131 O 0.4003 0.61224 0.25415 0.0
O1132 O 0.399 0.56953 0.30509 0.0
O1133 O 0.35702 0.57048 0.28128 0.0
O1134 O 0.44361 0.63702 0.30836 0.0
O1135 O 0.44715 0.59377 0.31019 0.0
O1136 O 0.39535 0.60143 0.35432 0.0
O1137 O 0.35098 0.58916 0.34428 0.0
O1138 O 0.35092 0.63877 0.33652 0.0
O1139 O 0.39289 0.65176 0.32012 0.0
C1140 C 0.37941 0.6235 0.23986 0.0
O1141 O 0.30618 0.58798 0.29291 0.0
O1142 O 0.30648 0.63144 0.29802 0.0
C1143 C 0.37816 0.55717 0.29216 0.0
C1144 C 0.47783 0.61871 0.34194 0.0
C1145 C 0.51289 0.62033 0.39592 0.0
C1146 C 0.52128 0.60885 0.36647 0.0
C1147 C 0.50395 0.60809 0.33984 0.0
C1148 C 0.4693 0.63032 0.3712 0.0
C1149 C 0.48673 0.63127 0.39788 0.0
C1150 C 0.45965 0.61669 0.31373 0.0
C1151 C 0.37247 0.58988 0.36292 0.0
H1152 H 0.25789 0.64552 0.19689 0.0
H1153 H 0.2934 0.64119 0.23763 0.0
H1154 H 0.24437 0.58403 0.29009 0.0
H1155 H 0.20889 0.58821 0.24938 0.0
H1156 H 0.54138 0.60059 0.36391 0.0
H1157 H 0.51095 0.59901 0.31756 0.0
H1158 H 0.44911 0.63845 0.37352 0.0
H1159 H 0.47953 0.64004 0.42022 0.0
Tb1160 Tb 0.13561 0.59341 0.05027 0.0
Tb1161 Tb 0.1341 0.66017 0.05657 0.0
C1162 C 0.09053 0.62328 0.08945 0.0
C1163 C 0.13041 0.52259 1.01817 0.0
C1164 C 0.12635 0.48324 0.96937 0.0
C1165 C 0.1164 0.47791 1.00042 0.0
C1166 C 0.11852 0.49744 1.02468 0.0
C1167 C 0.13977 0.52828 0.987 0.0
C1168 C 0.13786 0.50869 0.96281 0.0
C1169 C 0.1327 0.54258 1.04419 0.0
O1170 O 0.11567 0.60882 1.00705 0.0
O1171 O 0.13404 0.65124 1.0047 0.0
O1172 O 0.17652 0.64959 0.0536 0.0
O1173 O 0.17493 0.60645 1.03226 0.0
O1174 O 0.11036 0.69549 0.05584 0.0
O1175 O 0.15318 0.6978 0.06302 0.0
O1176 O 0.14521 0.64657 0.1048 0.0
O1177 O 0.15666 0.60185 0.09496 0.0
O1178 O 0.10704 0.60269 0.08815 0.0
O1179 O 0.09468 0.64495 0.07184 0.0
C1180 C 0.12256 0.63037 0.99048 0.0
O1181 O 0.15528 0.556 0.04597 0.0
O1182 O 0.11189 0.55825 0.04824 0.0
C1183 C 0.18846 0.62807 1.04159 0.0
C1184 C 0.12682 0.7293 0.09152 0.0
C1185 C 0.12356 0.76407 0.14572 0.0
C1186 C 0.13579 0.77275 0.11687 0.0
C1187 C 0.13738 0.75556 0.09012 0.0
C1188 C 0.11421 0.72056 0.12007 0.0
C1189 C 0.11243 0.73787 0.14687 0.0
C1190 C 0.13056 0.71101 0.06366 0.0
C1191 C 0.15664 0.62358 0.11335 0.0
H1192 H 0.10755 0.45845 1.00612 0.0
H1193 H 0.11106 0.49284 0.04863 0.0
H1194 H 0.14867 0.54775 0.98144 0.0
H1195 H 0.14532 0.51346 0.93892 0.0
H1196 H 0.14422 0.79291 0.11496 0.0
H1197 H 0.14724 0.76269 0.06839 0.0
H1198 H 0.10613 0.70024 0.12181 0.0
H1199 H 0.10305 0.7305 0.16876 0.0
Tb1200 Tb 0.15145 0.38685 0.79953 0.0
Tb1201 Tb 0.08493 0.3859 0.8064 0.0
C1202 C 0.12144 0.34159 0.83827 0.0
C1203 C 0.22213 0.38174 0.76783 0.0
C1204 C 0.26165 0.37849 0.7194 0.0
C1205 C 0.26686 0.36825 0.75035 0.0
C1206 C 0.24723 0.36997 0.77443 0.0
C1207 C 0.21658 0.39138 0.73675 0.0
C1208 C 0.23626 0.38987 0.71274 0.0
C1209 C 0.20209 0.3837 0.79367 0.0
O1210 O 0.13581 0.36708 0.75634 0.0
O1211 O 0.09358 0.38563 0.75441 0.0
O1212 O 0.09592 0.42827 0.80292 0.0
O1213 O 0.13869 0.4262 0.78102 0.0
O1214 O 0.04937 0.36256 0.80576 0.0
O1215 O 0.04778 0.40552 0.81334 0.0
O1216 O 0.09907 0.3966 0.85467 0.0
O1217 O 0.14321 0.40866 0.84365 0.0
O1218 O 0.14211 0.358 0.83719 0.0
O1219 O 0.09973 0.34616 0.82104 0.0
C1220 C 0.11425 0.37406 0.74 0.0
O1221 O 0.18887 0.4064 0.79585 0.0
O1222 O 0.1863 0.36285 0.79707 0.0
C1223 C 0.11731 0.43999 0.79042 0.0
C1224 C 0.01587 0.37942 0.84147 0.0
C1225 C 0.98088 0.37646 0.89534 0.0
C1226 C 0.97233 0.3883 0.8662 0.0
C1227 C 0.98963 0.38974 0.83961 0.0
C1228 C 0.02449 0.36719 0.87029 0.0
C1229 C 0.00707 0.36557 0.89694 0.0
C1230 C 0.03423 0.38303 0.81373 0.0
C1231 C 0.12194 0.40854 0.86259 0.0
H1232 H 0.28628 0.3595 0.7561 0.0
H1233 H 0.25172 0.36231 0.79831 0.0
H1234 H 0.19714 0.4002 0.73114 0.0
H1235 H 0.2316 0.39753 0.68891 0.0
H1236 H 0.95218 0.39652 0.86394 0.0
H1237 H 0.9826 0.3993 0.81766 0.0
H1238 H 0.0448 0.35931 0.87235 0.0
H1239 H 0.01434 0.35648 0.91905 0.0
Tb1240 Tb 0.35694 0.40491 0.54952 0.0
Tb1241 Tb 0.36063 0.33851 0.55746 0.0
C1242 C 0.40296 0.37729 0.58866 0.0
C1243 C 0.35995 0.47623 0.51745 0.0
C1244 C 0.36576 0.51707 0.47072 0.0
C1245 C 0.38024 0.49273 0.46792 0.0
C1246 C 0.37726 0.47237 0.49104 0.0
C1247 C 0.34556 0.50048 0.52031 0.0
C1248 C 0.34835 0.52072 0.4971 0.0
C1249 C 0.35714 0.45575 0.54284 0.0
O1250 O 0.37815 0.38958 0.50715 0.0
O1251 O 0.36109 0.34655 0.50538 0.0
O1252 O 0.31777 0.34761 0.55542 0.0
O1253 O 0.31846 0.38968 0.53139 0.0
O1254 O 0.38654 0.30492 0.56226 0.0
O1255 O 0.34359 0.29964 0.56073 0.0
O1256 O 0.34884 0.35268 0.60536 0.0
O1257 O 0.33546 0.39647 0.59378 0.0
O1258 O 0.38548 0.39706 0.58793 0.0
O1259 O 0.39974 0.35596 0.57022 0.0
C1260 C 0.37211 0.36756 0.49092 0.0
O1261 O 0.33536 0.44104 0.54219 0.0
O1262 O 0.37846 0.44137 0.54935 0.0
C1263 C 0.30532 0.36831 0.54218 0.0
C1264 C 0.36828 0.27082 0.59582 0.0
C1265 C 0.37164 0.23674 0.65065 0.0
C1266 C 0.38988 0.23387 0.62486 0.0
C1267 C 0.38815 0.25067 0.59772 0.0
C1268 C 0.3504 0.27416 0.62185 0.0
C1269 C 0.35198 0.25722 0.64887 0.0
C1270 C 0.36665 0.28817 0.56673 0.0
C1271 C 0.3363 0.37534 0.61302 0.0
H1272 H 0.39346 0.48923 0.44754 0.0
H1273 H 0.38847 0.4537 0.48831 0.0
H1274 H 0.3322 0.50381 0.54062 0.0
H1275 H 0.33704 0.53932 0.49989 0.0
H1276 H 0.40508 0.21815 0.62527 0.0
H1277 H 0.40223 0.24778 0.57803 0.0
H1278 H 0.33508 0.28976 0.62128 0.0
H1279 H 0.33782 0.2602 0.66844 0.0
C1280 C 0.29737 0.14345 0.18694 0.0
C1281 C 0.28249 0.1198 0.19313 0.0
H1282 H 0.32646 0.16297 0.15655 0.0
C1283 C 0.28752 0.09657 0.17468 0.0
H1284 H 0.29386 0.16165 0.20089 0.0
C1285 C 0.30622 0.09721 0.14966 0.0
C1286 C 0.32025 0.12117 0.14228 0.0
H1287 H 0.27672 0.07792 0.17937 0.0
H1288 H 0.309 0.07901 0.13548 0.0
C1289 C 0.31605 0.14418 0.16161 0.0
C1290 C 0.10088 0.06822 0.41147 0.0
C1291 C 0.12355 0.07245 0.39173 0.0
H1292 H 0.08416 0.0462 0.45138 0.0
C1293 C 0.14766 0.05875 0.39896 0.0
H1294 H 0.082 0.0784 0.40653 0.0
C1295 C 0.14875 0.04027 0.42422 0.0
C1296 C 0.12587 0.03517 0.44308 0.0
H1297 H 0.16562 0.06157 0.38447 0.0
H1298 H 0.16749 0.02967 0.42876 0.0
C1299 C 0.10208 0.04978 0.43707 0.0
C1300 C 0.20731 0.90022 0.67404 0.0
C1301 C 0.21206 0.87708 0.69271 0.0
H1302 H 0.1861 0.91773 0.63464 0.0
C1303 C 0.19697 0.85353 0.68664 0.0
H1304 H 0.21828 0.9188 0.67861 0.0
C1305 C 0.17835 0.85281 0.66127 0.0
C1306 C 0.1744 0.87573 0.64176 0.0
H1307 H 0.20026 0.8354 0.70076 0.0
H1308 H 0.16775 0.8341 0.65635 0.0
C1309 C 0.18866 0.8996 0.64897 0.0
C1310 C 0.34661 0.9386 0.89882 0.0
C1311 C 0.37058 0.92458 0.89177 0.0
H1312 H 0.32696 0.96788 0.92858 0.0
C1313 C 0.39317 0.9285 0.91172 0.0
H1314 H 0.32871 0.93603 0.88417 0.0
C1315 C 0.39204 0.94691 0.93738 0.0
C1316 C 0.3684 0.9618 0.94326 0.0
H1317 H 0.41194 0.91807 0.90693 0.0
H1318 H 0.40991 0.95022 0.95186 0.0
C1319 C 0.34558 0.95705 0.92416 0.0
C1320 C 0.30554 0.89963 0.44056 0.0
C1321 C 0.31955 0.87564 0.44778 0.0
H1322 H 0.27621 0.91908 0.41083 0.0
C1323 C 0.31554 0.85279 0.42813 0.0
H1324 H 0.3082 0.91772 0.45498 0.0
C1325 C 0.29703 0.85368 0.40265 0.0
C1326 C 0.28214 0.87734 0.39662 0.0
H1327 H 0.32595 0.83399 0.43306 0.0
H1328 H 0.29364 0.83559 0.38844 0.0
C1329 C 0.28701 0.90042 0.41539 0.0
C1330 C 0.34581 0.04945 0.65681 0.0
C1331 C 0.36921 0.03732 0.64441 0.0
H1332 H 0.32893 0.07583 0.69232 0.0
C1333 C 0.39441 0.04474 0.65713 0.0
H1334 H 0.32611 0.04401 0.64758 0.0
C1335 C 0.39609 0.06322 0.68263 0.0
C1336 C 0.37253 0.07427 0.6961 0.0
H1337 H 0.41278 0.0359 0.64773 0.0
H1338 H 0.4157 0.0678 0.69274 0.0
C1339 C 0.34744 0.06763 0.68248 0.0
C1340 C 0.17925 0.14382 0.92771 0.0
C1341 C 0.17511 0.12089 0.94717 0.0
H1342 H 0.20121 0.1611 0.88814 0.0
C1343 C 0.18908 0.0969 0.93979 0.0
H1344 H 0.16889 0.16263 0.93277 0.0
C1345 C 0.20762 0.09615 0.91459 0.0
C1346 C 0.21256 0.11927 0.89595 0.0
H1347 H 0.18636 0.07876 0.95407 0.0
H1348 H 0.21835 0.07747 0.90989 0.0
C1349 C 0.19776 0.14297 0.90221 0.0
C1350 C 0.10111 0.92871 0.17757 0.0
C1351 C 0.12373 0.92457 0.19739 0.0
H1352 H 0.08446 0.95057 0.13754 0.0
C1353 C 0.14786 0.93828 0.19015 0.0
H1354 H 0.08221 0.91852 0.18252 0.0
C1355 C 0.149 0.95667 0.1648 0.0
C1356 C 0.12615 0.96168 0.14587 0.0
H1357 H 0.16579 0.93552 0.20468 0.0
H1358 H 0.16774 0.96728 0.16025 0.0
C1359 C 0.10236 0.94706 0.15189 0.0
C1360 C 0.7079 0.90093 0.91546 0.0
C1361 C 0.71291 0.87788 0.8967 0.0
H1362 H 0.68643 0.9182 0.95486 0.0
C1363 C 0.69805 0.85416 0.9027 0.0
H1364 H 0.71867 0.91963 0.91097 0.0
C1365 C 0.67938 0.85323 0.92805 0.0
C1366 C 0.67514 0.87609 0.94761 0.0
H1367 H 0.70154 0.83608 0.88853 0.0
H1368 H 0.66896 0.8344 0.93291 0.0
C1369 C 0.68921 0.9001 0.9405 0.0
C1370 C 0.89469 0.95335 0.65766 0.0
C1371 C 0.86947 0.96109 0.64528 0.0
H1372 H 0.91599 0.93013 0.69303 0.0
C1373 C 0.84601 0.94944 0.65818 0.0
H1374 H 0.9131 0.96183 0.64788 0.0
C1375 C 0.84763 0.93139 0.68394 0.0
C1376 C 0.87276 0.9244 0.69716 0.0
H1377 H 0.8263 0.95513 0.64922 0.0
H1378 H 0.82909 0.92353 0.69411 0.0
C1379 C 0.89634 0.935 0.68324 0.0
C1380 C 0.78852 0.0968 0.41466 0.0
C1381 C 0.78318 0.12 0.39634 0.0
H1382 H 0.81008 0.07949 0.45392 0.0
C1383 C 0.79766 0.14387 0.40275 0.0
H1384 H 0.77805 0.07799 0.4098 0.0
C1385 C 0.81619 0.14483 0.42821 0.0
C1386 C 0.82063 0.12186 0.44747 0.0
H1387 H 0.79391 0.16205 0.3889 0.0
H1388 H 0.82624 0.16379 0.43348 0.0
C1389 C 0.80707 0.09767 0.43983 0.0
C1390 C 0.64911 0.04037 0.16516 0.0
C1391 C 0.62619 0.03538 0.14631 0.0
H1392 H 0.66608 0.06161 0.2049 0.0
C1393 C 0.60248 0.05011 0.15235 0.0
H1394 H 0.66778 0.02967 0.16059 0.0
C1395 C 0.60138 0.06858 0.17796 0.0
C1396 C 0.62407 0.07271 0.19769 0.0
H1397 H 0.58454 0.04661 0.13806 0.0
H1398 H 0.58255 0.07886 0.18292 0.0
C1399 C 0.64811 0.05888 0.19043 0.0
C1400 C 0.70742 0.09653 0.67387 0.0
C1401 C 0.71212 0.11938 0.6931 0.0
H1402 H 0.68637 0.0796 0.63396 0.0
C1403 C 0.69716 0.14306 0.6874 0.0
H1404 H 0.71829 0.07786 0.67813 0.0
C1405 C 0.67868 0.14417 0.66188 0.0
C1406 C 0.67475 0.12153 0.64187 0.0
H1407 H 0.70043 0.16097 0.70194 0.0
H1408 H 0.66816 0.16297 0.65726 0.0
C1409 C 0.68891 0.09754 0.64868 0.0
C1410 C 0.64822 0.95757 0.42438 0.0
C1411 C 0.62529 0.9625 0.44325 0.0
H1412 H 0.66523 0.93637 0.38461 0.0
C1413 C 0.60161 0.9477 0.43721 0.0
H1414 H 0.66688 0.96832 0.42894 0.0
C1415 C 0.60054 0.92922 0.41161 0.0
C1416 C 0.62324 0.92514 0.39187 0.0
H1417 H 0.58365 0.95114 0.4515 0.0
H1418 H 0.58173 0.91888 0.40667 0.0
C1419 C 0.64725 0.93906 0.3991 0.0
C1420 C 0.80584 0.89998 0.14953 0.0
C1421 C 0.81974 0.87596 0.14209 0.0
H1422 H 0.77653 0.91939 0.17938 0.0
C1423 C 0.81558 0.85302 0.16151 0.0
H1424 H 0.80862 0.91814 0.13531 0.0
C1425 C 0.79701 0.85385 0.18696 0.0
C1426 C 0.78222 0.87754 0.19319 0.0
H1427 H 0.8259 0.8342 0.15641 0.0
H1428 H 0.79349 0.8357 0.20097 0.0
C1429 C 0.78725 0.90071 0.17467 0.0
C1430 C 0.84658 0.06728 0.90679 0.0
C1431 C 0.87164 0.07432 0.89339 0.0
H1432 H 0.82541 0.04342 0.94158 0.0
C1433 C 0.89529 0.06365 0.90704 0.0
H1434 H 0.828 0.07519 0.89683 0.0
C1435 C 0.89375 0.0452 0.93254 0.0
C1436 C 0.86859 0.03744 0.94511 0.0
H1437 H 0.91489 0.06854 0.89709 0.0
H1438 H 0.91221 0.03669 0.94212 0.0
C1439 C 0.84508 0.04914 0.93248 0.0
C1440 C 0.79234 0.6453 0.68266 0.0
C1441 C 0.78418 0.6201 0.69493 0.0
H1442 H 0.81608 0.66638 0.64758 0.0
C1443 C 0.79561 0.59641 0.68219 0.0
H1444 H 0.78404 0.66388 0.69233 0.0
C1445 C 0.81388 0.59781 0.65667 0.0
C1446 C 0.8213 0.62294 0.64353 0.0
H1447 H 0.78959 0.57671 0.69108 0.0
H1448 H 0.82157 0.57912 0.6466 0.0
C1449 C 0.81089 0.64673 0.65731 0.0
C1450 C 0.64694 0.5589 0.89936 0.0
C1451 C 0.62284 0.57246 0.89174 0.0
H1452 H 0.6666 0.52994 0.92948 0.0
C1453 C 0.59999 0.56811 0.91115 0.0
H1454 H 0.66503 0.56183 0.88515 0.0
C1455 C 0.60101 0.54967 0.93677 0.0
C1456 C 0.6248 0.53517 0.94315 0.0
H1457 H 0.5811 0.57818 0.90591 0.0
H1458 H 0.58294 0.54599 0.95077 0.0
C1459 C 0.64786 0.54042 0.92465 0.0
C1460 C 0.68818 0.40008 0.14906 0.0
C1461 C 0.67391 0.37617 0.14207 0.0
H1462 H 0.71777 0.41946 0.17856 0.0
C1463 C 0.67777 0.35341 0.16186 0.0
H1464 H 0.68569 0.41809 0.1345 0.0
C1465 C 0.69633 0.3543 0.18729 0.0
C1466 C 0.71145 0.37788 0.19312 0.0
H1467 H 0.66716 0.33466 0.15711 0.0
H1468 H 0.69957 0.33628 0.20162 0.0
C1469 C 0.70678 0.40087 0.17417 0.0
C1470 C 0.89149 0.44824 0.43737 0.0
C1471 C 0.86772 0.46291 0.44335 0.0
H1472 H 0.91159 0.41956 0.40684 0.0
C1473 C 0.84491 0.45791 0.42432 0.0
H1474 H 0.90937 0.45173 0.45178 0.0
C1475 C 0.84604 0.43945 0.399 0.0
C1476 C 0.87013 0.42564 0.39186 0.0
H1477 H 0.82619 0.46855 0.42881 0.0
H1478 H 0.82813 0.4367 0.38443 0.0
C1479 C 0.89273 0.42981 0.41171 0.0
C1480 C 0.79669 0.35471 0.90225 0.0
C1481 C 0.78173 0.37836 0.89636 0.0
H1482 H 0.82576 0.33498 0.93244 0.0
C1483 C 0.78655 0.40135 0.91531 0.0
H1484 H 0.79333 0.33668 0.88794 0.0
C1485 C 0.80516 0.40051 0.94043 0.0
C1486 C 0.81931 0.37654 0.94743 0.0
H1487 H 0.7757 0.42 0.91091 0.0
H1488 H 0.80779 0.41854 0.95494 0.0
C1489 C 0.81526 0.35376 0.92767 0.0
C1490 C 0.84667 0.5589 0.19032 0.0
C1491 C 0.87062 0.5729 0.19762 0.0
H1492 H 0.82718 0.5296 0.16042 0.0
C1493 C 0.89336 0.56892 0.17791 0.0
H1494 H 0.82867 0.56151 0.20478 0.0
C1495 C 0.89238 0.55047 0.15227 0.0
C1496 C 0.86876 0.53559 0.14618 0.0
H1497 H 0.91212 0.57933 0.1829 0.0
H1498 H 0.91037 0.54711 0.138 0.0
C1499 C 0.8458 0.54041 0.16502 0.0
C1500 C 0.69662 0.64355 0.40241 0.0
C1501 C 0.71163 0.61995 0.39643 0.0
H1502 H 0.66766 0.6632 0.43285 0.0
C1503 C 0.70695 0.59693 0.41533 0.0
H1504 H 0.69988 0.66159 0.38811 0.0
C1505 C 0.68847 0.59772 0.44058 0.0
C1506 C 0.67434 0.62166 0.44774 0.0
H1507 H 0.71785 0.57832 0.41082 0.0
H1508 H 0.68596 0.57968 0.45509 0.0
C1509 C 0.67817 0.64444 0.42796 0.0
C1510 C 0.59821 0.43415 0.68284 0.0
C1511 C 0.62181 0.42357 0.69668 0.0
H1512 H 0.58138 0.46104 0.64761 0.0
C1513 C 0.64692 0.43072 0.68348 0.0
H1514 H 0.57857 0.42916 0.69262 0.0
C1515 C 0.6485 0.44889 0.65782 0.0
C1516 C 0.62501 0.46049 0.64499 0.0
H1517 H 0.66548 0.4229 0.6936 0.0
H1518 H 0.66819 0.45469 0.64889 0.0
C1519 C 0.59981 0.45261 0.65734 0.0
C1520 C 0.18921 0.39901 0.44138 0.0
C1521 C 0.17486 0.37513 0.44828 0.0
H1522 H 0.21885 0.41838 0.41195 0.0
C1523 C 0.17873 0.35237 0.42844 0.0
H1524 H 0.18672 0.41703 0.45597 0.0
C1525 C 0.19733 0.35326 0.40303 0.0
C1526 C 0.21248 0.37682 0.39725 0.0
H1527 H 0.16807 0.33365 0.43313 0.0
H1528 H 0.20054 0.33524 0.38865 0.0
C1529 C 0.20783 0.3998 0.41628 0.0
C1530 C 0.39385 0.42929 0.17872 0.0
C1531 C 0.37118 0.42521 0.19852 0.0
H1532 H 0.4107 0.45117 0.13879 0.0
C1533 C 0.34719 0.43915 0.19137 0.0
H1534 H 0.41265 0.41893 0.1836 0.0
C1535 C 0.3462 0.45765 0.1661 0.0
C1536 C 0.36909 0.46255 0.14714 0.0
H1537 H 0.32924 0.43647 0.2059 0.0
H1538 H 0.32754 0.46838 0.1616 0.0
C1539 C 0.39276 0.44775 0.15313 0.0
C1540 C 0.28658 0.59666 0.91581 0.0
C1541 C 0.28224 0.61958 0.89662 0.0
H1542 H 0.30735 0.57948 0.95576 0.0
C1543 C 0.29756 0.64304 0.90235 0.0
H1544 H 0.27542 0.57815 0.91153 0.0
C1545 C 0.31603 0.6439 0.92786 0.0
C1546 C 0.3196 0.62122 0.94786 0.0
H1547 H 0.29456 0.661 0.88784 0.0
H1548 H 0.32683 0.66256 0.93249 0.0
C1549 C 0.30509 0.59742 0.94103 0.0
C1550 C 0.14761 0.55874 0.68999 0.0
C1551 C 0.1236 0.57256 0.6974 0.0
H1552 H 0.16714 0.52943 0.66016 0.0
C1553 C 0.10078 0.56826 0.67792 0.0
H1554 H 0.16567 0.56159 0.70427 0.0
C1555 C 0.10174 0.54965 0.65244 0.0
C1556 C 0.12543 0.53493 0.64624 0.0
H1557 H 0.08196 0.57851 0.68301 0.0
H1558 H 0.08369 0.54604 0.63837 0.0
C1559 C 0.14847 0.5401 0.66483 0.0
C1560 C 0.1795 0.59725 0.15677 0.0
C1561 C 0.17232 0.62243 0.1436 0.0
H1562 H 0.20357 0.57597 0.1912 0.0
C1563 C 0.18296 0.64614 0.15735 0.0
H1564 H 0.17164 0.57861 0.14673 0.0
C1565 C 0.20149 0.64458 0.1827 0.0
C1566 C 0.20941 0.61931 0.19502 0.0
H1567 H 0.17795 0.66583 0.14759 0.0
H1568 H 0.20996 0.6631 0.19235 0.0
C1569 C 0.19775 0.59572 0.1823 0.0
C1570 C 0.14751 0.43874 0.89985 0.0
C1571 C 0.12352 0.42482 0.89253 0.0
H1572 H 0.16709 0.46798 0.92977 0.0
C1573 C 0.10077 0.42893 0.91218 0.0
H1574 H 0.16552 0.43605 0.88543 0.0
C1575 C 0.10179 0.44741 0.9378 0.0
C1576 C 0.12547 0.4622 0.94396 0.0
H1577 H 0.08197 0.4186 0.90717 0.0
H1578 H 0.0838 0.45085 0.95203 0.0
C1579 C 0.14842 0.45726 0.92515 0.0
C1580 C 0.30612 0.40061 0.65048 0.0
C1581 C 0.32011 0.37667 0.64294 0.0
H1582 H 0.2768 0.41983 0.68049 0.0
C1583 C 0.31614 0.35369 0.66234 0.0
H1584 H 0.30875 0.4188 0.63626 0.0
C1585 C 0.29765 0.35439 0.68786 0.0
C1586 C 0.28276 0.378 0.69419 0.0
H1587 H 0.32654 0.33493 0.65716 0.0
H1588 H 0.29427 0.3362 0.70185 0.0
C1589 C 0.28761 0.40122 0.6757 0.0
C1590 C 0.39314 0.54578 0.43302 0.0
C1591 C 0.3679 0.53811 0.44546 0.0
H1592 H 0.41446 0.56886 0.39749 0.0
C1593 C 0.34447 0.5498 0.43262 0.0
H1594 H 0.41153 0.53727 0.44277 0.0
C1595 C 0.34611 0.56779 0.40681 0.0
C1596 C 0.37125 0.57466 0.39348 0.0
H1597 H 0.32475 0.54415 0.44163 0.0
H1598 H 0.32759 0.57565 0.39664 0.0
C1599 C 0.39481 0.56407 0.40738 0.0
C1600 C 0.09958 0.21164 0.39571 0.0
C1601 C 0.12287 0.21491 0.41474 0.0
H1602 H 0.08068 0.19024 0.35662 0.0
C1603 C 0.14604 0.20002 0.40666 0.0
H1604 H 0.08139 0.22278 0.40134 0.0
C1605 C 0.14571 0.18161 0.3811 0.0
C1606 C 0.12217 0.17742 0.36282 0.0
H1607 H 0.16447 0.20242 0.42036 0.0
H1608 H 0.16388 0.17019 0.37618 0.0
C1609 C 0.0992 0.193 0.37007 0.0
C1610 C 0.05238 0.85399 0.61953 0.0
C1611 C 0.06898 0.87653 0.61343 0.0
H1612 H 0.02198 0.83637 0.64996 0.0
C1613 C 0.06601 0.8996 0.63301 0.0
H1614 H 0.05418 0.83584 0.60504 0.0
C1615 C 0.04776 0.89984 0.65867 0.0
C1616 C 0.03183 0.87705 0.66558 0.0
H1617 H 0.07825 0.91744 0.62902 0.0
H1618 H 0.04628 0.91792 0.67335 0.0
C1619 C 0.03392 0.85429 0.64527 0.0
C1620 C 0.39471 0.80377 0.87021 0.0
C1621 C 0.37179 0.81942 0.86298 0.0
H1622 H 0.4124 0.7739 0.9014 0.0
C1623 C 0.34821 0.81527 0.88121 0.0
H1624 H 0.41325 0.80649 0.85678 0.0
C1625 C 0.3478 0.79682 0.9067 0.0
C1626 C 0.37091 0.78187 0.91476 0.0
H1627 H 0.33007 0.82673 0.8763 0.0
H1628 H 0.32933 0.79445 0.92037 0.0
C1629 C 0.39424 0.7851 0.89578 0.0
C1630 C 0.44246 0.14348 0.11897 0.0
C1631 C 0.42589 0.12087 0.11315 0.0
H1632 H 0.47311 0.16128 0.14892 0.0
C1633 C 0.42916 0.09784 0.13269 0.0
H1634 H 0.44045 0.1616 0.1045 0.0
C1635 C 0.44769 0.09771 0.15807 0.0
C1636 C 0.4636 0.12059 0.16471 0.0
H1637 H 0.41696 0.07994 0.1289 0.0
H1638 H 0.44939 0.07967 0.17274 0.0
C1639 C 0.46119 0.1433 0.14443 0.0
C1640 C 0.09943 0.80415 0.21909 0.0
C1641 C 0.12236 0.8198 0.22637 0.0
H1642 H 0.08172 0.77428 0.18786 0.0
C1643 C 0.14594 0.81567 0.20813 0.0
H1644 H 0.08089 0.80686 0.23252 0.0
C1645 C 0.14634 0.79722 0.18259 0.0
C1646 C 0.12322 0.78224 0.17451 0.0
H1647 H 0.16408 0.82715 0.21305 0.0
H1648 H 0.16481 0.79485 0.16894 0.0
C1649 C 0.09989 0.78548 0.19349 0.0
C1650 C 0.45947 0.85374 0.44408 0.0
C1651 C 0.46226 0.87688 0.42456 0.0
H1652 H 0.43846 0.83483 0.48339 0.0
C1653 C 0.44666 0.8998 0.43193 0.0
H1654 H 0.47111 0.8357 0.43902 0.0
C1655 C 0.42811 0.89936 0.45732 0.0
C1656 C 0.42452 0.87596 0.47614 0.0
H1657 H 0.44864 0.91814 0.41784 0.0
H1658 H 0.41616 0.91733 0.4617 0.0
C1659 C 0.44073 0.85325 0.46953 0.0
C1660 C 0.3483 0.20643 0.69053 0.0
C1661 C 0.37234 0.21767 0.67855 0.0
H1662 H 0.32993 0.17832 0.72303 0.0
C1663 C 0.39692 0.20966 0.69259 0.0
H1664 H 0.32903 0.21191 0.68012 0.0
C1665 C 0.39745 0.19044 0.71749 0.0
C1666 C 0.37342 0.17854 0.72863 0.0
H1667 H 0.41579 0.2181 0.68412 0.0
H1668 H 0.41675 0.18424 0.72722 0.0
C1669 C 0.34884 0.18705 0.71509 0.0
C1670 C 0.06242 0.09704 0.96123 0.0
C1671 C 0.06899 0.1212 0.9774 0.0
H1672 H 0.03925 0.07796 0.92404 0.0
C1673 C 0.05537 0.14505 0.96868 0.0
H1674 H 0.0725 0.07828 0.96726 0.0
C1675 C 0.03634 0.14488 0.94364 0.0
C1676 C 0.03025 0.12079 0.92699 0.0
H1677 H 0.06002 0.16405 0.98049 0.0
H1678 H 0.02651 0.16366 0.93715 0.0
C1679 C 0.04323 0.09681 0.93649 0.0
C1680 C 0.89736 0.80787 0.71703 0.0
C1681 C 0.87342 0.81997 0.72813 0.0
H1682 H 0.91551 0.78021 0.68348 0.0
C1683 C 0.84881 0.81188 0.71428 0.0
H1684 H 0.91668 0.81376 0.72699 0.0
C1685 C 0.84814 0.79271 0.68947 0.0
C1686 C 0.87209 0.78125 0.67757 0.0
H1687 H 0.82997 0.82078 0.72219 0.0
H1688 H 0.82886 0.78755 0.67885 0.0
C1689 C 0.89671 0.78884 0.69189 0.0
C1690 C 0.95962 0.14442 0.4439 0.0
C1691 C 0.96283 0.12103 0.42485 0.0
H1692 H 0.9383 0.16351 0.48286 0.0
C1693 C 0.94773 0.09789 0.43278 0.0
H1694 H 0.97087 0.16262 0.43839 0.0
C1695 C 0.92924 0.09834 0.45822 0.0
C1696 C 0.92519 0.12197 0.47654 0.0
H1697 H 0.95005 0.07937 0.41909 0.0
H1698 H 0.91767 0.0802 0.46303 0.0
C1699 C 0.94094 0.14492 0.4694 0.0
C1700 C 0.60069 0.21224 0.19433 0.0
C1701 C 0.62394 0.21542 0.17519 0.0
H1702 H 0.58178 0.19085 0.2334 0.0
C1703 C 0.64702 0.20035 0.18306 0.0
H1704 H 0.58254 0.2235 0.18886 0.0
C1705 C 0.64666 0.18186 0.20851 0.0
C1706 C 0.62316 0.17777 0.2269 0.0
H1707 H 0.66544 0.20268 0.16928 0.0
H1708 H 0.66477 0.1703 0.21326 0.0
C1709 C 0.60026 0.19353 0.21985 0.0
C1710 C 0.54746 0.89938 0.93115 0.0
C1711 C 0.53141 0.87658 0.92464 0.0
H1712 H 0.5783 0.91708 0.96023 0.0
C1713 C 0.53367 0.85393 0.94505 0.0
H1714 H 0.54588 0.91738 0.91638 0.0
C1715 C 0.55239 0.85374 0.97051 0.0
C1716 C 0.5691 0.87628 0.97621 0.0
H1717 H 0.52164 0.83601 0.94067 0.0
H1718 H 0.55428 0.83568 0.9851 0.0
C1719 C 0.56598 0.89925 0.95653 0.0
C1720 C 0.84694 0.20088 0.90643 0.0
C1721 C 0.86985 0.21649 0.91361 0.0
H1722 H 0.82925 0.17036 0.8768 0.0
C1723 C 0.89272 0.21391 0.8937 0.0
H1724 H 0.82879 0.20275 0.92079 0.0
C1725 C 0.89302 0.19519 0.86814 0.0
C1726 C 0.87038 0.17882 0.86187 0.0
H1727 H 0.91071 0.22564 0.89861 0.0
H1728 H 0.91125 0.19294 0.85402 0.0
C1729 C 0.84719 0.18238 0.88097 0.0
C1730 C 0.53511 0.14471 0.64735 0.0
C1731 C 0.53223 0.12147 0.66669 0.0
H1732 H 0.55603 0.16363 0.60796 0.0
C1733 C 0.54751 0.09843 0.65897 0.0
H1734 H 0.52369 0.16283 0.65271 0.0
C1735 C 0.56584 0.09882 0.63338 0.0
C1736 C 0.56954 0.1223 0.61472 0.0
H1737 H 0.54544 0.08002 0.67291 0.0
H1738 H 0.57754 0.08074 0.6287 0.0
C1739 C 0.55365 0.14516 0.6217 0.0
C1740 C 0.59901 0.80426 0.36984 0.0
C1741 C 0.62194 0.81997 0.36273 0.0
H1742 H 0.58127 0.77425 0.40082 0.0
C1743 C 0.64548 0.81578 0.38099 0.0
H1744 H 0.5805 0.807 0.35638 0.0
C1745 C 0.64585 0.79723 0.40639 0.0
C1746 C 0.62273 0.7822 0.41431 0.0
H1747 H 0.66363 0.82729 0.37619 0.0
H1748 H 0.66429 0.79484 0.42008 0.0
C1749 C 0.59944 0.78548 0.3953 0.0
C1750 C 0.92833 0.89973 0.13251 0.0
C1751 C 0.92475 0.87643 0.11347 0.0
H1752 H 0.94885 0.91829 0.17214 0.0
C1753 C 0.94101 0.8537 0.1198 0.0
H1754 H 0.91634 0.9177 0.12834 0.0
C1755 C 0.95977 0.85407 0.1452 0.0
C1756 C 0.96253 0.87709 0.16495 0.0
H1757 H 0.93875 0.83536 0.10574 0.0
H1758 H 0.97143 0.83601 0.15006 0.0
C1759 C 0.94689 0.90004 0.15786 0.0
C1760 C 0.59845 0.69032 0.87171 0.0
C1761 C 0.62235 0.67788 0.86104 0.0
H1762 H 0.58026 0.71829 0.90484 0.0
C1763 C 0.64691 0.68568 0.87525 0.0
H1764 H 0.57916 0.68467 0.86146 0.0
C1765 C 0.64753 0.70494 0.89999 0.0
C1766 C 0.62358 0.71673 0.91145 0.0
H1767 H 0.6657 0.67651 0.86767 0.0
H1768 H 0.66674 0.70992 0.9109 0.0
C1769 C 0.59904 0.7094 0.89677 0.0
C1770 C 0.55321 0.35198 0.12091 0.0
C1771 C 0.5689 0.37499 0.11389 0.0
H1772 H 0.5234 0.3341 0.15198 0.0
C1773 C 0.56493 0.39851 0.13242 0.0
H1774 H 0.5558 0.33348 0.10725 0.0
C1775 C 0.54659 0.39879 0.15799 0.0
C1776 C 0.53157 0.3756 0.16581 0.0
H1777 H 0.57644 0.41671 0.12769 0.0
H1778 H 0.54434 0.41722 0.17188 0.0
C1779 C 0.53464 0.35233 0.14654 0.0
C1780 C 0.84785 0.31631 0.38158 0.0
C1781 C 0.87133 0.32038 0.36314 0.0
H1782 H 0.82909 0.29546 0.42081 0.0
C1783 C 0.89421 0.30459 0.37012 0.0
H1784 H 0.82975 0.3279 0.37688 0.0
C1785 C 0.89379 0.28584 0.39561 0.0
C1786 C 0.87056 0.28265 0.41477 0.0
H1787 H 0.91268 0.30724 0.35654 0.0
H1788 H 0.91193 0.27453 0.40101 0.0
C1789 C 0.84749 0.29778 0.407 0.0
C1790 C 0.94196 0.64427 0.61954 0.0
C1791 C 0.92554 0.62162 0.61326 0.0
H1792 H 0.97246 0.66187 0.64988 0.0
C1793 C 0.92898 0.59835 0.63236 0.0
H1794 H 0.93982 0.66257 0.60542 0.0
C1795 C 0.94748 0.59801 0.65776 0.0
C1796 C 0.96322 0.6209 0.66488 0.0
H1797 H 0.9169 0.58042 0.62822 0.0
H1798 H 0.94929 0.57978 0.67207 0.0
C1799 C 0.96068 0.64387 0.64502 0.0
C1800 C 0.64559 0.31524 0.70894 0.0
C1801 C 0.62205 0.31942 0.72721 0.0
H1802 H 0.66436 0.29442 0.6697 0.0
C1803 C 0.5991 0.30374 0.72007 0.0
H1804 H 0.66375 0.32673 0.71378 0.0
C1805 C 0.5995 0.28506 0.69449 0.0
C1806 C 0.62278 0.28185 0.67542 0.0
H1807 H 0.58059 0.3065 0.73355 0.0
H1808 H 0.58131 0.27386 0.68891 0.0
C1809 C 0.64593 0.29679 0.68344 0.0
C1810 C 0.92878 0.39911 0.95682 0.0
C1811 C 0.92482 0.37566 0.97546 0.0
H1812 H 0.94957 0.41778 0.9175 0.0
C1813 C 0.9407 0.35274 0.96871 0.0
H1814 H 0.91712 0.41724 0.96134 0.0
C1815 C 0.95945 0.35309 0.94328 0.0
C1816 C 0.96256 0.37628 0.92393 0.0
H1817 H 0.93813 0.33429 0.98246 0.0
H1818 H 0.97083 0.33491 0.93807 0.0
C1819 C 0.94732 0.3994 0.93145 0.0
C1820 C 0.84762 0.70067 0.1831 0.0
C1821 C 0.87072 0.71576 0.17527 0.0
H1822 H 0.82983 0.67056 0.21324 0.0
C1823 C 0.89397 0.71253 0.19438 0.0
H1824 H 0.82921 0.70301 0.16934 0.0
C1825 C 0.89437 0.69377 0.21986 0.0
C1826 C 0.87146 0.678 0.22687 0.0
H1827 H 0.91213 0.72381 0.18894 0.0
H1828 H 0.91285 0.69107 0.23338 0.0
C1829 C 0.84796 0.68213 0.20851 0.0
C1830 C 0.55293 0.64395 0.4695 0.0
C1831 C 0.56936 0.62133 0.47575 0.0
H1832 H 0.52231 0.66147 0.43942 0.0
C1833 C 0.56595 0.59806 0.4566 0.0
H1834 H 0.55507 0.66227 0.48362 0.0
C1835 C 0.54731 0.59766 0.43129 0.0
C1836 C 0.53144 0.62048 0.42435 0.0
H1837 H 0.57808 0.58018 0.46067 0.0
H1838 H 0.54546 0.57942 0.41697 0.0
C1839 C 0.53412 0.64349 0.44416 0.0
C1840 C 0.39642 0.288 0.19231 0.0
C1841 C 0.37184 0.28031 0.17798 0.0
H1842 H 0.41628 0.31304 0.22736 0.0
C1843 C 0.34785 0.29178 0.18974 0.0
H1844 H 0.41525 0.27937 0.18399 0.0
C1845 C 0.34844 0.31106 0.21445 0.0
C1846 C 0.37302 0.31921 0.22834 0.0
H1847 H 0.3286 0.28654 0.17909 0.0
H1848 H 0.32958 0.31996 0.22227 0.0
C1849 C 0.39699 0.30711 0.21736 0.0
C1850 C 0.44723 0.59845 0.93178 0.0
C1851 C 0.46243 0.62158 0.92414 0.0
H1852 H 0.41713 0.58063 0.96182 0.0
C1853 C 0.45934 0.64483 0.94343 0.0
H1854 H 0.44947 0.58003 0.91786 0.0
C1855 C 0.44065 0.64522 0.96894 0.0
C1856 C 0.42482 0.62227 0.97581 0.0
H1857 H 0.47069 0.66302 0.93814 0.0
H1858 H 0.43809 0.6637 0.98263 0.0
C1859 C 0.42876 0.59877 0.95722 0.0
C1860 C 0.14683 0.70572 0.68953 0.0
C1861 C 0.12277 0.71713 0.67793 0.0
H1862 H 0.16528 0.67761 0.72193 0.0
C1863 C 0.09827 0.70946 0.69246 0.0
H1864 H 0.16602 0.71096 0.67872 0.0
C1865 C 0.09784 0.6904 0.71752 0.0
C1866 C 0.12187 0.67833 0.7283 0.0
H1867 H 0.07939 0.71805 0.68427 0.0
H1868 H 0.07859 0.68445 0.72765 0.0
C1869 C 0.14638 0.68649 0.71425 0.0
C1870 C 0.03451 0.35223 0.44324 0.0
C1871 C 0.03144 0.37555 0.42408 0.0
H1872 H 0.05578 0.33318 0.48225 0.0
C1873 C 0.04677 0.39859 0.43177 0.0
H1874 H 0.02307 0.33411 0.4379 0.0
C1875 C 0.06533 0.39812 0.45712 0.0
C1876 C 0.06922 0.37457 0.47558 0.0
H1877 H 0.04457 0.41706 0.41798 0.0
H1878 H 0.07704 0.41621 0.46177 0.0
C1879 C 0.05327 0.35171 0.46865 0.0
C1880 C 0.34657 0.70039 0.40596 0.0
C1881 C 0.3696 0.71566 0.41359 0.0
H1882 H 0.32885 0.67011 0.37596 0.0
C1883 C 0.39273 0.71267 0.39421 0.0
H1884 H 0.32824 0.70256 0.41994 0.0
C1885 C 0.39312 0.69392 0.3687 0.0
C1886 C 0.3703 0.67794 0.3619 0.0
H1887 H 0.41084 0.72408 0.3995 0.0
H1888 H 0.41154 0.69138 0.35499 0.0
C1889 C 0.34689 0.68186 0.3805 0.0
C1890 C 0.0529 0.64577 0.1208 0.0
C1891 C 0.06843 0.62267 0.11379 0.0
H1892 H 0.0231 0.66382 0.15174 0.0
C1893 C 0.06415 0.59914 0.13218 0.0
H1894 H 0.05573 0.66428 0.10726 0.0
C1895 C 0.04567 0.59894 0.1576 0.0
C1896 C 0.03082 0.62223 0.16544 0.0
H1897 H 0.07553 0.58087 0.12745 0.0
H1898 H 0.04319 0.5805 0.17139 0.0
C1899 C 0.0342 0.64551 0.1463 0.0
C1900 C 0.14668 0.31072 0.87542 0.0
C1901 C 0.12205 0.31891 0.86177 0.0
H1902 H 0.16665 0.28615 0.91054 0.0
C1903 C 0.0981 0.30681 0.87284 0.0
H1904 H 0.16551 0.31963 0.86751 0.0
C1905 C 0.09876 0.28766 0.8978 0.0
C1906 C 0.1234 0.27995 0.91193 0.0
H1907 H 0.07877 0.31278 0.86301 0.0
H1908 H 0.07996 0.27902 0.90623 0.0
C1909 C 0.14736 0.29141 0.90004 0.0
C1910 C 0.44621 0.40104 0.6587 0.0
C1911 C 0.46253 0.37839 0.66485 0.0
H1912 H 0.41519 0.41864 0.62983 0.0
C1913 C 0.46055 0.35594 0.64404 0.0
H1914 H 0.44755 0.41889 0.6738 0.0
C1915 C 0.4419 0.35579 0.61853 0.0
C1916 C 0.42494 0.37817 0.61314 0.0
H1917 H 0.47274 0.33811 0.64815 0.0
H1918 H 0.44025 0.33785 0.60364 0.0
C1919 C 0.42773 0.40095 0.63325 0.0
C1920 C 0.09279 0.01265 0.29245 0.0
C1921 C 0.11711 0.02716 0.29032 0.0
H1922 H 0.0736 0.97412 0.29736 0.0
C1923 C 0.14154 0.01277 0.29241 0.0
H1924 H 0.07359 0.02304 0.29122 0.0
C1925 C 0.14154 0.98454 0.29671 0.0
C1926 C 0.11712 0.9701 0.29861 0.0
H1927 H 0.16064 0.02337 0.29145 0.0
H1928 H 0.16064 0.97398 0.29784 0.0
C1929 C 0.09279 0.98456 0.29628 0.0
C1930 C 0.23264 0.89291 0.54301 0.0
C1931 C 0.21818 0.86845 0.54121 0.0
H1932 H 0.27134 0.91202 0.54809 0.0
C1933 C 0.23252 0.84399 0.54353 0.0
H1934 H 0.22218 0.91212 0.54189 0.0
C1935 C 0.26058 0.84394 0.54713 0.0
C1936 C 0.27508 0.86834 0.54918 0.0
H1937 H 0.22204 0.82478 0.54255 0.0
H1938 H 0.27094 0.82468 0.54828 0.0
C1939 C 0.26076 0.89286 0.54719 0.0
C1940 C 0.40144 0.98399 0.79158 0.0
C1941 C 0.3771 0.96948 0.78966 0.0
H1942 H 0.42067 0.02251 0.79617 0.0
C1943 C 0.35269 0.98391 0.79162 0.0
H1944 H 0.42062 0.97356 0.79043 0.0
C1945 C 0.35271 0.01217 0.79567 0.0
C1946 C 0.37715 0.0266 0.79743 0.0
H1947 H 0.33358 0.97331 0.7908 0.0
H1948 H 0.33362 0.02274 0.7968 0.0
C1949 C 0.40146 0.0121 0.79517 0.0
C1950 C 0.23371 0.15218 0.04697 0.0
C1951 C 0.21929 0.12771 0.04865 0.0
H1952 H 0.27219 0.17153 1.04291 0.0
C1953 C 0.23372 0.10326 0.04657 0.0
H1954 H 0.22327 0.1714 0.04822 0.0
C1955 C 0.26187 0.10335 1.04266 0.0
C1956 C 0.27625 0.12789 1.04123 0.0
H1957 H 0.2232 0.08406 0.04721 0.0
H1958 H 0.27242 0.08419 1.04146 0.0
C1959 C 0.26179 0.15226 1.04363 0.0
C1960 C 0.90251 0.0137 0.79642 0.0
C1961 C 0.87824 0.02808 0.79299 0.0
H1962 H 0.92161 0.97514 0.80168 0.0
C1963 C 0.85382 0.01354 0.79345 0.0
H1964 H 0.92168 0.02423 0.79646 0.0
C1965 C 0.85375 0.9853 0.79729 0.0
C1966 C 0.87811 0.97096 0.80026 0.0
H1967 H 0.83473 0.02403 0.79141 0.0
H1968 H 0.83466 0.97465 0.79709 0.0
C1969 C 0.90246 0.98554 0.7997 0.0
C1970 C 0.73286 0.15286 0.5408 0.0
C1971 C 0.71849 0.12834 0.53973 0.0
H1972 H 0.7712 0.17241 0.54488 0.0
C1973 C 0.73294 0.10397 0.54272 0.0
H1974 H 0.72239 0.17202 0.53887 0.0
C1975 C 0.76106 0.10421 0.54699 0.0
C1976 C 0.77537 0.12882 0.54794 0.0
H1977 H 0.72246 0.08474 0.54259 0.0
H1978 H 0.77164 0.08512 0.54892 0.0
C1979 C 0.76087 0.15309 0.54457 0.0
C1980 C 0.64171 0.01292 0.29689 0.0
C1981 C 0.61735 0.02743 0.2989 0.0
H1982 H 0.66066 0.97405 0.29152 0.0
C1983 C 0.59296 0.01302 0.29667 0.0
H1984 H 0.66086 0.02344 0.29794 0.0
C1985 C 0.59285 0.98492 0.29284 0.0
C1986 C 0.61711 0.97035 0.29059 0.0
H1987 H 0.57381 0.02351 0.29783 0.0
H1988 H 0.57361 0.97457 0.2917 0.0
C1989 C 0.6416 0.98469 0.29258 0.0
C1990 C 0.73285 0.84444 0.0463 0.0
C1991 C 0.71847 0.86888 0.04848 0.0
H1992 H 0.77129 0.82516 1.04164 0.0
C1993 C 0.73289 0.89336 0.04661 0.0
H1994 H 0.7224 0.82521 0.04735 0.0
C1995 C 0.76101 0.89333 1.04246 0.0
C1996 C 0.77536 0.86882 1.04056 0.0
H1997 H 0.72239 0.91255 0.04762 0.0
H1998 H 0.77157 0.9125 1.04147 0.0
C1999 C 0.7609 0.84441 1.04271 0.0
C2000 C 0.64047 0.51259 0.79215 0.0
C2001 C 0.61604 0.52694 0.79002 0.0
H2002 H 0.65959 0.47385 0.79758 0.0
C2003 C 0.59171 0.51243 0.79195 0.0
H2004 H 0.65956 0.52321 0.79133 0.0
C2005 C 0.59172 0.48433 0.79564 0.0
C2006 C 0.61606 0.46992 0.79806 0.0
H2007 H 0.57252 0.52284 0.79069 0.0
H2008 H 0.57254 0.47385 0.79658 0.0
C2009 C 0.64048 0.48438 0.79635 0.0
C2010 C 0.7609 0.34578 0.04699 0.0
C2011 C 0.7753 0.37024 0.04897 0.0
H2012 H 0.72256 0.32637 1.04223 0.0
C2013 C 0.76087 0.39469 0.04678 0.0
H2014 H 0.77132 0.32655 0.04829 0.0
C2015 C 0.73273 0.39459 1.04254 0.0
C2016 C 0.7184 0.37003 1.04077 0.0
H2017 H 0.77137 0.4139 0.04762 0.0
H2018 H 0.72215 0.41372 1.04134 0.0
C2019 C 0.7329 0.34567 1.0432 0.0
C2020 C 0.90102 0.51312 0.29643 0.0
C2021 C 0.8767 0.52759 0.29878 0.0
H2022 H 0.92021 0.47463 0.29131 0.0
C2023 C 0.85227 0.51315 0.29684 0.0
H2024 H 0.92022 0.52355 0.29754 0.0
C2025 C 0.85227 0.48492 0.29249 0.0
C2026 C 0.87669 0.47052 0.29039 0.0
H2027 H 0.83317 0.5237 0.29798 0.0
H2028 H 0.83316 0.47433 0.2915 0.0
C2029 C 0.90102 0.48503 0.29254 0.0
C2030 C 0.73306 0.65365 0.54874 0.0
C2031 C 0.71858 0.6292 0.5501 0.0
H2032 H 0.7716 0.67295 0.54496 0.0
C2033 C 0.73297 0.60474 0.54784 0.0
H2034 H 0.72263 0.67287 0.55011 0.0
C2035 C 0.76112 0.60479 0.544 0.0
C2036 C 0.77557 0.6293 0.54282 0.0
H2037 H 0.72242 0.58555 0.54823 0.0
H2038 H 0.77162 0.58562 0.54256 0.0
C2039 C 0.76115 0.6537 0.54549 0.0
C2040 C 0.35326 0.51262 0.29336 0.0
C2041 C 0.37772 0.52709 0.29331 0.0
H2042 H 0.33396 0.47377 0.2969 0.0
C2043 C 0.40189 0.51268 0.29756 0.0
H2044 H 0.33424 0.52313 0.29069 0.0
C2045 C 0.40171 0.48457 0.30123 0.0
C2046 C 0.37733 0.47004 0.30131 0.0
H2047 H 0.42109 0.52314 0.29794 0.0
H2048 H 0.4208 0.47415 0.3038 0.0
C2049 C 0.35305 0.4844 0.29754 0.0
C2050 C 0.26096 0.65198 0.04834 0.0
C2051 C 0.27541 0.62755 0.04995 0.0
H2052 H 0.22256 0.67128 1.04401 0.0
C2053 C 0.26102 0.60306 0.04765 0.0
H2054 H 0.27135 0.67123 0.04974 0.0
C2055 C 0.23287 0.6031 1.04359 0.0
C2056 C 0.21848 0.62761 1.04214 0.0
H2057 H 0.27156 0.58389 0.04821 0.0
H2058 H 0.22234 0.58393 1.04221 0.0
C2059 C 0.23293 0.65201 1.04474 0.0
C2060 C 0.09354 0.48453 0.79276 0.0
C2061 C 0.11787 0.47007 0.79071 0.0
H2062 H 0.0743 0.52299 0.79763 0.0
C2063 C 0.14229 0.4845 0.79278 0.0
H2064 H 0.07434 0.47411 0.79154 0.0
C2065 C 0.14227 0.51274 0.797 0.0
C2066 C 0.11782 0.52712 0.79887 0.0
H2067 H 0.1614 0.47393 0.79186 0.0
H2068 H 0.16136 0.52335 0.79811 0.0
C2069 C 0.09351 0.51261 0.79657 0.0
C2070 C 0.23271 0.39317 0.54748 0.0
C2071 C 0.21837 0.36876 0.55089 0.0
H2072 H 0.2713 0.41219 0.54104 0.0
C2073 C 0.23287 0.34432 0.55051 0.0
H2074 H 0.22213 0.41232 0.54709 0.0
C2075 C 0.26094 0.34422 0.547 0.0
C2076 C 0.2753 0.36854 0.54311 0.0
H2077 H 0.22248 0.32513 0.55278 0.0
H2078 H 0.2714 0.32499 0.54721 0.0
C2079 C 0.26084 0.39305 0.5434 0.0
C2080 C 0.10042 0.112 0.14959 0.0
C2081 C 0.11847 0.13032 0.13495 0.0
H2082 H 0.08423 0.09584 0.19368 0.0
C2083 C 0.13356 0.14751 0.15514 0.0
H2084 H 0.08845 0.09841 0.13491 0.0
C2085 C 0.13149 0.14567 0.18892 0.0
C2086 C 0.1138 0.12702 0.20358 0.0
H2087 H 0.14779 0.16174 0.14488 0.0
H2088 H 0.1441 0.15866 0.20361 0.0
C2089 C 0.0979 0.11059 0.18338 0.0
C2090 C 0.13281 0.84942 0.4342 0.0
C2091 C 0.11752 0.86651 0.4543 0.0
H2092 H 0.14378 0.83848 0.3858 0.0
C2093 C 0.09962 0.88487 0.43956 0.0
H2094 H 0.14695 0.83518 0.44456 0.0
C2095 C 0.0974 0.8864 0.40576 0.0
C2096 C 0.11348 0.87007 0.38566 0.0
H2097 H 0.08752 0.89839 0.45417 0.0
H2098 H 0.08381 0.90116 0.39538 0.0
C2099 C 0.13104 0.85139 0.40041 0.0
C2100 C 0.36281 0.85089 0.68911 0.0
C2101 C 0.38053 0.86948 0.70382 0.0
H2102 H 0.3466 0.83482 0.64502 0.0
C2103 C 0.3966 0.88579 0.68369 0.0
H2104 H 0.35008 0.838 0.70375 0.0
C2105 C 0.39422 0.88432 0.64991 0.0
C2106 C 0.37613 0.86606 0.63521 0.0
H2107 H 0.41031 0.90049 0.69405 0.0
H2108 H 0.40631 0.89783 0.63528 0.0
C2109 C 0.36086 0.84899 0.65533 0.0
C2110 C 0.36255 0.14472 0.90066 0.0
C2111 C 0.3803 0.12617 0.88595 0.0
H2112 H 0.3466 0.16103 0.9448 0.0
C2113 C 0.39661 0.11013 0.9061 0.0
H2114 H 0.34965 0.15742 0.88602 0.0
C2115 C 0.39448 0.11186 0.93989 0.0
C2116 C 0.37643 0.13012 0.9546 0.0
H2117 H 0.41037 0.09549 0.89577 0.0
H2118 H 0.40678 0.09858 0.95453 0.0
C2119 C 0.36087 0.14689 0.93446 0.0
C2120 C 0.86288 0.85235 0.90056 0.0
C2121 C 0.88078 0.8709 0.88609 0.0
H2122 H 0.84651 0.8361 0.94446 0.0
C2123 C 0.89697 0.88692 0.90643 0.0
H2124 H 0.85006 0.83968 0.88575 0.0
C2125 C 0.89456 0.88521 0.94019 0.0
C2126 C 0.87631 0.86699 0.95465 0.0
H2127 H 0.91083 0.90155 0.89627 0.0
H2128 H 0.90676 0.89849 0.95498 0.0
C2129 C 0.8609 0.85022 0.93432 0.0
C2130 C 0.86137 0.14614 0.68946 0.0
C2131 C 0.87962 0.12814 0.70422 0.0
H2132 H 0.84499 0.16183 0.64528 0.0
C2133 C 0.89634 0.11246 0.68413 0.0
H2134 H 0.84813 0.15854 0.70407 0.0
C2135 C 0.89414 0.11396 0.65033 0.0
C2136 C 0.8756 0.13166 0.63557 0.0
H2137 H 0.91047 0.09822 0.69451 0.0
H2138 H 0.90677 0.10094 0.63573 0.0
C2139 C 0.85962 0.14811 0.65565 0.0
C2140 C 0.60001 0.11323 0.43982 0.0
C2141 C 0.61826 0.13129 0.45457 0.0
H2142 H 0.58394 0.0971 0.39565 0.0
C2143 C 0.6339 0.14804 0.43447 0.0
H2144 H 0.58763 0.09998 0.45443 0.0
C2145 C 0.63213 0.14602 0.40067 0.0
C2146 C 0.61423 0.12762 0.38591 0.0
H2147 H 0.6483 0.16205 0.44482 0.0
H2148 H 0.64513 0.15866 0.38606 0.0
C2149 C 0.59781 0.11163 0.40602 0.0
C2150 C 0.63297 0.84959 0.15511 0.0
C2151 C 0.61771 0.86661 0.13495 0.0
H2152 H 0.64382 0.83873 0.20356 0.0
C2153 C 0.59971 0.88495 0.14965 0.0
H2154 H 0.64718 0.83537 0.14481 0.0
C2155 C 0.59739 0.88652 0.18346 0.0
C2156 C 0.61344 0.87025 0.20362 0.0
H2157 H 0.58763 0.89842 0.13501 0.0
H2158 H 0.58373 0.90126 0.19379 0.0
C2159 C 0.63109 0.8516 0.18891 0.0
C2160 C 0.59721 0.61138 0.68338 0.0
C2161 C 0.61358 0.62734 0.70359 0.0
H2162 H 0.58714 0.59981 0.6349 0.0
C2163 C 0.63147 0.64581 0.68898 0.0
H2164 H 0.58336 0.59679 0.69365 0.0
C2165 C 0.63329 0.64792 0.65521 0.0
C2166 C 0.61771 0.63119 0.635 0.0
H2167 H 0.64443 0.65843 0.70368 0.0
H2168 H 0.64769 0.66198 0.64496 0.0
C2169 C 0.59947 0.61306 0.6496 0.0
C2170 C 0.59735 0.38556 0.90598 0.0
C2171 C 0.61394 0.36986 0.88576 0.0
H2172 H 0.58711 0.397 0.95445 0.0
C2173 C 0.63218 0.35176 0.90039 0.0
H2174 H 0.58322 0.39985 0.89572 0.0
C2175 C 0.63407 0.34974 0.93418 0.0
C2176 C 0.61821 0.3662 0.95439 0.0
H2177 H 0.64533 0.33935 0.88569 0.0
H2178 H 0.6487 0.33596 0.94444 0.0
C2179 C 0.59966 0.38397 0.93976 0.0
C2180 C 0.89384 0.38505 0.14975 0.0
C2181 C 0.8756 0.36695 0.13503 0.0
H2182 H 0.91002 0.40115 0.1939 0.0
C2183 C 0.8601 0.35011 0.15518 0.0
H2184 H 0.90612 0.39838 0.13512 0.0
C2185 C 0.862 0.35207 0.18899 0.0
C2186 C 0.8799 0.3705 0.20372 0.0
H2187 H 0.84572 0.33607 0.14487 0.0
H2188 H 0.8491 0.33935 0.20362 0.0
C2189 C 0.89617 0.38659 0.18356 0.0
C2190 C 0.89592 0.61094 0.40611 0.0
C2191 C 0.87986 0.62728 0.38603 0.0
H2192 H 0.9058 0.59899 0.45451 0.0
C2193 C 0.86227 0.64594 0.40081 0.0
H2194 H 0.90953 0.5962 0.39571 0.0
C2195 C 0.8605 0.64792 0.43461 0.0
C2196 C 0.8758 0.63087 0.4547 0.0
H2197 H 0.84954 0.65885 0.38622 0.0
H2198 H 0.84637 0.66218 0.44498 0.0
C2199 C 0.89369 0.61249 0.43992 0.0
C2200 C 0.39671 0.38719 0.40661 0.0
C2201 C 0.38088 0.37061 0.3865 0.0
H2202 H 0.40621 0.39948 0.45501 0.0
C2203 C 0.36338 0.35183 0.40124 0.0
H2204 H 0.41024 0.40203 0.39624 0.0
C2205 C 0.36144 0.34999 0.43503 0.0
C2206 C 0.37647 0.36732 0.45513 0.0
H2207 H 0.35083 0.33873 0.38662 0.0
H2208 H 0.34736 0.33566 0.44537 0.0
C2209 C 0.39431 0.38578 0.4404 0.0
C2210 C 0.36101 0.64544 0.1893 0.0
C2211 C 0.3793 0.62743 0.20399 0.0
H2212 H 0.34457 0.66119 0.14518 0.0
C2213 C 0.39608 0.61187 0.18385 0.0
H2214 H 0.34771 0.65774 0.20395 0.0
C2215 C 0.3939 0.61349 0.15006 0.0
C2216 C 0.3753 0.63117 0.13537 0.0
H2217 H 0.41026 0.59765 0.19416 0.0
H2218 H 0.40659 0.60057 0.13541 0.0
C2219 C 0.35926 0.6475 0.15551 0.0
C2220 C 0.13195 0.64521 0.90064 0.0
C2221 C 0.11417 0.62665 0.88594 0.0
H2222 H 0.14811 0.66139 0.9447 0.0
C2223 C 0.09802 0.61045 0.90612 0.0
H2224 H 0.14474 0.65802 0.88598 0.0
C2225 C 0.10035 0.61204 0.93993 0.0
C2226 C 0.11845 0.6303 0.95461 0.0
H2227 H 0.08427 0.59579 0.89581 0.0
H2228 H 0.08815 0.59866 0.95459 0.0
C2229 C 0.13384 0.64722 0.93442 0.0
C2230 C 0.13209 0.35155 0.68946 0.0
C2231 C 0.11421 0.37002 0.70413 0.0
H2232 H 0.1482 0.33529 0.6454 0.0
C2233 C 0.09778 0.38587 0.68394 0.0
H2234 H 0.1451 0.33899 0.70413 0.0
C2235 C 0.09993 0.38408 0.65014 0.0
C2236 C 0.11815 0.36595 0.63548 0.0
H2237 H 0.08393 0.40044 0.69423 0.0
H2238 H 0.08753 0.39724 0.63546 0.0
C2239 C 0.13381 0.34934 0.65568 0.0
loop_
_geom_bond_atom_site_label_1
_geom_bond_atom_site_label_2
_geom_bond_distance
_geom_bond_site_symmetry_2
_ccdc_geom_bond_type
Tb0 C9 2.764 . S
Tb0 O10 2.325 . S
Tb0 O13 2.303 . S
Tb0 O17 2.322 . S
Tb0 O18 2.349 . S
Tb0 O21 2.415 . S
Tb0 O22 2.399 . S
Tb1 O11 2.322 . S
Tb1 O12 2.349 . S
Tb1 O14 2.415 . S
Tb1 O15 2.399 . S
Tb1 O16 2.325 . S
Tb1 O19 2.303 . S
Tb1 C30 2.764 . S
C2 O18 1.261 . S
C2 O19 1.257 . S
C3 C6 1.358 . S
C3 C7 1.332 . S
C3 C9 1.504 . S
C4 C5 1.373 . S
C4 C8 1.308 1_655 S
C5 C4 1.373 . S
C5 C6 1.429 1_655 S
C5 H32 0.932 . S
C6 C3 1.358 . S
C6 C5 1.429 1_455 S
C6 H33 0.930 . S
C7 C3 1.332 . S
C7 C8 1.394 . S
C7 H34 0.932 . S
C8 C4 1.308 1_455 S
C8 C7 1.394 . S
C8 H35 0.929 . S
C9 Tb0 2.764 . S
C9 C3 1.504 . S
C9 O21 1.239 . S
C9 O22 1.263 . S
O10 Tb0 2.325 . S
O10 C20 1.236 . S
O11 Tb1 2.322 . S
O11 C20 1.257 . S
O12 Tb1 2.349 . S
O12 C23 1.261 . S
O13 Tb0 2.303 . S
O13 C23 1.257 . S
O14 Tb1 2.415 . S
O14 C30 1.239 . S
O15 Tb1 2.399 . S
O15 C30 1.263 . S
O16 Tb1 2.325 . S
O16 C31 1.236 . S
O17 Tb0 2.322 . S
O17 C31 1.257 . S
O18 Tb0 2.349 . S
O18 C2 1.261 . S
O19 Tb1 2.303 . S
O19 C2 1.257 . S
C20 O10 1.236 . S
C20 O11 1.257 . S
O21 Tb0 2.415 . S
O21 C9 1.239 . S
O22 Tb0 2.399 . S
O22 C9 1.263 . S
C23 O12 1.261 . S
C23 O13 1.257 . S
C24 C27 1.358 . S
C24 C28 1.332 . S
C24 C30 1.504 . S
C25 C26 1.373 . S
C25 C29 1.308 . S
C26 C25 1.373 . S
C26 C27 1.429 . S
C26 H36 0.932 . S
C27 C24 1.358 . S
C27 C26 1.429 . S
C27 H37 0.930 . S
C28 C24 1.332 . S
C28 C29 1.394 . S
C28 H38 0.932 . S
C29 C25 1.308 . S
C29 C28 1.394 . S
C29 H39 0.929 . S
C30 Tb1 2.764 . S
C30 O14 1.239 . S
C30 O15 1.263 . S
C30 C24 1.504 . S
C31 O16 1.236 . S
C31 O17 1.257 . S
H32 C5 0.932 . S
H33 C6 0.930 . S
H34 C7 0.932 . S
H35 C8 0.929 . S
H36 C26 0.932 . S
H37 C27 0.930 . S
H38 C28 0.932 . S
H39 C29 0.929 . S
Tb40 C49 2.764 . S
Tb40 O50 2.325 . S
Tb40 O53 2.303 . S
Tb40 O57 2.322 . S
Tb40 O58 2.349 . S
Tb40 O61 2.415 . S
Tb40 O62 2.399 . S
Tb41 O51 2.322 . S
Tb41 O52 2.349 . S
Tb41 O54 2.415 . S
Tb41 O55 2.399 . S
Tb41 O56 2.325 . S
Tb41 O59 2.303 . S
Tb41 C70 2.764 . S
C42 O58 1.261 . S
C42 O59 1.257 . S
C43 C46 1.358 . S
C43 C47 1.332 . S
C43 C49 1.504 . S
C44 C45 1.373 . S
C44 C48 1.308 . S
C45 C44 1.373 . S
C45 C46 1.429 . S
C45 H72 0.932 . S
C46 C43 1.358 . S
C46 C45 1.429 . S
C46 H73 0.930 . S
C47 C43 1.332 . S
C47 C48 1.394 . S
C47 H74 0.932 . S
C48 C44 1.308 . S
C48 C47 1.394 . S
C48 H75 0.929 . S
C49 Tb40 2.764 . S
C49 C43 1.504 . S
C49 O61 1.239 . S
C49 O62 1.263 . S
O50 Tb40 2.325 . S
O50 C60 1.236 . S
O51 Tb41 2.322 . S
O51 C60 1.257 . S
O52 Tb41 2.349 . S
O52 C63 1.261 . S
O53 Tb40 2.303 . S
O53 C63 1.257 . S
O54 Tb41 2.415 . S
O54 C70 1.239 . S
O55 Tb41 2.399 . S
O55 C70 1.263 . S
O56 Tb41 2.325 . S
O56 C71 1.236 . S
O57 Tb40 2.322 . S
O57 C71 1.257 . S
O58 Tb40 2.349 . S
O58 C42 1.261 . S
O59 Tb41 2.303 . S
O59 C42 1.257 . S
C60 O50 1.236 . S
C60 O51 1.257 . S
O61 Tb40 2.415 . S
O61 C49 1.239 . S
O62 Tb40 2.399 . S
O62 C49 1.263 . S
C63 O52 1.261 . S
C63 O53 1.257 . S
C64 C67 1.358 1_565 S
C64 C68 1.332 . S
C64 C70 1.504 . S
C65 C66 1.373 . S
C65 C69 1.308 . S
C66 C65 1.373 . S
C66 C67 1.429 . S
C66 H76 0.932 . S
C67 C64 1.358 1_545 S
C67 C66 1.429 . S
C67 H77 0.930 . S
C68 C64 1.332 . S
C68 C69 1.394 1_565 S
C68 H78 0.932 . S
C69 C65 1.308 . S
C69 C68 1.394 1_545 S
C69 H79 0.932 . S
C70 Tb41 2.764 . S
C70 O54 1.239 . S
C70 O55 1.263 . S
C70 C64 1.504 . S
C71 O56 1.236 . S
C71 O57 1.257 . S
H72 C45 0.932 . S
H73 C46 0.930 . S
H74 C47 0.932 . S
H75 C48 0.929 . S
H76 C66 0.932 . S
H77 C67 0.930 . S
H78 C68 0.932 . S
H79 C69 0.932 . S
Tb80 C89 2.764 . S
Tb80 O90 2.325 . S
Tb80 O93 2.303 . S
Tb80 O97 2.322 . S
Tb80 O98 2.349 . S
Tb80 O101 2.415 . S
Tb80 O102 2.399 . S
Tb81 O91 2.322 . S
Tb81 O92 2.349 . S
Tb81 O94 2.415 . S
Tb81 O95 2.399 . S
Tb81 O96 2.325 . S
Tb81 O99 2.303 . S
Tb81 C110 2.764 . S
C82 O98 1.261 . S
C82 O99 1.257 . S
C83 C86 1.358 . S
C83 C87 1.332 . S
C83 C89 1.504 . S
C84 C85 1.373 . S
C84 C88 1.308 . S
C85 C84 1.373 . S
C85 C86 1.429 . S
C85 H112 0.932 . S
C86 C83 1.358 . S
C86 C85 1.429 . S
C86 H113 0.930 . S
C87 C83 1.332 . S
C87 C88 1.394 . S
C87 H114 0.932 . S
C88 C84 1.308 . S
C88 C87 1.394 . S
C88 H115 0.929 . S
C89 Tb80 2.764 . S
C89 C83 1.504 . S
C89 O101 1.239 . S
C89 O102 1.263 . S
O90 Tb80 2.325 . S
O90 C100 1.236 . S
O91 Tb81 2.322 . S
O91 C100 1.257 . S
O92 Tb81 2.349 . S
O92 C103 1.261 . S
O93 Tb80 2.303 . S
O93 C103 1.257 . S
O94 Tb81 2.415 . S
O94 C110 1.239 . S
O95 Tb81 2.399 . S
O95 C110 1.263 . S
O96 Tb81 2.325 . S
O96 C111 1.236 . S
O97 Tb80 2.322 . S
O97 C111 1.257 . S
O98 Tb80 2.349 . S
O98 C82 1.261 . S
O99 Tb81 2.303 . S
O99 C82 1.257 . S
C100 O90 1.236 . S
C100 O91 1.257 . S
O101 Tb80 2.415 . S
O101 C89 1.239 . S
O102 Tb80 2.399 . S
O102 C89 1.263 . S
C103 O92 1.261 . S
C103 O93 1.257 . S
C104 C107 1.358 . S
C104 C108 1.332 . S
C104 C110 1.504 . S
C105 C106 1.373 . S
C105 C109 1.308 . S
C106 C105 1.373 . S
C106 C107 1.429 . S
C106 H116 0.932 . S
C107 C104 1.358 . S
C107 C106 1.429 . S
C107 H117 0.930 . S
C108 C104 1.332 . S
C108 C109 1.394 . S
C108 H118 0.932 . S
C109 C105 1.308 . S
C109 C108 1.394 . S
C109 H119 0.929 . S
C110 Tb81 2.764 . S
C110 O94 1.239 . S
C110 O95 1.263 . S
C110 C104 1.504 . S
C111 O96 1.236 . S
C111 O97 1.257 . S
H112 C85 0.932 . S
H113 C86 0.930 . S
H114 C87 0.932 . S
H115 C88 0.929 . S
H116 C106 0.932 . S
H117 C107 0.930 . S
H118 C108 0.932 . S
H119 C109 0.929 . S
Tb120 C129 2.764 . S
Tb120 O130 2.325 . S
Tb120 O133 2.303 . S
Tb120 O137 2.322 1_554 S
Tb120 O138 2.349 . S
Tb120 O141 2.415 . S
Tb120 O142 2.399 . S
Tb121 O131 2.322 . S
Tb121 O132 2.349 . S
Tb121 O134 2.415 1_554 S
Tb121 O135 2.399 1_554 S
Tb121 O136 2.325 1_554 S
Tb121 O139 2.303 . S
Tb121 C150 2.764 1_554 S
C122 O138 1.261 1_556 S
C122 O139 1.257 1_556 S
C123 C126 1.358 . S
C123 C127 1.332 . S
C123 C129 1.504 . S
C124 C125 1.373 . S
C124 C128 1.308 . S
C125 C124 1.373 . S
C125 C126 1.429 . S
C125 H152 0.932 . S
C126 C123 1.358 . S
C126 C125 1.429 . S
C126 H153 0.930 . S
C127 C123 1.332 . S
C127 C128 1.394 . S
C127 H154 0.932 . S
C128 C124 1.308 . S
C128 C127 1.394 . S
C128 H155 0.929 . S
C129 Tb120 2.764 . S
C129 C123 1.504 . S
C129 O141 1.239 . S
C129 O142 1.263 . S
O130 Tb120 2.325 . S
O130 C140 1.236 . S
O131 Tb121 2.322 . S
O131 C140 1.257 . S
O132 Tb121 2.349 . S
O132 C143 1.261 . S
O133 Tb120 2.303 . S
O133 C143 1.257 . S
O134 Tb121 2.415 1_556 S
O134 C150 1.239 . S
O135 Tb121 2.399 1_556 S
O135 C150 1.263 . S
O136 Tb121 2.325 1_556 S
O136 C151 1.236 . S
O137 Tb120 2.322 1_556 S
O137 C151 1.257 . S
O138 Tb120 2.349 . S
O138 C122 1.261 1_554 S
O139 Tb121 2.303 . S
O139 C122 1.257 1_554 S
C140 O130 1.236 . S
C140 O131 1.257 . S
O141 Tb120 2.415 . S
O141 C129 1.239 . S
O142 Tb120 2.399 . S
O142 C129 1.263 . S
C143 O132 1.261 . S
C143 O133 1.257 . S
C144 C147 1.358 1_545 S
C144 C148 1.332 . S
C144 C150 1.504 . S
C145 C146 1.373 . S
C145 C149 1.308 . S
C146 C145 1.373 . S
C146 C147 1.429 . S
C146 H156 0.932 . S
C147 C144 1.358 1_565 S
C147 C146 1.429 . S
C147 H157 0.930 . S
C148 C144 1.332 . S
C148 C149 1.394 1_545 S
C148 H158 0.932 . S
C149 C145 1.308 . S
C149 C148 1.394 1_565 S
C149 H159 0.932 . S
C150 Tb121 2.764 1_556 S
C150 O134 1.239 . S
C150 O135 1.263 . S
C150 C144 1.504 . S
C151 O136 1.236 . S
C151 O137 1.257 . S
H152 C125 0.932 . S
H153 C126 0.930 . S
H154 C127 0.932 . S
H155 C128 0.929 . S
H156 C146 0.932 . S
H157 C147 0.930 . S
H158 C148 0.932 . S
H159 C149 0.932 . S
Tb160 C169 2.764 . S
Tb160 O170 2.325 . S
Tb160 O173 2.303 . S
Tb160 O177 2.322 . S
Tb160 O178 2.349 . S
Tb160 O181 2.415 . S
Tb160 O182 2.399 . S
Tb161 O171 2.322 . S
Tb161 O172 2.349 . S
Tb161 O174 2.415 . S
Tb161 O175 2.399 . S
Tb161 O176 2.325 . S
Tb161 O179 2.303 . S
Tb161 C190 2.764 . S
C162 O178 1.261 . S
C162 O179 1.257 . S
C163 C166 1.358 . S
C163 C167 1.332 . S
C163 C169 1.504 . S
C164 C165 1.373 . S
C164 C168 1.308 1_655 S
C165 C164 1.373 . S
C165 C166 1.429 1_655 S
C165 H192 0.932 . S
C166 C163 1.358 . S
C166 C165 1.429 1_455 S
C166 H193 0.930 . S
C167 C163 1.332 . S
C167 C168 1.394 . S
C167 H194 0.932 . S
C168 C164 1.308 1_455 S
C168 C167 1.394 . S
C168 H195 0.929 . S
C169 Tb160 2.764 . S
C169 C163 1.504 . S
C169 O181 1.239 . S
C169 O182 1.263 . S
O170 Tb160 2.325 . S
O170 C180 1.236 . S
O171 Tb161 2.322 . S
O171 C180 1.257 . S
O172 Tb161 2.349 . S
O172 C183 1.261 . S
O173 Tb160 2.303 . S
O173 C183 1.257 . S
O174 Tb161 2.415 . S
O174 C190 1.239 . S
O175 Tb161 2.399 . S
O175 C190 1.263 . S
O176 Tb161 2.325 . S
O176 C191 1.236 . S
O177 Tb160 2.322 . S
O177 C191 1.257 . S
O178 Tb160 2.349 . S
O178 C162 1.261 . S
O179 Tb161 2.303 . S
O179 C162 1.257 . S
C180 O170 1.236 . S
C180 O171 1.257 . S
O181 Tb160 2.415 . S
O181 C169 1.239 . S
O182 Tb160 2.399 . S
O182 C169 1.263 . S
C183 O172 1.261 . S
C183 O173 1.257 . S
C184 C187 1.358 . S
C184 C188 1.332 . S
C184 C190 1.504 . S
C185 C186 1.373 . S
C185 C189 1.308 . S
C186 C185 1.373 . S
C186 C187 1.429 . S
C186 H196 0.932 . S
C187 C184 1.358 . S
C187 C186 1.429 . S
C187 H197 0.930 . S
C188 C184 1.332 . S
C188 C189 1.394 . S
C188 H198 0.932 . S
C189 C185 1.308 . S
C189 C188 1.394 . S
C189 H199 0.929 . S
C190 Tb161 2.764 . S
C190 O174 1.239 . S
C190 O175 1.263 . S
C190 C184 1.504 . S
C191 O176 1.236 . S
C191 O177 1.257 . S
H192 C165 0.932 . S
H193 C166 0.930 . S
H194 C167 0.932 . S
H195 C168 0.929 . S
H196 C186 0.932 . S
H197 C187 0.930 . S
H198 C188 0.932 . S
H199 C189 0.929 . S
Tb200 C209 2.764 . S
Tb200 O210 2.325 . S
Tb200 O213 2.303 . S
Tb200 O217 2.322 . S
Tb200 O218 2.349 . S
Tb200 O221 2.415 . S
Tb200 O222 2.399 . S
Tb201 O211 2.322 . S
Tb201 O212 2.349 . S
Tb201 O214 2.415 . S
Tb201 O215 2.399 . S
Tb201 O216 2.325 . S
Tb201 O219 2.303 . S
Tb201 C230 2.764 . S
C202 O218 1.261 . S
C202 O219 1.257 . S
C203 C206 1.358 . S
C203 C207 1.332 . S
C203 C209 1.504 . S
C204 C205 1.373 . S
C204 C208 1.308 . S
C205 C204 1.373 . S
C205 C206 1.429 . S
C205 H232 0.932 . S
C206 C203 1.358 . S
C206 C205 1.429 . S
C206 H233 0.930 . S
C207 C203 1.332 . S
C207 C208 1.394 . S
C207 H234 0.932 . S
C208 C204 1.308 . S
C208 C207 1.394 . S
C208 H235 0.929 . S
C209 Tb200 2.764 . S
C209 C203 1.504 . S
C209 O221 1.239 . S
C209 O222 1.263 . S
O210 Tb200 2.325 . S
O210 C220 1.236 . S
O211 Tb201 2.322 . S
O211 C220 1.257 . S
O212 Tb201 2.349 . S
O212 C223 1.261 . S
O213 Tb200 2.303 . S
O213 C223 1.257 . S
O214 Tb201 2.415 . S
O214 C230 1.239 . S
O215 Tb201 2.399 . S
O215 C230 1.263 . S
O216 Tb201 2.325 . S
O216 C231 1.236 . S
O217 Tb200 2.322 . S
O217 C231 1.257 . S
O218 Tb200 2.349 . S
O218 C202 1.261 . S
O219 Tb201 2.303 . S
O219 C202 1.257 . S
C220 O210 1.236 . S
C220 O211 1.257 . S
O221 Tb200 2.415 . S
O221 C209 1.239 . S
O222 Tb200 2.399 . S
O222 C209 1.263 . S
C223 O212 1.261 . S
C223 O213 1.257 . S
C224 C227 1.358 1_565 S
C224 C228 1.332 . S
C224 C230 1.504 . S
C225 C226 1.373 . S
C225 C229 1.308 . S
C226 C225 1.373 . S
C226 C227 1.429 . S
C226 H236 0.932 . S
C227 C224 1.358 1_545 S
C227 C226 1.429 . S
C227 H237 0.930 . S
C228 C224 1.332 . S
C228 C229 1.394 1_565 S
C228 H238 0.932 . S
C229 C225 1.308 . S
C229 C228 1.394 1_545 S
C229 H239 0.932 . S
C230 Tb201 2.764 . S
C230 O214 1.239 . S
C230 O215 1.263 . S
C230 C224 1.504 . S
C231 O216 1.236 . S
C231 O217 1.257 . S
H232 C205 0.932 . S
H233 C206 0.930 . S
H234 C207 0.932 . S
H235 C208 0.929 . S
H236 C226 0.932 . S
H237 C227 0.930 . S
H238 C228 0.932 . S
H239 C229 0.932 . S
Tb240 C249 2.764 . S
Tb240 O250 2.325 . S
Tb240 O253 2.303 . S
Tb240 O257 2.322 . S
Tb240 O258 2.349 . S
Tb240 O261 2.415 . S
Tb240 O262 2.399 . S
Tb241 O251 2.322 . S
Tb241 O252 2.349 . S
Tb241 O254 2.415 . S
Tb241 O255 2.399 . S
Tb241 O256 2.325 . S
Tb241 O259 2.303 . S
Tb241 C270 2.764 . S
C242 O258 1.261 . S
C242 O259 1.257 . S
C243 C246 1.358 . S
C243 C247 1.332 . S
C243 C249 1.504 . S
C244 C245 1.373 . S
C244 C248 1.308 . S
C245 C244 1.373 . S
C245 C246 1.429 . S
C245 H272 0.932 . S
C246 C243 1.358 . S
C246 C245 1.429 . S
C246 H273 0.930 . S
C247 C243 1.332 . S
C247 C248 1.394 . S
C247 H274 0.932 . S
C248 C244 1.308 . S
C248 C247 1.394 . S
C248 H275 0.929 . S
C249 Tb240 2.764 . S
C249 C243 1.504 . S
C249 O261 1.239 . S
C249 O262 1.263 . S
O250 Tb240 2.325 . S
O250 C260 1.236 . S
O251 Tb241 2.322 . S
O251 C260 1.257 . S
O252 Tb241 2.349 . S
O252 C263 1.261 . S
O253 Tb240 2.303 . S
O253 C263 1.257 . S
O254 Tb241 2.415 . S
O254 C270 1.239 . S
O255 Tb241 2.399 . S
O255 C270 1.263 . S
O256 Tb241 2.325 . S
O256 C271 1.236 . S
O257 Tb240 2.322 . S
O257 C271 1.257 . S
O258 Tb240 2.349 . S
O258 C242 1.261 . S
O259 Tb241 2.303 . S
O259 C242 1.257 . S
C260 O250 1.236 . S
C260 O251 1.257 . S
O261 Tb240 2.415 . S
O261 C249 1.239 . S
O262 Tb240 2.399 . S
O262 C249 1.263 . S
C263 O252 1.261 . S
C263 O253 1.257 . S
C264 C267 1.358 . S
C264 C268 1.332 . S
C264 C270 1.504 . S
C265 C266 1.373 . S
C265 C269 1.308 . S
C266 C265 1.373 . S
C266 C267 1.429 . S
C266 H276 0.932 . S
C267 C264 1.358 . S
C267 C266 1.429 . S
C267 H277 0.930 . S
C268 C264 1.332 . S
C268 C269 1.394 . S
C268 H278 0.932 . S
C269 C265 1.308 . S
C269 C268 1.394 . S
C269 H279 0.929 . S
C270 Tb241 2.764 . S
C270 O254 1.239 . S
C270 O255 1.263 . S
C270 C264 1.504 . S
C271 O256 1.236 . S
C271 O257 1.257 . S
H272 C245 0.932 . S
H273 C246 0.930 . S
H274 C247 0.932 . S
H275 C248 0.929 . S
H276 C266 0.932 . S
H277 C267 0.930 . S
H278 C268 0.932 . S
H279 C269 0.929 . S
Tb280 C289 2.764 . S
Tb280 O290 2.325 . S
Tb280 O293 2.303 . S
Tb280 O297 2.322 1_556 S
Tb280 O298 2.349 . S
Tb280 O301 2.415 . S
Tb280 O302 2.399 . S
Tb281 O291 2.322 . S
Tb281 O292 2.349 . S
Tb281 O294 2.415 1_556 S
Tb281 O295 2.399 1_556 S
Tb281 O296 2.325 1_556 S
Tb281 O299 2.303 . S
Tb281 C310 2.764 1_556 S
C282 O298 1.261 1_554 S
C282 O299 1.257 1_554 S
C283 C286 1.358 . S
C283 C287 1.332 . S
C283 C289 1.504 . S
C284 C285 1.373 . S
C284 C288 1.308 . S
C285 C284 1.373 . S
C285 C286 1.429 . S
C285 H312 0.932 . S
C286 C283 1.358 . S
C286 C285 1.429 . S
C286 H313 0.930 . S
C287 C283 1.332 . S
C287 C288 1.394 . S
C287 H314 0.932 . S
C288 C284 1.308 . S
C288 C287 1.394 . S
C288 H315 0.929 . S
C289 Tb280 2.764 . S
C289 C283 1.504 . S
C289 O301 1.239 . S
C289 O302 1.263 . S
O290 Tb280 2.325 . S
O290 C300 1.236 . S
O291 Tb281 2.322 . S
O291 C300 1.257 . S
O292 Tb281 2.349 . S
O292 C303 1.261 . S
O293 Tb280 2.303 . S
O293 C303 1.257 . S
O294 Tb281 2.415 1_554 S
O294 C310 1.239 . S
O295 Tb281 2.399 1_554 S
O295 C310 1.263 . S
O296 Tb281 2.325 1_554 S
O296 C311 1.236 . S
O297 Tb280 2.322 1_554 S
O297 C311 1.257 . S
O298 Tb280 2.349 . S
O298 C282 1.261 1_556 S
O299 Tb281 2.303 . S
O299 C282 1.257 1_556 S
C300 O290 1.236 . S
C300 O291 1.257 . S
O301 Tb280 2.415 . S
O301 C289 1.239 . S
O302 Tb280 2.399 . S
O302 C289 1.263 . S
C303 O292 1.261 . S
C303 O293 1.257 . S
C304 C307 1.358 1_545 S
C304 C308 1.332 . S
C304 C310 1.504 . S
C305 C306 1.373 . S
C305 C309 1.308 . S
C306 C305 1.373 . S
C306 C307 1.429 . S
C306 H316 0.932 . S
C307 C304 1.358 1_565 S
C307 C306 1.429 . S
C307 H317 0.930 . S
C308 C304 1.332 . S
C308 C309 1.394 1_545 S
C308 H318 0.932 . S
C309 C305 1.308 . S
C309 C308 1.394 1_565 S
C309 H319 0.932 . S
C310 Tb281 2.764 1_554 S
C310 O294 1.239 . S
C310 O295 1.263 . S
C310 C304 1.504 . S
C311 O296 1.236 . S
C311 O297 1.257 . S
H312 C285 0.932 . S
H313 C286 0.930 . S
H314 C287 0.932 . S
H315 C288 0.929 . S
H316 C306 0.932 . S
H317 C307 0.930 . S
H318 C308 0.932 . S
H319 C309 0.932 . S
Tb320 C329 2.764 . S
Tb320 O330 2.325 . S
Tb320 O333 2.303 . S
Tb320 O337 2.322 . S
Tb320 O338 2.349 . S
Tb320 O341 2.415 . S
Tb320 O342 2.399 . S
Tb321 O331 2.322 . S
Tb321 O332 2.349 . S
Tb321 O334 2.415 . S
Tb321 O335 2.399 . S
Tb321 O336 2.325 . S
Tb321 O339 2.303 . S
Tb321 C350 2.764 . S
C322 O338 1.261 . S
C322 O339 1.257 . S
C323 C326 1.358 . S
C323 C327 1.332 . S
C323 C329 1.504 . S
C324 C325 1.373 . S
C324 C328 1.308 . S
C325 C324 1.373 . S
C325 C326 1.429 . S
C325 H352 0.932 . S
C326 C323 1.358 . S
C326 C325 1.429 . S
C326 H353 0.930 . S
C327 C323 1.332 . S
C327 C328 1.394 . S
C327 H354 0.932 . S
C328 C324 1.308 . S
C328 C327 1.394 . S
C328 H355 0.929 . S
C329 Tb320 2.764 . S
C329 C323 1.504 . S
C329 O341 1.239 . S
C329 O342 1.263 . S
O330 Tb320 2.325 . S
O330 C340 1.236 . S
O331 Tb321 2.322 . S
O331 C340 1.257 . S
O332 Tb321 2.349 . S
O332 C343 1.261 . S
O333 Tb320 2.303 . S
O333 C343 1.257 . S
O334 Tb321 2.415 . S
O334 C350 1.239 . S
O335 Tb321 2.399 . S
O335 C350 1.263 . S
O336 Tb321 2.325 . S
O336 C351 1.236 . S
O337 Tb320 2.322 . S
O337 C351 1.257 . S
O338 Tb320 2.349 . S
O338 C322 1.261 . S
O339 Tb321 2.303 . S
O339 C322 1.257 . S
C340 O330 1.236 . S
C340 O331 1.257 . S
O341 Tb320 2.415 . S
O341 C329 1.239 . S
O342 Tb320 2.399 . S
O342 C329 1.263 . S
C343 O332 1.261 . S
C343 O333 1.257 . S
C344 C347 1.358 . S
C344 C348 1.332 . S
C344 C350 1.504 . S
C345 C346 1.373 . S
C345 C349 1.308 1_455 S
C346 C345 1.373 . S
C346 C347 1.429 1_455 S
C346 H356 0.932 . S
C347 C344 1.358 . S
C347 C346 1.429 1_655 S
C347 H357 0.930 . S
C348 C344 1.332 . S
C348 C349 1.394 . S
C348 H358 0.932 . S
C349 C345 1.308 1_655 S
C349 C348 1.394 . S
C349 H359 0.929 . S
C350 Tb321 2.764 . S
C350 O334 1.239 . S
C350 O335 1.263 . S
C350 C344 1.504 . S
C351 O336 1.236 . S
C351 O337 1.257 . S
H352 C325 0.932 . S
H353 C326 0.930 . S
H354 C327 0.932 . S
H355 C328 0.929 . S
H356 C346 0.932 . S
H357 C347 0.930 . S
H358 C348 0.932 . S
H359 C349 0.929 . S
Tb360 C369 2.764 . S
Tb360 O370 2.325 . S
Tb360 O373 2.303 . S
Tb360 O377 2.322 . S
Tb360 O378 2.349 . S
Tb360 O381 2.415 . S
Tb360 O382 2.399 . S
Tb361 O371 2.322 . S
Tb361 O372 2.349 . S
Tb361 O374 2.415 . S
Tb361 O375 2.399 . S
Tb361 O376 2.325 . S
Tb361 O379 2.303 . S
Tb361 C390 2.764 . S
C362 O378 1.261 . S
C362 O379 1.257 . S
C363 C366 1.358 1_545 S
C363 C367 1.332 . S
C363 C369 1.504 . S
C364 C365 1.373 . S
C364 C368 1.308 . S
C365 C364 1.373 . S
C365 C366 1.429 . S
C365 H392 0.932 . S
C366 C363 1.358 1_565 S
C366 C365 1.429 . S
C366 H393 0.930 . S
C367 C363 1.332 . S
C367 C368 1.394 1_545 S
C367 H394 0.932 . S
C368 C364 1.308 . S
C368 C367 1.394 1_565 S
C368 H395 0.932 . S
C369 Tb360 2.764 . S
C369 C363 1.504 . S
C369 O381 1.239 . S
C369 O382 1.263 . S
O370 Tb360 2.325 . S
O370 C380 1.236 . S
O371 Tb361 2.322 . S
O371 C380 1.257 . S
O372 Tb361 2.349 . S
O372 C383 1.261 . S
O373 Tb360 2.303 . S
O373 C383 1.257 . S
O374 Tb361 2.415 . S
O374 C390 1.239 . S
O375 Tb361 2.399 . S
O375 C390 1.263 . S
O376 Tb361 2.325 . S
O376 C391 1.236 . S
O377 Tb360 2.322 . S
O377 C391 1.257 . S
O378 Tb360 2.349 . S
O378 C362 1.261 . S
O379 Tb361 2.303 . S
O379 C362 1.257 . S
C380 O370 1.236 . S
C380 O371 1.257 . S
O381 Tb360 2.415 . S
O381 C369 1.239 . S
O382 Tb360 2.399 . S
O382 C369 1.263 . S
C383 O372 1.261 . S
C383 O373 1.257 . S
C384 C387 1.358 . S
C384 C388 1.332 . S
C384 C390 1.504 . S
C385 C386 1.373 . S
C385 C389 1.308 . S
C386 C385 1.373 . S
C386 C387 1.429 . S
C386 H396 0.932 . S
C387 C384 1.358 . S
C387 C386 1.429 . S
C387 H397 0.930 . S
C388 C384 1.332 . S
C388 C389 1.394 . S
C388 H398 0.932 . S
C389 C385 1.308 . S
C389 C388 1.394 . S
C389 H399 0.929 . S
C390 Tb361 2.764 . S
C390 O374 1.239 . S
C390 O375 1.263 . S
C390 C384 1.504 . S
C391 O376 1.236 . S
C391 O377 1.257 . S
H392 C365 0.932 . S
H393 C366 0.930 . S
H394 C367 0.932 . S
H395 C368 0.932 . S
H396 C386 0.932 . S
H397 C387 0.930 . S
H398 C388 0.932 . S
H399 C389 0.929 . S
Tb400 C409 2.764 . S
Tb400 O410 2.325 . S
Tb400 O413 2.303 . S
Tb400 O417 2.322 . S
Tb400 O418 2.349 . S
Tb400 O421 2.415 . S
Tb400 O422 2.399 . S
Tb401 O411 2.322 . S
Tb401 O412 2.349 . S
Tb401 O414 2.415 . S
Tb401 O415 2.399 . S
Tb401 O416 2.325 . S
Tb401 O419 2.303 . S
Tb401 C430 2.764 . S
C402 O418 1.261 . S
C402 O419 1.257 . S
C403 C406 1.358 . S
C403 C407 1.332 . S
C403 C409 1.504 . S
C404 C405 1.373 . S
C404 C408 1.308 . S
C405 C404 1.373 . S
C405 C406 1.429 . S
C405 H432 0.932 . S
C406 C403 1.358 . S
C406 C405 1.429 . S
C406 H433 0.930 . S
C407 C403 1.332 . S
C407 C408 1.394 . S
C407 H434 0.932 . S
C408 C404 1.308 . S
C408 C407 1.394 . S
C408 H435 0.929 . S
C409 Tb400 2.764 . S
C409 C403 1.504 . S
C409 O421 1.239 . S
C409 O422 1.263 . S
O410 Tb400 2.325 . S
O410 C420 1.236 . S
O411 Tb401 2.322 . S
O411 C420 1.257 . S
O412 Tb401 2.349 . S
O412 C423 1.261 . S
O413 Tb400 2.303 . S
O413 C423 1.257 . S
O414 Tb401 2.415 . S
O414 C430 1.239 . S
O415 Tb401 2.399 . S
O415 C430 1.263 . S
O416 Tb401 2.325 . S
O416 C431 1.236 . S
O417 Tb400 2.322 . S
O417 C431 1.257 . S
O418 Tb400 2.349 . S
O418 C402 1.261 . S
O419 Tb401 2.303 . S
O419 C402 1.257 . S
C420 O410 1.236 . S
C420 O411 1.257 . S
O421 Tb400 2.415 . S
O421 C409 1.239 . S
O422 Tb400 2.399 . S
O422 C409 1.263 . S
C423 O412 1.261 . S
C423 O413 1.257 . S
C424 C427 1.358 . S
C424 C428 1.332 . S
C424 C430 1.504 . S
C425 C426 1.373 . S
C425 C429 1.308 . S
C426 C425 1.373 . S
C426 C427 1.429 . S
C426 H436 0.932 . S
C427 C424 1.358 . S
C427 C426 1.429 . S
C427 H437 0.930 . S
C428 C424 1.332 . S
C428 C429 1.394 . S
C428 H438 0.932 . S
C429 C425 1.308 . S
C429 C428 1.394 . S
C429 H439 0.929 . S
C430 Tb401 2.764 . S
C430 O414 1.239 . S
C430 O415 1.263 . S
C430 C424 1.504 . S
C431 O416 1.236 . S
C431 O417 1.257 . S
H432 C405 0.932 . S
H433 C406 0.930 . S
H434 C407 0.932 . S
H435 C408 0.929 . S
H436 C426 0.932 . S
H437 C427 0.930 . S
H438 C428 0.932 . S
H439 C429 0.929 . S
Tb440 C449 2.764 1_556 S
Tb440 O450 2.325 1_556 S
Tb440 O453 2.303 . S
Tb440 O457 2.322 . S
Tb440 O458 2.349 . S
Tb440 O461 2.415 1_556 S
Tb440 O462 2.399 1_556 S
Tb441 O451 2.322 1_556 S
Tb441 O452 2.349 . S
Tb441 O454 2.415 . S
Tb441 O455 2.399 . S
Tb441 O456 2.325 . S
Tb441 O459 2.303 . S
Tb441 C470 2.764 . S
C442 O458 1.261 . S
C442 O459 1.257 . S
C443 C446 1.358 1_565 S
C443 C447 1.332 . S
C443 C449 1.504 . S
C444 C445 1.373 . S
C444 C448 1.308 . S
C445 C444 1.373 . S
C445 C446 1.429 . S
C445 H472 0.932 . S
C446 C443 1.358 1_545 S
C446 C445 1.429 . S
C446 H473 0.930 . S
C447 C443 1.332 . S
C447 C448 1.394 1_565 S
C447 H474 0.932 . S
C448 C444 1.308 . S
C448 C447 1.394 1_545 S
C448 H475 0.932 . S
C449 Tb440 2.764 1_554 S
C449 C443 1.504 . S
C449 O461 1.239 . S
C449 O462 1.263 . S
O450 Tb440 2.325 1_554 S
O450 C460 1.236 . S
O451 Tb441 2.322 1_554 S
O451 C460 1.257 . S
O452 Tb441 2.349 . S
O452 C463 1.261 1_556 S
O453 Tb440 2.303 . S
O453 C463 1.257 1_556 S
O454 Tb441 2.415 . S
O454 C470 1.239 . S
O455 Tb441 2.399 . S
O455 C470 1.263 . S
O456 Tb441 2.325 . S
O456 C471 1.236 . S
O457 Tb440 2.322 . S
O457 C471 1.257 . S
O458 Tb440 2.349 . S
O458 C442 1.261 . S
O459 Tb441 2.303 . S
O459 C442 1.257 . S
C460 O450 1.236 . S
C460 O451 1.257 . S
O461 Tb440 2.415 1_554 S
O461 C449 1.239 . S
O462 Tb440 2.399 1_554 S
O462 C449 1.263 . S
C463 O452 1.261 1_554 S
C463 O453 1.257 1_554 S
C464 C467 1.358 . S
C464 C468 1.332 . S
C464 C470 1.504 . S
C465 C466 1.373 . S
C465 C469 1.308 . S
C466 C465 1.373 . S
C466 C467 1.429 . S
C466 H476 0.932 . S
C467 C464 1.358 . S
C467 C466 1.429 . S
C467 H477 0.930 . S
C468 C464 1.332 . S
C468 C469 1.394 . S
C468 H478 0.932 . S
C469 C465 1.308 . S
C469 C468 1.394 . S
C469 H479 0.929 . S
C470 Tb441 2.764 . S
C470 O454 1.239 . S
C470 O455 1.263 . S
C470 C464 1.504 . S
C471 O456 1.236 . S
C471 O457 1.257 . S
H472 C445 0.932 . S
H473 C446 0.930 . S
H474 C447 0.932 . S
H475 C448 0.932 . S
H476 C466 0.932 . S
H477 C467 0.930 . S
H478 C468 0.932 . S
H479 C469 0.929 . S
Tb480 C489 2.764 . S
Tb480 O490 2.325 . S
Tb480 O493 2.303 . S
Tb480 O497 2.322 . S
Tb480 O498 2.349 . S
Tb480 O501 2.415 . S
Tb480 O502 2.399 . S
Tb481 O491 2.322 . S
Tb481 O492 2.349 . S
Tb481 O494 2.415 . S
Tb481 O495 2.399 . S
Tb481 O496 2.325 . S
Tb481 O499 2.303 . S
Tb481 C510 2.764 . S
C482 O498 1.261 . S
C482 O499 1.257 . S
C483 C486 1.358 . S
C483 C487 1.332 . S
C483 C489 1.504 . S
C484 C485 1.373 . S
C484 C488 1.308 . S
C485 C484 1.373 . S
C485 C486 1.429 . S
C485 H512 0.932 . S
C486 C483 1.358 . S
C486 C485 1.429 . S
C486 H513 0.930 . S
C487 C483 1.332 . S
C487 C488 1.394 . S
C487 H514 0.932 . S
C488 C484 1.308 . S
C488 C487 1.394 . S
C488 H515 0.929 . S
C489 Tb480 2.764 . S
C489 C483 1.504 . S
C489 O501 1.239 . S
C489 O502 1.263 . S
O490 Tb480 2.325 . S
O490 C500 1.236 . S
O491 Tb481 2.322 . S
O491 C500 1.257 . S
O492 Tb481 2.349 . S
O492 C503 1.261 . S
O493 Tb480 2.303 . S
O493 C503 1.257 . S
O494 Tb481 2.415 . S
O494 C510 1.239 . S
O495 Tb481 2.399 . S
O495 C510 1.263 . S
O496 Tb481 2.325 . S
O496 C511 1.236 . S
O497 Tb480 2.322 . S
O497 C511 1.257 . S
O498 Tb480 2.349 . S
O498 C482 1.261 . S
O499 Tb481 2.303 . S
O499 C482 1.257 . S
C500 O490 1.236 . S
C500 O491 1.257 . S
O501 Tb480 2.415 . S
O501 C489 1.239 . S
O502 Tb480 2.399 . S
O502 C489 1.263 . S
C503 O492 1.261 . S
C503 O493 1.257 . S
C504 C507 1.358 . S
C504 C508 1.332 . S
C504 C510 1.504 . S
C505 C506 1.373 . S
C505 C509 1.308 1_455 S
C506 C505 1.373 . S
C506 C507 1.429 1_455 S
C506 H516 0.932 . S
C507 C504 1.358 . S
C507 C506 1.429 1_655 S
C507 H517 0.930 . S
C508 C504 1.332 . S
C508 C509 1.394 . S
C508 H518 0.932 . S
C509 C505 1.308 1_655 S
C509 C508 1.394 . S
C509 H519 0.929 . S
C510 Tb481 2.764 . S
C510 O494 1.239 . S
C510 O495 1.263 . S
C510 C504 1.504 . S
C511 O496 1.236 . S
C511 O497 1.257 . S
H512 C485 0.932 . S
H513 C486 0.930 . S
H514 C487 0.932 . S
H515 C488 0.929 . S
H516 C506 0.932 . S
H517 C507 0.930 . S
H518 C508 0.932 . S
H519 C509 0.929 . S
Tb520 C529 2.764 . S
Tb520 O530 2.325 . S
Tb520 O533 2.303 . S
Tb520 O537 2.322 . S
Tb520 O538 2.349 . S
Tb520 O541 2.415 . S
Tb520 O542 2.399 . S
Tb521 O531 2.322 . S
Tb521 O532 2.349 . S
Tb521 O534 2.415 . S
Tb521 O535 2.399 . S
Tb521 O536 2.325 . S
Tb521 O539 2.303 . S
Tb521 C550 2.764 . S
C522 O538 1.261 . S
C522 O539 1.257 . S
C523 C526 1.358 1_545 S
C523 C527 1.332 . S
C523 C529 1.504 . S
C524 C525 1.373 . S
C524 C528 1.308 . S
C525 C524 1.373 . S
C525 C526 1.429 . S
C525 H552 0.932 . S
C526 C523 1.358 1_565 S
C526 C525 1.429 . S
C526 H553 0.930 . S
C527 C523 1.332 . S
C527 C528 1.394 1_545 S
C527 H554 0.932 . S
C528 C524 1.308 . S
C528 C527 1.394 1_565 S
C528 H555 0.932 . S
C529 Tb520 2.764 . S
C529 C523 1.504 . S
C529 O541 1.239 . S
C529 O542 1.263 . S
O530 Tb520 2.325 . S
O530 C540 1.236 . S
O531 Tb521 2.322 . S
O531 C540 1.257 . S
O532 Tb521 2.349 . S
O532 C543 1.261 . S
O533 Tb520 2.303 . S
O533 C543 1.257 . S
O534 Tb521 2.415 . S
O534 C550 1.239 . S
O535 Tb521 2.399 . S
O535 C550 1.263 . S
O536 Tb521 2.325 . S
O536 C551 1.236 . S
O537 Tb520 2.322 . S
O537 C551 1.257 . S
O538 Tb520 2.349 . S
O538 C522 1.261 . S
O539 Tb521 2.303 . S
O539 C522 1.257 . S
C540 O530 1.236 . S
C540 O531 1.257 . S
O541 Tb520 2.415 . S
O541 C529 1.239 . S
O542 Tb520 2.399 . S
O542 C529 1.263 . S
C543 O532 1.261 . S
C543 O533 1.257 . S
C544 C547 1.358 . S
C544 C548 1.332 . S
C544 C550 1.504 . S
C545 C546 1.373 . S
C545 C549 1.308 . S
C546 C545 1.373 . S
C546 C547 1.429 . S
C546 H556 0.932 . S
C547 C544 1.358 . S
C547 C546 1.429 . S
C547 H557 0.930 . S
C548 C544 1.332 . S
C548 C549 1.394 . S
C548 H558 0.932 . S
C549 C545 1.308 . S
C549 C548 1.394 . S
C549 H559 0.929 . S
C550 Tb521 2.764 . S
C550 O534 1.239 . S
C550 O535 1.263 . S
C550 C544 1.504 . S
C551 O536 1.236 . S
C551 O537 1.257 . S
H552 C525 0.932 . S
H553 C526 0.930 . S
H554 C527 0.932 . S
H555 C528 0.932 . S
H556 C546 0.932 . S
H557 C547 0.930 . S
H558 C548 0.932 . S
H559 C549 0.929 . S
Tb560 C569 2.764 . S
Tb560 O570 2.325 . S
Tb560 O573 2.303 . S
Tb560 O577 2.322 . S
Tb560 O578 2.349 . S
Tb560 O581 2.415 . S
Tb560 O582 2.399 . S
Tb561 O571 2.322 . S
Tb561 O572 2.349 . S
Tb561 O574 2.415 . S
Tb561 O575 2.399 . S
Tb561 O576 2.325 . S
Tb561 O579 2.303 . S
Tb561 C590 2.764 . S
C562 O578 1.261 . S
C562 O579 1.257 . S
C563 C566 1.358 . S
C563 C567 1.332 . S
C563 C569 1.504 . S
C564 C565 1.373 . S
C564 C568 1.308 . S
C565 C564 1.373 . S
C565 C566 1.429 . S
C565 H592 0.932 . S
C566 C563 1.358 . S
C566 C565 1.429 . S
C566 H593 0.930 . S
C567 C563 1.332 . S
C567 C568 1.394 . S
C567 H594 0.932 . S
C568 C564 1.308 . S
C568 C567 1.394 . S
C568 H595 0.929 . S
C569 Tb560 2.764 . S
C569 C563 1.504 . S
C569 O581 1.239 . S
C569 O582 1.263 . S
O570 Tb560 2.325 . S
O570 C580 1.236 . S
O571 Tb561 2.322 . S
O571 C580 1.257 . S
O572 Tb561 2.349 . S
O572 C583 1.261 . S
O573 Tb560 2.303 . S
O573 C583 1.257 . S
O574 Tb561 2.415 . S
O574 C590 1.239 . S
O575 Tb561 2.399 . S
O575 C590 1.263 . S
O576 Tb561 2.325 . S
O576 C591 1.236 . S
O577 Tb560 2.322 . S
O577 C591 1.257 . S
O578 Tb560 2.349 . S
O578 C562 1.261 . S
O579 Tb561 2.303 . S
O579 C562 1.257 . S
C580 O570 1.236 . S
C580 O571 1.257 . S
O581 Tb560 2.415 . S
O581 C569 1.239 . S
O582 Tb560 2.399 . S
O582 C569 1.263 . S
C583 O572 1.261 . S
C583 O573 1.257 . S
C584 C587 1.358 . S
C584 C588 1.332 . S
C584 C590 1.504 . S
C585 C586 1.373 . S
C585 C589 1.308 . S
C586 C585 1.373 . S
C586 C587 1.429 . S
C586 H596 0.932 . S
C587 C584 1.358 . S
C587 C586 1.429 . S
C587 H597 0.930 . S
C588 C584 1.332 . S
C588 C589 1.394 . S
C588 H598 0.932 . S
C589 C585 1.308 . S
C589 C588 1.394 . S
C589 H599 0.929 . S
C590 Tb561 2.764 . S
C590 O574 1.239 . S
C590 O575 1.263 . S
C590 C584 1.504 . S
C591 O576 1.236 . S
C591 O577 1.257 . S
H592 C565 0.932 . S
H593 C566 0.930 . S
H594 C567 0.932 . S
H595 C568 0.929 . S
H596 C586 0.932 . S
H597 C587 0.930 . S
H598 C588 0.932 . S
H599 C589 0.929 . S
Tb600 C609 2.764 1_554 S
Tb600 O610 2.325 1_554 S
Tb600 O613 2.303 . S
Tb600 O617 2.322 . S
Tb600 O618 2.349 . S
Tb600 O621 2.415 1_554 S
Tb600 O622 2.399 1_554 S
Tb601 O611 2.322 1_554 S
Tb601 O612 2.349 . S
Tb601 O614 2.415 . S
Tb601 O615 2.399 . S
Tb601 O616 2.325 . S
Tb601 O619 2.303 . S
Tb601 C630 2.764 . S
C602 O618 1.261 . S
C602 O619 1.257 . S
C603 C606 1.358 1_565 S
C603 C607 1.332 . S
C603 C609 1.504 . S
C604 C605 1.373 . S
C604 C608 1.308 . S
C605 C604 1.373 . S
C605 C606 1.429 . S
C605 H632 0.932 . S
C606 C603 1.358 1_545 S
C606 C605 1.429 . S
C606 H633 0.930 . S
C607 C603 1.332 . S
C607 C608 1.394 1_565 S
C607 H634 0.932 . S
C608 C604 1.308 . S
C608 C607 1.394 1_545 S
C608 H635 0.932 . S
C609 Tb600 2.764 1_556 S
C609 C603 1.504 . S
C609 O621 1.239 . S
C609 O622 1.263 . S
O610 Tb600 2.325 1_556 S
O610 C620 1.236 . S
O611 Tb601 2.322 1_556 S
O611 C620 1.257 . S
O612 Tb601 2.349 . S
O612 C623 1.261 1_554 S
O613 Tb600 2.303 . S
O613 C623 1.257 1_554 S
O614 Tb601 2.415 . S
O614 C630 1.239 . S
O615 Tb601 2.399 . S
O615 C630 1.263 . S
O616 Tb601 2.325 . S
O616 C631 1.236 . S
O617 Tb600 2.322 . S
O617 C631 1.257 . S
O618 Tb600 2.349 . S
O618 C602 1.261 . S
O619 Tb601 2.303 . S
O619 C602 1.257 . S
C620 O610 1.236 . S
C620 O611 1.257 . S
O621 Tb600 2.415 1_556 S
O621 C609 1.239 . S
O622 Tb600 2.399 1_556 S
O622 C609 1.263 . S
C623 O612 1.261 1_556 S
C623 O613 1.257 1_556 S
C624 C627 1.358 . S
C624 C628 1.332 . S
C624 C630 1.504 . S
C625 C626 1.373 . S
C625 C629 1.308 . S
C626 C625 1.373 . S
C626 C627 1.429 . S
C626 H636 0.932 . S
C627 C624 1.358 . S
C627 C626 1.429 . S
C627 H637 0.930 . S
C628 C624 1.332 . S
C628 C629 1.394 . S
C628 H638 0.932 . S
C629 C625 1.308 . S
C629 C628 1.394 . S
C629 H639 0.929 . S
C630 Tb601 2.764 . S
C630 O614 1.239 . S
C630 O615 1.263 . S
C630 C624 1.504 . S
C631 O616 1.236 . S
C631 O617 1.257 . S
H632 C605 0.932 . S
H633 C606 0.930 . S
H634 C607 0.932 . S
H635 C608 0.932 . S
H636 C626 0.932 . S
H637 C627 0.930 . S
H638 C628 0.932 . S
H639 C629 0.929 . S
Tb640 C649 2.764 . S
Tb640 O650 2.325 . S
Tb640 O653 2.303 . S
Tb640 O657 2.322 . S
Tb640 O658 2.349 . S
Tb640 O661 2.415 . S
Tb640 O662 2.399 . S
Tb641 O651 2.322 . S
Tb641 O652 2.349 . S
Tb641 O654 2.415 . S
Tb641 O655 2.399 . S
Tb641 O656 2.325 . S
Tb641 O659 2.303 . S
Tb641 C670 2.764 . S
C642 O658 1.261 . S
C642 O659 1.257 . S
C643 C646 1.358 . S
C643 C647 1.332 . S
C643 C649 1.504 . S
C644 C645 1.373 . S
C644 C648 1.308 . S
C645 C644 1.373 . S
C645 C646 1.429 . S
C645 H672 0.932 . S
C646 C643 1.358 . S
C646 C645 1.429 . S
C646 H673 0.930 . S
C647 C643 1.332 . S
C647 C648 1.394 . S
C647 H674 0.932 . S
C648 C644 1.308 . S
C648 C647 1.394 . S
C648 H675 0.929 . S
C649 Tb640 2.764 . S
C649 C643 1.504 . S
C649 O661 1.239 . S
C649 O662 1.263 . S
O650 Tb640 2.325 . S
O650 C660 1.236 . S
O651 Tb641 2.322 . S
O651 C660 1.257 . S
O652 Tb641 2.349 . S
O652 C663 1.261 . S
O653 Tb640 2.303 . S
O653 C663 1.257 . S
O654 Tb641 2.415 . S
O654 C670 1.239 . S
O655 Tb641 2.399 . S
O655 C670 1.263 . S
O656 Tb641 2.325 . S
O656 C671 1.236 . S
O657 Tb640 2.322 . S
O657 C671 1.257 . S
O658 Tb640 2.349 . S
O658 C642 1.261 . S
O659 Tb641 2.303 . S
O659 C642 1.257 . S
C660 O650 1.236 . S
C660 O651 1.257 . S
O661 Tb640 2.415 . S
O661 C649 1.239 . S
O662 Tb640 2.399 . S
O662 C649 1.263 . S
C663 O652 1.261 . S
C663 O653 1.257 . S
C664 C667 1.358 . S
C664 C668 1.332 . S
C664 C670 1.504 . S
C665 C666 1.373 . S
C665 C669 1.308 . S
C666 C665 1.373 . S
C666 C667 1.429 . S
C666 H676 0.932 . S
C667 C664 1.358 . S
C667 C666 1.429 . S
C667 H677 0.930 . S
C668 C664 1.332 . S
C668 C669 1.394 . S
C668 H678 0.932 . S
C669 C665 1.308 . S
C669 C668 1.394 . S
C669 H679 0.929 . S
C670 Tb641 2.764 . S
C670 O654 1.239 . S
C670 O655 1.263 . S
C670 C664 1.504 . S
C671 O656 1.236 . S
C671 O657 1.257 . S
H672 C645 0.932 . S
H673 C646 0.930 . S
H674 C647 0.932 . S
H675 C648 0.929 . S
H676 C666 0.932 . S
H677 C667 0.930 . S
H678 C668 0.932 . S
H679 C669 0.929 . S
Tb680 C689 2.764 . S
Tb680 O690 2.325 . S
Tb680 O693 2.303 . S
Tb680 O697 2.322 1_554 S
Tb680 O698 2.349 . S
Tb680 O701 2.415 . S
Tb680 O702 2.399 . S
Tb681 O691 2.322 . S
Tb681 O692 2.349 . S
Tb681 O694 2.415 1_554 S
Tb681 O695 2.399 1_554 S
Tb681 O696 2.325 1_554 S
Tb681 O699 2.303 . S
Tb681 C710 2.764 1_554 S
C682 O698 1.261 1_556 S
C682 O699 1.257 1_556 S
C683 C686 1.358 . S
C683 C687 1.332 . S
C683 C689 1.504 . S
C684 C685 1.373 . S
C684 C688 1.308 . S
C685 C684 1.373 . S
C685 C686 1.429 . S
C685 H712 0.932 . S
C686 C683 1.358 . S
C686 C685 1.429 . S
C686 H713 0.930 . S
C687 C683 1.332 . S
C687 C688 1.394 . S
C687 H714 0.932 . S
C688 C684 1.308 . S
C688 C687 1.394 . S
C688 H715 0.929 . S
C689 Tb680 2.764 . S
C689 C683 1.504 . S
C689 O701 1.239 . S
C689 O702 1.263 . S
O690 Tb680 2.325 . S
O690 C700 1.236 . S
O691 Tb681 2.322 . S
O691 C700 1.257 . S
O692 Tb681 2.349 . S
O692 C703 1.261 . S
O693 Tb680 2.303 . S
O693 C703 1.257 . S
O694 Tb681 2.415 1_556 S
O694 C710 1.239 . S
O695 Tb681 2.399 1_556 S
O695 C710 1.263 . S
O696 Tb681 2.325 1_556 S
O696 C711 1.236 . S
O697 Tb680 2.322 1_556 S
O697 C711 1.257 . S
O698 Tb680 2.349 . S
O698 C682 1.261 1_554 S
O699 Tb681 2.303 . S
O699 C682 1.257 1_554 S
C700 O690 1.236 . S
C700 O691 1.257 . S
O701 Tb680 2.415 . S
O701 C689 1.239 . S
O702 Tb680 2.399 . S
O702 C689 1.263 . S
C703 O692 1.261 . S
C703 O693 1.257 . S
C704 C707 1.358 . S
C704 C708 1.332 . S
C704 C710 1.504 . S
C705 C706 1.373 . S
C705 C709 1.308 . S
C706 C705 1.373 . S
C706 C707 1.429 . S
C706 H716 0.932 . S
C707 C704 1.358 . S
C707 C706 1.429 . S
C707 H717 0.930 . S
C708 C704 1.332 . S
C708 C709 1.394 . S
C708 H718 0.932 . S
C709 C705 1.308 . S
C709 C708 1.394 . S
C709 H719 0.929 . S
C710 Tb681 2.764 1_556 S
C710 O694 1.239 . S
C710 O695 1.263 . S
C710 C704 1.504 . S
C711 O696 1.236 . S
C711 O697 1.257 . S
H712 C685 0.932 . S
H713 C686 0.930 . S
H714 C687 0.932 . S
H715 C688 0.929 . S
H716 C706 0.932 . S
H717 C707 0.930 . S
H718 C708 0.932 . S
H719 C709 0.929 . S
Tb720 C729 2.764 . S
Tb720 O730 2.325 . S
Tb720 O733 2.303 . S
Tb720 O737 2.322 . S
Tb720 O738 2.349 . S
Tb720 O741 2.415 . S
Tb720 O742 2.399 . S
Tb721 O731 2.322 . S
Tb721 O732 2.349 . S
Tb721 O734 2.415 . S
Tb721 O735 2.399 . S
Tb721 O736 2.325 . S
Tb721 O739 2.303 . S
Tb721 C750 2.764 . S
C722 O738 1.261 . S
C722 O739 1.257 . S
C723 C726 1.358 . S
C723 C727 1.332 . S
C723 C729 1.504 . S
C724 C725 1.373 . S
C724 C728 1.308 1_455 S
C725 C724 1.373 . S
C725 C726 1.429 1_455 S
C725 H752 0.932 . S
C726 C723 1.358 . S
C726 C725 1.429 1_655 S
C726 H753 0.930 . S
C727 C723 1.332 . S
C727 C728 1.394 . S
C727 H754 0.932 . S
C728 C724 1.308 1_655 S
C728 C727 1.394 . S
C728 H755 0.929 . S
C729 Tb720 2.764 . S
C729 C723 1.504 . S
C729 O741 1.239 . S
C729 O742 1.263 . S
O730 Tb720 2.325 . S
O730 C740 1.236 . S
O731 Tb721 2.322 . S
O731 C740 1.257 . S
O732 Tb721 2.349 . S
O732 C743 1.261 . S
O733 Tb720 2.303 . S
O733 C743 1.257 . S
O734 Tb721 2.415 . S
O734 C750 1.239 . S
O735 Tb721 2.399 . S
O735 C750 1.263 . S
O736 Tb721 2.325 . S
O736 C751 1.236 . S
O737 Tb720 2.322 . S
O737 C751 1.257 . S
O738 Tb720 2.349 . S
O738 C722 1.261 . S
O739 Tb721 2.303 . S
O739 C722 1.257 . S
C740 O730 1.236 . S
C740 O731 1.257 . S
O741 Tb720 2.415 . S
O741 C729 1.239 . S
O742 Tb720 2.399 . S
O742 C729 1.263 . S
C743 O732 1.261 . S
C743 O733 1.257 . S
C744 C747 1.358 . S
C744 C748 1.332 . S
C744 C750 1.504 . S
C745 C746 1.373 . S
C745 C749 1.308 . S
C746 C745 1.373 . S
C746 C747 1.429 . S
C746 H756 0.932 . S
C747 C744 1.358 . S
C747 C746 1.429 . S
C747 H757 0.930 . S
C748 C744 1.332 . S
C748 C749 1.394 . S
C748 H758 0.932 . S
C749 C745 1.308 . S
C749 C748 1.394 . S
C749 H759 0.929 . S
C750 Tb721 2.764 . S
C750 O734 1.239 . S
C750 O735 1.263 . S
C750 C744 1.504 . S
C751 O736 1.236 . S
C751 O737 1.257 . S
H752 C725 0.932 . S
H753 C726 0.930 . S
H754 C727 0.932 . S
H755 C728 0.929 . S
H756 C746 0.932 . S
H757 C747 0.930 . S
H758 C748 0.932 . S
H759 C749 0.929 . S
Tb760 C769 2.764 . S
Tb760 O770 2.325 . S
Tb760 O773 2.303 . S
Tb760 O777 2.322 . S
Tb760 O778 2.349 . S
Tb760 O781 2.415 . S
Tb760 O782 2.399 . S
Tb761 O771 2.322 . S
Tb761 O772 2.349 . S
Tb761 O774 2.415 . S
Tb761 O775 2.399 . S
Tb761 O776 2.325 . S
Tb761 O779 2.303 . S
Tb761 C790 2.764 . S
C762 O778 1.261 . S
C762 O779 1.257 . S
C763 C766 1.358 . S
C763 C767 1.332 . S
C763 C769 1.504 . S
C764 C765 1.373 . S
C764 C768 1.308 . S
C765 C764 1.373 . S
C765 C766 1.429 . S
C765 H792 0.932 . S
C766 C763 1.358 . S
C766 C765 1.429 . S
C766 H793 0.930 . S
C767 C763 1.332 . S
C767 C768 1.394 . S
C767 H794 0.932 . S
C768 C764 1.308 . S
C768 C767 1.394 . S
C768 H795 0.929 . S
C769 Tb760 2.764 . S
C769 C763 1.504 . S
C769 O781 1.239 . S
C769 O782 1.263 . S
O770 Tb760 2.325 . S
O770 C780 1.236 . S
O771 Tb761 2.322 . S
O771 C780 1.257 . S
O772 Tb761 2.349 . S
O772 C783 1.261 . S
O773 Tb760 2.303 . S
O773 C783 1.257 . S
O774 Tb761 2.415 . S
O774 C790 1.239 . S
O775 Tb761 2.399 . S
O775 C790 1.263 . S
O776 Tb761 2.325 . S
O776 C791 1.236 . S
O777 Tb760 2.322 . S
O777 C791 1.257 . S
O778 Tb760 2.349 . S
O778 C762 1.261 . S
O779 Tb761 2.303 . S
O779 C762 1.257 . S
C780 O770 1.236 . S
C780 O771 1.257 . S
O781 Tb760 2.415 . S
O781 C769 1.239 . S
O782 Tb760 2.399 . S
O782 C769 1.263 . S
C783 O772 1.261 . S
C783 O773 1.257 . S
C784 C787 1.358 . S
C784 C788 1.332 . S
C784 C790 1.504 . S
C785 C786 1.373 . S
C785 C789 1.308 . S
C786 C785 1.373 . S
C786 C787 1.429 . S
C786 H796 0.932 . S
C787 C784 1.358 . S
C787 C786 1.429 . S
C787 H797 0.930 . S
C788 C784 1.332 . S
C788 C789 1.394 . S
C788 H798 0.932 . S
C789 C785 1.308 . S
C789 C788 1.394 . S
C789 H799 0.929 . S
C790 Tb761 2.764 . S
C790 O774 1.239 . S
C790 O775 1.263 . S
C790 C784 1.504 . S
C791 O776 1.236 . S
C791 O777 1.257 . S
H792 C765 0.932 . S
H793 C766 0.930 . S
H794 C767 0.932 . S
H795 C768 0.929 . S
H796 C786 0.932 . S
H797 C787 0.930 . S
H798 C788 0.932 . S
H799 C789 0.929 . S
Tb800 C809 2.764 . S
Tb800 O810 2.325 . S
Tb800 O813 2.303 . S
Tb800 O817 2.322 . S
Tb800 O818 2.349 . S
Tb800 O821 2.415 . S
Tb800 O822 2.399 . S
Tb801 O811 2.322 . S
Tb801 O812 2.349 . S
Tb801 O814 2.415 . S
Tb801 O815 2.399 . S
Tb801 O816 2.325 . S
Tb801 O819 2.303 . S
Tb801 C830 2.764 . S
C802 O818 1.261 . S
C802 O819 1.257 . S
C803 C806 1.358 . S
C803 C807 1.332 . S
C803 C809 1.504 . S
C804 C805 1.373 . S
C804 C808 1.308 . S
C805 C804 1.373 . S
C805 C806 1.429 . S
C805 H832 0.932 . S
C806 C803 1.358 . S
C806 C805 1.429 . S
C806 H833 0.930 . S
C807 C803 1.332 . S
C807 C808 1.394 . S
C807 H834 0.932 . S
C808 C804 1.308 . S
C808 C807 1.394 . S
C808 H835 0.929 . S
C809 Tb800 2.764 . S
C809 C803 1.504 . S
C809 O821 1.239 . S
C809 O822 1.263 . S
O810 Tb800 2.325 . S
O810 C820 1.236 . S
O811 Tb801 2.322 . S
O811 C820 1.257 . S
O812 Tb801 2.349 . S
O812 C823 1.261 . S
O813 Tb800 2.303 . S
O813 C823 1.257 . S
O814 Tb801 2.415 . S
O814 C830 1.239 . S
O815 Tb801 2.399 . S
O815 C830 1.263 . S
O816 Tb801 2.325 . S
O816 C831 1.236 . S
O817 Tb800 2.322 . S
O817 C831 1.257 . S
O818 Tb800 2.349 . S
O818 C802 1.261 . S
O819 Tb801 2.303 . S
O819 C802 1.257 . S
C820 O810 1.236 . S
C820 O811 1.257 . S
O821 Tb800 2.415 . S
O821 C809 1.239 . S
O822 Tb800 2.399 . S
O822 C809 1.263 . S
C823 O812 1.261 . S
C823 O813 1.257 . S
C824 C827 1.358 . S
C824 C828 1.332 . S
C824 C830 1.504 . S
C825 C826 1.373 . S
C825 C829 1.308 . S
C826 C825 1.373 . S
C826 C827 1.429 . S
C826 H836 0.932 . S
C827 C824 1.358 . S
C827 C826 1.429 . S
C827 H837 0.930 . S
C828 C824 1.332 . S
C828 C829 1.394 . S
C828 H838 0.932 . S
C829 C825 1.308 . S
C829 C828 1.394 . S
C829 H839 0.929 . S
C830 Tb801 2.764 . S
C830 O814 1.239 . S
C830 O815 1.263 . S
C830 C824 1.504 . S
C831 O816 1.236 . S
C831 O817 1.257 . S
H832 C805 0.932 . S
H833 C806 0.930 . S
H834 C807 0.932 . S
H835 C808 0.929 . S
H836 C826 0.932 . S
H837 C827 0.930 . S
H838 C828 0.932 . S
H839 C829 0.929 . S
Tb840 C849 2.764 . S
Tb840 O850 2.325 . S
Tb840 O853 2.303 . S
Tb840 O857 2.322 1_556 S
Tb840 O858 2.349 . S
Tb840 O861 2.415 . S
Tb840 O862 2.399 . S
Tb841 O851 2.322 . S
Tb841 O852 2.349 . S
Tb841 O854 2.415 1_556 S
Tb841 O855 2.399 1_556 S
Tb841 O856 2.325 1_556 S
Tb841 O859 2.303 . S
Tb841 C870 2.764 1_556 S
C842 O858 1.261 1_554 S
C842 O859 1.257 1_554 S
C843 C846 1.358 . S
C843 C847 1.332 . S
C843 C849 1.504 . S
C844 C845 1.373 . S
C844 C848 1.308 . S
C845 C844 1.373 . S
C845 C846 1.429 . S
C845 H872 0.932 . S
C846 C843 1.358 . S
C846 C845 1.429 . S
C846 H873 0.930 . S
C847 C843 1.332 . S
C847 C848 1.394 . S
C847 H874 0.932 . S
C848 C844 1.308 . S
C848 C847 1.394 . S
C848 H875 0.929 . S
C849 Tb840 2.764 . S
C849 C843 1.504 . S
C849 O861 1.239 . S
C849 O862 1.263 . S
O850 Tb840 2.325 . S
O850 C860 1.236 . S
O851 Tb841 2.322 . S
O851 C860 1.257 . S
O852 Tb841 2.349 . S
O852 C863 1.261 . S
O853 Tb840 2.303 . S
O853 C863 1.257 . S
O854 Tb841 2.415 1_554 S
O854 C870 1.239 . S
O855 Tb841 2.399 1_554 S
O855 C870 1.263 . S
O856 Tb841 2.325 1_554 S
O856 C871 1.236 . S
O857 Tb840 2.322 1_554 S
O857 C871 1.257 . S
O858 Tb840 2.349 . S
O858 C842 1.261 1_556 S
O859 Tb841 2.303 . S
O859 C842 1.257 1_556 S
C860 O850 1.236 . S
C860 O851 1.257 . S
O861 Tb840 2.415 . S
O861 C849 1.239 . S
O862 Tb840 2.399 . S
O862 C849 1.263 . S
C863 O852 1.261 . S
C863 O853 1.257 . S
C864 C867 1.358 . S
C864 C868 1.332 . S
C864 C870 1.504 . S
C865 C866 1.373 . S
C865 C869 1.308 . S
C866 C865 1.373 . S
C866 C867 1.429 . S
C866 H876 0.932 . S
C867 C864 1.358 . S
C867 C866 1.429 . S
C867 H877 0.930 . S
C868 C864 1.332 . S
C868 C869 1.394 . S
C868 H878 0.932 . S
C869 C865 1.308 . S
C869 C868 1.394 . S
C869 H879 0.929 . S
C870 Tb841 2.764 1_554 S
C870 O854 1.239 . S
C870 O855 1.263 . S
C870 C864 1.504 . S
C871 O856 1.236 . S
C871 O857 1.257 . S
H872 C845 0.932 . S
H873 C846 0.930 . S
H874 C847 0.932 . S
H875 C848 0.929 . S
H876 C866 0.932 . S
H877 C867 0.930 . S
H878 C868 0.932 . S
H879 C869 0.929 . S
Tb880 C889 2.764 . S
Tb880 O890 2.325 . S
Tb880 O893 2.303 . S
Tb880 O897 2.322 . S
Tb880 O898 2.349 . S
Tb880 O901 2.415 . S
Tb880 O902 2.399 . S
Tb881 O891 2.322 . S
Tb881 O892 2.349 . S
Tb881 O894 2.415 . S
Tb881 O895 2.399 . S
Tb881 O896 2.325 . S
Tb881 O899 2.303 . S
Tb881 C910 2.764 . S
C882 O898 1.261 . S
C882 O899 1.257 . S
C883 C886 1.358 . S
C883 C887 1.332 . S
C883 C889 1.504 . S
C884 C885 1.373 . S
C884 C888 1.308 1_455 S
C885 C884 1.373 . S
C885 C886 1.429 1_455 S
C885 H912 0.932 . S
C886 C883 1.358 . S
C886 C885 1.429 1_655 S
C886 H913 0.930 . S
C887 C883 1.332 . S
C887 C888 1.394 . S
C887 H914 0.932 . S
C888 C884 1.308 1_655 S
C888 C887 1.394 . S
C888 H915 0.929 . S
C889 Tb880 2.764 . S
C889 C883 1.504 . S
C889 O901 1.239 . S
C889 O902 1.263 . S
O890 Tb880 2.325 . S
O890 C900 1.236 . S
O891 Tb881 2.322 . S
O891 C900 1.257 . S
O892 Tb881 2.349 . S
O892 C903 1.261 . S
O893 Tb880 2.303 . S
O893 C903 1.257 . S
O894 Tb881 2.415 . S
O894 C910 1.239 . S
O895 Tb881 2.399 . S
O895 C910 1.263 . S
O896 Tb881 2.325 . S
O896 C911 1.236 . S
O897 Tb880 2.322 . S
O897 C911 1.257 . S
O898 Tb880 2.349 . S
O898 C882 1.261 . S
O899 Tb881 2.303 . S
O899 C882 1.257 . S
C900 O890 1.236 . S
C900 O891 1.257 . S
O901 Tb880 2.415 . S
O901 C889 1.239 . S
O902 Tb880 2.399 . S
O902 C889 1.263 . S
C903 O892 1.261 . S
C903 O893 1.257 . S
C904 C907 1.358 . S
C904 C908 1.332 . S
C904 C910 1.504 . S
C905 C906 1.373 . S
C905 C909 1.308 . S
C906 C905 1.373 . S
C906 C907 1.429 . S
C906 H916 0.932 . S
C907 C904 1.358 . S
C907 C906 1.429 . S
C907 H917 0.930 . S
C908 C904 1.332 . S
C908 C909 1.394 . S
C908 H918 0.932 . S
C909 C905 1.308 . S
C909 C908 1.394 . S
C909 H919 0.929 . S
C910 Tb881 2.764 . S
C910 O894 1.239 . S
C910 O895 1.263 . S
C910 C904 1.504 . S
C911 O896 1.236 . S
C911 O897 1.257 . S
H912 C885 0.932 . S
H913 C886 0.930 . S
H914 C887 0.932 . S
H915 C888 0.929 . S
H916 C906 0.932 . S
H917 C907 0.930 . S
H918 C908 0.932 . S
H919 C909 0.929 . S
Tb920 C929 2.764 . S
Tb920 O930 2.325 . S
Tb920 O933 2.303 . S
Tb920 O937 2.322 . S
Tb920 O938 2.349 . S
Tb920 O941 2.415 . S
Tb920 O942 2.399 . S
Tb921 O931 2.322 . S
Tb921 O932 2.349 . S
Tb921 O934 2.415 . S
Tb921 O935 2.399 . S
Tb921 O936 2.325 . S
Tb921 O939 2.303 . S
Tb921 C950 2.764 . S
C922 O938 1.261 . S
C922 O939 1.257 . S
C923 C926 1.358 . S
C923 C927 1.332 . S
C923 C929 1.504 . S
C924 C925 1.373 . S
C924 C928 1.308 . S
C925 C924 1.373 . S
C925 C926 1.429 . S
C925 H952 0.932 . S
C926 C923 1.358 . S
C926 C925 1.429 . S
C926 H953 0.930 . S
C927 C923 1.332 . S
C927 C928 1.394 . S
C927 H954 0.932 . S
C928 C924 1.308 . S
C928 C927 1.394 . S
C928 H955 0.929 . S
C929 Tb920 2.764 . S
C929 C923 1.504 . S
C929 O941 1.239 . S
C929 O942 1.263 . S
O930 Tb920 2.325 . S
O930 C940 1.236 . S
O931 Tb921 2.322 . S
O931 C940 1.257 . S
O932 Tb921 2.349 . S
O932 C943 1.261 . S
O933 Tb920 2.303 . S
O933 C943 1.257 . S
O934 Tb921 2.415 . S
O934 C950 1.239 . S
O935 Tb921 2.399 . S
O935 C950 1.263 . S
O936 Tb921 2.325 . S
O936 C951 1.236 . S
O937 Tb920 2.322 . S
O937 C951 1.257 . S
O938 Tb920 2.349 . S
O938 C922 1.261 . S
O939 Tb921 2.303 . S
O939 C922 1.257 . S
C940 O930 1.236 . S
C940 O931 1.257 . S
O941 Tb920 2.415 . S
O941 C929 1.239 . S
O942 Tb920 2.399 . S
O942 C929 1.263 . S
C943 O932 1.261 . S
C943 O933 1.257 . S
C944 C947 1.358 . S
C944 C948 1.332 . S
C944 C950 1.504 . S
C945 C946 1.373 . S
C945 C949 1.308 . S
C946 C945 1.373 . S
C946 C947 1.429 . S
C946 H956 0.932 . S
C947 C944 1.358 . S
C947 C946 1.429 . S
C947 H957 0.930 . S
C948 C944 1.332 . S
C948 C949 1.394 . S
C948 H958 0.932 . S
C949 C945 1.308 . S
C949 C948 1.394 . S
C949 H959 0.929 . S
C950 Tb921 2.764 . S
C950 O934 1.239 . S
C950 O935 1.263 . S
C950 C944 1.504 . S
C951 O936 1.236 . S
C951 O937 1.257 . S
H952 C925 0.932 . S
H953 C926 0.930 . S
H954 C927 0.932 . S
H955 C928 0.929 . S
H956 C946 0.932 . S
H957 C947 0.930 . S
H958 C948 0.932 . S
H959 C949 0.929 . S
Tb960 C969 2.764 . S
Tb960 O970 2.325 . S
Tb960 O973 2.303 . S
Tb960 O977 2.322 . S
Tb960 O978 2.349 . S
Tb960 O981 2.415 . S
Tb960 O982 2.399 . S
Tb961 O971 2.322 . S
Tb961 O972 2.349 . S
Tb961 O974 2.415 . S
Tb961 O975 2.399 . S
Tb961 O976 2.325 . S
Tb961 O979 2.303 . S
Tb961 C990 2.764 . S
C962 O978 1.261 . S
C962 O979 1.257 . S
C963 C966 1.358 . S
C963 C967 1.332 . S
C963 C969 1.504 . S
C964 C965 1.373 . S
C964 C968 1.308 . S
C965 C964 1.373 . S
C965 C966 1.429 . S
C965 H992 0.932 . S
C966 C963 1.358 . S
C966 C965 1.429 . S
C966 H993 0.930 . S
C967 C963 1.332 . S
C967 C968 1.394 . S
C967 H994 0.932 . S
C968 C964 1.308 . S
C968 C967 1.394 . S
C968 H995 0.929 . S
C969 Tb960 2.764 . S
C969 C963 1.504 . S
C969 O981 1.239 . S
C969 O982 1.263 . S
O970 Tb960 2.325 . S
O970 C980 1.236 . S
O971 Tb961 2.322 . S
O971 C980 1.257 . S
O972 Tb961 2.349 . S
O972 C983 1.261 . S
O973 Tb960 2.303 . S
O973 C983 1.257 . S
O974 Tb961 2.415 . S
O974 C990 1.239 . S
O975 Tb961 2.399 . S
O975 C990 1.263 . S
O976 Tb961 2.325 . S
O976 C991 1.236 . S
O977 Tb960 2.322 . S
O977 C991 1.257 . S
O978 Tb960 2.349 . S
O978 C962 1.261 . S
O979 Tb961 2.303 . S
O979 C962 1.257 . S
C980 O970 1.236 . S
C980 O971 1.257 . S
O981 Tb960 2.415 . S
O981 C969 1.239 . S
O982 Tb960 2.399 . S
O982 C969 1.263 . S
C983 O972 1.261 . S
C983 O973 1.257 . S
C984 C987 1.358 . S
C984 C988 1.332 . S
C984 C990 1.504 . S
C985 C986 1.373 . S
C985 C989 1.308 . S
C986 C985 1.373 . S
C986 C987 1.429 . S
C986 H996 0.932 . S
C987 C984 1.358 . S
C987 C986 1.429 . S
C987 H997 0.930 . S
C988 C984 1.332 . S
C988 C989 1.394 . S
C988 H998 0.932 . S
C989 C985 1.308 . S
C989 C988 1.394 . S
C989 H999 0.929 . S
C990 Tb961 2.764 . S
C990 O974 1.239 . S
C990 O975 1.263 . S
C990 C984 1.504 . S
C991 O976 1.236 . S
C991 O977 1.257 . S
H992 C965 0.932 . S
H993 C966 0.930 . S
H994 C967 0.932 . S
H995 C968 0.929 . S
H996 C986 0.932 . S
H997 C987 0.930 . S
H998 C988 0.932 . S
H999 C989 0.929 . S
Tb1000 C1009 2.764 1_556 S
Tb1000 O1010 2.325 1_556 S
Tb1000 O1013 2.303 . S
Tb1000 O1017 2.322 . S
Tb1000 O1018 2.349 . S
Tb1000 O1021 2.415 1_556 S
Tb1000 O1022 2.399 1_556 S
Tb1001 O1011 2.322 1_556 S
Tb1001 O1012 2.349 . S
Tb1001 O1014 2.415 . S
Tb1001 O1015 2.399 . S
Tb1001 O1016 2.325 . S
Tb1001 O1019 2.303 . S
Tb1001 C1030 2.764 . S
C1002 O1018 1.261 . S
C1002 O1019 1.257 . S
C1003 C1006 1.358 . S
C1003 C1007 1.332 . S
C1003 C1009 1.504 . S
C1004 C1005 1.373 . S
C1004 C1008 1.308 . S
C1005 C1004 1.373 . S
C1005 C1006 1.429 . S
C1005 H1032 0.932 . S
C1006 C1003 1.358 . S
C1006 C1005 1.429 . S
C1006 H1033 0.930 . S
C1007 C1003 1.332 . S
C1007 C1008 1.394 . S
C1007 H1034 0.932 . S
C1008 C1004 1.308 . S
C1008 C1007 1.394 . S
C1008 H1035 0.929 . S
C1009 Tb1000 2.764 1_554 S
C1009 C1003 1.504 . S
C1009 O1021 1.239 . S
C1009 O1022 1.263 . S
O1010 Tb1000 2.325 1_554 S
O1010 C1020 1.236 . S
O1011 Tb1001 2.322 1_554 S
O1011 C1020 1.257 . S
O1012 Tb1001 2.349 . S
O1012 C1023 1.261 1_556 S
O1013 Tb1000 2.303 . S
O1013 C1023 1.257 1_556 S
O1014 Tb1001 2.415 . S
O1014 C1030 1.239 . S
O1015 Tb1001 2.399 . S
O1015 C1030 1.263 . S
O1016 Tb1001 2.325 . S
O1016 C1031 1.236 . S
O1017 Tb1000 2.322 . S
O1017 C1031 1.257 . S
O1018 Tb1000 2.349 . S
O1018 C1002 1.261 . S
O1019 Tb1001 2.303 . S
O1019 C1002 1.257 . S
C1020 O1010 1.236 . S
C1020 O1011 1.257 . S
O1021 Tb1000 2.415 1_554 S
O1021 C1009 1.239 . S
O1022 Tb1000 2.399 1_554 S
O1022 C1009 1.263 . S
C1023 O1012 1.261 1_554 S
C1023 O1013 1.257 1_554 S
C1024 C1027 1.358 . S
C1024 C1028 1.332 . S
C1024 C1030 1.504 . S
C1025 C1026 1.373 . S
C1025 C1029 1.308 . S
C1026 C1025 1.373 . S
C1026 C1027 1.429 . S
C1026 H1036 0.932 . S
C1027 C1024 1.358 . S
C1027 C1026 1.429 . S
C1027 H1037 0.930 . S
C1028 C1024 1.332 . S
C1028 C1029 1.394 . S
C1028 H1038 0.932 . S
C1029 C1025 1.308 . S
C1029 C1028 1.394 . S
C1029 H1039 0.929 . S
C1030 Tb1001 2.764 . S
C1030 O1014 1.239 . S
C1030 O1015 1.263 . S
C1030 C1024 1.504 . S
C1031 O1016 1.236 . S
C1031 O1017 1.257 . S
H1032 C1005 0.932 . S
H1033 C1006 0.930 . S
H1034 C1007 0.932 . S
H1035 C1008 0.929 . S
H1036 C1026 0.932 . S
H1037 C1027 0.930 . S
H1038 C1028 0.932 . S
H1039 C1029 0.929 . S
Tb1040 C1049 2.764 . S
Tb1040 O1050 2.325 . S
Tb1040 O1053 2.303 . S
Tb1040 O1057 2.322 . S
Tb1040 O1058 2.349 . S
Tb1040 O1061 2.415 . S
Tb1040 O1062 2.399 . S
Tb1041 O1051 2.322 . S
Tb1041 O1052 2.349 . S
Tb1041 O1054 2.415 . S
Tb1041 O1055 2.399 . S
Tb1041 O1056 2.325 . S
Tb1041 O1059 2.303 . S
Tb1041 C1070 2.764 . S
C1042 O1058 1.261 . S
C1042 O1059 1.257 . S
C1043 C1046 1.358 . S
C1043 C1047 1.332 . S
C1043 C1049 1.504 . S
C1044 C1045 1.373 . S
C1044 C1048 1.308 . S
C1045 C1044 1.373 . S
C1045 C1046 1.429 . S
C1045 H1072 0.932 . S
C1046 C1043 1.358 . S
C1046 C1045 1.429 . S
C1046 H1073 0.930 . S
C1047 C1043 1.332 . S
C1047 C1048 1.394 . S
C1047 H1074 0.932 . S
C1048 C1044 1.308 . S
C1048 C1047 1.394 . S
C1048 H1075 0.929 . S
C1049 Tb1040 2.764 . S
C1049 C1043 1.504 . S
C1049 O1061 1.239 . S
C1049 O1062 1.263 . S
O1050 Tb1040 2.325 . S
O1050 C1060 1.236 . S
O1051 Tb1041 2.322 . S
O1051 C1060 1.257 . S
O1052 Tb1041 2.349 . S
O1052 C1063 1.261 . S
O1053 Tb1040 2.303 . S
O1053 C1063 1.257 . S
O1054 Tb1041 2.415 . S
O1054 C1070 1.239 . S
O1055 Tb1041 2.399 . S
O1055 C1070 1.263 . S
O1056 Tb1041 2.325 . S
O1056 C1071 1.236 . S
O1057 Tb1040 2.322 . S
O1057 C1071 1.257 . S
O1058 Tb1040 2.349 . S
O1058 C1042 1.261 . S
O1059 Tb1041 2.303 . S
O1059 C1042 1.257 . S
C1060 O1050 1.236 . S
C1060 O1051 1.257 . S
O1061 Tb1040 2.415 . S
O1061 C1049 1.239 . S
O1062 Tb1040 2.399 . S
O1062 C1049 1.263 . S
C1063 O1052 1.261 . S
C1063 O1053 1.257 . S
C1064 C1067 1.358 . S
C1064 C1068 1.332 . S
C1064 C1070 1.504 . S
C1065 C1066 1.373 . S
C1065 C1069 1.308 1_655 S
C1066 C1065 1.373 . S
C1066 C1067 1.429 1_655 S
C1066 H1076 0.932 . S
C1067 C1064 1.358 . S
C1067 C1066 1.429 1_455 S
C1067 H1077 0.930 . S
C1068 C1064 1.332 . S
C1068 C1069 1.394 . S
C1068 H1078 0.932 . S
C1069 C1065 1.308 1_455 S
C1069 C1068 1.394 . S
C1069 H1079 0.929 . S
C1070 Tb1041 2.764 . S
C1070 O1054 1.239 . S
C1070 O1055 1.263 . S
C1070 C1064 1.504 . S
C1071 O1056 1.236 . S
C1071 O1057 1.257 . S
H1072 C1045 0.932 . S
H1073 C1046 0.930 . S
H1074 C1047 0.932 . S
H1075 C1048 0.929 . S
H1076 C1066 0.932 . S
H1077 C1067 0.930 . S
H1078 C1068 0.932 . S
H1079 C1069 0.929 . S
Tb1080 C1089 2.764 . S
Tb1080 O1090 2.325 . S
Tb1080 O1093 2.303 . S
Tb1080 O1097 2.322 . S
Tb1080 O1098 2.349 . S
Tb1080 O1101 2.415 . S
Tb1080 O1102 2.399 . S
Tb1081 O1091 2.322 . S
Tb1081 O1092 2.349 . S
Tb1081 O1094 2.415 . S
Tb1081 O1095 2.399 . S
Tb1081 O1096 2.325 . S
Tb1081 O1099 2.303 . S
Tb1081 C1110 2.764 . S
C1082 O1098 1.261 . S
C1082 O1099 1.257 . S
C1083 C1086 1.358 . S
C1083 C1087 1.332 . S
C1083 C1089 1.504 . S
C1084 C1085 1.373 . S
C1084 C1088 1.308 . S
C1085 C1084 1.373 . S
C1085 C1086 1.429 . S
C1085 H1112 0.932 . S
C1086 C1083 1.358 . S
C1086 C1085 1.429 . S
C1086 H1113 0.930 . S
C1087 C1083 1.332 . S
C1087 C1088 1.394 . S
C1087 H1114 0.932 . S
C1088 C1084 1.308 . S
C1088 C1087 1.394 . S
C1088 H1115 0.929 . S
C1089 Tb1080 2.764 . S
C1089 C1083 1.504 . S
C1089 O1101 1.239 . S
C1089 O1102 1.263 . S
O1090 Tb1080 2.325 . S
O1090 C1100 1.236 . S
O1091 Tb1081 2.322 . S
O1091 C1100 1.257 . S
O1092 Tb1081 2.349 . S
O1092 C1103 1.261 . S
O1093 Tb1080 2.303 . S
O1093 C1103 1.257 . S
O1094 Tb1081 2.415 . S
O1094 C1110 1.239 . S
O1095 Tb1081 2.399 . S
O1095 C1110 1.263 . S
O1096 Tb1081 2.325 . S
O1096 C1111 1.236 . S
O1097 Tb1080 2.322 . S
O1097 C1111 1.257 . S
O1098 Tb1080 2.349 . S
O1098 C1082 1.261 . S
O1099 Tb1081 2.303 . S
O1099 C1082 1.257 . S
C1100 O1090 1.236 . S
C1100 O1091 1.257 . S
O1101 Tb1080 2.415 . S
O1101 C1089 1.239 . S
O1102 Tb1080 2.399 . S
O1102 C1089 1.263 . S
C1103 O1092 1.261 . S
C1103 O1093 1.257 . S
C1104 C1107 1.358 . S
C1104 C1108 1.332 . S
C1104 C1110 1.504 . S
C1105 C1106 1.373 . S
C1105 C1109 1.308 . S
C1106 C1105 1.373 . S
C1106 C1107 1.429 . S
C1106 H1116 0.932 . S
C1107 C1104 1.358 . S
C1107 C1106 1.429 . S
C1107 H1117 0.930 . S
C1108 C1104 1.332 . S
C1108 C1109 1.394 . S
C1108 H1118 0.932 . S
C1109 C1105 1.308 . S
C1109 C1108 1.394 . S
C1109 H1119 0.929 . S
C1110 Tb1081 2.764 . S
C1110 O1094 1.239 . S
C1110 O1095 1.263 . S
C1110 C1104 1.504 . S
C1111 O1096 1.236 . S
C1111 O1097 1.257 . S
H1112 C1085 0.932 . S
H1113 C1086 0.930 . S
H1114 C1087 0.932 . S
H1115 C1088 0.929 . S
H1116 C1106 0.932 . S
H1117 C1107 0.930 . S
H1118 C1108 0.932 . S
H1119 C1109 0.929 . S
Tb1120 C1129 2.764 . S
Tb1120 O1130 2.325 . S
Tb1120 O1133 2.303 . S
Tb1120 O1137 2.322 . S
Tb1120 O1138 2.349 . S
Tb1120 O1141 2.415 . S
Tb1120 O1142 2.399 . S
Tb1121 O1131 2.322 . S
Tb1121 O1132 2.349 . S
Tb1121 O1134 2.415 . S
Tb1121 O1135 2.399 . S
Tb1121 O1136 2.325 . S
Tb1121 O1139 2.303 . S
Tb1121 C1150 2.764 . S
C1122 O1138 1.261 . S
C1122 O1139 1.257 . S
C1123 C1126 1.358 . S
C1123 C1127 1.332 . S
C1123 C1129 1.504 . S
C1124 C1125 1.373 . S
C1124 C1128 1.308 . S
C1125 C1124 1.373 . S
C1125 C1126 1.429 . S
C1125 H1152 0.932 . S
C1126 C1123 1.358 . S
C1126 C1125 1.429 . S
C1126 H1153 0.930 . S
C1127 C1123 1.332 . S
C1127 C1128 1.394 . S
C1127 H1154 0.932 . S
C1128 C1124 1.308 . S
C1128 C1127 1.394 . S
C1128 H1155 0.929 . S
C1129 Tb1120 2.764 . S
C1129 C1123 1.504 . S
C1129 O1141 1.239 . S
C1129 O1142 1.263 . S
O1130 Tb1120 2.325 . S
O1130 C1140 1.236 . S
O1131 Tb1121 2.322 . S
O1131 C1140 1.257 . S
O1132 Tb1121 2.349 . S
O1132 C1143 1.261 . S
O1133 Tb1120 2.303 . S
O1133 C1143 1.257 . S
O1134 Tb1121 2.415 . S
O1134 C1150 1.239 . S
O1135 Tb1121 2.399 . S
O1135 C1150 1.263 . S
O1136 Tb1121 2.325 . S
O1136 C1151 1.236 . S
O1137 Tb1120 2.322 . S
O1137 C1151 1.257 . S
O1138 Tb1120 2.349 . S
O1138 C1122 1.261 . S
O1139 Tb1121 2.303 . S
O1139 C1122 1.257 . S
C1140 O1130 1.236 . S
C1140 O1131 1.257 . S
O1141 Tb1120 2.415 . S
O1141 C1129 1.239 . S
O1142 Tb1120 2.399 . S
O1142 C1129 1.263 . S
C1143 O1132 1.261 . S
C1143 O1133 1.257 . S
C1144 C1147 1.358 . S
C1144 C1148 1.332 . S
C1144 C1150 1.504 . S
C1145 C1146 1.373 . S
C1145 C1149 1.308 . S
C1146 C1145 1.373 . S
C1146 C1147 1.429 . S
C1146 H1156 0.932 . S
C1147 C1144 1.358 . S
C1147 C1146 1.429 . S
C1147 H1157 0.930 . S
C1148 C1144 1.332 . S
C1148 C1149 1.394 . S
C1148 H1158 0.932 . S
C1149 C1145 1.308 . S
C1149 C1148 1.394 . S
C1149 H1159 0.929 . S
C1150 Tb1121 2.764 . S
C1150 O1134 1.239 . S
C1150 O1135 1.263 . S
C1150 C1144 1.504 . S
C1151 O1136 1.236 . S
C1151 O1137 1.257 . S
H1152 C1125 0.932 . S
H1153 C1126 0.930 . S
H1154 C1127 0.932 . S
H1155 C1128 0.929 . S
H1156 C1146 0.932 . S
H1157 C1147 0.930 . S
H1158 C1148 0.932 . S
H1159 C1149 0.929 . S
Tb1160 C1169 2.764 1_554 S
Tb1160 O1170 2.325 1_554 S
Tb1160 O1173 2.303 . S
Tb1160 O1177 2.322 . S
Tb1160 O1178 2.349 . S
Tb1160 O1181 2.415 1_554 S
Tb1160 O1182 2.399 1_554 S
Tb1161 O1171 2.322 1_554 S
Tb1161 O1172 2.349 . S
Tb1161 O1174 2.415 . S
Tb1161 O1175 2.399 . S
Tb1161 O1176 2.325 . S
Tb1161 O1179 2.303 . S
Tb1161 C1190 2.764 . S
C1162 O1178 1.261 . S
C1162 O1179 1.257 . S
C1163 C1166 1.358 . S
C1163 C1167 1.332 . S
C1163 C1169 1.504 . S
C1164 C1165 1.373 . S
C1164 C1168 1.308 . S
C1165 C1164 1.373 . S
C1165 C1166 1.429 . S
C1165 H1192 0.932 . S
C1166 C1163 1.358 . S
C1166 C1165 1.429 . S
C1166 H1193 0.930 . S
C1167 C1163 1.332 . S
C1167 C1168 1.394 . S
C1167 H1194 0.932 . S
C1168 C1164 1.308 . S
C1168 C1167 1.394 . S
C1168 H1195 0.929 . S
C1169 Tb1160 2.764 1_556 S
C1169 C1163 1.504 . S
C1169 O1181 1.239 . S
C1169 O1182 1.263 . S
O1170 Tb1160 2.325 1_556 S
O1170 C1180 1.236 . S
O1171 Tb1161 2.322 1_556 S
O1171 C1180 1.257 . S
O1172 Tb1161 2.349 . S
O1172 C1183 1.261 1_554 S
O1173 Tb1160 2.303 . S
O1173 C1183 1.257 1_554 S
O1174 Tb1161 2.415 . S
O1174 C1190 1.239 . S
O1175 Tb1161 2.399 . S
O1175 C1190 1.263 . S
O1176 Tb1161 2.325 . S
O1176 C1191 1.236 . S
O1177 Tb1160 2.322 . S
O1177 C1191 1.257 . S
O1178 Tb1160 2.349 . S
O1178 C1162 1.261 . S
O1179 Tb1161 2.303 . S
O1179 C1162 1.257 . S
C1180 O1170 1.236 . S
C1180 O1171 1.257 . S
O1181 Tb1160 2.415 1_556 S
O1181 C1169 1.239 . S
O1182 Tb1160 2.399 1_556 S
O1182 C1169 1.263 . S
C1183 O1172 1.261 1_556 S
C1183 O1173 1.257 1_556 S
C1184 C1187 1.358 . S
C1184 C1188 1.332 . S
C1184 C1190 1.504 . S
C1185 C1186 1.373 . S
C1185 C1189 1.308 . S
C1186 C1185 1.373 . S
C1186 C1187 1.429 . S
C1186 H1196 0.932 . S
C1187 C1184 1.358 . S
C1187 C1186 1.429 . S
C1187 H1197 0.930 . S
C1188 C1184 1.332 . S
C1188 C1189 1.394 . S
C1188 H1198 0.932 . S
C1189 C1185 1.308 . S
C1189 C1188 1.394 . S
C1189 H1199 0.929 . S
C1190 Tb1161 2.764 . S
C1190 O1174 1.239 . S
C1190 O1175 1.263 . S
C1190 C1184 1.504 . S
C1191 O1176 1.236 . S
C1191 O1177 1.257 . S
H1192 C1165 0.932 . S
H1193 C1166 0.930 . S
H1194 C1167 0.932 . S
H1195 C1168 0.929 . S
H1196 C1186 0.932 . S
H1197 C1187 0.930 . S
H1198 C1188 0.932 . S
H1199 C1189 0.929 . S
Tb1200 C1209 2.764 . S
Tb1200 O1210 2.325 . S
Tb1200 O1213 2.303 . S
Tb1200 O1217 2.322 . S
Tb1200 O1218 2.349 . S
Tb1200 O1221 2.415 . S
Tb1200 O1222 2.399 . S
Tb1201 O1211 2.322 . S
Tb1201 O1212 2.349 . S
Tb1201 O1214 2.415 . S
Tb1201 O1215 2.399 . S
Tb1201 O1216 2.325 . S
Tb1201 O1219 2.303 . S
Tb1201 C1230 2.764 . S
C1202 O1218 1.261 . S
C1202 O1219 1.257 . S
C1203 C1206 1.358 . S
C1203 C1207 1.332 . S
C1203 C1209 1.504 . S
C1204 C1205 1.373 . S
C1204 C1208 1.308 . S
C1205 C1204 1.373 . S
C1205 C1206 1.429 . S
C1205 H1232 0.932 . S
C1206 C1203 1.358 . S
C1206 C1205 1.429 . S
C1206 H1233 0.930 . S
C1207 C1203 1.332 . S
C1207 C1208 1.394 . S
C1207 H1234 0.932 . S
C1208 C1204 1.308 . S
C1208 C1207 1.394 . S
C1208 H1235 0.929 . S
C1209 Tb1200 2.764 . S
C1209 C1203 1.504 . S
C1209 O1221 1.239 . S
C1209 O1222 1.263 . S
O1210 Tb1200 2.325 . S
O1210 C1220 1.236 . S
O1211 Tb1201 2.322 . S
O1211 C1220 1.257 . S
O1212 Tb1201 2.349 . S
O1212 C1223 1.261 . S
O1213 Tb1200 2.303 . S
O1213 C1223 1.257 . S
O1214 Tb1201 2.415 . S
O1214 C1230 1.239 . S
O1215 Tb1201 2.399 . S
O1215 C1230 1.263 . S
O1216 Tb1201 2.325 . S
O1216 C1231 1.236 . S
O1217 Tb1200 2.322 . S
O1217 C1231 1.257 . S
O1218 Tb1200 2.349 . S
O1218 C1202 1.261 . S
O1219 Tb1201 2.303 . S
O1219 C1202 1.257 . S
C1220 O1210 1.236 . S
C1220 O1211 1.257 . S
O1221 Tb1200 2.415 . S
O1221 C1209 1.239 . S
O1222 Tb1200 2.399 . S
O1222 C1209 1.263 . S
C1223 O1212 1.261 . S
C1223 O1213 1.257 . S
C1224 C1227 1.358 . S
C1224 C1228 1.332 . S
C1224 C1230 1.504 . S
C1225 C1226 1.373 . S
C1225 C1229 1.308 1_655 S
C1226 C1225 1.373 . S
C1226 C1227 1.429 1_655 S
C1226 H1236 0.932 . S
C1227 C1224 1.358 . S
C1227 C1226 1.429 1_455 S
C1227 H1237 0.930 . S
C1228 C1224 1.332 . S
C1228 C1229 1.394 . S
C1228 H1238 0.932 . S
C1229 C1225 1.308 1_455 S
C1229 C1228 1.394 . S
C1229 H1239 0.929 . S
C1230 Tb1201 2.764 . S
C1230 O1214 1.239 . S
C1230 O1215 1.263 . S
C1230 C1224 1.504 . S
C1231 O1216 1.236 . S
C1231 O1217 1.257 . S
H1232 C1205 0.932 . S
H1233 C1206 0.930 . S
H1234 C1207 0.932 . S
H1235 C1208 0.929 . S
H1236 C1226 0.932 . S
H1237 C1227 0.930 . S
H1238 C1228 0.932 . S
H1239 C1229 0.929 . S
Tb1240 C1249 2.764 . S
Tb1240 O1250 2.325 . S
Tb1240 O1253 2.303 . S
Tb1240 O1257 2.322 . S
Tb1240 O1258 2.349 . S
Tb1240 O1261 2.415 . S
Tb1240 O1262 2.399 . S
Tb1241 O1251 2.322 . S
Tb1241 O1252 2.349 . S
Tb1241 O1254 2.415 . S
Tb1241 O1255 2.399 . S
Tb1241 O1256 2.325 . S
Tb1241 O1259 2.303 . S
Tb1241 C1270 2.764 . S
C1242 O1258 1.261 . S
C1242 O1259 1.257 . S
C1243 C1246 1.358 . S
C1243 C1247 1.332 . S
C1243 C1249 1.504 . S
C1244 C1245 1.373 . S
C1244 C1248 1.308 . S
C1245 C1244 1.373 . S
C1245 C1246 1.429 . S
C1245 H1272 0.932 . S
C1246 C1243 1.358 . S
C1246 C1245 1.429 . S
C1246 H1273 0.930 . S
C1247 C1243 1.332 . S
C1247 C1248 1.394 . S
C1247 H1274 0.932 . S
C1248 C1244 1.308 . S
C1248 C1247 1.394 . S
C1248 H1275 0.929 . S
C1249 Tb1240 2.764 . S
C1249 C1243 1.504 . S
C1249 O1261 1.239 . S
C1249 O1262 1.263 . S
O1250 Tb1240 2.325 . S
O1250 C1260 1.236 . S
O1251 Tb1241 2.322 . S
O1251 C1260 1.257 . S
O1252 Tb1241 2.349 . S
O1252 C1263 1.261 . S
O1253 Tb1240 2.303 . S
O1253 C1263 1.257 . S
O1254 Tb1241 2.415 . S
O1254 C1270 1.239 . S
O1255 Tb1241 2.399 . S
O1255 C1270 1.263 . S
O1256 Tb1241 2.325 . S
O1256 C1271 1.236 . S
O1257 Tb1240 2.322 . S
O1257 C1271 1.257 . S
O1258 Tb1240 2.349 . S
O1258 C1242 1.261 . S
O1259 Tb1241 2.303 . S
O1259 C1242 1.257 . S
C1260 O1250 1.236 . S
C1260 O1251 1.257 . S
O1261 Tb1240 2.415 . S
O1261 C1249 1.239 . S
O1262 Tb1240 2.399 . S
O1262 C1249 1.263 . S
C1263 O1252 1.261 . S
C1263 O1253 1.257 . S
C1264 C1267 1.358 . S
C1264 C1268 1.332 . S
C1264 C1270 1.504 . S
C1265 C1266 1.373 . S
C1265 C1269 1.308 . S
C1266 C1265 1.373 . S
C1266 C1267 1.429 . S
C1266 H1276 0.932 . S
C1267 C1264 1.358 . S
C1267 C1266 1.429 . S
C1267 H1277 0.930 . S
C1268 C1264 1.332 . S
C1268 C1269 1.394 . S
C1268 H1278 0.932 . S
C1269 C1265 1.308 . S
C1269 C1268 1.394 . S
C1269 H1279 0.929 . S
C1270 Tb1241 2.764 . S
C1270 O1254 1.239 . S
C1270 O1255 1.263 . S
C1270 C1264 1.504 . S
C1271 O1256 1.236 . S
C1271 O1257 1.257 . S
H1272 C1245 0.932 . S
H1273 C1246 0.930 . S
H1274 C1247 0.932 . S
H1275 C1248 0.929 . S
H1276 C1266 0.932 . S
H1277 C1267 0.930 . S
H1278 C1268 0.932 . S
H1279 C1269 0.929 . S
C1280 C1281 1.387 . S
C1280 H1284 0.950 . S
C1280 C1289 1.390 . S
C1281 C1280 1.387 . S
C1281 C1283 1.387 . S
H1282 C1289 0.950 . S
C1283 C1281 1.387 . S
C1283 C1285 1.390 . S
C1283 H1287 0.950 . S
H1284 C1280 0.950 . S
C1285 C1283 1.390 . S
C1285 C1286 1.387 . S
C1285 H1288 0.950 . S
C1286 C1285 1.387 . S
C1286 C1289 1.387 . S
H1287 C1283 0.950 . S
H1288 C1285 0.950 . S
C1289 C1280 1.390 . S
C1289 H1282 0.950 . S
C1289 C1286 1.387 . S
C1290 C1291 1.387 . S
C1290 H1294 0.950 . S
C1290 C1299 1.390 . S
C1291 C1290 1.387 . S
C1291 C1293 1.387 . S
H1292 C1299 0.950 . S
C1293 C1291 1.387 . S
C1293 C1295 1.390 . S
C1293 H1297 0.950 . S
H1294 C1290 0.950 . S
C1295 C1293 1.390 . S
C1295 C1296 1.387 . S
C1295 H1298 0.950 . S
C1296 C1295 1.387 . S
C1296 C1299 1.387 . S
H1297 C1293 0.950 . S
H1298 C1295 0.950 . S
C1299 C1290 1.390 . S
C1299 H1292 0.950 . S
C1299 C1296 1.387 . S
C1300 C1301 1.387 . S
C1300 H1304 0.950 . S
C1300 C1309 1.390 . S
C1301 C1300 1.387 . S
C1301 C1303 1.387 . S
H1302 C1309 0.950 . S
C1303 C1301 1.387 . S
C1303 C1305 1.390 . S
C1303 H1307 0.950 . S
H1304 C1300 0.950 . S
C1305 C1303 1.390 . S
C1305 C1306 1.387 . S
C1305 H1308 0.950 . S
C1306 C1305 1.387 . S
C1306 C1309 1.387 . S
H1307 C1303 0.950 . S
H1308 C1305 0.950 . S
C1309 C1300 1.390 . S
C1309 H1302 0.950 . S
C1309 C1306 1.387 . S
C1310 C1311 1.387 . S
C1310 H1314 0.950 . S
C1310 C1319 1.390 . S
C1311 C1310 1.387 . S
C1311 C1313 1.387 . S
H1312 C1319 0.950 . S
C1313 C1311 1.387 . S
C1313 C1315 1.390 . S
C1313 H1317 0.950 . S
H1314 C1310 0.950 . S
C1315 C1313 1.390 . S
C1315 C1316 1.387 . S
C1315 H1318 0.950 . S
C1316 C1315 1.387 . S
C1316 C1319 1.387 . S
H1317 C1313 0.950 . S
H1318 C1315 0.950 . S
C1319 C1310 1.390 . S
C1319 H1312 0.950 . S
C1319 C1316 1.387 . S
C1320 C1321 1.387 . S
C1320 H1324 0.950 . S
C1320 C1329 1.390 . S
C1321 C1320 1.387 . S
C1321 C1323 1.387 . S
H1322 C1329 0.950 . S
C1323 C1321 1.387 . S
C1323 C1325 1.390 . S
C1323 H1327 0.950 . S
H1324 C1320 0.950 . S
C1325 C1323 1.390 . S
C1325 C1326 1.387 . S
C1325 H1328 0.950 . S
C1326 C1325 1.387 . S
C1326 C1329 1.387 . S
H1327 C1323 0.950 . S
H1328 C1325 0.950 . S
C1329 C1320 1.390 . S
C1329 H1322 0.950 . S
C1329 C1326 1.387 . S
C1330 C1331 1.387 . S
C1330 H1334 0.950 . S
C1330 C1339 1.390 . S
C1331 C1330 1.387 . S
C1331 C1333 1.387 . S
H1332 C1339 0.950 . S
C1333 C1331 1.387 . S
C1333 C1335 1.390 . S
C1333 H1337 0.950 . S
H1334 C1330 0.950 . S
C1335 C1333 1.390 . S
C1335 C1336 1.387 . S
C1335 H1338 0.950 . S
C1336 C1335 1.387 . S
C1336 C1339 1.387 . S
H1337 C1333 0.950 . S
H1338 C1335 0.950 . S
C1339 C1330 1.390 . S
C1339 H1332 0.950 . S
C1339 C1336 1.387 . S
C1340 C1341 1.387 . S
C1340 H1344 0.950 . S
C1340 C1349 1.390 . S
C1341 C1340 1.387 . S
C1341 C1343 1.387 . S
H1342 C1349 0.950 . S
C1343 C1341 1.387 . S
C1343 C1345 1.390 . S
C1343 H1347 0.950 . S
H1344 C1340 0.950 . S
C1345 C1343 1.390 . S
C1345 C1346 1.387 . S
C1345 H1348 0.950 . S
C1346 C1345 1.387 . S
C1346 C1349 1.387 . S
H1347 C1343 0.950 . S
H1348 C1345 0.950 . S
C1349 C1340 1.390 . S
C1349 H1342 0.950 . S
C1349 C1346 1.387 . S
C1350 C1351 1.387 . S
C1350 H1354 0.950 . S
C1350 C1359 1.390 . S
C1351 C1350 1.387 . S
C1351 C1353 1.387 . S
H1352 C1359 0.950 . S
C1353 C1351 1.387 . S
C1353 C1355 1.390 . S
C1353 H1357 0.950 . S
H1354 C1350 0.950 . S
C1355 C1353 1.390 . S
C1355 C1356 1.387 . S
C1355 H1358 0.950 . S
C1356 C1355 1.387 . S
C1356 C1359 1.387 . S
H1357 C1353 0.950 . S
H1358 C1355 0.950 . S
C1359 C1350 1.390 . S
C1359 H1352 0.950 . S
C1359 C1356 1.387 . S
C1360 C1361 1.387 . S
C1360 H1364 0.950 . S
C1360 C1369 1.390 . S
C1361 C1360 1.387 . S
C1361 C1363 1.387 . S
H1362 C1369 0.950 . S
C1363 C1361 1.387 . S
C1363 C1365 1.390 . S
C1363 H1367 0.950 . S
H1364 C1360 0.950 . S
C1365 C1363 1.390 . S
C1365 C1366 1.387 . S
C1365 H1368 0.950 . S
C1366 C1365 1.387 . S
C1366 C1369 1.387 . S
H1367 C1363 0.950 . S
H1368 C1365 0.950 . S
C1369 C1360 1.390 . S
C1369 H1362 0.950 . S
C1369 C1366 1.387 . S
C1370 C1371 1.387 . S
C1370 H1374 0.950 . S
C1370 C1379 1.390 . S
C1371 C1370 1.387 . S
C1371 C1373 1.387 . S
H1372 C1379 0.950 . S
C1373 C1371 1.387 . S
C1373 C1375 1.390 . S
C1373 H1377 0.950 . S
H1374 C1370 0.950 . S
C1375 C1373 1.390 . S
C1375 C1376 1.387 . S
C1375 H1378 0.950 . S
C1376 C1375 1.387 . S
C1376 C1379 1.387 . S
H1377 C1373 0.950 . S
H1378 C1375 0.950 . S
C1379 C1370 1.390 . S
C1379 H1372 0.950 . S
C1379 C1376 1.387 . S
C1380 C1381 1.387 . S
C1380 H1384 0.950 . S
C1380 C1389 1.390 . S
C1381 C1380 1.387 . S
C1381 C1383 1.387 . S
H1382 C1389 0.950 . S
C1383 C1381 1.387 . S
C1383 C1385 1.390 . S
C1383 H1387 0.950 . S
H1384 C1380 0.950 . S
C1385 C1383 1.390 . S
C1385 C1386 1.387 . S
C1385 H1388 0.950 . S
C1386 C1385 1.387 . S
C1386 C1389 1.387 . S
H1387 C1383 0.950 . S
H1388 C1385 0.950 . S
C1389 C1380 1.390 . S
C1389 H1382 0.950 . S
C1389 C1386 1.387 . S
C1390 C1391 1.387 . S
C1390 H1394 0.950 . S
C1390 C1399 1.390 . S
C1391 C1390 1.387 . S
C1391 C1393 1.387 . S
H1392 C1399 0.950 . S
C1393 C1391 1.387 . S
C1393 C1395 1.390 . S
C1393 H1397 0.950 . S
H1394 C1390 0.950 . S
C1395 C1393 1.390 . S
C1395 C1396 1.387 . S
C1395 H1398 0.950 . S
C1396 C1395 1.387 . S
C1396 C1399 1.387 . S
H1397 C1393 0.950 . S
H1398 C1395 0.950 . S
C1399 C1390 1.390 . S
C1399 H1392 0.950 . S
C1399 C1396 1.387 . S
C1400 C1401 1.387 . S
C1400 H1404 0.950 . S
C1400 C1409 1.390 . S
C1401 C1400 1.387 . S
C1401 C1403 1.387 . S
H1402 C1409 0.950 . S
C1403 C1401 1.387 . S
C1403 C1405 1.390 . S
C1403 H1407 0.950 . S
H1404 C1400 0.950 . S
C1405 C1403 1.390 . S
C1405 C1406 1.387 . S
C1405 H1408 0.950 . S
C1406 C1405 1.387 . S
C1406 C1409 1.387 . S
H1407 C1403 0.950 . S
H1408 C1405 0.950 . S
C1409 C1400 1.390 . S
C1409 H1402 0.950 . S
C1409 C1406 1.387 . S
C1410 C1411 1.387 . S
C1410 H1414 0.950 . S
C1410 C1419 1.390 . S
C1411 C1410 1.387 . S
C1411 C1413 1.387 . S
H1412 C1419 0.950 . S
C1413 C1411 1.387 . S
C1413 C1415 1.390 . S
C1413 H1417 0.950 . S
H1414 C1410 0.950 . S
C1415 C1413 1.390 . S
C1415 C1416 1.387 . S
C1415 H1418 0.950 . S
C1416 C1415 1.387 . S
C1416 C1419 1.387 . S
H1417 C1413 0.950 . S
H1418 C1415 0.950 . S
C1419 C1410 1.390 . S
C1419 H1412 0.950 . S
C1419 C1416 1.387 . S
C1420 C1421 1.387 . S
C1420 H1424 0.950 . S
C1420 C1429 1.390 . S
C1421 C1420 1.387 . S
C1421 C1423 1.387 . S
H1422 C1429 0.950 . S
C1423 C1421 1.387 . S
C1423 C1425 1.390 . S
C1423 H1427 0.950 . S
H1424 C1420 0.950 . S
C1425 C1423 1.390 . S
C1425 C1426 1.387 . S
C1425 H1428 0.950 . S
C1426 C1425 1.387 . S
C1426 C1429 1.387 . S
H1427 C1423 0.950 . S
H1428 C1425 0.950 . S
C1429 C1420 1.390 . S
C1429 H1422 0.950 . S
C1429 C1426 1.387 . S
C1430 C1431 1.387 . S
C1430 H1434 0.950 . S
C1430 C1439 1.390 . S
C1431 C1430 1.387 . S
C1431 C1433 1.387 . S
H1432 C1439 0.950 . S
C1433 C1431 1.387 . S
C1433 C1435 1.390 . S
C1433 H1437 0.950 . S
H1434 C1430 0.950 . S
C1435 C1433 1.390 . S
C1435 C1436 1.387 . S
C1435 H1438 0.950 . S
C1436 C1435 1.387 . S
C1436 C1439 1.387 . S
H1437 C1433 0.950 . S
H1438 C1435 0.950 . S
C1439 C1430 1.390 . S
C1439 H1432 0.950 . S
C1439 C1436 1.387 . S
C1440 C1441 1.387 . S
C1440 H1444 0.950 . S
C1440 C1449 1.390 . S
C1441 C1440 1.387 . S
C1441 C1443 1.387 . S
H1442 C1449 0.950 . S
C1443 C1441 1.387 . S
C1443 C1445 1.390 . S
C1443 H1447 0.950 . S
H1444 C1440 0.950 . S
C1445 C1443 1.390 . S
C1445 C1446 1.387 . S
C1445 H1448 0.950 . S
C1446 C1445 1.387 . S
C1446 C1449 1.387 . S
H1447 C1443 0.950 . S
H1448 C1445 0.950 . S
C1449 C1440 1.390 . S
C1449 H1442 0.950 . S
C1449 C1446 1.387 . S
C1450 C1451 1.387 . S
C1450 H1454 0.950 . S
C1450 C1459 1.390 . S
C1451 C1450 1.387 . S
C1451 C1453 1.387 . S
H1452 C1459 0.950 . S
C1453 C1451 1.387 . S
C1453 C1455 1.390 . S
C1453 H1457 0.950 . S
H1454 C1450 0.950 . S
C1455 C1453 1.390 . S
C1455 C1456 1.387 . S
C1455 H1458 0.950 . S
C1456 C1455 1.387 . S
C1456 C1459 1.387 . S
H1457 C1453 0.950 . S
H1458 C1455 0.950 . S
C1459 C1450 1.390 . S
C1459 H1452 0.950 . S
C1459 C1456 1.387 . S
C1460 C1461 1.387 . S
C1460 H1464 0.950 . S
C1460 C1469 1.390 . S
C1461 C1460 1.387 . S
C1461 C1463 1.387 . S
H1462 C1469 0.950 . S
C1463 C1461 1.387 . S
C1463 C1465 1.390 . S
C1463 H1467 0.950 . S
H1464 C1460 0.950 . S
C1465 C1463 1.390 . S
C1465 C1466 1.387 . S
C1465 H1468 0.950 . S
C1466 C1465 1.387 . S
C1466 C1469 1.387 . S
H1467 C1463 0.950 . S
H1468 C1465 0.950 . S
C1469 C1460 1.390 . S
C1469 H1462 0.950 . S
C1469 C1466 1.387 . S
C1470 C1471 1.387 . S
C1470 H1474 0.950 . S
C1470 C1479 1.390 . S
C1471 C1470 1.387 . S
C1471 C1473 1.387 . S
H1472 C1479 0.950 . S
C1473 C1471 1.387 . S
C1473 C1475 1.390 . S
C1473 H1477 0.950 . S
H1474 C1470 0.950 . S
C1475 C1473 1.390 . S
C1475 C1476 1.387 . S
C1475 H1478 0.950 . S
C1476 C1475 1.387 . S
C1476 C1479 1.387 . S
H1477 C1473 0.950 . S
H1478 C1475 0.950 . S
C1479 C1470 1.390 . S
C1479 H1472 0.950 . S
C1479 C1476 1.387 . S
C1480 C1481 1.387 . S
C1480 H1484 0.950 . S
C1480 C1489 1.390 . S
C1481 C1480 1.387 . S
C1481 C1483 1.387 . S
H1482 C1489 0.950 . S
C1483 C1481 1.387 . S
C1483 C1485 1.390 . S
C1483 H1487 0.950 . S
H1484 C1480 0.950 . S
C1485 C1483 1.390 . S
C1485 C1486 1.387 . S
C1485 H1488 0.950 . S
C1486 C1485 1.387 . S
C1486 C1489 1.387 . S
H1487 C1483 0.950 . S
H1488 C1485 0.950 . S
C1489 C1480 1.390 . S
C1489 H1482 0.950 . S
C1489 C1486 1.387 . S
C1490 C1491 1.387 . S
C1490 H1494 0.950 . S
C1490 C1499 1.390 . S
C1491 C1490 1.387 . S
C1491 C1493 1.387 . S
H1492 C1499 0.950 . S
C1493 C1491 1.387 . S
C1493 C1495 1.390 . S
C1493 H1497 0.950 . S
H1494 C1490 0.950 . S
C1495 C1493 1.390 . S
C1495 C1496 1.387 . S
C1495 H1498 0.950 . S
C1496 C1495 1.387 . S
C1496 C1499 1.387 . S
H1497 C1493 0.950 . S
H1498 C1495 0.950 . S
C1499 C1490 1.390 . S
C1499 H1492 0.950 . S
C1499 C1496 1.387 . S
C1500 C1501 1.387 . S
C1500 H1504 0.950 . S
C1500 C1509 1.390 . S
C1501 C1500 1.387 . S
C1501 C1503 1.387 . S
H1502 C1509 0.950 . S
C1503 C1501 1.387 . S
C1503 C1505 1.390 . S
C1503 H1507 0.950 . S
H1504 C1500 0.950 . S
C1505 C1503 1.390 . S
C1505 C1506 1.387 . S
C1505 H1508 0.950 . S
C1506 C1505 1.387 . S
C1506 C1509 1.387 . S
H1507 C1503 0.950 . S
H1508 C1505 0.950 . S
C1509 C1500 1.390 . S
C1509 H1502 0.950 . S
C1509 C1506 1.387 . S
C1510 C1511 1.387 . S
C1510 H1514 0.950 . S
C1510 C1519 1.390 . S
C1511 C1510 1.387 . S
C1511 C1513 1.387 . S
H1512 C1519 0.950 . S
C1513 C1511 1.387 . S
C1513 C1515 1.390 . S
C1513 H1517 0.950 . S
H1514 C1510 0.950 . S
C1515 C1513 1.390 . S
C1515 C1516 1.387 . S
C1515 H1518 0.950 . S
C1516 C1515 1.387 . S
C1516 C1519 1.387 . S
H1517 C1513 0.950 . S
H1518 C1515 0.950 . S
C1519 C1510 1.390 . S
C1519 H1512 0.950 . S
C1519 C1516 1.387 . S
C1520 C1521 1.387 . S
C1520 H1524 0.950 . S
C1520 C1529 1.390 . S
C1521 C1520 1.387 . S
C1521 C1523 1.387 . S
H1522 C1529 0.950 . S
C1523 C1521 1.387 . S
C1523 C1525 1.390 . S
C1523 H1527 0.950 . S
H1524 C1520 0.950 . S
C1525 C1523 1.390 . S
C1525 C1526 1.387 . S
C1525 H1528 0.950 . S
C1526 C1525 1.387 . S
C1526 C1529 1.387 . S
H1527 C1523 0.950 . S
H1528 C1525 0.950 . S
C1529 C1520 1.390 . S
C1529 H1522 0.950 . S
C1529 C1526 1.387 . S
C1530 C1531 1.387 . S
C1530 H1534 0.950 . S
C1530 C1539 1.390 . S
C1531 C1530 1.387 . S
C1531 C1533 1.387 . S
H1532 C1539 0.950 . S
C1533 C1531 1.387 . S
C1533 C1535 1.390 . S
C1533 H1537 0.950 . S
H1534 C1530 0.950 . S
C1535 C1533 1.390 . S
C1535 C1536 1.387 . S
C1535 H1538 0.950 . S
C1536 C1535 1.387 . S
C1536 C1539 1.387 . S
H1537 C1533 0.950 . S
H1538 C1535 0.950 . S
C1539 C1530 1.390 . S
C1539 H1532 0.950 . S
C1539 C1536 1.387 . S
C1540 C1541 1.387 . S
C1540 H1544 0.950 . S
C1540 C1549 1.390 . S
C1541 C1540 1.387 . S
C1541 C1543 1.387 . S
H1542 C1549 0.950 . S
C1543 C1541 1.387 . S
C1543 C1545 1.390 . S
C1543 H1547 0.950 . S
H1544 C1540 0.950 . S
C1545 C1543 1.390 . S
C1545 C1546 1.387 . S
C1545 H1548 0.950 . S
C1546 C1545 1.387 . S
C1546 C1549 1.387 . S
H1547 C1543 0.950 . S
H1548 C1545 0.950 . S
C1549 C1540 1.390 . S
C1549 H1542 0.950 . S
C1549 C1546 1.387 . S
C1550 C1551 1.387 . S
C1550 H1554 0.950 . S
C1550 C1559 1.390 . S
C1551 C1550 1.387 . S
C1551 C1553 1.387 . S
H1552 C1559 0.950 . S
C1553 C1551 1.387 . S
C1553 C1555 1.390 . S
C1553 H1557 0.950 . S
H1554 C1550 0.950 . S
C1555 C1553 1.390 . S
C1555 C1556 1.387 . S
C1555 H1558 0.950 . S
C1556 C1555 1.387 . S
C1556 C1559 1.387 . S
H1557 C1553 0.950 . S
H1558 C1555 0.950 . S
C1559 C1550 1.390 . S
C1559 H1552 0.950 . S
C1559 C1556 1.387 . S
C1560 C1561 1.387 . S
C1560 H1564 0.950 . S
C1560 C1569 1.390 . S
C1561 C1560 1.387 . S
C1561 C1563 1.387 . S
H1562 C1569 0.950 . S
C1563 C1561 1.387 . S
C1563 C1565 1.390 . S
C1563 H1567 0.950 . S
H1564 C1560 0.950 . S
C1565 C1563 1.390 . S
C1565 C1566 1.387 . S
C1565 H1568 0.950 . S
C1566 C1565 1.387 . S
C1566 C1569 1.387 . S
H1567 C1563 0.950 . S
H1568 C1565 0.950 . S
C1569 C1560 1.390 . S
C1569 H1562 0.950 . S
C1569 C1566 1.387 . S
C1570 C1571 1.387 . S
C1570 H1574 0.950 . S
C1570 C1579 1.390 . S
C1571 C1570 1.387 . S
C1571 C1573 1.387 . S
H1572 C1579 0.950 . S
C1573 C1571 1.387 . S
C1573 C1575 1.390 . S
C1573 H1577 0.950 . S
H1574 C1570 0.950 . S
C1575 C1573 1.390 . S
C1575 C1576 1.387 . S
C1575 H1578 0.950 . S
C1576 C1575 1.387 . S
C1576 C1579 1.387 . S
H1577 C1573 0.950 . S
H1578 C1575 0.950 . S
C1579 C1570 1.390 . S
C1579 H1572 0.950 . S
C1579 C1576 1.387 . S
C1580 C1581 1.387 . S
C1580 H1584 0.950 . S
C1580 C1589 1.390 . S
C1581 C1580 1.387 . S
C1581 C1583 1.387 . S
H1582 C1589 0.950 . S
C1583 C1581 1.387 . S
C1583 C1585 1.390 . S
C1583 H1587 0.950 . S
H1584 C1580 0.950 . S
C1585 C1583 1.390 . S
C1585 C1586 1.387 . S
C1585 H1588 0.950 . S
C1586 C1585 1.387 . S
C1586 C1589 1.387 . S
H1587 C1583 0.950 . S
H1588 C1585 0.950 . S
C1589 C1580 1.390 . S
C1589 H1582 0.950 . S
C1589 C1586 1.387 . S
C1590 C1591 1.387 . S
C1590 H1594 0.950 . S
C1590 C1599 1.390 . S
C1591 C1590 1.387 . S
C1591 C1593 1.387 . S
H1592 C1599 0.950 . S
C1593 C1591 1.387 . S
C1593 C1595 1.390 . S
C1593 H1597 0.950 . S
H1594 C1590 0.950 . S
C1595 C1593 1.390 . S
C1595 C1596 1.387 . S
C1595 H1598 0.950 . S
C1596 C1595 1.387 . S
C1596 C1599 1.387 . S
H1597 C1593 0.950 . S
H1598 C1595 0.950 . S
C1599 C1590 1.390 . S
C1599 H1592 0.950 . S
C1599 C1596 1.387 . S
C1600 C1601 1.387 . S
C1600 H1604 0.950 . S
C1600 C1609 1.390 . S
C1601 C1600 1.387 . S
C1601 C1603 1.387 . S
H1602 C1609 0.950 . S
C1603 C1601 1.387 . S
C1603 C1605 1.390 . S
C1603 H1607 0.950 . S
H1604 C1600 0.950 . S
C1605 C1603 1.390 . S
C1605 C1606 1.387 . S
C1605 H1608 0.950 . S
C1606 C1605 1.387 . S
C1606 C1609 1.387 . S
H1607 C1603 0.950 . S
H1608 C1605 0.950 . S
C1609 C1600 1.390 . S
C1609 H1602 0.950 . S
C1609 C1606 1.387 . S
C1610 C1611 1.387 . S
C1610 H1614 0.950 . S
C1610 C1619 1.390 . S
C1611 C1610 1.387 . S
C1611 C1613 1.387 . S
H1612 C1619 0.950 . S
C1613 C1611 1.387 . S
C1613 C1615 1.390 . S
C1613 H1617 0.950 . S
H1614 C1610 0.950 . S
C1615 C1613 1.390 . S
C1615 C1616 1.387 . S
C1615 H1618 0.950 . S
C1616 C1615 1.387 . S
C1616 C1619 1.387 . S
H1617 C1613 0.950 . S
H1618 C1615 0.950 . S
C1619 C1610 1.390 . S
C1619 H1612 0.950 . S
C1619 C1616 1.387 . S
C1620 C1621 1.387 . S
C1620 H1624 0.950 . S
C1620 C1629 1.390 . S
C1621 C1620 1.387 . S
C1621 C1623 1.387 . S
H1622 C1629 0.950 . S
C1623 C1621 1.387 . S
C1623 C1625 1.390 . S
C1623 H1627 0.950 . S
H1624 C1620 0.950 . S
C1625 C1623 1.390 . S
C1625 C1626 1.387 . S
C1625 H1628 0.950 . S
C1626 C1625 1.387 . S
C1626 C1629 1.387 . S
H1627 C1623 0.950 . S
H1628 C1625 0.950 . S
C1629 C1620 1.390 . S
C1629 H1622 0.950 . S
C1629 C1626 1.387 . S
C1630 C1631 1.387 . S
C1630 H1634 0.950 . S
C1630 C1639 1.390 . S
C1631 C1630 1.387 . S
C1631 C1633 1.387 . S
H1632 C1639 0.950 . S
C1633 C1631 1.387 . S
C1633 C1635 1.390 . S
C1633 H1637 0.950 . S
H1634 C1630 0.950 . S
C1635 C1633 1.390 . S
C1635 C1636 1.387 . S
C1635 H1638 0.950 . S
C1636 C1635 1.387 . S
C1636 C1639 1.387 . S
H1637 C1633 0.950 . S
H1638 C1635 0.950 . S
C1639 C1630 1.390 . S
C1639 H1632 0.950 . S
C1639 C1636 1.387 . S
C1640 C1641 1.387 . S
C1640 H1644 0.950 . S
C1640 C1649 1.390 . S
C1641 C1640 1.387 . S
C1641 C1643 1.387 . S
H1642 C1649 0.950 . S
C1643 C1641 1.387 . S
C1643 C1645 1.390 . S
C1643 H1647 0.950 . S
H1644 C1640 0.950 . S
C1645 C1643 1.390 . S
C1645 C1646 1.387 . S
C1645 H1648 0.950 . S
C1646 C1645 1.387 . S
C1646 C1649 1.387 . S
H1647 C1643 0.950 . S
H1648 C1645 0.950 . S
C1649 C1640 1.390 . S
C1649 H1642 0.950 . S
C1649 C1646 1.387 . S
C1650 C1651 1.387 . S
C1650 H1654 0.950 . S
C1650 C1659 1.390 . S
C1651 C1650 1.387 . S
C1651 C1653 1.387 . S
H1652 C1659 0.950 . S
C1653 C1651 1.387 . S
C1653 C1655 1.390 . S
C1653 H1657 0.950 . S
H1654 C1650 0.950 . S
C1655 C1653 1.390 . S
C1655 C1656 1.387 . S
C1655 H1658 0.950 . S
C1656 C1655 1.387 . S
C1656 C1659 1.387 . S
H1657 C1653 0.950 . S
H1658 C1655 0.950 . S
C1659 C1650 1.390 . S
C1659 H1652 0.950 . S
C1659 C1656 1.387 . S
C1660 C1661 1.387 . S
C1660 H1664 0.950 . S
C1660 C1669 1.390 . S
C1661 C1660 1.387 . S
C1661 C1663 1.387 . S
H1662 C1669 0.950 . S
C1663 C1661 1.387 . S
C1663 C1665 1.390 . S
C1663 H1667 0.950 . S
H1664 C1660 0.950 . S
C1665 C1663 1.390 . S
C1665 C1666 1.387 . S
C1665 H1668 0.950 . S
C1666 C1665 1.387 . S
C1666 C1669 1.387 . S
H1667 C1663 0.950 . S
H1668 C1665 0.950 . S
C1669 C1660 1.390 . S
C1669 H1662 0.950 . S
C1669 C1666 1.387 . S
C1670 C1671 1.387 . S
C1670 H1674 0.950 . S
C1670 C1679 1.390 . S
C1671 C1670 1.387 . S
C1671 C1673 1.387 . S
H1672 C1679 0.950 . S
C1673 C1671 1.387 . S
C1673 C1675 1.390 . S
C1673 H1677 0.950 . S
H1674 C1670 0.950 . S
C1675 C1673 1.390 . S
C1675 C1676 1.387 . S
C1675 H1678 0.950 . S
C1676 C1675 1.387 . S
C1676 C1679 1.387 . S
H1677 C1673 0.950 . S
H1678 C1675 0.950 . S
C1679 C1670 1.390 . S
C1679 H1672 0.950 . S
C1679 C1676 1.387 . S
C1680 C1681 1.387 . S
C1680 H1684 0.950 . S
C1680 C1689 1.390 . S
C1681 C1680 1.387 . S
C1681 C1683 1.387 . S
H1682 C1689 0.950 . S
C1683 C1681 1.387 . S
C1683 C1685 1.390 . S
C1683 H1687 0.950 . S
H1684 C1680 0.950 . S
C1685 C1683 1.390 . S
C1685 C1686 1.387 . S
C1685 H1688 0.950 . S
C1686 C1685 1.387 . S
C1686 C1689 1.387 . S
H1687 C1683 0.950 . S
H1688 C1685 0.950 . S
C1689 C1680 1.390 . S
C1689 H1682 0.950 . S
C1689 C1686 1.387 . S
C1690 C1691 1.387 . S
C1690 H1694 0.950 . S
C1690 C1699 1.390 . S
C1691 C1690 1.387 . S
C1691 C1693 1.387 . S
H1692 C1699 0.950 . S
C1693 C1691 1.387 . S
C1693 C1695 1.390 . S
C1693 H1697 0.950 . S
H1694 C1690 0.950 . S
C1695 C1693 1.390 . S
C1695 C1696 1.387 . S
C1695 H1698 0.950 . S
C1696 C1695 1.387 . S
C1696 C1699 1.387 . S
H1697 C1693 0.950 . S
H1698 C1695 0.950 . S
C1699 C1690 1.390 . S
C1699 H1692 0.950 . S
C1699 C1696 1.387 . S
C1700 C1701 1.387 . S
C1700 H1704 0.950 . S
C1700 C1709 1.390 . S
C1701 C1700 1.387 . S
C1701 C1703 1.387 . S
H1702 C1709 0.950 . S
C1703 C1701 1.387 . S
C1703 C1705 1.390 . S
C1703 H1707 0.950 . S
H1704 C1700 0.950 . S
C1705 C1703 1.390 . S
C1705 C1706 1.387 . S
C1705 H1708 0.950 . S
C1706 C1705 1.387 . S
C1706 C1709 1.387 . S
H1707 C1703 0.950 . S
H1708 C1705 0.950 . S
C1709 C1700 1.390 . S
C1709 H1702 0.950 . S
C1709 C1706 1.387 . S
C1710 C1711 1.387 . S
C1710 H1714 0.950 . S
C1710 C1719 1.390 . S
C1711 C1710 1.387 . S
C1711 C1713 1.387 . S
H1712 C1719 0.950 . S
C1713 C1711 1.387 . S
C1713 C1715 1.390 . S
C1713 H1717 0.950 . S
H1714 C1710 0.950 . S
C1715 C1713 1.390 . S
C1715 C1716 1.387 . S
C1715 H1718 0.950 . S
C1716 C1715 1.387 . S
C1716 C1719 1.387 . S
H1717 C1713 0.950 . S
H1718 C1715 0.950 . S
C1719 C1710 1.390 . S
C1719 H1712 0.950 . S
C1719 C1716 1.387 . S
C1720 C1721 1.387 . S
C1720 H1724 0.950 . S
C1720 C1729 1.390 . S
C1721 C1720 1.387 . S
C1721 C1723 1.387 . S
H1722 C1729 0.950 . S
C1723 C1721 1.387 . S
C1723 C1725 1.390 . S
C1723 H1727 0.950 . S
H1724 C1720 0.950 . S
C1725 C1723 1.390 . S
C1725 C1726 1.387 . S
C1725 H1728 0.950 . S
C1726 C1725 1.387 . S
C1726 C1729 1.387 . S
H1727 C1723 0.950 . S
H1728 C1725 0.950 . S
C1729 C1720 1.390 . S
C1729 H1722 0.950 . S
C1729 C1726 1.387 . S
C1730 C1731 1.387 . S
C1730 H1734 0.950 . S
C1730 C1739 1.390 . S
C1731 C1730 1.387 . S
C1731 C1733 1.387 . S
H1732 C1739 0.950 . S
C1733 C1731 1.387 . S
C1733 C1735 1.390 . S
C1733 H1737 0.950 . S
H1734 C1730 0.950 . S
C1735 C1733 1.390 . S
C1735 C1736 1.387 . S
C1735 H1738 0.950 . S
C1736 C1735 1.387 . S
C1736 C1739 1.387 . S
H1737 C1733 0.950 . S
H1738 C1735 0.950 . S
C1739 C1730 1.390 . S
C1739 H1732 0.950 . S
C1739 C1736 1.387 . S
C1740 C1741 1.387 . S
C1740 H1744 0.950 . S
C1740 C1749 1.390 . S
C1741 C1740 1.387 . S
C1741 C1743 1.387 . S
H1742 C1749 0.950 . S
C1743 C1741 1.387 . S
C1743 C1745 1.390 . S
C1743 H1747 0.950 . S
H1744 C1740 0.950 . S
C1745 C1743 1.390 . S
C1745 C1746 1.387 . S
C1745 H1748 0.950 . S
C1746 C1745 1.387 . S
C1746 C1749 1.387 . S
H1747 C1743 0.950 . S
H1748 C1745 0.950 . S
C1749 C1740 1.390 . S
C1749 H1742 0.950 . S
C1749 C1746 1.387 . S
C1750 C1751 1.387 . S
C1750 H1754 0.950 . S
C1750 C1759 1.390 . S
C1751 C1750 1.387 . S
C1751 C1753 1.387 . S
H1752 C1759 0.950 . S
C1753 C1751 1.387 . S
C1753 C1755 1.390 . S
C1753 H1757 0.950 . S
H1754 C1750 0.950 . S
C1755 C1753 1.390 . S
C1755 C1756 1.387 . S
C1755 H1758 0.950 . S
C1756 C1755 1.387 . S
C1756 C1759 1.387 . S
H1757 C1753 0.950 . S
H1758 C1755 0.950 . S
C1759 C1750 1.390 . S
C1759 H1752 0.950 . S
C1759 C1756 1.387 . S
C1760 C1761 1.387 . S
C1760 H1764 0.950 . S
C1760 C1769 1.390 . S
C1761 C1760 1.387 . S
C1761 C1763 1.387 . S
H1762 C1769 0.950 . S
C1763 C1761 1.387 . S
C1763 C1765 1.390 . S
C1763 H1767 0.950 . S
H1764 C1760 0.950 . S
C1765 C1763 1.390 . S
C1765 C1766 1.387 . S
C1765 H1768 0.950 . S
C1766 C1765 1.387 . S
C1766 C1769 1.387 . S
H1767 C1763 0.950 . S
H1768 C1765 0.950 . S
C1769 C1760 1.390 . S
C1769 H1762 0.950 . S
C1769 C1766 1.387 . S
C1770 C1771 1.387 . S
C1770 H1774 0.950 . S
C1770 C1779 1.390 . S
C1771 C1770 1.387 . S
C1771 C1773 1.387 . S
H1772 C1779 0.950 . S
C1773 C1771 1.387 . S
C1773 C1775 1.390 . S
C1773 H1777 0.950 . S
H1774 C1770 0.950 . S
C1775 C1773 1.390 . S
C1775 C1776 1.387 . S
C1775 H1778 0.950 . S
C1776 C1775 1.387 . S
C1776 C1779 1.387 . S
H1777 C1773 0.950 . S
H1778 C1775 0.950 . S
C1779 C1770 1.390 . S
C1779 H1772 0.950 . S
C1779 C1776 1.387 . S
C1780 C1781 1.387 . S
C1780 H1784 0.950 . S
C1780 C1789 1.390 . S
C1781 C1780 1.387 . S
C1781 C1783 1.387 . S
H1782 C1789 0.950 . S
C1783 C1781 1.387 . S
C1783 C1785 1.390 . S
C1783 H1787 0.950 . S
H1784 C1780 0.950 . S
C1785 C1783 1.390 . S
C1785 C1786 1.387 . S
C1785 H1788 0.950 . S
C1786 C1785 1.387 . S
C1786 C1789 1.387 . S
H1787 C1783 0.950 . S
H1788 C1785 0.950 . S
C1789 C1780 1.390 . S
C1789 H1782 0.950 . S
C1789 C1786 1.387 . S
C1790 C1791 1.387 . S
C1790 H1794 0.950 . S
C1790 C1799 1.390 . S
C1791 C1790 1.387 . S
C1791 C1793 1.387 . S
H1792 C1799 0.950 . S
C1793 C1791 1.387 . S
C1793 C1795 1.390 . S
C1793 H1797 0.950 . S
H1794 C1790 0.950 . S
C1795 C1793 1.390 . S
C1795 C1796 1.387 . S
C1795 H1798 0.950 . S
C1796 C1795 1.387 . S
C1796 C1799 1.387 . S
H1797 C1793 0.950 . S
H1798 C1795 0.950 . S
C1799 C1790 1.390 . S
C1799 H1792 0.950 . S
C1799 C1796 1.387 . S
C1800 C1801 1.387 . S
C1800 H1804 0.950 . S
C1800 C1809 1.390 . S
C1801 C1800 1.387 . S
C1801 C1803 1.387 . S
H1802 C1809 0.950 . S
C1803 C1801 1.387 . S
C1803 C1805 1.390 . S
C1803 H1807 0.950 . S
H1804 C1800 0.950 . S
C1805 C1803 1.390 . S
C1805 C1806 1.387 . S
C1805 H1808 0.950 . S
C1806 C1805 1.387 . S
C1806 C1809 1.387 . S
H1807 C1803 0.950 . S
H1808 C1805 0.950 . S
C1809 C1800 1.390 . S
C1809 H1802 0.950 . S
C1809 C1806 1.387 . S
C1810 C1811 1.387 . S
C1810 H1814 0.950 . S
C1810 C1819 1.390 . S
C1811 C1810 1.387 . S
C1811 C1813 1.387 . S
H1812 C1819 0.950 . S
C1813 C1811 1.387 . S
C1813 C1815 1.390 . S
C1813 H1817 0.950 . S
H1814 C1810 0.950 . S
C1815 C1813 1.390 . S
C1815 C1816 1.387 . S
C1815 H1818 0.950 . S
C1816 C1815 1.387 . S
C1816 C1819 1.387 . S
H1817 C1813 0.950 . S
H1818 C1815 0.950 . S
C1819 C1810 1.390 . S
C1819 H1812 0.950 . S
C1819 C1816 1.387 . S
C1820 C1821 1.387 . S
C1820 H1824 0.950 . S
C1820 C1829 1.390 . S
C1821 C1820 1.387 . S
C1821 C1823 1.387 . S
H1822 C1829 0.950 . S
C1823 C1821 1.387 . S
C1823 C1825 1.390 . S
C1823 H1827 0.950 . S
H1824 C1820 0.950 . S
C1825 C1823 1.390 . S
C1825 C1826 1.387 . S
C1825 H1828 0.950 . S
C1826 C1825 1.387 . S
C1826 C1829 1.387 . S
H1827 C1823 0.950 . S
H1828 C1825 0.950 . S
C1829 C1820 1.390 . S
C1829 H1822 0.950 . S
C1829 C1826 1.387 . S
C1830 C1831 1.387 . S
C1830 H1834 0.950 . S
C1830 C1839 1.390 . S
C1831 C1830 1.387 . S
C1831 C1833 1.387 . S
H1832 C1839 0.950 . S
C1833 C1831 1.387 . S
C1833 C1835 1.390 . S
C1833 H1837 0.950 . S
H1834 C1830 0.950 . S
C1835 C1833 1.390 . S
C1835 C1836 1.387 . S
C1835 H1838 0.950 . S
C1836 C1835 1.387 . S
C1836 C1839 1.387 . S
H1837 C1833 0.950 . S
H1838 C1835 0.950 . S
C1839 C1830 1.390 . S
C1839 H1832 0.950 . S
C1839 C1836 1.387 . S
C1840 C1841 1.387 . S
C1840 H1844 0.950 . S
C1840 C1849 1.390 . S
C1841 C1840 1.387 . S
C1841 C1843 1.387 . S
H1842 C1849 0.950 . S
C1843 C1841 1.387 . S
C1843 C1845 1.390 . S
C1843 H1847 0.950 . S
H1844 C1840 0.950 . S
C1845 C1843 1.390 . S
C1845 C1846 1.387 . S
C1845 H1848 0.950 . S
C1846 C1845 1.387 . S
C1846 C1849 1.387 . S
H1847 C1843 0.950 . S
H1848 C1845 0.950 . S
C1849 C1840 1.390 . S
C1849 H1842 0.950 . S
C1849 C1846 1.387 . S
C1850 C1851 1.387 . S
C1850 H1854 0.950 . S
C1850 C1859 1.390 . S
C1851 C1850 1.387 . S
C1851 C1853 1.387 . S
H1852 C1859 0.950 . S
C1853 C1851 1.387 . S
C1853 C1855 1.390 . S
C1853 H1857 0.950 . S
H1854 C1850 0.950 . S
C1855 C1853 1.390 . S
C1855 C1856 1.387 . S
C1855 H1858 0.950 . S
C1856 C1855 1.387 . S
C1856 C1859 1.387 . S
H1857 C1853 0.950 . S
H1858 C1855 0.950 . S
C1859 C1850 1.390 . S
C1859 H1852 0.950 . S
C1859 C1856 1.387 . S
C1860 C1861 1.387 . S
C1860 H1864 0.950 . S
C1860 C1869 1.390 . S
C1861 C1860 1.387 . S
C1861 C1863 1.387 . S
H1862 C1869 0.950 . S
C1863 C1861 1.387 . S
C1863 C1865 1.390 . S
C1863 H1867 0.950 . S
H1864 C1860 0.950 . S
C1865 C1863 1.390 . S
C1865 C1866 1.387 . S
C1865 H1868 0.950 . S
C1866 C1865 1.387 . S
C1866 C1869 1.387 . S
H1867 C1863 0.950 . S
H1868 C1865 0.950 . S
C1869 C1860 1.390 . S
C1869 H1862 0.950 . S
C1869 C1866 1.387 . S
C1870 C1871 1.387 . S
C1870 H1874 0.950 . S
C1870 C1879 1.390 . S
C1871 C1870 1.387 . S
C1871 C1873 1.387 . S
H1872 C1879 0.950 . S
C1873 C1871 1.387 . S
C1873 C1875 1.390 . S
C1873 H1877 0.950 . S
H1874 C1870 0.950 . S
C1875 C1873 1.390 . S
C1875 C1876 1.387 . S
C1875 H1878 0.950 . S
C1876 C1875 1.387 . S
C1876 C1879 1.387 . S
H1877 C1873 0.950 . S
H1878 C1875 0.950 . S
C1879 C1870 1.390 . S
C1879 H1872 0.950 . S
C1879 C1876 1.387 . S
C1880 C1881 1.387 . S
C1880 H1884 0.950 . S
C1880 C1889 1.390 . S
C1881 C1880 1.387 . S
C1881 C1883 1.387 . S
H1882 C1889 0.950 . S
C1883 C1881 1.387 . S
C1883 C1885 1.390 . S
C1883 H1887 0.950 . S
H1884 C1880 0.950 . S
C1885 C1883 1.390 . S
C1885 C1886 1.387 . S
C1885 H1888 0.950 . S
C1886 C1885 1.387 . S
C1886 C1889 1.387 . S
H1887 C1883 0.950 . S
H1888 C1885 0.950 . S
C1889 C1880 1.390 . S
C1889 H1882 0.950 . S
C1889 C1886 1.387 . S
C1890 C1891 1.387 . S
C1890 H1894 0.950 . S
C1890 C1899 1.390 . S
C1891 C1890 1.387 . S
C1891 C1893 1.387 . S
H1892 C1899 0.950 . S
C1893 C1891 1.387 . S
C1893 C1895 1.390 . S
C1893 H1897 0.950 . S
H1894 C1890 0.950 . S
C1895 C1893 1.390 . S
C1895 C1896 1.387 . S
C1895 H1898 0.950 . S
C1896 C1895 1.387 . S
C1896 C1899 1.387 . S
H1897 C1893 0.950 . S
H1898 C1895 0.950 . S
C1899 C1890 1.390 . S
C1899 H1892 0.950 . S
C1899 C1896 1.387 . S
C1900 C1901 1.387 . S
C1900 H1904 0.950 . S
C1900 C1909 1.390 . S
C1901 C1900 1.387 . S
C1901 C1903 1.387 . S
H1902 C1909 0.950 . S
C1903 C1901 1.387 . S
C1903 C1905 1.390 . S
C1903 H1907 0.950 . S
H1904 C1900 0.950 . S
C1905 C1903 1.390 . S
C1905 C1906 1.387 . S
C1905 H1908 0.950 . S
C1906 C1905 1.387 . S
C1906 C1909 1.387 . S
H1907 C1903 0.950 . S
H1908 C1905 0.950 . S
C1909 C1900 1.390 . S
C1909 H1902 0.950 . S
C1909 C1906 1.387 . S
C1910 C1911 1.387 . S
C1910 H1914 0.950 . S
C1910 C1919 1.390 . S
C1911 C1910 1.387 . S
C1911 C1913 1.387 . S
H1912 C1919 0.950 . S
C1913 C1911 1.387 . S
C1913 C1915 1.390 . S
C1913 H1917 0.950 . S
H1914 C1910 0.950 . S
C1915 C1913 1.390 . S
C1915 C1916 1.387 . S
C1915 H1918 0.950 . S
C1916 C1915 1.387 . S
C1916 C1919 1.387 . S
H1917 C1913 0.950 . S
H1918 C1915 0.950 . S
C1919 C1910 1.390 . S
C1919 H1912 0.950 . S
C1919 C1916 1.387 . S
C1920 C1921 1.387 . S
C1920 H1924 0.950 . S
C1920 C1929 1.390 1_545 S
C1921 C1920 1.387 . S
C1921 C1923 1.387 . S
H1922 C1929 0.950 . S
C1923 C1921 1.387 . S
C1923 C1925 1.390 1_545 S
C1923 H1927 0.950 . S
H1924 C1920 0.950 . S
C1925 C1923 1.390 1_565 S
C1925 C1926 1.387 . S
C1925 H1928 0.950 . S
C1926 C1925 1.387 . S
C1926 C1929 1.387 . S
H1927 C1923 0.950 . S
H1928 C1925 0.950 . S
C1929 C1920 1.390 1_565 S
C1929 H1922 0.950 . S
C1929 C1926 1.387 . S
C1930 C1931 1.387 . S
C1930 H1934 0.950 . S
C1930 C1939 1.390 . S
C1931 C1930 1.387 . S
C1931 C1933 1.387 . S
H1932 C1939 0.950 . S
C1933 C1931 1.387 . S
C1933 C1935 1.390 . S
C1933 H1937 0.950 . S
H1934 C1930 0.950 . S
C1935 C1933 1.390 . S
C1935 C1936 1.387 . S
C1935 H1938 0.950 . S
C1936 C1935 1.387 . S
C1936 C1939 1.387 . S
H1937 C1933 0.950 . S
H1938 C1935 0.950 . S
C1939 C1930 1.390 . S
C1939 H1932 0.950 . S
C1939 C1936 1.387 . S
C1940 C1941 1.387 . S
C1940 H1944 0.950 . S
C1940 C1949 1.390 1_565 S
C1941 C1940 1.387 . S
C1941 C1943 1.387 . S
H1942 C1949 0.950 . S
C1943 C1941 1.387 . S
C1943 C1945 1.390 1_565 S
C1943 H1947 0.950 . S
H1944 C1940 0.950 . S
C1945 C1943 1.390 1_545 S
C1945 C1946 1.387 . S
C1945 H1948 0.950 . S
C1946 C1945 1.387 . S
C1946 C1949 1.387 . S
H1947 C1943 0.950 . S
H1948 C1945 0.950 . S
C1949 C1940 1.390 1_545 S
C1949 H1942 0.950 . S
C1949 C1946 1.387 . S
C1950 C1951 1.387 . S
C1950 H1954 0.950 . S
C1950 C1959 1.390 1_554 S
C1951 C1950 1.387 . S
C1951 C1953 1.387 . S
H1952 C1959 0.950 . S
C1953 C1951 1.387 . S
C1953 C1955 1.390 1_554 S
C1953 H1957 0.950 . S
H1954 C1950 0.950 . S
C1955 C1953 1.390 1_556 S
C1955 C1956 1.387 . S
C1955 H1958 0.950 . S
C1956 C1955 1.387 . S
C1956 C1959 1.387 . S
H1957 C1953 0.950 . S
H1958 C1955 0.950 . S
C1959 C1950 1.390 1_556 S
C1959 H1952 0.950 . S
C1959 C1956 1.387 . S
C1960 C1961 1.387 . S
C1960 H1964 0.950 . S
C1960 C1969 1.390 1_545 S
C1961 C1960 1.387 . S
C1961 C1963 1.387 . S
H1962 C1969 0.950 . S
C1963 C1961 1.387 . S
C1963 C1965 1.390 1_545 S
C1963 H1967 0.950 . S
H1964 C1960 0.950 . S
C1965 C1963 1.390 1_565 S
C1965 C1966 1.387 . S
C1965 H1968 0.950 . S
C1966 C1965 1.387 . S
C1966 C1969 1.387 . S
H1967 C1963 0.950 . S
H1968 C1965 0.950 . S
C1969 C1960 1.390 1_565 S
C1969 H1962 0.950 . S
C1969 C1966 1.387 . S
C1970 C1971 1.387 . S
C1970 H1974 0.950 . S
C1970 C1979 1.390 . S
C1971 C1970 1.387 . S
C1971 C1973 1.387 . S
H1972 C1979 0.950 . S
C1973 C1971 1.387 . S
C1973 C1975 1.390 . S
C1973 H1977 0.950 . S
H1974 C1970 0.950 . S
C1975 C1973 1.390 . S
C1975 C1976 1.387 . S
C1975 H1978 0.950 . S
C1976 C1975 1.387 . S
C1976 C1979 1.387 . S
H1977 C1973 0.950 . S
H1978 C1975 0.950 . S
C1979 C1970 1.390 . S
C1979 H1972 0.950 . S
C1979 C1976 1.387 . S
C1980 C1981 1.387 . S
C1980 H1984 0.950 . S
C1980 C1989 1.390 1_545 S
C1981 C1980 1.387 . S
C1981 C1983 1.387 . S
H1982 C1989 0.950 . S
C1983 C1981 1.387 . S
C1983 C1985 1.390 1_545 S
C1983 H1987 0.950 . S
H1984 C1980 0.950 . S
C1985 C1983 1.390 1_565 S
C1985 C1986 1.387 . S
C1985 H1988 0.950 . S
C1986 C1985 1.387 . S
C1986 C1989 1.387 . S
H1987 C1983 0.950 . S
H1988 C1985 0.950 . S
C1989 C1980 1.390 1_565 S
C1989 H1982 0.950 . S
C1989 C1986 1.387 . S
C1990 C1991 1.387 . S
C1990 H1994 0.950 . S
C1990 C1999 1.390 1_554 S
C1991 C1990 1.387 . S
C1991 C1993 1.387 . S
H1992 C1999 0.950 . S
C1993 C1991 1.387 . S
C1993 C1995 1.390 1_554 S
C1993 H1997 0.950 . S
H1994 C1990 0.950 . S
C1995 C1993 1.390 1_556 S
C1995 C1996 1.387 . S
C1995 H1998 0.950 . S
C1996 C1995 1.387 . S
C1996 C1999 1.387 . S
H1997 C1993 0.950 . S
H1998 C1995 0.950 . S
C1999 C1990 1.390 1_556 S
C1999 H1992 0.950 . S
C1999 C1996 1.387 . S
C2000 C2001 1.387 . S
C2000 H2004 0.950 . S
C2000 C2009 1.390 . S
C2001 C2000 1.387 . S
C2001 C2003 1.387 . S
H2002 C2009 0.950 . S
C2003 C2001 1.387 . S
C2003 C2005 1.390 . S
C2003 H2007 0.950 . S
H2004 C2000 0.950 . S
C2005 C2003 1.390 . S
C2005 C2006 1.387 . S
C2005 H2008 0.950 . S
C2006 C2005 1.387 . S
C2006 C2009 1.387 . S
H2007 C2003 0.950 . S
H2008 C2005 0.950 . S
C2009 C2000 1.390 . S
C2009 H2002 0.950 . S
C2009 C2006 1.387 . S
C2010 C2011 1.387 . S
C2010 H2014 0.950 . S
C2010 C2019 1.390 1_554 S
C2011 C2010 1.387 . S
C2011 C2013 1.387 . S
H2012 C2019 0.950 . S
C2013 C2011 1.387 . S
C2013 C2015 1.390 1_554 S
C2013 H2017 0.950 . S
H2014 C2010 0.950 . S
C2015 C2013 1.390 1_556 S
C2015 C2016 1.387 . S
C2015 H2018 0.950 . S
C2016 C2015 1.387 . S
C2016 C2019 1.387 . S
H2017 C2013 0.950 . S
H2018 C2015 0.950 . S
C2019 C2010 1.390 1_556 S
C2019 H2012 0.950 . S
C2019 C2016 1.387 . S
C2020 C2021 1.387 . S
C2020 H2024 0.950 . S
C2020 C2029 1.390 . S
C2021 C2020 1.387 . S
C2021 C2023 1.387 . S
H2022 C2029 0.950 . S
C2023 C2021 1.387 . S
C2023 C2025 1.390 . S
C2023 H2027 0.950 . S
H2024 C2020 0.950 . S
C2025 C2023 1.390 . S
C2025 C2026 1.387 . S
C2025 H2028 0.950 . S
C2026 C2025 1.387 . S
C2026 C2029 1.387 . S
H2027 C2023 0.950 . S
H2028 C2025 0.950 . S
C2029 C2020 1.390 . S
C2029 H2022 0.950 . S
C2029 C2026 1.387 . S
C2030 C2031 1.387 . S
C2030 H2034 0.950 . S
C2030 C2039 1.390 . S
C2031 C2030 1.387 . S
C2031 C2033 1.387 . S
H2032 C2039 0.950 . S
C2033 C2031 1.387 . S
C2033 C2035 1.390 . S
C2033 H2037 0.950 . S
H2034 C2030 0.950 . S
C2035 C2033 1.390 . S
C2035 C2036 1.387 . S
C2035 H2038 0.950 . S
C2036 C2035 1.387 . S
C2036 C2039 1.387 . S
H2037 C2033 0.950 . S
H2038 C2035 0.950 . S
C2039 C2030 1.390 . S
C2039 H2032 0.950 . S
C2039 C2036 1.387 . S
C2040 C2041 1.387 . S
C2040 H2044 0.950 . S
C2040 C2049 1.390 . S
C2041 C2040 1.387 . S
C2041 C2043 1.387 . S
H2042 C2049 0.950 . S
C2043 C2041 1.387 . S
C2043 C2045 1.390 . S
C2043 H2047 0.950 . S
H2044 C2040 0.950 . S
C2045 C2043 1.390 . S
C2045 C2046 1.387 . S
C2045 H2048 0.950 . S
C2046 C2045 1.387 . S
C2046 C2049 1.387 . S
H2047 C2043 0.950 . S
H2048 C2045 0.950 . S
C2049 C2040 1.390 . S
C2049 H2042 0.950 . S
C2049 C2046 1.387 . S
C2050 C2051 1.387 . S
C2050 H2054 0.950 . S
C2050 C2059 1.390 1_554 S
C2051 C2050 1.387 . S
C2051 C2053 1.387 . S
H2052 C2059 0.950 . S
C2053 C2051 1.387 . S
C2053 C2055 1.390 1_554 S
C2053 H2057 0.950 . S
H2054 C2050 0.950 . S
C2055 C2053 1.390 1_556 S
C2055 C2056 1.387 . S
C2055 H2058 0.950 . S
C2056 C2055 1.387 . S
C2056 C2059 1.387 . S
H2057 C2053 0.950 . S
H2058 C2055 0.950 . S
C2059 C2050 1.390 1_556 S
C2059 H2052 0.950 . S
C2059 C2056 1.387 . S
C2060 C2061 1.387 . S
C2060 H2064 0.950 . S
C2060 C2069 1.390 . S
C2061 C2060 1.387 . S
C2061 C2063 1.387 . S
H2062 C2069 0.950 . S
C2063 C2061 1.387 . S
C2063 C2065 1.390 . S
C2063 H2067 0.950 . S
H2064 C2060 0.950 . S
C2065 C2063 1.390 . S
C2065 C2066 1.387 . S
C2065 H2068 0.950 . S
C2066 C2065 1.387 . S
C2066 C2069 1.387 . S
H2067 C2063 0.950 . S
H2068 C2065 0.950 . S
C2069 C2060 1.390 . S
C2069 H2062 0.950 . S
C2069 C2066 1.387 . S
C2070 C2071 1.387 . S
C2070 H2074 0.950 . S
C2070 C2079 1.390 . S
C2071 C2070 1.387 . S
C2071 C2073 1.387 . S
H2072 C2079 0.950 . S
C2073 C2071 1.387 . S
C2073 C2075 1.390 . S
C2073 H2077 0.950 . S
H2074 C2070 0.950 . S
C2075 C2073 1.390 . S
C2075 C2076 1.387 . S
C2075 H2078 0.950 . S
C2076 C2075 1.387 . S
C2076 C2079 1.387 . S
H2077 C2073 0.950 . S
H2078 C2075 0.950 . S
C2079 C2070 1.390 . S
C2079 H2072 0.950 . S
C2079 C2076 1.387 . S
C2080 C2081 1.387 . S
C2080 H2084 0.950 . S
C2080 C2089 1.390 . S
C2081 C2080 1.387 . S
C2081 C2083 1.387 . S
H2082 C2089 0.950 . S
C2083 C2081 1.387 . S
C2083 C2085 1.390 . S
C2083 H2087 0.950 . S
H2084 C2080 0.950 . S
C2085 C2083 1.390 . S
C2085 C2086 1.387 . S
C2085 H2088 0.950 . S
C2086 C2085 1.387 . S
C2086 C2089 1.387 . S
H2087 C2083 0.950 . S
H2088 C2085 0.950 . S
C2089 C2080 1.390 . S
C2089 H2082 0.950 . S
C2089 C2086 1.387 . S
C2090 C2091 1.387 . S
C2090 H2094 0.950 . S
C2090 C2099 1.390 . S
C2091 C2090 1.387 . S
C2091 C2093 1.387 . S
H2092 C2099 0.950 . S
C2093 C2091 1.387 . S
C2093 C2095 1.390 . S
C2093 H2097 0.950 . S
H2094 C2090 0.950 . S
C2095 C2093 1.390 . S
C2095 C2096 1.387 . S
C2095 H2098 0.950 . S
C2096 C2095 1.387 . S
C2096 C2099 1.387 . S
H2097 C2093 0.950 . S
H2098 C2095 0.950 . S
C2099 C2090 1.390 . S
C2099 H2092 0.950 . S
C2099 C2096 1.387 . S
C2100 C2101 1.387 . S
C2100 H2104 0.950 . S
C2100 C2109 1.390 . S
C2101 C2100 1.387 . S
C2101 C2103 1.387 . S
H2102 C2109 0.950 . S
C2103 C2101 1.387 . S
C2103 C2105 1.390 . S
C2103 H2107 0.950 . S
H2104 C2100 0.950 . S
C2105 C2103 1.390 . S
C2105 C2106 1.387 . S
C2105 H2108 0.950 . S
C2106 C2105 1.387 . S
C2106 C2109 1.387 . S
H2107 C2103 0.950 . S
H2108 C2105 0.950 . S
C2109 C2100 1.390 . S
C2109 H2102 0.950 . S
C2109 C2106 1.387 . S
C2110 C2111 1.387 . S
C2110 H2114 0.950 . S
C2110 C2119 1.390 . S
C2111 C2110 1.387 . S
C2111 C2113 1.387 . S
H2112 C2119 0.950 . S
C2113 C2111 1.387 . S
C2113 C2115 1.390 . S
C2113 H2117 0.950 . S
H2114 C2110 0.950 . S
C2115 C2113 1.390 . S
C2115 C2116 1.387 . S
C2115 H2118 0.950 . S
C2116 C2115 1.387 . S
C2116 C2119 1.387 . S
H2117 C2113 0.950 . S
H2118 C2115 0.950 . S
C2119 C2110 1.390 . S
C2119 H2112 0.950 . S
C2119 C2116 1.387 . S
C2120 C2121 1.387 . S
C2120 H2124 0.950 . S
C2120 C2129 1.390 . S
C2121 C2120 1.387 . S
C2121 C2123 1.387 . S
H2122 C2129 0.950 . S
C2123 C2121 1.387 . S
C2123 C2125 1.390 . S
C2123 H2127 0.950 . S
H2124 C2120 0.950 . S
C2125 C2123 1.390 . S
C2125 C2126 1.387 . S
C2125 H2128 0.950 . S
C2126 C2125 1.387 . S
C2126 C2129 1.387 . S
H2127 C2123 0.950 . S
H2128 C2125 0.950 . S
C2129 C2120 1.390 . S
C2129 H2122 0.950 . S
C2129 C2126 1.387 . S
C2130 C2131 1.387 . S
C2130 H2134 0.950 . S
C2130 C2139 1.390 . S
C2131 C2130 1.387 . S
C2131 C2133 1.387 . S
H2132 C2139 0.950 . S
C2133 C2131 1.387 . S
C2133 C2135 1.390 . S
C2133 H2137 0.950 . S
H2134 C2130 0.950 . S
C2135 C2133 1.390 . S
C2135 C2136 1.387 . S
C2135 H2138 0.950 . S
C2136 C2135 1.387 . S
C2136 C2139 1.387 . S
H2137 C2133 0.950 . S
H2138 C2135 0.950 . S
C2139 C2130 1.390 . S
C2139 H2132 0.950 . S
C2139 C2136 1.387 . S
C2140 C2141 1.387 . S
C2140 H2144 0.950 . S
C2140 C2149 1.390 . S
C2141 C2140 1.387 . S
C2141 C2143 1.387 . S
H2142 C2149 0.950 . S
C2143 C2141 1.387 . S
C2143 C2145 1.390 . S
C2143 H2147 0.950 . S
H2144 C2140 0.950 . S
C2145 C2143 1.390 . S
C2145 C2146 1.387 . S
C2145 H2148 0.950 . S
C2146 C2145 1.387 . S
C2146 C2149 1.387 . S
H2147 C2143 0.950 . S
H2148 C2145 0.950 . S
C2149 C2140 1.390 . S
C2149 H2142 0.950 . S
C2149 C2146 1.387 . S
C2150 C2151 1.387 . S
C2150 H2154 0.950 . S
C2150 C2159 1.390 . S
C2151 C2150 1.387 . S
C2151 C2153 1.387 . S
H2152 C2159 0.950 . S
C2153 C2151 1.387 . S
C2153 C2155 1.390 . S
C2153 H2157 0.950 . S
H2154 C2150 0.950 . S
C2155 C2153 1.390 . S
C2155 C2156 1.387 . S
C2155 H2158 0.950 . S
C2156 C2155 1.387 . S
C2156 C2159 1.387 . S
H2157 C2153 0.950 . S
H2158 C2155 0.950 . S
C2159 C2150 1.390 . S
C2159 H2152 0.950 . S
C2159 C2156 1.387 . S
C2160 C2161 1.387 . S
C2160 H2164 0.950 . S
C2160 C2169 1.390 . S
C2161 C2160 1.387 . S
C2161 C2163 1.387 . S
H2162 C2169 0.950 . S
C2163 C2161 1.387 . S
C2163 C2165 1.390 . S
C2163 H2167 0.950 . S
H2164 C2160 0.950 . S
C2165 C2163 1.390 . S
C2165 C2166 1.387 . S
C2165 H2168 0.950 . S
C2166 C2165 1.387 . S
C2166 C2169 1.387 . S
H2167 C2163 0.950 . S
H2168 C2165 0.950 . S
C2169 C2160 1.390 . S
C2169 H2162 0.950 . S
C2169 C2166 1.387 . S
C2170 C2171 1.387 . S
C2170 H2174 0.950 . S
C2170 C2179 1.390 . S
C2171 C2170 1.387 . S
C2171 C2173 1.387 . S
H2172 C2179 0.950 . S
C2173 C2171 1.387 . S
C2173 C2175 1.390 . S
C2173 H2177 0.950 . S
H2174 C2170 0.950 . S
C2175 C2173 1.390 . S
C2175 C2176 1.387 . S
C2175 H2178 0.950 . S
C2176 C2175 1.387 . S
C2176 C2179 1.387 . S
H2177 C2173 0.950 . S
H2178 C2175 0.950 . S
C2179 C2170 1.390 . S
C2179 H2172 0.950 . S
C2179 C2176 1.387 . S
C2180 C2181 1.387 . S
C2180 H2184 0.950 . S
C2180 C2189 1.390 . S
C2181 C2180 1.387 . S
C2181 C2183 1.387 . S
H2182 C2189 0.950 . S
C2183 C2181 1.387 . S
C2183 C2185 1.390 . S
C2183 H2187 0.950 . S
H2184 C2180 0.950 . S
C2185 C2183 1.390 . S
C2185 C2186 1.387 . S
C2185 H2188 0.950 . S
C2186 C2185 1.387 . S
C2186 C2189 1.387 . S
H2187 C2183 0.950 . S
H2188 C2185 0.950 . S
C2189 C2180 1.390 . S
C2189 H2182 0.950 . S
C2189 C2186 1.387 . S
C2190 C2191 1.387 . S
C2190 H2194 0.950 . S
C2190 C2199 1.390 . S
C2191 C2190 1.387 . S
C2191 C2193 1.387 . S
H2192 C2199 0.950 . S
C2193 C2191 1.387 . S
C2193 C2195 1.390 . S
C2193 H2197 0.950 . S
H2194 C2190 0.950 . S
C2195 C2193 1.390 . S
C2195 C2196 1.387 . S
C2195 H2198 0.950 . S
C2196 C2195 1.387 . S
C2196 C2199 1.387 . S
H2197 C2193 0.950 . S
H2198 C2195 0.950 . S
C2199 C2190 1.390 . S
C2199 H2192 0.950 . S
C2199 C2196 1.387 . S
C2200 C2201 1.387 . S
C2200 H2204 0.950 . S
C2200 C2209 1.390 . S
C2201 C2200 1.387 . S
C2201 C2203 1.387 . S
H2202 C2209 0.950 . S
C2203 C2201 1.387 . S
C2203 C2205 1.390 . S
C2203 H2207 0.950 . S
H2204 C2200 0.950 . S
C2205 C2203 1.390 . S
C2205 C2206 1.387 . S
C2205 H2208 0.950 . S
C2206 C2205 1.387 . S
C2206 C2209 1.387 . S
H2207 C2203 0.950 . S
H2208 C2205 0.950 . S
C2209 C2200 1.390 . S
C2209 H2202 0.950 . S
C2209 C2206 1.387 . S
C2210 C2211 1.387 . S
C2210 H2214 0.950 . S
C2210 C2219 1.390 . S
C2211 C2210 1.387 . S
C2211 C2213 1.387 . S
H2212 C2219 0.950 . S
C2213 C2211 1.387 . S
C2213 C2215 1.390 . S
C2213 H2217 0.950 . S
H2214 C2210 0.950 . S
C2215 C2213 1.390 . S
C2215 C2216 1.387 . S
C2215 H2218 0.950 . S
C2216 C2215 1.387 . S
C2216 C2219 1.387 . S
H2217 C2213 0.950 . S
H2218 C2215 0.950 . S
C2219 C2210 1.390 . S
C2219 H2212 0.950 . S
C2219 C2216 1.387 . S
C2220 C2221 1.387 . S
C2220 H2224 0.950 . S
C2220 C2229 1.390 . S
C2221 C2220 1.387 . S
C2221 C2223 1.387 . S
H2222 C2229 0.950 . S
C2223 C2221 1.387 . S
C2223 C2225 1.390 . S
C2223 H2227 0.950 . S
H2224 C2220 0.950 . S
C2225 C2223 1.390 . S
C2225 C2226 1.387 . S
C2225 H2228 0.950 . S
C2226 C2225 1.387 . S
C2226 C2229 1.387 . S
H2227 C2223 0.950 . S
H2228 C2225 0.950 . S
C2229 C2220 1.390 . S
C2229 H2222 0.950 . S
C2229 C2226 1.387 . S
C2230 C2231 1.387 . S
C2230 H2234 0.950 . S
C2230 C2239 1.390 . S
C2231 C2230 1.387 . S
C2231 C2233 1.387 . S
H2232 C2239 0.950 . S
C2233 C2231 1.387 . S
C2233 C2235 1.390 . S
C2233 H2237 0.950 . S
H2234 C2230 0.950 . S
C2235 C2233 1.390 . S
C2235 C2236 1.387 . S
C2235 H2238 0.950 . S
C2236 C2235 1.387 . S
C2236 C2239 1.387 . S
H2237 C2233 0.950 . S
H2238 C2235 0.950 . S
C2239 C2230 1.390 . S
C2239 H2232 0.950 . S
C2239 C2236 1.387 . S
C1281 C25 0.986 . S
C1286 C140 0.988 . S
C1291 C20 0.988 . S
C1296 C65 0.986 . S
C1301 C105 0.989 . S
C1306 C60 0.985 . S
C1311 C100 0.985 . S
C1316 C145 0.989 . S
C1321 C220 0.985 . S
C1326 C185 0.989 . S
C1331 C225 0.987 . S
C1336 C260 0.987 . S
C1341 C300 0.988 . S
C1346 C265 0.986 . S
C1351 C180 0.988 . S
C1356 C305 0.985 . S
C1361 C324 0.986 . S
C1366 C471 0.988 . S
C1371 C364 0.987 . S
C1376 C351 0.986 . S
C1381 C404 0.986 . S
C1386 C391 0.988 . S
C1391 C444 0.986 . S
C1396 C431 0.988 . S
C1401 C484 0.986 . S
C1406 C551 0.988 . S
C1411 C524 0.986 . S
C1416 C591 0.988 . S
C1421 C631 0.988 . S
C1426 C564 0.986 . S
C1431 C511 0.987 . S
C1436 C604 0.986 . S
C1441 C665 0.986 . S
C1446 C780 0.987 . S
C1451 C660 0.985 . S
C1456 C705 0.989 . S
C1461 C700 0.985 . S
C1466 C745 0.989 . S
C1471 C785 0.986 . S
C1476 C740 0.988 . S
C1481 C825 0.986 . S
C1486 C860 0.988 . S
C1491 C900 0.985 . S
C1496 C865 0.989 . S
C1501 C905 0.986 . S
C1506 C940 0.988 . S
C1511 C820 0.987 . S
C1516 C945 0.986 . S
C1521 C1111 0.988 . S
C1526 C964 0.986 . S
C1531 C991 0.985 . S
C1536 C1004 0.989 . S
C1541 C1044 0.986 . S
C1546 C1031 0.988 . S
C1551 C1071 0.988 . S
C1556 C1084 0.986 . S
C1561 C1191 0.987 . S
C1566 C1124 0.986 . S
C1571 C1231 0.988 . S
C1576 C1164 0.986 . S
C1581 C1271 0.988 . S
C1586 C1204 0.986 . S
C1591 C1244 0.988 . S
C1596 C1151 0.986 . S
C1601 C1105 1.523 . S
C1606 C23 1.480 . S
C1611 C63 1.482 . S
C1616 C345 1.524 . S
C1621 C103 1.482 . S
C1626 C1025 1.524 . S
C1631 C143 1.481 . S
C1636 C425 1.524 . S
C1641 C183 1.482 . S
C1646 C1185 1.524 . S
C1651 C585 1.524 . S
C1656 C223 1.482 . S
C1661 C1265 1.522 . S
C1666 C263 1.480 . S
C1671 C303 1.480 . S
C1676 C505 1.523 . S
C1681 C322 1.480 . S
C1686 C764 1.522 . S
C1691 C4 1.523 . S
C1696 C362 1.481 . S
C1701 C684 1.522 . S
C1706 C402 1.480 . S
C1711 C84 1.524 . S
C1716 C442 1.482 . S
C1721 C844 1.524 . S
C1726 C482 1.482 . S
C1731 C244 1.523 . S
C1736 C522 1.481 . S
C1741 C562 1.482 . S
C1746 C924 1.523 . S
C1751 C602 1.481 . S
C1756 C164 1.523 . S
C1761 C663 1.483 . S
C1766 C465 1.524 . S
C1771 C703 1.481 . S
C1776 C985 1.524 . S
C1781 C743 1.482 . S
C1786 C385 1.524 . S
C1791 C783 1.482 . S
C1796 C1065 1.524 . S
C1801 C823 1.480 . S
C1806 C545 1.523 . S
C1811 C863 1.480 . S
C1816 C1225 1.523 . S
C1821 C625 1.524 . S
C1826 C903 1.482 . S
C1831 C943 1.481 . S
C1836 C1145 1.523 . S
C1841 C124 1.522 . S
C1846 C962 1.480 . S
C1851 C644 1.524 . S
C1856 C1002 1.482 . S
C1861 C44 1.523 . S
C1866 C1042 1.480 . S
C1871 C724 1.523 . S
C1876 C1082 1.481 . S
C1881 C204 1.524 . S
C1886 C1122 1.482 . S
C1891 C1162 1.481 . S
C1896 C884 1.523 . S
C1901 C1202 1.480 . S
C1906 C284 1.523 . S
C1911 C804 1.524 . S
C1916 C1242 1.482 . S
C1921 C2 1.281 . S
C1926 C162 1.281 . S
C1931 C42 1.287 . S
C1936 C202 1.287 . S
C1941 C82 1.281 . S
C1946 C242 1.281 . S
C1951 C282 1.281 . S
C1956 C122 1.281 . S
C1961 C503 1.286 . S
C1966 C343 1.286 . S
C1971 C543 1.287 . S
C1976 C383 1.287 . S
C1981 C423 1.281 . S
C1986 C583 1.281 . S
C1991 C463 1.287 . S
C1996 C623 1.287 . S
C2001 C642 1.286 . S
C2006 C802 1.286 . S
C2011 C842 1.281 . S
C2016 C682 1.281 . S
C2021 C882 1.281 . S
C2026 C722 1.281 . S
C2031 C922 1.281 . S
C2036 C762 1.281 . S
C2041 C1143 1.281 . S
C2046 C983 1.281 . S
C2051 C1023 1.287 . S
C2056 C1183 1.287 . S
C2061 C1223 1.286 . S
C2066 C1063 1.286 . S
C2071 C1103 1.281 . S
C2076 C1263 1.281 . S
C2081 C311 2.635 . S
C2086 C31 2.635 . S
C2091 C71 2.635 . S
C2096 C191 2.636 . S
C2101 C111 2.636 . S
C2106 C231 2.635 . S
C2111 C271 2.635 . S
C2116 C151 2.635 . S
C2121 C340 2.635 . S
C2126 C620 2.636 . S
C2131 C500 2.635 . S
C2136 C380 2.635 . S
C2141 C540 2.635 . S
C2146 C420 2.636 . S
C2151 C460 2.636 . S
C2156 C580 2.635 . S
C2161 C671 2.635 . S
C2166 C951 2.635 . S
C2171 C831 2.635 . S
C2176 C711 2.636 . S
C2181 C871 2.636 . S
C2186 C751 2.635 . S
C2191 C911 2.635 . S
C2196 C791 2.636 . S
C2201 C980 2.635 . S
C2206 C1260 2.635 . S
C2211 C1140 2.635 . S
C2216 C1020 2.636 . S
C2221 C1060 2.635 . S
C2226 C1180 2.636 . S
C2231 C1220 2.635 . S
C2236 C1100 2.636 . S
