# Generated by pormake.
# Topology wkw, (8)-cn, num edge types: 1
# Building blocks:
#     Node 0, Type 0, BuildingBlock: TAGTUT_clean_sbu_1, # of connection points: 8
#     Node 1, Type 0, BuildingBlock: TAGTUT_clean_sbu_1, # of connection points: 8
#     Node 2, Type 0, BuildingBlock: TAGTUT_clean_sbu_1, # of connection points: 8
#     Node 3, Type 0, BuildingBlock: TAGTUT_clean_sbu_1, # of connection points: 8
#     Node 4, Type 0, BuildingBlock: TAGTUT_clean_sbu_1, # of connection points: 8
#     Node 5, Type 0, BuildingBlock: TAGTUT_clean_sbu_1, # of connection points: 8
#     Edge 6, Type (0, 0), BuildingBlock: MIFKUJ_clean_linker_0, # of connection points: 2
#     Edge 7, Type (0, 0), BuildingBlock: MIFKUJ_clean_linker_0, # of connection points: 2
#     Edge 8, Type (0, 0), BuildingBlock: MIFKUJ_clean_linker_0, # of connection points: 2
#     Edge 9, Type (0, 0), BuildingBlock: MIFKUJ_clean_linker_0, # of connection points: 2
#     Edge 10, Type (0, 0), BuildingBlock: MIFKUJ_clean_linker_0, # of connection points: 2
#     Edge 11, Type (0, 0), BuildingBlock: MIFKUJ_clean_linker_0, # of connection points: 2
#     Edge 12, Type (0, 0), BuildingBlock: MIFKUJ_clean_linker_0, # of connection points: 2
#     Edge 13, Type (0, 0), BuildingBlock: MIFKUJ_clean_linker_0, # of connection points: 2
#     Edge 14, Type (0, 0), BuildingBlock: MIFKUJ_clean_linker_0, # of connection points: 2
#     Edge 15, Type (0, 0), BuildingBlock: MIFKUJ_clean_linker_0, # of connection points: 2
#     Edge 16, Type (0, 0), BuildingBlock: MIFKUJ_clean_linker_0, # of connection points: 2
#     Edge 17, Type (0, 0), BuildingBlock: MIFKUJ_clean_linker_0, # of connection points: 2
#     Edge 18, Type (0, 0), BuildingBlock: MIFKUJ_clean_linker_0, # of connection points: 2
#     Edge 19, Type (0, 0), BuildingBlock: MIFKUJ_clean_linker_0, # of connection points: 2
#     Edge 20, Type (0, 0), BuildingBlock: MIFKUJ_clean_linker_0, # of connection points: 2
#     Edge 21, Type (0, 0), BuildingBlock: MIFKUJ_clean_linker_0, # of connection points: 2
#     Edge 22, Type (0, 0), BuildingBlock: MIFKUJ_clean_linker_0, # of connection points: 2
#     Edge 23, Type (0, 0), BuildingBlock: MIFKUJ_clean_linker_0, # of connection points: 2
#     Edge 24, Type (0, 0), BuildingBlock: MIFKUJ_clean_linker_0, # of connection points: 2
#     Edge 25, Type (0, 0), BuildingBlock: MIFKUJ_clean_linker_0, # of connection points: 2
#     Edge 26, Type (0, 0), BuildingBlock: MIFKUJ_clean_linker_0, # of connection points: 2
#     Edge 27, Type (0, 0), BuildingBlock: MIFKUJ_clean_linker_0, # of connection points: 2
#     Edge 28, Type (0, 0), BuildingBlock: MIFKUJ_clean_linker_0, # of connection points: 2
#     Edge 29, Type (0, 0), BuildingBlock: MIFKUJ_clean_linker_0, # of connection points: 2
# Relax obj value: 0.239
# Max RMSD: 0.271
# Mean RMSD: 0.271
data_MOF--net-wkw--node1-TAGTUT_clean_sbu_1--edge1-MIFKUJ_clean_linker_0
_symmetry_space_group_name_H-M    P1
_symmetry_Int_Tables_number       1
_symmetry_cell_setting            triclinic
loop_
_symmetry_equiv_pos_as_xyz
'x, y, z'
_cell_length_a     50.636363
_cell_length_b     50.591339
_cell_length_c     23.142473
_cell_angle_alpha  90.082231
_cell_angle_beta   90.018992
_cell_angle_gamma 120.11573
loop_
_atom_site_label
_atom_site_type_symbol
_atom_site_fract_x
_atom_site_fract_y
_atom_site_fract_z
_atom_type_partial_charge
C0 C 0.77999 0.23612 0.90004 0.0
C1 C 0.86695 0.30826 0.8358 0.0
C2 C 0.91727 0.26883 -0.00137 0.0
Mg3 Mg 0.82699 0.30076 0.94124 0.0
O4 O 0.84201 0.27861 0.97962 0.0
Mg5 Mg 0.8521 0.25217 0.93166 0.0
Mg6 Mg 0.87961 0.30022 0.02669 0.0
O7 O 0.91721 0.32237 0.07862 0.0
Mg8 Mg 0.9306 0.29488 0.11689 0.0
Mg9 Mg 0.9086 0.35611 0.11815 0.0
C10 C 0.84621 0.33838 0.05951 0.0
C11 C 0.91271 0.3716 0.98108 0.0
O12 O 0.80108 0.22896 0.89823 0.0
O13 O 0.78464 0.26208 0.91785 0.0
O14 O 0.86772 0.28489 0.85429 0.0
O15 O 0.85335 0.3197 0.8637 0.0
O16 O 0.83229 0.33187 0.01063 0.0
O17 O 0.86056 0.32503 0.07795 0.0
C18 C 0.84148 0.22756 0.06328 0.0
O19 O 0.85632 0.25507 0.08332 0.0
O20 O 0.83777 0.22189 0.00924 0.0
O21 O 0.9441 0.34265 0.08989 0.0
O22 O 0.97877 0.3317 0.11536 0.0
O23 O 0.89962 0.32879 0.20202 0.0
C24 C 0.97202 0.35241 0.10559 0.0
O25 O 0.91152 0.29141 0.20339 0.0
O26 O 0.90945 0.25936 0.05027 0.0
C27 C 0.90136 0.30734 0.22789 0.0
O28 O 0.90173 0.27846 0.97117 0.0
O29 O 0.90062 0.34323 0.96791 0.0
O30 O 0.91699 0.38076 0.03344 0.0
C31 C 0.57359 0.78424 0.03464 0.0
C32 C 0.57176 0.86458 0.98147 0.0
C33 C 0.64967 0.92349 0.16023 0.0
Mg34 Mg 0.53992 0.81707 0.07682 0.0
O35 O 0.57443 0.83579 0.12424 0.0
Mg36 Mg 0.61532 0.85742 0.08479 0.0
Mg37 Mg 0.57821 0.86903 0.17452 0.0
O38 O 0.58106 0.90244 0.22425 0.0
Mg39 Mg 0.61376 0.92528 0.27388 0.0
Mg40 Mg 0.53892 0.88239 0.25736 0.0
C41 C 0.50467 0.82077 0.18722 0.0
C42 C 0.53301 0.89121 0.12034 0.0
O43 O 0.59972 0.80855 0.04332 0.0
O44 O 0.54805 0.78253 0.04593 0.0
O45 O 0.59725 0.87019 0.00353 0.0
O46 O 0.54643 0.84627 0.00544 0.0
O47 O 0.50395 0.80992 0.13673 0.0
O48 O 0.53008 0.83766 0.21383 0.0
C49 C 0.62331 0.84415 0.21892 0.0
O50 O 0.60386 0.85195 0.23592 0.0
O51 O 0.63073 0.84504 0.16586 0.0
O52 O 0.55141 0.93001 0.29035 0.0
O53 O 0.60249 0.96013 0.29528 0.0
O54 O 0.55528 0.87264 0.3442 0.0
C55 C 0.57542 0.95594 0.29969 0.0
O56 O 0.60619 0.89788 0.34906 0.0
O57 O 0.64894 0.93349 0.21103 0.0
C58 C 0.58012 0.87968 0.37093 0.0
O59 O 0.62539 0.90224 0.13513 0.0
O60 O 0.55351 0.88403 0.1103 0.0
O61 O 0.52416 0.89212 0.17164 0.0
C62 C 0.77589 0.55525 0.16916 0.0
C63 C 0.69911 0.56435 0.11472 0.0
C64 C 0.72677 0.64299 0.29434 0.0
Mg65 Mg 0.70896 0.52764 0.20887 0.0
O66 O 0.72853 0.56186 0.25757 0.0
Mg67 Mg 0.75171 0.60298 0.21925 0.0
Mg68 Mg 0.70209 0.5696 0.30895 0.0
O69 O 0.67475 0.57677 0.36003 0.0
Mg70 Mg 0.6907 0.60993 0.41102 0.0
Mg71 Mg 0.64919 0.53501 0.39335 0.0
C72 C 0.66911 0.49515 0.32069 0.0
C73 C 0.633 0.5309 0.25714 0.0
O74 O 0.7809 0.5825 0.17934 0.0
O75 O 0.75005 0.53113 0.17802 0.0
O76 O 0.72106 0.58839 0.13757 0.0
O77 O 0.68899 0.53818 0.13771 0.0
O78 O 0.67744 0.493 0.26927 0.0
O79 O 0.68075 0.52094 0.34741 0.0
C80 C 0.77321 0.60928 0.35277 0.0
O81 O 0.74547 0.59198 0.37014 0.0
O82 O 0.77986 0.61608 0.29966 0.0
O83 O 0.61977 0.5536 0.43028 0.0
O84 O 0.64737 0.6049 0.43819 0.0
O85 O 0.67684 0.54808 0.47867 0.0
C86 C 0.62219 0.57948 0.44233 0.0
O87 O 0.70932 0.5983 0.48323 0.0
O88 O 0.71914 0.644 0.34702 0.0
C89 C 0.69782 0.57158 0.50484 0.0
O90 O 0.72019 0.61751 0.26926 0.0
O91 O 0.66147 0.54767 0.24588 0.0
O92 O 0.62301 0.52364 0.30877 0.0
C93 C 0.21973 0.77743 0.31313 0.0
C94 C 0.13438 0.69765 0.26449 0.0
C95 C 0.08192 0.7246 0.44342 0.0
Mg96 Mg 0.18242 0.71118 0.35775 0.0
O97 O 0.1668 0.73053 0.40428 0.0
Mg98 Mg 0.14762 0.752 0.36519 0.0
Mg99 Mg 0.13403 0.70463 0.45858 0.0
O100 O 0.10111 0.67748 0.51354 0.0
Mg101 Mg 0.08238 0.6919 0.56397 0.0
Mg102 Mg 0.12023 0.65466 0.54731 0.0
C103 C 0.17981 0.67669 0.47351 0.0
C104 C 0.10377 0.63398 0.41349 0.0
O105 O 0.19693 0.78172 0.32194 0.0
O106 O 0.21894 0.75232 0.32467 0.0
O107 O 0.13155 0.71942 0.28607 0.0
O108 O 0.1513 0.68875 0.28813 0.0
O109 O 0.18923 0.68326 0.42114 0.0
O110 O 0.16393 0.68704 0.49737 0.0
C111 C 0.16518 0.77689 0.49684 0.0
O112 O 0.15539 0.74955 0.51595 0.0
O113 O 0.16378 0.78232 0.44343 0.0
O114 O 0.07422 0.62363 0.58958 0.0
O115 O 0.04683 0.64738 0.59578 0.0
O116 O 0.13509 0.68428 0.62962 0.0
C117 C 0.04972 0.62376 0.60268 0.0
O118 O 0.11367 0.71349 0.63465 0.0
O119 O 0.07364 0.71704 0.49638 0.0
C120 C 0.13102 0.70429 0.65559 0.0
O121 O 0.10226 0.71997 0.41893 0.0
O122 O 0.11425 0.66193 0.39894 0.0
O123 O 0.1039 0.62614 0.46588 0.0
C124 C 0.43395 0.22704 0.54376 0.0
C125 C 0.43382 0.14765 0.47845 0.0
C126 C 0.35522 0.08288 0.65083 0.0
Mg127 Mg 0.46601 0.19172 0.57941 0.0
O128 O 0.43109 0.17199 0.62541 0.0
Mg129 Mg 0.39055 0.15216 0.58508 0.0
Mg130 Mg 0.42645 0.13755 0.67269 0.0
O131 O 0.42252 0.10284 0.71961 0.0
Mg132 Mg 0.38878 0.08035 0.76766 0.0
Mg133 Mg 0.46411 0.12275 0.75555 0.0
C134 C 0.49933 0.18483 0.68936 0.0
C135 C 0.47236 0.11672 0.6182 0.0
O136 O 0.40752 0.20247 0.54777 0.0
O137 O 0.45902 0.22796 0.55615 0.0
O138 O 0.40849 0.1414 0.50196 0.0
O139 O 0.45932 0.16526 0.50286 0.0
O140 O 0.50112 0.19642 0.63923 0.0
O141 O 0.47358 0.168 0.71454 0.0
C142 C 0.38185 0.16171 0.72146 0.0
O143 O 0.40083 0.153 0.73618 0.0
O144 O 0.37477 0.16261 0.66868 0.0
O145 O 0.45071 0.0745 0.78703 0.0
O146 O 0.39948 0.04516 0.79092 0.0
O147 O 0.44649 0.13196 0.8411 0.0
C148 C 0.42634 0.04878 0.7959 0.0
O149 O 0.39557 0.108 0.84278 0.0
O150 O 0.35456 0.07214 0.70159 0.0
C151 C 0.42146 0.1257 0.86605 0.0
O152 O 0.3799 0.10548 0.62965 0.0
O153 O 0.45215 0.12428 0.60803 0.0
O154 O 0.4801 0.1143 0.66971 0.0
C155 C 0.23181 0.45767 0.7307 0.0
C156 C 0.30648 0.44704 0.66938 0.0
C157 C 0.2711 0.36127 0.84053 0.0
Mg158 Mg 0.29754 0.48135 0.77099 0.0
O159 O 0.27958 0.44516 0.81248 0.0
Mg160 Mg 0.25335 0.40632 0.76982 0.0
Mg161 Mg 0.30353 0.43262 0.8613 0.0
O162 O 0.32721 0.41983 0.91445 0.0
Mg163 Mg 0.30079 0.37947 0.95491 0.0
Mg164 Mg 0.36045 0.46379 0.94931 0.0
C165 C 0.33861 0.50598 0.88518 0.0
C166 C 0.3741 0.46924 0.81175 0.0
O167 O 0.22708 0.43017 0.73203 0.0
O168 O 0.25677 0.48088 0.74743 0.0
O169 O 0.28495 0.42214 0.69039 0.0
O170 O 0.31547 0.47273 0.69401 0.0
O171 O 0.32901 0.51074 0.83704 0.0
O172 O 0.32837 0.47881 0.90561 0.0
C173 C 0.2323 0.39859 0.90376 0.0
O174 O 0.26029 0.41313 0.92077 0.0
O175 O 0.2249 0.39299 0.85051 0.0
O176 O 0.34833 0.41465 0.93179 0.0
O177 O 0.33814 0.3688 0.953 0.0
O178 O 0.33315 0.44798 0.03475 0.0
C179 C 0.35847 0.39675 0.94607 0.0
O180 O 0.29771 0.39775 0.03833 0.0
O181 O 0.26333 0.36102 0.89293 0.0
C182 C 0.31219 0.42449 0.06125 0.0
O183 O 0.28178 0.38632 0.81214 0.0
O184 O 0.3454 0.45355 0.80092 0.0
O185 O 0.38469 0.47578 0.86317 0.0
H186 H 0.92541 0.28673 0.3104 0.0
H187 H 0.92205 0.29065 0.41553 0.0
H188 H 0.86144 0.32652 0.39191 0.0
H189 H 0.86466 0.32271 0.28731 0.0
H190 H 0.93927 0.34421 0.47928 0.0
H191 H 0.8099 0.30032 0.50325 0.0
H192 H 0.76117 0.26295 0.45761 0.0
H193 H 0.80106 0.20986 0.40115 0.0
H194 H 0.84986 0.24665 0.44713 0.0
H195 H 0.84966 0.33895 0.76194 0.0
H196 H 0.85912 0.34518 0.65772 0.0
H197 H 0.91896 0.30786 0.67227 0.0
H198 H 0.90948 0.30136 0.77614 0.0
H199 H 0.84203 0.29361 0.58886 0.0
H200 H 0.97209 0.33883 0.56085 0.0
H201 H 0.02034 0.37499 0.60939 0.0
H202 H 0.97893 0.42467 0.67685 0.0
H203 H 0.93062 0.38919 0.62786 0.0
C204 C 0.91079 0.29473 0.3277 0.0
C205 C 0.89514 0.30422 0.29063 0.0
C206 C 0.90921 0.29733 0.38765 0.0
C207 C 0.89155 0.30893 0.41136 0.0
C208 C 0.87506 0.31735 0.37449 0.0
C209 C 0.87686 0.31507 0.31474 0.0
C210 C 0.89078 0.31299 0.47459 0.0
C211 C 0.9181 0.33288 0.50347 0.0
C212 C 0.86299 0.29887 0.50561 0.0
C213 C 0.83365 0.27647 0.47808 0.0
C214 C 0.80825 0.28064 0.48122 0.0
C215 C 0.78061 0.25955 0.45529 0.0
C216 C 0.77806 0.23411 0.42632 0.0
C217 C 0.80311 0.22965 0.42337 0.0
C218 C 0.83078 0.25065 0.44927 0.0
C219 C 0.86554 0.33294 0.74322 0.0
C220 C 0.87848 0.31924 0.77698 0.0
C221 C 0.87077 0.33634 0.68366 0.0
C222 C 0.88949 0.32671 0.65736 0.0
C223 C 0.90448 0.31549 0.69178 0.0
C224 C 0.89898 0.31172 0.75109 0.0
C225 C 0.89052 0.32477 0.59368 0.0
C226 C 0.8632 0.30518 0.56464 0.0
C227 C 0.91832 0.33912 0.56271 0.0
C228 C 0.9476 0.36111 0.59106 0.0
C229 C 0.97332 0.35758 0.5857 0.0
C230 C 1.00069 0.37796 0.61332 0.0
C231 C 1.00268 0.40207 0.64624 0.0
C232 C 0.97734 0.40595 0.65142 0.0
C233 C 0.94995 0.38568 0.62379 0.0
H234 H 0.02386 0.41775 0.66774 0.0
H235 H 0.75665 0.21782 0.40628 0.0
H236 H 0.62762 0.89747 0.44669 0.0
H237 H 0.62445 0.89521 0.55188 0.0
H238 H 0.52622 0.8427 0.54154 0.0
H239 H 0.52904 0.84476 0.4362 0.0
H240 H 0.59669 0.92085 0.61479 0.0
H241 H 0.50001 0.79781 0.66391 0.0
H242 H 0.47922 0.74552 0.62561 0.0
H243 H 0.56672 0.77009 0.5536 0.0
H244 H 0.58813 0.82238 0.59209 0.0
H245 H 0.52169 0.85151 0.91578 0.0
H246 H 0.5206 0.85651 0.8111 0.0
H247 H 0.61902 0.90582 0.80714 0.0
H248 H 0.62047 0.90067 0.91178 0.0
H249 H 0.54533 0.82951 0.74074 0.0
H250 H 0.64105 0.95368 0.68827 0.0
H251 H 0.66149 0.00561 0.72809 0.0
H252 H 0.57518 0.97856 0.8084 0.0
H253 H 0.55409 0.92664 0.76841 0.0
C254 C 0.60532 0.88474 0.46657 0.0
C255 C 0.57856 0.87158 0.43284 0.0
C256 C 0.60359 0.88371 0.52678 0.0
C257 C 0.57512 0.86914 0.55441 0.0
C258 C 0.54843 0.85405 0.52101 0.0
C259 C 0.55012 0.85519 0.46073 0.0
C260 C 0.57331 0.87162 0.61786 0.0
C261 C 0.58583 0.9009 0.6425 0.0
C262 C 0.55815 0.84556 0.65352 0.0
C263 C 0.54556 0.81412 0.63034 0.0
C264 C 0.51482 0.79203 0.64001 0.0
C265 C 0.50293 0.76239 0.61826 0.0
C266 C 0.52161 0.75452 0.58702 0.0
C267 C 0.55224 0.77626 0.57758 0.0
C268 C 0.56425 0.80592 0.59926 0.0
C269 C 0.54317 0.86409 0.89298 0.0
C270 C 0.57121 0.87507 0.92205 0.0
C271 C 0.54244 0.86682 0.83308 0.0
C272 C 0.56969 0.88112 0.80147 0.0
C273 C 0.59772 0.89467 0.83087 0.0
C274 C 0.5985 0.89171 0.89074 0.0
C275 C 0.56902 0.87873 0.73773 0.0
C276 C 0.55602 0.84946 0.713 0.0
C277 C 0.58366 0.9048 0.70204 0.0
C278 C 0.59609 0.93614 0.72574 0.0
C279 C 0.62639 0.95884 0.71422 0.0
C280 C 0.6381 0.98828 0.73686 0.0
C281 C 0.61968 0.99536 0.7709 0.0
C282 C 0.58947 0.97303 0.78223 0.0
C283 C 0.57765 0.94356 0.75966 0.0
H284 H 0.6288 0.01815 0.78841 0.0
H285 H 0.51236 0.73156 0.57025 0.0
H286 H 0.6564 0.51739 0.04842 0.0
H287 H 0.65193 0.51751 0.94345 0.0
H288 H 0.71498 0.61459 0.94057 0.0
H289 H 0.71975 0.61482 0.04556 0.0
H290 H 0.66899 0.59401 0.85332 0.0
H291 H 0.74411 0.57074 0.93051 0.0
H292 H 0.76013 0.54204 0.99348 0.0
H293 H 0.6965 0.45838 0.90856 0.0
H294 H 0.67978 0.4866 0.84561 0.0
H295 H 0.73444 0.61724 0.58013 0.0
H296 H 0.73244 0.61417 0.68532 0.0
H297 H 0.67234 0.51666 0.6754 0.0
H298 H 0.6741 0.51935 0.56996 0.0
H299 H 0.7137 0.53489 0.76853 0.0
H300 H 0.6398 0.55713 0.68879 0.0
H301 H 0.6219 0.58452 0.62673 0.0
H302 H 0.68115 0.6684 0.71577 0.0
H303 H 0.6996 0.64146 0.77814 0.0
C304 C 0.66869 0.53897 0.02579 0.0
C305 C 0.68918 0.56597 0.05526 0.0
C306 C 0.66611 0.53894 0.96573 0.0
C307 C 0.6838 0.5659 0.93435 0.0
C308 C 0.70139 0.59349 0.9641 0.0
C309 C 0.70411 0.59355 0.02418 0.0
C310 C 0.68741 0.56468 0.87114 0.0
C311 C 0.67895 0.5813 0.83477 0.0
C312 C 0.69994 0.54762 0.84702 0.0
C313 C 0.7105 0.53072 0.88376 0.0
C314 C 0.73342 0.5462 0.92549 0.0
C315 C 0.74263 0.53002 0.96117 0.0
C316 C 0.72929 0.49838 0.95514 0.0
C317 C 0.70679 0.48288 0.91323 0.0
C318 C 0.69745 0.49896 0.87751 0.0
C319 C 0.72147 0.59497 0.60008 0.0
C320 C 0.70395 0.56861 0.56643 0.0
C321 C 0.72022 0.59332 0.6603 0.0
C322 C 0.7016 0.56531 0.68792 0.0
C323 C 0.68659 0.53853 0.65476 0.0
C324 C 0.68771 0.54015 0.59444 0.0
C325 C 0.69557 0.56448 0.75067 0.0
C326 C 0.70359 0.54749 0.78698 0.0
C327 C 0.68247 0.58105 0.77467 0.0
C328 C 0.67128 0.59734 0.73773 0.0
C329 C 0.64917 0.58146 0.69486 0.0
C330 C 0.63889 0.5969 0.65967 0.0
C331 C 0.65046 0.62822 0.66712 0.0
C332 C 0.67224 0.64414 0.70999 0.0
C333 C 0.68257 0.62878 0.74535 0.0
H334 H 0.64249 0.64014 0.63979 0.0
H335 H 0.73643 0.48589 0.98286 0.0
H336 H 0.14 0.6552 0.19986 0.0
H337 H 0.13701 0.65102 0.09469 0.0
H338 H 0.10159 0.71271 0.08841 0.0
H339 H 0.10423 0.7169 0.19332 0.0
H340 H 0.07788 0.67031 0.00278 0.0
H341 H 0.17976 0.73692 0.08708 0.0
H342 H 0.22328 0.74475 0.14729 0.0
H343 H 0.23446 0.6808 0.04331 0.0
H344 H 0.19035 0.67176 0.98346 0.0
H345 H 0.11858 0.73777 0.73288 0.0
H346 H 0.11892 0.7338 0.83791 0.0
H347 H 0.16273 0.67973 0.82353 0.0
H348 H 0.16319 0.68414 0.7187 0.0
H349 H 0.18137 0.71258 0.91798 0.0
H350 H 0.08594 0.64348 0.83631 0.0
H351 H 0.04033 0.62573 0.77534 0.0
H352 H 0.01524 0.68313 0.86918 0.0
H353 H 0.06098 0.70136 0.93082 0.0
C354 C 0.13073 0.66722 0.17632 0.0
C355 C 0.12327 0.68719 0.20494 0.0
C356 C 0.12923 0.66492 0.11611 0.0
C357 C 0.12016 0.68245 0.08372 0.0
C358 C 0.10913 0.69937 0.11256 0.0
C359 C 0.11063 0.7017 0.17271 0.0
C360 C 0.12525 0.68614 0.02045 0.0
C361 C 0.10054 0.67981 0.98432 0.0
C362 C 0.15463 0.69731 -0.00407 0.0
C363 C 0.1816 0.70347 0.03114 0.0
C364 C 0.19142 0.72443 0.0772 0.0
C365 C 0.21618 0.72908 0.11129 0.0
C366 C 0.23169 0.7134 0.09912 0.0
C367 C 0.22244 0.69295 0.05275 0.0
C368 C 0.19751 0.68798 0.01881 0.0
C369 C 0.12922 0.72589 0.75197 0.0
C370 C 0.14023 0.7107 0.71714 0.0
C371 C 0.12908 0.72334 0.81209 0.0
C372 C 0.13982 0.70551 0.83836 0.0
C373 C 0.15389 0.69322 0.80414 0.0
C374 C 0.1542 0.69586 0.74406 0.0
C375 C 0.13416 0.69768 0.90061 0.0
C376 C 0.15871 0.7031 0.9364 0.0
C377 C 0.10449 0.68465 0.92454 0.0
C378 C 0.07703 0.67403 0.88769 0.0
C379 C 0.07082 0.65251 0.84365 0.0
C380 C 0.0449 0.64231 0.80902 0.0
C381 C 0.02491 0.65339 0.81809 0.0
C382 C 0.03077 0.67461 0.86209 0.0
C383 C 0.05667 0.68485 0.897 0.0
H384 H 0.00484 0.64545 0.79117 0.0
H385 H 0.25088 0.71709 0.12561 0.0
H386 H 0.37341 0.10964 0.93966 0.0
H387 H 0.37591 0.11499 0.04467 0.0
H388 H 0.47424 0.16683 0.03658 0.0
H389 H 0.47204 0.16186 0.93161 0.0
H390 H 0.40163 0.09052 0.112 0.0
H391 H 0.50138 0.21359 0.15818 0.0
H392 H 0.52332 0.26563 0.11848 0.0
H393 H 0.43712 0.24167 0.04075 0.0
H394 H 0.41451 0.18966 0.08075 0.0
H395 H 0.48297 0.16417 0.40761 0.0
H396 H 0.48196 0.15932 0.30255 0.0
H397 H 0.38355 0.107 0.30593 0.0
H398 H 0.38427 0.11139 0.41083 0.0
H399 H 0.4571 0.18363 0.23289 0.0
H400 H 0.35715 0.06099 0.18764 0.0
H401 H 0.33461 0.00939 0.22978 0.0
H402 H 0.42082 0.03289 0.30665 0.0
H403 H 0.44402 0.08441 0.26442 0.0
C404 C 0.39557 0.12289 0.95995 0.0
C405 C 0.42255 0.135 0.92715 0.0
C406 C 0.39694 0.12577 0.02007 0.0
C407 C 0.42524 0.14107 0.04843 0.0
C408 C 0.45213 0.15505 0.01558 0.0
C409 C 0.45081 0.15214 0.95547 0.0
C410 C 0.42677 0.13978 0.11224 0.0
C411 C 0.41335 0.1109 0.13857 0.0
C412 C 0.44296 0.16635 0.14654 0.0
C413 C 0.45637 0.19755 0.12185 0.0
C414 C 0.48709 0.21942 0.13266 0.0
C415 C 0.49964 0.24893 0.11014 0.0
C416 C 0.48166 0.25691 0.0769 0.0
C417 C 0.45107 0.23541 0.06624 0.0
C418 C 0.43839 0.20588 0.08874 0.0
C419 C 0.46112 0.1509 0.38624 0.0
C420 C 0.43366 0.13851 0.41763 0.0
C421 C 0.4606 0.14833 0.32611 0.0
C422 C 0.4327 0.13302 0.29642 0.0
C423 C 0.40537 0.11876 0.32796 0.0
C424 C 0.40584 0.12134 0.38804 0.0
C425 C 0.43192 0.1344 0.23255 0.0
C426 C 0.44547 0.16327 0.20623 0.0
C427 C 0.41585 0.10783 0.19824 0.0
C428 C 0.40223 0.0767 0.22326 0.0
C429 C 0.37134 0.0551 0.21334 0.0
C430 C 0.35844 0.02586 0.23731 0.0
C431 C 0.37625 0.01789 0.27108 0.0
C432 C 0.40702 0.03911 0.28076 0.0
C433 C 0.42005 0.06836 0.25687 0.0
H434 H 0.36623 0.99526 0.28965 0.0
H435 H 0.49142 0.27977 0.05954 0.0
H436 H 0.28373 0.37894 0.14094 0.0
H437 H 0.28566 0.38445 0.24557 0.0
H438 H 0.33292 0.48259 0.22803 0.0
H439 H 0.33193 0.4773 0.12303 0.0
H440 H 0.36204 0.46807 0.30138 0.0
H441 H 0.25775 0.44073 0.28006 0.0
H442 H 0.20361 0.41156 0.25102 0.0
H443 H 0.19321 0.33267 0.34079 0.0
H444 H 0.24736 0.36129 0.37002 0.0
H445 H 0.34056 0.49539 0.59772 0.0
H446 H 0.34766 0.49264 0.49418 0.0
H447 H 0.30672 0.3947 0.50601 0.0
H448 H 0.2988 0.39715 0.60936 0.0
H449 H 0.27556 0.41051 0.43569 0.0
H450 H 0.38272 0.44119 0.45659 0.0
H451 H 0.43603 0.47412 0.48859 0.0
H452 H 0.43922 0.55113 0.40422 0.0
H453 H 0.38615 0.51858 0.37062 0.0
C454 C 0.29393 0.40171 0.15916 0.0
C455 C 0.30784 0.42769 0.12354 0.0
C456 C 0.29499 0.40483 0.21917 0.0
C457 C 0.30943 0.43395 0.24477 0.0
C458 C 0.32187 0.4599 0.20925 0.0
C459 C 0.32111 0.45682 0.14921 0.0
C460 C 0.31346 0.43725 0.30835 0.0
C461 C 0.34303 0.45578 0.33078 0.0
C462 C 0.28885 0.42084 0.34678 0.0
C463 C 0.25669 0.4031 0.32682 0.0
C464 C 0.24402 0.41705 0.29299 0.0
C465 C 0.2133 0.40064 0.27669 0.0
C466 C 0.19499 0.37029 0.29411 0.0
C467 C 0.20742 0.35619 0.3274 0.0
C468 C 0.23811 0.3725 0.3439 0.0
C469 C 0.33386 0.47334 0.57866 0.0
C470 C 0.31831 0.44638 0.61138 0.0
C471 C 0.33814 0.47184 0.51939 0.0
C472 C 0.32742 0.44342 0.49228 0.0
C473 C 0.31489 0.41684 0.52606 0.0
C474 C 0.31033 0.41828 0.58512 0.0
C475 C 0.32413 0.44079 0.42865 0.0
C476 C 0.2946 0.42255 0.40622 0.0
C477 C 0.34867 0.45786 0.3905 0.0
C478 C 0.3804 0.47749 0.41146 0.0
C479 C 0.39472 0.46519 0.44521 0.0
C480 C 0.4249 0.48377 0.46354 0.0
C481 C 0.44086 0.51472 0.44893 0.0
C482 C 0.42679 0.52715 0.41559 0.0
C483 C 0.39674 0.50862 0.39658 0.0
H484 H 0.46419 0.52905 0.46304 0.0
H485 H 0.17112 0.35774 0.28212 0.0
H486 H 0.51356 0.17903 0.80158 0.0
H487 H 0.55946 0.17887 0.8358 0.0
H488 H 0.59117 0.18782 0.65994 0.0
H489 H 0.54652 0.18931 0.62617 0.0
H490 H 0.58371 0.14389 0.81976 0.0
H491 H 0.66665 0.23034 0.65078 0.0
H492 H 0.67286 0.27444 0.59431 0.0
H493 H 0.62231 0.29227 0.7222 0.0
H494 H 0.61616 0.24855 0.77977 0.0
H495 H 0.76261 0.21165 0.79241 0.0
H496 H 0.71102 0.1907 0.7518 0.0
H497 H 0.67672 0.19381 0.9208 0.0
H498 H 0.72802 0.21498 0.96088 0.0
H499 H 0.68534 0.22786 0.75896 0.0
H500 H 0.60494 0.14585 0.93101 0.0
H501 H 0.60001 0.10411 0.99352 0.0
H502 H 0.64797 0.08134 0.86817 0.0
H503 H 0.65307 0.12288 0.80491 0.0
C504 C 0.53056 0.1813 0.77049 0.0
C505 C 0.52687 0.18506 0.71145 0.0
C506 C 0.55662 0.18096 0.78995 0.0
C507 C 0.57914 0.18401 0.75056 0.0
C508 C 0.57468 0.18641 0.6914 0.0
C509 C 0.54911 0.18736 0.67217 0.0
C510 C 0.60774 0.18556 0.77088 0.0
C511 C 0.60592 0.16237 0.80692 0.0
C512 C 0.63681 0.20939 0.75321 0.0
C513 C 0.64066 0.23595 0.71921 0.0
C514 C 0.65695 0.24374 0.66692 0.0
C515 C 0.66044 0.26866 0.63471 0.0
C516 C 0.64789 0.28607 0.65455 0.0
C517 C 0.63192 0.27868 0.70676 0.0
C518 C 0.62839 0.25382 0.73916 0.0
C519 C 0.74371 0.20645 0.82109 0.0
C520 C 0.749 0.21466 0.87964 0.0
C521 C 0.71437 0.19472 0.79791 0.0
C522 C 0.69005 0.19066 0.83333 0.0
C523 C 0.69498 0.19631 0.89283 0.0
C524 C 0.72428 0.20841 0.91571 0.0
C525 C 0.66128 0.18614 0.80762 0.0
C526 C 0.66309 0.20903 0.77097 0.0
C527 C 0.63236 0.16242 0.8256 0.0
C528 C 0.62934 0.13742 0.86332 0.0
C529 C 0.61439 0.13189 0.91681 0.0
C530 C 0.61163 0.10832 0.95242 0.0
C531 C 0.6237 0.09011 0.93486 0.0
C532 C 0.63866 0.09549 0.88176 0.0
C533 C 0.64154 0.11908 0.84608 0.0
H534 H 0.62143 0.0718 0.96237 0.0
H535 H 0.65059 0.30533 0.62953 0.0
H536 H 0.55822 0.76124 0.92719 0.0
H537 H 0.52708 0.70652 0.9082 0.0
H538 H 0.54794 0.68727 0.07806 0.0
H539 H 0.57915 0.7422 0.0972 0.0
H540 H 0.52892 0.64005 0.95053 0.0
H541 H 0.49622 0.68514 0.11313 0.0
H542 H 0.493 0.7288 0.15281 0.0
H543 H 0.45342 0.73626 0.9939 0.0
H544 H 0.45675 0.69286 0.95321 0.0
H545 H 0.36853 0.50989 0.98854 0.0
H546 H 0.41796 0.55244 0.0205 0.0
H547 H 0.41883 0.60587 0.87504 0.0
H548 H 0.37104 0.56342 0.84072 0.0
H549 H 0.42985 0.63095 0.00563 0.0
H550 H 0.46205 0.59231 0.84133 0.0
H551 H 0.464 0.55107 0.78825 0.0
H552 H 0.50334 0.53286 0.93641 0.0
H553 H 0.50119 0.57383 0.99081 0.0
C554 C 0.55801 0.74535 0.9588 0.0
C555 C 0.57127 0.75584 0.01338 0.0
C556 C 0.54001 0.71405 0.9481 0.0
C557 C 0.53505 0.69294 0.99194 0.0
C558 C 0.55174 0.70324 0.04355 0.0
C559 C 0.5698 0.73464 0.05427 0.0
C560 C 0.50693 0.66267 0.98957 0.0
C561 C 0.50735 0.6377 0.96412 0.0
C562 C 0.47871 0.65989 0.00579 0.0
C563 C 0.47687 0.68597 0.03017 0.0
C564 C 0.48702 0.69626 0.08663 0.0
C565 C 0.48514 0.7209 0.1093 0.0
C566 C 0.47296 0.73524 0.07591 0.0
C567 C 0.4628 0.7251 0.01971 0.0
C568 C 0.46467 0.70049 -0.00314 0.0
C569 C 0.37955 0.53032 0.96253 0.0
C570 C 0.36614 0.53254 0.91076 0.0
C571 C 0.40765 0.55472 0.98121 0.0
C572 C 0.42221 0.58191 0.94925 0.0
C573 C 0.40811 0.58482 0.89967 0.0
C574 C 0.38059 0.56043 0.88038 0.0
C575 C 0.45174 0.60808 0.96755 0.0
C576 C 0.4515 0.63264 0.99484 0.0
C577 C 0.47991 0.61046 0.95233 0.0
C578 C 0.48107 0.58577 0.92028 0.0
C579 C 0.47076 0.57923 0.86282 0.0
C580 C 0.47195 0.55595 0.8325 0.0
C581 C 0.48361 0.53918 0.85914 0.0
C582 C 0.49417 0.54575 0.91609 0.0
C583 C 0.49299 0.56901 0.94665 0.0
H584 H 0.48464 0.52122 0.83561 0.0
H585 H 0.47125 0.75411 0.09361 0.0
H586 H 0.85888 0.39033 0.00476 0.0
H587 H 0.86479 0.43722 0.04594 0.0
H588 H 0.85163 0.39882 0.21697 0.0
H589 H 0.84696 0.3516 0.17546 0.0
H590 H 0.81011 0.41872 0.18397 0.0
H591 H 0.91569 0.46093 0.20188 0.0
H592 H 0.96852 0.47468 0.17839 0.0
H593 H 0.96773 0.52679 0.03275 0.0
H594 H 0.91492 0.51324 0.05511 0.0
H595 H 0.82942 0.57438 0.22674 0.0
H596 H 0.85832 0.54722 0.22516 0.0
H597 H 0.80585 0.49493 0.0779 0.0
H598 H 0.7768 0.52145 0.08003 0.0
H599 H 0.88966 0.52523 0.13705 0.0
H600 H 0.76673 0.42353 0.12965 0.0
H601 H 0.71504 0.41264 0.15631 0.0
H602 H 0.75271 0.47971 0.29167 0.0
H603 H 0.80453 0.49053 0.2666 0.0
C604 C 0.85771 0.39196 0.05128 0.0
C605 C 0.85196 0.36718 0.08694 0.0
C606 C 0.86147 0.41895 0.07482 0.0
C607 C 0.85889 0.42163 0.13452 0.0
C608 C 0.85401 0.39727 0.17077 0.0
C609 C 0.85116 0.37034 0.14714 0.0
C610 C 0.85649 0.44794 0.15604 0.0
C611 C 0.82781 0.44207 0.17527 0.0
C612 C 0.87968 0.47846 0.14526 0.0
C613 C 0.91122 0.48599 0.13017 0.0
C614 C 0.92667 0.47508 0.16448 0.0
C615 C 0.95669 0.4829 0.15142 0.0
C616 C 0.9715 0.50151 0.10393 0.0
C617 C 0.9563 0.51234 0.06945 0.0
C618 C 0.92634 0.50469 0.08245 0.0
C619 C 0.82535 0.55834 0.19208 0.0
C620 C 0.80099 0.54997 0.15336 0.0
C621 C 0.84173 0.54272 0.19146 0.0
C622 C 0.83381 0.51877 0.15201 0.0
C623 C 0.81216 0.51325 0.10885 0.0
C624 C 0.79571 0.52855 0.1098 0.0
C625 C 0.84293 0.49552 0.16188 0.0
C626 C 0.87252 0.502 0.14799 0.0
C627 C 0.82079 0.46552 0.17864 0.0
C628 C 0.78953 0.45793 0.19603 0.0
C629 C 0.76395 0.43571 0.1655 0.0
C630 C 0.73463 0.4296 0.18026 0.0
C631 C 0.7306 0.44552 0.22558 0.0
C632 C 0.75586 0.46743 0.25652 0.0
C633 C 0.78521 0.47355 0.24205 0.0
H634 H 0.7079 0.44085 0.23677 0.0
H635 H 0.99476 0.50762 0.09401 0.0
H636 H 0.49253 0.838 0.29312 0.0
H637 H 0.44865 0.8438 0.31781 0.0
H638 H 0.40813 0.80643 0.1519 0.0
H639 H 0.45211 0.80194 0.12597 0.0
H640 H 0.40346 0.85496 0.17315 0.0
H641 H 0.38411 0.76477 0.28175 0.0
H642 H 0.39662 0.73659 0.35329 0.0
H643 H 0.40369 0.79916 0.48617 0.0
H644 H 0.39154 0.82791 0.41521 0.0
H645 H 0.24386 0.78685 0.206 0.0
H646 H 0.29823 0.80805 0.18752 0.0
H647 H 0.31838 0.84329 0.36175 0.0
H648 H 0.26367 0.82091 0.38038 0.0
H649 H 0.33932 0.80659 0.3458 0.0
H650 H 0.34897 0.891 0.23929 0.0
H651 H 0.33593 0.9186 0.16752 0.0
H652 H 0.3464 0.86732 0.0305 0.0
H653 H 0.35933 0.83922 0.10139 0.0
C654 C 0.47437 0.83117 0.2618 0.0
C655 C 0.4763 0.81999 0.20717 0.0
C656 C 0.44914 0.8343 0.27613 0.0
C657 C 0.42504 0.8257 0.23659 0.0
C658 C 0.4265 0.81358 0.18296 0.0
C659 C 0.45168 0.81069 0.16848 0.0
C660 C 0.39803 0.82894 0.25031 0.0
C661 C 0.38931 0.84427 0.21078 0.0
C662 C 0.38016 0.81604 0.30045 0.0
C663 C 0.38729 0.79867 0.34309 0.0
C664 C 0.38855 0.77263 0.32615 0.0
C665 C 0.39553 0.75654 0.36659 0.0
C666 C 0.40105 0.76614 0.4242 0.0
C667 C 0.39948 0.79179 0.44152 0.0
C668 C 0.39253 0.80797 0.40122 0.0
C669 C 0.26003 0.80048 0.23918 0.0
C670 C 0.24964 0.80237 0.29432 0.0
C671 C 0.29123 0.81262 0.22878 0.0
C672 C 0.31263 0.82716 0.2734 0.0
C673 C 0.3024 0.8321 0.32665 0.0
C674 C 0.27114 0.81977 0.33703 0.0
C675 C 0.34407 0.83187 0.26772 0.0
C676 C 0.35368 0.81794 0.30874 0.0
C677 C 0.36267 0.846 0.21882 0.0
C678 C 0.35494 0.86284 0.17582 0.0
C679 C 0.34831 0.88544 0.19389 0.0
C680 C 0.34102 0.90124 0.15333 0.0
C681 C 0.34035 0.89471 0.09449 0.0
C682 C 0.34704 0.87241 0.07608 0.0
C683 C 0.35441 0.85658 0.11643 0.0
H684 H 0.33467 0.90694 0.06316 0.0
H685 H 0.40646 0.75366 0.45545 0.0
H686 H 0.42394 0.23981 0.4344 0.0
H687 H 0.45498 0.29023 0.39017 0.0
H688 H 0.48757 0.32962 0.55888 0.0
H689 H 0.45575 0.27969 0.6028 0.0
H690 H 0.49258 0.37285 0.48823 0.0
H691 H 0.52016 0.29375 0.48281 0.0
H692 H 0.51076 0.24231 0.45758 0.0
H693 H 0.50624 0.2605 0.27772 0.0
H694 H 0.51516 0.31191 0.30206 0.0
H695 H 0.64892 0.48307 0.43335 0.0
H696 H 0.60118 0.43974 0.469 0.0
H697 H 0.57728 0.40468 0.29512 0.0
H698 H 0.62511 0.44695 0.2599 0.0
H699 H 0.56473 0.36002 0.36252 0.0
H700 H 0.54526 0.44408 0.37132 0.0
H701 H 0.55611 0.49524 0.40176 0.0
H702 H 0.54715 0.46822 0.57975 0.0
H703 H 0.53664 0.41696 0.55042 0.0
C704 C 0.43607 0.25962 0.46215 0.0
C705 C 0.43755 0.25594 0.52193 0.0
C706 C 0.4543 0.28838 0.43683 0.0
C707 C 0.47461 0.31351 0.47104 0.0
C708 C 0.47247 0.31061 0.53139 0.0
C709 C 0.45403 0.28203 0.55661 0.0
C710 C 0.50163 0.34051 0.44507 0.0
C711 C 0.50835 0.3701 0.46062 0.0
C712 C 0.52236 0.33702 0.4091 0.0
C713 C 0.51802 0.30653 0.39428 0.0
C714 C 0.5171 0.28674 0.4379 0.0
C715 C 0.51182 0.25759 0.42378 0.0
C716 C 0.50783 0.24812 0.3661 0.0
C717 C 0.50928 0.26785 0.3224 0.0
C718 C 0.51444 0.29699 0.33632 0.0
C719 C 0.63352 0.46601 0.40288 0.0
C720 C 0.64101 0.46842 0.34387 0.0
C721 C 0.60607 0.44136 0.42318 0.0
C722 C 0.5852 0.41903 0.38467 0.0
C723 C 0.59285 0.42145 0.32586 0.0
C724 C 0.62039 0.44569 0.30577 0.0
C725 C 0.55578 0.39263 0.4052 0.0
C726 C 0.54876 0.36301 0.38908 0.0
C727 C 0.53504 0.39619 0.44107 0.0
C728 C 0.54046 0.42675 0.45864 0.0
C729 C 0.54571 0.44908 0.41696 0.0
C730 C 0.55179 0.47812 0.43406 0.0
C731 C 0.5524 0.48503 0.49271 0.0
C732 C 0.54668 0.46284 0.53436 0.0
C733 C 0.54064 0.43378 0.51751 0.0
H734 H 0.55733 0.50756 0.50601 0.0
H735 H 0.50367 0.22552 0.35525 0.0
H736 H 0.19552 0.6369 0.42625 0.0
H737 H 0.19539 0.5937 0.47316 0.0
H738 H 0.16939 0.61716 0.63431 0.0
H739 H 0.17047 0.66113 0.58814 0.0
H740 H 0.21292 0.60215 0.64954 0.0
H741 H 0.11693 0.55916 0.55032 0.0
H742 H 0.08507 0.55172 0.46443 0.0
H743 H 0.12788 0.50862 0.3754 0.0
H744 H 0.1605 0.51639 0.46027 0.0
H745 H 0.19562 0.47426 0.787 0.0
H746 H 0.17417 0.50374 0.7446 0.0
H747 H 0.1998 0.48924 0.57478 0.0
H748 H 0.22013 0.45874 0.61716 0.0
H749 H 0.15047 0.49758 0.56873 0.0
H750 H 0.25077 0.54752 0.65652 0.0
H751 H 0.28714 0.55826 0.73629 0.0
H752 H 0.23895 0.59016 0.84159 0.0
H753 H 0.20198 0.57912 0.76266 0.0
C754 C 0.19009 0.63314 0.47183 0.0
C755 C 0.18258 0.65229 0.50327 0.0
C756 C 0.18971 0.60821 0.49843 0.0
C757 C 0.18161 0.60176 0.55685 0.0
C758 C 0.1753 0.62149 0.58896 0.0
C759 C 0.17579 0.64653 0.56243 0.0
C760 C 0.18013 0.57462 0.5845 0.0
C761 C 0.19875 0.57921 0.63262 0.0
C762 C 0.16212 0.54477 0.56154 0.0
C763 C 0.14136 0.53858 0.51159 0.0
C764 C 0.11962 0.54816 0.51239 0.0
C765 C 0.10146 0.54393 0.46385 0.0
C766 C 0.10458 0.52984 0.41445 0.0
C767 C 0.12558 0.51961 0.41369 0.0
C768 C 0.14389 0.5239 0.46202 0.0
C769 C 0.19507 0.47598 0.7404 0.0
C770 C 0.20922 0.46418 0.70511 0.0
C771 C 0.1831 0.49304 0.71622 0.0
C772 C 0.18615 0.49937 0.6567 0.0
C773 C 0.19727 0.48473 0.62079 0.0
C774 C 0.20877 0.4672 0.64494 0.0
C775 C 0.18327 0.5252 0.63374 0.0
C776 C 0.16406 0.52043 0.58634 0.0
C777 C 0.20097 0.55506 0.65687 0.0
C778 C 0.22344 0.56218 0.70399 0.0
C779 C 0.24785 0.55666 0.69681 0.0
C780 C 0.26856 0.5628 0.74185 0.0
C781 C 0.26531 0.57481 0.79403 0.0
C782 C 0.24139 0.5808 0.80119 0.0
C783 C 0.22055 0.5746 0.75634 0.0
H784 H 0.28136 0.57955 0.82886 0.0
H785 H 0.09081 0.52691 0.3767 0.0
H786 H 0.78511 0.19662 0.11102 0.0
H787 H 0.75803 0.14161 0.13106 0.0
H788 H 0.84201 0.14047 0.10925 0.0
H789 H 0.86902 0.19544 0.08972 0.0
H790 H 0.79598 0.10067 0.03477 0.0
H791 H 0.80796 0.12504 0.23856 0.0
H792 H 0.80343 0.1502 0.3263 0.0
H793 H 0.70605 0.1038 0.30548 0.0
H794 H 0.71004 0.07881 0.21701 0.0
H795 H 0.70769 0.94283 0.19322 0.0
H796 H 0.74886 0.99514 0.1768 0.0
H797 H 0.69592 0.0055 0.04227 0.0
H798 H 0.65431 0.95316 0.05941 0.0
H799 H 0.7301 0.04019 0.19809 0.0
H800 H 0.75341 0.06701 0.95611 0.0
H801 H 0.75585 0.04206 0.86619 0.0
H802 H 0.78114 0.98587 0.96325 0.0
H803 H 0.77926 0.01075 0.05362 0.0
C804 C 0.79807 0.18494 0.11407 0.0
C805 C 0.82932 0.20043 0.10053 0.0
C806 C 0.78251 0.15339 0.12458 0.0
C807 C 0.79794 0.13681 0.12112 0.0
C808 C 0.82962 0.15273 0.11201 0.0
C809 C 0.84517 0.18427 0.102 0.0
C810 C 0.78063 0.10276 0.12069 0.0
C811 C 0.78173 0.08745 0.0707 0.0
C812 C 0.76177 0.08546 0.16718 0.0
C813 C 0.75934 0.10023 0.22083 0.0
C814 C 0.7856 0.12038 0.25242 0.0
C815 C 0.78312 0.13461 0.30232 0.0
C816 C 0.75448 0.12869 0.32135 0.0
C817 C 0.72823 0.10844 0.29063 0.0
C818 C 0.73059 0.09421 0.24063 0.0
C819 C 0.70559 0.95556 0.15763 0.0
C820 C 0.6777 0.94392 0.12781 0.0
C821 C 0.72894 0.98569 0.14903 0.0
C822 C 0.72515 0.00444 0.10932 0.0
C823 C 0.69924 0.99145 0.07337 0.0
C824 C 0.67566 0.96127 0.08243 0.0
C825 C 0.74554 0.03817 0.11231 0.0
C826 C 0.74466 0.05343 0.16249 0.0
C827 C 0.76428 0.05541 0.06578 0.0
C828 C 0.7659 0.04056 0.01167 0.0
C829 C 0.75961 0.04941 0.95823 0.0
C830 C 0.76087 0.03527 0.90718 0.0
C831 C 0.76855 0.01233 0.90902 0.0
C832 C 0.77507 1.00355 0.9619 0.0
C833 C 0.77384 0.01763 0.01306 0.0
H834 H 0.7695 1.0014 0.86946 0.0
H835 H 0.75261 0.13974 0.35997 0.0
H836 H 0.59264 0.78575 0.25456 0.0
H837 H 0.61647 0.75483 0.27042 0.0
H838 H 0.70491 0.83672 0.27907 0.0
H839 H 0.68092 0.86745 0.25981 0.0
H840 H 0.70887 0.80267 0.20531 0.0
H841 H 0.66991 0.78281 0.396 0.0
H842 H 0.63269 0.76852 0.47522 0.0
H843 H 0.57909 0.67864 0.40295 0.0
H844 H 0.61568 0.69253 0.32262 0.0
H845 H 0.76811 0.70295 0.3126 0.0
H846 H 0.75567 0.74341 0.29774 0.0
H847 H 0.6787 0.68229 0.19263 0.0
H848 H 0.69167 0.64216 0.20567 0.0
H849 H 0.67266 0.70774 0.31902 0.0
H850 H 0.71413 0.73271 0.12388 0.0
H851 H 0.75552 0.74902 0.05241 0.0
H852 H 0.8096 0.83247 0.14657 0.0
H853 H 0.76867 0.81641 0.21912 0.0
C854 C 0.61694 0.79722 0.26336 0.0
C855 C 0.63484 0.82905 0.25732 0.0
C856 C 0.63072 0.77946 0.27184 0.0
C857 C 0.6627 0.79325 0.27578 0.0
C858 C 0.68027 0.82536 0.27574 0.0
C859 C 0.6665 0.84305 0.26607 0.0
C860 C 0.6778 0.7743 0.27219 0.0
C861 C 0.70117 0.78223 0.23114 0.0
C862 C 0.66777 0.74725 0.30499 0.0
C863 C 0.64545 0.73884 0.35291 0.0
C864 C 0.65004 0.76009 0.39662 0.0
C865 C 0.62907 0.75205 0.4418 0.0
C866 C 0.60352 0.72273 0.44403 0.0
C867 C 0.59887 0.70137 0.4011 0.0
C868 C 0.61974 0.70931 0.35574 0.0
C869 C 0.74989 0.69886 0.2829 0.0
C870 C 0.73097 0.6694 0.26011 0.0
C871 C 0.74247 0.72185 0.27527 0.0
C872 C 0.71598 0.71564 0.24492 0.0
C873 C 0.69923 0.6875 0.21627 0.0
C874 C 0.70703 0.66473 0.22288 0.0
C875 C 0.70296 0.73603 0.25185 0.0
C876 C 0.68018 0.72833 0.29371 0.0
C877 C 0.71395 0.76355 0.22088 0.0
C878 C 0.73851 0.77317 0.17732 0.0
C879 C 0.73499 0.75436 0.12973 0.0
C880 C 0.75833 0.76361 0.08892 0.0
C881 C 0.78522 0.79171 0.09506 0.0
C882 C 0.78879 0.81068 0.14193 0.0
C883 C 0.76552 0.80152 0.18288 0.0
H884 H 0.80326 0.79884 0.0634 0.0
H885 H 0.58738 0.71657 0.47911 0.0
H886 H 0.04774 0.68506 0.35997 0.0
H887 H 0.99438 0.66908 0.34443 0.0
H888 H 0.00684 0.74907 0.43568 0.0
H889 H 0.05989 0.76359 0.45534 0.0
H890 H 0.96296 0.70532 0.482 0.0
H891 H 0.98326 0.72947 0.28223 0.0
H892 H 1.0038 0.73044 0.18516 0.0
H893 H 0.94967 0.63263 0.17514 0.0
H894 H 0.92911 0.63101 0.27246 0.0
H895 H 0.80662 0.66489 0.40343 0.0
H896 H 0.86173 0.68913 0.42142 0.0
H897 H 0.85701 0.60257 0.39433 0.0
H898 H 0.80191 0.57825 0.37806 0.0
H899 H 0.89594 0.65235 0.31457 0.0
H900 H 0.87756 0.63054 0.5183 0.0
H901 H 0.8564 0.63193 0.61346 0.0
H902 H 0.90664 0.73003 0.61097 0.0
H903 H 0.92776 0.72923 0.51533 0.0
C904 C 0.03961 0.70021 0.37379 0.0
C905 C 0.05817 0.72578 0.40839 0.0
C906 C 0.00874 0.69087 0.3653 0.0
C907 C 0.99603 0.70764 0.3891 0.0
C908 C 0.0157 0.73536 0.41742 0.0
C909 C 0.04634 0.74415 0.42749 0.0
C910 C 0.96202 0.69432 0.39145 0.0
C911 C 0.94853 0.69441 0.44474 0.0
C912 C 0.94262 0.67924 0.34367 0.0
C913 C 0.95482 0.68012 0.28492 0.0
C914 C 0.97589 0.70815 0.25951 0.0
C915 C 0.98751 0.70881 0.2044 0.0
C916 C 0.9781 0.68161 0.17406 0.0
C917 C 0.95696 0.65369 0.1987 0.0
C918 C 0.94528 0.65289 0.25381 0.0
C919 C 0.81703 0.6507 0.40524 0.0
C920 C 0.79982 0.61951 0.391 0.0
C921 C 0.84863 0.66466 0.41445 0.0
C922 C 0.86355 0.64772 0.40848 0.0
C923 C 0.84599 0.61608 0.39909 0.0
C924 C 0.81437 0.60206 0.39097 0.0
C925 C 0.89746 0.66344 0.4047 0.0
C926 C 0.91072 0.6637 0.35125 0.0
C927 C 0.91663 0.67933 0.45184 0.0
C928 C 0.90397 0.67982 0.50934 0.0
C929 C 0.88385 0.65242 0.53776 0.0
C930 C 0.87192 0.65309 0.59185 0.0
C931 C 0.88009 0.68104 0.61816 0.0
C932 C 0.90029 0.70839 0.59049 0.0
C933 C 0.91226 0.70784 0.53636 0.0
H934 H 0.87084 0.68152 0.66005 0.0
H935 H 0.98714 0.68218 0.13142 0.0
H936 H 0.22604 0.81061 0.49983 0.0
H937 H 0.25583 0.86445 0.52511 0.0
H938 H 0.1751 0.86086 0.59524 0.0
H939 H 0.14482 0.80687 0.56629 0.0
H940 H 0.20058 0.90735 0.53141 0.0
H941 H 0.24172 0.87381 0.68003 0.0
H942 H 0.26494 0.84611 0.72485 0.0
H943 H 0.34408 0.89453 0.61722 0.0
H944 H 0.32117 0.92223 0.57115 0.0
H945 H 0.29403 0.05554 0.66872 0.0
H946 H 0.25766 1.0034 0.63753 0.0
H947 H 0.32528 0.00518 0.52204 0.0
H948 H 0.36143 0.05763 0.5521 0.0
H949 H 0.30543 0.9604 0.61225 0.0
H950 H 0.26188 0.99434 0.46572 0.0
H951 H 0.238 0.02299 0.42823 0.0
H952 H 0.1623 0.97455 0.5437 0.0
H953 H 0.18595 0.9459 0.58249 0.0
C954 C 0.21493 0.82093 0.52319 0.0
C955 C 0.18331 0.80426 0.5329 0.0
C956 C 0.23201 0.85194 0.53745 0.0
C957 C 0.21805 0.8671 0.56295 0.0
C958 C 0.18661 0.84991 0.57576 0.0
C959 C 0.16935 0.81885 0.56037 0.0
C960 C 0.23573 0.90117 0.57094 0.0
C961 C 0.22328 0.91879 0.55018 0.0
C962 C 0.26572 0.9166 0.59425 0.0
C963 C 0.27958 0.89992 0.62178 0.0
C964 C 0.26397 0.87839 0.66559 0.0
C965 C 0.2771 0.86271 0.69128 0.0
C966 C 0.30593 0.86851 0.67381 0.0
C967 C 0.32173 0.89004 0.63068 0.0
C968 C 0.3087 0.90576 0.60481 0.0
C969 C 0.30045 0.04554 0.63392 0.0
C970 C 0.33053 0.06085 0.61255 0.0
C971 C 0.27976 0.01551 0.61669 0.0
C972 C 0.28888 1.00015 0.57814 0.0
C973 C 0.31777 0.01653 0.55204 0.0
C974 C 0.33827 0.04678 0.56849 0.0
C975 C 0.27035 0.96622 0.57221 0.0
C976 C 0.28267 0.94874 0.59365 0.0
C977 C 0.24011 0.95101 0.55076 0.0
C978 C 0.22584 0.96818 0.52742 0.0
C979 C 0.24028 0.99 0.48352 0.0
C980 C 0.22675 0.00619 0.46194 0.0
C981 C 0.19869 1.00066 0.48368 0.0
C982 C 0.18406 0.97885 0.52694 0.0
C983 C 0.1975 0.9626 0.5487 0.0
H984 H 0.18825 0.01322 0.46691 0.0
H985 H 0.31606 0.85635 0.69377 0.0
H986 H 0.3231 0.14611 0.73819 0.0
H987 H 0.30607 0.18055 0.77376 0.0
H988 H 0.39789 0.24463 0.8286 0.0
H989 H 0.41488 0.20963 0.79406 0.0
H990 H 0.35364 0.24784 0.89726 0.0
H991 H 0.38022 0.25341 0.69916 0.0
H992 H 0.38056 0.23346 0.60217 0.0
H993 H 0.28388 0.19728 0.58741 0.0
H994 H 0.28292 0.21679 0.68478 0.0
H995 H 0.33066 0.37812 0.81636 0.0
H996 H 0.3523 0.34409 0.81082 0.0
H997 H 0.26241 0.2659 0.8334 0.0
H998 H 0.24095 0.29977 0.84154 0.0
H999 H 0.31119 0.27427 0.72789 0.0
H1000 H 0.28945 0.27298 0.93604 0.0
H1001 H 0.29596 0.29744 0.03119 0.0
H1002 H 0.39251 0.33174 0.0236 0.0
H1003 H 0.38669 0.30832 0.92774 0.0
C1004 C 0.3393 0.16679 0.76066 0.0
C1005 C 0.37024 0.17522 0.76361 0.0
C1006 C 0.32964 0.18663 0.78038 0.0
C1007 C 0.35088 0.21552 0.80233 0.0
C1008 C 0.38116 0.22251 0.81152 0.0
C1009 C 0.3908 0.20239 0.79228 0.0
C1010 C 0.34231 0.23957 0.80693 0.0
C1011 C 0.34457 0.2538 0.86021 0.0
C1012 C 0.33105 0.24784 0.75826 0.0
C1013 C 0.33145 0.23631 0.69945 0.0
C1014 C 0.35899 0.24101 0.6754 0.0
C1015 C 0.35931 0.22981 0.62033 0.0
C1016 C 0.33224 0.214 0.5887 0.0
C1017 C 0.30482 0.20949 0.61201 0.0
C1018 C 0.30438 0.22066 0.66711 0.0
C1019 C 0.31555 0.35364 0.81941 0.0
C1020 C 0.28408 0.34141 0.82871 0.0
C1021 C 0.32795 0.33432 0.8169 0.0
C1022 C 0.30895 0.30258 0.82265 0.0
C1023 C 0.27744 0.29037 0.82967 0.0
C1024 C 0.2652 0.30965 0.83377 0.0
C1025 C 0.32148 0.28174 0.81866 0.0
C1026 C 0.32022 0.2683 0.76502 0.0
C1027 C 0.33436 0.27492 0.86671 0.0
C1028 C 0.33771 0.28948 0.92396 0.0
C1029 C 0.31215 0.2863 0.95402 0.0
C1030 C 0.3157 0.29982 0.00838 0.0
C1031 C 0.34465 0.31623 0.03347 0.0
C1032 C 0.37007 0.31899 0.00438 0.0
C1033 C 0.36668 0.30571 0.94989 0.0
H1034 H 0.34739 0.32673 0.0755 0.0
H1035 H 0.33253 0.20532 0.54607 0.0
H1036 H 0.95522 0.329 0.96865 0.0
H1037 H 0.01109 0.35631 0.96647 0.0
H1038 H 0.00991 0.272 0.00291 0.0
H1039 H 0.95427 0.2453 0.00918 0.0
H1040 H 0.05082 0.31255 0.06477 0.0
H1041 H 0.02602 0.31001 0.86206 0.0
H1042 H 1.00194 0.31948 0.77798 0.0
H1043 H 0.05166 0.4158 0.81349 0.0
H1044 H 0.07579 0.40686 0.89821 0.0
H1045 H 0.19258 0.34192 0.94259 0.0
H1046 H 0.14028 0.32492 0.97406 0.0
H1047 H 0.16053 0.41851 0.9776 0.0
H1048 H 0.21306 0.43549 0.94702 0.0
H1049 H 0.11197 0.38038 0.90404 0.0
H1050 H 0.14307 0.38079 0.09854 0.0
H1051 H 0.16857 0.36889 0.17623 0.0
H1052 H 0.10698 0.2729 0.15112 0.0
H1053 H 0.08166 0.28421 0.07176 0.0
C1054 C 0.96696 0.31629 0.97527 0.0
C1055 C 0.95052 0.28497 0.98857 0.0
C1056 C 0.99893 0.3319 0.97399 0.0
C1057 C 0.01496 0.31625 0.98386 0.0
C1058 C 0.99828 0.28475 -0.00449 0.0
C1059 C 0.96647 0.26939 -0.00152 0.0
C1060 C 0.04901 0.33239 0.98342 0.0
C1061 C 0.06408 0.32712 0.02923 0.0
C1062 C 0.06664 0.35229 0.93815 0.0
C1063 C 0.05245 0.35773 0.88681 0.0
C1064 C 0.03169 0.33319 0.85211 0.0
C1065 C 0.01805 0.33846 0.80433 0.0
C1066 C 0.0252 0.36821 0.79051 0.0
C1067 C 0.04611 0.39276 0.82431 0.0
C1068 C 0.05979 0.38761 0.87218 0.0
C1069 C 0.18629 0.35889 0.95334 0.0
C1070 C 0.20693 0.39001 0.94399 0.0
C1071 C 0.15634 0.34919 0.9706 0.0
C1072 C 0.14648 0.37046 0.97786 0.0
C1073 C 0.1677 0.40175 0.97232 0.0
C1074 C 0.19779 0.41147 0.95584 0.0
C1075 C 0.11341 0.35964 0.98431 0.0
C1076 C 0.0986 0.36602 0.93976 0.0
C1077 C 0.09598 0.34029 0.03006 0.0
C1078 C 0.11059 0.33337 0.07884 0.0
C1079 C 0.13507 0.35712 0.10926 0.0
C1080 C 0.1495 0.35047 0.15367 0.0
C1081 C 0.1394 0.32014 0.16874 0.0
C1082 C 0.11479 0.29639 0.13941 0.0
C1083 C 0.1004 0.30291 0.09464 0.0
H1084 H 0.15064 0.31503 0.20311 0.0
H1085 H 0.01458 0.37222 0.75357 0.0
H1086 H 0.01933 0.37552 0.18407 0.0
H1087 H 0.04497 0.42711 0.2258 0.0
H1088 H 0.99277 0.45189 0.11335 0.0
H1089 H 0.96914 0.40153 0.06956 0.0
H1090 H 0.04157 0.49888 0.12834 0.0
H1091 H 0.97037 0.42512 0.25652 0.0
H1092 H 0.94557 0.37791 0.31458 0.0
H1093 H 0.02695 0.41039 0.41657 0.0
H1094 H 0.05244 0.45759 0.35845 0.0
H1095 H 0.048 0.58422 0.42135 0.0
H1096 H 0.02481 0.53993 0.35741 0.0
H1097 H 0.10435 0.58275 0.2473 0.0
H1098 H 0.12679 0.62798 0.31024 0.0
H1099 H 0.03874 0.50146 0.34215 0.0
H1100 H 0.08876 0.5518 0.11092 0.0
H1101 H 0.09448 0.5933 0.04689 0.0
H1102 H 0.02958 0.60393 0.14874 0.0
H1103 H 0.02297 0.56214 0.21268 0.0
C1104 C 0.01387 0.39226 0.16766 0.0
C1105 C 0.99133 0.38425 0.12515 0.0
C1106 C 0.0283 0.42163 0.1918 0.0
C1107 C 0.01994 0.44312 0.17441 0.0
C1108 C 0.99927 0.43573 0.1286 0.0
C1109 C 0.98532 0.40669 0.10406 0.0
C1110 C 0.03077 0.47231 0.20638 0.0
C1111 C 0.04135 0.49959 0.17515 0.0
C1112 C 0.02868 0.47301 0.26729 0.0
C1113 C 0.01346 0.4447 0.30259 0.0
C1114 C 0.98307 0.42208 0.29103 0.0
C1115 C 0.96887 0.39534 0.32396 0.0
C1116 C 0.98473 0.3911 0.36906 0.0
C1117 C 0.01475 0.41367 0.38148 0.0
C1118 C 0.02909 0.44041 0.34854 0.0
C1119 C 0.06018 0.58438 0.38272 0.0
C1120 C 0.08906 0.60939 0.37039 0.0
C1121 C 0.04701 0.559 0.34631 0.0
C1122 C 0.06279 0.55769 0.29745 0.0
C1123 C 0.09138 0.58324 0.28406 0.0
C1124 C 0.10428 0.60908 0.32001 0.0
C1125 C 0.0506 0.52857 0.26431 0.0
C1126 C 0.03957 0.50114 0.29537 0.0
C1127 C 0.0502 0.5275 0.20313 0.0
C1128 C 0.05576 0.55411 0.16721 0.0
C1129 C 0.07585 0.56311 0.11989 0.0
C1130 C 0.07912 0.58658 0.08342 0.0
C1131 C 0.06239 0.60121 0.09375 0.0
C1132 C 0.04257 0.59262 0.14088 0.0
C1133 C 0.03913 0.5691 0.17737 0.0
H1134 H 0.06475 0.61918 0.06517 0.0
H1135 H 0.97373 0.37036 0.3944 0.0
H1136 H 0.45314 0.10347 0.50575 0.0
H1137 H 0.47602 0.08825 0.4288 0.0
H1138 H 0.54823 0.10095 0.54482 0.0
H1139 H 0.52606 0.11686 0.62115 0.0
H1140 H 0.56853 0.11643 0.43155 0.0
H1141 H 0.48428 0.03408 0.53886 0.0
H1142 H 0.43102 0.00573 0.57317 0.0
H1143 H 0.39889 0.98935 0.39775 0.0
H1144 H 0.45207 0.01785 0.36254 0.0
H1145 H 0.60817 1.00272 0.37547 0.0
H1146 H 0.59527 0.04095 0.40825 0.0
H1147 H 0.52079 0.00611 0.28584 0.0
H1148 H 0.53269 0.9671 0.25539 0.0
H1149 H 0.50044 0.00679 0.38515 0.0
H1150 H 0.58539 0.0804 0.27709 0.0
H1151 H 0.6386 0.10849 0.2426 0.0
H1152 H 0.66982 0.14114 0.4146 0.0
H1153 H 0.61685 0.11287 0.45039 0.0
C1154 C 0.47429 0.10375 0.51433 0.0
C1155 C 0.4875 0.11076 0.5697 0.0
C1156 C 0.48733 0.0951 0.47039 0.0
C1157 C 0.51359 0.09317 0.48152 0.0
C1158 C 0.52798 0.10232 0.53544 0.0
C1159 C 0.51501 0.11096 0.57924 0.0
C1160 C 0.52352 0.07731 0.44105 0.0
C1161 C 0.55374 0.09249 0.42095 0.0
C1162 C 0.50392 0.04626 0.42664 0.0
C1163 C 0.47206 0.02859 0.44806 0.0
C1164 C 0.46584 0.02464 0.50765 0.0
C1165 C 0.43569 0.00849 0.52726 0.0
C1166 C 0.41157 0.99588 0.48768 0.0
C1167 C 0.41758 0.99923 0.42838 0.0
C1168 C 0.4477 0.01538 0.40858 0.0
C1169 C 0.58943 1.0037 0.35505 0.0
C1170 C 0.57107 0.98181 0.31378 0.0
C1171 C 0.5822 0.02567 0.37334 0.0
C1172 C 0.55708 0.02648 0.34934 0.0
C1173 C 0.54013 0.00582 0.30523 0.0
C1174 C 0.54687 0.98351 0.28802 0.0
C1175 C 0.54579 0.04568 0.37555 0.0
C1176 C 0.51522 0.03098 0.39371 0.0
C1177 C 0.56514 0.07711 0.38784 0.0
C1178 C 0.59709 0.09433 0.36649 0.0
C1179 C 0.60361 0.09338 0.30768 0.0
C1180 C 0.63374 0.10938 0.28787 0.0
C1181 C 0.65758 0.12656 0.32639 0.0
C1182 C 0.65133 0.12782 0.38481 0.0
C1183 C 0.62124 0.11185 0.40486 0.0
H1184 H 0.68088 0.13895 0.31097 0.0
H1185 H 0.38823 0.98341 0.50295 0.0
H1186 H 0.56638 0.54817 0.39409 0.0
H1187 H 0.51801 0.53477 0.44074 0.0
H1188 H 0.56703 0.59543 0.58232 0.0
H1189 H 0.61565 0.60909 0.53504 0.0
H1190 H 0.50733 0.505 0.5411 0.0
H1191 H 0.51639 0.61339 0.65077 0.0
H1192 H 0.5337 0.66714 0.62668 0.0
H1193 H 0.52271 0.64492 0.44591 0.0
H1194 H 0.50491 0.59098 0.46885 0.0
H1195 H 0.42837 0.47099 0.80484 0.0
H1196 H 0.4661 0.49298 0.7271 0.0
H1197 H 0.40694 0.51662 0.63408 0.0
H1198 H 0.36992 0.49573 0.71298 0.0
H1199 H 0.46471 0.56339 0.63587 0.0
H1200 H 0.41354 0.45738 0.59244 0.0
H1201 H 0.39243 0.40224 0.60796 0.0
H1202 H 0.48237 0.41742 0.64217 0.0
H1203 H 0.50398 0.47278 0.62822 0.0
C1204 C 0.56672 0.55931 0.43432 0.0
C1205 C 0.59445 0.579 0.46198 0.0
C1206 C 0.53915 0.55177 0.46074 0.0
C1207 C 0.539 0.56382 0.51521 0.0
C1208 C 0.56671 0.586 0.54009 0.0
C1209 C 0.59441 0.59374 0.51328 0.0
C1210 C 0.51089 0.54907 0.55026 0.0
C1211 C 0.49794 0.51775 0.56168 0.0
C1212 C 0.49829 0.56562 0.57581 0.0
C1213 C 0.50959 0.59816 0.5616 0.0
C1214 C 0.51765 0.61996 0.60588 0.0
C1215 C 0.52754 0.65046 0.59241 0.0
C1216 C 0.52936 0.65944 0.53481 0.0
C1217 C 0.52141 0.63796 0.4905 0.0
C1218 C 0.51149 0.60743 0.50372 0.0
C1219 C 0.4234 0.48067 0.7675 0.0
C1220 C 0.3959 0.48094 0.76374 0.0
C1221 C 0.44483 0.49308 0.72315 0.0
C1222 C 0.43905 0.50602 0.67457 0.0
C1223 C 0.41167 0.50651 0.67102 0.0
C1224 C 0.39027 0.49405 0.7154 0.0
C1225 C 0.46204 0.51965 0.62825 0.0
C1226 C 0.47403 0.55067 0.6149 0.0
C1227 C 0.47349 0.5027 0.60001 0.0
C1228 C 0.46041 0.46936 0.60953 0.0
C1229 C 0.42882 0.44905 0.6039 0.0
C1230 C 0.41675 0.41771 0.61235 0.0
C1231 C 0.43603 0.40633 0.62615 0.0
C1232 C 0.46744 0.42626 0.63154 0.0
C1233 C 0.47961 0.45763 0.62333 0.0
H1234 H 0.42664 0.38205 0.63257 0.0
H1235 H 0.53678 0.68301 0.52455 0.0
H1236 H 0.03601 0.56582 0.57939 0.0
H1237 H 1.00342 0.5202 0.63584 0.0
H1238 H 0.97598 0.57224 0.74248 0.0
H1239 H 0.00819 0.61815 0.68475 0.0
H1240 H 0.00621 0.54364 0.79988 0.0
H1241 H 0.92353 0.51736 0.66569 0.0
H1242 H 0.89996 0.50736 0.56896 0.0
H1243 H 0.91899 0.43443 0.54355 0.0
H1244 H 0.94312 0.44437 0.63971 0.0
H1245 H 0.91918 0.42779 0.99332 0.0
H1246 H 0.93522 0.46776 0.92148 0.0
H1247 H 0.94283 0.40933 0.79445 0.0
H1248 H 0.92533 0.36827 0.86645 0.0
H1249 H 0.92138 0.44101 0.745 0.0
H1250 H 1.00441 0.46465 0.86804 0.0
H1251 H 0.03371 0.47371 0.95809 0.0
H1252 H 0.02364 0.55124 -0.0038 0.0
H1253 H 0.99316 0.54196 0.90754 0.0
C1254 C 0.02236 0.56738 0.61387 0.0
C1255 C 0.02492 0.59557 0.62844 0.0
C1256 C 1.00366 0.54125 0.64585 0.0
C1257 C 0.98742 0.54292 0.6933 0.0
C1258 C 0.98833 0.57057 0.70574 0.0
C1259 C 0.00663 0.5967 0.6728 0.0
C1260 C 0.9734 0.5171 0.73425 0.0
C1261 C 0.98712 0.52135 0.78867 0.0
C1262 C 0.94991 0.48769 0.71765 0.0
C1263 C 0.93533 0.48174 0.65981 0.0
C1264 C 0.92293 0.49937 0.63929 0.0
C1265 C 0.90942 0.49368 0.58457 0.0
C1266 C 0.90802 0.47032 0.55007 0.0
C1267 C 0.92008 0.45254 0.57026 0.0
C1268 C 0.93364 0.45817 0.6249 0.0
C1269 C 0.92404 0.42323 0.95004 0.0
C1270 C 0.92123 0.39492 0.93562 0.0
C1271 C 0.93335 0.44623 0.909 0.0
C1272 C 0.94099 0.44187 0.85298 0.0
C1273 C 0.93724 0.41326 0.83762 0.0
C1274 C 0.9273 0.38986 0.87869 0.0
C1275 C 0.95369 0.46768 0.81155 0.0
C1276 C 0.94012 0.46337 0.75683 0.0
C1277 C 0.97817 0.49693 0.82707 0.0
C1278 C 0.99607 0.50232 0.88127 0.0
C1279 C 0.00799 0.48336 0.89599 0.0
C1280 C 0.02483 0.48854 0.94684 0.0
C1281 C 0.03043 0.51296 0.98294 0.0
C1282 C 0.01919 0.53226 0.96826 0.0
C1283 C 1.002 0.52696 0.91782 0.0
H1284 H 0.04355 0.51699 0.02217 0.0
H1285 H 0.89755 0.46596 0.50773 0.0
H1286 H 0.47779 0.88776 0.1201 0.0
H1287 H 0.45611 0.9047 0.0448 0.0
H1288 H 0.53397 0.92804 0.93589 0.0
H1289 H 0.55627 0.91164 0.01214 0.0
H1290 H 0.52281 0.97511 0.94987 0.0
H1291 H 0.46461 0.86996 0.89703 0.0
H1292 H 0.43212 0.81478 0.91543 0.0
H1293 H 0.36162 0.82967 0.98268 0.0
H1294 H 0.39386 0.88506 0.96544 0.0
H1295 H 0.46678 0.03488 0.74958 0.0
H1296 H 0.47918 0.99674 0.78361 0.0
H1297 H 0.40778 0.96638 0.91137 0.0
H1298 H 0.39431 1.00381 0.87533 0.0
H1299 H 0.4168 0.91893 0.87358 0.0
H1300 H 0.47689 0.02103 0.95038 0.0
H1301 H 0.50633 0.07688 0.93665 0.0
H1302 H 0.5713 0.06764 0.83212 0.0
H1303 H 0.54211 0.01161 0.84511 0.0
C1304 C 0.49022 0.89625 0.07994 0.0
C1305 C 0.51886 0.89862 0.07208 0.0
C1306 C 0.47761 0.90558 0.03666 0.0
C1307 C 0.49329 0.91735 0.98458 0.0
C1308 C 0.52144 0.91883 0.97573 0.0
C1309 C 0.53408 0.90936 0.01912 0.0
C1310 C 0.48172 0.93123 0.94278 0.0
C1311 C 0.49996 0.96258 0.93182 0.0
C1312 C 0.45151 0.9151 0.92096 0.0
C1313 C 0.43171 0.8817 0.93009 0.0
C1314 C 0.44222 0.8615 0.91595 0.0
C1315 C 0.42385 0.83018 0.92618 0.0
C1316 C 0.39484 0.81874 0.95027 0.0
C1317 C 0.38409 0.83858 0.96401 0.0
C1318 C 0.40238 0.86994 0.95389 0.0
C1319 C 0.45328 0.01957 0.78405 0.0
C1320 C 0.43003 0.02257 0.81078 0.0
C1321 C 0.46027 0.99773 0.80323 0.0
C1322 C 0.44485 0.97923 0.85081 0.0
C1323 C 0.41997 0.98049 0.87463 0.0
C1324 C 0.41244 1.00196 0.85437 0.0
C1325 C 0.45791 0.96264 0.88116 0.0
C1326 C 0.43993 0.93108 0.89036 0.0
C1327 C 0.48823 0.97854 0.90241 0.0
C1328 C 0.50722 0.01223 0.89828 0.0
C1329 C 0.49753 0.03096 0.92468 0.0
C1330 C 0.51411 0.06258 0.91696 0.0
C1331 C 0.54052 0.07572 0.88326 0.0
C1332 C 0.55076 0.05736 0.85807 0.0
C1333 C 0.53428 0.02567 0.86576 0.0
H1334 H 0.55298 0.10014 0.87678 0.0
H1335 H 0.38067 0.79449 0.95824 0.0
H1336 H 0.39465 0.37138 0.93428 0.0
H1337 H 0.44717 0.39202 0.97013 0.0
H1338 H 0.44579 0.47115 0.03637 0.0
H1339 H 0.39368 0.45035 0.00186 0.0
H1340 H 0.49824 0.48818 0.9846 0.0
H1341 H 0.43412 0.41088 0.12385 0.0
H1342 H 0.39722 0.35902 0.15792 0.0
H1343 H 0.45604 0.32632 0.09849 0.0
H1344 H 0.49318 0.37799 0.06353 0.0
H1345 H 0.58304 0.53649 0.24528 0.0
H1346 H 0.54302 0.51263 0.17158 0.0
H1347 H 0.59173 0.47263 0.09162 0.0
H1348 H 0.63227 0.49711 0.16494 0.0
H1349 H 0.52277 0.43211 0.13074 0.0
H1350 H 0.59153 0.51515 0.00927 0.0
H1351 H 0.628 0.56914 0.98679 0.0
H1352 H 0.55919 0.59275 0.02261 0.0
H1353 H 0.52244 0.539 0.04635 0.0
C1354 C 0.40557 0.39289 0.95738 0.0
C1355 C 0.39007 0.40904 0.96619 0.0
C1356 C 0.43557 0.40482 0.97728 0.0
C1357 C 0.45036 0.43308 0.00625 0.0
C1358 C 0.43495 0.44941 0.01385 0.0
C1359 C 0.40514 0.43752 0.99402 0.0
C1360 C 0.48153 0.44571 0.03048 0.0
C1361 C 0.50364 0.47586 0.01632 0.0
C1362 C 0.48888 0.42936 0.07083 0.0
C1363 C 0.46621 0.39817 0.09039 0.0
C1364 C 0.43904 0.39256 0.11753 0.0
C1365 C 0.41815 0.36325 0.13725 0.0
C1366 C 0.4243 0.3394 0.13045 0.0
C1367 C 0.45132 0.34482 0.10376 0.0
C1368 C 0.47228 0.3741 0.08398 0.0
C1369 C 0.58542 0.52308 0.21127 0.0
C1370 C 0.61078 0.51896 0.20978 0.0
C1371 C 0.56267 0.50952 0.16937 0.0
C1372 C 0.56465 0.4911 0.12624 0.0
C1373 C 0.59007 0.48703 0.12441 0.0
C1374 C 0.61323 0.50118 0.16575 0.0
C1375 C 0.53883 0.47472 0.08599 0.0
C1376 C 0.5177 0.44399 0.09741 0.0
C1377 C 0.53217 0.49064 0.04385 0.0
C1378 C 0.55423 0.52303 0.02971 0.0
C1379 C 0.58423 0.53188 0.0128 0.0
C1380 C 0.60496 0.56243 -0.00022 0.0
C1381 C 0.59592 0.58434 0.00329 0.0
C1382 C 0.56615 0.57575 0.01989 0.0
C1383 C 0.54536 0.54524 0.0331 0.0
H1384 H 0.612 0.60797 0.99313 0.0
H1385 H 0.40808 0.31672 0.14568 0.0
loop_
_geom_bond_atom_site_label_1
_geom_bond_atom_site_label_2
_geom_bond_distance
_geom_bond_site_symmetry_2
_ccdc_geom_bond_type
C0 O12 1.241 . S
C0 O13 1.280 . S
C1 O14 1.277 . S
C1 O15 1.245 . S
C2 O26 1.247 1_556 S
C2 O28 1.289 . S
Mg3 O4 1.926 . S
Mg3 O13 1.984 . S
Mg3 O15 1.988 . S
Mg3 O16 2.061 . S
O4 Mg3 1.926 . S
O4 Mg5 1.986 . S
O4 Mg6 1.912 1_556 S
Mg5 O4 1.986 . S
Mg5 O12 2.042 . S
Mg5 O14 2.041 . S
Mg5 O20 2.038 . S
Mg5 O28 2.238 . S
Mg6 O4 1.912 1_554 S
Mg6 O7 1.922 . S
Mg6 O17 2.110 . S
Mg6 O19 2.083 . S
Mg6 O28 2.103 1_554 S
Mg6 O29 2.075 1_554 S
O7 Mg6 1.922 . S
O7 Mg8 1.926 . S
O7 Mg9 1.986 . S
Mg8 O7 1.926 . S
Mg8 O22 1.984 . S
Mg8 O25 1.988 . S
Mg8 O26 2.061 . S
Mg9 O7 1.986 . S
Mg9 O17 2.238 . S
Mg9 O21 2.042 . S
Mg9 O23 2.041 . S
Mg9 O30 2.038 . S
C10 O16 1.247 1_554 S
C10 O17 1.289 . S
C11 O29 1.245 . S
C11 O30 1.274 1_556 S
O12 C0 1.241 . S
O12 Mg5 2.042 . S
O13 C0 1.280 . S
O13 Mg3 1.984 . S
O14 C1 1.277 . S
O14 Mg5 2.041 . S
O15 C1 1.245 . S
O15 Mg3 1.988 . S
O16 Mg3 2.061 . S
O16 C10 1.247 1_556 S
O17 Mg6 2.110 . S
O17 Mg9 2.238 . S
O17 C10 1.289 . S
C18 O19 1.245 . S
C18 O20 1.274 1_554 S
O19 Mg6 2.083 . S
O19 C18 1.245 . S
O20 Mg5 2.038 . S
O20 C18 1.274 1_556 S
O21 Mg9 2.042 . S
O21 C24 1.241 . S
O22 Mg8 1.984 . S
O22 C24 1.280 . S
O23 Mg9 2.041 . S
O23 C27 1.277 . S
C24 O21 1.241 . S
C24 O22 1.280 . S
O25 Mg8 1.988 . S
O25 C27 1.245 . S
O26 C2 1.247 1_554 S
O26 Mg8 2.061 . S
C27 O23 1.277 . S
C27 O25 1.245 . S
O28 C2 1.289 . S
O28 Mg5 2.238 . S
O28 Mg6 2.103 1_556 S
O29 Mg6 2.075 1_556 S
O29 C11 1.245 . S
O30 Mg9 2.038 . S
O30 C11 1.274 1_554 S
C31 O43 1.241 . S
C31 O44 1.280 . S
C32 O45 1.277 1_556 S
C32 O46 1.245 . S
C33 O57 1.247 . S
C33 O59 1.289 . S
Mg34 O35 1.926 . S
Mg34 O44 1.984 . S
Mg34 O46 1.988 1_554 S
Mg34 O47 2.061 . S
O35 Mg34 1.926 . S
O35 Mg36 1.986 . S
O35 Mg37 1.917 . S
Mg36 O35 1.986 . S
Mg36 O43 2.042 . S
Mg36 O45 2.041 . S
Mg36 O51 2.038 . S
Mg36 O59 2.238 . S
Mg37 O35 1.917 . S
Mg37 O38 1.917 . S
Mg37 O48 2.106 . S
Mg37 O50 2.079 . S
Mg37 O59 2.106 . S
Mg37 O60 2.079 . S
O38 Mg37 1.917 . S
O38 Mg39 1.926 . S
O38 Mg40 1.986 . S
Mg39 O38 1.926 . S
Mg39 O53 1.984 . S
Mg39 O56 1.988 . S
Mg39 O57 2.061 . S
Mg40 O38 1.986 . S
Mg40 O48 2.238 . S
Mg40 O52 2.042 . S
Mg40 O54 2.041 . S
Mg40 O61 2.038 . S
C41 O47 1.247 . S
C41 O48 1.289 . S
C42 O60 1.245 . S
C42 O61 1.274 . S
O43 C31 1.241 . S
O43 Mg36 2.042 . S
O44 C31 1.280 . S
O44 Mg34 1.984 . S
O45 C32 1.277 1_554 S
O45 Mg36 2.041 . S
O46 C32 1.245 . S
O46 Mg34 1.988 1_556 S
O47 Mg34 2.061 . S
O47 C41 1.247 . S
O48 Mg37 2.106 . S
O48 Mg40 2.238 . S
O48 C41 1.289 . S
C49 O50 1.245 . S
C49 O51 1.274 . S
O50 Mg37 2.079 . S
O50 C49 1.245 . S
O51 Mg36 2.038 . S
O51 C49 1.274 . S
O52 Mg40 2.042 . S
O52 C55 1.241 . S
O53 Mg39 1.984 . S
O53 C55 1.280 . S
O54 Mg40 2.041 . S
O54 C58 1.277 . S
C55 O52 1.241 . S
C55 O53 1.280 . S
O56 Mg39 1.988 . S
O56 C58 1.245 . S
O57 C33 1.247 . S
O57 Mg39 2.061 . S
C58 O54 1.277 . S
C58 O56 1.245 . S
O59 C33 1.289 . S
O59 Mg36 2.238 . S
O59 Mg37 2.106 . S
O60 Mg37 2.079 . S
O60 C42 1.245 . S
O61 Mg40 2.038 . S
O61 C42 1.274 . S
C62 O74 1.241 . S
C62 O75 1.280 . S
C63 O76 1.277 . S
C63 O77 1.245 . S
C64 O88 1.247 . S
C64 O90 1.289 . S
Mg65 O66 1.926 . S
Mg65 O75 1.984 . S
Mg65 O77 1.988 . S
Mg65 O78 2.061 . S
O66 Mg65 1.926 . S
O66 Mg67 1.986 . S
O66 Mg68 1.917 . S
Mg67 O66 1.986 . S
Mg67 O74 2.042 . S
Mg67 O76 2.041 . S
Mg67 O82 2.038 . S
Mg67 O90 2.238 . S
Mg68 O66 1.917 . S
Mg68 O69 1.917 . S
Mg68 O79 2.106 . S
Mg68 O81 2.079 . S
Mg68 O90 2.106 . S
Mg68 O91 2.079 . S
O69 Mg68 1.917 . S
O69 Mg70 1.926 . S
O69 Mg71 1.986 . S
Mg70 O69 1.926 . S
Mg70 O84 1.984 . S
Mg70 O87 1.988 . S
Mg70 O88 2.061 . S
Mg71 O69 1.986 . S
Mg71 O79 2.238 . S
Mg71 O83 2.042 . S
Mg71 O85 2.041 . S
Mg71 O92 2.038 . S
C72 O78 1.247 . S
C72 O79 1.289 . S
C73 O91 1.245 . S
C73 O92 1.274 . S
O74 C62 1.241 . S
O74 Mg67 2.042 . S
O75 C62 1.280 . S
O75 Mg65 1.984 . S
O76 C63 1.277 . S
O76 Mg67 2.041 . S
O77 C63 1.245 . S
O77 Mg65 1.988 . S
O78 Mg65 2.061 . S
O78 C72 1.247 . S
O79 Mg68 2.106 . S
O79 Mg71 2.238 . S
O79 C72 1.289 . S
C80 O81 1.245 . S
C80 O82 1.274 . S
O81 Mg68 2.079 . S
O81 C80 1.245 . S
O82 Mg67 2.038 . S
O82 C80 1.274 . S
O83 Mg71 2.042 . S
O83 C86 1.241 . S
O84 Mg70 1.984 . S
O84 C86 1.280 . S
O85 Mg71 2.041 . S
O85 C89 1.277 . S
C86 O83 1.241 . S
C86 O84 1.280 . S
O87 Mg70 1.988 . S
O87 C89 1.245 . S
O88 C64 1.247 . S
O88 Mg70 2.061 . S
C89 O85 1.277 . S
C89 O87 1.245 . S
O90 C64 1.289 . S
O90 Mg67 2.238 . S
O90 Mg68 2.106 . S
O91 Mg68 2.079 . S
O91 C73 1.245 . S
O92 Mg71 2.038 . S
O92 C73 1.274 . S
C93 O105 1.241 . S
C93 O106 1.280 . S
C94 O107 1.277 . S
C94 O108 1.245 . S
C95 O119 1.247 . S
C95 O121 1.289 . S
Mg96 O97 1.926 . S
Mg96 O106 1.984 . S
Mg96 O108 1.988 . S
Mg96 O109 2.061 . S
O97 Mg96 1.926 . S
O97 Mg98 1.986 . S
O97 Mg99 1.917 . S
Mg98 O97 1.986 . S
Mg98 O105 2.042 . S
Mg98 O107 2.041 . S
Mg98 O113 2.038 . S
Mg98 O121 2.238 . S
Mg99 O97 1.917 . S
Mg99 O100 1.917 . S
Mg99 O110 2.106 . S
Mg99 O112 2.079 . S
Mg99 O121 2.106 . S
Mg99 O122 2.079 . S
O100 Mg99 1.917 . S
O100 Mg101 1.926 . S
O100 Mg102 1.986 . S
Mg101 O100 1.926 . S
Mg101 O115 1.984 . S
Mg101 O118 1.988 . S
Mg101 O119 2.061 . S
Mg102 O100 1.986 . S
Mg102 O110 2.238 . S
Mg102 O114 2.042 . S
Mg102 O116 2.041 . S
Mg102 O123 2.038 . S
C103 O109 1.247 . S
C103 O110 1.289 . S
C104 O122 1.245 . S
C104 O123 1.274 . S
O105 C93 1.241 . S
O105 Mg98 2.042 . S
O106 C93 1.280 . S
O106 Mg96 1.984 . S
O107 C94 1.277 . S
O107 Mg98 2.041 . S
O108 C94 1.245 . S
O108 Mg96 1.988 . S
O109 Mg96 2.061 . S
O109 C103 1.247 . S
O110 Mg99 2.106 . S
O110 Mg102 2.238 . S
O110 C103 1.289 . S
C111 O112 1.245 . S
C111 O113 1.274 . S
O112 Mg99 2.079 . S
O112 C111 1.245 . S
O113 Mg98 2.038 . S
O113 C111 1.274 . S
O114 Mg102 2.042 . S
O114 C117 1.241 . S
O115 Mg101 1.984 . S
O115 C117 1.280 . S
O116 Mg102 2.041 . S
O116 C120 1.277 . S
C117 O114 1.241 . S
C117 O115 1.280 . S
O118 Mg101 1.988 . S
O118 C120 1.245 . S
O119 C95 1.247 . S
O119 Mg101 2.061 . S
C120 O116 1.277 . S
C120 O118 1.245 . S
O121 C95 1.289 . S
O121 Mg98 2.238 . S
O121 Mg99 2.106 . S
O122 Mg99 2.079 . S
O122 C104 1.245 . S
O123 Mg102 2.038 . S
O123 C104 1.274 . S
C124 O136 1.241 . S
C124 O137 1.280 . S
C125 O138 1.277 . S
C125 O139 1.245 . S
C126 O150 1.247 . S
C126 O152 1.289 . S
Mg127 O128 1.926 . S
Mg127 O137 1.984 . S
Mg127 O139 1.988 . S
Mg127 O140 2.061 . S
O128 Mg127 1.926 . S
O128 Mg129 1.986 . S
O128 Mg130 1.917 . S
Mg129 O128 1.986 . S
Mg129 O136 2.042 . S
Mg129 O138 2.041 . S
Mg129 O144 2.038 . S
Mg129 O152 2.238 . S
Mg130 O128 1.917 . S
Mg130 O131 1.917 . S
Mg130 O141 2.106 . S
Mg130 O143 2.079 . S
Mg130 O152 2.106 . S
Mg130 O153 2.079 . S
O131 Mg130 1.917 . S
O131 Mg132 1.926 . S
O131 Mg133 1.986 . S
Mg132 O131 1.926 . S
Mg132 O146 1.984 . S
Mg132 O149 1.988 . S
Mg132 O150 2.061 . S
Mg133 O131 1.986 . S
Mg133 O141 2.238 . S
Mg133 O145 2.042 . S
Mg133 O147 2.041 . S
Mg133 O154 2.038 . S
C134 O140 1.247 . S
C134 O141 1.289 . S
C135 O153 1.245 . S
C135 O154 1.274 . S
O136 C124 1.241 . S
O136 Mg129 2.042 . S
O137 C124 1.280 . S
O137 Mg127 1.984 . S
O138 C125 1.277 . S
O138 Mg129 2.041 . S
O139 C125 1.245 . S
O139 Mg127 1.988 . S
O140 Mg127 2.061 . S
O140 C134 1.247 . S
O141 Mg130 2.106 . S
O141 Mg133 2.238 . S
O141 C134 1.289 . S
C142 O143 1.245 . S
C142 O144 1.274 . S
O143 Mg130 2.079 . S
O143 C142 1.245 . S
O144 Mg129 2.038 . S
O144 C142 1.274 . S
O145 Mg133 2.042 . S
O145 C148 1.241 . S
O146 Mg132 1.984 . S
O146 C148 1.280 . S
O147 Mg133 2.041 . S
O147 C151 1.277 . S
C148 O145 1.241 . S
C148 O146 1.280 . S
O149 Mg132 1.988 . S
O149 C151 1.245 . S
O150 C126 1.247 . S
O150 Mg132 2.061 . S
C151 O147 1.277 . S
C151 O149 1.245 . S
O152 C126 1.289 . S
O152 Mg129 2.238 . S
O152 Mg130 2.106 . S
O153 Mg130 2.079 . S
O153 C135 1.245 . S
O154 Mg133 2.038 . S
O154 C135 1.274 . S
C155 O167 1.241 . S
C155 O168 1.280 . S
C156 O169 1.277 . S
C156 O170 1.245 . S
C157 O181 1.247 . S
C157 O183 1.289 . S
Mg158 O159 1.926 . S
Mg158 O168 1.984 . S
Mg158 O170 1.988 . S
Mg158 O171 2.061 . S
O159 Mg158 1.926 . S
O159 Mg160 1.986 . S
O159 Mg161 1.917 . S
Mg160 O159 1.986 . S
Mg160 O167 2.042 . S
Mg160 O169 2.041 . S
Mg160 O175 2.038 . S
Mg160 O183 2.238 . S
Mg161 O159 1.917 . S
Mg161 O162 1.917 . S
Mg161 O172 2.106 . S
Mg161 O174 2.079 . S
Mg161 O183 2.106 . S
Mg161 O184 2.079 . S
O162 Mg161 1.917 . S
O162 Mg163 1.926 . S
O162 Mg164 1.986 . S
Mg163 O162 1.926 . S
Mg163 O177 1.984 . S
Mg163 O180 1.988 1_556 S
Mg163 O181 2.061 . S
Mg164 O162 1.986 . S
Mg164 O172 2.238 . S
Mg164 O176 2.042 . S
Mg164 O178 2.041 . S
Mg164 O185 2.038 . S
C165 O171 1.247 . S
C165 O172 1.289 . S
C166 O184 1.245 . S
C166 O185 1.274 . S
O167 C155 1.241 . S
O167 Mg160 2.042 . S
O168 C155 1.280 . S
O168 Mg158 1.984 . S
O169 C156 1.277 . S
O169 Mg160 2.041 . S
O170 C156 1.245 . S
O170 Mg158 1.988 . S
O171 Mg158 2.061 . S
O171 C165 1.247 . S
O172 Mg161 2.106 . S
O172 Mg164 2.238 . S
O172 C165 1.289 . S
C173 O174 1.245 . S
C173 O175 1.274 . S
O174 Mg161 2.079 . S
O174 C173 1.245 . S
O175 Mg160 2.038 . S
O175 C173 1.274 . S
O176 Mg164 2.042 . S
O176 C179 1.241 . S
O177 Mg163 1.984 . S
O177 C179 1.280 . S
O178 Mg164 2.041 . S
O178 C182 1.277 1_556 S
C179 O176 1.241 . S
C179 O177 1.280 . S
O180 Mg163 1.988 1_554 S
O180 C182 1.245 . S
O181 C157 1.247 . S
O181 Mg163 2.061 . S
C182 O178 1.277 1_554 S
C182 O180 1.245 . S
O183 C157 1.289 . S
O183 Mg160 2.238 . S
O183 Mg161 2.106 . S
O184 Mg161 2.079 . S
O184 C166 1.245 . S
O185 Mg164 2.038 . S
O185 C166 1.274 . S
H186 C204 0.951 . S
H187 C206 0.951 . S
H188 C208 0.950 . S
H189 C209 0.950 . S
H190 C211 0.950 . S
H191 C214 0.950 . S
H192 C215 0.950 . S
H193 C217 0.950 . S
H194 C218 0.950 . S
H195 C219 0.951 . S
H196 C221 0.951 . S
H197 C223 0.950 . S
H198 C224 0.950 . S
H199 C226 0.950 . S
H200 C229 0.950 . S
H201 C230 0.950 . S
H202 C232 0.950 1_455 S
H203 C233 0.950 . S
C204 H186 0.951 . S
C204 C205 1.366 . S
C204 C206 1.388 . S
C205 C204 1.366 . S
C205 C209 1.385 . S
C206 H187 0.951 . S
C206 C204 1.388 . S
C206 C207 1.366 . S
C207 C206 1.366 . S
C207 C208 1.414 . S
C207 C210 1.499 . S
C208 H188 0.950 . S
C208 C207 1.414 . S
C208 C209 1.374 . S
C209 H189 0.950 . S
C209 C205 1.385 . S
C209 C208 1.374 . S
C210 C207 1.499 . S
C210 C211 1.373 . S
C210 C212 1.389 . S
C211 H190 0.950 . S
C211 C210 1.373 . S
C211 C227 1.377 . S
C212 C210 1.389 . S
C212 C213 1.524 . S
C212 C226 1.377 . S
C213 C212 1.524 . S
C213 C214 1.397 . S
C213 C218 1.363 . S
C214 H191 0.950 . S
C214 C213 1.397 . S
C214 C215 1.334 . S
C215 H192 0.950 . S
C215 C214 1.334 . S
C215 C216 1.287 . S
C216 C215 1.287 . S
C216 C217 1.524 . S
C216 H235 0.913 . S
C217 H193 0.950 . S
C217 C216 1.524 . S
C217 C218 1.415 . S
C218 H194 0.950 . S
C218 C213 1.363 . S
C218 C217 1.415 . S
C219 H195 0.951 . S
C219 C220 1.366 . S
C219 C221 1.388 . S
C220 C219 1.366 . S
C220 C224 1.385 . S
C221 H196 0.951 . S
C221 C219 1.388 . S
C221 C222 1.366 . S
C222 C221 1.366 . S
C222 C223 1.414 . S
C222 C225 1.499 . S
C223 H197 0.950 . S
C223 C222 1.414 . S
C223 C224 1.374 . S
C224 H198 0.950 . S
C224 C220 1.385 . S
C224 C223 1.374 . S
C225 C222 1.499 . S
C225 C226 1.373 . S
C225 C227 1.389 . S
C226 H199 0.950 . S
C226 C212 1.377 . S
C226 C225 1.373 . S
C227 C211 1.377 . S
C227 C225 1.389 . S
C227 C228 1.524 . S
C228 C227 1.524 . S
C228 C229 1.397 . S
C228 C233 1.363 . S
C229 H200 0.950 . S
C229 C228 1.397 . S
C229 C230 1.334 . S
C230 H201 0.950 . S
C230 C229 1.334 . S
C230 C231 1.287 . S
C231 C230 1.287 . S
C231 C232 1.524 . S
C231 H234 0.999 1_655 S
C232 H202 0.950 1_655 S
C232 C231 1.524 . S
C232 C233 1.415 . S
C233 H203 0.950 . S
C233 C228 1.363 . S
C233 C232 1.415 . S
H234 C231 0.999 1_455 S
H235 C216 0.913 . S
H236 C254 0.951 . S
H237 C256 0.951 . S
H238 C258 0.950 . S
H239 C259 0.950 . S
H240 C261 0.950 . S
H241 C264 0.950 . S
H242 C265 0.950 . S
H243 C267 0.950 . S
H244 C268 0.950 . S
H245 C269 0.951 . S
H246 C271 0.951 . S
H247 C273 0.950 . S
H248 C274 0.950 . S
H249 C276 0.950 . S
H250 C279 0.950 . S
H251 C280 0.950 . S
H252 C282 0.950 1_545 S
H253 C283 0.950 . S
C254 H236 0.951 . S
C254 C255 1.366 . S
C254 C256 1.388 . S
C255 C254 1.366 . S
C255 C259 1.385 . S
C256 H237 0.951 . S
C256 C254 1.388 . S
C256 C257 1.366 . S
C257 C256 1.366 . S
C257 C258 1.414 . S
C257 C260 1.499 . S
C258 H238 0.950 . S
C258 C257 1.414 . S
C258 C259 1.374 . S
C259 H239 0.950 . S
C259 C255 1.385 . S
C259 C258 1.374 . S
C260 C257 1.499 . S
C260 C261 1.373 . S
C260 C262 1.389 . S
C261 H240 0.950 . S
C261 C260 1.373 . S
C261 C277 1.377 . S
C262 C260 1.389 . S
C262 C263 1.524 . S
C262 C276 1.377 . S
C263 C262 1.524 . S
C263 C264 1.397 . S
C263 C268 1.363 . S
C264 H241 0.950 . S
C264 C263 1.397 . S
C264 C265 1.334 . S
C265 H242 0.950 . S
C265 C264 1.334 . S
C265 C266 1.287 . S
C266 C265 1.287 . S
C266 C267 1.524 . S
C266 H285 0.913 . S
C267 H243 0.950 . S
C267 C266 1.524 . S
C267 C268 1.415 . S
C268 H244 0.950 . S
C268 C263 1.363 . S
C268 C267 1.415 . S
C269 H245 0.951 . S
C269 C270 1.366 . S
C269 C271 1.388 . S
C270 C269 1.366 . S
C270 C274 1.385 . S
C271 H246 0.951 . S
C271 C269 1.388 . S
C271 C272 1.366 . S
C272 C271 1.366 . S
C272 C273 1.414 . S
C272 C275 1.499 . S
C273 H247 0.950 . S
C273 C272 1.414 . S
C273 C274 1.374 . S
C274 H248 0.950 . S
C274 C270 1.385 . S
C274 C273 1.374 . S
C275 C272 1.499 . S
C275 C276 1.373 . S
C275 C277 1.389 . S
C276 H249 0.950 . S
C276 C262 1.377 . S
C276 C275 1.373 . S
C277 C261 1.377 . S
C277 C275 1.389 . S
C277 C278 1.524 . S
C278 C277 1.524 . S
C278 C279 1.397 . S
C278 C283 1.363 . S
C279 H250 0.950 . S
C279 C278 1.397 . S
C279 C280 1.334 . S
C280 H251 0.950 . S
C280 C279 1.334 . S
C280 C281 1.287 . S
C281 C280 1.287 . S
C281 C282 1.524 . S
C281 H284 0.999 1_565 S
C282 H252 0.950 1_565 S
C282 C281 1.524 . S
C282 C283 1.415 . S
C283 H253 0.950 . S
C283 C278 1.363 . S
C283 C282 1.415 . S
H284 C281 0.999 1_545 S
H285 C266 0.913 . S
H286 C304 0.951 . S
H287 C306 0.951 . S
H288 C308 0.950 . S
H289 C309 0.950 . S
H290 C311 0.950 . S
H291 C314 0.950 . S
H292 C315 0.950 . S
H293 C317 0.950 . S
H294 C318 0.950 . S
H295 C319 0.951 . S
H296 C321 0.951 . S
H297 C323 0.950 . S
H298 C324 0.950 . S
H299 C326 0.950 . S
H300 C329 0.950 . S
H301 C330 0.950 . S
H302 C332 0.950 . S
H303 C333 0.950 . S
C304 H286 0.951 . S
C304 C305 1.366 . S
C304 C306 1.388 1_554 S
C305 C304 1.366 . S
C305 C309 1.385 . S
C306 H287 0.951 . S
C306 C304 1.388 1_556 S
C306 C307 1.366 . S
C307 C306 1.366 . S
C307 C308 1.414 . S
C307 C310 1.499 . S
C308 H288 0.950 . S
C308 C307 1.414 . S
C308 C309 1.374 1_556 S
C309 H289 0.950 . S
C309 C305 1.385 . S
C309 C308 1.374 1_554 S
C310 C307 1.499 . S
C310 C311 1.373 . S
C310 C312 1.389 . S
C311 H290 0.950 . S
C311 C310 1.373 . S
C311 C327 1.377 . S
C312 C310 1.389 . S
C312 C313 1.524 . S
C312 C326 1.377 . S
C313 C312 1.524 . S
C313 C314 1.397 . S
C313 C318 1.363 . S
C314 H291 0.950 . S
C314 C313 1.397 . S
C314 C315 1.334 . S
C315 H292 0.950 . S
C315 C314 1.334 . S
C315 C316 1.287 . S
C316 C315 1.287 . S
C316 C317 1.524 . S
C316 H335 0.913 . S
C317 H293 0.950 . S
C317 C316 1.524 . S
C317 C318 1.415 . S
C318 H294 0.950 . S
C318 C313 1.363 . S
C318 C317 1.415 . S
C319 H295 0.951 . S
C319 C320 1.366 . S
C319 C321 1.388 . S
C320 C319 1.366 . S
C320 C324 1.385 . S
C321 H296 0.951 . S
C321 C319 1.388 . S
C321 C322 1.366 . S
C322 C321 1.366 . S
C322 C323 1.414 . S
C322 C325 1.499 . S
C323 H297 0.950 . S
C323 C322 1.414 . S
C323 C324 1.374 . S
C324 H298 0.950 . S
C324 C320 1.385 . S
C324 C323 1.374 . S
C325 C322 1.499 . S
C325 C326 1.373 . S
C325 C327 1.389 . S
C326 H299 0.950 . S
C326 C312 1.377 . S
C326 C325 1.373 . S
C327 C311 1.377 . S
C327 C325 1.389 . S
C327 C328 1.524 . S
C328 C327 1.524 . S
C328 C329 1.397 . S
C328 C333 1.363 . S
C329 H300 0.950 . S
C329 C328 1.397 . S
C329 C330 1.334 . S
C330 H301 0.950 . S
C330 C329 1.334 . S
C330 C331 1.287 . S
C331 C330 1.287 . S
C331 C332 1.524 . S
C331 H334 0.999 . S
C332 H302 0.950 . S
C332 C331 1.524 . S
C332 C333 1.415 . S
C333 H303 0.950 . S
C333 C328 1.363 . S
C333 C332 1.415 . S
H334 C331 0.999 . S
H335 C316 0.913 . S
H336 C354 0.951 . S
H337 C356 0.951 . S
H338 C358 0.950 . S
H339 C359 0.950 . S
H340 C361 0.950 . S
H341 C364 0.950 . S
H342 C365 0.950 . S
H343 C367 0.950 . S
H344 C368 0.950 . S
H345 C369 0.951 . S
H346 C371 0.951 . S
H347 C373 0.950 . S
H348 C374 0.950 . S
H349 C376 0.950 . S
H350 C379 0.950 . S
H351 C380 0.950 . S
H352 C382 0.950 . S
H353 C383 0.950 . S
C354 H336 0.951 . S
C354 C355 1.366 . S
C354 C356 1.388 . S
C355 C354 1.366 . S
C355 C359 1.385 . S
C356 H337 0.951 . S
C356 C354 1.388 . S
C356 C357 1.366 . S
C357 C356 1.366 . S
C357 C358 1.414 . S
C357 C360 1.499 . S
C358 H338 0.950 . S
C358 C357 1.414 . S
C358 C359 1.374 . S
C359 H339 0.950 . S
C359 C355 1.385 . S
C359 C358 1.374 . S
C360 C357 1.499 . S
C360 C361 1.373 . S
C360 C362 1.389 . S
C361 H340 0.950 . S
C361 C360 1.373 . S
C361 C377 1.377 1_554 S
C362 C360 1.389 . S
C362 C363 1.524 . S
C362 C376 1.377 1_554 S
C363 C362 1.524 . S
C363 C364 1.397 . S
C363 C368 1.363 . S
C364 H341 0.950 . S
C364 C363 1.397 . S
C364 C365 1.334 . S
C365 H342 0.950 . S
C365 C364 1.334 . S
C365 C366 1.287 . S
C366 C365 1.287 . S
C366 C367 1.524 . S
C366 H385 0.913 . S
C367 H343 0.950 . S
C367 C366 1.524 . S
C367 C368 1.415 . S
C368 H344 0.950 . S
C368 C363 1.363 . S
C368 C367 1.415 . S
C369 H345 0.951 . S
C369 C370 1.366 . S
C369 C371 1.388 . S
C370 C369 1.366 . S
C370 C374 1.385 . S
C371 H346 0.951 . S
C371 C369 1.388 . S
C371 C372 1.366 . S
C372 C371 1.366 . S
C372 C373 1.414 . S
C372 C375 1.499 . S
C373 H347 0.950 . S
C373 C372 1.414 . S
C373 C374 1.374 . S
C374 H348 0.950 . S
C374 C370 1.385 . S
C374 C373 1.374 . S
C375 C372 1.499 . S
C375 C376 1.373 . S
C375 C377 1.389 . S
C376 H349 0.950 . S
C376 C362 1.377 1_556 S
C376 C375 1.373 . S
C377 C361 1.377 1_556 S
C377 C375 1.389 . S
C377 C378 1.524 . S
C378 C377 1.524 . S
C378 C379 1.397 . S
C378 C383 1.363 . S
C379 H350 0.950 . S
C379 C378 1.397 . S
C379 C380 1.334 . S
C380 H351 0.950 . S
C380 C379 1.334 . S
C380 C381 1.287 . S
C381 C380 1.287 . S
C381 C382 1.524 . S
C381 H384 0.999 . S
C382 H352 0.950 . S
C382 C381 1.524 . S
C382 C383 1.415 . S
C383 H353 0.950 . S
C383 C378 1.363 . S
C383 C382 1.415 . S
H384 C381 0.999 . S
H385 C366 0.913 . S
H386 C404 0.951 . S
H387 C406 0.951 . S
H388 C408 0.950 . S
H389 C409 0.950 . S
H390 C411 0.950 . S
H391 C414 0.950 . S
H392 C415 0.950 . S
H393 C417 0.950 . S
H394 C418 0.950 . S
H395 C419 0.951 . S
H396 C421 0.951 . S
H397 C423 0.950 . S
H398 C424 0.950 . S
H399 C426 0.950 . S
H400 C429 0.950 . S
H401 C430 0.950 . S
H402 C432 0.950 1_565 S
H403 C433 0.950 . S
C404 H386 0.951 . S
C404 C405 1.366 . S
C404 C406 1.388 1_556 S
C405 C404 1.366 . S
C405 C409 1.385 . S
C406 H387 0.951 . S
C406 C404 1.388 1_554 S
C406 C407 1.366 . S
C407 C406 1.366 . S
C407 C408 1.414 . S
C407 C410 1.499 . S
C408 H388 0.950 . S
C408 C407 1.414 . S
C408 C409 1.374 1_554 S
C409 H389 0.950 . S
C409 C405 1.385 . S
C409 C408 1.374 1_556 S
C410 C407 1.499 . S
C410 C411 1.373 . S
C410 C412 1.389 . S
C411 H390 0.950 . S
C411 C410 1.373 . S
C411 C427 1.377 . S
C412 C410 1.389 . S
C412 C413 1.524 . S
C412 C426 1.377 . S
C413 C412 1.524 . S
C413 C414 1.397 . S
C413 C418 1.363 . S
C414 H391 0.950 . S
C414 C413 1.397 . S
C414 C415 1.334 . S
C415 H392 0.950 . S
C415 C414 1.334 . S
C415 C416 1.287 . S
C416 C415 1.287 . S
C416 C417 1.524 . S
C416 H435 0.913 . S
C417 H393 0.950 . S
C417 C416 1.524 . S
C417 C418 1.415 . S
C418 H394 0.950 . S
C418 C413 1.363 . S
C418 C417 1.415 . S
C419 H395 0.951 . S
C419 C420 1.366 . S
C419 C421 1.388 . S
C420 C419 1.366 . S
C420 C424 1.385 . S
C421 H396 0.951 . S
C421 C419 1.388 . S
C421 C422 1.366 . S
C422 C421 1.366 . S
C422 C423 1.414 . S
C422 C425 1.499 . S
C423 H397 0.950 . S
C423 C422 1.414 . S
C423 C424 1.374 . S
C424 H398 0.950 . S
C424 C420 1.385 . S
C424 C423 1.374 . S
C425 C422 1.499 . S
C425 C426 1.373 . S
C425 C427 1.389 . S
C426 H399 0.950 . S
C426 C412 1.377 . S
C426 C425 1.373 . S
C427 C411 1.377 . S
C427 C425 1.389 . S
C427 C428 1.524 . S
C428 C427 1.524 . S
C428 C429 1.397 . S
C428 C433 1.363 . S
C429 H400 0.950 . S
C429 C428 1.397 . S
C429 C430 1.334 . S
C430 H401 0.950 . S
C430 C429 1.334 . S
C430 C431 1.287 . S
C431 C430 1.287 . S
C431 C432 1.524 . S
C431 H434 0.999 1_545 S
C432 H402 0.950 1_545 S
C432 C431 1.524 . S
C432 C433 1.415 . S
C433 H403 0.950 . S
C433 C428 1.363 . S
C433 C432 1.415 . S
H434 C431 0.999 1_565 S
H435 C416 0.913 . S
H436 C454 0.951 . S
H437 C456 0.951 . S
H438 C458 0.950 . S
H439 C459 0.950 . S
H440 C461 0.950 . S
H441 C464 0.950 . S
H442 C465 0.950 . S
H443 C467 0.950 . S
H444 C468 0.950 . S
H445 C469 0.951 . S
H446 C471 0.951 . S
H447 C473 0.950 . S
H448 C474 0.950 . S
H449 C476 0.950 . S
H450 C479 0.950 . S
H451 C480 0.950 . S
H452 C482 0.950 . S
H453 C483 0.950 . S
C454 H436 0.951 . S
C454 C455 1.366 . S
C454 C456 1.388 . S
C455 C454 1.366 . S
C455 C459 1.385 . S
C456 H437 0.951 . S
C456 C454 1.388 . S
C456 C457 1.366 . S
C457 C456 1.366 . S
C457 C458 1.414 . S
C457 C460 1.499 . S
C458 H438 0.950 . S
C458 C457 1.414 . S
C458 C459 1.374 . S
C459 H439 0.950 . S
C459 C455 1.385 . S
C459 C458 1.374 . S
C460 C457 1.499 . S
C460 C461 1.373 . S
C460 C462 1.389 . S
C461 H440 0.950 . S
C461 C460 1.373 . S
C461 C477 1.377 . S
C462 C460 1.389 . S
C462 C463 1.524 . S
C462 C476 1.377 . S
C463 C462 1.524 . S
C463 C464 1.397 . S
C463 C468 1.363 . S
C464 H441 0.950 . S
C464 C463 1.397 . S
C464 C465 1.334 . S
C465 H442 0.950 . S
C465 C464 1.334 . S
C465 C466 1.287 . S
C466 C465 1.287 . S
C466 C467 1.524 . S
C466 H485 0.913 . S
C467 H443 0.950 . S
C467 C466 1.524 . S
C467 C468 1.415 . S
C468 H444 0.950 . S
C468 C463 1.363 . S
C468 C467 1.415 . S
C469 H445 0.951 . S
C469 C470 1.366 . S
C469 C471 1.388 . S
C470 C469 1.366 . S
C470 C474 1.385 . S
C471 H446 0.951 . S
C471 C469 1.388 . S
C471 C472 1.366 . S
C472 C471 1.366 . S
C472 C473 1.414 . S
C472 C475 1.499 . S
C473 H447 0.950 . S
C473 C472 1.414 . S
C473 C474 1.374 . S
C474 H448 0.950 . S
C474 C470 1.385 . S
C474 C473 1.374 . S
C475 C472 1.499 . S
C475 C476 1.373 . S
C475 C477 1.389 . S
C476 H449 0.950 . S
C476 C462 1.377 . S
C476 C475 1.373 . S
C477 C461 1.377 . S
C477 C475 1.389 . S
C477 C478 1.524 . S
C478 C477 1.524 . S
C478 C479 1.397 . S
C478 C483 1.363 . S
C479 H450 0.950 . S
C479 C478 1.397 . S
C479 C480 1.334 . S
C480 H451 0.950 . S
C480 C479 1.334 . S
C480 C481 1.287 . S
C481 C480 1.287 . S
C481 C482 1.524 . S
C481 H484 0.999 . S
C482 H452 0.950 . S
C482 C481 1.524 . S
C482 C483 1.415 . S
C483 H453 0.950 . S
C483 C478 1.363 . S
C483 C482 1.415 . S
H484 C481 0.999 . S
H485 C466 0.913 . S
H486 C504 0.951 . S
H487 C506 0.951 . S
H488 C508 0.950 . S
H489 C509 0.950 . S
H490 C511 0.950 . S
H491 C514 0.950 . S
H492 C515 0.950 . S
H493 C517 0.950 . S
H494 C518 0.950 . S
H495 C519 0.951 . S
H496 C521 0.951 . S
H497 C523 0.950 . S
H498 C524 0.950 . S
H499 C526 0.950 . S
H500 C529 0.950 . S
H501 C530 0.950 . S
H502 C532 0.950 . S
H503 C533 0.950 . S
C504 H486 0.951 . S
C504 C505 1.366 . S
C504 C506 1.388 . S
C505 C504 1.366 . S
C505 C509 1.385 . S
C506 H487 0.951 . S
C506 C504 1.388 . S
C506 C507 1.366 . S
C507 C506 1.366 . S
C507 C508 1.414 . S
C507 C510 1.499 . S
C508 H488 0.950 . S
C508 C507 1.414 . S
C508 C509 1.374 . S
C509 H489 0.950 . S
C509 C505 1.385 . S
C509 C508 1.374 . S
C510 C507 1.499 . S
C510 C511 1.373 . S
C510 C512 1.389 . S
C511 H490 0.950 . S
C511 C510 1.373 . S
C511 C527 1.377 . S
C512 C510 1.389 . S
C512 C513 1.524 . S
C512 C526 1.377 . S
C513 C512 1.524 . S
C513 C514 1.397 . S
C513 C518 1.363 . S
C514 H491 0.950 . S
C514 C513 1.397 . S
C514 C515 1.334 . S
C515 H492 0.950 . S
C515 C514 1.334 . S
C515 C516 1.287 . S
C516 C515 1.287 . S
C516 C517 1.524 . S
C516 H535 0.913 . S
C517 H493 0.950 . S
C517 C516 1.524 . S
C517 C518 1.415 . S
C518 H494 0.950 . S
C518 C513 1.363 . S
C518 C517 1.415 . S
C519 H495 0.951 . S
C519 C520 1.366 . S
C519 C521 1.388 . S
C520 C519 1.366 . S
C520 C524 1.385 . S
C521 H496 0.951 . S
C521 C519 1.388 . S
C521 C522 1.366 . S
C522 C521 1.366 . S
C522 C523 1.414 . S
C522 C525 1.499 . S
C523 H497 0.950 . S
C523 C522 1.414 . S
C523 C524 1.374 . S
C524 H498 0.950 . S
C524 C520 1.385 . S
C524 C523 1.374 . S
C525 C522 1.499 . S
C525 C526 1.373 . S
C525 C527 1.389 . S
C526 H499 0.950 . S
C526 C512 1.377 . S
C526 C525 1.373 . S
C527 C511 1.377 . S
C527 C525 1.389 . S
C527 C528 1.524 . S
C528 C527 1.524 . S
C528 C529 1.397 . S
C528 C533 1.363 . S
C529 H500 0.950 . S
C529 C528 1.397 . S
C529 C530 1.334 . S
C530 H501 0.950 . S
C530 C529 1.334 . S
C530 C531 1.287 . S
C531 C530 1.287 . S
C531 C532 1.524 . S
C531 H534 0.999 . S
C532 H502 0.950 . S
C532 C531 1.524 . S
C532 C533 1.415 . S
C533 H503 0.950 . S
C533 C528 1.363 . S
C533 C532 1.415 . S
H534 C531 0.999 . S
H535 C516 0.913 . S
H536 C554 0.951 . S
H537 C556 0.951 . S
H538 C558 0.950 . S
H539 C559 0.950 . S
H540 C561 0.950 . S
H541 C564 0.950 . S
H542 C565 0.950 . S
H543 C567 0.950 . S
H544 C568 0.950 . S
H545 C569 0.951 . S
H546 C571 0.951 . S
H547 C573 0.950 . S
H548 C574 0.950 . S
H549 C576 0.950 . S
H550 C579 0.950 . S
H551 C580 0.950 . S
H552 C582 0.949 . S
H553 C583 0.950 . S
C554 H536 0.951 . S
C554 C555 1.366 1_556 S
C554 C556 1.388 . S
C555 C554 1.366 1_554 S
C555 C559 1.385 . S
C556 H537 0.951 . S
C556 C554 1.388 . S
C556 C557 1.366 1_556 S
C557 C556 1.366 1_554 S
C557 C558 1.414 . S
C557 C560 1.499 1_554 S
C558 H538 0.950 . S
C558 C557 1.414 . S
C558 C559 1.374 . S
C559 H539 0.950 . S
C559 C555 1.385 . S
C559 C558 1.374 . S
C560 C557 1.499 1_556 S
C560 C561 1.373 . S
C560 C562 1.389 . S
C561 H540 0.950 . S
C561 C560 1.373 . S
C561 C577 1.377 . S
C562 C560 1.389 . S
C562 C563 1.524 . S
C562 C576 1.377 . S
C563 C562 1.524 . S
C563 C564 1.397 1_556 S
C563 C568 1.363 . S
C564 H541 0.950 . S
C564 C563 1.397 1_554 S
C564 C565 1.334 . S
C565 H542 0.950 . S
C565 C564 1.334 . S
C565 C566 1.287 1_554 S
C566 C565 1.287 1_556 S
C566 C567 1.524 . S
C566 H585 0.913 . S
C567 H543 0.950 . S
C567 C566 1.524 . S
C567 C568 1.415 . S
C568 H544 0.950 . S
C568 C563 1.363 . S
C568 C567 1.415 . S
C569 H545 0.951 . S
C569 C570 1.366 . S
C569 C571 1.388 . S
C570 C569 1.366 . S
C570 C574 1.385 . S
C571 H546 0.951 . S
C571 C569 1.388 . S
C571 C572 1.366 . S
C572 C571 1.366 . S
C572 C573 1.414 . S
C572 C575 1.499 . S
C573 H547 0.950 . S
C573 C572 1.414 . S
C573 C574 1.374 . S
C574 H548 0.950 . S
C574 C570 1.385 . S
C574 C573 1.374 . S
C575 C572 1.499 . S
C575 C576 1.373 . S
C575 C577 1.389 . S
C576 H549 0.950 . S
C576 C562 1.377 . S
C576 C575 1.373 . S
C577 C561 1.377 . S
C577 C575 1.389 . S
C577 C578 1.524 . S
C578 C577 1.524 . S
C578 C579 1.397 . S
C578 C583 1.363 1_556 S
C579 H550 0.950 . S
C579 C578 1.397 . S
C579 C580 1.334 . S
C580 H551 0.950 . S
C580 C579 1.334 . S
C580 C581 1.287 . S
C581 C580 1.287 . S
C581 C582 1.525 1_556 S
C581 H584 0.999 . S
C582 H552 0.949 . S
C582 C581 1.525 1_554 S
C582 C583 1.415 . S
C583 H553 0.950 . S
C583 C578 1.363 1_554 S
C583 C582 1.415 . S
H584 C581 0.999 . S
H585 C566 0.913 . S
H586 C604 0.951 . S
H587 C606 0.951 . S
H588 C608 0.950 . S
H589 C609 0.950 . S
H590 C611 0.950 . S
H591 C614 0.950 . S
H592 C615 0.950 . S
H593 C617 0.950 . S
H594 C618 0.950 . S
H595 C619 0.951 . S
H596 C621 0.951 . S
H597 C623 0.950 . S
H598 C624 0.950 . S
H599 C626 0.950 . S
H600 C629 0.950 . S
H601 C630 0.950 . S
H602 C632 0.950 . S
H603 C633 0.950 . S
C604 H586 0.951 . S
C604 C605 1.366 . S
C604 C606 1.388 . S
C605 C604 1.366 . S
C605 C609 1.385 . S
C606 H587 0.951 . S
C606 C604 1.388 . S
C606 C607 1.366 . S
C607 C606 1.366 . S
C607 C608 1.414 . S
C607 C610 1.499 . S
C608 H588 0.950 . S
C608 C607 1.414 . S
C608 C609 1.374 . S
C609 H589 0.950 . S
C609 C605 1.385 . S
C609 C608 1.374 . S
C610 C607 1.499 . S
C610 C611 1.373 . S
C610 C612 1.389 . S
C611 H590 0.950 . S
C611 C610 1.373 . S
C611 C627 1.377 . S
C612 C610 1.389 . S
C612 C613 1.524 . S
C612 C626 1.377 . S
C613 C612 1.524 . S
C613 C614 1.397 . S
C613 C618 1.363 . S
C614 H591 0.950 . S
C614 C613 1.397 . S
C614 C615 1.334 . S
C615 H592 0.950 . S
C615 C614 1.334 . S
C615 C616 1.287 . S
C616 C615 1.287 . S
C616 C617 1.524 . S
C616 H635 0.913 . S
C617 H593 0.950 . S
C617 C616 1.524 . S
C617 C618 1.415 . S
C618 H594 0.950 . S
C618 C613 1.363 . S
C618 C617 1.415 . S
C619 H595 0.951 . S
C619 C620 1.366 . S
C619 C621 1.388 . S
C620 C619 1.366 . S
C620 C624 1.385 . S
C621 H596 0.951 . S
C621 C619 1.388 . S
C621 C622 1.366 . S
C622 C621 1.366 . S
C622 C623 1.414 . S
C622 C625 1.499 . S
C623 H597 0.950 . S
C623 C622 1.414 . S
C623 C624 1.374 . S
C624 H598 0.950 . S
C624 C620 1.385 . S
C624 C623 1.374 . S
C625 C622 1.499 . S
C625 C626 1.373 . S
C625 C627 1.389 . S
C626 H599 0.950 . S
C626 C612 1.377 . S
C626 C625 1.373 . S
C627 C611 1.377 . S
C627 C625 1.389 . S
C627 C628 1.524 . S
C628 C627 1.524 . S
C628 C629 1.397 . S
C628 C633 1.363 . S
C629 H600 0.950 . S
C629 C628 1.397 . S
C629 C630 1.334 . S
C630 H601 0.950 . S
C630 C629 1.334 . S
C630 C631 1.287 . S
C631 C630 1.287 . S
C631 C632 1.524 . S
C631 H634 0.999 . S
C632 H602 0.950 . S
C632 C631 1.524 . S
C632 C633 1.415 . S
C633 H603 0.950 . S
C633 C628 1.363 . S
C633 C632 1.415 . S
H634 C631 0.999 . S
H635 C616 0.913 . S
H636 C654 0.951 . S
H637 C656 0.951 . S
H638 C658 0.950 . S
H639 C659 0.950 . S
H640 C661 0.950 . S
H641 C664 0.950 . S
H642 C665 0.950 . S
H643 C667 0.950 . S
H644 C668 0.950 . S
H645 C669 0.951 . S
H646 C671 0.951 . S
H647 C673 0.950 . S
H648 C674 0.950 . S
H649 C676 0.950 . S
H650 C679 0.950 . S
H651 C680 0.950 . S
H652 C682 0.950 . S
H653 C683 0.950 . S
C654 H636 0.951 . S
C654 C655 1.366 . S
C654 C656 1.388 . S
C655 C654 1.366 . S
C655 C659 1.385 . S
C656 H637 0.951 . S
C656 C654 1.388 . S
C656 C657 1.366 . S
C657 C656 1.366 . S
C657 C658 1.414 . S
C657 C660 1.499 . S
C658 H638 0.950 . S
C658 C657 1.414 . S
C658 C659 1.374 . S
C659 H639 0.950 . S
C659 C655 1.385 . S
C659 C658 1.374 . S
C660 C657 1.499 . S
C660 C661 1.373 . S
C660 C662 1.389 . S
C661 H640 0.950 . S
C661 C660 1.373 . S
C661 C677 1.377 . S
C662 C660 1.389 . S
C662 C663 1.524 . S
C662 C676 1.377 . S
C663 C662 1.524 . S
C663 C664 1.397 . S
C663 C668 1.363 . S
C664 H641 0.950 . S
C664 C663 1.397 . S
C664 C665 1.334 . S
C665 H642 0.950 . S
C665 C664 1.334 . S
C665 C666 1.287 . S
C666 C665 1.287 . S
C666 C667 1.524 . S
C666 H685 0.913 . S
C667 H643 0.950 . S
C667 C666 1.524 . S
C667 C668 1.415 . S
C668 H644 0.950 . S
C668 C663 1.363 . S
C668 C667 1.415 . S
C669 H645 0.951 . S
C669 C670 1.366 . S
C669 C671 1.388 . S
C670 C669 1.366 . S
C670 C674 1.385 . S
C671 H646 0.951 . S
C671 C669 1.388 . S
C671 C672 1.366 . S
C672 C671 1.366 . S
C672 C673 1.414 . S
C672 C675 1.499 . S
C673 H647 0.950 . S
C673 C672 1.414 . S
C673 C674 1.374 . S
C674 H648 0.950 . S
C674 C670 1.385 . S
C674 C673 1.374 . S
C675 C672 1.499 . S
C675 C676 1.373 . S
C675 C677 1.389 . S
C676 H649 0.950 . S
C676 C662 1.377 . S
C676 C675 1.373 . S
C677 C661 1.377 . S
C677 C675 1.389 . S
C677 C678 1.524 . S
C678 C677 1.524 . S
C678 C679 1.397 . S
C678 C683 1.363 . S
C679 H650 0.950 . S
C679 C678 1.397 . S
C679 C680 1.334 . S
C680 H651 0.950 . S
C680 C679 1.334 . S
C680 C681 1.287 . S
C681 C680 1.287 . S
C681 C682 1.524 . S
C681 H684 0.999 . S
C682 H652 0.950 . S
C682 C681 1.524 . S
C682 C683 1.415 . S
C683 H653 0.950 . S
C683 C678 1.363 . S
C683 C682 1.415 . S
H684 C681 0.999 . S
H685 C666 0.913 . S
H686 C704 0.951 . S
H687 C706 0.951 . S
H688 C708 0.950 . S
H689 C709 0.950 . S
H690 C711 0.950 . S
H691 C714 0.950 . S
H692 C715 0.950 . S
H693 C717 0.950 . S
H694 C718 0.950 . S
H695 C719 0.951 . S
H696 C721 0.951 . S
H697 C723 0.950 . S
H698 C724 0.950 . S
H699 C726 0.950 . S
H700 C729 0.950 . S
H701 C730 0.950 . S
H702 C732 0.950 . S
H703 C733 0.950 . S
C704 H686 0.951 . S
C704 C705 1.366 . S
C704 C706 1.388 . S
C705 C704 1.366 . S
C705 C709 1.385 . S
C706 H687 0.951 . S
C706 C704 1.388 . S
C706 C707 1.366 . S
C707 C706 1.366 . S
C707 C708 1.414 . S
C707 C710 1.499 . S
C708 H688 0.950 . S
C708 C707 1.414 . S
C708 C709 1.374 . S
C709 H689 0.950 . S
C709 C705 1.385 . S
C709 C708 1.374 . S
C710 C707 1.499 . S
C710 C711 1.373 . S
C710 C712 1.389 . S
C711 H690 0.950 . S
C711 C710 1.373 . S
C711 C727 1.377 . S
C712 C710 1.389 . S
C712 C713 1.524 . S
C712 C726 1.377 . S
C713 C712 1.524 . S
C713 C714 1.397 . S
C713 C718 1.363 . S
C714 H691 0.950 . S
C714 C713 1.397 . S
C714 C715 1.334 . S
C715 H692 0.950 . S
C715 C714 1.334 . S
C715 C716 1.287 . S
C716 C715 1.287 . S
C716 C717 1.524 . S
C716 H735 0.913 . S
C717 H693 0.950 . S
C717 C716 1.524 . S
C717 C718 1.415 . S
C718 H694 0.950 . S
C718 C713 1.363 . S
C718 C717 1.415 . S
C719 H695 0.951 . S
C719 C720 1.366 . S
C719 C721 1.388 . S
C720 C719 1.366 . S
C720 C724 1.385 . S
C721 H696 0.951 . S
C721 C719 1.388 . S
C721 C722 1.366 . S
C722 C721 1.366 . S
C722 C723 1.414 . S
C722 C725 1.499 . S
C723 H697 0.950 . S
C723 C722 1.414 . S
C723 C724 1.374 . S
C724 H698 0.950 . S
C724 C720 1.385 . S
C724 C723 1.374 . S
C725 C722 1.499 . S
C725 C726 1.373 . S
C725 C727 1.389 . S
C726 H699 0.950 . S
C726 C712 1.377 . S
C726 C725 1.373 . S
C727 C711 1.377 . S
C727 C725 1.389 . S
C727 C728 1.524 . S
C728 C727 1.524 . S
C728 C729 1.397 . S
C728 C733 1.363 . S
C729 H700 0.950 . S
C729 C728 1.397 . S
C729 C730 1.334 . S
C730 H701 0.950 . S
C730 C729 1.334 . S
C730 C731 1.287 . S
C731 C730 1.287 . S
C731 C732 1.524 . S
C731 H734 0.999 . S
C732 H702 0.950 . S
C732 C731 1.524 . S
C732 C733 1.415 . S
C733 H703 0.950 . S
C733 C728 1.363 . S
C733 C732 1.415 . S
H734 C731 0.999 . S
H735 C716 0.913 . S
H736 C754 0.951 . S
H737 C756 0.951 . S
H738 C758 0.950 . S
H739 C759 0.950 . S
H740 C761 0.950 . S
H741 C764 0.950 . S
H742 C765 0.950 . S
H743 C767 0.950 . S
H744 C768 0.950 . S
H745 C769 0.951 . S
H746 C771 0.951 . S
H747 C773 0.950 . S
H748 C774 0.950 . S
H749 C776 0.950 . S
H750 C779 0.950 . S
H751 C780 0.950 . S
H752 C782 0.950 . S
H753 C783 0.950 . S
C754 H736 0.951 . S
C754 C755 1.366 . S
C754 C756 1.388 . S
C755 C754 1.366 . S
C755 C759 1.385 . S
C756 H737 0.951 . S
C756 C754 1.388 . S
C756 C757 1.366 . S
C757 C756 1.366 . S
C757 C758 1.414 . S
C757 C760 1.499 . S
C758 H738 0.950 . S
C758 C757 1.414 . S
C758 C759 1.374 . S
C759 H739 0.950 . S
C759 C755 1.385 . S
C759 C758 1.374 . S
C760 C757 1.499 . S
C760 C761 1.373 . S
C760 C762 1.389 . S
C761 H740 0.950 . S
C761 C760 1.373 . S
C761 C777 1.377 . S
C762 C760 1.389 . S
C762 C763 1.524 . S
C762 C776 1.377 . S
C763 C762 1.524 . S
C763 C764 1.397 . S
C763 C768 1.363 . S
C764 H741 0.950 . S
C764 C763 1.397 . S
C764 C765 1.334 . S
C765 H742 0.950 . S
C765 C764 1.334 . S
C765 C766 1.287 . S
C766 C765 1.287 . S
C766 C767 1.524 . S
C766 H785 0.913 . S
C767 H743 0.950 . S
C767 C766 1.524 . S
C767 C768 1.415 . S
C768 H744 0.950 . S
C768 C763 1.363 . S
C768 C767 1.415 . S
C769 H745 0.951 . S
C769 C770 1.366 . S
C769 C771 1.388 . S
C770 C769 1.366 . S
C770 C774 1.385 . S
C771 H746 0.951 . S
C771 C769 1.388 . S
C771 C772 1.366 . S
C772 C771 1.366 . S
C772 C773 1.414 . S
C772 C775 1.499 . S
C773 H747 0.950 . S
C773 C772 1.414 . S
C773 C774 1.374 . S
C774 H748 0.950 . S
C774 C770 1.385 . S
C774 C773 1.374 . S
C775 C772 1.499 . S
C775 C776 1.373 . S
C775 C777 1.389 . S
C776 H749 0.950 . S
C776 C762 1.377 . S
C776 C775 1.373 . S
C777 C761 1.377 . S
C777 C775 1.389 . S
C777 C778 1.524 . S
C778 C777 1.524 . S
C778 C779 1.397 . S
C778 C783 1.363 . S
C779 H750 0.950 . S
C779 C778 1.397 . S
C779 C780 1.334 . S
C780 H751 0.950 . S
C780 C779 1.334 . S
C780 C781 1.287 . S
C781 C780 1.287 . S
C781 C782 1.524 . S
C781 H784 0.999 . S
C782 H752 0.950 . S
C782 C781 1.524 . S
C782 C783 1.415 . S
C783 H753 0.950 . S
C783 C778 1.363 . S
C783 C782 1.415 . S
H784 C781 0.999 . S
H785 C766 0.913 . S
H786 C804 0.951 . S
H787 C806 0.951 . S
H788 C808 0.950 . S
H789 C809 0.950 . S
H790 C811 0.950 . S
H791 C814 0.950 . S
H792 C815 0.950 . S
H793 C817 0.950 . S
H794 C818 0.950 . S
H795 C819 0.951 . S
H796 C821 0.951 . S
H797 C823 0.950 . S
H798 C824 0.950 . S
H799 C826 0.950 . S
H800 C829 0.950 . S
H801 C830 0.950 . S
H802 C832 0.950 . S
H803 C833 0.950 . S
C804 H786 0.951 . S
C804 C805 1.366 . S
C804 C806 1.388 . S
C805 C804 1.366 . S
C805 C809 1.385 . S
C806 H787 0.951 . S
C806 C804 1.388 . S
C806 C807 1.366 . S
C807 C806 1.366 . S
C807 C808 1.414 . S
C807 C810 1.499 . S
C808 H788 0.950 . S
C808 C807 1.414 . S
C808 C809 1.374 . S
C809 H789 0.950 . S
C809 C805 1.385 . S
C809 C808 1.374 . S
C810 C807 1.499 . S
C810 C811 1.373 . S
C810 C812 1.389 . S
C811 H790 0.950 . S
C811 C810 1.373 . S
C811 C827 1.377 . S
C812 C810 1.389 . S
C812 C813 1.524 . S
C812 C826 1.377 . S
C813 C812 1.524 . S
C813 C814 1.397 . S
C813 C818 1.363 . S
C814 H791 0.950 . S
C814 C813 1.397 . S
C814 C815 1.334 . S
C815 H792 0.950 . S
C815 C814 1.334 . S
C815 C816 1.287 . S
C816 C815 1.287 . S
C816 C817 1.524 . S
C816 H835 0.913 . S
C817 H793 0.950 . S
C817 C816 1.524 . S
C817 C818 1.415 . S
C818 H794 0.950 . S
C818 C813 1.363 . S
C818 C817 1.415 . S
C819 H795 0.951 . S
C819 C820 1.366 . S
C819 C821 1.388 1_565 S
C820 C819 1.366 . S
C820 C824 1.385 . S
C821 H796 0.951 . S
C821 C819 1.388 1_545 S
C821 C822 1.366 . S
C822 C821 1.366 . S
C822 C823 1.414 . S
C822 C825 1.499 . S
C823 H797 0.950 . S
C823 C822 1.414 . S
C823 C824 1.374 1_545 S
C824 H798 0.950 . S
C824 C820 1.385 . S
C824 C823 1.374 1_565 S
C825 C822 1.499 . S
C825 C826 1.373 . S
C825 C827 1.389 . S
C826 H799 0.950 . S
C826 C812 1.377 . S
C826 C825 1.373 . S
C827 C811 1.377 . S
C827 C825 1.389 . S
C827 C828 1.524 1_554 S
C828 C827 1.524 1_556 S
C828 C829 1.397 . S
C828 C833 1.363 . S
C829 H800 0.950 . S
C829 C828 1.397 . S
C829 C830 1.334 . S
C830 H801 0.950 . S
C830 C829 1.334 . S
C830 C831 1.287 . S
C831 C830 1.287 . S
C831 C832 1.524 . S
C831 H834 0.999 . S
C832 H802 0.950 . S
C832 C831 1.524 . S
C832 C833 1.415 . S
C833 H803 0.950 . S
C833 C828 1.363 . S
C833 C832 1.415 . S
H834 C831 0.999 . S
H835 C816 0.913 . S
H836 C854 0.951 . S
H837 C856 0.951 . S
H838 C858 0.950 . S
H839 C859 0.950 . S
H840 C861 0.950 . S
H841 C864 0.950 . S
H842 C865 0.950 . S
H843 C867 0.950 . S
H844 C868 0.950 . S
H845 C869 0.951 . S
H846 C871 0.951 . S
H847 C873 0.950 . S
H848 C874 0.950 . S
H849 C876 0.950 . S
H850 C879 0.950 . S
H851 C880 0.950 . S
H852 C882 0.950 . S
H853 C883 0.950 . S
C854 H836 0.951 . S
C854 C855 1.366 . S
C854 C856 1.388 . S
C855 C854 1.366 . S
C855 C859 1.385 . S
C856 H837 0.951 . S
C856 C854 1.388 . S
C856 C857 1.366 . S
C857 C856 1.366 . S
C857 C858 1.414 . S
C857 C860 1.499 . S
C858 H838 0.950 . S
C858 C857 1.414 . S
C858 C859 1.374 . S
C859 H839 0.950 . S
C859 C855 1.385 . S
C859 C858 1.374 . S
C860 C857 1.499 . S
C860 C861 1.373 . S
C860 C862 1.389 . S
C861 H840 0.950 . S
C861 C860 1.373 . S
C861 C877 1.377 . S
C862 C860 1.389 . S
C862 C863 1.524 . S
C862 C876 1.377 . S
C863 C862 1.524 . S
C863 C864 1.397 . S
C863 C868 1.363 . S
C864 H841 0.950 . S
C864 C863 1.397 . S
C864 C865 1.334 . S
C865 H842 0.950 . S
C865 C864 1.334 . S
C865 C866 1.287 . S
C866 C865 1.287 . S
C866 C867 1.524 . S
C866 H885 0.913 . S
C867 H843 0.950 . S
C867 C866 1.524 . S
C867 C868 1.415 . S
C868 H844 0.950 . S
C868 C863 1.363 . S
C868 C867 1.415 . S
C869 H845 0.951 . S
C869 C870 1.366 . S
C869 C871 1.388 . S
C870 C869 1.366 . S
C870 C874 1.385 . S
C871 H846 0.951 . S
C871 C869 1.388 . S
C871 C872 1.366 . S
C872 C871 1.366 . S
C872 C873 1.414 . S
C872 C875 1.499 . S
C873 H847 0.950 . S
C873 C872 1.414 . S
C873 C874 1.374 . S
C874 H848 0.950 . S
C874 C870 1.385 . S
C874 C873 1.374 . S
C875 C872 1.499 . S
C875 C876 1.373 . S
C875 C877 1.389 . S
C876 H849 0.950 . S
C876 C862 1.377 . S
C876 C875 1.373 . S
C877 C861 1.377 . S
C877 C875 1.389 . S
C877 C878 1.524 . S
C878 C877 1.524 . S
C878 C879 1.397 . S
C878 C883 1.363 . S
C879 H850 0.950 . S
C879 C878 1.397 . S
C879 C880 1.334 . S
C880 H851 0.950 . S
C880 C879 1.334 . S
C880 C881 1.287 . S
C881 C880 1.287 . S
C881 C882 1.524 . S
C881 H884 0.999 . S
C882 H852 0.950 . S
C882 C881 1.524 . S
C882 C883 1.415 . S
C883 H853 0.950 . S
C883 C878 1.363 . S
C883 C882 1.415 . S
H884 C881 0.999 . S
H885 C866 0.913 . S
H886 C904 0.951 . S
H887 C906 0.951 . S
H888 C908 0.950 . S
H889 C909 0.950 . S
H890 C911 0.950 . S
H891 C914 0.950 . S
H892 C915 0.950 . S
H893 C917 0.950 . S
H894 C918 0.950 . S
H895 C919 0.951 . S
H896 C921 0.951 . S
H897 C923 0.950 . S
H898 C924 0.950 . S
H899 C926 0.950 . S
H900 C929 0.950 . S
H901 C930 0.950 . S
H902 C932 0.950 . S
H903 C933 0.950 . S
C904 H886 0.951 . S
C904 C905 1.366 . S
C904 C906 1.388 1_455 S
C905 C904 1.366 . S
C905 C909 1.385 . S
C906 H887 0.951 . S
C906 C904 1.388 1_655 S
C906 C907 1.366 . S
C907 C906 1.366 . S
C907 C908 1.414 . S
C907 C910 1.499 . S
C908 H888 0.950 . S
C908 C907 1.414 . S
C908 C909 1.374 1_655 S
C909 H889 0.950 . S
C909 C905 1.385 . S
C909 C908 1.374 1_455 S
C910 C907 1.499 . S
C910 C911 1.373 . S
C910 C912 1.389 . S
C911 H890 0.950 . S
C911 C910 1.373 . S
C911 C927 1.377 . S
C912 C910 1.389 . S
C912 C913 1.524 . S
C912 C926 1.377 . S
C913 C912 1.524 . S
C913 C914 1.397 . S
C913 C918 1.363 . S
C914 H891 0.950 . S
C914 C913 1.397 . S
C914 C915 1.334 . S
C915 H892 0.950 . S
C915 C914 1.334 . S
C915 C916 1.287 . S
C916 C915 1.287 . S
C916 C917 1.524 . S
C916 H935 0.913 . S
C917 H893 0.950 . S
C917 C916 1.524 . S
C917 C918 1.415 . S
C918 H894 0.950 . S
C918 C913 1.363 . S
C918 C917 1.415 . S
C919 H895 0.951 . S
C919 C920 1.366 . S
C919 C921 1.388 . S
C920 C919 1.366 . S
C920 C924 1.385 . S
C921 H896 0.951 . S
C921 C919 1.388 . S
C921 C922 1.366 . S
C922 C921 1.366 . S
C922 C923 1.414 . S
C922 C925 1.499 . S
C923 H897 0.950 . S
C923 C922 1.414 . S
C923 C924 1.374 . S
C924 H898 0.950 . S
C924 C920 1.385 . S
C924 C923 1.374 . S
C925 C922 1.499 . S
C925 C926 1.373 . S
C925 C927 1.389 . S
C926 H899 0.950 . S
C926 C912 1.377 . S
C926 C925 1.373 . S
C927 C911 1.377 . S
C927 C925 1.389 . S
C927 C928 1.524 . S
C928 C927 1.524 . S
C928 C929 1.397 . S
C928 C933 1.363 . S
C929 H900 0.950 . S
C929 C928 1.397 . S
C929 C930 1.334 . S
C930 H901 0.950 . S
C930 C929 1.334 . S
C930 C931 1.287 . S
C931 C930 1.287 . S
C931 C932 1.524 . S
C931 H934 0.999 . S
C932 H902 0.950 . S
C932 C931 1.524 . S
C932 C933 1.415 . S
C933 H903 0.950 . S
C933 C928 1.363 . S
C933 C932 1.415 . S
H934 C931 0.999 . S
H935 C916 0.913 . S
H936 C954 0.951 . S
H937 C956 0.951 . S
H938 C958 0.950 . S
H939 C959 0.950 . S
H940 C961 0.950 . S
H941 C964 0.950 . S
H942 C965 0.950 . S
H943 C967 0.950 . S
H944 C968 0.950 . S
H945 C969 0.951 . S
H946 C971 0.951 . S
H947 C973 0.950 . S
H948 C974 0.950 . S
H949 C976 0.950 . S
H950 C979 0.950 . S
H951 C980 0.950 . S
H952 C982 0.950 . S
H953 C983 0.950 . S
C954 H936 0.951 . S
C954 C955 1.366 . S
C954 C956 1.388 . S
C955 C954 1.366 . S
C955 C959 1.385 . S
C956 H937 0.951 . S
C956 C954 1.388 . S
C956 C957 1.366 . S
C957 C956 1.366 . S
C957 C958 1.414 . S
C957 C960 1.499 . S
C958 H938 0.950 . S
C958 C957 1.414 . S
C958 C959 1.374 . S
C959 H939 0.950 . S
C959 C955 1.385 . S
C959 C958 1.374 . S
C960 C957 1.499 . S
C960 C961 1.373 . S
C960 C962 1.389 . S
C961 H940 0.950 . S
C961 C960 1.373 . S
C961 C977 1.377 . S
C962 C960 1.389 . S
C962 C963 1.524 . S
C962 C976 1.377 . S
C963 C962 1.524 . S
C963 C964 1.397 . S
C963 C968 1.363 . S
C964 H941 0.950 . S
C964 C963 1.397 . S
C964 C965 1.334 . S
C965 H942 0.950 . S
C965 C964 1.334 . S
C965 C966 1.287 . S
C966 C965 1.287 . S
C966 C967 1.524 . S
C966 H985 0.913 . S
C967 H943 0.950 . S
C967 C966 1.524 . S
C967 C968 1.415 . S
C968 H944 0.950 . S
C968 C963 1.363 . S
C968 C967 1.415 . S
C969 H945 0.951 . S
C969 C970 1.366 . S
C969 C971 1.388 1_545 S
C970 C969 1.366 . S
C970 C974 1.385 . S
C971 H946 0.951 . S
C971 C969 1.388 1_565 S
C971 C972 1.366 . S
C972 C971 1.366 . S
C972 C973 1.414 . S
C972 C975 1.499 . S
C973 H947 0.950 . S
C973 C972 1.414 . S
C973 C974 1.374 1_565 S
C974 H948 0.950 . S
C974 C970 1.385 . S
C974 C973 1.374 1_545 S
C975 C972 1.499 . S
C975 C976 1.373 . S
C975 C977 1.389 . S
C976 H949 0.950 . S
C976 C962 1.377 . S
C976 C975 1.373 . S
C977 C961 1.377 . S
C977 C975 1.389 . S
C977 C978 1.524 . S
C978 C977 1.524 . S
C978 C979 1.397 . S
C978 C983 1.363 . S
C979 H950 0.950 . S
C979 C978 1.397 . S
C979 C980 1.334 . S
C980 H951 0.950 . S
C980 C979 1.334 . S
C980 C981 1.287 . S
C981 C980 1.287 . S
C981 C982 1.524 . S
C981 H984 0.999 . S
C982 H952 0.950 . S
C982 C981 1.524 . S
C982 C983 1.415 . S
C983 H953 0.950 . S
C983 C978 1.363 . S
C983 C982 1.415 . S
H984 C981 0.999 . S
H985 C966 0.913 . S
H986 C1004 0.951 . S
H987 C1006 0.951 . S
H988 C1008 0.950 . S
H989 C1009 0.950 . S
H990 C1011 0.950 . S
H991 C1014 0.950 . S
H992 C1015 0.950 . S
H993 C1017 0.950 . S
H994 C1018 0.950 . S
H995 C1019 0.951 . S
H996 C1021 0.951 . S
H997 C1023 0.950 . S
H998 C1024 0.950 . S
H999 C1026 0.950 . S
H1000 C1029 0.950 . S
H1001 C1030 0.950 . S
H1002 C1032 0.950 . S
H1003 C1033 0.950 . S
C1004 H986 0.951 . S
C1004 C1005 1.366 . S
C1004 C1006 1.388 . S
C1005 C1004 1.366 . S
C1005 C1009 1.385 . S
C1006 H987 0.951 . S
C1006 C1004 1.388 . S
C1006 C1007 1.366 . S
C1007 C1006 1.366 . S
C1007 C1008 1.414 . S
C1007 C1010 1.499 . S
C1008 H988 0.950 . S
C1008 C1007 1.414 . S
C1008 C1009 1.374 . S
C1009 H989 0.950 . S
C1009 C1005 1.385 . S
C1009 C1008 1.374 . S
C1010 C1007 1.499 . S
C1010 C1011 1.373 . S
C1010 C1012 1.389 . S
C1011 H990 0.950 . S
C1011 C1010 1.373 . S
C1011 C1027 1.377 . S
C1012 C1010 1.389 . S
C1012 C1013 1.524 . S
C1012 C1026 1.377 . S
C1013 C1012 1.524 . S
C1013 C1014 1.397 . S
C1013 C1018 1.363 . S
C1014 H991 0.950 . S
C1014 C1013 1.397 . S
C1014 C1015 1.334 . S
C1015 H992 0.950 . S
C1015 C1014 1.334 . S
C1015 C1016 1.287 . S
C1016 C1015 1.287 . S
C1016 C1017 1.524 . S
C1016 H1035 0.913 . S
C1017 H993 0.950 . S
C1017 C1016 1.524 . S
C1017 C1018 1.415 . S
C1018 H994 0.950 . S
C1018 C1013 1.363 . S
C1018 C1017 1.415 . S
C1019 H995 0.951 . S
C1019 C1020 1.366 . S
C1019 C1021 1.388 . S
C1020 C1019 1.366 . S
C1020 C1024 1.385 . S
C1021 H996 0.951 . S
C1021 C1019 1.388 . S
C1021 C1022 1.366 . S
C1022 C1021 1.366 . S
C1022 C1023 1.414 . S
C1022 C1025 1.499 . S
C1023 H997 0.950 . S
C1023 C1022 1.414 . S
C1023 C1024 1.374 . S
C1024 H998 0.950 . S
C1024 C1020 1.385 . S
C1024 C1023 1.374 . S
C1025 C1022 1.499 . S
C1025 C1026 1.373 . S
C1025 C1027 1.389 . S
C1026 H999 0.950 . S
C1026 C1012 1.377 . S
C1026 C1025 1.373 . S
C1027 C1011 1.377 . S
C1027 C1025 1.389 . S
C1027 C1028 1.524 . S
C1028 C1027 1.524 . S
C1028 C1029 1.397 . S
C1028 C1033 1.363 . S
C1029 H1000 0.950 . S
C1029 C1028 1.397 . S
C1029 C1030 1.334 . S
C1030 H1001 0.950 . S
C1030 C1029 1.334 . S
C1030 C1031 1.287 . S
C1031 C1030 1.287 . S
C1031 C1032 1.524 . S
C1031 H1034 0.999 1_556 S
C1032 H1002 0.950 . S
C1032 C1031 1.524 . S
C1032 C1033 1.415 . S
C1033 H1003 0.950 . S
C1033 C1028 1.363 . S
C1033 C1032 1.415 . S
H1034 C1031 0.999 1_554 S
H1035 C1016 0.913 . S
H1036 C1054 0.951 . S
H1037 C1056 0.951 . S
H1038 C1058 0.950 . S
H1039 C1059 0.950 . S
H1040 C1061 0.950 . S
H1041 C1064 0.950 . S
H1042 C1065 0.950 . S
H1043 C1067 0.950 . S
H1044 C1068 0.950 . S
H1045 C1069 0.951 . S
H1046 C1071 0.951 . S
H1047 C1073 0.950 . S
H1048 C1074 0.950 . S
H1049 C1076 0.950 . S
H1050 C1079 0.950 . S
H1051 C1080 0.950 . S
H1052 C1082 0.950 . S
H1053 C1083 0.950 1_556 S
C1054 H1036 0.951 . S
C1054 C1055 1.366 . S
C1054 C1056 1.388 1_655 S
C1055 C1054 1.366 . S
C1055 C1059 1.385 . S
C1056 H1037 0.951 . S
C1056 C1054 1.388 1_455 S
C1056 C1057 1.366 . S
C1057 C1056 1.366 . S
C1057 C1058 1.414 . S
C1057 C1060 1.499 . S
C1058 H1038 0.950 . S
C1058 C1057 1.414 . S
C1058 C1059 1.374 1_455 S
C1059 H1039 0.950 . S
C1059 C1055 1.385 . S
C1059 C1058 1.374 1_655 S
C1060 C1057 1.499 . S
C1060 C1061 1.373 . S
C1060 C1062 1.389 . S
C1061 H1040 0.950 . S
C1061 C1060 1.373 . S
C1061 C1077 1.377 . S
C1062 C1060 1.389 . S
C1062 C1063 1.524 . S
C1062 C1076 1.377 . S
C1063 C1062 1.524 . S
C1063 C1064 1.397 . S
C1063 C1068 1.363 . S
C1064 H1041 0.950 . S
C1064 C1063 1.397 . S
C1064 C1065 1.334 . S
C1065 H1042 0.950 . S
C1065 C1064 1.334 . S
C1065 C1066 1.287 . S
C1066 C1065 1.287 . S
C1066 C1067 1.524 . S
C1066 H1085 0.913 . S
C1067 H1043 0.950 . S
C1067 C1066 1.524 . S
C1067 C1068 1.415 . S
C1068 H1044 0.950 . S
C1068 C1063 1.363 . S
C1068 C1067 1.415 . S
C1069 H1045 0.951 . S
C1069 C1070 1.366 . S
C1069 C1071 1.388 . S
C1070 C1069 1.366 . S
C1070 C1074 1.385 . S
C1071 H1046 0.951 . S
C1071 C1069 1.388 . S
C1071 C1072 1.366 . S
C1072 C1071 1.366 . S
C1072 C1073 1.414 . S
C1072 C1075 1.499 . S
C1073 H1047 0.950 . S
C1073 C1072 1.414 . S
C1073 C1074 1.374 . S
C1074 H1048 0.950 . S
C1074 C1070 1.385 . S
C1074 C1073 1.374 . S
C1075 C1072 1.499 . S
C1075 C1076 1.373 . S
C1075 C1077 1.389 . S
C1076 H1049 0.950 . S
C1076 C1062 1.377 . S
C1076 C1075 1.373 . S
C1077 C1061 1.377 . S
C1077 C1075 1.389 . S
C1077 C1078 1.524 1_556 S
C1078 C1077 1.524 1_554 S
C1078 C1079 1.397 . S
C1078 C1083 1.363 . S
C1079 H1050 0.950 . S
C1079 C1078 1.397 . S
C1079 C1080 1.334 . S
C1080 H1051 0.950 . S
C1080 C1079 1.334 . S
C1080 C1081 1.287 . S
C1081 C1080 1.287 . S
C1081 C1082 1.524 . S
C1081 H1084 0.999 . S
C1082 H1052 0.950 . S
C1082 C1081 1.524 . S
C1082 C1083 1.415 . S
C1083 H1053 0.950 1_554 S
C1083 C1078 1.363 . S
C1083 C1082 1.415 . S
H1084 C1081 0.999 . S
H1085 C1066 0.913 . S
H1086 C1104 0.951 . S
H1087 C1106 0.951 . S
H1088 C1108 0.950 . S
H1089 C1109 0.950 . S
H1090 C1111 0.950 1_655 S
H1091 C1114 0.950 . S
H1092 C1115 0.950 . S
H1093 C1117 0.950 . S
H1094 C1118 0.950 . S
H1095 C1119 0.951 . S
H1096 C1121 0.951 . S
H1097 C1123 0.950 . S
H1098 C1124 0.950 . S
H1099 C1126 0.950 . S
H1100 C1129 0.950 . S
H1101 C1130 0.950 . S
H1102 C1132 0.950 . S
H1103 C1133 0.950 . S
C1104 H1086 0.951 . S
C1104 C1105 1.366 1_455 S
C1104 C1106 1.388 . S
C1105 C1104 1.366 1_655 S
C1105 C1109 1.385 . S
C1106 H1087 0.951 . S
C1106 C1104 1.388 . S
C1106 C1107 1.366 . S
C1107 C1106 1.366 . S
C1107 C1108 1.414 1_455 S
C1107 C1110 1.499 . S
C1108 H1088 0.950 . S
C1108 C1107 1.414 1_655 S
C1108 C1109 1.374 . S
C1109 H1089 0.950 . S
C1109 C1105 1.385 . S
C1109 C1108 1.374 . S
C1110 C1107 1.499 . S
C1110 C1111 1.373 . S
C1110 C1112 1.389 . S
C1111 H1090 0.950 1_455 S
C1111 C1110 1.373 . S
C1111 C1127 1.377 . S
C1112 C1110 1.389 . S
C1112 C1113 1.524 . S
C1112 C1126 1.377 . S
C1113 C1112 1.524 . S
C1113 C1114 1.397 . S
C1113 C1118 1.363 . S
C1114 H1091 0.950 . S
C1114 C1113 1.397 . S
C1114 C1115 1.334 . S
C1115 H1092 0.950 . S
C1115 C1114 1.334 . S
C1115 C1116 1.287 . S
C1116 C1115 1.287 . S
C1116 C1117 1.524 . S
C1116 H1135 0.913 . S
C1117 H1093 0.950 . S
C1117 C1116 1.524 . S
C1117 C1118 1.415 . S
C1118 H1094 0.950 . S
C1118 C1113 1.363 . S
C1118 C1117 1.415 . S
C1119 H1095 0.951 . S
C1119 C1120 1.366 . S
C1119 C1121 1.388 . S
C1120 C1119 1.366 . S
C1120 C1124 1.385 . S
C1121 H1096 0.951 . S
C1121 C1119 1.388 . S
C1121 C1122 1.366 . S
C1122 C1121 1.366 . S
C1122 C1123 1.414 . S
C1122 C1125 1.499 . S
C1123 H1097 0.950 . S
C1123 C1122 1.414 . S
C1123 C1124 1.374 . S
C1124 H1098 0.950 . S
C1124 C1120 1.385 . S
C1124 C1123 1.374 . S
C1125 C1122 1.499 . S
C1125 C1126 1.373 . S
C1125 C1127 1.389 . S
C1126 H1099 0.950 . S
C1126 C1112 1.377 . S
C1126 C1125 1.373 . S
C1127 C1111 1.377 . S
C1127 C1125 1.389 . S
C1127 C1128 1.524 . S
C1128 C1127 1.524 . S
C1128 C1129 1.397 . S
C1128 C1133 1.363 1_455 S
C1129 H1100 0.950 . S
C1129 C1128 1.397 . S
C1129 C1130 1.334 . S
C1130 H1101 0.950 . S
C1130 C1129 1.334 . S
C1130 C1131 1.287 1_455 S
C1131 C1130 1.287 1_655 S
C1131 C1132 1.524 . S
C1131 H1134 0.999 . S
C1132 H1102 0.950 . S
C1132 C1131 1.524 . S
C1132 C1133 1.415 . S
C1133 H1103 0.950 . S
C1133 C1128 1.363 1_655 S
C1133 C1132 1.415 . S
H1134 C1131 0.999 . S
H1135 C1116 0.913 . S
H1136 C1154 0.951 . S
H1137 C1156 0.951 . S
H1138 C1158 0.950 . S
H1139 C1159 0.950 . S
H1140 C1161 0.950 . S
H1141 C1164 0.950 1_545 S
H1142 C1165 0.950 . S
H1143 C1167 0.950 . S
H1144 C1168 0.950 . S
H1145 C1169 0.951 . S
H1146 C1171 0.951 . S
H1147 C1173 0.950 . S
H1148 C1174 0.950 . S
H1149 C1176 0.950 . S
H1150 C1179 0.950 . S
H1151 C1180 0.950 . S
H1152 C1182 0.950 . S
H1153 C1183 0.950 . S
C1154 H1136 0.951 . S
C1154 C1155 1.366 . S
C1154 C1156 1.388 . S
C1155 C1154 1.366 . S
C1155 C1159 1.385 . S
C1156 H1137 0.951 . S
C1156 C1154 1.388 . S
C1156 C1157 1.366 . S
C1157 C1156 1.366 . S
C1157 C1158 1.414 . S
C1157 C1160 1.499 . S
C1158 H1138 0.950 . S
C1158 C1157 1.414 . S
C1158 C1159 1.374 . S
C1159 H1139 0.950 . S
C1159 C1155 1.385 . S
C1159 C1158 1.374 . S
C1160 C1157 1.499 . S
C1160 C1161 1.373 . S
C1160 C1162 1.389 . S
C1161 H1140 0.950 . S
C1161 C1160 1.373 . S
C1161 C1177 1.377 . S
C1162 C1160 1.389 . S
C1162 C1163 1.524 1_545 S
C1162 C1176 1.377 1_545 S
C1163 C1162 1.524 1_565 S
C1163 C1164 1.397 . S
C1163 C1168 1.363 . S
C1164 H1141 0.950 1_565 S
C1164 C1163 1.397 . S
C1164 C1165 1.334 . S
C1165 H1142 0.950 . S
C1165 C1164 1.334 . S
C1165 C1166 1.287 . S
C1166 C1165 1.287 . S
C1166 C1167 1.524 . S
C1166 H1185 0.913 . S
C1167 H1143 0.950 . S
C1167 C1166 1.524 . S
C1167 C1168 1.415 . S
C1168 H1144 0.950 . S
C1168 C1163 1.363 . S
C1168 C1167 1.415 . S
C1169 H1145 0.951 . S
C1169 C1170 1.366 1_545 S
C1169 C1171 1.388 . S
C1170 C1169 1.366 1_565 S
C1170 C1174 1.385 . S
C1171 H1146 0.951 . S
C1171 C1169 1.388 . S
C1171 C1172 1.366 . S
C1172 C1171 1.366 . S
C1172 C1173 1.414 1_545 S
C1172 C1175 1.499 . S
C1173 H1147 0.950 . S
C1173 C1172 1.414 1_565 S
C1173 C1174 1.374 . S
C1174 H1148 0.950 . S
C1174 C1170 1.385 . S
C1174 C1173 1.374 . S
C1175 C1172 1.499 . S
C1175 C1176 1.373 1_545 S
C1175 C1177 1.389 . S
C1176 H1149 0.950 . S
C1176 C1162 1.377 1_565 S
C1176 C1175 1.373 1_565 S
C1177 C1161 1.377 . S
C1177 C1175 1.389 . S
C1177 C1178 1.524 . S
C1178 C1177 1.524 . S
C1178 C1179 1.397 . S
C1178 C1183 1.363 . S
C1179 H1150 0.950 . S
C1179 C1178 1.397 . S
C1179 C1180 1.334 . S
C1180 H1151 0.950 . S
C1180 C1179 1.334 . S
C1180 C1181 1.287 . S
C1181 C1180 1.287 . S
C1181 C1182 1.524 . S
C1181 H1184 0.999 . S
C1182 H1152 0.950 . S
C1182 C1181 1.524 . S
C1182 C1183 1.415 . S
C1183 H1153 0.950 . S
C1183 C1178 1.363 . S
C1183 C1182 1.415 . S
H1184 C1181 0.999 . S
H1185 C1166 0.913 . S
H1186 C1204 0.951 . S
H1187 C1206 0.951 . S
H1188 C1208 0.950 . S
H1189 C1209 0.950 . S
H1190 C1211 0.950 . S
H1191 C1214 0.950 . S
H1192 C1215 0.950 . S
H1193 C1217 0.950 . S
H1194 C1218 0.950 . S
H1195 C1219 0.951 . S
H1196 C1221 0.951 . S
H1197 C1223 0.950 . S
H1198 C1224 0.950 . S
H1199 C1226 0.950 . S
H1200 C1229 0.950 . S
H1201 C1230 0.950 . S
H1202 C1232 0.950 . S
H1203 C1233 0.950 . S
C1204 H1186 0.951 . S
C1204 C1205 1.366 . S
C1204 C1206 1.388 . S
C1205 C1204 1.366 . S
C1205 C1209 1.385 . S
C1206 H1187 0.951 . S
C1206 C1204 1.388 . S
C1206 C1207 1.366 . S
C1207 C1206 1.366 . S
C1207 C1208 1.414 . S
C1207 C1210 1.499 . S
C1208 H1188 0.950 . S
C1208 C1207 1.414 . S
C1208 C1209 1.374 . S
C1209 H1189 0.950 . S
C1209 C1205 1.385 . S
C1209 C1208 1.374 . S
C1210 C1207 1.499 . S
C1210 C1211 1.373 . S
C1210 C1212 1.389 . S
C1211 H1190 0.950 . S
C1211 C1210 1.373 . S
C1211 C1227 1.377 . S
C1212 C1210 1.389 . S
C1212 C1213 1.524 . S
C1212 C1226 1.377 . S
C1213 C1212 1.524 . S
C1213 C1214 1.397 . S
C1213 C1218 1.363 . S
C1214 H1191 0.950 . S
C1214 C1213 1.397 . S
C1214 C1215 1.334 . S
C1215 H1192 0.950 . S
C1215 C1214 1.334 . S
C1215 C1216 1.287 . S
C1216 C1215 1.287 . S
C1216 C1217 1.524 . S
C1216 H1235 0.913 . S
C1217 H1193 0.950 . S
C1217 C1216 1.524 . S
C1217 C1218 1.415 . S
C1218 H1194 0.950 . S
C1218 C1213 1.363 . S
C1218 C1217 1.415 . S
C1219 H1195 0.951 . S
C1219 C1220 1.366 . S
C1219 C1221 1.388 . S
C1220 C1219 1.366 . S
C1220 C1224 1.385 . S
C1221 H1196 0.951 . S
C1221 C1219 1.388 . S
C1221 C1222 1.366 . S
C1222 C1221 1.366 . S
C1222 C1223 1.414 . S
C1222 C1225 1.499 . S
C1223 H1197 0.950 . S
C1223 C1222 1.414 . S
C1223 C1224 1.374 . S
C1224 H1198 0.950 . S
C1224 C1220 1.385 . S
C1224 C1223 1.374 . S
C1225 C1222 1.499 . S
C1225 C1226 1.373 . S
C1225 C1227 1.389 . S
C1226 H1199 0.950 . S
C1226 C1212 1.377 . S
C1226 C1225 1.373 . S
C1227 C1211 1.377 . S
C1227 C1225 1.389 . S
C1227 C1228 1.524 . S
C1228 C1227 1.524 . S
C1228 C1229 1.397 . S
C1228 C1233 1.363 . S
C1229 H1200 0.950 . S
C1229 C1228 1.397 . S
C1229 C1230 1.334 . S
C1230 H1201 0.950 . S
C1230 C1229 1.334 . S
C1230 C1231 1.287 . S
C1231 C1230 1.287 . S
C1231 C1232 1.524 . S
C1231 H1234 0.999 . S
C1232 H1202 0.950 . S
C1232 C1231 1.524 . S
C1232 C1233 1.415 . S
C1233 H1203 0.950 . S
C1233 C1228 1.363 . S
C1233 C1232 1.415 . S
H1234 C1231 0.999 . S
H1235 C1216 0.913 . S
H1236 C1254 0.951 1_655 S
H1237 C1256 0.951 . S
H1238 C1258 0.950 . S
H1239 C1259 0.950 . S
H1240 C1261 0.950 . S
H1241 C1264 0.950 . S
H1242 C1265 0.950 . S
H1243 C1267 0.950 . S
H1244 C1268 0.950 . S
H1245 C1269 0.951 1_554 S
H1246 C1271 0.951 . S
H1247 C1273 0.950 . S
H1248 C1274 0.950 . S
H1249 C1276 0.950 . S
H1250 C1279 0.950 . S
H1251 C1280 0.950 . S
H1252 C1282 0.950 . S
H1253 C1283 0.950 . S
C1254 H1236 0.951 1_455 S
C1254 C1255 1.366 . S
C1254 C1256 1.388 1_455 S
C1255 C1254 1.366 . S
C1255 C1259 1.385 . S
C1256 H1237 0.951 . S
C1256 C1254 1.388 1_655 S
C1256 C1257 1.366 . S
C1257 C1256 1.366 . S
C1257 C1258 1.414 1_655 S
C1257 C1260 1.499 . S
C1258 H1238 0.950 . S
C1258 C1257 1.414 1_455 S
C1258 C1259 1.374 . S
C1259 H1239 0.950 . S
C1259 C1255 1.385 . S
C1259 C1258 1.374 . S
C1260 C1257 1.499 . S
C1260 C1261 1.373 1_655 S
C1260 C1262 1.389 . S
C1261 H1240 0.950 . S
C1261 C1260 1.373 1_455 S
C1261 C1277 1.377 1_455 S
C1262 C1260 1.389 . S
C1262 C1263 1.524 . S
C1262 C1276 1.377 . S
C1263 C1262 1.524 . S
C1263 C1264 1.397 . S
C1263 C1268 1.363 . S
C1264 H1241 0.950 . S
C1264 C1263 1.397 . S
C1264 C1265 1.334 . S
C1265 H1242 0.950 . S
C1265 C1264 1.334 . S
C1265 C1266 1.287 . S
C1266 C1265 1.287 . S
C1266 C1267 1.524 . S
C1266 H1285 0.913 . S
C1267 H1243 0.950 . S
C1267 C1266 1.524 . S
C1267 C1268 1.415 . S
C1268 H1244 0.950 . S
C1268 C1263 1.363 . S
C1268 C1267 1.415 . S
C1269 H1245 0.951 1_556 S
C1269 C1270 1.366 . S
C1269 C1271 1.388 . S
C1270 C1269 1.366 . S
C1270 C1274 1.385 . S
C1271 H1246 0.951 . S
C1271 C1269 1.388 . S
C1271 C1272 1.366 . S
C1272 C1271 1.366 . S
C1272 C1273 1.414 . S
C1272 C1275 1.499 . S
C1273 H1247 0.950 . S
C1273 C1272 1.414 . S
C1273 C1274 1.374 . S
C1274 H1248 0.950 . S
C1274 C1270 1.385 . S
C1274 C1273 1.374 . S
C1275 C1272 1.499 . S
C1275 C1276 1.373 . S
C1275 C1277 1.389 . S
C1276 H1249 0.950 . S
C1276 C1262 1.377 . S
C1276 C1275 1.373 . S
C1277 C1261 1.377 1_655 S
C1277 C1275 1.389 . S
C1277 C1278 1.524 1_655 S
C1278 C1277 1.524 1_455 S
C1278 C1279 1.397 . S
C1278 C1283 1.363 . S
C1279 H1250 0.950 . S
C1279 C1278 1.397 . S
C1279 C1280 1.334 . S
C1280 H1251 0.950 . S
C1280 C1279 1.334 . S
C1280 C1281 1.287 . S
C1281 C1280 1.287 . S
C1281 C1282 1.524 . S
C1281 H1284 0.999 . S
C1282 H1252 0.950 . S
C1282 C1281 1.524 . S
C1282 C1283 1.415 . S
C1283 H1253 0.950 . S
C1283 C1278 1.363 . S
C1283 C1282 1.415 . S
H1284 C1281 0.999 . S
H1285 C1266 0.913 . S
H1286 C1304 0.951 . S
H1287 C1306 0.951 . S
H1288 C1308 0.950 . S
H1289 C1309 0.950 . S
H1290 C1311 0.950 1_544 S
H1291 C1314 0.950 . S
H1292 C1315 0.950 . S
H1293 C1317 0.950 . S
H1294 C1318 0.950 . S
H1295 C1319 0.951 . S
H1296 C1321 0.951 . S
H1297 C1323 0.950 . S
H1298 C1324 0.950 . S
H1299 C1326 0.950 . S
H1300 C1329 0.950 . S
H1301 C1330 0.950 . S
H1302 C1332 0.950 . S
H1303 C1333 0.950 . S
C1304 H1286 0.951 . S
C1304 C1305 1.366 . S
C1304 C1306 1.388 . S
C1305 C1304 1.366 . S
C1305 C1309 1.385 . S
C1306 H1287 0.951 . S
C1306 C1304 1.388 . S
C1306 C1307 1.366 . S
C1307 C1306 1.366 . S
C1307 C1308 1.414 . S
C1307 C1310 1.499 1_554 S
C1308 H1288 0.950 . S
C1308 C1307 1.414 . S
C1308 C1309 1.374 . S
C1309 H1289 0.950 . S
C1309 C1305 1.385 . S
C1309 C1308 1.374 . S
C1310 C1307 1.499 1_556 S
C1310 C1311 1.373 . S
C1310 C1312 1.389 . S
C1311 H1290 0.950 1_566 S
C1311 C1310 1.373 . S
C1311 C1327 1.377 1_565 S
C1312 C1310 1.389 . S
C1312 C1313 1.524 . S
C1312 C1326 1.377 . S
C1313 C1312 1.524 . S
C1313 C1314 1.397 . S
C1313 C1318 1.363 . S
C1314 H1291 0.950 . S
C1314 C1313 1.397 . S
C1314 C1315 1.334 . S
C1315 H1292 0.950 . S
C1315 C1314 1.334 . S
C1315 C1316 1.287 . S
C1316 C1315 1.287 . S
C1316 C1317 1.524 . S
C1316 H1335 0.913 . S
C1317 H1293 0.950 . S
C1317 C1316 1.524 . S
C1317 C1318 1.415 . S
C1318 H1294 0.950 . S
C1318 C1313 1.363 . S
C1318 C1317 1.415 . S
C1319 H1295 0.951 . S
C1319 C1320 1.366 . S
C1319 C1321 1.388 . S
C1320 C1319 1.366 . S
C1320 C1324 1.385 1_545 S
C1321 H1296 0.951 . S
C1321 C1319 1.388 . S
C1321 C1322 1.366 1_545 S
C1322 C1321 1.366 1_565 S
C1322 C1323 1.414 . S
C1322 C1325 1.499 . S
C1323 H1297 0.950 . S
C1323 C1322 1.414 . S
C1323 C1324 1.374 . S
C1324 H1298 0.950 . S
C1324 C1320 1.385 1_565 S
C1324 C1323 1.374 . S
C1325 C1322 1.499 . S
C1325 C1326 1.373 . S
C1325 C1327 1.389 1_565 S
C1326 H1299 0.950 . S
C1326 C1312 1.377 . S
C1326 C1325 1.373 . S
C1327 C1311 1.377 1_545 S
C1327 C1325 1.389 1_545 S
C1327 C1328 1.524 . S
C1328 C1327 1.524 . S
C1328 C1329 1.397 . S
C1328 C1333 1.363 . S
C1329 H1300 0.950 . S
C1329 C1328 1.397 . S
C1329 C1330 1.334 . S
C1330 H1301 0.950 . S
C1330 C1329 1.334 . S
C1330 C1331 1.287 . S
C1331 C1330 1.287 . S
C1331 C1332 1.524 . S
C1331 H1334 0.999 . S
C1332 H1302 0.950 . S
C1332 C1331 1.524 . S
C1332 C1333 1.415 . S
C1333 H1303 0.950 . S
C1333 C1328 1.363 . S
C1333 C1332 1.415 . S
H1334 C1331 0.999 . S
H1335 C1316 0.913 . S
H1336 C1354 0.951 . S
H1337 C1356 0.951 . S
H1338 C1358 0.950 . S
H1339 C1359 0.950 . S
H1340 C1361 0.950 . S
H1341 C1364 0.950 . S
H1342 C1365 0.950 . S
H1343 C1367 0.950 . S
H1344 C1368 0.950 . S
H1345 C1369 0.951 . S
H1346 C1371 0.951 . S
H1347 C1373 0.950 . S
H1348 C1374 0.950 . S
H1349 C1376 0.950 . S
H1350 C1379 0.950 . S
H1351 C1380 0.950 . S
H1352 C1382 0.950 . S
H1353 C1383 0.950 . S
C1354 H1336 0.951 . S
C1354 C1355 1.366 . S
C1354 C1356 1.388 . S
C1355 C1354 1.366 . S
C1355 C1359 1.385 . S
C1356 H1337 0.951 . S
C1356 C1354 1.388 . S
C1356 C1357 1.366 1_556 S
C1357 C1356 1.366 1_554 S
C1357 C1358 1.414 . S
C1357 C1360 1.499 . S
C1358 H1338 0.950 . S
C1358 C1357 1.414 . S
C1358 C1359 1.374 1_554 S
C1359 H1339 0.950 . S
C1359 C1355 1.385 . S
C1359 C1358 1.374 1_556 S
C1360 C1357 1.499 . S
C1360 C1361 1.373 . S
C1360 C1362 1.389 . S
C1361 H1340 0.950 . S
C1361 C1360 1.373 . S
C1361 C1377 1.377 . S
C1362 C1360 1.389 . S
C1362 C1363 1.524 . S
C1362 C1376 1.377 . S
C1363 C1362 1.524 . S
C1363 C1364 1.397 . S
C1363 C1368 1.363 . S
C1364 H1341 0.950 . S
C1364 C1363 1.397 . S
C1364 C1365 1.334 . S
C1365 H1342 0.950 . S
C1365 C1364 1.334 . S
C1365 C1366 1.287 . S
C1366 C1365 1.287 . S
C1366 C1367 1.524 . S
C1366 H1385 0.913 . S
C1367 H1343 0.950 . S
C1367 C1366 1.524 . S
C1367 C1368 1.415 . S
C1368 H1344 0.950 . S
C1368 C1363 1.363 . S
C1368 C1367 1.415 . S
C1369 H1345 0.951 . S
C1369 C1370 1.366 . S
C1369 C1371 1.388 . S
C1370 C1369 1.366 . S
C1370 C1374 1.385 . S
C1371 H1346 0.951 . S
C1371 C1369 1.388 . S
C1371 C1372 1.366 . S
C1372 C1371 1.366 . S
C1372 C1373 1.414 . S
C1372 C1375 1.499 . S
C1373 H1347 0.950 . S
C1373 C1372 1.414 . S
C1373 C1374 1.374 . S
C1374 H1348 0.950 . S
C1374 C1370 1.385 . S
C1374 C1373 1.374 . S
C1375 C1372 1.499 . S
C1375 C1376 1.373 . S
C1375 C1377 1.389 . S
C1376 H1349 0.950 . S
C1376 C1362 1.377 . S
C1376 C1375 1.373 . S
C1377 C1361 1.377 . S
C1377 C1375 1.389 . S
C1377 C1378 1.524 . S
C1378 C1377 1.524 . S
C1378 C1379 1.397 . S
C1378 C1383 1.363 . S
C1379 H1350 0.950 . S
C1379 C1378 1.397 . S
C1379 C1380 1.334 . S
C1380 H1351 0.950 . S
C1380 C1379 1.334 . S
C1380 C1381 1.287 . S
C1381 C1380 1.287 . S
C1381 C1382 1.524 . S
C1381 H1384 0.999 . S
C1382 H1352 0.950 . S
C1382 C1381 1.524 . S
C1382 C1383 1.415 . S
C1383 H1353 0.950 . S
C1383 C1378 1.363 . S
C1383 C1382 1.415 . S
H1384 C1381 0.999 . S
H1385 C1366 0.913 . S
C205 C27 1.515 . S
C220 C1 1.515 . S
C255 C58 1.516 . S
C270 C32 1.516 . S
C305 C63 1.516 . S
C320 C89 1.516 . S
C355 C94 1.516 . S
C370 C120 1.516 . S
C405 C151 1.516 . S
C420 C125 1.516 . S
C455 C182 1.516 . S
C470 C156 1.516 . S
C505 C134 1.106 . S
C520 C0 1.115 . S
C555 C31 1.117 . S
C570 C165 1.107 . S
C605 C10 1.106 . S
C620 C62 1.117 . S
C655 C41 1.106 . S
C670 C93 1.117 . S
C705 C124 1.117 . S
C720 C72 1.107 . S
C755 C103 1.107 . S
C770 C155 1.117 . S
C805 C18 2.040 . S
C820 C33 2.034 . S
C855 C49 2.039 . S
C870 C64 2.033 . S
C905 C95 2.033 . S
C920 C80 2.039 . S
C955 C111 2.040 . S
C970 C126 2.034 . S
C1005 C142 2.040 . S
C1020 C157 2.034 . S
C1055 C2 2.033 . S
C1070 C173 2.039 . S
C1105 C24 0.664 . S
C1120 C104 0.574 . S
C1155 C135 0.574 . S
C1170 C55 0.662 . S
C1205 C86 0.663 . S
C1220 C166 0.574 . S
C1255 C117 0.662 . S
C1270 C11 0.574 . S
C1305 C42 0.575 . S
C1320 C148 0.666 . S
C1355 C179 0.664 . S
C1370 C73 0.574 . S
