# Generated by pormake.
# Topology ecc, (8)-cn, num edge types: 1
# Building blocks:
#     Node 0, Type 0, BuildingBlock: EBIMEJ_clean_sbu_0, # of connection points: 8
#     Node 1, Type 0, BuildingBlock: EBIMEJ_clean_sbu_0, # of connection points: 8
#     Node 2, Type 0, BuildingBlock: EBIMEJ_clean_sbu_0, # of connection points: 8
#     Node 3, Type 0, BuildingBlock: EBIMEJ_clean_sbu_0, # of connection points: 8
#     Node 4, Type 0, BuildingBlock: EBIMEJ_clean_sbu_0, # of connection points: 8
#     Node 5, Type 0, BuildingBlock: EBIMEJ_clean_sbu_0, # of connection points: 8
#     Node 6, Type 0, BuildingBlock: EBIMEJ_clean_sbu_0, # of connection points: 8
#     Node 7, Type 0, BuildingBlock: EBIMEJ_clean_sbu_0, # of connection points: 8
#     Node 8, Type 0, BuildingBlock: EBIMEJ_clean_sbu_0, # of connection points: 8
#     Node 9, Type 0, BuildingBlock: EBIMEJ_clean_sbu_0, # of connection points: 8
#     Node 10, Type 0, BuildingBlock: EBIMEJ_clean_sbu_0, # of connection points: 8
#     Node 11, Type 0, BuildingBlock: EBIMEJ_clean_sbu_0, # of connection points: 8
#     Node 12, Type 0, BuildingBlock: EBIMEJ_clean_sbu_0, # of connection points: 8
#     Node 13, Type 0, BuildingBlock: EBIMEJ_clean_sbu_0, # of connection points: 8
#     Node 14, Type 0, BuildingBlock: EBIMEJ_clean_sbu_0, # of connection points: 8
#     Node 15, Type 0, BuildingBlock: EBIMEJ_clean_sbu_0, # of connection points: 8
#     Node 16, Type 0, BuildingBlock: EBIMEJ_clean_sbu_0, # of connection points: 8
#     Node 17, Type 0, BuildingBlock: EBIMEJ_clean_sbu_0, # of connection points: 8
#     Edge 18, Type (0, 0), BuildingBlock: UVAHIK_clean_linker_0, # of connection points: 2
#     Edge 19, Type (0, 0), BuildingBlock: UVAHIK_clean_linker_0, # of connection points: 2
#     Edge 20, Type (0, 0), BuildingBlock: UVAHIK_clean_linker_0, # of connection points: 2
#     Edge 21, Type (0, 0), BuildingBlock: UVAHIK_clean_linker_0, # of connection points: 2
#     Edge 22, Type (0, 0), BuildingBlock: UVAHIK_clean_linker_0, # of connection points: 2
#     Edge 23, Type (0, 0), BuildingBlock: UVAHIK_clean_linker_0, # of connection points: 2
#     Edge 24, Type (0, 0), BuildingBlock: UVAHIK_clean_linker_0, # of connection points: 2
#     Edge 25, Type (0, 0), BuildingBlock: UVAHIK_clean_linker_0, # of connection points: 2
#     Edge 26, Type (0, 0), BuildingBlock: UVAHIK_clean_linker_0, # of connection points: 2
#     Edge 27, Type (0, 0), BuildingBlock: UVAHIK_clean_linker_0, # of connection points: 2
#     Edge 28, Type (0, 0), BuildingBlock: UVAHIK_clean_linker_0, # of connection points: 2
#     Edge 29, Type (0, 0), BuildingBlock: UVAHIK_clean_linker_0, # of connection points: 2
#     Edge 30, Type (0, 0), BuildingBlock: UVAHIK_clean_linker_0, # of connection points: 2
#     Edge 31, Type (0, 0), BuildingBlock: UVAHIK_clean_linker_0, # of connection points: 2
#     Edge 32, Type (0, 0), BuildingBlock: UVAHIK_clean_linker_0, # of connection points: 2
#     Edge 33, Type (0, 0), BuildingBlock: UVAHIK_clean_linker_0, # of connection points: 2
#     Edge 34, Type (0, 0), BuildingBlock: UVAHIK_clean_linker_0, # of connection points: 2
#     Edge 35, Type (0, 0), BuildingBlock: UVAHIK_clean_linker_0, # of connection points: 2
#     Edge 36, Type (0, 0), BuildingBlock: UVAHIK_clean_linker_0, # of connection points: 2
#     Edge 37, Type (0, 0), BuildingBlock: UVAHIK_clean_linker_0, # of connection points: 2
#     Edge 38, Type (0, 0), BuildingBlock: UVAHIK_clean_linker_0, # of connection points: 2
#     Edge 39, Type (0, 0), BuildingBlock: UVAHIK_clean_linker_0, # of connection points: 2
#     Edge 40, Type (0, 0), BuildingBlock: UVAHIK_clean_linker_0, # of connection points: 2
#     Edge 41, Type (0, 0), BuildingBlock: UVAHIK_clean_linker_0, # of connection points: 2
#     Edge 42, Type (0, 0), BuildingBlock: UVAHIK_clean_linker_0, # of connection points: 2
#     Edge 43, Type (0, 0), BuildingBlock: UVAHIK_clean_linker_0, # of connection points: 2
#     Edge 44, Type (0, 0), BuildingBlock: UVAHIK_clean_linker_0, # of connection points: 2
#     Edge 45, Type (0, 0), BuildingBlock: UVAHIK_clean_linker_0, # of connection points: 2
#     Edge 46, Type (0, 0), BuildingBlock: UVAHIK_clean_linker_0, # of connection points: 2
#     Edge 47, Type (0, 0), BuildingBlock: UVAHIK_clean_linker_0, # of connection points: 2
#     Edge 48, Type (0, 0), BuildingBlock: UVAHIK_clean_linker_0, # of connection points: 2
#     Edge 49, Type (0, 0), BuildingBlock: UVAHIK_clean_linker_0, # of connection points: 2
#     Edge 50, Type (0, 0), BuildingBlock: UVAHIK_clean_linker_0, # of connection points: 2
#     Edge 51, Type (0, 0), BuildingBlock: UVAHIK_clean_linker_0, # of connection points: 2
#     Edge 52, Type (0, 0), BuildingBlock: UVAHIK_clean_linker_0, # of connection points: 2
#     Edge 53, Type (0, 0), BuildingBlock: UVAHIK_clean_linker_0, # of connection points: 2
#     Edge 54, Type (0, 0), BuildingBlock: UVAHIK_clean_linker_0, # of connection points: 2
#     Edge 55, Type (0, 0), BuildingBlock: UVAHIK_clean_linker_0, # of connection points: 2
#     Edge 56, Type (0, 0), BuildingBlock: UVAHIK_clean_linker_0, # of connection points: 2
#     Edge 57, Type (0, 0), BuildingBlock: UVAHIK_clean_linker_0, # of connection points: 2
#     Edge 58, Type (0, 0), BuildingBlock: UVAHIK_clean_linker_0, # of connection points: 2
#     Edge 59, Type (0, 0), BuildingBlock: UVAHIK_clean_linker_0, # of connection points: 2
#     Edge 60, Type (0, 0), BuildingBlock: UVAHIK_clean_linker_0, # of connection points: 2
#     Edge 61, Type (0, 0), BuildingBlock: UVAHIK_clean_linker_0, # of connection points: 2
#     Edge 62, Type (0, 0), BuildingBlock: UVAHIK_clean_linker_0, # of connection points: 2
#     Edge 63, Type (0, 0), BuildingBlock: UVAHIK_clean_linker_0, # of connection points: 2
#     Edge 64, Type (0, 0), BuildingBlock: UVAHIK_clean_linker_0, # of connection points: 2
#     Edge 65, Type (0, 0), BuildingBlock: UVAHIK_clean_linker_0, # of connection points: 2
#     Edge 66, Type (0, 0), BuildingBlock: UVAHIK_clean_linker_0, # of connection points: 2
#     Edge 67, Type (0, 0), BuildingBlock: UVAHIK_clean_linker_0, # of connection points: 2
#     Edge 68, Type (0, 0), BuildingBlock: UVAHIK_clean_linker_0, # of connection points: 2
#     Edge 69, Type (0, 0), BuildingBlock: UVAHIK_clean_linker_0, # of connection points: 2
#     Edge 70, Type (0, 0), BuildingBlock: UVAHIK_clean_linker_0, # of connection points: 2
#     Edge 71, Type (0, 0), BuildingBlock: UVAHIK_clean_linker_0, # of connection points: 2
#     Edge 72, Type (0, 0), BuildingBlock: UVAHIK_clean_linker_0, # of connection points: 2
#     Edge 73, Type (0, 0), BuildingBlock: UVAHIK_clean_linker_0, # of connection points: 2
#     Edge 74, Type (0, 0), BuildingBlock: UVAHIK_clean_linker_0, # of connection points: 2
#     Edge 75, Type (0, 0), BuildingBlock: UVAHIK_clean_linker_0, # of connection points: 2
#     Edge 76, Type (0, 0), BuildingBlock: UVAHIK_clean_linker_0, # of connection points: 2
#     Edge 77, Type (0, 0), BuildingBlock: UVAHIK_clean_linker_0, # of connection points: 2
#     Edge 78, Type (0, 0), BuildingBlock: UVAHIK_clean_linker_0, # of connection points: 2
#     Edge 79, Type (0, 0), BuildingBlock: UVAHIK_clean_linker_0, # of connection points: 2
#     Edge 80, Type (0, 0), BuildingBlock: UVAHIK_clean_linker_0, # of connection points: 2
#     Edge 81, Type (0, 0), BuildingBlock: UVAHIK_clean_linker_0, # of connection points: 2
#     Edge 82, Type (0, 0), BuildingBlock: UVAHIK_clean_linker_0, # of connection points: 2
#     Edge 83, Type (0, 0), BuildingBlock: UVAHIK_clean_linker_0, # of connection points: 2
#     Edge 84, Type (0, 0), BuildingBlock: UVAHIK_clean_linker_0, # of connection points: 2
#     Edge 85, Type (0, 0), BuildingBlock: UVAHIK_clean_linker_0, # of connection points: 2
#     Edge 86, Type (0, 0), BuildingBlock: UVAHIK_clean_linker_0, # of connection points: 2
#     Edge 87, Type (0, 0), BuildingBlock: UVAHIK_clean_linker_0, # of connection points: 2
#     Edge 88, Type (0, 0), BuildingBlock: UVAHIK_clean_linker_0, # of connection points: 2
#     Edge 89, Type (0, 0), BuildingBlock: UVAHIK_clean_linker_0, # of connection points: 2
# Relax obj value: 0.325
# Max RMSD: 0.288
# Mean RMSD: 0.288
data_MOF--net-ecc--node1-EBIMEJ_clean_sbu_0--edge1-UVAHIK_clean_linker_0
_symmetry_space_group_name_H-M    P1
_symmetry_Int_Tables_number       1
_symmetry_cell_setting            triclinic
loop_
_symmetry_equiv_pos_as_xyz
'x, y, z'
_cell_length_a     74.236512
_cell_length_b     74.325974
_cell_length_c     33.202377
_cell_angle_alpha  90.0231
_cell_angle_beta   89.997047
_cell_angle_gamma 120.08753
loop_
_atom_site_label
_atom_site_type_symbol
_atom_site_fract_x
_atom_site_fract_y
_atom_site_fract_z
_atom_type_partial_charge
Co0 Co 0.14983 0.00454 0.71906 0.0
Co1 Co 0.18081 0.02376 0.79457 0.0
Co2 Co 0.19128 1.00278 0.72934 0.0
H3 H 0.17036 1.00282 0.73538 0.0
O4 O 0.16586 0.99959 0.75964 0.0
H5 H 0.20143 0.02224 0.79254 0.0
O6 O 0.20665 0.0254 0.76866 0.0
Co7 Co 0.22083 0.0198 0.81421 0.0
O8 O 0.21964 0.03978 0.85683 0.0
O9 O 0.19651 0.0475 0.83085 0.0
O10 O 0.23273 0.00756 0.77172 0.0
O11 O 0.2171 1.00416 0.71151 0.0
O12 O 0.12054 0.9987 0.70502 0.0
O13 O 0.12462 0.9796 0.74538 0.0
O14 O 0.1987 0.99506 0.84471 0.0
O15 O 0.17364 1.00317 0.83964 0.0
C16 C 0.16065 0.97908 0.66446 0.0
C17 C 0.14479 0.02889 0.78432 0.0
C18 C 0.25464 0.03241 0.8501 0.0
C19 C 0.18738 0.035 0.67632 0.0
C20 C 0.21002 0.05012 0.85731 0.0
C21 C 0.23101 1.00372 0.73349 0.0
C22 C 0.11176 0.98319 0.72787 0.0
C23 C 0.18081 0.99212 0.85417 0.0
O24 O 0.15161 0.98965 0.66965 0.0
O25 O 0.17482 0.98025 0.68834 0.0
O26 O 0.15522 0.02462 0.8092 0.0
O27 O 0.14481 0.02588 0.74654 0.0
O28 O 0.23718 0.01945 0.86423 0.0
O29 O 0.25295 0.03801 0.81523 0.0
O30 O 0.16919 0.02987 0.68816 0.0
O31 O 0.19671 0.02527 0.68774 0.0
Co32 Co 0.02744 0.16671 0.72439 0.0
Co33 Co 0.00854 0.18004 0.79678 0.0
Co34 Co 0.03039 0.21092 0.73107 0.0
H35 H 0.0298 0.18965 0.73834 0.0
O36 O 0.03294 0.18872 0.76286 0.0
H37 H 0.01065 0.20229 0.79395 0.0
O38 O 0.00769 0.20438 0.76991 0.0
Co39 Co 0.01368 0.22428 0.81545 0.0
O40 O 0.99379 0.2035 0.85903 0.0
O41 O 0.98452 0.17255 0.8317 0.0
O42 O 0.02591 0.24792 0.77209 0.0
O43 O 0.02961 0.23554 0.7122 0.0
O44 O 0.02854 0.13986 0.71771 0.0
O45 O 0.05231 0.1653 0.74779 0.0
O46 O 0.03932 0.22702 0.84266 0.0
O47 O 0.02861 0.19319 0.84282 0.0
C48 C 0.05762 0.20367 0.67385 0.0
C49 C 1.00031 0.13843 0.78715 0.0
C50 C 1.00111 0.24554 0.85107 0.0
C51 C 0.9984 0.17461 0.67782 0.0
C52 C 0.98269 0.18355 0.85895 0.0
C53 C 0.02991 0.24992 0.73392 0.0
C54 C 0.04542 0.14687 0.73651 0.0
C55 C 0.0411 0.21173 0.85464 0.0
O56 O 0.04838 0.18434 0.68232 0.0
O57 O 0.05316 0.21649 0.6909 0.0
O58 O 0.00684 0.15341 0.81215 0.0
O59 O 1.00298 0.14147 0.74935 0.0
O60 O 0.01512 0.2423 0.86412 0.0
O61 O 0.99442 0.23691 0.8175 0.0
O62 O 1.00327 0.1615 0.69038 0.0
O63 O 0.00802 0.19368 0.68934 0.0
Co64 Co 0.86339 0.88442 0.72059 0.0
Co65 Co 0.85304 0.85192 0.79326 0.0
Co66 Co 0.82087 0.84237 0.72999 0.0
H67 H 0.84159 0.86334 0.73675 0.0
O68 O 0.84318 0.86736 0.76141 0.0
H69 H 0.83066 0.83174 0.79172 0.0
O70 O 0.8282 0.82657 0.76779 0.0
Co71 Co 0.80875 0.81285 0.81381 0.0
O72 O 0.83045 0.81396 0.85544 0.0
O73 O 0.86118 0.83539 0.82653 0.0
O74 O 0.78442 0.80084 0.7716 0.0
O75 O 0.79651 0.81673 0.71153 0.0
O76 O 0.88118 0.9148 0.70267 0.0
O77 O 0.86675 0.90757 0.75882 0.0
O78 O 0.80661 0.8365 0.8393 0.0
O79 O 0.84077 0.85833 0.84146 0.0
C80 C 0.82733 0.87338 0.66602 0.0
C81 C 0.89424 0.88823 0.78155 0.0
C82 C 0.78786 0.77909 0.8499 0.0
C83 C 0.85733 0.84752 0.67664 0.0
C84 C 0.85042 0.82261 0.85419 0.0
C85 C 0.78223 0.80267 0.73343 0.0
C86 C 0.87839 0.92181 0.73506 0.0
C87 C 0.82228 0.85298 0.8526 0.0
O88 O 0.847 0.88267 0.67089 0.0
O89 O 0.81458 0.85913 0.69007 0.0
O90 O 0.88012 0.87715 0.80715 0.0
O91 O 0.89029 0.88903 0.74446 0.0
O92 O 0.7912 0.79635 0.86305 0.0
O93 O 0.79616 0.78098 0.81601 0.0
O94 O 0.8699 0.86584 0.68856 0.0
O95 O 0.8382 0.83757 0.68792 0.0
Co96 Co 0.80802 0.01766 0.20636 0.0
Co97 Co 0.83734 0.0345 0.2904 0.0
Co98 Co 0.84683 0.01204 0.2266 0.0
H99 H 0.82673 0.01432 0.2283 0.0
O100 O 0.82147 0.01151 0.25218 0.0
H101 H 0.85815 0.03436 0.28401 0.0
O102 O 0.86236 0.03697 0.25946 0.0
Co103 Co 0.87891 0.0331 0.30043 0.0
O104 O 0.87764 0.04837 0.34967 0.0
O105 O 0.85427 0.05745 0.33044 0.0
O106 O 0.88331 0.01084 0.27559 0.0
O107 O 0.87204 0.01018 0.21276 0.0
O108 O 0.79153 0.01931 0.15767 0.0
O109 O 0.77621 0.99789 0.2032 0.0
O110 O 0.85991 0.00821 0.33256 0.0
O111 O 0.832 0.01219 0.33235 0.0
C112 C 0.81758 0.98602 0.16456 0.0
C113 C 0.79773 0.03383 0.28659 0.0
C114 C 0.91652 0.05519 0.28752 0.0
C115 C 0.84844 0.04465 0.16889 0.0
C116 C 0.86861 0.05899 0.35429 0.0
C117 C 0.88279 0.0066 0.23824 0.0
C118 C 0.7743 0.00488 0.17 0.0
C119 C 0.8416 1.00276 0.3441 0.0
O120 O 0.80907 0.99743 0.16394 0.0
O121 O 0.83029 0.9877 0.1921 0.0
O122 O 0.81174 0.03357 0.30859 0.0
O123 O 0.79598 0.02989 0.24841 0.0
O124 O 0.90907 0.0453 0.31966 0.0
O125 O 0.9026 0.05281 0.26308 0.0
O126 O 0.83199 0.04379 0.18246 0.0
O127 O 0.85361 0.03129 0.17918 0.0
Co128 Co 0.01393 0.81225 0.20426 0.0
Co129 Co 0.99773 0.82657 0.28666 0.0
Co130 Co 0.02166 0.8575 0.22212 0.0
H131 H 0.0183 0.8348 0.2253 0.0
O132 O 0.02076 0.83239 0.24945 0.0
H133 H 0.99868 0.84782 0.27848 0.0
O134 O 0.99643 0.8492 0.25358 0.0
Co135 Co 1.00062 0.87047 0.29288 0.0
O136 O 0.98527 0.85488 0.3429 0.0
O137 O 0.97491 0.82184 0.32596 0.0
O138 O 0.02342 0.89661 0.26721 0.0
O139 O 0.0247 0.88472 0.20586 0.0
O140 O 0.01656 0.79947 0.15089 0.0
O141 O 0.0275 0.79375 0.20398 0.0
O142 O 0.02542 0.87604 0.32515 0.0
O143 O 0.0201 0.84369 0.32853 0.0
C144 C 0.04737 0.85246 0.16262 0.0
C145 C 0.99746 0.78712 0.28602 0.0
C146 C 0.98023 0.88771 0.27826 0.0
C147 C 0.98828 0.82662 0.16585 0.0
C148 C 0.97416 0.83536 0.34895 0.0
C149 C 0.02823 0.89951 0.23002 0.0
C150 C 0.02539 0.79056 0.16664 0.0
C151 C 0.03018 0.86299 0.33853 0.0
O152 O 0.03441 0.83281 0.16127 0.0
O153 O 0.04645 0.86413 0.18965 0.0
O154 O 0.99755 0.80166 0.30684 0.0
O155 O 1.00184 0.78887 0.24803 0.0
O156 O 0.99526 0.89464 0.30239 0.0
O157 O 0.97651 0.87075 0.26291 0.0
O158 O 0.98794 0.81085 0.18157 0.0
O159 O 1.00285 0.84504 0.17397 0.0
Co160 Co 0.22098 0.22528 0.20455 0.0
Co161 Co 0.2081 0.19533 0.28771 0.0
Co162 Co 0.17615 0.18737 0.22502 0.0
H163 H 0.19884 0.20694 0.22669 0.0
O164 O 0.20153 0.212 0.25071 0.0
H165 H 0.18664 0.17484 0.28137 0.0
O166 O 0.18487 0.1709 0.25664 0.0
Co167 Co 0.16435 0.15421 0.29778 0.0
O168 O 0.18131 0.15368 0.34487 0.0
O169 O 0.21379 0.17778 0.32674 0.0
O170 O 0.13853 0.15312 0.27484 0.0
O171 O 0.14876 0.16295 0.21131 0.0
O172 O 0.23621 0.24154 0.15323 0.0
O173 O 0.23624 0.25741 0.20462 0.0
O174 O 0.16198 0.17125 0.34142 0.0
O175 O 0.19178 0.20101 0.33053 0.0
C176 C 0.18002 0.21748 0.16455 0.0
C177 C 0.24741 0.23481 0.28464 0.0
C178 C 0.14589 0.11689 0.28019 0.0
C179 C 0.20635 0.18489 0.16659 0.0
C180 C 0.20099 0.16281 0.34948 0.0
C181 C 0.13453 0.15373 0.23767 0.0
C182 C 0.24212 0.25907 0.16864 0.0
C183 C 0.17445 0.19026 0.34918 0.0
O184 O 0.19979 0.2248 0.16264 0.0
O185 O 0.16888 0.20485 0.19209 0.0
O186 O 0.23325 0.22038 0.30616 0.0
O187 O 0.24516 0.2371 0.24673 0.0
O188 O 0.14416 0.1239 0.31349 0.0
O189 O 0.15825 0.13105 0.25701 0.0
O190 O 0.22228 0.20093 0.18049 0.0
O191 O 0.18795 0.18041 0.17669 0.0
Co192 Co 0.81619 0.33812 0.05303 0.0
Co193 Co 0.8476 0.35764 0.12816 0.0
Co194 Co 0.85696 0.33532 0.06393 0.0
H195 H 0.83642 0.33603 0.06982 0.0
O196 O 0.83201 0.33319 0.0942 0.0
H197 H 0.86794 0.35563 0.12615 0.0
O198 O 0.873 0.35837 0.10212 0.0
Co199 Co 0.8872 0.353 0.14801 0.0
O200 O 0.88642 0.37335 0.19028 0.0
O201 O 0.86387 0.38165 0.16358 0.0
O202 O 0.89902 0.34072 0.1055 0.0
O203 O 0.88233 0.33581 0.04602 0.0
O204 O 0.78677 0.33291 0.04234 0.0
O205 O 0.79122 0.3122 0.07727 0.0
O206 O 0.86473 0.32836 0.17812 0.0
O207 O 0.8403 0.33738 0.17397 0.0
C208 C 0.82586 0.31141 0.9998 0.0
C209 C 0.81202 0.36343 0.1177 0.0
C210 C 0.92054 0.36494 0.1853 0.0
C211 C 0.85391 0.36775 0.01016 0.0
C212 C 0.8772 0.38407 0.1903 0.0
C213 C 0.89668 0.33603 0.06763 0.0
C214 C 0.7782 0.31651 0.06286 0.0
C215 C 0.8471 0.32594 0.18813 0.0
O216 O 0.81743 0.32262 1.00399 0.0
O217 O 0.83981 0.3124 0.02408 0.0
O218 O 0.82246 0.35928 0.14275 0.0
O219 O 0.81165 0.35987 0.08005 0.0
O220 O 0.90276 0.35524 0.2009 0.0
O221 O 0.91943 0.36771 0.14822 0.0
O222 O 0.83606 0.36347 0.02261 0.0
O223 O 0.86262 0.35736 0.02122 0.0
Co224 Co 0.69498 0.50144 0.05692 0.0
Co225 Co 0.67385 0.51348 0.1288 0.0
Co226 Co 0.69783 0.54509 0.06537 0.0
H227 H 0.69696 0.52387 0.07266 0.0
O228 O 0.69918 0.52221 0.09742 0.0
H229 H 0.67692 0.53612 0.12647 0.0
O230 O 0.67456 0.53868 0.10235 0.0
Co231 Co 0.68065 0.55835 0.14814 0.0
O232 O 0.6595 0.53723 0.1898 0.0
O233 O 0.64896 0.50629 0.16103 0.0
O234 O 0.69319 0.58229 0.10532 0.0
O235 O 0.69788 0.57002 0.04621 0.0
O236 O 0.69942 0.47697 0.04475 0.0
O237 O 0.72072 0.50158 0.08025 0.0
O238 O 0.70645 0.5599 0.17227 0.0
O239 O 0.69248 0.52566 0.17726 0.0
C240 C 0.7214 0.53707 1.00207 0.0
C241 C 0.66775 0.47162 0.11958 0.0
C242 C 0.66872 0.57978 0.18531 0.0
C243 C 0.66488 0.50894 0.01415 0.0
C244 C 0.64717 0.51744 0.18808 0.0
C245 C 0.69785 0.58438 0.06743 0.0
C246 C 0.71586 0.48425 0.06506 0.0
C247 C 0.70651 0.5441 0.18684 0.0
O248 O 0.71009 0.51751 1.00721 0.0
O249 O 0.72086 0.55035 0.02605 0.0
O250 O 0.67092 0.48616 0.14415 0.0
O251 O 0.6728 0.47497 0.08252 0.0
O252 O 0.67838 0.57172 0.20106 0.0
O253 O 0.66603 0.57587 0.14825 0.0
O254 O 0.6691 0.49567 0.02845 0.0
O255 O 0.67574 0.52836 0.02281 0.0
Co256 Co 0.53196 0.21846 0.05342 0.0
Co257 Co 0.52077 0.18632 0.12736 0.0
Co258 Co 0.48867 0.17717 0.06406 0.0
H259 H 0.50985 0.19784 0.07011 0.0
O260 O 0.51154 0.20202 0.09466 0.0
H261 H 0.49832 0.16612 0.12561 0.0
O262 O 0.49587 0.16108 0.10155 0.0
Co263 Co 0.4764 0.14702 0.14757 0.0
O264 O 0.49774 0.14821 0.18996 0.0
O265 O 0.52858 0.16978 0.16177 0.0
O266 O 0.45211 0.135 0.10533 0.0
O267 O 0.46384 0.15178 0.04594 0.0
O268 O 0.55576 0.24823 0.04361 0.0
O269 O 0.53085 0.24274 0.08055 0.0
O270 O 0.47424 0.17035 0.17422 0.0
O271 O 0.50822 0.19331 0.17441 0.0
C272 C 0.4953 0.20861 1.00096 0.0
C273 C 0.56224 0.22201 0.11582 0.0
C274 C 0.4554 0.11329 0.184 0.0
C275 C 0.52424 0.18117 1.00917 0.0
C276 C 0.5177 0.15697 0.18927 0.0
C277 C 0.44975 0.13731 0.06746 0.0
C278 C 0.54795 0.25619 0.06591 0.0
C279 C 0.48969 0.18737 0.18627 0.0
O280 O 0.51501 0.21747 1.00495 0.0
O281 O 0.48256 0.19428 0.0249 0.0
O282 O 0.54787 0.21138 0.1413 0.0
O283 O 0.55858 0.22275 0.07851 0.0
O284 O 0.46077 0.13085 0.19868 0.0
O285 O 0.46176 0.11486 0.14837 0.0
O286 O 0.53758 0.19919 0.02131 0.0
O287 O 0.5052 0.17195 0.02095 0.0
Co288 Co 0.47536 0.35236 0.53882 0.0
Co289 Co 0.50573 0.3691 0.62174 0.0
Co290 Co 0.51316 0.34513 0.55806 0.0
H291 H 0.49368 0.34836 0.56049 0.0
O292 O 0.48871 0.34597 0.58458 0.0
H293 H 0.52597 0.36788 0.61475 0.0
O294 O 0.52991 0.37016 0.59003 0.0
Co295 Co 0.54634 0.36569 0.63047 0.0
O296 O 0.54559 0.38107 0.68004 0.0
O297 O 0.52367 0.39202 0.66092 0.0
O298 O 0.5503 0.34338 0.60441 0.0
O299 O 0.53741 0.34206 0.54274 0.0
O300 O 0.45981 0.35075 0.48623 0.0
O301 O 0.44317 0.33729 0.53851 0.0
O302 O 0.52656 0.34086 0.66218 0.0
O303 O 0.50002 0.34701 0.6644 0.0
C304 C 0.48275 0.31925 0.49756 0.0
C305 C 0.46662 0.36964 0.61946 0.0
C306 C 0.58417 0.38668 0.61805 0.0
C307 C 0.51577 0.37828 0.50069 0.0
C308 C 0.53749 0.39253 0.6849 0.0
C309 C 0.54852 0.3385 0.56723 0.0
C310 C 0.44203 0.34059 0.50172 0.0
C311 C 0.50879 0.33662 0.67514 0.0
O312 O 0.47552 0.33175 0.49621 0.0
O313 O 0.49539 0.32056 0.52488 0.0
O314 O 0.48094 0.36953 0.64071 0.0
O315 O 0.46402 0.36495 0.58159 0.0
O316 O 0.57571 0.37031 0.63863 0.0
O317 O 0.57116 0.39135 0.60505 0.0
O318 O 0.49964 0.378 0.51449 0.0
O319 O 0.5202 0.36432 0.51042 0.0
Co320 Co 0.68117 0.14597 0.5389 0.0
Co321 Co 0.66442 0.15932 0.62165 0.0
Co322 Co 0.68879 0.19105 0.55862 0.0
H323 H 0.68542 0.16829 0.56076 0.0
O324 O 0.68775 0.16565 0.58484 0.0
H325 H 0.6652 0.18049 0.61428 0.0
O326 O 0.66326 0.18222 0.5894 0.0
Co327 Co 0.66644 0.20264 0.62977 0.0
O328 O 0.64923 0.18628 0.67753 0.0
O329 O 0.64107 0.15382 0.66021 0.0
O330 O 0.69014 0.22899 0.60661 0.0
O331 O 0.692 0.21857 0.54422 0.0
O332 O 0.68309 0.13233 0.48603 0.0
O333 O 0.69587 0.12852 0.53858 0.0
O334 O 0.69058 0.20818 0.66419 0.0
O335 O 0.68631 0.17618 0.66451 0.0
C336 C 0.71455 0.18661 0.49844 0.0
C337 C 0.66446 0.12007 0.61978 0.0
C338 C 0.64468 0.21811 0.61337 0.0
C339 C 0.65585 0.16093 0.50054 0.0
C340 C 0.63873 0.16665 0.68246 0.0
C341 C 0.69532 0.23285 0.56963 0.0
C342 C 0.69293 0.12442 0.50161 0.0
C343 C 0.69566 0.19519 0.6765 0.0
O344 O 0.70155 0.16698 0.49643 0.0
O345 O 0.71373 0.19802 0.52621 0.0
O346 O 0.66436 0.13438 0.64102 0.0
O347 O 0.66897 0.12214 0.58184 0.0
O348 O 0.65182 0.21855 0.64789 0.0
O349 O 0.6496 0.20861 0.5885 0.0
O350 O 0.65552 0.14496 0.51526 0.0
O351 O 0.67023 0.17926 0.50989 0.0
Co352 Co 0.88636 0.55844 0.53896 0.0
Co353 Co 0.8739 0.52821 0.62168 0.0
Co354 Co 0.84196 0.51933 0.55828 0.0
H355 H 0.86433 0.53947 0.56048 0.0
O356 O 0.86669 0.54441 0.58461 0.0
H357 H 0.85316 0.50716 0.61417 0.0
O358 O 0.85177 0.50357 0.58926 0.0
Co359 Co 0.8313 0.48552 0.62888 0.0
O360 O 0.84853 0.48425 0.67447 0.0
O361 O 0.88034 0.51122 0.66065 0.0
O362 O 0.80458 0.48215 0.60621 0.0
O363 O 0.81494 0.49426 0.54377 0.0
O364 O 0.9018 0.57461 0.48775 0.0
O365 O 0.90135 0.5906 0.53857 0.0
O366 O 0.82506 0.50338 0.66395 0.0
O367 O 0.85631 0.53229 0.66411 0.0
C368 C 0.84487 0.54909 0.49819 0.0
C369 C 0.91259 0.56784 0.61956 0.0
C370 C 0.81472 0.44818 0.6124 0.0
C371 C 0.87292 0.51852 0.49946 0.0
C372 C 0.86806 0.49483 0.68081 0.0
C373 C 0.80068 0.48332 0.56923 0.0
C374 C 0.90746 0.59217 0.50276 0.0
C375 C 0.83734 0.52174 0.67612 0.0
O376 O 0.86484 0.55764 0.49728 0.0
O377 O 0.83393 0.53619 0.52554 0.0
O378 O 0.89816 0.55369 0.64106 0.0
O379 O 0.91051 0.57007 0.58151 0.0
O380 O 0.80832 0.4555 0.63929 0.0
O381 O 0.8308 0.46205 0.59534 0.0
O382 O 0.88856 0.53477 0.51361 0.0
O383 O 0.85438 0.51337 0.50977 0.0
Co384 Co 0.48176 0.66965 0.38719 0.0
Co385 Co 0.51368 0.69036 0.46117 0.0
Co386 Co 0.5236 0.66855 0.39672 0.0
H387 H 0.50263 0.66844 0.40321 0.0
O388 O 0.49842 0.6656 0.42771 0.0
H389 H 0.53409 0.6886 0.4591 0.0
O390 O 0.53925 0.69152 0.43516 0.0
Co391 Co 0.55328 0.6859 0.48078 0.0
O392 O 0.55226 0.70619 0.52301 0.0
O393 O 0.52984 0.71462 0.49603 0.0
O394 O 0.56543 0.67399 0.43831 0.0
O395 O 0.54937 0.6699 0.37833 0.0
O396 O 0.45222 0.66369 0.37505 0.0
O397 O 0.45699 0.64452 0.41401 0.0
O398 O 0.53025 0.66012 0.50723 0.0
O399 O 0.50699 0.67067 0.50777 0.0
C400 C 0.49244 0.64409 0.33287 0.0
C401 C 0.47752 0.69536 0.4507 0.0
C402 C 0.58695 0.6985 0.51715 0.0
C403 C 0.51922 0.70064 0.34482 0.0
C404 C 0.54312 0.717 0.52285 0.0
C405 C 0.56359 0.66995 0.40017 0.0
C406 C 0.44384 0.64811 0.39781 0.0
C407 C 0.51314 0.65826 0.5194 0.0
O408 O 0.48322 0.6545 0.33789 0.0
O409 O 0.50688 0.64569 0.35649 0.0
O410 O 0.48829 0.69163 0.47573 0.0
O411 O 0.47684 0.69137 0.41322 0.0
O412 O 0.56943 0.68562 0.5312 0.0
O413 O 0.58537 0.70406 0.4822 0.0
O414 O 0.50111 0.69534 0.35738 0.0
O415 O 0.52866 0.69082 0.35493 0.0
Co416 Co 0.36181 0.83489 0.38871 0.0
Co417 Co 0.34021 0.84665 0.46076 0.0
Co418 Co 0.36505 0.87861 0.39829 0.0
H419 H 0.36375 0.8572 0.40506 0.0
O420 O 0.36565 0.85522 0.42982 0.0
H421 H 0.34381 0.86952 0.45891 0.0
O422 O 0.34164 0.87233 0.43484 0.0
Co423 Co 0.34808 0.89186 0.48091 0.0
O424 O 0.32785 0.87084 0.52361 0.0
O425 O 0.31537 0.83988 0.49334 0.0
O426 O 0.36056 0.91595 0.43844 0.0
O427 O 0.36568 0.90393 0.37944 0.0
O428 O 0.37585 0.8187 0.36887 0.0
O429 O 0.37923 0.82877 0.42834 0.0
O430 O 0.3737 0.89261 0.50394 0.0
O431 O 0.35892 0.85829 0.50936 0.0
C432 C 0.38929 0.87078 0.33569 0.0
C433 C 0.33324 0.80461 0.44918 0.0
C434 C 0.3358 0.91316 0.51751 0.0
C435 C 0.33257 0.84318 0.34472 0.0
C436 C 0.31471 0.85124 0.52142 0.0
C437 C 0.36542 0.91817 0.40064 0.0
C438 C 0.38357 0.8191 0.40277 0.0
C439 C 0.37337 0.87662 0.51854 0.0
O440 O 0.37779 0.85116 0.33969 0.0
O441 O 0.38832 0.88381 0.35976 0.0
O442 O 0.33662 0.81886 0.47475 0.0
O443 O 0.33836 0.80852 0.41218 0.0
O444 O 0.3479 0.90765 0.5321 0.0
O445 O 0.33089 0.9068 0.48192 0.0
O446 O 0.33668 0.82961 0.35774 0.0
O447 O 0.34316 0.86239 0.35511 0.0
Co448 Co 0.19562 0.55118 0.38791 0.0
Co449 Co 0.18632 0.51827 0.46047 0.0
Co450 Co 0.1535 0.50826 0.39851 0.0
H451 H 0.17423 0.52957 0.4045 0.0
O452 O 0.17595 0.53348 0.42923 0.0
H453 H 0.164 0.49797 0.45974 0.0
O454 O 0.16142 0.49274 0.43585 0.0
Co455 Co 0.14233 0.47907 0.48243 0.0
O456 O 0.16446 0.48043 0.52319 0.0
O457 O 0.19495 0.50199 0.49355 0.0
O458 O 0.11777 0.4664 0.44073 0.0
O459 O 0.12924 0.48235 0.38053 0.0
O460 O 0.21898 0.58114 0.3782 0.0
O461 O 0.19738 0.57455 0.42393 0.0
O462 O 0.14028 0.50283 0.50772 0.0
O463 O 0.17444 0.52471 0.5092 0.0
C464 C 0.15818 0.54028 0.33708 0.0
C465 C 0.22716 0.55405 0.44638 0.0
C466 C 0.12164 0.44566 0.51987 0.0
C467 C 0.18702 0.5158 0.33525 0.0
C468 C 0.18443 0.48921 0.52144 0.0
C469 C 0.11531 0.46808 0.40262 0.0
C470 C 0.21325 0.58843 0.40633 0.0
C471 C 0.15602 0.51935 0.52074 0.0
O472 O 0.1778 0.55096 0.34209 0.0
O473 O 0.14624 0.52448 0.35899 0.0
O474 O 0.21339 0.54366 0.47302 0.0
O475 O 0.22253 0.55437 0.4095 0.0
O476 O 0.12995 0.46337 0.53576 0.0
O477 O 0.12488 0.44691 0.48255 0.0
O478 O 0.198 0.53515 0.34213 0.0
O479 O 0.1707 0.50381 0.35583 0.0
Co480 Co 0.14157 0.68455 0.8721 0.0
Co481 Co 0.1702 0.70197 0.95747 0.0
Co482 Co 0.18172 0.68107 0.89371 0.0
H483 H 0.16094 0.68234 0.89451 0.0
O484 O 0.15551 0.67916 0.91824 0.0
H485 H 0.19156 0.70278 0.95196 0.0
O486 O 0.19598 0.70577 0.92762 0.0
Co487 Co 0.21274 0.70233 0.96859 0.0
O488 O 0.21253 0.71991 0.01457 0.0
O489 O 0.18589 0.72486 0.9983 0.0
O490 O 0.21677 0.67953 0.94539 0.0
O491 O 0.2077 0.68032 0.88153 0.0
O492 O 0.12441 0.68706 0.8257 0.0
O493 O 0.11001 0.66373 0.86843 0.0
O494 O 0.19421 0.67731 1.00108 0.0
O495 O 0.16543 0.67982 0.99923 0.0
C496 C 0.15286 0.65398 0.83119 0.0
C497 C 0.13018 0.70007 0.952 0.0
C498 C 0.25021 0.72438 0.95432 0.0
C499 C 0.18177 0.71186 0.83189 0.0
C500 C 0.20179 0.72874 0.01994 0.0
C501 C 0.21759 0.67613 0.90798 0.0
C502 C 0.10758 0.6716 0.83685 0.0
C503 C 0.17562 0.67116 0.01177 0.0
O504 O 0.14311 0.6642 0.83097 0.0
O505 O 0.16647 0.65697 0.85779 0.0
O506 O 0.1439 0.6997 0.97468 0.0
O507 O 0.12911 0.69663 0.91367 0.0
O508 O 0.24309 0.71482 0.98691 0.0
O509 O 0.23606 0.72173 0.93028 0.0
O510 O 0.16379 0.70888 0.84071 0.0
O511 O 0.18902 0.7011 0.84756 0.0
Co512 Co 0.34848 0.48005 0.87285 0.0
Co513 Co 0.33113 0.494 0.95422 0.0
Co514 Co 0.35583 0.52516 0.89033 0.0
H515 H 0.35249 0.50248 0.89377 0.0
O516 O 0.35465 0.50002 0.91811 0.0
H517 H 0.33226 0.51536 0.94571 0.0
O518 O 0.33027 0.51673 0.92067 0.0
Co519 Co 0.33418 0.53814 0.9592 0.0
O520 O 0.31377 0.52137 1.00251 0.0
O521 O 0.30759 0.48887 0.9922 0.0
O522 O 0.35835 0.56398 0.93594 0.0
O523 O 0.3592 0.55254 0.87409 0.0
O524 O 0.34673 0.46162 0.82455 0.0
O525 O 0.36782 0.46752 0.8706 0.0
O526 O 0.35824 0.54339 0.99374 0.0
O527 O 0.35273 0.51098 0.99721 0.0
C528 C 0.38216 0.52038 0.83181 0.0
C529 C 0.33095 0.4546 0.95394 0.0
C530 C 0.31484 0.55645 0.94469 0.0
C531 C 0.32301 0.49435 0.83319 0.0
C532 C 0.30374 0.50195 0.00999 0.0
C533 C 0.36318 0.56726 0.89879 0.0
C534 C 0.3609 0.45858 0.8374 0.0
C535 C 0.36262 0.53018 1.0078 0.0
O536 O 0.3694 0.50067 0.83042 0.0
O537 O 0.38086 0.53186 0.85881 0.0
O538 O 0.33078 0.46905 0.97465 0.0
O539 O 0.33573 0.45648 0.91614 0.0
O540 O 0.32849 0.56187 0.97161 0.0
O541 O 0.31197 0.54044 0.92637 0.0
O542 O 0.32267 0.47861 0.84905 0.0
O543 O 0.33746 0.5128 0.84156 0.0
Co544 Co 0.55322 0.89142 0.87169 0.0
Co545 Co 0.54004 0.86152 0.95536 0.0
Co546 Co 0.50855 0.85298 0.8913 0.0
H547 H 0.53107 0.87284 0.89354 0.0
O548 O 0.5335 0.87793 0.91753 0.0
H549 H 0.51878 0.84098 0.94858 0.0
O550 O 0.51729 0.8369 0.92397 0.0
Co551 Co 0.49633 0.8205 0.96444 0.0
O552 O 0.51261 0.82174 0.01413 0.0
O553 O 0.54545 0.84417 0.99518 0.0
O554 O 0.46996 0.81634 0.93824 0.0
O555 O 0.48158 0.82824 0.87612 0.0
O556 O 0.56881 0.90749 0.82056 0.0
O557 O 0.56818 0.92355 0.87112 0.0
O558 O 0.49089 0.83982 0.99672 0.0
O559 O 0.5233 0.86701 0.99763 0.0
C560 C 0.51222 0.88229 0.82953 0.0
C561 C 0.57943 0.90072 0.95228 0.0
C562 C 0.48016 0.78282 0.95132 0.0
C563 C 0.53952 0.85123 0.83339 0.0
C564 C 0.53224 0.83024 0.01915 0.0
C565 C 0.46689 0.81747 0.90079 0.0
C566 C 0.57441 0.92506 0.83542 0.0
C567 C 0.50419 0.85783 1.00902 0.0
O568 O 0.53214 0.89042 0.82864 0.0
O569 O 0.50121 0.86998 0.85751 0.0
O570 O 0.56496 0.88668 0.97393 0.0
O571 O 0.57732 0.90293 0.91424 0.0
O572 O 0.47165 0.79093 0.97115 0.0
O573 O 0.49803 0.7961 0.9395 0.0
O574 O 0.55525 0.86756 0.84698 0.0
O575 O 0.52103 0.84625 0.84387 0.0
C576 C 0.0746 0.1435 0.76573 0.0
C577 C 0.05507 0.13435 0.7468 0.0
C578 C 0.08346 0.1314 0.77625 0.0
C579 C 0.08069 0.08192 0.75033 0.0
H580 H 0.11111 0.09028 0.85014 0.0
C581 C 0.1113 0.0281 0.789 0.0
C582 C 0.13253 0.0381 0.7984 0.0
C583 C 0.10047 0.03887 0.79115 0.0
C584 C 0.10268 0.08783 0.82216 0.0
H585 H 0.02919 0.10543 0.72492 0.0
H586 H 0.04444 0.08428 0.7437 0.0
H587 H 0.0951 0.11148 0.83563 0.0
H588 H 0.15898 0.06656 0.82 0.0
H589 H 0.14009 0.08574 0.82328 0.0
H590 H 0.08836 0.05856 0.73643 0.0
C591 C 0.05318 0.10083 0.74968 0.0
C592 C 0.09359 0.09999 0.81377 0.0
C593 C 0.04442 0.11292 0.73895 0.0
C594 C 0.14249 0.05853 0.81312 0.0
C595 C 0.13169 0.06947 0.81487 0.0
C596 C 0.08966 0.06979 0.75874 0.0
C597 C 0.07286 0.10994 0.76817 0.0
C598 C 0.08247 0.09711 0.77773 0.0
C599 C 0.11083 0.05999 0.80201 0.0
C600 C 0.10069 0.07253 0.79476 0.0
H601 H 0.08309 0.16 0.77222 0.0
H602 H 0.09874 0.13892 0.79003 0.0
H603 H 0.07269 0.07964 0.72188 0.0
H604 H 0.10338 0.01231 0.77775 0.0
H605 H 0.08428 0.03101 0.782 0.0
C606 C 0.99854 0.10543 0.806 0.0
C607 C 0.9885 0.11696 0.80109 0.0
C608 C 0.98688 0.08379 0.80875 0.0
C609 C 0.93279 0.03869 0.81712 0.0
H610 H 0.95438 0.01253 0.74606 0.0
C611 C 0.88904 0.95011 0.78577 0.0
C612 C 0.88967 0.94397 0.74604 0.0
C613 C 0.90126 0.97091 0.79718 0.0
C614 C 0.94807 0.01961 0.76583 0.0
H615 H 0.95881 0.11563 0.79679 0.0
H616 H 0.93828 0.0778 0.80117 0.0
H617 H 0.97562 0.0493 0.76133 0.0
H618 H 0.90306 0.95465 0.68683 0.0
H619 H 0.92396 0.99107 0.70636 0.0
H620 H 0.90479 0.00912 0.8198 0.0
C621 C 0.95504 0.08525 0.80385 0.0
C622 C 0.96041 0.04064 0.7752 0.0
C623 C 0.96673 0.10689 0.80131 0.0
C624 C 0.90232 0.959 0.71767 0.0
C625 C 0.91444 0.9798 0.729 0.0
C626 C 0.92039 0.01764 0.80755 0.0
C627 C 0.96501 0.07341 0.80604 0.0
C628 C 0.9528 0.05052 0.80047 0.0
C629 C 0.91427 0.98595 0.76901 0.0
C630 C 0.92777 0.00797 0.78122 0.0
H631 H 0.01538 0.11305 0.80542 0.0
H632 H 0.99501 0.07514 0.81107 0.0
H633 H 0.92655 0.0458 0.83695 0.0
H634 H 0.87954 0.93877 0.80833 0.0
H635 H 0.90092 0.9751 0.8283 0.0
C636 C 0.92577 0.89065 0.81376 0.0
C637 C 0.91617 0.90022 0.79359 0.0
C638 C 0.94754 0.90019 0.8142 0.0
C639 C 0.98907 0.93263 0.74602 0.0
H640 H 0.0279 0.93944 0.83077 0.0
C641 C 0.07673 0.97935 0.71968 0.0
C642 C 0.0893 0.97222 0.73664 0.0
C643 C 0.05576 0.97007 0.72989 0.0
C644 C 0.01717 0.93735 0.80674 0.0
H645 H 0.92132 0.9279 0.76203 0.0
H646 H 0.95913 0.94467 0.76355 0.0
H647 H 0.99088 0.92495 0.84682 0.0
H648 H 0.08991 0.94976 0.77744 0.0
H649 H 0.05288 0.93301 0.79447 0.0
H650 H 0.01486 0.94451 0.7057 0.0
C651 C 0.95003 0.92972 0.77819 0.0
C652 C 0.99606 0.92918 0.816 0.0
C653 C 0.92845 0.9202 0.77752 0.0
C654 C 0.08048 0.95547 0.76377 0.0
C655 C 0.05937 0.94604 0.77382 0.0
C656 C 0.00997 0.94056 0.73674 0.0
C657 C 0.95973 0.91932 0.79455 0.0
C658 C 0.98196 0.92717 0.78577 0.0
C659 C 0.04679 0.95326 0.75696 0.0
C660 C 0.02435 0.9434 0.76703 0.0
H661 H 0.91654 0.87513 0.82595 0.0
H662 H 0.95471 0.89189 0.82701 0.0
H663 H 0.97839 0.93068 0.72192 0.0
H664 H 0.0832 0.99243 0.69914 0.0
H665 H 0.04663 0.97631 0.717 0.0
C666 C 0.95356 0.89103 0.23792 0.0
C667 C 0.96986 0.89935 0.26613 0.0
C668 C 0.94463 0.9027 0.22486 0.0
C669 C 0.95526 0.95681 0.21849 0.0
H670 H 0.89519 0.93191 0.21813 0.0
C671 C 0.91396 1.00283 0.24461 0.0
C672 C 0.895 0.997 0.22529 0.0
C673 C 0.92415 0.99166 0.23823 0.0
C674 C 0.91198 0.93899 0.21708 0.0
H675 H 0.98961 0.92628 0.30287 0.0
H676 H 0.97394 0.94653 0.2805 0.0
H677 H 0.91066 0.91015 0.23037 0.0
H678 H 0.87226 0.97561 0.18271 0.0
H679 H 0.8901 0.95573 0.17165 0.0
H680 H 0.95661 0.98577 0.20681 0.0
C681 C 0.96819 0.93113 0.26803 0.0
C682 C 0.92083 0.92654 0.22425 0.0
C683 C 0.97701 0.91945 0.2812 0.0
C684 C 0.88694 0.98046 0.19769 0.0
C685 C 0.89705 0.96903 0.19167 0.0
C686 C 0.94643 0.96923 0.21132 0.0
C687 C 0.95198 0.92295 0.23957 0.0
C688 C 0.94257 0.93546 0.22635 0.0
C689 C 0.91551 0.97425 0.21268 0.0
C690 C 0.92471 0.96057 0.21187 0.0
H691 H 0.94785 0.8756 0.22565 0.0
H692 H 0.93221 0.89603 0.20282 0.0
H693 H 0.97207 0.96403 0.21903 0.0
H694 H 0.92053 0.01559 0.26594 0.0
H695 H 0.9382 0.99596 0.25522 0.0
C696 C 0.12183 0.07974 0.29759 0.0
C697 C 0.13378 0.09482 0.26873 0.0
C698 C 0.10982 0.05888 0.28657 0.0
C699 C 0.10354 0.02132 0.20685 0.0
H700 H 0.05029 0.9878 0.25947 0.0
C701 C 0.06047 0.93176 0.21119 0.0
C702 C 0.0388 0.92099 0.21576 0.0
C703 C 0.07137 0.95346 0.20897 0.0
C704 C 0.06491 0.99694 0.24377 0.0
H705 H 0.14254 0.1001 0.20572 0.0
H706 H 0.1212 0.06367 0.18618 0.0
H707 H 0.0704 0.02471 0.27349 0.0
H708 H 0.01122 0.92376 0.21891 0.0
H709 H 0.03002 0.96159 0.2129 0.0
H710 H 0.09781 0.9935 0.17657 0.0
C711 C 0.1214 0.06785 0.2175 0.0
C712 C 0.07665 0.0181 0.25245 0.0
C713 C 0.13357 0.08871 0.22863 0.0
C714 C 0.02796 0.9319 0.21511 0.0
C715 C 0.03878 0.95354 0.21222 0.0
C716 C 0.09168 1.00012 0.19785 0.0
C717 C 0.10933 0.05269 0.24633 0.0
C718 C 0.09629 0.03048 0.23474 0.0
C719 C 0.06069 0.96465 0.21104 0.0
C720 C 0.07236 0.98759 0.21671 0.0
H721 H 0.12178 0.08405 0.32875 0.0
H722 H 0.10105 0.04758 0.30973 0.0
H723 H 0.11866 0.03036 0.19282 0.0
H724 H 0.06907 0.92354 0.21245 0.0
H725 H 0.08821 0.96144 0.20853 0.0
C726 C 0.10009 0.1237 0.22063 0.0
C727 C 0.11278 0.14516 0.2264 0.0
C728 C 0.07847 0.11481 0.2195 0.0
C729 C 0.03948 0.12342 0.26566 0.0
H730 H 1.0003 0.07974 0.19492 0.0
C731 C 0.95357 0.0696 0.30766 0.0
C732 C 0.93886 0.06659 0.27801 0.0
C733 C 0.97473 0.07973 0.29819 0.0
C734 C 0.0111 0.09202 0.21471 0.0
H735 H 0.11351 0.1744 0.23419 0.0
H736 H 0.0756 0.15888 0.23243 0.0
H737 H 0.03768 0.09708 0.18017 0.0
H738 H 0.93452 0.0715 0.2152 0.0
H739 H 0.97159 0.0892 0.19862 0.0
H740 H 0.01309 0.11815 0.30068 0.0
C741 C 0.08226 0.14895 0.22841 0.0
C742 C 0.03241 0.10184 0.20637 0.0
C743 C 0.10385 0.15782 0.22909 0.0
C744 C 0.9456 0.07378 0.23869 0.0
C745 C 0.96674 0.08373 0.22912 0.0
C746 C 0.01827 0.11346 0.27424 0.0
C747 C 0.06938 0.1273 0.22494 0.0
C748 C 0.04675 0.11761 0.23182 0.0
C749 C 0.98148 0.08684 0.25882 0.0
C750 C 1.0039 0.09763 0.24896 0.0
H751 H 0.10684 0.11372 0.21924 0.0
H752 H 0.06886 0.09807 0.21713 0.0
H753 H 0.05026 0.13531 0.28613 0.0
H754 H 0.94874 0.06405 0.33812 0.0
H755 H 0.98579 0.08176 0.32152 0.0
C756 C 0.81111 0.39384 0.1465 0.0
C757 C 0.80048 0.3735 0.13127 0.0
C758 C 0.8013 0.40575 0.14731 0.0
C759 C 0.7632 0.40955 0.08584 0.0
H760 H 0.76489 0.44884 0.16465 0.0
C761 C 0.71776 0.45187 0.06121 0.0
C762 C 0.72666 0.47263 0.07367 0.0
C763 C 0.72698 0.44018 0.07154 0.0
C764 C 0.76454 0.43811 0.14217 0.0
H765 H 0.77104 0.34881 0.10904 0.0
H766 H 0.7537 0.36929 0.11132 0.0
H767 H 0.77984 0.42689 0.18125 0.0
H768 H 0.75232 0.49763 0.10616 0.0
H769 H 0.76901 0.47736 0.123 0.0
H770 H 0.74859 0.42091 0.04626 0.0
C771 C 0.76965 0.37627 0.12176 0.0
C772 C 0.77297 0.4255 0.15181 0.0
C773 C 0.77947 0.36452 0.12066 0.0
C774 C 0.74517 0.48163 0.09615 0.0
C775 C 0.75459 0.46997 0.10612 0.0
C776 C 0.75503 0.42221 0.0761 0.0
C777 C 0.78081 0.39732 0.13294 0.0
C778 C 0.77206 0.41089 0.12387 0.0
C779 C 0.74554 0.44907 0.09401 0.0
C780 C 0.75531 0.43645 0.10426 0.0
H781 H 0.82745 0.40108 0.15434 0.0
H782 H 0.81024 0.42196 0.15601 0.0
H783 H 0.76284 0.39884 0.06327 0.0
H784 H 0.70337 0.44447 0.04417 0.0
H785 H 0.71932 0.42402 0.06241 0.0
C786 C 0.63867 0.44138 0.15529 0.0
C787 C 0.65721 0.44987 0.13302 0.0
C788 C 0.62634 0.41977 0.1596 0.0
C789 C 0.62617 0.37004 0.14402 0.0
H790 H 0.56933 0.34895 0.10817 0.0
C791 C 0.57944 0.2915 0.06494 0.0
C792 C 0.55885 0.2783 0.07748 0.0
C793 C 0.59056 0.31193 0.07888 0.0
C794 C 0.58505 0.35457 0.11885 0.0
H795 H 0.67831 0.44295 0.10067 0.0
H796 H 0.65719 0.40556 0.10847 0.0
H797 H 0.59105 0.38578 0.12464 0.0
H798 H 0.53347 0.27621 0.1134 0.0
H799 H 0.55288 0.31225 0.13714 0.0
H800 H 0.62047 0.33903 0.13631 0.0
C801 C 0.65197 0.41528 0.1226 0.0
C802 C 0.59746 0.37562 0.12853 0.0
C803 C 0.66405 0.43671 0.11789 0.0
C804 C 0.54934 0.28609 0.10324 0.0
C805 C 0.56041 0.30666 0.11684 0.0
C806 C 0.61383 0.34906 0.13413 0.0
C807 C 0.63262 0.4065 0.14223 0.0
C808 C 0.61835 0.38369 0.14004 0.0
C809 C 0.58124 0.31965 0.10529 0.0
C810 C 0.59336 0.34126 0.12034 0.0
H811 H 0.63305 0.45129 0.16693 0.0
H812 H 0.61156 0.41341 0.17512 0.0
H813 H 0.64211 0.37574 0.15338 0.0
H814 H 0.58714 0.28591 0.04504 0.0
H815 H 0.60648 0.32173 0.06892 0.0
C816 C 0.74757 0.2876 0.09788 0.0
C817 C 0.75593 0.30534 0.07326 0.0
C818 C 0.7269 0.27824 0.11087 0.0
C819 C 0.68515 0.29013 0.1285 0.0
H820 H 0.6477 0.23073 0.11798 0.0
C821 C 0.5973 0.25313 0.11278 0.0
C822 C 0.58412 0.23326 0.12849 0.0
C823 C 0.61878 0.26242 0.11703 0.0
C824 C 0.65807 0.24727 0.1221 0.0
H825 H 0.74924 0.32696 0.04211 0.0
H826 H 0.7132 0.31066 0.06478 0.0
H827 H 0.68451 0.24553 0.10148 0.0
H828 H 0.58273 0.20774 0.16239 0.0
H829 H 0.62062 0.22401 0.16984 0.0
H830 H 0.65866 0.292 0.14792 0.0
C831 C 0.72264 0.30409 0.07437 0.0
C832 C 0.67911 0.25574 0.11244 0.0
C833 C 0.74318 0.31328 0.06106 0.0
C834 C 0.59264 0.22323 0.15059 0.0
C835 C 0.61427 0.23243 0.15442 0.0
C836 C 0.66417 0.28167 0.13829 0.0
C837 C 0.71437 0.28664 0.09979 0.0
C838 C 0.69269 0.27732 0.11441 0.0
C839 C 0.62754 0.25187 0.13664 0.0
C840 C 0.65029 0.26024 0.13404 0.0
H841 H 0.75711 0.28119 0.10775 0.0
H842 H 0.7209 0.26479 0.13042 0.0
H843 H 0.6954 0.30678 0.13109 0.0
H844 H 0.59102 0.26108 0.09553 0.0
H845 H 0.62854 0.27729 0.10259 0.0
C846 C 0.57991 0.33519 0.56101 0.0
C847 C 0.55862 0.327 0.55363 0.0
C848 C 0.5888 0.3226 0.55736 0.0
C849 C 0.57469 0.2701 0.57763 0.0
H850 H 0.62783 0.28415 0.52973 0.0
C851 C 0.62575 0.23672 0.63228 0.0
C852 C 0.63335 0.22892 0.60237 0.0
C853 C 0.61563 0.24758 0.62158 0.0
C854 C 0.61289 0.27998 0.54297 0.0
H855 H 0.52994 0.29977 0.53517 0.0
H856 H 0.54542 0.2774 0.52981 0.0
H857 H 0.61201 0.30552 0.51489 0.0
H858 H 0.63662 0.22645 0.53799 0.0
H859 H 0.6192 0.24579 0.51937 0.0
H860 H 0.57597 0.24514 0.60713 0.0
C861 C 0.55527 0.29364 0.53765 0.0
C862 C 0.6039 0.29217 0.53453 0.0
C863 C 0.54649 0.3064 0.5404 0.0
C864 C 0.63075 0.23219 0.56163 0.0
C865 C 0.62093 0.24333 0.55096 0.0
C866 C 0.58384 0.25814 0.58661 0.0
C867 C 0.57636 0.30151 0.54726 0.0
C868 C 0.5848 0.2874 0.55203 0.0
C869 C 0.61326 0.25108 0.58084 0.0
C870 C 0.6031 0.26309 0.56966 0.0
H871 H 0.58942 0.35103 0.57152 0.0
H872 H 0.60505 0.32898 0.5652 0.0
H873 H 0.5601 0.26632 0.59199 0.0
H874 H 0.62767 0.23447 0.66389 0.0
H875 H 0.61003 0.25361 0.64516 0.0
C876 C 0.78379 0.41264 0.61634 0.0
C877 C 0.80323 0.42633 0.59928 0.0
C878 C 0.77205 0.39235 0.60207 0.0
C879 C 0.77595 0.35093 0.55204 0.0
H880 H 0.71637 0.32732 0.53901 0.0
C881 C 0.72126 0.26289 0.52802 0.0
C882 C 0.70527 0.2547 0.55683 0.0
C883 C 0.7327 0.2844 0.52133 0.0
C884 C 0.73301 0.33373 0.54222 0.0
H885 H 0.82587 0.42955 0.55439 0.0
H886 H 0.8054 0.39371 0.52983 0.0
H887 H 0.73831 0.36446 0.55203 0.0
H888 H 0.68755 0.26208 0.59887 0.0
H889 H 0.70724 0.29925 0.58724 0.0
H890 H 0.77049 0.31999 0.54441 0.0
C891 C 0.79925 0.39881 0.55409 0.0
C892 C 0.74553 0.35494 0.54979 0.0
C893 C 0.81094 0.41924 0.56816 0.0
C894 C 0.69995 0.26805 0.57675 0.0
C895 C 0.71113 0.28934 0.56977 0.0
C896 C 0.76338 0.32964 0.54466 0.0
C897 C 0.77959 0.38527 0.57063 0.0
C898 C 0.767 0.36359 0.55621 0.0
C899 C 0.72799 0.29784 0.54286 0.0
C900 C 0.74168 0.32072 0.5412 0.0
H901 H 0.77746 0.41771 0.64033 0.0
H902 H 0.75711 0.38211 0.61589 0.0
H903 H 0.79247 0.35722 0.55696 0.0
H904 H 0.72563 0.25286 0.51235 0.0
H905 H 0.74557 0.29057 0.50027 0.0
C906 C 0.7702 0.48179 0.53405 0.0
C907 C 0.77875 0.47201 0.55686 0.0
C908 C 0.74858 0.47239 0.52968 0.0
C909 C 0.69898 0.42282 0.54388 0.0
H910 H 0.67735 0.45795 0.58014 0.0
C911 C 0.61896 0.38939 0.61771 0.0
C912 C 0.60632 0.39765 0.60672 0.0
C913 C 0.63953 0.39876 0.60452 0.0
C914 C 0.6831 0.44802 0.56926 0.0
H915 H 0.77186 0.44441 0.59072 0.0
H916 H 0.73436 0.42785 0.58257 0.0
H917 H 0.71441 0.47341 0.56535 0.0
H918 H 0.60526 0.42233 0.57403 0.0
H919 H 0.64148 0.43896 0.55132 0.0
H920 H 0.66784 0.39733 0.54925 0.0
C921 C 0.74413 0.44269 0.56806 0.0
C922 C 0.70429 0.45687 0.56062 0.0
C923 C 0.76559 0.4522 0.57292 0.0
C924 C 0.61473 0.4157 0.58299 0.0
C925 C 0.63541 0.42519 0.57002 0.0
C926 C 0.67783 0.41398 0.55252 0.0
C927 C 0.73534 0.45296 0.54752 0.0
C928 C 0.71253 0.44426 0.54898 0.0
C929 C 0.64793 0.41665 0.58027 0.0
C930 C 0.6698 0.42641 0.56643 0.0
H931 H 0.78007 0.49722 0.52194 0.0
H932 H 0.74218 0.4806 0.51362 0.0
H933 H 0.70488 0.41278 0.53449 0.0
H934 H 0.61286 0.37545 0.63593 0.0
H935 H 0.64893 0.39204 0.61352 0.0
C936 C 0.47747 0.72677 0.47565 0.0
C937 C 0.46633 0.70584 0.46401 0.0
C938 C 0.46756 0.73856 0.47682 0.0
C939 C 0.44222 0.76034 0.48362 0.0
H940 H 0.40394 0.747 0.39423 0.0
C941 C 0.39783 0.80457 0.45299 0.0
C942 C 0.39444 0.80767 0.41262 0.0
C943 C 0.40657 0.79228 0.46262 0.0
C944 C 0.41475 0.75111 0.41909 0.0
H945 H 0.43609 0.68019 0.44793 0.0
H946 H 0.41841 0.7003 0.45222 0.0
H947 H 0.41852 0.72495 0.40817 0.0
H948 H 0.39808 0.80103 0.35061 0.0
H949 H 0.414 0.78016 0.36721 0.0
H950 H 0.43918 0.78719 0.49301 0.0
C951 C 0.4349 0.70797 0.45891 0.0
C952 C 0.42282 0.73817 0.42767 0.0
C953 C 0.44489 0.69635 0.45695 0.0
C954 C 0.40045 0.79879 0.38199 0.0
C955 C 0.4094 0.78669 0.39158 0.0
C956 C 0.43426 0.77343 0.47476 0.0
C957 C 0.44632 0.72947 0.46676 0.0
C958 C 0.43672 0.74262 0.45995 0.0
C959 C 0.41225 0.783 0.43204 0.0
C960 C 0.42056 0.76904 0.44216 0.0
H961 H 0.49413 0.7344 0.48058 0.0
H962 H 0.4769 0.75507 0.48275 0.0
H963 H 0.45276 0.76418 0.50885 0.0
H964 H 0.39317 0.81114 0.47722 0.0
H965 H 0.40829 0.78958 0.49407 0.0
C966 C 0.32875 0.76948 0.44154 0.0
C967 C 0.32328 0.78267 0.46164 0.0
C968 C 0.3175 0.74812 0.44774 0.0
C969 C 0.26502 0.70739 0.47211 0.0
H970 H 0.29028 0.67278 0.46364 0.0
C971 C 0.21769 0.61752 0.45099 0.0
C972 C 0.22501 0.6103 0.41944 0.0
C973 C 0.22944 0.63809 0.46437 0.0
C974 C 0.28301 0.68224 0.46616 0.0
H975 H 0.30251 0.78411 0.50564 0.0
H976 H 0.28248 0.7463 0.5165 0.0
H977 H 0.31216 0.70993 0.47652 0.0
H978 H 0.25021 0.61881 0.37697 0.0
H979 H 0.27073 0.6546 0.40039 0.0
H980 H 0.23591 0.67967 0.46052 0.0
C981 C 0.29552 0.75264 0.49581 0.0
C982 C 0.2955 0.70348 0.47361 0.0
C983 C 0.30702 0.77422 0.48987 0.0
C984 C 0.24419 0.62396 0.40138 0.0
C985 C 0.25601 0.64439 0.415 0.0
C986 C 0.25248 0.68606 0.46492 0.0
C987 C 0.30039 0.73936 0.47408 0.0
C988 C 0.28675 0.71642 0.47515 0.0
C989 C 0.24881 0.65164 0.44674 0.0
C990 C 0.26147 0.67346 0.46045 0.0
H991 H 0.34135 0.77564 0.41981 0.0
H992 H 0.32154 0.73839 0.4301 0.0
H993 H 0.25783 0.71696 0.47274 0.0
H994 H 0.20295 0.60726 0.46548 0.0
H995 H 0.22356 0.64331 0.48888 0.0
C996 C 0.26254 0.58436 0.43737 0.0
C997 C 0.24934 0.56563 0.45724 0.0
C998 C 0.28401 0.59397 0.44204 0.0
C999 C 0.32379 0.58033 0.45817 0.0
H1000 H 0.36028 0.64018 0.45799 0.0
C1001 C 0.41339 0.62063 0.43584 0.0
C1002 C 0.42161 0.63729 0.40848 0.0
C1003 C 0.39271 0.61167 0.44861 0.0
C1004 C 0.35027 0.62343 0.45799 0.0
H1005 H 0.24808 0.54255 0.49861 0.0
H1006 H 0.28598 0.55929 0.50655 0.0
H1007 H 0.3233 0.62554 0.47237 0.0
H1008 H 0.41472 0.65744 0.37251 0.0
H1009 H 0.37866 0.64174 0.39452 0.0
H1010 H 0.35067 0.57827 0.4423 0.0
C1011 C 0.27958 0.56658 0.48762 0.0
C1012 C 0.32916 0.61507 0.46641 0.0
C1013 C 0.25795 0.55711 0.4834 0.0
C1014 C 0.40876 0.64458 0.39354 0.0
C1015 C 0.3882 0.63575 0.4065 0.0
C1016 C 0.34495 0.5887 0.44977 0.0
C1017 C 0.2928 0.58488 0.46625 0.0
C1018 C 0.3156 0.59347 0.46535 0.0
C1019 C 0.38003 0.61937 0.43449 0.0
C1020 C 0.35824 0.61035 0.44838 0.0
H1021 H 0.25628 0.59122 0.41699 0.0
H1022 H 0.29377 0.60791 0.42478 0.0
H1023 H 0.31365 0.56362 0.45667 0.0
H1024 H 0.42303 0.61479 0.44792 0.0
H1025 H 0.3868 0.59907 0.47023 0.0
C1026 C 0.31076 0.58753 0.95282 0.0
C1027 C 0.30494 0.56863 0.93338 0.0
C1028 C 0.30238 0.59977 0.94065 0.0
C1029 C 0.25752 0.59748 0.88992 0.0
H1030 H 0.29332 0.6574 0.88634 0.0
C1031 C 0.22417 0.65206 0.86561 0.0
C1032 C 0.23047 0.66708 0.89616 0.0
C1033 C 0.23476 0.64107 0.85986 0.0
C1034 C 0.28315 0.64068 0.887 0.0
H1035 H 0.2857 0.54754 0.88625 0.0
H1036 H 0.27085 0.56892 0.86512 0.0
H1037 H 0.3085 0.63536 0.8978 0.0
H1038 H 0.25355 0.68359 0.94251 0.0
H1039 H 0.27201 0.66472 0.93239 0.0
H1040 H 0.23207 0.60287 0.88072 0.0
C1041 C 0.28189 0.57424 0.88978 0.0
C1042 C 0.29182 0.62808 0.89372 0.0
C1043 C 0.29037 0.56203 0.90186 0.0
C1044 C 0.24828 0.67196 0.91892 0.0
C1045 C 0.25896 0.66125 0.91288 0.0
C1046 C 0.24883 0.61011 0.88324 0.0
C1047 C 0.28795 0.59333 0.90885 0.0
C1048 C 0.27903 0.6064 0.8965 0.0
C1049 C 0.25198 0.64527 0.88414 0.0
C1050 C 0.2615 0.63187 0.883 0.0
H1051 H 0.32199 0.593 0.97718 0.0
H1052 H 0.30707 0.61422 0.95642 0.0
H1053 H 0.24727 0.58081 0.89207 0.0
H1054 H 0.21045 0.64801 0.8478 0.0
H1055 H 0.22913 0.62891 0.83732 0.0
C1056 C 0.36662 0.60204 0.89931 0.0
C1057 C 0.3738 0.58897 0.88524 0.0
C1058 C 0.37858 0.62346 0.89428 0.0
C1059 C 0.43274 0.66342 0.89133 0.0
H1060 H 0.4095 0.6995 0.87655 0.0
C1061 C 0.47986 0.75277 0.91685 0.0
C1062 C 0.46945 0.76077 0.93943 0.0
C1063 C 0.46918 0.73221 0.90319 0.0
C1064 C 0.41621 0.68961 0.88076 0.0
H1065 H 0.39851 0.58766 0.85321 0.0
H1066 H 0.41987 0.62557 0.84477 0.0
H1067 H 0.38856 0.66262 0.86014 0.0
H1068 H 0.43989 0.75363 0.96589 0.0
H1069 H 0.42129 0.71776 0.94226 0.0
H1070 H 0.46012 0.69032 0.91338 0.0
C1071 C 0.40486 0.61912 0.85945 0.0
C1072 C 0.40427 0.66856 0.87117 0.0
C1073 C 0.39263 0.59751 0.86393 0.0
C1074 C 0.4483 0.74784 0.94861 0.0
C1075 C 0.43761 0.72738 0.93471 0.0
C1076 C 0.44471 0.68453 0.90086 0.0
C1077 C 0.39815 0.6323 0.87557 0.0
C1078 C 0.41217 0.65512 0.87755 0.0
C1079 C 0.44788 0.71941 0.91157 0.0
C1080 C 0.4363 0.69768 0.89683 0.0
H1081 H 0.35216 0.59576 0.9159 0.0
H1082 H 0.37306 0.63314 0.90746 0.0
H1083 H 0.43914 0.6534 0.89709 0.0
H1084 H 0.49616 0.76247 0.90929 0.0
H1085 H 0.47746 0.72646 0.88538 0.0
C1086 C 0.43353 0.78516 0.88927 0.0
C1087 C 0.44534 0.80686 0.88695 0.0
C1088 C 0.41189 0.77512 0.88669 0.0
C1089 C 0.36931 0.76108 0.91917 0.0
H1090 H 0.3372 0.78162 0.864 0.0
C1091 C 0.28751 0.73903 0.97276 0.0
C1092 C 0.27238 0.73509 0.94345 0.0
C1093 C 0.30836 0.74764 0.9618 0.0
C1094 C 0.34588 0.77551 0.87929 0.0
H1095 H 0.44445 0.83522 0.87819 0.0
H1096 H 0.40655 0.81788 0.87511 0.0
H1097 H 0.37365 0.79539 0.84633 0.0
H1098 H 0.26701 0.73709 0.87984 0.0
H1099 H 0.30336 0.75163 0.86048 0.0
H1100 H 0.34153 0.74087 0.95141 0.0
C1101 C 0.41379 0.8084 0.87766 0.0
C1102 C 0.36684 0.78356 0.86943 0.0
C1103 C 0.43549 0.81838 0.87943 0.0
C1104 C 0.27845 0.74018 0.90309 0.0
C1105 C 0.29927 0.74856 0.89203 0.0
C1106 C 0.34836 0.75289 0.92866 0.0
C1107 C 0.40171 0.78671 0.88298 0.0
C1108 C 0.37889 0.77666 0.8897 0.0
C1109 C 0.31445 0.75218 0.92121 0.0
C1110 C 0.33648 0.76027 0.90942 0.0
H1111 H 0.44098 0.77609 0.89512 0.0
H1112 H 0.40312 0.75836 0.88974 0.0
H1113 H 0.37811 0.75561 0.93604 0.0
H1114 H 0.2832 0.73528 1.0041 0.0
H1115 H 0.3197 0.75066 0.98519 0.0
C1116 C 0.2089 0.05152 0.61388 0.0
C1117 C 0.19692 0.05205 0.64618 0.0
C1118 C 0.21461 0.06586 0.58204 0.0
C1119 C 0.2188 0.11645 0.5536 0.0
H1120 H 0.20761 0.09425 0.44504 0.0
C1121 C 0.20183 0.15649 0.42265 0.0
C1122 C 0.20858 0.15563 0.38361 0.0
C1123 C 0.20504 0.14614 0.45456 0.0
C1124 C 0.21122 0.10085 0.47505 0.0
H1125 H 0.18241 0.06862 0.67126 0.0
H1126 H 0.19256 0.09359 0.61666 0.0
H1127 H 0.20511 0.07195 0.50139 0.0
H1128 H 0.2241 0.14339 0.34713 0.0
H1129 H 0.22983 0.12515 0.40312 0.0
H1130 H 0.22432 0.14514 0.52757 0.0
C1131 C 0.19759 0.08221 0.61555 0.0
C1132 C 0.20979 0.08803 0.50742 0.0
C1133 C 0.19168 0.0678 0.64688 0.0
C1134 C 0.21916 0.14465 0.37717 0.0
C1135 C 0.22217 0.134 0.40913 0.0
C1136 C 0.22024 0.12924 0.52133 0.0
C1137 C 0.20876 0.08123 0.58224 0.0
C1138 C 0.21307 0.09553 0.54725 0.0
C1139 C 0.21482 0.13434 0.44815 0.0
C1140 C 0.216 0.1215 0.48169 0.0
H1141 H 0.21295 0.03942 0.61225 0.0
H1142 H 0.22332 0.06473 0.55696 0.0
H1143 H 0.2218 0.12288 0.58375 0.0
H1144 H 0.19335 0.16457 0.42823 0.0
H1145 H 0.1989 0.14657 0.4839 0.0
C1146 C 0.98127 0.17944 0.61599 0.0
C1147 C 0.98126 0.16691 0.64773 0.0
C1148 C 0.96657 0.17072 0.58464 0.0
C1149 C 0.91593 0.12355 0.55768 0.0
H1150 H 0.93635 0.13558 0.4479 0.0
C1151 C 0.87661 0.06607 0.42711 0.0
C1152 C 0.87567 0.07354 0.3888 0.0
C1153 C 0.88695 0.07981 0.45882 0.0
C1154 C 0.93027 0.13231 0.47832 0.0
H1155 H 0.96523 0.13569 0.67235 0.0
H1156 H 0.93981 0.12072 0.61862 0.0
H1157 H 0.95928 0.15577 0.50346 0.0
H1158 H 0.88471 0.10123 0.3535 0.0
H1159 H 0.90316 0.12552 0.40913 0.0
H1160 H 0.88723 0.09958 0.53279 0.0
C1161 C 0.951 0.13721 0.61753 0.0
C1162 C 0.94343 0.14391 0.51022 0.0
C1163 C 0.96572 0.14581 0.64835 0.0
C1164 C 0.88484 0.09509 0.38302 0.0
C1165 C 0.8956 0.10895 0.4147 0.0
C1166 C 0.90285 0.11194 0.52591 0.0
C1167 C 0.95138 0.1494 0.58482 0.0
C1168 C 0.9366 0.13931 0.55044 0.0
C1169 C 0.89703 0.10145 0.45286 0.0
C1170 C 0.90999 0.1158 0.48588 0.0
H1171 H 0.99315 0.19571 0.61446 0.0
H1172 H 0.96725 0.1806 0.56002 0.0
H1173 H 0.90996 0.11982 0.58814 0.0
H1174 H 0.86994 0.04953 0.43215 0.0
H1175 H 0.88793 0.07345 0.48755 0.0
C1176 C 0.887 0.84497 0.64848 0.0
C1177 C 0.86569 0.83855 0.64703 0.0
C1178 C 0.89655 0.84047 0.61701 0.0
C1179 C 0.88974 0.80918 0.52617 0.0
H1180 H 0.94048 0.85881 0.49362 0.0
C1181 C 0.93881 0.81564 0.38166 0.0
C1182 C 0.96044 0.82895 0.38474 0.0
C1183 C 0.92568 0.81373 0.41401 0.0
C1184 C 0.92655 0.84466 0.50254 0.0
H1185 H 0.83737 0.82113 0.61236 0.0
H1186 H 0.85425 0.81315 0.55668 0.0
H1187 H 0.92017 0.86057 0.54897 0.0
H1188 H 0.98544 0.84941 0.42462 0.0
H1189 H 0.96294 0.8454 0.48121 0.0
H1190 H 0.89643 0.79328 0.47947 0.0
C1191 C 0.86347 0.8217 0.58254 0.0
C1192 C 0.91482 0.84572 0.5343 0.0
C1193 C 0.8538 0.8262 0.61442 0.0
C1194 C 0.9688 0.83912 0.42141 0.0
C1195 C 0.95583 0.837 0.45368 0.0
C1196 C 0.90166 0.80808 0.49424 0.0
C1197 C 0.88514 0.82948 0.58291 0.0
C1198 C 0.89647 0.82797 0.54709 0.0
C1199 C 0.93404 0.82501 0.44997 0.0
C1200 C 0.92046 0.82577 0.48254 0.0
H1201 H 0.89658 0.85428 0.6734 0.0
H1202 H 0.91314 0.84627 0.61876 0.0
H1203 H 0.87564 0.79525 0.53524 0.0
H1204 H 0.93197 0.80783 0.35349 0.0
H1205 H 0.90899 0.80435 0.41002 0.0
C1206 C 0.06232 0.19925 0.89181 0.0
C1207 C 0.05768 0.21513 0.88416 0.0
C1208 C 0.07745 0.202 0.92022 0.0
C1209 C 0.10434 0.23223 0.0111 0.0
H1210 H 0.14169 0.21085 0.99166 0.0
C1211 C 0.14841 0.21783 0.13897 0.0
C1212 C 0.16891 0.22207 0.13229 0.0
C1213 C 0.13668 0.21958 0.10785 0.0
C1214 C 0.13155 0.21713 0.99745 0.0
H1215 H 0.06558 0.24648 0.90062 0.0
H1216 H 0.09191 0.25122 0.95044 0.0
H1217 H 0.11795 0.20884 0.93853 0.0
H1218 H 0.19325 0.23198 0.08739 0.0
H1219 H 0.17265 0.23499 0.03271 0.0
H1220 H 0.11775 0.2403 0.07015 0.0
C1221 C 0.08376 0.23659 0.93438 0.0
C1222 C 0.11776 0.21577 0.96711 0.0
C1223 C 0.06874 0.23392 0.90561 0.0
C1224 C 0.17758 0.22871 0.0937 0.0
C1225 C 0.16569 0.23024 0.06228 0.0
C1226 C 0.11801 0.23344 0.04152 0.0
C1227 C 0.0883 0.22064 0.94213 0.0
C1228 C 0.10382 0.22312 0.97364 0.0
C1229 C 0.145 0.22547 0.06889 0.0
C1230 C 0.13166 0.22572 0.03529 0.0
H1231 H 0.0542 0.18456 0.8759 0.0
H1232 H 0.08031 0.18927 0.92566 0.0
H1233 H 0.09375 0.2379 0.01739 0.0
H1234 H 0.14115 0.21265 0.16822 0.0
H1235 H 0.12077 0.21555 0.11406 0.0
C1236 C 0.79717 0.96295 0.10537 0.0
C1237 C 0.81495 0.97198 0.13019 0.0
C1238 C 0.79562 0.94987 0.07311 0.0
C1239 C 0.82817 0.94037 1.00312 0.0
H1240 H 0.78319 0.88331 0.99439 0.0
C1241 C 0.83685 0.88203 0.90319 0.0
C1242 C 0.81945 0.8662 0.88295 0.0
C1243 C 0.83463 0.89478 0.93136 0.0
C1244 C 0.79571 0.89931 0.99581 0.0
H1245 H 0.84519 0.97476 0.13954 0.0
H1246 H 0.84262 0.95264 0.08358 0.0
H1247 H 0.78172 0.90617 0.04591 0.0
H1248 H 0.78593 0.85143 0.87699 0.0
H1249 H 0.78208 0.87407 0.92552 0.0
H1250 H 0.8422 0.93393 0.95322 0.0
C1251 C 0.82976 0.9553 0.0892 0.0
C1252 C 0.79483 0.91239 0.02543 0.0
C1253 C 0.83113 0.96788 0.12159 0.0
C1254 C 0.79968 0.86343 0.89198 0.0
C1255 C 0.79748 0.87639 0.92004 0.0
C1256 C 0.82892 0.92747 0.9733 0.0
C1257 C 0.81205 0.94612 0.06452 0.0
C1258 C 0.8113 0.93292 0.02997 0.0
C1259 C 0.81497 0.89238 0.94 0.0
C1260 C 0.813 0.90655 0.96975 0.0
H1261 H 0.78448 0.96583 0.11109 0.0
H1262 H 0.78178 0.94302 0.05446 0.0
H1263 H 0.84099 0.9562 1.00557 0.0
H1264 H 0.85232 0.88456 0.89751 0.0
H1265 H 0.84846 0.90644 0.94671 0.0
C1266 C 0.17709 0.97115 0.91634 0.0
C1267 C 0.16787 0.97571 0.88387 0.0
C1268 C 0.16469 0.95661 0.94573 0.0
C1269 C 0.11551 0.91014 0.96504 0.0
H1270 H 0.11895 0.93019 0.07404 0.0
C1271 C 0.05681 0.85854 0.08926 0.0
C1272 C 0.06274 0.86287 0.12984 0.0
C1273 C 0.0702 0.8712 0.05856 0.0
C1274 C 0.11802 0.924 0.04414 0.0
H1275 H 0.13846 0.96813 0.85615 0.0
H1276 H 0.11687 0.94208 0.90661 0.0
H1277 H 0.14146 0.95384 0.02213 0.0
H1278 H 0.08771 0.88303 0.17005 0.0
H1279 H 0.11161 0.90395 0.11702 0.0
H1280 H 0.09274 0.88013 0.98679 0.0
C1281 C 0.13366 0.95004 0.9096 0.0
C1282 C 0.13088 0.93774 0.01425 0.0
C1283 C 0.14601 0.96499 0.88085 0.0
C1284 C 0.08271 0.87935 0.13898 0.0
C1285 C 0.09631 0.8916 0.10838 0.0
C1286 C 0.10299 0.89619 0.99515 0.0
C1287 C 0.14286 0.94591 0.9426 0.0
C1288 C 0.12967 0.931 0.97439 0.0
C1289 C 0.09008 0.88823 0.06762 0.0
C1290 C 0.10392 0.90289 0.03529 0.0
H1291 H 0.19386 0.97927 0.91965 0.0
H1292 H 0.17214 0.95371 0.97095 0.0
H1293 H 0.11434 0.90455 0.93447 0.0
H1294 H 0.04135 0.84615 0.08139 0.0
H1295 H 0.06449 0.86805 0.02792 0.0
C1296 C 0.8298 0.88256 0.59361 0.0
C1297 C 0.81981 0.87996 0.63084 0.0
C1298 C 0.82604 0.89242 0.56158 0.0
C1299 C 0.81247 0.93236 0.54083 0.0
H1300 H 0.8099 0.91418 0.43046 0.0
C1301 C 0.81793 0.98396 0.40321 0.0
C1302 C 0.83201 0.98529 0.37341 0.0
C1303 C 0.81157 0.96889 0.43389 0.0
C1304 C 0.81063 0.91954 0.46107 0.0
H1305 H 0.79781 0.88538 0.6637 0.0
H1306 H 0.79134 0.90303 0.60744 0.0
H1307 H 0.80742 0.89143 0.4856 0.0
H1308 H 0.84965 0.97123 0.35148 0.0
H1309 H 0.83869 0.94533 0.40409 0.0
H1310 H 0.81667 0.96091 0.51616 0.0
C1311 C 0.80193 0.89717 0.60306 0.0
C1312 C 0.80915 0.90644 0.49271 0.0
C1313 C 0.80542 0.88687 0.63506 0.0
C1314 C 0.83882 0.97071 0.37397 0.0
C1315 C 0.83238 0.95568 0.40413 0.0
C1316 C 0.81408 0.94557 0.50906 0.0
C1317 C 0.81246 0.90031 0.56611 0.0
C1318 C 0.81062 0.91289 0.53298 0.0
C1319 C 0.81893 0.9547 0.43492 0.0
C1320 C 0.8138 0.93956 0.46872 0.0
H1321 H 0.84114 0.87758 0.5897 0.0
H1322 H 0.83461 0.89477 0.53383 0.0
H1323 H 0.81384 0.93787 0.5715 0.0
H1324 H 0.81253 0.99506 0.40378 0.0
H1325 H 0.8011 0.96851 0.45702 0.0
C1326 C 0.06302 0.89211 0.3663 0.0
C1327 C 0.04744 0.87105 0.36837 0.0
C1328 C 0.07718 0.90152 0.39768 0.0
C1329 C 0.10064 0.89414 0.48955 0.0
H1330 H 0.10506 0.94669 0.51906 0.0
C1331 C 0.14434 0.94354 0.63302 0.0
C1332 C 0.15389 0.96523 0.62891 0.0
C1333 C 0.13295 0.9304 0.60083 0.0
C1334 C 0.10435 0.93222 0.51097 0.0
H1335 H 0.03539 0.84301 0.40419 0.0
H1336 H 0.06044 0.85964 0.45971 0.0
H1337 H 0.0823 0.92647 0.46431 0.0
H1338 H 0.16031 0.99023 0.5876 0.0
H1339 H 0.14147 0.96761 0.53127 0.0
H1340 H 0.12293 0.90016 0.53658 0.0
C1341 C 0.06157 0.86877 0.43343 0.0
C1342 C 0.09117 0.92055 0.47956 0.0
C1343 C 0.04727 0.85923 0.40163 0.0
C1344 C 0.15313 0.97355 0.59147 0.0
C1345 C 0.14206 0.96054 0.55938 0.0
C1346 C 0.11402 0.90596 0.52116 0.0
C1347 C 0.07619 0.89023 0.43234 0.0
C1348 C 0.08939 0.90155 0.46786 0.0
C1349 C 0.13101 0.93879 0.56407 0.0
C1350 C 0.11634 0.92539 0.53174 0.0
H1351 H 0.06378 0.90161 0.34088 0.0
H1352 H 0.08855 0.91793 0.39537 0.0
H1353 H 0.09956 0.87953 0.48133 0.0
H1354 H 0.1444 0.93676 0.66185 0.0
H1355 H 0.12464 0.91374 0.60557 0.0
C1356 C 0.16538 0.18929 0.42106 0.0
C1357 C 0.16882 0.1991 0.38354 0.0
C1358 C 0.15577 0.19396 0.45219 0.0
C1359 C 0.13778 0.2298 0.48825 0.0
H1360 H 0.09828 0.18024 0.54614 0.0
C1361 C 0.07602 0.22295 0.61028 0.0
C1362 C 0.07458 0.2107 0.64375 0.0
C1363 C 0.08913 0.22506 0.57769 0.0
C1364 C 0.10932 0.19429 0.53047 0.0
H1365 H 0.16539 0.22193 0.34919 0.0
H1366 H 0.14807 0.22999 0.4038 0.0
H1367 H 0.1181 0.17735 0.49108 0.0
H1368 H 0.08685 0.19256 0.67089 0.0
H1369 H 0.10969 0.19649 0.61508 0.0
H1370 H 0.12846 0.24658 0.52814 0.0
C1371 C 0.15326 0.21896 0.40939 0.0
C1372 C 0.12081 0.19265 0.49892 0.0
C1373 C 0.16324 0.21443 0.37818 0.0
C1374 C 0.08752 0.20197 0.64536 0.0
C1375 C 0.10052 0.2041 0.61325 0.0
C1376 C 0.12607 0.23142 0.51998 0.0
C1377 C 0.14878 0.20821 0.44637 0.0
C1378 C 0.13563 0.2104 0.478 0.0
C1379 C 0.10089 0.21493 0.57833 0.0
C1380 C 0.11209 0.2137 0.54208 0.0
H1381 H 0.16934 0.17728 0.42582 0.0
H1382 H 0.15315 0.18578 0.4805 0.0
H1383 H 0.14895 0.24378 0.47265 0.0
H1384 H 0.06606 0.22968 0.60812 0.0
H1385 H 0.08914 0.23353 0.55116 0.0
C1386 C 0.95402 0.80447 0.12972 0.0
C1387 C 0.97232 0.82378 0.1353 0.0
C1388 C 0.9393 0.80207 0.10042 0.0
C1389 C 0.93534 0.82396 1.00417 0.0
H1390 H 0.87655 0.8005 0.02717 0.0
C1391 C 0.88316 0.83555 0.89374 0.0
C1392 C 0.86232 0.81994 0.8876 0.0
C1393 C 0.89512 0.83396 0.92434 0.0
C1394 C 0.89284 0.80675 0.01997 0.0
H1395 H 0.98929 0.85573 0.11426 0.0
H1396 H 0.96396 0.8514 0.06304 0.0
H1397 H 0.90013 0.80137 0.07995 0.0
H1398 H 0.83759 0.7905 0.91007 0.0
H1399 H 0.85887 0.7873 0.96343 0.0
H1400 H 0.92839 0.82908 0.94439 0.0
C1401 C 0.96095 0.83813 0.08138 0.0
C1402 C 0.90636 0.80732 0.05031 0.0
C1403 C 0.97544 0.84061 0.11093 0.0
C1404 C 0.85362 0.80272 0.91374 0.0
C1405 C 0.86582 0.80097 0.94443 0.0
C1406 C 0.92189 0.82313 0.97386 0.0
C1407 C 0.94274 0.81884 0.07559 0.0
C1408 C 0.92785 0.81639 0.04295 0.0
C1409 C 0.88687 0.81652 0.9498 0.0
C1410 C 0.90051 0.81506 0.98147 0.0
H1411 H 0.95106 0.79119 0.148 0.0
H1412 H 0.92546 0.787 0.09655 0.0
H1413 H 0.95174 0.83066 0.99728 0.0
H1414 H 0.89033 0.84937 0.87511 0.0
H1415 H 0.91091 0.84667 0.92818 0.0
C1416 C 0.22853 0.1736 0.12829 0.0
C1417 C 0.2089 0.17132 0.13669 0.0
C1418 C 0.23056 0.16044 0.10051 0.0
C1419 C 0.19872 0.10962 0.04688 0.0
H1420 H 0.24636 0.13026 0.9755 0.0
C1421 C 0.19676 0.06892 0.89922 0.0
C1422 C 0.21272 0.06439 0.89133 0.0
C1423 C 0.19817 0.08163 0.93139 0.0
C1424 C 0.23312 0.12422 0.99565 0.0
H1425 H 0.17608 0.15357 0.12143 0.0
H1426 H 0.17965 0.1313 0.07266 0.0
H1427 H 0.24499 0.15333 0.02664 0.0
H1428 H 0.24292 0.07006 0.91133 0.0
H1429 H 0.24567 0.09308 0.96755 0.0
H1430 H 0.18645 0.08086 0.01463 0.0
C1431 C 0.19349 0.14276 0.08827 0.0
C1432 C 0.2323 0.13742 0.02505 0.0
C1433 C 0.19145 0.15573 0.11619 0.0
C1434 C 0.23037 0.07323 0.91651 0.0
C1435 C 0.23196 0.08642 0.94855 0.0
C1436 C 0.19943 0.09659 0.01728 0.0
C1437 C 0.21303 0.14473 0.08019 0.0
C1438 C 0.21487 0.13042 0.05065 0.0
C1439 C 0.21571 0.09053 0.95652 0.0
C1440 C 0.21646 0.10381 0.99089 0.0
H1441 H 0.24233 0.1854 0.14352 0.0
H1442 H 0.24586 0.1624 0.0955 0.0
H1443 H 0.18531 0.10334 0.06661 0.0
H1444 H 0.18281 0.06232 0.88087 0.0
H1445 H 0.18548 0.08461 0.93649 0.0
C1446 C 0.96442 0.15158 0.90087 0.0
C1447 C 0.9685 0.17189 0.89302 0.0
C1448 C 0.9508 0.13957 0.93133 0.0
C1449 C 0.92303 0.1409 0.02366 0.0
H1450 H 0.89101 0.08167 1.00197 0.0
C1451 C 0.85919 0.07819 0.13118 0.0
C1452 C 0.8615 0.06078 0.13852 0.0
C1453 C 0.8715 0.09306 0.10206 0.0
C1454 C 0.89985 0.09816 1.00857 0.0
H1455 H 0.96177 0.19572 0.91242 0.0
H1456 H 0.93713 0.17427 0.9656 0.0
H1457 H 0.91306 0.10526 0.94966 0.0
H1458 H 0.87871 0.04554 0.12076 0.0
H1459 H 0.89965 0.07107 0.06981 0.0
H1460 H 0.90921 0.13342 0.08274 0.0
C1461 C 0.94482 0.1678 0.94803 0.0
C1462 C 0.91265 0.11176 0.97861 0.0
C1463 C 0.95886 0.18009 0.9175 0.0
C1464 C 0.87643 0.05868 0.11607 0.0
C1465 C 0.88842 0.0733 0.08667 0.0
C1466 C 0.90989 0.12721 0.05362 0.0
C1467 C 0.94035 0.14719 0.95489 0.0
C1468 C 0.92494 0.13329 0.98595 0.0
C1469 C 0.88608 0.09063 0.07915 0.0
C1470 C 0.89856 0.10562 0.04667 0.0
H1471 H 0.97192 0.14483 0.88348 0.0
H1472 H 0.94855 0.12418 0.93643 0.0
H1473 H 0.93224 0.15731 0.03059 0.0
H1474 H 0.8479 0.08035 0.14794 0.0
H1475 H 0.86929 0.1062 0.09682 0.0
C1476 C 0.8724 0.38136 0.94404 0.0
C1477 C 0.86363 0.3843 0.97918 0.0
C1478 C 0.87767 0.39519 0.91148 0.0
C1479 C 0.88828 0.44781 0.88215 0.0
H1480 H 0.86386 0.42233 0.77965 0.0
C1481 C 0.87626 0.49328 0.75302 0.0
C1482 C 0.87617 0.48715 0.71304 0.0
C1483 C 0.8787 0.48233 0.78495 0.0
C1484 C 0.87125 0.42985 0.80767 0.0
H1485 H 0.85446 0.40449 1.00855 0.0
H1486 H 0.86431 0.42893 0.95258 0.0
H1487 H 0.8617 0.40055 0.83631 0.0
H1488 H 0.87882 0.46507 0.67479 0.0
H1489 H 0.88404 0.44646 0.73013 0.0
H1490 H 0.89783 0.47711 0.85377 0.0
C1491 C 0.86698 0.41592 0.94986 0.0
C1492 C 0.86993 0.41727 0.84029 0.0
C1493 C 0.86132 0.40191 0.98193 0.0
C1494 C 0.87933 0.47037 0.70539 0.0
C1495 C 0.88193 0.4595 0.73724 0.0
C1496 C 0.88983 0.46043 0.8494 0.0
C1497 C 0.8747 0.41246 0.9138 0.0
C1498 C 0.87814 0.42606 0.87812 0.0
C1499 C 0.88103 0.4649 0.77762 0.0
C1500 C 0.88104 0.45164 0.81176 0.0
H1501 H 0.87406 0.36775 0.94085 0.0
H1502 H 0.88366 0.39215 0.88414 0.0
H1503 H 0.89491 0.45508 0.91082 0.0
H1504 H 0.87323 0.5058 0.75966 0.0
H1505 H 0.87758 0.48688 0.8154 0.0
C1506 C 0.55372 0.42809 0.71651 0.0
C1507 C 0.54468 0.40644 0.72037 0.0
C1508 C 0.56485 0.44128 0.74883 0.0
C1509 C 0.5932 0.43997 0.8399 0.0
H1510 H 0.59652 0.49213 0.86863 0.0
C1511 C 0.63188 0.48013 0.98622 0.0
C1512 C 0.64778 0.50106 0.98402 0.0
C1513 C 0.61806 0.47072 0.95433 0.0
C1514 C 0.59582 0.47767 0.86068 0.0
H1515 H 0.5388 0.3815 0.76145 0.0
H1516 H 0.55712 0.40414 0.81801 0.0
H1517 H 0.57399 0.47131 0.81259 0.0
H1518 H 0.6607 0.52892 0.94746 0.0
H1519 H 0.63618 0.51231 0.89116 0.0
H1520 H 0.61469 0.44602 0.88783 0.0
C1521 C 0.55646 0.4112 0.78993 0.0
C1522 C 0.58294 0.46574 0.8286 0.0
C1523 C 0.5457 0.39816 0.75768 0.0
C1524 C 0.64854 0.51281 0.95015 0.0
C1525 C 0.63457 0.50329 0.9179 0.0
C1526 C 0.60582 0.45172 0.87185 0.0
C1527 C 0.56698 0.43296 0.78554 0.0
C1528 C 0.58118 0.4465 0.81831 0.0
C1529 C 0.6197 0.48191 0.91913 0.0
C1530 C 0.60705 0.47052 0.88317 0.0
H1531 H 0.55337 0.43485 0.68782 0.0
H1532 H 0.57273 0.45794 0.7443 0.0
H1533 H 0.59292 0.42569 0.83211 0.0
H1534 H 0.63067 0.47067 0.01205 0.0
H1535 H 0.6065 0.45436 0.95662 0.0
C1536 C 0.60246 0.15325 0.70723 0.0
C1537 C 0.62324 0.15909 0.71528 0.0
C1538 C 0.58882 0.15076 0.73881 0.0
C1539 C 0.58292 0.1463 0.85114 0.0
H1540 H 0.54795 0.17066 0.83449 0.0
C1541 C 0.55165 0.17478 0.98082 0.0
C1542 C 0.53136 0.17164 0.97834 0.0
C1543 C 0.56013 0.16909 0.94905 0.0
C1544 C 0.55732 0.16345 0.83949 0.0
H1545 H 0.64612 0.16676 0.76222 0.0
H1546 H 0.62244 0.16218 0.81742 0.0
H1547 H 0.56786 0.16832 0.77829 0.0
H1548 H 0.5039 0.15972 0.9408 0.0
H1549 H 0.51889 0.14997 0.88459 0.0
H1550 H 0.57298 0.14224 0.91277 0.0
C1551 C 0.61638 0.15915 0.78698 0.0
C1552 C 0.56876 0.16207 0.80719 0.0
C1553 C 0.63 0.16175 0.7554 0.0
C1554 C 0.51946 0.16204 0.94376 0.0
C1555 C 0.52813 0.15669 0.91147 0.0
C1556 C 0.57159 0.14782 0.88345 0.0
C1557 C 0.59571 0.15411 0.77914 0.0
C1558 C 0.582 0.15377 0.81266 0.0
C1559 C 0.5487 0.16043 0.91353 0.0
C1560 C 0.55889 0.15669 0.87821 0.0
H1561 H 0.59706 0.15165 0.67642 0.0
H1562 H 0.57301 0.1467 0.73152 0.0
H1563 H 0.5926 0.13947 0.85648 0.0
H1564 H 0.56123 0.18225 1.00701 0.0
H1565 H 0.57605 0.17239 0.95159 0.0
C1566 C 0.72068 0.52955 0.23812 0.0
C1567 C 0.72265 0.54684 0.21695 0.0
C1568 C 0.73571 0.53174 0.2662 0.0
C1569 C 0.78016 0.57087 0.32866 0.0
H1570 H 0.79035 0.52487 0.34123 0.0
C1571 C 0.84225 0.56923 0.43851 0.0
C1572 C 0.8333 0.5518 0.46418 0.0
C1573 C 0.83069 0.57071 0.40625 0.0
C1574 C 0.78774 0.53789 0.33799 0.0
H1575 H 0.74221 0.58014 0.20916 0.0
H1576 H 0.76875 0.58393 0.2575 0.0
H1577 H 0.76678 0.52348 0.28884 0.0
H1578 H 0.80534 0.52211 0.47506 0.0
H1579 H 0.78569 0.52458 0.41923 0.0
H1580 H 0.8015 0.58523 0.37803 0.0
C1581 C 0.75533 0.56865 0.25285 0.0
C1582 C 0.77403 0.53704 0.30814 0.0
C1583 C 0.74013 0.56647 0.22489 0.0
C1584 C 0.81271 0.53593 0.4565 0.0
C1585 C 0.80144 0.53722 0.42415 0.0
C1586 C 0.79416 0.57183 0.35831 0.0
C1587 C 0.75341 0.55127 0.27382 0.0
C1588 C 0.76957 0.55325 0.30359 0.0
C1589 C 0.81021 0.55454 0.39853 0.0
C1590 C 0.79772 0.55512 0.36387 0.0
H1591 H 0.70738 0.51419 0.23326 0.0
H1592 H 0.73323 0.51802 0.2823 0.0
H1593 H 0.7771 0.58362 0.32646 0.0
H1594 H 0.85808 0.58168 0.44345 0.0
H1595 H 0.83786 0.58425 0.38687 0.0
C1596 C 0.48194 0.28721 0.47146 0.0
C1597 C 0.47811 0.30372 0.4649 0.0
C1598 C 0.48038 0.27396 0.44005 0.0
C1599 C 0.48425 0.27222 0.32975 0.0
H1600 H 0.46251 0.21336 0.34826 0.0
C1601 C 0.5024 0.22099 0.22417 0.0
C1602 C 0.48638 0.20056 0.21593 0.0
C1603 C 0.49959 0.23334 0.25257 0.0
C1604 C 0.46847 0.22971 0.34235 0.0
H1605 H 0.46914 0.31884 0.41987 0.0
H1606 H 0.46644 0.2956 0.36465 0.0
H1607 H 0.4597 0.23469 0.401 0.0
H1608 H 0.45473 0.17724 0.23132 0.0
H1609 H 0.4499 0.19874 0.28103 0.0
H1610 H 0.49322 0.26724 0.27119 0.0
C1611 C 0.47072 0.29303 0.39437 0.0
C1612 C 0.46702 0.24201 0.37278 0.0
C1613 C 0.47206 0.30622 0.4261 0.0
C1614 C 0.46742 0.19288 0.23678 0.0
C1615 C 0.46468 0.20519 0.2655 0.0
C1616 C 0.48585 0.25993 0.29939 0.0
C1617 C 0.47509 0.27685 0.4009 0.0
C1618 C 0.47508 0.26348 0.36711 0.0
C1619 C 0.48075 0.22558 0.27387 0.0
C1620 C 0.47815 0.23853 0.30539 0.0
H1621 H 0.48667 0.28477 0.50087 0.0
H1622 H 0.4841 0.26189 0.44624 0.0
H1623 H 0.4908 0.28871 0.32439 0.0
H1624 H 0.51721 0.2275 0.20871 0.0
H1625 H 0.51241 0.24885 0.25848 0.0
C1626 C 0.74974 0.21378 0.47438 0.0
C1627 C 0.72974 0.19728 0.46548 0.0
C1628 C 0.76319 0.22604 0.4436 0.0
C1629 C 0.76928 0.23057 0.33018 0.0
H1630 H 0.80833 0.2881 0.35685 0.0
C1631 C 0.81226 0.29945 0.21583 0.0
C1632 C 0.83412 0.30971 0.21812 0.0
C1633 C 0.79991 0.2846 0.24474 0.0
C1634 C 0.79757 0.27204 0.34906 0.0
H1635 H 0.70813 0.1806 0.41729 0.0
H1636 H 0.73098 0.20255 0.3636 0.0
H1637 H 0.78601 0.26457 0.40909 0.0
H1638 H 0.86015 0.31256 0.25278 0.0
H1639 H 0.83849 0.28719 0.30438 0.0
H1640 H 0.78027 0.23885 0.26928 0.0
C1641 C 0.73685 0.20568 0.39413 0.0
C1642 C 0.78482 0.25836 0.37913 0.0
C1643 C 0.72361 0.193 0.42498 0.0
C1644 C 0.84336 0.3048 0.25004 0.0
C1645 C 0.831 0.29037 0.2796 0.0
C1646 C 0.78169 0.24446 0.2999 0.0
C1647 C 0.75679 0.22268 0.40294 0.0
C1648 C 0.77052 0.23728 0.3704 0.0
C1649 C 0.80916 0.28011 0.27718 0.0
C1650 C 0.79604 0.26528 0.30912 0.0
H1651 H 0.75488 0.2174 0.50537 0.0
H1652 H 0.77855 0.23836 0.45205 0.0
H1653 H 0.75888 0.21454 0.32187 0.0
H1654 H 0.80468 0.30286 0.19154 0.0
H1655 H 0.78312 0.27697 0.2423 0.0
C1656 C 0.48837 0.3213 0.73918 0.0
C1657 C 0.49911 0.31979 0.70564 0.0
C1658 C 0.48266 0.30702 0.77114 0.0
C1659 C 0.47629 0.25534 0.7986 0.0
H1660 H 0.49069 0.27813 0.90649 0.0
C1661 C 0.49389 0.21466 0.92778 0.0
C1662 C 0.48762 0.21581 0.96711 0.0
C1663 C 0.49064 0.22514 0.89614 0.0
C1664 C 0.48619 0.2714 0.87669 0.0
H1665 H 0.51134 0.3016 0.67847 0.0
H1666 H 0.50122 0.27678 0.73329 0.0
H1667 H 0.49312 0.30057 0.85045 0.0
H1668 H 0.47305 0.22877 1.00443 0.0
H1669 H 0.46742 0.24734 0.94899 0.0
H1670 H 0.47006 0.22638 0.82453 0.0
C1671 C 0.49715 0.28885 0.73531 0.0
C1672 C 0.48757 0.28429 0.8445 0.0
C1673 C 0.50305 0.30318 0.70385 0.0
C1674 C 0.47756 0.22725 0.97415 0.0
C1675 C 0.47461 0.23808 0.94252 0.0
C1676 C 0.47496 0.2425 0.83068 0.0
C1677 C 0.48727 0.29077 0.76983 0.0
C1678 C 0.48309 0.27653 0.80486 0.0
C1679 C 0.48143 0.23742 0.9032 0.0
C1680 C 0.48033 0.25045 0.87003 0.0
H1681 H 0.48534 0.33407 0.74163 0.0
H1682 H 0.47496 0.30889 0.79716 0.0
H1683 H 0.47235 0.24871 0.76864 0.0
H1684 H 0.50204 0.20626 0.92181 0.0
H1685 H 0.49634 0.22447 0.86648 0.0
C1686 C 0.80941 0.27526 0.97112 0.0
C1687 C 0.81853 0.29681 0.96533 0.0
C1688 C 0.79854 0.26138 0.93953 0.0
C1689 C 0.79108 0.25828 0.82843 0.0
H1690 H 0.7347 0.21441 0.85112 0.0
C1691 C 0.72824 0.22407 0.70602 0.0
C1692 C 0.71274 0.20294 0.70672 0.0
C1693 C 0.74292 0.23275 0.73687 0.0
C1694 C 0.75054 0.22628 0.84429 0.0
H1695 H 0.82409 0.32079 0.922 0.0
H1696 H 0.80592 0.29682 0.86677 0.0
H1697 H 0.75766 0.23471 0.90657 0.0
H1698 H 0.70087 0.17422 0.74021 0.0
H1699 H 0.72672 0.18948 0.79473 0.0
H1700 H 0.78394 0.2503 0.76625 0.0
C1701 C 0.80699 0.29048 0.89545 0.0
C1702 C 0.76372 0.23794 0.87613 0.0
C1703 C 0.81743 0.30425 0.92708 0.0
C1704 C 0.71273 0.19049 0.73862 0.0
C1705 C 0.7274 0.1993 0.77001 0.0
C1706 C 0.77799 0.2466 0.79673 0.0
C1707 C 0.79697 0.26885 0.90143 0.0
C1708 C 0.78398 0.25446 0.86848 0.0
C1709 C 0.74256 0.22064 0.76971 0.0
C1710 C 0.75734 0.23082 0.80405 0.0
H1711 H 0.80967 0.26914 1.00058 0.0
H1712 H 0.79103 0.24482 0.9451 0.0
H1713 H 0.80669 0.27066 0.82149 0.0
H1714 H 0.72872 0.23412 0.68191 0.0
H1715 H 0.75408 0.24924 0.73569 0.0
C1716 C 0.75681 0.55687 0.96948 0.0
C1717 C 0.73515 0.54368 0.96629 0.0
C1718 C 0.76995 0.55854 0.93731 0.0
C1719 C 0.76907 0.52634 0.85173 0.0
H1720 H 0.81909 0.57529 0.81419 0.0
C1721 C 0.80717 0.52279 0.70616 0.0
C1722 C 0.82873 0.5303 0.70613 0.0
C1723 C 0.79778 0.52758 0.73747 0.0
C1724 C 0.80526 0.56148 0.82466 0.0
H1725 H 0.71016 0.52327 0.92631 0.0
H1726 H 0.73273 0.52672 0.87022 0.0
H1727 H 0.7987 0.57834 0.86957 0.0
H1728 H 0.85754 0.54989 0.73802 0.0
H1729 H 0.84092 0.55831 0.79352 0.0
H1730 H 0.77533 0.50942 0.80733 0.0
C1731 C 0.73979 0.5353 0.89762 0.0
C1732 C 0.79358 0.56322 0.85633 0.0
C1733 C 0.72681 0.53349 0.92961 0.0
C1734 C 0.8409 0.54389 0.73716 0.0
C1735 C 0.83138 0.54867 0.76892 0.0
C1736 C 0.78061 0.52463 0.82035 0.0
C1737 C 0.76158 0.54707 0.90156 0.0
C1738 C 0.77506 0.5457 0.86962 0.0
C1739 C 0.80958 0.53995 0.77002 0.0
C1740 C 0.7986 0.54219 0.80573 0.0
H1741 H 0.76363 0.56468 0.99764 0.0
H1742 H 0.78665 0.56777 0.94135 0.0
H1743 H 0.75533 0.51236 0.86197 0.0
H1744 H 0.79734 0.51257 0.68242 0.0
H1745 H 0.78105 0.52105 0.73673 0.0
C1746 C 0.52026 0.13724 0.24976 0.0
C1747 C 0.52933 0.15435 0.22331 0.0
C1748 C 0.53188 0.13581 0.28196 0.0
C1749 C 0.57593 0.16878 0.34819 0.0
H1750 H 0.58431 0.12176 0.36266 0.0
C1751 C 0.6424 0.17578 0.44838 0.0
C1752 C 0.63983 0.15848 0.47042 0.0
C1753 C 0.62748 0.17382 0.42024 0.0
C1754 C 0.5819 0.1349 0.35964 0.0
H1755 H 0.55765 0.18352 0.21093 0.0
H1756 H 0.57741 0.18114 0.26662 0.0
H1757 H 0.55998 0.12037 0.3112 0.0
H1758 H 0.6193 0.12544 0.47977 0.0
H1759 H 0.59296 0.1221 0.43142 0.0
H1760 H 0.59746 0.18337 0.39646 0.0
C1761 C 0.56149 0.16872 0.26241 0.0
C1762 C 0.56793 0.13407 0.33004 0.0
C1763 C 0.55013 0.16995 0.23014 0.0
C1764 C 0.62186 0.1391 0.46333 0.0
C1765 C 0.60677 0.13718 0.43535 0.0
C1766 C 0.58961 0.16953 0.378 0.0
C1767 C 0.55258 0.15172 0.28883 0.0
C1768 C 0.56516 0.1512 0.32341 0.0
C1769 C 0.60929 0.15455 0.41345 0.0
C1770 C 0.59325 0.15283 0.38363 0.0
H1771 H 0.50428 0.12499 0.24548 0.0
H1772 H 0.5246 0.12253 0.30195 0.0
H1773 H 0.57394 0.18215 0.34416 0.0
H1774 H 0.65609 0.19093 0.45258 0.0
H1775 H 0.63043 0.18751 0.40343 0.0
C1776 C 0.85856 0.48969 0.44843 0.0
C1777 C 0.87587 0.50533 0.46923 0.0
C1778 C 0.86082 0.47686 0.42056 0.0
C1779 C 0.89986 0.47168 0.35783 0.0
H1780 H 0.85411 0.41505 0.34753 0.0
C1781 C 0.89762 0.40707 0.24961 0.0
C1782 C 0.88008 0.3985 0.22416 0.0
C1783 C 0.89933 0.42034 0.28161 0.0
C1784 C 0.86707 0.4308 0.35016 0.0
H1785 H 0.90929 0.51969 0.47641 0.0
H1786 H 0.91322 0.4969 0.42833 0.0
H1787 H 0.85293 0.43751 0.39949 0.0
H1788 H 0.85045 0.39697 0.21323 0.0
H1789 H 0.8533 0.41937 0.26881 0.0
H1790 H 0.91394 0.46453 0.30827 0.0
C1791 C 0.89786 0.4948 0.4332 0.0
C1792 C 0.86633 0.44382 0.37975 0.0
C1793 C 0.89561 0.50784 0.46098 0.0
C1794 C 0.86433 0.40337 0.23175 0.0
C1795 C 0.86584 0.41615 0.26389 0.0
C1796 C 0.90071 0.45848 0.32845 0.0
C1797 C 0.88044 0.47898 0.41276 0.0
C1798 C 0.88242 0.46466 0.38343 0.0
C1799 C 0.88328 0.42478 0.28928 0.0
C1800 C 0.88408 0.43804 0.32372 0.0
H1801 H 0.84312 0.48737 0.45349 0.0
H1802 H 0.84707 0.46535 0.40481 0.0
H1803 H 0.91251 0.48761 0.3594 0.0
H1804 H 0.91 0.40362 0.2447 0.0
H1805 H 0.91295 0.42678 0.30082 0.0
C1806 C 0.52389 0.40865 0.45485 0.0
C1807 C 0.52943 0.39461 0.47115 0.0
C1808 C 0.53659 0.42345 0.42602 0.0
C1809 C 0.5775 0.43328 0.35065 0.0
H1810 H 0.58579 0.4891 0.3471 0.0
C1811 C 0.61585 0.48535 0.21364 0.0
C1812 C 0.63143 0.50615 0.22022 0.0
C1813 C 0.60296 0.47315 0.24492 0.0
C1814 C 0.58373 0.47361 0.34783 0.0
H1815 H 0.55318 0.38571 0.47052 0.0
H1816 H 0.57523 0.41146 0.42104 0.0
H1817 H 0.56485 0.46532 0.40117 0.0
H1818 H 0.64479 0.53069 0.26491 0.0
H1819 H 0.62208 0.50922 0.32001 0.0
H1820 H 0.5965 0.44149 0.29791 0.0
C1821 C 0.56088 0.41083 0.4298 0.0
C1822 C 0.57154 0.45989 0.3786 0.0
C1823 C 0.54821 0.39606 0.45844 0.0
C1824 C 0.63295 0.51476 0.25871 0.0
C1825 C 0.61994 0.50243 0.29029 0.0
C1826 C 0.58956 0.44691 0.31999 0.0
C1827 C 0.55517 0.4246 0.41277 0.0
C1828 C 0.56824 0.4395 0.3804 0.0
C1829 C 0.60518 0.48127 0.28399 0.0
C1830 C 0.59274 0.46722 0.31787 0.0
H1831 H 0.50956 0.40802 0.46383 0.0
H1832 H 0.53156 0.43363 0.41337 0.0
H1833 H 0.57517 0.41769 0.3506 0.0
H1834 H 0.61398 0.47817 0.18436 0.0
H1835 H 0.59143 0.45712 0.23857 0.0
C1836 C 0.54024 0.71819 0.28225 0.0
C1837 C 0.52848 0.7181 0.31557 0.0
C1838 C 0.54491 0.73254 0.25069 0.0
C1839 C 0.52215 0.76167 0.20527 0.0
H1840 H 0.57406 0.79345 0.14718 0.0
C1841 C 0.52998 0.82255 0.09209 0.0
C1842 C 0.53913 0.82332 0.0547 0.0
C1843 C 0.53213 0.81174 0.12436 0.0
C1844 C 0.55941 0.78453 0.1629 0.0
H1845 H 0.51401 0.73407 0.34353 0.0
H1846 H 0.52236 0.75901 0.28947 0.0
H1847 H 0.57178 0.77046 0.20266 0.0
H1848 H 0.55844 0.81414 0.02201 0.0
H1849 H 0.56198 0.79476 0.07855 0.0
H1850 H 0.5095 0.77512 0.16578 0.0
C1851 C 0.52754 0.74778 0.28691 0.0
C1852 C 0.55812 0.77138 0.19466 0.0
C1853 C 0.52286 0.73353 0.31805 0.0
C1854 C 0.55149 0.81402 0.05078 0.0
C1855 C 0.55343 0.80286 0.08313 0.0
C1856 C 0.52338 0.77461 0.17369 0.0
C1857 C 0.53789 0.74699 0.25211 0.0
C1858 C 0.53954 0.76011 0.2167 0.0
C1859 C 0.54309 0.80095 0.11989 0.0
C1860 C 0.54211 0.78658 0.15251 0.0
H1861 H 0.54468 0.70641 0.2794 0.0
H1862 H 0.55294 0.73157 0.22429 0.0
H1863 H 0.50741 0.75277 0.22078 0.0
H1864 H 0.52037 0.8296 0.09587 0.0
H1865 H 0.52447 0.8112 0.15247 0.0
C1866 C 0.29724 0.81674 0.32127 0.0
C1867 C 0.31544 0.83594 0.31499 0.0
C1868 C 0.2825 0.80737 0.29066 0.0
C1869 C 0.26662 0.81523 0.18782 0.0
H1870 H 0.24274 0.75541 0.18248 0.0
C1871 C 0.22584 0.76422 0.04627 0.0
C1872 C 0.20882 0.7442 0.0527 0.0
C1873 C 0.23661 0.77713 0.07895 0.0
C1874 C 0.24895 0.77206 0.18378 0.0
H1875 H 0.3322 0.86073 0.27208 0.0
H1876 H 0.30666 0.8441 0.21778 0.0
H1877 H 0.26594 0.77472 0.23739 0.0
H1878 H 0.18945 0.72201 0.09795 0.0
H1879 H 0.20796 0.7446 0.15518 0.0
H1880 H 0.25006 0.81236 0.13287 0.0
C1881 C 0.30349 0.83646 0.24678 0.0
C1882 C 0.26231 0.78323 0.21548 0.0
C1883 C 0.31815 0.84606 0.2779 0.0
C1884 C 0.2022 0.73759 0.09225 0.0
C1885 C 0.21301 0.75043 0.12495 0.0
C1886 C 0.25334 0.80401 0.15573 0.0
C1887 C 0.28573 0.81665 0.25239 0.0
C1888 C 0.27129 0.80498 0.21824 0.0
C1889 C 0.23078 0.7701 0.11876 0.0
C1890 C 0.24427 0.78225 0.15343 0.0
H1891 H 0.29473 0.80862 0.34964 0.0
H1892 H 0.26878 0.79249 0.2968 0.0
H1893 H 0.27307 0.8319 0.18889 0.0
H1894 H 0.23159 0.76938 0.01602 0.0
H1895 H 0.25032 0.79205 0.07302 0.0
C1896 C 0.2752 0.50548 0.04025 0.0
C1897 C 0.28675 0.49521 0.04 0.0
C1898 C 0.26234 0.50337 0.07259 0.0
C1899 C 0.23388 0.47423 0.1616 0.0
H1900 H 0.24753 0.52899 0.19953 0.0
C1901 C 0.19654 0.49064 0.30411 0.0
C1902 C 0.19345 0.50775 0.30063 0.0
C1903 C 0.20658 0.48606 0.27308 0.0
C1904 C 0.24327 0.51353 0.18919 0.0
H1905 H 0.2928 0.47352 0.07243 0.0
H1906 H 0.26988 0.46967 0.12976 0.0
H1907 H 0.26703 0.52576 0.14418 0.0
H1908 H 0.19693 0.53246 0.26117 0.0
H1909 H 0.21343 0.52409 0.20692 0.0
H1910 H 0.20968 0.46209 0.20647 0.0
C1911 C 0.27093 0.47937 0.10451 0.0
C1912 C 0.25458 0.5117 0.15753 0.0
C1913 C 0.28395 0.48149 0.07171 0.0
C1914 C 0.19929 0.5193 0.26479 0.0
C1915 C 0.20897 0.5146 0.23385 0.0
C1916 C 0.22234 0.47607 0.19343 0.0
C1917 C 0.26065 0.49097 0.10584 0.0
C1918 C 0.24974 0.49209 0.14262 0.0
C1919 C 0.21353 0.49847 0.23808 0.0
C1920 C 0.22657 0.49581 0.20686 0.0
H1921 H 0.27687 0.51602 0.01609 0.0
H1922 H 0.25432 0.51218 0.07234 0.0
H1923 H 0.22988 0.45891 0.15081 0.0
H1924 H 0.19232 0.4816 0.33162 0.0
H1925 H 0.2098 0.4735 0.27734 0.0
C1926 C 0.38705 0.86192 0.57059 0.0
C1927 C 0.38954 0.87912 0.54832 0.0
C1928 C 0.4021 0.864 0.59853 0.0
C1929 C 0.44802 0.90333 0.65789 0.0
H1930 H 0.45587 0.85611 0.67488 0.0
C1931 C 0.51001 0.9013 0.76749 0.0
C1932 C 0.50067 0.88476 0.79517 0.0
C1933 C 0.4984 0.90255 0.73505 0.0
C1934 C 0.45393 0.86948 0.67035 0.0
H1935 H 0.41008 0.9121 0.53822 0.0
H1936 H 0.43666 0.91564 0.58611 0.0
H1937 H 0.43214 0.85452 0.62263 0.0
H1938 H 0.47182 0.8564 0.80963 0.0
H1939 H 0.45219 0.85841 0.75334 0.0
H1940 H 0.4702 0.91823 0.70579 0.0
C1941 C 0.42281 0.90055 0.5826 0.0
C1942 C 0.44012 0.86852 0.64061 0.0
C1943 C 0.40758 0.89851 0.55487 0.0
C1944 C 0.47961 0.86952 0.78936 0.0
C1945 C 0.46829 0.87054 0.75681 0.0
C1946 C 0.46213 0.90439 0.68737 0.0
C1947 C 0.42034 0.8833 0.60481 0.0
C1948 C 0.43651 0.88521 0.63449 0.0
C1949 C 0.47748 0.88698 0.72919 0.0
C1950 C 0.46487 0.88728 0.69449 0.0
H1951 H 0.3733 0.84677 0.56678 0.0
H1952 H 0.39921 0.8504 0.61559 0.0
H1953 H 0.44563 0.91647 0.65453 0.0
H1954 H 0.52617 0.91325 0.771 0.0
H1955 H 0.50587 0.9154 0.7141 0.0
C1956 C 0.1708 0.54806 0.57195 0.0
C1957 C 0.15335 0.5326 0.55123 0.0
C1958 C 0.16878 0.56088 0.60022 0.0
C1959 C 0.1301 0.56624 0.66382 0.0
H1960 H 0.17624 0.62261 0.67485 0.0
C1961 C 0.13239 0.63048 0.77259 0.0
C1962 C 0.15007 0.63941 0.7977 0.0
C1963 C 0.13073 0.61718 0.74073 0.0
C1964 C 0.16319 0.60693 0.67207 0.0
H1965 H 0.11994 0.51853 0.54448 0.0
H1966 H 0.11643 0.54134 0.59314 0.0
H1967 H 0.17719 0.60022 0.62248 0.0
H1968 H 0.17994 0.64149 0.80821 0.0
H1969 H 0.17719 0.61896 0.7529 0.0
H1970 H 0.11613 0.5734 0.71355 0.0
C1971 C 0.13171 0.54329 0.588 0.0
C1972 C 0.16379 0.59395 0.64222 0.0
C1973 C 0.13372 0.53024 0.55988 0.0
C1974 C 0.16598 0.6348 0.78995 0.0
C1975 C 0.16451 0.62197 0.75795 0.0
C1976 C 0.12939 0.5794 0.69345 0.0
C1977 C 0.14926 0.55893 0.60844 0.0
C1978 C 0.14752 0.57321 0.63821 0.0
C1979 C 0.14695 0.61303 0.73285 0.0
C1980 C 0.14617 0.59974 0.69845 0.0
H1981 H 0.18617 0.55023 0.5666 0.0
H1982 H 0.18263 0.57223 0.61596 0.0
H1983 H 0.11732 0.55038 0.66203 0.0
H1984 H 0.11987 0.63371 0.77763 0.0
H1985 H 0.11702 0.61051 0.72175 0.0
C1986 C 0.41438 0.55143 0.80555 0.0
C1987 C 0.39778 0.53107 0.79925 0.0
C1988 C 0.42765 0.56294 0.77402 0.0
C1989 C 0.42905 0.56792 0.66372 0.0
H1990 H 0.48803 0.60539 0.68146 0.0
C1991 C 0.47966 0.63708 0.55752 0.0
C1992 C 0.50012 0.64169 0.54903 0.0
C1993 C 0.46748 0.62193 0.58604 0.0
C1994 C 0.47164 0.59489 0.67576 0.0
H1995 H 0.38252 0.50671 0.75464 0.0
H1996 H 0.40581 0.52693 0.69923 0.0
H1997 H 0.46688 0.58142 0.73463 0.0
H1998 H 0.52368 0.63369 0.56407 0.0
H1999 H 0.50244 0.60732 0.614 0.0
H2000 H 0.4338 0.58157 0.60497 0.0
C2001 C 0.40844 0.53395 0.72882 0.0
C2002 C 0.45946 0.58124 0.70643 0.0
C2003 C 0.39522 0.52228 0.76065 0.0
C2004 C 0.508 0.63057 0.56972 0.0
C2005 C 0.49585 0.61552 0.59856 0.0
C2006 C 0.44122 0.58169 0.63312 0.0
C2007 C 0.42467 0.55454 0.73504 0.0
C2008 C 0.43795 0.56773 0.70103 0.0
C2009 C 0.47543 0.61103 0.60719 0.0
C2010 C 0.46265 0.59551 0.63887 0.0
H2011 H 0.41685 0.55877 0.83481 0.0
H2012 H 0.43978 0.57879 0.77994 0.0
H2013 H 0.41253 0.5579 0.65859 0.0
H2014 H 0.473 0.64526 0.54219 0.0
H2015 H 0.45194 0.61911 0.59217 0.0
C2016 C 0.1554 0.6541 0.07508 0.0
C2017 C 0.16626 0.65365 0.04079 0.0
C2018 C 0.15038 0.6394 0.10606 0.0
C2019 C 0.16832 0.60401 0.14523 0.0
H2020 H 0.1198 0.5825 0.21435 0.0
C2021 C 0.15411 0.54249 0.26363 0.0
C2022 C 0.14985 0.54643 0.30276 0.0
C2023 C 0.15239 0.55328 0.23073 0.0
C2024 C 0.13345 0.58843 0.19533 0.0
H2025 H 0.179 0.63666 0.01063 0.0
H2026 H 0.16946 0.61067 0.06308 0.0
H2027 H 0.12368 0.60571 0.15837 0.0
H2028 H 0.13999 0.56433 0.3383 0.0
H2029 H 0.13667 0.58313 0.28061 0.0
H2030 H 0.17818 0.58693 0.18188 0.0
C2031 C 0.16551 0.62272 0.06729 0.0
C2032 C 0.13572 0.6018 0.16329 0.0
C2033 C 0.17078 0.63751 0.03689 0.0
C2034 C 0.14276 0.56059 0.30823 0.0
C2035 C 0.14101 0.57144 0.27521 0.0
C2036 C 0.16598 0.59061 0.17683 0.0
C2037 C 0.15595 0.62387 0.10306 0.0
C2038 C 0.15315 0.60967 0.13757 0.0
C2039 C 0.1466 0.56849 0.23624 0.0
C2040 C 0.14848 0.58251 0.20221 0.0
H2041 H 0.15192 0.66651 0.07904 0.0
H2042 H 0.14308 0.64087 0.13311 0.0
H2043 H 0.18231 0.61021 0.12714 0.0
H2044 H 0.16004 0.53197 0.25879 0.0
H2045 H 0.15652 0.55038 0.20111 0.0
C2046 C 0.37946 0.52523 0.06999 0.0
C2047 C 0.37952 0.53788 0.03844 0.0
C2048 C 0.39413 0.53381 0.1014 0.0
C2049 C 0.44491 0.58064 0.12855 0.0
H2050 H 0.42458 0.5684 0.23837 0.0
C2051 C 0.48486 0.63745 0.25986 0.0
C2052 C 0.4855 0.62974 0.29808 0.0
C2053 C 0.47448 0.62389 0.22792 0.0
C2054 C 0.43064 0.57172 0.20793 0.0
H2055 H 0.39563 0.56921 0.01426 0.0
H2056 H 0.42099 0.58394 0.06814 0.0
H2057 H 0.40149 0.54856 0.18275 0.0
H2058 H 0.47595 0.60183 0.333 0.0
H2059 H 0.45748 0.57788 0.27697 0.0
H2060 H 0.47377 0.6043 0.15351 0.0
C2061 C 0.40976 0.56745 0.06901 0.0
C2062 C 0.41739 0.56032 0.176 0.0
C2063 C 0.39506 0.559 0.03813 0.0
C2064 C 0.47605 0.60814 0.30355 0.0
C2065 C 0.46527 0.59448 0.27164 0.0
C2066 C 0.45809 0.59204 0.16037 0.0
C2067 C 0.40935 0.55512 0.10146 0.0
C2068 C 0.42419 0.56501 0.13579 0.0
C2069 C 0.46408 0.60222 0.23357 0.0
C2070 C 0.45099 0.58809 0.20042 0.0
H2071 H 0.3676 0.50895 0.07125 0.0
H2072 H 0.39343 0.52383 0.12582 0.0
H2073 H 0.45084 0.58443 0.09808 0.0
H2074 H 0.49174 0.65404 0.25509 0.0
H2075 H 0.47369 0.63044 0.19928 0.0
C2076 C 0.47604 0.86282 0.03818 0.0
C2077 C 0.49685 0.86739 0.03946 0.0
C2078 C 0.46756 0.86867 0.06962 0.0
C2079 C 0.47331 0.87952 0.17846 0.0
H2080 H 0.43124 0.89479 0.15847 0.0
C2081 C 0.42568 0.8891 0.30802 0.0
C2082 C 0.40407 0.87803 0.30156 0.0
C2083 C 0.43947 0.89212 0.27629 0.0
C2084 C 0.44295 0.89054 0.16462 0.0
H2085 H 0.52525 0.88221 0.07453 0.0
H2086 H 0.51035 0.8925 0.13003 0.0
H2087 H 0.45136 0.89276 0.10239 0.0
H2088 H 0.37992 0.862 0.25704 0.0
H2089 H 0.4038 0.86783 0.20154 0.0
H2090 H 0.46445 0.87683 0.24069 0.0
C2091 C 0.50062 0.88435 0.10442 0.0
C2092 C 0.4545 0.88935 0.13243 0.0
C2093 C 0.50924 0.87868 0.07247 0.0
C2094 C 0.39653 0.87084 0.26263 0.0
C2095 C 0.41024 0.87419 0.23087 0.0
C2096 C 0.46178 0.88079 0.21076 0.0
C2097 C 0.47955 0.87913 0.10363 0.0
C2098 C 0.46947 0.8833 0.1387 0.0
C2099 C 0.43188 0.88444 0.2374 0.0
C2100 C 0.44609 0.88582 0.2041 0.0
H2101 H 0.46606 0.85409 0.01321 0.0
H2102 H 0.45125 0.86412 0.068 0.0
H2103 H 0.48452 0.87458 0.18444 0.0
H2104 H 0.43184 0.89441 0.33799 0.0
H2105 H 0.45603 0.90011 0.28232 0.0
C2106 C 0.31036 0.50817 0.77757 0.0
C2107 C 0.30712 0.49146 0.80241 0.0
C2108 C 0.29585 0.50564 0.74797 0.0
C2109 C 0.24109 0.47498 0.71761 0.0
H2110 H 0.26282 0.49596 0.61116 0.0
C2111 C 0.18791 0.46961 0.58124 0.0
C2112 C 0.19654 0.48663 0.55459 0.0
C2113 C 0.20022 0.46802 0.61192 0.0
C2114 C 0.2564 0.49023 0.64077 0.0
H2115 H 0.28563 0.45902 0.81591 0.0
H2116 H 0.26002 0.45474 0.76442 0.0
H2117 H 0.28629 0.49779 0.66403 0.0
H2118 H 0.2245 0.51587 0.5413 0.0
H2119 H 0.24534 0.51345 0.59419 0.0
H2120 H 0.21124 0.46812 0.69462 0.0
C2121 C 0.27397 0.46977 0.76791 0.0
C2122 C 0.26993 0.49121 0.67109 0.0
C2123 C 0.2887 0.4722 0.79724 0.0
C2124 C 0.21743 0.50219 0.56022 0.0
C2125 C 0.22951 0.50076 0.59077 0.0
C2126 C 0.2275 0.47427 0.68727 0.0
C2127 C 0.27751 0.48641 0.74263 0.0
C2128 C 0.26255 0.4839 0.71005 0.0
C2129 C 0.22132 0.48354 0.61679 0.0
C2130 C 0.23505 0.48228 0.64855 0.0
H2131 H 0.3243 0.52324 0.78058 0.0
H2132 H 0.29896 0.51883 0.72928 0.0
H2133 H 0.23493 0.46924 0.74739 0.0
H2134 H 0.17182 0.45744 0.57804 0.0
H2135 H 0.19329 0.45451 0.63134 0.0
C2136 C 0.56194 0.84023 0.79494 0.0
C2137 C 0.54226 0.83785 0.80332 0.0
C2138 C 0.56405 0.82715 0.76703 0.0
C2139 C 0.53221 0.77642 0.7128 0.0
H2140 H 0.57995 0.79714 0.64168 0.0
C2141 C 0.53033 0.73645 0.56412 0.0
C2142 C 0.54599 0.73142 0.55671 0.0
C2143 C 0.53183 0.74915 0.59639 0.0
C2144 C 0.56668 0.79109 0.66174 0.0
H2145 H 0.50948 0.82009 0.78775 0.0
H2146 H 0.51319 0.79802 0.73881 0.0
H2147 H 0.57863 0.82008 0.69321 0.0
H2148 H 0.57574 0.73623 0.57762 0.0
H2149 H 0.57867 0.75927 0.63393 0.0
H2150 H 0.51984 0.7478 0.68002 0.0
C2151 C 0.527 0.80944 0.75457 0.0
C2152 C 0.56589 0.80421 0.69137 0.0
C2153 C 0.52487 0.8223 0.7826 0.0
C2154 C 0.56344 0.7398 0.5824 0.0
C2155 C 0.56513 0.753 0.61451 0.0
C2156 C 0.53288 0.76349 0.68294 0.0
C2157 C 0.54656 0.81145 0.74656 0.0
C2158 C 0.54842 0.79719 0.71689 0.0
C2159 C 0.54916 0.75756 0.62205 0.0
C2160 C 0.54994 0.77074 0.65664 0.0
H2161 H 0.57568 0.85201 0.81032 0.0
H2162 H 0.57936 0.82916 0.76205 0.0
H2163 H 0.51877 0.77011 0.73245 0.0
H2164 H 0.51655 0.73022 0.54538 0.0
H2165 H 0.51935 0.75248 0.60121 0.0
C2166 C 0.21661 0.73862 0.80455 0.0
C2167 C 0.19475 0.728 0.80171 0.0
C2168 C 0.22898 0.7534 0.77555 0.0
C2169 C 0.23146 0.76561 0.67054 0.0
H2170 H 0.27034 0.82302 0.69798 0.0
C2171 C 0.27953 0.82402 0.54544 0.0
C2172 C 0.29953 0.84051 0.5544 0.0
C2173 C 0.26606 0.81169 0.57616 0.0
C2174 C 0.25989 0.80701 0.68959 0.0
H2175 H 0.16877 0.72446 0.76591 0.0
H2176 H 0.19049 0.74972 0.71422 0.0
H2177 H 0.24883 0.79871 0.75044 0.0
H2178 H 0.32112 0.85708 0.60267 0.0
H2179 H 0.29823 0.83504 0.65625 0.0
H2180 H 0.24308 0.77311 0.61053 0.0
C2181 C 0.19795 0.74685 0.73947 0.0
C2182 C 0.24741 0.79312 0.71981 0.0
C2183 C 0.18555 0.73248 0.7691 0.0
C2184 C 0.30564 0.8447 0.59492 0.0
C2185 C 0.29238 0.83196 0.62571 0.0
C2186 C 0.24428 0.7793 0.64052 0.0
C2187 C 0.21979 0.75748 0.74245 0.0
C2188 C 0.23298 0.77232 0.71052 0.0
C2189 C 0.27243 0.81498 0.61684 0.0
C2190 C 0.25866 0.80035 0.64933 0.0
H2191 H 0.22417 0.73554 0.82935 0.0
H2192 H 0.24577 0.76129 0.77846 0.0
H2193 H 0.22065 0.74957 0.66266 0.0
H2194 H 0.27438 0.82044 0.51444 0.0
H2195 H 0.25071 0.79939 0.56765 0.0
C2196 C 0.25853 0.99292 0.73519 0.0
C2197 C 0.24464 0.99692 0.71339 0.0
C2198 C 0.26958 0.98455 0.71583 0.0
C2199 C 0.26639 0.95389 0.62511 0.0
H2200 H 0.32472 0.97305 0.64456 0.0
C2201 C 0.31243 0.92845 0.52258 0.0
C2202 C 0.32691 0.92404 0.54057 0.0
C2203 C 0.30313 0.93763 0.5449 0.0
C2204 C 0.30835 0.96732 0.63908 0.0
H2205 H 0.23232 0.99595 0.65347 0.0
H2206 H 0.25141 0.98166 0.62041 0.0
H2207 H 0.3074 0.98845 0.68208 0.0
H2208 H 0.34315 0.92604 0.59609 0.0
H2209 H 0.32684 0.94193 0.63517 0.0
H2210 H 0.26715 0.93273 0.5824 0.0
C2211 C 0.25355 0.98458 0.65251 0.0
C2212 C 0.29843 0.97618 0.66065 0.0
C2213 C 0.24266 0.99296 0.67162 0.0
C2214 C 0.33211 0.92932 0.58128 0.0
C2215 C 0.32281 0.93852 0.60366 0.0
C2216 C 0.27625 0.94502 0.60372 0.0
C2217 C 0.26688 0.97989 0.67434 0.0
C2218 C 0.27738 0.96977 0.65352 0.0
C2219 C 0.30802 0.94264 0.58589 0.0
C2220 C 0.29745 0.95177 0.60995 0.0
H2221 H 0.26048 0.99573 0.76733 0.0
H2222 H 0.27973 0.98112 0.73359 0.0
H2223 H 0.25004 0.94821 0.61944 0.0
H2224 H 0.3081 0.92461 0.49127 0.0
H2225 H 0.29211 0.94086 0.52989 0.0
C2226 C 0.03825 0.27175 0.67147 0.0
C2227 C 0.03644 0.27023 0.71373 0.0
C2228 C 0.04605 0.29092 0.65206 0.0
C2229 C 0.07906 0.34749 0.66885 0.0
H2230 H 0.05601 0.35116 0.56643 0.0
C2231 C 0.10887 0.42599 0.58488 0.0
C2232 C 0.11064 0.42585 0.54274 0.0
C2233 C 0.09909 0.40733 0.60669 0.0
C2234 C 0.06281 0.35041 0.59478 0.0
H2235 H 0.04117 0.28795 0.76853 0.0
H2236 H 0.05473 0.32152 0.73447 0.0
H2237 H 0.03986 0.31836 0.60305 0.0
H2238 H 0.10356 0.40599 0.49044 0.0
H2239 H 0.08668 0.37346 0.52834 0.0
H2240 H 0.10218 0.3795 0.6603 0.0
C2241 C 0.05022 0.30776 0.71645 0.0
C2242 C 0.05349 0.33156 0.61588 0.0
C2243 C 0.04227 0.28847 0.73598 0.0
C2244 C 0.10233 0.40662 0.52286 0.0
C2245 C 0.09255 0.38795 0.54465 0.0
C2246 C 0.08841 0.36637 0.64768 0.0
C2247 C 0.05235 0.30925 0.67421 0.0
C2248 C 0.06158 0.32976 0.65305 0.0
C2249 C 0.09081 0.38802 0.58691 0.0
C2250 C 0.08052 0.36806 0.61016 0.0
H2251 H 0.03396 0.25813 0.65315 0.0
H2252 H 0.04769 0.29142 0.6196 0.0
H2253 H 0.08591 0.34664 0.69706 0.0
H2254 H 0.11514 0.44055 0.60111 0.0
H2255 H 0.09786 0.40805 0.63907 0.0
C2256 C 0.60686 0.70135 0.58032 0.0
C2257 C 0.60672 0.70736 0.54022 0.0
C2258 C 0.62534 0.71056 0.60283 0.0
C2259 C 0.67784 0.75787 0.60544 0.0
H2260 H 0.69114 0.72592 0.67968 0.0
C2261 C 0.75968 0.79141 0.67178 0.0
C2262 C 0.76179 0.78903 0.71334 0.0
C2263 C 0.74037 0.78052 0.65276 0.0
C2264 C 0.68753 0.73509 0.65942 0.0
H2265 H 0.62594 0.72749 0.49208 0.0
H2266 H 0.65817 0.74332 0.53092 0.0
H2267 H 0.65842 0.70872 0.64189 0.0
H2268 H 0.74498 0.77246 0.76695 0.0
H2269 H 0.71101 0.75316 0.73328 0.0
H2270 H 0.70697 0.78415 0.62249 0.0
C2271 C 0.64398 0.73174 0.54537 0.0
C2272 C 0.66876 0.72525 0.63772 0.0
C2273 C 0.62551 0.72254 0.52292 0.0
C2274 C 0.74399 0.77473 0.73498 0.0
C2275 C 0.72453 0.76366 0.71569 0.0
C2276 C 0.69656 0.76765 0.62693 0.0
C2277 C 0.64414 0.72604 0.58579 0.0
C2278 C 0.66378 0.73647 0.61004 0.0
C2279 C 0.72245 0.76679 0.67448 0.0
C2280 C 0.7018 0.75636 0.65381 0.0
H2281 H 0.5926 0.68974 0.59457 0.0
H2282 H 0.62476 0.70589 0.6339 0.0
H2283 H 0.67436 0.76719 0.58529 0.0
H2284 H 0.77293 0.80208 0.65375 0.0
H2285 H 0.73946 0.783 0.62085 0.0
C2286 C 0.90657 0.32288 1.0068 0.0
C2287 C 0.91016 0.32904 0.04754 0.0
C2288 C 0.91749 0.31448 0.98798 0.0
C2289 C 0.96475 0.31024 0.99156 0.0
H2290 H 0.93188 0.26172 0.92479 0.0
C2291 C 0.99962 0.2643 0.91287 0.0
C2292 C 0.99225 0.25643 0.87409 0.0
C2293 C 0.99041 0.27348 0.93556 0.0
C2294 C 0.94139 0.27541 0.94284 0.0
H2295 H 0.92887 0.33173 0.09982 0.0
H2296 H 0.94826 0.31713 0.06644 0.0
H2297 H 0.9148 0.27714 0.96212 0.0
H2298 H 0.96967 0.25237 0.82845 0.0
H2299 H 0.95382 0.26862 0.86753 0.0
H2300 H 0.99142 0.30864 0.97171 0.0
C2301 C 0.93677 0.31882 0.04936 0.0
C2302 C 0.93156 0.28423 0.96443 0.0
C2303 C 0.92564 0.32717 0.06849 0.0
C2304 C 0.97569 0.25825 0.85825 0.0
C2305 C 0.96649 0.26742 0.88087 0.0
C2306 C 0.97465 0.30145 0.96973 0.0
C2307 C 0.93249 0.312 1.00905 0.0
C2308 C 0.94311 0.30193 0.98863 0.0
C2309 C 0.97356 0.27499 0.92004 0.0
C2310 C 0.96312 0.28406 0.94462 0.0
H2311 H 0.89493 0.32413 0.98928 0.0
H2312 H 0.91408 0.30981 0.95671 0.0
H2313 H 0.97412 0.32394 0.00971 0.0
H2314 H 0.01231 0.26306 0.926 0.0
H2315 H 0.99618 0.27893 0.96566 0.0
C2316 C 0.71117 0.60716 1.00626 0.0
C2317 C 0.70493 0.60474 0.04693 0.0
C2318 C 0.71951 0.62639 0.98708 0.0
C2319 C 0.72345 0.67781 0.99006 0.0
H2320 H 0.77188 0.69364 0.92288 0.0
C2321 C 0.76938 0.75877 0.91188 0.0
C2322 C 0.77709 0.75932 0.87294 0.0
C2323 C 0.76024 0.74033 0.93445 0.0
C2324 C 0.75821 0.6894 0.94106 0.0
H2325 H 0.70205 0.62091 0.09872 0.0
H2326 H 0.71657 0.65473 0.06478 0.0
H2327 H 0.75656 0.66113 0.96023 0.0
H2328 H 0.78094 0.74086 0.82692 0.0
H2329 H 0.7648 0.70871 0.86583 0.0
H2330 H 0.72501 0.70605 0.9704 0.0
C2331 C 0.71498 0.64151 0.04799 0.0
C2332 C 0.74944 0.67074 0.96263 0.0
C2333 C 0.70669 0.62214 0.06746 0.0
C2334 C 0.77519 0.74097 0.85685 0.0
C2335 C 0.76607 0.72256 0.87937 0.0
C2336 C 0.73221 0.69651 0.96828 0.0
C2337 C 0.72185 0.64392 1.00774 0.0
C2338 C 0.73179 0.66454 0.98702 0.0
C2339 C 0.75863 0.722 0.91866 0.0
C2340 C 0.74957 0.70244 0.94307 0.0
H2341 H 0.71001 0.59422 0.98909 0.0
H2342 H 0.72422 0.62754 0.95586 0.0
H2343 H 0.70979 0.67344 1.00833 0.0
H2344 H 0.77068 0.77268 0.92519 0.0
H2345 H 0.75489 0.7406 0.96467 0.0
C2346 C 0.27461 0.03535 0.91323 0.0
C2347 C 0.27444 0.04134 0.87312 0.0
C2348 C 0.29308 0.04463 0.93577 0.0
C2349 C 0.34553 0.09208 0.93843 0.0
H2350 H 0.35883 0.06032 0.01317 0.0
C2351 C 0.42728 0.1261 1.00567 0.0
C2352 C 0.42935 0.12363 0.0472 0.0
C2353 C 0.40801 0.11515 0.98649 0.0
C2354 C 0.35522 0.06944 0.99277 0.0
H2355 H 0.29362 0.06151 0.825 0.0
H2356 H 0.32586 0.07746 0.86388 0.0
H2357 H 0.32618 0.043 0.97517 0.0
H2358 H 0.41251 0.1068 0.10058 0.0
H2359 H 0.37862 0.0874 0.06666 0.0
H2360 H 0.37458 0.11844 0.95559 0.0
C2361 C 0.31168 0.06585 0.87832 0.0
C2362 C 0.33649 0.05953 0.97094 0.0
C2363 C 0.29322 0.05657 0.85584 0.0
C2364 C 0.41156 0.10915 0.06864 0.0
C2365 C 0.39214 0.09802 0.04919 0.0
C2366 C 0.36421 0.10193 0.96006 0.0
C2367 C 0.31187 0.06016 0.91876 0.0
C2368 C 0.3315 0.07068 0.94308 0.0
C2369 C 0.39009 0.10125 1.008 0.0
C2370 C 0.36946 0.09072 0.98714 0.0
H2371 H 0.26037 0.02371 0.92749 0.0
H2372 H 0.29251 0.03998 0.96685 0.0
H2373 H 0.34205 0.10135 0.91816 0.0
H2374 H 0.44053 0.13689 0.98777 0.0
H2375 H 0.40716 0.1177 0.95459 0.0
C2376 C 0.78418 0.04231 0.34879 0.0
C2377 C 0.78374 0.04019 0.30657 0.0
C2378 C 0.77259 0.04988 0.36809 0.0
C2379 C 0.74751 0.08148 0.35083 0.0
H2380 H 0.72249 0.05937 0.45492 0.0
C2381 C 0.69867 0.11067 0.43662 0.0
C2382 C 0.70146 0.11321 0.47856 0.0
C2383 C 0.70747 0.10089 0.41454 0.0
C2384 C 0.72955 0.0659 0.42608 0.0
H2385 H 0.7702 0.04411 0.25177 0.0
H2386 H 0.74972 0.05721 0.28566 0.0
H2387 H 0.73928 0.04347 0.41803 0.0
H2388 H 0.71568 0.10744 0.53017 0.0
H2389 H 0.73113 0.09052 0.49181 0.0
H2390 H 0.73791 0.10405 0.35915 0.0
C2391 C 0.75931 0.05316 0.30372 0.0
C2392 C 0.73918 0.05673 0.40481 0.0
C2393 C 0.77092 0.04547 0.28428 0.0
C2394 C 0.71312 0.10561 0.49795 0.0
C2395 C 0.7219 0.09581 0.4759 0.0
C2396 C 0.73785 0.09066 0.37214 0.0
C2397 C 0.76011 0.05559 0.34592 0.0
C2398 C 0.74852 0.06452 0.36708 0.0
C2399 C 0.71926 0.09336 0.43383 0.0
C2400 C 0.72891 0.08313 0.41029 0.0
H2401 H 0.79382 0.03846 0.36719 0.0
H2402 H 0.7739 0.05179 0.40049 0.0
H2403 H 0.75475 0.0881 0.32216 0.0
H2404 H 0.6898 0.11639 0.42075 0.0
H2405 H 0.70486 0.09909 0.38234 0.0
C2406 C 0.98646 0.76516 0.3486 0.0
C2407 C 0.99089 0.76699 0.30704 0.0
C2408 C 0.97894 0.74616 0.36848 0.0
C2409 C 0.95179 0.68929 0.35094 0.0
H2410 H 0.96897 0.6883 0.46083 0.0
C2411 C 0.92369 0.61219 0.43928 0.0
C2412 C 0.91854 0.61204 0.48009 0.0
C2413 C 0.93342 0.63083 0.4174 0.0
C2414 C 0.96382 0.68828 0.4303 0.0
H2415 H 0.99109 0.74997 0.25413 0.0
H2416 H 0.97812 0.71671 0.2891 0.0
H2417 H 0.98473 0.72098 0.42388 0.0
H2418 H 0.91957 0.63135 0.52989 0.0
H2419 H 0.93638 0.66382 0.49181 0.0
H2420 H 0.93076 0.65656 0.35758 0.0
C2421 C 0.98028 0.73009 0.30612 0.0
C2422 C 0.9729 0.70707 0.40902 0.0
C2423 C 0.98788 0.74921 0.2861 0.0
C2424 C 0.92345 0.63096 0.49858 0.0
C2425 C 0.93319 0.6496 0.47673 0.0
C2426 C 0.94271 0.67046 0.37226 0.0
C2427 C 0.97561 0.72829 0.34759 0.0
C2428 C 0.96686 0.70792 0.36918 0.0
C2429 C 0.93827 0.64981 0.43578 0.0
C2430 C 0.94845 0.66972 0.41241 0.0
H2431 H 0.98847 0.77838 0.36595 0.0
H2432 H 0.97523 0.7454 0.4002 0.0
H2433 H 0.94652 0.68933 0.32055 0.0
H2434 H 0.92009 0.59786 0.42414 0.0
H2435 H 0.93729 0.63037 0.38611 0.0
C2436 C 0.40301 0.31991 0.49774 0.0
C2437 C 0.42231 0.332 0.4786 0.0
C2438 C 0.38447 0.31103 0.47552 0.0
C2439 C 0.36384 0.29563 0.37151 0.0
H2440 H 0.31457 0.29303 0.4173 0.0
C2441 C 0.2857 0.26217 0.28297 0.0
C2442 C 0.26764 0.24881 0.30493 0.0
C2443 C 0.30492 0.27392 0.30268 0.0
C2444 C 0.32813 0.29349 0.40411 0.0
H2445 H 0.43728 0.34433 0.42114 0.0
H2446 H 0.40496 0.3291 0.38244 0.0
H2447 H 0.34719 0.31004 0.45463 0.0
H2448 H 0.25575 0.23791 0.36522 0.0
H2449 H 0.28888 0.2581 0.39898 0.0
H2450 H 0.34464 0.27886 0.32112 0.0
C2451 C 0.40411 0.32624 0.41455 0.0
C2452 C 0.34687 0.30323 0.42562 0.0
C2453 C 0.42265 0.33513 0.43679 0.0
C2454 C 0.26924 0.24796 0.34709 0.0
C2455 C 0.28831 0.2597 0.36666 0.0
C2456 C 0.34506 0.28587 0.34996 0.0
C2457 C 0.38475 0.31401 0.43357 0.0
C2458 C 0.36495 0.30426 0.40984 0.0
C2459 C 0.30647 0.27273 0.3448 0.0
C2460 C 0.32688 0.28446 0.36618 0.0
H2461 H 0.40225 0.31708 0.52987 0.0
H2462 H 0.36992 0.30146 0.49118 0.0
H2463 H 0.37735 0.29588 0.35855 0.0
H2464 H 0.28511 0.26322 0.25052 0.0
H2465 H 0.31857 0.28395 0.28492 0.0
C2466 C 0.0443 0.77045 0.16304 0.0
C2467 C 0.03388 0.77937 0.14345 0.0
C2468 C 0.05308 0.76068 0.14088 0.0
C2469 C 0.07158 0.75785 0.03811 0.0
H2470 H 0.06909 0.70796 0.0798 0.0
C2471 C 0.10422 0.71275 0.94875 0.0
C2472 C 0.11587 0.70615 0.97144 0.0
C2473 C 0.09259 0.72047 0.96801 0.0
C2474 C 0.07008 0.72197 0.06778 0.0
H2475 H 0.02448 0.78497 0.08518 0.0
H2476 H 0.03954 0.76775 0.04656 0.0
H2477 H 0.05247 0.72399 0.11688 0.0
H2478 H 0.12375 0.70197 0.03243 0.0
H2479 H 0.10377 0.71531 0.06544 0.0
H2480 H 0.0894 0.75591 0.98918 0.0
C2481 C 0.04116 0.76847 0.07903 0.0
C2482 C 0.06055 0.73121 0.08916 0.0
C2483 C 0.03236 0.7782 0.1012 0.0
C2484 C 0.11504 0.70689 0.01376 0.0
C2485 C 0.10341 0.71446 0.03287 0.0
C2486 C 0.08113 0.7486 0.01669 0.0
C2487 C 0.05169 0.7596 0.09852 0.0
C2488 C 0.06131 0.7494 0.07487 0.0
C2489 C 0.09218 0.72158 0.01038 0.0
C2490 C 0.08071 0.73064 0.03146 0.0
H2491 H 0.04587 0.77121 0.19552 0.0
H2492 H 0.06131 0.75433 0.15698 0.0
H2493 H 0.07273 0.77198 0.02634 0.0
H2494 H 0.10452 0.71249 0.91615 0.0
H2495 H 0.08397 0.72563 0.9497 0.0
C2496 C 0.3199 0.4326 0.0164 0.0
C2497 C 0.3241 0.43439 0.97476 0.0
C2498 C 0.31182 0.41346 0.036 0.0
C2499 C 0.3044 0.3604 0.02798 0.0
H2500 H 0.26142 0.34764 0.10762 0.0
C2501 C 0.25763 0.27933 0.10505 0.0
C2502 C 0.2529 0.279 0.14615 0.0
C2503 C 0.26674 0.29801 0.08328 0.0
C2504 C 0.27358 0.35101 0.08587 0.0
H2505 H 0.32352 0.41721 0.92148 0.0
H2506 H 0.30928 0.38365 0.95586 0.0
H2507 H 0.27647 0.38034 0.07099 0.0
H2508 H 0.25431 0.29806 0.19676 0.0
H2509 H 0.27039 0.33063 0.15907 0.0
H2510 H 0.30143 0.33096 0.04301 0.0
C2511 C 0.31239 0.39723 0.97328 0.0
C2512 C 0.28223 0.36981 0.06476 0.0
C2513 C 0.32052 0.41648 0.95353 0.0
C2514 C 0.25775 0.29779 0.16513 0.0
C2515 C 0.26682 0.31645 0.14338 0.0
C2516 C 0.29572 0.34153 0.04916 0.0
C2517 C 0.30761 0.39542 0.01469 0.0
C2518 C 0.29792 0.3749 0.03581 0.0
C2519 C 0.27129 0.31681 0.10206 0.0
C2520 C 0.28032 0.33667 0.07868 0.0
H2521 H 0.32258 0.44598 0.03405 0.0
H2522 H 0.30881 0.41282 0.06804 0.0
H2523 H 0.31655 0.36383 1.00617 0.0
H2524 H 0.25398 0.26508 0.08951 0.0
H2525 H 0.26975 0.29761 0.05147 0.0
C2526 C 0.60264 0.90973 0.01272 0.0
C2527 C 0.59994 0.91392 0.97245 0.0
C2528 C 0.622 0.92059 0.03156 0.0
C2529 C 0.67304 0.96851 0.02976 0.0
H2530 H 0.68979 0.9355 0.09306 0.0
C2531 C 0.75403 1.0038 0.10846 0.0
C2532 C 0.75461 0.99595 0.14668 0.0
C2533 C 0.73567 0.99457 0.08556 0.0
C2534 C 0.6853 0.94504 0.07598 0.0
H2535 H 0.61575 0.93355 0.92104 0.0
H2536 H 0.6498 0.95282 0.95449 0.0
H2537 H 0.65726 0.91839 0.05561 0.0
H2538 H 0.73627 0.97249 0.19109 0.0
H2539 H 0.70425 0.9566 0.15165 0.0
H2540 H 0.70101 0.99522 0.05074 0.0
C2541 C 0.6367 0.94092 0.97117 0.0
C2542 C 0.66663 0.93519 0.05433 0.0
C2543 C 0.6172 0.92985 0.95199 0.0
C2544 C 0.73635 0.97889 0.16174 0.0
C2545 C 0.71803 0.96967 0.1389 0.0
C2546 C 0.69174 0.97842 0.05165 0.0
C2547 C 0.63937 0.93612 0.01099 0.0
C2548 C 0.66009 0.94679 0.0314 0.0
C2549 C 0.71745 0.97723 0.1003 0.0
C2550 C 0.69799 0.96682 0.07552 0.0
H2551 H 0.58984 0.89769 0.02979 0.0
H2552 H 0.62337 0.91674 0.06245 0.0
H2553 H 0.66839 0.9779 0.01261 0.0
H2554 H 0.76787 0.0169 0.09596 0.0
H2555 H 0.73592 1.00073 0.05589 0.0
C2556 C 0.66262 0.59322 0.25028 0.0
C2557 C 0.6601 0.59092 0.20827 0.0
C2558 C 0.65376 0.60296 0.27227 0.0
C2559 C 0.63202 0.63824 0.26064 0.0
H2560 H 0.6063 0.61569 0.36404 0.0
C2561 C 0.57735 0.66183 0.33785 0.0
C2562 C 0.57769 0.66379 0.3801 0.0
C2563 C 0.58897 0.65431 0.31848 0.0
C2564 C 0.61369 0.62241 0.33552 0.0
H2565 H 0.6463 0.59705 0.15642 0.0
H2566 H 0.63073 0.61389 0.19464 0.0
H2567 H 0.62311 0.59971 0.32708 0.0
H2568 H 0.5911 0.65966 0.43488 0.0
H2569 H 0.61161 0.64662 0.40087 0.0
H2570 H 0.62243 0.66077 0.2688 0.0
C2571 C 0.63979 0.60845 0.21068 0.0
C2572 C 0.62333 0.61321 0.31422 0.0
C2573 C 0.64864 0.5987 0.18871 0.0
C2574 C 0.59046 0.65843 0.40235 0.0
C2575 C 0.60208 0.65077 0.38285 0.0
C2576 C 0.62239 0.64741 0.28188 0.0
C2577 C 0.64217 0.61069 0.25282 0.0
C2578 C 0.63247 0.62088 0.27627 0.0
C2579 C 0.60135 0.64847 0.34062 0.0
C2580 C 0.61289 0.63951 0.31944 0.0
H2581 H 0.67133 0.58735 0.26627 0.0
H2582 H 0.65616 0.60459 0.30453 0.0
H2583 H 0.63923 0.64487 0.23194 0.0
H2584 H 0.56775 0.66577 0.3195 0.0
H2585 H 0.58773 0.65252 0.28606 0.0
C2586 C 0.43968 0.07452 0.18876 0.0
C2587 C 0.44436 0.09346 0.20688 0.0
C2588 C 0.42993 0.05593 0.21079 0.0
C2589 C 0.41985 0.03523 0.31546 0.0
H2590 H 0.37832 0.98457 0.26351 0.0
C2591 C 0.37485 0.95611 0.40123 0.0
C2592 C 0.37205 0.93846 0.38009 0.0
C2593 C 0.38241 0.97531 0.38144 0.0
C2594 C 0.39002 0.99852 0.27849 0.0
H2595 H 0.44239 0.10771 0.26241 0.0
H2596 H 0.42518 0.07528 0.30074 0.0
H2597 H 0.39412 0.0172 0.22645 0.0
H2598 H 0.37486 0.92741 0.32107 0.0
H2599 H 0.38804 0.96045 0.28732 0.0
H2600 H 0.41588 0.01641 0.3674 0.0
C2601 C 0.42924 0.07478 0.2696 0.0
C2602 C 0.39912 0.01728 0.25713 0.0
C2603 C 0.43897 0.09337 0.24753 0.0
C2604 C 0.37669 0.94051 0.33861 0.0
C2605 C 0.38417 0.95957 0.31898 0.0
C2606 C 0.41076 0.0164 0.33686 0.0
C2607 C 0.42459 0.05577 0.25158 0.0
C2608 C 0.41434 0.0359 0.27511 0.0
C2609 C 0.38725 0.97731 0.34 0.0
C2610 C 0.39588 0.99771 0.3185 0.0
H2611 H 0.44375 0.07408 0.15759 0.0
H2612 H 0.42691 0.0417 0.19598 0.0
H2613 H 0.43166 0.04918 0.33025 0.0
H2614 H 0.37148 0.95518 0.43315 0.0
H2615 H 0.38439 0.98858 0.39858 0.0
C2616 C 0.07676 0.44139 0.40499 0.0
C2617 C 0.09503 0.45377 0.38272 0.0
C2618 C 0.05747 0.42981 0.38537 0.0
C2619 C 0.03388 0.40917 0.2843 0.0
H2620 H 0.98584 0.40996 0.32778 0.0
C2621 C 0.95964 0.38458 0.1893 0.0
C2622 C 0.94024 0.37336 0.20853 0.0
C2623 C 0.97816 0.39312 0.21162 0.0
C2624 C 0.99902 0.40933 0.31541 0.0
H2625 H 0.10719 0.46297 0.32204 0.0
H2626 H 0.07398 0.44313 0.28845 0.0
H2627 H 0.01849 0.4262 0.36543 0.0
H2628 H 0.92507 0.36228 0.2663 0.0
H2629 H 0.9573 0.37696 0.30515 0.0
H2630 H 0.01455 0.39256 0.23409 0.0
C2631 C 0.07441 0.44214 0.32095 0.0
C2632 C 0.01777 0.41863 0.33711 0.0
C2633 C 0.09355 0.45369 0.34041 0.0
C2634 C 0.93977 0.37081 0.25055 0.0
C2635 C 0.95827 0.37938 0.27289 0.0
C2636 C 0.01518 0.39992 0.26263 0.0
C2637 C 0.05603 0.4302 0.34305 0.0
C2638 C 0.03554 0.41888 0.32164 0.0
C2639 C 0.97775 0.3907 0.25378 0.0
C2640 C 0.99752 0.40003 0.27764 0.0
H2641 H 0.07726 0.44109 0.43757 0.0
H2642 H 0.04366 0.42063 0.40337 0.0
H2643 H 0.0471 0.40872 0.27169 0.0
H2644 H 0.96052 0.38692 0.157 0.0
H2645 H 0.99281 0.40197 0.19586 0.0
C2646 C 0.45782 0.38398 0.68 0.0
C2647 C 0.45342 0.37686 0.63988 0.0
C2648 C 0.44682 0.39224 0.69908 0.0
C2649 C 0.39825 0.39435 0.69771 0.0
H2650 H 0.43077 0.44404 0.76174 0.0
C2651 C 0.36219 0.43936 0.77604 0.0
C2652 C 0.36987 0.44776 0.81438 0.0
C2653 C 0.37157 0.43034 0.75332 0.0
C2654 C 0.42137 0.43002 0.74446 0.0
H2655 H 0.4333 0.37244 0.58896 0.0
H2656 H 0.41383 0.38681 0.62275 0.0
H2657 H 0.44825 0.42908 0.72426 0.0
H2658 H 0.39319 0.45295 0.85919 0.0
H2659 H 0.40935 0.43705 0.82006 0.0
H2660 H 0.37131 0.39522 0.71841 0.0
C2661 C 0.42598 0.38596 0.63919 0.0
C2662 C 0.43143 0.42145 0.7228 0.0
C2663 C 0.43717 0.37777 0.6198 0.0
C2664 C 0.3869 0.44664 0.82975 0.0
C2665 C 0.39628 0.43766 0.80709 0.0
C2666 C 0.38813 0.40291 0.71958 0.0
C2667 C 0.43093 0.39362 0.6789 0.0
C2668 C 0.42002 0.40335 0.69956 0.0
C2669 C 0.38891 0.42957 0.76834 0.0
C2670 C 0.39955 0.42073 0.7437 0.0
H2671 H 0.47011 0.38355 0.69678 0.0
H2672 H 0.45081 0.39759 0.72989 0.0
H2673 H 0.38898 0.38033 0.68035 0.0
H2674 H 0.34913 0.44006 0.76327 0.0
H2675 H 0.36554 0.42445 0.72355 0.0
C2676 C 0.65346 0.09782 0.68187 0.0
C2677 C 0.65793 0.09985 0.64032 0.0
C2678 C 0.64597 0.07876 0.70141 0.0
C2679 C 0.61898 0.02201 0.68328 0.0
H2680 H 0.63616 0.02092 0.79314 0.0
C2681 C 0.59075 0.94495 0.77191 0.0
C2682 C 0.58552 0.94488 0.81264 0.0
C2683 C 0.60051 0.96355 0.74991 0.0
C2684 C 0.63102 0.02093 0.76261 0.0
H2685 H 0.65825 0.0831 0.58707 0.0
H2686 H 0.64535 0.0497 0.62151 0.0
H2687 H 0.652 0.0536 0.75624 0.0
H2688 H 0.58639 0.96426 0.86218 0.0
H2689 H 0.60329 0.99666 0.82391 0.0
H2690 H 0.59788 0.98929 0.68989 0.0
C2691 C 0.64746 0.06299 0.63875 0.0
C2692 C 0.64015 0.03971 0.74136 0.0
C2693 C 0.65501 0.08219 0.61904 0.0
C2694 C 0.59036 0.96382 0.83094 0.0
C2695 C 0.60014 0.98241 0.80899 0.0
C2696 C 0.60986 1.00317 0.70457 0.0
C2697 C 0.64275 0.06101 0.68022 0.0
C2698 C 0.63408 0.0406 0.70157 0.0
C2699 C 0.60532 0.98255 0.76813 0.0
C2700 C 0.61559 1.00242 0.74471 0.0
H2701 H 0.65539 0.11094 0.69949 0.0
H2702 H 0.64221 0.07786 0.73313 0.0
H2703 H 0.61371 0.0221 0.65291 0.0
H2704 H 0.58719 0.93059 0.75691 0.0
H2705 H 0.60446 0.96305 0.71869 0.0
C2706 C 0.95001 0.59776 0.62021 0.0
C2707 C 0.93308 0.58102 0.63982 0.0
C2708 C 0.9695 0.60886 0.6394 0.0
C2709 C 1.00053 0.60227 0.71896 0.0
H2710 H 0.03274 0.66245 0.72276 0.0
C2711 C 0.07003 0.64461 0.82742 0.0
C2712 C 0.08779 0.66271 0.81387 0.0
C2713 C 0.05166 0.63549 0.80469 0.0
C2714 C 0.0241 0.64563 0.72157 0.0
H2715 H 0.92359 0.56326 0.69561 0.0
H2716 H 0.95713 0.58234 0.72822 0.0
H2717 H 1.00017 0.64524 0.68448 0.0
H2718 H 0.10013 0.68558 0.76602 0.0
H2719 H 0.06814 0.66958 0.7261 0.0
H2720 H 0.02428 0.60245 0.75566 0.0
C2721 C 0.95548 0.58685 0.69803 0.0
C2722 C 1.00542 0.63579 0.69959 0.0
C2723 C 0.93611 0.57599 0.67924 0.0
C2724 C 0.08667 0.67166 0.77734 0.0
C2725 C 0.06829 0.66252 0.75453 0.0
C2726 C 0.01919 0.61206 0.74065 0.0
C2727 C 0.97251 0.60325 0.6783 0.0
C2728 C 0.99324 0.61398 0.69861 0.0
C2729 C 0.05056 0.64417 0.76768 0.0
C2730 C 0.0311 0.63389 0.74286 0.0
H2731 H 0.94829 0.6021 0.58993 0.0
H2732 H 0.98235 0.62145 0.62341 0.0
H2733 H 0.99174 0.58544 0.7182 0.0
H2734 H 0.07036 0.63734 0.85546 0.0
H2735 H 0.03827 0.6216 0.81626 0.0
loop_
_geom_bond_atom_site_label_1
_geom_bond_atom_site_label_2
_geom_bond_distance
_geom_bond_site_symmetry_2
_ccdc_geom_bond_type
Co0 H3 2.400 1_545 S
Co0 O4 2.009 . S
Co0 O12 2.115 . S
Co0 O13 2.315 1_545 S
Co0 O24 2.053 1_545 S
Co0 O27 2.094 . S
Co0 O30 2.122 . S
Co1 O4 2.126 . S
Co1 H5 2.388 . S
Co1 O6 2.053 . S
Co1 O9 2.047 . S
Co1 O15 2.113 . S
Co1 O26 2.063 . S
Co2 H3 2.388 . S
Co2 O4 2.053 1_565 S
Co2 O6 2.126 1_565 S
Co2 O11 2.063 . S
Co2 O25 2.047 . S
Co2 O31 2.113 1_565 S
H3 Co0 2.400 1_565 S
H3 Co2 2.388 . S
H3 O4 0.760 1_565 S
O4 Co0 2.009 . S
O4 Co1 2.126 . S
O4 Co2 2.053 1_545 S
O4 H3 0.760 1_545 S
H5 Co1 2.388 . S
H5 O6 0.760 . S
H5 Co7 2.400 . S
O6 Co1 2.053 . S
O6 Co2 2.126 1_545 S
O6 H5 0.760 . S
O6 Co7 2.009 . S
Co7 H5 2.400 . S
Co7 O6 2.009 . S
Co7 O8 2.053 . S
Co7 O10 2.094 1_545 S
Co7 O14 2.122 1_545 S
Co7 O28 2.115 . S
Co7 O29 2.315 . S
O8 Co7 2.053 . S
O8 C20 1.259 . S
O9 Co1 2.047 . S
O9 C20 1.257 . S
O10 Co7 2.094 1_565 S
O10 C21 1.253 . S
O11 Co2 2.063 . S
O11 C21 1.268 . S
O12 Co0 2.115 . S
O12 C22 1.281 1_545 S
O13 Co0 2.315 1_565 S
O13 C22 1.252 . S
O14 Co7 2.122 1_565 S
O14 C23 1.272 . S
O15 Co1 2.113 . S
O15 C23 1.245 1_545 S
C16 O24 1.259 . S
C16 O25 1.257 . S
C17 O26 1.268 . S
C17 O27 1.253 . S
C18 O28 1.281 . S
C18 O29 1.252 . S
C19 O30 1.272 . S
C19 O31 1.245 . S
C20 O8 1.259 . S
C20 O9 1.257 . S
C21 O10 1.253 . S
C21 O11 1.268 . S
C22 O12 1.281 1_565 S
C22 O13 1.252 . S
C23 O14 1.272 . S
C23 O15 1.245 1_565 S
O24 Co0 2.053 1_565 S
O24 C16 1.259 . S
O25 Co2 2.047 . S
O25 C16 1.257 . S
O26 Co1 2.063 . S
O26 C17 1.268 . S
O27 Co0 2.094 . S
O27 C17 1.253 . S
O28 Co7 2.115 . S
O28 C18 1.281 . S
O29 Co7 2.315 . S
O29 C18 1.252 . S
O30 Co0 2.122 . S
O30 C19 1.272 . S
O31 Co2 2.113 1_545 S
O31 C19 1.245 . S
Co32 H35 2.400 . S
Co32 O36 2.009 . S
Co32 O44 2.115 . S
Co32 O45 2.315 . S
Co32 O56 2.053 . S
Co32 O59 2.094 1_455 S
Co32 O62 2.122 1_455 S
Co33 O36 2.126 1_655 S
Co33 H37 2.388 . S
Co33 O38 2.044 . S
Co33 O41 2.047 . S
Co33 O47 2.113 1_655 S
Co33 O58 2.063 . S
Co34 H35 2.388 . S
Co34 O36 2.053 . S
Co34 O38 2.111 1_455 S
Co34 O43 2.063 . S
Co34 O57 2.047 . S
Co34 O63 2.106 1_455 S
H35 Co32 2.400 . S
H35 Co34 2.388 . S
H35 O36 0.760 . S
O36 Co32 2.009 . S
O36 Co33 2.126 1_455 S
O36 Co34 2.053 . S
O36 H35 0.760 . S
H37 Co33 2.388 . S
H37 O38 0.778 . S
H37 Co39 2.400 1_655 S
O38 Co33 2.044 . S
O38 Co34 2.111 1_655 S
O38 H37 0.778 . S
O38 Co39 2.014 1_655 S
Co39 H37 2.400 1_455 S
Co39 O38 2.014 1_455 S
Co39 O40 2.053 1_455 S
Co39 O42 2.094 . S
Co39 O46 2.122 . S
Co39 O60 2.115 . S
Co39 O61 2.315 1_455 S
O40 Co39 2.053 1_655 S
O40 C52 1.259 . S
O41 Co33 2.047 . S
O41 C52 1.257 . S
O42 Co39 2.094 . S
O42 C53 1.253 . S
O43 Co34 2.063 . S
O43 C53 1.268 . S
O44 Co32 2.115 . S
O44 C54 1.281 . S
O45 Co32 2.315 . S
O45 C54 1.252 . S
O46 Co39 2.122 . S
O46 C55 1.272 . S
O47 Co33 2.113 1_455 S
O47 C55 1.245 . S
C48 O56 1.259 . S
C48 O57 1.257 . S
C49 O58 1.268 . S
C49 O59 1.253 . S
C50 O60 1.281 1_655 S
C50 O61 1.252 . S
C51 O62 1.272 . S
C51 O63 1.246 . S
C52 O40 1.259 . S
C52 O41 1.257 . S
C53 O42 1.253 . S
C53 O43 1.268 . S
C54 O44 1.281 . S
C54 O45 1.252 . S
C55 O46 1.272 . S
C55 O47 1.245 . S
O56 Co32 2.053 . S
O56 C48 1.259 . S
O57 Co34 2.047 . S
O57 C48 1.257 . S
O58 Co33 2.063 . S
O58 C49 1.268 . S
O59 Co32 2.094 1_655 S
O59 C49 1.253 . S
O60 Co39 2.115 . S
O60 C50 1.281 1_455 S
O61 Co39 2.315 1_655 S
O61 C50 1.252 . S
O62 Co32 2.122 1_655 S
O62 C51 1.272 . S
O63 Co34 2.106 1_655 S
O63 C51 1.246 . S
Co64 H67 2.400 . S
Co64 O68 2.009 . S
Co64 O76 2.115 . S
Co64 O77 2.315 . S
Co64 O88 2.053 . S
Co64 O91 2.094 . S
Co64 O94 2.122 . S
Co65 O68 2.126 . S
Co65 H69 2.388 . S
Co65 O70 2.053 . S
Co65 O73 2.047 . S
Co65 O79 2.113 . S
Co65 O90 2.063 . S
Co66 H67 2.388 . S
Co66 O68 2.053 . S
Co66 O70 2.126 . S
Co66 O75 2.063 . S
Co66 O89 2.047 . S
Co66 O95 2.113 . S
H67 Co64 2.400 . S
H67 Co66 2.388 . S
H67 O68 0.760 . S
O68 Co64 2.009 . S
O68 Co65 2.126 . S
O68 Co66 2.053 . S
O68 H67 0.760 . S
H69 Co65 2.388 . S
H69 O70 0.760 . S
H69 Co71 2.400 . S
O70 Co65 2.053 . S
O70 Co66 2.126 . S
O70 H69 0.760 . S
O70 Co71 2.009 . S
Co71 H69 2.400 . S
Co71 O70 2.009 . S
Co71 O72 2.053 . S
Co71 O74 2.094 . S
Co71 O78 2.122 . S
Co71 O92 2.115 . S
Co71 O93 2.315 . S
O72 Co71 2.053 . S
O72 C84 1.259 . S
O73 Co65 2.047 . S
O73 C84 1.257 . S
O74 Co71 2.094 . S
O74 C85 1.253 . S
O75 Co66 2.063 . S
O75 C85 1.268 . S
O76 Co64 2.115 . S
O76 C86 1.281 . S
O77 Co64 2.315 . S
O77 C86 1.252 . S
O78 Co71 2.122 . S
O78 C87 1.272 . S
O79 Co65 2.113 . S
O79 C87 1.245 . S
C80 O88 1.259 . S
C80 O89 1.257 . S
C81 O90 1.268 . S
C81 O91 1.253 . S
C82 O92 1.281 . S
C82 O93 1.252 . S
C83 O94 1.272 . S
C83 O95 1.245 . S
C84 O72 1.259 . S
C84 O73 1.257 . S
C85 O74 1.253 . S
C85 O75 1.268 . S
C86 O76 1.281 . S
C86 O77 1.252 . S
C87 O78 1.272 . S
C87 O79 1.245 . S
O88 Co64 2.053 . S
O88 C80 1.259 . S
O89 Co66 2.047 . S
O89 C80 1.257 . S
O90 Co65 2.063 . S
O90 C81 1.268 . S
O91 Co64 2.094 . S
O91 C81 1.253 . S
O92 Co71 2.115 . S
O92 C82 1.281 . S
O93 Co71 2.315 . S
O93 C82 1.252 . S
O94 Co64 2.122 . S
O94 C83 1.272 . S
O95 Co66 2.113 . S
O95 C83 1.245 . S
Co96 H99 2.400 1_545 S
Co96 O100 2.009 . S
Co96 O108 2.115 . S
Co96 O109 2.315 1_545 S
Co96 O120 2.053 1_545 S
Co96 O123 2.094 . S
Co96 O126 2.122 . S
Co97 O100 2.126 . S
Co97 H101 2.388 . S
Co97 O102 2.053 . S
Co97 O105 2.047 . S
Co97 O111 2.113 . S
Co97 O122 2.063 . S
Co98 H99 2.388 1_545 S
Co98 O100 2.053 . S
Co98 O102 2.126 . S
Co98 O107 2.063 . S
Co98 O121 2.047 1_545 S
Co98 O127 2.113 . S
H99 Co96 2.400 1_565 S
H99 Co98 2.388 1_565 S
H99 O100 0.760 1_565 S
O100 Co96 2.009 . S
O100 Co97 2.126 . S
O100 Co98 2.053 . S
O100 H99 0.760 1_545 S
H101 Co97 2.388 . S
H101 O102 0.760 . S
H101 Co103 2.400 . S
O102 Co97 2.053 . S
O102 Co98 2.126 . S
O102 H101 0.760 . S
O102 Co103 2.009 . S
Co103 H101 2.400 . S
Co103 O102 2.009 . S
Co103 O104 2.053 . S
Co103 O106 2.094 . S
Co103 O110 2.122 1_545 S
Co103 O124 2.115 . S
Co103 O125 2.315 . S
O104 Co103 2.053 . S
O104 C116 1.259 . S
O105 Co97 2.047 . S
O105 C116 1.257 . S
O106 Co103 2.094 . S
O106 C117 1.253 . S
O107 Co98 2.063 . S
O107 C117 1.268 . S
O108 Co96 2.115 . S
O108 C118 1.281 1_545 S
O109 Co96 2.315 1_565 S
O109 C118 1.252 . S
O110 Co103 2.122 1_565 S
O110 C119 1.272 . S
O111 Co97 2.113 . S
O111 C119 1.245 1_545 S
C112 O120 1.259 . S
C112 O121 1.257 . S
C113 O122 1.268 . S
C113 O123 1.253 . S
C114 O124 1.281 . S
C114 O125 1.252 . S
C115 O126 1.272 . S
C115 O127 1.245 . S
C116 O104 1.259 . S
C116 O105 1.257 . S
C117 O106 1.253 . S
C117 O107 1.268 . S
C118 O108 1.281 1_565 S
C118 O109 1.252 . S
C119 O110 1.272 . S
C119 O111 1.245 1_565 S
O120 Co96 2.053 1_565 S
O120 C112 1.259 . S
O121 Co98 2.047 1_565 S
O121 C112 1.257 . S
O122 Co97 2.063 . S
O122 C113 1.268 . S
O123 Co96 2.094 . S
O123 C113 1.253 . S
O124 Co103 2.115 . S
O124 C114 1.281 . S
O125 Co103 2.315 . S
O125 C114 1.252 . S
O126 Co96 2.122 . S
O126 C115 1.272 . S
O127 Co98 2.113 . S
O127 C115 1.245 . S
Co128 H131 2.400 . S
Co128 O132 2.009 . S
Co128 O140 2.115 . S
Co128 O141 2.315 . S
Co128 O152 2.053 . S
Co128 O155 2.094 1_455 S
Co128 O158 2.122 1_455 S
Co129 O132 2.126 1_655 S
Co129 H133 2.388 . S
Co129 O134 2.053 . S
Co129 O137 2.047 . S
Co129 O143 2.113 1_655 S
Co129 O154 2.063 . S
Co130 H131 2.388 . S
Co130 O132 2.053 . S
Co130 O134 2.126 1_455 S
Co130 O139 2.063 . S
Co130 O153 2.047 . S
Co130 O159 2.113 1_455 S
H131 Co128 2.400 . S
H131 Co130 2.388 . S
H131 O132 0.760 . S
O132 Co128 2.009 . S
O132 Co129 2.126 1_455 S
O132 Co130 2.053 . S
O132 H131 0.760 . S
H133 Co129 2.388 . S
H133 O134 0.760 . S
H133 Co135 2.400 . S
O134 Co129 2.053 . S
O134 Co130 2.126 1_655 S
O134 H133 0.760 . S
O134 Co135 2.009 . S
Co135 H133 2.400 . S
Co135 O134 2.009 . S
Co135 O136 2.053 . S
Co135 O138 2.094 1_655 S
Co135 O142 2.122 1_655 S
Co135 O156 2.115 . S
Co135 O157 2.315 . S
O136 Co135 2.053 . S
O136 C148 1.259 . S
O137 Co129 2.047 . S
O137 C148 1.257 . S
O138 Co135 2.094 1_455 S
O138 C149 1.253 . S
O139 Co130 2.063 . S
O139 C149 1.268 . S
O140 Co128 2.115 . S
O140 C150 1.281 . S
O141 Co128 2.315 . S
O141 C150 1.252 . S
O142 Co135 2.122 1_455 S
O142 C151 1.272 . S
O143 Co129 2.113 1_455 S
O143 C151 1.245 . S
C144 O152 1.259 . S
C144 O153 1.257 . S
C145 O154 1.268 . S
C145 O155 1.253 . S
C146 O156 1.281 . S
C146 O157 1.252 . S
C147 O158 1.272 . S
C147 O159 1.245 . S
C148 O136 1.259 . S
C148 O137 1.257 . S
C149 O138 1.253 . S
C149 O139 1.268 . S
C150 O140 1.281 . S
C150 O141 1.252 . S
C151 O142 1.272 . S
C151 O143 1.245 . S
O152 Co128 2.053 . S
O152 C144 1.259 . S
O153 Co130 2.047 . S
O153 C144 1.257 . S
O154 Co129 2.063 . S
O154 C145 1.268 . S
O155 Co128 2.094 1_655 S
O155 C145 1.253 . S
O156 Co135 2.115 . S
O156 C146 1.281 . S
O157 Co135 2.315 . S
O157 C146 1.252 . S
O158 Co128 2.122 1_655 S
O158 C147 1.272 . S
O159 Co130 2.113 1_655 S
O159 C147 1.245 . S
Co160 H163 2.400 . S
Co160 O164 2.009 . S
Co160 O172 2.115 . S
Co160 O173 2.315 . S
Co160 O184 2.053 . S
Co160 O187 2.094 . S
Co160 O190 2.122 . S
Co161 O164 2.126 . S
Co161 H165 2.388 . S
Co161 O166 2.053 . S
Co161 O169 2.047 . S
Co161 O175 2.113 . S
Co161 O186 2.063 . S
Co162 H163 2.388 . S
Co162 O164 2.053 . S
Co162 O166 2.126 . S
Co162 O171 2.063 . S
Co162 O185 2.047 . S
Co162 O191 2.113 . S
H163 Co160 2.400 . S
H163 Co162 2.388 . S
H163 O164 0.760 . S
O164 Co160 2.009 . S
O164 Co161 2.126 . S
O164 Co162 2.053 . S
O164 H163 0.760 . S
H165 Co161 2.388 . S
H165 O166 0.760 . S
H165 Co167 2.400 . S
O166 Co161 2.053 . S
O166 Co162 2.126 . S
O166 H165 0.760 . S
O166 Co167 2.009 . S
Co167 H165 2.400 . S
Co167 O166 2.009 . S
Co167 O168 2.053 . S
Co167 O170 2.094 . S
Co167 O174 2.122 . S
Co167 O188 2.115 . S
Co167 O189 2.315 . S
O168 Co167 2.053 . S
O168 C180 1.259 . S
O169 Co161 2.047 . S
O169 C180 1.257 . S
O170 Co167 2.094 . S
O170 C181 1.253 . S
O171 Co162 2.063 . S
O171 C181 1.268 . S
O172 Co160 2.115 . S
O172 C182 1.281 . S
O173 Co160 2.315 . S
O173 C182 1.252 . S
O174 Co167 2.122 . S
O174 C183 1.272 . S
O175 Co161 2.113 . S
O175 C183 1.245 . S
C176 O184 1.259 . S
C176 O185 1.257 . S
C177 O186 1.268 . S
C177 O187 1.253 . S
C178 O188 1.281 . S
C178 O189 1.252 . S
C179 O190 1.272 . S
C179 O191 1.245 . S
C180 O168 1.259 . S
C180 O169 1.257 . S
C181 O170 1.253 . S
C181 O171 1.268 . S
C182 O172 1.281 . S
C182 O173 1.252 . S
C183 O174 1.272 . S
C183 O175 1.245 . S
O184 Co160 2.053 . S
O184 C176 1.259 . S
O185 Co162 2.047 . S
O185 C176 1.257 . S
O186 Co161 2.063 . S
O186 C177 1.268 . S
O187 Co160 2.094 . S
O187 C177 1.253 . S
O188 Co167 2.115 . S
O188 C178 1.281 . S
O189 Co167 2.315 . S
O189 C178 1.252 . S
O190 Co160 2.122 . S
O190 C179 1.272 . S
O191 Co162 2.113 . S
O191 C179 1.245 . S
Co192 H195 2.400 . S
Co192 O196 2.009 . S
Co192 O204 2.115 1_554 S
Co192 O205 2.315 . S
Co192 O216 2.053 1_554 S
Co192 O219 2.094 . S
Co192 O222 2.110 1_554 S
Co193 O196 2.126 . S
Co193 H197 2.388 . S
Co193 O198 2.053 . S
Co193 O201 2.047 . S
Co193 O207 2.113 . S
Co193 O218 2.063 . S
Co194 H195 2.388 . S
Co194 O196 2.053 . S
Co194 O198 2.126 . S
Co194 O203 2.063 . S
Co194 O217 2.047 . S
Co194 O223 2.113 . S
H195 Co192 2.400 . S
H195 Co194 2.388 . S
H195 O196 0.760 . S
O196 Co192 2.009 . S
O196 Co193 2.126 . S
O196 Co194 2.053 . S
O196 H195 0.760 . S
H197 Co193 2.388 . S
H197 O198 0.760 . S
H197 Co199 2.400 . S
O198 Co193 2.053 . S
O198 Co194 2.126 . S
O198 H197 0.760 . S
O198 Co199 2.009 . S
Co199 H197 2.400 . S
Co199 O198 2.009 . S
Co199 O200 2.053 . S
Co199 O202 2.094 . S
Co199 O206 2.122 . S
Co199 O220 2.115 . S
Co199 O221 2.315 . S
O200 Co199 2.053 . S
O200 C212 1.259 . S
O201 Co193 2.047 . S
O201 C212 1.257 . S
O202 Co199 2.094 . S
O202 C213 1.253 . S
O203 Co194 2.063 . S
O203 C213 1.268 . S
O204 Co192 2.115 1_556 S
O204 C214 1.281 1_556 S
O205 Co192 2.315 . S
O205 C214 1.252 . S
O206 Co199 2.122 . S
O206 C215 1.272 . S
O207 Co193 2.113 . S
O207 C215 1.245 . S
C208 O216 1.259 . S
C208 O217 1.257 1_556 S
C209 O218 1.268 . S
C209 O219 1.253 . S
C210 O220 1.281 . S
C210 O221 1.252 . S
C211 O222 1.276 . S
C211 O223 1.245 1_556 S
C212 O200 1.259 . S
C212 O201 1.257 . S
C213 O202 1.253 . S
C213 O203 1.268 . S
C214 O204 1.281 1_554 S
C214 O205 1.252 . S
C215 O206 1.272 . S
C215 O207 1.245 . S
O216 Co192 2.053 1_556 S
O216 C208 1.259 . S
O217 Co194 2.047 . S
O217 C208 1.257 1_554 S
O218 Co193 2.063 . S
O218 C209 1.268 . S
O219 Co192 2.094 . S
O219 C209 1.253 . S
O220 Co199 2.115 . S
O220 C210 1.281 . S
O221 Co199 2.315 . S
O221 C210 1.252 . S
O222 Co192 2.110 1_556 S
O222 C211 1.276 . S
O223 Co194 2.113 . S
O223 C211 1.245 1_554 S
Co224 H227 2.400 . S
Co224 O228 2.009 . S
Co224 O236 2.115 1_554 S
Co224 O237 2.315 . S
Co224 O248 2.053 1_554 S
Co224 O251 2.094 . S
Co224 O254 2.110 1_554 S
Co225 O228 2.126 . S
Co225 H229 2.388 . S
Co225 O230 2.053 . S
Co225 O233 2.047 . S
Co225 O239 2.113 . S
Co225 O250 2.063 . S
Co226 H227 2.388 . S
Co226 O228 2.053 . S
Co226 O230 2.126 . S
Co226 O235 2.063 . S
Co226 O249 2.047 . S
Co226 O255 2.113 . S
H227 Co224 2.400 . S
H227 Co226 2.388 . S
H227 O228 0.760 . S
O228 Co224 2.009 . S
O228 Co225 2.126 . S
O228 Co226 2.053 . S
O228 H227 0.760 . S
H229 Co225 2.388 . S
H229 O230 0.760 . S
H229 Co231 2.400 . S
O230 Co225 2.053 . S
O230 Co226 2.126 . S
O230 H229 0.760 . S
O230 Co231 2.009 . S
Co231 H229 2.400 . S
Co231 O230 2.009 . S
Co231 O232 2.053 . S
Co231 O234 2.094 . S
Co231 O238 2.122 . S
Co231 O252 2.115 . S
Co231 O253 2.315 . S
O232 Co231 2.053 . S
O232 C244 1.259 . S
O233 Co225 2.047 . S
O233 C244 1.257 . S
O234 Co231 2.094 . S
O234 C245 1.253 . S
O235 Co226 2.063 . S
O235 C245 1.268 . S
O236 Co224 2.115 1_556 S
O236 C246 1.281 1_556 S
O237 Co224 2.315 . S
O237 C246 1.252 . S
O238 Co231 2.122 . S
O238 C247 1.272 . S
O239 Co225 2.113 . S
O239 C247 1.245 . S
C240 O248 1.259 . S
C240 O249 1.257 1_556 S
C241 O250 1.268 . S
C241 O251 1.253 . S
C242 O252 1.281 . S
C242 O253 1.252 . S
C243 O254 1.276 . S
C243 O255 1.245 1_556 S
C244 O232 1.259 . S
C244 O233 1.257 . S
C245 O234 1.253 . S
C245 O235 1.268 . S
C246 O236 1.281 1_554 S
C246 O237 1.252 . S
C247 O238 1.272 . S
C247 O239 1.245 . S
O248 Co224 2.053 1_556 S
O248 C240 1.259 . S
O249 Co226 2.047 . S
O249 C240 1.257 1_554 S
O250 Co225 2.063 . S
O250 C241 1.268 . S
O251 Co224 2.094 . S
O251 C241 1.253 . S
O252 Co231 2.115 . S
O252 C242 1.281 . S
O253 Co231 2.315 . S
O253 C242 1.252 . S
O254 Co224 2.110 1_556 S
O254 C243 1.276 . S
O255 Co226 2.113 . S
O255 C243 1.245 1_554 S
Co256 H259 2.400 . S
Co256 O260 2.009 . S
Co256 O268 2.115 1_554 S
Co256 O269 2.315 . S
Co256 O280 2.053 1_554 S
Co256 O283 2.094 . S
Co256 O286 2.110 1_554 S
Co257 O260 2.126 . S
Co257 H261 2.388 . S
Co257 O262 2.053 . S
Co257 O265 2.047 . S
Co257 O271 2.113 . S
Co257 O282 2.063 . S
Co258 H259 2.388 . S
Co258 O260 2.053 . S
Co258 O262 2.126 . S
Co258 O267 2.063 . S
Co258 O281 2.047 . S
Co258 O287 2.113 . S
H259 Co256 2.400 . S
H259 Co258 2.388 . S
H259 O260 0.760 . S
O260 Co256 2.009 . S
O260 Co257 2.126 . S
O260 Co258 2.053 . S
O260 H259 0.760 . S
H261 Co257 2.388 . S
H261 O262 0.760 . S
H261 Co263 2.400 . S
O262 Co257 2.053 . S
O262 Co258 2.126 . S
O262 H261 0.760 . S
O262 Co263 2.009 . S
Co263 H261 2.400 . S
Co263 O262 2.009 . S
Co263 O264 2.053 . S
Co263 O266 2.094 . S
Co263 O270 2.122 . S
Co263 O284 2.115 . S
Co263 O285 2.315 . S
O264 Co263 2.053 . S
O264 C276 1.259 . S
O265 Co257 2.047 . S
O265 C276 1.257 . S
O266 Co263 2.094 . S
O266 C277 1.253 . S
O267 Co258 2.063 . S
O267 C277 1.268 . S
O268 Co256 2.115 1_556 S
O268 C278 1.281 1_556 S
O269 Co256 2.315 . S
O269 C278 1.252 . S
O270 Co263 2.122 . S
O270 C279 1.272 . S
O271 Co257 2.113 . S
O271 C279 1.245 . S
C272 O280 1.259 . S
C272 O281 1.257 1_556 S
C273 O282 1.268 . S
C273 O283 1.253 . S
C274 O284 1.281 . S
C274 O285 1.252 . S
C275 O286 1.276 . S
C275 O287 1.245 1_556 S
C276 O264 1.259 . S
C276 O265 1.257 . S
C277 O266 1.253 . S
C277 O267 1.268 . S
C278 O268 1.281 1_554 S
C278 O269 1.252 . S
C279 O270 1.272 . S
C279 O271 1.245 . S
O280 Co256 2.053 1_556 S
O280 C272 1.259 . S
O281 Co258 2.047 . S
O281 C272 1.257 1_554 S
O282 Co257 2.063 . S
O282 C273 1.268 . S
O283 Co256 2.094 . S
O283 C273 1.253 . S
O284 Co263 2.115 . S
O284 C274 1.281 . S
O285 Co263 2.315 . S
O285 C274 1.252 . S
O286 Co256 2.110 1_556 S
O286 C275 1.276 . S
O287 Co258 2.113 . S
O287 C275 1.245 1_554 S
Co288 H291 2.400 . S
Co288 O292 2.009 . S
Co288 O300 2.115 . S
Co288 O301 2.315 . S
Co288 O312 2.053 . S
Co288 O315 2.094 . S
Co288 O318 2.122 . S
Co289 O292 2.126 . S
Co289 H293 2.388 . S
Co289 O294 2.053 . S
Co289 O297 2.047 . S
Co289 O303 2.113 . S
Co289 O314 2.063 . S
Co290 H291 2.388 . S
Co290 O292 2.053 . S
Co290 O294 2.126 . S
Co290 O299 2.063 . S
Co290 O313 2.047 . S
Co290 O319 2.113 . S
H291 Co288 2.400 . S
H291 Co290 2.388 . S
H291 O292 0.760 . S
O292 Co288 2.009 . S
O292 Co289 2.126 . S
O292 Co290 2.053 . S
O292 H291 0.760 . S
H293 Co289 2.388 . S
H293 O294 0.760 . S
H293 Co295 2.400 . S
O294 Co289 2.053 . S
O294 Co290 2.126 . S
O294 H293 0.760 . S
O294 Co295 2.009 . S
Co295 H293 2.400 . S
Co295 O294 2.009 . S
Co295 O296 2.053 . S
Co295 O298 2.094 . S
Co295 O302 2.122 . S
Co295 O316 2.115 . S
Co295 O317 2.315 . S
O296 Co295 2.053 . S
O296 C308 1.259 . S
O297 Co289 2.047 . S
O297 C308 1.257 . S
O298 Co295 2.094 . S
O298 C309 1.253 . S
O299 Co290 2.063 . S
O299 C309 1.268 . S
O300 Co288 2.115 . S
O300 C310 1.281 . S
O301 Co288 2.315 . S
O301 C310 1.252 . S
O302 Co295 2.122 . S
O302 C311 1.272 . S
O303 Co289 2.113 . S
O303 C311 1.245 . S
C304 O312 1.259 . S
C304 O313 1.257 . S
C305 O314 1.268 . S
C305 O315 1.253 . S
C306 O316 1.281 . S
C306 O317 1.252 . S
C307 O318 1.272 . S
C307 O319 1.245 . S
C308 O296 1.259 . S
C308 O297 1.257 . S
C309 O298 1.253 . S
C309 O299 1.268 . S
C310 O300 1.281 . S
C310 O301 1.252 . S
C311 O302 1.272 . S
C311 O303 1.245 . S
O312 Co288 2.053 . S
O312 C304 1.259 . S
O313 Co290 2.047 . S
O313 C304 1.257 . S
O314 Co289 2.063 . S
O314 C305 1.268 . S
O315 Co288 2.094 . S
O315 C305 1.253 . S
O316 Co295 2.115 . S
O316 C306 1.281 . S
O317 Co295 2.315 . S
O317 C306 1.252 . S
O318 Co288 2.122 . S
O318 C307 1.272 . S
O319 Co290 2.113 . S
O319 C307 1.245 . S
Co320 H323 2.400 . S
Co320 O324 2.009 . S
Co320 O332 2.115 . S
Co320 O333 2.315 . S
Co320 O344 2.053 . S
Co320 O347 2.094 . S
Co320 O350 2.122 . S
Co321 O324 2.126 . S
Co321 H325 2.388 . S
Co321 O326 2.053 . S
Co321 O329 2.047 . S
Co321 O335 2.113 . S
Co321 O346 2.063 . S
Co322 H323 2.388 . S
Co322 O324 2.053 . S
Co322 O326 2.126 . S
Co322 O331 2.063 . S
Co322 O345 2.047 . S
Co322 O351 2.113 . S
H323 Co320 2.400 . S
H323 Co322 2.388 . S
H323 O324 0.760 . S
O324 Co320 2.009 . S
O324 Co321 2.126 . S
O324 Co322 2.053 . S
O324 H323 0.760 . S
H325 Co321 2.388 . S
H325 O326 0.760 . S
H325 Co327 2.400 . S
O326 Co321 2.053 . S
O326 Co322 2.126 . S
O326 H325 0.760 . S
O326 Co327 2.009 . S
Co327 H325 2.400 . S
Co327 O326 2.009 . S
Co327 O328 2.053 . S
Co327 O330 2.094 . S
Co327 O334 2.122 . S
Co327 O348 2.115 . S
Co327 O349 2.315 . S
O328 Co327 2.053 . S
O328 C340 1.259 . S
O329 Co321 2.047 . S
O329 C340 1.257 . S
O330 Co327 2.094 . S
O330 C341 1.253 . S
O331 Co322 2.063 . S
O331 C341 1.268 . S
O332 Co320 2.115 . S
O332 C342 1.281 . S
O333 Co320 2.315 . S
O333 C342 1.252 . S
O334 Co327 2.122 . S
O334 C343 1.272 . S
O335 Co321 2.113 . S
O335 C343 1.245 . S
C336 O344 1.259 . S
C336 O345 1.257 . S
C337 O346 1.268 . S
C337 O347 1.253 . S
C338 O348 1.281 . S
C338 O349 1.252 . S
C339 O350 1.272 . S
C339 O351 1.245 . S
C340 O328 1.259 . S
C340 O329 1.257 . S
C341 O330 1.253 . S
C341 O331 1.268 . S
C342 O332 1.281 . S
C342 O333 1.252 . S
C343 O334 1.272 . S
C343 O335 1.245 . S
O344 Co320 2.053 . S
O344 C336 1.259 . S
O345 Co322 2.047 . S
O345 C336 1.257 . S
O346 Co321 2.063 . S
O346 C337 1.268 . S
O347 Co320 2.094 . S
O347 C337 1.253 . S
O348 Co327 2.115 . S
O348 C338 1.281 . S
O349 Co327 2.315 . S
O349 C338 1.252 . S
O350 Co320 2.122 . S
O350 C339 1.272 . S
O351 Co322 2.113 . S
O351 C339 1.245 . S
Co352 H355 2.400 . S
Co352 O356 2.009 . S
Co352 O364 2.115 . S
Co352 O365 2.315 . S
Co352 O376 2.053 . S
Co352 O379 2.094 . S
Co352 O382 2.122 . S
Co353 O356 2.126 . S
Co353 H357 2.388 . S
Co353 O358 2.053 . S
Co353 O361 2.047 . S
Co353 O367 2.113 . S
Co353 O378 2.063 . S
Co354 H355 2.388 . S
Co354 O356 2.053 . S
Co354 O358 2.126 . S
Co354 O363 2.063 . S
Co354 O377 2.047 . S
Co354 O383 2.113 . S
H355 Co352 2.400 . S
H355 Co354 2.388 . S
H355 O356 0.760 . S
O356 Co352 2.009 . S
O356 Co353 2.126 . S
O356 Co354 2.053 . S
O356 H355 0.760 . S
H357 Co353 2.388 . S
H357 O358 0.760 . S
H357 Co359 2.400 . S
O358 Co353 2.053 . S
O358 Co354 2.126 . S
O358 H357 0.760 . S
O358 Co359 2.009 . S
Co359 H357 2.400 . S
Co359 O358 2.009 . S
Co359 O360 2.053 . S
Co359 O362 2.094 . S
Co359 O366 2.122 . S
Co359 O380 2.115 . S
Co359 O381 2.315 . S
O360 Co359 2.053 . S
O360 C372 1.259 . S
O361 Co353 2.047 . S
O361 C372 1.257 . S
O362 Co359 2.094 . S
O362 C373 1.253 . S
O363 Co354 2.063 . S
O363 C373 1.268 . S
O364 Co352 2.115 . S
O364 C374 1.281 . S
O365 Co352 2.315 . S
O365 C374 1.252 . S
O366 Co359 2.122 . S
O366 C375 1.272 . S
O367 Co353 2.113 . S
O367 C375 1.245 . S
C368 O376 1.259 . S
C368 O377 1.257 . S
C369 O378 1.268 . S
C369 O379 1.253 . S
C370 O380 1.281 . S
C370 O381 1.252 . S
C371 O382 1.272 . S
C371 O383 1.245 . S
C372 O360 1.259 . S
C372 O361 1.257 . S
C373 O362 1.253 . S
C373 O363 1.268 . S
C374 O364 1.281 . S
C374 O365 1.252 . S
C375 O366 1.272 . S
C375 O367 1.245 . S
O376 Co352 2.053 . S
O376 C368 1.259 . S
O377 Co354 2.047 . S
O377 C368 1.257 . S
O378 Co353 2.063 . S
O378 C369 1.268 . S
O379 Co352 2.094 . S
O379 C369 1.253 . S
O380 Co359 2.115 . S
O380 C370 1.281 . S
O381 Co359 2.315 . S
O381 C370 1.252 . S
O382 Co352 2.122 . S
O382 C371 1.272 . S
O383 Co354 2.113 . S
O383 C371 1.245 . S
Co384 H387 2.400 . S
Co384 O388 2.009 . S
Co384 O396 2.115 . S
Co384 O397 2.315 . S
Co384 O408 2.053 . S
Co384 O411 2.094 . S
Co384 O414 2.122 . S
Co385 O388 2.126 . S
Co385 H389 2.388 . S
Co385 O390 2.053 . S
Co385 O393 2.047 . S
Co385 O399 2.113 . S
Co385 O410 2.063 . S
Co386 H387 2.388 . S
Co386 O388 2.053 . S
Co386 O390 2.126 . S
Co386 O395 2.063 . S
Co386 O409 2.047 . S
Co386 O415 2.113 . S
H387 Co384 2.400 . S
H387 Co386 2.388 . S
H387 O388 0.760 . S
O388 Co384 2.009 . S
O388 Co385 2.126 . S
O388 Co386 2.053 . S
O388 H387 0.760 . S
H389 Co385 2.388 . S
H389 O390 0.760 . S
H389 Co391 2.400 . S
O390 Co385 2.053 . S
O390 Co386 2.126 . S
O390 H389 0.760 . S
O390 Co391 2.009 . S
Co391 H389 2.400 . S
Co391 O390 2.009 . S
Co391 O392 2.053 . S
Co391 O394 2.094 . S
Co391 O398 2.122 . S
Co391 O412 2.115 . S
Co391 O413 2.315 . S
O392 Co391 2.053 . S
O392 C404 1.259 . S
O393 Co385 2.047 . S
O393 C404 1.257 . S
O394 Co391 2.094 . S
O394 C405 1.253 . S
O395 Co386 2.063 . S
O395 C405 1.268 . S
O396 Co384 2.115 . S
O396 C406 1.281 . S
O397 Co384 2.315 . S
O397 C406 1.252 . S
O398 Co391 2.122 . S
O398 C407 1.272 . S
O399 Co385 2.113 . S
O399 C407 1.245 . S
C400 O408 1.259 . S
C400 O409 1.257 . S
C401 O410 1.268 . S
C401 O411 1.253 . S
C402 O412 1.281 . S
C402 O413 1.252 . S
C403 O414 1.272 . S
C403 O415 1.245 . S
C404 O392 1.259 . S
C404 O393 1.257 . S
C405 O394 1.253 . S
C405 O395 1.268 . S
C406 O396 1.281 . S
C406 O397 1.252 . S
C407 O398 1.272 . S
C407 O399 1.245 . S
O408 Co384 2.053 . S
O408 C400 1.259 . S
O409 Co386 2.047 . S
O409 C400 1.257 . S
O410 Co385 2.063 . S
O410 C401 1.268 . S
O411 Co384 2.094 . S
O411 C401 1.253 . S
O412 Co391 2.115 . S
O412 C402 1.281 . S
O413 Co391 2.315 . S
O413 C402 1.252 . S
O414 Co384 2.122 . S
O414 C403 1.272 . S
O415 Co386 2.113 . S
O415 C403 1.245 . S
Co416 H419 2.400 . S
Co416 O420 2.009 . S
Co416 O428 2.115 . S
Co416 O429 2.315 . S
Co416 O440 2.053 . S
Co416 O443 2.094 . S
Co416 O446 2.122 . S
Co417 O420 2.126 . S
Co417 H421 2.388 . S
Co417 O422 2.053 . S
Co417 O425 2.047 . S
Co417 O431 2.113 . S
Co417 O442 2.063 . S
Co418 H419 2.388 . S
Co418 O420 2.053 . S
Co418 O422 2.126 . S
Co418 O427 2.063 . S
Co418 O441 2.047 . S
Co418 O447 2.113 . S
H419 Co416 2.400 . S
H419 Co418 2.388 . S
H419 O420 0.760 . S
O420 Co416 2.009 . S
O420 Co417 2.126 . S
O420 Co418 2.053 . S
O420 H419 0.760 . S
H421 Co417 2.388 . S
H421 O422 0.760 . S
H421 Co423 2.400 . S
O422 Co417 2.053 . S
O422 Co418 2.126 . S
O422 H421 0.760 . S
O422 Co423 2.009 . S
Co423 H421 2.400 . S
Co423 O422 2.009 . S
Co423 O424 2.053 . S
Co423 O426 2.094 . S
Co423 O430 2.122 . S
Co423 O444 2.115 . S
Co423 O445 2.315 . S
O424 Co423 2.053 . S
O424 C436 1.259 . S
O425 Co417 2.047 . S
O425 C436 1.257 . S
O426 Co423 2.094 . S
O426 C437 1.253 . S
O427 Co418 2.063 . S
O427 C437 1.268 . S
O428 Co416 2.115 . S
O428 C438 1.281 . S
O429 Co416 2.315 . S
O429 C438 1.252 . S
O430 Co423 2.122 . S
O430 C439 1.272 . S
O431 Co417 2.113 . S
O431 C439 1.245 . S
C432 O440 1.259 . S
C432 O441 1.257 . S
C433 O442 1.268 . S
C433 O443 1.253 . S
C434 O444 1.281 . S
C434 O445 1.252 . S
C435 O446 1.272 . S
C435 O447 1.245 . S
C436 O424 1.259 . S
C436 O425 1.257 . S
C437 O426 1.253 . S
C437 O427 1.268 . S
C438 O428 1.281 . S
C438 O429 1.252 . S
C439 O430 1.272 . S
C439 O431 1.245 . S
O440 Co416 2.053 . S
O440 C432 1.259 . S
O441 Co418 2.047 . S
O441 C432 1.257 . S
O442 Co417 2.063 . S
O442 C433 1.268 . S
O443 Co416 2.094 . S
O443 C433 1.253 . S
O444 Co423 2.115 . S
O444 C434 1.281 . S
O445 Co423 2.315 . S
O445 C434 1.252 . S
O446 Co416 2.122 . S
O446 C435 1.272 . S
O447 Co418 2.113 . S
O447 C435 1.245 . S
Co448 H451 2.400 . S
Co448 O452 2.009 . S
Co448 O460 2.115 . S
Co448 O461 2.315 . S
Co448 O472 2.053 . S
Co448 O475 2.094 . S
Co448 O478 2.122 . S
Co449 O452 2.126 . S
Co449 H453 2.388 . S
Co449 O454 2.053 . S
Co449 O457 2.047 . S
Co449 O463 2.113 . S
Co449 O474 2.063 . S
Co450 H451 2.388 . S
Co450 O452 2.053 . S
Co450 O454 2.126 . S
Co450 O459 2.063 . S
Co450 O473 2.047 . S
Co450 O479 2.113 . S
H451 Co448 2.400 . S
H451 Co450 2.388 . S
H451 O452 0.760 . S
O452 Co448 2.009 . S
O452 Co449 2.126 . S
O452 Co450 2.053 . S
O452 H451 0.760 . S
H453 Co449 2.388 . S
H453 O454 0.760 . S
H453 Co455 2.400 . S
O454 Co449 2.053 . S
O454 Co450 2.126 . S
O454 H453 0.760 . S
O454 Co455 2.009 . S
Co455 H453 2.400 . S
Co455 O454 2.009 . S
Co455 O456 2.053 . S
Co455 O458 2.094 . S
Co455 O462 2.122 . S
Co455 O476 2.115 . S
Co455 O477 2.315 . S
O456 Co455 2.053 . S
O456 C468 1.259 . S
O457 Co449 2.047 . S
O457 C468 1.257 . S
O458 Co455 2.094 . S
O458 C469 1.253 . S
O459 Co450 2.063 . S
O459 C469 1.268 . S
O460 Co448 2.115 . S
O460 C470 1.281 . S
O461 Co448 2.315 . S
O461 C470 1.252 . S
O462 Co455 2.122 . S
O462 C471 1.272 . S
O463 Co449 2.113 . S
O463 C471 1.245 . S
C464 O472 1.259 . S
C464 O473 1.257 . S
C465 O474 1.268 . S
C465 O475 1.253 . S
C466 O476 1.281 . S
C466 O477 1.252 . S
C467 O478 1.272 . S
C467 O479 1.245 . S
C468 O456 1.259 . S
C468 O457 1.257 . S
C469 O458 1.253 . S
C469 O459 1.268 . S
C470 O460 1.281 . S
C470 O461 1.252 . S
C471 O462 1.272 . S
C471 O463 1.245 . S
O472 Co448 2.053 . S
O472 C464 1.259 . S
O473 Co450 2.047 . S
O473 C464 1.257 . S
O474 Co449 2.063 . S
O474 C465 1.268 . S
O475 Co448 2.094 . S
O475 C465 1.253 . S
O476 Co455 2.115 . S
O476 C466 1.281 . S
O477 Co455 2.315 . S
O477 C466 1.252 . S
O478 Co448 2.122 . S
O478 C467 1.272 . S
O479 Co450 2.113 . S
O479 C467 1.245 . S
Co480 H483 2.400 . S
Co480 O484 2.009 . S
Co480 O492 2.115 . S
Co480 O493 2.315 . S
Co480 O504 2.053 . S
Co480 O507 2.094 . S
Co480 O510 2.122 . S
Co481 O484 2.126 . S
Co481 H485 2.388 . S
Co481 O486 2.053 . S
Co481 O489 2.047 . S
Co481 O495 2.113 . S
Co481 O506 2.063 . S
Co482 H483 2.388 . S
Co482 O484 2.053 . S
Co482 O486 2.126 . S
Co482 O491 2.063 . S
Co482 O505 2.047 . S
Co482 O511 2.113 . S
H483 Co480 2.400 . S
H483 Co482 2.388 . S
H483 O484 0.760 . S
O484 Co480 2.009 . S
O484 Co481 2.126 . S
O484 Co482 2.053 . S
O484 H483 0.760 . S
H485 Co481 2.388 . S
H485 O486 0.760 . S
H485 Co487 2.400 . S
O486 Co481 2.053 . S
O486 Co482 2.126 . S
O486 H485 0.760 . S
O486 Co487 2.009 . S
Co487 H485 2.400 . S
Co487 O486 2.009 . S
Co487 O488 2.053 1_556 S
Co487 O490 2.094 . S
Co487 O494 2.110 1_556 S
Co487 O508 2.115 1_556 S
Co487 O509 2.315 . S
O488 Co487 2.053 1_554 S
O488 C500 1.259 . S
O489 Co481 2.047 . S
O489 C500 1.257 1_556 S
O490 Co487 2.094 . S
O490 C501 1.253 . S
O491 Co482 2.063 . S
O491 C501 1.268 . S
O492 Co480 2.115 . S
O492 C502 1.281 . S
O493 Co480 2.315 . S
O493 C502 1.252 . S
O494 Co487 2.110 1_554 S
O494 C503 1.277 . S
O495 Co481 2.113 . S
O495 C503 1.245 1_556 S
C496 O504 1.259 . S
C496 O505 1.257 . S
C497 O506 1.268 . S
C497 O507 1.253 . S
C498 O508 1.281 1_556 S
C498 O509 1.252 . S
C499 O510 1.272 . S
C499 O511 1.245 . S
C500 O488 1.259 . S
C500 O489 1.257 1_554 S
C501 O490 1.253 . S
C501 O491 1.268 . S
C502 O492 1.281 . S
C502 O493 1.252 . S
C503 O494 1.277 . S
C503 O495 1.245 1_554 S
O504 Co480 2.053 . S
O504 C496 1.259 . S
O505 Co482 2.047 . S
O505 C496 1.257 . S
O506 Co481 2.063 . S
O506 C497 1.268 . S
O507 Co480 2.094 . S
O507 C497 1.253 . S
O508 Co487 2.115 1_554 S
O508 C498 1.281 1_554 S
O509 Co487 2.315 . S
O509 C498 1.252 . S
O510 Co480 2.122 . S
O510 C499 1.272 . S
O511 Co482 2.113 . S
O511 C499 1.245 . S
Co512 H515 2.400 . S
Co512 O516 2.009 . S
Co512 O524 2.115 . S
Co512 O525 2.315 . S
Co512 O536 2.053 . S
Co512 O539 2.094 . S
Co512 O542 2.122 . S
Co513 O516 2.126 . S
Co513 H517 2.388 . S
Co513 O518 2.053 . S
Co513 O521 2.047 . S
Co513 O527 2.113 . S
Co513 O538 2.063 . S
Co514 H515 2.388 . S
Co514 O516 2.053 . S
Co514 O518 2.126 . S
Co514 O523 2.063 . S
Co514 O537 2.047 . S
Co514 O543 2.113 . S
H515 Co512 2.400 . S
H515 Co514 2.388 . S
H515 O516 0.760 . S
O516 Co512 2.009 . S
O516 Co513 2.126 . S
O516 Co514 2.053 . S
O516 H515 0.760 . S
H517 Co513 2.388 . S
H517 O518 0.760 . S
H517 Co519 2.400 . S
O518 Co513 2.053 . S
O518 Co514 2.126 . S
O518 H517 0.760 . S
O518 Co519 2.009 . S
Co519 H517 2.400 . S
Co519 O518 2.009 . S
Co519 O520 2.053 1_556 S
Co519 O522 2.094 . S
Co519 O526 2.110 1_556 S
Co519 O540 2.115 1_556 S
Co519 O541 2.315 . S
O520 Co519 2.053 1_554 S
O520 C532 1.259 . S
O521 Co513 2.047 . S
O521 C532 1.257 1_556 S
O522 Co519 2.094 . S
O522 C533 1.253 . S
O523 Co514 2.063 . S
O523 C533 1.268 . S
O524 Co512 2.115 . S
O524 C534 1.281 . S
O525 Co512 2.315 . S
O525 C534 1.252 . S
O526 Co519 2.110 1_554 S
O526 C535 1.277 . S
O527 Co513 2.113 . S
O527 C535 1.245 1_556 S
C528 O536 1.259 . S
C528 O537 1.257 . S
C529 O538 1.268 . S
C529 O539 1.253 . S
C530 O540 1.281 1_556 S
C530 O541 1.252 . S
C531 O542 1.272 . S
C531 O543 1.245 . S
C532 O520 1.259 . S
C532 O521 1.257 1_554 S
C533 O522 1.253 . S
C533 O523 1.268 . S
C534 O524 1.281 . S
C534 O525 1.252 . S
C535 O526 1.277 . S
C535 O527 1.245 1_554 S
O536 Co512 2.053 . S
O536 C528 1.259 . S
O537 Co514 2.047 . S
O537 C528 1.257 . S
O538 Co513 2.063 . S
O538 C529 1.268 . S
O539 Co512 2.094 . S
O539 C529 1.253 . S
O540 Co519 2.115 1_554 S
O540 C530 1.281 1_554 S
O541 Co519 2.315 . S
O541 C530 1.252 . S
O542 Co512 2.122 . S
O542 C531 1.272 . S
O543 Co514 2.113 . S
O543 C531 1.245 . S
Co544 H547 2.400 . S
Co544 O548 2.009 . S
Co544 O556 2.115 . S
Co544 O557 2.315 . S
Co544 O568 2.053 . S
Co544 O571 2.094 . S
Co544 O574 2.122 . S
Co545 O548 2.126 . S
Co545 H549 2.388 . S
Co545 O550 2.053 . S
Co545 O553 2.047 . S
Co545 O559 2.113 . S
Co545 O570 2.063 . S
Co546 H547 2.388 . S
Co546 O548 2.053 . S
Co546 O550 2.126 . S
Co546 O555 2.063 . S
Co546 O569 2.047 . S
Co546 O575 2.113 . S
H547 Co544 2.400 . S
H547 Co546 2.388 . S
H547 O548 0.760 . S
O548 Co544 2.009 . S
O548 Co545 2.126 . S
O548 Co546 2.053 . S
O548 H547 0.760 . S
H549 Co545 2.388 . S
H549 O550 0.760 . S
H549 Co551 2.400 . S
O550 Co545 2.053 . S
O550 Co546 2.126 . S
O550 H549 0.760 . S
O550 Co551 2.009 . S
Co551 H549 2.400 . S
Co551 O550 2.009 . S
Co551 O552 2.053 1_556 S
Co551 O554 2.094 . S
Co551 O558 2.110 1_556 S
Co551 O572 2.115 1_556 S
Co551 O573 2.315 . S
O552 Co551 2.053 1_554 S
O552 C564 1.259 . S
O553 Co545 2.047 . S
O553 C564 1.257 1_556 S
O554 Co551 2.094 . S
O554 C565 1.253 . S
O555 Co546 2.063 . S
O555 C565 1.268 . S
O556 Co544 2.115 . S
O556 C566 1.281 . S
O557 Co544 2.315 . S
O557 C566 1.252 . S
O558 Co551 2.110 1_554 S
O558 C567 1.277 . S
O559 Co545 2.113 . S
O559 C567 1.245 1_556 S
C560 O568 1.259 . S
C560 O569 1.257 . S
C561 O570 1.268 . S
C561 O571 1.253 . S
C562 O572 1.281 1_556 S
C562 O573 1.252 . S
C563 O574 1.272 . S
C563 O575 1.245 . S
C564 O552 1.259 . S
C564 O553 1.257 1_554 S
C565 O554 1.253 . S
C565 O555 1.268 . S
C566 O556 1.281 . S
C566 O557 1.252 . S
C567 O558 1.277 . S
C567 O559 1.245 1_554 S
O568 Co544 2.053 . S
O568 C560 1.259 . S
O569 Co546 2.047 . S
O569 C560 1.257 . S
O570 Co545 2.063 . S
O570 C561 1.268 . S
O571 Co544 2.094 . S
O571 C561 1.253 . S
O572 Co551 2.115 1_554 S
O572 C562 1.281 1_554 S
O573 Co551 2.315 . S
O573 C562 1.252 . S
O574 Co544 2.122 . S
O574 C563 1.272 . S
O575 Co546 2.113 . S
O575 C563 1.245 . S
C576 C577 1.349 . S
C576 C578 1.327 . S
C576 H601 0.950 . S
C577 C576 1.349 . S
C577 C593 1.349 . S
C578 C576 1.327 . S
C578 C597 1.429 . S
C578 H602 0.950 . S
C579 C596 1.574 . S
C579 C598 1.368 . S
C579 H603 0.949 . S
H580 C584 0.949 . S
C581 C582 1.349 . S
C581 C583 1.327 . S
C581 H604 0.950 . S
C582 C581 1.349 . S
C582 C594 1.349 . S
C583 C581 1.327 . S
C583 C599 1.429 . S
C583 H605 0.950 . S
C584 H580 0.949 . S
C584 C592 1.574 . S
C584 C600 1.368 . S
H585 C593 0.950 . S
H586 C591 0.950 . S
H587 C592 0.949 . S
H588 C594 0.950 . S
H589 C595 0.950 . S
H590 C596 0.949 . S
C591 H586 0.950 . S
C591 C593 1.327 . S
C591 C597 1.429 . S
C592 C584 1.574 . S
C592 H587 0.949 . S
C592 C598 1.368 . S
C593 C577 1.349 . S
C593 H585 0.950 . S
C593 C591 1.327 . S
C594 C582 1.349 . S
C594 H588 0.950 . S
C594 C595 1.327 . S
C595 H589 0.950 . S
C595 C594 1.327 . S
C595 C599 1.429 . S
C596 C579 1.574 . S
C596 H590 0.949 . S
C596 C600 1.368 . S
C597 C578 1.429 . S
C597 C591 1.429 . S
C597 C598 1.523 . S
C598 C579 1.368 . S
C598 C592 1.368 . S
C598 C597 1.523 . S
C599 C583 1.429 . S
C599 C595 1.429 . S
C599 C600 1.523 . S
C600 C584 1.368 . S
C600 C596 1.368 . S
C600 C599 1.523 . S
H601 C576 0.950 . S
H602 C578 0.950 . S
H603 C579 0.949 . S
H604 C581 0.950 . S
H605 C583 0.950 . S
C606 C607 1.349 . S
C606 C608 1.327 . S
C606 H631 0.950 1_655 S
C607 C606 1.349 . S
C607 C623 1.349 . S
C608 C606 1.327 . S
C608 C627 1.429 . S
C608 H632 0.950 . S
C609 C626 1.574 . S
C609 C628 1.368 . S
C609 H633 0.949 . S
H610 C614 0.949 . S
C611 C612 1.349 . S
C611 C613 1.327 . S
C611 H634 0.950 . S
C612 C611 1.349 . S
C612 C624 1.349 . S
C613 C611 1.327 . S
C613 C629 1.429 . S
C613 H635 0.950 . S
C614 H610 0.949 . S
C614 C622 1.574 . S
C614 C630 1.368 . S
H615 C623 0.950 . S
H616 C621 0.950 . S
H617 C622 0.949 . S
H618 C624 0.950 . S
H619 C625 0.950 . S
H620 C626 0.949 1_565 S
C621 H616 0.950 . S
C621 C623 1.327 . S
C621 C627 1.429 . S
C622 C614 1.574 . S
C622 H617 0.949 . S
C622 C628 1.368 . S
C623 C607 1.349 . S
C623 H615 0.950 . S
C623 C621 1.327 . S
C624 C612 1.349 . S
C624 H618 0.950 . S
C624 C625 1.327 . S
C625 H619 0.950 . S
C625 C624 1.327 . S
C625 C629 1.429 . S
C626 C609 1.574 . S
C626 H620 0.949 1_545 S
C626 C630 1.368 . S
C627 C608 1.429 . S
C627 C621 1.429 . S
C627 C628 1.523 . S
C628 C609 1.368 . S
C628 C622 1.368 . S
C628 C627 1.523 . S
C629 C613 1.429 . S
C629 C625 1.429 . S
C629 C630 1.523 1_565 S
C630 C614 1.368 . S
C630 C626 1.368 . S
C630 C629 1.523 1_545 S
H631 C606 0.950 1_455 S
H632 C608 0.950 . S
H633 C609 0.949 . S
H634 C611 0.950 . S
H635 C613 0.950 . S
C636 C637 1.349 . S
C636 C638 1.327 . S
C636 H661 0.950 . S
C637 C636 1.349 . S
C637 C653 1.349 . S
C638 C636 1.327 . S
C638 C657 1.429 . S
C638 H662 0.950 . S
C639 C656 1.574 1_655 S
C639 C658 1.368 . S
C639 H663 0.949 . S
H640 C644 0.949 . S
C641 C642 1.349 . S
C641 C643 1.327 . S
C641 H664 0.950 . S
C642 C641 1.349 . S
C642 C654 1.349 . S
C643 C641 1.327 . S
C643 C659 1.429 . S
C643 H665 0.950 . S
C644 H640 0.949 . S
C644 C652 1.574 1_455 S
C644 C660 1.368 . S
H645 C653 0.950 . S
H646 C651 0.950 . S
H647 C652 0.949 . S
H648 C654 0.950 . S
H649 C655 0.950 . S
H650 C656 0.949 . S
C651 H646 0.950 . S
C651 C653 1.327 . S
C651 C657 1.429 . S
C652 C644 1.574 1_655 S
C652 H647 0.949 . S
C652 C658 1.368 . S
C653 C637 1.349 . S
C653 H645 0.950 . S
C653 C651 1.327 . S
C654 C642 1.349 . S
C654 H648 0.950 . S
C654 C655 1.327 . S
C655 H649 0.950 . S
C655 C654 1.327 . S
C655 C659 1.429 . S
C656 C639 1.574 1_455 S
C656 H650 0.949 . S
C656 C660 1.368 . S
C657 C638 1.429 . S
C657 C651 1.429 . S
C657 C658 1.523 . S
C658 C639 1.368 . S
C658 C652 1.368 . S
C658 C657 1.523 . S
C659 C643 1.429 . S
C659 C655 1.429 . S
C659 C660 1.523 . S
C660 C644 1.368 . S
C660 C656 1.368 . S
C660 C659 1.523 . S
H661 C636 0.950 . S
H662 C638 0.950 . S
H663 C639 0.949 . S
H664 C641 0.950 . S
H665 C643 0.950 . S
C666 C667 1.349 . S
C666 C668 1.327 . S
C666 H691 0.950 . S
C667 C666 1.349 . S
C667 C683 1.349 . S
C668 C666 1.327 . S
C668 C687 1.429 . S
C668 H692 0.950 . S
C669 C686 1.574 . S
C669 C688 1.368 . S
C669 H693 0.949 . S
H670 C674 0.949 . S
C671 C672 1.349 1_545 S
C671 C673 1.327 1_545 S
C671 H694 0.950 . S
C672 C671 1.349 1_565 S
C672 C684 1.349 . S
C673 C671 1.327 1_565 S
C673 C689 1.429 . S
C673 H695 0.950 1_565 S
C674 H670 0.949 . S
C674 C682 1.574 . S
C674 C690 1.368 . S
H675 C683 0.950 . S
H676 C681 0.950 . S
H677 C682 0.949 . S
H678 C684 0.950 . S
H679 C685 0.950 . S
H680 C686 0.949 . S
C681 H676 0.950 . S
C681 C683 1.327 . S
C681 C687 1.429 . S
C682 C674 1.574 . S
C682 H677 0.949 . S
C682 C688 1.368 . S
C683 C667 1.349 . S
C683 H675 0.950 . S
C683 C681 1.327 . S
C684 C672 1.349 . S
C684 H678 0.950 . S
C684 C685 1.327 . S
C685 H679 0.950 . S
C685 C684 1.327 . S
C685 C689 1.429 . S
C686 C669 1.574 . S
C686 H680 0.949 . S
C686 C690 1.368 . S
C687 C668 1.429 . S
C687 C681 1.429 . S
C687 C688 1.523 . S
C688 C669 1.368 . S
C688 C682 1.368 . S
C688 C687 1.523 . S
C689 C673 1.429 . S
C689 C685 1.429 . S
C689 C690 1.523 . S
C690 C674 1.368 . S
C690 C686 1.368 . S
C690 C689 1.523 . S
H691 C666 0.950 . S
H692 C668 0.950 . S
H693 C669 0.949 . S
H694 C671 0.950 . S
H695 C673 0.950 1_545 S
C696 C697 1.349 . S
C696 C698 1.327 . S
C696 H721 0.950 . S
C697 C696 1.349 . S
C697 C713 1.349 . S
C698 C696 1.327 . S
C698 C717 1.429 . S
C698 H722 0.950 . S
C699 C716 1.574 1_545 S
C699 C718 1.368 . S
C699 H723 0.949 . S
H700 C704 0.949 . S
C701 C702 1.349 . S
C701 C703 1.327 . S
C701 H724 0.950 . S
C702 C701 1.349 . S
C702 C714 1.349 . S
C703 C701 1.327 . S
C703 C719 1.429 . S
C703 H725 0.950 . S
C704 H700 0.949 . S
C704 C712 1.574 1_565 S
C704 C720 1.368 . S
H705 C713 0.950 . S
H706 C711 0.950 . S
H707 C712 0.949 . S
H708 C714 0.950 . S
H709 C715 0.950 . S
H710 C716 0.949 . S
C711 H706 0.950 . S
C711 C713 1.327 . S
C711 C717 1.429 . S
C712 C704 1.574 1_545 S
C712 H707 0.949 . S
C712 C718 1.368 . S
C713 C697 1.349 . S
C713 H705 0.950 . S
C713 C711 1.327 . S
C714 C702 1.349 . S
C714 H708 0.950 . S
C714 C715 1.327 . S
C715 H709 0.950 . S
C715 C714 1.327 . S
C715 C719 1.429 . S
C716 C699 1.574 1_565 S
C716 H710 0.949 . S
C716 C720 1.368 . S
C717 C698 1.429 . S
C717 C711 1.429 . S
C717 C718 1.523 . S
C718 C699 1.368 . S
C718 C712 1.368 . S
C718 C717 1.523 . S
C719 C703 1.429 . S
C719 C715 1.429 . S
C719 C720 1.523 . S
C720 C704 1.368 . S
C720 C716 1.368 . S
C720 C719 1.523 . S
H721 C696 0.950 . S
H722 C698 0.950 . S
H723 C699 0.949 . S
H724 C701 0.950 . S
H725 C703 0.950 . S
C726 C727 1.349 . S
C726 C728 1.327 . S
C726 H751 0.950 . S
C727 C726 1.349 . S
C727 C743 1.349 . S
C728 C726 1.327 . S
C728 C747 1.429 . S
C728 H752 0.950 . S
C729 C746 1.574 . S
C729 C748 1.368 . S
C729 H753 0.949 . S
H730 C734 0.949 1_655 S
C731 C732 1.349 . S
C731 C733 1.327 . S
C731 H754 0.950 . S
C732 C731 1.349 . S
C732 C744 1.349 . S
C733 C731 1.327 . S
C733 C749 1.429 . S
C733 H755 0.950 . S
C734 H730 0.949 1_455 S
C734 C742 1.574 . S
C734 C750 1.368 1_455 S
H735 C743 0.950 . S
H736 C741 0.950 . S
H737 C742 0.949 . S
H738 C744 0.950 . S
H739 C745 0.950 . S
H740 C746 0.949 . S
C741 H736 0.950 . S
C741 C743 1.327 . S
C741 C747 1.429 . S
C742 C734 1.574 . S
C742 H737 0.949 . S
C742 C748 1.368 . S
C743 C727 1.349 . S
C743 H735 0.950 . S
C743 C741 1.327 . S
C744 C732 1.349 . S
C744 H738 0.950 . S
C744 C745 1.327 . S
C745 H739 0.950 . S
C745 C744 1.327 . S
C745 C749 1.429 . S
C746 C729 1.574 . S
C746 H740 0.949 . S
C746 C750 1.368 1_455 S
C747 C728 1.429 . S
C747 C741 1.429 . S
C747 C748 1.523 . S
C748 C729 1.368 . S
C748 C742 1.368 . S
C748 C747 1.523 . S
C749 C733 1.429 . S
C749 C745 1.429 . S
C749 C750 1.523 . S
C750 C734 1.368 1_655 S
C750 C746 1.368 1_655 S
C750 C749 1.523 . S
H751 C726 0.950 . S
H752 C728 0.950 . S
H753 C729 0.949 . S
H754 C731 0.950 . S
H755 C733 0.950 . S
C756 C757 1.349 . S
C756 C758 1.327 . S
C756 H781 0.950 . S
C757 C756 1.349 . S
C757 C773 1.349 . S
C758 C756 1.327 . S
C758 C777 1.429 . S
C758 H782 0.950 . S
C759 C776 1.574 . S
C759 C778 1.368 . S
C759 H783 0.949 . S
H760 C764 0.949 . S
C761 C762 1.349 . S
C761 C763 1.327 . S
C761 H784 0.950 . S
C762 C761 1.349 . S
C762 C774 1.349 . S
C763 C761 1.327 . S
C763 C779 1.429 . S
C763 H785 0.950 . S
C764 H760 0.949 . S
C764 C772 1.574 . S
C764 C780 1.368 . S
H765 C773 0.950 . S
H766 C771 0.950 . S
H767 C772 0.949 . S
H768 C774 0.950 . S
H769 C775 0.950 . S
H770 C776 0.949 . S
C771 H766 0.950 . S
C771 C773 1.327 . S
C771 C777 1.429 . S
C772 C764 1.574 . S
C772 H767 0.949 . S
C772 C778 1.368 . S
C773 C757 1.349 . S
C773 H765 0.950 . S
C773 C771 1.327 . S
C774 C762 1.349 . S
C774 H768 0.950 . S
C774 C775 1.327 . S
C775 H769 0.950 . S
C775 C774 1.327 . S
C775 C779 1.429 . S
C776 C759 1.574 . S
C776 H770 0.949 . S
C776 C780 1.368 . S
C777 C758 1.429 . S
C777 C771 1.429 . S
C777 C778 1.523 . S
C778 C759 1.368 . S
C778 C772 1.368 . S
C778 C777 1.523 . S
C779 C763 1.429 . S
C779 C775 1.429 . S
C779 C780 1.523 . S
C780 C764 1.368 . S
C780 C776 1.368 . S
C780 C779 1.523 . S
H781 C756 0.950 . S
H782 C758 0.950 . S
H783 C759 0.949 . S
H784 C761 0.950 . S
H785 C763 0.950 . S
C786 C787 1.349 . S
C786 C788 1.327 . S
C786 H811 0.950 . S
C787 C786 1.349 . S
C787 C803 1.349 . S
C788 C786 1.327 . S
C788 C807 1.429 . S
C788 H812 0.950 . S
C789 C806 1.574 . S
C789 C808 1.368 . S
C789 H813 0.949 . S
H790 C794 0.949 . S
C791 C792 1.349 . S
C791 C793 1.327 . S
C791 H814 0.950 . S
C792 C791 1.349 . S
C792 C804 1.349 1_554 S
C793 C791 1.327 . S
C793 C809 1.429 . S
C793 H815 0.950 . S
C794 H790 0.949 . S
C794 C802 1.574 . S
C794 C810 1.368 . S
H795 C803 0.950 . S
H796 C801 0.950 . S
H797 C802 0.949 . S
H798 C804 0.950 . S
H799 C805 0.950 1_556 S
H800 C806 0.949 . S
C801 H796 0.950 . S
C801 C803 1.327 . S
C801 C807 1.429 . S
C802 C794 1.574 . S
C802 H797 0.949 . S
C802 C808 1.368 . S
C803 C787 1.349 . S
C803 H795 0.950 . S
C803 C801 1.327 . S
C804 C792 1.349 1_556 S
C804 H798 0.950 . S
C804 C805 1.327 1_556 S
C805 H799 0.950 1_554 S
C805 C804 1.327 1_554 S
C805 C809 1.429 . S
C806 C789 1.574 . S
C806 H800 0.949 . S
C806 C810 1.368 . S
C807 C788 1.429 . S
C807 C801 1.429 . S
C807 C808 1.523 . S
C808 C789 1.368 . S
C808 C802 1.368 . S
C808 C807 1.523 . S
C809 C793 1.429 . S
C809 C805 1.429 . S
C809 C810 1.523 . S
C810 C794 1.368 . S
C810 C806 1.368 . S
C810 C809 1.523 . S
H811 C786 0.950 . S
H812 C788 0.950 . S
H813 C789 0.949 . S
H814 C791 0.950 . S
H815 C793 0.950 . S
C816 C817 1.349 . S
C816 C818 1.327 . S
C816 H841 0.950 1_554 S
C817 C816 1.349 . S
C817 C833 1.349 . S
C818 C816 1.327 . S
C818 C837 1.429 . S
C818 H842 0.950 . S
C819 C836 1.574 . S
C819 C838 1.368 . S
C819 H843 0.949 . S
H820 C824 0.949 . S
C821 C822 1.349 . S
C821 C823 1.327 . S
C821 H844 0.950 . S
C822 C821 1.349 . S
C822 C834 1.349 . S
C823 C821 1.327 . S
C823 C839 1.429 . S
C823 H845 0.950 . S
C824 H820 0.949 . S
C824 C832 1.574 . S
C824 C840 1.368 . S
H825 C833 0.950 . S
H826 C831 0.950 . S
H827 C832 0.949 . S
H828 C834 0.950 . S
H829 C835 0.950 . S
H830 C836 0.949 . S
C831 H826 0.950 . S
C831 C833 1.327 . S
C831 C837 1.429 . S
C832 C824 1.574 . S
C832 H827 0.949 . S
C832 C838 1.368 . S
C833 C817 1.349 . S
C833 H825 0.950 . S
C833 C831 1.327 . S
C834 C822 1.349 . S
C834 H828 0.950 . S
C834 C835 1.327 . S
C835 H829 0.950 . S
C835 C834 1.327 . S
C835 C839 1.429 . S
C836 C819 1.574 . S
C836 H830 0.949 . S
C836 C840 1.368 . S
C837 C818 1.429 . S
C837 C831 1.429 . S
C837 C838 1.523 . S
C838 C819 1.368 . S
C838 C832 1.368 . S
C838 C837 1.523 . S
C839 C823 1.429 . S
C839 C835 1.429 . S
C839 C840 1.523 . S
C840 C824 1.368 . S
C840 C836 1.368 . S
C840 C839 1.523 . S
H841 C816 0.950 1_556 S
H842 C818 0.950 . S
H843 C819 0.949 . S
H844 C821 0.950 . S
H845 C823 0.950 . S
C846 C847 1.349 . S
C846 C848 1.327 . S
C846 H871 0.950 . S
C847 C846 1.349 . S
C847 C863 1.349 . S
C848 C846 1.327 . S
C848 C867 1.429 . S
C848 H872 0.950 . S
C849 C866 1.574 . S
C849 C868 1.368 . S
C849 H873 0.949 . S
H850 C854 0.949 . S
C851 C852 1.349 . S
C851 C853 1.327 . S
C851 H874 0.950 . S
C852 C851 1.349 . S
C852 C864 1.349 . S
C853 C851 1.327 . S
C853 C869 1.429 . S
C853 H875 0.950 . S
C854 H850 0.949 . S
C854 C862 1.574 . S
C854 C870 1.368 . S
H855 C863 0.950 . S
H856 C861 0.950 . S
H857 C862 0.949 . S
H858 C864 0.950 . S
H859 C865 0.950 . S
H860 C866 0.949 . S
C861 H856 0.950 . S
C861 C863 1.327 . S
C861 C867 1.429 . S
C862 C854 1.574 . S
C862 H857 0.949 . S
C862 C868 1.368 . S
C863 C847 1.349 . S
C863 H855 0.950 . S
C863 C861 1.327 . S
C864 C852 1.349 . S
C864 H858 0.950 . S
C864 C865 1.327 . S
C865 H859 0.950 . S
C865 C864 1.327 . S
C865 C869 1.429 . S
C866 C849 1.574 . S
C866 H860 0.949 . S
C866 C870 1.368 . S
C867 C848 1.429 . S
C867 C861 1.429 . S
C867 C868 1.523 . S
C868 C849 1.368 . S
C868 C862 1.368 . S
C868 C867 1.523 . S
C869 C853 1.429 . S
C869 C865 1.429 . S
C869 C870 1.523 . S
C870 C854 1.368 . S
C870 C866 1.368 . S
C870 C869 1.523 . S
H871 C846 0.950 . S
H872 C848 0.950 . S
H873 C849 0.949 . S
H874 C851 0.950 . S
H875 C853 0.950 . S
C876 C877 1.349 . S
C876 C878 1.327 . S
C876 H901 0.950 . S
C877 C876 1.349 . S
C877 C893 1.349 . S
C878 C876 1.327 . S
C878 C897 1.429 . S
C878 H902 0.950 . S
C879 C896 1.574 . S
C879 C898 1.368 . S
C879 H903 0.949 . S
H880 C884 0.949 . S
C881 C882 1.349 . S
C881 C883 1.327 . S
C881 H904 0.950 . S
C882 C881 1.349 . S
C882 C894 1.349 . S
C883 C881 1.327 . S
C883 C899 1.429 . S
C883 H905 0.950 . S
C884 H880 0.949 . S
C884 C892 1.574 . S
C884 C900 1.368 . S
H885 C893 0.950 . S
H886 C891 0.950 . S
H887 C892 0.949 . S
H888 C894 0.950 . S
H889 C895 0.950 . S
H890 C896 0.949 . S
C891 H886 0.950 . S
C891 C893 1.327 . S
C891 C897 1.429 . S
C892 C884 1.574 . S
C892 H887 0.949 . S
C892 C898 1.368 . S
C893 C877 1.349 . S
C893 H885 0.950 . S
C893 C891 1.327 . S
C894 C882 1.349 . S
C894 H888 0.950 . S
C894 C895 1.327 . S
C895 H889 0.950 . S
C895 C894 1.327 . S
C895 C899 1.429 . S
C896 C879 1.574 . S
C896 H890 0.949 . S
C896 C900 1.368 . S
C897 C878 1.429 . S
C897 C891 1.429 . S
C897 C898 1.523 . S
C898 C879 1.368 . S
C898 C892 1.368 . S
C898 C897 1.523 . S
C899 C883 1.429 . S
C899 C895 1.429 . S
C899 C900 1.523 . S
C900 C884 1.368 . S
C900 C896 1.368 . S
C900 C899 1.523 . S
H901 C876 0.950 . S
H902 C878 0.950 . S
H903 C879 0.949 . S
H904 C881 0.950 . S
H905 C883 0.950 . S
C906 C907 1.349 . S
C906 C908 1.327 . S
C906 H931 0.950 . S
C907 C906 1.349 . S
C907 C923 1.349 . S
C908 C906 1.327 . S
C908 C927 1.429 . S
C908 H932 0.950 . S
C909 C926 1.574 . S
C909 C928 1.368 . S
C909 H933 0.949 . S
H910 C914 0.949 . S
C911 C912 1.349 . S
C911 C913 1.327 . S
C911 H934 0.950 . S
C912 C911 1.349 . S
C912 C924 1.349 . S
C913 C911 1.327 . S
C913 C929 1.429 . S
C913 H935 0.950 . S
C914 H910 0.949 . S
C914 C922 1.574 . S
C914 C930 1.368 . S
H915 C923 0.950 . S
H916 C921 0.950 . S
H917 C922 0.949 . S
H918 C924 0.950 . S
H919 C925 0.950 . S
H920 C926 0.949 . S
C921 H916 0.950 . S
C921 C923 1.327 . S
C921 C927 1.429 . S
C922 C914 1.574 . S
C922 H917 0.949 . S
C922 C928 1.368 . S
C923 C907 1.349 . S
C923 H915 0.950 . S
C923 C921 1.327 . S
C924 C912 1.349 . S
C924 H918 0.950 . S
C924 C925 1.327 . S
C925 H919 0.950 . S
C925 C924 1.327 . S
C925 C929 1.429 . S
C926 C909 1.574 . S
C926 H920 0.949 . S
C926 C930 1.368 . S
C927 C908 1.429 . S
C927 C921 1.429 . S
C927 C928 1.523 . S
C928 C909 1.368 . S
C928 C922 1.368 . S
C928 C927 1.523 . S
C929 C913 1.429 . S
C929 C925 1.429 . S
C929 C930 1.523 . S
C930 C914 1.368 . S
C930 C926 1.368 . S
C930 C929 1.523 . S
H931 C906 0.950 . S
H932 C908 0.950 . S
H933 C909 0.949 . S
H934 C911 0.950 . S
H935 C913 0.950 . S
C936 C937 1.349 . S
C936 C938 1.327 . S
C936 H961 0.950 . S
C937 C936 1.349 . S
C937 C953 1.349 . S
C938 C936 1.327 . S
C938 C957 1.429 . S
C938 H962 0.950 . S
C939 C956 1.574 . S
C939 C958 1.368 . S
C939 H963 0.949 . S
H940 C944 0.949 . S
C941 C942 1.349 . S
C941 C943 1.327 . S
C941 H964 0.950 . S
C942 C941 1.349 . S
C942 C954 1.349 . S
C943 C941 1.327 . S
C943 C959 1.429 . S
C943 H965 0.950 . S
C944 H940 0.949 . S
C944 C952 1.574 . S
C944 C960 1.368 . S
H945 C953 0.950 . S
H946 C951 0.950 . S
H947 C952 0.949 . S
H948 C954 0.950 . S
H949 C955 0.950 . S
H950 C956 0.949 . S
C951 H946 0.950 . S
C951 C953 1.327 . S
C951 C957 1.429 . S
C952 C944 1.574 . S
C952 H947 0.949 . S
C952 C958 1.368 . S
C953 C937 1.349 . S
C953 H945 0.950 . S
C953 C951 1.327 . S
C954 C942 1.349 . S
C954 H948 0.950 . S
C954 C955 1.327 . S
C955 H949 0.950 . S
C955 C954 1.327 . S
C955 C959 1.429 . S
C956 C939 1.574 . S
C956 H950 0.949 . S
C956 C960 1.368 . S
C957 C938 1.429 . S
C957 C951 1.429 . S
C957 C958 1.523 . S
C958 C939 1.368 . S
C958 C952 1.368 . S
C958 C957 1.523 . S
C959 C943 1.429 . S
C959 C955 1.429 . S
C959 C960 1.523 . S
C960 C944 1.368 . S
C960 C956 1.368 . S
C960 C959 1.523 . S
H961 C936 0.950 . S
H962 C938 0.950 . S
H963 C939 0.949 . S
H964 C941 0.950 . S
H965 C943 0.950 . S
C966 C967 1.349 . S
C966 C968 1.327 . S
C966 H991 0.950 . S
C967 C966 1.349 . S
C967 C983 1.349 . S
C968 C966 1.327 . S
C968 C987 1.429 . S
C968 H992 0.950 . S
C969 C986 1.574 . S
C969 C988 1.368 . S
C969 H993 0.949 . S
H970 C974 0.949 . S
C971 C972 1.349 . S
C971 C973 1.327 . S
C971 H994 0.950 . S
C972 C971 1.349 . S
C972 C984 1.349 . S
C973 C971 1.327 . S
C973 C989 1.429 . S
C973 H995 0.950 . S
C974 H970 0.949 . S
C974 C982 1.574 . S
C974 C990 1.368 . S
H975 C983 0.950 . S
H976 C981 0.950 . S
H977 C982 0.949 . S
H978 C984 0.950 . S
H979 C985 0.950 . S
H980 C986 0.949 . S
C981 H976 0.950 . S
C981 C983 1.327 . S
C981 C987 1.429 . S
C982 C974 1.574 . S
C982 H977 0.949 . S
C982 C988 1.368 . S
C983 C967 1.349 . S
C983 H975 0.950 . S
C983 C981 1.327 . S
C984 C972 1.349 . S
C984 H978 0.950 . S
C984 C985 1.327 . S
C985 H979 0.950 . S
C985 C984 1.327 . S
C985 C989 1.429 . S
C986 C969 1.574 . S
C986 H980 0.949 . S
C986 C990 1.368 . S
C987 C968 1.429 . S
C987 C981 1.429 . S
C987 C988 1.523 . S
C988 C969 1.368 . S
C988 C982 1.368 . S
C988 C987 1.523 . S
C989 C973 1.429 . S
C989 C985 1.429 . S
C989 C990 1.523 . S
C990 C974 1.368 . S
C990 C986 1.368 . S
C990 C989 1.523 . S
H991 C966 0.950 . S
H992 C968 0.950 . S
H993 C969 0.949 . S
H994 C971 0.950 . S
H995 C973 0.950 . S
C996 C997 1.349 . S
C996 C998 1.327 . S
C996 H1021 0.950 . S
C997 C996 1.349 . S
C997 C1013 1.349 . S
C998 C996 1.327 . S
C998 C1017 1.429 . S
C998 H1022 0.950 . S
C999 C1016 1.574 . S
C999 C1018 1.368 . S
C999 H1023 0.949 . S
H1000 C1004 0.949 . S
C1001 C1002 1.349 . S
C1001 C1003 1.327 . S
C1001 H1024 0.950 . S
C1002 C1001 1.349 . S
C1002 C1014 1.349 . S
C1003 C1001 1.327 . S
C1003 C1019 1.429 . S
C1003 H1025 0.950 . S
C1004 H1000 0.949 . S
C1004 C1012 1.574 . S
C1004 C1020 1.368 . S
H1005 C1013 0.950 . S
H1006 C1011 0.950 . S
H1007 C1012 0.949 . S
H1008 C1014 0.950 . S
H1009 C1015 0.950 . S
H1010 C1016 0.949 . S
C1011 H1006 0.950 . S
C1011 C1013 1.327 . S
C1011 C1017 1.429 . S
C1012 C1004 1.574 . S
C1012 H1007 0.949 . S
C1012 C1018 1.368 . S
C1013 C997 1.349 . S
C1013 H1005 0.950 . S
C1013 C1011 1.327 . S
C1014 C1002 1.349 . S
C1014 H1008 0.950 . S
C1014 C1015 1.327 . S
C1015 H1009 0.950 . S
C1015 C1014 1.327 . S
C1015 C1019 1.429 . S
C1016 C999 1.574 . S
C1016 H1010 0.949 . S
C1016 C1020 1.368 . S
C1017 C998 1.429 . S
C1017 C1011 1.429 . S
C1017 C1018 1.523 . S
C1018 C999 1.368 . S
C1018 C1012 1.368 . S
C1018 C1017 1.523 . S
C1019 C1003 1.429 . S
C1019 C1015 1.429 . S
C1019 C1020 1.523 . S
C1020 C1004 1.368 . S
C1020 C1016 1.368 . S
C1020 C1019 1.523 . S
H1021 C996 0.950 . S
H1022 C998 0.950 . S
H1023 C999 0.949 . S
H1024 C1001 0.950 . S
H1025 C1003 0.950 . S
C1026 C1027 1.349 1_554 S
C1026 C1028 1.327 1_554 S
C1026 H1051 0.950 . S
C1027 C1026 1.349 1_556 S
C1027 C1043 1.349 . S
C1028 C1026 1.327 1_556 S
C1028 C1047 1.429 . S
C1028 H1052 0.950 1_556 S
C1029 C1046 1.574 . S
C1029 C1048 1.368 . S
C1029 H1053 0.949 . S
H1030 C1034 0.949 . S
C1031 C1032 1.349 . S
C1031 C1033 1.327 . S
C1031 H1054 0.950 . S
C1032 C1031 1.349 . S
C1032 C1044 1.349 . S
C1033 C1031 1.327 . S
C1033 C1049 1.429 . S
C1033 H1055 0.950 . S
C1034 H1030 0.949 . S
C1034 C1042 1.574 . S
C1034 C1050 1.368 . S
H1035 C1043 0.950 . S
H1036 C1041 0.950 . S
H1037 C1042 0.949 . S
H1038 C1044 0.950 . S
H1039 C1045 0.950 . S
H1040 C1046 0.949 . S
C1041 H1036 0.950 . S
C1041 C1043 1.327 . S
C1041 C1047 1.429 . S
C1042 C1034 1.574 . S
C1042 H1037 0.949 . S
C1042 C1048 1.368 . S
C1043 C1027 1.349 . S
C1043 H1035 0.950 . S
C1043 C1041 1.327 . S
C1044 C1032 1.349 . S
C1044 H1038 0.950 . S
C1044 C1045 1.327 . S
C1045 H1039 0.950 . S
C1045 C1044 1.327 . S
C1045 C1049 1.429 . S
C1046 C1029 1.574 . S
C1046 H1040 0.949 . S
C1046 C1050 1.368 . S
C1047 C1028 1.429 . S
C1047 C1041 1.429 . S
C1047 C1048 1.523 . S
C1048 C1029 1.368 . S
C1048 C1042 1.368 . S
C1048 C1047 1.523 . S
C1049 C1033 1.429 . S
C1049 C1045 1.429 . S
C1049 C1050 1.523 . S
C1050 C1034 1.368 . S
C1050 C1046 1.368 . S
C1050 C1049 1.523 . S
H1051 C1026 0.950 . S
H1052 C1028 0.950 1_554 S
H1053 C1029 0.949 . S
H1054 C1031 0.950 . S
H1055 C1033 0.950 . S
C1056 C1057 1.349 . S
C1056 C1058 1.327 . S
C1056 H1081 0.950 . S
C1057 C1056 1.349 . S
C1057 C1073 1.349 . S
C1058 C1056 1.327 . S
C1058 C1077 1.429 . S
C1058 H1082 0.950 . S
C1059 C1076 1.574 . S
C1059 C1078 1.368 . S
C1059 H1083 0.949 . S
H1060 C1064 0.949 . S
C1061 C1062 1.349 1_554 S
C1061 C1063 1.327 1_554 S
C1061 H1084 0.950 . S
C1062 C1061 1.349 1_556 S
C1062 C1074 1.349 . S
C1063 C1061 1.327 1_556 S
C1063 C1079 1.429 . S
C1063 H1085 0.950 1_556 S
C1064 H1060 0.949 . S
C1064 C1072 1.574 . S
C1064 C1080 1.368 . S
H1065 C1073 0.950 . S
H1066 C1071 0.950 . S
H1067 C1072 0.949 . S
H1068 C1074 0.950 . S
H1069 C1075 0.950 . S
H1070 C1076 0.949 . S
C1071 H1066 0.950 . S
C1071 C1073 1.327 . S
C1071 C1077 1.429 . S
C1072 C1064 1.574 . S
C1072 H1067 0.949 . S
C1072 C1078 1.368 . S
C1073 C1057 1.349 . S
C1073 H1065 0.950 . S
C1073 C1071 1.327 . S
C1074 C1062 1.349 . S
C1074 H1068 0.950 . S
C1074 C1075 1.327 . S
C1075 H1069 0.950 . S
C1075 C1074 1.327 . S
C1075 C1079 1.429 . S
C1076 C1059 1.574 . S
C1076 H1070 0.949 . S
C1076 C1080 1.368 . S
C1077 C1058 1.429 . S
C1077 C1071 1.429 . S
C1077 C1078 1.523 . S
C1078 C1059 1.368 . S
C1078 C1072 1.368 . S
C1078 C1077 1.523 . S
C1079 C1063 1.429 . S
C1079 C1075 1.429 . S
C1079 C1080 1.523 . S
C1080 C1064 1.368 . S
C1080 C1076 1.368 . S
C1080 C1079 1.523 . S
H1081 C1056 0.950 . S
H1082 C1058 0.950 . S
H1083 C1059 0.949 . S
H1084 C1061 0.950 . S
H1085 C1063 0.950 1_554 S
C1086 C1087 1.349 . S
C1086 C1088 1.327 . S
C1086 H1111 0.950 . S
C1087 C1086 1.349 . S
C1087 C1103 1.349 . S
C1088 C1086 1.327 . S
C1088 C1107 1.429 . S
C1088 H1112 0.950 . S
C1089 C1106 1.574 . S
C1089 C1108 1.368 . S
C1089 H1113 0.949 . S
H1090 C1094 0.949 . S
C1091 C1092 1.349 . S
C1091 C1093 1.327 . S
C1091 H1114 0.950 1_556 S
C1092 C1091 1.349 . S
C1092 C1104 1.349 . S
C1093 C1091 1.327 . S
C1093 C1109 1.429 . S
C1093 H1115 0.950 . S
C1094 H1090 0.949 . S
C1094 C1102 1.574 . S
C1094 C1110 1.368 . S
H1095 C1103 0.950 . S
H1096 C1101 0.950 . S
H1097 C1102 0.949 . S
H1098 C1104 0.950 . S
H1099 C1105 0.950 . S
H1100 C1106 0.949 . S
C1101 H1096 0.950 . S
C1101 C1103 1.327 . S
C1101 C1107 1.429 . S
C1102 C1094 1.574 . S
C1102 H1097 0.949 . S
C1102 C1108 1.368 . S
C1103 C1087 1.349 . S
C1103 H1095 0.950 . S
C1103 C1101 1.327 . S
C1104 C1092 1.349 . S
C1104 H1098 0.950 . S
C1104 C1105 1.327 . S
C1105 H1099 0.950 . S
C1105 C1104 1.327 . S
C1105 C1109 1.429 . S
C1106 C1089 1.574 . S
C1106 H1100 0.949 . S
C1106 C1110 1.368 . S
C1107 C1088 1.429 . S
C1107 C1101 1.429 . S
C1107 C1108 1.523 . S
C1108 C1089 1.368 . S
C1108 C1102 1.368 . S
C1108 C1107 1.523 . S
C1109 C1093 1.429 . S
C1109 C1105 1.429 . S
C1109 C1110 1.523 . S
C1110 C1094 1.368 . S
C1110 C1106 1.368 . S
C1110 C1109 1.523 . S
H1111 C1086 0.950 . S
H1112 C1088 0.950 . S
H1113 C1089 0.949 . S
H1114 C1091 0.950 1_554 S
H1115 C1093 0.950 . S
C1116 C1117 1.349 . S
C1116 C1118 1.327 . S
C1116 H1141 0.950 . S
C1117 C1116 1.349 . S
C1117 C1133 1.349 . S
C1118 C1116 1.327 . S
C1118 C1137 1.429 . S
C1118 H1142 0.950 . S
C1119 C1136 1.574 . S
C1119 C1138 1.368 . S
C1119 H1143 0.949 . S
H1120 C1124 0.949 . S
C1121 C1122 1.349 . S
C1121 C1123 1.327 . S
C1121 H1144 0.950 . S
C1122 C1121 1.349 . S
C1122 C1134 1.349 . S
C1123 C1121 1.327 . S
C1123 C1139 1.429 . S
C1123 H1145 0.950 . S
C1124 H1120 0.949 . S
C1124 C1132 1.574 . S
C1124 C1140 1.368 . S
H1125 C1133 0.950 . S
H1126 C1131 0.950 . S
H1127 C1132 0.949 . S
H1128 C1134 0.950 . S
H1129 C1135 0.950 . S
H1130 C1136 0.949 . S
C1131 H1126 0.950 . S
C1131 C1133 1.327 . S
C1131 C1137 1.429 . S
C1132 C1124 1.574 . S
C1132 H1127 0.949 . S
C1132 C1138 1.368 . S
C1133 C1117 1.349 . S
C1133 H1125 0.950 . S
C1133 C1131 1.327 . S
C1134 C1122 1.349 . S
C1134 H1128 0.950 . S
C1134 C1135 1.327 . S
C1135 H1129 0.950 . S
C1135 C1134 1.327 . S
C1135 C1139 1.429 . S
C1136 C1119 1.574 . S
C1136 H1130 0.949 . S
C1136 C1140 1.368 . S
C1137 C1118 1.429 . S
C1137 C1131 1.429 . S
C1137 C1138 1.523 . S
C1138 C1119 1.368 . S
C1138 C1132 1.368 . S
C1138 C1137 1.523 . S
C1139 C1123 1.429 . S
C1139 C1135 1.429 . S
C1139 C1140 1.523 . S
C1140 C1124 1.368 . S
C1140 C1136 1.368 . S
C1140 C1139 1.523 . S
H1141 C1116 0.950 . S
H1142 C1118 0.950 . S
H1143 C1119 0.949 . S
H1144 C1121 0.950 . S
H1145 C1123 0.950 . S
C1146 C1147 1.349 . S
C1146 C1148 1.327 . S
C1146 H1171 0.950 1_655 S
C1147 C1146 1.349 . S
C1147 C1163 1.349 . S
C1148 C1146 1.327 . S
C1148 C1167 1.429 . S
C1148 H1172 0.950 . S
C1149 C1166 1.574 . S
C1149 C1168 1.368 . S
C1149 H1173 0.949 . S
H1150 C1154 0.949 . S
C1151 C1152 1.349 . S
C1151 C1153 1.327 . S
C1151 H1174 0.950 . S
C1152 C1151 1.349 . S
C1152 C1164 1.349 . S
C1153 C1151 1.327 . S
C1153 C1169 1.429 . S
C1153 H1175 0.950 . S
C1154 H1150 0.949 . S
C1154 C1162 1.574 . S
C1154 C1170 1.368 . S
H1155 C1163 0.950 . S
H1156 C1161 0.950 . S
H1157 C1162 0.949 . S
H1158 C1164 0.950 . S
H1159 C1165 0.950 . S
H1160 C1166 0.949 . S
C1161 H1156 0.950 . S
C1161 C1163 1.327 . S
C1161 C1167 1.429 . S
C1162 C1154 1.574 . S
C1162 H1157 0.949 . S
C1162 C1168 1.368 . S
C1163 C1147 1.349 . S
C1163 H1155 0.950 . S
C1163 C1161 1.327 . S
C1164 C1152 1.349 . S
C1164 H1158 0.950 . S
C1164 C1165 1.327 . S
C1165 H1159 0.950 . S
C1165 C1164 1.327 . S
C1165 C1169 1.429 . S
C1166 C1149 1.574 . S
C1166 H1160 0.949 . S
C1166 C1170 1.368 . S
C1167 C1148 1.429 . S
C1167 C1161 1.429 . S
C1167 C1168 1.523 . S
C1168 C1149 1.368 . S
C1168 C1162 1.368 . S
C1168 C1167 1.523 . S
C1169 C1153 1.429 . S
C1169 C1165 1.429 . S
C1169 C1170 1.523 . S
C1170 C1154 1.368 . S
C1170 C1166 1.368 . S
C1170 C1169 1.523 . S
H1171 C1146 0.950 1_455 S
H1172 C1148 0.950 . S
H1173 C1149 0.949 . S
H1174 C1151 0.950 . S
H1175 C1153 0.950 . S
C1176 C1177 1.349 . S
C1176 C1178 1.327 . S
C1176 H1201 0.950 . S
C1177 C1176 1.349 . S
C1177 C1193 1.349 . S
C1178 C1176 1.327 . S
C1178 C1197 1.429 . S
C1178 H1202 0.950 . S
C1179 C1196 1.574 . S
C1179 C1198 1.368 . S
C1179 H1203 0.949 . S
H1180 C1184 0.949 . S
C1181 C1182 1.349 . S
C1181 C1183 1.327 . S
C1181 H1204 0.950 . S
C1182 C1181 1.349 . S
C1182 C1194 1.349 . S
C1183 C1181 1.327 . S
C1183 C1199 1.429 . S
C1183 H1205 0.950 . S
C1184 H1180 0.949 . S
C1184 C1192 1.574 . S
C1184 C1200 1.368 . S
H1185 C1193 0.950 . S
H1186 C1191 0.950 . S
H1187 C1192 0.949 . S
H1188 C1194 0.950 . S
H1189 C1195 0.950 . S
H1190 C1196 0.949 . S
C1191 H1186 0.950 . S
C1191 C1193 1.327 . S
C1191 C1197 1.429 . S
C1192 C1184 1.574 . S
C1192 H1187 0.949 . S
C1192 C1198 1.368 . S
C1193 C1177 1.349 . S
C1193 H1185 0.950 . S
C1193 C1191 1.327 . S
C1194 C1182 1.349 . S
C1194 H1188 0.950 . S
C1194 C1195 1.327 . S
C1195 H1189 0.950 . S
C1195 C1194 1.327 . S
C1195 C1199 1.429 . S
C1196 C1179 1.574 . S
C1196 H1190 0.949 . S
C1196 C1200 1.368 . S
C1197 C1178 1.429 . S
C1197 C1191 1.429 . S
C1197 C1198 1.523 . S
C1198 C1179 1.368 . S
C1198 C1192 1.368 . S
C1198 C1197 1.523 . S
C1199 C1183 1.429 . S
C1199 C1195 1.429 . S
C1199 C1200 1.523 . S
C1200 C1184 1.368 . S
C1200 C1196 1.368 . S
C1200 C1199 1.523 . S
H1201 C1176 0.950 . S
H1202 C1178 0.950 . S
H1203 C1179 0.949 . S
H1204 C1181 0.950 . S
H1205 C1183 0.950 . S
C1206 C1207 1.349 . S
C1206 C1208 1.327 . S
C1206 H1231 0.950 . S
C1207 C1206 1.349 . S
C1207 C1223 1.349 . S
C1208 C1206 1.327 . S
C1208 C1227 1.429 . S
C1208 H1232 0.950 . S
C1209 C1226 1.552 1_556 S
C1209 C1228 1.392 . S
C1209 H1233 0.948 1_556 S
H1210 C1214 0.949 . S
C1211 C1212 1.349 . S
C1211 C1213 1.327 . S
C1211 H1234 0.950 . S
C1212 C1211 1.349 . S
C1212 C1224 1.349 . S
C1213 C1211 1.327 . S
C1213 C1229 1.429 . S
C1213 H1235 0.950 . S
C1214 H1210 0.949 . S
C1214 C1222 1.574 . S
C1214 C1230 1.368 1_556 S
H1215 C1223 0.950 . S
H1216 C1221 0.950 . S
H1217 C1222 0.949 . S
H1218 C1224 0.950 . S
H1219 C1225 0.950 . S
H1220 C1226 0.949 . S
C1221 H1216 0.950 . S
C1221 C1223 1.327 . S
C1221 C1227 1.429 . S
C1222 C1214 1.574 . S
C1222 H1217 0.949 . S
C1222 C1228 1.368 . S
C1223 C1207 1.349 . S
C1223 H1215 0.950 . S
C1223 C1221 1.327 . S
C1224 C1212 1.349 . S
C1224 H1218 0.950 . S
C1224 C1225 1.327 . S
C1225 H1219 0.950 . S
C1225 C1224 1.327 . S
C1225 C1229 1.429 . S
C1226 C1209 1.552 1_554 S
C1226 H1220 0.949 . S
C1226 C1230 1.368 . S
C1227 C1208 1.429 . S
C1227 C1221 1.429 . S
C1227 C1228 1.523 . S
C1228 C1209 1.392 . S
C1228 C1222 1.368 . S
C1228 C1227 1.523 . S
C1229 C1213 1.429 . S
C1229 C1225 1.429 . S
C1229 C1230 1.523 . S
C1230 C1214 1.368 1_554 S
C1230 C1226 1.368 . S
C1230 C1229 1.523 . S
H1231 C1206 0.950 . S
H1232 C1208 0.950 . S
H1233 C1209 0.948 1_554 S
H1234 C1211 0.950 . S
H1235 C1213 0.950 . S
C1236 C1237 1.349 . S
C1236 C1238 1.327 . S
C1236 H1261 0.950 . S
C1237 C1236 1.349 . S
C1237 C1253 1.349 . S
C1238 C1236 1.327 . S
C1238 C1257 1.429 . S
C1238 H1262 0.950 . S
C1239 C1256 1.574 1_554 S
C1239 C1258 1.368 . S
C1239 H1263 0.949 . S
H1240 C1244 0.949 . S
C1241 C1242 1.349 . S
C1241 C1243 1.327 . S
C1241 H1264 0.950 . S
C1242 C1241 1.349 . S
C1242 C1254 1.349 . S
C1243 C1241 1.327 . S
C1243 C1259 1.429 . S
C1243 H1265 0.950 . S
C1244 H1240 0.949 . S
C1244 C1252 1.574 1_556 S
C1244 C1260 1.368 . S
H1245 C1253 0.950 . S
H1246 C1251 0.950 . S
H1247 C1252 0.949 . S
H1248 C1254 0.950 . S
H1249 C1255 0.950 . S
H1250 C1256 0.949 . S
C1251 H1246 0.950 . S
C1251 C1253 1.327 . S
C1251 C1257 1.429 . S
C1252 C1244 1.574 1_554 S
C1252 H1247 0.949 . S
C1252 C1258 1.368 . S
C1253 C1237 1.349 . S
C1253 H1245 0.950 . S
C1253 C1251 1.327 . S
C1254 C1242 1.349 . S
C1254 H1248 0.950 . S
C1254 C1255 1.327 . S
C1255 H1249 0.950 . S
C1255 C1254 1.327 . S
C1255 C1259 1.429 . S
C1256 C1239 1.574 1_556 S
C1256 H1250 0.949 . S
C1256 C1260 1.368 . S
C1257 C1238 1.429 . S
C1257 C1251 1.429 . S
C1257 C1258 1.523 . S
C1258 C1239 1.368 . S
C1258 C1252 1.368 . S
C1258 C1257 1.523 . S
C1259 C1243 1.429 . S
C1259 C1255 1.429 . S
C1259 C1260 1.523 . S
C1260 C1244 1.368 . S
C1260 C1256 1.368 . S
C1260 C1259 1.523 . S
H1261 C1236 0.950 . S
H1262 C1238 0.950 . S
H1263 C1239 0.949 . S
H1264 C1241 0.950 . S
H1265 C1243 0.950 . S
C1266 C1267 1.349 . S
C1266 C1268 1.327 . S
C1266 H1291 0.950 . S
C1267 C1266 1.349 . S
C1267 C1283 1.349 . S
C1268 C1266 1.327 . S
C1268 C1287 1.429 . S
C1268 H1292 0.950 . S
C1269 C1286 1.574 . S
C1269 C1288 1.368 . S
C1269 H1293 0.949 . S
H1270 C1274 0.949 . S
C1271 C1272 1.349 . S
C1271 C1273 1.327 . S
C1271 H1294 0.950 . S
C1272 C1271 1.349 . S
C1272 C1284 1.349 . S
C1273 C1271 1.327 . S
C1273 C1289 1.429 . S
C1273 H1295 0.950 . S
C1274 H1270 0.949 . S
C1274 C1282 1.574 . S
C1274 C1290 1.368 . S
H1275 C1283 0.950 . S
H1276 C1281 0.950 . S
H1277 C1282 0.949 . S
H1278 C1284 0.950 . S
H1279 C1285 0.950 . S
H1280 C1286 0.949 . S
C1281 H1276 0.950 . S
C1281 C1283 1.327 . S
C1281 C1287 1.429 . S
C1282 C1274 1.574 . S
C1282 H1277 0.949 . S
C1282 C1288 1.368 1_554 S
C1283 C1267 1.349 . S
C1283 H1275 0.950 . S
C1283 C1281 1.327 . S
C1284 C1272 1.349 . S
C1284 H1278 0.950 . S
C1284 C1285 1.327 . S
C1285 H1279 0.950 . S
C1285 C1284 1.327 . S
C1285 C1289 1.429 . S
C1286 C1269 1.574 . S
C1286 H1280 0.949 . S
C1286 C1290 1.368 1_556 S
C1287 C1268 1.429 . S
C1287 C1281 1.429 . S
C1287 C1288 1.523 . S
C1288 C1269 1.368 . S
C1288 C1282 1.368 1_556 S
C1288 C1287 1.523 . S
C1289 C1273 1.429 . S
C1289 C1285 1.429 . S
C1289 C1290 1.523 . S
C1290 C1274 1.368 . S
C1290 C1286 1.368 1_554 S
C1290 C1289 1.523 . S
H1291 C1266 0.950 . S
H1292 C1268 0.950 . S
H1293 C1269 0.949 . S
H1294 C1271 0.950 . S
H1295 C1273 0.950 . S
C1296 C1297 1.349 . S
C1296 C1298 1.327 . S
C1296 H1321 0.950 . S
C1297 C1296 1.349 . S
C1297 C1313 1.349 . S
C1298 C1296 1.327 . S
C1298 C1317 1.429 . S
C1298 H1322 0.950 . S
C1299 C1316 1.574 . S
C1299 C1318 1.368 . S
C1299 H1323 0.949 . S
H1300 C1304 0.949 . S
C1301 C1302 1.349 . S
C1301 C1303 1.327 . S
C1301 H1324 0.950 1_565 S
C1302 C1301 1.349 . S
C1302 C1314 1.349 . S
C1303 C1301 1.327 . S
C1303 C1319 1.429 . S
C1303 H1325 0.950 . S
C1304 H1300 0.949 . S
C1304 C1312 1.574 . S
C1304 C1320 1.368 . S
H1305 C1313 0.950 . S
H1306 C1311 0.950 . S
H1307 C1312 0.949 . S
H1308 C1314 0.950 . S
H1309 C1315 0.950 . S
H1310 C1316 0.949 . S
C1311 H1306 0.950 . S
C1311 C1313 1.327 . S
C1311 C1317 1.429 . S
C1312 C1304 1.574 . S
C1312 H1307 0.949 . S
C1312 C1318 1.368 . S
C1313 C1297 1.349 . S
C1313 H1305 0.950 . S
C1313 C1311 1.327 . S
C1314 C1302 1.349 . S
C1314 H1308 0.950 . S
C1314 C1315 1.327 . S
C1315 H1309 0.950 . S
C1315 C1314 1.327 . S
C1315 C1319 1.429 . S
C1316 C1299 1.574 . S
C1316 H1310 0.949 . S
C1316 C1320 1.368 . S
C1317 C1298 1.429 . S
C1317 C1311 1.429 . S
C1317 C1318 1.523 . S
C1318 C1299 1.368 . S
C1318 C1312 1.368 . S
C1318 C1317 1.523 . S
C1319 C1303 1.429 . S
C1319 C1315 1.429 . S
C1319 C1320 1.523 . S
C1320 C1304 1.368 . S
C1320 C1316 1.368 . S
C1320 C1319 1.523 . S
H1321 C1296 0.950 . S
H1322 C1298 0.950 . S
H1323 C1299 0.949 . S
H1324 C1301 0.950 1_545 S
H1325 C1303 0.950 . S
C1326 C1327 1.349 . S
C1326 C1328 1.327 . S
C1326 H1351 0.950 . S
C1327 C1326 1.349 . S
C1327 C1343 1.349 . S
C1328 C1326 1.327 . S
C1328 C1347 1.429 . S
C1328 H1352 0.950 . S
C1329 C1346 1.574 . S
C1329 C1348 1.368 . S
C1329 H1353 0.949 . S
H1330 C1334 0.949 . S
C1331 C1332 1.349 . S
C1331 C1333 1.327 . S
C1331 H1354 0.950 . S
C1332 C1331 1.349 . S
C1332 C1344 1.349 . S
C1333 C1331 1.327 . S
C1333 C1349 1.429 . S
C1333 H1355 0.950 . S
C1334 H1330 0.949 . S
C1334 C1342 1.574 . S
C1334 C1350 1.368 . S
H1335 C1343 0.950 . S
H1336 C1341 0.950 . S
H1337 C1342 0.949 . S
H1338 C1344 0.950 . S
H1339 C1345 0.950 . S
H1340 C1346 0.949 . S
C1341 H1336 0.950 . S
C1341 C1343 1.327 . S
C1341 C1347 1.429 . S
C1342 C1334 1.574 . S
C1342 H1337 0.949 . S
C1342 C1348 1.368 . S
C1343 C1327 1.349 . S
C1343 H1335 0.950 . S
C1343 C1341 1.327 . S
C1344 C1332 1.349 . S
C1344 H1338 0.950 . S
C1344 C1345 1.327 . S
C1345 H1339 0.950 . S
C1345 C1344 1.327 . S
C1345 C1349 1.429 . S
C1346 C1329 1.574 . S
C1346 H1340 0.949 . S
C1346 C1350 1.368 . S
C1347 C1328 1.429 . S
C1347 C1341 1.429 . S
C1347 C1348 1.523 . S
C1348 C1329 1.368 . S
C1348 C1342 1.368 . S
C1348 C1347 1.523 . S
C1349 C1333 1.429 . S
C1349 C1345 1.429 . S
C1349 C1350 1.523 . S
C1350 C1334 1.368 . S
C1350 C1346 1.368 . S
C1350 C1349 1.523 . S
H1351 C1326 0.950 . S
H1352 C1328 0.950 . S
H1353 C1329 0.949 . S
H1354 C1331 0.950 . S
H1355 C1333 0.950 . S
C1356 C1357 1.349 . S
C1356 C1358 1.327 . S
C1356 H1381 0.950 . S
C1357 C1356 1.349 . S
C1357 C1373 1.349 . S
C1358 C1356 1.327 . S
C1358 C1377 1.429 . S
C1358 H1382 0.950 . S
C1359 C1376 1.574 . S
C1359 C1378 1.368 . S
C1359 H1383 0.949 . S
H1360 C1364 0.949 . S
C1361 C1362 1.349 . S
C1361 C1363 1.327 . S
C1361 H1384 0.950 . S
C1362 C1361 1.349 . S
C1362 C1374 1.349 . S
C1363 C1361 1.327 . S
C1363 C1379 1.429 . S
C1363 H1385 0.950 . S
C1364 H1360 0.949 . S
C1364 C1372 1.574 . S
C1364 C1380 1.368 . S
H1365 C1373 0.950 . S
H1366 C1371 0.950 . S
H1367 C1372 0.949 . S
H1368 C1374 0.950 . S
H1369 C1375 0.950 . S
H1370 C1376 0.949 . S
C1371 H1366 0.950 . S
C1371 C1373 1.327 . S
C1371 C1377 1.429 . S
C1372 C1364 1.574 . S
C1372 H1367 0.949 . S
C1372 C1378 1.368 . S
C1373 C1357 1.349 . S
C1373 H1365 0.950 . S
C1373 C1371 1.327 . S
C1374 C1362 1.349 . S
C1374 H1368 0.950 . S
C1374 C1375 1.327 . S
C1375 H1369 0.950 . S
C1375 C1374 1.327 . S
C1375 C1379 1.429 . S
C1376 C1359 1.574 . S
C1376 H1370 0.949 . S
C1376 C1380 1.368 . S
C1377 C1358 1.429 . S
C1377 C1371 1.429 . S
C1377 C1378 1.523 . S
C1378 C1359 1.368 . S
C1378 C1372 1.368 . S
C1378 C1377 1.523 . S
C1379 C1363 1.429 . S
C1379 C1375 1.429 . S
C1379 C1380 1.523 . S
C1380 C1364 1.368 . S
C1380 C1376 1.368 . S
C1380 C1379 1.523 . S
H1381 C1356 0.950 . S
H1382 C1358 0.950 . S
H1383 C1359 0.949 . S
H1384 C1361 0.950 . S
H1385 C1363 0.950 . S
C1386 C1387 1.349 . S
C1386 C1388 1.327 . S
C1386 H1411 0.950 . S
C1387 C1386 1.349 . S
C1387 C1403 1.349 . S
C1388 C1386 1.327 . S
C1388 C1407 1.429 . S
C1388 H1412 0.950 . S
C1389 C1406 1.574 1_554 S
C1389 C1408 1.368 . S
C1389 H1413 0.949 . S
H1390 C1394 0.947 1_556 S
C1391 C1392 1.349 . S
C1391 C1393 1.327 . S
C1391 H1414 0.950 . S
C1392 C1391 1.349 . S
C1392 C1404 1.349 . S
C1393 C1391 1.327 . S
C1393 C1409 1.429 . S
C1393 H1415 0.950 . S
C1394 H1390 0.947 1_554 S
C1394 C1402 1.574 . S
C1394 C1410 1.368 1_554 S
H1395 C1403 0.950 . S
H1396 C1401 0.950 . S
H1397 C1402 0.949 . S
H1398 C1404 0.950 . S
H1399 C1405 0.950 . S
H1400 C1406 0.949 . S
C1401 H1396 0.950 . S
C1401 C1403 1.327 . S
C1401 C1407 1.429 . S
C1402 C1394 1.574 . S
C1402 H1397 0.949 . S
C1402 C1408 1.368 . S
C1403 C1387 1.349 . S
C1403 H1395 0.950 . S
C1403 C1401 1.327 . S
C1404 C1392 1.349 . S
C1404 H1398 0.950 . S
C1404 C1405 1.327 . S
C1405 H1399 0.950 . S
C1405 C1404 1.327 . S
C1405 C1409 1.429 . S
C1406 C1389 1.574 1_556 S
C1406 H1400 0.949 . S
C1406 C1410 1.368 . S
C1407 C1388 1.429 . S
C1407 C1401 1.429 . S
C1407 C1408 1.523 . S
C1408 C1389 1.368 . S
C1408 C1402 1.368 . S
C1408 C1407 1.523 . S
C1409 C1393 1.429 . S
C1409 C1405 1.429 . S
C1409 C1410 1.523 . S
C1410 C1394 1.368 1_556 S
C1410 C1406 1.368 . S
C1410 C1409 1.523 . S
H1411 C1386 0.950 . S
H1412 C1388 0.950 . S
H1413 C1389 0.949 . S
H1414 C1391 0.950 . S
H1415 C1393 0.950 . S
C1416 C1417 1.349 . S
C1416 C1418 1.327 . S
C1416 H1441 0.950 . S
C1417 C1416 1.349 . S
C1417 C1433 1.349 . S
C1418 C1416 1.327 . S
C1418 C1437 1.429 . S
C1418 H1442 0.950 . S
C1419 C1436 1.574 1_554 S
C1419 C1438 1.368 . S
C1419 H1443 0.949 . S
H1420 C1424 0.949 . S
C1421 C1422 1.349 . S
C1421 C1423 1.327 . S
C1421 H1444 0.950 . S
C1422 C1421 1.349 . S
C1422 C1434 1.349 . S
C1423 C1421 1.327 . S
C1423 C1439 1.429 . S
C1423 H1445 0.950 . S
C1424 H1420 0.949 . S
C1424 C1432 1.574 1_556 S
C1424 C1440 1.368 . S
H1425 C1433 0.950 . S
H1426 C1431 0.950 . S
H1427 C1432 0.949 . S
H1428 C1434 0.950 . S
H1429 C1435 0.950 . S
H1430 C1436 0.949 . S
C1431 H1426 0.950 . S
C1431 C1433 1.327 . S
C1431 C1437 1.429 . S
C1432 C1424 1.574 1_554 S
C1432 H1427 0.949 . S
C1432 C1438 1.368 . S
C1433 C1417 1.349 . S
C1433 H1425 0.950 . S
C1433 C1431 1.327 . S
C1434 C1422 1.349 . S
C1434 H1428 0.950 . S
C1434 C1435 1.327 . S
C1435 H1429 0.950 . S
C1435 C1434 1.327 . S
C1435 C1439 1.429 . S
C1436 C1419 1.574 1_556 S
C1436 H1430 0.949 . S
C1436 C1440 1.368 . S
C1437 C1418 1.429 . S
C1437 C1431 1.429 . S
C1437 C1438 1.523 . S
C1438 C1419 1.368 . S
C1438 C1432 1.368 . S
C1438 C1437 1.523 . S
C1439 C1423 1.429 . S
C1439 C1435 1.429 . S
C1439 C1440 1.523 . S
C1440 C1424 1.368 . S
C1440 C1436 1.368 . S
C1440 C1439 1.523 . S
H1441 C1416 0.950 . S
H1442 C1418 0.950 . S
H1443 C1419 0.949 . S
H1444 C1421 0.950 . S
H1445 C1423 0.950 . S
C1446 C1447 1.349 . S
C1446 C1448 1.327 . S
C1446 H1471 0.950 . S
C1447 C1446 1.349 . S
C1447 C1463 1.349 . S
C1448 C1446 1.327 . S
C1448 C1467 1.429 . S
C1448 H1472 0.950 . S
C1449 C1466 1.591 . S
C1449 C1468 1.354 1_554 S
C1449 H1473 0.947 1_554 S
H1450 C1454 0.949 . S
C1451 C1452 1.349 . S
C1451 C1453 1.327 . S
C1451 H1474 0.950 . S
C1452 C1451 1.349 . S
C1452 C1464 1.349 . S
C1453 C1451 1.327 . S
C1453 C1469 1.429 . S
C1453 H1475 0.950 . S
C1454 H1450 0.949 . S
C1454 C1462 1.574 1_554 S
C1454 C1470 1.368 . S
H1455 C1463 0.950 . S
H1456 C1461 0.950 . S
H1457 C1462 0.949 . S
H1458 C1464 0.950 . S
H1459 C1465 0.950 . S
H1460 C1466 0.949 . S
C1461 H1456 0.950 . S
C1461 C1463 1.327 . S
C1461 C1467 1.429 . S
C1462 C1454 1.574 1_556 S
C1462 H1457 0.949 . S
C1462 C1468 1.368 . S
C1463 C1447 1.349 . S
C1463 H1455 0.950 . S
C1463 C1461 1.327 . S
C1464 C1452 1.349 . S
C1464 H1458 0.950 . S
C1464 C1465 1.327 . S
C1465 H1459 0.950 . S
C1465 C1464 1.327 . S
C1465 C1469 1.429 . S
C1466 C1449 1.591 . S
C1466 H1460 0.949 . S
C1466 C1470 1.368 . S
C1467 C1448 1.429 . S
C1467 C1461 1.429 . S
C1467 C1468 1.523 . S
C1468 C1449 1.354 1_556 S
C1468 C1462 1.368 . S
C1468 C1467 1.523 . S
C1469 C1453 1.429 . S
C1469 C1465 1.429 . S
C1469 C1470 1.523 . S
C1470 C1454 1.368 . S
C1470 C1466 1.368 . S
C1470 C1469 1.523 . S
H1471 C1446 0.950 . S
H1472 C1448 0.950 . S
H1473 C1449 0.947 1_556 S
H1474 C1451 0.950 . S
H1475 C1453 0.950 . S
C1476 C1477 1.349 . S
C1476 C1478 1.327 . S
C1476 H1501 0.950 . S
C1477 C1476 1.349 . S
C1477 C1493 1.349 . S
C1478 C1476 1.327 . S
C1478 C1497 1.429 . S
C1478 H1502 0.950 . S
C1479 C1496 1.574 . S
C1479 C1498 1.368 . S
C1479 H1503 0.949 . S
H1480 C1484 0.949 . S
C1481 C1482 1.349 . S
C1481 C1483 1.327 . S
C1481 H1504 0.950 . S
C1482 C1481 1.349 . S
C1482 C1494 1.349 . S
C1483 C1481 1.327 . S
C1483 C1499 1.429 . S
C1483 H1505 0.950 . S
C1484 H1480 0.949 . S
C1484 C1492 1.574 . S
C1484 C1500 1.368 . S
H1485 C1493 0.950 . S
H1486 C1491 0.950 . S
H1487 C1492 0.949 . S
H1488 C1494 0.950 . S
H1489 C1495 0.950 . S
H1490 C1496 0.949 . S
C1491 H1486 0.950 . S
C1491 C1493 1.327 . S
C1491 C1497 1.429 . S
C1492 C1484 1.574 . S
C1492 H1487 0.949 . S
C1492 C1498 1.368 . S
C1493 C1477 1.349 . S
C1493 H1485 0.950 . S
C1493 C1491 1.327 . S
C1494 C1482 1.349 . S
C1494 H1488 0.950 . S
C1494 C1495 1.327 . S
C1495 H1489 0.950 . S
C1495 C1494 1.327 . S
C1495 C1499 1.429 . S
C1496 C1479 1.574 . S
C1496 H1490 0.949 . S
C1496 C1500 1.368 . S
C1497 C1478 1.429 . S
C1497 C1491 1.429 . S
C1497 C1498 1.523 . S
C1498 C1479 1.368 . S
C1498 C1492 1.368 . S
C1498 C1497 1.523 . S
C1499 C1483 1.429 . S
C1499 C1495 1.429 . S
C1499 C1500 1.523 . S
C1500 C1484 1.368 . S
C1500 C1496 1.368 . S
C1500 C1499 1.523 . S
H1501 C1476 0.950 . S
H1502 C1478 0.950 . S
H1503 C1479 0.949 . S
H1504 C1481 0.950 . S
H1505 C1483 0.950 . S
C1506 C1507 1.349 . S
C1506 C1508 1.327 . S
C1506 H1531 0.950 . S
C1507 C1506 1.349 . S
C1507 C1523 1.349 . S
C1508 C1506 1.327 . S
C1508 C1527 1.429 . S
C1508 H1532 0.950 . S
C1509 C1526 1.574 . S
C1509 C1528 1.368 . S
C1509 H1533 0.949 . S
H1510 C1514 0.949 . S
C1511 C1512 1.349 . S
C1511 C1513 1.327 . S
C1511 H1534 0.950 . S
C1512 C1511 1.349 . S
C1512 C1524 1.349 . S
C1513 C1511 1.327 . S
C1513 C1529 1.429 . S
C1513 H1535 0.950 . S
C1514 H1510 0.949 . S
C1514 C1522 1.574 . S
C1514 C1530 1.368 . S
H1515 C1523 0.950 . S
H1516 C1521 0.950 . S
H1517 C1522 0.949 . S
H1518 C1524 0.950 . S
H1519 C1525 0.950 . S
H1520 C1526 0.949 . S
C1521 H1516 0.950 . S
C1521 C1523 1.327 . S
C1521 C1527 1.429 . S
C1522 C1514 1.574 . S
C1522 H1517 0.949 . S
C1522 C1528 1.368 . S
C1523 C1507 1.349 . S
C1523 H1515 0.950 . S
C1523 C1521 1.327 . S
C1524 C1512 1.349 . S
C1524 H1518 0.950 . S
C1524 C1525 1.327 . S
C1525 H1519 0.950 . S
C1525 C1524 1.327 . S
C1525 C1529 1.429 . S
C1526 C1509 1.574 . S
C1526 H1520 0.949 . S
C1526 C1530 1.368 . S
C1527 C1508 1.429 . S
C1527 C1521 1.429 . S
C1527 C1528 1.523 . S
C1528 C1509 1.368 . S
C1528 C1522 1.368 . S
C1528 C1527 1.523 . S
C1529 C1513 1.429 . S
C1529 C1525 1.429 . S
C1529 C1530 1.523 . S
C1530 C1514 1.368 . S
C1530 C1526 1.368 . S
C1530 C1529 1.523 . S
H1531 C1506 0.950 . S
H1532 C1508 0.950 . S
H1533 C1509 0.949 . S
H1534 C1511 0.950 . S
H1535 C1513 0.950 . S
C1536 C1537 1.349 . S
C1536 C1538 1.327 . S
C1536 H1561 0.950 . S
C1537 C1536 1.349 . S
C1537 C1553 1.349 . S
C1538 C1536 1.327 . S
C1538 C1557 1.429 . S
C1538 H1562 0.950 . S
C1539 C1556 1.574 . S
C1539 C1558 1.368 . S
C1539 H1563 0.949 . S
H1540 C1544 0.949 . S
C1541 C1542 1.349 . S
C1541 C1543 1.327 . S
C1541 H1564 0.950 . S
C1542 C1541 1.349 . S
C1542 C1554 1.349 . S
C1543 C1541 1.327 . S
C1543 C1559 1.429 . S
C1543 H1565 0.950 . S
C1544 H1540 0.949 . S
C1544 C1552 1.574 . S
C1544 C1560 1.368 . S
H1545 C1553 0.950 . S
H1546 C1551 0.950 . S
H1547 C1552 0.949 . S
H1548 C1554 0.950 . S
H1549 C1555 0.950 . S
H1550 C1556 0.949 . S
C1551 H1546 0.950 . S
C1551 C1553 1.327 . S
C1551 C1557 1.429 . S
C1552 C1544 1.574 . S
C1552 H1547 0.949 . S
C1552 C1558 1.368 . S
C1553 C1537 1.349 . S
C1553 H1545 0.950 . S
C1553 C1551 1.327 . S
C1554 C1542 1.349 . S
C1554 H1548 0.950 . S
C1554 C1555 1.327 . S
C1555 H1549 0.950 . S
C1555 C1554 1.327 . S
C1555 C1559 1.429 . S
C1556 C1539 1.574 . S
C1556 H1550 0.949 . S
C1556 C1560 1.368 . S
C1557 C1538 1.429 . S
C1557 C1551 1.429 . S
C1557 C1558 1.523 . S
C1558 C1539 1.368 . S
C1558 C1552 1.368 . S
C1558 C1557 1.523 . S
C1559 C1543 1.429 . S
C1559 C1555 1.429 . S
C1559 C1560 1.523 . S
C1560 C1544 1.368 . S
C1560 C1556 1.368 . S
C1560 C1559 1.523 . S
H1561 C1536 0.950 . S
H1562 C1538 0.950 . S
H1563 C1539 0.949 . S
H1564 C1541 0.950 . S
H1565 C1543 0.950 . S
C1566 C1567 1.349 . S
C1566 C1568 1.327 . S
C1566 H1591 0.950 . S
C1567 C1566 1.349 . S
C1567 C1583 1.349 . S
C1568 C1566 1.327 . S
C1568 C1587 1.429 . S
C1568 H1592 0.950 . S
C1569 C1586 1.574 . S
C1569 C1588 1.368 . S
C1569 H1593 0.949 . S
H1570 C1574 0.949 . S
C1571 C1572 1.349 . S
C1571 C1573 1.327 . S
C1571 H1594 0.950 . S
C1572 C1571 1.349 . S
C1572 C1584 1.349 . S
C1573 C1571 1.327 . S
C1573 C1589 1.429 . S
C1573 H1595 0.950 . S
C1574 H1570 0.949 . S
C1574 C1582 1.574 . S
C1574 C1590 1.368 . S
H1575 C1583 0.950 . S
H1576 C1581 0.950 . S
H1577 C1582 0.949 . S
H1578 C1584 0.950 . S
H1579 C1585 0.950 . S
H1580 C1586 0.949 . S
C1581 H1576 0.950 . S
C1581 C1583 1.327 . S
C1581 C1587 1.429 . S
C1582 C1574 1.574 . S
C1582 H1577 0.949 . S
C1582 C1588 1.368 . S
C1583 C1567 1.349 . S
C1583 H1575 0.950 . S
C1583 C1581 1.327 . S
C1584 C1572 1.349 . S
C1584 H1578 0.950 . S
C1584 C1585 1.327 . S
C1585 H1579 0.950 . S
C1585 C1584 1.327 . S
C1585 C1589 1.429 . S
C1586 C1569 1.574 . S
C1586 H1580 0.949 . S
C1586 C1590 1.368 . S
C1587 C1568 1.429 . S
C1587 C1581 1.429 . S
C1587 C1588 1.523 . S
C1588 C1569 1.368 . S
C1588 C1582 1.368 . S
C1588 C1587 1.523 . S
C1589 C1573 1.429 . S
C1589 C1585 1.429 . S
C1589 C1590 1.523 . S
C1590 C1574 1.368 . S
C1590 C1586 1.368 . S
C1590 C1589 1.523 . S
H1591 C1566 0.950 . S
H1592 C1568 0.950 . S
H1593 C1569 0.949 . S
H1594 C1571 0.950 . S
H1595 C1573 0.950 . S
C1596 C1597 1.349 . S
C1596 C1598 1.327 . S
C1596 H1621 0.950 . S
C1597 C1596 1.349 . S
C1597 C1613 1.349 . S
C1598 C1596 1.327 . S
C1598 C1617 1.429 . S
C1598 H1622 0.950 . S
C1599 C1616 1.574 . S
C1599 C1618 1.368 . S
C1599 H1623 0.949 . S
H1600 C1604 0.949 . S
C1601 C1602 1.349 . S
C1601 C1603 1.327 . S
C1601 H1624 0.950 . S
C1602 C1601 1.349 . S
C1602 C1614 1.349 . S
C1603 C1601 1.327 . S
C1603 C1619 1.429 . S
C1603 H1625 0.950 . S
C1604 H1600 0.949 . S
C1604 C1612 1.574 . S
C1604 C1620 1.368 . S
H1605 C1613 0.950 . S
H1606 C1611 0.950 . S
H1607 C1612 0.949 . S
H1608 C1614 0.950 . S
H1609 C1615 0.950 . S
H1610 C1616 0.949 . S
C1611 H1606 0.950 . S
C1611 C1613 1.327 . S
C1611 C1617 1.429 . S
C1612 C1604 1.574 . S
C1612 H1607 0.949 . S
C1612 C1618 1.368 . S
C1613 C1597 1.349 . S
C1613 H1605 0.950 . S
C1613 C1611 1.327 . S
C1614 C1602 1.349 . S
C1614 H1608 0.950 . S
C1614 C1615 1.327 . S
C1615 H1609 0.950 . S
C1615 C1614 1.327 . S
C1615 C1619 1.429 . S
C1616 C1599 1.574 . S
C1616 H1610 0.949 . S
C1616 C1620 1.368 . S
C1617 C1598 1.429 . S
C1617 C1611 1.429 . S
C1617 C1618 1.523 . S
C1618 C1599 1.368 . S
C1618 C1612 1.368 . S
C1618 C1617 1.523 . S
C1619 C1603 1.429 . S
C1619 C1615 1.429 . S
C1619 C1620 1.523 . S
C1620 C1604 1.368 . S
C1620 C1616 1.368 . S
C1620 C1619 1.523 . S
H1621 C1596 0.950 . S
H1622 C1598 0.950 . S
H1623 C1599 0.949 . S
H1624 C1601 0.950 . S
H1625 C1603 0.950 . S
C1626 C1627 1.349 . S
C1626 C1628 1.327 . S
C1626 H1651 0.950 . S
C1627 C1626 1.349 . S
C1627 C1643 1.349 . S
C1628 C1626 1.327 . S
C1628 C1647 1.429 . S
C1628 H1652 0.950 . S
C1629 C1646 1.574 . S
C1629 C1648 1.368 . S
C1629 H1653 0.949 . S
H1630 C1634 0.949 . S
C1631 C1632 1.349 . S
C1631 C1633 1.327 . S
C1631 H1654 0.950 . S
C1632 C1631 1.349 . S
C1632 C1644 1.349 . S
C1633 C1631 1.327 . S
C1633 C1649 1.429 . S
C1633 H1655 0.950 . S
C1634 H1630 0.949 . S
C1634 C1642 1.574 . S
C1634 C1650 1.368 . S
H1635 C1643 0.950 . S
H1636 C1641 0.950 . S
H1637 C1642 0.949 . S
H1638 C1644 0.950 . S
H1639 C1645 0.950 . S
H1640 C1646 0.949 . S
C1641 H1636 0.950 . S
C1641 C1643 1.327 . S
C1641 C1647 1.429 . S
C1642 C1634 1.574 . S
C1642 H1637 0.949 . S
C1642 C1648 1.368 . S
C1643 C1627 1.349 . S
C1643 H1635 0.950 . S
C1643 C1641 1.327 . S
C1644 C1632 1.349 . S
C1644 H1638 0.950 . S
C1644 C1645 1.327 . S
C1645 H1639 0.950 . S
C1645 C1644 1.327 . S
C1645 C1649 1.429 . S
C1646 C1629 1.574 . S
C1646 H1640 0.949 . S
C1646 C1650 1.368 . S
C1647 C1628 1.429 . S
C1647 C1641 1.429 . S
C1647 C1648 1.523 . S
C1648 C1629 1.368 . S
C1648 C1642 1.368 . S
C1648 C1647 1.523 . S
C1649 C1633 1.429 . S
C1649 C1645 1.429 . S
C1649 C1650 1.523 . S
C1650 C1634 1.368 . S
C1650 C1646 1.368 . S
C1650 C1649 1.523 . S
H1651 C1626 0.950 . S
H1652 C1628 0.950 . S
H1653 C1629 0.949 . S
H1654 C1631 0.950 . S
H1655 C1633 0.950 . S
C1656 C1657 1.349 . S
C1656 C1658 1.327 . S
C1656 H1681 0.950 . S
C1657 C1656 1.349 . S
C1657 C1673 1.349 . S
C1658 C1656 1.327 . S
C1658 C1677 1.429 . S
C1658 H1682 0.950 . S
C1659 C1676 1.574 . S
C1659 C1678 1.368 . S
C1659 H1683 0.949 . S
H1660 C1664 0.949 . S
C1661 C1662 1.349 . S
C1661 C1663 1.327 . S
C1661 H1684 0.950 . S
C1662 C1661 1.349 . S
C1662 C1674 1.349 . S
C1663 C1661 1.327 . S
C1663 C1679 1.429 . S
C1663 H1685 0.950 . S
C1664 H1660 0.949 . S
C1664 C1672 1.574 . S
C1664 C1680 1.368 . S
H1665 C1673 0.950 . S
H1666 C1671 0.950 . S
H1667 C1672 0.949 . S
H1668 C1674 0.950 . S
H1669 C1675 0.950 . S
H1670 C1676 0.949 . S
C1671 H1666 0.950 . S
C1671 C1673 1.327 . S
C1671 C1677 1.429 . S
C1672 C1664 1.574 . S
C1672 H1667 0.949 . S
C1672 C1678 1.368 . S
C1673 C1657 1.349 . S
C1673 H1665 0.950 . S
C1673 C1671 1.327 . S
C1674 C1662 1.349 . S
C1674 H1668 0.950 . S
C1674 C1675 1.327 . S
C1675 H1669 0.950 . S
C1675 C1674 1.327 . S
C1675 C1679 1.429 . S
C1676 C1659 1.574 . S
C1676 H1670 0.949 . S
C1676 C1680 1.368 . S
C1677 C1658 1.429 . S
C1677 C1671 1.429 . S
C1677 C1678 1.523 . S
C1678 C1659 1.368 . S
C1678 C1672 1.368 . S
C1678 C1677 1.523 . S
C1679 C1663 1.429 . S
C1679 C1675 1.429 . S
C1679 C1680 1.523 . S
C1680 C1664 1.368 . S
C1680 C1676 1.368 . S
C1680 C1679 1.523 . S
H1681 C1656 0.950 . S
H1682 C1658 0.950 . S
H1683 C1659 0.949 . S
H1684 C1661 0.950 . S
H1685 C1663 0.950 . S
C1686 C1687 1.349 . S
C1686 C1688 1.327 . S
C1686 H1711 0.950 . S
C1687 C1686 1.349 . S
C1687 C1703 1.349 . S
C1688 C1686 1.327 . S
C1688 C1707 1.429 . S
C1688 H1712 0.950 . S
C1689 C1706 1.574 . S
C1689 C1708 1.368 . S
C1689 H1713 0.949 . S
H1690 C1694 0.949 . S
C1691 C1692 1.349 . S
C1691 C1693 1.327 . S
C1691 H1714 0.950 . S
C1692 C1691 1.349 . S
C1692 C1704 1.349 . S
C1693 C1691 1.327 . S
C1693 C1709 1.429 . S
C1693 H1715 0.950 . S
C1694 H1690 0.949 . S
C1694 C1702 1.574 . S
C1694 C1710 1.368 . S
H1695 C1703 0.950 . S
H1696 C1701 0.950 . S
H1697 C1702 0.949 . S
H1698 C1704 0.950 . S
H1699 C1705 0.950 . S
H1700 C1706 0.949 . S
C1701 H1696 0.950 . S
C1701 C1703 1.327 . S
C1701 C1707 1.429 . S
C1702 C1694 1.574 . S
C1702 H1697 0.949 . S
C1702 C1708 1.368 . S
C1703 C1687 1.349 . S
C1703 H1695 0.950 . S
C1703 C1701 1.327 . S
C1704 C1692 1.349 . S
C1704 H1698 0.950 . S
C1704 C1705 1.327 . S
C1705 H1699 0.950 . S
C1705 C1704 1.327 . S
C1705 C1709 1.429 . S
C1706 C1689 1.574 . S
C1706 H1700 0.949 . S
C1706 C1710 1.368 . S
C1707 C1688 1.429 . S
C1707 C1701 1.429 . S
C1707 C1708 1.523 . S
C1708 C1689 1.368 . S
C1708 C1702 1.368 . S
C1708 C1707 1.523 . S
C1709 C1693 1.429 . S
C1709 C1705 1.429 . S
C1709 C1710 1.523 . S
C1710 C1694 1.368 . S
C1710 C1706 1.368 . S
C1710 C1709 1.523 . S
H1711 C1686 0.950 . S
H1712 C1688 0.950 . S
H1713 C1689 0.949 . S
H1714 C1691 0.950 . S
H1715 C1693 0.950 . S
C1716 C1717 1.349 . S
C1716 C1718 1.327 . S
C1716 H1741 0.950 . S
C1717 C1716 1.349 . S
C1717 C1733 1.349 . S
C1718 C1716 1.327 . S
C1718 C1737 1.429 . S
C1718 H1742 0.950 . S
C1719 C1736 1.574 . S
C1719 C1738 1.368 . S
C1719 H1743 0.949 . S
H1720 C1724 0.949 . S
C1721 C1722 1.349 . S
C1721 C1723 1.327 . S
C1721 H1744 0.950 . S
C1722 C1721 1.349 . S
C1722 C1734 1.349 . S
C1723 C1721 1.327 . S
C1723 C1739 1.429 . S
C1723 H1745 0.950 . S
C1724 H1720 0.949 . S
C1724 C1732 1.574 . S
C1724 C1740 1.368 . S
H1725 C1733 0.950 . S
H1726 C1731 0.950 . S
H1727 C1732 0.949 . S
H1728 C1734 0.950 . S
H1729 C1735 0.950 . S
H1730 C1736 0.949 . S
C1731 H1726 0.950 . S
C1731 C1733 1.327 . S
C1731 C1737 1.429 . S
C1732 C1724 1.574 . S
C1732 H1727 0.949 . S
C1732 C1738 1.368 . S
C1733 C1717 1.349 . S
C1733 H1725 0.950 . S
C1733 C1731 1.327 . S
C1734 C1722 1.349 . S
C1734 H1728 0.950 . S
C1734 C1735 1.327 . S
C1735 H1729 0.950 . S
C1735 C1734 1.327 . S
C1735 C1739 1.429 . S
C1736 C1719 1.574 . S
C1736 H1730 0.949 . S
C1736 C1740 1.368 . S
C1737 C1718 1.429 . S
C1737 C1731 1.429 . S
C1737 C1738 1.523 . S
C1738 C1719 1.368 . S
C1738 C1732 1.368 . S
C1738 C1737 1.523 . S
C1739 C1723 1.429 . S
C1739 C1735 1.429 . S
C1739 C1740 1.523 . S
C1740 C1724 1.368 . S
C1740 C1736 1.368 . S
C1740 C1739 1.523 . S
H1741 C1716 0.950 . S
H1742 C1718 0.950 . S
H1743 C1719 0.949 . S
H1744 C1721 0.950 . S
H1745 C1723 0.950 . S
C1746 C1747 1.349 . S
C1746 C1748 1.327 . S
C1746 H1771 0.950 . S
C1747 C1746 1.349 . S
C1747 C1763 1.349 . S
C1748 C1746 1.327 . S
C1748 C1767 1.429 . S
C1748 H1772 0.950 . S
C1749 C1766 1.574 . S
C1749 C1768 1.368 . S
C1749 H1773 0.949 . S
H1750 C1754 0.949 . S
C1751 C1752 1.349 . S
C1751 C1753 1.327 . S
C1751 H1774 0.950 . S
C1752 C1751 1.349 . S
C1752 C1764 1.349 . S
C1753 C1751 1.327 . S
C1753 C1769 1.429 . S
C1753 H1775 0.950 . S
C1754 H1750 0.949 . S
C1754 C1762 1.574 . S
C1754 C1770 1.368 . S
H1755 C1763 0.950 . S
H1756 C1761 0.950 . S
H1757 C1762 0.949 . S
H1758 C1764 0.950 . S
H1759 C1765 0.950 . S
H1760 C1766 0.949 . S
C1761 H1756 0.950 . S
C1761 C1763 1.327 . S
C1761 C1767 1.429 . S
C1762 C1754 1.574 . S
C1762 H1757 0.949 . S
C1762 C1768 1.368 . S
C1763 C1747 1.349 . S
C1763 H1755 0.950 . S
C1763 C1761 1.327 . S
C1764 C1752 1.349 . S
C1764 H1758 0.950 . S
C1764 C1765 1.327 . S
C1765 H1759 0.950 . S
C1765 C1764 1.327 . S
C1765 C1769 1.429 . S
C1766 C1749 1.574 . S
C1766 H1760 0.949 . S
C1766 C1770 1.368 . S
C1767 C1748 1.429 . S
C1767 C1761 1.429 . S
C1767 C1768 1.523 . S
C1768 C1749 1.368 . S
C1768 C1762 1.368 . S
C1768 C1767 1.523 . S
C1769 C1753 1.429 . S
C1769 C1765 1.429 . S
C1769 C1770 1.523 . S
C1770 C1754 1.368 . S
C1770 C1766 1.368 . S
C1770 C1769 1.523 . S
H1771 C1746 0.950 . S
H1772 C1748 0.950 . S
H1773 C1749 0.949 . S
H1774 C1751 0.950 . S
H1775 C1753 0.950 . S
C1776 C1777 1.349 . S
C1776 C1778 1.327 . S
C1776 H1801 0.950 . S
C1777 C1776 1.349 . S
C1777 C1793 1.349 . S
C1778 C1776 1.327 . S
C1778 C1797 1.429 . S
C1778 H1802 0.950 . S
C1779 C1796 1.574 . S
C1779 C1798 1.368 . S
C1779 H1803 0.949 . S
H1780 C1784 0.949 . S
C1781 C1782 1.349 . S
C1781 C1783 1.327 . S
C1781 H1804 0.950 . S
C1782 C1781 1.349 . S
C1782 C1794 1.349 . S
C1783 C1781 1.327 . S
C1783 C1799 1.429 . S
C1783 H1805 0.950 . S
C1784 H1780 0.949 . S
C1784 C1792 1.574 . S
C1784 C1800 1.368 . S
H1785 C1793 0.950 . S
H1786 C1791 0.950 . S
H1787 C1792 0.949 . S
H1788 C1794 0.950 . S
H1789 C1795 0.950 . S
H1790 C1796 0.949 . S
C1791 H1786 0.950 . S
C1791 C1793 1.327 . S
C1791 C1797 1.429 . S
C1792 C1784 1.574 . S
C1792 H1787 0.949 . S
C1792 C1798 1.368 . S
C1793 C1777 1.349 . S
C1793 H1785 0.950 . S
C1793 C1791 1.327 . S
C1794 C1782 1.349 . S
C1794 H1788 0.950 . S
C1794 C1795 1.327 . S
C1795 H1789 0.950 . S
C1795 C1794 1.327 . S
C1795 C1799 1.429 . S
C1796 C1779 1.574 . S
C1796 H1790 0.949 . S
C1796 C1800 1.368 . S
C1797 C1778 1.429 . S
C1797 C1791 1.429 . S
C1797 C1798 1.523 . S
C1798 C1779 1.368 . S
C1798 C1792 1.368 . S
C1798 C1797 1.523 . S
C1799 C1783 1.429 . S
C1799 C1795 1.429 . S
C1799 C1800 1.523 . S
C1800 C1784 1.368 . S
C1800 C1796 1.368 . S
C1800 C1799 1.523 . S
H1801 C1776 0.950 . S
H1802 C1778 0.950 . S
H1803 C1779 0.949 . S
H1804 C1781 0.950 . S
H1805 C1783 0.950 . S
C1806 C1807 1.349 . S
C1806 C1808 1.327 . S
C1806 H1831 0.950 . S
C1807 C1806 1.349 . S
C1807 C1823 1.349 . S
C1808 C1806 1.327 . S
C1808 C1827 1.429 . S
C1808 H1832 0.950 . S
C1809 C1826 1.574 . S
C1809 C1828 1.368 . S
C1809 H1833 0.949 . S
H1810 C1814 0.949 . S
C1811 C1812 1.349 . S
C1811 C1813 1.327 . S
C1811 H1834 0.950 . S
C1812 C1811 1.349 . S
C1812 C1824 1.349 . S
C1813 C1811 1.327 . S
C1813 C1829 1.429 . S
C1813 H1835 0.950 . S
C1814 H1810 0.949 . S
C1814 C1822 1.574 . S
C1814 C1830 1.368 . S
H1815 C1823 0.950 . S
H1816 C1821 0.950 . S
H1817 C1822 0.949 . S
H1818 C1824 0.950 . S
H1819 C1825 0.950 . S
H1820 C1826 0.949 . S
C1821 H1816 0.950 . S
C1821 C1823 1.327 . S
C1821 C1827 1.429 . S
C1822 C1814 1.574 . S
C1822 H1817 0.949 . S
C1822 C1828 1.368 . S
C1823 C1807 1.349 . S
C1823 H1815 0.950 . S
C1823 C1821 1.327 . S
C1824 C1812 1.349 . S
C1824 H1818 0.950 . S
C1824 C1825 1.327 . S
C1825 H1819 0.950 . S
C1825 C1824 1.327 . S
C1825 C1829 1.429 . S
C1826 C1809 1.574 . S
C1826 H1820 0.949 . S
C1826 C1830 1.368 . S
C1827 C1808 1.429 . S
C1827 C1821 1.429 . S
C1827 C1828 1.523 . S
C1828 C1809 1.368 . S
C1828 C1822 1.368 . S
C1828 C1827 1.523 . S
C1829 C1813 1.429 . S
C1829 C1825 1.429 . S
C1829 C1830 1.523 . S
C1830 C1814 1.368 . S
C1830 C1826 1.368 . S
C1830 C1829 1.523 . S
H1831 C1806 0.950 . S
H1832 C1808 0.950 . S
H1833 C1809 0.949 . S
H1834 C1811 0.950 . S
H1835 C1813 0.950 . S
C1836 C1837 1.349 . S
C1836 C1838 1.327 . S
C1836 H1861 0.950 . S
C1837 C1836 1.349 . S
C1837 C1853 1.349 . S
C1838 C1836 1.327 . S
C1838 C1857 1.429 . S
C1838 H1862 0.950 . S
C1839 C1856 1.574 . S
C1839 C1858 1.368 . S
C1839 H1863 0.949 . S
H1840 C1844 0.949 . S
C1841 C1842 1.349 . S
C1841 C1843 1.327 . S
C1841 H1864 0.950 . S
C1842 C1841 1.349 . S
C1842 C1854 1.349 . S
C1843 C1841 1.327 . S
C1843 C1859 1.429 . S
C1843 H1865 0.950 . S
C1844 H1840 0.949 . S
C1844 C1852 1.574 . S
C1844 C1860 1.368 . S
H1845 C1853 0.950 . S
H1846 C1851 0.950 . S
H1847 C1852 0.949 . S
H1848 C1854 0.950 . S
H1849 C1855 0.950 . S
H1850 C1856 0.949 . S
C1851 H1846 0.950 . S
C1851 C1853 1.327 . S
C1851 C1857 1.429 . S
C1852 C1844 1.574 . S
C1852 H1847 0.949 . S
C1852 C1858 1.368 . S
C1853 C1837 1.349 . S
C1853 H1845 0.950 . S
C1853 C1851 1.327 . S
C1854 C1842 1.349 . S
C1854 H1848 0.950 . S
C1854 C1855 1.327 . S
C1855 H1849 0.950 . S
C1855 C1854 1.327 . S
C1855 C1859 1.429 . S
C1856 C1839 1.574 . S
C1856 H1850 0.949 . S
C1856 C1860 1.368 . S
C1857 C1838 1.429 . S
C1857 C1851 1.429 . S
C1857 C1858 1.523 . S
C1858 C1839 1.368 . S
C1858 C1852 1.368 . S
C1858 C1857 1.523 . S
C1859 C1843 1.429 . S
C1859 C1855 1.429 . S
C1859 C1860 1.523 . S
C1860 C1844 1.368 . S
C1860 C1856 1.368 . S
C1860 C1859 1.523 . S
H1861 C1836 0.950 . S
H1862 C1838 0.950 . S
H1863 C1839 0.949 . S
H1864 C1841 0.950 . S
H1865 C1843 0.950 . S
C1866 C1867 1.349 . S
C1866 C1868 1.327 . S
C1866 H1891 0.950 . S
C1867 C1866 1.349 . S
C1867 C1883 1.349 . S
C1868 C1866 1.327 . S
C1868 C1887 1.429 . S
C1868 H1892 0.950 . S
C1869 C1886 1.574 . S
C1869 C1888 1.368 . S
C1869 H1893 0.949 . S
H1870 C1874 0.949 . S
C1871 C1872 1.349 . S
C1871 C1873 1.327 . S
C1871 H1894 0.950 . S
C1872 C1871 1.349 . S
C1872 C1884 1.349 . S
C1873 C1871 1.327 . S
C1873 C1889 1.429 . S
C1873 H1895 0.950 . S
C1874 H1870 0.949 . S
C1874 C1882 1.574 . S
C1874 C1890 1.368 . S
H1875 C1883 0.950 . S
H1876 C1881 0.950 . S
H1877 C1882 0.949 . S
H1878 C1884 0.950 . S
H1879 C1885 0.950 . S
H1880 C1886 0.949 . S
C1881 H1876 0.950 . S
C1881 C1883 1.327 . S
C1881 C1887 1.429 . S
C1882 C1874 1.574 . S
C1882 H1877 0.949 . S
C1882 C1888 1.368 . S
C1883 C1867 1.349 . S
C1883 H1875 0.950 . S
C1883 C1881 1.327 . S
C1884 C1872 1.349 . S
C1884 H1878 0.950 . S
C1884 C1885 1.327 . S
C1885 H1879 0.950 . S
C1885 C1884 1.327 . S
C1885 C1889 1.429 . S
C1886 C1869 1.574 . S
C1886 H1880 0.949 . S
C1886 C1890 1.368 . S
C1887 C1868 1.429 . S
C1887 C1881 1.429 . S
C1887 C1888 1.523 . S
C1888 C1869 1.368 . S
C1888 C1882 1.368 . S
C1888 C1887 1.523 . S
C1889 C1873 1.429 . S
C1889 C1885 1.429 . S
C1889 C1890 1.523 . S
C1890 C1874 1.368 . S
C1890 C1886 1.368 . S
C1890 C1889 1.523 . S
H1891 C1866 0.950 . S
H1892 C1868 0.950 . S
H1893 C1869 0.949 . S
H1894 C1871 0.950 . S
H1895 C1873 0.950 . S
C1896 C1897 1.349 . S
C1896 C1898 1.327 . S
C1896 H1921 0.950 . S
C1897 C1896 1.349 . S
C1897 C1913 1.349 . S
C1898 C1896 1.327 . S
C1898 C1917 1.429 . S
C1898 H1922 0.950 . S
C1899 C1916 1.574 . S
C1899 C1918 1.368 . S
C1899 H1923 0.949 . S
H1900 C1904 0.949 . S
C1901 C1902 1.349 . S
C1901 C1903 1.327 . S
C1901 H1924 0.950 . S
C1902 C1901 1.349 . S
C1902 C1914 1.349 . S
C1903 C1901 1.327 . S
C1903 C1919 1.429 . S
C1903 H1925 0.950 . S
C1904 H1900 0.949 . S
C1904 C1912 1.574 . S
C1904 C1920 1.368 . S
H1905 C1913 0.950 . S
H1906 C1911 0.950 . S
H1907 C1912 0.949 . S
H1908 C1914 0.950 . S
H1909 C1915 0.950 . S
H1910 C1916 0.949 . S
C1911 H1906 0.950 . S
C1911 C1913 1.327 . S
C1911 C1917 1.429 . S
C1912 C1904 1.574 . S
C1912 H1907 0.949 . S
C1912 C1918 1.368 . S
C1913 C1897 1.349 . S
C1913 H1905 0.950 . S
C1913 C1911 1.327 . S
C1914 C1902 1.349 . S
C1914 H1908 0.950 . S
C1914 C1915 1.327 . S
C1915 H1909 0.950 . S
C1915 C1914 1.327 . S
C1915 C1919 1.429 . S
C1916 C1899 1.574 . S
C1916 H1910 0.949 . S
C1916 C1920 1.368 . S
C1917 C1898 1.429 . S
C1917 C1911 1.429 . S
C1917 C1918 1.523 . S
C1918 C1899 1.368 . S
C1918 C1912 1.368 . S
C1918 C1917 1.523 . S
C1919 C1903 1.429 . S
C1919 C1915 1.429 . S
C1919 C1920 1.523 . S
C1920 C1904 1.368 . S
C1920 C1916 1.368 . S
C1920 C1919 1.523 . S
H1921 C1896 0.950 . S
H1922 C1898 0.950 . S
H1923 C1899 0.949 . S
H1924 C1901 0.950 . S
H1925 C1903 0.950 . S
C1926 C1927 1.349 . S
C1926 C1928 1.327 . S
C1926 H1951 0.950 . S
C1927 C1926 1.349 . S
C1927 C1943 1.349 . S
C1928 C1926 1.327 . S
C1928 C1947 1.429 . S
C1928 H1952 0.950 . S
C1929 C1946 1.574 . S
C1929 C1948 1.368 . S
C1929 H1953 0.949 . S
H1930 C1934 0.949 . S
C1931 C1932 1.349 . S
C1931 C1933 1.327 . S
C1931 H1954 0.950 . S
C1932 C1931 1.349 . S
C1932 C1944 1.349 . S
C1933 C1931 1.327 . S
C1933 C1949 1.429 . S
C1933 H1955 0.950 . S
C1934 H1930 0.949 . S
C1934 C1942 1.574 . S
C1934 C1950 1.368 . S
H1935 C1943 0.950 . S
H1936 C1941 0.950 . S
H1937 C1942 0.949 . S
H1938 C1944 0.950 . S
H1939 C1945 0.950 . S
H1940 C1946 0.949 . S
C1941 H1936 0.950 . S
C1941 C1943 1.327 . S
C1941 C1947 1.429 . S
C1942 C1934 1.574 . S
C1942 H1937 0.949 . S
C1942 C1948 1.368 . S
C1943 C1927 1.349 . S
C1943 H1935 0.950 . S
C1943 C1941 1.327 . S
C1944 C1932 1.349 . S
C1944 H1938 0.950 . S
C1944 C1945 1.327 . S
C1945 H1939 0.950 . S
C1945 C1944 1.327 . S
C1945 C1949 1.429 . S
C1946 C1929 1.574 . S
C1946 H1940 0.949 . S
C1946 C1950 1.368 . S
C1947 C1928 1.429 . S
C1947 C1941 1.429 . S
C1947 C1948 1.523 . S
C1948 C1929 1.368 . S
C1948 C1942 1.368 . S
C1948 C1947 1.523 . S
C1949 C1933 1.429 . S
C1949 C1945 1.429 . S
C1949 C1950 1.523 . S
C1950 C1934 1.368 . S
C1950 C1946 1.368 . S
C1950 C1949 1.523 . S
H1951 C1926 0.950 . S
H1952 C1928 0.950 . S
H1953 C1929 0.949 . S
H1954 C1931 0.950 . S
H1955 C1933 0.950 . S
C1956 C1957 1.349 . S
C1956 C1958 1.327 . S
C1956 H1981 0.950 . S
C1957 C1956 1.349 . S
C1957 C1973 1.349 . S
C1958 C1956 1.327 . S
C1958 C1977 1.429 . S
C1958 H1982 0.950 . S
C1959 C1976 1.574 . S
C1959 C1978 1.368 . S
C1959 H1983 0.949 . S
H1960 C1964 0.949 . S
C1961 C1962 1.349 . S
C1961 C1963 1.327 . S
C1961 H1984 0.950 . S
C1962 C1961 1.349 . S
C1962 C1974 1.349 . S
C1963 C1961 1.327 . S
C1963 C1979 1.429 . S
C1963 H1985 0.950 . S
C1964 H1960 0.949 . S
C1964 C1972 1.574 . S
C1964 C1980 1.368 . S
H1965 C1973 0.950 . S
H1966 C1971 0.950 . S
H1967 C1972 0.949 . S
H1968 C1974 0.950 . S
H1969 C1975 0.950 . S
H1970 C1976 0.949 . S
C1971 H1966 0.950 . S
C1971 C1973 1.327 . S
C1971 C1977 1.429 . S
C1972 C1964 1.574 . S
C1972 H1967 0.949 . S
C1972 C1978 1.368 . S
C1973 C1957 1.349 . S
C1973 H1965 0.950 . S
C1973 C1971 1.327 . S
C1974 C1962 1.349 . S
C1974 H1968 0.950 . S
C1974 C1975 1.327 . S
C1975 H1969 0.950 . S
C1975 C1974 1.327 . S
C1975 C1979 1.429 . S
C1976 C1959 1.574 . S
C1976 H1970 0.949 . S
C1976 C1980 1.368 . S
C1977 C1958 1.429 . S
C1977 C1971 1.429 . S
C1977 C1978 1.523 . S
C1978 C1959 1.368 . S
C1978 C1972 1.368 . S
C1978 C1977 1.523 . S
C1979 C1963 1.429 . S
C1979 C1975 1.429 . S
C1979 C1980 1.523 . S
C1980 C1964 1.368 . S
C1980 C1976 1.368 . S
C1980 C1979 1.523 . S
H1981 C1956 0.950 . S
H1982 C1958 0.950 . S
H1983 C1959 0.949 . S
H1984 C1961 0.950 . S
H1985 C1963 0.950 . S
C1986 C1987 1.349 . S
C1986 C1988 1.327 . S
C1986 H2011 0.950 . S
C1987 C1986 1.349 . S
C1987 C2003 1.349 . S
C1988 C1986 1.327 . S
C1988 C2007 1.429 . S
C1988 H2012 0.950 . S
C1989 C2006 1.574 . S
C1989 C2008 1.368 . S
C1989 H2013 0.949 . S
H1990 C1994 0.949 . S
C1991 C1992 1.349 . S
C1991 C1993 1.327 . S
C1991 H2014 0.950 . S
C1992 C1991 1.349 . S
C1992 C2004 1.349 . S
C1993 C1991 1.327 . S
C1993 C2009 1.429 . S
C1993 H2015 0.950 . S
C1994 H1990 0.949 . S
C1994 C2002 1.574 . S
C1994 C2010 1.368 . S
H1995 C2003 0.950 . S
H1996 C2001 0.950 . S
H1997 C2002 0.949 . S
H1998 C2004 0.950 . S
H1999 C2005 0.950 . S
H2000 C2006 0.949 . S
C2001 H1996 0.950 . S
C2001 C2003 1.327 . S
C2001 C2007 1.429 . S
C2002 C1994 1.574 . S
C2002 H1997 0.949 . S
C2002 C2008 1.368 . S
C2003 C1987 1.349 . S
C2003 H1995 0.950 . S
C2003 C2001 1.327 . S
C2004 C1992 1.349 . S
C2004 H1998 0.950 . S
C2004 C2005 1.327 . S
C2005 H1999 0.950 . S
C2005 C2004 1.327 . S
C2005 C2009 1.429 . S
C2006 C1989 1.574 . S
C2006 H2000 0.949 . S
C2006 C2010 1.368 . S
C2007 C1988 1.429 . S
C2007 C2001 1.429 . S
C2007 C2008 1.523 . S
C2008 C1989 1.368 . S
C2008 C2002 1.368 . S
C2008 C2007 1.523 . S
C2009 C1993 1.429 . S
C2009 C2005 1.429 . S
C2009 C2010 1.523 . S
C2010 C1994 1.368 . S
C2010 C2006 1.368 . S
C2010 C2009 1.523 . S
H2011 C1986 0.950 . S
H2012 C1988 0.950 . S
H2013 C1989 0.949 . S
H2014 C1991 0.950 . S
H2015 C1993 0.950 . S
C2016 C2017 1.349 . S
C2016 C2018 1.327 . S
C2016 H2041 0.950 . S
C2017 C2016 1.349 . S
C2017 C2033 1.349 . S
C2018 C2016 1.327 . S
C2018 C2037 1.429 . S
C2018 H2042 0.950 . S
C2019 C2036 1.574 . S
C2019 C2038 1.368 . S
C2019 H2043 0.949 . S
H2020 C2024 0.949 . S
C2021 C2022 1.349 . S
C2021 C2023 1.327 . S
C2021 H2044 0.950 . S
C2022 C2021 1.349 . S
C2022 C2034 1.349 . S
C2023 C2021 1.327 . S
C2023 C2039 1.429 . S
C2023 H2045 0.950 . S
C2024 H2020 0.949 . S
C2024 C2032 1.574 . S
C2024 C2040 1.368 . S
H2025 C2033 0.950 . S
H2026 C2031 0.950 . S
H2027 C2032 0.949 . S
H2028 C2034 0.950 . S
H2029 C2035 0.950 . S
H2030 C2036 0.949 . S
C2031 H2026 0.950 . S
C2031 C2033 1.327 . S
C2031 C2037 1.429 . S
C2032 C2024 1.574 . S
C2032 H2027 0.949 . S
C2032 C2038 1.368 . S
C2033 C2017 1.349 . S
C2033 H2025 0.950 . S
C2033 C2031 1.327 . S
C2034 C2022 1.349 . S
C2034 H2028 0.950 . S
C2034 C2035 1.327 . S
C2035 H2029 0.950 . S
C2035 C2034 1.327 . S
C2035 C2039 1.429 . S
C2036 C2019 1.574 . S
C2036 H2030 0.949 . S
C2036 C2040 1.368 . S
C2037 C2018 1.429 . S
C2037 C2031 1.429 . S
C2037 C2038 1.523 . S
C2038 C2019 1.368 . S
C2038 C2032 1.368 . S
C2038 C2037 1.523 . S
C2039 C2023 1.429 . S
C2039 C2035 1.429 . S
C2039 C2040 1.523 . S
C2040 C2024 1.368 . S
C2040 C2036 1.368 . S
C2040 C2039 1.523 . S
H2041 C2016 0.950 . S
H2042 C2018 0.950 . S
H2043 C2019 0.949 . S
H2044 C2021 0.950 . S
H2045 C2023 0.950 . S
C2046 C2047 1.349 . S
C2046 C2048 1.327 . S
C2046 H2071 0.950 . S
C2047 C2046 1.349 . S
C2047 C2063 1.349 . S
C2048 C2046 1.327 . S
C2048 C2067 1.429 . S
C2048 H2072 0.950 . S
C2049 C2066 1.574 . S
C2049 C2068 1.368 . S
C2049 H2073 0.949 . S
H2050 C2054 0.949 . S
C2051 C2052 1.349 . S
C2051 C2053 1.327 . S
C2051 H2074 0.950 . S
C2052 C2051 1.349 . S
C2052 C2064 1.349 . S
C2053 C2051 1.327 . S
C2053 C2069 1.429 . S
C2053 H2075 0.950 . S
C2054 H2050 0.949 . S
C2054 C2062 1.574 . S
C2054 C2070 1.368 . S
H2055 C2063 0.950 . S
H2056 C2061 0.950 . S
H2057 C2062 0.949 . S
H2058 C2064 0.950 . S
H2059 C2065 0.950 . S
H2060 C2066 0.949 . S
C2061 H2056 0.950 . S
C2061 C2063 1.327 . S
C2061 C2067 1.429 . S
C2062 C2054 1.574 . S
C2062 H2057 0.949 . S
C2062 C2068 1.368 . S
C2063 C2047 1.349 . S
C2063 H2055 0.950 . S
C2063 C2061 1.327 . S
C2064 C2052 1.349 . S
C2064 H2058 0.950 . S
C2064 C2065 1.327 . S
C2065 H2059 0.950 . S
C2065 C2064 1.327 . S
C2065 C2069 1.429 . S
C2066 C2049 1.574 . S
C2066 H2060 0.949 . S
C2066 C2070 1.368 . S
C2067 C2048 1.429 . S
C2067 C2061 1.429 . S
C2067 C2068 1.523 . S
C2068 C2049 1.368 . S
C2068 C2062 1.368 . S
C2068 C2067 1.523 . S
C2069 C2053 1.429 . S
C2069 C2065 1.429 . S
C2069 C2070 1.523 . S
C2070 C2054 1.368 . S
C2070 C2066 1.368 . S
C2070 C2069 1.523 . S
H2071 C2046 0.950 . S
H2072 C2048 0.950 . S
H2073 C2049 0.949 . S
H2074 C2051 0.950 . S
H2075 C2053 0.950 . S
C2076 C2077 1.349 . S
C2076 C2078 1.327 . S
C2076 H2101 0.950 . S
C2077 C2076 1.349 . S
C2077 C2093 1.349 . S
C2078 C2076 1.327 . S
C2078 C2097 1.429 . S
C2078 H2102 0.950 . S
C2079 C2096 1.574 . S
C2079 C2098 1.368 . S
C2079 H2103 0.949 . S
H2080 C2084 0.949 . S
C2081 C2082 1.349 . S
C2081 C2083 1.327 . S
C2081 H2104 0.950 . S
C2082 C2081 1.349 . S
C2082 C2094 1.349 . S
C2083 C2081 1.327 . S
C2083 C2099 1.429 . S
C2083 H2105 0.950 . S
C2084 H2080 0.949 . S
C2084 C2092 1.574 . S
C2084 C2100 1.368 . S
H2085 C2093 0.950 . S
H2086 C2091 0.950 . S
H2087 C2092 0.949 . S
H2088 C2094 0.950 . S
H2089 C2095 0.950 . S
H2090 C2096 0.949 . S
C2091 H2086 0.950 . S
C2091 C2093 1.327 . S
C2091 C2097 1.429 . S
C2092 C2084 1.574 . S
C2092 H2087 0.949 . S
C2092 C2098 1.368 . S
C2093 C2077 1.349 . S
C2093 H2085 0.950 . S
C2093 C2091 1.327 . S
C2094 C2082 1.349 . S
C2094 H2088 0.950 . S
C2094 C2095 1.327 . S
C2095 H2089 0.950 . S
C2095 C2094 1.327 . S
C2095 C2099 1.429 . S
C2096 C2079 1.574 . S
C2096 H2090 0.949 . S
C2096 C2100 1.368 . S
C2097 C2078 1.429 . S
C2097 C2091 1.429 . S
C2097 C2098 1.523 . S
C2098 C2079 1.368 . S
C2098 C2092 1.368 . S
C2098 C2097 1.523 . S
C2099 C2083 1.429 . S
C2099 C2095 1.429 . S
C2099 C2100 1.523 . S
C2100 C2084 1.368 . S
C2100 C2096 1.368 . S
C2100 C2099 1.523 . S
H2101 C2076 0.950 . S
H2102 C2078 0.950 . S
H2103 C2079 0.949 . S
H2104 C2081 0.950 . S
H2105 C2083 0.950 . S
C2106 C2107 1.349 . S
C2106 C2108 1.327 . S
C2106 H2131 0.950 . S
C2107 C2106 1.349 . S
C2107 C2123 1.349 . S
C2108 C2106 1.327 . S
C2108 C2127 1.429 . S
C2108 H2132 0.950 . S
C2109 C2126 1.574 . S
C2109 C2128 1.368 . S
C2109 H2133 0.949 . S
H2110 C2114 0.949 . S
C2111 C2112 1.349 . S
C2111 C2113 1.327 . S
C2111 H2134 0.950 . S
C2112 C2111 1.349 . S
C2112 C2124 1.349 . S
C2113 C2111 1.327 . S
C2113 C2129 1.429 . S
C2113 H2135 0.950 . S
C2114 H2110 0.949 . S
C2114 C2122 1.574 . S
C2114 C2130 1.368 . S
H2115 C2123 0.950 . S
H2116 C2121 0.950 . S
H2117 C2122 0.949 . S
H2118 C2124 0.950 . S
H2119 C2125 0.950 . S
H2120 C2126 0.949 . S
C2121 H2116 0.950 . S
C2121 C2123 1.327 . S
C2121 C2127 1.429 . S
C2122 C2114 1.574 . S
C2122 H2117 0.949 . S
C2122 C2128 1.368 . S
C2123 C2107 1.349 . S
C2123 H2115 0.950 . S
C2123 C2121 1.327 . S
C2124 C2112 1.349 . S
C2124 H2118 0.950 . S
C2124 C2125 1.327 . S
C2125 H2119 0.950 . S
C2125 C2124 1.327 . S
C2125 C2129 1.429 . S
C2126 C2109 1.574 . S
C2126 H2120 0.949 . S
C2126 C2130 1.368 . S
C2127 C2108 1.429 . S
C2127 C2121 1.429 . S
C2127 C2128 1.523 . S
C2128 C2109 1.368 . S
C2128 C2122 1.368 . S
C2128 C2127 1.523 . S
C2129 C2113 1.429 . S
C2129 C2125 1.429 . S
C2129 C2130 1.523 . S
C2130 C2114 1.368 . S
C2130 C2126 1.368 . S
C2130 C2129 1.523 . S
H2131 C2106 0.950 . S
H2132 C2108 0.950 . S
H2133 C2109 0.949 . S
H2134 C2111 0.950 . S
H2135 C2113 0.950 . S
C2136 C2137 1.349 . S
C2136 C2138 1.327 . S
C2136 H2161 0.950 . S
C2137 C2136 1.349 . S
C2137 C2153 1.349 . S
C2138 C2136 1.327 . S
C2138 C2157 1.429 . S
C2138 H2162 0.950 . S
C2139 C2156 1.574 . S
C2139 C2158 1.368 . S
C2139 H2163 0.949 . S
H2140 C2144 0.949 . S
C2141 C2142 1.349 . S
C2141 C2143 1.327 . S
C2141 H2164 0.950 . S
C2142 C2141 1.349 . S
C2142 C2154 1.349 . S
C2143 C2141 1.327 . S
C2143 C2159 1.429 . S
C2143 H2165 0.950 . S
C2144 H2140 0.949 . S
C2144 C2152 1.574 . S
C2144 C2160 1.368 . S
H2145 C2153 0.950 . S
H2146 C2151 0.950 . S
H2147 C2152 0.949 . S
H2148 C2154 0.950 . S
H2149 C2155 0.950 . S
H2150 C2156 0.949 . S
C2151 H2146 0.950 . S
C2151 C2153 1.327 . S
C2151 C2157 1.429 . S
C2152 C2144 1.574 . S
C2152 H2147 0.949 . S
C2152 C2158 1.368 . S
C2153 C2137 1.349 . S
C2153 H2145 0.950 . S
C2153 C2151 1.327 . S
C2154 C2142 1.349 . S
C2154 H2148 0.950 . S
C2154 C2155 1.327 . S
C2155 H2149 0.950 . S
C2155 C2154 1.327 . S
C2155 C2159 1.429 . S
C2156 C2139 1.574 . S
C2156 H2150 0.949 . S
C2156 C2160 1.368 . S
C2157 C2138 1.429 . S
C2157 C2151 1.429 . S
C2157 C2158 1.523 . S
C2158 C2139 1.368 . S
C2158 C2152 1.368 . S
C2158 C2157 1.523 . S
C2159 C2143 1.429 . S
C2159 C2155 1.429 . S
C2159 C2160 1.523 . S
C2160 C2144 1.368 . S
C2160 C2156 1.368 . S
C2160 C2159 1.523 . S
H2161 C2136 0.950 . S
H2162 C2138 0.950 . S
H2163 C2139 0.949 . S
H2164 C2141 0.950 . S
H2165 C2143 0.950 . S
C2166 C2167 1.349 . S
C2166 C2168 1.327 . S
C2166 H2191 0.950 . S
C2167 C2166 1.349 . S
C2167 C2183 1.349 . S
C2168 C2166 1.327 . S
C2168 C2187 1.429 . S
C2168 H2192 0.950 . S
C2169 C2186 1.574 . S
C2169 C2188 1.368 . S
C2169 H2193 0.949 . S
H2170 C2174 0.949 . S
C2171 C2172 1.349 . S
C2171 C2173 1.327 . S
C2171 H2194 0.950 . S
C2172 C2171 1.349 . S
C2172 C2184 1.349 . S
C2173 C2171 1.327 . S
C2173 C2189 1.429 . S
C2173 H2195 0.950 . S
C2174 H2170 0.949 . S
C2174 C2182 1.574 . S
C2174 C2190 1.368 . S
H2175 C2183 0.950 . S
H2176 C2181 0.950 . S
H2177 C2182 0.949 . S
H2178 C2184 0.950 . S
H2179 C2185 0.950 . S
H2180 C2186 0.949 . S
C2181 H2176 0.950 . S
C2181 C2183 1.327 . S
C2181 C2187 1.429 . S
C2182 C2174 1.574 . S
C2182 H2177 0.949 . S
C2182 C2188 1.368 . S
C2183 C2167 1.349 . S
C2183 H2175 0.950 . S
C2183 C2181 1.327 . S
C2184 C2172 1.349 . S
C2184 H2178 0.950 . S
C2184 C2185 1.327 . S
C2185 H2179 0.950 . S
C2185 C2184 1.327 . S
C2185 C2189 1.429 . S
C2186 C2169 1.574 . S
C2186 H2180 0.949 . S
C2186 C2190 1.368 . S
C2187 C2168 1.429 . S
C2187 C2181 1.429 . S
C2187 C2188 1.523 . S
C2188 C2169 1.368 . S
C2188 C2182 1.368 . S
C2188 C2187 1.523 . S
C2189 C2173 1.429 . S
C2189 C2185 1.429 . S
C2189 C2190 1.523 . S
C2190 C2174 1.368 . S
C2190 C2186 1.368 . S
C2190 C2189 1.523 . S
H2191 C2166 0.950 . S
H2192 C2168 0.950 . S
H2193 C2169 0.949 . S
H2194 C2171 0.950 . S
H2195 C2173 0.950 . S
C2196 C2197 1.349 . S
C2196 C2198 1.327 . S
C2196 H2221 0.950 1_565 S
C2197 C2196 1.349 . S
C2197 C2213 1.349 . S
C2198 C2196 1.327 . S
C2198 C2217 1.429 . S
C2198 H2222 0.950 . S
C2199 C2216 1.574 . S
C2199 C2218 1.368 . S
C2199 H2223 0.949 . S
H2200 C2204 0.949 . S
C2201 C2202 1.349 . S
C2201 C2203 1.327 . S
C2201 H2224 0.950 . S
C2202 C2201 1.349 . S
C2202 C2214 1.349 . S
C2203 C2201 1.327 . S
C2203 C2219 1.429 . S
C2203 H2225 0.950 . S
C2204 H2200 0.949 . S
C2204 C2212 1.574 . S
C2204 C2220 1.368 . S
H2205 C2213 0.950 . S
H2206 C2211 0.950 . S
H2207 C2212 0.949 . S
H2208 C2214 0.950 . S
H2209 C2215 0.950 . S
H2210 C2216 0.949 . S
C2211 H2206 0.950 . S
C2211 C2213 1.327 . S
C2211 C2217 1.429 . S
C2212 C2204 1.574 . S
C2212 H2207 0.949 . S
C2212 C2218 1.368 . S
C2213 C2197 1.349 . S
C2213 H2205 0.950 . S
C2213 C2211 1.327 . S
C2214 C2202 1.349 . S
C2214 H2208 0.950 . S
C2214 C2215 1.327 . S
C2215 H2209 0.950 . S
C2215 C2214 1.327 . S
C2215 C2219 1.429 . S
C2216 C2199 1.574 . S
C2216 H2210 0.949 . S
C2216 C2220 1.368 . S
C2217 C2198 1.429 . S
C2217 C2211 1.429 . S
C2217 C2218 1.523 . S
C2218 C2199 1.368 . S
C2218 C2212 1.368 . S
C2218 C2217 1.523 . S
C2219 C2203 1.429 . S
C2219 C2215 1.429 . S
C2219 C2220 1.523 . S
C2220 C2204 1.368 . S
C2220 C2216 1.368 . S
C2220 C2219 1.523 . S
H2221 C2196 0.950 1_545 S
H2222 C2198 0.950 . S
H2223 C2199 0.949 . S
H2224 C2201 0.950 . S
H2225 C2203 0.950 . S
C2226 C2227 1.349 . S
C2226 C2228 1.327 . S
C2226 H2251 0.950 . S
C2227 C2226 1.349 . S
C2227 C2243 1.349 . S
C2228 C2226 1.327 . S
C2228 C2247 1.429 . S
C2228 H2252 0.950 . S
C2229 C2246 1.574 . S
C2229 C2248 1.368 . S
C2229 H2253 0.949 . S
H2230 C2234 0.949 . S
C2231 C2232 1.349 . S
C2231 C2233 1.327 . S
C2231 H2254 0.950 . S
C2232 C2231 1.349 . S
C2232 C2244 1.349 . S
C2233 C2231 1.327 . S
C2233 C2249 1.429 . S
C2233 H2255 0.950 . S
C2234 H2230 0.949 . S
C2234 C2242 1.574 . S
C2234 C2250 1.368 . S
H2235 C2243 0.950 . S
H2236 C2241 0.950 . S
H2237 C2242 0.949 . S
H2238 C2244 0.950 . S
H2239 C2245 0.950 . S
H2240 C2246 0.949 . S
C2241 H2236 0.950 . S
C2241 C2243 1.327 . S
C2241 C2247 1.429 . S
C2242 C2234 1.574 . S
C2242 H2237 0.949 . S
C2242 C2248 1.368 . S
C2243 C2227 1.349 . S
C2243 H2235 0.950 . S
C2243 C2241 1.327 . S
C2244 C2232 1.349 . S
C2244 H2238 0.950 . S
C2244 C2245 1.327 . S
C2245 H2239 0.950 . S
C2245 C2244 1.327 . S
C2245 C2249 1.429 . S
C2246 C2229 1.574 . S
C2246 H2240 0.949 . S
C2246 C2250 1.368 . S
C2247 C2228 1.429 . S
C2247 C2241 1.429 . S
C2247 C2248 1.523 . S
C2248 C2229 1.368 . S
C2248 C2242 1.368 . S
C2248 C2247 1.523 . S
C2249 C2233 1.429 . S
C2249 C2245 1.429 . S
C2249 C2250 1.523 . S
C2250 C2234 1.368 . S
C2250 C2246 1.368 . S
C2250 C2249 1.523 . S
H2251 C2226 0.950 . S
H2252 C2228 0.950 . S
H2253 C2229 0.949 . S
H2254 C2231 0.950 . S
H2255 C2233 0.950 . S
C2256 C2257 1.349 . S
C2256 C2258 1.327 . S
C2256 H2281 0.950 . S
C2257 C2256 1.349 . S
C2257 C2273 1.349 . S
C2258 C2256 1.327 . S
C2258 C2277 1.429 . S
C2258 H2282 0.950 . S
C2259 C2276 1.574 . S
C2259 C2278 1.368 . S
C2259 H2283 0.949 . S
H2260 C2264 0.949 . S
C2261 C2262 1.349 . S
C2261 C2263 1.327 . S
C2261 H2284 0.950 . S
C2262 C2261 1.349 . S
C2262 C2274 1.349 . S
C2263 C2261 1.327 . S
C2263 C2279 1.429 . S
C2263 H2285 0.950 . S
C2264 H2260 0.949 . S
C2264 C2272 1.574 . S
C2264 C2280 1.368 . S
H2265 C2273 0.950 . S
H2266 C2271 0.950 . S
H2267 C2272 0.949 . S
H2268 C2274 0.950 . S
H2269 C2275 0.950 . S
H2270 C2276 0.949 . S
C2271 H2266 0.950 . S
C2271 C2273 1.327 . S
C2271 C2277 1.429 . S
C2272 C2264 1.574 . S
C2272 H2267 0.949 . S
C2272 C2278 1.368 . S
C2273 C2257 1.349 . S
C2273 H2265 0.950 . S
C2273 C2271 1.327 . S
C2274 C2262 1.349 . S
C2274 H2268 0.950 . S
C2274 C2275 1.327 . S
C2275 H2269 0.950 . S
C2275 C2274 1.327 . S
C2275 C2279 1.429 . S
C2276 C2259 1.574 . S
C2276 H2270 0.949 . S
C2276 C2280 1.368 . S
C2277 C2258 1.429 . S
C2277 C2271 1.429 . S
C2277 C2278 1.523 . S
C2278 C2259 1.368 . S
C2278 C2272 1.368 . S
C2278 C2277 1.523 . S
C2279 C2263 1.429 . S
C2279 C2275 1.429 . S
C2279 C2280 1.523 . S
C2280 C2264 1.368 . S
C2280 C2276 1.368 . S
C2280 C2279 1.523 . S
H2281 C2256 0.950 . S
H2282 C2258 0.950 . S
H2283 C2259 0.949 . S
H2284 C2261 0.950 . S
H2285 C2263 0.950 . S
C2286 C2287 1.349 . S
C2286 C2288 1.327 1_554 S
C2286 H2311 0.950 . S
C2287 C2286 1.349 . S
C2287 C2303 1.349 . S
C2288 C2286 1.327 1_556 S
C2288 C2307 1.429 . S
C2288 H2312 0.950 . S
C2289 C2306 1.574 . S
C2289 C2308 1.368 . S
C2289 H2313 0.949 . S
H2290 C2294 0.949 . S
C2291 C2292 1.349 . S
C2291 C2293 1.327 . S
C2291 H2314 0.964 . S
C2292 C2291 1.349 . S
C2292 C2304 1.349 . S
C2293 C2291 1.327 . S
C2293 C2309 1.429 . S
C2293 H2315 0.950 . S
C2294 H2290 0.949 . S
C2294 C2302 1.574 . S
C2294 C2310 1.368 . S
H2295 C2303 0.950 . S
H2296 C2301 0.950 . S
H2297 C2302 0.949 . S
H2298 C2304 0.950 . S
H2299 C2305 0.950 . S
H2300 C2306 0.949 . S
C2301 H2296 0.950 . S
C2301 C2303 1.327 1_556 S
C2301 C2307 1.429 . S
C2302 C2294 1.574 . S
C2302 H2297 0.949 . S
C2302 C2308 1.368 . S
C2303 C2287 1.349 . S
C2303 H2295 0.950 . S
C2303 C2301 1.327 1_554 S
C2304 C2292 1.349 . S
C2304 H2298 0.950 . S
C2304 C2305 1.327 . S
C2305 H2299 0.950 . S
C2305 C2304 1.327 . S
C2305 C2309 1.429 . S
C2306 C2289 1.574 . S
C2306 H2300 0.949 . S
C2306 C2310 1.368 . S
C2307 C2288 1.429 . S
C2307 C2301 1.429 . S
C2307 C2308 1.523 . S
C2308 C2289 1.368 . S
C2308 C2302 1.368 . S
C2308 C2307 1.523 . S
C2309 C2293 1.429 . S
C2309 C2305 1.429 . S
C2309 C2310 1.523 . S
C2310 C2294 1.368 . S
C2310 C2306 1.368 . S
C2310 C2309 1.523 . S
H2311 C2286 0.950 . S
H2312 C2288 0.950 . S
H2313 C2289 0.949 . S
H2314 C2291 0.964 . S
H2315 C2293 0.950 . S
C2316 C2317 1.349 . S
C2316 C2318 1.327 1_554 S
C2316 H2341 0.950 . S
C2317 C2316 1.349 . S
C2317 C2333 1.349 . S
C2318 C2316 1.327 1_556 S
C2318 C2337 1.429 . S
C2318 H2342 0.950 . S
C2319 C2336 1.574 . S
C2319 C2338 1.368 . S
C2319 H2343 0.949 . S
H2320 C2324 0.949 . S
C2321 C2322 1.349 . S
C2321 C2323 1.327 . S
C2321 H2344 0.950 . S
C2322 C2321 1.349 . S
C2322 C2334 1.349 . S
C2323 C2321 1.327 . S
C2323 C2339 1.429 . S
C2323 H2345 0.950 . S
C2324 H2320 0.949 . S
C2324 C2332 1.574 . S
C2324 C2340 1.368 . S
H2325 C2333 0.950 . S
H2326 C2331 0.950 . S
H2327 C2332 0.949 . S
H2328 C2334 0.950 . S
H2329 C2335 0.950 . S
H2330 C2336 0.949 . S
C2331 H2326 0.950 . S
C2331 C2333 1.327 1_556 S
C2331 C2337 1.429 . S
C2332 C2324 1.574 . S
C2332 H2327 0.949 . S
C2332 C2338 1.368 . S
C2333 C2317 1.349 . S
C2333 H2325 0.950 . S
C2333 C2331 1.327 1_554 S
C2334 C2322 1.349 . S
C2334 H2328 0.950 . S
C2334 C2335 1.327 . S
C2335 H2329 0.950 . S
C2335 C2334 1.327 . S
C2335 C2339 1.429 . S
C2336 C2319 1.574 . S
C2336 H2330 0.949 . S
C2336 C2340 1.368 . S
C2337 C2318 1.429 . S
C2337 C2331 1.429 . S
C2337 C2338 1.523 . S
C2338 C2319 1.368 . S
C2338 C2332 1.368 . S
C2338 C2337 1.523 . S
C2339 C2323 1.429 . S
C2339 C2335 1.429 . S
C2339 C2340 1.523 . S
C2340 C2324 1.368 . S
C2340 C2336 1.368 . S
C2340 C2339 1.523 . S
H2341 C2316 0.950 . S
H2342 C2318 0.950 . S
H2343 C2319 0.949 . S
H2344 C2321 0.950 . S
H2345 C2323 0.950 . S
C2346 C2347 1.349 . S
C2346 C2348 1.327 . S
C2346 H2371 0.950 . S
C2347 C2346 1.349 . S
C2347 C2363 1.349 . S
C2348 C2346 1.327 . S
C2348 C2367 1.429 . S
C2348 H2372 0.950 . S
C2349 C2366 1.574 . S
C2349 C2368 1.368 . S
C2349 H2373 0.949 . S
H2350 C2354 0.949 . S
C2351 C2352 1.349 . S
C2351 C2353 1.327 1_554 S
C2351 H2374 0.950 . S
C2352 C2351 1.349 . S
C2352 C2364 1.349 . S
C2353 C2351 1.327 1_556 S
C2353 C2369 1.429 . S
C2353 H2375 0.950 . S
C2354 H2350 0.949 . S
C2354 C2362 1.574 . S
C2354 C2370 1.368 . S
H2355 C2363 0.950 . S
H2356 C2361 0.950 . S
H2357 C2362 0.949 . S
H2358 C2364 0.950 . S
H2359 C2365 0.950 . S
H2360 C2366 0.949 . S
C2361 H2356 0.950 . S
C2361 C2363 1.327 . S
C2361 C2367 1.429 . S
C2362 C2354 1.574 . S
C2362 H2357 0.949 . S
C2362 C2368 1.368 . S
C2363 C2347 1.349 . S
C2363 H2355 0.950 . S
C2363 C2361 1.327 . S
C2364 C2352 1.349 . S
C2364 H2358 0.950 . S
C2364 C2365 1.327 . S
C2365 H2359 0.950 . S
C2365 C2364 1.327 . S
C2365 C2369 1.429 1_554 S
C2366 C2349 1.574 . S
C2366 H2360 0.949 . S
C2366 C2370 1.368 . S
C2367 C2348 1.429 . S
C2367 C2361 1.429 . S
C2367 C2368 1.523 . S
C2368 C2349 1.368 . S
C2368 C2362 1.368 . S
C2368 C2367 1.523 . S
C2369 C2353 1.429 . S
C2369 C2365 1.429 1_556 S
C2369 C2370 1.523 . S
C2370 C2354 1.368 . S
C2370 C2366 1.368 . S
C2370 C2369 1.523 . S
H2371 C2346 0.950 . S
H2372 C2348 0.950 . S
H2373 C2349 0.949 . S
H2374 C2351 0.950 . S
H2375 C2353 0.950 . S
C2376 C2377 1.349 . S
C2376 C2378 1.327 . S
C2376 H2401 0.950 . S
C2377 C2376 1.349 . S
C2377 C2393 1.349 . S
C2378 C2376 1.327 . S
C2378 C2397 1.429 . S
C2378 H2402 0.950 . S
C2379 C2396 1.574 . S
C2379 C2398 1.368 . S
C2379 H2403 0.949 . S
H2380 C2384 0.949 . S
C2381 C2382 1.349 . S
C2381 C2383 1.327 . S
C2381 H2404 0.950 . S
C2382 C2381 1.349 . S
C2382 C2394 1.349 . S
C2383 C2381 1.327 . S
C2383 C2399 1.429 . S
C2383 H2405 0.950 . S
C2384 H2380 0.949 . S
C2384 C2392 1.574 . S
C2384 C2400 1.368 . S
H2385 C2393 0.950 . S
H2386 C2391 0.950 . S
H2387 C2392 0.949 . S
H2388 C2394 0.950 . S
H2389 C2395 0.950 . S
H2390 C2396 0.949 . S
C2391 H2386 0.950 . S
C2391 C2393 1.327 . S
C2391 C2397 1.429 . S
C2392 C2384 1.574 . S
C2392 H2387 0.949 . S
C2392 C2398 1.368 . S
C2393 C2377 1.349 . S
C2393 H2385 0.950 . S
C2393 C2391 1.327 . S
C2394 C2382 1.349 . S
C2394 H2388 0.950 . S
C2394 C2395 1.327 . S
C2395 H2389 0.950 . S
C2395 C2394 1.327 . S
C2395 C2399 1.429 . S
C2396 C2379 1.574 . S
C2396 H2390 0.949 . S
C2396 C2400 1.368 . S
C2397 C2378 1.429 . S
C2397 C2391 1.429 . S
C2397 C2398 1.523 . S
C2398 C2379 1.368 . S
C2398 C2392 1.368 . S
C2398 C2397 1.523 . S
C2399 C2383 1.429 . S
C2399 C2395 1.429 . S
C2399 C2400 1.523 . S
C2400 C2384 1.368 . S
C2400 C2396 1.368 . S
C2400 C2399 1.523 . S
H2401 C2376 0.950 . S
H2402 C2378 0.950 . S
H2403 C2379 0.949 . S
H2404 C2381 0.950 . S
H2405 C2383 0.950 . S
C2406 C2407 1.349 . S
C2406 C2408 1.327 . S
C2406 H2431 0.950 . S
C2407 C2406 1.349 . S
C2407 C2423 1.349 . S
C2408 C2406 1.327 . S
C2408 C2427 1.429 . S
C2408 H2432 0.950 . S
C2409 C2426 1.574 . S
C2409 C2428 1.368 . S
C2409 H2433 0.949 . S
H2410 C2414 0.949 . S
C2411 C2412 1.349 . S
C2411 C2413 1.327 . S
C2411 H2434 0.950 . S
C2412 C2411 1.349 . S
C2412 C2424 1.349 . S
C2413 C2411 1.327 . S
C2413 C2429 1.429 . S
C2413 H2435 0.950 . S
C2414 H2410 0.949 . S
C2414 C2422 1.574 . S
C2414 C2430 1.368 . S
H2415 C2423 0.950 . S
H2416 C2421 0.950 . S
H2417 C2422 0.949 . S
H2418 C2424 0.950 . S
H2419 C2425 0.950 . S
H2420 C2426 0.949 . S
C2421 H2416 0.950 . S
C2421 C2423 1.327 . S
C2421 C2427 1.429 . S
C2422 C2414 1.574 . S
C2422 H2417 0.949 . S
C2422 C2428 1.368 . S
C2423 C2407 1.349 . S
C2423 H2415 0.950 . S
C2423 C2421 1.327 . S
C2424 C2412 1.349 . S
C2424 H2418 0.950 . S
C2424 C2425 1.327 . S
C2425 H2419 0.950 . S
C2425 C2424 1.327 . S
C2425 C2429 1.429 . S
C2426 C2409 1.574 . S
C2426 H2420 0.949 . S
C2426 C2430 1.368 . S
C2427 C2408 1.429 . S
C2427 C2421 1.429 . S
C2427 C2428 1.523 . S
C2428 C2409 1.368 . S
C2428 C2422 1.368 . S
C2428 C2427 1.523 . S
C2429 C2413 1.429 . S
C2429 C2425 1.429 . S
C2429 C2430 1.523 . S
C2430 C2414 1.368 . S
C2430 C2426 1.368 . S
C2430 C2429 1.523 . S
H2431 C2406 0.950 . S
H2432 C2408 0.950 . S
H2433 C2409 0.949 . S
H2434 C2411 0.950 . S
H2435 C2413 0.950 . S
C2436 C2437 1.349 . S
C2436 C2438 1.327 . S
C2436 H2461 0.950 . S
C2437 C2436 1.349 . S
C2437 C2453 1.349 . S
C2438 C2436 1.327 . S
C2438 C2457 1.429 . S
C2438 H2462 0.950 . S
C2439 C2456 1.574 . S
C2439 C2458 1.368 . S
C2439 H2463 0.949 . S
H2440 C2444 0.949 . S
C2441 C2442 1.349 . S
C2441 C2443 1.327 . S
C2441 H2464 0.950 . S
C2442 C2441 1.349 . S
C2442 C2454 1.349 . S
C2443 C2441 1.327 . S
C2443 C2459 1.429 . S
C2443 H2465 0.950 . S
C2444 H2440 0.949 . S
C2444 C2452 1.574 . S
C2444 C2460 1.368 . S
H2445 C2453 0.950 . S
H2446 C2451 0.950 . S
H2447 C2452 0.949 . S
H2448 C2454 0.950 . S
H2449 C2455 0.950 . S
H2450 C2456 0.949 . S
C2451 H2446 0.950 . S
C2451 C2453 1.327 . S
C2451 C2457 1.429 . S
C2452 C2444 1.574 . S
C2452 H2447 0.949 . S
C2452 C2458 1.368 . S
C2453 C2437 1.349 . S
C2453 H2445 0.950 . S
C2453 C2451 1.327 . S
C2454 C2442 1.349 . S
C2454 H2448 0.950 . S
C2454 C2455 1.327 . S
C2455 H2449 0.950 . S
C2455 C2454 1.327 . S
C2455 C2459 1.429 . S
C2456 C2439 1.574 . S
C2456 H2450 0.949 . S
C2456 C2460 1.368 . S
C2457 C2438 1.429 . S
C2457 C2451 1.429 . S
C2457 C2458 1.523 . S
C2458 C2439 1.368 . S
C2458 C2452 1.368 . S
C2458 C2457 1.523 . S
C2459 C2443 1.429 . S
C2459 C2455 1.429 . S
C2459 C2460 1.523 . S
C2460 C2444 1.368 . S
C2460 C2456 1.368 . S
C2460 C2459 1.523 . S
H2461 C2436 0.950 . S
H2462 C2438 0.950 . S
H2463 C2439 0.949 . S
H2464 C2441 0.950 . S
H2465 C2443 0.950 . S
C2466 C2467 1.349 . S
C2466 C2468 1.327 . S
C2466 H2491 0.950 . S
C2467 C2466 1.349 . S
C2467 C2483 1.349 . S
C2468 C2466 1.327 . S
C2468 C2487 1.429 . S
C2468 H2492 0.950 . S
C2469 C2486 1.574 . S
C2469 C2488 1.368 . S
C2469 H2493 0.949 . S
H2470 C2474 0.949 . S
C2471 C2472 1.349 . S
C2471 C2473 1.327 . S
C2471 H2494 0.950 . S
C2472 C2471 1.349 . S
C2472 C2484 1.349 1_556 S
C2473 C2471 1.327 . S
C2473 C2489 1.429 1_556 S
C2473 H2495 0.950 . S
C2474 H2470 0.949 . S
C2474 C2482 1.574 . S
C2474 C2490 1.368 . S
H2475 C2483 0.950 . S
H2476 C2481 0.950 . S
H2477 C2482 0.949 . S
H2478 C2484 0.950 . S
H2479 C2485 0.950 . S
H2480 C2486 0.949 1_556 S
C2481 H2476 0.950 . S
C2481 C2483 1.327 . S
C2481 C2487 1.429 . S
C2482 C2474 1.574 . S
C2482 H2477 0.949 . S
C2482 C2488 1.368 . S
C2483 C2467 1.349 . S
C2483 H2475 0.950 . S
C2483 C2481 1.327 . S
C2484 C2472 1.349 1_554 S
C2484 H2478 0.950 . S
C2484 C2485 1.327 . S
C2485 H2479 0.950 . S
C2485 C2484 1.327 . S
C2485 C2489 1.429 . S
C2486 C2469 1.574 . S
C2486 H2480 0.949 1_554 S
C2486 C2490 1.368 . S
C2487 C2468 1.429 . S
C2487 C2481 1.429 . S
C2487 C2488 1.523 . S
C2488 C2469 1.368 . S
C2488 C2482 1.368 . S
C2488 C2487 1.523 . S
C2489 C2473 1.429 1_554 S
C2489 C2485 1.429 . S
C2489 C2490 1.523 . S
C2490 C2474 1.368 . S
C2490 C2486 1.368 . S
C2490 C2489 1.523 . S
H2491 C2466 0.950 . S
H2492 C2468 0.950 . S
H2493 C2469 0.949 . S
H2494 C2471 0.950 . S
H2495 C2473 0.950 . S
C2496 C2497 1.349 1_554 S
C2496 C2498 1.327 . S
C2496 H2521 0.950 . S
C2497 C2496 1.349 1_556 S
C2497 C2513 1.349 . S
C2498 C2496 1.327 . S
C2498 C2517 1.429 . S
C2498 H2522 0.950 . S
C2499 C2516 1.574 . S
C2499 C2518 1.368 . S
C2499 H2523 0.949 . S
H2500 C2504 0.949 . S
C2501 C2502 1.349 . S
C2501 C2503 1.327 . S
C2501 H2524 0.950 . S
C2502 C2501 1.349 . S
C2502 C2514 1.349 . S
C2503 C2501 1.327 . S
C2503 C2519 1.429 . S
C2503 H2525 0.950 . S
C2504 H2500 0.949 . S
C2504 C2512 1.574 . S
C2504 C2520 1.368 . S
H2505 C2513 0.950 . S
H2506 C2511 0.950 . S
H2507 C2512 0.949 . S
H2508 C2514 0.950 . S
H2509 C2515 0.950 . S
H2510 C2516 0.949 . S
C2511 H2506 0.950 . S
C2511 C2513 1.327 . S
C2511 C2517 1.429 1_556 S
C2512 C2504 1.574 . S
C2512 H2507 0.949 . S
C2512 C2518 1.368 . S
C2513 C2497 1.349 . S
C2513 H2505 0.950 . S
C2513 C2511 1.327 . S
C2514 C2502 1.349 . S
C2514 H2508 0.950 . S
C2514 C2515 1.327 . S
C2515 H2509 0.950 . S
C2515 C2514 1.327 . S
C2515 C2519 1.429 . S
C2516 C2499 1.574 . S
C2516 H2510 0.949 . S
C2516 C2520 1.368 . S
C2517 C2498 1.429 . S
C2517 C2511 1.429 1_554 S
C2517 C2518 1.523 . S
C2518 C2499 1.368 . S
C2518 C2512 1.368 . S
C2518 C2517 1.523 . S
C2519 C2503 1.429 . S
C2519 C2515 1.429 . S
C2519 C2520 1.523 . S
C2520 C2504 1.368 . S
C2520 C2516 1.368 . S
C2520 C2519 1.523 . S
H2521 C2496 0.950 . S
H2522 C2498 0.950 . S
H2523 C2499 0.949 . S
H2524 C2501 0.950 . S
H2525 C2503 0.950 . S
C2526 C2527 1.349 . S
C2526 C2528 1.327 1_556 S
C2526 H2551 0.950 . S
C2527 C2526 1.349 . S
C2527 C2543 1.349 . S
C2528 C2526 1.327 1_554 S
C2528 C2547 1.429 . S
C2528 H2552 0.950 . S
C2529 C2546 1.574 . S
C2529 C2548 1.368 . S
C2529 H2553 0.949 . S
H2530 C2534 0.949 . S
C2531 C2532 1.349 . S
C2531 C2533 1.327 . S
C2531 H2554 0.950 1_565 S
C2532 C2531 1.349 . S
C2532 C2544 1.349 . S
C2533 C2531 1.327 . S
C2533 C2549 1.429 . S
C2533 H2555 0.950 . S
C2534 H2530 0.949 . S
C2534 C2542 1.574 . S
C2534 C2550 1.368 . S
H2535 C2543 0.950 . S
H2536 C2541 0.950 . S
H2537 C2542 0.949 . S
H2538 C2544 0.950 . S
H2539 C2545 0.950 . S
H2540 C2546 0.949 . S
C2541 H2536 0.950 . S
C2541 C2543 1.327 1_554 S
C2541 C2547 1.429 . S
C2542 C2534 1.574 . S
C2542 H2537 0.949 . S
C2542 C2548 1.368 . S
C2543 C2527 1.349 . S
C2543 H2535 0.950 . S
C2543 C2541 1.327 1_556 S
C2544 C2532 1.349 . S
C2544 H2538 0.950 . S
C2544 C2545 1.327 . S
C2545 H2539 0.950 . S
C2545 C2544 1.327 . S
C2545 C2549 1.429 . S
C2546 C2529 1.574 . S
C2546 H2540 0.949 . S
C2546 C2550 1.368 . S
C2547 C2528 1.429 . S
C2547 C2541 1.429 . S
C2547 C2548 1.523 . S
C2548 C2529 1.368 . S
C2548 C2542 1.368 . S
C2548 C2547 1.523 . S
C2549 C2533 1.429 . S
C2549 C2545 1.429 . S
C2549 C2550 1.523 . S
C2550 C2534 1.368 . S
C2550 C2546 1.368 . S
C2550 C2549 1.523 . S
H2551 C2526 0.950 . S
H2552 C2528 0.950 . S
H2553 C2529 0.949 . S
H2554 C2531 0.950 1_545 S
H2555 C2533 0.950 . S
C2556 C2557 1.349 . S
C2556 C2558 1.327 . S
C2556 H2581 0.950 . S
C2557 C2556 1.349 . S
C2557 C2573 1.349 . S
C2558 C2556 1.327 . S
C2558 C2577 1.429 . S
C2558 H2582 0.950 . S
C2559 C2576 1.574 . S
C2559 C2578 1.368 . S
C2559 H2583 0.949 . S
H2560 C2564 0.949 . S
C2561 C2562 1.349 . S
C2561 C2563 1.327 . S
C2561 H2584 0.950 . S
C2562 C2561 1.349 . S
C2562 C2574 1.349 . S
C2563 C2561 1.327 . S
C2563 C2579 1.429 . S
C2563 H2585 0.950 . S
C2564 H2560 0.949 . S
C2564 C2572 1.574 . S
C2564 C2580 1.368 . S
H2565 C2573 0.950 . S
H2566 C2571 0.950 . S
H2567 C2572 0.949 . S
H2568 C2574 0.950 . S
H2569 C2575 0.950 . S
H2570 C2576 0.949 . S
C2571 H2566 0.950 . S
C2571 C2573 1.327 . S
C2571 C2577 1.429 . S
C2572 C2564 1.574 . S
C2572 H2567 0.949 . S
C2572 C2578 1.368 . S
C2573 C2557 1.349 . S
C2573 H2565 0.950 . S
C2573 C2571 1.327 . S
C2574 C2562 1.349 . S
C2574 H2568 0.950 . S
C2574 C2575 1.327 . S
C2575 H2569 0.950 . S
C2575 C2574 1.327 . S
C2575 C2579 1.429 . S
C2576 C2559 1.574 . S
C2576 H2570 0.949 . S
C2576 C2580 1.368 . S
C2577 C2558 1.429 . S
C2577 C2571 1.429 . S
C2577 C2578 1.523 . S
C2578 C2559 1.368 . S
C2578 C2572 1.368 . S
C2578 C2577 1.523 . S
C2579 C2563 1.429 . S
C2579 C2575 1.429 . S
C2579 C2580 1.523 . S
C2580 C2564 1.368 . S
C2580 C2576 1.368 . S
C2580 C2579 1.523 . S
H2581 C2556 0.950 . S
H2582 C2558 0.950 . S
H2583 C2559 0.949 . S
H2584 C2561 0.950 . S
H2585 C2563 0.950 . S
C2586 C2587 1.349 . S
C2586 C2588 1.327 . S
C2586 H2611 0.950 . S
C2587 C2586 1.349 . S
C2587 C2603 1.349 . S
C2588 C2586 1.327 . S
C2588 C2607 1.429 . S
C2588 H2612 0.950 . S
C2589 C2606 1.574 . S
C2589 C2608 1.368 . S
C2589 H2613 0.949 . S
H2590 C2594 0.949 . S
C2591 C2592 1.349 . S
C2591 C2593 1.327 . S
C2591 H2614 0.950 . S
C2592 C2591 1.349 . S
C2592 C2604 1.349 . S
C2593 C2591 1.327 . S
C2593 C2609 1.429 . S
C2593 H2615 0.950 . S
C2594 H2590 0.949 . S
C2594 C2602 1.574 1_565 S
C2594 C2610 1.368 . S
H2595 C2603 0.950 . S
H2596 C2601 0.950 . S
H2597 C2602 0.949 . S
H2598 C2604 0.950 . S
H2599 C2605 0.950 . S
H2600 C2606 0.949 . S
C2601 H2596 0.950 . S
C2601 C2603 1.327 . S
C2601 C2607 1.429 . S
C2602 C2594 1.574 1_545 S
C2602 H2597 0.949 . S
C2602 C2608 1.368 . S
C2603 C2587 1.349 . S
C2603 H2595 0.950 . S
C2603 C2601 1.327 . S
C2604 C2592 1.349 . S
C2604 H2598 0.950 . S
C2604 C2605 1.327 . S
C2605 H2599 0.950 . S
C2605 C2604 1.327 . S
C2605 C2609 1.429 . S
C2606 C2589 1.574 . S
C2606 H2600 0.949 . S
C2606 C2610 1.368 1_545 S
C2607 C2588 1.429 . S
C2607 C2601 1.429 . S
C2607 C2608 1.523 . S
C2608 C2589 1.368 . S
C2608 C2602 1.368 . S
C2608 C2607 1.523 . S
C2609 C2593 1.429 . S
C2609 C2605 1.429 . S
C2609 C2610 1.523 . S
C2610 C2594 1.368 . S
C2610 C2606 1.368 1_565 S
C2610 C2609 1.523 . S
H2611 C2586 0.950 . S
H2612 C2588 0.950 . S
H2613 C2589 0.949 . S
H2614 C2591 0.950 . S
H2615 C2593 0.950 . S
C2616 C2617 1.349 . S
C2616 C2618 1.327 . S
C2616 H2641 0.950 . S
C2617 C2616 1.349 . S
C2617 C2633 1.349 . S
C2618 C2616 1.327 . S
C2618 C2637 1.429 . S
C2618 H2642 0.950 . S
C2619 C2636 1.574 . S
C2619 C2638 1.368 . S
C2619 H2643 0.949 . S
H2620 C2624 0.949 . S
C2621 C2622 1.349 . S
C2621 C2623 1.327 . S
C2621 H2644 0.950 . S
C2622 C2621 1.349 . S
C2622 C2634 1.349 . S
C2623 C2621 1.327 . S
C2623 C2639 1.429 . S
C2623 H2645 0.950 . S
C2624 H2620 0.949 . S
C2624 C2632 1.574 1_655 S
C2624 C2640 1.368 . S
H2625 C2633 0.950 . S
H2626 C2631 0.950 . S
H2627 C2632 0.949 . S
H2628 C2634 0.950 . S
H2629 C2635 0.950 . S
H2630 C2636 0.949 . S
C2631 H2626 0.950 . S
C2631 C2633 1.327 . S
C2631 C2637 1.429 . S
C2632 C2624 1.574 1_455 S
C2632 H2627 0.949 . S
C2632 C2638 1.368 . S
C2633 C2617 1.349 . S
C2633 H2625 0.950 . S
C2633 C2631 1.327 . S
C2634 C2622 1.349 . S
C2634 H2628 0.950 . S
C2634 C2635 1.327 . S
C2635 H2629 0.950 . S
C2635 C2634 1.327 . S
C2635 C2639 1.429 . S
C2636 C2619 1.574 . S
C2636 H2630 0.949 . S
C2636 C2640 1.368 1_455 S
C2637 C2618 1.429 . S
C2637 C2631 1.429 . S
C2637 C2638 1.523 . S
C2638 C2619 1.368 . S
C2638 C2632 1.368 . S
C2638 C2637 1.523 . S
C2639 C2623 1.429 . S
C2639 C2635 1.429 . S
C2639 C2640 1.523 . S
C2640 C2624 1.368 . S
C2640 C2636 1.368 1_655 S
C2640 C2639 1.523 . S
H2641 C2616 0.950 . S
H2642 C2618 0.950 . S
H2643 C2619 0.949 . S
H2644 C2621 0.950 . S
H2645 C2623 0.950 . S
C2646 C2647 1.349 . S
C2646 C2648 1.327 . S
C2646 H2671 0.950 . S
C2647 C2646 1.349 . S
C2647 C2663 1.349 . S
C2648 C2646 1.327 . S
C2648 C2667 1.429 . S
C2648 H2672 0.950 . S
C2649 C2666 1.574 . S
C2649 C2668 1.368 . S
C2649 H2673 0.949 . S
H2650 C2654 0.949 . S
C2651 C2652 1.349 . S
C2651 C2653 1.327 . S
C2651 H2674 0.950 . S
C2652 C2651 1.349 . S
C2652 C2664 1.349 . S
C2653 C2651 1.327 . S
C2653 C2669 1.429 . S
C2653 H2675 0.950 . S
C2654 H2650 0.949 . S
C2654 C2662 1.574 . S
C2654 C2670 1.368 . S
H2655 C2663 0.950 . S
H2656 C2661 0.950 . S
H2657 C2662 0.949 . S
H2658 C2664 0.950 . S
H2659 C2665 0.950 . S
H2660 C2666 0.949 . S
C2661 H2656 0.950 . S
C2661 C2663 1.327 . S
C2661 C2667 1.429 . S
C2662 C2654 1.574 . S
C2662 H2657 0.949 . S
C2662 C2668 1.368 . S
C2663 C2647 1.349 . S
C2663 H2655 0.950 . S
C2663 C2661 1.327 . S
C2664 C2652 1.349 . S
C2664 H2658 0.950 . S
C2664 C2665 1.327 . S
C2665 H2659 0.950 . S
C2665 C2664 1.327 . S
C2665 C2669 1.429 . S
C2666 C2649 1.574 . S
C2666 H2660 0.949 . S
C2666 C2670 1.368 . S
C2667 C2648 1.429 . S
C2667 C2661 1.429 . S
C2667 C2668 1.523 . S
C2668 C2649 1.368 . S
C2668 C2662 1.368 . S
C2668 C2667 1.523 . S
C2669 C2653 1.429 . S
C2669 C2665 1.429 . S
C2669 C2670 1.523 . S
C2670 C2654 1.368 . S
C2670 C2666 1.368 . S
C2670 C2669 1.523 . S
H2671 C2646 0.950 . S
H2672 C2648 0.950 . S
H2673 C2649 0.949 . S
H2674 C2651 0.950 . S
H2675 C2653 0.950 . S
C2676 C2677 1.349 . S
C2676 C2678 1.327 . S
C2676 H2701 0.950 . S
C2677 C2676 1.349 . S
C2677 C2693 1.349 . S
C2678 C2676 1.327 . S
C2678 C2697 1.429 . S
C2678 H2702 0.950 . S
C2679 C2696 1.574 . S
C2679 C2698 1.368 . S
C2679 H2703 0.949 . S
H2680 C2684 0.949 . S
C2681 C2682 1.349 . S
C2681 C2683 1.327 . S
C2681 H2704 0.950 . S
C2682 C2681 1.349 . S
C2682 C2694 1.349 . S
C2683 C2681 1.327 . S
C2683 C2699 1.429 . S
C2683 H2705 0.950 . S
C2684 H2680 0.949 . S
C2684 C2692 1.574 . S
C2684 C2700 1.368 . S
H2685 C2693 0.950 . S
H2686 C2691 0.950 . S
H2687 C2692 0.949 . S
H2688 C2694 0.950 . S
H2689 C2695 0.950 . S
H2690 C2696 0.949 1_565 S
C2691 H2686 0.950 . S
C2691 C2693 1.327 . S
C2691 C2697 1.429 . S
C2692 C2684 1.574 . S
C2692 H2687 0.949 . S
C2692 C2698 1.368 . S
C2693 C2677 1.349 . S
C2693 H2685 0.950 . S
C2693 C2691 1.327 . S
C2694 C2682 1.349 . S
C2694 H2688 0.950 . S
C2694 C2695 1.327 . S
C2695 H2689 0.950 . S
C2695 C2694 1.327 . S
C2695 C2699 1.429 . S
C2696 C2679 1.574 . S
C2696 H2690 0.949 1_545 S
C2696 C2700 1.368 . S
C2697 C2678 1.429 . S
C2697 C2691 1.429 . S
C2697 C2698 1.523 . S
C2698 C2679 1.368 . S
C2698 C2692 1.368 . S
C2698 C2697 1.523 . S
C2699 C2683 1.429 . S
C2699 C2695 1.429 . S
C2699 C2700 1.523 1_565 S
C2700 C2684 1.368 . S
C2700 C2696 1.368 . S
C2700 C2699 1.523 1_545 S
H2701 C2676 0.950 . S
H2702 C2678 0.950 . S
H2703 C2679 0.949 . S
H2704 C2681 0.950 . S
H2705 C2683 0.950 . S
C2706 C2707 1.349 . S
C2706 C2708 1.327 . S
C2706 H2731 0.950 . S
C2707 C2706 1.349 . S
C2707 C2723 1.349 . S
C2708 C2706 1.327 . S
C2708 C2727 1.429 . S
C2708 H2732 0.950 . S
C2709 C2726 1.574 1_655 S
C2709 C2728 1.368 . S
C2709 H2733 0.949 . S
H2710 C2714 0.949 . S
C2711 C2712 1.349 . S
C2711 C2713 1.327 . S
C2711 H2734 0.950 . S
C2712 C2711 1.349 . S
C2712 C2724 1.349 . S
C2713 C2711 1.327 . S
C2713 C2729 1.429 . S
C2713 H2735 0.950 . S
C2714 H2710 0.949 . S
C2714 C2722 1.574 1_455 S
C2714 C2730 1.368 . S
H2715 C2723 0.950 . S
H2716 C2721 0.950 . S
H2717 C2722 0.949 . S
H2718 C2724 0.950 . S
H2719 C2725 0.950 . S
H2720 C2726 0.949 . S
C2721 H2716 0.950 . S
C2721 C2723 1.327 . S
C2721 C2727 1.429 . S
C2722 C2714 1.574 1_655 S
C2722 H2717 0.949 . S
C2722 C2728 1.368 . S
C2723 C2707 1.349 . S
C2723 H2715 0.950 . S
C2723 C2721 1.327 . S
C2724 C2712 1.349 . S
C2724 H2718 0.950 . S
C2724 C2725 1.327 . S
C2725 H2719 0.950 . S
C2725 C2724 1.327 . S
C2725 C2729 1.429 . S
C2726 C2709 1.574 1_455 S
C2726 H2720 0.949 . S
C2726 C2730 1.368 . S
C2727 C2708 1.429 . S
C2727 C2721 1.429 . S
C2727 C2728 1.523 . S
C2728 C2709 1.368 . S
C2728 C2722 1.368 . S
C2728 C2727 1.523 . S
C2729 C2713 1.429 . S
C2729 C2725 1.429 . S
C2729 C2730 1.523 . S
C2730 C2714 1.368 . S
C2730 C2726 1.368 . S
C2730 C2729 1.523 . S
H2731 C2706 0.950 . S
H2732 C2708 0.950 . S
H2733 C2709 0.949 . S
H2734 C2711 0.950 . S
H2735 C2713 0.950 . S
C577 C54 0.866 . S
C582 C17 0.855 . S
C607 C49 0.854 . S
C612 C86 0.866 . S
C637 C81 0.855 . S
C642 C22 0.866 . S
C667 C146 0.866 . S
C672 C117 0.855 1_565 S
C697 C178 0.866 . S
C702 C149 0.855 . S
C727 C181 0.855 . S
C732 C114 0.866 . S
C757 C209 0.855 . S
C762 C246 0.866 . S
C787 C241 0.855 . S
C792 C278 0.866 . S
C817 C214 0.866 . S
C822 C273 0.855 . S
C847 C309 0.855 . S
C852 C338 0.866 . S
C877 C370 0.866 . S
C882 C341 0.855 . S
C907 C373 0.855 . S
C912 C306 0.866 . S
C937 C401 0.855 . S
C942 C438 0.866 . S
C967 C433 0.854 . S
C972 C470 0.866 . S
C997 C465 0.855 . S
C1002 C406 0.866 . S
C1027 C530 0.866 . S
C1032 C501 0.855 . S
C1057 C533 0.854 . S
C1062 C562 0.866 . S
C1087 C565 0.855 . S
C1092 C498 0.866 . S
C1117 C19 1.206 . S
C1122 C180 1.232 . S
C1147 C51 1.206 . S
C1152 C116 1.232 . S
C1177 C83 1.206 . S
C1182 C148 1.232 . S
C1207 C55 1.487 . S
C1212 C176 1.471 . S
C1237 C112 1.471 . S
C1242 C87 1.487 . S
C1267 C23 1.486 . S
C1272 C144 1.471 . S
C1297 C80 1.232 . S
C1302 C119 1.206 . S
C1327 C151 1.206 . S
C1332 C16 1.232 . S
C1357 C183 1.206 . S
C1362 C48 1.232 . S
C1387 C147 1.487 . S
C1392 C84 1.471 . S
C1417 C179 1.486 . S
C1422 C20 1.471 . S
C1447 C52 1.471 . S
C1452 C115 1.486 . S
C1477 C211 1.206 . S
C1482 C372 1.232 . S
C1507 C308 1.232 . S
C1512 C243 1.206 . S
C1537 C340 1.232 . S
C1542 C275 1.206 . S
C1567 C247 1.487 . S
C1572 C368 1.471 . S
C1597 C304 1.471 . S
C1602 C279 1.486 . S
C1627 C336 1.471 . S
C1632 C215 1.486 . S
C1657 C311 1.206 . S
C1662 C272 1.232 . S
C1687 C208 1.232 . S
C1692 C343 1.206 . S
C1717 C240 1.232 . S
C1722 C375 1.206 . S
C1747 C276 1.471 . S
C1752 C339 1.487 . S
C1777 C371 1.486 . S
C1782 C212 1.471 . S
C1807 C307 1.486 . S
C1812 C244 1.471 . S
C1837 C403 1.206 . S
C1842 C564 1.232 . S
C1867 C435 1.206 . S
C1872 C500 1.232 . S
C1897 C532 1.232 . S
C1902 C467 1.206 . S
C1927 C439 1.487 . S
C1932 C560 1.471 . S
C1957 C471 1.486 . S
C1962 C496 1.471 . S
C1987 C528 1.471 . S
C1992 C407 1.486 . S
C2017 C503 1.206 . S
C2022 C464 1.232 . S
C2047 C535 1.206 . S
C2052 C400 1.232 . S
C2077 C567 1.206 . S
C2082 C432 1.232 . S
C2107 C531 1.487 . S
C2112 C468 1.471 . S
C2137 C563 1.486 . S
C2142 C404 1.471 . S
C2167 C499 1.486 . S
C2172 C436 1.471 . S
C2197 C21 2.477 . S
C2202 C434 2.406 . S
C2227 C53 2.476 . S
C2232 C466 2.406 . S
C2257 C402 2.406 . S
C2262 C85 2.477 . S
C2287 C213 2.477 . S
C2292 C50 2.406 . S
C2317 C245 2.477 . S
C2322 C82 2.406 . S
C2347 C18 2.407 . S
C2352 C277 2.478 . S
C2377 C113 2.477 . S
C2382 C342 2.406 . S
C2407 C145 2.477 . S
C2412 C374 2.406 . S
C2437 C310 2.407 . S
C2442 C177 2.478 . S
C2467 C150 2.406 . S
C2472 C497 2.477 . S
C2497 C529 2.476 . S
C2502 C182 2.406 . S
C2527 C561 2.477 . S
C2532 C118 2.406 . S
C2557 C242 2.406 . S
C2562 C405 2.477 . S
C2587 C274 2.406 . S
C2592 C437 2.477 . S
C2617 C469 2.478 . S
C2622 C210 2.407 . S
C2647 C305 2.477 . S
C2652 C534 2.406 . S
C2677 C337 2.477 . S
C2682 C566 2.406 . S
C2707 C369 2.477 . S
C2712 C502 2.407 . S
