# Generated by pormake.
# Topology dft, (4)-cn, num edge types: 1
# Building blocks:
#     Node 0, Type 0, BuildingBlock: AZAVOO_clean_sbu_0, # of connection points: 4
#     Node 1, Type 0, BuildingBlock: AZAVOO_clean_sbu_0, # of connection points: 4
#     Node 2, Type 0, BuildingBlock: AZAVOO_clean_sbu_0, # of connection points: 4
#     Node 3, Type 0, BuildingBlock: AZAVOO_clean_sbu_0, # of connection points: 4
#     Node 4, Type 0, BuildingBlock: AZAVOO_clean_sbu_0, # of connection points: 4
#     Node 5, Type 0, BuildingBlock: AZAVOO_clean_sbu_0, # of connection points: 4
#     Node 6, Type 0, BuildingBlock: AZAVOO_clean_sbu_0, # of connection points: 4
#     Node 7, Type 0, BuildingBlock: AZAVOO_clean_sbu_0, # of connection points: 4
#     Edge 8, Type (0, 0), BuildingBlock: UVAHIK_clean_linker_0, # of connection points: 2
#     Edge 9, Type (0, 0), BuildingBlock: UVAHIK_clean_linker_0, # of connection points: 2
#     Edge 10, Type (0, 0), BuildingBlock: UVAHIK_clean_linker_0, # of connection points: 2
#     Edge 11, Type (0, 0), BuildingBlock: UVAHIK_clean_linker_0, # of connection points: 2
#     Edge 12, Type (0, 0), BuildingBlock: UVAHIK_clean_linker_0, # of connection points: 2
#     Edge 13, Type (0, 0), BuildingBlock: UVAHIK_clean_linker_0, # of connection points: 2
#     Edge 14, Type (0, 0), BuildingBlock: UVAHIK_clean_linker_0, # of connection points: 2
#     Edge 15, Type (0, 0), BuildingBlock: UVAHIK_clean_linker_0, # of connection points: 2
#     Edge 16, Type (0, 0), BuildingBlock: UVAHIK_clean_linker_0, # of connection points: 2
#     Edge 17, Type (0, 0), BuildingBlock: UVAHIK_clean_linker_0, # of connection points: 2
#     Edge 18, Type (0, 0), BuildingBlock: UVAHIK_clean_linker_0, # of connection points: 2
#     Edge 19, Type (0, 0), BuildingBlock: UVAHIK_clean_linker_0, # of connection points: 2
#     Edge 20, Type (0, 0), BuildingBlock: UVAHIK_clean_linker_0, # of connection points: 2
#     Edge 21, Type (0, 0), BuildingBlock: UVAHIK_clean_linker_0, # of connection points: 2
#     Edge 22, Type (0, 0), BuildingBlock: UVAHIK_clean_linker_0, # of connection points: 2
#     Edge 23, Type (0, 0), BuildingBlock: UVAHIK_clean_linker_0, # of connection points: 2
# Relax obj value: 0.185
# Max RMSD: 0.167
# Mean RMSD: 0.161
data_MOF--net-dft--node1-AZAVOO_clean_sbu_0--edge1-UVAHIK_clean_linker_0
_symmetry_space_group_name_H-M    P1
_symmetry_Int_Tables_number       1
_symmetry_cell_setting            triclinic
loop_
_symmetry_equiv_pos_as_xyz
'x, y, z'
_cell_length_a     44.09752
_cell_length_b     45.006635
_cell_length_c     48.516154
_cell_angle_alpha  89.997123
_cell_angle_beta   89.877982
_cell_angle_gamma 89.983364
loop_
_atom_site_label
_atom_site_type_symbol
_atom_site_fract_x
_atom_site_fract_y
_atom_site_fract_z
_atom_type_partial_charge
Mg0 Mg 0.29311 -0.00739 0.20398 0.0
O1 O 0.28493 0.98926 0.15726 0.0
O2 O 0.23474 0.98804 0.15076 0.0
Mg3 Mg 0.21085 -0.01004 0.19239 0.0
C4 C 0.26184 0.98823 0.14139 0.0
C5 C 0.36252 0.98794 0.20889 0.0
O6 O 0.35307 0.96637 0.22502 0.0
O7 O 0.27925 0.04166 0.20183 0.0
O8 O 0.22917 0.0372 0.19592 0.0
O9 O 0.29203 0.9429 0.20907 0.0
O10 O 0.25174 0.97182 0.21143 0.0
C11 C 0.25295 0.0531 0.19869 0.0
C12 C 0.26294 0.94545 0.21169 0.0
O13 O 0.34295 0.00386 0.19659 0.0
Mg14 Mg 0.98096 0.33872 0.69457 0.0
O15 O 0.02308 0.30925 0.70179 0.0
O16 O 0.06197 0.33182 0.68075 0.0
Mg17 Mg 0.04549 0.37457 0.66081 0.0
C18 C 0.05115 0.31053 0.6951 0.0
C19 C 0.92504 0.31941 0.72582 0.0
O20 O 0.91518 0.33967 0.7085 0.0
O21 O 0.99846 0.37058 0.72706 0.0
O22 O 0.03644 0.39265 0.70446 0.0
O23 O 0.97066 0.31536 0.65534 0.0
O24 O 1.00009 0.35491 0.6583 0.0
C25 C 0.02003 0.38942 0.72601 0.0
C26 C 0.98865 0.33408 0.64335 0.0
O27 O 0.95324 0.31354 0.72629 0.0
Mg28 Mg 0.75202 0.03564 0.20713 0.0
O29 O 0.75878 0.04001 0.1602 0.0
O30 O 0.80879 0.04222 0.15259 0.0
Mg31 Mg 0.83386 0.03912 0.19346 0.0
C32 C 0.78149 0.04197 0.14386 0.0
C33 C 0.68416 0.04052 0.18832 0.0
O34 O 0.69482 0.06484 0.17688 0.0
O35 O 0.76625 0.98684 0.20395 0.0
O36 O 0.8161 -0.00839 0.19677 0.0
O37 O 0.75257 0.08524 0.21288 0.0
O38 O 0.7933 0.0568 0.21364 0.0
C39 C 0.79249 0.97556 0.19999 0.0
C40 C 0.78178 0.08304 0.21448 0.0
O41 O 0.70218 0.02362 0.20144 0.0
Mg42 Mg 0.05763 0.69381 0.69768 0.0
O43 O 0.01585 0.72379 0.70451 0.0
O44 O 0.97641 0.70066 0.68503 0.0
Mg45 Mg 0.99262 0.65768 0.6652 0.0
C46 C 0.98763 0.72232 0.69859 0.0
C47 C 0.11378 0.71504 0.72759 0.0
O48 O 0.1241 0.69508 0.71017 0.0
O49 O 0.04019 0.66262 0.73089 0.0
O50 O 1.00215 0.64013 0.70887 0.0
O51 O 0.0679 0.71623 0.65801 0.0
O52 O 0.03822 0.67692 0.66186 0.0
C53 C 0.01868 0.64369 0.73024 0.0
C54 C 0.04977 0.69736 0.64647 0.0
O55 O 0.08539 0.7198 0.72865 0.0
Mg56 Mg 0.29055 0.03851 0.78931 0.0
O57 O 0.28408 0.04352 0.83617 0.0
O58 O 0.23417 0.04633 0.84414 0.0
Mg59 Mg 0.20883 0.04296 0.8034 0.0
C60 C 0.26156 0.04591 0.85266 0.0
C61 C 0.35832 0.04296 0.80816 0.0
O62 O 0.34777 0.06747 0.81934 0.0
O63 O 0.27587 -0.01009 0.79311 0.0
O64 O 0.22611 -0.00478 0.80052 0.0
O65 O 0.2904 0.08804 0.78303 0.0
O66 O 0.24943 0.05993 0.7828 0.0
C67 C 0.24956 0.97891 0.79735 0.0
C68 C 0.26117 0.08605 0.78166 0.0
O69 O 0.34027 0.02609 0.79505 0.0
Mg70 Mg 0.06087 0.33651 0.30201 0.0
O71 O 0.01855 0.30754 0.29427 0.0
O72 O 0.97949 0.33052 0.31466 0.0
Mg73 Mg 0.99613 0.37309 0.33481 0.0
C74 C 0.99037 0.3091 0.3005 0.0
C75 C 0.11706 0.31559 0.27188 0.0
O76 O 0.12719 0.33544 0.28946 0.0
O77 O 0.04441 0.36862 0.26924 0.0
O78 O 0.00629 0.39107 0.29134 0.0
O79 O 0.07017 0.3131 0.34142 0.0
O80 O 0.04133 0.35304 0.338 0.0
C81 C 0.02305 0.38772 0.27003 0.0
C82 C 0.05226 0.3321 0.35314 0.0
O83 O 0.08869 0.31073 0.27079 0.0
Mg84 Mg 0.74949 -0.00042 0.79145 0.0
O85 O 0.75818 -0.00651 0.83786 0.0
O86 O 0.80834 -0.00729 0.84416 0.0
Mg87 Mg 0.83181 -0.00176 0.80269 0.0
C88 C 0.78131 -0.00823 0.85359 0.0
C89 C 0.68013 -0.0084 0.78878 0.0
O90 O 0.6899 0.96992 0.77296 0.0
O91 O 0.76186 0.04878 0.7961 0.0
O92 O 0.81207 0.04517 0.8019 0.0
O93 O 0.75268 0.9503 0.78383 0.0
O94 O 0.79148 0.98105 0.78195 0.0
C95 C 0.78786 0.06063 0.79994 0.0
C96 C 0.7815 0.95429 0.78035 0.0
O97 O 0.69942 0.00865 0.80009 0.0
Mg98 Mg 0.98459 0.69261 0.30403 0.0
O99 O 0.02638 0.7226 0.29723 0.0
O100 O 0.0655 0.70028 0.31799 0.0
Mg101 Mg 0.04937 0.65719 0.33761 0.0
C102 C 0.05445 0.72159 0.30383 0.0
C103 C 0.92857 0.71343 0.27391 0.0
O104 O 0.91837 0.6938 0.2917 0.0
O105 O 1.00272 0.6613 0.27124 0.0
O106 O 0.04077 0.63943 0.29381 0.0
O107 O 0.97371 0.71528 0.3435 0.0
O108 O 1.00359 0.67607 0.34016 0.0
C109 C 0.02449 0.64267 0.27223 0.0
C110 C 0.99173 0.69653 0.35534 0.0
O111 O 0.95696 0.71817 0.27264 0.0
C112 C 0.24094 -0.00535 0.09393 0.0
C113 C 0.26625 -0.00906 0.11119 0.0
C114 C 0.24473 0.00177 0.06619 0.0
C115 C 0.29549 -0.00015 0.00726 0.0
H116 H 0.2482 0.06772 0.98316 0.0
C117 C 0.29588 0.03989 0.89368 0.0
C118 C 0.26691 0.04567 0.8828 0.0
C119 C 0.29988 0.03625 0.92211 0.0
C120 C 0.26146 0.04865 0.98948 0.0
H121 H 0.31547 -0.00999 0.11226 0.0
H122 H 0.32195 0.00197 0.06332 0.0
H123 H 0.24711 0.05294 0.03143 0.0
H124 H 0.2197 0.05337 0.89349 0.0
H125 H 0.22657 0.04671 0.94257 0.0
H126 H 0.30884 -0.00523 0.96503 0.0
C127 C 0.29925 -0.00034 0.07162 0.0
C128 C 0.26086 0.04024 0.01712 0.0
C129 C 0.29549 -0.00718 0.09959 0.0
C130 C 0.24234 0.0489 0.90106 0.0
C131 C 0.24633 0.04528 0.92934 0.0
C132 C 0.29586 0.00809 0.97943 0.0
C133 C 0.27386 0.00505 0.05493 0.0
C134 C 0.27726 0.01536 0.02614 0.0
C135 C 0.27502 0.03847 0.94021 0.0
C136 C 0.27821 0.03215 0.97013 0.0
H137 H 0.21808 -0.00679 0.10201 0.0
H138 H 0.22478 0.00529 0.0536 0.0
H139 H 0.30835 0.98058 0.01377 0.0
H140 H 0.31532 0.0373 0.8802 0.0
H141 H 0.32234 0.03135 0.92988 0.0
C142 C 0.01755 0.35002 0.60131 0.0
C143 C 0.99615 0.33114 0.61375 0.0
C144 C 0.0239 0.3477 0.57318 0.0
C145 C 0.99022 0.32503 0.5081 0.0
H146 H 0.07306 0.32447 0.481 0.0
C147 C 0.05884 0.30809 0.39925 0.0
C148 C 0.04438 0.32942 0.38268 0.0
C149 C 0.05258 0.30641 0.42744 0.0
C150 C 0.04983 0.32441 0.48831 0.0
H151 H 0.96457 0.29504 0.60635 0.0
H152 H 0.97537 0.29139 0.55707 0.0
H153 H 0.06343 0.32487 0.53069 0.0
H154 H 0.01181 0.36558 0.38279 0.0
H155 H 1.00044 0.36217 0.43187 0.0
H156 H 0.97663 0.32511 0.46571 0.0
C157 C 0.9873 0.30784 0.56921 0.0
C158 C 0.04434 0.32486 0.51667 0.0
C159 C 0.98124 0.30988 0.59743 0.0
C160 C 0.02315 0.3487 0.39484 0.0
C161 C 0.01659 0.34675 0.42296 0.0
C162 C 0.99572 0.32499 0.47974 0.0
C163 C 0.00865 0.32677 0.55683 0.0
C164 C 0.01449 0.32527 0.52682 0.0
C165 C 0.03146 0.32579 0.43956 0.0
C166 C 0.02557 0.32478 0.46959 0.0
H167 H 0.02921 0.36683 0.61315 0.0
H168 H 0.04022 0.36279 0.56406 0.0
H169 H 0.967 0.32555 0.51541 0.0
H170 H 0.07538 0.29294 0.39054 0.0
H171 H 0.06422 0.28992 0.43979 0.0
C172 C 0.80238 -0.00537 0.90129 0.0
C173 C 0.77699 -0.00745 0.8839 0.0
C174 C 0.79879 0.00042 0.92931 0.0
C175 C 0.74798 -0.00209 0.98829 0.0
H176 H 0.79667 0.06414 0.0139 0.0
C177 C 0.7475 0.03633 0.10253 0.0
C178 C 0.77646 0.04158 0.11366 0.0
C179 C 0.74374 0.03287 0.07404 0.0
C180 C 0.78304 0.0455 0.00716 0.0
H181 H 0.72775 -0.00711 0.88287 0.0
H182 H 0.7216 0.00254 0.93228 0.0
H183 H 0.79767 0.05046 0.96537 0.0
H184 H 0.82393 0.0483 0.10339 0.0
H185 H 0.81746 0.04193 0.05426 0.0
H186 H 0.73427 -0.0078 0.03037 0.0
C187 C 0.74423 0.0 0.92388 0.0
C188 C 0.7836 0.03772 0.97937 0.0
C189 C 0.74781 -0.00552 0.89564 0.0
C190 C 0.80129 0.04429 0.09563 0.0
C191 C 0.79753 0.04083 0.06732 0.0
C192 C 0.74766 0.00551 0.01629 0.0
C193 C 0.76976 0.00397 0.94072 0.0
C194 C 0.76665 0.01345 0.96979 0.0
C195 C 0.76882 0.03471 0.05616 0.0
C196 C 0.76579 0.02897 0.02612 0.0
H197 H 0.8252 -0.00695 0.89312 0.0
H198 H 0.81883 0.00285 0.94201 0.0
H199 H 0.73468 0.97913 0.98133 0.0
H200 H 0.72787 0.03413 0.11583 0.0
H201 H 0.72127 0.02848 0.06605 0.0
C202 C 0.01982 0.67975 0.39743 0.0
C203 C 0.99869 0.69891 0.38505 0.0
C204 C 0.02556 0.68145 0.42569 0.0
C205 C 0.99064 0.70328 0.49074 0.0
H206 H 0.07297 0.70322 0.51878 0.0
C207 C 0.05745 0.72051 0.60014 0.0
C208 C 0.04242 0.69962 0.61683 0.0
C209 C 0.05172 0.72182 0.57186 0.0
C210 C 0.04987 0.70342 0.51121 0.0
H211 H 0.96695 0.73487 0.39267 0.0
H212 H 0.97674 0.7375 0.44213 0.0
H213 H 0.06426 0.70312 0.469 0.0
H214 H 0.00941 0.66389 0.61687 0.0
H215 H 0.99901 0.66661 0.56758 0.0
H216 H 0.97626 0.70317 0.53297 0.0
C217 C 0.9889 0.72128 0.42987 0.0
C218 C 0.04491 0.70314 0.48279 0.0
C219 C 0.98344 0.71983 0.40155 0.0
C220 C 0.02117 0.6804 0.6047 0.0
C221 C 0.01517 0.68197 0.57647 0.0
C222 C 0.99561 0.70316 0.51917 0.0
C223 C 0.00997 0.70206 0.4422 0.0
C224 C 0.01525 0.70303 0.4723 0.0
C225 C 0.03061 0.70249 0.55976 0.0
C226 C 0.02527 0.70321 0.52966 0.0
H227 H 0.03172 0.66317 0.38544 0.0
H228 H 0.04169 0.66616 0.43475 0.0
H229 H 0.96755 0.70297 0.48317 0.0
H230 H 0.074 0.73561 0.60882 0.0
H231 H 0.06376 0.738 0.55945 0.0
C232 C 0.41664 0.97497 0.21847 0.0
C233 C 0.39542 -0.00654 0.20535 0.0
C234 C 0.4477 0.9801 0.21552 0.0
C235 C 0.50441 0.01782 0.17145 0.0
H236 H 0.55576 0.00844 0.23565 0.0
C237 C 0.63103 0.05297 0.17389 0.0
C238 C 0.65124 0.03397 0.18771 0.0
C239 C 0.59976 0.04778 0.17482 0.0
C240 C 0.5418 0.01082 0.21744 0.0
H241 H 0.39024 0.03179 0.17867 0.0
H242 H 0.44459 0.04098 0.17378 0.0
H243 H 0.50136 0.00046 0.23983 0.0
H244 H 0.65445 -0.00589 0.21272 0.0
H245 H 0.60003 0.985 0.21418 0.0
H246 H 0.54501 0.02839 0.14914 0.0
C247 C 0.43715 0.02228 0.18611 0.0
C248 C 0.51059 0.00625 0.21983 0.0
C249 C 0.406 0.01712 0.18904 0.0
C250 C 0.63954 0.00928 0.20194 0.0
C251 C 0.60831 0.00416 0.20294 0.0
C252 C 0.53569 0.02248 0.16907 0.0
C253 C 0.45837 0.0039 0.19943 0.0
C254 C 0.49151 0.0095 0.19684 0.0
C255 C 0.58803 0.02353 0.18967 0.0
C256 C 0.55475 0.01885 0.19202 0.0
H257 H 0.4093 0.95643 0.23106 0.0
H258 H 0.46338 0.96519 0.22569 0.0
H259 H 0.49042 0.02018 0.15326 0.0
H260 H 0.63928 0.07218 0.16272 0.0
H261 H 0.58473 0.06323 0.16454 0.0
C262 C 0.00513 0.41012 0.77231 0.0
C263 C 0.025 0.40973 0.74959 0.0
C264 C 0.0069 0.43289 0.79192 0.0
C265 C 0.04986 0.50371 0.80701 0.0
H266 H 0.96858 0.53598 0.80941 0.0
C267 C 0.03509 0.62212 0.77569 0.0
C268 C 0.01414 0.62338 0.7539 0.0
C269 C 0.03396 0.59881 0.7948 0.0
C270 C 0.99151 0.52738 0.80909 0.0
H271 H 0.06449 0.43089 0.73146 0.0
H272 H 0.06686 0.47067 0.76435 0.0
H273 H 0.97556 0.48288 0.80618 0.0
H274 H 0.97328 0.60348 0.73727 0.0
H275 H 0.97196 0.5628 0.76922 0.0
H276 H 0.0657 0.5483 0.8056 0.0
C277 C 0.05005 0.45354 0.76773 0.0
C278 C 0.9956 0.49665 0.80767 0.0
C279 C 0.04841 0.43079 0.74837 0.0
C280 C 0.99023 0.60284 0.75339 0.0
C281 C 0.98922 0.57956 0.77224 0.0
C282 C 0.04574 0.53446 0.80739 0.0
C283 C 0.0284 0.45581 0.78903 0.0
C284 C 0.02479 0.48472 0.80371 0.0
C285 C 0.01205 0.57621 0.79228 0.0
C286 C 0.01639 0.54658 0.8055 0.0
H287 H 0.98718 0.39382 0.77418 0.0
H288 H 0.99029 0.43345 0.80838 0.0
H289 H 0.07277 0.49513 0.80574 0.0
H290 H 0.05346 0.63802 0.77704 0.0
H291 H 0.05144 0.59749 0.81039 0.0
C292 C 0.62624 0.97672 0.78059 0.0
C293 C 0.64715 -0.00377 0.79281 0.0
C294 C 0.5951 0.98124 0.7837 0.0
C295 C 0.53783 0.01977 0.82662 0.0
H296 H 0.4867 0.00792 0.76262 0.0
C297 C 0.41145 0.05527 0.82265 0.0
C298 C 0.39117 0.03609 0.80914 0.0
C299 C 0.44266 0.04974 0.82209 0.0
C300 C 0.50059 0.01096 0.78079 0.0
H301 H 0.65169 0.03565 0.81818 0.0
H302 H 0.59719 0.04376 0.82335 0.0
H303 H 0.54112 -6e-05 0.75883 0.0
H304 H 0.38776 -0.00445 0.78514 0.0
H305 H 0.4421 0.98583 0.78434 0.0
H306 H 0.49714 0.03103 0.84849 0.0
C307 C 0.60495 0.02475 0.8116 0.0
C308 C 0.53182 0.00639 0.77862 0.0
C309 C 0.63618 0.0202 0.80851 0.0
C310 C 0.40274 0.01088 0.79563 0.0
C311 C 0.43392 0.00539 0.79502 0.0
C312 C 0.50653 0.0244 0.82878 0.0
C313 C 0.58404 0.00543 0.79906 0.0
C314 C 0.55083 0.01063 0.80151 0.0
C315 C 0.45428 0.02495 0.80795 0.0
C316 C 0.48754 0.01995 0.8059 0.0
H317 H 0.63389 0.95791 0.76851 0.0
H318 H 0.57966 0.96564 0.77416 0.0
H319 H 0.55178 0.02289 0.84473 0.0
H320 H 0.40329 0.07488 0.83327 0.0
H321 H 0.45775 0.06536 0.83207 0.0
C322 C 0.03984 0.40946 0.22469 0.0
C323 C 0.01888 0.40835 0.24656 0.0
C324 C 0.03889 0.43278 0.20559 0.0
C325 C 0.99656 0.50411 0.19087 0.0
H326 H 0.07782 0.53639 0.19317 0.0
C327 C 0.00986 0.62174 0.22601 0.0
C328 C 0.02978 0.62246 0.24862 0.0
C329 C 0.01178 0.59882 0.20656 0.0
C330 C 0.05491 0.5278 0.19219 0.0
H331 H 0.9783 0.4287 0.26347 0.0
H332 H 0.97728 0.46939 0.2315 0.0
H333 H 0.07076 0.48322 0.19426 0.0
H334 H 0.0696 0.60185 0.26657 0.0
H335 H 0.07221 0.5618 0.23398 0.0
H336 H 0.98059 0.54865 0.19312 0.0
C337 C 0.99438 0.45246 0.22841 0.0
C338 C 0.0508 0.49705 0.19236 0.0
C339 C 0.99521 0.42918 0.24725 0.0
C340 C 0.05345 0.60167 0.24977 0.0
C341 C 0.05522 0.57876 0.23058 0.0
C342 C 1.00064 0.53486 0.19174 0.0
C343 C 0.01713 0.45553 0.20816 0.0
C344 C 0.02145 0.48498 0.19461 0.0
C345 C 0.03345 0.57605 0.20951 0.0
C346 C 0.02984 0.54687 0.19531 0.0
H347 H 0.05803 0.39336 0.22321 0.0
H348 H 0.05633 0.43392 0.18988 0.0
H349 H 0.97363 0.49551 0.19084 0.0
H350 H 0.99173 0.63784 0.22417 0.0
H351 H 0.9951 0.59797 0.19024 0.0
C352 C 0.16989 0.29859 0.26148 0.0
C353 C 0.13859 0.29688 0.2562 0.0
C354 C 0.18993 0.27839 0.24936 0.0
C355 C 0.19713 0.22103 0.19496 0.0
H356 H 0.24507 0.1788 0.24927 0.0
C357 C 0.22239 0.09785 0.18715 0.0
C358 C 0.24911 0.08574 0.19819 0.0
C359 C 0.21664 0.12818 0.18886 0.0
C360 C 0.23257 0.19075 0.2336 0.0
H361 H 0.10401 0.27386 0.23272 0.0
H362 H 0.13897 0.23861 0.21159 0.0
H363 H 0.22004 0.22502 0.26195 0.0
H364 H 0.29159 0.09623 0.21837 0.0
H365 H 0.28136 0.14971 0.22159 0.0
H366 H 0.20862 0.18607 0.16695 0.0
C367 C 0.14804 0.25561 0.22504 0.0
C368 C 0.21813 0.21725 0.2409 0.0
C369 C 0.12797 0.27567 0.23732 0.0
C370 C 0.27073 0.10492 0.20981 0.0
C371 C 0.26484 0.13547 0.21171 0.0
C372 C 0.21171 0.19464 0.18761 0.0
C373 C 0.17911 0.25627 0.23151 0.0
C374 C 0.19925 0.23196 0.22199 0.0
C375 C 0.23742 0.14729 0.20172 0.0
C376 C 0.22845 0.17852 0.20723 0.0
H377 H 0.17883 0.31481 0.27582 0.0
H378 H 0.21379 0.27954 0.25452 0.0
H379 H 0.18316 0.23222 0.17984 0.0
H380 H 0.20538 0.08376 0.17776 0.0
H381 H 0.1951 0.13637 0.18132 0.0
C382 C 0.91355 0.28026 0.76099 0.0
C383 C 0.90325 0.30152 0.742 0.0
C384 C 0.89309 0.261 0.77382 0.0
C385 C 0.82203 0.22424 0.75911 0.0
H386 H 0.83137 0.1939 0.83338 0.0
C387 C 0.76928 0.11245 0.79009 0.0
C388 C 0.79095 0.09328 0.80167 0.0
C389 C 0.77492 0.14306 0.78863 0.0
C390 C 0.82832 0.20225 0.81263 0.0
H391 H 0.86322 0.32038 0.72275 0.0
H392 H 0.82759 0.28644 0.74494 0.0
H393 H 0.85763 0.2394 0.81981 0.0
H394 H 0.83424 0.09136 0.82281 0.0
H395 H 0.84414 0.14407 0.81998 0.0
H396 H 0.79449 0.18614 0.75124 0.0
C397 C 0.85149 0.28467 0.74981 0.0
C398 C 0.84334 0.22827 0.8049 0.0
C399 C 0.87192 0.30411 0.73716 0.0
C400 C 0.81725 0.10547 0.8134 0.0
C401 C 0.82276 0.13586 0.8121 0.0
C402 C 0.80721 0.19809 0.76676 0.0
C403 C 0.86196 0.26249 0.76777 0.0
C404 C 0.84129 0.23885 0.77775 0.0
C405 C 0.80214 0.15495 0.79899 0.0
C406 C 0.81127 0.18611 0.79325 0.0
H407 H 0.93753 0.27781 0.76527 0.0
H408 H 0.90188 0.24391 0.78735 0.0
H409 H 0.82017 0.23176 0.73797 0.0
H410 H 0.74872 0.10369 0.78102 0.0
H411 H 0.75846 0.15727 0.77861 0.0
C412 C 0.9178 0.75313 0.23913 0.0
C413 C 0.90711 0.73208 0.25817 0.0
C414 C 0.8978 0.77316 0.2268 0.0
C415 C 0.82777 0.81177 0.24267 0.0
H416 H 0.83742 0.84254 0.16854 0.0
C417 C 0.77493 0.92371 0.21122 0.0
C418 C 0.79646 0.94294 0.19943 0.0
C419 C 0.78095 0.8932 0.21321 0.0
C420 C 0.8343 0.83409 0.18926 0.0
H421 H 0.8668 0.71439 0.27802 0.0
H422 H 0.83196 0.7496 0.25662 0.0
H423 H 0.86285 0.79645 0.1816 0.0
H424 H 0.84014 0.94501 0.17877 0.0
H425 H 0.85064 0.89244 0.18248 0.0
H426 H 0.80081 0.85025 0.25092 0.0
C427 C 0.85583 0.75066 0.25138 0.0
C428 C 0.84885 0.80773 0.1967 0.0
C429 C 0.8758 0.73048 0.26356 0.0
C430 C 0.8232 0.93089 0.18827 0.0
C431 C 0.82908 0.90058 0.19009 0.0
C432 C 0.81335 0.83822 0.23528 0.0
C433 C 0.86673 0.77264 0.23337 0.0
C434 C 0.84666 0.79694 0.22379 0.0
C435 C 0.80841 0.88145 0.20315 0.0
C436 C 0.8175 0.85029 0.20883 0.0
H437 H 0.94177 0.75485 0.23445 0.0
H438 H 0.90694 0.79006 0.21323 0.0
H439 H 0.82581 0.80411 0.26377 0.0
H440 H 0.75405 0.93234 0.21987 0.0
H441 H 0.7645 0.87895 0.22323 0.0
C442 C 0.12426 0.75548 0.76168 0.0
C443 C 0.13512 0.73403 0.7431 0.0
C444 C 0.14413 0.77582 0.77371 0.0
C445 C 0.21419 0.81418 0.75741 0.0
H446 H 0.20384 0.84682 0.83077 0.0
C447 C 0.2669 0.92677 0.78703 0.0
C448 C 0.24534 0.94633 0.79831 0.0
C449 C 0.26079 0.89626 0.78553 0.0
C450 C 0.20715 0.83784 0.81027 0.0
H451 H 0.17559 0.71598 0.72379 0.0
H452 H 0.21021 0.75173 0.74468 0.0
H453 H 0.17863 0.80036 0.81856 0.0
H454 H 0.20143 0.94901 0.8185 0.0
H455 H 0.19076 0.89641 0.81563 0.0
H456 H 0.24116 0.85248 0.74852 0.0
C457 C 0.18631 0.75286 0.74978 0.0
C458 C 0.19272 0.81128 0.8033 0.0
C459 C 0.16646 0.73237 0.7379 0.0
C460 C 0.21841 0.93463 0.80939 0.0
C461 C 0.21243 0.90432 0.80806 0.0
C462 C 0.2285 0.84083 0.76432 0.0
C463 C 0.17524 0.77522 0.7673 0.0
C464 C 0.19517 0.7998 0.77648 0.0
C465 C 0.23318 0.88483 0.79557 0.0
C466 C 0.2241 0.85356 0.79047 0.0
H467 H 0.10026 0.75725 0.76621 0.0
H468 H 0.13486 0.793 0.7869 0.0
H469 H 0.21634 0.806 0.7365 0.0
H470 H 0.28793 0.93512 0.77844 0.0
H471 H 0.2773 0.88173 0.77594 0.0
C472 C 0.83364 0.93486 0.77132 0.0
C473 C 0.80252 0.92932 0.77486 0.0
C474 C 0.85357 0.91191 0.76471 0.0
C475 C 0.86124 0.8298 0.76238 0.0
H476 H 0.92623 0.84853 0.7112 0.0
C477 C 0.93532 0.74103 0.7085 0.0
C478 C 0.96683 0.74594 0.70831 0.0
C479 C 0.91546 0.76299 0.71782 0.0
C480 C 0.90838 0.84306 0.72572 0.0
H481 H 0.76791 0.89514 0.77416 0.0
H482 H 0.80268 0.855 0.76167 0.0
H483 H 0.89056 0.88713 0.72478 0.0
H484 H 1.00216 0.77785 0.71779 0.0
H485 H 0.96725 0.81653 0.73368 0.0
H486 H 0.87882 0.78537 0.7625 0.0
C487 C 0.81178 0.87709 0.76475 0.0
C488 C 0.88794 0.86517 0.7336 0.0
C489 C 0.7918 0.90011 0.77176 0.0
C490 C 0.97803 0.77338 0.71766 0.0
C491 C 0.95807 0.79553 0.72666 0.0
C492 C 0.88152 0.80757 0.75421 0.0
C493 C 0.8429 0.88281 0.76087 0.0
C494 C 0.86421 0.85891 0.75218 0.0
C495 C 0.92661 0.7905 0.72686 0.0
C496 C 0.90534 0.81405 0.73589 0.0
H497 H 0.84277 0.95704 0.77316 0.0
H498 H 0.87742 0.91712 0.76247 0.0
H499 H 0.84353 0.82424 0.77699 0.0
H500 H 0.92591 0.72009 0.70159 0.0
H501 H 0.8913 0.75864 0.71752 0.0
C502 C 0.2536 0.89431 0.23 0.0
C503 C 0.24316 0.91932 0.21555 0.0
C504 C 0.2335 0.87151 0.23724 0.0
C505 C 0.15168 0.85999 0.24933 0.0
H506 H 0.17339 0.77658 0.25142 0.0
C507 C 0.06518 0.76774 0.27623 0.0
C508 C 0.07542 0.74493 0.2937 0.0
C509 C 0.08556 0.78864 0.26558 0.0
C510 C 0.16709 0.79984 0.25115 0.0
H511 H 0.20429 0.93862 0.19502 0.0
H512 H 0.16947 0.89901 0.20724 0.0
H513 H 0.20971 0.81277 0.23361 0.0
H514 H 0.11513 0.72665 0.31404 0.0
H515 H 0.15035 0.76318 0.29573 0.0
H516 H 0.10917 0.84713 0.26699 0.0
C517 C 0.19282 0.89742 0.21396 0.0
C518 C 0.1879 0.82055 0.24095 0.0
C519 C 0.21281 0.92021 0.20695 0.0
C520 C 0.10639 0.74381 0.30056 0.0
C521 C 0.1267 0.76463 0.28989 0.0
C522 C 0.13089 0.8393 0.25946 0.0
C523 C 0.20267 0.87325 0.22991 0.0
C524 C 0.18046 0.85089 0.23998 0.0
C525 C 0.11658 0.78714 0.27213 0.0
C526 C 0.1384 0.80901 0.26062 0.0
H527 H 0.27691 0.89307 0.2369 0.0
H528 H 0.24182 0.85322 0.2496 0.0
H529 H 0.14541 0.88326 0.2494 0.0
H530 H 0.04153 0.76922 0.27043 0.0
H531 H 0.0771 0.80563 0.25178 0.0
C532 C 0.06266 0.26506 0.72338 0.0
C533 C 0.07239 0.28743 0.70518 0.0
C534 C 0.08331 0.24429 0.73378 0.0
C535 C 0.16544 0.23256 0.74518 0.0
H536 H 0.14291 0.14947 0.74934 0.0
C537 C 0.25165 0.137 0.76298 0.0
C538 C 0.24173 0.11252 0.7785 0.0
C539 C 0.23154 0.16006 0.75655 0.0
C540 C 0.14944 0.17266 0.74872 0.0
H541 H 0.11148 0.3051 0.68329 0.0
H542 H 0.14713 0.26878 0.70109 0.0
H543 H 0.10623 0.1857 0.73284 0.0
H544 H 0.20404 0.09453 0.80183 0.0
H545 H 0.16918 0.13452 0.79087 0.0
H546 H 0.20882 0.21938 0.76083 0.0
C547 C 0.1237 0.26759 0.70774 0.0
C548 C 0.12839 0.19341 0.73923 0.0
C549 C 0.10314 0.2883 0.69737 0.0
C550 C 0.21205 0.11247 0.78899 0.0
C551 C 0.19206 0.13549 0.78275 0.0
C552 C 0.18654 0.21177 0.75469 0.0
C553 C 0.1141 0.24547 0.72619 0.0
C554 C 0.13618 0.22358 0.7372 0.0
C555 C 0.20125 0.15909 0.76575 0.0
C556 C 0.17879 0.18156 0.75649 0.0
H557 H 0.0392 0.2638 0.72993 0.0
H558 H 0.07525 0.22763 0.74813 0.0
H559 H 0.172 0.25573 0.74424 0.0
H560 H 0.27446 0.1376 0.75465 0.0
H561 H 0.23933 0.17792 0.74336 0.0
C562 C 0.93815 0.28759 0.29701 0.0
C563 C 0.96917 0.28607 0.29024 0.0
C564 C 0.91775 0.26672 0.28665 0.0
C565 C 0.91359 0.19129 0.25789 0.0
H566 H 0.83423 0.21673 0.23276 0.0
C567 C 0.83151 0.10874 0.20833 0.0
C568 C 0.80137 0.10943 0.21765 0.0
C569 C 0.85138 0.13187 0.21452 0.0
C570 C 0.85621 0.20927 0.23989 0.0
H571 H 1.00298 0.2612 0.26728 0.0
H572 H 0.96723 0.22476 0.24913 0.0
H573 H 0.87065 0.25358 0.2491 0.0
H574 H 0.7678 0.13571 0.23935 0.0
H575 H 0.80271 0.1762 0.25056 0.0
H576 H 0.89916 0.14701 0.24905 0.0
C577 C 0.95882 0.24205 0.26266 0.0
C578 C 0.87707 0.23036 0.24926 0.0
C579 C 0.9793 0.26298 0.27302 0.0
C580 C 0.79097 0.13458 0.23194 0.0
C581 C 0.81096 0.15776 0.23832 0.0
C582 C 0.89277 0.17024 0.24856 0.0
C583 C 0.92779 0.24379 0.26928 0.0
C584 C 0.90595 0.22157 0.25847 0.0
C585 C 0.84161 0.15622 0.23029 0.0
C586 C 0.86381 0.17896 0.2395 0.0
H587 H 0.92948 0.30499 0.31028 0.0
H588 H 0.8941 0.26839 0.29253 0.0
H589 H 0.93544 0.18374 0.26527 0.0
H590 H 0.83999 0.09025 0.19647 0.0
H591 H 0.87459 0.13042 0.20729 0.0
loop_
_geom_bond_atom_site_label_1
_geom_bond_atom_site_label_2
_geom_bond_distance
_geom_bond_site_symmetry_2
_ccdc_geom_bond_type
Mg0 O1 2.028 . S
Mg0 O7 1.986 . S
Mg0 O9 2.114 1_545 S
Mg0 O10 2.251 1_545 S
Mg0 O13 2.010 . S
O1 Mg0 2.028 . S
O1 C4 1.250 . S
O2 Mg3 2.028 . S
O2 C4 1.248 . S
Mg3 O2 2.028 . S
Mg3 O8 2.032 . S
Mg3 O10 2.079 1_545 S
C4 O1 1.250 . S
C4 O2 1.248 . S
C5 O6 1.264 . S
C5 O13 1.249 . S
O6 C5 1.264 . S
O7 Mg0 1.986 . S
O7 C11 1.246 . S
O8 Mg3 2.032 . S
O8 C11 1.259 . S
O9 Mg0 2.114 1_565 S
O9 C12 1.252 . S
O10 Mg0 2.251 1_565 S
O10 Mg3 2.079 1_565 S
O10 C12 1.273 . S
C11 O7 1.246 . S
C11 O8 1.259 . S
C12 O9 1.252 . S
C12 O10 1.273 . S
O13 Mg0 2.010 . S
O13 C5 1.249 . S
Mg14 O15 2.028 1_655 S
Mg14 O21 1.986 1_655 S
Mg14 O23 2.115 . S
Mg14 O24 2.251 1_655 S
Mg14 O27 2.010 . S
O15 Mg14 2.028 1_455 S
O15 C18 1.250 . S
O16 Mg17 2.028 . S
O16 C18 1.248 . S
Mg17 O16 2.028 . S
Mg17 O22 2.032 . S
Mg17 O24 2.079 . S
C18 O15 1.250 . S
C18 O16 1.248 . S
C19 O20 1.264 . S
C19 O27 1.249 . S
O20 C19 1.264 . S
O21 Mg14 1.986 1_455 S
O21 C25 1.246 . S
O22 Mg17 2.032 . S
O22 C25 1.259 . S
O23 Mg14 2.115 . S
O23 C26 1.230 1_655 S
O24 Mg14 2.251 1_455 S
O24 Mg17 2.079 . S
O24 C26 1.273 . S
C25 O21 1.246 . S
C25 O22 1.259 . S
C26 O23 1.230 1_455 S
C26 O24 1.273 . S
O27 Mg14 2.010 . S
O27 C19 1.249 . S
Mg28 O29 2.028 . S
Mg28 O35 1.986 1_545 S
Mg28 O37 2.114 . S
Mg28 O38 2.251 . S
Mg28 O41 2.010 . S
O29 Mg28 2.028 . S
O29 C32 1.250 . S
O30 Mg31 2.028 . S
O30 C32 1.248 . S
Mg31 O30 2.028 . S
Mg31 O36 2.032 1_545 S
Mg31 O38 2.079 . S
C32 O29 1.250 . S
C32 O30 1.248 . S
C33 O34 1.264 . S
C33 O41 1.249 . S
O34 C33 1.264 . S
O35 Mg28 1.986 1_565 S
O35 C39 1.246 . S
O36 Mg31 2.032 1_565 S
O36 C39 1.259 . S
O37 Mg28 2.114 . S
O37 C40 1.252 . S
O38 Mg28 2.251 . S
O38 Mg31 2.079 . S
O38 C40 1.273 . S
C39 O35 1.246 . S
C39 O36 1.259 . S
C40 O37 1.252 . S
C40 O38 1.273 . S
O41 Mg28 2.010 . S
O41 C33 1.249 . S
Mg42 O43 2.028 . S
Mg42 O49 1.986 . S
Mg42 O51 2.114 . S
Mg42 O52 2.251 . S
Mg42 O55 2.010 . S
O43 Mg42 2.028 . S
O43 C46 1.250 1_455 S
O44 Mg45 2.028 . S
O44 C46 1.248 . S
Mg45 O44 2.028 . S
Mg45 O50 2.032 . S
Mg45 O52 2.079 1_655 S
C46 O43 1.250 1_655 S
C46 O44 1.248 . S
C47 O48 1.264 . S
C47 O55 1.249 . S
O48 C47 1.264 . S
O49 Mg42 1.986 . S
O49 C53 1.246 . S
O50 Mg45 2.032 . S
O50 C53 1.259 1_655 S
O51 Mg42 2.114 . S
O51 C54 1.252 . S
O52 Mg42 2.251 . S
O52 Mg45 2.079 1_455 S
O52 C54 1.273 . S
C53 O49 1.246 . S
C53 O50 1.259 1_455 S
C54 O51 1.252 . S
C54 O52 1.273 . S
O55 Mg42 2.010 . S
O55 C47 1.249 . S
Mg56 O57 2.028 . S
Mg56 O63 1.986 1_545 S
Mg56 O65 2.114 . S
Mg56 O66 2.251 . S
Mg56 O69 2.010 . S
O57 Mg56 2.028 . S
O57 C60 1.250 . S
O58 Mg59 2.028 . S
O58 C60 1.248 . S
Mg59 O58 2.028 . S
Mg59 O64 2.032 1_545 S
Mg59 O66 2.079 . S
C60 O57 1.250 . S
C60 O58 1.248 . S
C61 O62 1.264 . S
C61 O69 1.249 . S
O62 C61 1.264 . S
O63 Mg56 1.986 1_565 S
O63 C67 1.246 . S
O64 Mg59 2.032 1_565 S
O64 C67 1.259 . S
O65 Mg56 2.114 . S
O65 C68 1.252 . S
O66 Mg56 2.251 . S
O66 Mg59 2.079 . S
O66 C68 1.273 . S
C67 O63 1.246 . S
C67 O64 1.259 . S
C68 O65 1.252 . S
C68 O66 1.273 . S
O69 Mg56 2.010 . S
O69 C61 1.249 . S
Mg70 O71 2.028 . S
Mg70 O77 1.986 . S
Mg70 O79 2.114 . S
Mg70 O80 2.251 . S
Mg70 O83 2.010 . S
O71 Mg70 2.028 . S
O71 C74 1.250 1_455 S
O72 Mg73 2.028 . S
O72 C74 1.248 . S
Mg73 O72 2.028 . S
Mg73 O78 2.032 . S
Mg73 O80 2.079 1_655 S
C74 O71 1.250 1_655 S
C74 O72 1.248 . S
C75 O76 1.264 . S
C75 O83 1.249 . S
O76 C75 1.264 . S
O77 Mg70 1.986 . S
O77 C81 1.246 . S
O78 Mg73 2.032 . S
O78 C81 1.259 1_655 S
O79 Mg70 2.114 . S
O79 C82 1.252 . S
O80 Mg70 2.251 . S
O80 Mg73 2.079 1_455 S
O80 C82 1.273 . S
C81 O77 1.246 . S
C81 O78 1.259 1_455 S
C82 O79 1.252 . S
C82 O80 1.273 . S
O83 Mg70 2.010 . S
O83 C75 1.249 . S
Mg84 O85 2.028 . S
Mg84 O91 1.986 . S
Mg84 O93 2.114 1_545 S
Mg84 O94 2.251 1_545 S
Mg84 O97 2.010 . S
O85 Mg84 2.028 . S
O85 C88 1.250 . S
O86 Mg87 2.028 . S
O86 C88 1.248 . S
Mg87 O86 2.028 . S
Mg87 O92 2.032 . S
Mg87 O94 2.079 1_545 S
C88 O85 1.250 . S
C88 O86 1.248 . S
C89 O90 1.264 . S
C89 O97 1.249 . S
O90 C89 1.264 . S
O91 Mg84 1.986 . S
O91 C95 1.246 . S
O92 Mg87 2.032 . S
O92 C95 1.259 . S
O93 Mg84 2.114 1_565 S
O93 C96 1.252 . S
O94 Mg84 2.251 1_565 S
O94 Mg87 2.079 1_565 S
O94 C96 1.273 . S
C95 O91 1.246 . S
C95 O92 1.259 . S
C96 O93 1.252 . S
C96 O94 1.273 . S
O97 Mg84 2.010 . S
O97 C89 1.249 . S
Mg98 O99 2.028 1_655 S
Mg98 O105 1.986 1_655 S
Mg98 O107 2.114 . S
Mg98 O108 2.251 1_655 S
Mg98 O111 2.010 . S
O99 Mg98 2.028 1_455 S
O99 C102 1.250 . S
O100 Mg101 2.028 . S
O100 C102 1.248 . S
Mg101 O100 2.028 . S
Mg101 O106 2.032 . S
Mg101 O108 2.079 . S
C102 O99 1.250 . S
C102 O100 1.248 . S
C103 O104 1.264 . S
C103 O111 1.249 . S
O104 C103 1.264 . S
O105 Mg98 1.986 1_455 S
O105 C109 1.246 . S
O106 Mg101 2.032 . S
O106 C109 1.259 . S
O107 Mg98 2.114 . S
O107 C110 1.231 1_655 S
O108 Mg98 2.251 1_455 S
O108 Mg101 2.079 . S
O108 C110 1.273 . S
C109 O105 1.246 . S
C109 O106 1.259 . S
C110 O107 1.231 1_455 S
C110 O108 1.273 . S
O111 Mg98 2.010 . S
O111 C103 1.249 . S
C112 C113 1.349 1_565 S
C112 C114 1.329 . S
C112 H137 0.950 . S
C113 C112 1.349 1_545 S
C113 C129 1.349 . S
C114 C112 1.329 . S
C114 C133 1.402 1_565 S
C114 H138 0.976 . S
C115 C132 1.574 1_554 S
C115 C134 1.368 . S
C115 H139 0.949 . S
H116 C120 0.949 1_565 S
C117 C118 1.349 . S
C117 C119 1.327 . S
C117 H140 0.950 . S
C118 C117 1.349 . S
C118 C130 1.349 . S
C119 C117 1.327 . S
C119 C135 1.429 . S
C119 H141 0.950 . S
C120 H116 0.949 1_545 S
C120 C128 1.574 1_556 S
C120 C136 1.368 . S
H121 C129 0.950 . S
H122 C127 0.950 . S
H123 C128 0.949 1_565 S
H124 C130 0.950 1_565 S
H125 C131 0.950 1_565 S
H126 C132 0.949 . S
C127 H122 0.950 . S
C127 C129 1.327 . S
C127 C133 1.429 . S
C128 C120 1.574 1_554 S
C128 H123 0.949 1_545 S
C128 C134 1.368 . S
C129 C113 1.349 . S
C129 H121 0.950 . S
C129 C127 1.327 . S
C130 C118 1.349 . S
C130 H124 0.950 1_545 S
C130 C131 1.327 . S
C131 H125 0.950 1_545 S
C131 C130 1.327 . S
C131 C135 1.429 . S
C132 C115 1.574 1_556 S
C132 H126 0.949 . S
C132 C136 1.368 . S
C133 C114 1.402 1_545 S
C133 C127 1.429 . S
C133 C134 1.523 . S
C134 C115 1.368 . S
C134 C128 1.368 . S
C134 C133 1.523 . S
C135 C119 1.429 . S
C135 C131 1.429 . S
C135 C136 1.523 . S
C136 C120 1.368 . S
C136 C132 1.368 . S
C136 C135 1.523 . S
H137 C112 0.950 . S
H138 C114 0.976 . S
H139 C115 0.949 . S
H140 C117 0.950 . S
H141 C119 0.950 . S
C142 C143 1.349 . S
C142 C144 1.327 . S
C142 H167 0.950 . S
C143 C142 1.349 . S
C143 C159 1.349 . S
C144 C142 1.327 . S
C144 C163 1.429 . S
C144 H168 0.950 . S
C145 C162 1.574 . S
C145 C164 1.368 . S
C145 H169 0.949 1_455 S
H146 C150 0.949 . S
C147 C148 1.349 . S
C147 C149 1.327 . S
C147 H170 0.950 1_455 S
C148 C147 1.349 . S
C148 C160 1.349 . S
C149 C147 1.327 . S
C149 C165 1.429 . S
C149 H171 0.950 1_455 S
C150 H146 0.949 . S
C150 C158 1.574 . S
C150 C166 1.368 . S
H151 C159 0.950 1_655 S
H152 C157 0.950 1_655 S
H153 C158 0.949 . S
H154 C160 0.950 . S
H155 C161 0.950 . S
H156 C162 0.931 1_655 S
C157 H152 0.950 1_455 S
C157 C159 1.327 . S
C157 C163 1.429 . S
C158 C150 1.574 . S
C158 H153 0.949 . S
C158 C164 1.368 . S
C159 C143 1.349 . S
C159 H151 0.950 1_455 S
C159 C157 1.327 . S
C160 C148 1.349 . S
C160 H154 0.950 . S
C160 C161 1.327 . S
C161 H155 0.950 . S
C161 C160 1.327 . S
C161 C165 1.429 . S
C162 C145 1.574 . S
C162 H156 0.931 1_455 S
C162 C166 1.389 . S
C163 C144 1.429 . S
C163 C157 1.429 . S
C163 C164 1.523 . S
C164 C145 1.368 . S
C164 C158 1.368 . S
C164 C163 1.523 . S
C165 C149 1.429 . S
C165 C161 1.429 . S
C165 C166 1.523 . S
C166 C150 1.368 . S
C166 C162 1.389 . S
C166 C165 1.523 . S
H167 C142 0.950 . S
H168 C144 0.950 . S
H169 C145 0.949 1_655 S
H170 C147 0.950 1_655 S
H171 C149 0.950 1_655 S
C172 C173 1.349 1_565 S
C172 C174 1.328 . S
C172 H197 0.950 . S
C173 C172 1.349 1_545 S
C173 C189 1.349 . S
C174 C172 1.328 . S
C174 C193 1.421 1_565 S
C174 H198 0.957 . S
C175 C192 1.574 1_556 S
C175 C194 1.368 . S
C175 H199 0.949 . S
H176 C180 0.949 1_565 S
C177 C178 1.349 . S
C177 C179 1.327 . S
C177 H200 0.950 . S
C178 C177 1.349 . S
C178 C190 1.349 . S
C179 C177 1.327 . S
C179 C195 1.429 . S
C179 H201 0.950 . S
C180 H176 0.949 1_545 S
C180 C188 1.574 1_554 S
C180 C196 1.368 . S
H181 C189 0.950 . S
H182 C187 0.950 . S
H183 C188 0.949 1_565 S
H184 C190 0.950 1_565 S
H185 C191 0.950 1_565 S
H186 C192 0.949 . S
C187 H182 0.950 . S
C187 C189 1.327 . S
C187 C193 1.429 . S
C188 C180 1.574 1_556 S
C188 H183 0.949 1_545 S
C188 C194 1.368 . S
C189 C173 1.349 . S
C189 H181 0.950 . S
C189 C187 1.327 . S
C190 C178 1.349 . S
C190 H184 0.950 1_545 S
C190 C191 1.327 . S
C191 H185 0.950 1_545 S
C191 C190 1.327 . S
C191 C195 1.429 . S
C192 C175 1.574 1_554 S
C192 H186 0.949 . S
C192 C196 1.368 . S
C193 C174 1.421 1_545 S
C193 C187 1.429 . S
C193 C194 1.523 . S
C194 C175 1.368 . S
C194 C188 1.368 . S
C194 C193 1.523 . S
C195 C179 1.429 . S
C195 C191 1.429 . S
C195 C196 1.523 . S
C196 C180 1.368 . S
C196 C192 1.368 . S
C196 C195 1.523 . S
H197 C172 0.950 . S
H198 C174 0.957 . S
H199 C175 0.949 . S
H200 C177 0.950 . S
H201 C179 0.950 . S
C202 C203 1.349 . S
C202 C204 1.327 . S
C202 H227 0.950 . S
C203 C202 1.349 . S
C203 C219 1.349 . S
C204 C202 1.327 . S
C204 C223 1.429 . S
C204 H228 0.950 . S
C205 C222 1.574 . S
C205 C224 1.368 . S
C205 H229 0.949 1_455 S
H206 C210 0.949 . S
C207 C208 1.349 . S
C207 C209 1.327 . S
C207 H230 0.950 1_455 S
C208 C207 1.349 . S
C208 C220 1.349 . S
C209 C207 1.327 . S
C209 C225 1.429 . S
C209 H231 0.950 1_455 S
C210 H206 0.949 . S
C210 C218 1.574 . S
C210 C226 1.368 . S
H211 C219 0.950 1_655 S
H212 C217 0.950 1_655 S
H213 C218 0.949 . S
H214 C220 0.950 . S
H215 C221 0.950 . S
H216 C222 0.949 1_655 S
C217 H212 0.950 1_455 S
C217 C219 1.327 . S
C217 C223 1.429 . S
C218 C210 1.574 . S
C218 H213 0.949 . S
C218 C224 1.368 . S
C219 C203 1.349 . S
C219 H211 0.950 1_455 S
C219 C217 1.327 . S
C220 C208 1.349 . S
C220 H214 0.950 . S
C220 C221 1.327 . S
C221 H215 0.950 . S
C221 C220 1.327 . S
C221 C225 1.429 . S
C222 C205 1.574 . S
C222 H216 0.949 1_455 S
C222 C226 1.368 . S
C223 C204 1.429 . S
C223 C217 1.429 . S
C223 C224 1.523 . S
C224 C205 1.368 . S
C224 C218 1.368 . S
C224 C223 1.523 . S
C225 C209 1.429 . S
C225 C221 1.429 . S
C225 C226 1.523 . S
C226 C210 1.368 . S
C226 C222 1.368 . S
C226 C225 1.523 . S
H227 C202 0.950 . S
H228 C204 0.950 . S
H229 C205 0.949 1_655 S
H230 C207 0.950 1_655 S
H231 C209 0.950 1_655 S
C232 C233 1.349 . S
C232 C234 1.327 . S
C232 H257 0.950 1_545 S
C233 C232 1.349 . S
C233 C249 1.349 . S
C234 C232 1.327 . S
C234 C253 1.429 . S
C234 H258 0.950 1_545 S
C235 C252 1.574 . S
C235 C254 1.368 . S
C235 H259 0.949 . S
H236 C240 0.949 . S
C237 C238 1.349 . S
C237 C239 1.327 . S
C237 H260 0.950 . S
C238 C237 1.349 . S
C238 C250 1.349 . S
C239 C237 1.327 . S
C239 C255 1.429 . S
C239 H261 0.950 . S
C240 H236 0.949 . S
C240 C248 1.574 . S
C240 C256 1.368 . S
H241 C249 0.950 . S
H242 C247 0.950 . S
H243 C248 0.949 1_565 S
H244 C250 0.950 . S
H245 C251 0.950 . S
H246 C252 0.949 . S
C247 H242 0.950 . S
C247 C249 1.327 . S
C247 C253 1.429 . S
C248 C240 1.574 . S
C248 H243 0.949 1_545 S
C248 C254 1.368 . S
C249 C233 1.349 . S
C249 H241 0.950 . S
C249 C247 1.327 . S
C250 C238 1.349 . S
C250 H244 0.950 . S
C250 C251 1.327 . S
C251 H245 0.950 . S
C251 C250 1.327 . S
C251 C255 1.429 . S
C252 C235 1.574 . S
C252 H246 0.949 . S
C252 C256 1.368 . S
C253 C234 1.429 . S
C253 C247 1.429 . S
C253 C254 1.523 . S
C254 C235 1.368 . S
C254 C248 1.368 . S
C254 C253 1.523 . S
C255 C239 1.429 . S
C255 C251 1.429 . S
C255 C256 1.523 . S
C256 C240 1.368 . S
C256 C252 1.368 . S
C256 C255 1.523 . S
H257 C232 0.950 1_565 S
H258 C234 0.950 1_565 S
H259 C235 0.949 . S
H260 C237 0.950 . S
H261 C239 0.950 . S
C262 C263 1.349 . S
C262 C264 1.328 . S
C262 H287 0.950 1_455 S
C263 C262 1.349 . S
C263 C279 1.349 . S
C264 C262 1.328 . S
C264 C283 1.448 . S
C264 H288 0.931 1_455 S
C265 C282 1.574 . S
C265 C284 1.368 . S
C265 H289 0.949 . S
H266 C270 0.949 1_655 S
C267 C268 1.349 . S
C267 C269 1.327 . S
C267 H290 0.950 . S
C268 C267 1.349 . S
C268 C280 1.349 . S
C269 C267 1.327 . S
C269 C285 1.429 . S
C269 H291 0.950 . S
C270 H266 0.949 1_455 S
C270 C278 1.574 . S
C270 C286 1.368 . S
H271 C279 0.950 . S
H272 C277 0.950 . S
H273 C278 0.933 1_655 S
H274 C280 0.950 1_655 S
H275 C281 0.950 1_655 S
H276 C282 0.949 . S
C277 H272 0.950 . S
C277 C279 1.327 . S
C277 C283 1.429 . S
C278 C270 1.574 . S
C278 H273 0.933 1_455 S
C278 C284 1.386 . S
C279 C263 1.349 . S
C279 H271 0.950 . S
C279 C277 1.327 . S
C280 C268 1.349 . S
C280 H274 0.950 1_455 S
C280 C281 1.327 . S
C281 H275 0.950 1_455 S
C281 C280 1.327 . S
C281 C285 1.429 . S
C282 C265 1.574 . S
C282 H276 0.949 . S
C282 C286 1.368 . S
C283 C264 1.448 . S
C283 C277 1.429 . S
C283 C284 1.523 . S
C284 C265 1.368 . S
C284 C278 1.386 . S
C284 C283 1.523 . S
C285 C269 1.429 . S
C285 C281 1.429 . S
C285 C286 1.523 . S
C286 C270 1.368 . S
C286 C282 1.368 . S
C286 C285 1.523 . S
H287 C262 0.950 1_655 S
H288 C264 0.931 1_655 S
H289 C265 0.949 . S
H290 C267 0.950 . S
H291 C269 0.950 . S
C292 C293 1.349 . S
C292 C294 1.327 . S
C292 H317 0.950 1_545 S
C293 C292 1.349 . S
C293 C309 1.349 . S
C294 C292 1.327 . S
C294 C313 1.429 . S
C294 H318 0.950 1_545 S
C295 C312 1.574 . S
C295 C314 1.368 . S
C295 H319 0.949 . S
H296 C300 0.949 . S
C297 C298 1.349 . S
C297 C299 1.327 . S
C297 H320 0.950 . S
C298 C297 1.349 . S
C298 C310 1.349 . S
C299 C297 1.327 . S
C299 C315 1.429 . S
C299 H321 0.950 . S
C300 H296 0.949 . S
C300 C308 1.574 . S
C300 C316 1.368 . S
H301 C309 0.950 . S
H302 C307 0.950 . S
H303 C308 0.949 1_565 S
H304 C310 0.950 . S
H305 C311 0.950 . S
H306 C312 0.949 . S
C307 H302 0.950 . S
C307 C309 1.327 . S
C307 C313 1.429 . S
C308 C300 1.574 . S
C308 H303 0.949 1_545 S
C308 C314 1.368 . S
C309 C293 1.349 . S
C309 H301 0.950 . S
C309 C307 1.327 . S
C310 C298 1.349 . S
C310 H304 0.950 . S
C310 C311 1.327 . S
C311 H305 0.950 . S
C311 C310 1.327 . S
C311 C315 1.429 . S
C312 C295 1.574 . S
C312 H306 0.949 . S
C312 C316 1.368 . S
C313 C294 1.429 . S
C313 C307 1.429 . S
C313 C314 1.523 . S
C314 C295 1.368 . S
C314 C308 1.368 . S
C314 C313 1.523 . S
C315 C299 1.429 . S
C315 C311 1.429 . S
C315 C316 1.523 . S
C316 C300 1.368 . S
C316 C312 1.368 . S
C316 C315 1.523 . S
H317 C292 0.950 1_565 S
H318 C294 0.950 1_565 S
H319 C295 0.949 . S
H320 C297 0.950 . S
H321 C299 0.950 . S
C322 C323 1.349 . S
C322 C324 1.327 . S
C322 H347 0.950 . S
C323 C322 1.349 . S
C323 C339 1.349 . S
C324 C322 1.327 . S
C324 C343 1.429 . S
C324 H348 0.950 . S
C325 C342 1.574 . S
C325 C344 1.368 . S
C325 H349 0.949 1_455 S
H326 C330 0.949 . S
C327 C328 1.349 . S
C327 C329 1.328 . S
C327 H350 0.950 1_455 S
C328 C327 1.349 . S
C328 C340 1.349 . S
C329 C327 1.328 . S
C329 C345 1.448 . S
C329 H351 0.930 1_455 S
C330 H326 0.949 . S
C330 C338 1.574 . S
C330 C346 1.368 . S
H331 C339 0.950 1_655 S
H332 C337 0.950 1_655 S
H333 C338 0.949 . S
H334 C340 0.950 . S
H335 C341 0.950 . S
H336 C342 0.933 1_655 S
C337 H332 0.950 1_455 S
C337 C339 1.327 . S
C337 C343 1.429 . S
C338 C330 1.574 . S
C338 H333 0.949 . S
C338 C344 1.368 . S
C339 C323 1.349 . S
C339 H331 0.950 1_455 S
C339 C337 1.327 . S
C340 C328 1.349 . S
C340 H334 0.950 . S
C340 C341 1.327 . S
C341 H335 0.950 . S
C341 C340 1.327 . S
C341 C345 1.429 . S
C342 C325 1.574 . S
C342 H336 0.933 1_455 S
C342 C346 1.387 . S
C343 C324 1.429 . S
C343 C337 1.429 . S
C343 C344 1.523 . S
C344 C325 1.368 . S
C344 C338 1.368 . S
C344 C343 1.523 . S
C345 C329 1.448 . S
C345 C341 1.429 . S
C345 C346 1.523 . S
C346 C330 1.368 . S
C346 C342 1.387 . S
C346 C345 1.523 . S
H347 C322 0.950 . S
H348 C324 0.950 . S
H349 C325 0.949 1_655 S
H350 C327 0.950 1_655 S
H351 C329 0.930 1_655 S
C352 C353 1.349 . S
C352 C354 1.327 . S
C352 H377 0.950 . S
C353 C352 1.349 . S
C353 C369 1.349 . S
C354 C352 1.327 . S
C354 C373 1.429 . S
C354 H378 0.950 . S
C355 C372 1.574 . S
C355 C374 1.368 . S
C355 H379 0.949 . S
H356 C360 0.949 . S
C357 C358 1.349 . S
C357 C359 1.327 . S
C357 H380 0.950 . S
C358 C357 1.349 . S
C358 C370 1.349 . S
C359 C357 1.327 . S
C359 C375 1.429 . S
C359 H381 0.950 . S
C360 H356 0.949 . S
C360 C368 1.574 . S
C360 C376 1.368 . S
H361 C369 0.950 . S
H362 C367 0.950 . S
H363 C368 0.949 . S
H364 C370 0.950 . S
H365 C371 0.950 . S
H366 C372 0.949 . S
C367 H362 0.950 . S
C367 C369 1.327 . S
C367 C373 1.429 . S
C368 C360 1.574 . S
C368 H363 0.949 . S
C368 C374 1.368 . S
C369 C353 1.349 . S
C369 H361 0.950 . S
C369 C367 1.327 . S
C370 C358 1.349 . S
C370 H364 0.950 . S
C370 C371 1.327 . S
C371 H365 0.950 . S
C371 C370 1.327 . S
C371 C375 1.429 . S
C372 C355 1.574 . S
C372 H366 0.949 . S
C372 C376 1.368 . S
C373 C354 1.429 . S
C373 C367 1.429 . S
C373 C374 1.523 . S
C374 C355 1.368 . S
C374 C368 1.368 . S
C374 C373 1.523 . S
C375 C359 1.429 . S
C375 C371 1.429 . S
C375 C376 1.523 . S
C376 C360 1.368 . S
C376 C372 1.368 . S
C376 C375 1.523 . S
H377 C352 0.950 . S
H378 C354 0.950 . S
H379 C355 0.949 . S
H380 C357 0.950 . S
H381 C359 0.950 . S
C382 C383 1.349 . S
C382 C384 1.327 . S
C382 H407 0.950 . S
C383 C382 1.349 . S
C383 C399 1.349 . S
C384 C382 1.327 . S
C384 C403 1.429 . S
C384 H408 0.950 . S
C385 C402 1.574 . S
C385 C404 1.368 . S
C385 H409 0.949 . S
H386 C390 0.949 . S
C387 C388 1.349 . S
C387 C389 1.327 . S
C387 H410 0.950 . S
C388 C387 1.349 . S
C388 C400 1.349 . S
C389 C387 1.327 . S
C389 C405 1.429 . S
C389 H411 0.950 . S
C390 H386 0.949 . S
C390 C398 1.574 . S
C390 C406 1.368 . S
H391 C399 0.950 . S
H392 C397 0.950 . S
H393 C398 0.949 . S
H394 C400 0.950 . S
H395 C401 0.950 . S
H396 C402 0.949 . S
C397 H392 0.950 . S
C397 C399 1.327 . S
C397 C403 1.429 . S
C398 C390 1.574 . S
C398 H393 0.949 . S
C398 C404 1.368 . S
C399 C383 1.349 . S
C399 H391 0.950 . S
C399 C397 1.327 . S
C400 C388 1.349 . S
C400 H394 0.950 . S
C400 C401 1.327 . S
C401 H395 0.950 . S
C401 C400 1.327 . S
C401 C405 1.429 . S
C402 C385 1.574 . S
C402 H396 0.949 . S
C402 C406 1.368 . S
C403 C384 1.429 . S
C403 C397 1.429 . S
C403 C404 1.523 . S
C404 C385 1.368 . S
C404 C398 1.368 . S
C404 C403 1.523 . S
C405 C389 1.429 . S
C405 C401 1.429 . S
C405 C406 1.523 . S
C406 C390 1.368 . S
C406 C402 1.368 . S
C406 C405 1.523 . S
H407 C382 0.950 . S
H408 C384 0.950 . S
H409 C385 0.949 . S
H410 C387 0.950 . S
H411 C389 0.950 . S
C412 C413 1.349 . S
C412 C414 1.327 . S
C412 H437 0.950 . S
C413 C412 1.349 . S
C413 C429 1.349 . S
C414 C412 1.327 . S
C414 C433 1.429 . S
C414 H438 0.950 . S
C415 C432 1.574 . S
C415 C434 1.368 . S
C415 H439 0.949 . S
H416 C420 0.949 . S
C417 C418 1.349 . S
C417 C419 1.327 . S
C417 H440 0.950 . S
C418 C417 1.349 . S
C418 C430 1.349 . S
C419 C417 1.327 . S
C419 C435 1.429 . S
C419 H441 0.950 . S
C420 H416 0.949 . S
C420 C428 1.574 . S
C420 C436 1.368 . S
H421 C429 0.950 . S
H422 C427 0.950 . S
H423 C428 0.949 . S
H424 C430 0.950 . S
H425 C431 0.950 . S
H426 C432 0.949 . S
C427 H422 0.950 . S
C427 C429 1.327 . S
C427 C433 1.429 . S
C428 C420 1.574 . S
C428 H423 0.949 . S
C428 C434 1.368 . S
C429 C413 1.349 . S
C429 H421 0.950 . S
C429 C427 1.327 . S
C430 C418 1.349 . S
C430 H424 0.950 . S
C430 C431 1.327 . S
C431 H425 0.950 . S
C431 C430 1.327 . S
C431 C435 1.429 . S
C432 C415 1.574 . S
C432 H426 0.949 . S
C432 C436 1.368 . S
C433 C414 1.429 . S
C433 C427 1.429 . S
C433 C434 1.523 . S
C434 C415 1.368 . S
C434 C428 1.368 . S
C434 C433 1.523 . S
C435 C419 1.429 . S
C435 C431 1.429 . S
C435 C436 1.523 . S
C436 C420 1.368 . S
C436 C432 1.368 . S
C436 C435 1.523 . S
H437 C412 0.950 . S
H438 C414 0.950 . S
H439 C415 0.949 . S
H440 C417 0.950 . S
H441 C419 0.950 . S
C442 C443 1.349 . S
C442 C444 1.327 . S
C442 H467 0.950 . S
C443 C442 1.349 . S
C443 C459 1.349 . S
C444 C442 1.327 . S
C444 C463 1.429 . S
C444 H468 0.950 . S
C445 C462 1.574 . S
C445 C464 1.368 . S
C445 H469 0.949 . S
H446 C450 0.949 . S
C447 C448 1.349 . S
C447 C449 1.327 . S
C447 H470 0.950 . S
C448 C447 1.349 . S
C448 C460 1.349 . S
C449 C447 1.327 . S
C449 C465 1.429 . S
C449 H471 0.950 . S
C450 H446 0.949 . S
C450 C458 1.574 . S
C450 C466 1.368 . S
H451 C459 0.950 . S
H452 C457 0.950 . S
H453 C458 0.949 . S
H454 C460 0.950 . S
H455 C461 0.950 . S
H456 C462 0.949 . S
C457 H452 0.950 . S
C457 C459 1.327 . S
C457 C463 1.429 . S
C458 C450 1.574 . S
C458 H453 0.949 . S
C458 C464 1.368 . S
C459 C443 1.349 . S
C459 H451 0.950 . S
C459 C457 1.327 . S
C460 C448 1.349 . S
C460 H454 0.950 . S
C460 C461 1.327 . S
C461 H455 0.950 . S
C461 C460 1.327 . S
C461 C465 1.429 . S
C462 C445 1.574 . S
C462 H456 0.949 . S
C462 C466 1.368 . S
C463 C444 1.429 . S
C463 C457 1.429 . S
C463 C464 1.523 . S
C464 C445 1.368 . S
C464 C458 1.368 . S
C464 C463 1.523 . S
C465 C449 1.429 . S
C465 C461 1.429 . S
C465 C466 1.523 . S
C466 C450 1.368 . S
C466 C462 1.368 . S
C466 C465 1.523 . S
H467 C442 0.950 . S
H468 C444 0.950 . S
H469 C445 0.949 . S
H470 C447 0.950 . S
H471 C449 0.950 . S
C472 C473 1.349 . S
C472 C474 1.327 . S
C472 H497 0.950 . S
C473 C472 1.349 . S
C473 C489 1.349 . S
C474 C472 1.327 . S
C474 C493 1.429 . S
C474 H498 0.950 . S
C475 C492 1.574 . S
C475 C494 1.368 . S
C475 H499 0.949 . S
H476 C480 0.949 . S
C477 C478 1.349 . S
C477 C479 1.327 . S
C477 H500 0.950 . S
C478 C477 1.349 . S
C478 C490 1.349 . S
C479 C477 1.327 . S
C479 C495 1.429 . S
C479 H501 0.950 . S
C480 H476 0.949 . S
C480 C488 1.574 . S
C480 C496 1.368 . S
H481 C489 0.950 . S
H482 C487 0.950 . S
H483 C488 0.949 . S
H484 C490 0.950 . S
H485 C491 0.950 . S
H486 C492 0.949 . S
C487 H482 0.950 . S
C487 C489 1.327 . S
C487 C493 1.429 . S
C488 C480 1.574 . S
C488 H483 0.949 . S
C488 C494 1.368 . S
C489 C473 1.349 . S
C489 H481 0.950 . S
C489 C487 1.327 . S
C490 C478 1.349 . S
C490 H484 0.950 . S
C490 C491 1.327 . S
C491 H485 0.950 . S
C491 C490 1.327 . S
C491 C495 1.429 . S
C492 C475 1.574 . S
C492 H486 0.949 . S
C492 C496 1.368 . S
C493 C474 1.429 . S
C493 C487 1.429 . S
C493 C494 1.523 . S
C494 C475 1.368 . S
C494 C488 1.368 . S
C494 C493 1.523 . S
C495 C479 1.429 . S
C495 C491 1.429 . S
C495 C496 1.523 . S
C496 C480 1.368 . S
C496 C492 1.368 . S
C496 C495 1.523 . S
H497 C472 0.950 . S
H498 C474 0.950 . S
H499 C475 0.949 . S
H500 C477 0.950 . S
H501 C479 0.950 . S
C502 C503 1.349 . S
C502 C504 1.327 . S
C502 H527 0.950 . S
C503 C502 1.349 . S
C503 C519 1.349 . S
C504 C502 1.327 . S
C504 C523 1.429 . S
C504 H528 0.950 . S
C505 C522 1.574 . S
C505 C524 1.368 . S
C505 H529 0.949 . S
H506 C510 0.949 . S
C507 C508 1.349 . S
C507 C509 1.327 . S
C507 H530 0.950 . S
C508 C507 1.349 . S
C508 C520 1.349 . S
C509 C507 1.327 . S
C509 C525 1.429 . S
C509 H531 0.950 . S
C510 H506 0.949 . S
C510 C518 1.574 . S
C510 C526 1.368 . S
H511 C519 0.950 . S
H512 C517 0.950 . S
H513 C518 0.949 . S
H514 C520 0.950 . S
H515 C521 0.950 . S
H516 C522 0.949 . S
C517 H512 0.950 . S
C517 C519 1.327 . S
C517 C523 1.429 . S
C518 C510 1.574 . S
C518 H513 0.949 . S
C518 C524 1.368 . S
C519 C503 1.349 . S
C519 H511 0.950 . S
C519 C517 1.327 . S
C520 C508 1.349 . S
C520 H514 0.950 . S
C520 C521 1.327 . S
C521 H515 0.950 . S
C521 C520 1.327 . S
C521 C525 1.429 . S
C522 C505 1.574 . S
C522 H516 0.949 . S
C522 C526 1.368 . S
C523 C504 1.429 . S
C523 C517 1.429 . S
C523 C524 1.523 . S
C524 C505 1.368 . S
C524 C518 1.368 . S
C524 C523 1.523 . S
C525 C509 1.429 . S
C525 C521 1.429 . S
C525 C526 1.523 . S
C526 C510 1.368 . S
C526 C522 1.368 . S
C526 C525 1.523 . S
H527 C502 0.950 . S
H528 C504 0.950 . S
H529 C505 0.949 . S
H530 C507 0.950 . S
H531 C509 0.950 . S
C532 C533 1.349 . S
C532 C534 1.327 . S
C532 H557 0.950 . S
C533 C532 1.349 . S
C533 C549 1.349 . S
C534 C532 1.327 . S
C534 C553 1.429 . S
C534 H558 0.950 . S
C535 C552 1.574 . S
C535 C554 1.368 . S
C535 H559 0.949 . S
H536 C540 0.949 . S
C537 C538 1.349 . S
C537 C539 1.327 . S
C537 H560 0.950 . S
C538 C537 1.349 . S
C538 C550 1.349 . S
C539 C537 1.327 . S
C539 C555 1.429 . S
C539 H561 0.950 . S
C540 H536 0.949 . S
C540 C548 1.574 . S
C540 C556 1.368 . S
H541 C549 0.950 . S
H542 C547 0.950 . S
H543 C548 0.949 . S
H544 C550 0.950 . S
H545 C551 0.950 . S
H546 C552 0.949 . S
C547 H542 0.950 . S
C547 C549 1.327 . S
C547 C553 1.429 . S
C548 C540 1.574 . S
C548 H543 0.949 . S
C548 C554 1.368 . S
C549 C533 1.349 . S
C549 H541 0.950 . S
C549 C547 1.327 . S
C550 C538 1.349 . S
C550 H544 0.950 . S
C550 C551 1.327 . S
C551 H545 0.950 . S
C551 C550 1.327 . S
C551 C555 1.429 . S
C552 C535 1.574 . S
C552 H546 0.949 . S
C552 C556 1.368 . S
C553 C534 1.429 . S
C553 C547 1.429 . S
C553 C554 1.523 . S
C554 C535 1.368 . S
C554 C548 1.368 . S
C554 C553 1.523 . S
C555 C539 1.429 . S
C555 C551 1.429 . S
C555 C556 1.523 . S
C556 C540 1.368 . S
C556 C552 1.368 . S
C556 C555 1.523 . S
H557 C532 0.950 . S
H558 C534 0.950 . S
H559 C535 0.949 . S
H560 C537 0.950 . S
H561 C539 0.950 . S
C562 C563 1.349 . S
C562 C564 1.327 . S
C562 H587 0.950 . S
C563 C562 1.349 . S
C563 C579 1.349 . S
C564 C562 1.327 . S
C564 C583 1.429 . S
C564 H588 0.950 . S
C565 C582 1.574 . S
C565 C584 1.368 . S
C565 H589 0.949 . S
H566 C570 0.949 . S
C567 C568 1.349 . S
C567 C569 1.327 . S
C567 H590 0.950 . S
C568 C567 1.349 . S
C568 C580 1.349 . S
C569 C567 1.327 . S
C569 C585 1.429 . S
C569 H591 0.950 . S
C570 H566 0.949 . S
C570 C578 1.574 . S
C570 C586 1.368 . S
H571 C579 0.950 . S
H572 C577 0.950 . S
H573 C578 0.949 . S
H574 C580 0.950 . S
H575 C581 0.950 . S
H576 C582 0.949 . S
C577 H572 0.950 . S
C577 C579 1.327 . S
C577 C583 1.429 . S
C578 C570 1.574 . S
C578 H573 0.949 . S
C578 C584 1.368 . S
C579 C563 1.349 . S
C579 H571 0.950 . S
C579 C577 1.327 . S
C580 C568 1.349 . S
C580 H574 0.950 . S
C580 C581 1.327 . S
C581 H575 0.950 . S
C581 C580 1.327 . S
C581 C585 1.429 . S
C582 C565 1.574 . S
C582 H576 0.949 . S
C582 C586 1.368 . S
C583 C564 1.429 . S
C583 C577 1.429 . S
C583 C584 1.523 . S
C584 C565 1.368 . S
C584 C578 1.368 . S
C584 C583 1.523 . S
C585 C569 1.429 . S
C585 C581 1.429 . S
C585 C586 1.523 . S
C586 C570 1.368 . S
C586 C582 1.368 . S
C586 C585 1.523 . S
H587 C562 0.950 . S
H588 C564 0.950 . S
H589 C565 0.949 . S
H590 C567 0.950 . S
H591 C569 0.950 . S
C113 C4 1.506 . S
C118 C60 1.506 . S
C143 C26 1.604 . S
C148 C82 1.604 . S
C173 C88 1.506 . S
C178 C32 1.506 . S
C203 C110 1.604 . S
C208 C54 1.604 . S
C233 C5 0.897 . S
C238 C33 0.897 . S
C263 C25 0.794 . S
C268 C53 0.794 . S
C293 C89 0.897 . S
C298 C61 0.897 . S
C323 C81 0.794 . S
C328 C109 0.794 . S
C353 C75 0.914 . S
C358 C11 0.988 . S
C383 C19 0.914 . S
C388 C95 0.988 . S
C413 C103 0.914 . S
C418 C39 0.988 . S
C443 C47 0.914 . S
C448 C67 0.988 . S
C473 C96 1.396 . S
C478 C46 1.383 . S
C503 C12 1.396 . S
C508 C102 1.383 . S
C533 C18 1.383 . S
C538 C68 1.396 . S
C563 C74 1.383 . S
C568 C40 1.396 . S
