# Generated by pormake.
# Topology afw, (4)-cn, num edge types: 1
# Building blocks:
#     Node 0, Type 0, BuildingBlock: ICAMEG_clean_sbu_1, # of connection points: 4
#     Node 1, Type 0, BuildingBlock: ICAMEG_clean_sbu_1, # of connection points: 4
#     Node 2, Type 0, BuildingBlock: ICAMEG_clean_sbu_1, # of connection points: 4
#     Node 3, Type 0, BuildingBlock: ICAMEG_clean_sbu_1, # of connection points: 4
#     Node 4, Type 0, BuildingBlock: ICAMEG_clean_sbu_1, # of connection points: 4
#     Node 5, Type 0, BuildingBlock: ICAMEG_clean_sbu_1, # of connection points: 4
#     Node 6, Type 0, BuildingBlock: ICAMEG_clean_sbu_1, # of connection points: 4
#     Node 7, Type 0, BuildingBlock: ICAMEG_clean_sbu_1, # of connection points: 4
#     Node 8, Type 0, BuildingBlock: ICAMEG_clean_sbu_1, # of connection points: 4
#     Edge 9, Type (0, 0), BuildingBlock: AJUNOK_clean_linker_0, # of connection points: 2
#     Edge 10, Type (0, 0), BuildingBlock: AJUNOK_clean_linker_0, # of connection points: 2
#     Edge 11, Type (0, 0), BuildingBlock: AJUNOK_clean_linker_0, # of connection points: 2
#     Edge 12, Type (0, 0), BuildingBlock: AJUNOK_clean_linker_0, # of connection points: 2
#     Edge 13, Type (0, 0), BuildingBlock: AJUNOK_clean_linker_0, # of connection points: 2
#     Edge 14, Type (0, 0), BuildingBlock: AJUNOK_clean_linker_0, # of connection points: 2
#     Edge 15, Type (0, 0), BuildingBlock: AJUNOK_clean_linker_0, # of connection points: 2
#     Edge 16, Type (0, 0), BuildingBlock: AJUNOK_clean_linker_0, # of connection points: 2
#     Edge 17, Type (0, 0), BuildingBlock: AJUNOK_clean_linker_0, # of connection points: 2
#     Edge 18, Type (0, 0), BuildingBlock: AJUNOK_clean_linker_0, # of connection points: 2
#     Edge 19, Type (0, 0), BuildingBlock: AJUNOK_clean_linker_0, # of connection points: 2
#     Edge 20, Type (0, 0), BuildingBlock: AJUNOK_clean_linker_0, # of connection points: 2
#     Edge 21, Type (0, 0), BuildingBlock: AJUNOK_clean_linker_0, # of connection points: 2
#     Edge 22, Type (0, 0), BuildingBlock: AJUNOK_clean_linker_0, # of connection points: 2
#     Edge 23, Type (0, 0), BuildingBlock: AJUNOK_clean_linker_0, # of connection points: 2
#     Edge 24, Type (0, 0), BuildingBlock: AJUNOK_clean_linker_0, # of connection points: 2
#     Edge 25, Type (0, 0), BuildingBlock: AJUNOK_clean_linker_0, # of connection points: 2
#     Edge 26, Type (0, 0), BuildingBlock: AJUNOK_clean_linker_0, # of connection points: 2
# Relax obj value: 0.098
# Max RMSD: 0.142
# Mean RMSD: 0.141
data_MOF--net-afw--node1-ICAMEG_clean_sbu_1--edge1-AJUNOK_clean_linker_0
_symmetry_space_group_name_H-M    P1
_symmetry_Int_Tables_number       1
_symmetry_cell_setting            triclinic
loop_
_symmetry_equiv_pos_as_xyz
'x, y, z'
_cell_length_a     34.62612
_cell_length_b     34.644426
_cell_length_c     26.744589
_cell_angle_alpha  90.061988
_cell_angle_beta   90.016644
_cell_angle_gamma 120.01075
loop_
_atom_site_label
_atom_site_type_symbol
_atom_site_fract_x
_atom_site_fract_y
_atom_site_fract_z
_atom_type_partial_charge
Co0 Co 0.01249 0.1818 0.0925 0.0
Co1 Co 0.0102 0.19238 0.96419 0.0
O2 O 0.01414 0.21502 0.0325 0.0
C3 C 0.93967 0.20077 0.11297 0.0
O4 O 0.9244 0.18621 0.06782 0.0
C5 C 0.08808 0.26633 0.91431 0.0
O6 O 0.10196 0.23795 0.9056 0.0
O7 O 0.06003 0.18034 0.97823 0.0
O8 O 0.04974 0.1608 0.05945 0.0
H9 H 0.0089 0.08734 0.83332 0.0
H10 H 0.04026 0.27742 0.10135 0.0
O11 O 0.97505 0.202 0.12814 0.0
H12 H 0.16845 0.26562 0.16214 0.0
H13 H 0.01654 0.15804 0.27786 0.0
H14 H 0.00106 0.09219 0.11036 0.0
H15 H 0.09989 0.19882 0.13337 0.0
H16 H 0.01962 0.20028 0.2023 0.0
O17 O 0.05335 0.2546 0.94095 0.0
H18 H 0.01336 0.1158 0.91881 0.0
H19 H -0.00081 0.22268 0.86304 0.0
H20 H -0.00168 0.04909 0.18483 0.0
H21 H 0.10806 0.34506 0.13024 0.0
H22 H 0.00598 0.08193 0.26937 0.0
H23 H 0.17277 0.33938 0.16086 0.0
O24 O 0.95789 0.12763 0.06815 0.0
H25 H 0.93321 0.28263 0.97028 0.0
H26 H 0.91875 0.13892 0.92045 0.0
H27 H 0.85541 0.15154 0.90768 0.0
H28 H 0.86246 0.2239 0.93257 0.0
H29 H 0.99553 0.26838 0.98294 0.0
H30 H 0.99472 0.19556 0.77684 0.0
H31 H -0.00054 0.12731 0.7615 0.0
O32 O 0.96714 0.13012 0.98504 0.0
C33 C 0.06824 0.16457 0.01738 0.0
C34 C 0.00679 0.11712 0.83948 0.0
C35 C -0.00122 0.1778 0.8078 0.0
N36 N 0.00641 0.17077 0.89612 0.0
C37 C 0.00932 0.13339 0.88788 0.0
C38 C 0.00135 0.19302 0.85674 0.0
C39 C 0.00147 0.13954 0.79922 0.0
C40 C 0.0682 0.27469 0.11495 0.0
N41 N 0.06603 0.23423 0.11599 0.0
C42 C 0.10653 0.3131 0.13111 0.0
C43 C 0.14285 0.30989 0.14824 0.0
C44 C 0.14045 0.26852 0.14895 0.0
C45 C 0.10158 0.23083 0.1325 0.0
C46 C 0.01317 0.14337 0.24123 0.0
C47 C 0.0047 0.10688 0.14697 0.0
C48 C 0.01476 0.16708 0.19831 0.0
N49 N 0.01072 0.14883 0.15192 0.0
C50 C 0.00298 0.08222 0.18903 0.0
C51 C 0.00726 0.10068 0.23644 0.0
C52 C 0.94755 0.10961 0.02488 0.0
C53 C 0.9298 0.25104 0.95908 0.0
C54 C 0.92205 0.17041 0.93153 0.0
C55 C 0.8861 0.17743 0.92408 0.0
C56 C 0.89008 0.21804 0.938 0.0
N57 N 0.96098 0.20301 0.95204 0.0
C58 C 0.96504 0.24284 0.96596 0.0
Co59 Co 0.82691 0.83113 0.96652 0.0
Co60 Co 0.8342 0.84288 0.09541 0.0
O61 O 0.80323 0.8115 0.03421 0.0
C62 C 0.75465 0.8377 0.91589 0.0
O63 O 0.78404 0.87965 0.90715 0.0
C64 C 0.81961 0.75221 0.11399 0.0
O65 O 0.83341 0.75171 0.0684 0.0
O66 O 0.89094 0.84708 0.07221 0.0
O67 O 0.88823 0.84808 0.98848 0.0
H68 H 0.9615 0.96396 0.19247 0.0
H69 H 0.74959 0.74113 0.9844 0.0
O70 O 0.7654 0.81394 0.9425 0.0
H71 H 0.86357 0.7151 0.90639 0.0
H72 H 0.82608 0.81725 0.7786 0.0
H73 H 0.90685 0.9095 0.92461 0.0
H74 H 0.87814 0.79152 0.92058 0.0
H75 H 0.79674 0.79311 0.86382 0.0
O76 O 0.81722 0.78556 0.12962 0.0
H77 H 0.92093 0.92397 0.11641 0.0
H78 H 0.81366 0.82837 0.20464 0.0
H79 H 0.93742 0.93483 0.84013 0.0
H80 H 0.73332 0.66408 0.97035 0.0
H81 H 0.89695 0.88857 0.76634 0.0
H82 H 0.79061 0.65065 0.93126 0.0
O83 O 0.83997 0.89334 0.98127 0.0
H84 H 0.66919 0.7638 0.12706 0.0
H85 H 0.80982 0.90721 0.13937 0.0
H86 H 0.73959 0.90255 0.1666 0.0
H87 H 0.6686 0.83037 0.16067 0.0
H88 H 0.74019 0.77014 0.09976 0.0
H89 H 0.85315 0.86735 0.28169 0.0
H90 H 0.92755 0.93576 0.27587 0.0
O91 O 0.85172 0.90091 0.06404 0.0
C92 C 0.90873 0.85159 0.0292 0.0
C93 C 0.929 0.93433 0.19549 0.0
C94 C 0.86823 0.88003 0.24556 0.0
N95 N 0.86484 0.87401 0.15603 0.0
C96 C 0.90583 0.91155 0.15254 0.0
C97 C 0.84607 0.85805 0.2018 0.0
C98 C 0.90997 0.91843 0.24227 0.0
C99 C 0.77456 0.7356 0.96692 0.0
N100 N 0.81475 0.77091 0.95311 0.0
C101 C 0.76519 0.69187 0.95922 0.0
C102 C 0.79737 0.68436 0.93736 0.0
C103 C 0.83832 0.7205 0.92346 0.0
C104 C 0.84649 0.76376 0.93176 0.0
C105 C 0.84401 0.83772 0.81044 0.0
C106 C 0.88897 0.88919 0.89272 0.0
C107 C 0.82752 0.82425 0.85878 0.0
N108 N 0.84998 0.84992 0.89921 0.0
C109 C 0.90648 0.90371 0.84495 0.0
C110 C 0.88377 0.87774 0.80359 0.0
C111 C 0.8513 0.91667 0.02129 0.0
C112 C 0.6999 0.79543 0.12987 0.0
C113 C 0.77907 0.87582 0.1363 0.0
C114 C 0.7394 0.87331 0.15198 0.0
C115 C 0.69959 0.8328 0.14868 0.0
N116 N 0.77912 0.83901 0.118 0.0
C117 C 0.74021 0.79919 0.11458 0.0
Co118 Co 0.17729 0.00558 0.09154 0.0
Co119 Co 0.18122 0.00464 0.96332 0.0
O120 O 0.20679 0.00568 0.02908 0.0
C121 C 0.26772 0.08345 0.11039 0.0
O122 O 0.26452 0.10206 0.06901 0.0
C123 C 0.19525 0.92725 0.94338 0.0
O124 O 0.1651 0.90331 0.97704 0.0
O125 O 0.1238 0.95037 0.98186 0.0
O126 O 0.11777 0.96501 0.06223 0.0
H127 H 0.06275 0.99169 0.84437 0.0
H128 H 0.24946 0.98333 0.09201 0.0
O129 O 0.23614 0.04546 0.12354 0.0
H130 H 0.11852 0.85171 0.16317 0.0
H131 H 0.15827 0.00072 0.27874 0.0
H132 H 0.09715 0.01186 0.11632 0.0
H133 H 0.11371 0.91738 0.13697 0.0
H134 H 0.19494 -7e-05 0.20002 0.0
O135 O 0.20594 0.96766 0.93595 0.0
H136 H 0.09534 0.99406 0.92697 0.0
H137 H 0.21396 0.01241 0.85848 0.0
H138 H 0.05916 0.01228 0.19406 0.0
H139 H 0.25593 0.91857 0.11826 0.0
H140 H 0.08974 0.00671 0.27605 0.0
H141 H 0.19011 0.85211 0.15407 0.0
O142 O 0.17263 0.05809 0.06906 0.0
H143 H 0.34788 0.10026 0.95246 0.0
H144 H 0.20413 0.09231 0.91809 0.0
H145 H 0.27429 0.16108 0.89795 0.0
H146 H 0.34684 0.16531 0.91501 0.0
H147 H 0.27692 0.03228 0.97247 0.0
H148 H 0.18252 0.00979 0.77504 0.0
H149 H 0.10641 -0.0005 0.76756 0.0
O150 O 0.15626 0.04181 0.9878 0.0
C151 C 0.10128 0.94303 0.02211 0.0
C152 C 0.09599 0.99628 0.8471 0.0
C153 C 0.16315 0.00632 0.80821 0.0
N154 N 0.15652 0.00338 0.8977 0.0
C155 C 0.11467 0.99777 0.89384 0.0
C156 C 0.18071 0.00759 0.8556 0.0
C157 C 0.12047 0.0006 0.80404 0.0
C158 C 0.22073 0.95461 0.10778 0.0
N159 N 0.18128 0.9542 0.11307 0.0
C160 C 0.22457 0.918 0.12247 0.0
C161 C 0.18761 0.88072 0.14252 0.0
C162 C 0.14743 0.88046 0.14761 0.0
C163 C 0.14485 0.91768 0.13252 0.0
C164 C 0.14463 0.00317 0.24324 0.0
C165 C 0.11062 0.00926 0.15181 0.0
C166 C 0.16537 0.00292 0.19854 0.0
N167 N 0.1482 0.00574 0.15356 0.0
C168 C 0.08897 0.00959 0.19573 0.0
C169 C 0.10616 0.0065 0.24171 0.0
C170 C 0.15837 0.06339 0.02712 0.0
C171 C 0.31648 0.09878 0.9447 0.0
C172 C 0.23556 0.09393 0.92575 0.0
C173 C 0.27518 0.13293 0.91417 0.0
C174 C 0.31587 0.13528 0.92374 0.0
N175 N 0.23644 0.0582 0.9461 0.0
C176 C 0.2762 0.06032 0.95578 0.0
Co177 Co 0.66617 0.51472 0.27385 0.0
Co178 Co 0.67883 0.53075 0.4024 0.0
O179 O 0.67059 0.54807 0.33498 0.0
C180 C 0.74377 0.60366 0.25152 0.0
O181 O 0.75803 0.60581 0.2975 0.0
C182 C 0.59964 0.51937 0.45646 0.0
O183 O 0.59098 0.4787 0.46634 0.0
O184 O 0.63146 0.46729 0.39056 0.0
O185 O 0.62519 0.45804 0.30742 0.0
H186 H 0.69839 0.43425 0.52833 0.0
H187 H 0.64924 0.59032 0.26955 0.0
O188 O 0.70714 0.57059 0.23729 0.0
H189 H 0.50981 0.45973 0.2115 0.0
H190 H 0.65114 0.48576 0.0882 0.0
H191 H 0.66785 0.43158 0.25271 0.0
H192 H 0.57448 0.45219 0.23556 0.0
H193 H 0.65509 0.52686 0.16518 0.0
O194 O 0.633 0.54488 0.42907 0.0
H195 H 0.68745 0.45618 0.44421 0.0
H196 H 0.68885 0.57037 0.5044 0.0
H197 H 0.66422 0.38959 0.17669 0.0
H198 H 0.58554 0.59952 0.24533 0.0
H199 H 0.65558 0.41649 0.09369 0.0
H200 H 0.51517 0.53388 0.21614 0.0
O201 O 0.7181 0.50824 0.29426 0.0
H202 H 0.74353 0.69681 0.3978 0.0
H203 H 0.77246 0.57525 0.44095 0.0
H204 H 0.83208 0.65326 0.45231 0.0
H205 H 0.81775 0.71472 0.43076 0.0
H206 H 0.685 0.61827 0.38656 0.0
H207 H 0.69976 0.54964 0.58927 0.0
H208 H 0.70465 0.48115 0.60164 0.0
O209 O 0.72419 0.51633 0.37761 0.0
C210 C 0.61432 0.44328 0.35167 0.0
C211 C 0.6963 0.46416 0.52346 0.0
C212 C 0.69708 0.52893 0.55763 0.0
N213 N 0.68749 0.51449 0.46934 0.0
C214 C 0.69008 0.47675 0.47589 0.0
C215 C 0.69088 0.54048 0.5095 0.0
C216 C 0.69981 0.49049 0.56455 0.0
C217 C 0.6188 0.56166 0.25663 0.0
N218 N 0.6156 0.52078 0.25388 0.0
C219 C 0.58281 0.56705 0.24308 0.0
C220 C 0.54333 0.5302 0.22675 0.0
C221 C 0.54028 0.48858 0.22419 0.0
C222 C 0.57694 0.48446 0.23806 0.0
C223 C 0.65472 0.47358 0.12416 0.0
C224 C 0.66397 0.44348 0.21675 0.0
C225 C 0.65704 0.49675 0.16787 0.0
N226 N 0.66153 0.48157 0.21342 0.0
C227 C 0.66192 0.41953 0.17383 0.0
C228 C 0.6572 0.43472 0.12727 0.0
C229 C 0.73627 0.50826 0.33585 0.0
C230 C 0.75015 0.67032 0.40745 0.0
C231 C 0.76602 0.60175 0.43125 0.0
C232 C 0.79987 0.64589 0.43792 0.0
C233 C 0.7918 0.68035 0.42587 0.0
N234 N 0.72521 0.59216 0.41327 0.0
C235 C 0.71708 0.62578 0.40135 0.0
Co236 Co 0.50164 0.17666 0.28647 0.0
Co237 Co 0.50282 0.16894 0.41423 0.0
O238 O 0.47573 0.14514 0.34895 0.0
C239 C 0.42558 0.17648 0.23645 0.0
O240 O 0.45109 0.2199 0.23242 0.0
C241 C 0.50445 0.09211 0.46017 0.0
O242 O 0.54787 0.11757 0.46453 0.0
O243 O 0.56063 0.1755 0.39061 0.0
O244 O 0.56314 0.19985 0.3122 0.0
H245 H 0.62496 0.27373 0.53008 0.0
H246 H 0.43441 0.08042 0.28394 0.0
O247 O 0.43999 0.15385 0.2593 0.0
H248 H 0.56908 0.09237 0.20623 0.0
H249 H 0.51529 0.19354 0.09889 0.0
H250 H 0.57536 0.26703 0.26115 0.0
H251 H 0.5689 0.15948 0.23668 0.0
H252 H 0.48295 0.15357 0.17784 0.0
O253 O 0.48175 0.10653 0.43757 0.0
H254 H 0.58975 0.24362 0.44839 0.0
H255 H 0.47341 0.14321 0.52032 0.0
H256 H 0.6087 0.30808 0.1832 0.0
H257 H 0.43291 0.01251 0.25334 0.0
H258 H 0.57864 0.2714 0.10128 0.0
H259 H 0.50064 0.01824 0.21421 0.0
O260 O 0.50241 0.23064 0.31337 0.0
H261 H 0.33603 0.08971 0.43185 0.0
H262 H 0.4767 0.22818 0.46811 0.0
H263 H 0.40542 0.22156 0.4943 0.0
H264 H 0.33438 0.15179 0.47647 0.0
H265 H 0.40809 0.09802 0.40576 0.0
H266 H 0.50741 0.17213 0.60287 0.0
H267 H 0.5837 0.23795 0.60814 0.0
O268 O 0.5236 0.23145 0.3927 0.0
C269 C 0.5814 0.19366 0.35021 0.0
C270 C 0.59169 0.24504 0.52831 0.0
C271 C 0.52572 0.18805 0.56914 0.0
N272 N 0.52949 0.19178 0.47946 0.0
C273 C 0.57158 0.22782 0.48211 0.0
C274 C 0.50664 0.1718 0.52227 0.0
C275 C 0.56852 0.22496 0.57207 0.0
C276 C 0.46383 0.08324 0.26646 0.0
N277 N 0.50148 0.12393 0.26156 0.0
C278 C 0.46287 0.04464 0.24942 0.0
C279 C 0.5009 0.04787 0.22754 0.0
C280 C 0.53931 0.08945 0.22307 0.0
C281 C 0.53904 0.12733 0.24051 0.0
C282 C 0.52868 0.20991 0.13435 0.0
C283 C 0.56206 0.25076 0.22569 0.0
C284 C 0.51051 0.18745 0.17917 0.0
N285 N 0.52719 0.20794 0.22412 0.0
C286 C 0.58109 0.27421 0.18165 0.0
C287 C 0.56421 0.25359 0.13571 0.0
C288 C 0.51773 0.25048 0.35507 0.0
C289 C 0.36676 0.12023 0.43999 0.0
C290 C 0.44599 0.19787 0.45989 0.0
C291 C 0.40569 0.19423 0.47498 0.0
C292 C 0.36585 0.15508 0.46498 0.0
N293 N 0.44668 0.16339 0.43582 0.0
C294 C 0.4077 0.12508 0.42544 0.0
Co295 Co 0.84828 0.35224 0.26651 0.0
Co296 Co 0.85439 0.35243 0.39528 0.0
O297 O 0.87868 0.35236 0.32875 0.0
C298 C 0.86487 0.27694 0.24855 0.0
O299 O 0.85298 0.2634 0.29473 0.0
C300 C 0.92906 0.42623 0.44906 0.0
O301 O 0.90207 0.44219 0.45528 0.0
O302 O 0.84976 0.40598 0.37711 0.0
O303 O 0.82945 0.39249 0.29668 0.0
H304 H 0.74797 0.36338 0.51445 0.0
H305 H 0.94255 0.37432 0.26323 0.0
O306 O 0.86618 0.31216 0.23289 0.0
H307 H 0.94242 0.5068 0.19617 0.0
H308 H 0.83255 0.35878 0.0798 0.0
H309 H 0.76106 0.34486 0.24336 0.0
H310 H 0.87229 0.44096 0.22299 0.0
H311 H 0.87092 0.3595 0.15778 0.0
O312 O 0.91663 0.39156 0.42195 0.0
H313 H 0.77939 0.36308 0.43192 0.0
H314 H 0.87722 0.34062 0.50017 0.0
H315 H 0.72175 0.34457 0.16638 0.0
H316 H 0.01347 0.4393 0.23635 0.0
H317 H 0.75749 0.35148 0.0838 0.0
H318 H 0.01367 0.50617 0.20258 0.0
O319 O 0.79153 0.29939 0.28934 0.0
H320 H 0.93071 0.26176 0.40491 0.0
H321 H 0.79139 0.26309 0.43883 0.0
H322 H 0.7956 0.19567 0.45788 0.0
H323 H 0.86571 0.19479 0.44114 0.0
H324 H 0.92481 0.32823 0.38568 0.0
H325 H 0.84678 0.34063 0.58352 0.0
H326 H 0.78173 0.35213 0.59105 0.0
O327 O 0.79232 0.31394 0.37127 0.0
C328 C 0.83461 0.41378 0.33719 0.0
C329 C 0.77633 0.35833 0.51168 0.0
C330 C 0.83178 0.34558 0.55043 0.0
N331 N 0.8302 0.35198 0.46112 0.0
C332 C 0.79429 0.35813 0.46501 0.0
C333 C 0.84886 0.34559 0.50312 0.0
C334 C 0.79529 0.35203 0.55463 0.0
C335 C 0.94238 0.40322 0.24832 0.0
N336 N 0.90332 0.40378 0.24452 0.0
C337 C 0.98263 0.43995 0.23328 0.0
C338 C 0.98273 0.47747 0.21439 0.0
C339 C 0.94277 0.47786 0.21081 0.0
C340 C 0.90316 0.44053 0.22623 0.0
C341 C 0.81663 0.35577 0.11555 0.0
C342 C 0.77693 0.34805 0.20761 0.0
C343 C 0.83815 0.356 0.15983 0.0
N344 N 0.8183 0.35227 0.20513 0.0
C345 C 0.75446 0.3478 0.16413 0.0
C346 C 0.77453 0.35167 0.11782 0.0
C347 C 0.77258 0.2928 0.33183 0.0
C348 C 0.90006 0.26182 0.41265 0.0
C349 C 0.82198 0.26294 0.43125 0.0
C350 C 0.82419 0.22469 0.44224 0.0
C351 C 0.86355 0.22423 0.43287 0.0
N352 N 0.85804 0.29979 0.41171 0.0
C353 C 0.89663 0.29947 0.40215 0.0
Co354 Co 0.34063 0.84815 0.75157 0.0
Co355 Co 0.33623 0.85404 0.62258 0.0
O356 O 0.33976 0.87795 0.6898 0.0
C357 C 0.26549 0.84344 0.80971 0.0
O358 O 0.24979 0.8003 0.81342 0.0
C359 C 0.41605 0.92641 0.5732 0.0
O360 O 0.4289 0.89716 0.56499 0.0
O361 O 0.38529 0.84142 0.63835 0.0
O362 O 0.38123 0.82982 0.72119 0.0
H363 H 0.32915 0.74215 0.49773 0.0
H364 H 0.36345 0.94278 0.75101 0.0
O365 O 0.3003 0.86717 0.78354 0.0
H366 H 0.49507 0.94357 0.82251 0.0
H367 H 0.35131 0.83458 0.93833 0.0
H368 H 0.33386 0.76144 0.77497 0.0
H369 H 0.42924 0.87304 0.79649 0.0
H370 H 0.34994 0.87199 0.86045 0.0
O371 O 0.38081 0.91543 0.59858 0.0
H372 H 0.3339 0.77331 0.58186 0.0
H373 H 0.33033 0.88412 0.5193 0.0
H374 H 0.33523 0.72296 0.85185 0.0
H375 H 0.42823 0.01404 0.77736 0.0
H376 H 0.34399 0.75955 0.93431 0.0
H377 H 0.49473 0.01474 0.81335 0.0
O378 O 0.28806 0.7908 0.72879 0.0
H379 H 0.26313 0.94797 0.62203 0.0
H380 H 0.24606 0.80267 0.57508 0.0
H381 H 0.18485 0.81761 0.55779 0.0
H382 H 0.19328 0.89088 0.58106 0.0
H383 H 0.3232 0.93125 0.63927 0.0
H384 H 0.3258 0.85428 0.4344 0.0
H385 H 0.32511 0.78274 0.4232 0.0
O386 O 0.29189 0.79292 0.645 0.0
C387 C 0.39749 0.83038 0.67835 0.0
C388 C 0.32948 0.77338 0.50208 0.0
C389 C 0.32761 0.83631 0.46656 0.0
N390 N 0.33254 0.83058 0.55555 0.0
C391 C 0.33217 0.79121 0.54965 0.0
C392 C 0.33028 0.8531 0.51472 0.0
C393 C 0.32721 0.79616 0.46031 0.0
C394 C 0.39199 0.94274 0.76724 0.0
N395 N 0.39221 0.90366 0.77291 0.0
C396 C 0.4287 0.98323 0.78181 0.0
C397 C 0.46602 0.98361 0.80192 0.0
C398 C 0.46624 0.94369 0.80705 0.0
C399 C 0.4289 0.90384 0.79209 0.0
C400 C 0.34745 0.81829 0.90263 0.0
C401 C 0.33768 0.77762 0.81069 0.0
C402 C 0.3466 0.83927 0.85843 0.0
N403 N 0.34173 0.81889 0.81317 0.0
C404 C 0.33844 0.75565 0.85411 0.0
C405 C 0.34335 0.77619 0.90035 0.0
C406 C 0.27504 0.77256 0.68583 0.0
C407 C 0.25905 0.91593 0.61165 0.0
C408 C 0.24979 0.83434 0.58581 0.0
C409 C 0.21511 0.84276 0.57569 0.0
C410 C 0.21987 0.88388 0.58871 0.0
N411 N 0.28824 0.86601 0.60806 0.0
C412 C 0.293 0.9063 0.62121 0.0
Co413 Co 0.16983 0.50438 0.61225 0.0
Co414 Co 0.16262 0.50025 0.74083 0.0
O415 O 0.14031 0.4741 0.67455 0.0
C416 C 0.0782 0.48654 0.5884 0.0
O417 O 0.07962 0.50942 0.62824 0.0
C418 C 0.1674 0.4281 0.79414 0.0
O419 O 0.21015 0.45627 0.80018 0.0
O420 O 0.22289 0.5095 0.72427 0.0
O421 O 0.2296 0.5287 0.64323 0.0
H422 H 0.27393 0.61342 0.86019 0.0
H423 H 0.10334 0.40791 0.61037 0.0
O424 O 0.11069 0.48053 0.57831 0.0
H425 H 0.2427 0.41977 0.54731 0.0
H426 H 0.19072 0.51793 0.42535 0.0
H427 H 0.24626 0.59358 0.58754 0.0
H428 H 0.24018 0.4871 0.57191 0.0
H429 H 0.15515 0.47959 0.50402 0.0
O430 O 0.14352 0.43922 0.76822 0.0
H431 H 0.24478 0.57954 0.77769 0.0
H432 H 0.12757 0.47633 0.84536 0.0
H433 H 0.28297 0.63299 0.50985 0.0
H434 H 0.10423 0.33973 0.58562 0.0
H435 H 0.25519 0.59516 0.42795 0.0
H436 H 0.17432 0.34544 0.55389 0.0
O437 O 0.16916 0.55934 0.63325 0.0
H438 H 0.99524 0.41329 0.74739 0.0
H439 H 0.12927 0.55815 0.78297 0.0
H440 H 0.0549 0.5481 0.80054 0.0
H441 H 0.98721 0.47518 0.78297 0.0
H442 H 0.07026 0.42496 0.72981 0.0
H443 H 0.15558 0.50891 0.92869 0.0
H444 H 0.22924 0.57802 0.93649 0.0
O445 O 0.18173 0.56129 0.71565 0.0
C446 C 0.24573 0.52527 0.68452 0.0
C447 C 0.24179 0.58328 0.8573 0.0
C448 C 0.17538 0.52463 0.89574 0.0
N449 N 0.18451 0.52594 0.80662 0.0
C450 C 0.2251 0.56393 0.81066 0.0
C451 C 0.15972 0.50628 0.84845 0.0
C452 C 0.21671 0.56341 0.90008 0.0
C453 C 0.13387 0.41066 0.59629 0.0
N454 N 0.17156 0.45143 0.59229 0.0
C455 C 0.13422 0.37194 0.58247 0.0
C456 C 0.17356 0.37516 0.56471 0.0
C457 C 0.21195 0.41686 0.56103 0.0
C458 C 0.21034 0.45485 0.57514 0.0
C459 C 0.20313 0.53476 0.4608 0.0
C460 C 0.23409 0.57673 0.55212 0.0
C461 C 0.18303 0.51326 0.50548 0.0
N462 N 0.19861 0.53425 0.55041 0.0
C463 C 0.25497 0.5993 0.50821 0.0
C464 C 0.23933 0.57808 0.46228 0.0
C465 C 0.17976 0.57967 0.67524 0.0
C466 C 0.02448 0.44518 0.75538 0.0
C467 C 0.09999 0.52638 0.77498 0.0
C468 C 0.05796 0.52085 0.78514 0.0
C469 C 0.02 0.47992 0.77529 0.0
N470 N 0.10412 0.49202 0.75581 0.0
C471 C 0.06705 0.45192 0.74568 0.0
Co472 Co 0.51659 0.68243 0.7464 0.0
Co473 Co 0.51733 0.67574 0.618 0.0
O474 O 0.5432 0.67774 0.68375 0.0
C475 C 0.59231 0.75881 0.79631 0.0
O476 O 0.56768 0.77784 0.79723 0.0
C477 C 0.5123 0.59574 0.57245 0.0
O478 O 0.4692 0.57993 0.56777 0.0
O479 O 0.45855 0.62541 0.64026 0.0
O480 O 0.45535 0.64418 0.71996 0.0
H481 H 0.39858 0.66438 0.50076 0.0
H482 H 0.58429 0.65399 0.7481 0.0
O483 O 0.57797 0.72125 0.77459 0.0
H484 H 0.44974 0.52998 0.82426 0.0
H485 H 0.50237 0.68399 0.93403 0.0
H486 H 0.44165 0.6972 0.7723 0.0
H487 H 0.44953 0.59733 0.7949 0.0
H488 H 0.53523 0.67757 0.85484 0.0
O489 O 0.53658 0.63296 0.59442 0.0
H490 H 0.43219 0.66725 0.58291 0.0
H491 H 0.54747 0.67895 0.51236 0.0
H492 H 0.40778 0.7038 0.85049 0.0
H493 H 0.58616 0.58751 0.77761 0.0
H494 H 0.43817 0.69719 0.93217 0.0
H495 H 0.5185 0.52488 0.81596 0.0
O496 O 0.51512 0.73563 0.72056 0.0
H497 H 0.68423 0.75785 0.60143 0.0
H498 H 0.547 0.76263 0.56615 0.0
H499 H 0.6197 0.82605 0.54151 0.0
H500 H 0.68903 0.82383 0.55893 0.0
H501 H 0.61077 0.69541 0.62603 0.0
H502 H 0.51502 0.67606 0.42938 0.0
H503 H 0.44009 0.66885 0.42322 0.0
O504 O 0.4979 0.71848 0.63975 0.0
C505 C 0.43744 0.62146 0.68073 0.0
C506 C 0.43127 0.66756 0.50294 0.0
C507 C 0.49663 0.67415 0.4629 0.0
N508 N 0.49186 0.67349 0.5525 0.0
C509 C 0.45049 0.66921 0.54938 0.0
C510 C 0.51483 0.67577 0.50998 0.0
C511 C 0.45458 0.67008 0.45946 0.0
C512 C 0.55486 0.62705 0.76518 0.0
N513 N 0.51706 0.62981 0.77035 0.0
C514 C 0.55605 0.58941 0.78163 0.0
C515 C 0.51806 0.55427 0.8031 0.0
C516 C 0.47947 0.55711 0.80776 0.0
C517 C 0.47953 0.5953 0.79095 0.0
C518 C 0.48887 0.68697 0.89868 0.0
C519 C 0.45512 0.69433 0.80762 0.0
C520 C 0.50737 0.68343 0.85372 0.0
N521 N 0.49052 0.68719 0.8089 0.0
C522 C 0.43577 0.69807 0.85182 0.0
C523 C 0.45284 0.69437 0.89762 0.0
C524 C 0.50155 0.74157 0.67841 0.0
C525 C 0.65426 0.75919 0.59356 0.0
C526 C 0.57695 0.76158 0.57431 0.0
C527 C 0.61806 0.79751 0.56004 0.0
C528 C 0.65694 0.79622 0.56977 0.0
N529 N 0.57454 0.72528 0.59745 0.0
C530 C 0.61255 0.72388 0.60728 0.0
C531 C 0.1595 0.13615 0.03375 0.0
C532 C 0.13623 0.09002 0.02461 0.0
C533 C 0.13812 0.16137 0.02825 0.0
C534 C 0.09326 0.141 0.01304 0.0
H535 H 0.1942 0.15267 0.04501 0.0
H536 H 0.15628 0.19662 0.03711 0.0
S537 S 0.01698 0.02058 0.98996 0.0
N538 N 0.06553 0.02469 0.00294 0.0
N539 N 0.02557 0.0719 0.99303 0.0
C540 C 0.06973 0.09488 0.00466 0.0
C541 C 0.09124 0.0694 0.01025 0.0
C542 C 0.87667 0.98939 0.06452 0.0
C543 C 0.86827 0.96547 0.01929 0.0
C544 C 0.89953 0.0359 0.06557 0.0
C545 C 0.91538 0.06092 0.02144 0.0
H546 H 0.86734 0.97228 0.10009 0.0
H547 H 0.90673 0.05217 0.10174 0.0
S548 S 0.89615 0.01483 0.89222 0.0
N549 N 0.87305 0.97049 0.92861 0.0
N550 N 0.91602 0.0581 0.93029 0.0
C551 C 0.90422 0.03756 0.97549 0.0
C552 C 0.88072 0.98988 0.97448 0.0
C553 C 0.98283 0.87987 0.0703 0.0
C554 C 0.95712 0.86652 0.02638 0.0
C555 C 0.02933 0.90184 0.06841 0.0
C556 C 0.05245 0.91131 0.02254 0.0
H557 H 0.96723 0.87557 0.10654 0.0
H558 H 0.04717 0.91337 0.10345 0.0
S559 S 0.0008 0.87632 0.89701 0.0
N560 N 0.95826 0.85937 0.93568 0.0
N561 N 0.04578 0.89997 0.93255 0.0
C562 C 0.0272 0.89466 0.97859 0.0
C563 C 0.97959 0.87254 0.9804 0.0
C564 C 0.80158 0.45374 0.2926 0.0
C565 C 0.81766 0.44563 0.33757 0.0
C566 C 0.77801 0.47671 0.29203 0.0
C567 C 0.76934 0.49277 0.33641 0.0
H568 H 0.80526 0.44047 0.25739 0.0
H569 H 0.7646 0.4798 0.25662 0.0
S570 S 0.81089 0.48747 0.46318 0.0
N571 N 0.82813 0.4606 0.42685 0.0
N572 N 0.78423 0.50429 0.42598 0.0
C573 C 0.78848 0.48828 0.38117 0.0
C574 C 0.81249 0.46463 0.38171 0.0
C575 C 0.53769 0.32298 0.31437 0.0
C576 C 0.53506 0.29928 0.35805 0.0
C577 C 0.56114 0.36953 0.31369 0.0
C578 C 0.5829 0.39465 0.35671 0.0
H579 H 0.52346 0.30564 0.27956 0.0
H580 H 0.56372 0.38574 0.27829 0.0
S581 S 0.58024 0.34896 0.48294 0.0
N582 N 0.55183 0.30468 0.44724 0.0
N583 N 0.59568 0.39219 0.44576 0.0
C584 C 0.57757 0.37152 0.40166 0.0
C585 C 0.55376 0.32391 0.40236 0.0
C586 C 0.65424 0.1955 0.34063 0.0
C587 C 0.63023 0.21763 0.34984 0.0
C588 C 0.70072 0.21986 0.3332 0.0
C589 C 0.72384 0.2667 0.3347 0.0
H590 H 0.63694 0.15947 0.33818 0.0
H591 H 0.71865 0.20213 0.32676 0.0
S592 S 0.67564 0.33973 0.35627 0.0
N593 N 0.63258 0.28855 0.3589 0.0
N594 N 0.71954 0.33406 0.3457 0.0
C595 C 0.7 0.28888 0.3439 0.0
C596 C 0.65316 0.26435 0.35119 0.0
C597 C 0.44817 0.8084 0.7203 0.0
C598 C 0.43031 0.81469 0.67569 0.0
C599 C 0.4741 0.78783 0.72036 0.0
C600 C 0.48279 0.77189 0.67588 0.0
H601 H 0.44083 0.81791 0.75605 0.0
H602 H 0.48535 0.7824 0.75606 0.0
S603 S 0.44911 0.78549 0.54788 0.0
N604 N 0.42758 0.80782 0.58506 0.0
N605 N 0.47552 0.76839 0.58506 0.0
C606 C 0.46771 0.78065 0.63052 0.0
C607 C 0.44167 0.80215 0.63046 0.0
C608 C 0.23222 0.69752 0.72635 0.0
C609 C 0.24272 0.72376 0.68296 0.0
C610 C 0.20931 0.65091 0.72362 0.0
C611 C 0.19569 0.6283 0.67737 0.0
H612 H 0.24377 0.71291 0.76267 0.0
H613 H 0.20417 0.63265 0.75813 0.0
S614 S 0.20789 0.6811 0.55329 0.0
N615 N 0.23247 0.72325 0.59268 0.0
N616 N 0.18918 0.63585 0.58783 0.0
C617 C 0.2026 0.65397 0.63411 0.0
C618 C 0.22616 0.70155 0.63683 0.0
C619 C 0.31816 0.52582 0.68387 0.0
C620 C 0.29439 0.54879 0.68755 0.0
C621 C 0.36498 0.54935 0.68024 0.0
C622 C 0.38866 0.59619 0.68024 0.0
H623 H 0.30047 0.48972 0.68285 0.0
H624 H 0.38269 0.53102 0.67794 0.0
S625 S 0.3413 0.67119 0.68731 0.0
N626 N 0.29753 0.6204 0.68946 0.0
N627 N 0.38519 0.66448 0.68343 0.0
C628 C 0.36506 0.61923 0.68379 0.0
C629 C 0.31786 0.5955 0.68717 0.0
C630 C 0.15224 0.328 0.8684 0.0
C631 C 0.10812 0.30877 0.88592 0.0
C632 C 0.17103 0.36638 0.83844 0.0
C633 C 0.14604 0.38632 0.82369 0.0
H634 H 0.17253 0.31335 0.878 0.0
H635 H 0.2053 0.38029 0.82634 0.0
S636 S 0.02885 0.34896 0.8592 0.0
N637 N 0.04004 0.31302 0.88662 0.0
N638 N 0.07483 0.38411 0.82925 0.0
C639 C 0.10177 0.36729 0.84068 0.0
C640 C 0.08299 0.32885 0.87213 0.0
C641 C 0.69504 0.84258 0.86824 0.0
C642 C 0.71201 0.81634 0.88776 0.0
C643 C 0.65645 0.82375 0.83852 0.0
C644 C 0.63387 0.77812 0.8263 0.0
H645 H 0.71169 0.87802 0.87594 0.0
H646 H 0.64451 0.84526 0.82463 0.0
S647 S 0.66451 0.69467 0.86799 0.0
N648 N 0.7029 0.74206 0.89293 0.0
N649 N 0.63098 0.70694 0.83674 0.0
C650 C 0.65049 0.75146 0.84555 0.0
C651 C 0.68934 0.77048 0.87643 0.0
C652 C 0.21147 0.83988 0.87488 0.0
C653 C 0.24716 0.86548 0.84211 0.0
C654 C 0.19548 0.86002 0.90821 0.0
C655 C 0.21448 0.90664 0.91021 0.0
H656 H 0.19578 0.80388 0.87512 0.0
H657 H 0.16766 0.83875 0.93218 0.0
S658 S 0.30949 0.9892 0.83335 0.0
N659 N 0.30119 0.94034 0.81432 0.0
N660 N 0.27189 0.97801 0.87719 0.0
C661 C 0.25042 0.93269 0.87791 0.0
C662 C 0.26649 0.9122 0.84382 0.0
C663 C 0.37545 0.17501 0.16789 0.0
C664 C 0.38363 0.15295 0.20717 0.0
C665 C 0.33818 0.15233 0.13651 0.0
C666 C 0.30743 0.10676 0.14337 0.0
H667 H 0.39852 0.20989 0.16047 0.0
H668 H 0.33349 0.17074 0.10671 0.0
S669 S 0.31297 0.03382 0.2418 0.0
N670 N 0.35715 0.08316 0.252 0.0
N671 N 0.28769 0.04043 0.19303 0.0
C672 C 0.31497 0.08444 0.18299 0.0
C673 C 0.35285 0.10754 0.21487 0.0
C674 C 0.92337 0.21713 0.19906 0.0
C675 C 0.9167 0.21659 0.14694 0.0
C676 C 0.90465 0.23469 0.23216 0.0
C677 C 0.87928 0.2531 0.21425 0.0
H678 H 0.9437 0.20434 0.21445 0.0
H679 H 0.91161 0.2355 0.27177 0.0
S680 S 0.84922 0.25715 0.08182 0.0
N681 N 0.88064 0.23376 0.0795 0.0
N682 N 0.8459 0.26719 0.14157 0.0
C683 C 0.87111 0.25146 0.16248 0.0
C684 C 0.88965 0.23305 0.12886 0.0
C685 C 0.78971 0.68503 0.23372 0.0
C686 C 0.76813 0.64092 0.2163 0.0
C687 C 0.80751 0.72084 0.20014 0.0
C688 C 0.8051 0.71381 0.148 0.0
H689 H 0.79104 0.69195 0.27341 0.0
H690 H 0.8225 0.75433 0.21519 0.0
S691 S 0.75614 0.60447 0.08378 0.0
N692 N 0.74824 0.59201 0.14386 0.0
N693 N 0.78223 0.65943 0.08083 0.0
C694 C 0.78582 0.66991 0.13024 0.0
C695 C 0.76712 0.63341 0.1644 0.0
C696 C 0.01148 0.48778 0.55406 0.0
C697 C 0.04042 0.47036 0.55253 0.0
C698 C 0.97671 0.47445 0.51935 0.0
C699 C 0.9691 0.44284 0.48173 0.0
H700 H 0.01581 0.51222 0.5821 0.0
H701 H 0.95519 0.48866 0.52273 0.0
S702 S 0.03539 0.38674 0.4615 0.0
N703 N 0.05911 0.41956 0.51015 0.0
N704 N 0.99397 0.3947 0.44501 0.0
C705 C 0.99801 0.42531 0.47956 0.0
C706 C 0.03352 0.43896 0.51489 0.0
C707 C 0.59776 0.58377 0.4958 0.0
C708 C 0.57576 0.53801 0.4843 0.0
C709 C 0.57739 0.60181 0.52556 0.0
C710 C 0.53391 0.57495 0.54421 0.0
H711 H 0.63139 0.60577 0.48261 0.0
H712 H 0.59566 0.63728 0.53323 0.0
S713 S 0.46172 0.45328 0.52432 0.0
N714 N 0.50812 0.46618 0.49388 0.0
N715 N 0.46941 0.50038 0.54887 0.0
C716 C 0.51134 0.52925 0.53259 0.0
C717 C 0.53238 0.51071 0.50293 0.0
C718 C 0.48257 0.98716 0.52919 0.0
C719 C 0.43849 0.9696 0.54633 0.0
C720 C 0.50363 0.02666 0.50114 0.0
C721 C 0.48107 0.04955 0.48819 0.0
H722 H 0.50105 0.97033 0.5376 0.0
H723 H 0.53772 0.03912 0.48914 0.0
S724 S 0.36507 0.0175 0.52381 0.0
N725 N 0.37307 0.97844 0.54848 0.0
N726 N 0.4122 0.05194 0.49538 0.0
C727 C 0.4369 0.03225 0.50501 0.0
C728 C 0.41576 0.99253 0.53423 0.0
loop_
_geom_bond_atom_site_label_1
_geom_bond_atom_site_label_2
_geom_bond_distance
_geom_bond_site_symmetry_2
_ccdc_geom_bond_type
Co0 O2 2.143 . S
Co0 O8 2.074 . S
Co0 O11 2.093 1_455 S
Co0 O24 2.097 1_455 S
Co0 N41 2.151 . S
Co0 N49 2.214 . S
Co1 O2 2.160 1_556 S
Co1 O7 2.058 . S
Co1 O17 2.057 . S
Co1 O32 2.037 1_455 S
Co1 N36 2.145 1_455 S
Co1 N57 2.257 1_455 S
O2 Co0 2.143 . S
O2 Co1 2.160 1_554 S
C3 O4 1.278 . S
C3 O11 1.224 . S
O4 C3 1.278 . S
C5 O6 1.245 . S
C5 O17 1.232 . S
O6 C5 1.245 . S
O7 Co1 2.058 . S
O7 C33 1.269 1_556 S
O8 Co0 2.074 . S
O8 C33 1.257 . S
H9 C34 0.930 . S
H10 C40 0.930 . S
O11 Co0 2.093 1_655 S
O11 C3 1.224 . S
H12 C44 0.929 . S
H13 C46 0.930 . S
H14 C47 0.930 . S
H15 C45 0.929 . S
H16 C48 0.928 . S
O17 Co1 2.057 . S
O17 C5 1.232 . S
H18 C37 0.929 . S
H19 C38 0.929 . S
H20 C50 0.931 . S
H21 C42 0.929 . S
H22 C51 0.930 . S
H23 C43 0.931 . S
O24 Co0 2.097 1_655 S
O24 C52 1.214 . S
H25 C53 0.929 . S
H26 C54 0.929 . S
H27 C55 0.930 . S
H28 C56 0.929 . S
H29 C58 0.930 . S
H30 C35 0.930 1_455 S
H31 C39 0.930 . S
O32 Co1 2.037 1_655 S
O32 C52 1.234 1_556 S
C33 O7 1.269 1_554 S
C33 O8 1.257 . S
C34 H9 0.930 . S
C34 C37 1.388 . S
C34 C39 1.418 . S
C35 H30 0.930 1_655 S
C35 C38 1.404 1_655 S
C35 C39 1.353 . S
N36 Co1 2.145 1_655 S
N36 C37 1.397 . S
N36 C38 1.334 1_655 S
C37 H18 0.929 . S
C37 C34 1.388 . S
C37 N36 1.397 . S
C38 H19 0.929 . S
C38 C35 1.404 1_455 S
C38 N36 1.334 1_455 S
C39 H31 0.930 . S
C39 C34 1.418 . S
C39 C35 1.353 . S
C40 H10 0.930 . S
C40 N41 1.330 . S
C40 C42 1.446 . S
N41 Co0 2.151 . S
N41 C40 1.330 . S
N41 C45 1.418 . S
C42 H21 0.929 . S
C42 C40 1.446 . S
C42 C43 1.332 . S
C43 H23 0.931 . S
C43 C42 1.332 . S
C43 C44 1.267 . S
C44 H12 0.929 . S
C44 C43 1.267 . S
C44 C45 1.251 . S
C45 H15 0.929 . S
C45 N41 1.418 . S
C45 C44 1.251 . S
C46 H13 0.930 . S
C46 C48 1.406 . S
C46 C51 1.261 . S
C47 H14 0.930 . S
C47 N49 1.325 . S
C47 C50 1.357 . S
C48 H16 0.928 . S
C48 C46 1.406 . S
C48 N49 1.261 . S
N49 Co0 2.214 . S
N49 C47 1.325 . S
N49 C48 1.261 . S
C50 H20 0.931 . S
C50 C47 1.357 . S
C50 C51 1.312 . S
C51 H22 0.930 . S
C51 C46 1.261 . S
C51 C50 1.312 . S
C52 O24 1.214 . S
C52 O32 1.234 1_554 S
C53 H25 0.929 . S
C53 C56 1.391 . S
C53 C58 1.391 . S
C54 H26 0.929 . S
C54 C55 1.390 . S
C54 N57 1.391 . S
C55 H27 0.930 . S
C55 C54 1.390 . S
C55 C56 1.392 . S
C56 H28 0.929 . S
C56 C53 1.391 . S
C56 C55 1.392 . S
N57 Co1 2.257 1_655 S
N57 C54 1.391 . S
N57 C58 1.388 . S
C58 H29 0.930 . S
C58 C53 1.391 . S
C58 N57 1.388 . S
Co59 O61 2.143 1_556 S
Co59 O67 2.074 . S
Co59 O70 2.093 . S
Co59 O83 2.097 . S
Co59 N100 2.151 . S
Co59 N108 2.214 . S
Co60 O61 2.160 . S
Co60 O66 2.058 . S
Co60 O76 2.057 . S
Co60 O91 2.037 . S
Co60 N95 2.145 . S
Co60 N116 2.257 . S
O61 Co59 2.143 1_554 S
O61 Co60 2.160 . S
C62 O63 1.278 . S
C62 O70 1.224 . S
O63 C62 1.278 . S
C64 O65 1.245 . S
C64 O76 1.232 . S
O65 C64 1.245 . S
O66 Co60 2.058 . S
O66 C92 1.269 . S
O67 Co59 2.074 . S
O67 C92 1.257 1_556 S
H68 C93 0.930 . S
H69 C99 0.930 . S
O70 Co59 2.093 . S
O70 C62 1.224 . S
H71 C103 0.929 . S
H72 C105 0.930 . S
H73 C106 0.930 . S
H74 C104 0.929 . S
H75 C107 0.928 . S
O76 Co60 2.057 . S
O76 C64 1.232 . S
H77 C96 0.929 . S
H78 C97 0.929 . S
H79 C109 0.931 . S
H80 C101 0.929 . S
H81 C110 0.930 . S
H82 C102 0.931 . S
O83 Co59 2.097 . S
O83 C111 1.214 1_556 S
H84 C112 0.929 . S
H85 C113 0.929 . S
H86 C114 0.930 . S
H87 C115 0.929 . S
H88 C117 0.930 . S
H89 C94 0.930 . S
H90 C98 0.930 . S
O91 Co60 2.037 . S
O91 C111 1.234 . S
C92 O66 1.269 . S
C92 O67 1.257 1_554 S
C93 H68 0.930 . S
C93 C96 1.388 . S
C93 C98 1.418 . S
C94 H89 0.930 . S
C94 C97 1.404 . S
C94 C98 1.353 . S
N95 Co60 2.145 . S
N95 C96 1.397 . S
N95 C97 1.334 . S
C96 H77 0.929 . S
C96 C93 1.388 . S
C96 N95 1.397 . S
C97 H78 0.929 . S
C97 C94 1.404 . S
C97 N95 1.334 . S
C98 H90 0.930 . S
C98 C93 1.418 . S
C98 C94 1.353 . S
C99 H69 0.930 . S
C99 N100 1.330 . S
C99 C101 1.446 . S
N100 Co59 2.151 . S
N100 C99 1.330 . S
N100 C104 1.418 . S
C101 H80 0.929 . S
C101 C99 1.446 . S
C101 C102 1.332 . S
C102 H82 0.931 . S
C102 C101 1.332 . S
C102 C103 1.267 . S
C103 H71 0.929 . S
C103 C102 1.267 . S
C103 C104 1.251 . S
C104 H74 0.929 . S
C104 N100 1.418 . S
C104 C103 1.251 . S
C105 H72 0.930 . S
C105 C107 1.406 . S
C105 C110 1.261 . S
C106 H73 0.930 . S
C106 N108 1.325 . S
C106 C109 1.357 . S
C107 H75 0.928 . S
C107 C105 1.406 . S
C107 N108 1.261 . S
N108 Co59 2.214 . S
N108 C106 1.325 . S
N108 C107 1.261 . S
C109 H79 0.931 . S
C109 C106 1.357 . S
C109 C110 1.312 . S
C110 H81 0.930 . S
C110 C105 1.261 . S
C110 C109 1.312 . S
C111 O83 1.214 1_554 S
C111 O91 1.234 . S
C112 H84 0.929 . S
C112 C115 1.391 . S
C112 C117 1.391 . S
C113 H85 0.929 . S
C113 C114 1.390 . S
C113 N116 1.391 . S
C114 H86 0.930 . S
C114 C113 1.390 . S
C114 C115 1.392 . S
C115 H87 0.929 . S
C115 C112 1.391 . S
C115 C114 1.392 . S
N116 Co60 2.257 . S
N116 C113 1.391 . S
N116 C117 1.388 . S
C117 H88 0.930 . S
C117 C112 1.391 . S
C117 N116 1.388 . S
Co118 O120 2.143 . S
Co118 O126 2.074 1_545 S
Co118 O129 2.093 . S
Co118 O142 2.097 . S
Co118 N159 2.151 1_545 S
Co118 N167 2.214 . S
Co119 O120 2.160 1_556 S
Co119 O125 2.058 1_545 S
Co119 O135 2.057 1_545 S
Co119 O150 2.037 . S
Co119 N154 2.145 . S
Co119 N175 2.257 . S
O120 Co118 2.143 . S
O120 Co119 2.160 1_554 S
C121 O122 1.278 . S
C121 O129 1.224 . S
O122 C121 1.278 . S
C123 O124 1.245 . S
C123 O135 1.232 . S
O124 C123 1.245 . S
O125 Co119 2.058 1_565 S
O125 C151 1.269 1_556 S
O126 Co118 2.074 1_565 S
O126 C151 1.257 . S
H127 C152 0.930 . S
H128 C158 0.930 . S
O129 Co118 2.093 . S
O129 C121 1.224 . S
H130 C162 0.929 . S
H131 C164 0.930 1_565 S
H132 C165 0.930 . S
H133 C163 0.929 . S
H134 C166 0.938 . S
O135 Co119 2.057 1_565 S
O135 C123 1.232 . S
H136 C155 0.929 . S
H137 C156 0.929 . S
H138 C168 0.931 . S
H139 C160 0.929 . S
H140 C169 0.930 . S
H141 C161 0.931 . S
O142 Co118 2.097 . S
O142 C170 1.214 . S
H143 C171 0.929 . S
H144 C172 0.929 . S
H145 C173 0.930 . S
H146 C174 0.929 . S
H147 C176 0.930 . S
H148 C153 0.930 . S
H149 C157 0.930 . S
O150 Co119 2.037 . S
O150 C170 1.234 1_556 S
C151 O125 1.269 1_554 S
C151 O126 1.257 . S
C152 H127 0.930 . S
C152 C155 1.388 . S
C152 C157 1.418 . S
C153 H148 0.930 . S
C153 C156 1.404 . S
C153 C157 1.353 . S
N154 Co119 2.145 . S
N154 C155 1.397 . S
N154 C156 1.334 . S
C155 H136 0.929 . S
C155 C152 1.388 . S
C155 N154 1.397 . S
C156 H137 0.929 . S
C156 C153 1.404 . S
C156 N154 1.334 . S
C157 H149 0.930 . S
C157 C152 1.418 . S
C157 C153 1.353 . S
C158 H128 0.930 . S
C158 N159 1.330 . S
C158 C160 1.446 . S
N159 Co118 2.151 1_565 S
N159 C158 1.330 . S
N159 C163 1.418 . S
C160 H139 0.929 . S
C160 C158 1.446 . S
C160 C161 1.332 . S
C161 H141 0.931 . S
C161 C160 1.332 . S
C161 C162 1.267 . S
C162 H130 0.929 . S
C162 C161 1.267 . S
C162 C163 1.251 . S
C163 H133 0.929 . S
C163 N159 1.418 . S
C163 C162 1.251 . S
C164 H131 0.930 1_545 S
C164 C166 1.406 . S
C164 C169 1.261 . S
C165 H132 0.930 . S
C165 N167 1.325 . S
C165 C168 1.357 . S
C166 H134 0.938 . S
C166 C164 1.406 . S
C166 N167 1.261 . S
N167 Co118 2.214 . S
N167 C165 1.325 . S
N167 C166 1.261 . S
C168 H138 0.931 . S
C168 C165 1.357 . S
C168 C169 1.312 . S
C169 H140 0.930 . S
C169 C164 1.261 . S
C169 C168 1.312 . S
C170 O142 1.214 . S
C170 O150 1.234 1_554 S
C171 H143 0.929 . S
C171 C174 1.391 . S
C171 C176 1.391 . S
C172 H144 0.929 . S
C172 C173 1.390 . S
C172 N175 1.391 . S
C173 H145 0.930 . S
C173 C172 1.390 . S
C173 C174 1.392 . S
C174 H146 0.929 . S
C174 C171 1.391 . S
C174 C173 1.392 . S
N175 Co119 2.257 . S
N175 C172 1.391 . S
N175 C176 1.388 . S
C176 H147 0.930 . S
C176 C171 1.391 . S
C176 N175 1.388 . S
Co177 O179 2.143 . S
Co177 O185 2.074 . S
Co177 O188 2.093 . S
Co177 O201 2.097 . S
Co177 N218 2.151 . S
Co177 N226 2.214 . S
Co178 O179 2.160 . S
Co178 O184 2.058 . S
Co178 O194 2.057 . S
Co178 O209 2.037 . S
Co178 N213 2.145 . S
Co178 N234 2.257 . S
O179 Co177 2.143 . S
O179 Co178 2.160 . S
C180 O181 1.278 . S
C180 O188 1.224 . S
O181 C180 1.278 . S
C182 O183 1.245 . S
C182 O194 1.232 . S
O183 C182 1.245 . S
O184 Co178 2.058 . S
O184 C210 1.269 . S
O185 Co177 2.074 . S
O185 C210 1.257 . S
H186 C211 0.930 . S
H187 C217 0.930 . S
O188 Co177 2.093 . S
O188 C180 1.224 . S
H189 C221 0.929 . S
H190 C223 0.930 . S
H191 C224 0.930 . S
H192 C222 0.929 . S
H193 C225 0.928 . S
O194 Co178 2.057 . S
O194 C182 1.232 . S
H195 C214 0.929 . S
H196 C215 0.929 . S
H197 C227 0.931 . S
H198 C219 0.929 . S
H199 C228 0.930 . S
H200 C220 0.931 . S
O201 Co177 2.097 . S
O201 C229 1.214 . S
H202 C230 0.929 . S
H203 C231 0.929 . S
H204 C232 0.930 . S
H205 C233 0.929 . S
H206 C235 0.930 . S
H207 C212 0.930 . S
H208 C216 0.930 . S
O209 Co178 2.037 . S
O209 C229 1.234 . S
C210 O184 1.269 . S
C210 O185 1.257 . S
C211 H186 0.930 . S
C211 C214 1.388 . S
C211 C216 1.418 . S
C212 H207 0.930 . S
C212 C215 1.404 . S
C212 C216 1.353 . S
N213 Co178 2.145 . S
N213 C214 1.397 . S
N213 C215 1.334 . S
C214 H195 0.929 . S
C214 C211 1.388 . S
C214 N213 1.397 . S
C215 H196 0.929 . S
C215 C212 1.404 . S
C215 N213 1.334 . S
C216 H208 0.930 . S
C216 C211 1.418 . S
C216 C212 1.353 . S
C217 H187 0.930 . S
C217 N218 1.330 . S
C217 C219 1.446 . S
N218 Co177 2.151 . S
N218 C217 1.330 . S
N218 C222 1.418 . S
C219 H198 0.929 . S
C219 C217 1.446 . S
C219 C220 1.332 . S
C220 H200 0.931 . S
C220 C219 1.332 . S
C220 C221 1.267 . S
C221 H189 0.929 . S
C221 C220 1.267 . S
C221 C222 1.251 . S
C222 H192 0.929 . S
C222 N218 1.418 . S
C222 C221 1.251 . S
C223 H190 0.930 . S
C223 C225 1.406 . S
C223 C228 1.261 . S
C224 H191 0.930 . S
C224 N226 1.325 . S
C224 C227 1.357 . S
C225 H193 0.928 . S
C225 C223 1.406 . S
C225 N226 1.261 . S
N226 Co177 2.214 . S
N226 C224 1.325 . S
N226 C225 1.261 . S
C227 H197 0.931 . S
C227 C224 1.357 . S
C227 C228 1.312 . S
C228 H199 0.930 . S
C228 C223 1.261 . S
C228 C227 1.312 . S
C229 O201 1.214 . S
C229 O209 1.234 . S
C230 H202 0.929 . S
C230 C233 1.391 . S
C230 C235 1.391 . S
C231 H203 0.929 . S
C231 C232 1.390 . S
C231 N234 1.391 . S
C232 H204 0.930 . S
C232 C231 1.390 . S
C232 C233 1.392 . S
C233 H205 0.929 . S
C233 C230 1.391 . S
C233 C232 1.392 . S
N234 Co178 2.257 . S
N234 C231 1.391 . S
N234 C235 1.388 . S
C235 H206 0.930 . S
C235 C230 1.391 . S
C235 N234 1.388 . S
Co236 O238 2.143 . S
Co236 O244 2.074 . S
Co236 O247 2.093 . S
Co236 O260 2.097 . S
Co236 N277 2.151 . S
Co236 N285 2.214 . S
Co237 O238 2.160 . S
Co237 O243 2.058 . S
Co237 O253 2.057 . S
Co237 O268 2.037 . S
Co237 N272 2.145 . S
Co237 N293 2.257 . S
O238 Co236 2.143 . S
O238 Co237 2.160 . S
C239 O240 1.278 . S
C239 O247 1.224 . S
O240 C239 1.278 . S
C241 O242 1.245 . S
C241 O253 1.232 . S
O242 C241 1.245 . S
O243 Co237 2.058 . S
O243 C269 1.269 . S
O244 Co236 2.074 . S
O244 C269 1.257 . S
H245 C270 0.930 . S
H246 C276 0.930 . S
O247 Co236 2.093 . S
O247 C239 1.224 . S
H248 C280 0.929 . S
H249 C282 0.930 . S
H250 C283 0.930 . S
H251 C281 0.929 . S
H252 C284 0.928 . S
O253 Co237 2.057 . S
O253 C241 1.232 . S
H254 C273 0.929 . S
H255 C274 0.929 . S
H256 C286 0.931 . S
H257 C278 0.929 . S
H258 C287 0.930 . S
H259 C279 0.931 . S
O260 Co236 2.097 . S
O260 C288 1.214 . S
H261 C289 0.929 . S
H262 C290 0.929 . S
H263 C291 0.930 . S
H264 C292 0.929 . S
H265 C294 0.930 . S
H266 C271 0.930 . S
H267 C275 0.930 . S
O268 Co237 2.037 . S
O268 C288 1.234 . S
C269 O243 1.269 . S
C269 O244 1.257 . S
C270 H245 0.930 . S
C270 C273 1.388 . S
C270 C275 1.418 . S
C271 H266 0.930 . S
C271 C274 1.404 . S
C271 C275 1.353 . S
N272 Co237 2.145 . S
N272 C273 1.397 . S
N272 C274 1.334 . S
C273 H254 0.929 . S
C273 C270 1.388 . S
C273 N272 1.397 . S
C274 H255 0.929 . S
C274 C271 1.404 . S
C274 N272 1.334 . S
C275 H267 0.930 . S
C275 C270 1.418 . S
C275 C271 1.353 . S
C276 H246 0.930 . S
C276 N277 1.330 . S
C276 C278 1.446 . S
N277 Co236 2.151 . S
N277 C276 1.330 . S
N277 C281 1.418 . S
C278 H257 0.929 . S
C278 C276 1.446 . S
C278 C279 1.332 . S
C279 H259 0.931 . S
C279 C278 1.332 . S
C279 C280 1.267 . S
C280 H248 0.929 . S
C280 C279 1.267 . S
C280 C281 1.251 . S
C281 H251 0.929 . S
C281 N277 1.418 . S
C281 C280 1.251 . S
C282 H249 0.930 . S
C282 C284 1.406 . S
C282 C287 1.261 . S
C283 H250 0.930 . S
C283 N285 1.325 . S
C283 C286 1.357 . S
C284 H252 0.928 . S
C284 C282 1.406 . S
C284 N285 1.261 . S
N285 Co236 2.214 . S
N285 C283 1.325 . S
N285 C284 1.261 . S
C286 H256 0.931 . S
C286 C283 1.357 . S
C286 C287 1.312 . S
C287 H258 0.930 . S
C287 C282 1.261 . S
C287 C286 1.312 . S
C288 O260 1.214 . S
C288 O268 1.234 . S
C289 H261 0.929 . S
C289 C292 1.391 . S
C289 C294 1.391 . S
C290 H262 0.929 . S
C290 C291 1.390 . S
C290 N293 1.391 . S
C291 H263 0.930 . S
C291 C290 1.390 . S
C291 C292 1.392 . S
C292 H264 0.929 . S
C292 C289 1.391 . S
C292 C291 1.392 . S
N293 Co237 2.257 . S
N293 C290 1.391 . S
N293 C294 1.388 . S
C294 H265 0.930 . S
C294 C289 1.391 . S
C294 N293 1.388 . S
Co295 O297 2.143 . S
Co295 O303 2.074 . S
Co295 O306 2.093 . S
Co295 O319 2.097 . S
Co295 N336 2.151 . S
Co295 N344 2.214 . S
Co296 O297 2.160 . S
Co296 O302 2.058 . S
Co296 O312 2.057 . S
Co296 O327 2.037 . S
Co296 N331 2.145 . S
Co296 N352 2.257 . S
O297 Co295 2.143 . S
O297 Co296 2.160 . S
C298 O299 1.278 . S
C298 O306 1.224 . S
O299 C298 1.278 . S
C300 O301 1.245 . S
C300 O312 1.232 . S
O301 C300 1.245 . S
O302 Co296 2.058 . S
O302 C328 1.269 . S
O303 Co295 2.074 . S
O303 C328 1.257 . S
H304 C329 0.930 . S
H305 C335 0.930 . S
O306 Co295 2.093 . S
O306 C298 1.224 . S
H307 C339 0.929 . S
H308 C341 0.930 . S
H309 C342 0.930 . S
H310 C340 0.929 . S
H311 C343 0.928 . S
O312 Co296 2.057 . S
O312 C300 1.232 . S
H313 C332 0.929 . S
H314 C333 0.929 . S
H315 C345 0.931 . S
H316 C337 0.929 1_455 S
H317 C346 0.930 . S
H318 C338 0.931 . S
O319 Co295 2.097 . S
O319 C347 1.214 . S
H320 C348 0.929 . S
H321 C349 0.929 . S
H322 C350 0.930 . S
H323 C351 0.929 . S
H324 C353 0.930 . S
H325 C330 0.930 . S
H326 C334 0.930 . S
O327 Co296 2.037 . S
O327 C347 1.234 . S
C328 O302 1.269 . S
C328 O303 1.257 . S
C329 H304 0.930 . S
C329 C332 1.388 . S
C329 C334 1.418 . S
C330 H325 0.930 . S
C330 C333 1.404 . S
C330 C334 1.353 . S
N331 Co296 2.145 . S
N331 C332 1.397 . S
N331 C333 1.334 . S
C332 H313 0.929 . S
C332 C329 1.388 . S
C332 N331 1.397 . S
C333 H314 0.929 . S
C333 C330 1.404 . S
C333 N331 1.334 . S
C334 H326 0.930 . S
C334 C329 1.418 . S
C334 C330 1.353 . S
C335 H305 0.930 . S
C335 N336 1.330 . S
C335 C337 1.446 . S
N336 Co295 2.151 . S
N336 C335 1.330 . S
N336 C340 1.418 . S
C337 H316 0.929 1_655 S
C337 C335 1.446 . S
C337 C338 1.332 . S
C338 H318 0.931 . S
C338 C337 1.332 . S
C338 C339 1.267 . S
C339 H307 0.929 . S
C339 C338 1.267 . S
C339 C340 1.251 . S
C340 H310 0.929 . S
C340 N336 1.418 . S
C340 C339 1.251 . S
C341 H308 0.930 . S
C341 C343 1.406 . S
C341 C346 1.261 . S
C342 H309 0.930 . S
C342 N344 1.325 . S
C342 C345 1.357 . S
C343 H311 0.928 . S
C343 C341 1.406 . S
C343 N344 1.261 . S
N344 Co295 2.214 . S
N344 C342 1.325 . S
N344 C343 1.261 . S
C345 H315 0.931 . S
C345 C342 1.357 . S
C345 C346 1.312 . S
C346 H317 0.930 . S
C346 C341 1.261 . S
C346 C345 1.312 . S
C347 O319 1.214 . S
C347 O327 1.234 . S
C348 H320 0.929 . S
C348 C351 1.391 . S
C348 C353 1.391 . S
C349 H321 0.929 . S
C349 C350 1.390 . S
C349 N352 1.391 . S
C350 H322 0.930 . S
C350 C349 1.390 . S
C350 C351 1.392 . S
C351 H323 0.929 . S
C351 C348 1.391 . S
C351 C350 1.392 . S
N352 Co296 2.257 . S
N352 C349 1.391 . S
N352 C353 1.388 . S
C353 H324 0.930 . S
C353 C348 1.391 . S
C353 N352 1.388 . S
Co354 O356 2.143 . S
Co354 O362 2.074 . S
Co354 O365 2.093 . S
Co354 O378 2.097 . S
Co354 N395 2.151 . S
Co354 N403 2.214 . S
Co355 O356 2.160 . S
Co355 O361 2.058 . S
Co355 O371 2.057 . S
Co355 O386 2.037 . S
Co355 N390 2.145 . S
Co355 N411 2.257 . S
O356 Co354 2.143 . S
O356 Co355 2.160 . S
C357 O358 1.278 . S
C357 O365 1.224 . S
O358 C357 1.278 . S
C359 O360 1.245 . S
C359 O371 1.232 . S
O360 C359 1.245 . S
O361 Co355 2.058 . S
O361 C387 1.269 . S
O362 Co354 2.074 . S
O362 C387 1.257 . S
H363 C388 0.930 . S
H364 C394 0.930 . S
O365 Co354 2.093 . S
O365 C357 1.224 . S
H366 C398 0.929 . S
H367 C400 0.930 . S
H368 C401 0.930 . S
H369 C399 0.929 . S
H370 C402 0.928 . S
O371 Co355 2.057 . S
O371 C359 1.232 . S
H372 C391 0.929 . S
H373 C392 0.929 . S
H374 C404 0.931 . S
H375 C396 0.929 1_545 S
H376 C405 0.930 . S
H377 C397 0.931 . S
O378 Co354 2.097 . S
O378 C406 1.214 . S
H379 C407 0.929 . S
H380 C408 0.929 . S
H381 C409 0.930 . S
H382 C410 0.929 . S
H383 C412 0.930 . S
H384 C389 0.930 . S
H385 C393 0.930 . S
O386 Co355 2.037 . S
O386 C406 1.234 . S
C387 O361 1.269 . S
C387 O362 1.257 . S
C388 H363 0.930 . S
C388 C391 1.388 . S
C388 C393 1.418 . S
C389 H384 0.930 . S
C389 C392 1.404 . S
C389 C393 1.353 . S
N390 Co355 2.145 . S
N390 C391 1.397 . S
N390 C392 1.334 . S
C391 H372 0.929 . S
C391 C388 1.388 . S
C391 N390 1.397 . S
C392 H373 0.929 . S
C392 C389 1.404 . S
C392 N390 1.334 . S
C393 H385 0.930 . S
C393 C388 1.418 . S
C393 C389 1.353 . S
C394 H364 0.930 . S
C394 N395 1.330 . S
C394 C396 1.446 . S
N395 Co354 2.151 . S
N395 C394 1.330 . S
N395 C399 1.418 . S
C396 H375 0.929 1_565 S
C396 C394 1.446 . S
C396 C397 1.332 . S
C397 H377 0.931 . S
C397 C396 1.332 . S
C397 C398 1.267 . S
C398 H366 0.929 . S
C398 C397 1.267 . S
C398 C399 1.251 . S
C399 H369 0.929 . S
C399 N395 1.418 . S
C399 C398 1.251 . S
C400 H367 0.930 . S
C400 C402 1.406 . S
C400 C405 1.261 . S
C401 H368 0.930 . S
C401 N403 1.325 . S
C401 C404 1.357 . S
C402 H370 0.928 . S
C402 C400 1.406 . S
C402 N403 1.261 . S
N403 Co354 2.214 . S
N403 C401 1.325 . S
N403 C402 1.261 . S
C404 H374 0.931 . S
C404 C401 1.357 . S
C404 C405 1.312 . S
C405 H376 0.930 . S
C405 C400 1.261 . S
C405 C404 1.312 . S
C406 O378 1.214 . S
C406 O386 1.234 . S
C407 H379 0.929 . S
C407 C410 1.391 . S
C407 C412 1.391 . S
C408 H380 0.929 . S
C408 C409 1.390 . S
C408 N411 1.391 . S
C409 H381 0.930 . S
C409 C408 1.390 . S
C409 C410 1.392 . S
C410 H382 0.929 . S
C410 C407 1.391 . S
C410 C409 1.392 . S
N411 Co355 2.257 . S
N411 C408 1.391 . S
N411 C412 1.388 . S
C412 H383 0.930 . S
C412 C407 1.391 . S
C412 N411 1.388 . S
Co413 O415 2.143 . S
Co413 O421 2.074 . S
Co413 O424 2.093 . S
Co413 O437 2.097 . S
Co413 N454 2.151 . S
Co413 N462 2.214 . S
Co414 O415 2.160 . S
Co414 O420 2.058 . S
Co414 O430 2.057 . S
Co414 O445 2.037 . S
Co414 N449 2.145 . S
Co414 N470 2.257 . S
O415 Co413 2.143 . S
O415 Co414 2.160 . S
C416 O417 1.278 . S
C416 O424 1.224 . S
O417 C416 1.278 . S
C418 O419 1.245 . S
C418 O430 1.232 . S
O419 C418 1.245 . S
O420 Co414 2.058 . S
O420 C446 1.269 . S
O421 Co413 2.074 . S
O421 C446 1.257 . S
H422 C447 0.930 . S
H423 C453 0.930 . S
O424 Co413 2.093 . S
O424 C416 1.224 . S
H425 C457 0.929 . S
H426 C459 0.930 . S
H427 C460 0.930 . S
H428 C458 0.929 . S
H429 C461 0.928 . S
O430 Co414 2.057 . S
O430 C418 1.232 . S
H431 C450 0.929 . S
H432 C451 0.929 . S
H433 C463 0.931 . S
H434 C455 0.929 . S
H435 C464 0.930 . S
H436 C456 0.931 . S
O437 Co413 2.097 . S
O437 C465 1.214 . S
H438 C466 0.929 1_655 S
H439 C467 0.929 . S
H440 C468 0.930 . S
H441 C469 0.951 . S
H442 C471 0.930 . S
H443 C448 0.930 . S
H444 C452 0.930 . S
O445 Co414 2.037 . S
O445 C465 1.234 . S
C446 O420 1.269 . S
C446 O421 1.257 . S
C447 H422 0.930 . S
C447 C450 1.388 . S
C447 C452 1.418 . S
C448 H443 0.930 . S
C448 C451 1.404 . S
C448 C452 1.353 . S
N449 Co414 2.145 . S
N449 C450 1.397 . S
N449 C451 1.334 . S
C450 H431 0.929 . S
C450 C447 1.388 . S
C450 N449 1.397 . S
C451 H432 0.929 . S
C451 C448 1.404 . S
C451 N449 1.334 . S
C452 H444 0.930 . S
C452 C447 1.418 . S
C452 C448 1.353 . S
C453 H423 0.930 . S
C453 N454 1.330 . S
C453 C455 1.446 . S
N454 Co413 2.151 . S
N454 C453 1.330 . S
N454 C458 1.418 . S
C455 H434 0.929 . S
C455 C453 1.446 . S
C455 C456 1.332 . S
C456 H436 0.931 . S
C456 C455 1.332 . S
C456 C457 1.267 . S
C457 H425 0.929 . S
C457 C456 1.267 . S
C457 C458 1.251 . S
C458 H428 0.929 . S
C458 N454 1.418 . S
C458 C457 1.251 . S
C459 H426 0.930 . S
C459 C461 1.406 . S
C459 C464 1.261 . S
C460 H427 0.930 . S
C460 N462 1.325 . S
C460 C463 1.357 . S
C461 H429 0.928 . S
C461 C459 1.406 . S
C461 N462 1.261 . S
N462 Co413 2.214 . S
N462 C460 1.325 . S
N462 C461 1.261 . S
C463 H433 0.931 . S
C463 C460 1.357 . S
C463 C464 1.312 . S
C464 H435 0.930 . S
C464 C459 1.261 . S
C464 C463 1.312 . S
C465 O437 1.214 . S
C465 O445 1.234 . S
C466 H438 0.929 1_455 S
C466 C469 1.391 . S
C466 C471 1.391 . S
C467 H439 0.929 . S
C467 C468 1.390 . S
C467 N470 1.391 . S
C468 H440 0.930 . S
C468 C467 1.390 . S
C468 C469 1.392 . S
C469 H441 0.951 . S
C469 C466 1.391 . S
C469 C468 1.392 . S
N470 Co414 2.257 . S
N470 C467 1.391 . S
N470 C471 1.388 . S
C471 H442 0.930 . S
C471 C466 1.391 . S
C471 N470 1.388 . S
Co472 O474 2.143 . S
Co472 O480 2.074 . S
Co472 O483 2.093 . S
Co472 O496 2.097 . S
Co472 N513 2.151 . S
Co472 N521 2.214 . S
Co473 O474 2.160 . S
Co473 O479 2.058 . S
Co473 O489 2.057 . S
Co473 O504 2.037 . S
Co473 N508 2.145 . S
Co473 N529 2.257 . S
O474 Co472 2.143 . S
O474 Co473 2.160 . S
C475 O476 1.278 . S
C475 O483 1.224 . S
O476 C475 1.278 . S
C477 O478 1.245 . S
C477 O489 1.232 . S
O478 C477 1.245 . S
O479 Co473 2.058 . S
O479 C505 1.269 . S
O480 Co472 2.074 . S
O480 C505 1.257 . S
H481 C506 0.930 . S
H482 C512 0.930 . S
O483 Co472 2.093 . S
O483 C475 1.224 . S
H484 C516 0.929 . S
H485 C518 0.930 . S
H486 C519 0.930 . S
H487 C517 0.929 . S
H488 C520 0.928 . S
O489 Co473 2.057 . S
O489 C477 1.232 . S
H490 C509 0.929 . S
H491 C510 0.929 . S
H492 C522 0.931 . S
H493 C514 0.929 . S
H494 C523 0.930 . S
H495 C515 0.931 . S
O496 Co472 2.097 . S
O496 C524 1.214 . S
H497 C525 0.929 . S
H498 C526 0.929 . S
H499 C527 0.930 . S
H500 C528 0.929 . S
H501 C530 0.930 . S
H502 C507 0.930 . S
H503 C511 0.930 . S
O504 Co473 2.037 . S
O504 C524 1.234 . S
C505 O479 1.269 . S
C505 O480 1.257 . S
C506 H481 0.930 . S
C506 C509 1.388 . S
C506 C511 1.418 . S
C507 H502 0.930 . S
C507 C510 1.404 . S
C507 C511 1.353 . S
N508 Co473 2.145 . S
N508 C509 1.397 . S
N508 C510 1.334 . S
C509 H490 0.929 . S
C509 C506 1.388 . S
C509 N508 1.397 . S
C510 H491 0.929 . S
C510 C507 1.404 . S
C510 N508 1.334 . S
C511 H503 0.930 . S
C511 C506 1.418 . S
C511 C507 1.353 . S
C512 H482 0.930 . S
C512 N513 1.330 . S
C512 C514 1.446 . S
N513 Co472 2.151 . S
N513 C512 1.330 . S
N513 C517 1.418 . S
C514 H493 0.929 . S
C514 C512 1.446 . S
C514 C515 1.332 . S
C515 H495 0.931 . S
C515 C514 1.332 . S
C515 C516 1.267 . S
C516 H484 0.929 . S
C516 C515 1.267 . S
C516 C517 1.251 . S
C517 H487 0.929 . S
C517 N513 1.418 . S
C517 C516 1.251 . S
C518 H485 0.930 . S
C518 C520 1.406 . S
C518 C523 1.261 . S
C519 H486 0.930 . S
C519 N521 1.325 . S
C519 C522 1.357 . S
C520 H488 0.928 . S
C520 C518 1.406 . S
C520 N521 1.261 . S
N521 Co472 2.214 . S
N521 C519 1.325 . S
N521 C520 1.261 . S
C522 H492 0.931 . S
C522 C519 1.357 . S
C522 C523 1.312 . S
C523 H494 0.930 . S
C523 C518 1.261 . S
C523 C522 1.312 . S
C524 O496 1.214 . S
C524 O504 1.234 . S
C525 H497 0.929 . S
C525 C528 1.391 . S
C525 C530 1.391 . S
C526 H498 0.929 . S
C526 C527 1.390 . S
C526 N529 1.391 . S
C527 H499 0.930 . S
C527 C526 1.390 . S
C527 C528 1.392 . S
C528 H500 0.929 . S
C528 C525 1.391 . S
C528 C527 1.392 . S
N529 Co473 2.257 . S
N529 C526 1.391 . S
N529 C530 1.388 . S
C530 H501 0.930 . S
C530 C525 1.391 . S
C530 N529 1.388 . S
C531 C532 1.369 . S
C531 C533 1.419 . S
C531 H535 0.930 . S
C532 C531 1.369 . S
C532 C541 1.429 1_554 S
C533 C531 1.419 . S
C533 C534 1.363 . S
C533 H536 0.929 . S
C534 C533 1.363 . S
C534 C540 1.428 1_554 S
H535 C531 0.930 . S
H536 C533 0.929 . S
S537 N538 1.613 . S
S537 N539 1.610 . S
N538 S537 1.613 . S
N538 C541 1.350 . S
N539 S537 1.610 . S
N539 C540 1.351 . S
C540 C534 1.428 1_556 S
C540 N539 1.351 . S
C540 C541 1.434 . S
C541 C532 1.429 1_556 S
C541 N538 1.350 . S
C541 C540 1.434 . S
C542 C543 1.369 . S
C542 C544 1.419 1_565 S
C542 H546 0.930 . S
C543 C542 1.369 . S
C543 C552 1.429 1_554 S
C544 C542 1.419 1_545 S
C544 C545 1.363 . S
C544 H547 0.929 . S
C545 C544 1.363 . S
C545 C551 1.428 1_554 S
H546 C542 0.930 . S
H547 C544 0.929 . S
S548 N549 1.613 1_545 S
S548 N550 1.610 . S
N549 S548 1.613 1_565 S
N549 C552 1.350 . S
N550 S548 1.610 . S
N550 C551 1.351 . S
C551 C545 1.428 1_556 S
C551 N550 1.351 . S
C551 C552 1.434 1_545 S
C552 C543 1.429 1_556 S
C552 N549 1.350 . S
C552 C551 1.434 1_565 S
C553 C554 1.369 . S
C553 C555 1.419 1_655 S
C553 H557 0.930 . S
C554 C553 1.369 . S
C554 C563 1.429 1_554 S
C555 C553 1.419 1_455 S
C555 C556 1.363 . S
C555 H558 0.929 . S
C556 C555 1.363 . S
C556 C562 1.428 1_554 S
H557 C553 0.930 . S
H558 C555 0.929 . S
S559 N560 1.613 . S
S559 N561 1.610 1_655 S
N560 S559 1.613 . S
N560 C563 1.350 . S
N561 S559 1.610 1_455 S
N561 C562 1.351 . S
C562 C556 1.428 1_556 S
C562 N561 1.351 . S
C562 C563 1.434 1_455 S
C563 C554 1.429 1_556 S
C563 N560 1.350 . S
C563 C562 1.434 1_655 S
C564 C565 1.369 . S
C564 C566 1.419 . S
C564 H568 0.930 . S
C565 C564 1.369 . S
C565 C574 1.429 . S
C566 C564 1.419 . S
C566 C567 1.363 . S
C566 H569 0.929 . S
C567 C566 1.363 . S
C567 C573 1.428 . S
H568 C564 0.930 . S
H569 C566 0.929 . S
S570 N571 1.613 . S
S570 N572 1.610 . S
N571 S570 1.613 . S
N571 C574 1.350 . S
N572 S570 1.610 . S
N572 C573 1.351 . S
C573 C567 1.428 . S
C573 N572 1.351 . S
C573 C574 1.434 . S
C574 C565 1.429 . S
C574 N571 1.350 . S
C574 C573 1.434 . S
C575 C576 1.369 . S
C575 C577 1.419 . S
C575 H579 0.930 . S
C576 C575 1.369 . S
C576 C585 1.429 . S
C577 C575 1.419 . S
C577 C578 1.363 . S
C577 H580 0.929 . S
C578 C577 1.363 . S
C578 C584 1.428 . S
H579 C575 0.930 . S
H580 C577 0.929 . S
S581 N582 1.613 . S
S581 N583 1.610 . S
N582 S581 1.613 . S
N582 C585 1.350 . S
N583 S581 1.610 . S
N583 C584 1.351 . S
C584 C578 1.428 . S
C584 N583 1.351 . S
C584 C585 1.434 . S
C585 C576 1.429 . S
C585 N582 1.350 . S
C585 C584 1.434 . S
C586 C587 1.369 . S
C586 C588 1.419 . S
C586 H590 0.930 . S
C587 C586 1.369 . S
C587 C596 1.429 . S
C588 C586 1.419 . S
C588 C589 1.363 . S
C588 H591 0.929 . S
C589 C588 1.363 . S
C589 C595 1.428 . S
H590 C586 0.930 . S
H591 C588 0.929 . S
S592 N593 1.613 . S
S592 N594 1.610 . S
N593 S592 1.613 . S
N593 C596 1.350 . S
N594 S592 1.610 . S
N594 C595 1.351 . S
C595 C589 1.428 . S
C595 N594 1.351 . S
C595 C596 1.434 . S
C596 C587 1.429 . S
C596 N593 1.350 . S
C596 C595 1.434 . S
C597 C598 1.369 . S
C597 C599 1.419 . S
C597 H601 0.930 . S
C598 C597 1.369 . S
C598 C607 1.429 . S
C599 C597 1.419 . S
C599 C600 1.363 . S
C599 H602 0.929 . S
C600 C599 1.363 . S
C600 C606 1.428 . S
H601 C597 0.930 . S
H602 C599 0.929 . S
S603 N604 1.613 . S
S603 N605 1.610 . S
N604 S603 1.613 . S
N604 C607 1.350 . S
N605 S603 1.610 . S
N605 C606 1.351 . S
C606 C600 1.428 . S
C606 N605 1.351 . S
C606 C607 1.434 . S
C607 C598 1.429 . S
C607 N604 1.350 . S
C607 C606 1.434 . S
C608 C609 1.369 . S
C608 C610 1.419 . S
C608 H612 0.930 . S
C609 C608 1.369 . S
C609 C618 1.429 . S
C610 C608 1.419 . S
C610 C611 1.363 . S
C610 H613 0.929 . S
C611 C610 1.363 . S
C611 C617 1.428 . S
H612 C608 0.930 . S
H613 C610 0.929 . S
S614 N615 1.613 . S
S614 N616 1.610 . S
N615 S614 1.613 . S
N615 C618 1.350 . S
N616 S614 1.610 . S
N616 C617 1.351 . S
C617 C611 1.428 . S
C617 N616 1.351 . S
C617 C618 1.434 . S
C618 C609 1.429 . S
C618 N615 1.350 . S
C618 C617 1.434 . S
C619 C620 1.369 . S
C619 C621 1.419 . S
C619 H623 0.930 . S
C620 C619 1.369 . S
C620 C629 1.429 . S
C621 C619 1.419 . S
C621 C622 1.363 . S
C621 H624 0.929 . S
C622 C621 1.363 . S
C622 C628 1.428 . S
H623 C619 0.930 . S
H624 C621 0.929 . S
S625 N626 1.613 . S
S625 N627 1.610 . S
N626 S625 1.613 . S
N626 C629 1.350 . S
N627 S625 1.610 . S
N627 C628 1.351 . S
C628 C622 1.428 . S
C628 N627 1.351 . S
C628 C629 1.434 . S
C629 C620 1.429 . S
C629 N626 1.350 . S
C629 C628 1.434 . S
C630 C631 1.369 . S
C630 C632 1.419 . S
C630 H634 0.930 . S
C631 C630 1.369 . S
C631 C640 1.429 . S
C632 C630 1.419 . S
C632 C633 1.363 . S
C632 H635 0.929 . S
C633 C632 1.363 . S
C633 C639 1.428 . S
H634 C630 0.930 . S
H635 C632 0.929 . S
S636 N637 1.613 . S
S636 N638 1.610 . S
N637 S636 1.613 . S
N637 C640 1.350 . S
N638 S636 1.610 . S
N638 C639 1.351 . S
C639 C633 1.428 . S
C639 N638 1.351 . S
C639 C640 1.434 . S
C640 C631 1.429 . S
C640 N637 1.350 . S
C640 C639 1.434 . S
C641 C642 1.369 . S
C641 C643 1.419 . S
C641 H645 0.930 . S
C642 C641 1.369 . S
C642 C651 1.429 . S
C643 C641 1.419 . S
C643 C644 1.363 . S
C643 H646 0.929 . S
C644 C643 1.363 . S
C644 C650 1.428 . S
H645 C641 0.930 . S
H646 C643 0.929 . S
S647 N648 1.613 . S
S647 N649 1.610 . S
N648 S647 1.613 . S
N648 C651 1.350 . S
N649 S647 1.610 . S
N649 C650 1.351 . S
C650 C644 1.428 . S
C650 N649 1.351 . S
C650 C651 1.434 . S
C651 C642 1.429 . S
C651 N648 1.350 . S
C651 C650 1.434 . S
C652 C653 1.369 . S
C652 C654 1.419 . S
C652 H656 0.930 . S
C653 C652 1.369 . S
C653 C662 1.429 . S
C654 C652 1.419 . S
C654 C655 1.363 . S
C654 H657 0.929 . S
C655 C654 1.363 . S
C655 C661 1.428 . S
H656 C652 0.930 . S
H657 C654 0.929 . S
S658 N659 1.613 1_545 S
S658 N660 1.610 . S
N659 S658 1.613 1_565 S
N659 C662 1.350 . S
N660 S658 1.610 . S
N660 C661 1.351 1_545 S
C661 C655 1.428 . S
C661 N660 1.351 1_565 S
C661 C662 1.434 . S
C662 C653 1.429 . S
C662 N659 1.350 . S
C662 C661 1.434 . S
C663 C664 1.369 . S
C663 C665 1.419 . S
C663 H667 0.930 . S
C664 C663 1.369 . S
C664 C673 1.429 . S
C665 C663 1.419 . S
C665 C666 1.363 . S
C665 H668 0.929 . S
C666 C665 1.363 . S
C666 C672 1.428 . S
H667 C663 0.930 . S
H668 C665 0.929 . S
S669 N670 1.613 1_565 S
S669 N671 1.594 1_565 S
N670 S669 1.613 1_545 S
N670 C673 1.350 . S
N671 S669 1.594 1_545 S
N671 C672 1.375 . S
C672 C666 1.428 . S
C672 N671 1.375 . S
C672 C673 1.434 . S
C673 C664 1.429 . S
C673 N670 1.350 . S
C673 C672 1.434 . S
C674 C675 1.369 . S
C674 C676 1.419 . S
C674 H678 0.930 . S
C675 C674 1.369 . S
C675 C684 1.429 . S
C676 C674 1.419 . S
C676 C677 1.363 . S
C676 H679 0.929 . S
C677 C676 1.363 . S
C677 C683 1.428 . S
H678 C674 0.930 . S
H679 C676 0.929 . S
S680 N681 1.613 . S
S680 N682 1.610 . S
N681 S680 1.613 . S
N681 C684 1.350 . S
N682 S680 1.610 . S
N682 C683 1.351 . S
C683 C677 1.428 . S
C683 N682 1.351 . S
C683 C684 1.434 . S
C684 C675 1.429 . S
C684 N681 1.350 . S
C684 C683 1.434 . S
C685 C686 1.369 . S
C685 C687 1.419 . S
C685 H689 0.930 . S
C686 C685 1.369 . S
C686 C695 1.429 . S
C687 C685 1.419 . S
C687 C688 1.363 . S
C687 H690 0.929 . S
C688 C687 1.363 . S
C688 C694 1.428 . S
H689 C685 0.930 . S
H690 C687 0.929 . S
S691 N692 1.613 . S
S691 N693 1.610 . S
N692 S691 1.613 . S
N692 C695 1.350 . S
N693 S691 1.610 . S
N693 C694 1.351 . S
C694 C688 1.428 . S
C694 N693 1.351 . S
C694 C695 1.434 . S
C695 C686 1.429 . S
C695 N692 1.350 . S
C695 C694 1.434 . S
C696 C697 1.369 . S
C696 C698 1.419 . S
C696 H700 0.930 . S
C697 C696 1.369 . S
C697 C706 1.429 . S
C698 C696 1.419 . S
C698 C699 1.363 1_455 S
C698 H701 0.929 . S
C699 C698 1.363 1_655 S
C699 C705 1.428 . S
H700 C696 0.930 . S
H701 C698 0.929 . S
S702 N703 1.613 1_655 S
S702 N704 1.610 . S
N703 S702 1.613 1_455 S
N703 C706 1.350 . S
N704 S702 1.610 . S
N704 C705 1.351 . S
C705 C699 1.428 . S
C705 N704 1.351 . S
C705 C706 1.434 1_655 S
C706 C697 1.429 . S
C706 N703 1.350 . S
C706 C705 1.434 1_455 S
C707 C708 1.369 . S
C707 C709 1.419 . S
C707 H711 0.930 . S
C708 C707 1.369 . S
C708 C717 1.429 . S
C709 C707 1.419 . S
C709 C710 1.363 . S
C709 H712 0.929 . S
C710 C709 1.363 . S
C710 C716 1.428 . S
H711 C707 0.930 . S
H712 C709 0.929 . S
S713 N714 1.613 . S
S713 N715 1.610 . S
N714 S713 1.613 . S
N714 C717 1.350 . S
N715 S713 1.610 . S
N715 C716 1.351 . S
C716 C710 1.428 . S
C716 N715 1.351 . S
C716 C717 1.434 . S
C717 C708 1.429 . S
C717 N714 1.350 . S
C717 C716 1.434 . S
C718 C719 1.369 1_545 S
C718 C720 1.419 . S
C718 H722 0.938 . S
C719 C718 1.369 1_565 S
C719 C728 1.429 . S
C720 C718 1.419 . S
C720 C721 1.363 . S
C720 H723 0.929 . S
C721 C720 1.363 . S
C721 C727 1.428 . S
H722 C718 0.938 . S
H723 C720 0.929 . S
S724 N725 1.613 . S
S724 N726 1.610 1_565 S
N725 S724 1.613 . S
N725 C728 1.350 . S
N726 S724 1.610 1_545 S
N726 C727 1.351 . S
C727 C721 1.428 . S
C727 N726 1.351 . S
C727 C728 1.434 1_545 S
C728 C719 1.429 . S
C728 N725 1.350 . S
C728 C727 1.434 1_565 S
C532 C170 1.317 . S
C534 C33 1.312 . S
C543 C111 1.320 . S
C545 C52 1.318 . S
C554 C92 1.312 . S
C556 C151 1.314 . S
C565 C328 1.314 . S
C567 C229 1.318 . S
C576 C288 1.316 . S
C578 C210 1.311 . S
C587 C269 1.310 . S
C589 C347 1.320 . S
C598 C387 1.311 . S
C600 C524 1.317 . S
C609 C406 1.317 . S
C611 C465 1.319 . S
C620 C446 1.307 . S
C622 C505 1.309 . S
C631 C5 1.498 . S
C633 C418 1.500 . S
C642 C62 1.488 . S
C644 C475 1.492 . S
C653 C357 1.491 . S
C655 C123 1.500 . S
C664 C239 1.490 . S
C666 C121 1.490 . S
C675 C3 1.492 . S
C677 C298 1.489 . S
C686 C180 1.487 . S
C688 C64 1.501 . S
C697 C416 1.490 . S
C699 C300 1.500 . S
C708 C182 1.499 . S
C710 C477 1.498 . S
C719 C359 1.500 . S
C721 C241 1.501 . S
