# Generated by pormake.
# Topology wkj, (6)-cn, num edge types: 1
# Building blocks:
#     Node 0, Type 0, BuildingBlock: PAMTUU_clean_sbu_0, # of connection points: 6
#     Node 1, Type 0, BuildingBlock: PAMTUU_clean_sbu_0, # of connection points: 6
#     Node 2, Type 0, BuildingBlock: PAMTUU_clean_sbu_0, # of connection points: 6
#     Node 3, Type 0, BuildingBlock: PAMTUU_clean_sbu_0, # of connection points: 6
#     Node 4, Type 0, BuildingBlock: PAMTUU_clean_sbu_0, # of connection points: 6
#     Node 5, Type 0, BuildingBlock: PAMTUU_clean_sbu_0, # of connection points: 6
#     Node 6, Type 0, BuildingBlock: PAMTUU_clean_sbu_0, # of connection points: 6
#     Node 7, Type 0, BuildingBlock: PAMTUU_clean_sbu_0, # of connection points: 6
#     Node 8, Type 0, BuildingBlock: PAMTUU_clean_sbu_0, # of connection points: 6
#     Node 9, Type 0, BuildingBlock: PAMTUU_clean_sbu_0, # of connection points: 6
#     Node 10, Type 0, BuildingBlock: PAMTUU_clean_sbu_0, # of connection points: 6
#     Node 11, Type 0, BuildingBlock: PAMTUU_clean_sbu_0, # of connection points: 6
#     Edge 12, Type (0, 0), BuildingBlock: XIVTED_clean_linker_0, # of connection points: 2
#     Edge 13, Type (0, 0), BuildingBlock: XIVTED_clean_linker_0, # of connection points: 2
#     Edge 14, Type (0, 0), BuildingBlock: XIVTED_clean_linker_0, # of connection points: 2
#     Edge 15, Type (0, 0), BuildingBlock: XIVTED_clean_linker_0, # of connection points: 2
#     Edge 16, Type (0, 0), BuildingBlock: XIVTED_clean_linker_0, # of connection points: 2
#     Edge 17, Type (0, 0), BuildingBlock: XIVTED_clean_linker_0, # of connection points: 2
#     Edge 18, Type (0, 0), BuildingBlock: XIVTED_clean_linker_0, # of connection points: 2
#     Edge 19, Type (0, 0), BuildingBlock: XIVTED_clean_linker_0, # of connection points: 2
#     Edge 20, Type (0, 0), BuildingBlock: XIVTED_clean_linker_0, # of connection points: 2
#     Edge 21, Type (0, 0), BuildingBlock: XIVTED_clean_linker_0, # of connection points: 2
#     Edge 22, Type (0, 0), BuildingBlock: XIVTED_clean_linker_0, # of connection points: 2
#     Edge 23, Type (0, 0), BuildingBlock: XIVTED_clean_linker_0, # of connection points: 2
#     Edge 24, Type (0, 0), BuildingBlock: XIVTED_clean_linker_0, # of connection points: 2
#     Edge 25, Type (0, 0), BuildingBlock: XIVTED_clean_linker_0, # of connection points: 2
#     Edge 26, Type (0, 0), BuildingBlock: XIVTED_clean_linker_0, # of connection points: 2
#     Edge 27, Type (0, 0), BuildingBlock: XIVTED_clean_linker_0, # of connection points: 2
#     Edge 28, Type (0, 0), BuildingBlock: XIVTED_clean_linker_0, # of connection points: 2
#     Edge 29, Type (0, 0), BuildingBlock: XIVTED_clean_linker_0, # of connection points: 2
#     Edge 30, Type (0, 0), BuildingBlock: XIVTED_clean_linker_0, # of connection points: 2
#     Edge 31, Type (0, 0), BuildingBlock: XIVTED_clean_linker_0, # of connection points: 2
#     Edge 32, Type (0, 0), BuildingBlock: XIVTED_clean_linker_0, # of connection points: 2
#     Edge 33, Type (0, 0), BuildingBlock: XIVTED_clean_linker_0, # of connection points: 2
#     Edge 34, Type (0, 0), BuildingBlock: XIVTED_clean_linker_0, # of connection points: 2
#     Edge 35, Type (0, 0), BuildingBlock: XIVTED_clean_linker_0, # of connection points: 2
#     Edge 36, Type (0, 0), BuildingBlock: XIVTED_clean_linker_0, # of connection points: 2
#     Edge 37, Type (0, 0), BuildingBlock: XIVTED_clean_linker_0, # of connection points: 2
#     Edge 38, Type (0, 0), BuildingBlock: XIVTED_clean_linker_0, # of connection points: 2
#     Edge 39, Type (0, 0), BuildingBlock: XIVTED_clean_linker_0, # of connection points: 2
#     Edge 40, Type (0, 0), BuildingBlock: XIVTED_clean_linker_0, # of connection points: 2
#     Edge 41, Type (0, 0), BuildingBlock: XIVTED_clean_linker_0, # of connection points: 2
#     Edge 42, Type (0, 0), BuildingBlock: XIVTED_clean_linker_0, # of connection points: 2
#     Edge 43, Type (0, 0), BuildingBlock: XIVTED_clean_linker_0, # of connection points: 2
#     Edge 44, Type (0, 0), BuildingBlock: XIVTED_clean_linker_0, # of connection points: 2
#     Edge 45, Type (0, 0), BuildingBlock: XIVTED_clean_linker_0, # of connection points: 2
#     Edge 46, Type (0, 0), BuildingBlock: XIVTED_clean_linker_0, # of connection points: 2
#     Edge 47, Type (0, 0), BuildingBlock: XIVTED_clean_linker_0, # of connection points: 2
# Relax obj value: 0.814
# Max RMSD: 0.189
# Mean RMSD: 0.189
data_MOF--net-wkj--node1-PAMTUU_clean_sbu_0--edge1-XIVTED_clean_linker_0
_symmetry_space_group_name_H-M    P1
_symmetry_Int_Tables_number       1
_symmetry_cell_setting            triclinic
loop_
_symmetry_equiv_pos_as_xyz
'x, y, z'
_cell_length_a     49.00556
_cell_length_b     49.386766
_cell_length_c     28.852593
_cell_angle_alpha  89.632356
_cell_angle_beta   90.434074
_cell_angle_gamma 119.6784
loop_
_atom_site_label
_atom_site_type_symbol
_atom_site_fract_x
_atom_site_fract_y
_atom_site_fract_z
_atom_type_partial_charge
Tb0 Tb 0.55452 0.12025 0.36998 0.0
Tb1 Tb 0.48179 0.09627 0.39287 0.0
C2 C 0.51262 0.05855 0.42109 0.0
C3 C 0.63285 0.17107 0.31789 0.0
C4 C 0.66344 0.21966 0.25284 0.0
C5 C 0.64927 0.18829 0.23888 0.0
C6 C 0.63406 0.16422 0.27108 0.0
C7 C 0.64953 0.20237 0.33242 0.0
C8 C 0.66441 0.22644 0.30014 0.0
C9 C 0.61236 0.14647 0.35106 0.0
O10 O 0.52885 0.08499 0.31432 0.0
O11 O 0.48224 0.0851 0.31741 0.0
O12 O 0.50605 0.14677 0.39568 0.0
O13 O 0.54227 0.15463 0.34162 0.0
O14 O 0.43814 0.06397 0.41987 0.0
O15 O 0.44314 0.10265 0.3783 0.0
O16 O 0.50213 0.10579 0.46517 0.0
O17 O 0.55458 0.12617 0.44717 0.0
O18 O 0.54156 0.08109 0.41615 0.0
O19 O 0.49078 0.0578 0.3941 0.0
C20 C 0.50077 0.07655 0.29607 0.0
O21 O 0.60035 0.1557 0.38323 0.0
O22 O 0.59156 0.11936 0.33443 0.0
C23 C 0.5257 0.16462 0.36397 0.0
C24 C 0.40527 0.08404 0.43776 0.0
C25 C 0.36519 0.08046 0.50958 0.0
C26 C 0.35332 0.07072 0.46451 0.0
C27 C 0.37324 0.07232 0.42891 0.0
C28 C 0.41778 0.09672 0.48124 0.0
C29 C 0.3979 0.09492 0.51691 0.0
C30 C 0.42437 0.07892 0.40397 0.0
C31 C 0.53203 0.11778 0.47876 0.0
H32 H 0.64784 0.1823 0.20255 0.0
H33 H 0.62189 0.14038 0.25885 0.0
H34 H 0.64961 0.20837 0.36849 0.0
H35 H 0.67532 0.25037 0.31186 0.0
H36 H 0.32837 0.05999 0.45747 0.0
H37 H 0.36332 0.06264 0.39529 0.0
H38 H 0.44254 0.10594 0.48854 0.0
H39 H 0.408 0.10242 0.55112 0.0
Tb40 Tb 0.42904 0.52335 0.7053 0.0
Tb41 Tb 0.37114 0.45812 0.72957 0.0
C42 C 0.43527 0.46755 0.75212 0.0
C43 C 0.4653 0.60298 0.6666 0.0
C44 C 0.43769 0.6335 0.61934 0.0
C45 C 0.46408 0.6331 0.60086 0.0
C46 C 0.47773 0.61794 0.62435 0.0
C47 C 0.44192 0.60709 0.68807 0.0
C48 C 0.42847 0.62253 0.66482 0.0
C49 C 0.47054 0.5773 0.6813 0.0
O50 O 0.43351 0.49216 0.65634 0.0
O51 O 0.38129 0.45755 0.6532 0.0
O52 O 0.35503 0.49149 0.73529 0.0
O53 O 0.38588 0.52241 0.67832 0.0
O54 O 0.35066 0.41315 0.75674 0.0
O55 O 0.32227 0.42871 0.72018 0.0
O56 O 0.38943 0.48114 0.79964 0.0
O57 O 0.41982 0.53184 0.77629 0.0
O58 O 0.44642 0.498 0.74888 0.0
O59 O 0.40885 0.44817 0.73263 0.0
C60 C 0.4097 0.46951 0.63426 0.0
O61 O 0.46434 0.56842 0.72433 0.0
O62 O 0.45844 0.55351 0.65341 0.0
C63 C 0.35979 0.51146 0.70236 0.0
C64 C 0.29857 0.39101 0.78008 0.0
C65 C 0.26519 0.3524 0.85487 0.0
C66 C 0.25685 0.34174 0.80906 0.0
C67 C 0.27363 0.36091 0.77189 0.0
C68 C 0.30418 0.40314 0.8251 0.0
C69 C 0.28758 0.38395 0.86231 0.0
C70 C 0.32239 0.40628 0.74411 0.0
C71 C 0.40815 0.51127 0.81011 0.0
H72 H 0.47203 0.64118 0.56597 0.0
H73 H 0.49568 0.61502 0.60714 0.0
H74 H 0.43189 0.59584 0.72083 0.0
H75 H 0.40883 0.62315 0.68066 0.0
H76 H 0.23929 0.31777 0.80214 0.0
H77 H 0.26895 0.35126 0.73722 0.0
H78 H 0.32341 0.42639 0.83198 0.0
H79 H 0.29477 0.39302 0.89703 0.0
Tb80 Tb 0.89991 0.41903 1.04212 0.0
Tb81 Tb 0.9036 0.35856 1.0632 0.0
C82 C 0.95924 0.42036 1.0956 0.0
C83 C 0.85546 0.45553 1.00604 0.0
C84 C 0.79601 0.42764 0.96313 0.0
C85 C 0.82174 0.45397 0.94313 0.0
C86 C 0.85126 0.46773 0.96442 0.0
C87 C 0.82897 0.43233 1.02932 0.0
C88 C 0.79941 0.41864 1.00814 0.0
C89 C 0.88689 0.46045 1.01774 0.0
O90 O 0.92644 0.41793 0.98159 0.0
O91 O 0.93313 0.37617 0.99879 0.0
O92 O 0.86905 0.34816 1.00919 0.0
O93 O 0.85185 0.37776 1.04046 0.0
O94 O 0.92152 0.32796 1.06068 0.0
O95 O 0.87494 0.31278 1.08731 0.0
O96 O 0.8908 0.3733 1.13227 0.0
O97 O 0.899 0.42228 1.11624 0.0
O98 O 0.94711 0.4358 1.07352 0.0
O99 O 0.9459 0.39018 1.09644 0.0
C100 C 0.93821 0.39986 0.97103 0.0
O101 O 0.89157 0.45551 1.06062 0.0
O102 O 0.89696 0.447 0.98935 0.0
C103 C 0.84574 0.35291 1.01661 0.0
C104 C 0.90464 0.29168 1.12089 0.0
C105 C 0.93006 0.27301 0.19374 0.0
C106 C 0.92891 0.26205 0.14858 0.0
C107 C 0.91616 0.27124 1.11243 0.0
C108 C 0.90426 0.30138 0.16633 0.0
C109 C 0.91667 0.29191 0.20255 0.0
C110 C 0.8971 0.3057 1.08143 0.0
C111 C 0.89297 0.40031 1.14655 0.0
H112 H 0.8202 0.46167 0.90848 0.0
H113 H 0.87135 0.48553 0.94585 0.0
H114 H 0.8315 0.42252 1.06167 0.0
H115 H 0.77998 0.39889 1.02492 0.0
H116 H 0.93908 0.24748 1.14094 0.0
H117 H 0.91677 0.2637 1.07745 0.0
H118 H 0.89586 0.31751 0.17349 0.0
H119 H 0.91773 0.30115 0.23689 0.0
Tb120 Tb 0.45212 0.87182 0.37168 0.0
Tb121 Tb 0.52413 0.89815 0.39945 0.0
C122 C 0.4876 0.93047 0.43783 0.0
C123 C 0.38087 0.81993 0.3098 0.0
C124 C 0.35267 0.76643 0.25354 0.0
C125 C 0.3343 0.77794 0.27343 0.0
C126 C 0.34832 0.8044 0.30194 0.0
C127 C 0.39914 0.8087 0.28934 0.0
C128 C 0.38522 0.7822 0.26183 0.0
C129 C 0.3961 0.84611 0.34225 0.0
O130 O 0.47944 0.89725 0.30778 0.0
O131 O 0.52837 0.92782 0.33845 0.0
O132 O 0.51081 0.85926 0.35182 0.0
O133 O 0.45939 0.8316 0.36886 0.0
O134 O 0.57192 0.9319 0.39866 0.0
O135 O 0.55641 0.88514 0.424 0.0
O136 O 0.4985 0.87919 0.46789 0.0
O137 O 0.44808 0.86718 0.44814 0.0
O138 O 0.46402 0.91466 0.40883 0.0
O139 O 0.51327 0.92843 0.43818 0.0
C140 C 0.50848 0.92124 0.30349 0.0
O141 O 0.40456 0.83892 0.38104 0.0
O142 O 0.41872 0.87201 0.32534 0.0
C143 C 0.48476 0.83251 0.35345 0.0
C144 C 0.60395 0.92602 0.4541 0.0
C145 C 0.65053 0.95352 0.5229 0.0
C146 C 0.6589 0.95633 0.47598 0.0
C147 C 0.63574 0.94256 0.44187 0.0
C148 C 0.59542 0.92279 0.50089 0.0
C149 C 0.61859 0.93635 0.5351 0.0
C150 C 0.58032 0.91298 0.41719 0.0
C151 C 0.46895 0.87055 0.48036 0.0
H152 H 0.30923 0.76646 0.26702 0.0
H153 H 0.33385 0.81264 0.31789 0.0
H154 H 0.4243 0.82043 0.29476 0.0
H155 H 0.40021 0.77457 0.24588 0.0
H156 H 0.6833 0.96937 0.46569 0.0
H157 H 0.64264 0.94519 0.40579 0.0
H158 H 0.57092 0.91025 0.51088 0.0
H159 H 0.61146 0.9343 0.57098 0.0
Tb160 Tb 0.5763 0.46726 0.70748 0.0
Tb161 Tb 0.63479 0.53304 0.73076 0.0
C162 C 0.5705 0.52276 0.76005 0.0
C163 C 0.54074 0.38913 0.66071 0.0
C164 C 0.56229 0.35724 0.60436 0.0
C165 C 0.53728 0.36168 0.5896 0.0
C166 C 0.52662 0.37749 0.61756 0.0
C167 C 0.56348 0.38191 0.67743 0.0
C168 C 0.57404 0.36601 0.64958 0.0
C169 C 0.53566 0.41274 0.68423 0.0
O170 O 0.58165 0.4933 0.64274 0.0
O171 O 0.61463 0.54319 0.66729 0.0
O172 O 0.64901 0.51083 0.67979 0.0
O173 O 0.61895 0.46229 0.70555 0.0
O174 O 0.66441 0.5806 0.71966 0.0
O175 O 0.67919 0.55472 0.76376 0.0
O176 O 0.62054 0.50482 0.79902 0.0
O177 O 0.57133 0.46482 0.78172 0.0
O178 O 0.55681 0.49554 0.73774 0.0
O179 O 0.60072 0.54092 0.76223 0.0
C180 C 0.59543 0.5236 0.63537 0.0
O181 O 0.54733 0.42034 0.72578 0.0
O182 O 0.54185 0.43737 0.65972 0.0
C183 C 0.64496 0.48303 0.68557 0.0
C184 C 0.69624 0.60731 0.7827 0.0
C185 C 0.71684 0.65907 0.84136 0.0
C186 C 0.7386 0.65166 0.82225 0.0
C187 C 0.72833 0.62603 0.79267 0.0
C188 C 0.67446 0.61418 0.80295 0.0
C189 C 0.6847 0.63993 0.83176 0.0
C190 C 0.6857 0.58221 0.74853 0.0
C191 C 0.59321 0.48015 0.81257 0.0
H192 H 0.52783 0.35554 0.5548 0.0
H193 H 0.50907 0.38272 0.60397 0.0
H194 H 0.57478 0.39039 0.71074 0.0
H195 H 0.593 0.36259 0.6622 0.0
H196 H 0.76345 0.6659 0.82967 0.0
H197 H 0.74542 0.62105 0.77713 0.0
H198 H 0.64956 0.59992 0.79586 0.0
H199 H 0.66738 0.64467 0.84708 0.0
Tb200 Tb 0.10307 0.57065 1.04456 0.0
Tb201 Tb 0.09228 0.62698 1.06634 0.0
C202 C 0.04043 0.56284 1.09713 0.0
C203 C 0.1502 0.53901 0.99943 0.0
C204 C 0.20516 0.56336 0.94551 0.0
C205 C 0.17685 0.53786 0.92961 0.0
C206 C 0.14964 0.52581 0.95637 0.0
C207 C 0.17914 0.56235 1.01734 0.0
C208 C 0.20636 0.57428 0.99071 0.0
C209 C 0.12038 0.53232 1.02142 0.0
O210 O 0.07871 0.57227 0.98105 0.0
O211 O 0.06301 0.60717 1.00184 0.0
O212 O 0.12827 0.64183 1.01451 0.0
O213 O 0.14933 0.61432 1.04269 0.0
O214 O 0.07229 0.65535 1.05707 0.0
O215 O 0.11493 0.67154 1.09722 0.0
O216 O 0.10708 0.61326 1.13527 0.0
O217 O 0.10061 0.56517 1.11863 0.0
O218 O 0.05569 0.54993 1.07707 0.0
O219 O 0.0504 0.59256 1.09672 0.0
C220 C 0.06255 0.58652 0.97194 0.0
O221 O 0.1226 0.54268 1.06334 0.0
O222 O 0.1019 0.53832 0.99606 0.0
C223 C 0.15317 0.63965 1.02196 0.0
C224 C 0.07933 0.68847 1.11927 0.0
C225 C 0.05208 0.71121 0.18231 0.0
C226 C 0.08241 0.73096 0.16526 0.0
C227 C 0.09584 0.71969 1.13353 0.0
C228 C 0.04931 0.66861 1.13715 0.0
C229 C 0.03576 0.67994 0.16809 0.0
C230 C 0.09269 0.67718 1.08397 0.0
C231 C 0.10597 0.58658 0.1493 0.0
H232 H 0.17486 0.52897 0.89481 0.0
H233 H 0.12766 0.50784 0.94186 0.0
H234 H 0.18046 0.57299 1.0506 0.0
H235 H 0.22784 0.59355 1.00427 0.0
H236 H 0.09556 0.75505 0.17624 0.0
H237 H 0.11902 0.73533 1.11997 0.0
H238 H 0.0362 0.64434 1.12698 0.0
H239 H 0.01269 0.66399 0.18175 0.0
Tb240 Tb 0.89831 0.46481 0.58975 0.0
Tb241 Tb 0.90427 0.52979 0.56679 0.0
C242 C 0.9589 0.52106 0.53634 0.0
C243 C 0.85516 0.38735 0.63785 0.0
C244 C 0.80118 0.35787 0.6939 0.0
C245 C 0.83021 0.36196 0.70999 0.0
C246 C 0.85695 0.37658 0.68218 0.0
C247 C 0.82553 0.38036 0.62003 0.0
C248 C 0.79881 0.36568 0.64776 0.0
C249 C 0.88421 0.41037 0.61426 0.0
O250 O 0.9213 0.49116 0.65325 0.0
O251 O 0.93437 0.54069 0.63074 0.0
O252 O 0.86908 0.50758 0.61951 0.0
O253 O 0.8506 0.45964 0.59232 0.0
O254 O 0.92096 0.57726 0.57636 0.0
O255 O 0.87976 0.54991 0.53427 0.0
O256 O 0.89072 0.50157 0.49838 0.0
O257 O 0.90063 0.46194 0.51558 0.0
O258 O 0.94517 0.49299 0.55648 0.0
O259 O 0.94721 0.53957 0.53687 0.0
C260 C 0.93606 0.52137 0.66149 0.0
O261 O 0.88069 0.41783 0.57226 0.0
O262 O 0.90268 0.43507 0.63835 0.0
C263 C 0.84532 0.47994 0.61356 0.0
C264 C 0.91363 0.60252 0.51293 0.0
C265 C 0.94172 0.65336 0.45154 0.0
C266 C 0.91199 0.64423 0.47011 0.0
C267 C 0.89814 0.61908 0.50107 0.0
C268 C 0.94289 0.6111 0.49324 0.0
C269 C 0.95689 0.63641 0.4631 0.0
C270 C 0.90041 0.57783 0.54815 0.0
C271 C 0.89373 0.47708 0.48468 0.0
H272 H 0.83304 0.3565 0.7455 0.0
H273 H 0.87946 0.3817 0.69669 0.0
H274 H 0.8232 0.38818 0.58584 0.0
H275 H 0.77675 0.36247 0.63412 0.0
H276 H 0.89973 0.65675 0.46114 0.0
H277 H 0.87555 0.61276 0.51609 0.0
H278 H 0.95516 0.5985 0.50166 0.0
H279 H 0.97945 0.64246 0.44821 0.0
Tb280 Tb 0.42949 0.88074 0.93443 0.0
Tb281 Tb 0.38171 0.90532 0.9079 0.0
C282 C 0.45037 0.93802 0.86904 0.0
C283 C 0.4508 0.82217 0.96497 0.0
C284 C 0.41481 0.75945 0.99282 0.0
C285 C 0.44194 0.78037 1.0179 0.0
C286 C 0.45969 0.81148 1.00409 0.0
C287 C 0.4266 0.80053 0.93627 0.0
C288 C 0.409 0.76929 0.9498 0.0
C289 C 0.46074 0.85551 0.96149 0.0
O290 O 0.43388 0.91158 0.9947 0.0
O291 O 0.40643 0.93516 0.96886 0.0
O292 O 0.35614 0.86461 0.95255 0.0
O293 O 0.38243 0.83951 0.93401 0.0
O294 O 0.36669 0.93799 0.91327 0.0
O295 O 0.3377 0.89395 0.87881 0.0
O296 O 0.38867 0.88672 0.83965 0.0
O297 O 0.4252 0.87185 0.85875 0.0
O298 O 0.45912 0.92589 0.90283 0.0
O299 O 0.42193 0.93403 0.86601 0.0
C300 C 0.42465 0.93256 1.00059 0.0
O301 O 0.463 0.86701 0.92006 0.0
O302 O 0.44555 0.86407 0.98913 0.0
C303 C 0.35697 0.83865 0.9493 0.0
C304 C 0.33444 0.93783 0.85257 0.0
C305 C 0.321 0.97307 0.78904 0.0
C306 C 0.29648 0.94702 0.811 0.0
C307 C 0.3032 0.92965 0.84288 0.0
C308 C 0.35892 0.96325 0.8295 0.0
C309 C 0.35224 0.98082 0.79822 0.0
C310 C 0.3412 0.9212 0.88917 0.0
C311 C 0.40817 0.87633 0.82697 0.0
H312 H 0.44744 0.77398 1.05119 0.0
H313 H 0.47823 0.82781 1.02673 0.0
H314 H 0.41931 0.80825 0.90576 0.0
H315 H 0.38887 0.75371 0.92893 0.0
H316 H 0.27222 0.94048 0.80417 0.0
H317 H 0.28405 0.91012 0.86052 0.0
H318 H 0.38321 0.96984 0.83622 0.0
H319 H 0.37154 0.00037 0.78085 0.0
Tb320 Tb 0.52379 0.42316 0.25129 0.0
Tb321 Tb 0.45784 0.3637 0.23051 0.0
C322 C 0.46762 0.42697 0.19685 0.0
C323 C 0.60421 0.45843 0.28899 0.0
C324 C 0.63472 0.43041 0.33531 0.0
C325 C 0.63308 0.4555 0.35556 0.0
C326 C 0.61793 0.46936 0.33255 0.0
C327 C 0.60951 0.43633 0.26622 0.0
C328 C 0.62482 0.42259 0.2891 0.0
C329 C 0.57883 0.46417 0.27312 0.0
O330 O 0.49799 0.41933 0.31526 0.0
O331 O 0.44776 0.38432 0.29292 0.0
O332 O 0.48151 0.35052 0.28191 0.0
O333 O 0.52971 0.38144 0.25417 0.0
O334 O 0.40924 0.33607 0.23837 0.0
O335 O 0.43596 0.31801 0.20409 0.0
O336 O 0.4857 0.37631 0.16203 0.0
O337 O 0.52629 0.42549 0.17689 0.0
O338 O 0.4939 0.44139 0.22201 0.0
O339 O 0.45093 0.39685 0.19365 0.0
C340 C 0.4676 0.40477 0.32347 0.0
O341 O 0.5694 0.45654 0.23058 0.0
O342 O 0.55508 0.45412 0.30117 0.0
C343 C 0.50998 0.35584 0.276 0.0
C344 C 0.38363 0.30085 0.17857 0.0
C345 C 0.3357 0.28547 1.11255 0.0
C346 C 0.32819 0.27712 0.15922 0.0
C347 C 0.352 0.2846 0.19192 0.0
C348 C 0.39119 0.30816 1.13167 0.0
C349 C 0.36736 0.30028 1.09884 0.0
C350 C 0.40798 0.31309 0.21478 0.0
C351 C 0.51062 0.40306 1.14733 0.0
H352 H 0.64029 0.46223 0.39114 0.0
H353 H 0.61416 0.48634 0.35076 0.0
H354 H 0.59937 0.4275 0.23239 0.0
H355 H 0.6263 0.40387 0.27211 0.0
H356 H 0.30398 0.26569 0.17059 0.0
H357 H 0.34577 0.27896 0.22806 0.0
H358 H 0.41546 0.32109 1.12069 0.0
H359 H 0.3738 0.30741 1.06316 0.0
Tb360 Tb 0.10397 0.52223 0.59181 0.0
Tb361 Tb 0.10141 0.45885 0.57198 0.0
C362 C 0.04492 0.46463 0.53937 0.0
C363 C 0.14788 0.602 0.62833 0.0
C364 C 0.20683 0.63289 0.67269 0.0
C365 C 0.18066 0.63335 0.69185 0.0
C366 C 0.1514 0.61793 0.66984 0.0
C367 C 0.17478 0.60521 0.60605 0.0
C368 C 0.20406 0.62067 0.62798 0.0
C369 C 0.11664 0.57627 0.61542 0.0
O370 O 0.07808 0.49497 0.65291 0.0
O371 O 0.07192 0.44688 0.63648 0.0
O372 O 0.13597 0.4828 0.6257 0.0
O373 O 0.1523 0.52888 0.59281 0.0
O374 O 0.08445 0.4108 0.57544 0.0
O375 O 0.13064 0.44206 0.54793 0.0
O376 O 0.11363 0.4864 0.50254 0.0
O377 O 0.10321 0.52583 0.51777 0.0
O378 O 0.05678 0.49206 0.56075 0.0
O379 O 0.05869 0.44796 0.539 0.0
C380 C 0.06661 0.46537 0.66392 0.0
O381 O 0.11291 0.5671 0.57256 0.0
O382 O 0.1057 0.55266 0.64382 0.0
C383 C 0.15893 0.51056 0.61748 0.0
C384 C 0.10163 0.3915 0.51569 0.0
C385 C 0.07674 0.34742 0.44402 0.0
C386 C 0.0783 0.33796 0.48949 0.0
C387 C 0.09079 0.35991 0.52505 0.0
C388 C 0.10158 0.40124 0.46994 0.0
C389 C 0.08944 0.37936 0.4343 0.0
C390 C 0.10897 0.41304 0.55456 0.0
C391 C 0.11019 0.51059 0.48778 0.0
H392 H 0.18174 0.64239 0.72631 0.0
H393 H 0.13098 0.61567 0.68768 0.0
H394 H 0.17279 0.59321 0.57382 0.0
H395 H 0.22383 0.62038 0.61194 0.0
H396 H 0.06867 0.31349 0.49782 0.0
H397 H 0.09052 0.35202 0.56027 0.0
H398 H 0.10946 0.42548 0.46209 0.0
H399 H 0.08804 0.38724 0.39969 0.0
Tb400 Tb 0.56852 0.10829 0.93385 0.0
Tb401 Tb 0.61974 0.08787 0.91211 0.0
C402 C 0.55268 0.04904 0.87829 0.0
C403 C 0.54359 0.16332 0.96747 0.0
C404 C 0.57787 0.2242 1.00321 0.0
C405 C 0.5538 0.20008 1.02941 0.0
C406 C 0.53683 0.16994 1.01163 0.0
C407 C 0.56452 0.18812 0.93899 0.0
C408 C 0.58127 0.21835 0.9566 0.0
C409 C 0.53398 0.13079 0.95551 0.0
O410 O 0.55759 0.06906 0.98353 0.0
O411 O 0.60731 0.07684 0.98747 0.0
O412 O 0.64531 0.13836 0.90888 0.0
O413 O 0.61449 0.14664 0.95828 0.0
O414 O 0.63184 0.05573 0.88688 0.0
O415 O 0.66548 0.09583 0.92562 0.0
O416 O 0.6093 0.0988 0.84029 0.0
O417 O 0.58029 0.12232 0.85953 0.0
O418 O 0.54408 0.06974 0.8864 0.0
O419 O 0.57363 0.04793 0.90512 0.0
C420 C 0.57857 0.0639 1.00524 0.0
O421 O 0.53899 0.1258 0.91311 0.0
O422 O 0.54293 0.11651 0.98479 0.0
C423 C 0.64169 0.15669 0.93757 0.0
C424 C 0.68456 0.076 0.86763 0.0
C425 C 0.7192 0.06896 0.79631 0.0
C426 C 0.72277 0.06171 0.84239 0.0
C427 C 0.70537 0.06503 0.87778 0.0
C428 C 0.68353 0.08653 0.82282 0.0
C429 C 0.70072 0.08304 0.78737 0.0
C430 C 0.66071 0.07158 0.90165 0.0
C431 C 0.59321 0.11297 0.82741 0.0
H432 H 0.55028 0.20338 1.06546 0.0
H433 H 0.52065 0.15127 1.03408 0.0
H434 H 0.56999 0.18387 0.90443 0.0
H435 H 0.59893 0.23649 0.935 0.0
H436 H 0.7372 0.05132 0.85052 0.0
H437 H 0.70654 0.057 0.91239 0.0
H438 H 0.66756 0.09512 0.8145 0.0
H439 H 0.69711 0.08868 0.75235 0.0
Tb440 Tb 0.48022 0.5703 0.24902 0.0
Tb441 Tb 0.54607 0.62876 0.2292 0.0
C442 C 0.53775 0.56609 0.19847 0.0
C443 C 0.40097 0.53566 0.29272 0.0
C444 C 0.3692 0.55804 0.34796 0.0
C445 C 0.3733 0.53314 0.3634 0.0
C446 C 0.38906 0.52207 0.33599 0.0
C447 C 0.39406 0.55834 0.27535 0.0
C448 C 0.37825 0.56933 0.30267 0.0
C449 C 0.42474 0.53026 0.26987 0.0
O450 O 0.50523 0.57325 0.31393 0.0
O451 O 0.55568 0.60899 0.29379 0.0
O452 O 0.52307 0.64113 0.28133 0.0
O453 O 0.47549 0.61282 0.25083 0.0
O454 O 0.59409 0.65862 0.23889 0.0
O455 O 0.56626 0.67384 0.1999 0.0
O456 O 0.51813 0.61498 0.15991 0.0
O457 O 0.47954 0.56513 0.17521 0.0
O458 O 0.5094 0.55182 0.21815 0.0
O459 O 0.55615 0.59607 0.19903 0.0
C460 C 0.5355 0.58805 0.32352 0.0
O461 O 0.43321 0.54221 0.22868 0.0
O462 O 0.44905 0.53568 0.29523 0.0
C463 C 0.49564 0.63792 0.27318 0.0
C464 C 0.61914 0.69326 0.17723 0.0
C465 C 0.6678 0.71876 1.11166 0.0
C466 C 0.65411 0.73618 1.12725 0.0
C467 C 0.63009 0.72357 0.16019 0.0
C468 C 0.63264 0.67579 0.16125 0.0
C469 C 0.65684 0.68849 1.12905 0.0
C470 C 0.5945 0.68041 0.21272 0.0
C471 C 0.49438 0.5874 1.14506 0.0
H472 H 0.36692 0.52403 0.39829 0.0
H473 H 0.39405 0.50459 0.3501 0.0
H474 H 0.40274 0.56926 0.24195 0.0
H475 H 0.37507 0.58819 0.28954 0.0
H476 H 0.66195 0.75942 1.11391 0.0
H477 H 0.61998 0.73741 0.17223 0.0
H478 H 0.62446 0.65224 0.17349 0.0
H479 H 0.66632 0.67419 1.11665 0.0
H480 H 0.49308 0.18964 0.40467 0.0
H481 H 0.55885 0.34549 0.24897 0.0
H482 H 0.56191 0.21005 0.29803 0.0
H483 H 0.47852 0.30964 0.33908 0.0
H484 H 0.5659 0.30078 0.2711 0.0
H485 H 0.49309 0.23762 0.38588 0.0
C486 C 0.50838 0.20422 0.37725 0.0
C487 C 0.52738 0.19528 0.35284 0.0
C488 C 0.54685 0.30288 0.2861 0.0
C489 C 0.52743 0.25135 0.33069 0.0
C490 C 0.54292 0.32853 0.27368 0.0
C491 C 0.51787 0.33143 0.29184 0.0
C492 C 0.52579 0.28013 0.31731 0.0
C493 C 0.49802 0.30853 0.3237 0.0
C494 C 0.50832 0.23184 0.36643 0.0
C495 C 0.54672 0.21571 0.31777 0.0
N496 N 0.50238 0.28415 0.33516 0.0
N497 N 0.54618 0.24266 0.30766 0.0
H498 H 0.30917 0.49836 0.7557 0.0
H499 H 0.21696 0.55102 0.57697 0.0
H500 H 0.35019 0.54017 0.6242 0.0
H501 H 0.17527 0.48686 0.69083 0.0
H502 H 0.26849 0.55604 0.59761 0.0
H503 H 0.26354 0.50332 0.73683 0.0
C504 C 0.3088 0.50884 0.72277 0.0
C505 C 0.33382 0.51853 0.69143 0.0
C506 C 0.24805 0.54111 0.61822 0.0
C507 C 0.28039 0.5242 0.66912 0.0
C508 C 0.21866 0.53843 0.6067 0.0
C509 C 0.19152 0.51837 0.63208 0.0
C510 C 0.25041 0.52402 0.6559 0.0
C511 C 0.19529 0.50247 0.66999 0.0
C512 C 0.28244 0.5116 0.71193 0.0
C513 C 0.33159 0.53226 0.64953 0.0
N514 N 0.22386 0.50564 0.68055 0.0
N515 N 0.30529 0.53448 0.63944 0.0
H516 H 0.78688 0.33873 1.05148 0.0
H517 H 0.6982 0.18454 0.89329 0.0
H518 H 0.83051 0.30961 0.94903 0.0
H519 H 0.64988 0.20171 1.0037 0.0
H520 H 0.74504 0.23366 0.91014 0.0
H521 H 0.73559 0.29284 1.0318 0.0
C522 C 0.78569 0.32307 1.02444 0.0
C523 C 0.81333 0.32816 1.00211 0.0
C524 C 0.72432 0.22696 0.93086 0.0
C525 C 0.75455 0.27548 0.97934 0.0
C526 C 0.69726 0.19863 0.92116 0.0
C527 C 0.66967 0.18839 0.94718 0.0
C528 C 0.72454 0.2459 0.96721 0.0
C529 C 0.67046 0.20836 0.98266 0.0
C530 C 0.75636 0.29673 1.01338 0.0
C531 C 0.81013 0.30679 0.96756 0.0
N532 N 0.69742 0.23598 0.99179 0.0
N533 N 0.78163 0.2817 0.9575 0.0
H534 H 0.44026 0.64179 0.27298 0.0
H535 H 0.53506 0.82544 0.33095 0.0
H536 H 0.53994 0.69621 0.29908 0.0
H537 H 0.43417 0.77248 0.34245 0.0
H538 H 0.53556 0.77792 0.31063 0.0
H539 H 0.43565 0.6884 0.29108 0.0
C540 C 0.4611 0.66334 0.28241 0.0
C541 C 0.49053 0.66478 0.28446 0.0
C542 C 0.5132 0.7765 0.31752 0.0
C543 C 0.48551 0.71829 0.30461 0.0
C544 C 0.5129 0.80384 0.32902 0.0
C545 C 0.48457 0.80325 0.33877 0.0
C546 C 0.48495 0.74785 0.31523 0.0
C547 C 0.45665 0.77419 0.33553 0.0
C548 C 0.45846 0.68994 0.29281 0.0
C549 C 0.51666 0.69351 0.29708 0.0
N550 N 0.45752 0.74772 0.32406 0.0
N551 N 0.51352 0.71879 0.3063 0.0
H552 H 0.7012 0.52556 0.64992 0.0
H553 H 0.78558 0.42594 0.6073 0.0
H554 H 0.65042 0.42867 0.69056 0.0
H555 H 0.83163 0.52216 0.65038 0.0
H556 H 0.73417 0.42222 0.6247 0.0
H557 H 0.74667 0.52054 0.63337 0.0
C558 C 0.69935 0.50298 0.65528 0.0
C559 C 0.67157 0.47761 0.67239 0.0
C560 C 0.7557 0.44395 0.63056 0.0
C561 C 0.72495 0.47175 0.6529 0.0
C562 C 0.78505 0.44614 0.62055 0.0
C563 C 0.81331 0.47454 0.62677 0.0
C564 C 0.75472 0.4705 0.64601 0.0
C565 C 0.81089 0.49979 0.64439 0.0
C566 C 0.72568 0.50022 0.64585 0.0
C567 C 0.67128 0.449 0.67788 0.0
N568 N 0.78248 0.49722 0.6527 0.0
N569 N 0.6976 0.44682 0.66823 0.0
H570 H 0.34776 0.77851 0.94443 0.0
H571 H 0.16508 0.69874 1.0063 0.0
H572 H 0.3004 0.8289 0.98254 0.0
H573 H 0.21323 0.64563 1.01463 0.0
H574 H 0.21451 0.74538 0.99029 0.0
H575 H 0.29951 0.72918 0.96299 0.0
C576 C 0.32744 0.77932 0.95711 0.0
C577 C 0.32846 0.8082 0.96203 0.0
C578 C 0.21454 0.72366 0.9956 0.0
C579 C 0.27301 0.7516 0.98313 0.0
C580 C 0.18606 0.6967 1.0046 0.0
C581 C 0.18458 0.66778 1.01189 0.0
C582 C 0.24242 0.72232 0.99306 0.0
C583 C 0.21306 0.66727 1.00943 0.0
C584 C 0.29993 0.7511 0.96775 0.0
C585 C 0.30109 0.8075 0.97811 0.0
N586 N 0.24076 0.69406 0.99994 0.0
N587 N 0.27474 0.7799 0.98776 0.0
H588 H 0.64145 0.25363 0.98585 0.0
H589 H 0.69683 0.22936 0.17268 0.0
H590 H 0.5743 0.2576 1.07747 0.0
H591 H 0.64759 0.26539 0.25171 0.0
H592 H 0.69212 0.25553 1.10435 0.0
H593 H 0.68137 0.27772 1.04514 0.0
C594 C 0.63508 0.26031 1.0179 0.0
C595 C 0.60365 0.25136 1.02783 0.0
C596 C 0.6834 0.25906 1.13673 0.0
C597 C 0.64909 0.27683 1.09718 0.0
C598 C 0.68601 0.2438 0.17591 0.0
C599 C 0.67157 0.24427 0.21737 0.0
C600 C 0.66545 0.27419 1.13896 0.0
C601 C 0.6585 0.26388 0.22009 0.0
C602 C 0.65802 0.27358 1.05235 0.0
C603 C 0.5977 0.26206 1.06943 0.0
N604 N 0.6548 0.2772 0.181 0.0
N605 N 0.61988 0.27306 1.1034 0.0
H606 H 0.32578 0.53588 0.41836 0.0
H607 H 0.37297 0.60164 0.61972 0.0
H608 H 0.39674 0.6214 0.35609 0.0
H609 H 0.45156 0.67385 0.54494 0.0
H610 H 0.34035 0.59157 0.55177 0.0
H611 H 0.32875 0.56431 0.48802 0.0
C612 C 0.34132 0.56089 0.41889 0.0
C613 C 0.36194 0.57596 0.38206 0.0
C614 C 0.36465 0.60974 0.54989 0.0
C615 C 0.36594 0.60916 0.46227 0.0
C616 C 0.38338 0.61607 0.58943 0.0
C617 C 0.41582 0.63733 0.58731 0.0
C618 C 0.37877 0.62414 0.50778 0.0
C619 C 0.42717 0.65586 0.54734 0.0
C620 C 0.34301 0.57739 0.45891 0.0
C621 C 0.38081 0.60854 0.38397 0.0
N622 N 0.40899 0.64806 0.50859 0.0
N623 N 0.38303 0.62386 0.42393 0.0
H624 H 0.76809 0.36392 0.96172 0.0
H625 H 0.76518 0.38604 0.69815 0.0
H626 H 0.76495 0.44035 0.89337 0.0
H627 H 0.78019 0.31677 0.76754 0.0
H628 H 0.73916 0.3901 0.7669 0.0
H629 H 0.7455 0.33229 0.89324 0.0
C630 C 0.76145 0.3738 0.93315 0.0
C631 C 0.76999 0.40553 0.93253 0.0
C632 C 0.74721 0.37325 0.76668 0.0
C633 C 0.74515 0.36949 0.85313 0.0
C634 C 0.76198 0.37072 0.72714 0.0
C635 C 0.77604 0.35187 0.72769 0.0
C636 C 0.74706 0.35728 0.80719 0.0
C637 C 0.77083 0.33254 0.76632 0.0
C638 C 0.74873 0.35564 0.89363 0.0
C639 C 0.76019 0.41649 0.8945 0.0
N640 N 0.75756 0.33639 0.80506 0.0
N641 N 0.74932 0.39887 0.8556 0.0
H642 H 0.35126 0.73713 0.98694 0.0
H643 H 0.36254 0.71655 0.24921 0.0
H644 H 0.41881 0.71903 1.05637 0.0
H645 H 0.31366 0.75777 0.17997 0.0
H646 H 0.35996 0.6889 0.17795 0.0
H647 H 0.31586 0.71424 1.05173 0.0
C648 C 0.35833 0.72726 1.01483 0.0
C649 C 0.38914 0.7322 1.01756 0.0
C650 C 0.34869 0.70301 0.17883 0.0
C651 C 0.34872 0.70643 1.09251 0.0
C652 C 0.35019 0.71884 0.21946 0.0
C653 C 0.33956 0.74054 0.21967 0.0
C654 C 0.33689 0.70937 1.13823 0.0
C655 C 0.32293 0.74191 0.18087 0.0
C656 C 0.33797 0.71423 1.05218 0.0
C657 C 0.39608 0.71761 1.05409 0.0
N658 N 0.32296 0.72733 1.14113 0.0
N659 N 0.37655 0.70648 1.09112 0.0
H660 H 0.6032 0.36639 0.33183 0.0
H661 H 0.53941 0.31489 0.53282 0.0
H662 H 0.67561 0.44332 0.40903 0.0
H663 H 0.62608 0.38415 0.59573 0.0
H664 H 0.56748 0.31926 0.46197 0.0
H665 H 0.5944 0.33248 0.39752 0.0
C666 C 0.61798 0.37613 0.36213 0.0
C667 C 0.639 0.40834 0.36574 0.0
C668 C 0.5809 0.33282 0.49144 0.0
C669 C 0.62725 0.36981 0.44275 0.0
C670 C 0.5646 0.33032 0.53215 0.0
C671 C 0.58007 0.35018 0.56955 0.0
C672 C 0.61283 0.35579 0.48803 0.0
C673 C 0.61289 0.36886 0.56742 0.0
C674 C 0.61239 0.35668 0.40036 0.0
C675 C 0.65791 0.41902 0.40559 0.0
N676 N 0.62798 0.37192 0.52685 0.0
N677 N 0.65084 0.40006 0.44314 0.0
H678 H 0.23975 0.62699 0.93849 0.0
H679 H 0.23576 0.5976 0.67714 0.0
H680 H 0.22807 0.54302 0.87476 0.0
H681 H 0.23718 0.67721 0.74059 0.0
H682 H 0.25971 0.59029 0.74637 0.0
H683 H 0.26509 0.65586 0.86862 0.0
C684 C 0.24355 0.6147 0.91055 0.0
C685 C 0.23046 0.58213 0.91181 0.0
C686 C 0.25581 0.61004 0.7447 0.0
C687 C 0.25856 0.61512 0.83091 0.0
C688 C 0.2423 0.61448 0.70476 0.0
C689 C 0.23302 0.63725 0.70383 0.0
C690 C 0.25942 0.62808 0.7841 0.0
C691 C 0.2426 0.65846 0.7407 0.0
C692 C 0.25792 0.6313 0.87033 0.0
C693 C 0.23653 0.56784 0.87449 0.0
N694 N 0.25431 0.65273 0.78004 0.0
N695 N 0.24927 0.58423 0.83496 0.0
H696 H 0.4103 0.97908 1.02702 0.0
H697 H 0.52411 0.04093 0.25493 0.0
H698 H 0.46285 0.93618 1.07666 0.0
H699 H 0.45057 0.06338 0.2336 0.0
H700 H 0.50511 0.00696 0.18662 0.0
H701 H 0.42718 0.01298 1.09616 0.0
C702 C 0.42539 0.97653 1.05215 0.0
C703 C 0.43496 0.95405 1.04437 0.0
C704 C 0.49311 0.01927 0.19645 0.0
C705 C 0.45506 0.99422 1.12615 0.0
C706 C 0.50411 0.03912 0.23599 0.0
C707 C 0.48939 0.05588 0.25153 0.0
C708 C 0.46717 0.01573 0.16994 0.0
C709 C 0.46319 0.05144 0.2241 0.0
C710 C 0.43506 0.99617 1.09223 0.0
C711 C 0.45456 0.95272 1.07972 0.0
N712 N 0.45333 0.03238 0.18525 0.0
N713 N 0.46371 0.97214 1.11801 0.0
H714 H 0.40658 0.38032 0.36128 0.0
H715 H 0.46646 0.4907 0.59 0.0
H716 H 0.503 0.44779 0.39114 0.0
H717 H 0.36869 0.4232 0.57027 0.0
H718 H 0.47866 0.47469 0.51685 0.0
H719 H 0.39112 0.39461 0.43481 0.0
C720 C 0.42462 0.39808 0.38293 0.0
C721 C 0.45642 0.41258 0.36882 0.0
C722 C 0.45444 0.46319 0.52812 0.0
C723 C 0.4385 0.42941 0.45464 0.0
C724 C 0.44728 0.47242 0.57052 0.0
C725 C 0.41624 0.45856 0.5877 0.0
C726 C 0.43063 0.43953 0.50096 0.0
C727 C 0.39297 0.43486 0.55939 0.0
C728 C 0.41568 0.40629 0.4253 0.0
C729 C 0.47825 0.43555 0.39946 0.0
N730 N 0.40058 0.42624 0.51796 0.0
N731 N 0.46899 0.44303 0.44 0.0
H732 H 0.04443 0.49581 0.71908 0.0
H733 H 0.96324 0.36658 0.92419 0.0
H734 H 0.04345 0.40819 0.71386 0.0
H735 H 0.95838 0.45109 0.91279 0.0
H736 H 0.99338 0.38049 0.85086 0.0
H737 H 0.01448 0.47928 0.79091 0.0
C738 C 0.03808 0.47298 0.73277 0.0
C739 C 0.04709 0.45367 0.70896 0.0
C740 C 0.98572 0.39601 0.86439 0.0
C741 C 0.01179 0.43413 0.79446 0.0
C742 C 0.96841 0.38806 0.90674 0.0
C743 C 0.95768 0.40743 0.92598 0.0
C744 C 0.99298 0.42385 0.8403 0.0
C745 C 0.96561 0.43498 0.90041 0.0
C746 C 0.0207 0.46347 0.77445 0.0
C747 C 0.03739 0.42422 0.72996 0.0
N748 N 0.98246 0.44215 0.8599 0.0
N749 N 0.02062 0.41556 0.77102 0.0
H750 H 0.4775 0.91292 0.2175 0.0
H751 H 0.61645 0.06128 1.07768 0.0
H752 H 0.56519 0.9764 0.28324 0.0
H753 H 0.51944 0.01659 1.03569 0.0
H754 H 0.60105 0.02736 1.14727 0.0
H755 H 0.49546 0.94491 1.14659 0.0
C756 C 0.50043 0.93366 0.21765 0.0
C757 C 0.51937 0.94134 0.25812 0.0
C758 C 0.58302 0.02477 1.12288 0.0
C759 C 0.54029 0.97995 0.17445 0.0
C760 C 0.59188 0.04438 1.08256 0.0
C761 C 0.56949 0.04268 1.04943 0.0
C762 C 0.5513 0.00191 1.13086 0.0
C763 C 0.53801 0.01965 1.05932 0.0
C764 C 0.51068 0.95234 0.17658 0.0
C765 C 0.54919 0.9689 0.254 0.0
N766 N 0.53022 0.00049 1.09797 0.0
N767 N 0.5584 0.98682 0.21389 0.0
H768 H 0.62656 0.58283 0.59235 0.0
H769 H 0.50233 0.53641 0.37945 0.0
H770 H 0.54742 0.49097 0.57194 0.0
H771 H 0.59272 0.61984 0.37416 0.0
H772 H 0.51735 0.52217 0.45274 0.0
H773 H 0.61387 0.59918 0.51766 0.0
C774 C 0.60649 0.566 0.57257 0.0
C775 C 0.58828 0.53519 0.58954 0.0
C776 C 0.53408 0.54365 0.43586 0.0
C777 C 0.57317 0.55423 0.50262 0.0
C778 C 0.52544 0.55199 0.39348 0.0
C779 C 0.54606 0.57963 0.36931 0.0
C780 C 0.56373 0.56308 0.45617 0.0
C781 C 0.57577 0.59829 0.39058 0.0
C782 C 0.59927 0.57543 0.52948 0.0
C783 C 0.56255 0.51486 0.56118 0.0
N784 N 0.5835 0.58987 0.43241 0.0
N785 N 0.55585 0.52468 0.52009 0.0
H786 H 0.0448 0.53533 0.91542 0.0
H787 H 0.96207 0.57998 0.70606 0.0
H788 H 0.03543 0.61742 0.92238 0.0
H789 H 0.95424 0.48972 0.72314 0.0
H790 H 0.9915 0.5964 0.7803 0.0
H791 H 0.01502 0.52095 0.84269 0.0
C792 C 0.03665 0.5506 0.90188 0.0
C793 C 0.04318 0.57791 0.92643 0.0
C794 C 0.98335 0.57298 0.76785 0.0
C795 C 0.00833 0.56119 0.84001 0.0
C796 C 0.96647 0.56351 0.72498 0.0
C797 C 0.9551 0.53311 0.70711 0.0
C798 C 0.98974 0.55227 0.79372 0.0
C799 C 0.96201 0.51329 0.7345 0.0
C800 C 0.01938 0.54218 0.85977 0.0
C801 C 0.03128 0.59614 0.90571 0.0
N802 N 0.97868 0.52313 0.77541 0.0
N803 N 0.01487 0.58766 0.86414 0.0
H804 H 0.4543 0.03064 0.46079 0.0
H805 H 0.52538 0.95352 0.51487 0.0
H806 H 0.55063 0.0573 0.49065 0.0
H807 H 0.4325 0.92768 0.46544 0.0
H808 H 0.51717 0.97907 0.58067 0.0
H809 H 0.43891 0.00292 0.53373 0.0
C810 C 0.47229 0.03045 0.48226 0.0
C811 C 0.50339 0.04335 0.46684 0.0
C812 C 0.49828 0.96738 0.55571 0.0
C813 C 0.48491 0.00835 0.5473 0.0
C814 C 0.50361 0.95408 0.51683 0.0
C815 C 0.48161 0.94323 0.48015 0.0
C816 C 0.47394 0.97451 0.55277 0.0
C817 C 0.45218 0.94038 0.48873 0.0
C818 C 0.46362 0.01536 0.52492 0.0
C819 C 0.5258 0.04449 0.49842 0.0
N820 N 0.44887 0.95567 0.52527 0.0
N821 N 0.51607 0.02676 0.53739 0.0
H822 H 0.47836 0.44647 0.75657 0.0
H823 H 0.58406 0.52551 0.85112 0.0
H824 H 0.41163 0.45564 0.84114 0.0
H825 H 0.5203 0.5345 0.75772 0.0
H826 H 0.5421 0.50043 0.90799 0.0
H827 H 0.50908 0.45259 0.82674 0.0
C828 C 0.47007 0.4498 0.78959 0.0
C829 C 0.44498 0.45565 0.792 0.0
C830 C 0.53795 0.5101 0.87667 0.0
C831 C 0.48334 0.46951 0.86708 0.0
C832 C 0.5614 0.52322 0.84336 0.0
C833 C 0.55353 0.52729 0.79791 0.0
C834 C 0.50754 0.50258 0.86344 0.0
C835 C 0.52589 0.52821 0.79104 0.0
C836 C 0.48728 0.45296 0.83021 0.0
C837 C 0.43408 0.45722 0.83631 0.0
N838 N 0.50383 0.51673 0.82482 0.0
N839 N 0.45393 0.46497 0.87314 0.0
H840 H 0.94713 0.40522 0.18565 0.0
H841 H 0.97796 0.51512 1.09594 0.0
H842 H 0.02188 0.46787 1.09611 0.0
H843 H 0.05173 0.5768 0.18816 0.0
H844 H 0.95304 0.4802 0.16195 0.0
H845 H 0.9656 0.44544 0.245 0.0
C846 C 0.9683 0.42712 0.1793 0.0
C847 C 0.98069 0.43549 1.13438 0.0
C848 C 0.97483 0.50171 0.16798 0.0
C849 C 0.00307 0.47955 0.20228 0.0
C850 C 0.98914 0.5211 1.12972 0.0
C851 C 0.01925 0.5465 1.13553 0.0
C852 C 0.99462 0.50412 0.20569 0.0
C853 C 0.03108 0.5547 0.18092 0.0
C854 C 0.97945 0.44955 0.21397 0.0
C855 C 0.00984 0.46213 1.12906 0.0
N856 N 0.01927 0.5328 0.21486 0.0
N857 N 0.02095 0.48321 0.16403 0.0
H858 H 0.057 0.46188 0.44933 0.0
H859 H 0.02248 0.53846 0.53655 0.0
H860 H 0.98173 0.44869 0.53907 0.0
H861 H 0.94645 0.52352 0.44546 0.0
H862 H 0.04821 0.52993 0.47022 0.0
H863 H 0.03698 0.48254 0.38934 0.0
C864 C 0.03547 0.46223 0.45566 0.0
C865 C 0.02323 0.4582 0.50066 0.0
C866 C 0.02574 0.52871 0.46452 0.0
C867 C 0.99905 0.47846 0.43204 0.0
C868 C 0.01101 0.53299 0.50296 0.0
C869 C 0.98021 0.52703 0.49763 0.0
C870 C 0.00605 0.5109 0.42736 0.0
C871 C 0.96789 0.52305 0.45242 0.0
C872 C 0.02343 0.47283 0.42063 0.0
C873 C 0.9936 0.45504 0.50599 0.0
N874 N 0.98044 0.51389 0.41836 0.0
N875 N 0.98163 0.46432 0.47069 0.0
H876 H 0.43769 0.95997 0.78877 0.0
H877 H 0.58368 0.02192 0.83687 0.0
H878 H 0.49994 0.92984 0.84509 0.0
H879 H 0.52005 0.05613 0.80537 0.0
H880 H 0.57258 -0.00249 0.76099 0.0
H881 H 0.47125 0.98007 0.72103 0.0
C882 C 0.45892 0.95834 0.78762 0.0
C883 C 0.46898 0.94789 0.82616 0.0
C884 C 0.5614 0.01091 0.77032 0.0
C885 C 0.50782 0.97263 0.75061 0.0
C886 C 0.56678 0.02373 0.81471 0.0
C887 C 0.54886 0.03691 0.83064 0.0
C888 C 0.53368 0.00567 0.74783 0.0
C889 C 0.53053 0.04187 0.79769 0.0
C890 C 0.47735 0.96851 0.74786 0.0
C891 C 0.49404 0.94227 0.81953 0.0
N892 N 0.52413 0.02687 0.75635 0.0
N893 N 0.51269 0.95454 0.78191 0.0
H894 H 0.5487 0.51571 0.19795 0.0
H895 H 0.46336 0.4118 1.1065 0.0
H896 H 0.54504 0.58405 1.10857 0.0
H897 H 0.45878 0.47868 0.1962 0.0
H898 H 0.48924 0.45208 1.04788 0.0
H899 H 0.53709 0.48213 1.13033 0.0
C900 C 0.54549 0.52365 0.16433 0.0
C901 C 0.54381 0.55092 0.15969 0.0
C902 C 0.48028 0.45736 1.0787 0.0
C903 C 0.52379 0.51017 1.08757 0.0
C904 C 0.46647 0.43471 1.11301 0.0
C905 C 0.46326 0.44363 0.15797 0.0
C906 C 0.48991 0.48816 1.09069 0.0
C907 C 0.46422 0.47206 0.16332 0.0
C908 C 0.53939 0.50489 1.12514 0.0
C909 C 0.54207 0.5611 1.11462 0.0
N910 N 0.47671 0.49345 1.12873 0.0
N911 N 0.53091 0.54007 1.07961 0.0
H912 H 0.34736 0.03629 0.78483 0.0
H913 H 0.31061 0.02503 0.52107 0.0
H914 H 0.28003 0.95199 0.71586 0.0
H915 H 0.37118 0.11153 0.59149 0.0
H916 H 0.28679 0.00159 0.59458 0.0
H917 H 0.34491 0.06671 0.71952 0.0
C918 C 0.33163 0.02428 0.75617 0.0
C919 C 0.31449 0.99163 0.75498 0.0
C920 C 0.30474 0.02594 0.59397 0.0
C921 C 0.31182 0.02611 0.67995 0.0
C922 C 0.31825 0.03956 0.55168 0.0
C923 C 0.34385 0.07009 0.55017 0.0
C924 C 0.31731 0.04274 0.63507 0.0
C925 C 0.35242 0.08752 0.59127 0.0
C926 C 0.3301 0.04162 0.71898 0.0
C927 C 0.29392 0.97714 0.71773 0.0
N928 N 0.33983 0.07334 0.63227 0.0
N929 N 0.29371 0.99446 0.68111 0.0
H930 H 0.29121 0.30267 1.12434 0.0
H931 H 0.26129 0.29527 0.85352 0.0
H932 H 0.32527 0.26188 1.02462 0.0
H933 H 0.25121 0.3584 0.94547 0.0
H934 H 0.26489 0.26705 0.92032 0.0
H935 H 0.25867 0.30759 1.06373 0.0
C936 C 0.29113 0.29392 1.08997 0.0
C937 C 0.31128 0.2823 1.07912 0.0
C938 C 0.26109 0.2866 0.9259 0.0
C939 C 0.27437 0.288 1.0099 0.0
C940 C 0.25864 0.30262 0.88767 0.0
C941 C 0.25673 0.32985 0.89381 0.0
C942 C 0.26186 0.29796 0.97057 0.0
C943 C 0.2536 0.33809 0.93915 0.0
C944 C 0.27268 0.29687 1.05542 0.0
C945 C 0.31045 0.27148 1.03409 0.0
N946 N 0.257 0.32264 0.9759 0.0
N947 N 0.29262 0.27496 1.00094 0.0
H948 H 0.915 0.25633 0.28468 0.0
H949 H 0.09199 0.34548 0.35342 0.0
H950 H 0.98926 0.28192 0.18541 0.0
H951 H 0.0181 0.29732 0.45321 0.0
H952 H 0.05551 0.31484 0.2916 0.0
H953 H 0.95183 0.26292 0.34702 0.0
C954 C 0.93889 0.26262 0.27601 0.0
C955 C 0.94927 0.26907 0.23004 0.0
C956 C 0.04744 0.31037 0.32712 0.0
C957 C 0.99165 0.27726 0.30094 0.0
C958 C 0.06826 0.32792 0.36233 0.0
C959 C 0.05786 0.32422 0.40825 0.0
C960 C 0.01586 0.28956 0.33793 0.0
C961 C 0.02702 0.30095 0.41817 0.0
C962 C 0.95992 0.26633 0.31152 0.0
C963 C 0.98034 0.2768 0.22046 0.0
N964 N 0.00687 0.28498 0.38315 0.0
N965 N 1.00065 0.28139 0.25573 0.0
H966 H 0.71608 0.01221 0.79194 0.0
H967 H 0.69846 0.01385 0.5205 0.0
H968 H 0.7423 0.09518 0.71067 0.0
H969 H 0.65722 0.93176 0.6072 0.0
H970 H 0.73139 0.04409 0.58571 0.0
H971 H 0.71353 0.9844 0.72157 0.0
C972 C 0.72246 0.02502 0.75955 0.0
C973 C 0.72845 0.05592 0.75713 0.0
C974 C 0.71566 0.01932 0.59015 0.0
C975 C 0.72441 0.02366 0.67611 0.0
C976 C 0.69692 0.00203 0.55294 0.0
C977 C 0.67461 0.97043 0.55891 0.0
C978 C 0.71195 0.00488 0.63351 0.0
C979 C 0.67357 0.95627 0.6016 0.0
C980 C 0.72062 0.00891 0.71918 0.0
C981 C 0.73649 0.07106 0.71394 0.0
N982 N 0.69161 0.97371 0.63751 0.0
N983 N 0.73341 0.05454 0.67489 0.0
H984 H 0.72306 0.71788 1.10752 0.0
H985 H 0.70116 0.70488 0.83903 0.0
H986 H 0.6648 0.74459 1.02923 0.0
H987 H 0.75432 0.6723 0.91796 0.0
H988 H 0.70449 0.73781 0.90406 0.0
H989 H 0.75104 0.72019 1.03659 0.0
C990 C 0.7168 0.72511 1.07552 0.0
C991 C 0.69099 0.73007 1.07375 0.0
C992 C 0.71618 0.72413 0.90683 0.0
C993 C 0.72234 0.73218 0.99257 0.0
C994 C 0.71424 0.70533 0.86974 0.0
C995 C 0.72668 0.68526 0.87391 0.0
C996 C 0.73005 0.72223 0.9486 0.0
C997 C 0.74399 0.68713 0.91379 0.0
C998 C 0.73274 0.72643 1.03505 0.0
C999 C 0.68425 0.74008 1.03186 0.0
N1000 N 0.74445 0.70465 0.95019 0.0
N1001 N 0.69927 0.73997 0.99258 0.0
H1002 H 0.99317 0.70403 0.18298 0.0
H1003 H 1.00144 0.70262 0.45258 0.0
H1004 H 0.07875 0.74153 0.2631 0.0
H1005 H 0.91573 0.66155 0.37248 0.0
H1006 H 0.02974 0.73438 0.38564 0.0
H1007 H 0.96546 0.70637 0.2515 0.0
C1008 C 0.00626 0.71357 0.2148 0.0
C1009 C 0.03798 0.72171 0.218 0.0
C1010 C 0.00459 0.71909 0.38295 0.0
C1011 C 0.00646 0.72383 0.29655 0.0
C1012 C 0.98847 0.70098 0.42115 0.0
C1013 C 0.95648 0.67888 0.41736 0.0
C1014 C 0.98867 0.71445 0.34051 0.0
C1015 C 0.94053 0.67802 0.37643 0.0
C1016 C 0.99048 0.71492 0.2539 0.0
C1017 C 0.05413 0.73457 0.25951 0.0
N1018 N 0.95698 0.69493 0.33907 0.0
N1019 N 0.03798 0.73444 0.29762 0.0
H1020 H 0.49717 0.11128 0.5601 0.0
H1021 H 0.61954 0.10392 0.746 0.0
H1022 H 0.58727 0.12466 0.51909 0.0
H1023 H 0.54897 0.12646 0.78732 0.0
H1024 H 0.60527 0.10566 0.66403 0.0
H1025 H 0.51216 0.111 0.64216 0.0
C1026 C 0.52017 0.11434 0.56786 0.0
C1027 C 0.54088 0.11851 0.53099 0.0
C1028 C 0.59292 0.1104 0.6909 0.0
C1029 C 0.55832 0.11726 0.62753 0.0
C1030 C 0.60123 0.10951 0.73831 0.0
C1031 C 0.58612 0.11558 0.77526 0.0
C1032 C 0.56848 0.11665 0.67878 0.0
C1033 C 0.56204 0.12207 0.76122 0.0
C1034 C 0.5288 0.11412 0.61532 0.0
C1035 C 0.57027 0.12184 0.54513 0.0
N1036 N 0.55402 0.12217 0.71515 0.0
N1037 N 0.57778 0.12091 0.59121 0.0
H1038 H 0.45283 0.57061 0.83897 0.0
H1039 H 0.44743 0.53104 1.11272 0.0
H1040 H 0.39144 0.48006 0.89734 0.0
H1041 H 0.51356 0.62159 1.05852 0.0
H1042 H 0.4274 0.51356 1.0351 0.0
H1043 H 0.4743 0.58995 0.91652 0.0
C1044 C 0.44344 0.55456 0.86789 0.0
C1045 C 0.41966 0.52321 0.86005 0.0
C1046 C 0.44622 0.53731 1.03964 0.0
C1047 C 0.44528 0.54609 0.95172 0.0
C1048 C 0.45806 0.54769 1.08478 0.0
C1049 C 0.48278 0.5784 1.09415 0.0
C1050 C 0.45847 0.55737 1.0013 0.0
C1051 C 0.49464 0.59787 1.0545 0.0
C1052 C 0.45609 0.56587 0.9127 0.0
C1053 C 0.40944 0.50426 0.9003 0.0
N1054 N 0.48245 0.58714 1.01051 0.0
N1055 N 0.42212 0.51587 0.94354 0.0
H1056 H 0.88819 0.45057 0.17748 0.0
H1057 H 0.89601 0.42538 0.45382 0.0
H1058 H 0.8919 0.37159 0.23439 0.0
H1059 H 0.88633 0.5011 0.39698 0.0
H1060 H 0.8947 0.4062 0.37573 0.0
H1061 H 0.88758 0.46866 0.25565 0.0
C1062 C 0.88868 0.43658 0.20616 0.0
C1063 C 0.88998 0.40891 0.19743 0.0
C1064 C 0.8927 0.42692 0.37988 0.0
C1065 C 0.88942 0.43073 0.29067 0.0
C1066 C 0.8934 0.43822 0.4252 0.0
C1067 C 0.89109 0.46534 0.43391 0.0
C1068 C 0.88975 0.44243 0.34077 0.0
C1069 C 0.88796 0.48014 0.39353 0.0
C1070 C 0.88836 0.44729 0.25152 0.0
C1071 C 0.8906 0.39272 0.23786 0.0
N1072 N 0.88748 0.46867 0.34953 0.0
N1073 N 0.89044 0.40382 0.28191 0.0
H1074 H 0.41232 0.8609 0.51585 0.0
H1075 H 0.37953 0.88296 0.74575 0.0
H1076 H 0.50269 0.87835 0.5652 0.0
H1077 H 0.45393 0.86546 0.78712 0.0
H1078 H 0.39304 0.88166 0.66431 0.0
H1079 H 0.39651 0.86181 0.5954 0.0
C1080 C 0.42908 0.86478 0.54324 0.0
C1081 C 0.45916 0.86925 0.53198 0.0
C1082 C 0.40629 0.87752 0.69078 0.0
C1083 C 0.44064 0.87102 0.6272 0.0
C1084 C 0.39844 0.87835 0.7381 0.0
C1085 C 0.41485 0.87368 0.77498 0.0
C1086 C 0.4313 0.87224 0.6785 0.0
C1087 C 0.4398 0.86864 0.76099 0.0
C1088 C 0.41994 0.86568 0.58957 0.0
C1089 C 0.4792 0.87444 0.57079 0.0
N1090 N 0.44713 0.86819 0.71486 0.0
N1091 N 0.46963 0.87499 0.61581 0.0
H1092 H 0.6226 0.50686 0.89939 0.0
H1093 H 0.48269 0.37393 1.06078 0.0
H1094 H 0.54156 0.42617 0.84358 0.0
H1095 H 0.56679 0.45156 1.11609 0.0
H1096 H 0.50342 0.39218 0.98163 0.0
H1097 H 0.60283 0.4872 0.9784 0.0
C1098 C 0.60092 0.48499 0.90324 0.0
C1099 C 0.58415 0.46858 0.86328 0.0
C1100 C 0.51742 0.40518 1.01117 0.0
C1101 C 0.56062 0.44552 0.9556 0.0
C1102 C 0.50552 0.39451 1.05682 0.0
C1103 C 0.52258 0.41083 1.09667 0.0
C1104 C 0.54687 0.43259 1.00422 0.0
C1105 C 0.55213 0.43778 1.08757 0.0
C1106 C 0.58939 0.4737 0.9488 0.0
C1107 C 0.55577 0.44027 0.87221 0.0
N1108 N 0.56297 0.44759 1.04335 0.0
N1109 N 0.54514 0.42999 0.91639 0.0
H1110 H 0.1126 0.56462 0.45651 0.0
H1111 H 0.10698 0.53409 0.18048 0.0
H1112 H 0.11257 0.48404 0.40012 0.0
H1113 H 0.11123 0.61667 0.23691 0.0
H1114 H 0.10909 0.51623 0.25862 0.0
H1115 H 0.11232 0.58331 0.37829 0.0
C1116 C 0.11274 0.55059 0.42794 0.0
C1117 C 0.11273 0.52221 0.43683 0.0
C1118 C 0.10972 0.53833 0.25438 0.0
C1119 C 0.11226 0.5446 0.34351 0.0
C1120 C 0.10854 0.54892 0.20902 0.0
C1121 C 0.10907 0.57757 0.20017 0.0
C1122 C 0.11141 0.55601 0.29339 0.0
C1123 C 0.11098 0.59473 0.24046 0.0
C1124 C 0.11253 0.56162 0.38254 0.0
C1125 C 0.11288 0.506 0.39651 0.0
N1126 N 0.11198 0.58376 0.28452 0.0
N1127 N 0.11252 0.51726 0.3524 0.0
loop_
_geom_bond_atom_site_label_1
_geom_bond_atom_site_label_2
_geom_bond_distance
_geom_bond_site_symmetry_2
_ccdc_geom_bond_type
Tb0 C9 2.764 . S
Tb0 O10 2.325 . S
Tb0 O13 2.303 . S
Tb0 O17 2.322 . S
Tb0 O18 2.349 . S
Tb0 O21 2.415 . S
Tb0 O22 2.399 . S
Tb1 O11 2.322 . S
Tb1 O12 2.349 . S
Tb1 O14 2.415 . S
Tb1 O15 2.399 . S
Tb1 O16 2.325 . S
Tb1 O19 2.303 . S
Tb1 C30 2.764 . S
C2 O18 1.261 . S
C2 O19 1.257 . S
C3 C6 1.358 . S
C3 C7 1.332 . S
C3 C9 1.504 . S
C4 C5 1.373 . S
C4 C8 1.308 . S
C5 C4 1.373 . S
C5 C6 1.429 . S
C5 H32 0.932 . S
C6 C3 1.358 . S
C6 C5 1.429 . S
C6 H33 0.930 . S
C7 C3 1.332 . S
C7 C8 1.394 . S
C7 H34 0.932 . S
C8 C4 1.308 . S
C8 C7 1.394 . S
C8 H35 0.929 . S
C9 Tb0 2.764 . S
C9 C3 1.504 . S
C9 O21 1.239 . S
C9 O22 1.263 . S
O10 Tb0 2.325 . S
O10 C20 1.236 . S
O11 Tb1 2.322 . S
O11 C20 1.257 . S
O12 Tb1 2.349 . S
O12 C23 1.261 . S
O13 Tb0 2.303 . S
O13 C23 1.257 . S
O14 Tb1 2.415 . S
O14 C30 1.239 . S
O15 Tb1 2.399 . S
O15 C30 1.263 . S
O16 Tb1 2.325 . S
O16 C31 1.236 . S
O17 Tb0 2.322 . S
O17 C31 1.257 . S
O18 Tb0 2.349 . S
O18 C2 1.261 . S
O19 Tb1 2.303 . S
O19 C2 1.257 . S
C20 O10 1.236 . S
C20 O11 1.257 . S
O21 Tb0 2.415 . S
O21 C9 1.239 . S
O22 Tb0 2.399 . S
O22 C9 1.263 . S
C23 O12 1.261 . S
C23 O13 1.257 . S
C24 C27 1.358 . S
C24 C28 1.332 . S
C24 C30 1.504 . S
C25 C26 1.373 . S
C25 C29 1.308 . S
C26 C25 1.373 . S
C26 C27 1.429 . S
C26 H36 0.932 . S
C27 C24 1.358 . S
C27 C26 1.429 . S
C27 H37 0.930 . S
C28 C24 1.332 . S
C28 C29 1.394 . S
C28 H38 0.932 . S
C29 C25 1.308 . S
C29 C28 1.394 . S
C29 H39 0.929 . S
C30 Tb1 2.764 . S
C30 O14 1.239 . S
C30 O15 1.263 . S
C30 C24 1.504 . S
C31 O16 1.236 . S
C31 O17 1.257 . S
H32 C5 0.932 . S
H33 C6 0.930 . S
H34 C7 0.932 . S
H35 C8 0.929 . S
H36 C26 0.932 . S
H37 C27 0.930 . S
H38 C28 0.932 . S
H39 C29 0.929 . S
Tb40 C49 2.764 . S
Tb40 O50 2.325 . S
Tb40 O53 2.303 . S
Tb40 O57 2.322 . S
Tb40 O58 2.349 . S
Tb40 O61 2.415 . S
Tb40 O62 2.399 . S
Tb41 O51 2.322 . S
Tb41 O52 2.349 . S
Tb41 O54 2.415 . S
Tb41 O55 2.399 . S
Tb41 O56 2.325 . S
Tb41 O59 2.303 . S
Tb41 C70 2.764 . S
C42 O58 1.261 . S
C42 O59 1.257 . S
C43 C46 1.358 . S
C43 C47 1.332 . S
C43 C49 1.504 . S
C44 C45 1.373 . S
C44 C48 1.308 . S
C45 C44 1.373 . S
C45 C46 1.429 . S
C45 H72 0.932 . S
C46 C43 1.358 . S
C46 C45 1.429 . S
C46 H73 0.930 . S
C47 C43 1.332 . S
C47 C48 1.394 . S
C47 H74 0.932 . S
C48 C44 1.308 . S
C48 C47 1.394 . S
C48 H75 0.929 . S
C49 Tb40 2.764 . S
C49 C43 1.504 . S
C49 O61 1.239 . S
C49 O62 1.263 . S
O50 Tb40 2.325 . S
O50 C60 1.236 . S
O51 Tb41 2.322 . S
O51 C60 1.257 . S
O52 Tb41 2.349 . S
O52 C63 1.261 . S
O53 Tb40 2.303 . S
O53 C63 1.257 . S
O54 Tb41 2.415 . S
O54 C70 1.239 . S
O55 Tb41 2.399 . S
O55 C70 1.263 . S
O56 Tb41 2.325 . S
O56 C71 1.236 . S
O57 Tb40 2.322 . S
O57 C71 1.257 . S
O58 Tb40 2.349 . S
O58 C42 1.261 . S
O59 Tb41 2.303 . S
O59 C42 1.257 . S
C60 O50 1.236 . S
C60 O51 1.257 . S
O61 Tb40 2.415 . S
O61 C49 1.239 . S
O62 Tb40 2.399 . S
O62 C49 1.263 . S
C63 O52 1.261 . S
C63 O53 1.257 . S
C64 C67 1.358 . S
C64 C68 1.332 . S
C64 C70 1.504 . S
C65 C66 1.373 . S
C65 C69 1.308 . S
C66 C65 1.373 . S
C66 C67 1.429 . S
C66 H76 0.932 . S
C67 C64 1.358 . S
C67 C66 1.429 . S
C67 H77 0.930 . S
C68 C64 1.332 . S
C68 C69 1.394 . S
C68 H78 0.932 . S
C69 C65 1.308 . S
C69 C68 1.394 . S
C69 H79 0.929 . S
C70 Tb41 2.764 . S
C70 O54 1.239 . S
C70 O55 1.263 . S
C70 C64 1.504 . S
C71 O56 1.236 . S
C71 O57 1.257 . S
H72 C45 0.932 . S
H73 C46 0.930 . S
H74 C47 0.932 . S
H75 C48 0.929 . S
H76 C66 0.932 . S
H77 C67 0.930 . S
H78 C68 0.932 . S
H79 C69 0.929 . S
Tb80 C89 2.764 . S
Tb80 O90 2.325 . S
Tb80 O93 2.303 . S
Tb80 O97 2.322 . S
Tb80 O98 2.349 . S
Tb80 O101 2.415 . S
Tb80 O102 2.399 . S
Tb81 O91 2.322 . S
Tb81 O92 2.349 . S
Tb81 O94 2.415 . S
Tb81 O95 2.399 . S
Tb81 O96 2.325 . S
Tb81 O99 2.303 . S
Tb81 C110 2.764 1_556 S
C82 O98 1.261 . S
C82 O99 1.257 . S
C83 C86 1.358 . S
C83 C87 1.332 . S
C83 C89 1.504 . S
C84 C85 1.373 . S
C84 C88 1.308 . S
C85 C84 1.373 . S
C85 C86 1.429 . S
C85 H112 0.932 . S
C86 C83 1.358 . S
C86 C85 1.429 . S
C86 H113 0.930 . S
C87 C83 1.332 . S
C87 C88 1.394 . S
C87 H114 0.932 . S
C88 C84 1.308 . S
C88 C87 1.394 . S
C88 H115 0.929 . S
C89 Tb80 2.764 . S
C89 C83 1.504 . S
C89 O101 1.239 . S
C89 O102 1.263 . S
O90 Tb80 2.325 . S
O90 C100 1.236 . S
O91 Tb81 2.322 . S
O91 C100 1.257 . S
O92 Tb81 2.349 . S
O92 C103 1.261 . S
O93 Tb80 2.303 . S
O93 C103 1.257 . S
O94 Tb81 2.415 . S
O94 C110 1.239 1_556 S
O95 Tb81 2.399 . S
O95 C110 1.263 1_556 S
O96 Tb81 2.325 . S
O96 C111 1.236 . S
O97 Tb80 2.322 . S
O97 C111 1.257 . S
O98 Tb80 2.349 . S
O98 C82 1.261 . S
O99 Tb81 2.303 . S
O99 C82 1.257 . S
C100 O90 1.236 . S
C100 O91 1.257 . S
O101 Tb80 2.415 . S
O101 C89 1.239 . S
O102 Tb80 2.399 . S
O102 C89 1.263 . S
C103 O92 1.261 . S
C103 O93 1.257 . S
C104 C107 1.358 . S
C104 C108 1.332 . S
C104 C110 1.504 . S
C105 C106 1.373 . S
C105 C109 1.308 . S
C106 C105 1.373 . S
C106 C107 1.429 . S
C106 H116 0.932 . S
C107 C104 1.358 . S
C107 C106 1.429 . S
C107 H117 0.930 . S
C108 C104 1.332 . S
C108 C109 1.394 . S
C108 H118 0.932 . S
C109 C105 1.308 . S
C109 C108 1.394 . S
C109 H119 0.929 . S
C110 Tb81 2.764 1_554 S
C110 O94 1.239 1_554 S
C110 O95 1.263 1_554 S
C110 C104 1.504 . S
C111 O96 1.236 . S
C111 O97 1.257 . S
H112 C85 0.932 . S
H113 C86 0.930 . S
H114 C87 0.932 . S
H115 C88 0.929 . S
H116 C106 0.932 . S
H117 C107 0.930 . S
H118 C108 0.932 . S
H119 C109 0.929 . S
Tb120 C129 2.764 . S
Tb120 O130 2.325 . S
Tb120 O133 2.303 . S
Tb120 O137 2.322 . S
Tb120 O138 2.349 . S
Tb120 O141 2.415 . S
Tb120 O142 2.399 . S
Tb121 O131 2.322 . S
Tb121 O132 2.349 . S
Tb121 O134 2.415 . S
Tb121 O135 2.399 . S
Tb121 O136 2.325 . S
Tb121 O139 2.303 . S
Tb121 C150 2.764 . S
C122 O138 1.261 . S
C122 O139 1.257 . S
C123 C126 1.358 . S
C123 C127 1.332 . S
C123 C129 1.504 . S
C124 C125 1.373 . S
C124 C128 1.308 . S
C125 C124 1.373 . S
C125 C126 1.429 . S
C125 H152 0.932 . S
C126 C123 1.358 . S
C126 C125 1.429 . S
C126 H153 0.930 . S
C127 C123 1.332 . S
C127 C128 1.394 . S
C127 H154 0.932 . S
C128 C124 1.308 . S
C128 C127 1.394 . S
C128 H155 0.929 . S
C129 Tb120 2.764 . S
C129 C123 1.504 . S
C129 O141 1.239 . S
C129 O142 1.263 . S
O130 Tb120 2.325 . S
O130 C140 1.236 . S
O131 Tb121 2.322 . S
O131 C140 1.257 . S
O132 Tb121 2.349 . S
O132 C143 1.261 . S
O133 Tb120 2.303 . S
O133 C143 1.257 . S
O134 Tb121 2.415 . S
O134 C150 1.239 . S
O135 Tb121 2.399 . S
O135 C150 1.263 . S
O136 Tb121 2.325 . S
O136 C151 1.236 . S
O137 Tb120 2.322 . S
O137 C151 1.257 . S
O138 Tb120 2.349 . S
O138 C122 1.261 . S
O139 Tb121 2.303 . S
O139 C122 1.257 . S
C140 O130 1.236 . S
C140 O131 1.257 . S
O141 Tb120 2.415 . S
O141 C129 1.239 . S
O142 Tb120 2.399 . S
O142 C129 1.263 . S
C143 O132 1.261 . S
C143 O133 1.257 . S
C144 C147 1.358 . S
C144 C148 1.332 . S
C144 C150 1.504 . S
C145 C146 1.373 . S
C145 C149 1.308 . S
C146 C145 1.373 . S
C146 C147 1.429 . S
C146 H156 0.932 . S
C147 C144 1.358 . S
C147 C146 1.429 . S
C147 H157 0.930 . S
C148 C144 1.332 . S
C148 C149 1.394 . S
C148 H158 0.932 . S
C149 C145 1.308 . S
C149 C148 1.394 . S
C149 H159 0.929 . S
C150 Tb121 2.764 . S
C150 O134 1.239 . S
C150 O135 1.263 . S
C150 C144 1.504 . S
C151 O136 1.236 . S
C151 O137 1.257 . S
H152 C125 0.932 . S
H153 C126 0.930 . S
H154 C127 0.932 . S
H155 C128 0.929 . S
H156 C146 0.932 . S
H157 C147 0.930 . S
H158 C148 0.932 . S
H159 C149 0.929 . S
Tb160 C169 2.764 . S
Tb160 O170 2.325 . S
Tb160 O173 2.303 . S
Tb160 O177 2.322 . S
Tb160 O178 2.349 . S
Tb160 O181 2.415 . S
Tb160 O182 2.399 . S
Tb161 O171 2.322 . S
Tb161 O172 2.349 . S
Tb161 O174 2.415 . S
Tb161 O175 2.399 . S
Tb161 O176 2.325 . S
Tb161 O179 2.303 . S
Tb161 C190 2.764 . S
C162 O178 1.261 . S
C162 O179 1.257 . S
C163 C166 1.358 . S
C163 C167 1.332 . S
C163 C169 1.504 . S
C164 C165 1.373 . S
C164 C168 1.308 . S
C165 C164 1.373 . S
C165 C166 1.429 . S
C165 H192 0.932 . S
C166 C163 1.358 . S
C166 C165 1.429 . S
C166 H193 0.930 . S
C167 C163 1.332 . S
C167 C168 1.394 . S
C167 H194 0.932 . S
C168 C164 1.308 . S
C168 C167 1.394 . S
C168 H195 0.929 . S
C169 Tb160 2.764 . S
C169 C163 1.504 . S
C169 O181 1.239 . S
C169 O182 1.263 . S
O170 Tb160 2.325 . S
O170 C180 1.236 . S
O171 Tb161 2.322 . S
O171 C180 1.257 . S
O172 Tb161 2.349 . S
O172 C183 1.261 . S
O173 Tb160 2.303 . S
O173 C183 1.257 . S
O174 Tb161 2.415 . S
O174 C190 1.239 . S
O175 Tb161 2.399 . S
O175 C190 1.263 . S
O176 Tb161 2.325 . S
O176 C191 1.236 . S
O177 Tb160 2.322 . S
O177 C191 1.257 . S
O178 Tb160 2.349 . S
O178 C162 1.261 . S
O179 Tb161 2.303 . S
O179 C162 1.257 . S
C180 O170 1.236 . S
C180 O171 1.257 . S
O181 Tb160 2.415 . S
O181 C169 1.239 . S
O182 Tb160 2.399 . S
O182 C169 1.263 . S
C183 O172 1.261 . S
C183 O173 1.257 . S
C184 C187 1.358 . S
C184 C188 1.332 . S
C184 C190 1.504 . S
C185 C186 1.373 . S
C185 C189 1.308 . S
C186 C185 1.373 . S
C186 C187 1.429 . S
C186 H196 0.932 . S
C187 C184 1.358 . S
C187 C186 1.429 . S
C187 H197 0.930 . S
C188 C184 1.332 . S
C188 C189 1.394 . S
C188 H198 0.932 . S
C189 C185 1.308 . S
C189 C188 1.394 . S
C189 H199 0.929 . S
C190 Tb161 2.764 . S
C190 O174 1.239 . S
C190 O175 1.263 . S
C190 C184 1.504 . S
C191 O176 1.236 . S
C191 O177 1.257 . S
H192 C165 0.932 . S
H193 C166 0.930 . S
H194 C167 0.932 . S
H195 C168 0.929 . S
H196 C186 0.932 . S
H197 C187 0.930 . S
H198 C188 0.932 . S
H199 C189 0.929 . S
Tb200 C209 2.764 . S
Tb200 O210 2.325 . S
Tb200 O213 2.303 . S
Tb200 O217 2.322 . S
Tb200 O218 2.349 . S
Tb200 O221 2.415 . S
Tb200 O222 2.399 . S
Tb201 O211 2.322 . S
Tb201 O212 2.349 . S
Tb201 O214 2.415 . S
Tb201 O215 2.399 . S
Tb201 O216 2.325 . S
Tb201 O219 2.303 . S
Tb201 C230 2.764 1_556 S
C202 O218 1.261 . S
C202 O219 1.257 . S
C203 C206 1.358 . S
C203 C207 1.332 . S
C203 C209 1.504 . S
C204 C205 1.373 . S
C204 C208 1.308 . S
C205 C204 1.373 . S
C205 C206 1.429 . S
C205 H232 0.932 . S
C206 C203 1.358 . S
C206 C205 1.429 . S
C206 H233 0.930 . S
C207 C203 1.332 . S
C207 C208 1.394 . S
C207 H234 0.932 . S
C208 C204 1.308 . S
C208 C207 1.394 . S
C208 H235 0.929 . S
C209 Tb200 2.764 . S
C209 C203 1.504 . S
C209 O221 1.239 . S
C209 O222 1.263 . S
O210 Tb200 2.325 . S
O210 C220 1.236 . S
O211 Tb201 2.322 . S
O211 C220 1.257 . S
O212 Tb201 2.349 . S
O212 C223 1.261 . S
O213 Tb200 2.303 . S
O213 C223 1.257 . S
O214 Tb201 2.415 . S
O214 C230 1.239 1_556 S
O215 Tb201 2.399 . S
O215 C230 1.263 1_556 S
O216 Tb201 2.325 . S
O216 C231 1.236 . S
O217 Tb200 2.322 . S
O217 C231 1.257 . S
O218 Tb200 2.349 . S
O218 C202 1.261 . S
O219 Tb201 2.303 . S
O219 C202 1.257 . S
C220 O210 1.236 . S
C220 O211 1.257 . S
O221 Tb200 2.415 . S
O221 C209 1.239 . S
O222 Tb200 2.399 . S
O222 C209 1.263 . S
C223 O212 1.261 . S
C223 O213 1.257 . S
C224 C227 1.358 . S
C224 C228 1.332 . S
C224 C230 1.504 . S
C225 C226 1.373 . S
C225 C229 1.308 . S
C226 C225 1.373 . S
C226 C227 1.429 . S
C226 H236 0.932 . S
C227 C224 1.358 . S
C227 C226 1.429 . S
C227 H237 0.930 . S
C228 C224 1.332 . S
C228 C229 1.394 . S
C228 H238 0.932 . S
C229 C225 1.308 . S
C229 C228 1.394 . S
C229 H239 0.929 . S
C230 Tb201 2.764 1_554 S
C230 O214 1.239 1_554 S
C230 O215 1.263 1_554 S
C230 C224 1.504 . S
C231 O216 1.236 . S
C231 O217 1.257 . S
H232 C205 0.932 . S
H233 C206 0.930 . S
H234 C207 0.932 . S
H235 C208 0.929 . S
H236 C226 0.932 . S
H237 C227 0.930 . S
H238 C228 0.932 . S
H239 C229 0.929 . S
Tb240 C249 2.764 . S
Tb240 O250 2.325 . S
Tb240 O253 2.303 . S
Tb240 O257 2.322 . S
Tb240 O258 2.349 . S
Tb240 O261 2.415 . S
Tb240 O262 2.399 . S
Tb241 O251 2.322 . S
Tb241 O252 2.349 . S
Tb241 O254 2.415 . S
Tb241 O255 2.399 . S
Tb241 O256 2.325 . S
Tb241 O259 2.303 . S
Tb241 C270 2.764 . S
C242 O258 1.261 . S
C242 O259 1.257 . S
C243 C246 1.358 . S
C243 C247 1.332 . S
C243 C249 1.504 . S
C244 C245 1.373 . S
C244 C248 1.308 . S
C245 C244 1.373 . S
C245 C246 1.429 . S
C245 H272 0.932 . S
C246 C243 1.358 . S
C246 C245 1.429 . S
C246 H273 0.930 . S
C247 C243 1.332 . S
C247 C248 1.394 . S
C247 H274 0.932 . S
C248 C244 1.308 . S
C248 C247 1.394 . S
C248 H275 0.929 . S
C249 Tb240 2.764 . S
C249 C243 1.504 . S
C249 O261 1.239 . S
C249 O262 1.263 . S
O250 Tb240 2.325 . S
O250 C260 1.236 . S
O251 Tb241 2.322 . S
O251 C260 1.257 . S
O252 Tb241 2.349 . S
O252 C263 1.261 . S
O253 Tb240 2.303 . S
O253 C263 1.257 . S
O254 Tb241 2.415 . S
O254 C270 1.239 . S
O255 Tb241 2.399 . S
O255 C270 1.263 . S
O256 Tb241 2.325 . S
O256 C271 1.236 . S
O257 Tb240 2.322 . S
O257 C271 1.257 . S
O258 Tb240 2.349 . S
O258 C242 1.261 . S
O259 Tb241 2.303 . S
O259 C242 1.257 . S
C260 O250 1.236 . S
C260 O251 1.257 . S
O261 Tb240 2.415 . S
O261 C249 1.239 . S
O262 Tb240 2.399 . S
O262 C249 1.263 . S
C263 O252 1.261 . S
C263 O253 1.257 . S
C264 C267 1.358 . S
C264 C268 1.332 . S
C264 C270 1.504 . S
C265 C266 1.373 . S
C265 C269 1.308 . S
C266 C265 1.373 . S
C266 C267 1.429 . S
C266 H276 0.932 . S
C267 C264 1.358 . S
C267 C266 1.429 . S
C267 H277 0.930 . S
C268 C264 1.332 . S
C268 C269 1.394 . S
C268 H278 0.932 . S
C269 C265 1.308 . S
C269 C268 1.394 . S
C269 H279 0.929 . S
C270 Tb241 2.764 . S
C270 O254 1.239 . S
C270 O255 1.263 . S
C270 C264 1.504 . S
C271 O256 1.236 . S
C271 O257 1.257 . S
H272 C245 0.932 . S
H273 C246 0.930 . S
H274 C247 0.932 . S
H275 C248 0.929 . S
H276 C266 0.932 . S
H277 C267 0.930 . S
H278 C268 0.932 . S
H279 C269 0.929 . S
Tb280 C289 2.764 . S
Tb280 O290 2.325 . S
Tb280 O293 2.303 . S
Tb280 O297 2.322 . S
Tb280 O298 2.349 . S
Tb280 O301 2.415 . S
Tb280 O302 2.399 . S
Tb281 O291 2.322 . S
Tb281 O292 2.349 . S
Tb281 O294 2.415 . S
Tb281 O295 2.399 . S
Tb281 O296 2.325 . S
Tb281 O299 2.303 . S
Tb281 C310 2.764 . S
C282 O298 1.261 . S
C282 O299 1.257 . S
C283 C286 1.358 . S
C283 C287 1.332 . S
C283 C289 1.504 . S
C284 C285 1.373 . S
C284 C288 1.308 . S
C285 C284 1.373 . S
C285 C286 1.429 . S
C285 H312 0.932 . S
C286 C283 1.358 . S
C286 C285 1.429 . S
C286 H313 0.930 . S
C287 C283 1.332 . S
C287 C288 1.394 . S
C287 H314 0.932 . S
C288 C284 1.308 . S
C288 C287 1.394 . S
C288 H315 0.929 . S
C289 Tb280 2.764 . S
C289 C283 1.504 . S
C289 O301 1.239 . S
C289 O302 1.263 . S
O290 Tb280 2.325 . S
O290 C300 1.236 . S
O291 Tb281 2.322 . S
O291 C300 1.257 . S
O292 Tb281 2.349 . S
O292 C303 1.261 . S
O293 Tb280 2.303 . S
O293 C303 1.257 . S
O294 Tb281 2.415 . S
O294 C310 1.239 . S
O295 Tb281 2.399 . S
O295 C310 1.263 . S
O296 Tb281 2.325 . S
O296 C311 1.236 . S
O297 Tb280 2.322 . S
O297 C311 1.257 . S
O298 Tb280 2.349 . S
O298 C282 1.261 . S
O299 Tb281 2.303 . S
O299 C282 1.257 . S
C300 O290 1.236 . S
C300 O291 1.257 . S
O301 Tb280 2.415 . S
O301 C289 1.239 . S
O302 Tb280 2.399 . S
O302 C289 1.263 . S
C303 O292 1.261 . S
C303 O293 1.257 . S
C304 C307 1.358 . S
C304 C308 1.332 . S
C304 C310 1.504 . S
C305 C306 1.373 . S
C305 C309 1.308 . S
C306 C305 1.373 . S
C306 C307 1.429 . S
C306 H316 0.932 . S
C307 C304 1.358 . S
C307 C306 1.429 . S
C307 H317 0.930 . S
C308 C304 1.332 . S
C308 C309 1.394 . S
C308 H318 0.932 . S
C309 C305 1.308 . S
C309 C308 1.394 . S
C309 H319 0.929 . S
C310 Tb281 2.764 . S
C310 O294 1.239 . S
C310 O295 1.263 . S
C310 C304 1.504 . S
C311 O296 1.236 . S
C311 O297 1.257 . S
H312 C285 0.932 . S
H313 C286 0.930 . S
H314 C287 0.932 . S
H315 C288 0.929 . S
H316 C306 0.932 . S
H317 C307 0.930 . S
H318 C308 0.932 . S
H319 C309 0.929 . S
Tb320 C329 2.764 . S
Tb320 O330 2.325 . S
Tb320 O333 2.303 . S
Tb320 O337 2.322 . S
Tb320 O338 2.349 . S
Tb320 O341 2.415 . S
Tb320 O342 2.399 . S
Tb321 O331 2.322 . S
Tb321 O332 2.349 . S
Tb321 O334 2.415 . S
Tb321 O335 2.399 . S
Tb321 O336 2.325 . S
Tb321 O339 2.303 . S
Tb321 C350 2.764 1_554 S
C322 O338 1.261 . S
C322 O339 1.257 . S
C323 C326 1.358 . S
C323 C327 1.332 . S
C323 C329 1.504 . S
C324 C325 1.373 . S
C324 C328 1.308 . S
C325 C324 1.373 . S
C325 C326 1.429 . S
C325 H352 0.932 . S
C326 C323 1.358 . S
C326 C325 1.429 . S
C326 H353 0.930 . S
C327 C323 1.332 . S
C327 C328 1.394 . S
C327 H354 0.932 . S
C328 C324 1.308 . S
C328 C327 1.394 . S
C328 H355 0.929 . S
C329 Tb320 2.764 . S
C329 C323 1.504 . S
C329 O341 1.239 . S
C329 O342 1.263 . S
O330 Tb320 2.325 . S
O330 C340 1.236 . S
O331 Tb321 2.322 . S
O331 C340 1.257 . S
O332 Tb321 2.349 . S
O332 C343 1.261 . S
O333 Tb320 2.303 . S
O333 C343 1.257 . S
O334 Tb321 2.415 . S
O334 C350 1.239 1_554 S
O335 Tb321 2.399 . S
O335 C350 1.263 1_554 S
O336 Tb321 2.325 . S
O336 C351 1.236 . S
O337 Tb320 2.322 . S
O337 C351 1.257 . S
O338 Tb320 2.349 . S
O338 C322 1.261 . S
O339 Tb321 2.303 . S
O339 C322 1.257 . S
C340 O330 1.236 . S
C340 O331 1.257 . S
O341 Tb320 2.415 . S
O341 C329 1.239 . S
O342 Tb320 2.399 . S
O342 C329 1.263 . S
C343 O332 1.261 . S
C343 O333 1.257 . S
C344 C347 1.358 . S
C344 C348 1.332 . S
C344 C350 1.504 . S
C345 C346 1.373 . S
C345 C349 1.308 . S
C346 C345 1.373 . S
C346 C347 1.429 . S
C346 H356 0.932 . S
C347 C344 1.358 . S
C347 C346 1.429 . S
C347 H357 0.930 . S
C348 C344 1.332 . S
C348 C349 1.394 . S
C348 H358 0.932 . S
C349 C345 1.308 . S
C349 C348 1.394 . S
C349 H359 0.929 . S
C350 Tb321 2.764 1_556 S
C350 O334 1.239 1_556 S
C350 O335 1.263 1_556 S
C350 C344 1.504 . S
C351 O336 1.236 . S
C351 O337 1.257 . S
H352 C325 0.932 . S
H353 C326 0.930 . S
H354 C327 0.932 . S
H355 C328 0.929 . S
H356 C346 0.932 . S
H357 C347 0.930 . S
H358 C348 0.932 . S
H359 C349 0.929 . S
Tb360 C369 2.764 . S
Tb360 O370 2.325 . S
Tb360 O373 2.303 . S
Tb360 O377 2.322 . S
Tb360 O378 2.349 . S
Tb360 O381 2.415 . S
Tb360 O382 2.399 . S
Tb361 O371 2.322 . S
Tb361 O372 2.349 . S
Tb361 O374 2.415 . S
Tb361 O375 2.399 . S
Tb361 O376 2.325 . S
Tb361 O379 2.303 . S
Tb361 C390 2.764 . S
C362 O378 1.261 . S
C362 O379 1.257 . S
C363 C366 1.358 . S
C363 C367 1.332 . S
C363 C369 1.504 . S
C364 C365 1.373 . S
C364 C368 1.308 . S
C365 C364 1.373 . S
C365 C366 1.429 . S
C365 H392 0.932 . S
C366 C363 1.358 . S
C366 C365 1.429 . S
C366 H393 0.930 . S
C367 C363 1.332 . S
C367 C368 1.394 . S
C367 H394 0.932 . S
C368 C364 1.308 . S
C368 C367 1.394 . S
C368 H395 0.929 . S
C369 Tb360 2.764 . S
C369 C363 1.504 . S
C369 O381 1.239 . S
C369 O382 1.263 . S
O370 Tb360 2.325 . S
O370 C380 1.236 . S
O371 Tb361 2.322 . S
O371 C380 1.257 . S
O372 Tb361 2.349 . S
O372 C383 1.261 . S
O373 Tb360 2.303 . S
O373 C383 1.257 . S
O374 Tb361 2.415 . S
O374 C390 1.239 . S
O375 Tb361 2.399 . S
O375 C390 1.263 . S
O376 Tb361 2.325 . S
O376 C391 1.236 . S
O377 Tb360 2.322 . S
O377 C391 1.257 . S
O378 Tb360 2.349 . S
O378 C362 1.261 . S
O379 Tb361 2.303 . S
O379 C362 1.257 . S
C380 O370 1.236 . S
C380 O371 1.257 . S
O381 Tb360 2.415 . S
O381 C369 1.239 . S
O382 Tb360 2.399 . S
O382 C369 1.263 . S
C383 O372 1.261 . S
C383 O373 1.257 . S
C384 C387 1.358 . S
C384 C388 1.332 . S
C384 C390 1.504 . S
C385 C386 1.373 . S
C385 C389 1.308 . S
C386 C385 1.373 . S
C386 C387 1.429 . S
C386 H396 0.932 . S
C387 C384 1.358 . S
C387 C386 1.429 . S
C387 H397 0.930 . S
C388 C384 1.332 . S
C388 C389 1.394 . S
C388 H398 0.932 . S
C389 C385 1.308 . S
C389 C388 1.394 . S
C389 H399 0.929 . S
C390 Tb361 2.764 . S
C390 O374 1.239 . S
C390 O375 1.263 . S
C390 C384 1.504 . S
C391 O376 1.236 . S
C391 O377 1.257 . S
H392 C365 0.932 . S
H393 C366 0.930 . S
H394 C367 0.932 . S
H395 C368 0.929 . S
H396 C386 0.932 . S
H397 C387 0.930 . S
H398 C388 0.932 . S
H399 C389 0.929 . S
Tb400 C409 2.764 . S
Tb400 O410 2.325 . S
Tb400 O413 2.303 . S
Tb400 O417 2.322 . S
Tb400 O418 2.349 . S
Tb400 O421 2.415 . S
Tb400 O422 2.399 . S
Tb401 O411 2.322 . S
Tb401 O412 2.349 . S
Tb401 O414 2.415 . S
Tb401 O415 2.399 . S
Tb401 O416 2.325 . S
Tb401 O419 2.303 . S
Tb401 C430 2.764 . S
C402 O418 1.261 . S
C402 O419 1.257 . S
C403 C406 1.358 . S
C403 C407 1.332 . S
C403 C409 1.504 . S
C404 C405 1.373 . S
C404 C408 1.308 . S
C405 C404 1.373 . S
C405 C406 1.429 . S
C405 H432 0.932 . S
C406 C403 1.358 . S
C406 C405 1.429 . S
C406 H433 0.930 . S
C407 C403 1.332 . S
C407 C408 1.394 . S
C407 H434 0.932 . S
C408 C404 1.308 . S
C408 C407 1.394 . S
C408 H435 0.929 . S
C409 Tb400 2.764 . S
C409 C403 1.504 . S
C409 O421 1.239 . S
C409 O422 1.263 . S
O410 Tb400 2.325 . S
O410 C420 1.236 . S
O411 Tb401 2.322 . S
O411 C420 1.257 . S
O412 Tb401 2.349 . S
O412 C423 1.261 . S
O413 Tb400 2.303 . S
O413 C423 1.257 . S
O414 Tb401 2.415 . S
O414 C430 1.239 . S
O415 Tb401 2.399 . S
O415 C430 1.263 . S
O416 Tb401 2.325 . S
O416 C431 1.236 . S
O417 Tb400 2.322 . S
O417 C431 1.257 . S
O418 Tb400 2.349 . S
O418 C402 1.261 . S
O419 Tb401 2.303 . S
O419 C402 1.257 . S
C420 O410 1.236 . S
C420 O411 1.257 . S
O421 Tb400 2.415 . S
O421 C409 1.239 . S
O422 Tb400 2.399 . S
O422 C409 1.263 . S
C423 O412 1.261 . S
C423 O413 1.257 . S
C424 C427 1.358 . S
C424 C428 1.332 . S
C424 C430 1.504 . S
C425 C426 1.373 . S
C425 C429 1.308 . S
C426 C425 1.373 . S
C426 C427 1.429 . S
C426 H436 0.932 . S
C427 C424 1.358 . S
C427 C426 1.429 . S
C427 H437 0.930 . S
C428 C424 1.332 . S
C428 C429 1.394 . S
C428 H438 0.932 . S
C429 C425 1.308 . S
C429 C428 1.394 . S
C429 H439 0.929 . S
C430 Tb401 2.764 . S
C430 O414 1.239 . S
C430 O415 1.263 . S
C430 C424 1.504 . S
C431 O416 1.236 . S
C431 O417 1.257 . S
H432 C405 0.932 . S
H433 C406 0.930 . S
H434 C407 0.932 . S
H435 C408 0.929 . S
H436 C426 0.932 . S
H437 C427 0.930 . S
H438 C428 0.932 . S
H439 C429 0.929 . S
Tb440 C449 2.764 . S
Tb440 O450 2.325 . S
Tb440 O453 2.303 . S
Tb440 O457 2.322 . S
Tb440 O458 2.349 . S
Tb440 O461 2.415 . S
Tb440 O462 2.399 . S
Tb441 O451 2.322 . S
Tb441 O452 2.349 . S
Tb441 O454 2.415 . S
Tb441 O455 2.399 . S
Tb441 O456 2.325 . S
Tb441 O459 2.303 . S
Tb441 C470 2.764 1_554 S
C442 O458 1.261 . S
C442 O459 1.257 . S
C443 C446 1.358 . S
C443 C447 1.332 . S
C443 C449 1.504 . S
C444 C445 1.373 . S
C444 C448 1.308 . S
C445 C444 1.373 . S
C445 C446 1.429 . S
C445 H472 0.932 . S
C446 C443 1.358 . S
C446 C445 1.429 . S
C446 H473 0.930 . S
C447 C443 1.332 . S
C447 C448 1.394 . S
C447 H474 0.932 . S
C448 C444 1.308 . S
C448 C447 1.394 . S
C448 H475 0.929 . S
C449 Tb440 2.764 . S
C449 C443 1.504 . S
C449 O461 1.239 . S
C449 O462 1.263 . S
O450 Tb440 2.325 . S
O450 C460 1.236 . S
O451 Tb441 2.322 . S
O451 C460 1.257 . S
O452 Tb441 2.349 . S
O452 C463 1.261 . S
O453 Tb440 2.303 . S
O453 C463 1.257 . S
O454 Tb441 2.415 . S
O454 C470 1.239 1_554 S
O455 Tb441 2.399 . S
O455 C470 1.263 1_554 S
O456 Tb441 2.325 . S
O456 C471 1.236 . S
O457 Tb440 2.322 . S
O457 C471 1.257 . S
O458 Tb440 2.349 . S
O458 C442 1.261 . S
O459 Tb441 2.303 . S
O459 C442 1.257 . S
C460 O450 1.236 . S
C460 O451 1.257 . S
O461 Tb440 2.415 . S
O461 C449 1.239 . S
O462 Tb440 2.399 . S
O462 C449 1.263 . S
C463 O452 1.261 . S
C463 O453 1.257 . S
C464 C467 1.358 . S
C464 C468 1.332 . S
C464 C470 1.504 . S
C465 C466 1.373 . S
C465 C469 1.308 . S
C466 C465 1.373 . S
C466 C467 1.429 . S
C466 H476 0.932 . S
C467 C464 1.358 . S
C467 C466 1.429 . S
C467 H477 0.930 . S
C468 C464 1.332 . S
C468 C469 1.394 . S
C468 H478 0.932 . S
C469 C465 1.308 . S
C469 C468 1.394 . S
C469 H479 0.929 . S
C470 Tb441 2.764 1_556 S
C470 O454 1.239 1_556 S
C470 O455 1.263 1_556 S
C470 C464 1.504 . S
C471 O456 1.236 . S
C471 O457 1.257 . S
H472 C445 0.932 . S
H473 C446 0.930 . S
H474 C447 0.932 . S
H475 C448 0.929 . S
H476 C466 0.932 . S
H477 C467 0.930 . S
H478 C468 0.932 . S
H479 C469 0.929 . S
H480 C486 0.930 . S
H481 C490 0.930 . S
H482 C495 0.929 . S
H483 C493 0.929 . S
H484 C488 0.929 . S
H485 C494 0.929 . S
C486 H480 0.930 . S
C486 C487 1.367 . S
C486 C494 1.378 . S
C487 C486 1.367 . S
C487 C495 1.433 . S
C488 H484 0.929 . S
C488 C490 1.378 . S
C488 C492 1.350 . S
C489 C492 1.463 . S
C489 C494 1.350 . S
C489 N497 1.427 . S
C490 H481 0.930 . S
C490 C488 1.378 . S
C490 C491 1.367 . S
C491 C490 1.367 . S
C491 C493 1.433 . S
C492 C488 1.350 . S
C492 C489 1.463 . S
C492 N496 1.427 . S
C493 H483 0.929 . S
C493 C491 1.433 . S
C493 N496 1.384 . S
C494 H485 0.929 . S
C494 C486 1.378 . S
C494 C489 1.350 . S
C495 H482 0.929 . S
C495 C487 1.433 . S
C495 N497 1.384 . S
N496 C492 1.427 . S
N496 C493 1.384 . S
N497 C489 1.427 . S
N497 C495 1.384 . S
H498 C504 0.930 . S
H499 C508 0.930 . S
H500 C513 0.929 . S
H501 C511 0.929 . S
H502 C506 0.929 . S
H503 C512 0.929 . S
C504 H498 0.930 . S
C504 C505 1.367 . S
C504 C512 1.378 . S
C505 C504 1.367 . S
C505 C513 1.433 . S
C506 H502 0.929 . S
C506 C508 1.378 . S
C506 C510 1.350 . S
C507 C510 1.463 . S
C507 C512 1.350 . S
C507 N515 1.427 . S
C508 H499 0.930 . S
C508 C506 1.378 . S
C508 C509 1.367 . S
C509 C508 1.367 . S
C509 C511 1.433 . S
C510 C506 1.350 . S
C510 C507 1.463 . S
C510 N514 1.427 . S
C511 H501 0.929 . S
C511 C509 1.433 . S
C511 N514 1.384 . S
C512 H503 0.929 . S
C512 C504 1.378 . S
C512 C507 1.350 . S
C513 H500 0.929 . S
C513 C505 1.433 . S
C513 N515 1.384 . S
N514 C510 1.427 . S
N514 C511 1.384 . S
N515 C507 1.427 . S
N515 C513 1.384 . S
H516 C522 0.930 . S
H517 C526 0.930 . S
H518 C531 0.929 . S
H519 C529 0.929 . S
H520 C524 0.929 . S
H521 C530 0.929 . S
C522 H516 0.930 . S
C522 C523 1.367 . S
C522 C530 1.378 . S
C523 C522 1.367 . S
C523 C531 1.433 . S
C524 H520 0.929 . S
C524 C526 1.378 . S
C524 C528 1.350 . S
C525 C528 1.463 . S
C525 C530 1.350 . S
C525 N533 1.427 . S
C526 H517 0.930 . S
C526 C524 1.378 . S
C526 C527 1.367 . S
C527 C526 1.367 . S
C527 C529 1.433 . S
C528 C524 1.350 . S
C528 C525 1.463 . S
C528 N532 1.427 . S
C529 H519 0.929 . S
C529 C527 1.433 . S
C529 N532 1.384 . S
C530 H521 0.929 . S
C530 C522 1.378 . S
C530 C525 1.350 . S
C531 H518 0.929 . S
C531 C523 1.433 . S
C531 N533 1.384 . S
N532 C528 1.427 . S
N532 C529 1.384 . S
N533 C525 1.427 . S
N533 C531 1.384 . S
H534 C540 0.930 . S
H535 C544 0.930 . S
H536 C549 0.929 . S
H537 C547 0.929 . S
H538 C542 0.929 . S
H539 C548 0.929 . S
C540 H534 0.930 . S
C540 C541 1.367 . S
C540 C548 1.378 . S
C541 C540 1.367 . S
C541 C549 1.433 . S
C542 H538 0.929 . S
C542 C544 1.378 . S
C542 C546 1.350 . S
C543 C546 1.463 . S
C543 C548 1.350 . S
C543 N551 1.427 . S
C544 H535 0.930 . S
C544 C542 1.378 . S
C544 C545 1.367 . S
C545 C544 1.367 . S
C545 C547 1.433 . S
C546 C542 1.350 . S
C546 C543 1.463 . S
C546 N550 1.427 . S
C547 H537 0.929 . S
C547 C545 1.433 . S
C547 N550 1.384 . S
C548 H539 0.929 . S
C548 C540 1.378 . S
C548 C543 1.350 . S
C549 H536 0.929 . S
C549 C541 1.433 . S
C549 N551 1.384 . S
N550 C546 1.427 . S
N550 C547 1.384 . S
N551 C543 1.427 . S
N551 C549 1.384 . S
H552 C558 0.930 . S
H553 C562 0.930 . S
H554 C567 0.929 . S
H555 C565 0.929 . S
H556 C560 0.929 . S
H557 C566 0.929 . S
C558 H552 0.930 . S
C558 C559 1.367 . S
C558 C566 1.378 . S
C559 C558 1.367 . S
C559 C567 1.433 . S
C560 H556 0.929 . S
C560 C562 1.378 . S
C560 C564 1.350 . S
C561 C564 1.463 . S
C561 C566 1.350 . S
C561 N569 1.427 . S
C562 H553 0.930 . S
C562 C560 1.378 . S
C562 C563 1.367 . S
C563 C562 1.367 . S
C563 C565 1.433 . S
C564 C560 1.350 . S
C564 C561 1.463 . S
C564 N568 1.427 . S
C565 H555 0.929 . S
C565 C563 1.433 . S
C565 N568 1.384 . S
C566 H557 0.929 . S
C566 C558 1.378 . S
C566 C561 1.350 . S
C567 H554 0.929 . S
C567 C559 1.433 . S
C567 N569 1.384 . S
N568 C564 1.427 . S
N568 C565 1.384 . S
N569 C561 1.427 . S
N569 C567 1.384 . S
H570 C576 0.930 . S
H571 C580 0.930 . S
H572 C585 0.929 . S
H573 C583 0.929 . S
H574 C578 0.929 . S
H575 C584 0.929 . S
C576 H570 0.930 . S
C576 C577 1.367 . S
C576 C584 1.378 . S
C577 C576 1.367 . S
C577 C585 1.433 . S
C578 H574 0.929 . S
C578 C580 1.378 . S
C578 C582 1.350 . S
C579 C582 1.463 . S
C579 C584 1.350 . S
C579 N587 1.427 . S
C580 H571 0.930 . S
C580 C578 1.378 . S
C580 C581 1.367 . S
C581 C580 1.367 . S
C581 C583 1.433 . S
C582 C578 1.350 . S
C582 C579 1.463 . S
C582 N586 1.427 . S
C583 H573 0.929 . S
C583 C581 1.433 . S
C583 N586 1.384 . S
C584 H575 0.929 . S
C584 C576 1.378 . S
C584 C579 1.350 . S
C585 H572 0.929 . S
C585 C577 1.433 . S
C585 N587 1.384 . S
N586 C582 1.427 . S
N586 C583 1.384 . S
N587 C579 1.427 . S
N587 C585 1.384 . S
H588 C594 0.930 . S
H589 C598 0.930 . S
H590 C603 0.929 . S
H591 C601 0.929 . S
H592 C596 0.929 . S
H593 C602 0.929 . S
C594 H588 0.930 . S
C594 C595 1.367 . S
C594 C602 1.378 . S
C595 C594 1.367 . S
C595 C603 1.433 . S
C596 H592 0.929 . S
C596 C598 1.378 . S
C596 C600 1.350 . S
C597 C600 1.463 1_556 S
C597 C602 1.350 . S
C597 N605 1.427 . S
C598 H589 0.930 . S
C598 C596 1.378 . S
C598 C599 1.367 . S
C599 C598 1.367 . S
C599 C601 1.433 . S
C600 C596 1.350 . S
C600 C597 1.463 1_554 S
C600 N604 1.427 . S
C601 H591 0.929 . S
C601 C599 1.433 . S
C601 N604 1.384 . S
C602 H593 0.929 . S
C602 C594 1.378 . S
C602 C597 1.350 . S
C603 H590 0.929 . S
C603 C595 1.433 . S
C603 N605 1.384 . S
N604 C600 1.427 . S
N604 C601 1.384 . S
N605 C597 1.427 . S
N605 C603 1.384 . S
H606 C612 0.930 . S
H607 C616 0.930 . S
H608 C621 0.929 . S
H609 C619 0.929 . S
H610 C614 0.929 . S
H611 C620 0.929 . S
C612 H606 0.930 . S
C612 C613 1.367 . S
C612 C620 1.378 . S
C613 C612 1.367 . S
C613 C621 1.433 . S
C614 H610 0.929 . S
C614 C616 1.378 . S
C614 C618 1.350 . S
C615 C618 1.463 . S
C615 C620 1.350 . S
C615 N623 1.427 . S
C616 H607 0.930 . S
C616 C614 1.378 . S
C616 C617 1.367 . S
C617 C616 1.367 . S
C617 C619 1.433 . S
C618 C614 1.350 . S
C618 C615 1.463 . S
C618 N622 1.427 . S
C619 H609 0.929 . S
C619 C617 1.433 . S
C619 N622 1.384 . S
C620 H611 0.929 . S
C620 C612 1.378 . S
C620 C615 1.350 . S
C621 H608 0.929 . S
C621 C613 1.433 . S
C621 N623 1.384 . S
N622 C618 1.427 . S
N622 C619 1.384 . S
N623 C615 1.427 . S
N623 C621 1.384 . S
H624 C630 0.930 . S
H625 C634 0.930 . S
H626 C639 0.929 . S
H627 C637 0.929 . S
H628 C632 0.929 . S
H629 C638 0.929 . S
C630 H624 0.930 . S
C630 C631 1.367 . S
C630 C638 1.378 . S
C631 C630 1.367 . S
C631 C639 1.433 . S
C632 H628 0.929 . S
C632 C634 1.378 . S
C632 C636 1.350 . S
C633 C636 1.463 . S
C633 C638 1.350 . S
C633 N641 1.427 . S
C634 H625 0.930 . S
C634 C632 1.378 . S
C634 C635 1.367 . S
C635 C634 1.367 . S
C635 C637 1.433 . S
C636 C632 1.350 . S
C636 C633 1.463 . S
C636 N640 1.427 . S
C637 H627 0.929 . S
C637 C635 1.433 . S
C637 N640 1.384 . S
C638 H629 0.929 . S
C638 C630 1.378 . S
C638 C633 1.350 . S
C639 H626 0.929 . S
C639 C631 1.433 . S
C639 N641 1.384 . S
N640 C636 1.427 . S
N640 C637 1.384 . S
N641 C633 1.427 . S
N641 C639 1.384 . S
H642 C648 0.930 . S
H643 C652 0.930 . S
H644 C657 0.929 . S
H645 C655 0.929 . S
H646 C650 0.929 . S
H647 C656 0.929 . S
C648 H642 0.930 . S
C648 C649 1.367 . S
C648 C656 1.378 . S
C649 C648 1.367 . S
C649 C657 1.433 . S
C650 H646 0.929 . S
C650 C652 1.378 . S
C650 C654 1.350 . S
C651 C654 1.463 1_556 S
C651 C656 1.350 . S
C651 N659 1.427 . S
C652 H643 0.930 . S
C652 C650 1.378 . S
C652 C653 1.367 . S
C653 C652 1.367 . S
C653 C655 1.433 . S
C654 C650 1.350 . S
C654 C651 1.463 1_554 S
C654 N658 1.427 . S
C655 H645 0.929 . S
C655 C653 1.433 . S
C655 N658 1.384 . S
C656 H647 0.929 . S
C656 C648 1.378 . S
C656 C651 1.350 . S
C657 H644 0.929 . S
C657 C649 1.433 . S
C657 N659 1.384 . S
N658 C654 1.427 . S
N658 C655 1.384 . S
N659 C651 1.427 . S
N659 C657 1.384 . S
H660 C666 0.930 . S
H661 C670 0.930 . S
H662 C675 0.929 . S
H663 C673 0.929 . S
H664 C668 0.929 . S
H665 C674 0.929 . S
C666 H660 0.930 . S
C666 C667 1.367 . S
C666 C674 1.378 . S
C667 C666 1.367 . S
C667 C675 1.433 . S
C668 H664 0.929 . S
C668 C670 1.378 . S
C668 C672 1.350 . S
C669 C672 1.463 . S
C669 C674 1.350 . S
C669 N677 1.427 . S
C670 H661 0.930 . S
C670 C668 1.378 . S
C670 C671 1.367 . S
C671 C670 1.367 . S
C671 C673 1.433 . S
C672 C668 1.350 . S
C672 C669 1.463 . S
C672 N676 1.427 . S
C673 H663 0.929 . S
C673 C671 1.433 . S
C673 N676 1.384 . S
C674 H665 0.929 . S
C674 C666 1.378 . S
C674 C669 1.350 . S
C675 H662 0.929 . S
C675 C667 1.433 . S
C675 N677 1.384 . S
N676 C672 1.427 . S
N676 C673 1.384 . S
N677 C669 1.427 . S
N677 C675 1.384 . S
H678 C684 0.930 . S
H679 C688 0.930 . S
H680 C693 0.929 . S
H681 C691 0.929 . S
H682 C686 0.929 . S
H683 C692 0.929 . S
C684 H678 0.930 . S
C684 C685 1.367 . S
C684 C692 1.378 . S
C685 C684 1.367 . S
C685 C693 1.433 . S
C686 H682 0.929 . S
C686 C688 1.378 . S
C686 C690 1.350 . S
C687 C690 1.463 . S
C687 C692 1.350 . S
C687 N695 1.427 . S
C688 H679 0.930 . S
C688 C686 1.378 . S
C688 C689 1.367 . S
C689 C688 1.367 . S
C689 C691 1.433 . S
C690 C686 1.350 . S
C690 C687 1.463 . S
C690 N694 1.427 . S
C691 H681 0.929 . S
C691 C689 1.433 . S
C691 N694 1.384 . S
C692 H683 0.929 . S
C692 C684 1.378 . S
C692 C687 1.350 . S
C693 H680 0.929 . S
C693 C685 1.433 . S
C693 N695 1.384 . S
N694 C690 1.427 . S
N694 C691 1.384 . S
N695 C687 1.427 . S
N695 C693 1.384 . S
H696 C702 0.930 . S
H697 C706 0.930 . S
H698 C711 0.929 . S
H699 C709 0.929 . S
H700 C704 0.929 . S
H701 C710 0.929 . S
C702 H696 0.930 . S
C702 C703 1.367 . S
C702 C710 1.378 1_565 S
C703 C702 1.367 . S
C703 C711 1.433 . S
C704 H700 0.929 . S
C704 C706 1.378 1_565 S
C704 C708 1.350 1_565 S
C705 C708 1.463 1_566 S
C705 C710 1.350 1_565 S
C705 N713 1.427 . S
C706 H697 0.930 . S
C706 C704 1.378 1_545 S
C706 C707 1.367 . S
C707 C706 1.367 . S
C707 C709 1.433 . S
C708 C704 1.350 1_545 S
C708 C705 1.463 1_544 S
C708 N712 1.427 . S
C709 H699 0.929 . S
C709 C707 1.433 . S
C709 N712 1.384 . S
C710 H701 0.929 . S
C710 C702 1.378 1_545 S
C710 C705 1.350 1_545 S
C711 H698 0.929 . S
C711 C703 1.433 . S
C711 N713 1.384 . S
N712 C708 1.427 . S
N712 C709 1.384 . S
N713 C705 1.427 . S
N713 C711 1.384 . S
H714 C720 0.930 . S
H715 C724 0.930 . S
H716 C729 0.929 . S
H717 C727 0.929 . S
H718 C722 0.929 . S
H719 C728 0.929 . S
C720 H714 0.930 . S
C720 C721 1.367 . S
C720 C728 1.378 . S
C721 C720 1.367 . S
C721 C729 1.433 . S
C722 H718 0.929 . S
C722 C724 1.378 . S
C722 C726 1.350 . S
C723 C726 1.463 . S
C723 C728 1.350 . S
C723 N731 1.427 . S
C724 H715 0.930 . S
C724 C722 1.378 . S
C724 C725 1.367 . S
C725 C724 1.367 . S
C725 C727 1.433 . S
C726 C722 1.350 . S
C726 C723 1.463 . S
C726 N730 1.427 . S
C727 H717 0.929 . S
C727 C725 1.433 . S
C727 N730 1.384 . S
C728 H719 0.929 . S
C728 C720 1.378 . S
C728 C723 1.350 . S
C729 H716 0.929 . S
C729 C721 1.433 . S
C729 N731 1.384 . S
N730 C726 1.427 . S
N730 C727 1.384 . S
N731 C723 1.427 . S
N731 C729 1.384 . S
H732 C738 0.930 . S
H733 C742 0.930 . S
H734 C747 0.929 . S
H735 C745 0.929 . S
H736 C740 0.929 1_455 S
H737 C746 0.929 1_655 S
C738 H732 0.930 . S
C738 C739 1.367 . S
C738 C746 1.378 . S
C739 C738 1.367 . S
C739 C747 1.433 . S
C740 H736 0.929 1_655 S
C740 C742 1.378 . S
C740 C744 1.350 . S
C741 C744 1.463 1_455 S
C741 C746 1.350 . S
C741 N749 1.427 . S
C742 H733 0.930 . S
C742 C740 1.378 . S
C742 C743 1.367 . S
C743 C742 1.367 . S
C743 C745 1.433 . S
C744 C740 1.350 . S
C744 C741 1.463 1_655 S
C744 N748 1.427 . S
C745 H735 0.929 . S
C745 C743 1.433 . S
C745 N748 1.384 . S
C746 H737 0.929 1_455 S
C746 C738 1.378 . S
C746 C741 1.350 . S
C747 H734 0.929 . S
C747 C739 1.433 . S
C747 N749 1.384 . S
N748 C744 1.427 . S
N748 C745 1.384 . S
N749 C741 1.427 . S
N749 C747 1.384 . S
H750 C756 0.930 . S
H751 C760 0.930 . S
H752 C765 0.929 1_545 S
H753 C763 0.929 1_565 S
H754 C758 0.929 1_554 S
H755 C764 0.929 1_556 S
C756 H750 0.930 . S
C756 C757 1.367 . S
C756 C764 1.378 . S
C757 C756 1.367 . S
C757 C765 1.433 . S
C758 H754 0.929 1_556 S
C758 C760 1.378 . S
C758 C762 1.350 . S
C759 C762 1.463 1_564 S
C759 C764 1.350 . S
C759 N767 1.427 1_565 S
C760 H751 0.930 . S
C760 C758 1.378 . S
C760 C761 1.367 . S
C761 C760 1.367 . S
C761 C763 1.433 . S
C762 C758 1.350 . S
C762 C759 1.463 1_546 S
C762 N766 1.427 1_545 S
C763 H753 0.929 1_545 S
C763 C761 1.433 . S
C763 N766 1.384 1_545 S
C764 H755 0.929 1_554 S
C764 C756 1.378 . S
C764 C759 1.350 . S
C765 H752 0.929 1_565 S
C765 C757 1.433 . S
C765 N767 1.384 1_565 S
N766 C762 1.427 1_565 S
N766 C763 1.384 1_565 S
N767 C759 1.427 1_545 S
N767 C765 1.384 1_545 S
H768 C774 0.930 . S
H769 C778 0.930 . S
H770 C783 0.929 . S
H771 C781 0.929 . S
H772 C776 0.929 . S
H773 C782 0.929 . S
C774 H768 0.930 . S
C774 C775 1.367 . S
C774 C782 1.378 . S
C775 C774 1.367 . S
C775 C783 1.433 . S
C776 H772 0.929 . S
C776 C778 1.378 . S
C776 C780 1.350 . S
C777 C780 1.463 . S
C777 C782 1.350 . S
C777 N785 1.427 . S
C778 H769 0.930 . S
C778 C776 1.378 . S
C778 C779 1.367 . S
C779 C778 1.367 . S
C779 C781 1.433 . S
C780 C776 1.350 . S
C780 C777 1.463 . S
C780 N784 1.427 . S
C781 H771 0.929 . S
C781 C779 1.433 . S
C781 N784 1.384 . S
C782 H773 0.929 . S
C782 C774 1.378 . S
C782 C777 1.350 . S
C783 H770 0.929 . S
C783 C775 1.433 . S
C783 N785 1.384 . S
N784 C780 1.427 . S
N784 C781 1.384 . S
N785 C777 1.427 . S
N785 C783 1.384 . S
H786 C792 0.930 . S
H787 C796 0.930 . S
H788 C801 0.929 . S
H789 C799 0.929 . S
H790 C794 0.929 . S
H791 C800 0.929 . S
C792 H786 0.930 . S
C792 C793 1.367 . S
C792 C800 1.378 . S
C793 C792 1.367 . S
C793 C801 1.433 . S
C794 H790 0.929 . S
C794 C796 1.378 . S
C794 C798 1.350 . S
C795 C798 1.463 1_455 S
C795 C800 1.350 . S
C795 N803 1.427 . S
C796 H787 0.930 . S
C796 C794 1.378 . S
C796 C797 1.367 . S
C797 C796 1.367 . S
C797 C799 1.433 . S
C798 C794 1.350 . S
C798 C795 1.463 1_655 S
C798 N802 1.427 . S
C799 H789 0.929 . S
C799 C797 1.433 . S
C799 N802 1.384 . S
C800 H791 0.929 . S
C800 C792 1.378 . S
C800 C795 1.350 . S
C801 H788 0.929 . S
C801 C793 1.433 . S
C801 N803 1.384 . S
N802 C798 1.427 . S
N802 C799 1.384 . S
N803 C795 1.427 . S
N803 C801 1.384 . S
H804 C810 0.930 . S
H805 C814 0.930 . S
H806 C819 0.929 . S
H807 C817 0.929 . S
H808 C812 0.929 1_545 S
H809 C818 0.929 1_565 S
C810 H804 0.930 . S
C810 C811 1.367 . S
C810 C818 1.378 . S
C811 C810 1.367 . S
C811 C819 1.433 . S
C812 H808 0.929 1_565 S
C812 C814 1.378 . S
C812 C816 1.350 . S
C813 C816 1.463 1_545 S
C813 C818 1.350 . S
C813 N821 1.427 . S
C814 H805 0.930 . S
C814 C812 1.378 . S
C814 C815 1.367 . S
C815 C814 1.367 . S
C815 C817 1.433 . S
C816 C812 1.350 . S
C816 C813 1.463 1_565 S
C816 N820 1.427 . S
C817 H807 0.929 . S
C817 C815 1.433 . S
C817 N820 1.384 . S
C818 H809 0.929 1_545 S
C818 C810 1.378 . S
C818 C813 1.350 . S
C819 H806 0.929 . S
C819 C811 1.433 . S
C819 N821 1.384 . S
N820 C816 1.427 . S
N820 C817 1.384 . S
N821 C813 1.427 . S
N821 C819 1.384 . S
H822 C828 0.930 . S
H823 C832 0.930 . S
H824 C837 0.929 . S
H825 C835 0.929 . S
H826 C830 0.929 . S
H827 C836 0.929 . S
C828 H822 0.930 . S
C828 C829 1.367 . S
C828 C836 1.378 . S
C829 C828 1.367 . S
C829 C837 1.433 . S
C830 H826 0.929 . S
C830 C832 1.378 . S
C830 C834 1.350 . S
C831 C834 1.463 . S
C831 C836 1.350 . S
C831 N839 1.427 . S
C832 H823 0.930 . S
C832 C830 1.378 . S
C832 C833 1.367 . S
C833 C832 1.367 . S
C833 C835 1.433 . S
C834 C830 1.350 . S
C834 C831 1.463 . S
C834 N838 1.427 . S
C835 H825 0.929 . S
C835 C833 1.433 . S
C835 N838 1.384 . S
C836 H827 0.929 . S
C836 C828 1.378 . S
C836 C831 1.350 . S
C837 H824 0.929 . S
C837 C829 1.433 . S
C837 N839 1.384 . S
N838 C834 1.427 . S
N838 C835 1.384 . S
N839 C831 1.427 . S
N839 C837 1.384 . S
H840 C846 0.930 . S
H841 C850 0.930 . S
H842 C855 0.929 . S
H843 C853 0.929 . S
H844 C848 0.929 . S
H845 C854 0.929 . S
C846 H840 0.930 . S
C846 C847 1.367 . S
C846 C854 1.378 . S
C847 C846 1.367 . S
C847 C855 1.433 . S
C848 H844 0.929 . S
C848 C850 1.378 . S
C848 C852 1.350 . S
C849 C852 1.463 1_655 S
C849 C854 1.350 . S
C849 N857 1.427 . S
C850 H841 0.930 . S
C850 C848 1.378 . S
C850 C851 1.367 . S
C851 C850 1.367 . S
C851 C853 1.433 . S
C852 C848 1.350 . S
C852 C849 1.463 1_455 S
C852 N856 1.427 . S
C853 H843 0.929 . S
C853 C851 1.433 . S
C853 N856 1.384 . S
C854 H845 0.929 . S
C854 C846 1.378 . S
C854 C849 1.350 . S
C855 H842 0.929 . S
C855 C847 1.433 . S
C855 N857 1.384 . S
N856 C852 1.427 . S
N856 C853 1.384 . S
N857 C849 1.427 . S
N857 C855 1.384 . S
H858 C864 0.930 . S
H859 C868 0.930 . S
H860 C873 0.929 . S
H861 C871 0.929 . S
H862 C866 0.929 . S
H863 C872 0.929 . S
C864 H858 0.930 . S
C864 C865 1.367 . S
C864 C872 1.378 . S
C865 C864 1.367 . S
C865 C873 1.433 . S
C866 H862 0.929 . S
C866 C868 1.378 . S
C866 C870 1.350 . S
C867 C870 1.463 1_455 S
C867 C872 1.350 . S
C867 N875 1.427 . S
C868 H859 0.930 . S
C868 C866 1.378 . S
C868 C869 1.367 . S
C869 C868 1.367 . S
C869 C871 1.433 . S
C870 C866 1.350 . S
C870 C867 1.463 1_655 S
C870 N874 1.427 . S
C871 H861 0.929 . S
C871 C869 1.433 . S
C871 N874 1.384 . S
C872 H863 0.929 . S
C872 C864 1.378 . S
C872 C867 1.350 . S
C873 H860 0.929 . S
C873 C865 1.433 . S
C873 N875 1.384 . S
N874 C870 1.427 . S
N874 C871 1.384 . S
N875 C867 1.427 . S
N875 C873 1.384 . S
H876 C882 0.930 . S
H877 C886 0.930 . S
H878 C891 0.929 . S
H879 C889 0.929 . S
H880 C884 0.929 1_565 S
H881 C890 0.929 1_545 S
C882 H876 0.930 . S
C882 C883 1.367 . S
C882 C890 1.378 . S
C883 C882 1.367 . S
C883 C891 1.433 . S
C884 H880 0.929 1_545 S
C884 C886 1.378 . S
C884 C888 1.350 . S
C885 C888 1.463 1_565 S
C885 C890 1.350 . S
C885 N893 1.427 . S
C886 H877 0.930 . S
C886 C884 1.378 . S
C886 C887 1.367 . S
C887 C886 1.367 . S
C887 C889 1.433 . S
C888 C884 1.350 . S
C888 C885 1.463 1_545 S
C888 N892 1.427 . S
C889 H879 0.929 . S
C889 C887 1.433 . S
C889 N892 1.384 . S
C890 H881 0.929 1_565 S
C890 C882 1.378 . S
C890 C885 1.350 . S
C891 H878 0.929 . S
C891 C883 1.433 . S
C891 N893 1.384 . S
N892 C888 1.427 . S
N892 C889 1.384 . S
N893 C885 1.427 . S
N893 C891 1.384 . S
H894 C900 0.930 . S
H895 C904 0.930 . S
H896 C909 0.929 . S
H897 C907 0.929 . S
H898 C902 0.929 . S
H899 C908 0.929 . S
C900 H894 0.930 . S
C900 C901 1.367 . S
C900 C908 1.378 . S
C901 C900 1.367 . S
C901 C909 1.433 . S
C902 H898 0.929 . S
C902 C904 1.378 . S
C902 C906 1.350 . S
C903 C906 1.463 . S
C903 C908 1.350 . S
C903 N911 1.427 . S
C904 H895 0.930 . S
C904 C902 1.378 . S
C904 C905 1.367 . S
C905 C904 1.367 . S
C905 C907 1.433 . S
C906 C902 1.350 . S
C906 C903 1.463 . S
C906 N910 1.427 . S
C907 H897 0.929 . S
C907 C905 1.433 . S
C907 N910 1.384 . S
C908 H899 0.929 . S
C908 C900 1.378 . S
C908 C903 1.350 . S
C909 H896 0.929 . S
C909 C901 1.433 . S
C909 N911 1.384 . S
N910 C906 1.427 . S
N910 C907 1.384 . S
N911 C903 1.427 . S
N911 C909 1.384 . S
H912 C918 0.930 . S
H913 C922 0.930 . S
H914 C927 0.929 . S
H915 C925 0.929 . S
H916 C920 0.929 1_565 S
H917 C926 0.929 1_545 S
C918 H912 0.930 . S
C918 C919 1.367 . S
C918 C926 1.378 . S
C919 C918 1.367 . S
C919 C927 1.433 . S
C920 H916 0.929 1_545 S
C920 C922 1.378 . S
C920 C924 1.350 . S
C921 C924 1.463 1_565 S
C921 C926 1.350 . S
C921 N929 1.427 . S
C922 H913 0.930 . S
C922 C920 1.378 . S
C922 C923 1.367 . S
C923 C922 1.367 . S
C923 C925 1.433 . S
C924 C920 1.350 . S
C924 C921 1.463 1_545 S
C924 N928 1.427 . S
C925 H915 0.929 . S
C925 C923 1.433 . S
C925 N928 1.384 . S
C926 H917 0.929 1_565 S
C926 C918 1.378 . S
C926 C921 1.350 . S
C927 H914 0.929 . S
C927 C919 1.433 . S
C927 N929 1.384 . S
N928 C924 1.427 . S
N928 C925 1.384 . S
N929 C921 1.427 . S
N929 C927 1.384 . S
H930 C936 0.930 . S
H931 C940 0.930 . S
H932 C945 0.929 . S
H933 C943 0.929 . S
H934 C938 0.929 . S
H935 C944 0.929 . S
C936 H930 0.930 . S
C936 C937 1.367 . S
C936 C944 1.378 . S
C937 C936 1.367 . S
C937 C945 1.433 . S
C938 H934 0.929 . S
C938 C940 1.378 . S
C938 C942 1.350 . S
C939 C942 1.463 . S
C939 C944 1.350 . S
C939 N947 1.427 . S
C940 H931 0.930 . S
C940 C938 1.378 . S
C940 C941 1.367 . S
C941 C940 1.367 . S
C941 C943 1.433 . S
C942 C938 1.350 . S
C942 C939 1.463 . S
C942 N946 1.427 . S
C943 H933 0.929 . S
C943 C941 1.433 . S
C943 N946 1.384 . S
C944 H935 0.929 . S
C944 C936 1.378 . S
C944 C939 1.350 . S
C945 H932 0.929 . S
C945 C937 1.433 . S
C945 N947 1.384 . S
N946 C942 1.427 . S
N946 C943 1.384 . S
N947 C939 1.427 . S
N947 C945 1.384 . S
H948 C954 0.930 . S
H949 C958 0.930 . S
H950 C963 0.929 . S
H951 C961 0.929 . S
H952 C956 0.929 . S
H953 C962 0.929 . S
C954 H948 0.930 . S
C954 C955 1.367 . S
C954 C962 1.378 . S
C955 C954 1.367 . S
C955 C963 1.433 . S
C956 H952 0.929 . S
C956 C958 1.378 . S
C956 C960 1.350 . S
C957 C960 1.463 1_655 S
C957 C962 1.350 . S
C957 N965 1.427 . S
C958 H949 0.930 . S
C958 C956 1.378 . S
C958 C959 1.367 . S
C959 C958 1.367 . S
C959 C961 1.433 . S
C960 C956 1.350 . S
C960 C957 1.463 1_455 S
C960 N964 1.427 . S
C961 H951 0.929 . S
C961 C959 1.433 . S
C961 N964 1.384 . S
C962 H953 0.929 . S
C962 C954 1.378 . S
C962 C957 1.350 . S
C963 H950 0.929 . S
C963 C955 1.433 . S
C963 N965 1.384 . S
N964 C960 1.427 . S
N964 C961 1.384 . S
N965 C957 1.427 . S
N965 C963 1.384 . S
H966 C972 0.930 . S
H967 C976 0.930 . S
H968 C981 0.929 . S
H969 C979 0.929 . S
H970 C974 0.929 1_545 S
H971 C980 0.929 1_565 S
C972 H966 0.930 . S
C972 C973 1.367 . S
C972 C980 1.378 . S
C973 C972 1.367 . S
C973 C981 1.433 . S
C974 H970 0.929 1_565 S
C974 C976 1.378 . S
C974 C978 1.350 . S
C975 C978 1.463 1_545 S
C975 C980 1.350 . S
C975 N983 1.427 . S
C976 H967 0.930 . S
C976 C974 1.378 . S
C976 C977 1.367 . S
C977 C976 1.367 . S
C977 C979 1.433 . S
C978 C974 1.350 . S
C978 C975 1.463 1_565 S
C978 N982 1.427 . S
C979 H969 0.929 . S
C979 C977 1.433 . S
C979 N982 1.384 . S
C980 H971 0.929 1_545 S
C980 C972 1.378 . S
C980 C975 1.350 . S
C981 H968 0.929 . S
C981 C973 1.433 . S
C981 N983 1.384 . S
N982 C978 1.427 . S
N982 C979 1.384 . S
N983 C975 1.427 . S
N983 C981 1.384 . S
H984 C990 0.930 . S
H985 C994 0.930 . S
H986 C999 0.929 . S
H987 C997 0.929 . S
H988 C992 0.929 . S
H989 C998 0.929 . S
C990 H984 0.930 . S
C990 C991 1.367 . S
C990 C998 1.378 . S
C991 C990 1.367 . S
C991 C999 1.433 . S
C992 H988 0.929 . S
C992 C994 1.378 . S
C992 C996 1.350 . S
C993 C996 1.463 . S
C993 C998 1.350 . S
C993 N1001 1.427 . S
C994 H985 0.930 . S
C994 C992 1.378 . S
C994 C995 1.367 . S
C995 C994 1.367 . S
C995 C997 1.433 . S
C996 C992 1.350 . S
C996 C993 1.463 . S
C996 N1000 1.427 . S
C997 H987 0.929 . S
C997 C995 1.433 . S
C997 N1000 1.384 . S
C998 H989 0.929 . S
C998 C990 1.378 . S
C998 C993 1.350 . S
C999 H986 0.929 . S
C999 C991 1.433 . S
C999 N1001 1.384 . S
N1000 C996 1.427 . S
N1000 C997 1.384 . S
N1001 C993 1.427 . S
N1001 C999 1.384 . S
H1002 C1008 0.930 . S
H1003 C1012 0.930 . S
H1004 C1017 0.929 . S
H1005 C1015 0.929 . S
H1006 C1010 0.930 . S
H1007 C1016 0.931 . S
C1008 H1002 0.930 . S
C1008 C1009 1.367 . S
C1008 C1016 1.378 . S
C1009 C1008 1.367 . S
C1009 C1017 1.433 . S
C1010 H1006 0.930 . S
C1010 C1012 1.378 . S
C1010 C1014 1.350 . S
C1011 C1014 1.463 1_455 S
C1011 C1016 1.350 . S
C1011 N1019 1.427 . S
C1012 H1003 0.930 . S
C1012 C1010 1.378 . S
C1012 C1013 1.367 . S
C1013 C1012 1.367 . S
C1013 C1015 1.433 . S
C1014 C1010 1.350 . S
C1014 C1011 1.463 1_655 S
C1014 N1018 1.427 . S
C1015 H1005 0.929 . S
C1015 C1013 1.433 . S
C1015 N1018 1.384 . S
C1016 H1007 0.931 . S
C1016 C1008 1.378 . S
C1016 C1011 1.350 . S
C1017 H1004 0.929 . S
C1017 C1009 1.433 . S
C1017 N1019 1.384 . S
N1018 C1014 1.427 . S
N1018 C1015 1.384 . S
N1019 C1011 1.427 . S
N1019 C1017 1.384 . S
H1020 C1026 0.930 . S
H1021 C1030 0.930 . S
H1022 C1035 0.929 . S
H1023 C1033 0.929 . S
H1024 C1028 0.929 . S
H1025 C1034 0.929 . S
C1026 H1020 0.930 . S
C1026 C1027 1.367 . S
C1026 C1034 1.378 . S
C1027 C1026 1.367 . S
C1027 C1035 1.433 . S
C1028 H1024 0.929 . S
C1028 C1030 1.378 . S
C1028 C1032 1.350 . S
C1029 C1032 1.463 . S
C1029 C1034 1.350 . S
C1029 N1037 1.427 . S
C1030 H1021 0.930 . S
C1030 C1028 1.378 . S
C1030 C1031 1.367 . S
C1031 C1030 1.367 . S
C1031 C1033 1.433 . S
C1032 C1028 1.350 . S
C1032 C1029 1.463 . S
C1032 N1036 1.427 . S
C1033 H1023 0.929 . S
C1033 C1031 1.433 . S
C1033 N1036 1.384 . S
C1034 H1025 0.929 . S
C1034 C1026 1.378 . S
C1034 C1029 1.350 . S
C1035 H1022 0.929 . S
C1035 C1027 1.433 . S
C1035 N1037 1.384 . S
N1036 C1032 1.427 . S
N1036 C1033 1.384 . S
N1037 C1029 1.427 . S
N1037 C1035 1.384 . S
H1038 C1044 0.930 . S
H1039 C1048 0.930 . S
H1040 C1053 0.929 . S
H1041 C1051 0.929 . S
H1042 C1046 0.929 . S
H1043 C1052 0.929 . S
C1044 H1038 0.930 . S
C1044 C1045 1.367 . S
C1044 C1052 1.378 . S
C1045 C1044 1.367 . S
C1045 C1053 1.433 . S
C1046 H1042 0.929 . S
C1046 C1048 1.378 . S
C1046 C1050 1.350 . S
C1047 C1050 1.463 . S
C1047 C1052 1.350 . S
C1047 N1055 1.427 . S
C1048 H1039 0.930 . S
C1048 C1046 1.378 . S
C1048 C1049 1.367 . S
C1049 C1048 1.367 . S
C1049 C1051 1.433 . S
C1050 C1046 1.350 . S
C1050 C1047 1.463 . S
C1050 N1054 1.427 . S
C1051 H1041 0.929 . S
C1051 C1049 1.433 . S
C1051 N1054 1.384 . S
C1052 H1043 0.929 . S
C1052 C1044 1.378 . S
C1052 C1047 1.350 . S
C1053 H1040 0.929 . S
C1053 C1045 1.433 . S
C1053 N1055 1.384 . S
N1054 C1050 1.427 . S
N1054 C1051 1.384 . S
N1055 C1047 1.427 . S
N1055 C1053 1.384 . S
H1056 C1062 0.930 . S
H1057 C1066 0.930 . S
H1058 C1071 0.929 . S
H1059 C1069 0.929 . S
H1060 C1064 0.929 . S
H1061 C1070 0.929 . S
C1062 H1056 0.930 . S
C1062 C1063 1.367 . S
C1062 C1070 1.378 . S
C1063 C1062 1.367 . S
C1063 C1071 1.433 . S
C1064 H1060 0.929 . S
C1064 C1066 1.378 . S
C1064 C1068 1.350 . S
C1065 C1068 1.463 . S
C1065 C1070 1.350 . S
C1065 N1073 1.427 . S
C1066 H1057 0.930 . S
C1066 C1064 1.378 . S
C1066 C1067 1.367 . S
C1067 C1066 1.367 . S
C1067 C1069 1.433 . S
C1068 C1064 1.350 . S
C1068 C1065 1.463 . S
C1068 N1072 1.427 . S
C1069 H1059 0.929 . S
C1069 C1067 1.433 . S
C1069 N1072 1.384 . S
C1070 H1061 0.929 . S
C1070 C1062 1.378 . S
C1070 C1065 1.350 . S
C1071 H1058 0.929 . S
C1071 C1063 1.433 . S
C1071 N1073 1.384 . S
N1072 C1068 1.427 . S
N1072 C1069 1.384 . S
N1073 C1065 1.427 . S
N1073 C1071 1.384 . S
H1074 C1080 0.930 . S
H1075 C1084 0.930 . S
H1076 C1089 0.929 . S
H1077 C1087 0.929 . S
H1078 C1082 0.929 . S
H1079 C1088 0.929 . S
C1080 H1074 0.930 . S
C1080 C1081 1.367 . S
C1080 C1088 1.378 . S
C1081 C1080 1.367 . S
C1081 C1089 1.433 . S
C1082 H1078 0.929 . S
C1082 C1084 1.378 . S
C1082 C1086 1.350 . S
C1083 C1086 1.463 . S
C1083 C1088 1.350 . S
C1083 N1091 1.427 . S
C1084 H1075 0.930 . S
C1084 C1082 1.378 . S
C1084 C1085 1.367 . S
C1085 C1084 1.367 . S
C1085 C1087 1.433 . S
C1086 C1082 1.350 . S
C1086 C1083 1.463 . S
C1086 N1090 1.427 . S
C1087 H1077 0.929 . S
C1087 C1085 1.433 . S
C1087 N1090 1.384 . S
C1088 H1079 0.929 . S
C1088 C1080 1.378 . S
C1088 C1083 1.350 . S
C1089 H1076 0.929 . S
C1089 C1081 1.433 . S
C1089 N1091 1.384 . S
N1090 C1086 1.427 . S
N1090 C1087 1.384 . S
N1091 C1083 1.427 . S
N1091 C1089 1.384 . S
H1092 C1098 0.930 . S
H1093 C1102 0.930 . S
H1094 C1107 0.929 . S
H1095 C1105 0.929 . S
H1096 C1100 0.929 . S
H1097 C1106 0.929 . S
C1098 H1092 0.930 . S
C1098 C1099 1.367 . S
C1098 C1106 1.378 . S
C1099 C1098 1.367 . S
C1099 C1107 1.433 . S
C1100 H1096 0.929 . S
C1100 C1102 1.378 . S
C1100 C1104 1.350 . S
C1101 C1104 1.463 . S
C1101 C1106 1.350 . S
C1101 N1109 1.427 . S
C1102 H1093 0.930 . S
C1102 C1100 1.378 . S
C1102 C1103 1.367 . S
C1103 C1102 1.367 . S
C1103 C1105 1.433 . S
C1104 C1100 1.350 . S
C1104 C1101 1.463 . S
C1104 N1108 1.427 . S
C1105 H1095 0.929 . S
C1105 C1103 1.433 . S
C1105 N1108 1.384 . S
C1106 H1097 0.929 . S
C1106 C1098 1.378 . S
C1106 C1101 1.350 . S
C1107 H1094 0.929 . S
C1107 C1099 1.433 . S
C1107 N1109 1.384 . S
N1108 C1104 1.427 . S
N1108 C1105 1.384 . S
N1109 C1101 1.427 . S
N1109 C1107 1.384 . S
H1110 C1116 0.930 . S
H1111 C1120 0.930 . S
H1112 C1125 0.929 . S
H1113 C1123 0.929 . S
H1114 C1118 0.929 . S
H1115 C1124 0.929 . S
C1116 H1110 0.930 . S
C1116 C1117 1.367 . S
C1116 C1124 1.378 . S
C1117 C1116 1.367 . S
C1117 C1125 1.433 . S
C1118 H1114 0.929 . S
C1118 C1120 1.378 . S
C1118 C1122 1.350 . S
C1119 C1122 1.463 . S
C1119 C1124 1.350 . S
C1119 N1127 1.427 . S
C1120 H1111 0.930 . S
C1120 C1118 1.378 . S
C1120 C1121 1.367 . S
C1121 C1120 1.367 . S
C1121 C1123 1.433 . S
C1122 C1118 1.350 . S
C1122 C1119 1.463 . S
C1122 N1126 1.427 . S
C1123 H1113 0.929 . S
C1123 C1121 1.433 . S
C1123 N1126 1.384 . S
C1124 H1115 0.929 . S
C1124 C1116 1.378 . S
C1124 C1119 1.350 . S
C1125 H1112 0.929 . S
C1125 C1117 1.433 . S
C1125 N1127 1.384 . S
N1126 C1122 1.427 . S
N1126 C1123 1.384 . S
N1127 C1119 1.427 . S
N1127 C1125 1.384 . S
C487 C23 0.943 . S
C491 C343 0.947 . S
C505 C63 0.940 . S
C509 C383 0.946 . S
C523 C103 0.942 . S
C527 C423 0.936 . S
C541 C463 0.941 . S
C545 C143 0.935 . S
C559 C183 0.936 . S
C563 C263 0.943 . S
C577 C303 0.945 . S
C581 C223 0.940 . S
C595 C404 1.413 . S
C599 C4 1.423 . S
C613 C444 1.423 . S
C617 C44 1.414 . S
C631 C84 1.422 . S
C635 C244 1.419 . S
C649 C284 1.413 . S
C653 C124 1.422 . S
C667 C324 1.414 . S
C671 C164 1.423 . S
C685 C204 1.419 . S
C689 C364 1.422 . S
C703 C300 4.445 . S
C707 C20 4.443 . S
C721 C340 4.447 . S
C725 C60 4.445 . S
C739 C380 4.443 . S
C743 C100 4.446 . S
C757 C140 4.446 . S
C761 C420 4.446 . S
C775 C180 4.445 . S
C779 C460 4.443 . S
C793 C220 4.443 . S
C797 C260 4.447 . S
C811 C2 0.720 . S
C815 C122 0.731 . S
C829 C42 0.697 . S
C833 C162 0.720 . S
C847 C82 0.731 . S
C851 C202 0.706 . S
C865 C362 0.731 . S
C869 C242 0.707 . S
C883 C282 0.728 . S
C887 C402 0.724 . S
C901 C442 0.702 . S
C905 C322 0.728 . S
C919 C305 0.829 . S
C923 C25 0.844 . S
C937 C345 0.846 . S
C941 C65 0.829 . S
C955 C105 0.860 . S
C959 C385 0.850 . S
C973 C425 0.829 . S
C977 C145 0.842 . S
C991 C465 0.829 . S
C995 C185 0.841 . S
C1009 C225 0.829 . S
C1013 C265 0.847 . S
C1027 C31 4.591 . S
C1031 C431 4.593 . S
C1045 C71 4.591 . S
C1049 C471 4.593 1_556 S
C1063 C111 4.591 1_554 S
C1067 C271 4.593 . S
C1081 C151 4.593 . S
C1085 C311 4.591 . S
C1099 C191 4.593 . S
C1103 C351 4.591 1_556 S
C1117 C391 4.593 . S
C1121 C231 4.591 1_554 S
