# Generated by pormake.
# Topology wjx, (5)-cn, num edge types: 1
# Building blocks:
#     Node 0, Type 0, BuildingBlock: XOMCOT_clean_sbu_1, # of connection points: 5
#     Node 1, Type 0, BuildingBlock: XOMCOT_clean_sbu_1, # of connection points: 5
#     Node 2, Type 0, BuildingBlock: XOMCOT_clean_sbu_1, # of connection points: 5
#     Node 3, Type 0, BuildingBlock: XOMCOT_clean_sbu_1, # of connection points: 5
#     Node 4, Type 0, BuildingBlock: XOMCOT_clean_sbu_1, # of connection points: 5
#     Node 5, Type 0, BuildingBlock: XOMCOT_clean_sbu_1, # of connection points: 5
#     Node 6, Type 0, BuildingBlock: XOMCOT_clean_sbu_1, # of connection points: 5
#     Node 7, Type 0, BuildingBlock: XOMCOT_clean_sbu_1, # of connection points: 5
#     Node 8, Type 0, BuildingBlock: XOMCOT_clean_sbu_1, # of connection points: 5
#     Node 9, Type 0, BuildingBlock: XOMCOT_clean_sbu_1, # of connection points: 5
#     Node 10, Type 0, BuildingBlock: XOMCOT_clean_sbu_1, # of connection points: 5
#     Node 11, Type 0, BuildingBlock: XOMCOT_clean_sbu_1, # of connection points: 5
#     Edge 12, Type (0, 0), BuildingBlock: MIFKUJ_clean_linker_0, # of connection points: 2
#     Edge 13, Type (0, 0), BuildingBlock: MIFKUJ_clean_linker_0, # of connection points: 2
#     Edge 14, Type (0, 0), BuildingBlock: MIFKUJ_clean_linker_0, # of connection points: 2
#     Edge 15, Type (0, 0), BuildingBlock: MIFKUJ_clean_linker_0, # of connection points: 2
#     Edge 16, Type (0, 0), BuildingBlock: MIFKUJ_clean_linker_0, # of connection points: 2
#     Edge 17, Type (0, 0), BuildingBlock: MIFKUJ_clean_linker_0, # of connection points: 2
#     Edge 18, Type (0, 0), BuildingBlock: MIFKUJ_clean_linker_0, # of connection points: 2
#     Edge 19, Type (0, 0), BuildingBlock: MIFKUJ_clean_linker_0, # of connection points: 2
#     Edge 20, Type (0, 0), BuildingBlock: MIFKUJ_clean_linker_0, # of connection points: 2
#     Edge 21, Type (0, 0), BuildingBlock: MIFKUJ_clean_linker_0, # of connection points: 2
#     Edge 22, Type (0, 0), BuildingBlock: MIFKUJ_clean_linker_0, # of connection points: 2
#     Edge 23, Type (0, 0), BuildingBlock: MIFKUJ_clean_linker_0, # of connection points: 2
#     Edge 24, Type (0, 0), BuildingBlock: MIFKUJ_clean_linker_0, # of connection points: 2
#     Edge 25, Type (0, 0), BuildingBlock: MIFKUJ_clean_linker_0, # of connection points: 2
#     Edge 26, Type (0, 0), BuildingBlock: MIFKUJ_clean_linker_0, # of connection points: 2
#     Edge 27, Type (0, 0), BuildingBlock: MIFKUJ_clean_linker_0, # of connection points: 2
#     Edge 28, Type (0, 0), BuildingBlock: MIFKUJ_clean_linker_0, # of connection points: 2
#     Edge 29, Type (0, 0), BuildingBlock: MIFKUJ_clean_linker_0, # of connection points: 2
#     Edge 30, Type (0, 0), BuildingBlock: MIFKUJ_clean_linker_0, # of connection points: 2
#     Edge 31, Type (0, 0), BuildingBlock: MIFKUJ_clean_linker_0, # of connection points: 2
#     Edge 32, Type (0, 0), BuildingBlock: MIFKUJ_clean_linker_0, # of connection points: 2
#     Edge 33, Type (0, 0), BuildingBlock: MIFKUJ_clean_linker_0, # of connection points: 2
#     Edge 34, Type (0, 0), BuildingBlock: MIFKUJ_clean_linker_0, # of connection points: 2
#     Edge 35, Type (0, 0), BuildingBlock: MIFKUJ_clean_linker_0, # of connection points: 2
#     Edge 36, Type (0, 0), BuildingBlock: MIFKUJ_clean_linker_0, # of connection points: 2
#     Edge 37, Type (0, 0), BuildingBlock: MIFKUJ_clean_linker_0, # of connection points: 2
#     Edge 38, Type (0, 0), BuildingBlock: MIFKUJ_clean_linker_0, # of connection points: 2
#     Edge 39, Type (0, 0), BuildingBlock: MIFKUJ_clean_linker_0, # of connection points: 2
#     Edge 40, Type (0, 0), BuildingBlock: MIFKUJ_clean_linker_0, # of connection points: 2
#     Edge 41, Type (0, 0), BuildingBlock: MIFKUJ_clean_linker_0, # of connection points: 2
# Relax obj value: 0.120
# Max RMSD: 0.108
# Mean RMSD: 0.108
data_MOF--net-wjx--node1-XOMCOT_clean_sbu_1--edge1-MIFKUJ_clean_linker_0
_symmetry_space_group_name_H-M    P1
_symmetry_Int_Tables_number       1
_symmetry_cell_setting            triclinic
loop_
_symmetry_equiv_pos_as_xyz
'x, y, z'
_cell_length_a     93.145592
_cell_length_b     93.155684
_cell_length_c     22.123884
_cell_angle_alpha  89.990861
_cell_angle_beta   89.987322
_cell_angle_gamma 120.06818
loop_
_atom_site_label
_atom_site_type_symbol
_atom_site_fract_x
_atom_site_fract_y
_atom_site_fract_z
_atom_type_partial_charge
C0 C 0.14107 0.44867 0.19083 0.0
C1 C 0.14335 0.44852 0.25213 0.0
N2 N 0.12857 0.43831 0.27782 0.0
N3 N 0.12495 0.43838 0.17734 0.0
C4 C 0.11759 0.43237 0.23159 0.0
H5 H 0.15055 0.45628 0.15855 0.0
Co6 Co 0.11592 0.43537 0.09941 0.0
C7 C 0.08635 0.40209 0.10682 0.0
O8 O 0.09178 0.39744 0.0602 0.0
N9 N 0.10692 0.43268 0.02111 0.0
C10 C 0.08923 0.42855 0.94669 0.0
C11 C 0.0914 0.42937 1.00822 0.0
C12 C 0.11402 0.43404 0.96634 0.0
N13 N 0.10348 0.43153 0.92002 0.0
O14 O 0.12464 0.42097 0.07998 0.0
H15 H 0.08217 0.42764 0.04157 0.0
H16 H 0.12675 0.43711 0.96044 0.0
O17 O 0.09506 0.41676 0.12768 0.0
C18 C 0.13959 0.42911 0.06123 0.0
O19 O 0.14643 0.44521 0.05373 0.0
N20 N 0.10896 0.45052 0.11768 0.0
C21 C 0.10449 0.47717 0.14686 0.0
C22 C 0.09389 0.4613 0.17067 0.0
C23 C 0.0964 0.4481 0.15582 0.0
C24 C 0.11905 0.46569 0.09288 0.0
C25 C 0.11702 0.47917 0.10666 0.0
H26 H 0.08858 0.43618 0.17657 0.0
H27 H 0.12903 0.4674 0.06328 0.0
H28 H 0.10443 0.42398 0.2374 0.0
H29 H 0.15488 0.4559 0.27626 0.0
H30 H 0.07788 0.42577 0.92369 0.0
H31 H 0.08416 0.45924 0.20234 0.0
H32 H 0.12534 0.49112 0.08655 0.0
C33 C 0.68315 0.14143 0.49317 0.0
C34 C 0.68344 0.14382 0.55451 0.0
N35 N 0.6838 0.13114 0.58254 0.0
N36 N 0.68323 0.12726 0.48222 0.0
C37 C 0.68371 0.12127 0.53738 0.0
H38 H 0.68269 0.14937 0.45851 0.0
Co39 Co 0.68253 0.11943 0.40472 0.0
C40 C 0.66608 0.08315 0.41405 0.0
O41 O 0.65738 0.08299 0.36699 0.0
N42 N 0.6826 0.11204 0.3246 0.0
C43 C 0.68945 0.10084 0.24878 0.0
C44 C 0.68991 0.10309 0.31014 0.0
C45 C 0.67838 0.11563 0.2703 0.0
N46 N 0.68224 0.10878 0.2237 0.0
O47 O 0.70608 0.12762 0.40927 0.0
H48 H 0.69571 0.09882 0.34229 0.0
H49 H 0.6731 0.1235 0.26415 0.0
O50 O 0.67717 0.09714 0.43609 0.0
C51 C 0.71449 0.14083 0.37837 0.0
O52 O 0.70661 0.14663 0.34653 0.0
N53 N 0.65973 0.1132 0.40141 0.0
C54 C 0.62804 0.1097 0.40737 0.0
C55 C 0.63232 0.10027 0.44472 0.0
C56 C 0.64831 0.10255 0.44233 0.0
C57 C 0.65599 0.123 0.36677 0.0
C58 C 0.64016 0.12124 0.36807 0.0
H59 H 0.65167 0.09633 0.47581 0.0
H60 H 0.66562 0.13301 0.34086 0.0
H61 H 0.68406 0.10995 0.54418 0.0
H62 H 0.68304 0.15398 0.57653 0.0
H63 H 0.69473 0.09452 0.22425 0.0
H64 H 0.62368 0.09186 0.47807 0.0
H65 H 0.63761 0.12919 0.33983 0.0
C66 C 0.54393 0.67756 0.90091 0.0
C67 C 0.54303 0.68102 0.96059 0.0
N68 N 0.55848 0.69136 0.98069 0.0
N69 N 0.55993 0.68537 0.88269 0.0
C70 C 0.56847 0.69423 0.9321 0.0
H71 H 0.53345 0.66967 0.87263 0.0
Co72 Co 0.56589 0.68364 0.80159 0.0
C73 C 0.59182 0.67897 0.87283 0.0
O74 O 0.58501 0.6772 0.92622 0.0
N75 N 0.57121 0.68201 0.72049 0.0
C76 C 0.57853 0.67335 0.63867 0.0
C77 C 0.57612 0.6715 0.70006 0.0
C78 C 0.57045 0.68995 0.67016 0.0
N79 N 0.57499 0.68497 0.61958 0.0
O80 O 0.5797 0.70735 0.79733 0.0
H81 H 0.5774 0.66266 0.72784 0.0
H82 H 0.56661 0.69915 0.67059 0.0
O83 O 0.58508 0.68126 0.82612 0.0
C84 C 0.57104 0.71442 0.79269 0.0
O85 O 0.5548 0.70514 0.7941 0.0
N86 N 0.5512 0.66047 0.80331 0.0
C87 C 0.52441 0.62804 0.81069 0.0
C88 C 0.53888 0.63294 0.8446 0.0
C89 C 0.55211 0.64925 0.84052 0.0
C90 C 0.5376 0.65568 0.76772 0.0
C91 C 0.52409 0.63955 0.77062 0.0
H92 H 0.56257 0.65286 0.86967 0.0
H93 H 0.5369 0.66471 0.73897 0.0
H94 H 0.58177 0.70247 0.93275 0.0
H95 H 0.53187 0.67583 0.98774 0.0
H96 H 0.58208 0.66623 0.60996 0.0
H97 H 0.53963 0.62454 0.87656 0.0
H98 H 0.51329 0.63628 0.74295 0.0
C99 C 0.86311 0.56123 0.14454 0.0
C100 C 0.86137 0.56175 0.20609 0.0
N101 N 0.87646 0.56805 0.23161 0.0
N102 N 0.87927 0.56739 0.13079 0.0
C103 C 0.88708 0.57135 0.18506 0.0
H104 H 0.85308 0.5563 0.11229 0.0
Co105 Co 0.88804 0.5688 0.05307 0.0
C106 C 0.91834 0.60154 0.05354 0.0
O107 O 0.91348 0.60537 1.00336 0.0
N108 N 0.89697 0.57002 0.97477 0.0
C109 C 0.91452 0.57224 0.90199 0.0
C110 C 0.91212 0.57203 0.96334 0.0
C111 C 0.89038 0.56891 0.91911 0.0
N112 N 0.90081 0.57028 0.874 0.0
O113 O 0.87968 0.58321 0.02868 0.0
H114 H 0.92104 0.57346 0.99752 0.0
H115 H 0.87809 0.56693 0.91129 0.0
O116 O 0.90904 0.58754 0.0787 0.0
C117 C 0.86523 0.57492 1.00554 0.0
O118 O 0.85876 0.5588 0.99939 0.0
N119 N 0.89458 0.55359 0.07623 0.0
C120 C 0.89883 0.52699 0.10878 0.0
C121 C 0.91058 0.54329 0.12564 0.0
C122 C 0.9082 0.55648 0.10904 0.0
C123 C 0.88325 0.53795 0.05861 0.0
C124 C 0.88514 0.5245 0.07413 0.0
H125 H 0.9172 0.56886 0.1234 0.0
H126 H 0.87254 0.53593 0.03271 0.0
H127 H 0.9003 0.57648 0.19051 0.0
H128 H 0.84981 0.55728 0.23037 0.0
H129 H 0.92565 0.57401 0.87985 0.0
H130 H 0.92127 0.54579 0.1527 0.0
H131 H 0.87592 0.51222 0.05902 0.0
C132 C 0.31798 0.86101 0.4947 0.0
C133 C 0.31494 0.85781 0.55534 0.0
N134 N 0.3132 0.87003 0.58062 0.0
N135 N 0.31823 0.87522 0.48107 0.0
C136 C 0.31509 0.88038 0.53425 0.0
H137 H 0.3206 0.85382 0.46286 0.0
Co138 Co 0.32372 0.88456 0.40321 0.0
C139 C 0.33895 0.9204 0.44392 0.0
O140 O 0.35404 0.92289 0.43841 0.0
N141 N 0.32868 0.8935 0.32277 0.0
C142 C 0.33992 0.91021 0.2432 0.0
C143 C 0.34048 0.9088 0.30472 0.0
C144 C 0.32127 0.88579 0.27014 0.0
N145 N 0.32779 0.89574 0.22119 0.0
O146 O 0.30036 0.87607 0.38807 0.0
H147 H 0.34953 0.91835 0.33325 0.0
H148 H 0.31128 0.8731 0.26737 0.0
O149 O 0.32631 0.90608 0.43287 0.0
C150 C 0.29393 0.86105 0.37027 0.0
O151 O 0.30369 0.85471 0.36489 0.0
N152 N 0.34648 0.8909 0.41745 0.0
C153 C 0.37831 0.89536 0.43761 0.0
C154 C 0.36948 0.89769 0.4843 0.0
C155 C 0.35366 0.8953 0.4735 0.0
C156 C 0.35461 0.88783 0.37231 0.0
C157 C 0.37061 0.89041 0.38086 0.0
H158 H 0.34735 0.89735 0.51047 0.0
H159 H 0.34862 0.88297 0.32937 0.0
H160 H 0.31481 0.89179 0.5392 0.0
H161 H 0.31491 0.84768 0.57933 0.0
H162 H 0.34821 0.92096 0.21655 0.0
H163 H 0.37452 0.90098 0.52952 0.0
H164 H 0.37675 0.88835 0.34313 0.0
C165 C 0.43221 0.29568 0.86327 0.0
C166 C 0.42917 0.29322 0.92418 0.0
N167 N 0.42747 0.30574 0.94644 0.0
N168 N 0.43226 0.30961 0.84626 0.0
C169 C 0.42938 0.31552 0.89819 0.0
H170 H 0.43492 0.28809 0.83392 0.0
Co171 Co 0.43791 0.31864 0.76794 0.0
C172 C 0.41628 0.33306 0.73861 0.0
O173 O 0.42706 0.34286 0.6982 0.0
N174 N 0.44414 0.32748 0.68774 0.0
C175 C 0.45849 0.34292 0.60882 0.0
C176 C 0.45846 0.34101 0.67031 0.0
C177 C 0.43581 0.32126 0.6349 0.0
N178 N 0.44425 0.33052 0.58635 0.0
O179 O 0.42363 0.2968 0.73455 0.0
H180 H 0.46849 0.34915 0.69966 0.0
H181 H 0.42365 0.3103 0.6321 0.0
O182 O 0.41927 0.32321 0.76965 0.0
C183 C 0.43189 0.29044 0.71276 0.0
O184 O 0.44817 0.29942 0.71275 0.0
N185 N 0.45299 0.33933 0.80228 0.0
C186 C 0.4795 0.36844 0.84957 0.0
C187 C 0.46371 0.36675 0.84285 0.0
C188 C 0.45059 0.35207 0.81931 0.0
C189 C 0.46792 0.34036 0.81182 0.0
C190 C 0.48139 0.35484 0.83433 0.0
H191 H 0.4386 0.35107 0.81606 0.0
H192 H 0.46952 0.33002 0.79942 0.0
H193 H 0.42909 0.32697 0.90089 0.0
H194 H 0.42913 0.28342 0.9506 0.0
H195 H 0.46847 0.35255 0.58248 0.0
H196 H 0.46144 0.37663 0.85598 0.0
H197 H 0.49327 0.35545 0.83796 0.0
C198 C 0.54916 0.86692 0.46604 0.0
C199 C 0.5479 0.86238 0.40644 0.0
N200 N 0.56314 0.86678 0.38584 0.0
N201 N 0.5652 0.87458 0.48365 0.0
C202 C 0.57334 0.87363 0.43411 0.0
H203 H 0.53892 0.86492 0.4947 0.0
Co204 Co 0.57144 0.88243 0.5646 0.0
C205 C 0.59864 0.91257 0.49349 0.0
O206 O 0.59305 0.90704 0.4391 0.0
N207 N 0.57697 0.88944 0.64568 0.0
C208 C 0.58457 0.9054 0.72764 0.0
C209 C 0.58228 0.90494 0.66618 0.0
C210 C 0.57585 0.8806 0.69605 0.0
N211 N 0.58054 0.89009 0.7467 0.0
O212 O 0.58448 0.87172 0.5694 0.0
H213 H 0.58379 0.91516 0.63847 0.0
H214 H 0.57159 0.86745 0.69564 0.0
O215 O 0.59104 0.9038 0.53989 0.0
C216 C 0.57524 0.85604 0.57442 0.0
O217 O 0.55906 0.84973 0.57326 0.0
N218 N 0.5576 0.89188 0.5619 0.0
C219 C 0.53244 0.89971 0.55198 0.0
C220 C 0.54595 0.9066 0.51211 0.0
C221 C 0.55846 0.9026 0.518 0.0
C222 C 0.54478 0.88545 0.6022 0.0
C223 C 0.53216 0.88939 0.59856 0.0
H224 H 0.56812 0.90722 0.48456 0.0
H225 H 0.54391 0.87659 0.63569 0.0
H226 H 0.5865 0.87794 0.43317 0.0
H227 H 0.53666 0.85682 0.37963 0.0
H228 H 0.58832 0.91609 0.75642 0.0
H229 H 0.5465 0.91455 0.47532 0.0
H230 H 0.5218 0.88364 0.62964 0.0
C231 C 0.68288 0.5426 0.85884 0.0
C232 C 0.68207 0.54035 0.79741 0.0
N233 N 0.68298 0.5538 0.77064 0.0
N234 N 0.68436 0.55742 0.87125 0.0
C235 C 0.68443 0.56402 0.81677 0.0
H236 H 0.68251 0.53401 0.89255 0.0
Co237 Co 0.68619 0.56543 0.94936 0.0
C238 C 0.67036 0.58577 0.94924 0.0
O239 O 0.66328 0.57805 0.99981 0.0
N240 N 0.68884 0.57379 0.02926 0.0
C241 C 0.69895 0.59284 0.10222 0.0
C242 C 0.69837 0.59017 0.04115 0.0
C243 C 0.68396 0.56676 0.08468 0.0
N244 N 0.68987 0.5781 0.12978 0.0
O245 O 0.70955 0.58036 0.93619 0.0
H246 H 0.70468 0.59968 1.00726 0.0
H247 H 0.67629 0.55365 0.09255 0.0
O248 O 0.6804 0.58229 0.92192 0.0
C249 C 0.71745 0.57267 0.94553 0.0
O250 O 0.70904 0.55699 0.96156 0.0
N251 N 0.66357 0.54922 0.96119 0.0
C252 C 0.632 0.52066 0.96388 0.0
C253 C 0.6353 0.53412 0.92631 0.0
C254 C 0.65116 0.54809 0.92483 0.0
C255 C 0.66079 0.53598 0.9959 0.0
C256 C 0.64504 0.52185 0.99949 0.0
H257 H 0.65364 0.55746 0.89127 0.0
H258 H 0.67107 0.53592 0.01829 0.0
H259 H 0.68543 0.57601 0.81129 0.0
H260 H 0.68118 0.52967 0.77456 0.0
H261 H 0.70594 0.60473 0.12454 0.0
H262 H 0.62601 0.53355 0.89544 0.0
H263 H 0.64334 0.51175 0.02848 0.0
C264 C 0.13747 0.67687 0.17841 0.0
C265 C 0.13886 0.6762 0.11691 0.0
N266 N 0.12909 0.68125 0.09051 0.0
N267 N 0.12673 0.68213 0.19121 0.0
C268 C 0.12185 0.68478 0.13686 0.0
H269 H 0.14386 0.67367 0.21186 0.0
Co270 Co 0.12133 0.68499 0.26946 0.0
C271 C 0.08545 0.67252 0.27052 0.0
O272 O 0.08536 0.66559 0.32239 0.0
N273 N 0.11649 0.68862 0.3493 0.0
C274 C 0.10905 0.70008 0.42234 0.0
C275 C 0.11088 0.69921 0.36122 0.0
C276 C 0.11834 0.68354 0.40473 0.0
N277 N 0.11374 0.69022 0.44974 0.0
O278 O 0.13158 0.70857 0.25559 0.0
H279 H 0.10827 0.70595 0.3273 0.0
H280 H 0.12293 0.67515 0.41274 0.0
O281 O 0.09924 0.68103 0.24212 0.0
C282 C 0.14732 0.71564 0.2604 0.0
O283 O 0.15403 0.70637 0.27053 0.0
N284 N 0.11292 0.66199 0.28249 0.0
C285 C 0.10748 0.6295 0.28355 0.0
C286 C 0.09752 0.63364 0.24852 0.0
C287 C 0.10065 0.64995 0.24764 0.0
C288 C 0.1229 0.65823 0.31594 0.0
C289 C 0.12017 0.64205 0.3183 0.0
H290 H 0.09399 0.65304 0.21512 0.0
H291 H 0.13383 0.66806 0.33743 0.0
H292 H 0.11338 0.68945 0.1316 0.0
H293 H 0.14638 0.67208 0.09371 0.0
H294 H 0.10497 0.70773 0.44493 0.0
H295 H 0.0881 0.62463 0.21868 0.0
H296 H 0.12841 0.63959 0.34521 0.0
C297 C 0.4506 0.14175 0.48117 0.0
C298 C 0.4516 0.14449 0.41999 0.0
N299 N 0.43877 0.13133 0.39315 0.0
N300 N 0.4371 0.12699 0.49363 0.0
C301 C 0.43008 0.1209 0.439 0.0
H302 H 0.45953 0.14978 0.51437 0.0
Co303 Co 0.43252 0.11797 0.57161 0.0
C304 C 0.39912 0.08914 0.56147 0.0
O305 O 0.39446 0.09544 0.60525 0.0
N306 N 0.42835 0.10901 0.65037 0.0
C307 C 0.42394 0.09156 0.72608 0.0
C308 C 0.42528 0.09362 0.66451 0.0
C309 C 0.42881 0.11608 0.70442 0.0
N310 N 0.42619 0.10569 0.75128 0.0
O311 O 0.41849 0.12741 0.58528 0.0
H312 H 0.42433 0.0845 0.63203 0.0
H313 H 0.43156 0.12875 0.70964 0.0
O314 O 0.414 0.09722 0.5417 0.0
C315 C 0.42725 0.14256 0.60103 0.0
O316 O 0.44321 0.14864 0.60999 0.0
N317 N 0.4475 0.11049 0.55874 0.0
C318 C 0.4746 0.10635 0.53436 0.0
C319 C 0.45939 0.0966 0.50467 0.0
C320 C 0.44596 0.09896 0.51714 0.0
C321 C 0.46196 0.11962 0.58944 0.0
C322 C 0.47564 0.11772 0.57817 0.0
H323 H 0.43466 0.09209 0.49142 0.0
H324 H 0.46305 0.12892 0.62131 0.0
H325 H 0.4193 0.10876 0.43265 0.0
H326 H 0.46125 0.15529 0.39707 0.0
H327 H 0.42155 0.0805 0.75046 0.0
H328 H 0.45813 0.08781 0.47007 0.0
H329 H 0.48706 0.12537 0.60263 0.0
C330 C 0.31672 0.45648 0.84493 0.0
C331 C 0.31797 0.45924 0.78371 0.0
N332 N 0.31947 0.4471 0.75649 0.0
N333 N 0.31735 0.44265 0.85669 0.0
C334 C 0.319 0.43714 0.802 0.0
H335 H 0.31543 0.46409 0.87897 0.0
Co336 Co 0.31627 0.43497 0.93487 0.0
C337 C 0.32686 0.41004 0.93132 0.0
O338 O 0.33496 0.4166 0.98175 0.0
N339 N 0.31445 0.4272 0.01546 0.0
C340 C 0.30399 0.4094 0.09228 0.0
C341 C 0.30366 0.4113 0.03099 0.0
C342 C 0.32094 0.4348 0.06899 0.0
N343 N 0.31486 0.42419 0.11635 0.0
O344 O 0.29239 0.4221 0.92843 0.0
H345 H 0.29582 0.40164 0.99951 0.0
H346 H 0.32978 0.44783 0.07379 0.0
O347 O 0.31884 0.41621 0.90531 0.0
C348 C 0.28636 0.43023 0.95383 0.0
O349 O 0.29678 0.44483 0.97679 0.0
N350 N 0.33944 0.44922 0.94075 0.0
C351 C 0.37177 0.47634 0.93269 0.0
C352 C 0.36729 0.4615 0.90197 0.0
C353 C 0.35099 0.44822 0.90556 0.0
C354 C 0.3436 0.46358 0.97062 0.0
C355 C 0.35971 0.47713 0.96826 0.0
H356 H 0.34753 0.43773 0.8763 0.0
H357 H 0.33407 0.46491 0.99349 0.0
H358 H 0.3201 0.42622 0.79579 0.0
H359 H 0.31754 0.46932 0.76115 0.0
H360 H 0.29635 0.3981 0.11734 0.0
H361 H 0.37598 0.46053 0.87212 0.0
H362 H 0.36249 0.48836 0.99231 0.0
C363 C 0.8592 0.30868 0.20946 0.0
C364 C 0.85673 0.30646 0.14805 0.0
N365 N 0.8716 0.31229 0.12109 0.0
N366 N 0.87554 0.31573 0.22157 0.0
C367 C 0.88279 0.31784 0.16666 0.0
H368 H 0.84966 0.30561 0.243 0.0
Co369 Co 0.88486 0.32153 0.29902 0.0
C370 C 0.91449 0.31801 0.28731 0.0
O371 O 0.9092 0.3075 0.33272 0.0
N372 N 0.89423 0.32759 0.37737 0.0
C373 C 0.91233 0.34113 0.45095 0.0
C374 C 0.90991 0.33963 0.38951 0.0
C375 C 0.88731 0.32215 0.43264 0.0
N376 N 0.89808 0.33015 0.47839 0.0
O377 O 0.87625 0.29828 0.31643 0.0
H378 H 0.91905 0.34701 0.3557 0.0
H379 H 0.87451 0.31281 0.43953 0.0
O380 O 0.9057 0.3241 0.26867 0.0
C381 C 0.86193 0.29132 0.34102 0.0
O382 O 0.85515 0.3004 0.3535 0.0
N383 N 0.89171 0.34377 0.28266 0.0
C384 C 0.89675 0.37546 0.25901 0.0
C385 C 0.90644 0.36979 0.23022 0.0
C386 C 0.9037 0.35386 0.24258 0.0
C387 C 0.8824 0.34914 0.31182 0.0
C388 C 0.88478 0.36495 0.30104 0.0
H389 H 0.91091 0.34957 0.2185 0.0
H390 H 0.87285 0.34093 0.34302 0.0
H391 H 0.89602 0.32338 0.15998 0.0
H392 H 0.84494 0.30141 0.12492 0.0
H393 H 0.92381 0.34967 0.47337 0.0
H394 H 0.91567 0.37735 0.19685 0.0
H395 H 0.87717 0.36882 0.32513 0.0
H396 H 0.06138 0.37435 0.05291 0.0
H397 H 0.03217 0.35884 0.08223 0.0
H398 H 0.04298 0.38984 0.23991 0.0
H399 H 0.07213 0.40571 0.20989 0.0
H400 H 0.01455 0.34051 0.17294 0.0
H401 H 0.01139 0.39664 0.26905 0.0
H402 H 0.02614 0.42708 0.25719 0.0
H403 H 0.03981 0.42242 0.07598 0.0
H404 H 0.02493 0.39196 0.0864 0.0
H405 H 0.93903 0.31309 0.33293 0.0
H406 H 0.9679 0.32602 0.30018 0.0
H407 H 0.95785 0.35097 0.15614 0.0
H408 H 0.92899 0.33828 0.18931 0.0
H409 H 0.98549 0.37208 0.20975 0.0
H410 H 0.96386 0.31759 0.12912 0.0
H411 H 0.94908 0.28701 0.13058 0.0
H412 H 0.9838 0.28799 0.26052 0.0
H413 H 0.99867 0.31859 0.26044 0.0
C414 C 0.05759 0.37778 0.09418 0.0
C415 C 0.06909 0.39141 0.12868 0.0
C416 C 0.04085 0.36887 0.11095 0.0
C417 C 0.03525 0.37333 0.16269 0.0
C418 C 0.04689 0.38637 0.19899 0.0
C419 C 0.06359 0.39541 0.1819 0.0
C420 C 0.01717 0.36481 0.17713 0.0
C421 C 0.00821 0.34742 0.18116 0.0
C422 C 0.00873 0.37375 0.18636 0.0
C423 C 0.01717 0.39203 0.17878 0.0
C424 C 0.01744 0.40211 0.22654 0.0
C425 C 0.02585 0.41937 0.22009 0.0
C426 C 0.03396 0.42668 0.16595 0.0
C427 C 0.03357 0.41674 0.11796 0.0
C428 C 0.02515 0.39948 0.12411 0.0
C429 C 0.94288 0.32118 0.29385 0.0
C430 C 0.93164 0.32465 0.26387 0.0
C431 C 0.95944 0.32857 0.27507 0.0
C432 C 0.96511 0.33943 0.22537 0.0
C433 C 0.95384 0.3427 0.19474 0.0
C434 C 0.93729 0.33538 0.21368 0.0
C435 C 0.98289 0.34777 0.20657 0.0
C436 C 0.9918 0.36515 0.20168 0.0
C437 C 0.99118 0.33878 0.19504 0.0
C438 C 0.98228 0.32039 0.19518 0.0
C439 C 0.96827 0.31129 0.15835 0.0
C440 C 0.95989 0.29395 0.15887 0.0
C441 C 0.96547 0.28557 0.19573 0.0
C442 C 0.97947 0.29451 0.23204 0.0
C443 C 0.98789 0.31185 0.23173 0.0
H444 H 0.95896 0.27214 0.19606 0.0
H445 H 0.04052 0.44004 0.16115 0.0
H446 H 0.68493 0.07566 0.49089 0.0
H447 H 0.6779 0.04787 0.52765 0.0
H448 H 0.63081 0.02673 0.43564 0.0
H449 H 0.6376 0.05399 0.39963 0.0
H450 H 0.62687 0.01263 0.54387 0.0
H451 H 0.66428 0.02697 0.37135 0.0
H452 H 0.69087 0.04402 0.31837 0.0
H453 H 0.7166 0.03465 0.46015 0.0
H454 H 0.69015 0.0177 0.51431 0.0
H455 H 0.61587 0.9348 0.404 0.0
H456 H 0.63251 0.96484 0.41254 0.0
H457 H 0.62729 0.96112 0.60642 0.0
H458 H 0.61073 0.93086 0.59836 0.0
H459 H 0.6608 0.98882 0.46963 0.0
H460 H 0.61755 0.991 0.64818 0.0
H461 H 0.58954 0.97284 0.69 0.0
H462 H 0.57327 0.9481 0.51892 0.0
H463 H 0.60108 0.96629 0.47591 0.0
C464 C 0.67302 0.06507 0.47929 0.0
C465 C 0.66192 0.06702 0.44179 0.0
C466 C 0.66903 0.04921 0.50015 0.0
C467 C 0.65383 0.03516 0.48417 0.0
C468 C 0.64256 0.03732 0.44885 0.0
C469 C 0.64656 0.05297 0.42782 0.0
C470 C 0.64969 0.01796 0.50001 0.0
C471 C 0.63449 0.00753 0.52882 0.0
C472 C 0.65946 0.01116 0.47981 0.0
C473 C 0.67531 0.02127 0.4472 0.0
C474 C 0.67563 0.02866 0.3914 0.0
C475 C 0.69067 0.03828 0.36114 0.0
C476 C 0.70542 0.04047 0.38598 0.0
C477 C 0.70517 0.03299 0.44105 0.0
C478 C 0.69016 0.02337 0.47154 0.0
C479 C 0.6185 0.94026 0.44871 0.0
C480 C 0.61147 0.93037 0.50043 0.0
C481 C 0.62814 0.9575 0.45348 0.0
C482 C 0.63093 0.96527 0.50999 0.0
C483 C 0.62511 0.95539 0.56223 0.0
C484 C 0.61553 0.93808 0.5575 0.0
C485 C 0.63792 0.98354 0.51265 0.0
C486 C 0.65354 0.99409 0.48698 0.0
C487 C 0.62837 0.99042 0.53449 0.0
C488 C 0.61144 0.97986 0.55917 0.0
C489 C 0.60796 0.98174 0.61948 0.0
C490 C 0.59212 0.97144 0.64336 0.0
C491 C 0.57965 0.95928 0.6072 0.0
C492 C 0.58295 0.95748 0.54693 0.0
C493 C 0.59874 0.96779 0.52278 0.0
H494 H 0.56743 0.95128 0.62585 0.0
H495 H 0.71705 0.04792 0.36248 0.0
H496 H 0.68695 0.61175 0.86867 0.0
H497 H 0.67782 0.63102 0.83287 0.0
H498 H 0.63234 0.60365 0.93382 0.0
H499 H 0.64129 0.58475 0.96951 0.0
H500 H 0.62668 0.61218 0.8217 0.0
H501 H 0.66418 0.63767 0.99309 0.0
H502 H 0.69124 0.64913 0.04439 0.0
H503 H 0.71444 0.68457 0.90124 0.0
H504 H 0.68752 0.67315 0.84873 0.0
H505 H 0.60942 0.67473 0.96258 0.0
H506 H 0.6277 0.66316 0.95377 0.0
H507 H 0.62307 0.66221 0.75973 0.0
H508 H 0.60486 0.67405 0.76805 0.0
H509 H 0.65717 0.67026 0.89566 0.0
H510 H 0.61622 0.62334 0.71713 0.0
H511 H 0.58801 0.61152 0.67469 0.0
H512 H 0.57004 0.61798 0.84548 0.0
H513 H 0.59806 0.62954 0.8891 0.0
C514 C 0.67495 0.60982 0.88252 0.0
C515 C 0.66493 0.59686 0.92243 0.0
C516 C 0.66976 0.62081 0.86218 0.0
C517 C 0.65439 0.61878 0.8808 0.0
C518 C 0.6442 0.60545 0.91861 0.0
C519 C 0.64942 0.59471 0.93941 0.0
C520 C 0.64899 0.63089 0.86501 0.0
C521 C 0.63354 0.62499 0.83661 0.0
C522 C 0.65779 0.64756 0.88501 0.0
C523 C 0.67391 0.65443 0.91665 0.0
C524 C 0.67508 0.64782 0.97235 0.0
C525 C 0.69038 0.65432 1.00167 0.0
C526 C 0.70456 0.66753 0.97598 0.0
C527 C 0.70346 0.6743 0.921 0.0
C528 C 0.68819 0.66783 0.89144 0.0
C529 C 0.61251 0.67238 0.91784 0.0
C530 C 0.60528 0.67493 0.86607 0.0
C531 C 0.62308 0.66586 0.9129 0.0
C532 C 0.62659 0.66161 0.85618 0.0
C533 C 0.62041 0.66526 0.80403 0.0
C534 C 0.60992 0.67196 0.80891 0.0
C535 C 0.63481 0.65146 0.85308 0.0
C536 C 0.65066 0.65767 0.87835 0.0
C537 C 0.62627 0.63498 0.83107 0.0
C538 C 0.60926 0.62748 0.80603 0.0
C539 C 0.60622 0.62215 0.74563 0.0
C540 C 0.59027 0.6155 0.7214 0.0
C541 C 0.57726 0.61406 0.7573 0.0
C542 C 0.58014 0.61914 0.81766 0.0
C543 C 0.59604 0.62573 0.84215 0.0
H544 H 0.56494 0.60897 0.7384 0.0
H545 H 0.7164 0.67255 0.99876 0.0
H546 H 0.07852 0.67821 0.15405 0.0
H547 H 0.05086 0.66844 0.10988 0.0
H548 H 0.02828 0.64756 0.28194 0.0
H549 H 0.05547 0.65722 0.326 0.0
H550 H 0.01435 0.62517 0.18905 0.0
H551 H 0.03022 0.68242 0.23184 0.0
H552 H 0.04818 0.71273 0.2224 0.0
H553 H 0.04066 0.70922 0.03026 0.0
H554 H 0.02281 0.67884 0.0385 0.0
H555 H 0.93084 0.60146 0.16512 0.0
H556 H 0.95989 0.61614 0.19643 0.0
H557 H 0.97422 0.63913 0.02068 0.0
H558 H 0.94506 0.62499 0.98998 0.0
H559 H 0.99351 0.66045 0.1027 0.0
H560 H 0.97637 0.60407 0.05776 0.0
H561 H 0.95813 0.57373 0.06404 0.0
H562 H 0.96869 0.57506 0.2535 0.0
H563 H 0.98674 0.60547 0.24867 0.0
C564 C 0.06765 0.67175 0.18252 0.0
C565 C 0.06924 0.66843 0.24348 0.0
C566 C 0.05186 0.66614 0.15725 0.0
C567 C 0.03747 0.65716 0.19258 0.0
C568 C 0.03915 0.65431 0.25365 0.0
C569 C 0.05479 0.65991 0.2788 0.0
C570 C 0.02052 0.65011 0.16665 0.0
C571 C 0.00976 0.6329 0.17051 0.0
C572 C 0.01468 0.66011 0.14057 0.0
C573 C 0.02535 0.67835 0.1357 0.0
C574 C 0.03251 0.6881 0.18752 0.0
C575 C 0.04265 0.70529 0.1824 0.0
C576 C 0.04561 0.71289 0.12574 0.0
C577 C 0.03839 0.70332 0.0741 0.0
C578 C 0.02826 0.68611 0.07897 0.0
C579 C 0.94015 0.60982 0.13343 0.0
C580 C 0.93565 0.61195 0.07492 0.0
C581 C 0.95679 0.61815 0.15123 0.0
C582 C 0.96935 0.62843 0.11039 0.0
C583 C 0.96481 0.63121 0.05293 0.0
C584 C 0.94811 0.6231 0.03543 0.0
C585 C 0.98718 0.63553 0.12678 0.0
C586 C 0.99811 0.65269 0.12076 0.0
C587 C 0.99329 0.62545 0.15018 0.0
C588 C 0.98283 0.60708 0.15292 0.0
C589 C 0.97476 0.59791 0.10083 0.0
C590 C 0.96443 0.5807 0.10414 0.0
C591 C 0.96224 0.57248 0.15914 0.0
C592 C 0.9704 0.58145 0.21092 0.0
C593 C 0.98068 0.59867 0.20793 0.0
H594 H 0.95424 0.55916 0.16161 0.0
H595 H 0.05345 0.72621 0.12187 0.0
H596 H 0.37068 0.06573 0.61674 0.0
H597 H 0.35465 0.03606 0.59461 0.0
H598 H 0.38667 0.04293 0.44336 0.0
H599 H 0.40292 0.07269 0.46546 0.0
H600 H 0.35199 0.02039 0.42073 0.0
H601 H 0.39438 0.0309 0.5691 0.0
H602 H 0.40903 0.04209 0.66555 0.0
H603 H 0.36404 0.01118 0.76336 0.0
H604 H 0.34903 1.00005 0.66731 0.0
H605 H 0.35294 0.94691 0.37122 0.0
H606 H 0.35659 0.97425 0.39001 0.0
H607 H 0.32629 0.95574 0.55027 0.0
H608 H 0.32277 0.92802 0.53141 0.0
H609 H 0.35491 0.98322 0.57485 0.0
H610 H 0.31336 0.96937 0.42689 0.0
H611 H 0.29849 0.95844 0.33068 0.0
H612 H 0.34079 0.99521 0.23259 0.0
H613 H 0.35603 0.00622 0.32813 0.0
C614 C 0.37419 0.06102 0.57814 0.0
C615 C 0.38818 0.0716 0.54308 0.0
C616 C 0.36501 0.04402 0.56569 0.0
C617 C 0.36954 0.03726 0.51766 0.0
C618 C 0.38296 0.0479 0.48066 0.0
C619 C 0.39228 0.06489 0.49349 0.0
C620 C 0.36107 0.019 0.50861 0.0
C621 C 0.35266 0.01223 0.45419 0.0
C622 C 0.36146 0.00832 0.55327 0.0
C623 C 0.37053 0.01479 0.61102 0.0
C624 C 0.38757 0.02659 0.61115 0.0
C625 C 0.39595 0.03291 0.66574 0.0
C626 C 0.38746 0.02738 0.72055 0.0
C627 C 0.37059 0.01548 0.72086 0.0
C628 C 0.36214 0.00916 0.66636 0.0
C629 C 0.34664 0.94854 0.40951 0.0
C630 C 0.33744 0.93536 0.44956 0.0
C631 C 0.34869 0.9642 0.42017 0.0
C632 C 0.3416 0.96712 0.47126 0.0
C633 C 0.3318 0.95377 0.51031 0.0
C634 C 0.32964 0.93793 0.49931 0.0
C635 C 0.34605 0.98449 0.48613 0.0
C636 C 0.35383 0.99121 0.5417 0.0
C637 C 0.34499 0.9951 0.44256 0.0
C638 C 0.33587 0.98858 0.3848 0.0
C639 C 0.31954 0.97506 0.38481 0.0
C640 C 0.31104 0.96886 0.33036 0.0
C641 C 0.31869 0.97611 0.27556 0.0
C642 C 0.33487 0.9896 0.27509 0.0
C643 C 0.34344 0.99585 0.3294 0.0
H644 H 0.31209 0.97129 0.23346 0.0
H645 H 0.39396 0.03229 0.76277 0.0
H646 H 0.32438 0.38318 0.98706 0.0
H647 H 0.3341 0.36486 0.94962 0.0
H648 H 0.34538 0.38977 0.77703 0.0
H649 H 0.33484 0.40768 0.81391 0.0
H650 H 0.3361 0.35765 0.76183 0.0
H651 H 0.37487 0.40187 0.88982 0.0
H652 H 0.38395 0.41879 0.98265 0.0
H653 H 0.37423 0.37586 0.08633 0.0
H654 H 0.36486 0.35863 0.99418 0.0
H655 H 0.40487 0.34987 0.67256 0.0
H656 H 0.38469 0.35785 0.70216 0.0
H657 H 0.37566 0.33059 0.86883 0.0
H658 H 0.39628 0.32276 0.83978 0.0
H659 H 0.38163 0.36128 0.88938 0.0
H660 H 0.34582 0.31774 0.75507 0.0
H661 H 0.33777 0.30191 0.65974 0.0
H662 H 0.34326 0.34457 0.56472 0.0
H663 H 0.35157 0.36074 0.65932 0.0
C664 C 0.32845 0.38437 0.94051 0.0
C665 C 0.32891 0.39682 0.90334 0.0
C666 C 0.33413 0.374 0.91927 0.0
C667 C 0.34097 0.37624 0.86109 0.0
C668 C 0.34028 0.38786 0.82223 0.0
C669 C 0.33421 0.39805 0.84317 0.0
C670 C 0.35023 0.36768 0.84338 0.0
C671 C 0.34613 0.35852 0.78946 0.0
C672 C 0.36317 0.36856 0.87991 0.0
C673 C 0.36901 0.37894 0.93523 0.0
C674 C 0.37458 0.39603 0.93248 0.0
C675 C 0.37978 0.40567 0.98496 0.0
C676 C 0.37963 0.39839 0.04038 0.0
C677 C 0.37432 0.38147 0.04339 0.0
C678 C 0.36907 0.37176 0.99105 0.0
C679 C 0.39845 0.34534 0.71522 0.0
C680 C 0.40226 0.33572 0.75393 0.0
C681 C 0.38677 0.34983 0.73189 0.0
C682 C 0.37848 0.34471 0.78749 0.0
C683 C 0.38185 0.33464 0.82555 0.0
C684 C 0.39357 0.3301 0.8088 0.0
C685 C 0.36752 0.35119 0.80775 0.0
C686 C 0.37142 0.36012 0.86211 0.0
C687 C 0.35455 0.35022 0.77122 0.0
C688 C 0.34942 0.34049 0.7143 0.0
C689 C 0.34542 0.32378 0.71379 0.0
C690 C 0.34079 0.31474 0.65988 0.0
C691 C 0.34003 0.32224 0.60619 0.0
C692 C 0.34386 0.33878 0.60634 0.0
C693 C 0.3485 0.34788 0.66012 0.0
H694 H 0.33646 0.31522 0.5645 0.0
H695 H 0.38366 0.40587 0.08098 0.0
H696 H 0.08623 0.43569 0.82899 0.0
H697 H 0.09066 0.43533 0.72085 0.0
H698 H 0.13251 0.42864 0.75436 0.0
H699 H 0.12794 0.42853 0.86336 0.0
H700 H 0.13866 0.45274 0.66605 0.0
H701 H 0.09721 0.39635 0.709 0.0
H702 H 0.0708 0.37421 0.75095 0.0
H703 H 0.04378 0.38999 0.63812 0.0
H704 H 0.07005 0.41239 0.5961 0.0
H705 H 0.14846 0.43632 0.36204 0.0
H706 H 0.1442 0.43383 0.47142 0.0
H707 H 0.09739 0.4322 0.44848 0.0
H708 H 0.10144 0.43415 0.33857 0.0
H709 H 0.09415 0.41156 0.5331 0.0
H710 H 0.13435 0.46841 0.49374 0.0
H711 H 0.16019 0.49164 0.45271 0.0
H712 H 0.1889 0.47653 0.55907 0.0
H713 H 0.1632 0.45307 0.60017 0.0
C714 C 0.09627 0.43392 0.81389 0.0
C715 C 0.10659 0.43196 0.85563 0.0
C716 C 0.09882 0.43379 0.75169 0.0
C717 C 0.11178 0.43175 0.72938 0.0
C718 C 0.12239 0.43019 0.77057 0.0
C719 C 0.11978 0.4302 0.83303 0.0
C720 C 0.11417 0.43133 0.66299 0.0
C721 C 0.12905 0.44357 0.63703 0.0
C722 C 0.10143 0.41968 0.62492 0.0
C723 C 0.08561 0.40613 0.64977 0.0
C724 C 0.08564 0.39518 0.69345 0.0
C725 C 0.0707 0.38257 0.71719 0.0
C726 C 0.05563 0.38072 0.69731 0.0
C727 C 0.05547 0.39145 0.65351 0.0
C728 C 0.07038 0.40409 0.62967 0.0
C729 C 0.13724 0.43537 0.3804 0.0
C730 C 0.12534 0.43555 0.34181 0.0
C731 C 0.13483 0.43402 0.44299 0.0
C732 C 0.12065 0.43323 0.46869 0.0
C733 C 0.10848 0.43286 0.43 0.0
C734 C 0.11077 0.43394 0.36716 0.0
C735 C 0.11866 0.43304 0.53575 0.0
C736 C 0.10383 0.4207 0.56196 0.0
C737 C 0.13137 0.44476 0.57401 0.0
C738 C 0.14685 0.45889 0.54955 0.0
C739 C 0.14617 0.46997 0.50805 0.0
C740 C 0.16079 0.48319 0.48484 0.0
C741 C 0.17618 0.48554 0.50314 0.0
C742 C 0.17697 0.47469 0.54486 0.0
C743 C 0.16238 0.46144 0.56817 0.0
H744 H 0.18748 0.49578 0.48512 0.0
H745 H 0.04407 0.37095 0.71575 0.0
H746 H 0.69328 0.1545 0.67065 0.0
H747 H 0.69213 0.15022 0.77927 0.0
H748 H 0.67405 0.09809 0.7514 0.0
H749 H 0.67435 0.10211 0.64213 0.0
H750 H 0.65712 0.10193 0.83886 0.0
H751 H 0.71474 0.12544 0.79451 0.0
H752 H 0.74198 0.14565 0.75194 0.0
H753 H 0.743 0.18414 0.86183 0.0
H754 H 0.71564 0.1642 0.90446 0.0
H755 H 0.67532 0.08587 0.13702 0.0
H756 H 0.67461 0.08958 0.02768 0.0
H757 H 0.68499 0.13968 0.05619 0.0
H758 H 0.68568 0.13599 0.16588 0.0
H759 H 0.7057 0.13672 0.9693 0.0
H760 H 0.64764 0.11206 0.0144 0.0
H761 H 0.62088 0.09099 0.05767 0.0
H762 H 0.6215 0.05351 0.94665 0.0
H763 H 0.64841 0.07432 0.90332 0.0
C764 C 0.68891 0.14207 0.68725 0.0
C765 C 0.68386 0.12865 0.64708 0.0
C766 C 0.68846 0.13967 0.74969 0.0
C767 C 0.68322 0.12387 0.77374 0.0
C768 C 0.6782 0.11043 0.73397 0.0
C769 C 0.67853 0.11279 0.67133 0.0
C770 C 0.68274 0.12139 0.84037 0.0
C771 C 0.66783 0.10939 0.8672 0.0
C772 C 0.6966 0.13132 0.87774 0.0
C773 C 0.71306 0.14335 0.85224 0.0
C774 C 0.72071 0.13824 0.80925 0.0
C775 C 0.73618 0.14964 0.78517 0.0
C776 C 0.74419 0.16617 0.80405 0.0
C777 C 0.73677 0.17133 0.84718 0.0
C778 C 0.72128 0.15998 0.87136 0.0
C779 C 0.67735 0.09763 0.11992 0.0
C780 C 0.68055 0.11064 0.15988 0.0
C781 C 0.67687 0.09972 0.05755 0.0
C782 C 0.6797 0.11489 0.03386 0.0
C783 C 0.68274 0.12786 0.07363 0.0
C784 C 0.683 0.12571 0.13619 0.0
C785 C 0.68011 0.11735 0.96746 0.0
C786 C 0.69502 0.12931 0.94077 0.0
C787 C 0.66633 0.10726 0.93023 0.0
C788 C 0.65012 0.09473 0.95604 0.0
C789 C 0.64214 0.0993 0.99959 0.0
C790 C 0.62693 0.08741 0.02405 0.0
C791 C 0.61951 0.07091 1.00503 0.0
C792 C 0.62727 0.06629 0.96139 0.0
C793 C 0.6425 0.07813 0.93682 0.0
H794 H 0.60774 0.06172 0.02402 0.0
H795 H 0.75617 0.17498 0.78536 0.0
H796 H 0.55534 0.69539 0.56676 0.0
H797 H 0.55416 0.70088 0.45878 0.0
H798 H 0.59399 0.69112 0.42317 0.0
H799 H 0.5954 0.68596 0.53057 0.0
H800 H 0.59751 0.71672 0.35483 0.0
H801 H 0.55353 0.6612 0.40148 0.0
H802 H 0.52863 0.64038 0.45594 0.0
H803 H 0.50165 0.66383 0.39451 0.0
H804 H 0.52648 0.68493 0.34032 0.0
H805 H 0.58509 0.69407 0.04137 0.0
H806 H 0.58961 0.69703 0.15096 0.0
H807 H 0.54618 0.70191 0.17166 0.0
H808 H 0.54148 0.69853 0.06259 0.0
H809 H 0.54437 0.68071 0.2492 0.0
H810 H 0.58766 0.73508 0.1953 0.0
H811 H 0.61254 0.75595 0.14093 0.0
H812 H 0.64083 0.73527 0.21521 0.0
H813 H 0.61605 0.71414 0.26943 0.0
C814 C 0.56401 0.69468 0.53605 0.0
C815 C 0.57531 0.69 0.55735 0.0
C816 C 0.56325 0.6977 0.47418 0.0
C817 C 0.57381 0.69616 0.43235 0.0
C818 C 0.58565 0.69233 0.45415 0.0
C819 C 0.58634 0.68923 0.51569 0.0
C820 C 0.57203 0.69755 0.36566 0.0
C821 C 0.58592 0.70879 0.33164 0.0
C822 C 0.55685 0.68746 0.33519 0.0
C823 C 0.5419 0.67474 0.36744 0.0
C824 C 0.54232 0.66198 0.39997 0.0
C825 C 0.52822 0.65012 0.43073 0.0
C826 C 0.51358 0.65081 0.42884 0.0
C827 C 0.513 0.66333 0.39603 0.0
C828 C 0.52708 0.67524 0.36527 0.0
C829 C 0.57677 0.69619 0.0692 0.0
C830 C 0.56292 0.69605 0.04324 0.0
C831 C 0.57933 0.69787 0.13205 0.0
C832 C 0.56827 0.69975 0.17025 0.0
C833 C 0.55487 0.70036 0.14374 0.0
C834 C 0.55221 0.69849 0.08122 0.0
C835 C 0.56988 0.69991 0.23781 0.0
C836 C 0.55595 0.68886 0.27213 0.0
C837 C 0.58502 0.71022 0.26842 0.0
C838 C 0.59995 0.72293 0.23601 0.0
C839 C 0.59915 0.73491 0.19969 0.0
C840 C 0.61324 0.7468 0.16896 0.0
C841 C 0.62824 0.74691 0.1745 0.0
C842 C 0.62919 0.73516 0.21092 0.0
C843 C 0.61514 0.72323 0.24171 0.0
H844 H 0.63914 0.75613 0.15067 0.0
H845 H 0.50267 0.64162 0.45267 0.0
H846 H 0.91537 0.56162 0.78593 0.0
H847 H 0.91159 0.56199 0.67696 0.0
H848 H 0.87626 0.57838 0.70533 0.0
H849 H 0.88006 0.57815 0.81469 0.0
H850 H 0.86547 0.55434 0.62047 0.0
H851 H 0.91602 0.60546 0.65908 0.0
H852 H 0.94433 0.6228 0.69914 0.0
H853 H 0.96167 0.59684 0.58777 0.0
H854 H 0.9334 0.57919 0.54765 0.0
H855 H 0.86114 0.57599 0.31812 0.0
H856 H 0.86579 0.57718 0.42718 0.0
H857 H 0.90415 0.56476 0.39966 0.0
H858 H 0.89982 0.56406 0.2901 0.0
H859 H 0.91347 0.58692 0.48474 0.0
H860 H 0.86339 0.53549 0.44723 0.0
H861 H 0.83513 0.51747 0.40774 0.0
H862 H 0.81694 0.54298 0.51735 0.0
H863 H 0.84514 0.56132 0.55691 0.0
C864 C 0.9069 0.56545 0.76919 0.0
C865 C 0.89812 0.56997 0.80944 0.0
C866 C 0.90473 0.56563 0.70668 0.0
C867 C 0.89383 0.57045 0.68271 0.0
C868 C 0.88478 0.57464 0.72267 0.0
C869 C 0.88692 0.57445 0.78532 0.0
C870 C 0.89183 0.57103 0.61603 0.0
C871 C 0.87593 0.56165 0.59088 0.0
C872 C 0.90553 0.58021 0.57707 0.0
C873 C 0.92256 0.59091 0.60076 0.0
C874 C 0.92585 0.60337 0.64344 0.0
C875 C 0.94189 0.61327 0.66611 0.0
C876 C 0.95478 0.6109 0.64612 0.0
C877 C 0.95167 0.59865 0.60327 0.0
C878 C 0.93564 0.58871 0.5805 0.0
C879 C 0.87058 0.57353 0.33537 0.0
C880 C 0.88003 0.5698 0.29557 0.0
C881 C 0.8732 0.57415 0.3978 0.0
C882 C 0.88506 0.57066 0.42212 0.0
C883 C 0.89487 0.56743 0.38225 0.0
C884 C 0.89242 0.56706 0.3196 0.0
C885 C 0.88708 0.57021 0.48898 0.0
C886 C 0.90299 0.57961 0.51422 0.0
C887 C 0.87339 0.56095 0.52804 0.0
C888 C 0.85641 0.54987 0.50459 0.0
C889 C 0.85338 0.53733 0.4626 0.0
C890 C 0.83738 0.52705 0.44025 0.0
C891 C 0.82426 0.52911 0.45991 0.0
C892 C 0.82712 0.54142 0.50211 0.0
C893 C 0.84311 0.55175 0.52455 0.0
H894 H 0.81188 0.52114 0.44254 0.0
H895 H 0.96719 0.61856 0.66374 0.0
H896 H 0.33089 0.91725 0.13295 0.0
H897 H 0.32575 0.9116 0.02519 0.0
H898 H 0.30927 0.85996 0.05718 0.0
H899 H 0.31479 0.86567 0.16564 0.0
H900 H 0.33083 0.87197 0.96347 0.0
H901 H 0.28175 0.87233 0.02037 0.0
H902 H 0.26506 0.88305 0.06806 0.0
H903 H 0.28805 0.92607 0.95381 0.0
H904 H 0.30505 0.91572 0.90594 0.0
H905 H 0.30071 0.84604 0.66683 0.0
H906 H 0.30114 0.84982 0.77592 0.0
H907 H 0.32212 0.90247 0.75101 0.0
H908 H 0.32216 0.89887 0.64123 0.0
H909 H 0.2971 0.88891 0.84131 0.0
H910 H 0.34713 0.88893 0.78851 0.0
H911 H 0.36369 0.87803 0.74113 0.0
H912 H 0.33848 0.83383 0.8487 0.0
H913 H 0.32158 0.84437 0.89612 0.0
C914 C 0.32619 0.90468 0.11724 0.0
C915 C 0.32338 0.89194 0.15812 0.0
C916 C 0.32309 0.90143 0.05549 0.0
C917 C 0.31701 0.88533 0.03282 0.0
C918 C 0.31394 0.87249 0.07352 0.0
C919 C 0.31698 0.87573 0.13561 0.0
C920 C 0.31461 0.88219 0.96639 0.0
C921 C 0.3232 0.87539 0.93702 0.0
C922 C 0.30499 0.88704 0.93135 0.0
C923 C 0.29477 0.89331 0.9599 0.0
C924 C 0.28333 0.88414 1.00571 0.0
C925 C 0.2738 0.89013 0.03273 0.0
C926 C 0.27552 0.90524 0.01407 0.0
C927 C 0.28674 0.91437 0.96825 0.0
C928 C 0.29632 0.90844 0.9411 0.0
C929 C 0.30549 0.85847 0.68421 0.0
C930 C 0.31165 0.87218 0.64476 0.0
C931 C 0.30564 0.86058 0.74682 0.0
C932 C 0.31188 0.87645 0.77181 0.0
C933 C 0.31728 0.8901 0.73275 0.0
C934 C 0.31724 0.88801 0.66986 0.0
C935 C 0.31335 0.87874 0.83868 0.0
C936 C 0.30463 0.8854 0.86799 0.0
C937 C 0.32281 0.87373 0.87376 0.0
C938 C 0.33297 0.86737 0.84538 0.0
C939 C 0.34501 0.87682 0.80167 0.0
C940 C 0.35448 0.87072 0.77488 0.0
C941 C 0.35211 0.85522 0.79177 0.0
C942 C 0.34028 0.84582 0.83559 0.0
C943 C 0.33076 0.85186 0.86247 0.0
H944 H 0.35946 0.85053 0.771 0.0
H945 H 0.26813 0.90986 0.03505 0.0
H946 H 0.41216 0.28259 0.03358 0.0
H947 H 0.4127 0.2872 0.14235 0.0
H948 H 0.43994 0.34008 0.11291 0.0
H949 H 0.43976 0.33547 1.0036 0.0
H950 H 0.45434 0.3312 0.19887 0.0
H951 H 0.39912 0.31995 0.15978 0.0
H952 H 0.37062 0.30424 0.11982 0.0
H953 H 0.36104 0.26257 0.23094 0.0
H954 H 0.38957 0.27794 0.27097 0.0
H955 H 0.45255 0.35395 0.50021 0.0
H956 H 0.44731 0.34967 0.39186 0.0
H957 H 0.42034 0.29672 0.41956 0.0
H958 H 0.42552 0.301 0.52885 0.0
H959 H 0.40532 0.30581 0.33456 0.0
H960 H 0.46039 0.31619 0.37039 0.0
H961 H 0.48893 0.33136 0.41033 0.0
H962 H 0.49884 0.37401 0.30451 0.0
H963 H 0.47027 0.35916 0.26458 0.0
C964 C 0.41817 0.29521 0.05015 0.0
C965 C 0.42599 0.30866 0.00977 0.0
C966 C 0.41835 0.29784 0.11246 0.0
C967 C 0.42627 0.314 0.13612 0.0
C968 C 0.43371 0.32749 0.09583 0.0
C969 C 0.43348 0.32485 0.03327 0.0
C970 C 0.42769 0.31671 0.20292 0.0
C971 C 0.44358 0.3259 0.22835 0.0
C972 C 0.41372 0.30933 0.24187 0.0
C973 C 0.39654 0.30006 0.21797 0.0
C974 C 0.39098 0.30739 0.17534 0.0
C975 C 0.37481 0.29855 0.15275 0.0
C976 C 0.36404 0.2824 0.17272 0.0
C977 C 0.3694 0.27507 0.21546 0.0
C978 C 0.38557 0.28385 0.23817 0.0
C979 C 0.44549 0.34138 0.48336 0.0
C980 C 0.43965 0.32781 0.52318 0.0
C981 C 0.44249 0.33895 0.42128 0.0
C982 C 0.43373 0.32286 0.39714 0.0
C983 C 0.42721 0.30925 0.43699 0.0
C984 C 0.43014 0.3117 0.49946 0.0
C985 C 0.43196 0.32039 0.33027 0.0
C986 C 0.41605 0.31119 0.30494 0.0
C987 C 0.44592 0.32768 0.29126 0.0
C988 C 0.46314 0.33661 0.31495 0.0
C989 C 0.46862 0.32884 0.35598 0.0
C990 C 0.4848 0.33738 0.37857 0.0
C991 C 0.49567 0.35366 0.36009 0.0
C992 C 0.49039 0.36141 0.31885 0.0
C993 C 0.47421 0.35294 0.29619 0.0
H994 H 0.5082 0.36024 0.37763 0.0
H995 H 0.35152 0.27558 0.15518 0.0
H996 H 0.55988 0.86019 0.79914 0.0
H997 H 0.55823 0.85332 0.90711 0.0
H998 H 0.59931 0.90225 0.94354 0.0
H999 H 0.60115 0.90901 0.83615 0.0
H1000 H 0.60167 0.87926 0.0113 0.0
H1001 H 0.55947 0.89332 0.96512 0.0
H1002 H 0.53504 0.89041 0.91073 0.0
H1003 H 0.50617 0.83999 0.97151 0.0
H1004 H 0.53052 0.84254 0.02563 0.0
H1005 H 0.59027 0.8899 0.32496 0.0
H1006 H 0.59463 0.8914 0.21534 0.0
H1007 H 0.54966 0.84424 0.19447 0.0
H1008 H 0.54512 0.84302 0.30366 0.0
H1009 H 0.54903 0.8642 0.11702 0.0
H1010 H 0.59049 0.85053 0.17015 0.0
H1011 H 0.61486 0.85325 0.22431 0.0
H1012 H 0.64504 0.90213 0.15099 0.0
H1013 H 0.62079 0.89979 0.097 0.0
C1014 C 0.56871 0.86937 0.83004 0.0
C1015 C 0.58051 0.88523 0.80897 0.0
C1016 C 0.56769 0.86549 0.8919 0.0
C1017 C 0.5785 0.87735 0.93393 0.0
C1018 C 0.59078 0.89288 0.91238 0.0
C1019 C 0.59173 0.89679 0.85086 0.0
C1020 C 0.57656 0.87409 1.00057 0.0
C1021 C 0.59018 0.87605 0.03452 0.0
C1022 C 0.5615 0.86958 0.03105 0.0
C1023 C 0.54685 0.86806 0.99883 0.0
C1024 C 0.54794 0.88158 0.9665 0.0
C1025 C 0.53411 0.88 0.93579 0.0
C1026 C 0.51908 0.86501 0.93751 0.0
C1027 C 0.51783 0.85158 0.97012 0.0
C1028 C 0.53164 0.85309 1.00084 0.0
C1029 C 0.58155 0.87968 0.29709 0.0
C1030 C 0.56734 0.86634 0.3231 0.0
C1031 C 0.58403 0.88053 0.2342 0.0
C1032 C 0.57252 0.86789 0.19593 0.0
C1033 C 0.55871 0.85423 0.22243 0.0
C1034 C 0.55614 0.8535 0.28503 0.0
C1035 C 0.57417 0.86937 0.12834 0.0
C1036 C 0.56048 0.86718 0.09408 0.0
C1037 C 0.58916 0.8736 0.09768 0.0
C1038 C 0.60378 0.87503 0.12995 0.0
C1039 C 0.60229 0.8619 0.16593 0.0
C1040 C 0.61609 0.86337 0.19653 0.0
C1041 C 0.63148 0.87787 0.19121 0.0
C1042 C 0.63311 0.89091 0.15513 0.0
C1043 C 0.61935 0.88952 0.12445 0.0
H1044 H 0.64215 0.87898 0.21495 0.0
H1045 H 0.50838 0.86382 0.91371 0.0
H1046 H 0.67268 0.53071 0.68092 0.0
H1047 H 0.67354 0.53546 0.57273 0.0
H1048 H 0.69258 0.58758 0.60382 0.0
H1049 H 0.69238 0.58314 0.71277 0.0
H1050 H 0.66607 0.57243 0.51587 0.0
H1051 H 0.71891 0.57756 0.56063 0.0
H1052 H 0.73764 0.56878 0.60432 0.0
H1053 H 0.71494 0.52474 0.49523 0.0
H1054 H 0.6959 0.53315 0.45151 0.0
H1055 H 0.69218 0.59988 0.21599 0.0
H1056 H 0.69016 0.5957 0.32498 0.0
H1057 H 0.67982 0.54549 0.29975 0.0
H1058 H 0.68259 0.54982 0.19048 0.0
H1059 H 0.702 0.56006 0.38609 0.0
H1060 H 0.64921 0.55442 0.34074 0.0
H1061 H 0.62986 0.56247 0.2975 0.0
H1062 H 0.65143 0.60637 0.40734 0.0
H1063 H 0.67107 0.5987 0.45066 0.0
C1064 C 0.67726 0.54325 0.66536 0.0
C1065 C 0.68268 0.55656 0.70636 0.0
C1066 C 0.67762 0.54591 0.60318 0.0
C1067 C 0.68325 0.56188 0.58035 0.0
C1068 C 0.68819 0.57514 0.62071 0.0
C1069 C 0.68801 0.57254 0.68312 0.0
C1070 C 0.68425 0.56464 0.51418 0.0
C1071 C 0.67409 0.56998 0.48743 0.0
C1072 C 0.69439 0.56098 0.4772 0.0
C1073 C 0.70586 0.55591 0.50325 0.0
C1074 C 0.71781 0.56593 0.54636 0.0
C1075 C 0.7285 0.56104 0.57105 0.0
C1076 C 0.72745 0.54619 0.55269 0.0
C1077 C 0.71573 0.53623 0.50947 0.0
C1078 C 0.70499 0.54106 0.48468 0.0
C1079 C 0.68958 0.58796 0.23342 0.0
C1080 C 0.68763 0.57521 0.19414 0.0
C1081 C 0.68822 0.58553 0.29591 0.0
C1082 C 0.68465 0.57022 0.32066 0.0
C1083 C 0.68253 0.5574 0.28168 0.0
C1084 C 0.68397 0.55985 0.21908 0.0
C1085 C 0.68374 0.56781 0.38726 0.0
C1086 C 0.69394 0.56253 0.41426 0.0
C1087 C 0.67354 0.57143 0.42436 0.0
C1088 C 0.66172 0.57606 0.39852 0.0
C1089 C 0.64991 0.56586 0.35533 0.0
C1090 C 0.63888 0.57034 0.33086 0.0
C1091 C 0.63944 0.58494 0.34954 0.0
C1092 C 0.65102 0.59507 0.39286 0.0
C1093 C 0.6621 0.59066 0.41743 0.0
H1094 H 0.63088 0.58839 0.33055 0.0
H1095 H 0.73574 0.54242 0.57184 0.0
H1096 H 0.09318 0.69109 0.53394 0.0
H1097 H 0.09487 0.6889 0.64338 0.0
H1098 H 0.13707 0.68204 0.62113 0.0
H1099 H 0.13532 0.6841 0.51124 0.0
H1100 H 0.11668 0.66159 0.70564 0.0
H1101 H 0.14196 0.71963 0.66341 0.0
H1102 H 0.14379 0.7449 0.62023 0.0
H1103 H 0.10176 0.73702 0.72582 0.0
H1104 H 0.09953 0.71156 0.76904 0.0
H1105 H 0.14989 0.68328 1.00045 0.0
H1106 H 0.14571 0.6838 0.89223 0.0
H1107 H 0.0998 0.68322 0.92449 0.0
H1108 H 0.10355 0.68214 0.03361 0.0
H1109 H 0.12105 0.70694 0.83622 0.0
H1110 H 0.09707 0.64893 0.88116 0.0
H1111 H 0.09671 0.6244 0.92489 0.0
H1112 H 0.13824 0.63328 0.81416 0.0
H1113 H 0.13902 0.65802 0.77042 0.0
C1114 C 0.10285 0.68916 0.55235 0.0
C1115 C 0.11421 0.68792 0.51398 0.0
C1116 C 0.1038 0.68791 0.61492 0.0
C1117 C 0.11629 0.68561 0.64059 0.0
C1118 C 0.12736 0.68386 0.60234 0.0
C1119 C 0.12632 0.68499 0.53957 0.0
C1120 C 0.11792 0.6853 0.70732 0.0
C1121 C 0.11783 0.6716 0.73407 0.0
C1122 C 0.11911 0.69823 0.74463 0.0
C1123 C 0.12048 0.71359 0.71901 0.0
C1124 C 0.13303 0.72321 0.67709 0.0
C1125 C 0.13415 0.73758 0.65265 0.0
C1126 C 0.12287 0.74254 0.67015 0.0
C1127 C 0.11048 0.73315 0.71225 0.0
C1128 C 0.10929 0.71876 0.73677 0.0
C1129 C 0.13877 0.68305 0.98503 0.0
C1130 C 0.12696 0.68245 0.02631 0.0
C1131 C 0.13647 0.68345 0.92289 0.0
C1132 C 0.12237 0.68336 0.9004 0.0
C1133 C 0.11076 0.68326 0.94108 0.0
C1134 C 0.11297 0.68271 1.0035 0.0
C1135 C 0.11983 0.68326 0.83424 0.0
C1136 C 0.1198 0.69691 0.80767 0.0
C1137 C 0.11872 0.67038 0.79705 0.0
C1138 C 0.11819 0.65542 0.8229 0.0
C1139 C 0.10622 0.64573 0.86647 0.0
C1140 C 0.10592 0.63178 0.89121 0.0
C1141 C 0.11747 0.62731 0.87242 0.0
C1142 C 0.12931 0.63676 0.82872 0.0
C1143 C 0.12967 0.65075 0.8039 0.0
H1144 H 0.11723 0.6165 0.89163 0.0
H1145 H 0.12376 0.75366 0.65118 0.0
H1146 H 0.40939 0.11203 0.3353 0.0
H1147 H 0.40494 0.10794 0.22584 0.0
H1148 H 0.45729 0.14045 0.1956 0.0
H1149 H 0.46179 0.14453 0.30395 0.0
H1150 H 0.44034 0.14727 0.11648 0.0
H1151 H 0.43915 0.09784 0.1895 0.0
H1152 H 0.42896 0.07283 0.25301 0.0
H1153 H 0.38021 0.05318 0.17751 0.0
H1154 H 0.39007 0.0782 0.11411 0.0
H1155 H 0.4374 0.094 0.84015 0.0
H1156 H 0.43747 0.09875 0.94849 0.0
H1157 H 0.41529 0.12914 0.91675 0.0
H1158 H 0.41571 0.12475 0.80744 0.0
H1159 H 0.41466 0.09092 0.02735 0.0
H1160 H 0.42588 0.15747 0.03006 0.0
H1161 H 0.43851 0.18263 0.96646 0.0
H1162 H 0.47187 0.16834 0.8899 0.0
H1163 H 0.4596 0.14323 0.95363 0.0
C1164 C 0.41995 0.11823 0.30532 0.0
C1165 C 0.43594 0.12867 0.32873 0.0
C1166 C 0.41739 0.11593 0.24268 0.0
C1167 C 0.43079 0.12387 0.20222 0.0
C1168 C 0.44671 0.13431 0.22561 0.0
C1169 C 0.44926 0.13666 0.28789 0.0
C1170 C 0.42853 0.1211 0.13562 0.0
C1171 C 0.43461 0.13493 0.09702 0.0
C1172 C 0.42121 0.10505 0.10989 0.0
C1173 C 0.4153 0.08996 0.14761 0.0
C1174 C 0.42623 0.08823 0.18678 0.0
C1175 C 0.42052 0.07406 0.2227 0.0
C1176 C 0.40394 0.06145 0.21944 0.0
C1177 C 0.39304 0.06297 0.18008 0.0
C1178 C 0.39868 0.07714 0.14413 0.0
C1179 C 0.43252 0.10168 0.85621 0.0
C1180 C 0.42654 0.10899 0.81521 0.0
C1181 C 0.43253 0.10437 0.91831 0.0
C1182 C 0.42644 0.11436 0.9413 0.0
C1183 C 0.42032 0.12161 0.9004 0.0
C1184 C 0.42056 0.11911 0.8379 0.0
C1185 C 0.42671 0.11711 1.00796 0.0
C1186 C 0.4202 0.10326 0.04667 0.0
C1187 C 0.43398 0.13317 0.03376 0.0
C1188 C 0.4417 0.1484 0.99614 0.0
C1189 C 0.43597 0.15975 0.99985 0.0
C1190 C 0.44306 0.17399 0.96378 0.0
C1191 C 0.45595 0.17705 0.92403 0.0
C1192 C 0.46185 0.16593 0.92054 0.0
C1193 C 0.45483 0.15168 0.95662 0.0
H1194 H 0.46138 0.18806 0.896 0.0
H1195 H 0.39954 0.05048 0.2473 0.0
H1196 H 0.33016 0.4712 0.67072 0.0
H1197 H 0.33111 0.46789 0.56194 0.0
H1198 H 0.31395 0.41585 0.58606 0.0
H1199 H 0.31256 0.41892 0.69542 0.0
H1200 H 0.33998 0.43128 0.50215 0.0
H1201 H 0.28716 0.4268 0.54175 0.0
H1202 H 0.26828 0.43566 0.58343 0.0
H1203 H 0.29242 0.48028 0.47771 0.0
H1204 H 0.31162 0.4718 0.43605 0.0
H1205 H 0.31274 0.40298 0.20419 0.0
H1206 H 0.31581 0.40812 0.31269 0.0
H1207 H 0.32803 0.45874 0.2823 0.0
H1208 H 0.32438 0.45348 0.17334 0.0
H1209 H 0.3055 0.44493 0.36964 0.0
H1210 H 0.35766 0.44914 0.32644 0.0
H1211 H 0.37664 0.44046 0.28437 0.0
H1212 H 0.35427 0.39687 0.3959 0.0
H1213 H 0.33498 0.40516 0.43804 0.0
C1214 C 0.32642 0.45898 0.65325 0.0
C1215 C 0.32103 0.44528 0.69227 0.0
C1216 C 0.32708 0.45715 0.59085 0.0
C1217 C 0.32241 0.44159 0.56584 0.0
C1218 C 0.31759 0.42797 0.60449 0.0
C1219 C 0.31684 0.42977 0.6671 0.0
C1220 C 0.32217 0.43954 0.49922 0.0
C1221 C 0.33231 0.43406 0.47313 0.0
C1222 C 0.31248 0.44362 0.46135 0.0
C1223 C 0.30094 0.44874 0.48629 0.0
C1224 C 0.28854 0.43857 0.5278 0.0
C1225 C 0.27776 0.44351 0.55135 0.0
C1226 C 0.27918 0.45855 0.53337 0.0
C1227 C 0.29135 0.46865 0.49168 0.0
C1228 C 0.30218 0.46378 0.46806 0.0
C1229 C 0.31607 0.41522 0.22046 0.0
C1230 C 0.31821 0.42779 0.17995 0.0
C1231 C 0.31801 0.41819 0.28259 0.0
C1232 C 0.3223 0.43386 0.30577 0.0
C1233 C 0.32476 0.44656 0.26545 0.0
C1234 C 0.32281 0.44358 0.2031 0.0
C1235 C 0.32333 0.43665 0.37222 0.0
C1236 C 0.31328 0.44224 0.39842 0.0
C1237 C 0.33315 0.43272 0.41008 0.0
C1238 C 0.34477 0.42771 0.38501 0.0
C1239 C 0.3567 0.43764 0.34166 0.0
C1240 C 0.36753 0.4328 0.31786 0.0
C1241 C 0.36664 0.41811 0.33734 0.0
C1242 C 0.35494 0.40824 0.3808 0.0
C1243 C 0.34406 0.41302 0.40471 0.0
H1244 H 0.37504 0.41438 0.31886 0.0
H1245 H 0.27081 0.46235 0.55162 0.0
H1246 H 0.91588 0.3517 0.56857 0.0
H1247 H 0.91131 0.34744 0.67697 0.0
H1248 H 0.86863 0.29924 0.64532 0.0
H1249 H 0.8733 0.30318 0.53629 0.0
H1250 H 0.86273 0.31743 0.73107 0.0
H1251 H 0.90391 0.30196 0.69285 0.0
H1252 H 0.93035 0.30583 0.65308 0.0
H1253 H 0.95735 0.34886 0.76509 0.0
H1254 H 0.93104 0.34539 0.80491 0.0
H1255 H 0.85175 0.29069 0.03553 0.0
H1256 H 0.85625 0.2928 0.92628 0.0
H1257 H 0.90285 0.33815 0.95111 0.0
H1258 H 0.89854 0.33582 0.06073 0.0
H1259 H 0.90649 0.3206 0.86753 0.0
H1260 H 0.86623 0.33732 0.90322 0.0
H1261 H 0.8402 0.33466 0.94224 0.0
H1262 H 0.81198 0.29093 0.83471 0.0
H1263 H 0.83786 0.29321 0.79564 0.0
C1264 C 0.90562 0.34007 0.58419 0.0
C1265 C 0.89506 0.32775 0.54294 0.0
C1266 C 0.903 0.33769 0.64653 0.0
C1267 C 0.88974 0.32295 0.66945 0.0
C1268 C 0.87896 0.31072 0.62869 0.0
C1269 C 0.88163 0.31304 0.56617 0.0
C1270 C 0.88714 0.32041 0.73595 0.0
C1271 C 0.87218 0.31786 0.76086 0.0
C1272 C 0.89966 0.32144 0.77506 0.0
C1273 C 0.9155 0.32349 0.75146 0.0
C1274 C 0.91548 0.31232 0.70866 0.0
C1275 C 0.93045 0.31443 0.68617 0.0
C1276 C 0.94552 0.3276 0.70644 0.0
C1277 C 0.94566 0.33867 0.74938 0.0
C1278 C 0.93073 0.33663 0.77197 0.0
C1279 C 0.86294 0.30112 0.01769 0.0
C1280 C 0.87473 0.31315 0.05683 0.0
C1281 C 0.8655 0.30235 0.95511 0.0
C1282 C 0.87974 0.31583 0.92997 0.0
C1283 C 0.89174 0.32764 0.96915 0.0
C1284 C 0.88928 0.32629 0.03189 0.0
C1285 C 0.88206 0.31767 0.86299 0.0
C1286 C 0.89698 0.32012 0.8379 0.0
C1287 C 0.86956 0.31672 0.82373 0.0
C1288 C 0.85398 0.31535 0.84698 0.0
C1289 C 0.85447 0.32707 0.88823 0.0
C1290 C 0.83974 0.32564 0.9103 0.0
C1291 C 0.82444 0.31261 0.89109 0.0
C1292 C 0.82384 0.301 0.84962 0.0
C1293 C 0.83853 0.30237 0.82746 0.0
H1294 H 0.81306 0.31152 0.90823 0.0
H1295 H 0.95709 0.32921 0.68897 0.0
H1296 H 0.12967 0.50813 0.17565 0.0
H1297 H 0.12778 0.53234 0.20527 0.0
H1298 H 0.07444 0.50362 0.19245 0.0
H1299 H 0.07627 0.47928 0.16132 0.0
H1300 H 0.08714 0.53428 0.1389 0.0
H1301 H 0.09239 0.51301 0.32886 0.0
H1302 H 0.10462 0.50233 0.40249 0.0
H1303 H 0.15069 0.5485 0.39581 0.0
H1304 H 0.1388 0.55938 0.32141 0.0
H1305 H 0.07878 0.59928 0.27452 0.0
H1306 H 0.07618 0.57211 0.25759 0.0
H1307 H 0.12939 0.59442 0.26458 0.0
H1308 H 0.13216 0.6216 0.28021 0.0
H1309 H 0.11392 0.56523 0.32687 0.0
H1310 H 0.10986 0.58545 0.13097 0.0
H1311 H 0.09836 0.59632 0.05506 0.0
H1312 H 0.05063 0.55231 0.0717 0.0
H1313 H 0.06182 0.54128 0.14838 0.0
C1314 C 0.11752 0.50696 0.17862 0.0
C1315 C 0.10312 0.49178 0.16581 0.0
C1316 C 0.11645 0.52078 0.19618 0.0
C1317 C 0.10096 0.51976 0.20173 0.0
C1318 C 0.08652 0.50467 0.18869 0.0
C1319 C 0.08758 0.49076 0.17129 0.0
C1320 C 0.10002 0.53462 0.22019 0.0
C1321 C 0.09269 0.54086 0.1806 0.0
C1322 C 0.10757 0.5434 0.27401 0.0
C1323 C 0.11473 0.53696 0.31919 0.0
C1324 C 0.10516 0.52085 0.34276 0.0
C1325 C 0.11203 0.51476 0.38468 0.0
C1326 C 0.12843 0.52472 0.40373 0.0
C1327 C 0.13798 0.5408 0.38099 0.0
C1328 C 0.13118 0.54694 0.33899 0.0
C1329 C 0.08994 0.59842 0.27244 0.0
C1330 C 0.10568 0.6127 0.27872 0.0
C1331 C 0.08842 0.58286 0.26288 0.0
C1332 C 0.1026 0.58125 0.2593 0.0
C1333 C 0.11828 0.59535 0.26742 0.0
C1334 C 0.11982 0.6109 0.27673 0.0
C1335 C 0.10123 0.565 0.24523 0.0
C1336 C 0.10816 0.55852 0.2856 0.0
C1337 C 0.09337 0.55603 0.19204 0.0
C1338 C 0.08663 0.56263 0.14594 0.0
C1339 C 0.09688 0.57816 0.11884 0.0
C1340 C 0.09042 0.58434 0.0756 0.0
C1341 C 0.07376 0.57504 0.05872 0.0
C1342 C 0.06353 0.55952 0.08493 0.0
C1343 C 0.06992 0.55329 0.12825 0.0
H1344 H 0.06879 0.57984 0.02522 0.0
H1345 H 0.13373 0.51998 0.43617 0.0
H1346 H 0.5976 0.08162 0.41924 0.0
H1347 H 0.5708 0.07983 0.43738 0.0
H1348 H 0.59437 0.13314 0.42831 0.0
H1349 H 0.6212 0.13504 0.41129 0.0
H1350 H 0.57439 0.12057 0.52706 0.0
H1351 H 0.57031 0.10926 0.31334 0.0
H1352 H 0.57088 0.09444 0.22183 0.0
H1353 H 0.53108 0.04885 0.29246 0.0
H1354 H 0.53044 0.06336 0.38482 0.0
H1355 H 0.50577 0.13225 0.51467 0.0
H1356 H 0.53083 0.13133 0.49038 0.0
H1357 H 0.50277 0.07784 0.49133 0.0
H1358 H 0.47744 0.0787 0.51501 0.0
H1359 H 0.52436 0.08877 0.39957 0.0
H1360 H 0.52764 0.09955 0.6114 0.0
H1361 H 0.52693 0.11375 0.70443 0.0
H1362 H 0.56811 0.15937 0.64045 0.0
H1363 H 0.56892 0.1455 0.5466 0.0
C1364 C 0.59705 0.09296 0.42089 0.0
C1365 C 0.61154 0.10847 0.41363 0.0
C1366 C 0.58171 0.09191 0.43088 0.0
C1367 C 0.58055 0.10635 0.43387 0.0
C1368 C 0.59496 0.12183 0.42603 0.0
C1369 C 0.61027 0.12289 0.41574 0.0
C1370 C 0.56448 0.10543 0.44755 0.0
C1371 C 0.56351 0.1138 0.49874 0.0
C1372 C 0.55011 0.09609 0.41185 0.0
C1373 C 0.55045 0.08737 0.35626 0.0
C1374 C 0.56178 0.09605 0.30958 0.0
C1375 C 0.56209 0.08771 0.25751 0.0
C1376 C 0.55106 0.07071 0.2514 0.0
C1377 C 0.53964 0.06202 0.29729 0.0
C1378 C 0.53929 0.0703 0.34948 0.0
C1379 C 0.50493 0.12027 0.51014 0.0
C1380 C 0.48966 0.10554 0.51769 0.0
C1381 C 0.51928 0.11976 0.49619 0.0
C1382 C 0.51879 0.10452 0.49025 0.0
C1383 C 0.50347 0.08975 0.496 0.0
C1384 C 0.48902 0.09025 0.50952 0.0
C1385 C 0.53435 0.10415 0.47859 0.0
C1386 C 0.53522 0.09551 0.42801 0.0
C1387 C 0.54863 0.11313 0.51515 0.0
C1388 C 0.54825 0.12151 0.57172 0.0
C1389 C 0.53647 0.11264 0.61697 0.0
C1390 C 0.53606 0.12063 0.66988 0.0
C1391 C 0.54744 0.13746 0.67829 0.0
C1392 C 0.55929 0.14633 0.63385 0.0
C1393 C 0.55974 0.13841 0.58081 0.0
H1394 H 0.54711 0.14362 0.71928 0.0
H1395 H 0.55132 0.06427 0.21106 0.0
H1396 H 0.52228 0.59769 0.8258 0.0
H1397 H 0.49737 0.57103 0.84808 0.0
H1398 H 0.4676 0.59454 0.84072 0.0
H1399 H 0.49236 0.62117 0.81984 0.0
H1400 H 0.46046 0.5751 0.9396 0.0
H1401 H 0.46708 0.57018 0.72586 0.0
H1402 H 0.48208 0.57017 0.63402 0.0
H1403 H 0.48741 0.53029 0.70614 0.0
H1404 H 0.47262 0.53022 0.79884 0.0
H1405 H 0.37882 0.50833 0.91652 0.0
H1406 H 0.40573 0.53293 0.89861 0.0
H1407 H 0.42929 0.50321 0.90695 0.0
H1408 H 0.40224 0.47838 0.92526 0.0
H1409 H 0.44108 0.52473 0.8132 0.0
H1410 H 0.43287 0.5284 0.02428 0.0
H1411 H 0.41775 0.52831 0.1159 0.0
H1412 H 0.41561 0.57053 0.04972 0.0
H1413 H 0.43051 0.57073 0.95725 0.0
C1414 C 0.51041 0.59716 0.8289 0.0
C1415 C 0.50931 0.61156 0.82067 0.0
C1416 C 0.49618 0.5819 0.84126 0.0
C1417 C 0.48059 0.58076 0.84576 0.0
C1418 C 0.47948 0.5951 0.83739 0.0
C1419 C 0.49364 0.6103 0.82481 0.0
C1420 C 0.46542 0.56478 0.86063 0.0
C1421 C 0.45614 0.56413 0.91163 0.0
C1422 C 0.46005 0.5503 0.82527 0.0
C1423 C 0.46892 0.55032 0.76957 0.0
C1424 C 0.47158 0.56151 0.72237 0.0
C1425 C 0.48002 0.5615 0.67011 0.0
C1426 C 0.48574 0.55028 0.66433 0.0
C1427 C 0.483 0.539 0.71074 0.0
C1428 C 0.47458 0.53897 0.76313 0.0
C1429 C 0.38973 0.50701 0.91562 0.0
C1430 C 0.38836 0.49137 0.92321 0.0
C1431 C 0.40513 0.52111 0.9051 0.0
C1432 C 0.41959 0.51999 0.9023 0.0
C1433 C 0.4183 0.50439 0.90908 0.0
C1434 C 0.40284 0.49022 0.91952 0.0
C1435 C 0.43596 0.53515 0.89157 0.0
C1436 C 0.44547 0.53565 0.8415 0.0
C1437 C 0.44159 0.54951 0.92786 0.0
C1438 C 0.4327 0.5495 0.9836 0.0
C1439 C 0.42907 0.5376 0.02906 0.0
C1440 C 0.42056 0.53754 0.08118 0.0
C1441 C 0.41569 0.54939 0.08857 0.0
C1442 C 0.41937 0.56135 0.04391 0.0
C1443 C 0.42787 0.56146 0.99166 0.0
H1444 H 0.4091 0.54932 0.12896 0.0
H1445 H 0.49227 0.55029 0.62383 0.0
H1446 H 0.9254 0.40499 0.23597 0.0
H1447 H 0.92797 0.43168 0.20904 0.0
H1448 H 0.87486 0.40989 0.22187 0.0
H1449 H 0.87214 0.38312 0.24617 0.0
H1450 H 0.88588 0.42828 0.12397 0.0
H1451 H 0.90182 0.43538 0.33408 0.0
H1452 H 0.91834 0.43582 0.42189 0.0
H1453 H 0.96275 0.4735 0.3366 0.0
H1454 H 0.94651 0.47313 0.24788 0.0
H1455 H 0.87435 0.49673 0.14817 0.0
H1456 H 0.87645 0.47232 0.1723 0.0
H1457 H 0.92909 0.49991 0.13803 0.0
H1458 H 0.92708 0.52452 0.11299 0.0
H1459 H 0.92105 0.4798 0.24015 0.0
H1460 H 0.90439 0.47392 0.03292 0.0
H1461 H 0.88745 0.47363 0.94679 0.0
H1462 H 0.84398 0.43348 0.02806 0.0
H1463 H 0.86062 0.4337 0.11517 0.0
C1464 C 0.91426 0.40585 0.23263 0.0
C1465 C 0.89856 0.39188 0.24367 0.0
C1466 C 0.91576 0.42117 0.21781 0.0
C1467 C 0.90162 0.42287 0.21409 0.0
C1468 C 0.88597 0.40893 0.22465 0.0
C1469 C 0.88445 0.39364 0.23922 0.0
C1470 C 0.90294 0.43903 0.19832 0.0
C1471 C 0.89346 0.43949 0.14979 0.0
C1472 C 0.91321 0.45383 0.23075 0.0
C1473 C 0.92298 0.45409 0.28407 0.0
C1474 C 0.91512 0.44366 0.33384 0.0
C1475 C 0.92443 0.44392 0.38381 0.0
C1476 C 0.94159 0.45465 0.38474 0.0
C1477 C 0.94946 0.46518 0.33576 0.0
C1478 C 0.94021 0.46496 0.28565 0.0
C1479 C 0.88639 0.49763 0.14532 0.0
C1480 C 0.9005 0.51254 0.12761 0.0
C1481 C 0.88757 0.48366 0.15939 0.0
C1482 C 0.90287 0.48419 0.15595 0.0
C1483 C 0.91714 0.49921 0.14072 0.0
C1484 C 0.91597 0.51326 0.12655 0.0
C1485 C 0.9037 0.46887 0.16681 0.0
C1486 C 0.91359 0.4686 0.21412 0.0
C1487 C 0.89377 0.45419 0.13342 0.0
C1488 C 0.88374 0.45391 0.0808 0.0
C1489 C 0.8912 0.46511 0.03263 0.0
C1490 C 0.88165 0.46494 0.98361 0.0
C1491 C 0.86464 0.45356 0.98201 0.0
C1492 C 0.85715 0.44229 0.02938 0.0
C1493 C 0.86664 0.44242 0.07856 0.0
H1494 H 0.85727 0.45346 0.94402 0.0
H1495 H 0.94878 0.45483 0.42347 0.0
H1496 H 0.51456 0.89298 0.44876 0.0
H1497 H 0.4894 0.89434 0.43153 0.0
H1498 H 0.49248 0.91276 0.613 0.0
H1499 H 0.51726 0.91046 0.63124 0.0
H1500 H 0.46247 0.89197 0.59323 0.0
H1501 H 0.50198 0.93801 0.47938 0.0
H1502 H 0.52458 0.95352 0.40636 0.0
H1503 H 0.49369 0.92265 0.26219 0.0
H1504 H 0.47097 0.90679 0.33449 0.0
H1505 H 0.40267 0.91734 0.5149 0.0
H1506 H 0.42949 0.91974 0.53683 0.0
H1507 H 0.41966 0.88174 0.4057 0.0
H1508 H 0.39236 0.87833 0.3861 0.0
H1509 H 0.45362 0.91512 0.40405 0.0
H1510 H 0.4148 0.86821 0.52916 0.0
H1511 H 0.39272 0.85552 0.60605 0.0
H1512 H 0.42398 0.89263 0.73463 0.0
H1513 H 0.44616 0.9057 0.65809 0.0
C1514 C 0.50995 0.8975 0.48468 0.0
C1515 C 0.51791 0.90179 0.54109 0.0
C1516 C 0.4956 0.89836 0.47477 0.0
C1517 C 0.48915 0.90402 0.52043 0.0
C1518 C 0.49719 0.9084 0.57688 0.0
C1519 C 0.51137 0.90717 0.58727 0.0
C1520 C 0.47367 0.90469 0.50974 0.0
C1521 C 0.46073 0.89731 0.55225 0.0
C1522 C 0.4712 0.91159 0.45627 0.0
C1523 C 0.48481 0.92113 0.41249 0.0
C1524 C 0.50004 0.93445 0.43217 0.0
C1525 C 0.51287 0.94332 0.3909 0.0
C1526 C 0.51059 0.93905 0.3297 0.0
C1527 C 0.49545 0.92593 0.30962 0.0
C1528 C 0.48258 0.91702 0.35072 0.0
C1529 C 0.40601 0.90927 0.49119 0.0
C1530 C 0.39514 0.89755 0.44877 0.0
C1531 C 0.42146 0.91081 0.50346 0.0
C1532 C 0.4265 0.90093 0.47282 0.0
C1533 C 0.41598 0.88954 0.4295 0.0
C1534 C 0.40039 0.88773 0.41807 0.0
C1535 C 0.44262 0.90218 0.48682 0.0
C1536 C 0.45559 0.90994 0.44504 0.0
C1537 C 0.44528 0.89605 0.54152 0.0
C1538 C 0.43205 0.88804 0.58771 0.0
C1539 C 0.4169 0.87376 0.57364 0.0
C1540 C 0.40439 0.86647 0.6172 0.0
C1541 C 0.40692 0.8733 0.67514 0.0
C1542 C 0.42202 0.88738 0.6897 0.0
C1543 C 0.43457 0.89472 0.64627 0.0
H1544 H 0.39721 0.86765 0.70878 0.0
H1545 H 0.52054 0.94592 0.29781 0.0
H1546 H 0.60111 0.51717 0.94668 0.0
H1547 H 0.57474 0.49161 0.93322 0.0
H1548 H 0.59879 0.46301 0.96592 0.0
H1549 H 0.6254 0.48845 0.97444 0.0
H1550 H 0.57973 0.45035 0.87619 0.0
H1551 H 0.5718 0.46702 0.07183 0.0
H1552 H 0.57106 0.48582 0.14859 0.0
H1553 H 0.53349 0.48912 0.04735 0.0
H1554 H 0.53417 0.4705 0.96952 0.0
H1555 H 0.50585 0.37282 0.91961 0.0
H1556 H 0.5309 0.39883 0.94464 0.0
H1557 H 0.51111 0.42628 0.85543 0.0
H1558 H 0.48632 0.40033 0.82719 0.0
H1559 H 0.52731 0.43911 0.97539 0.0
H1560 H 0.53648 0.42218 0.77899 0.0
H1561 H 0.53716 0.40228 0.70717 0.0
H1562 H 0.57278 0.39838 0.81864 0.0
H1563 H 0.57211 0.41807 0.89167 0.0
C1564 C 0.60087 0.50547 0.95065 0.0
C1565 C 0.61554 0.50503 0.96165 0.0
C1566 C 0.58566 0.49079 0.94384 0.0
C1567 C 0.58464 0.47528 0.94935 0.0
C1568 C 0.59918 0.47479 0.96157 0.0
C1569 C 0.61443 0.48944 0.96732 0.0
C1570 C 0.56863 0.45958 0.93944 0.0
C1571 C 0.56837 0.44785 0.8988 0.0
C1572 C 0.55362 0.45632 0.96778 0.0
C1573 C 0.55315 0.46749 0.01456 0.0
C1574 C 0.56347 0.47185 0.0657 0.0
C1575 C 0.56305 0.48246 0.10945 0.0
C1576 C 0.55227 0.4887 0.10277 0.0
C1577 C 0.54185 0.4843 0.05242 0.0
C1578 C 0.54224 0.4737 1.00851 0.0
C1579 C 0.50679 0.38433 0.90474 0.0
C1580 C 0.49404 0.38435 0.87055 0.0
C1581 C 0.52109 0.39921 0.91969 0.0
C1582 C 0.52286 0.41443 0.90162 0.0
C1583 C 0.50992 0.41463 0.86998 0.0
C1584 C 0.4957 0.39974 0.85414 0.0
C1585 C 0.53863 0.43007 0.91281 0.0
C1586 C 0.53878 0.44172 0.95333 0.0
C1587 C 0.5536 0.43318 0.8852 0.0
C1588 C 0.55411 0.42145 0.8411 0.0
C1589 C 0.54434 0.41696 0.78847 0.0
C1590 C 0.54475 0.40574 0.74749 0.0
C1591 C 0.55497 0.39903 0.75842 0.0
C1592 C 0.56485 0.40357 0.81028 0.0
C1593 C 0.56447 0.41476 0.85146 0.0
H1594 H 0.55527 0.39036 0.72663 0.0
H1595 H 0.55196 0.49691 0.13669 0.0
H1596 H 0.27181 0.44159 0.03082 0.0
H1597 H 0.24258 0.43229 0.04337 0.0
H1598 H 0.23018 0.39483 0.90694 0.0
H1599 H 0.25996 0.40418 0.89398 0.0
H1600 H 0.2134 0.41393 0.89457 0.0
H1601 H 0.22002 0.38103 0.04228 0.0
H1602 H 0.2339 0.37478 0.12447 0.0
H1603 H 0.23004 0.40976 0.23977 0.0
H1604 H 0.21637 0.41644 0.15799 0.0
H1605 H 0.13357 0.40153 0.99539 0.0
H1606 H 0.15387 0.39257 0.97239 0.0
H1607 H 0.18961 0.43123 0.08823 0.0
H1608 H 0.1697 0.44029 0.10983 0.0
H1609 H 0.18918 0.40084 0.10082 0.0
H1610 H 0.19014 0.43841 0.9428 0.0
H1611 H 0.17674 0.44551 0.86117 0.0
H1612 H 0.16615 0.40113 0.76576 0.0
H1613 H 0.17929 0.39365 0.8474 0.0
C1614 C 0.26296 0.43132 1.00335 0.0
C1615 C 0.26827 0.42363 0.9613 0.0
C1616 C 0.24618 0.42597 0.01086 0.0
C1617 C 0.23415 0.41277 0.97657 0.0
C1618 C 0.23928 0.405 0.93408 0.0
C1619 C 0.25625 0.4103 0.92691 0.0
C1620 C 0.2164 0.40772 0.98573 0.0
C1621 C 0.20783 0.4105 0.93913 0.0
C1622 C 0.20914 0.40335 0.04397 0.0
C1623 C 0.21717 0.39925 0.09383 0.0
C1624 C 0.2222 0.38746 0.08505 0.0
C1625 C 0.23003 0.38383 0.13159 0.0
C1626 C 0.23285 0.39187 0.1873 0.0
C1627 C 0.22782 0.40353 0.19661 0.0
C1628 C 0.22 0.40721 0.15019 0.0
C1629 C 0.14565 0.40779 0.0168 0.0
C1630 C 0.15013 0.42155 0.05441 0.0
C1631 C 0.15724 0.40275 1.00348 0.0
C1632 C 0.17328 0.41127 0.02856 0.0
C1633 C 0.17732 0.42443 0.06859 0.0
C1634 C 0.16595 0.42962 0.0808 0.0
C1635 C 0.18658 0.40772 0.01041 0.0
C1636 C 0.19438 0.40349 0.05558 0.0
C1637 C 0.19307 0.4107 0.95093 0.0
C1638 C 0.18549 0.41536 0.90147 0.0
C1639 C 0.18485 0.43011 0.9046 0.0
C1640 C 0.17732 0.43421 0.85833 0.0
C1641 C 0.17054 0.42375 0.80841 0.0
C1642 C 0.17136 0.4092 0.80453 0.0
C1643 C 0.17885 0.40502 0.85078 0.0
H1644 H 0.16469 0.42693 0.77267 0.0
H1645 H 0.23893 0.38905 0.22327 0.0
H1646 H 0.85953 0.26604 0.26997 0.0
H1647 H 0.83834 0.23649 0.27838 0.0
H1648 H 0.82073 0.24654 0.44437 0.0
H1649 H 0.84154 0.27594 0.43551 0.0
H1650 H 0.82004 0.21507 0.44332 0.0
H1651 H 0.80323 0.24806 0.32213 0.0
H1652 H 0.8071 0.2668 0.23709 0.0
H1653 H 0.80542 0.2308 0.11174 0.0
H1654 H 0.80184 0.21197 0.19626 0.0
H1655 H 0.73391 0.15775 0.47395 0.0
H1656 H 0.76289 0.18003 0.46933 0.0
H1657 H 0.76504 0.16865 0.28143 0.0
H1658 H 0.73572 0.14714 0.28554 0.0
H1659 H 0.77647 0.19892 0.28695 0.0
H1660 H 0.78877 0.16366 0.40382 0.0
H1661 H 0.7861 0.1448 0.48677 0.0
H1662 H 0.7974 0.18336 0.61626 0.0
H1663 H 0.79992 0.2024 0.53417 0.0
C1664 C 0.85146 0.26181 0.30913 0.0
C1665 C 0.8521 0.27324 0.352 0.0
C1666 C 0.83933 0.24496 0.3138 0.0
C1667 C 0.82788 0.23932 0.36189 0.0
C1668 C 0.82943 0.25056 0.40707 0.0
C1669 C 0.84129 0.26737 0.40182 0.0
C1670 C 0.81299 0.22241 0.36156 0.0
C1671 C 0.81047 0.21144 0.40921 0.0
C1672 C 0.80071 0.21756 0.31628 0.0
C1673 C 0.80247 0.22871 0.26549 0.0
C1674 C 0.8038 0.2442 0.27646 0.0
C1675 C 0.80593 0.25483 0.22837 0.0
C1676 C 0.80656 0.25002 0.16906 0.0
C1677 C 0.80498 0.23453 0.15771 0.0
C1678 C 0.8029 0.22387 0.20568 0.0
C1679 C 0.7408 0.15967 0.43239 0.0
C1680 C 0.73275 0.1506 0.38037 0.0
C1681 C 0.75742 0.17243 0.42962 0.0
C1682 C 0.76641 0.17608 0.37505 0.0
C1683 C 0.7585 0.16623 0.32406 0.0
C1684 C 0.7418 0.15379 0.32651 0.0
C1685 C 0.78322 0.19126 0.36922 0.0
C1686 C 0.78608 0.20211 0.32054 0.0
C1687 C 0.79589 0.19582 0.41318 0.0
C1688 C 0.79443 0.18443 0.46278 0.0
C1689 C 0.79058 0.16809 0.45001 0.0
C1690 C 0.78911 0.15737 0.49688 0.0
C1691 C 0.79155 0.16287 0.55675 0.0
C1692 C 0.7955 0.17912 0.56986 0.0
C1693 C 0.79698 0.18989 0.52316 0.0
H1694 H 0.7904 0.15454 0.59298 0.0
H1695 H 0.80823 0.25827 0.13189 0.0
H1696 H 0.56046 0.82336 0.54851 0.0
H1697 H 0.56824 0.80344 0.58371 0.0
H1698 H 0.61258 0.84309 0.66453 0.0
H1699 H 0.6047 0.86327 0.62921 0.0
H1700 H 0.5936 0.79752 0.57203 0.0
H1701 H 0.61669 0.82756 0.80322 0.0
H1702 H 0.61535 0.84808 0.87012 0.0
H1703 H 0.5677 0.83527 0.79702 0.0
H1704 H 0.56867 0.81454 0.73037 0.0
H1705 H 0.60101 0.73574 0.73876 0.0
H1706 H 0.61029 0.76415 0.70358 0.0
H1707 H 0.56672 0.7616 0.78259 0.0
H1708 H 0.55754 0.73354 0.81767 0.0
H1709 H 0.59308 0.79234 0.79532 0.0
H1710 H 0.567 0.75087 0.63607 0.0
H1711 H 0.565 0.72871 0.56935 0.0
H1712 H 0.61344 0.76198 0.49794 0.0
H1713 H 0.6158 0.78427 0.56492 0.0
C1714 C 0.57204 0.82792 0.57278 0.0
C1715 C 0.5819 0.84486 0.58655 0.0
C1716 C 0.57654 0.8165 0.5926 0.0
C1717 C 0.59091 0.8217 0.62728 0.0
C1718 C 0.60136 0.83877 0.63813 0.0
C1719 C 0.59691 0.8503 0.61772 0.0
C1720 C 0.59364 0.8089 0.65686 0.0
C1721 C 0.59386 0.79659 0.62085 0.0
C1722 C 0.59378 0.80752 0.7206 0.0
C1723 C 0.59287 0.81968 0.76132 0.0
C1724 C 0.60592 0.8291 0.8016 0.0
C1725 C 0.60522 0.84077 0.83945 0.0
C1726 C 0.59149 0.84303 0.83762 0.0
C1727 C 0.57836 0.83356 0.79821 0.0
C1728 C 0.57898 0.82186 0.76039 0.0
C1729 C 0.59368 0.74145 0.74987 0.0
C1730 C 0.57848 0.73239 0.78051 0.0
C1731 C 0.59894 0.75764 0.72954 0.0
C1732 C 0.58912 0.76497 0.73994 0.0
C1733 C 0.57454 0.75627 0.77406 0.0
C1734 C 0.56925 0.74016 0.79381 0.0
C1735 C 0.59274 0.78081 0.71048 0.0
C1736 C 0.59357 0.79364 0.74651 0.0
C1737 C 0.59318 0.78248 0.64676 0.0
C1738 C 0.59167 0.76916 0.60599 0.0
C1739 C 0.57726 0.75342 0.6064 0.0
C1740 C 0.57606 0.74084 0.56854 0.0
C1741 C 0.58911 0.74392 0.52959 0.0
C1742 C 0.60336 0.7596 0.52826 0.0
C1743 C 0.60464 0.77221 0.56615 0.0
H1744 H 0.58817 0.73417 0.50032 0.0
H1745 H 0.591 0.8521 0.86687 0.0
H1746 H 0.86703 0.60366 0.04833 0.0
H1747 H 0.84675 0.61283 0.03018 0.0
H1748 H 0.82004 0.57181 0.90761 0.0
H1749 H 0.84013 0.56287 0.92484 0.0
H1750 H 0.81968 0.59831 0.86596 0.0
H1751 H 0.8099 0.56965 0.05935 0.0
H1752 H 0.81779 0.56636 0.16268 0.0
H1753 H 0.82425 0.61383 0.21203 0.0
H1754 H 0.81663 0.61749 0.1086 0.0
H1755 H 0.73378 0.559 0.89298 0.0
H1756 H 0.7635 0.56906 0.89461 0.0
H1757 H 0.772 0.61341 0.98698 0.0
H1758 H 0.74192 0.6034 0.98419 0.0
H1759 H 0.78614 0.59546 0.04459 0.0
H1760 H 0.78749 0.61894 0.85282 0.0
H1761 H 0.77786 0.61969 0.74973 0.0
H1762 H 0.78573 0.57983 0.69678 0.0
H1763 H 0.79519 0.57865 0.79979 0.0
C1764 C 0.85703 0.59689 0.01649 0.0
C1765 C 0.85507 0.58246 0.98846 0.0
C1766 C 0.8454 0.60206 1.0064 0.0
C1767 C 0.83171 0.59289 0.96803 0.0
C1768 C 0.83044 0.57912 0.93736 0.0
C1769 C 0.84192 0.57395 0.94758 0.0
C1770 C 0.81778 0.59639 0.96295 0.0
C1771 C 0.81242 0.59784 0.90506 0.0
C1772 C 0.80848 0.5962 0.01398 0.0
C1773 C 0.81293 0.59395 0.07614 0.0
C1774 C 0.81312 0.57943 0.09215 0.0
C1775 C 0.81753 0.5775 0.15071 0.0
C1776 C 0.82158 0.58991 0.19383 0.0
C1777 C 0.82117 0.60425 0.17852 0.0
C1778 C 0.81681 0.60627 0.11994 0.0
C1779 C 0.74201 0.57109 0.91235 0.0
C1780 C 0.7356 0.58048 0.93813 0.0
C1781 C 0.75901 0.57684 0.91321 0.0
C1782 C 0.77001 0.59202 0.94069 0.0
C1783 C 0.76373 0.6017 0.96524 0.0
C1784 C 0.74661 0.59606 0.96324 0.0
C1785 C 0.78773 0.59669 0.94745 0.0
C1786 C 0.79373 0.59665 1.00561 0.0
C1787 C 0.7975 0.59793 0.89661 0.0
C1788 C 0.79203 0.5987 0.83421 0.0
C1789 C 0.78709 0.61027 0.81931 0.0
C1790 C 0.78167 0.61078 0.76085 0.0
C1791 C 0.78117 0.59981 0.71674 0.0
C1792 C 0.78614 0.58833 0.73098 0.0
C1793 C 0.79157 0.58777 0.78939 0.0
H1794 H 0.77695 0.60021 0.67153 0.0
H1795 H 0.82499 0.58839 0.23915 0.0
H1796 H 0.28143 0.83554 0.29164 0.0
H1797 H 0.25262 0.8161 0.26824 0.0
H1798 H 0.23715 0.84297 0.38479 0.0
H1799 H 0.2665 0.86279 0.40896 0.0
H1800 H 0.21949 0.80876 0.40543 0.0
H1801 H 0.23118 0.84379 0.23649 0.0
H1802 H 0.24736 0.86137 0.15078 0.0
H1803 H 0.24493 0.81912 0.06291 0.0
H1804 H 0.22896 0.80131 0.14852 0.0
H1805 H 0.14141 0.73984 0.30463 0.0
H1806 H 0.1621 0.76947 0.31776 0.0
H1807 H 0.19865 0.76177 0.22682 0.0
H1808 H 0.17829 0.73243 0.21461 0.0
H1809 H 0.20064 0.7917 0.19435 0.0
H1810 H 0.19606 0.75974 0.37694 0.0
H1811 H 0.18037 0.74199 0.46317 0.0
H1812 H 0.16929 0.77912 0.52446 0.0
H1813 H 0.18476 0.797 0.438 0.0
C1814 C 0.27197 0.8375 0.312 0.0
C1815 C 0.27628 0.85072 0.35229 0.0
C1816 C 0.25544 0.82639 0.29821 0.0
C1817 C 0.24265 0.82811 0.32417 0.0
C1818 C 0.24682 0.84144 0.36391 0.0
C1819 C 0.26356 0.8528 0.37741 0.0
C1820 C 0.22512 0.81519 0.31143 0.0
C1821 C 0.21513 0.80535 0.35934 0.0
C1822 C 0.21939 0.81061 0.2513 0.0
C1823 C 0.22886 0.8212 0.19912 0.0
C1824 C 0.23416 0.83825 0.19905 0.0
C1825 C 0.2433 0.84826 0.15044 0.0
C1826 C 0.24717 0.84136 0.10142 0.0
C1827 C 0.2419 0.82444 0.10088 0.0
C1828 C 0.23276 0.81437 0.1494 0.0
C1829 C 0.15375 0.74463 0.28615 0.0
C1830 C 0.15828 0.73387 0.25863 0.0
C1831 C 0.16558 0.76151 0.29399 0.0
C1832 C 0.18198 0.76783 0.27356 0.0
C1833 C 0.18611 0.75723 0.24282 0.0
C1834 C 0.17446 0.74043 0.23598 0.0
C1835 C 0.19544 0.78498 0.28812 0.0
C1836 C 0.2047 0.79553 0.24047 0.0
C1837 C 0.20044 0.79024 0.3484 0.0
C1838 C 0.19137 0.7796 0.40069 0.0
C1839 C 0.19018 0.76406 0.40859 0.0
C1840 C 0.18134 0.75398 0.45751 0.0
C1841 C 0.17379 0.7594 0.49915 0.0
C1842 C 0.17512 0.77493 0.49208 0.0
C1843 C 0.18391 0.78504 0.44314 0.0
H1844 H 0.16695 0.75157 0.53698 0.0
H1845 H 0.25422 0.84912 0.0638 0.0
H1846 H 0.44396 0.27787 0.63035 0.0
H1847 H 0.43399 0.24887 0.60692 0.0
H1848 H 0.39238 0.23414 0.72686 0.0
H1849 H 0.40249 0.26355 0.75082 0.0
H1850 H 0.4088 0.21671 0.74803 0.0
H1851 H 0.38485 0.22753 0.57859 0.0
H1852 H 0.38343 0.24334 0.49168 0.0
H1853 H 0.42246 0.23959 0.4033 0.0
H1854 H 0.42432 0.224 0.49006 0.0
H1855 H 0.3975 0.13717 0.64834 0.0
H1856 H 0.38912 0.15828 0.66291 0.0
H1857 H 0.43393 0.19461 0.5737 0.0
H1858 H 0.44237 0.17393 0.56049 0.0
H1859 H 0.40543 0.19609 0.53877 0.0
H1860 H 0.4337 0.1926 0.72092 0.0
H1861 H 0.43589 0.17723 0.80793 0.0
H1862 H 0.38813 0.16708 0.87136 0.0
H1863 H 0.38556 0.1822 0.78412 0.0
C1864 C 0.43251 0.2685 0.65099 0.0
C1865 C 0.42399 0.27298 0.6923 0.0
C1866 C 0.42677 0.25189 0.63736 0.0
C1867 C 0.41235 0.23927 0.6647 0.0
C1868 C 0.4035 0.24367 0.70497 0.0
C1869 C 0.40919 0.26045 0.71824 0.0
C1870 C 0.40754 0.22165 0.65354 0.0
C1871 C 0.40751 0.21197 0.70237 0.0
C1872 C 0.40594 0.21543 0.59399 0.0
C1873 C 0.40473 0.2246 0.54103 0.0
C1874 C 0.39319 0.23014 0.54076 0.0
C1875 C 0.3923 0.23906 0.4915 0.0
C1876 C 0.40285 0.24247 0.44202 0.0
C1877 C 0.41428 0.23693 0.44164 0.0
C1878 C 0.41523 0.22801 0.49081 0.0
C1879 C 0.40534 0.14961 0.63106 0.0
C1880 C 0.4206 0.15399 0.60357 0.0
C1881 C 0.4006 0.16163 0.63951 0.0
C1882 C 0.41093 0.17803 0.6194 0.0
C1883 C 0.42573 0.18206 0.58934 0.0
C1884 C 0.43058 0.17024 0.5821 0.0
C1885 C 0.40739 0.19158 0.63294 0.0
C1886 C 0.40598 0.20054 0.5845 0.0
C1887 C 0.40763 0.1971 0.69274 0.0
C1888 C 0.40933 0.18832 0.74566 0.0
C1889 C 0.42362 0.18698 0.75322 0.0
C1890 C 0.42494 0.17834 0.80259 0.0
C1891 C 0.41213 0.17113 0.84501 0.0
C1892 C 0.39802 0.17263 0.83835 0.0
C1893 C 0.39662 0.18123 0.78897 0.0
H1894 H 0.41313 0.16439 0.88308 0.0
H1895 H 0.40216 0.24941 0.40396 0.0
loop_
_geom_bond_atom_site_label_1
_geom_bond_atom_site_label_2
_geom_bond_distance
_geom_bond_site_symmetry_2
_ccdc_geom_bond_type
C0 C1 1.351 . S
C0 N3 1.368 . S
C0 H5 0.931 . S
C1 C0 1.351 . S
C1 N2 1.373 . S
C1 H29 0.930 . S
N2 C1 1.373 . S
N2 C4 1.340 . S
N3 C0 1.368 . S
N3 C4 1.321 . S
N3 Co6 2.135 . S
C4 N2 1.340 . S
C4 N3 1.321 . S
C4 H28 0.930 . S
H5 C0 0.931 . S
Co6 N3 2.135 . S
Co6 N9 2.121 . S
Co6 O14 2.055 . S
Co6 O17 2.039 . S
Co6 N20 2.140 . S
C7 O8 1.227 . S
C7 O17 1.265 . S
O8 C7 1.227 . S
N9 Co6 2.121 . S
N9 C11 1.375 . S
N9 C12 1.313 1_554 S
C10 C11 1.338 1_556 S
C10 N13 1.377 . S
C10 H30 0.930 . S
C11 N9 1.375 . S
C11 C10 1.338 1_554 S
C11 H15 0.931 . S
C12 N9 1.313 1_556 S
C12 N13 1.344 . S
C12 H16 0.930 . S
N13 C10 1.377 . S
N13 C12 1.344 . S
O14 Co6 2.055 . S
O14 C18 1.253 . S
H15 C11 0.931 . S
H16 C12 0.930 . S
O17 Co6 2.039 . S
O17 C7 1.265 . S
C18 O14 1.253 . S
C18 O19 1.227 . S
O19 C18 1.227 . S
N20 Co6 2.140 . S
N20 C23 1.346 . S
N20 C24 1.345 . S
C21 C22 1.387 . S
C21 C25 1.391 . S
C22 C21 1.387 . S
C22 C23 1.369 . S
C22 H31 0.929 . S
C23 N20 1.346 . S
C23 C22 1.369 . S
C23 H26 0.928 . S
C24 N20 1.345 . S
C24 C25 1.371 . S
C24 H27 0.931 . S
C25 C21 1.391 . S
C25 C24 1.371 . S
C25 H32 0.930 . S
H26 C23 0.928 . S
H27 C24 0.931 . S
H28 C4 0.930 . S
H29 C1 0.930 . S
H30 C10 0.930 . S
H31 C22 0.929 . S
H32 C25 0.930 . S
C33 C34 1.351 . S
C33 N36 1.368 . S
C33 H38 0.931 . S
C34 C33 1.351 . S
C34 N35 1.373 . S
C34 H62 0.930 . S
N35 C34 1.373 . S
N35 C37 1.340 . S
N36 C33 1.368 . S
N36 C37 1.321 . S
N36 Co39 2.135 . S
C37 N35 1.340 . S
C37 N36 1.321 . S
C37 H61 0.930 . S
H38 C33 0.931 . S
Co39 N36 2.135 . S
Co39 N42 2.121 . S
Co39 O47 2.055 . S
Co39 O50 2.039 . S
Co39 N53 2.140 . S
C40 O41 1.227 . S
C40 O50 1.265 . S
O41 C40 1.227 . S
N42 Co39 2.121 . S
N42 C44 1.375 . S
N42 C45 1.313 . S
C43 C44 1.338 . S
C43 N46 1.377 . S
C43 H63 0.930 . S
C44 N42 1.375 . S
C44 C43 1.338 . S
C44 H48 0.931 . S
C45 N42 1.313 . S
C45 N46 1.344 . S
C45 H49 0.930 . S
N46 C43 1.377 . S
N46 C45 1.344 . S
O47 Co39 2.055 . S
O47 C51 1.253 . S
H48 C44 0.931 . S
H49 C45 0.930 . S
O50 Co39 2.039 . S
O50 C40 1.265 . S
C51 O47 1.253 . S
C51 O52 1.227 . S
O52 C51 1.227 . S
N53 Co39 2.140 . S
N53 C56 1.346 . S
N53 C57 1.345 . S
C54 C55 1.387 . S
C54 C58 1.391 . S
C55 C54 1.387 . S
C55 C56 1.369 . S
C55 H64 0.929 . S
C56 N53 1.346 . S
C56 C55 1.369 . S
C56 H59 0.928 . S
C57 N53 1.345 . S
C57 C58 1.371 . S
C57 H60 0.931 . S
C58 C54 1.391 . S
C58 C57 1.371 . S
C58 H65 0.930 . S
H59 C56 0.928 . S
H60 C57 0.931 . S
H61 C37 0.930 . S
H62 C34 0.930 . S
H63 C43 0.930 . S
H64 C55 0.929 . S
H65 C58 0.930 . S
C66 C67 1.351 . S
C66 N69 1.368 . S
C66 H71 0.931 . S
C67 C66 1.351 . S
C67 N68 1.373 . S
C67 H95 0.930 . S
N68 C67 1.373 . S
N68 C70 1.340 . S
N69 C66 1.368 . S
N69 C70 1.321 . S
N69 Co72 2.135 . S
C70 N68 1.340 . S
C70 N69 1.321 . S
C70 H94 0.930 . S
H71 C66 0.931 . S
Co72 N69 2.135 . S
Co72 N75 2.121 . S
Co72 O80 2.055 . S
Co72 O83 2.039 . S
Co72 N86 2.140 . S
C73 O74 1.227 . S
C73 O83 1.265 . S
O74 C73 1.227 . S
N75 Co72 2.121 . S
N75 C77 1.375 . S
N75 C78 1.313 . S
C76 C77 1.338 . S
C76 N79 1.377 . S
C76 H96 0.930 . S
C77 N75 1.375 . S
C77 C76 1.338 . S
C77 H81 0.931 . S
C78 N75 1.313 . S
C78 N79 1.344 . S
C78 H82 0.930 . S
N79 C76 1.377 . S
N79 C78 1.344 . S
O80 Co72 2.055 . S
O80 C84 1.253 . S
H81 C77 0.931 . S
H82 C78 0.930 . S
O83 Co72 2.039 . S
O83 C73 1.265 . S
C84 O80 1.253 . S
C84 O85 1.227 . S
O85 C84 1.227 . S
N86 Co72 2.140 . S
N86 C89 1.346 . S
N86 C90 1.345 . S
C87 C88 1.387 . S
C87 C91 1.391 . S
C88 C87 1.387 . S
C88 C89 1.369 . S
C88 H97 0.929 . S
C89 N86 1.346 . S
C89 C88 1.369 . S
C89 H92 0.928 . S
C90 N86 1.345 . S
C90 C91 1.371 . S
C90 H93 0.931 . S
C91 C87 1.391 . S
C91 C90 1.371 . S
C91 H98 0.930 . S
H92 C89 0.928 . S
H93 C90 0.931 . S
H94 C70 0.930 . S
H95 C67 0.930 . S
H96 C76 0.930 . S
H97 C88 0.929 . S
H98 C91 0.930 . S
C99 C100 1.351 . S
C99 N102 1.368 . S
C99 H104 0.931 . S
C100 C99 1.351 . S
C100 N101 1.373 . S
C100 H128 0.930 . S
N101 C100 1.373 . S
N101 C103 1.340 . S
N102 C99 1.368 . S
N102 C103 1.321 . S
N102 Co105 2.135 . S
C103 N101 1.340 . S
C103 N102 1.321 . S
C103 H127 0.930 . S
H104 C99 0.931 . S
Co105 N102 2.135 . S
Co105 N108 2.121 . S
Co105 O113 2.055 . S
Co105 O116 2.039 . S
Co105 N119 2.140 . S
C106 O107 1.227 . S
C106 O116 1.265 . S
O107 C106 1.227 . S
N108 Co105 2.121 . S
N108 C110 1.375 . S
N108 C111 1.313 1_554 S
C109 C110 1.338 1_556 S
C109 N112 1.377 . S
C109 H129 0.930 . S
C110 N108 1.375 . S
C110 C109 1.338 1_554 S
C110 H114 0.931 . S
C111 N108 1.313 1_556 S
C111 N112 1.344 . S
C111 H115 0.930 . S
N112 C109 1.377 . S
N112 C111 1.344 . S
O113 Co105 2.055 . S
O113 C117 1.253 . S
H114 C110 0.931 . S
H115 C111 0.930 . S
O116 Co105 2.039 . S
O116 C106 1.265 . S
C117 O113 1.253 . S
C117 O118 1.227 . S
O118 C117 1.227 . S
N119 Co105 2.140 . S
N119 C122 1.346 . S
N119 C123 1.345 . S
C120 C121 1.387 . S
C120 C124 1.391 . S
C121 C120 1.387 . S
C121 C122 1.369 . S
C121 H130 0.929 . S
C122 N119 1.346 . S
C122 C121 1.369 . S
C122 H125 0.928 . S
C123 N119 1.345 . S
C123 C124 1.371 . S
C123 H126 0.931 . S
C124 C120 1.391 . S
C124 C123 1.371 . S
C124 H131 0.930 . S
H125 C122 0.928 . S
H126 C123 0.931 . S
H127 C103 0.930 . S
H128 C100 0.930 . S
H129 C109 0.930 . S
H130 C121 0.929 . S
H131 C124 0.930 . S
C132 C133 1.351 . S
C132 N135 1.368 . S
C132 H137 0.931 . S
C133 C132 1.351 . S
C133 N134 1.373 . S
C133 H161 0.930 . S
N134 C133 1.373 . S
N134 C136 1.340 . S
N135 C132 1.368 . S
N135 C136 1.321 . S
N135 Co138 2.135 . S
C136 N134 1.340 . S
C136 N135 1.321 . S
C136 H160 0.930 . S
H137 C132 0.931 . S
Co138 N135 2.135 . S
Co138 N141 2.121 . S
Co138 O146 2.055 . S
Co138 O149 2.039 . S
Co138 N152 2.140 . S
C139 O140 1.227 . S
C139 O149 1.265 . S
O140 C139 1.227 . S
N141 Co138 2.121 . S
N141 C143 1.375 . S
N141 C144 1.313 . S
C142 C143 1.338 . S
C142 N145 1.377 . S
C142 H162 0.930 . S
C143 N141 1.375 . S
C143 C142 1.338 . S
C143 H147 0.931 . S
C144 N141 1.313 . S
C144 N145 1.344 . S
C144 H148 0.930 . S
N145 C142 1.377 . S
N145 C144 1.344 . S
O146 Co138 2.055 . S
O146 C150 1.253 . S
H147 C143 0.931 . S
H148 C144 0.930 . S
O149 Co138 2.039 . S
O149 C139 1.265 . S
C150 O146 1.253 . S
C150 O151 1.227 . S
O151 C150 1.227 . S
N152 Co138 2.140 . S
N152 C155 1.346 . S
N152 C156 1.345 . S
C153 C154 1.387 . S
C153 C157 1.391 . S
C154 C153 1.387 . S
C154 C155 1.369 . S
C154 H163 0.929 . S
C155 N152 1.346 . S
C155 C154 1.369 . S
C155 H158 0.928 . S
C156 N152 1.345 . S
C156 C157 1.371 . S
C156 H159 0.931 . S
C157 C153 1.391 . S
C157 C156 1.371 . S
C157 H164 0.930 . S
H158 C155 0.928 . S
H159 C156 0.931 . S
H160 C136 0.930 . S
H161 C133 0.930 . S
H162 C142 0.930 . S
H163 C154 0.929 . S
H164 C157 0.930 . S
C165 C166 1.351 . S
C165 N168 1.368 . S
C165 H170 0.931 . S
C166 C165 1.351 . S
C166 N167 1.373 . S
C166 H194 0.930 . S
N167 C166 1.373 . S
N167 C169 1.340 . S
N168 C165 1.368 . S
N168 C169 1.321 . S
N168 Co171 2.135 . S
C169 N167 1.340 . S
C169 N168 1.321 . S
C169 H193 0.930 . S
H170 C165 0.931 . S
Co171 N168 2.135 . S
Co171 N174 2.121 . S
Co171 O179 2.055 . S
Co171 O182 2.039 . S
Co171 N185 2.140 . S
C172 O173 1.227 . S
C172 O182 1.265 . S
O173 C172 1.227 . S
N174 Co171 2.121 . S
N174 C176 1.375 . S
N174 C177 1.313 . S
C175 C176 1.338 . S
C175 N178 1.377 . S
C175 H195 0.930 . S
C176 N174 1.375 . S
C176 C175 1.338 . S
C176 H180 0.931 . S
C177 N174 1.313 . S
C177 N178 1.344 . S
C177 H181 0.930 . S
N178 C175 1.377 . S
N178 C177 1.344 . S
O179 Co171 2.055 . S
O179 C183 1.253 . S
H180 C176 0.931 . S
H181 C177 0.930 . S
O182 Co171 2.039 . S
O182 C172 1.265 . S
C183 O179 1.253 . S
C183 O184 1.227 . S
O184 C183 1.227 . S
N185 Co171 2.140 . S
N185 C188 1.346 . S
N185 C189 1.345 . S
C186 C187 1.387 . S
C186 C190 1.391 . S
C187 C186 1.387 . S
C187 C188 1.369 . S
C187 H196 0.929 . S
C188 N185 1.346 . S
C188 C187 1.369 . S
C188 H191 0.928 . S
C189 N185 1.345 . S
C189 C190 1.371 . S
C189 H192 0.931 . S
C190 C186 1.391 . S
C190 C189 1.371 . S
C190 H197 0.930 . S
H191 C188 0.928 . S
H192 C189 0.931 . S
H193 C169 0.930 . S
H194 C166 0.930 . S
H195 C175 0.930 . S
H196 C187 0.929 . S
H197 C190 0.930 . S
C198 C199 1.351 . S
C198 N201 1.368 . S
C198 H203 0.931 . S
C199 C198 1.351 . S
C199 N200 1.373 . S
C199 H227 0.930 . S
N200 C199 1.373 . S
N200 C202 1.340 . S
N201 C198 1.368 . S
N201 C202 1.321 . S
N201 Co204 2.135 . S
C202 N200 1.340 . S
C202 N201 1.321 . S
C202 H226 0.930 . S
H203 C198 0.931 . S
Co204 N201 2.135 . S
Co204 N207 2.121 . S
Co204 O212 2.055 . S
Co204 O215 2.039 . S
Co204 N218 2.140 . S
C205 O206 1.227 . S
C205 O215 1.265 . S
O206 C205 1.227 . S
N207 Co204 2.121 . S
N207 C209 1.375 . S
N207 C210 1.313 . S
C208 C209 1.338 . S
C208 N211 1.377 . S
C208 H228 0.930 . S
C209 N207 1.375 . S
C209 C208 1.338 . S
C209 H213 0.931 . S
C210 N207 1.313 . S
C210 N211 1.344 . S
C210 H214 0.930 . S
N211 C208 1.377 . S
N211 C210 1.344 . S
O212 Co204 2.055 . S
O212 C216 1.253 . S
H213 C209 0.931 . S
H214 C210 0.930 . S
O215 Co204 2.039 . S
O215 C205 1.265 . S
C216 O212 1.253 . S
C216 O217 1.227 . S
O217 C216 1.227 . S
N218 Co204 2.140 . S
N218 C221 1.346 . S
N218 C222 1.345 . S
C219 C220 1.387 . S
C219 C223 1.391 . S
C220 C219 1.387 . S
C220 C221 1.369 . S
C220 H229 0.929 . S
C221 N218 1.346 . S
C221 C220 1.369 . S
C221 H224 0.928 . S
C222 N218 1.345 . S
C222 C223 1.371 . S
C222 H225 0.931 . S
C223 C219 1.391 . S
C223 C222 1.371 . S
C223 H230 0.930 . S
H224 C221 0.928 . S
H225 C222 0.931 . S
H226 C202 0.930 . S
H227 C199 0.930 . S
H228 C208 0.930 . S
H229 C220 0.929 . S
H230 C223 0.930 . S
C231 C232 1.351 . S
C231 N234 1.368 . S
C231 H236 0.931 . S
C232 C231 1.351 . S
C232 N233 1.373 . S
C232 H260 0.930 . S
N233 C232 1.373 . S
N233 C235 1.340 . S
N234 C231 1.368 . S
N234 C235 1.321 . S
N234 Co237 2.135 . S
C235 N233 1.340 . S
C235 N234 1.321 . S
C235 H259 0.930 . S
H236 C231 0.931 . S
Co237 N234 2.135 . S
Co237 N240 2.121 . S
Co237 O245 2.055 . S
Co237 O248 2.039 . S
Co237 N251 2.140 . S
C238 O239 1.227 . S
C238 O248 1.265 . S
O239 C238 1.227 . S
N240 Co237 2.121 . S
N240 C242 1.375 . S
N240 C243 1.313 1_556 S
C241 C242 1.338 1_554 S
C241 N244 1.377 . S
C241 H261 0.930 . S
C242 N240 1.375 . S
C242 C241 1.338 1_556 S
C242 H246 0.931 . S
C243 N240 1.313 1_554 S
C243 N244 1.344 . S
C243 H247 0.930 . S
N244 C241 1.377 . S
N244 C243 1.344 . S
O245 Co237 2.055 . S
O245 C249 1.253 . S
H246 C242 0.931 . S
H247 C243 0.930 . S
O248 Co237 2.039 . S
O248 C238 1.265 . S
C249 O245 1.253 . S
C249 O250 1.227 . S
O250 C249 1.227 . S
N251 Co237 2.140 . S
N251 C254 1.346 . S
N251 C255 1.345 . S
C252 C253 1.387 . S
C252 C256 1.391 . S
C253 C252 1.387 . S
C253 C254 1.369 . S
C253 H262 0.929 . S
C254 N251 1.346 . S
C254 C253 1.369 . S
C254 H257 0.928 . S
C255 N251 1.345 . S
C255 C256 1.371 . S
C255 H258 0.931 . S
C256 C252 1.391 . S
C256 C255 1.371 . S
C256 H263 0.930 . S
H257 C254 0.928 . S
H258 C255 0.931 . S
H259 C235 0.930 . S
H260 C232 0.930 . S
H261 C241 0.930 . S
H262 C253 0.929 . S
H263 C256 0.930 . S
C264 C265 1.351 . S
C264 N267 1.368 . S
C264 H269 0.931 . S
C265 C264 1.351 . S
C265 N266 1.373 . S
C265 H293 0.930 . S
N266 C265 1.373 . S
N266 C268 1.340 . S
N267 C264 1.368 . S
N267 C268 1.321 . S
N267 Co270 2.135 . S
C268 N266 1.340 . S
C268 N267 1.321 . S
C268 H292 0.930 . S
H269 C264 0.931 . S
Co270 N267 2.135 . S
Co270 N273 2.121 . S
Co270 O278 2.055 . S
Co270 O281 2.039 . S
Co270 N284 2.140 . S
C271 O272 1.227 . S
C271 O281 1.265 . S
O272 C271 1.227 . S
N273 Co270 2.121 . S
N273 C275 1.375 . S
N273 C276 1.313 . S
C274 C275 1.338 . S
C274 N277 1.377 . S
C274 H294 0.930 . S
C275 N273 1.375 . S
C275 C274 1.338 . S
C275 H279 0.931 . S
C276 N273 1.313 . S
C276 N277 1.344 . S
C276 H280 0.930 . S
N277 C274 1.377 . S
N277 C276 1.344 . S
O278 Co270 2.055 . S
O278 C282 1.253 . S
H279 C275 0.931 . S
H280 C276 0.930 . S
O281 Co270 2.039 . S
O281 C271 1.265 . S
C282 O278 1.253 . S
C282 O283 1.227 . S
O283 C282 1.227 . S
N284 Co270 2.140 . S
N284 C287 1.346 . S
N284 C288 1.345 . S
C285 C286 1.387 . S
C285 C289 1.391 . S
C286 C285 1.387 . S
C286 C287 1.369 . S
C286 H295 0.929 . S
C287 N284 1.346 . S
C287 C286 1.369 . S
C287 H290 0.928 . S
C288 N284 1.345 . S
C288 C289 1.371 . S
C288 H291 0.931 . S
C289 C285 1.391 . S
C289 C288 1.371 . S
C289 H296 0.930 . S
H290 C287 0.928 . S
H291 C288 0.931 . S
H292 C268 0.930 . S
H293 C265 0.930 . S
H294 C274 0.930 . S
H295 C286 0.929 . S
H296 C289 0.930 . S
C297 C298 1.351 . S
C297 N300 1.368 . S
C297 H302 0.931 . S
C298 C297 1.351 . S
C298 N299 1.373 . S
C298 H326 0.930 . S
N299 C298 1.373 . S
N299 C301 1.340 . S
N300 C297 1.368 . S
N300 C301 1.321 . S
N300 Co303 2.135 . S
C301 N299 1.340 . S
C301 N300 1.321 . S
C301 H325 0.930 . S
H302 C297 0.931 . S
Co303 N300 2.135 . S
Co303 N306 2.121 . S
Co303 O311 2.055 . S
Co303 O314 2.039 . S
Co303 N317 2.140 . S
C304 O305 1.227 . S
C304 O314 1.265 . S
O305 C304 1.227 . S
N306 Co303 2.121 . S
N306 C308 1.375 . S
N306 C309 1.313 . S
C307 C308 1.338 . S
C307 N310 1.377 . S
C307 H327 0.930 . S
C308 N306 1.375 . S
C308 C307 1.338 . S
C308 H312 0.931 . S
C309 N306 1.313 . S
C309 N310 1.344 . S
C309 H313 0.930 . S
N310 C307 1.377 . S
N310 C309 1.344 . S
O311 Co303 2.055 . S
O311 C315 1.253 . S
H312 C308 0.931 . S
H313 C309 0.930 . S
O314 Co303 2.039 . S
O314 C304 1.265 . S
C315 O311 1.253 . S
C315 O316 1.227 . S
O316 C315 1.227 . S
N317 Co303 2.140 . S
N317 C320 1.346 . S
N317 C321 1.345 . S
C318 C319 1.387 . S
C318 C322 1.391 . S
C319 C318 1.387 . S
C319 C320 1.369 . S
C319 H328 0.929 . S
C320 N317 1.346 . S
C320 C319 1.369 . S
C320 H323 0.928 . S
C321 N317 1.345 . S
C321 C322 1.371 . S
C321 H324 0.931 . S
C322 C318 1.391 . S
C322 C321 1.371 . S
C322 H329 0.930 . S
H323 C320 0.928 . S
H324 C321 0.931 . S
H325 C301 0.930 . S
H326 C298 0.930 . S
H327 C307 0.930 . S
H328 C319 0.929 . S
H329 C322 0.930 . S
C330 C331 1.351 . S
C330 N333 1.368 . S
C330 H335 0.931 . S
C331 C330 1.351 . S
C331 N332 1.373 . S
C331 H359 0.930 . S
N332 C331 1.373 . S
N332 C334 1.340 . S
N333 C330 1.368 . S
N333 C334 1.321 . S
N333 Co336 2.135 . S
C334 N332 1.340 . S
C334 N333 1.321 . S
C334 H358 0.930 . S
H335 C330 0.931 . S
Co336 N333 2.135 . S
Co336 N339 2.121 . S
Co336 O344 2.055 . S
Co336 O347 2.039 . S
Co336 N350 2.140 . S
C337 O338 1.227 . S
C337 O347 1.265 . S
O338 C337 1.227 . S
N339 Co336 2.121 . S
N339 C341 1.375 . S
N339 C342 1.313 1_556 S
C340 C341 1.338 1_554 S
C340 N343 1.377 . S
C340 H360 0.930 . S
C341 N339 1.375 . S
C341 C340 1.338 1_556 S
C341 H345 0.931 . S
C342 N339 1.313 1_554 S
C342 N343 1.344 . S
C342 H346 0.930 . S
N343 C340 1.377 . S
N343 C342 1.344 . S
O344 Co336 2.055 . S
O344 C348 1.253 . S
H345 C341 0.931 . S
H346 C342 0.930 . S
O347 Co336 2.039 . S
O347 C337 1.265 . S
C348 O344 1.253 . S
C348 O349 1.227 . S
O349 C348 1.227 . S
N350 Co336 2.140 . S
N350 C353 1.346 . S
N350 C354 1.345 . S
C351 C352 1.387 . S
C351 C355 1.391 . S
C352 C351 1.387 . S
C352 C353 1.369 . S
C352 H361 0.929 . S
C353 N350 1.346 . S
C353 C352 1.369 . S
C353 H356 0.928 . S
C354 N350 1.345 . S
C354 C355 1.371 . S
C354 H357 0.931 . S
C355 C351 1.391 . S
C355 C354 1.371 . S
C355 H362 0.930 . S
H356 C353 0.928 . S
H357 C354 0.931 . S
H358 C334 0.930 . S
H359 C331 0.930 . S
H360 C340 0.930 . S
H361 C352 0.929 . S
H362 C355 0.930 . S
C363 C364 1.351 . S
C363 N366 1.368 . S
C363 H368 0.931 . S
C364 C363 1.351 . S
C364 N365 1.373 . S
C364 H392 0.930 . S
N365 C364 1.373 . S
N365 C367 1.340 . S
N366 C363 1.368 . S
N366 C367 1.321 . S
N366 Co369 2.135 . S
C367 N365 1.340 . S
C367 N366 1.321 . S
C367 H391 0.930 . S
H368 C363 0.931 . S
Co369 N366 2.135 . S
Co369 N372 2.121 . S
Co369 O377 2.055 . S
Co369 O380 2.039 . S
Co369 N383 2.140 . S
C370 O371 1.227 . S
C370 O380 1.265 . S
O371 C370 1.227 . S
N372 Co369 2.121 . S
N372 C374 1.375 . S
N372 C375 1.313 . S
C373 C374 1.338 . S
C373 N376 1.377 . S
C373 H393 0.930 . S
C374 N372 1.375 . S
C374 C373 1.338 . S
C374 H378 0.931 . S
C375 N372 1.313 . S
C375 N376 1.344 . S
C375 H379 0.930 . S
N376 C373 1.377 . S
N376 C375 1.344 . S
O377 Co369 2.055 . S
O377 C381 1.253 . S
H378 C374 0.931 . S
H379 C375 0.930 . S
O380 Co369 2.039 . S
O380 C370 1.265 . S
C381 O377 1.253 . S
C381 O382 1.227 . S
O382 C381 1.227 . S
N383 Co369 2.140 . S
N383 C386 1.346 . S
N383 C387 1.345 . S
C384 C385 1.387 . S
C384 C388 1.391 . S
C385 C384 1.387 . S
C385 C386 1.369 . S
C385 H394 0.929 . S
C386 N383 1.346 . S
C386 C385 1.369 . S
C386 H389 0.928 . S
C387 N383 1.345 . S
C387 C388 1.371 . S
C387 H390 0.931 . S
C388 C384 1.391 . S
C388 C387 1.371 . S
C388 H395 0.930 . S
H389 C386 0.928 . S
H390 C387 0.931 . S
H391 C367 0.930 . S
H392 C364 0.930 . S
H393 C373 0.930 . S
H394 C385 0.929 . S
H395 C388 0.930 . S
H396 C414 0.951 . S
H397 C416 0.951 . S
H398 C418 0.950 . S
H399 C419 0.950 . S
H400 C421 0.950 . S
H401 C424 0.950 . S
H402 C425 0.950 . S
H403 C427 0.950 . S
H404 C428 0.950 . S
H405 C429 0.951 . S
H406 C431 0.951 . S
H407 C433 0.950 . S
H408 C434 0.950 . S
H409 C436 0.950 . S
H410 C439 0.950 . S
H411 C440 0.950 . S
H412 C442 0.950 . S
H413 C443 0.950 . S
C414 H396 0.951 . S
C414 C415 1.366 . S
C414 C416 1.388 . S
C415 C414 1.366 . S
C415 C419 1.385 . S
C416 H397 0.951 . S
C416 C414 1.388 . S
C416 C417 1.366 . S
C417 C416 1.366 . S
C417 C418 1.414 . S
C417 C420 1.499 . S
C418 H398 0.950 . S
C418 C417 1.414 . S
C418 C419 1.374 . S
C419 H399 0.950 . S
C419 C415 1.385 . S
C419 C418 1.374 . S
C420 C417 1.499 . S
C420 C421 1.373 . S
C420 C422 1.389 . S
C421 H400 0.950 . S
C421 C420 1.373 . S
C421 C437 1.377 1_455 S
C422 C420 1.389 . S
C422 C423 1.524 . S
C422 C436 1.377 1_455 S
C423 C422 1.524 . S
C423 C424 1.397 . S
C423 C428 1.363 . S
C424 H401 0.950 . S
C424 C423 1.397 . S
C424 C425 1.334 . S
C425 H402 0.950 . S
C425 C424 1.334 . S
C425 C426 1.287 . S
C426 C425 1.287 . S
C426 C427 1.524 . S
C426 H445 0.913 . S
C427 H403 0.950 . S
C427 C426 1.524 . S
C427 C428 1.415 . S
C428 H404 0.950 . S
C428 C423 1.363 . S
C428 C427 1.415 . S
C429 H405 0.951 . S
C429 C430 1.366 . S
C429 C431 1.388 . S
C430 C429 1.366 . S
C430 C434 1.385 . S
C431 H406 0.951 . S
C431 C429 1.388 . S
C431 C432 1.366 . S
C432 C431 1.366 . S
C432 C433 1.414 . S
C432 C435 1.499 . S
C433 H407 0.950 . S
C433 C432 1.414 . S
C433 C434 1.374 . S
C434 H408 0.950 . S
C434 C430 1.385 . S
C434 C433 1.374 . S
C435 C432 1.499 . S
C435 C436 1.373 . S
C435 C437 1.389 . S
C436 H409 0.950 . S
C436 C422 1.377 1_655 S
C436 C435 1.373 . S
C437 C421 1.377 1_655 S
C437 C435 1.389 . S
C437 C438 1.524 . S
C438 C437 1.524 . S
C438 C439 1.397 . S
C438 C443 1.363 . S
C439 H410 0.950 . S
C439 C438 1.397 . S
C439 C440 1.334 . S
C440 H411 0.950 . S
C440 C439 1.334 . S
C440 C441 1.287 . S
C441 C440 1.287 . S
C441 C442 1.524 . S
C441 H444 0.999 . S
C442 H412 0.950 . S
C442 C441 1.524 . S
C442 C443 1.415 . S
C443 H413 0.950 . S
C443 C438 1.363 . S
C443 C442 1.415 . S
H444 C441 0.999 . S
H445 C426 0.913 . S
H446 C464 0.951 . S
H447 C466 0.951 . S
H448 C468 0.950 . S
H449 C469 0.950 . S
H450 C471 0.950 . S
H451 C474 0.950 . S
H452 C475 0.950 . S
H453 C477 0.950 . S
H454 C478 0.950 . S
H455 C479 0.951 . S
H456 C481 0.951 . S
H457 C483 0.950 . S
H458 C484 0.950 . S
H459 C486 0.950 . S
H460 C489 0.950 . S
H461 C490 0.950 . S
H462 C492 0.950 . S
H463 C493 0.950 . S
C464 H446 0.951 . S
C464 C465 1.366 . S
C464 C466 1.388 . S
C465 C464 1.366 . S
C465 C469 1.385 . S
C466 H447 0.951 . S
C466 C464 1.388 . S
C466 C467 1.366 . S
C467 C466 1.366 . S
C467 C468 1.414 . S
C467 C470 1.499 . S
C468 H448 0.950 . S
C468 C467 1.414 . S
C468 C469 1.374 . S
C469 H449 0.950 . S
C469 C465 1.385 . S
C469 C468 1.374 . S
C470 C467 1.499 . S
C470 C471 1.373 . S
C470 C472 1.389 . S
C471 H450 0.950 . S
C471 C470 1.373 . S
C471 C487 1.377 1_545 S
C472 C470 1.389 . S
C472 C473 1.524 . S
C472 C486 1.377 1_545 S
C473 C472 1.524 . S
C473 C474 1.397 . S
C473 C478 1.363 . S
C474 H451 0.950 . S
C474 C473 1.397 . S
C474 C475 1.334 . S
C475 H452 0.950 . S
C475 C474 1.334 . S
C475 C476 1.287 . S
C476 C475 1.287 . S
C476 C477 1.524 . S
C476 H495 0.913 . S
C477 H453 0.950 . S
C477 C476 1.524 . S
C477 C478 1.415 . S
C478 H454 0.950 . S
C478 C473 1.363 . S
C478 C477 1.415 . S
C479 H455 0.951 . S
C479 C480 1.366 . S
C479 C481 1.388 . S
C480 C479 1.366 . S
C480 C484 1.385 . S
C481 H456 0.951 . S
C481 C479 1.388 . S
C481 C482 1.366 . S
C482 C481 1.366 . S
C482 C483 1.414 . S
C482 C485 1.499 . S
C483 H457 0.950 . S
C483 C482 1.414 . S
C483 C484 1.374 . S
C484 H458 0.950 . S
C484 C480 1.385 . S
C484 C483 1.374 . S
C485 C482 1.499 . S
C485 C486 1.373 . S
C485 C487 1.389 . S
C486 H459 0.950 . S
C486 C472 1.377 1_565 S
C486 C485 1.373 . S
C487 C471 1.377 1_565 S
C487 C485 1.389 . S
C487 C488 1.524 . S
C488 C487 1.524 . S
C488 C489 1.397 . S
C488 C493 1.363 . S
C489 H460 0.950 . S
C489 C488 1.397 . S
C489 C490 1.334 . S
C490 H461 0.950 . S
C490 C489 1.334 . S
C490 C491 1.287 . S
C491 C490 1.287 . S
C491 C492 1.524 . S
C491 H494 0.999 . S
C492 H462 0.950 . S
C492 C491 1.524 . S
C492 C493 1.415 . S
C493 H463 0.950 . S
C493 C488 1.363 . S
C493 C492 1.415 . S
H494 C491 0.999 . S
H495 C476 0.913 . S
H496 C514 0.951 . S
H497 C516 0.951 . S
H498 C518 0.950 . S
H499 C519 0.950 . S
H500 C521 0.950 . S
H501 C524 0.950 . S
H502 C525 0.950 . S
H503 C527 0.950 . S
H504 C528 0.950 . S
H505 C529 0.951 . S
H506 C531 0.951 . S
H507 C533 0.950 . S
H508 C534 0.950 . S
H509 C536 0.950 . S
H510 C539 0.950 . S
H511 C540 0.950 . S
H512 C542 0.950 . S
H513 C543 0.950 . S
C514 H496 0.951 . S
C514 C515 1.366 . S
C514 C516 1.388 . S
C515 C514 1.366 . S
C515 C519 1.385 . S
C516 H497 0.951 . S
C516 C514 1.388 . S
C516 C517 1.366 . S
C517 C516 1.366 . S
C517 C518 1.414 . S
C517 C520 1.499 . S
C518 H498 0.950 . S
C518 C517 1.414 . S
C518 C519 1.374 . S
C519 H499 0.950 . S
C519 C515 1.385 . S
C519 C518 1.374 . S
C520 C517 1.499 . S
C520 C521 1.373 . S
C520 C522 1.389 . S
C521 H500 0.950 . S
C521 C520 1.373 . S
C521 C537 1.377 . S
C522 C520 1.389 . S
C522 C523 1.524 . S
C522 C536 1.377 . S
C523 C522 1.524 . S
C523 C524 1.397 . S
C523 C528 1.363 . S
C524 H501 0.950 . S
C524 C523 1.397 . S
C524 C525 1.334 1_556 S
C525 H502 0.950 . S
C525 C524 1.334 1_554 S
C525 C526 1.287 . S
C526 C525 1.287 . S
C526 C527 1.524 1_554 S
C526 H545 0.913 . S
C527 H503 0.950 . S
C527 C526 1.524 1_556 S
C527 C528 1.415 . S
C528 H504 0.950 . S
C528 C523 1.363 . S
C528 C527 1.415 . S
C529 H505 0.951 . S
C529 C530 1.366 . S
C529 C531 1.388 . S
C530 C529 1.366 . S
C530 C534 1.385 . S
C531 H506 0.951 . S
C531 C529 1.388 . S
C531 C532 1.366 . S
C532 C531 1.366 . S
C532 C533 1.414 . S
C532 C535 1.499 . S
C533 H507 0.950 . S
C533 C532 1.414 . S
C533 C534 1.374 . S
C534 H508 0.950 . S
C534 C530 1.385 . S
C534 C533 1.374 . S
C535 C532 1.499 . S
C535 C536 1.373 . S
C535 C537 1.389 . S
C536 H509 0.950 . S
C536 C522 1.377 . S
C536 C535 1.373 . S
C537 C521 1.377 . S
C537 C535 1.389 . S
C537 C538 1.524 . S
C538 C537 1.524 . S
C538 C539 1.397 . S
C538 C543 1.363 . S
C539 H510 0.950 . S
C539 C538 1.397 . S
C539 C540 1.334 . S
C540 H511 0.950 . S
C540 C539 1.334 . S
C540 C541 1.287 . S
C541 C540 1.287 . S
C541 C542 1.524 . S
C541 H544 0.999 . S
C542 H512 0.950 . S
C542 C541 1.524 . S
C542 C543 1.415 . S
C543 H513 0.950 . S
C543 C538 1.363 . S
C543 C542 1.415 . S
H544 C541 0.999 . S
H545 C526 0.913 . S
H546 C564 0.951 . S
H547 C566 0.951 . S
H548 C568 0.950 . S
H549 C569 0.950 . S
H550 C571 0.950 . S
H551 C574 0.950 . S
H552 C575 0.950 . S
H553 C577 0.950 . S
H554 C578 0.950 . S
H555 C579 0.951 . S
H556 C581 0.951 . S
H557 C583 0.950 . S
H558 C584 0.950 . S
H559 C586 0.950 . S
H560 C589 0.950 . S
H561 C590 0.950 . S
H562 C592 0.950 . S
H563 C593 0.950 . S
C564 H546 0.951 . S
C564 C565 1.366 . S
C564 C566 1.388 . S
C565 C564 1.366 . S
C565 C569 1.385 . S
C566 H547 0.951 . S
C566 C564 1.388 . S
C566 C567 1.366 . S
C567 C566 1.366 . S
C567 C568 1.414 . S
C567 C570 1.499 . S
C568 H548 0.950 . S
C568 C567 1.414 . S
C568 C569 1.374 . S
C569 H549 0.950 . S
C569 C565 1.385 . S
C569 C568 1.374 . S
C570 C567 1.499 . S
C570 C571 1.373 . S
C570 C572 1.389 . S
C571 H550 0.950 . S
C571 C570 1.373 . S
C571 C587 1.377 1_455 S
C572 C570 1.389 . S
C572 C573 1.524 . S
C572 C586 1.377 1_455 S
C573 C572 1.524 . S
C573 C574 1.397 . S
C573 C578 1.363 . S
C574 H551 0.950 . S
C574 C573 1.397 . S
C574 C575 1.334 . S
C575 H552 0.950 . S
C575 C574 1.334 . S
C575 C576 1.287 1_554 S
C576 C575 1.287 1_556 S
C576 C577 1.524 . S
C576 H595 0.913 . S
C577 H553 0.950 . S
C577 C576 1.524 . S
C577 C578 1.415 1_556 S
C578 H554 0.950 . S
C578 C573 1.363 . S
C578 C577 1.415 1_554 S
C579 H555 0.951 . S
C579 C580 1.366 . S
C579 C581 1.388 . S
C580 C579 1.366 . S
C580 C584 1.385 . S
C581 H556 0.951 . S
C581 C579 1.388 . S
C581 C582 1.366 . S
C582 C581 1.366 . S
C582 C583 1.414 . S
C582 C585 1.499 . S
C583 H557 0.950 . S
C583 C582 1.414 . S
C583 C584 1.374 . S
C584 H558 0.950 . S
C584 C580 1.385 . S
C584 C583 1.374 . S
C585 C582 1.499 . S
C585 C586 1.373 . S
C585 C587 1.389 . S
C586 H559 0.950 . S
C586 C572 1.377 1_655 S
C586 C585 1.373 . S
C587 C571 1.377 1_655 S
C587 C585 1.389 . S
C587 C588 1.524 . S
C588 C587 1.524 . S
C588 C589 1.397 . S
C588 C593 1.363 . S
C589 H560 0.950 . S
C589 C588 1.397 . S
C589 C590 1.334 . S
C590 H561 0.950 . S
C590 C589 1.334 . S
C590 C591 1.287 . S
C591 C590 1.287 . S
C591 C592 1.524 . S
C591 H594 0.999 . S
C592 H562 0.950 . S
C592 C591 1.524 . S
C592 C593 1.415 . S
C593 H563 0.950 . S
C593 C588 1.363 . S
C593 C592 1.415 . S
H594 C591 0.999 . S
H595 C576 0.913 . S
H596 C614 0.951 . S
H597 C616 0.951 . S
H598 C618 0.950 . S
H599 C619 0.950 . S
H600 C621 0.950 . S
H601 C624 0.950 . S
H602 C625 0.950 . S
H603 C627 0.950 . S
H604 C628 0.965 . S
H605 C629 0.951 . S
H606 C631 0.951 . S
H607 C633 0.950 . S
H608 C634 0.950 . S
H609 C636 0.950 . S
H610 C639 0.950 . S
H611 C640 0.950 . S
H612 C642 0.950 . S
H613 C643 0.966 . S
C614 H596 0.951 . S
C614 C615 1.366 . S
C614 C616 1.388 . S
C615 C614 1.366 . S
C615 C619 1.385 . S
C616 H597 0.951 . S
C616 C614 1.388 . S
C616 C617 1.366 . S
C617 C616 1.366 . S
C617 C618 1.414 . S
C617 C620 1.499 . S
C618 H598 0.950 . S
C618 C617 1.414 . S
C618 C619 1.374 . S
C619 H599 0.950 . S
C619 C615 1.385 . S
C619 C618 1.374 . S
C620 C617 1.499 . S
C620 C621 1.373 . S
C620 C622 1.389 . S
C621 H600 0.950 . S
C621 C620 1.373 . S
C621 C637 1.377 1_545 S
C622 C620 1.389 . S
C622 C623 1.524 . S
C622 C636 1.377 1_545 S
C623 C622 1.524 . S
C623 C624 1.397 . S
C623 C628 1.363 . S
C624 H601 0.950 . S
C624 C623 1.397 . S
C624 C625 1.334 . S
C625 H602 0.950 . S
C625 C624 1.334 . S
C625 C626 1.287 . S
C626 C625 1.287 . S
C626 C627 1.524 . S
C626 H645 0.913 . S
C627 H603 0.950 . S
C627 C626 1.524 . S
C627 C628 1.415 . S
C628 H604 0.965 . S
C628 C623 1.363 . S
C628 C627 1.415 . S
C629 H605 0.951 . S
C629 C630 1.366 . S
C629 C631 1.388 . S
C630 C629 1.366 . S
C630 C634 1.385 . S
C631 H606 0.951 . S
C631 C629 1.388 . S
C631 C632 1.366 . S
C632 C631 1.366 . S
C632 C633 1.414 . S
C632 C635 1.499 . S
C633 H607 0.950 . S
C633 C632 1.414 . S
C633 C634 1.374 . S
C634 H608 0.950 . S
C634 C630 1.385 . S
C634 C633 1.374 . S
C635 C632 1.499 . S
C635 C636 1.373 . S
C635 C637 1.389 . S
C636 H609 0.950 . S
C636 C622 1.377 1_565 S
C636 C635 1.373 . S
C637 C621 1.377 1_565 S
C637 C635 1.389 . S
C637 C638 1.524 . S
C638 C637 1.524 . S
C638 C639 1.397 . S
C638 C643 1.363 . S
C639 H610 0.950 . S
C639 C638 1.397 . S
C639 C640 1.334 . S
C640 H611 0.950 . S
C640 C639 1.334 . S
C640 C641 1.287 . S
C641 C640 1.287 . S
C641 C642 1.524 . S
C641 H644 0.999 . S
C642 H612 0.950 . S
C642 C641 1.524 . S
C642 C643 1.415 . S
C643 H613 0.966 . S
C643 C638 1.363 . S
C643 C642 1.415 . S
H644 C641 0.999 . S
H645 C626 0.913 . S
H646 C664 0.951 . S
H647 C666 0.951 . S
H648 C668 0.950 . S
H649 C669 0.950 . S
H650 C671 0.950 . S
H651 C674 0.950 . S
H652 C675 0.950 . S
H653 C677 0.950 . S
H654 C678 0.950 . S
H655 C679 0.951 . S
H656 C681 0.951 . S
H657 C683 0.950 . S
H658 C684 0.950 . S
H659 C686 0.950 . S
H660 C689 0.950 . S
H661 C690 0.950 . S
H662 C692 0.950 . S
H663 C693 0.950 . S
C664 H646 0.951 . S
C664 C665 1.366 . S
C664 C666 1.388 . S
C665 C664 1.366 . S
C665 C669 1.385 . S
C666 H647 0.951 . S
C666 C664 1.388 . S
C666 C667 1.366 . S
C667 C666 1.366 . S
C667 C668 1.414 . S
C667 C670 1.499 . S
C668 H648 0.950 . S
C668 C667 1.414 . S
C668 C669 1.374 . S
C669 H649 0.950 . S
C669 C665 1.385 . S
C669 C668 1.374 . S
C670 C667 1.499 . S
C670 C671 1.373 . S
C670 C672 1.389 . S
C671 H650 0.950 . S
C671 C670 1.373 . S
C671 C687 1.377 . S
C672 C670 1.389 . S
C672 C673 1.524 . S
C672 C686 1.377 . S
C673 C672 1.524 . S
C673 C674 1.397 . S
C673 C678 1.363 . S
C674 H651 0.950 . S
C674 C673 1.397 . S
C674 C675 1.334 1_556 S
C675 H652 0.950 . S
C675 C674 1.334 1_554 S
C675 C676 1.287 1_554 S
C676 C675 1.287 1_556 S
C676 C677 1.524 . S
C676 H695 0.913 1_556 S
C677 H653 0.950 . S
C677 C676 1.524 . S
C677 C678 1.415 . S
C678 H654 0.950 . S
C678 C673 1.363 . S
C678 C677 1.415 . S
C679 H655 0.951 . S
C679 C680 1.366 . S
C679 C681 1.388 . S
C680 C679 1.366 . S
C680 C684 1.385 . S
C681 H656 0.951 . S
C681 C679 1.388 . S
C681 C682 1.366 . S
C682 C681 1.366 . S
C682 C683 1.414 . S
C682 C685 1.499 . S
C683 H657 0.950 . S
C683 C682 1.414 . S
C683 C684 1.374 . S
C684 H658 0.950 . S
C684 C680 1.385 . S
C684 C683 1.374 . S
C685 C682 1.499 . S
C685 C686 1.373 . S
C685 C687 1.389 . S
C686 H659 0.950 . S
C686 C672 1.377 . S
C686 C685 1.373 . S
C687 C671 1.377 . S
C687 C685 1.389 . S
C687 C688 1.524 . S
C688 C687 1.524 . S
C688 C689 1.397 . S
C688 C693 1.363 . S
C689 H660 0.950 . S
C689 C688 1.397 . S
C689 C690 1.334 . S
C690 H661 0.950 . S
C690 C689 1.334 . S
C690 C691 1.287 . S
C691 C690 1.287 . S
C691 C692 1.524 . S
C691 H694 0.999 . S
C692 H662 0.950 . S
C692 C691 1.524 . S
C692 C693 1.415 . S
C693 H663 0.950 . S
C693 C688 1.363 . S
C693 C692 1.415 . S
H694 C691 0.999 . S
H695 C676 0.913 1_554 S
H696 C714 0.951 . S
H697 C716 0.951 . S
H698 C718 0.950 . S
H699 C719 0.950 . S
H700 C721 0.950 . S
H701 C724 0.950 . S
H702 C725 0.950 . S
H703 C727 0.950 . S
H704 C728 0.950 . S
H705 C729 0.951 . S
H706 C731 0.951 . S
H707 C733 0.950 . S
H708 C734 0.950 . S
H709 C736 0.950 . S
H710 C739 0.950 . S
H711 C740 0.950 . S
H712 C742 0.950 . S
H713 C743 0.950 . S
C714 H696 0.951 . S
C714 C715 1.366 . S
C714 C716 1.388 . S
C715 C714 1.366 . S
C715 C719 1.385 . S
C716 H697 0.951 . S
C716 C714 1.388 . S
C716 C717 1.366 . S
C717 C716 1.366 . S
C717 C718 1.414 . S
C717 C720 1.499 . S
C718 H698 0.950 . S
C718 C717 1.414 . S
C718 C719 1.374 . S
C719 H699 0.950 . S
C719 C715 1.385 . S
C719 C718 1.374 . S
C720 C717 1.499 . S
C720 C721 1.373 . S
C720 C722 1.389 . S
C721 H700 0.950 . S
C721 C720 1.373 . S
C721 C737 1.377 . S
C722 C720 1.389 . S
C722 C723 1.524 . S
C722 C736 1.377 . S
C723 C722 1.524 . S
C723 C724 1.397 . S
C723 C728 1.363 . S
C724 H701 0.950 . S
C724 C723 1.397 . S
C724 C725 1.334 . S
C725 H702 0.950 . S
C725 C724 1.334 . S
C725 C726 1.287 . S
C726 C725 1.287 . S
C726 C727 1.524 . S
C726 H745 0.913 . S
C727 H703 0.950 . S
C727 C726 1.524 . S
C727 C728 1.415 . S
C728 H704 0.950 . S
C728 C723 1.363 . S
C728 C727 1.415 . S
C729 H705 0.951 . S
C729 C730 1.366 . S
C729 C731 1.388 . S
C730 C729 1.366 . S
C730 C734 1.385 . S
C731 H706 0.951 . S
C731 C729 1.388 . S
C731 C732 1.366 . S
C732 C731 1.366 . S
C732 C733 1.414 . S
C732 C735 1.499 . S
C733 H707 0.950 . S
C733 C732 1.414 . S
C733 C734 1.374 . S
C734 H708 0.950 . S
C734 C730 1.385 . S
C734 C733 1.374 . S
C735 C732 1.499 . S
C735 C736 1.373 . S
C735 C737 1.389 . S
C736 H709 0.950 . S
C736 C722 1.377 . S
C736 C735 1.373 . S
C737 C721 1.377 . S
C737 C735 1.389 . S
C737 C738 1.524 . S
C738 C737 1.524 . S
C738 C739 1.397 . S
C738 C743 1.363 . S
C739 H710 0.950 . S
C739 C738 1.397 . S
C739 C740 1.334 . S
C740 H711 0.950 . S
C740 C739 1.334 . S
C740 C741 1.287 . S
C741 C740 1.287 . S
C741 C742 1.524 . S
C741 H744 0.999 . S
C742 H712 0.950 . S
C742 C741 1.524 . S
C742 C743 1.415 . S
C743 H713 0.950 . S
C743 C738 1.363 . S
C743 C742 1.415 . S
H744 C741 0.999 . S
H745 C726 0.913 . S
H746 C764 0.951 . S
H747 C766 0.951 . S
H748 C768 0.950 . S
H749 C769 0.950 . S
H750 C771 0.950 . S
H751 C774 0.950 . S
H752 C775 0.950 . S
H753 C777 0.950 . S
H754 C778 0.950 . S
H755 C779 0.951 . S
H756 C781 0.951 . S
H757 C783 0.950 . S
H758 C784 0.950 . S
H759 C786 0.950 1_554 S
H760 C789 0.950 . S
H761 C790 0.950 . S
H762 C792 0.950 . S
H763 C793 0.950 . S
C764 H746 0.951 . S
C764 C765 1.366 . S
C764 C766 1.388 . S
C765 C764 1.366 . S
C765 C769 1.385 . S
C766 H747 0.951 . S
C766 C764 1.388 . S
C766 C767 1.366 . S
C767 C766 1.366 . S
C767 C768 1.414 . S
C767 C770 1.499 . S
C768 H748 0.950 . S
C768 C767 1.414 . S
C768 C769 1.374 . S
C769 H749 0.950 . S
C769 C765 1.385 . S
C769 C768 1.374 . S
C770 C767 1.499 . S
C770 C771 1.373 . S
C770 C772 1.389 . S
C771 H750 0.950 . S
C771 C770 1.373 . S
C771 C787 1.377 . S
C772 C770 1.389 . S
C772 C773 1.524 . S
C772 C786 1.377 . S
C773 C772 1.524 . S
C773 C774 1.397 . S
C773 C778 1.363 . S
C774 H751 0.950 . S
C774 C773 1.397 . S
C774 C775 1.334 . S
C775 H752 0.950 . S
C775 C774 1.334 . S
C775 C776 1.287 . S
C776 C775 1.287 . S
C776 C777 1.524 . S
C776 H795 0.913 . S
C777 H753 0.950 . S
C777 C776 1.524 . S
C777 C778 1.415 . S
C778 H754 0.950 . S
C778 C773 1.363 . S
C778 C777 1.415 . S
C779 H755 0.951 . S
C779 C780 1.366 . S
C779 C781 1.388 . S
C780 C779 1.366 . S
C780 C784 1.385 . S
C781 H756 0.951 . S
C781 C779 1.388 . S
C781 C782 1.366 . S
C782 C781 1.366 . S
C782 C783 1.414 . S
C782 C785 1.499 . S
C783 H757 0.950 . S
C783 C782 1.414 . S
C783 C784 1.374 . S
C784 H758 0.950 . S
C784 C780 1.385 . S
C784 C783 1.374 . S
C785 C782 1.499 . S
C785 C786 1.373 1_554 S
C785 C787 1.389 1_554 S
C786 H759 0.950 1_556 S
C786 C772 1.377 . S
C786 C785 1.373 1_556 S
C787 C771 1.377 . S
C787 C785 1.389 1_556 S
C787 C788 1.524 1_556 S
C788 C787 1.524 1_554 S
C788 C789 1.397 . S
C788 C793 1.363 1_554 S
C789 H760 0.950 . S
C789 C788 1.397 . S
C789 C790 1.334 . S
C790 H761 0.950 . S
C790 C789 1.334 . S
C790 C791 1.287 . S
C791 C790 1.287 . S
C791 C792 1.524 . S
C791 H794 0.999 . S
C792 H762 0.950 . S
C792 C791 1.524 . S
C792 C793 1.415 1_554 S
C793 H763 0.950 . S
C793 C788 1.363 1_556 S
C793 C792 1.415 1_556 S
H794 C791 0.999 . S
H795 C776 0.913 . S
H796 C814 0.951 . S
H797 C816 0.951 . S
H798 C818 0.950 . S
H799 C819 0.950 . S
H800 C821 0.950 . S
H801 C824 0.950 . S
H802 C825 0.950 . S
H803 C827 0.950 . S
H804 C828 0.950 . S
H805 C829 0.951 . S
H806 C831 0.951 . S
H807 C833 0.950 . S
H808 C834 0.950 . S
H809 C836 0.950 . S
H810 C839 0.950 . S
H811 C840 0.950 . S
H812 C842 0.950 . S
H813 C843 0.950 . S
C814 H796 0.951 . S
C814 C815 1.366 . S
C814 C816 1.388 . S
C815 C814 1.366 . S
C815 C819 1.385 . S
C816 H797 0.951 . S
C816 C814 1.388 . S
C816 C817 1.366 . S
C817 C816 1.366 . S
C817 C818 1.414 . S
C817 C820 1.499 . S
C818 H798 0.950 . S
C818 C817 1.414 . S
C818 C819 1.374 . S
C819 H799 0.950 . S
C819 C815 1.385 . S
C819 C818 1.374 . S
C820 C817 1.499 . S
C820 C821 1.373 . S
C820 C822 1.389 . S
C821 H800 0.950 . S
C821 C820 1.373 . S
C821 C837 1.377 . S
C822 C820 1.389 . S
C822 C823 1.524 . S
C822 C836 1.377 . S
C823 C822 1.524 . S
C823 C824 1.397 . S
C823 C828 1.363 . S
C824 H801 0.950 . S
C824 C823 1.397 . S
C824 C825 1.334 . S
C825 H802 0.950 . S
C825 C824 1.334 . S
C825 C826 1.287 . S
C826 C825 1.287 . S
C826 C827 1.524 . S
C826 H845 0.913 . S
C827 H803 0.950 . S
C827 C826 1.524 . S
C827 C828 1.415 . S
C828 H804 0.950 . S
C828 C823 1.363 . S
C828 C827 1.415 . S
C829 H805 0.951 . S
C829 C830 1.366 . S
C829 C831 1.388 . S
C830 C829 1.366 . S
C830 C834 1.385 . S
C831 H806 0.951 . S
C831 C829 1.388 . S
C831 C832 1.366 . S
C832 C831 1.366 . S
C832 C833 1.414 . S
C832 C835 1.499 . S
C833 H807 0.950 . S
C833 C832 1.414 . S
C833 C834 1.374 . S
C834 H808 0.950 . S
C834 C830 1.385 . S
C834 C833 1.374 . S
C835 C832 1.499 . S
C835 C836 1.373 . S
C835 C837 1.389 . S
C836 H809 0.950 . S
C836 C822 1.377 . S
C836 C835 1.373 . S
C837 C821 1.377 . S
C837 C835 1.389 . S
C837 C838 1.524 . S
C838 C837 1.524 . S
C838 C839 1.397 . S
C838 C843 1.363 . S
C839 H810 0.950 . S
C839 C838 1.397 . S
C839 C840 1.334 . S
C840 H811 0.950 . S
C840 C839 1.334 . S
C840 C841 1.287 . S
C841 C840 1.287 . S
C841 C842 1.524 . S
C841 H844 0.999 . S
C842 H812 0.950 . S
C842 C841 1.524 . S
C842 C843 1.415 . S
C843 H813 0.950 . S
C843 C838 1.363 . S
C843 C842 1.415 . S
H844 C841 0.999 . S
H845 C826 0.913 . S
H846 C864 0.951 . S
H847 C866 0.951 . S
H848 C868 0.950 . S
H849 C869 0.950 . S
H850 C871 0.950 . S
H851 C874 0.950 . S
H852 C875 0.950 . S
H853 C877 0.950 . S
H854 C878 0.950 . S
H855 C879 0.951 . S
H856 C881 0.951 . S
H857 C883 0.950 . S
H858 C884 0.950 . S
H859 C886 0.950 . S
H860 C889 0.950 . S
H861 C890 0.950 . S
H862 C892 0.950 . S
H863 C893 0.950 . S
C864 H846 0.951 . S
C864 C865 1.366 . S
C864 C866 1.388 . S
C865 C864 1.366 . S
C865 C869 1.385 . S
C866 H847 0.951 . S
C866 C864 1.388 . S
C866 C867 1.366 . S
C867 C866 1.366 . S
C867 C868 1.414 . S
C867 C870 1.499 . S
C868 H848 0.950 . S
C868 C867 1.414 . S
C868 C869 1.374 . S
C869 H849 0.950 . S
C869 C865 1.385 . S
C869 C868 1.374 . S
C870 C867 1.499 . S
C870 C871 1.373 . S
C870 C872 1.389 . S
C871 H850 0.950 . S
C871 C870 1.373 . S
C871 C887 1.377 . S
C872 C870 1.389 . S
C872 C873 1.524 . S
C872 C886 1.377 . S
C873 C872 1.524 . S
C873 C874 1.397 . S
C873 C878 1.363 . S
C874 H851 0.950 . S
C874 C873 1.397 . S
C874 C875 1.334 . S
C875 H852 0.950 . S
C875 C874 1.334 . S
C875 C876 1.287 . S
C876 C875 1.287 . S
C876 C877 1.524 . S
C876 H895 0.913 . S
C877 H853 0.950 . S
C877 C876 1.524 . S
C877 C878 1.415 . S
C878 H854 0.950 . S
C878 C873 1.363 . S
C878 C877 1.415 . S
C879 H855 0.951 . S
C879 C880 1.366 . S
C879 C881 1.388 . S
C880 C879 1.366 . S
C880 C884 1.385 . S
C881 H856 0.951 . S
C881 C879 1.388 . S
C881 C882 1.366 . S
C882 C881 1.366 . S
C882 C883 1.414 . S
C882 C885 1.499 . S
C883 H857 0.950 . S
C883 C882 1.414 . S
C883 C884 1.374 . S
C884 H858 0.950 . S
C884 C880 1.385 . S
C884 C883 1.374 . S
C885 C882 1.499 . S
C885 C886 1.373 . S
C885 C887 1.389 . S
C886 H859 0.950 . S
C886 C872 1.377 . S
C886 C885 1.373 . S
C887 C871 1.377 . S
C887 C885 1.389 . S
C887 C888 1.524 . S
C888 C887 1.524 . S
C888 C889 1.397 . S
C888 C893 1.363 . S
C889 H860 0.950 . S
C889 C888 1.397 . S
C889 C890 1.334 . S
C890 H861 0.950 . S
C890 C889 1.334 . S
C890 C891 1.287 . S
C891 C890 1.287 . S
C891 C892 1.524 . S
C891 H894 0.999 . S
C892 H862 0.950 . S
C892 C891 1.524 . S
C892 C893 1.415 . S
C893 H863 0.950 . S
C893 C888 1.363 . S
C893 C892 1.415 . S
H894 C891 0.999 . S
H895 C876 0.913 . S
H896 C914 0.951 . S
H897 C916 0.951 . S
H898 C918 0.950 . S
H899 C919 0.950 . S
H900 C921 0.950 1_554 S
H901 C924 0.950 . S
H902 C925 0.950 . S
H903 C927 0.950 . S
H904 C928 0.950 . S
H905 C929 0.951 . S
H906 C931 0.951 . S
H907 C933 0.950 . S
H908 C934 0.950 . S
H909 C936 0.950 . S
H910 C939 0.950 . S
H911 C940 0.950 . S
H912 C942 0.950 . S
H913 C943 0.950 . S
C914 H896 0.951 . S
C914 C915 1.366 . S
C914 C916 1.388 . S
C915 C914 1.366 . S
C915 C919 1.385 . S
C916 H897 0.951 . S
C916 C914 1.388 . S
C916 C917 1.366 . S
C917 C916 1.366 . S
C917 C918 1.414 . S
C917 C920 1.499 . S
C918 H898 0.950 . S
C918 C917 1.414 . S
C918 C919 1.374 . S
C919 H899 0.950 . S
C919 C915 1.385 . S
C919 C918 1.374 . S
C920 C917 1.499 . S
C920 C921 1.373 1_554 S
C920 C922 1.389 1_554 S
C921 H900 0.950 1_556 S
C921 C920 1.373 1_556 S
C921 C937 1.377 . S
C922 C920 1.389 1_556 S
C922 C923 1.524 1_556 S
C922 C936 1.377 . S
C923 C922 1.524 1_554 S
C923 C924 1.397 . S
C923 C928 1.363 1_554 S
C924 H901 0.950 . S
C924 C923 1.397 . S
C924 C925 1.334 . S
C925 H902 0.950 . S
C925 C924 1.334 . S
C925 C926 1.287 . S
C926 C925 1.287 . S
C926 C927 1.524 . S
C926 H945 0.913 . S
C927 H903 0.950 . S
C927 C926 1.524 . S
C927 C928 1.415 1_554 S
C928 H904 0.950 . S
C928 C923 1.363 1_556 S
C928 C927 1.415 1_556 S
C929 H905 0.951 . S
C929 C930 1.366 . S
C929 C931 1.388 . S
C930 C929 1.366 . S
C930 C934 1.385 . S
C931 H906 0.951 . S
C931 C929 1.388 . S
C931 C932 1.366 . S
C932 C931 1.366 . S
C932 C933 1.414 . S
C932 C935 1.499 . S
C933 H907 0.950 . S
C933 C932 1.414 . S
C933 C934 1.374 . S
C934 H908 0.950 . S
C934 C930 1.385 . S
C934 C933 1.374 . S
C935 C932 1.499 . S
C935 C936 1.373 . S
C935 C937 1.389 . S
C936 H909 0.950 . S
C936 C922 1.377 . S
C936 C935 1.373 . S
C937 C921 1.377 . S
C937 C935 1.389 . S
C937 C938 1.524 . S
C938 C937 1.524 . S
C938 C939 1.397 . S
C938 C943 1.363 . S
C939 H910 0.950 . S
C939 C938 1.397 . S
C939 C940 1.334 . S
C940 H911 0.950 . S
C940 C939 1.334 . S
C940 C941 1.287 . S
C941 C940 1.287 . S
C941 C942 1.524 . S
C941 H944 0.999 . S
C942 H912 0.950 . S
C942 C941 1.524 . S
C942 C943 1.415 . S
C943 H913 0.950 . S
C943 C938 1.363 . S
C943 C942 1.415 . S
H944 C941 0.999 . S
H945 C926 0.913 . S
H946 C964 0.951 . S
H947 C966 0.951 . S
H948 C968 0.950 . S
H949 C969 0.950 . S
H950 C971 0.950 . S
H951 C974 0.950 . S
H952 C975 0.950 . S
H953 C977 0.950 . S
H954 C978 0.950 . S
H955 C979 0.951 . S
H956 C981 0.951 . S
H957 C983 0.950 . S
H958 C984 0.950 . S
H959 C986 0.950 . S
H960 C989 0.950 . S
H961 C990 0.950 . S
H962 C992 0.950 . S
H963 C993 0.950 . S
C964 H946 0.951 . S
C964 C965 1.366 . S
C964 C966 1.388 . S
C965 C964 1.366 . S
C965 C969 1.385 . S
C966 H947 0.951 . S
C966 C964 1.388 . S
C966 C967 1.366 . S
C967 C966 1.366 . S
C967 C968 1.414 . S
C967 C970 1.499 . S
C968 H948 0.950 . S
C968 C967 1.414 . S
C968 C969 1.374 . S
C969 H949 0.950 . S
C969 C965 1.385 . S
C969 C968 1.374 . S
C970 C967 1.499 . S
C970 C971 1.373 . S
C970 C972 1.389 . S
C971 H950 0.950 . S
C971 C970 1.373 . S
C971 C987 1.377 . S
C972 C970 1.389 . S
C972 C973 1.524 . S
C972 C986 1.377 . S
C973 C972 1.524 . S
C973 C974 1.397 . S
C973 C978 1.363 . S
C974 H951 0.950 . S
C974 C973 1.397 . S
C974 C975 1.334 . S
C975 H952 0.950 . S
C975 C974 1.334 . S
C975 C976 1.287 . S
C976 C975 1.287 . S
C976 C977 1.524 . S
C976 H995 0.913 . S
C977 H953 0.950 . S
C977 C976 1.524 . S
C977 C978 1.415 . S
C978 H954 0.950 . S
C978 C973 1.363 . S
C978 C977 1.415 . S
C979 H955 0.951 . S
C979 C980 1.366 . S
C979 C981 1.388 . S
C980 C979 1.366 . S
C980 C984 1.385 . S
C981 H956 0.951 . S
C981 C979 1.388 . S
C981 C982 1.366 . S
C982 C981 1.366 . S
C982 C983 1.414 . S
C982 C985 1.499 . S
C983 H957 0.950 . S
C983 C982 1.414 . S
C983 C984 1.374 . S
C984 H958 0.950 . S
C984 C980 1.385 . S
C984 C983 1.374 . S
C985 C982 1.499 . S
C985 C986 1.373 . S
C985 C987 1.389 . S
C986 H959 0.950 . S
C986 C972 1.377 . S
C986 C985 1.373 . S
C987 C971 1.377 . S
C987 C985 1.389 . S
C987 C988 1.524 . S
C988 C987 1.524 . S
C988 C989 1.397 . S
C988 C993 1.363 . S
C989 H960 0.950 . S
C989 C988 1.397 . S
C989 C990 1.334 . S
C990 H961 0.950 . S
C990 C989 1.334 . S
C990 C991 1.287 . S
C991 C990 1.287 . S
C991 C992 1.524 . S
C991 H994 0.999 . S
C992 H962 0.950 . S
C992 C991 1.524 . S
C992 C993 1.415 . S
C993 H963 0.950 . S
C993 C988 1.363 . S
C993 C992 1.415 . S
H994 C991 0.999 . S
H995 C976 0.913 . S
H996 C1014 0.951 . S
H997 C1016 0.951 . S
H998 C1018 0.950 . S
H999 C1019 0.950 . S
H1000 C1021 0.950 1_556 S
H1001 C1024 0.950 . S
H1002 C1025 0.950 . S
H1003 C1027 0.950 . S
H1004 C1028 0.950 . S
H1005 C1029 0.951 . S
H1006 C1031 0.951 . S
H1007 C1033 0.950 . S
H1008 C1034 0.950 . S
H1009 C1036 0.950 . S
H1010 C1039 0.950 . S
H1011 C1040 0.950 . S
H1012 C1042 0.950 . S
H1013 C1043 0.950 . S
C1014 H996 0.951 . S
C1014 C1015 1.366 . S
C1014 C1016 1.388 . S
C1015 C1014 1.366 . S
C1015 C1019 1.385 . S
C1016 H997 0.951 . S
C1016 C1014 1.388 . S
C1016 C1017 1.366 . S
C1017 C1016 1.366 . S
C1017 C1018 1.414 . S
C1017 C1020 1.499 . S
C1018 H998 0.950 . S
C1018 C1017 1.414 . S
C1018 C1019 1.374 . S
C1019 H999 0.950 . S
C1019 C1015 1.385 . S
C1019 C1018 1.374 . S
C1020 C1017 1.499 . S
C1020 C1021 1.373 1_556 S
C1020 C1022 1.389 1_556 S
C1021 H1000 0.950 1_554 S
C1021 C1020 1.373 1_554 S
C1021 C1037 1.377 . S
C1022 C1020 1.389 1_554 S
C1022 C1023 1.524 1_554 S
C1022 C1036 1.377 . S
C1023 C1022 1.524 1_556 S
C1023 C1024 1.397 . S
C1023 C1028 1.363 1_556 S
C1024 H1001 0.950 . S
C1024 C1023 1.397 . S
C1024 C1025 1.334 . S
C1025 H1002 0.950 . S
C1025 C1024 1.334 . S
C1025 C1026 1.287 . S
C1026 C1025 1.287 . S
C1026 C1027 1.524 . S
C1026 H1045 0.913 . S
C1027 H1003 0.950 . S
C1027 C1026 1.524 . S
C1027 C1028 1.415 1_556 S
C1028 H1004 0.950 . S
C1028 C1023 1.363 1_554 S
C1028 C1027 1.415 1_554 S
C1029 H1005 0.951 . S
C1029 C1030 1.366 . S
C1029 C1031 1.388 . S
C1030 C1029 1.366 . S
C1030 C1034 1.385 . S
C1031 H1006 0.951 . S
C1031 C1029 1.388 . S
C1031 C1032 1.366 . S
C1032 C1031 1.366 . S
C1032 C1033 1.414 . S
C1032 C1035 1.499 . S
C1033 H1007 0.950 . S
C1033 C1032 1.414 . S
C1033 C1034 1.374 . S
C1034 H1008 0.950 . S
C1034 C1030 1.385 . S
C1034 C1033 1.374 . S
C1035 C1032 1.499 . S
C1035 C1036 1.373 . S
C1035 C1037 1.389 . S
C1036 H1009 0.950 . S
C1036 C1022 1.377 . S
C1036 C1035 1.373 . S
C1037 C1021 1.377 . S
C1037 C1035 1.389 . S
C1037 C1038 1.524 . S
C1038 C1037 1.524 . S
C1038 C1039 1.397 . S
C1038 C1043 1.363 . S
C1039 H1010 0.950 . S
C1039 C1038 1.397 . S
C1039 C1040 1.334 . S
C1040 H1011 0.950 . S
C1040 C1039 1.334 . S
C1040 C1041 1.287 . S
C1041 C1040 1.287 . S
C1041 C1042 1.524 . S
C1041 H1044 0.999 . S
C1042 H1012 0.950 . S
C1042 C1041 1.524 . S
C1042 C1043 1.415 . S
C1043 H1013 0.950 . S
C1043 C1038 1.363 . S
C1043 C1042 1.415 . S
H1044 C1041 0.999 . S
H1045 C1026 0.913 . S
H1046 C1064 0.951 . S
H1047 C1066 0.951 . S
H1048 C1068 0.950 . S
H1049 C1069 0.950 . S
H1050 C1071 0.950 . S
H1051 C1074 0.950 . S
H1052 C1075 0.950 . S
H1053 C1077 0.950 . S
H1054 C1078 0.950 . S
H1055 C1079 0.951 . S
H1056 C1081 0.951 . S
H1057 C1083 0.950 . S
H1058 C1084 0.950 . S
H1059 C1086 0.950 . S
H1060 C1089 0.950 . S
H1061 C1090 0.950 . S
H1062 C1092 0.950 . S
H1063 C1093 0.950 . S
C1064 H1046 0.951 . S
C1064 C1065 1.366 . S
C1064 C1066 1.388 . S
C1065 C1064 1.366 . S
C1065 C1069 1.385 . S
C1066 H1047 0.951 . S
C1066 C1064 1.388 . S
C1066 C1067 1.366 . S
C1067 C1066 1.366 . S
C1067 C1068 1.414 . S
C1067 C1070 1.499 . S
C1068 H1048 0.950 . S
C1068 C1067 1.414 . S
C1068 C1069 1.374 . S
C1069 H1049 0.950 . S
C1069 C1065 1.385 . S
C1069 C1068 1.374 . S
C1070 C1067 1.499 . S
C1070 C1071 1.373 . S
C1070 C1072 1.389 . S
C1071 H1050 0.950 . S
C1071 C1070 1.373 . S
C1071 C1087 1.377 . S
C1072 C1070 1.389 . S
C1072 C1073 1.524 . S
C1072 C1086 1.377 . S
C1073 C1072 1.524 . S
C1073 C1074 1.397 . S
C1073 C1078 1.363 . S
C1074 H1051 0.950 . S
C1074 C1073 1.397 . S
C1074 C1075 1.334 . S
C1075 H1052 0.950 . S
C1075 C1074 1.334 . S
C1075 C1076 1.287 . S
C1076 C1075 1.287 . S
C1076 C1077 1.524 . S
C1076 H1095 0.913 . S
C1077 H1053 0.950 . S
C1077 C1076 1.524 . S
C1077 C1078 1.415 . S
C1078 H1054 0.950 . S
C1078 C1073 1.363 . S
C1078 C1077 1.415 . S
C1079 H1055 0.951 . S
C1079 C1080 1.366 . S
C1079 C1081 1.388 . S
C1080 C1079 1.366 . S
C1080 C1084 1.385 . S
C1081 H1056 0.951 . S
C1081 C1079 1.388 . S
C1081 C1082 1.366 . S
C1082 C1081 1.366 . S
C1082 C1083 1.414 . S
C1082 C1085 1.499 . S
C1083 H1057 0.950 . S
C1083 C1082 1.414 . S
C1083 C1084 1.374 . S
C1084 H1058 0.950 . S
C1084 C1080 1.385 . S
C1084 C1083 1.374 . S
C1085 C1082 1.499 . S
C1085 C1086 1.373 . S
C1085 C1087 1.389 . S
C1086 H1059 0.950 . S
C1086 C1072 1.377 . S
C1086 C1085 1.373 . S
C1087 C1071 1.377 . S
C1087 C1085 1.389 . S
C1087 C1088 1.524 . S
C1088 C1087 1.524 . S
C1088 C1089 1.397 . S
C1088 C1093 1.363 . S
C1089 H1060 0.950 . S
C1089 C1088 1.397 . S
C1089 C1090 1.334 . S
C1090 H1061 0.950 . S
C1090 C1089 1.334 . S
C1090 C1091 1.287 . S
C1091 C1090 1.287 . S
C1091 C1092 1.524 . S
C1091 H1094 0.999 . S
C1092 H1062 0.950 . S
C1092 C1091 1.524 . S
C1092 C1093 1.415 . S
C1093 H1063 0.950 . S
C1093 C1088 1.363 . S
C1093 C1092 1.415 . S
H1094 C1091 0.999 . S
H1095 C1076 0.913 . S
H1096 C1114 0.951 . S
H1097 C1116 0.951 . S
H1098 C1118 0.950 . S
H1099 C1119 0.950 . S
H1100 C1121 0.950 . S
H1101 C1124 0.950 . S
H1102 C1125 0.950 . S
H1103 C1127 0.950 . S
H1104 C1128 0.950 . S
H1105 C1129 0.951 . S
H1106 C1131 0.951 . S
H1107 C1133 0.950 . S
H1108 C1134 0.950 . S
H1109 C1136 0.950 . S
H1110 C1139 0.950 . S
H1111 C1140 0.950 . S
H1112 C1142 0.950 . S
H1113 C1143 0.950 . S
C1114 H1096 0.951 . S
C1114 C1115 1.366 . S
C1114 C1116 1.388 . S
C1115 C1114 1.366 . S
C1115 C1119 1.385 . S
C1116 H1097 0.951 . S
C1116 C1114 1.388 . S
C1116 C1117 1.366 . S
C1117 C1116 1.366 . S
C1117 C1118 1.414 . S
C1117 C1120 1.499 . S
C1118 H1098 0.950 . S
C1118 C1117 1.414 . S
C1118 C1119 1.374 . S
C1119 H1099 0.950 . S
C1119 C1115 1.385 . S
C1119 C1118 1.374 . S
C1120 C1117 1.499 . S
C1120 C1121 1.373 . S
C1120 C1122 1.389 . S
C1121 H1100 0.950 . S
C1121 C1120 1.373 . S
C1121 C1137 1.377 . S
C1122 C1120 1.389 . S
C1122 C1123 1.524 . S
C1122 C1136 1.377 . S
C1123 C1122 1.524 . S
C1123 C1124 1.397 . S
C1123 C1128 1.363 . S
C1124 H1101 0.950 . S
C1124 C1123 1.397 . S
C1124 C1125 1.334 . S
C1125 H1102 0.950 . S
C1125 C1124 1.334 . S
C1125 C1126 1.287 . S
C1126 C1125 1.287 . S
C1126 C1127 1.524 . S
C1126 H1145 0.913 . S
C1127 H1103 0.950 . S
C1127 C1126 1.524 . S
C1127 C1128 1.415 . S
C1128 H1104 0.950 . S
C1128 C1123 1.363 . S
C1128 C1127 1.415 . S
C1129 H1105 0.951 . S
C1129 C1130 1.366 . S
C1129 C1131 1.388 . S
C1130 C1129 1.366 . S
C1130 C1134 1.385 . S
C1131 H1106 0.951 . S
C1131 C1129 1.388 . S
C1131 C1132 1.366 . S
C1132 C1131 1.366 . S
C1132 C1133 1.414 . S
C1132 C1135 1.499 . S
C1133 H1107 0.950 . S
C1133 C1132 1.414 . S
C1133 C1134 1.374 . S
C1134 H1108 0.950 . S
C1134 C1130 1.385 . S
C1134 C1133 1.374 . S
C1135 C1132 1.499 . S
C1135 C1136 1.373 . S
C1135 C1137 1.389 . S
C1136 H1109 0.950 . S
C1136 C1122 1.377 . S
C1136 C1135 1.373 . S
C1137 C1121 1.377 . S
C1137 C1135 1.389 . S
C1137 C1138 1.524 . S
C1138 C1137 1.524 . S
C1138 C1139 1.397 . S
C1138 C1143 1.363 . S
C1139 H1110 0.950 . S
C1139 C1138 1.397 . S
C1139 C1140 1.334 . S
C1140 H1111 0.950 . S
C1140 C1139 1.334 . S
C1140 C1141 1.287 . S
C1141 C1140 1.287 . S
C1141 C1142 1.524 . S
C1141 H1144 0.999 . S
C1142 H1112 0.950 . S
C1142 C1141 1.524 . S
C1142 C1143 1.415 . S
C1143 H1113 0.950 . S
C1143 C1138 1.363 . S
C1143 C1142 1.415 . S
H1144 C1141 0.999 . S
H1145 C1126 0.913 . S
H1146 C1164 0.951 . S
H1147 C1166 0.951 . S
H1148 C1168 0.950 . S
H1149 C1169 0.950 . S
H1150 C1171 0.950 . S
H1151 C1174 0.950 . S
H1152 C1175 0.950 . S
H1153 C1177 0.950 . S
H1154 C1178 0.950 . S
H1155 C1179 0.951 . S
H1156 C1181 0.951 . S
H1157 C1183 0.950 . S
H1158 C1184 0.950 . S
H1159 C1186 0.950 1_556 S
H1160 C1189 0.950 . S
H1161 C1190 0.950 . S
H1162 C1192 0.950 . S
H1163 C1193 0.950 . S
C1164 H1146 0.951 . S
C1164 C1165 1.366 . S
C1164 C1166 1.388 . S
C1165 C1164 1.366 . S
C1165 C1169 1.385 . S
C1166 H1147 0.951 . S
C1166 C1164 1.388 . S
C1166 C1167 1.366 . S
C1167 C1166 1.366 . S
C1167 C1168 1.414 . S
C1167 C1170 1.499 . S
C1168 H1148 0.950 . S
C1168 C1167 1.414 . S
C1168 C1169 1.374 . S
C1169 H1149 0.950 . S
C1169 C1165 1.385 . S
C1169 C1168 1.374 . S
C1170 C1167 1.499 . S
C1170 C1171 1.373 . S
C1170 C1172 1.389 . S
C1171 H1150 0.950 . S
C1171 C1170 1.373 . S
C1171 C1187 1.377 . S
C1172 C1170 1.389 . S
C1172 C1173 1.524 . S
C1172 C1186 1.377 . S
C1173 C1172 1.524 . S
C1173 C1174 1.397 . S
C1173 C1178 1.363 . S
C1174 H1151 0.950 . S
C1174 C1173 1.397 . S
C1174 C1175 1.334 . S
C1175 H1152 0.950 . S
C1175 C1174 1.334 . S
C1175 C1176 1.287 . S
C1176 C1175 1.287 . S
C1176 C1177 1.524 . S
C1176 H1195 0.913 . S
C1177 H1153 0.950 . S
C1177 C1176 1.524 . S
C1177 C1178 1.415 . S
C1178 H1154 0.950 . S
C1178 C1173 1.363 . S
C1178 C1177 1.415 . S
C1179 H1155 0.951 . S
C1179 C1180 1.366 . S
C1179 C1181 1.388 . S
C1180 C1179 1.366 . S
C1180 C1184 1.385 . S
C1181 H1156 0.951 . S
C1181 C1179 1.388 . S
C1181 C1182 1.366 . S
C1182 C1181 1.366 . S
C1182 C1183 1.414 . S
C1182 C1185 1.499 . S
C1183 H1157 0.950 . S
C1183 C1182 1.414 . S
C1183 C1184 1.374 . S
C1184 H1158 0.950 . S
C1184 C1180 1.385 . S
C1184 C1183 1.374 . S
C1185 C1182 1.499 . S
C1185 C1186 1.373 1_556 S
C1185 C1187 1.389 1_556 S
C1186 H1159 0.950 1_554 S
C1186 C1172 1.377 . S
C1186 C1185 1.373 1_554 S
C1187 C1171 1.377 . S
C1187 C1185 1.389 1_554 S
C1187 C1188 1.524 1_554 S
C1188 C1187 1.524 1_556 S
C1188 C1189 1.397 . S
C1188 C1193 1.363 1_556 S
C1189 H1160 0.950 . S
C1189 C1188 1.397 . S
C1189 C1190 1.334 . S
C1190 H1161 0.950 . S
C1190 C1189 1.334 . S
C1190 C1191 1.287 . S
C1191 C1190 1.287 . S
C1191 C1192 1.524 . S
C1191 H1194 0.999 . S
C1192 H1162 0.950 . S
C1192 C1191 1.524 . S
C1192 C1193 1.415 1_556 S
C1193 H1163 0.950 . S
C1193 C1188 1.363 1_554 S
C1193 C1192 1.415 1_554 S
H1194 C1191 0.999 . S
H1195 C1176 0.913 . S
H1196 C1214 0.951 . S
H1197 C1216 0.951 . S
H1198 C1218 0.950 . S
H1199 C1219 0.950 . S
H1200 C1221 0.950 . S
H1201 C1224 0.950 . S
H1202 C1225 0.950 . S
H1203 C1227 0.950 . S
H1204 C1228 0.950 . S
H1205 C1229 0.951 . S
H1206 C1231 0.951 . S
H1207 C1233 0.950 . S
H1208 C1234 0.950 . S
H1209 C1236 0.950 . S
H1210 C1239 0.950 . S
H1211 C1240 0.950 . S
H1212 C1242 0.950 . S
H1213 C1243 0.950 . S
C1214 H1196 0.951 . S
C1214 C1215 1.366 . S
C1214 C1216 1.388 . S
C1215 C1214 1.366 . S
C1215 C1219 1.385 . S
C1216 H1197 0.951 . S
C1216 C1214 1.388 . S
C1216 C1217 1.366 . S
C1217 C1216 1.366 . S
C1217 C1218 1.414 . S
C1217 C1220 1.499 . S
C1218 H1198 0.950 . S
C1218 C1217 1.414 . S
C1218 C1219 1.374 . S
C1219 H1199 0.950 . S
C1219 C1215 1.385 . S
C1219 C1218 1.374 . S
C1220 C1217 1.499 . S
C1220 C1221 1.373 . S
C1220 C1222 1.389 . S
C1221 H1200 0.950 . S
C1221 C1220 1.373 . S
C1221 C1237 1.377 . S
C1222 C1220 1.389 . S
C1222 C1223 1.524 . S
C1222 C1236 1.377 . S
C1223 C1222 1.524 . S
C1223 C1224 1.397 . S
C1223 C1228 1.363 . S
C1224 H1201 0.950 . S
C1224 C1223 1.397 . S
C1224 C1225 1.334 . S
C1225 H1202 0.950 . S
C1225 C1224 1.334 . S
C1225 C1226 1.287 . S
C1226 C1225 1.287 . S
C1226 C1227 1.524 . S
C1226 H1245 0.913 . S
C1227 H1203 0.950 . S
C1227 C1226 1.524 . S
C1227 C1228 1.415 . S
C1228 H1204 0.950 . S
C1228 C1223 1.363 . S
C1228 C1227 1.415 . S
C1229 H1205 0.951 . S
C1229 C1230 1.366 . S
C1229 C1231 1.388 . S
C1230 C1229 1.366 . S
C1230 C1234 1.385 . S
C1231 H1206 0.951 . S
C1231 C1229 1.388 . S
C1231 C1232 1.366 . S
C1232 C1231 1.366 . S
C1232 C1233 1.414 . S
C1232 C1235 1.499 . S
C1233 H1207 0.950 . S
C1233 C1232 1.414 . S
C1233 C1234 1.374 . S
C1234 H1208 0.950 . S
C1234 C1230 1.385 . S
C1234 C1233 1.374 . S
C1235 C1232 1.499 . S
C1235 C1236 1.373 . S
C1235 C1237 1.389 . S
C1236 H1209 0.950 . S
C1236 C1222 1.377 . S
C1236 C1235 1.373 . S
C1237 C1221 1.377 . S
C1237 C1235 1.389 . S
C1237 C1238 1.524 . S
C1238 C1237 1.524 . S
C1238 C1239 1.397 . S
C1238 C1243 1.363 . S
C1239 H1210 0.950 . S
C1239 C1238 1.397 . S
C1239 C1240 1.334 . S
C1240 H1211 0.950 . S
C1240 C1239 1.334 . S
C1240 C1241 1.287 . S
C1241 C1240 1.287 . S
C1241 C1242 1.524 . S
C1241 H1244 0.999 . S
C1242 H1212 0.950 . S
C1242 C1241 1.524 . S
C1242 C1243 1.415 . S
C1243 H1213 0.950 . S
C1243 C1238 1.363 . S
C1243 C1242 1.415 . S
H1244 C1241 0.999 . S
H1245 C1226 0.913 . S
H1246 C1264 0.951 . S
H1247 C1266 0.951 . S
H1248 C1268 0.950 . S
H1249 C1269 0.950 . S
H1250 C1271 0.950 . S
H1251 C1274 0.950 . S
H1252 C1275 0.950 . S
H1253 C1277 0.950 . S
H1254 C1278 0.950 . S
H1255 C1279 0.951 . S
H1256 C1281 0.951 . S
H1257 C1283 0.950 . S
H1258 C1284 0.950 . S
H1259 C1286 0.950 . S
H1260 C1289 0.950 . S
H1261 C1290 0.950 . S
H1262 C1292 0.950 . S
H1263 C1293 0.950 . S
C1264 H1246 0.951 . S
C1264 C1265 1.366 . S
C1264 C1266 1.388 . S
C1265 C1264 1.366 . S
C1265 C1269 1.385 . S
C1266 H1247 0.951 . S
C1266 C1264 1.388 . S
C1266 C1267 1.366 . S
C1267 C1266 1.366 . S
C1267 C1268 1.414 . S
C1267 C1270 1.499 . S
C1268 H1248 0.950 . S
C1268 C1267 1.414 . S
C1268 C1269 1.374 . S
C1269 H1249 0.950 . S
C1269 C1265 1.385 . S
C1269 C1268 1.374 . S
C1270 C1267 1.499 . S
C1270 C1271 1.373 . S
C1270 C1272 1.389 . S
C1271 H1250 0.950 . S
C1271 C1270 1.373 . S
C1271 C1287 1.377 . S
C1272 C1270 1.389 . S
C1272 C1273 1.524 . S
C1272 C1286 1.377 . S
C1273 C1272 1.524 . S
C1273 C1274 1.397 . S
C1273 C1278 1.363 . S
C1274 H1251 0.950 . S
C1274 C1273 1.397 . S
C1274 C1275 1.334 . S
C1275 H1252 0.950 . S
C1275 C1274 1.334 . S
C1275 C1276 1.287 . S
C1276 C1275 1.287 . S
C1276 C1277 1.524 . S
C1276 H1295 0.913 . S
C1277 H1253 0.950 . S
C1277 C1276 1.524 . S
C1277 C1278 1.415 . S
C1278 H1254 0.950 . S
C1278 C1273 1.363 . S
C1278 C1277 1.415 . S
C1279 H1255 0.951 . S
C1279 C1280 1.366 . S
C1279 C1281 1.388 . S
C1280 C1279 1.366 . S
C1280 C1284 1.385 . S
C1281 H1256 0.951 . S
C1281 C1279 1.388 . S
C1281 C1282 1.366 . S
C1282 C1281 1.366 . S
C1282 C1283 1.414 . S
C1282 C1285 1.499 . S
C1283 H1257 0.950 . S
C1283 C1282 1.414 . S
C1283 C1284 1.374 . S
C1284 H1258 0.950 . S
C1284 C1280 1.385 . S
C1284 C1283 1.374 . S
C1285 C1282 1.499 . S
C1285 C1286 1.373 . S
C1285 C1287 1.389 . S
C1286 H1259 0.950 . S
C1286 C1272 1.377 . S
C1286 C1285 1.373 . S
C1287 C1271 1.377 . S
C1287 C1285 1.389 . S
C1287 C1288 1.524 . S
C1288 C1287 1.524 . S
C1288 C1289 1.397 . S
C1288 C1293 1.363 . S
C1289 H1260 0.950 . S
C1289 C1288 1.397 . S
C1289 C1290 1.334 . S
C1290 H1261 0.950 . S
C1290 C1289 1.334 . S
C1290 C1291 1.287 . S
C1291 C1290 1.287 . S
C1291 C1292 1.524 . S
C1291 H1294 0.999 . S
C1292 H1262 0.950 . S
C1292 C1291 1.524 . S
C1292 C1293 1.415 . S
C1293 H1263 0.950 . S
C1293 C1288 1.363 . S
C1293 C1292 1.415 . S
H1294 C1291 0.999 . S
H1295 C1276 0.913 . S
H1296 C1314 0.951 . S
H1297 C1316 0.951 . S
H1298 C1318 0.950 . S
H1299 C1319 0.950 . S
H1300 C1321 0.950 . S
H1301 C1324 0.950 . S
H1302 C1325 0.950 . S
H1303 C1327 0.950 . S
H1304 C1328 0.950 . S
H1305 C1329 0.951 . S
H1306 C1331 0.951 . S
H1307 C1333 0.950 . S
H1308 C1334 0.950 . S
H1309 C1336 0.950 . S
H1310 C1339 0.950 . S
H1311 C1340 0.950 . S
H1312 C1342 0.950 . S
H1313 C1343 0.950 . S
C1314 H1296 0.951 . S
C1314 C1315 1.366 . S
C1314 C1316 1.388 . S
C1315 C1314 1.366 . S
C1315 C1319 1.385 . S
C1316 H1297 0.951 . S
C1316 C1314 1.388 . S
C1316 C1317 1.366 . S
C1317 C1316 1.366 . S
C1317 C1318 1.414 . S
C1317 C1320 1.499 . S
C1318 H1298 0.950 . S
C1318 C1317 1.414 . S
C1318 C1319 1.374 . S
C1319 H1299 0.950 . S
C1319 C1315 1.385 . S
C1319 C1318 1.374 . S
C1320 C1317 1.499 . S
C1320 C1321 1.373 . S
C1320 C1322 1.389 . S
C1321 H1300 0.950 . S
C1321 C1320 1.373 . S
C1321 C1337 1.377 . S
C1322 C1320 1.389 . S
C1322 C1323 1.524 . S
C1322 C1336 1.377 . S
C1323 C1322 1.524 . S
C1323 C1324 1.397 . S
C1323 C1328 1.363 . S
C1324 H1301 0.950 . S
C1324 C1323 1.397 . S
C1324 C1325 1.334 . S
C1325 H1302 0.950 . S
C1325 C1324 1.334 . S
C1325 C1326 1.287 . S
C1326 C1325 1.287 . S
C1326 C1327 1.524 . S
C1326 H1345 0.913 . S
C1327 H1303 0.950 . S
C1327 C1326 1.524 . S
C1327 C1328 1.415 . S
C1328 H1304 0.950 . S
C1328 C1323 1.363 . S
C1328 C1327 1.415 . S
C1329 H1305 0.951 . S
C1329 C1330 1.366 . S
C1329 C1331 1.388 . S
C1330 C1329 1.366 . S
C1330 C1334 1.385 . S
C1331 H1306 0.951 . S
C1331 C1329 1.388 . S
C1331 C1332 1.366 . S
C1332 C1331 1.366 . S
C1332 C1333 1.414 . S
C1332 C1335 1.499 . S
C1333 H1307 0.950 . S
C1333 C1332 1.414 . S
C1333 C1334 1.374 . S
C1334 H1308 0.950 . S
C1334 C1330 1.385 . S
C1334 C1333 1.374 . S
C1335 C1332 1.499 . S
C1335 C1336 1.373 . S
C1335 C1337 1.389 . S
C1336 H1309 0.950 . S
C1336 C1322 1.377 . S
C1336 C1335 1.373 . S
C1337 C1321 1.377 . S
C1337 C1335 1.389 . S
C1337 C1338 1.524 . S
C1338 C1337 1.524 . S
C1338 C1339 1.397 . S
C1338 C1343 1.363 . S
C1339 H1310 0.950 . S
C1339 C1338 1.397 . S
C1339 C1340 1.334 1_554 S
C1340 H1311 0.950 . S
C1340 C1339 1.334 1_556 S
C1340 C1341 1.287 . S
C1341 C1340 1.287 . S
C1341 C1342 1.524 . S
C1341 H1344 0.999 . S
C1342 H1312 0.950 . S
C1342 C1341 1.524 . S
C1342 C1343 1.415 1_556 S
C1343 H1313 0.950 . S
C1343 C1338 1.363 . S
C1343 C1342 1.415 1_554 S
H1344 C1341 0.999 . S
H1345 C1326 0.913 . S
H1346 C1364 0.951 . S
H1347 C1366 0.951 . S
H1348 C1368 0.950 . S
H1349 C1369 0.950 . S
H1350 C1371 0.950 . S
H1351 C1374 0.950 . S
H1352 C1375 0.950 . S
H1353 C1377 0.950 . S
H1354 C1378 0.950 . S
H1355 C1379 0.951 . S
H1356 C1381 0.951 . S
H1357 C1383 0.950 . S
H1358 C1384 0.950 . S
H1359 C1386 0.950 . S
H1360 C1389 0.950 . S
H1361 C1390 0.950 . S
H1362 C1392 0.950 . S
H1363 C1393 0.950 . S
C1364 H1346 0.951 . S
C1364 C1365 1.366 . S
C1364 C1366 1.388 . S
C1365 C1364 1.366 . S
C1365 C1369 1.385 . S
C1366 H1347 0.951 . S
C1366 C1364 1.388 . S
C1366 C1367 1.366 . S
C1367 C1366 1.366 . S
C1367 C1368 1.414 . S
C1367 C1370 1.499 . S
C1368 H1348 0.950 . S
C1368 C1367 1.414 . S
C1368 C1369 1.374 . S
C1369 H1349 0.950 . S
C1369 C1365 1.385 . S
C1369 C1368 1.374 . S
C1370 C1367 1.499 . S
C1370 C1371 1.373 . S
C1370 C1372 1.389 . S
C1371 H1350 0.950 . S
C1371 C1370 1.373 . S
C1371 C1387 1.377 . S
C1372 C1370 1.389 . S
C1372 C1373 1.524 . S
C1372 C1386 1.377 . S
C1373 C1372 1.524 . S
C1373 C1374 1.397 . S
C1373 C1378 1.363 . S
C1374 H1351 0.950 . S
C1374 C1373 1.397 . S
C1374 C1375 1.334 . S
C1375 H1352 0.950 . S
C1375 C1374 1.334 . S
C1375 C1376 1.287 . S
C1376 C1375 1.287 . S
C1376 C1377 1.524 . S
C1376 H1395 0.913 . S
C1377 H1353 0.950 . S
C1377 C1376 1.524 . S
C1377 C1378 1.415 . S
C1378 H1354 0.950 . S
C1378 C1373 1.363 . S
C1378 C1377 1.415 . S
C1379 H1355 0.951 . S
C1379 C1380 1.366 . S
C1379 C1381 1.388 . S
C1380 C1379 1.366 . S
C1380 C1384 1.385 . S
C1381 H1356 0.951 . S
C1381 C1379 1.388 . S
C1381 C1382 1.366 . S
C1382 C1381 1.366 . S
C1382 C1383 1.414 . S
C1382 C1385 1.499 . S
C1383 H1357 0.950 . S
C1383 C1382 1.414 . S
C1383 C1384 1.374 . S
C1384 H1358 0.950 . S
C1384 C1380 1.385 . S
C1384 C1383 1.374 . S
C1385 C1382 1.499 . S
C1385 C1386 1.373 . S
C1385 C1387 1.389 . S
C1386 H1359 0.950 . S
C1386 C1372 1.377 . S
C1386 C1385 1.373 . S
C1387 C1371 1.377 . S
C1387 C1385 1.389 . S
C1387 C1388 1.524 . S
C1388 C1387 1.524 . S
C1388 C1389 1.397 . S
C1388 C1393 1.363 . S
C1389 H1360 0.950 . S
C1389 C1388 1.397 . S
C1389 C1390 1.334 . S
C1390 H1361 0.950 . S
C1390 C1389 1.334 . S
C1390 C1391 1.287 . S
C1391 C1390 1.287 . S
C1391 C1392 1.524 . S
C1391 H1394 0.999 . S
C1392 H1362 0.950 . S
C1392 C1391 1.524 . S
C1392 C1393 1.415 . S
C1393 H1363 0.950 . S
C1393 C1388 1.363 . S
C1393 C1392 1.415 . S
H1394 C1391 0.999 . S
H1395 C1376 0.913 . S
H1396 C1414 0.951 . S
H1397 C1416 0.951 . S
H1398 C1418 0.950 . S
H1399 C1419 0.950 . S
H1400 C1421 0.950 . S
H1401 C1424 0.950 . S
H1402 C1425 0.950 . S
H1403 C1427 0.950 . S
H1404 C1428 0.950 . S
H1405 C1429 0.951 . S
H1406 C1431 0.951 . S
H1407 C1433 0.950 . S
H1408 C1434 0.950 . S
H1409 C1436 0.950 . S
H1410 C1439 0.950 . S
H1411 C1440 0.950 . S
H1412 C1442 0.950 . S
H1413 C1443 0.950 . S
C1414 H1396 0.951 . S
C1414 C1415 1.366 . S
C1414 C1416 1.388 . S
C1415 C1414 1.366 . S
C1415 C1419 1.385 . S
C1416 H1397 0.951 . S
C1416 C1414 1.388 . S
C1416 C1417 1.366 . S
C1417 C1416 1.366 . S
C1417 C1418 1.414 . S
C1417 C1420 1.499 . S
C1418 H1398 0.950 . S
C1418 C1417 1.414 . S
C1418 C1419 1.374 . S
C1419 H1399 0.950 . S
C1419 C1415 1.385 . S
C1419 C1418 1.374 . S
C1420 C1417 1.499 . S
C1420 C1421 1.373 . S
C1420 C1422 1.389 . S
C1421 H1400 0.950 . S
C1421 C1420 1.373 . S
C1421 C1437 1.377 . S
C1422 C1420 1.389 . S
C1422 C1423 1.524 . S
C1422 C1436 1.377 . S
C1423 C1422 1.524 . S
C1423 C1424 1.397 . S
C1423 C1428 1.363 . S
C1424 H1401 0.950 . S
C1424 C1423 1.397 . S
C1424 C1425 1.334 . S
C1425 H1402 0.950 . S
C1425 C1424 1.334 . S
C1425 C1426 1.287 . S
C1426 C1425 1.287 . S
C1426 C1427 1.524 . S
C1426 H1445 0.913 . S
C1427 H1403 0.950 . S
C1427 C1426 1.524 . S
C1427 C1428 1.415 . S
C1428 H1404 0.950 . S
C1428 C1423 1.363 . S
C1428 C1427 1.415 . S
C1429 H1405 0.951 . S
C1429 C1430 1.366 . S
C1429 C1431 1.388 . S
C1430 C1429 1.366 . S
C1430 C1434 1.385 . S
C1431 H1406 0.951 . S
C1431 C1429 1.388 . S
C1431 C1432 1.366 . S
C1432 C1431 1.366 . S
C1432 C1433 1.414 . S
C1432 C1435 1.499 . S
C1433 H1407 0.950 . S
C1433 C1432 1.414 . S
C1433 C1434 1.374 . S
C1434 H1408 0.950 . S
C1434 C1430 1.385 . S
C1434 C1433 1.374 . S
C1435 C1432 1.499 . S
C1435 C1436 1.373 . S
C1435 C1437 1.389 . S
C1436 H1409 0.950 . S
C1436 C1422 1.377 . S
C1436 C1435 1.373 . S
C1437 C1421 1.377 . S
C1437 C1435 1.389 . S
C1437 C1438 1.524 . S
C1438 C1437 1.524 . S
C1438 C1439 1.397 . S
C1438 C1443 1.363 . S
C1439 H1410 0.950 . S
C1439 C1438 1.397 . S
C1439 C1440 1.334 1_556 S
C1440 H1411 0.950 . S
C1440 C1439 1.334 1_554 S
C1440 C1441 1.287 . S
C1441 C1440 1.287 . S
C1441 C1442 1.524 1_554 S
C1441 H1444 0.999 . S
C1442 H1412 0.950 . S
C1442 C1441 1.524 1_556 S
C1442 C1443 1.415 . S
C1443 H1413 0.950 . S
C1443 C1438 1.363 . S
C1443 C1442 1.415 . S
H1444 C1441 0.999 . S
H1445 C1426 0.913 . S
H1446 C1464 0.951 . S
H1447 C1466 0.951 . S
H1448 C1468 0.950 . S
H1449 C1469 0.950 . S
H1450 C1471 0.950 . S
H1451 C1474 0.950 . S
H1452 C1475 0.950 . S
H1453 C1477 0.950 . S
H1454 C1478 0.950 . S
H1455 C1479 0.951 . S
H1456 C1481 0.951 . S
H1457 C1483 0.950 . S
H1458 C1484 0.950 . S
H1459 C1486 0.950 . S
H1460 C1489 0.950 . S
H1461 C1490 0.950 . S
H1462 C1492 0.950 . S
H1463 C1493 0.950 . S
C1464 H1446 0.951 . S
C1464 C1465 1.366 . S
C1464 C1466 1.388 . S
C1465 C1464 1.366 . S
C1465 C1469 1.385 . S
C1466 H1447 0.951 . S
C1466 C1464 1.388 . S
C1466 C1467 1.366 . S
C1467 C1466 1.366 . S
C1467 C1468 1.414 . S
C1467 C1470 1.499 . S
C1468 H1448 0.950 . S
C1468 C1467 1.414 . S
C1468 C1469 1.374 . S
C1469 H1449 0.950 . S
C1469 C1465 1.385 . S
C1469 C1468 1.374 . S
C1470 C1467 1.499 . S
C1470 C1471 1.373 . S
C1470 C1472 1.389 . S
C1471 H1450 0.950 . S
C1471 C1470 1.373 . S
C1471 C1487 1.377 . S
C1472 C1470 1.389 . S
C1472 C1473 1.524 . S
C1472 C1486 1.377 . S
C1473 C1472 1.524 . S
C1473 C1474 1.397 . S
C1473 C1478 1.363 . S
C1474 H1451 0.950 . S
C1474 C1473 1.397 . S
C1474 C1475 1.334 . S
C1475 H1452 0.950 . S
C1475 C1474 1.334 . S
C1475 C1476 1.287 . S
C1476 C1475 1.287 . S
C1476 C1477 1.524 . S
C1476 H1495 0.913 . S
C1477 H1453 0.950 . S
C1477 C1476 1.524 . S
C1477 C1478 1.415 . S
C1478 H1454 0.950 . S
C1478 C1473 1.363 . S
C1478 C1477 1.415 . S
C1479 H1455 0.951 . S
C1479 C1480 1.366 . S
C1479 C1481 1.388 . S
C1480 C1479 1.366 . S
C1480 C1484 1.385 . S
C1481 H1456 0.951 . S
C1481 C1479 1.388 . S
C1481 C1482 1.366 . S
C1482 C1481 1.366 . S
C1482 C1483 1.414 . S
C1482 C1485 1.499 . S
C1483 H1457 0.950 . S
C1483 C1482 1.414 . S
C1483 C1484 1.374 . S
C1484 H1458 0.950 . S
C1484 C1480 1.385 . S
C1484 C1483 1.374 . S
C1485 C1482 1.499 . S
C1485 C1486 1.373 . S
C1485 C1487 1.389 . S
C1486 H1459 0.950 . S
C1486 C1472 1.377 . S
C1486 C1485 1.373 . S
C1487 C1471 1.377 . S
C1487 C1485 1.389 . S
C1487 C1488 1.524 . S
C1488 C1487 1.524 . S
C1488 C1489 1.397 . S
C1488 C1493 1.363 . S
C1489 H1460 0.950 . S
C1489 C1488 1.397 . S
C1489 C1490 1.334 1_554 S
C1490 H1461 0.950 . S
C1490 C1489 1.334 1_556 S
C1490 C1491 1.287 . S
C1491 C1490 1.287 . S
C1491 C1492 1.524 . S
C1491 H1494 0.999 . S
C1492 H1462 0.950 . S
C1492 C1491 1.524 . S
C1492 C1493 1.415 1_556 S
C1493 H1463 0.950 . S
C1493 C1488 1.363 . S
C1493 C1492 1.415 1_554 S
H1494 C1491 0.999 . S
H1495 C1476 0.913 . S
H1496 C1514 0.951 . S
H1497 C1516 0.951 . S
H1498 C1518 0.950 . S
H1499 C1519 0.950 . S
H1500 C1521 0.950 . S
H1501 C1524 0.950 . S
H1502 C1525 0.950 . S
H1503 C1527 0.950 . S
H1504 C1528 0.950 . S
H1505 C1529 0.951 . S
H1506 C1531 0.951 . S
H1507 C1533 0.950 . S
H1508 C1534 0.950 . S
H1509 C1536 0.950 . S
H1510 C1539 0.950 . S
H1511 C1540 0.950 . S
H1512 C1542 0.950 . S
H1513 C1543 0.950 . S
C1514 H1496 0.951 . S
C1514 C1515 1.366 . S
C1514 C1516 1.388 . S
C1515 C1514 1.366 . S
C1515 C1519 1.385 . S
C1516 H1497 0.951 . S
C1516 C1514 1.388 . S
C1516 C1517 1.366 . S
C1517 C1516 1.366 . S
C1517 C1518 1.414 . S
C1517 C1520 1.499 . S
C1518 H1498 0.950 . S
C1518 C1517 1.414 . S
C1518 C1519 1.374 . S
C1519 H1499 0.950 . S
C1519 C1515 1.385 . S
C1519 C1518 1.374 . S
C1520 C1517 1.499 . S
C1520 C1521 1.373 . S
C1520 C1522 1.389 . S
C1521 H1500 0.950 . S
C1521 C1520 1.373 . S
C1521 C1537 1.377 . S
C1522 C1520 1.389 . S
C1522 C1523 1.524 . S
C1522 C1536 1.377 . S
C1523 C1522 1.524 . S
C1523 C1524 1.397 . S
C1523 C1528 1.363 . S
C1524 H1501 0.950 . S
C1524 C1523 1.397 . S
C1524 C1525 1.334 . S
C1525 H1502 0.950 . S
C1525 C1524 1.334 . S
C1525 C1526 1.287 . S
C1526 C1525 1.287 . S
C1526 C1527 1.524 . S
C1526 H1545 0.913 . S
C1527 H1503 0.950 . S
C1527 C1526 1.524 . S
C1527 C1528 1.415 . S
C1528 H1504 0.950 . S
C1528 C1523 1.363 . S
C1528 C1527 1.415 . S
C1529 H1505 0.951 . S
C1529 C1530 1.366 . S
C1529 C1531 1.388 . S
C1530 C1529 1.366 . S
C1530 C1534 1.385 . S
C1531 H1506 0.951 . S
C1531 C1529 1.388 . S
C1531 C1532 1.366 . S
C1532 C1531 1.366 . S
C1532 C1533 1.414 . S
C1532 C1535 1.499 . S
C1533 H1507 0.950 . S
C1533 C1532 1.414 . S
C1533 C1534 1.374 . S
C1534 H1508 0.950 . S
C1534 C1530 1.385 . S
C1534 C1533 1.374 . S
C1535 C1532 1.499 . S
C1535 C1536 1.373 . S
C1535 C1537 1.389 . S
C1536 H1509 0.950 . S
C1536 C1522 1.377 . S
C1536 C1535 1.373 . S
C1537 C1521 1.377 . S
C1537 C1535 1.389 . S
C1537 C1538 1.524 . S
C1538 C1537 1.524 . S
C1538 C1539 1.397 . S
C1538 C1543 1.363 . S
C1539 H1510 0.950 . S
C1539 C1538 1.397 . S
C1539 C1540 1.334 . S
C1540 H1511 0.950 . S
C1540 C1539 1.334 . S
C1540 C1541 1.287 . S
C1541 C1540 1.287 . S
C1541 C1542 1.524 . S
C1541 H1544 0.999 . S
C1542 H1512 0.950 . S
C1542 C1541 1.524 . S
C1542 C1543 1.415 . S
C1543 H1513 0.950 . S
C1543 C1538 1.363 . S
C1543 C1542 1.415 . S
H1544 C1541 0.999 . S
H1545 C1526 0.913 . S
H1546 C1564 0.951 . S
H1547 C1566 0.951 . S
H1548 C1568 0.950 . S
H1549 C1569 0.950 . S
H1550 C1571 0.950 . S
H1551 C1574 0.950 . S
H1552 C1575 0.950 . S
H1553 C1577 0.950 . S
H1554 C1578 0.950 . S
H1555 C1579 0.951 . S
H1556 C1581 0.951 . S
H1557 C1583 0.950 . S
H1558 C1584 0.950 . S
H1559 C1586 0.950 . S
H1560 C1589 0.950 . S
H1561 C1590 0.950 . S
H1562 C1592 0.950 . S
H1563 C1593 0.950 . S
C1564 H1546 0.951 . S
C1564 C1565 1.366 . S
C1564 C1566 1.388 . S
C1565 C1564 1.366 . S
C1565 C1569 1.385 . S
C1566 H1547 0.951 . S
C1566 C1564 1.388 . S
C1566 C1567 1.366 . S
C1567 C1566 1.366 . S
C1567 C1568 1.414 . S
C1567 C1570 1.499 . S
C1568 H1548 0.950 . S
C1568 C1567 1.414 . S
C1568 C1569 1.374 . S
C1569 H1549 0.950 . S
C1569 C1565 1.385 . S
C1569 C1568 1.374 . S
C1570 C1567 1.499 . S
C1570 C1571 1.373 . S
C1570 C1572 1.389 . S
C1571 H1550 0.950 . S
C1571 C1570 1.373 . S
C1571 C1587 1.377 . S
C1572 C1570 1.389 . S
C1572 C1573 1.524 . S
C1572 C1586 1.377 . S
C1573 C1572 1.524 . S
C1573 C1574 1.397 . S
C1573 C1578 1.363 . S
C1574 H1551 0.950 . S
C1574 C1573 1.397 . S
C1574 C1575 1.334 1_556 S
C1575 H1552 0.950 . S
C1575 C1574 1.334 1_554 S
C1575 C1576 1.287 . S
C1576 C1575 1.287 . S
C1576 C1577 1.524 1_554 S
C1576 H1595 0.913 . S
C1577 H1553 0.950 . S
C1577 C1576 1.524 1_556 S
C1577 C1578 1.415 . S
C1578 H1554 0.950 . S
C1578 C1573 1.363 . S
C1578 C1577 1.415 . S
C1579 H1555 0.951 . S
C1579 C1580 1.366 . S
C1579 C1581 1.388 . S
C1580 C1579 1.366 . S
C1580 C1584 1.385 . S
C1581 H1556 0.951 . S
C1581 C1579 1.388 . S
C1581 C1582 1.366 . S
C1582 C1581 1.366 . S
C1582 C1583 1.414 . S
C1582 C1585 1.499 . S
C1583 H1557 0.950 . S
C1583 C1582 1.414 . S
C1583 C1584 1.374 . S
C1584 H1558 0.950 . S
C1584 C1580 1.385 . S
C1584 C1583 1.374 . S
C1585 C1582 1.499 . S
C1585 C1586 1.373 . S
C1585 C1587 1.389 . S
C1586 H1559 0.950 . S
C1586 C1572 1.377 . S
C1586 C1585 1.373 . S
C1587 C1571 1.377 . S
C1587 C1585 1.389 . S
C1587 C1588 1.524 . S
C1588 C1587 1.524 . S
C1588 C1589 1.397 . S
C1588 C1593 1.363 . S
C1589 H1560 0.950 . S
C1589 C1588 1.397 . S
C1589 C1590 1.334 . S
C1590 H1561 0.950 . S
C1590 C1589 1.334 . S
C1590 C1591 1.287 . S
C1591 C1590 1.287 . S
C1591 C1592 1.524 . S
C1591 H1594 0.999 . S
C1592 H1562 0.950 . S
C1592 C1591 1.524 . S
C1592 C1593 1.415 . S
C1593 H1563 0.950 . S
C1593 C1588 1.363 . S
C1593 C1592 1.415 . S
H1594 C1591 0.999 . S
H1595 C1576 0.913 . S
H1596 C1614 0.951 1_554 S
H1597 C1616 0.951 1_554 S
H1598 C1618 0.950 . S
H1599 C1619 0.950 . S
H1600 C1621 0.950 . S
H1601 C1624 0.950 1_556 S
H1602 C1625 0.950 . S
H1603 C1627 0.950 . S
H1604 C1628 0.950 . S
H1605 C1629 0.951 1_556 S
H1606 C1631 0.951 1_556 S
H1607 C1633 0.950 . S
H1608 C1634 0.950 . S
H1609 C1636 0.950 . S
H1610 C1639 0.950 1_554 S
H1611 C1640 0.950 . S
H1612 C1642 0.950 . S
H1613 C1643 0.950 . S
C1614 H1596 0.951 1_556 S
C1614 C1615 1.366 . S
C1614 C1616 1.388 . S
C1615 C1614 1.366 . S
C1615 C1619 1.385 . S
C1616 H1597 0.951 1_556 S
C1616 C1614 1.388 . S
C1616 C1617 1.366 . S
C1617 C1616 1.366 . S
C1617 C1618 1.414 . S
C1617 C1620 1.499 . S
C1618 H1598 0.950 . S
C1618 C1617 1.414 . S
C1618 C1619 1.374 . S
C1619 H1599 0.950 . S
C1619 C1615 1.385 . S
C1619 C1618 1.374 . S
C1620 C1617 1.499 . S
C1620 C1621 1.373 . S
C1620 C1622 1.389 1_556 S
C1621 H1600 0.950 . S
C1621 C1620 1.373 . S
C1621 C1637 1.377 . S
C1622 C1620 1.389 1_554 S
C1622 C1623 1.524 . S
C1622 C1636 1.377 . S
C1623 C1622 1.524 . S
C1623 C1624 1.397 . S
C1623 C1628 1.363 . S
C1624 H1601 0.950 1_554 S
C1624 C1623 1.397 . S
C1624 C1625 1.334 . S
C1625 H1602 0.950 . S
C1625 C1624 1.334 . S
C1625 C1626 1.287 . S
C1626 C1625 1.287 . S
C1626 C1627 1.524 . S
C1626 H1645 0.913 . S
C1627 H1603 0.950 . S
C1627 C1626 1.524 . S
C1627 C1628 1.415 . S
C1628 H1604 0.950 . S
C1628 C1623 1.363 . S
C1628 C1627 1.415 . S
C1629 H1605 0.951 1_554 S
C1629 C1630 1.366 . S
C1629 C1631 1.388 . S
C1630 C1629 1.366 . S
C1630 C1634 1.385 . S
C1631 H1606 0.951 1_554 S
C1631 C1629 1.388 . S
C1631 C1632 1.366 . S
C1632 C1631 1.366 . S
C1632 C1633 1.414 . S
C1632 C1635 1.499 . S
C1633 H1607 0.950 . S
C1633 C1632 1.414 . S
C1633 C1634 1.374 . S
C1634 H1608 0.950 . S
C1634 C1630 1.385 . S
C1634 C1633 1.374 . S
C1635 C1632 1.499 . S
C1635 C1636 1.373 . S
C1635 C1637 1.389 1_554 S
C1636 H1609 0.950 . S
C1636 C1622 1.377 . S
C1636 C1635 1.373 . S
C1637 C1621 1.377 . S
C1637 C1635 1.389 1_556 S
C1637 C1638 1.524 . S
C1638 C1637 1.524 . S
C1638 C1639 1.397 . S
C1638 C1643 1.363 . S
C1639 H1610 0.950 1_556 S
C1639 C1638 1.397 . S
C1639 C1640 1.334 . S
C1640 H1611 0.950 . S
C1640 C1639 1.334 . S
C1640 C1641 1.287 . S
C1641 C1640 1.287 . S
C1641 C1642 1.524 . S
C1641 H1644 0.999 . S
C1642 H1612 0.950 . S
C1642 C1641 1.524 . S
C1642 C1643 1.415 . S
C1643 H1613 0.950 . S
C1643 C1638 1.363 . S
C1643 C1642 1.415 . S
H1644 C1641 0.999 . S
H1645 C1626 0.913 . S
H1646 C1664 0.951 . S
H1647 C1666 0.951 . S
H1648 C1668 0.950 . S
H1649 C1669 0.950 . S
H1650 C1671 0.950 . S
H1651 C1674 0.950 . S
H1652 C1675 0.950 . S
H1653 C1677 0.950 . S
H1654 C1678 0.950 . S
H1655 C1679 0.951 . S
H1656 C1681 0.951 . S
H1657 C1683 0.950 . S
H1658 C1684 0.950 . S
H1659 C1686 0.950 . S
H1660 C1689 0.950 . S
H1661 C1690 0.950 . S
H1662 C1692 0.950 . S
H1663 C1693 0.950 . S
C1664 H1646 0.951 . S
C1664 C1665 1.366 . S
C1664 C1666 1.388 . S
C1665 C1664 1.366 . S
C1665 C1669 1.385 . S
C1666 H1647 0.951 . S
C1666 C1664 1.388 . S
C1666 C1667 1.366 . S
C1667 C1666 1.366 . S
C1667 C1668 1.414 . S
C1667 C1670 1.499 . S
C1668 H1648 0.950 . S
C1668 C1667 1.414 . S
C1668 C1669 1.374 . S
C1669 H1649 0.950 . S
C1669 C1665 1.385 . S
C1669 C1668 1.374 . S
C1670 C1667 1.499 . S
C1670 C1671 1.373 . S
C1670 C1672 1.389 . S
C1671 H1650 0.950 . S
C1671 C1670 1.373 . S
C1671 C1687 1.377 . S
C1672 C1670 1.389 . S
C1672 C1673 1.524 . S
C1672 C1686 1.377 . S
C1673 C1672 1.524 . S
C1673 C1674 1.397 . S
C1673 C1678 1.363 . S
C1674 H1651 0.950 . S
C1674 C1673 1.397 . S
C1674 C1675 1.334 . S
C1675 H1652 0.950 . S
C1675 C1674 1.334 . S
C1675 C1676 1.287 . S
C1676 C1675 1.287 . S
C1676 C1677 1.524 . S
C1676 H1695 0.913 . S
C1677 H1653 0.950 . S
C1677 C1676 1.524 . S
C1677 C1678 1.415 . S
C1678 H1654 0.950 . S
C1678 C1673 1.363 . S
C1678 C1677 1.415 . S
C1679 H1655 0.951 . S
C1679 C1680 1.366 . S
C1679 C1681 1.388 . S
C1680 C1679 1.366 . S
C1680 C1684 1.385 . S
C1681 H1656 0.951 . S
C1681 C1679 1.388 . S
C1681 C1682 1.366 . S
C1682 C1681 1.366 . S
C1682 C1683 1.414 . S
C1682 C1685 1.499 . S
C1683 H1657 0.950 . S
C1683 C1682 1.414 . S
C1683 C1684 1.374 . S
C1684 H1658 0.950 . S
C1684 C1680 1.385 . S
C1684 C1683 1.374 . S
C1685 C1682 1.499 . S
C1685 C1686 1.373 . S
C1685 C1687 1.389 . S
C1686 H1659 0.950 . S
C1686 C1672 1.377 . S
C1686 C1685 1.373 . S
C1687 C1671 1.377 . S
C1687 C1685 1.389 . S
C1687 C1688 1.524 . S
C1688 C1687 1.524 . S
C1688 C1689 1.397 . S
C1688 C1693 1.363 . S
C1689 H1660 0.950 . S
C1689 C1688 1.397 . S
C1689 C1690 1.334 . S
C1690 H1661 0.950 . S
C1690 C1689 1.334 . S
C1690 C1691 1.287 . S
C1691 C1690 1.287 . S
C1691 C1692 1.524 . S
C1691 H1694 0.999 . S
C1692 H1662 0.950 . S
C1692 C1691 1.524 . S
C1692 C1693 1.415 . S
C1693 H1663 0.950 . S
C1693 C1688 1.363 . S
C1693 C1692 1.415 . S
H1694 C1691 0.999 . S
H1695 C1676 0.913 . S
H1696 C1714 0.951 . S
H1697 C1716 0.951 . S
H1698 C1718 0.950 . S
H1699 C1719 0.950 . S
H1700 C1721 0.950 . S
H1701 C1724 0.950 . S
H1702 C1725 0.950 . S
H1703 C1727 0.950 . S
H1704 C1728 0.950 . S
H1705 C1729 0.951 . S
H1706 C1731 0.951 . S
H1707 C1733 0.950 . S
H1708 C1734 0.950 . S
H1709 C1736 0.950 . S
H1710 C1739 0.950 . S
H1711 C1740 0.950 . S
H1712 C1742 0.950 . S
H1713 C1743 0.950 . S
C1714 H1696 0.951 . S
C1714 C1715 1.366 . S
C1714 C1716 1.388 . S
C1715 C1714 1.366 . S
C1715 C1719 1.385 . S
C1716 H1697 0.951 . S
C1716 C1714 1.388 . S
C1716 C1717 1.366 . S
C1717 C1716 1.366 . S
C1717 C1718 1.414 . S
C1717 C1720 1.499 . S
C1718 H1698 0.950 . S
C1718 C1717 1.414 . S
C1718 C1719 1.374 . S
C1719 H1699 0.950 . S
C1719 C1715 1.385 . S
C1719 C1718 1.374 . S
C1720 C1717 1.499 . S
C1720 C1721 1.373 . S
C1720 C1722 1.389 . S
C1721 H1700 0.950 . S
C1721 C1720 1.373 . S
C1721 C1737 1.377 . S
C1722 C1720 1.389 . S
C1722 C1723 1.524 . S
C1722 C1736 1.377 . S
C1723 C1722 1.524 . S
C1723 C1724 1.397 . S
C1723 C1728 1.363 . S
C1724 H1701 0.950 . S
C1724 C1723 1.397 . S
C1724 C1725 1.334 . S
C1725 H1702 0.950 . S
C1725 C1724 1.334 . S
C1725 C1726 1.287 . S
C1726 C1725 1.287 . S
C1726 C1727 1.524 . S
C1726 H1745 0.913 . S
C1727 H1703 0.950 . S
C1727 C1726 1.524 . S
C1727 C1728 1.415 . S
C1728 H1704 0.950 . S
C1728 C1723 1.363 . S
C1728 C1727 1.415 . S
C1729 H1705 0.951 . S
C1729 C1730 1.366 . S
C1729 C1731 1.388 . S
C1730 C1729 1.366 . S
C1730 C1734 1.385 . S
C1731 H1706 0.951 . S
C1731 C1729 1.388 . S
C1731 C1732 1.366 . S
C1732 C1731 1.366 . S
C1732 C1733 1.414 . S
C1732 C1735 1.499 . S
C1733 H1707 0.950 . S
C1733 C1732 1.414 . S
C1733 C1734 1.374 . S
C1734 H1708 0.950 . S
C1734 C1730 1.385 . S
C1734 C1733 1.374 . S
C1735 C1732 1.499 . S
C1735 C1736 1.373 . S
C1735 C1737 1.389 . S
C1736 H1709 0.950 . S
C1736 C1722 1.377 . S
C1736 C1735 1.373 . S
C1737 C1721 1.377 . S
C1737 C1735 1.389 . S
C1737 C1738 1.524 . S
C1738 C1737 1.524 . S
C1738 C1739 1.397 . S
C1738 C1743 1.363 . S
C1739 H1710 0.950 . S
C1739 C1738 1.397 . S
C1739 C1740 1.334 . S
C1740 H1711 0.950 . S
C1740 C1739 1.334 . S
C1740 C1741 1.287 . S
C1741 C1740 1.287 . S
C1741 C1742 1.524 . S
C1741 H1744 0.999 . S
C1742 H1712 0.950 . S
C1742 C1741 1.524 . S
C1742 C1743 1.415 . S
C1743 H1713 0.950 . S
C1743 C1738 1.363 . S
C1743 C1742 1.415 . S
H1744 C1741 0.999 . S
H1745 C1726 0.913 . S
H1746 C1764 0.951 . S
H1747 C1766 0.951 . S
H1748 C1768 0.950 1_556 S
H1749 C1769 0.950 1_556 S
H1750 C1771 0.950 . S
H1751 C1774 0.950 . S
H1752 C1775 0.950 . S
H1753 C1777 0.950 . S
H1754 C1778 0.950 . S
H1755 C1779 0.951 . S
H1756 C1781 0.951 . S
H1757 C1783 0.950 1_554 S
H1758 C1784 0.950 1_554 S
H1759 C1786 0.950 . S
H1760 C1789 0.950 . S
H1761 C1790 0.950 . S
H1762 C1792 0.950 . S
H1763 C1793 0.950 . S
C1764 H1746 0.951 . S
C1764 C1765 1.366 . S
C1764 C1766 1.388 . S
C1765 C1764 1.366 . S
C1765 C1769 1.385 . S
C1766 H1747 0.951 . S
C1766 C1764 1.388 . S
C1766 C1767 1.366 . S
C1767 C1766 1.366 . S
C1767 C1768 1.414 . S
C1767 C1770 1.499 . S
C1768 H1748 0.950 1_554 S
C1768 C1767 1.414 . S
C1768 C1769 1.374 . S
C1769 H1749 0.950 1_554 S
C1769 C1765 1.385 . S
C1769 C1768 1.374 . S
C1770 C1767 1.499 . S
C1770 C1771 1.373 1_554 S
C1770 C1772 1.389 . S
C1771 H1750 0.950 . S
C1771 C1770 1.373 1_556 S
C1771 C1787 1.377 . S
C1772 C1770 1.389 . S
C1772 C1773 1.524 . S
C1772 C1786 1.377 . S
C1773 C1772 1.524 . S
C1773 C1774 1.397 . S
C1773 C1778 1.363 . S
C1774 H1751 0.950 . S
C1774 C1773 1.397 . S
C1774 C1775 1.334 . S
C1775 H1752 0.950 . S
C1775 C1774 1.334 . S
C1775 C1776 1.287 . S
C1776 C1775 1.287 . S
C1776 C1777 1.524 . S
C1776 H1795 0.913 . S
C1777 H1753 0.950 . S
C1777 C1776 1.524 . S
C1777 C1778 1.415 . S
C1778 H1754 0.950 . S
C1778 C1773 1.363 . S
C1778 C1777 1.415 . S
C1779 H1755 0.951 . S
C1779 C1780 1.366 . S
C1779 C1781 1.388 . S
C1780 C1779 1.366 . S
C1780 C1784 1.385 . S
C1781 H1756 0.951 . S
C1781 C1779 1.388 . S
C1781 C1782 1.366 . S
C1782 C1781 1.366 . S
C1782 C1783 1.414 . S
C1782 C1785 1.499 . S
C1783 H1757 0.950 1_556 S
C1783 C1782 1.414 . S
C1783 C1784 1.374 . S
C1784 H1758 0.950 1_556 S
C1784 C1780 1.385 . S
C1784 C1783 1.374 . S
C1785 C1782 1.499 . S
C1785 C1786 1.373 1_556 S
C1785 C1787 1.389 . S
C1786 H1759 0.950 . S
C1786 C1772 1.377 . S
C1786 C1785 1.373 1_554 S
C1787 C1771 1.377 . S
C1787 C1785 1.389 . S
C1787 C1788 1.524 . S
C1788 C1787 1.524 . S
C1788 C1789 1.397 . S
C1788 C1793 1.363 . S
C1789 H1760 0.950 . S
C1789 C1788 1.397 . S
C1789 C1790 1.334 . S
C1790 H1761 0.950 . S
C1790 C1789 1.334 . S
C1790 C1791 1.287 . S
C1791 C1790 1.287 . S
C1791 C1792 1.524 . S
C1791 H1794 0.999 . S
C1792 H1762 0.950 . S
C1792 C1791 1.524 . S
C1792 C1793 1.415 . S
C1793 H1763 0.950 . S
C1793 C1788 1.363 . S
C1793 C1792 1.415 . S
H1794 C1791 0.999 . S
H1795 C1776 0.913 . S
H1796 C1814 0.951 . S
H1797 C1816 0.951 . S
H1798 C1818 0.950 . S
H1799 C1819 0.950 . S
H1800 C1821 0.950 . S
H1801 C1824 0.950 . S
H1802 C1825 0.950 . S
H1803 C1827 0.950 . S
H1804 C1828 0.950 . S
H1805 C1829 0.951 . S
H1806 C1831 0.951 . S
H1807 C1833 0.950 . S
H1808 C1834 0.950 . S
H1809 C1836 0.950 . S
H1810 C1839 0.950 . S
H1811 C1840 0.950 . S
H1812 C1842 0.950 . S
H1813 C1843 0.950 . S
C1814 H1796 0.951 . S
C1814 C1815 1.366 . S
C1814 C1816 1.388 . S
C1815 C1814 1.366 . S
C1815 C1819 1.385 . S
C1816 H1797 0.951 . S
C1816 C1814 1.388 . S
C1816 C1817 1.366 . S
C1817 C1816 1.366 . S
C1817 C1818 1.414 . S
C1817 C1820 1.499 . S
C1818 H1798 0.950 . S
C1818 C1817 1.414 . S
C1818 C1819 1.374 . S
C1819 H1799 0.950 . S
C1819 C1815 1.385 . S
C1819 C1818 1.374 . S
C1820 C1817 1.499 . S
C1820 C1821 1.373 . S
C1820 C1822 1.389 . S
C1821 H1800 0.950 . S
C1821 C1820 1.373 . S
C1821 C1837 1.377 . S
C1822 C1820 1.389 . S
C1822 C1823 1.524 . S
C1822 C1836 1.377 . S
C1823 C1822 1.524 . S
C1823 C1824 1.397 . S
C1823 C1828 1.363 . S
C1824 H1801 0.950 . S
C1824 C1823 1.397 . S
C1824 C1825 1.334 . S
C1825 H1802 0.950 . S
C1825 C1824 1.334 . S
C1825 C1826 1.287 . S
C1826 C1825 1.287 . S
C1826 C1827 1.524 . S
C1826 H1845 0.913 . S
C1827 H1803 0.950 . S
C1827 C1826 1.524 . S
C1827 C1828 1.415 . S
C1828 H1804 0.950 . S
C1828 C1823 1.363 . S
C1828 C1827 1.415 . S
C1829 H1805 0.951 . S
C1829 C1830 1.366 . S
C1829 C1831 1.388 . S
C1830 C1829 1.366 . S
C1830 C1834 1.385 . S
C1831 H1806 0.951 . S
C1831 C1829 1.388 . S
C1831 C1832 1.366 . S
C1832 C1831 1.366 . S
C1832 C1833 1.414 . S
C1832 C1835 1.499 . S
C1833 H1807 0.950 . S
C1833 C1832 1.414 . S
C1833 C1834 1.374 . S
C1834 H1808 0.950 . S
C1834 C1830 1.385 . S
C1834 C1833 1.374 . S
C1835 C1832 1.499 . S
C1835 C1836 1.373 . S
C1835 C1837 1.389 . S
C1836 H1809 0.950 . S
C1836 C1822 1.377 . S
C1836 C1835 1.373 . S
C1837 C1821 1.377 . S
C1837 C1835 1.389 . S
C1837 C1838 1.524 . S
C1838 C1837 1.524 . S
C1838 C1839 1.397 . S
C1838 C1843 1.363 . S
C1839 H1810 0.950 . S
C1839 C1838 1.397 . S
C1839 C1840 1.334 . S
C1840 H1811 0.950 . S
C1840 C1839 1.334 . S
C1840 C1841 1.287 . S
C1841 C1840 1.287 . S
C1841 C1842 1.524 . S
C1841 H1844 0.999 . S
C1842 H1812 0.950 . S
C1842 C1841 1.524 . S
C1842 C1843 1.415 . S
C1843 H1813 0.950 . S
C1843 C1838 1.363 . S
C1843 C1842 1.415 . S
H1844 C1841 0.999 . S
H1845 C1826 0.913 . S
H1846 C1864 0.951 . S
H1847 C1866 0.951 . S
H1848 C1868 0.950 . S
H1849 C1869 0.950 . S
H1850 C1871 0.950 . S
H1851 C1874 0.950 . S
H1852 C1875 0.950 . S
H1853 C1877 0.950 . S
H1854 C1878 0.950 . S
H1855 C1879 0.951 . S
H1856 C1881 0.951 . S
H1857 C1883 0.950 . S
H1858 C1884 0.950 . S
H1859 C1886 0.950 . S
H1860 C1889 0.950 . S
H1861 C1890 0.950 . S
H1862 C1892 0.950 . S
H1863 C1893 0.950 . S
C1864 H1846 0.951 . S
C1864 C1865 1.366 . S
C1864 C1866 1.388 . S
C1865 C1864 1.366 . S
C1865 C1869 1.385 . S
C1866 H1847 0.951 . S
C1866 C1864 1.388 . S
C1866 C1867 1.366 . S
C1867 C1866 1.366 . S
C1867 C1868 1.414 . S
C1867 C1870 1.499 . S
C1868 H1848 0.950 . S
C1868 C1867 1.414 . S
C1868 C1869 1.374 . S
C1869 H1849 0.950 . S
C1869 C1865 1.385 . S
C1869 C1868 1.374 . S
C1870 C1867 1.499 . S
C1870 C1871 1.373 . S
C1870 C1872 1.389 . S
C1871 H1850 0.950 . S
C1871 C1870 1.373 . S
C1871 C1887 1.377 . S
C1872 C1870 1.389 . S
C1872 C1873 1.524 . S
C1872 C1886 1.377 . S
C1873 C1872 1.524 . S
C1873 C1874 1.397 . S
C1873 C1878 1.363 . S
C1874 H1851 0.950 . S
C1874 C1873 1.397 . S
C1874 C1875 1.334 . S
C1875 H1852 0.950 . S
C1875 C1874 1.334 . S
C1875 C1876 1.287 . S
C1876 C1875 1.287 . S
C1876 C1877 1.524 . S
C1876 H1895 0.913 . S
C1877 H1853 0.950 . S
C1877 C1876 1.524 . S
C1877 C1878 1.415 . S
C1878 H1854 0.950 . S
C1878 C1873 1.363 . S
C1878 C1877 1.415 . S
C1879 H1855 0.951 . S
C1879 C1880 1.366 . S
C1879 C1881 1.388 . S
C1880 C1879 1.366 . S
C1880 C1884 1.385 . S
C1881 H1856 0.951 . S
C1881 C1879 1.388 . S
C1881 C1882 1.366 . S
C1882 C1881 1.366 . S
C1882 C1883 1.414 . S
C1882 C1885 1.499 . S
C1883 H1857 0.950 . S
C1883 C1882 1.414 . S
C1883 C1884 1.374 . S
C1884 H1858 0.950 . S
C1884 C1880 1.385 . S
C1884 C1883 1.374 . S
C1885 C1882 1.499 . S
C1885 C1886 1.373 . S
C1885 C1887 1.389 . S
C1886 H1859 0.950 . S
C1886 C1872 1.377 . S
C1886 C1885 1.373 . S
C1887 C1871 1.377 . S
C1887 C1885 1.389 . S
C1887 C1888 1.524 . S
C1888 C1887 1.524 . S
C1888 C1889 1.397 . S
C1888 C1893 1.363 . S
C1889 H1860 0.950 . S
C1889 C1888 1.397 . S
C1889 C1890 1.334 . S
C1890 H1861 0.950 . S
C1890 C1889 1.334 . S
C1890 C1891 1.287 . S
C1891 C1890 1.287 . S
C1891 C1892 1.524 . S
C1891 H1894 0.999 . S
C1892 H1862 0.950 . S
C1892 C1891 1.524 . S
C1892 C1893 1.415 . S
C1893 H1863 0.950 . S
C1893 C1888 1.363 . S
C1893 C1892 1.415 . S
H1894 C1891 0.999 . S
H1895 C1876 0.913 . S
C415 C7 1.141 . S
C430 C370 1.140 . S
C465 C40 1.140 . S
C480 C205 1.141 . S
C515 C238 1.141 . S
C530 C73 1.141 . S
C565 C271 1.140 . S
C580 C106 1.141 . S
C615 C304 1.141 . S
C630 C139 1.140 . S
C665 C337 1.141 . S
C680 C172 1.141 . S
C715 N13 1.365 . S
C730 N2 1.363 . S
C765 N35 1.362 . S
C780 N46 1.365 . S
C815 N79 1.365 . S
C830 N68 1.363 1_554 S
C865 N112 1.365 . S
C880 N101 1.363 . S
C915 N145 1.365 . S
C930 N134 1.363 . S
C965 N167 1.362 1_554 S
C980 N178 1.364 . S
C1015 N211 1.365 . S
C1030 N200 1.363 . S
C1065 N233 1.363 . S
C1080 N244 1.365 . S
C1115 N277 1.365 . S
C1130 N266 1.363 1_556 S
C1165 N299 1.362 . S
C1180 N310 1.364 . S
C1215 N332 1.363 . S
C1230 N343 1.365 . S
C1265 N376 1.365 . S
C1280 N365 1.363 1_556 S
C1315 C21 1.591 . S
C1330 C285 1.591 . S
C1365 C54 1.590 . S
C1380 C318 1.590 . S
C1415 C87 1.591 . S
C1430 C351 1.590 . S
C1465 C384 1.590 . S
C1480 C120 1.590 . S
C1515 C219 1.591 . S
C1530 C153 1.590 . S
C1565 C252 1.591 . S
C1580 C186 1.590 . S
C1615 C348 1.099 . S
C1630 C18 1.100 . S
C1665 C381 1.099 . S
C1680 C51 1.098 . S
C1715 C216 1.100 . S
C1730 C84 1.100 . S
C1765 C117 1.100 . S
C1780 C249 1.099 . S
C1815 C150 1.099 . S
C1830 C282 1.099 . S
C1865 C183 1.099 . S
C1880 C315 1.100 . S
