# Generated by pormake.
# Topology ukh, (4)-cn, num edge types: 1
# Building blocks:
#     Node 0, Type 0, BuildingBlock: CEKHIL_clean_sbu_0, # of connection points: 4
#     Node 1, Type 0, BuildingBlock: CEKHIL_clean_sbu_0, # of connection points: 4
#     Node 2, Type 0, BuildingBlock: CEKHIL_clean_sbu_0, # of connection points: 4
#     Node 3, Type 0, BuildingBlock: CEKHIL_clean_sbu_0, # of connection points: 4
#     Node 4, Type 0, BuildingBlock: CEKHIL_clean_sbu_0, # of connection points: 4
#     Node 5, Type 0, BuildingBlock: CEKHIL_clean_sbu_0, # of connection points: 4
#     Node 6, Type 0, BuildingBlock: CEKHIL_clean_sbu_0, # of connection points: 4
#     Node 7, Type 0, BuildingBlock: CEKHIL_clean_sbu_0, # of connection points: 4
#     Node 8, Type 0, BuildingBlock: CEKHIL_clean_sbu_0, # of connection points: 4
#     Node 9, Type 0, BuildingBlock: CEKHIL_clean_sbu_0, # of connection points: 4
#     Node 10, Type 0, BuildingBlock: CEKHIL_clean_sbu_0, # of connection points: 4
#     Node 11, Type 0, BuildingBlock: CEKHIL_clean_sbu_0, # of connection points: 4
#     Edge 12, Type (0, 0), BuildingBlock: EZIPEK_clean_linker_0, # of connection points: 2
#     Edge 13, Type (0, 0), BuildingBlock: EZIPEK_clean_linker_0, # of connection points: 2
#     Edge 14, Type (0, 0), BuildingBlock: EZIPEK_clean_linker_0, # of connection points: 2
#     Edge 15, Type (0, 0), BuildingBlock: EZIPEK_clean_linker_0, # of connection points: 2
#     Edge 16, Type (0, 0), BuildingBlock: EZIPEK_clean_linker_0, # of connection points: 2
#     Edge 17, Type (0, 0), BuildingBlock: EZIPEK_clean_linker_0, # of connection points: 2
#     Edge 18, Type (0, 0), BuildingBlock: EZIPEK_clean_linker_0, # of connection points: 2
#     Edge 19, Type (0, 0), BuildingBlock: EZIPEK_clean_linker_0, # of connection points: 2
#     Edge 20, Type (0, 0), BuildingBlock: EZIPEK_clean_linker_0, # of connection points: 2
#     Edge 21, Type (0, 0), BuildingBlock: EZIPEK_clean_linker_0, # of connection points: 2
#     Edge 22, Type (0, 0), BuildingBlock: EZIPEK_clean_linker_0, # of connection points: 2
#     Edge 23, Type (0, 0), BuildingBlock: EZIPEK_clean_linker_0, # of connection points: 2
#     Edge 24, Type (0, 0), BuildingBlock: EZIPEK_clean_linker_0, # of connection points: 2
#     Edge 25, Type (0, 0), BuildingBlock: EZIPEK_clean_linker_0, # of connection points: 2
#     Edge 26, Type (0, 0), BuildingBlock: EZIPEK_clean_linker_0, # of connection points: 2
#     Edge 27, Type (0, 0), BuildingBlock: EZIPEK_clean_linker_0, # of connection points: 2
#     Edge 28, Type (0, 0), BuildingBlock: EZIPEK_clean_linker_0, # of connection points: 2
#     Edge 29, Type (0, 0), BuildingBlock: EZIPEK_clean_linker_0, # of connection points: 2
#     Edge 30, Type (0, 0), BuildingBlock: EZIPEK_clean_linker_0, # of connection points: 2
#     Edge 31, Type (0, 0), BuildingBlock: EZIPEK_clean_linker_0, # of connection points: 2
#     Edge 32, Type (0, 0), BuildingBlock: EZIPEK_clean_linker_0, # of connection points: 2
#     Edge 33, Type (0, 0), BuildingBlock: EZIPEK_clean_linker_0, # of connection points: 2
#     Edge 34, Type (0, 0), BuildingBlock: EZIPEK_clean_linker_0, # of connection points: 2
#     Edge 35, Type (0, 0), BuildingBlock: EZIPEK_clean_linker_0, # of connection points: 2
# Relax obj value: 0.070
# Max RMSD: 0.092
# Mean RMSD: 0.092
data_MOF--net-ukh--node1-CEKHIL_clean_sbu_0--edge1-EZIPEK_clean_linker_0
_symmetry_space_group_name_H-M    P1
_symmetry_Int_Tables_number       1
_symmetry_cell_setting            triclinic
loop_
_symmetry_equiv_pos_as_xyz
'x, y, z'
_cell_length_a     23.751953
_cell_length_b     23.758395
_cell_length_c     44.15266
_cell_angle_alpha  90.089176
_cell_angle_beta   90.032111
_cell_angle_gamma 119.98107
loop_
_atom_site_label
_atom_site_type_symbol
_atom_site_fract_x
_atom_site_fract_y
_atom_site_fract_z
_atom_type_partial_charge
Co0 Co 0.28543 0.25226 0.05697 0.0
O1 O 0.32532 0.34077 0.07096 0.0
O2 O 0.37007 0.30572 0.03764 0.0
C3 C 0.18789 0.24401 0.04683 0.0
O4 O 0.25387 0.16319 0.03638 0.0
Co5 Co 0.17317 0.15011 0.09481 0.0
O6 O 0.16491 0.09031 0.06188 0.0
C7 C 0.30504 0.19951 0.11675 0.0
C8 C 0.37279 0.35431 0.05271 0.0
C9 C 0.20484 0.10524 0.04006 0.0
O10 O 0.32706 0.22986 0.09159 0.0
O11 O 0.24491 0.16966 0.12373 0.0
O12 O 0.23511 0.26842 0.02749 0.0
O13 O 0.20264 0.23104 0.07319 0.0
Co14 Co 0.07492 0.29125 0.38505 0.0
O15 O 0.02682 0.33122 0.39904 0.0
O16 O 0.11444 0.38088 0.37036 0.0
C17 C 0.98777 0.20036 0.36781 0.0
O18 O 0.13216 0.25735 0.36601 0.0
Co19 Co 0.04563 0.1667 0.42016 0.0
O20 O 0.1157 0.17121 0.39442 0.0
C21 C 0.12943 0.29232 0.4481 0.0
C22 C 0.06613 0.38211 0.38386 0.0
C23 C 0.1421 0.20951 0.37212 0.0
O24 O 0.13036 0.32053 0.4231 0.0
O25 O 0.09328 0.23148 0.45265 0.0
O26 O 0.01474 0.25239 0.35148 0.0
O27 O 0.0087 0.20735 0.39543 0.0
Co28 Co 0.77431 0.1081 0.70763 0.0
O29 O 0.68606 0.04722 0.71846 0.0
O30 O 0.71913 0.14723 0.7029 0.0
C31 C 0.7866 0.03734 0.6781 0.0
O32 O 0.86426 0.18239 0.69402 0.0
Co33 Co 0.87839 0.07502 0.72932 0.0
O34 O 0.9362 0.1484 0.70301 0.0
C35 C 0.8275 0.13328 0.77228 0.0
C36 C 0.67143 0.09107 0.71166 0.0
C37 C 0.92199 0.18956 0.69234 0.0
O38 O 0.79399 0.13939 0.75101 0.0
O39 O 0.86101 0.10516 0.76883 0.0
O40 O 0.76055 0.06972 0.66735 0.0
O41 O 0.79833 0.04358 0.70688 0.0
Co42 Co 0.6426 0.7329 0.03589 0.0
O43 O 0.61863 0.64576 0.04786 0.0
O44 O 0.54808 0.67667 0.03546 0.0
C45 C 0.7193 0.74313 0.00246 0.0
O46 O 0.65213 0.81981 0.02138 0.0
Co47 Co 0.78379 0.84198 0.04988 0.0
O48 O 0.75689 0.89767 0.02842 0.0
C49 C 0.68775 0.7919 0.0989 0.0
C50 C 0.55882 0.62993 0.04326 0.0
C51 C 0.69922 0.87929 0.01948 0.0
O52 O 0.64202 0.75826 0.07976 0.0
O53 O 0.74799 0.82358 0.09191 0.0
O54 O 0.65867 0.71482 0.99455 0.0
O55 O 0.7309 0.75864 0.03072 0.0
Co56 Co 0.94561 0.64342 0.3786 0.0
O57 O 0.00936 0.61964 0.38928 0.0
O58 O 0.91161 0.5504 0.37176 0.0
C59 C 0.01853 0.73004 0.35095 0.0
O60 O 0.86916 0.65475 0.36428 0.0
Co61 Co 0.96973 0.77547 0.40147 0.0
O62 O 0.89354 0.75668 0.37634 0.0
C63 C 0.91578 0.66547 0.44326 0.0
C64 C 0.96857 0.56129 0.38076 0.0
C65 C 0.85705 0.70214 0.36368 0.0
O66 O 0.91148 0.62711 0.42165 0.0
O67 O 0.94271 0.72702 0.4404 0.0
O68 O 0.98526 0.67281 0.33902 0.0
O69 O 0.0086 0.73288 0.37961 0.0
Co70 Co 0.29296 0.98163 0.72576 0.0
O71 O 0.38093 0.03255 0.74012 0.0
O72 O 0.34792 0.95046 0.70811 0.0
C73 C 0.28347 0.06907 0.71323 0.0
O74 O 0.20517 0.92151 0.70484 0.0
Co75 Co 0.1878 0.99269 0.76091 0.0
O76 O 0.12931 0.93557 0.72881 0.0
C77 C 0.23908 0.9147 0.78643 0.0
C78 C 0.39574 0.99827 0.72268 0.0
C79 C 0.1463 0.91031 0.70787 0.0
O80 O 0.27 0.92048 0.76164 0.0
O81 O 0.20892 0.94545 0.79182 0.0
O82 O 0.3092 0.04565 0.69493 0.0
O83 O 0.26969 0.04313 0.73994 0.0
Co84 Co 0.78234 0.72584 0.60942 0.0
O85 O 0.6938 0.68696 0.59582 0.0
O86 O 0.72913 0.64042 0.62803 0.0
C87 C 0.79097 0.82289 0.62111 0.0
O88 O 0.87176 0.75647 0.62932 0.0
Co89 Co 0.88287 0.83855 0.5716 0.0
O90 O 0.94401 0.84484 0.60334 0.0
C91 C 0.83354 0.70776 0.54872 0.0
C92 C 0.68054 0.63855 0.61333 0.0
C93 C 0.92974 0.80507 0.62518 0.0
O94 O 0.8036 0.68532 0.57392 0.0
O95 O 0.86378 0.76801 0.54208 0.0
O96 O 0.7672 0.77484 0.63998 0.0
O97 O 0.80305 0.80926 0.59427 0.0
Co98 Co 0.02846 0.74128 0.93953 0.0
O99 O 0.97955 0.65332 0.92497 0.0
O100 O 0.05689 0.68633 0.95958 0.0
C101 C 0.93954 0.75099 0.948 0.0
O102 O 0.08594 0.82946 0.96086 0.0
Co103 Co 0.02328 0.84628 0.90161 0.0
O104 O 0.07405 0.90473 0.93509 0.0
C105 C 0.10457 0.79436 0.88078 0.0
C106 C 0.01152 0.63859 0.9439 0.0
C107 C 0.09692 0.88815 0.95721 0.0
O108 O 0.09451 0.76341 0.90589 0.0
O109 O 0.07563 0.82538 0.87342 0.0
O110 O 0.96007 0.72534 0.96785 0.0
O111 O 0.96938 0.76455 0.92218 0.0
Co112 Co 0.33371 0.03111 0.27646 0.0
O113 O 0.3743 0.98375 0.26231 0.0
O114 O 0.42399 0.0723 0.29053 0.0
C115 C 0.24443 0.94347 0.29446 0.0
O116 O 0.29935 0.08783 0.29561 0.0
Co117 Co 0.20638 0.99784 0.24251 0.0
O118 O 0.21143 0.06889 0.26784 0.0
C119 C 0.3302 0.08278 0.21341 0.0
C120 C 0.42539 0.02379 0.27729 0.0
C121 C 0.2508 0.09681 0.28973 0.0
O122 O 0.36023 0.08553 0.23813 0.0
O123 O 0.26949 0.04426 0.2094 0.0
O124 O 0.29709 0.97175 0.31043 0.0
O125 O 0.24992 0.96357 0.26682 0.0
Co126 Co 0.30268 0.36604 0.62272 0.0
O127 O 0.39103 0.39242 0.6125 0.0
O128 O 0.35738 0.46055 0.62551 0.0
C129 C 0.29078 0.28672 0.65467 0.0
O130 O 0.21322 0.3525 0.63545 0.0
Co131 Co 0.19779 0.22569 0.60469 0.0
O132 O 0.13935 0.24665 0.62764 0.0
C133 C 0.24737 0.32908 0.55873 0.0
C134 C 0.40542 0.45139 0.61817 0.0
C135 C 0.15476 0.30331 0.63701 0.0
O136 O 0.2821 0.37191 0.57875 0.0
O137 O 0.21471 0.26808 0.56404 0.0
O138 O 0.31687 0.34629 0.66394 0.0
O139 O 0.27859 0.27778 0.626 0.0
Co140 Co 0.90935 0.26202 0.95719 0.0
O141 O 0.96993 0.35134 0.94816 0.0
O142 O 0.86694 0.31459 0.95972 0.0
C143 C 0.97656 0.25086 0.98967 0.0
O144 O 0.83458 0.17038 0.96811 0.0
Co145 Co 0.95049 0.16177 0.93852 0.0
O146 O 0.8733 0.10137 0.96221 0.0
C147 C 0.8949 0.2102 0.89267 0.0
C148 C 0.92381 0.36385 0.95298 0.0
C149 C 0.82874 0.11328 0.97017 0.0
O150 O 0.88568 0.2437 0.9129 0.0
O151 O 0.92343 0.17761 0.89785 0.0
O152 O 0.94091 0.2746 -0.00114 0.0
O153 O 0.97536 0.2406 0.96088 0.0
Co154 Co 0.685 0.90095 0.28499 0.0
O155 O 0.66216 0.96551 0.27456 0.0
O156 O 0.59234 0.86839 0.2923 0.0
C157 C 0.77305 0.97331 0.31215 0.0
O158 O 0.6955 0.82391 0.29917 0.0
Co159 Co 0.81477 0.92193 0.261 0.0
O160 O 0.79717 0.84766 0.28707 0.0
C161 C 0.70355 0.86978 0.21994 0.0
C162 C 0.60376 0.92537 0.28316 0.0
C163 C 0.74288 0.81175 0.29993 0.0
O164 O 0.66666 0.86669 0.24194 0.0
O165 O 0.76503 0.8949 0.22227 0.0
O166 O 0.71615 0.94076 0.32441 0.0
O167 O 0.77479 0.96296 0.28343 0.0
C168 C 0.47659 0.52413 0.01883 0.0
C169 C 0.50701 0.5604 0.04545 0.0
C170 C 0.45987 0.45908 0.07478 0.0
C171 C 0.4247 0.42341 0.04885 0.0
N172 N 0.39094 0.42357 0.99728 0.0
N173 N 0.51864 0.56413 0.09964 0.0
C174 C 0.43085 0.45629 0.0211 0.0
C175 C 0.49611 0.52823 0.07369 0.0
N176 N 0.49305 0.55389 0.9912 0.0
N177 N 0.45992 0.42653 0.10028 0.0
H178 H 0.54326 0.61481 0.09958 0.0
H179 H 0.50736 0.54418 0.12128 0.0
H180 H 0.43506 0.3759 0.10159 0.0
H181 H 0.48942 0.44915 0.119 0.0
H182 H 0.47861 0.52859 0.97076 0.0
H183 H 0.5251 0.60353 0.98858 0.0
H184 H 0.38762 0.44652 0.97784 0.0
H185 H 0.35737 0.37396 0.9978 0.0
C186 C 0.04722 0.46573 0.40825 0.0
C187 C 0.05112 0.43564 0.38121 0.0
C188 C 0.99971 0.48769 0.35318 0.0
C189 C 0.98949 0.51179 0.38087 0.0
N190 N 0.99502 0.51612 0.43537 0.0
N191 N 0.02354 0.41075 0.32841 0.0
C192 C 0.01104 0.49871 0.40859 0.0
C193 C 0.02565 0.44493 0.35372 0.0
N194 N 0.07944 0.46368 0.43351 0.0
N195 N 0.98713 0.50762 0.32626 0.0
H196 H 0.04376 0.38065 0.32756 0.0
H197 H 0.99819 0.40906 0.30885 0.0
H198 H 0.96716 0.53789 0.32486 0.0
H199 H 1.00088 0.49803 0.30535 0.0
H200 H 0.08367 0.48943 0.45329 0.0
H201 H 0.10763 0.44122 0.43359 0.0
H202 H 1.00368 0.5025 0.45649 0.0
H203 H 0.96736 0.53906 0.43647 0.0
C204 C 0.49692 0.04306 0.69044 0.0
C205 C 0.46539 0.01777 0.71863 0.0
C206 C 0.57161 0.05561 0.7428 0.0
C207 C 0.60247 0.07493 0.71415 0.0
N208 N 0.59375 0.07844 0.65987 0.0
N209 N 0.47144 0.9909 0.77064 0.0
C210 C 0.56497 0.06653 0.68772 0.0
C211 C 0.50251 0.02161 0.74454 0.0
N212 N 0.46261 0.04743 0.66658 0.0
N213 N 0.60872 0.07141 0.76848 0.0
H214 H 0.42089 0.96451 0.7725 0.0
H215 H 0.49525 0.98626 0.78945 0.0
H216 H 0.65943 0.09761 0.76798 0.0
H217 H 0.58969 0.06435 0.79027 0.0
H218 H 0.48438 0.07246 0.64672 0.0
H219 H 0.41279 0.03035 0.66741 0.0
H220 H 0.56768 0.06563 0.63963 0.0
H221 H 0.64353 0.09711 0.65697 0.0
C222 C 0.57599 0.58185 0.64291 0.0
C223 C 0.61178 0.58594 0.61643 0.0
C224 C 0.51009 0.51236 0.58991 0.0
C225 C 0.47475 0.50378 0.61708 0.0
N226 N 0.4753 0.52171 0.67093 0.0
N227 N 0.61478 0.54694 0.56649 0.0
C228 C 0.50797 0.53631 0.64401 0.0
C229 C 0.57923 0.54872 0.59044 0.0
N230 N 0.60641 0.62318 0.66661 0.0
N231 N 0.47725 0.48731 0.56335 0.0
H232 H 0.66551 0.57187 0.56657 0.0
H233 H 0.59451 0.51609 0.54796 0.0
H234 H 0.4266 0.46172 0.56204 0.0
H235 H 0.49973 0.4971 0.54226 0.0
H236 H 0.58157 0.62815 0.68492 0.0
H237 H 0.65629 0.65588 0.66704 0.0
H238 H 0.49836 0.53794 0.6918 0.0
H239 H 0.42553 0.48936 0.67272 0.0
C240 C 0.94036 0.46757 0.97702 0.0
C241 C 0.93839 0.43231 0.95065 0.0
C242 C 0.99551 0.53443 0.92205 0.0
C243 C 0.99304 0.56921 0.94769 0.0
N244 N 0.95286 0.56761 0.99806 0.0
N245 N 0.95323 0.43019 0.89681 0.0
C246 C 0.96275 0.53548 0.97482 0.0
C247 C 0.96282 0.46532 0.92278 0.0
N248 N 0.92342 0.43686 0.00442 0.0
N249 N 0.03095 0.5678 0.89728 0.0
H250 H 0.92828 0.37948 0.89649 0.0
H251 H 0.96418 0.45072 0.87528 0.0
H252 H 0.05657 0.61846 0.89625 0.0
H253 H 0.04016 0.54586 0.879 0.0
H254 H 0.93139 0.4614 0.02494 0.0
H255 H 0.90542 0.38711 0.00687 0.0
H256 H 0.92427 0.54418 0.01687 0.0
H257 H 0.9692 0.6173 0.99759 0.0
C258 C 0.49011 0.98702 0.30854 0.0
C259 C 0.4789 0.00876 0.28037 0.0
C260 C 0.53951 0.96436 0.25418 0.0
C261 C 0.55451 0.94659 0.28245 0.0
N262 N 0.55424 0.95151 0.33699 0.0
N263 N 0.50278 0.02923 0.22728 0.0
C264 C 0.53263 0.96083 0.30979 0.0
C265 C 0.50679 1.00079 0.25348 0.0
N266 N 0.45777 0.98836 0.33388 0.0
N267 N 0.55477 0.94442 0.22793 0.0
H268 H 0.48006 0.05713 0.22626 0.0
H269 H 0.52712 0.03062 0.20745 0.0
H270 H 0.57721 0.91623 0.22769 0.0
H271 H 0.53983 0.95028 0.20658 0.0
H272 H 0.4575 0.96568 0.35409 0.0
H273 H 0.42763 0.00854 0.33422 0.0
H274 H 0.54646 0.96828 0.35749 0.0
H275 H 0.58401 0.93102 0.33889 0.0
C276 C 0.36785 0.10886 0.16047 0.0
C277 C 0.36321 0.13169 0.18937 0.0
C278 C 0.36157 0.22435 0.16622 0.0
C279 C 0.34871 0.1919 0.13808 0.0
N280 N 0.35229 0.11183 0.10613 0.0
N281 N 0.36952 0.21733 0.22086 0.0
C282 C 0.35801 0.13786 0.13433 0.0
C283 C 0.36675 0.19279 0.19256 0.0
N284 N 0.37876 0.05775 0.15856 0.0
N285 N 0.36598 0.28384 0.16749 0.0
H286 H 0.37583 0.19599 0.24021 0.0
H287 H 0.36529 0.25805 0.22533 0.0
H288 H 0.36197 0.30652 0.14801 0.0
H289 H 0.37812 0.31247 0.18689 0.0
H290 H 0.38541 0.03936 0.13833 0.0
H291 H 0.38588 0.03691 0.17796 0.0
H292 H 0.35203 0.06866 0.10181 0.0
H293 H 0.34719 0.13405 0.08678 0.0
C294 C 0.23386 0.32503 0.47417 0.0
C295 C 0.17665 0.32944 0.47222 0.0
C296 C 0.19256 0.36958 0.52431 0.0
C297 C 0.23935 0.34979 0.52823 0.0
N298 N 0.31294 0.3189 0.50704 0.0
N299 N 0.10412 0.3619 0.49346 0.0
C300 C 0.26367 0.33208 0.50293 0.0
C301 C 0.15774 0.35525 0.49651 0.0
N302 N 0.25799 0.31231 0.4486 0.0
N303 N 0.18055 0.4003 0.54745 0.0
H304 H 0.07931 0.35347 0.47293 0.0
H305 H 0.08289 0.37338 0.51125 0.0
H306 H 0.20569 0.41112 0.56795 0.0
H307 H 0.15014 0.41993 0.54554 0.0
H308 H 0.30153 0.31187 0.44781 0.0
H309 H 0.2364 0.30711 0.4274 0.0
H310 H 0.32908 0.29914 0.49047 0.0
H311 H 0.33714 0.3271 0.52774 0.0
C312 C 0.78935 0.12629 0.82579 0.0
C313 C 0.83145 0.16348 0.80207 0.0
C314 C 0.90639 0.24417 0.83829 0.0
C315 C 0.86709 0.20418 0.86211 0.0
N316 N 0.76063 0.12339 0.87876 0.0
N317 N 0.91368 0.26834 0.78456 0.0
C318 C 0.80476 0.15048 0.8559 0.0
C319 C 0.88476 0.22621 0.80797 0.0
N320 N 0.73643 0.06704 0.81967 0.0
N321 N 0.96503 0.29769 0.84465 0.0
H322 H 0.89544 0.25669 0.76253 0.0
H323 H 0.95031 0.31644 0.78743 0.0
H324 H 0.98037 0.31327 0.86681 0.0
H325 H 0.99917 0.32483 0.82814 0.0
H326 H 0.70788 0.03438 0.83641 0.0
H327 H 0.72287 0.04957 0.79761 0.0
H328 H 0.71265 0.08687 0.87539 0.0
H329 H 0.77064 0.14247 0.90068 0.0
C330 C 0.65703 0.75756 0.15297 0.0
C331 C 0.67092 0.80367 0.12964 0.0
C332 C 0.67891 0.88415 0.16691 0.0
C333 C 0.67489 0.84172 0.19018 0.0
N334 N 0.64417 0.73431 0.20715 0.0
N335 N 0.69255 0.90945 0.11334 0.0
C336 C 0.65802 0.77671 0.1837 0.0
C337 C 0.67952 0.86612 0.1363 0.0
N338 N 0.6472 0.69733 0.14569 0.0
N339 N 0.68264 0.94177 0.17442 0.0
H340 H 0.69241 0.89722 0.09066 0.0
H341 H 0.7063 0.95803 0.11651 0.0
H342 H 0.68225 0.95533 0.19689 0.0
H343 H 0.68075 0.97355 0.15883 0.0
H344 H 0.64048 0.66193 0.16136 0.0
H345 H 0.64698 0.68282 0.12336 0.0
H346 H 0.62975 0.68543 0.20468 0.0
H347 H 0.64341 0.74773 0.22961 0.0
C348 C 0.89732 0.66138 0.5266 0.0
C349 C 0.83899 0.66389 0.52675 0.0
C350 C 0.81699 0.62448 0.47457 0.0
C351 C 0.88231 0.63896 0.47231 0.0
N352 N 0.98094 0.65795 0.49602 0.0
N353 N 0.7379 0.63914 0.50336 0.0
C354 C 0.92069 0.65145 0.49861 0.0
C355 C 0.79612 0.64077 0.5017 0.0
N356 N 0.93099 0.67133 0.55302 0.0
N357 N 0.7766 0.59811 0.45024 0.0
H358 H 0.72158 0.64947 0.52342 0.0
H359 H 0.7068 0.62935 0.48502 0.0
H360 H 0.79198 0.58638 0.43027 0.0
H361 H 0.72728 0.58311 0.45057 0.0
H362 H 0.97273 0.66778 0.5551 0.0
H363 H 0.91387 0.67869 0.57358 0.0
H364 H 0.01483 0.67304 0.5135 0.0
H365 H 0.99692 0.64838 0.47564 0.0
C366 C 0.21936 0.85463 0.8641 0.0
C367 C 0.15605 0.80098 0.85986 0.0
C368 C 0.17491 0.80246 0.80543 0.0
C369 C 0.22976 0.86516 0.80911 0.0
N370 N 0.31615 0.94258 0.84026 0.0
N371 N 0.08006 0.71217 0.82924 0.0
C372 C 0.25682 0.88752 0.83813 0.0
C373 C 0.13681 0.77007 0.83132 0.0
N374 N 0.24082 0.87601 0.89282 0.0
N375 N 0.15756 0.77701 0.77696 0.0
H376 H 0.05312 0.68846 0.8485 0.0
H377 H 0.06049 0.68702 0.80915 0.0
H378 H 0.18617 0.80078 0.75814 0.0
H379 H 0.11739 0.73204 0.77198 0.0
H380 H 0.2857 0.91605 0.89806 0.0
H381 H 0.21354 0.85115 0.91178 0.0
H382 H 0.3393 0.96412 0.86051 0.0
H383 H 0.34318 0.96566 0.82092 0.0
C384 C 0.08919 0.96378 0.99296 0.0
C385 C 0.12717 0.93789 0.98162 0.0
C386 C 0.22215 0.02464 0.00844 0.0
C387 C 0.18488 0.05443 0.01608 0.0
N388 N 0.08904 0.06194 0.00626 0.0
N389 N 0.23233 0.94728 0.97581 0.0
C390 C 0.12025 0.02685 0.00537 0.0
C391 C 0.19461 0.96923 0.98861 0.0
N392 N 0.02296 0.92733 0.99239 0.0
N393 N 0.28259 0.04796 0.02062 0.0
H394 H 0.2129 0.90601 0.96206 0.0
H395 H 0.28282 0.97188 0.97753 0.0
H396 H 0.30414 0.08909 0.03445 0.0
H397 H 0.30948 0.02449 0.01837 0.0
H398 H 0.99297 0.94253 0.00233 0.0
H399 H 0.9989 0.87889 0.98537 0.0
H400 H 0.04321 0.04548 0.99675 0.0
H401 H 0.11271 0.11055 0.01297 0.0
C402 C 0.13373 0.12027 0.33925 0.0
C403 C 0.17213 0.18569 0.34938 0.0
C404 C 0.26538 0.1948 0.32044 0.0
C405 C 0.22794 0.12802 0.31233 0.0
N406 N 0.12905 0.02437 0.31835 0.0
N407 N 0.27638 0.2832 0.35274 0.0
C408 C 0.16298 0.0902 0.32304 0.0
C409 C 0.23853 0.22263 0.34073 0.0
N410 N 0.06816 0.08659 0.34458 0.0
N411 N 0.32546 0.23201 0.30795 0.0
H412 H 0.25782 0.30481 0.36715 0.0
H413 H 0.32657 0.31026 0.35001 0.0
H414 H 0.34647 0.21274 0.29361 0.0
H415 H 0.35267 0.2823 0.31024 0.0
H416 H 0.03618 0.04246 0.33438 0.0
H417 H 0.04349 0.10475 0.35696 0.0
H418 H 0.08524 0.99301 0.32888 0.0
H419 H 0.14671 0.99901 0.30616 0.0
C420 C 0.03454 0.28328 0.69646 0.0
C421 C 0.97767 0.24816 0.67849 0.0
C422 C 0.04397 0.28864 0.63267 0.0
C423 C 0.1005 0.309 0.65062 0.0
N424 N 0.15271 0.33929 0.69922 0.0
N425 N 0.92575 0.22758 0.62981 0.0
C426 C 0.09686 0.31252 0.68247 0.0
C427 C 0.98149 0.25575 0.64662 0.0
N428 N 0.02809 0.28584 0.72707 0.0
N429 N 0.051 0.29909 0.60216 0.0
H430 H 0.87983 0.20588 0.63973 0.0
H431 H 0.9245 0.22481 0.60629 0.0
H432 H 0.09684 0.32299 0.59208 0.0
H433 H 0.01299 0.28878 0.58734 0.0
H434 H 0.06625 0.31318 0.74189 0.0
H435 H 0.98262 0.26309 0.73737 0.0
H436 H 0.15419 0.33727 0.72271 0.0
H437 H 0.19859 0.36344 0.68927 0.0
C438 C 0.70311 0.98496 0.02171 0.0
C439 C 0.69084 0.93031 0.00417 0.0
C440 C 0.73841 1.00037 0.96012 0.0
C441 C 0.76678 0.05532 0.97987 0.0
N442 N 0.76966 0.10155 0.0289 0.0
N443 N 0.67626 0.8821 0.95524 0.0
C444 C 0.74556 0.04849 0.01035 0.0
C445 C 0.70038 0.93693 0.97259 0.0
N446 N 0.67425 0.97493 0.04934 0.0
N447 N 0.751 0.00937 0.92979 0.0
H448 H 0.64685 0.83609 0.96455 0.0
H449 H 0.68425 0.88145 0.93213 0.0
H450 H 0.78005 0.05536 0.92055 0.0
H451 H 0.73148 0.97259 0.91364 0.0
H452 H 0.67776 0.01204 0.06321 0.0
H453 H 0.64077 0.92796 0.05647 0.0
H454 H 0.762 0.09864 0.05219 0.0
H455 H 0.79943 0.14871 0.02102 0.0
C456 C 0.73493 0.75189 0.3483 0.0
C457 C 0.73792 0.75456 0.31625 0.0
C458 C 0.79416 0.69145 0.31581 0.0
C459 C 0.79909 0.69672 0.34781 0.0
N460 N 0.75325 0.70727 0.3944 0.0
N461 N 0.74564 0.70576 0.27003 0.0
C462 C 0.76131 0.71785 0.36393 0.0
C463 C 0.75839 0.71605 0.3003 0.0
N464 N 0.71213 0.78614 0.36381 0.0
N465 N 0.82788 0.66827 0.30015 0.0
H466 H 0.71986 0.72424 0.25862 0.0
H467 H 0.75491 0.67454 0.25715 0.0
H468 H 0.85251 0.64776 0.31075 0.0
H469 H 0.8332 0.67126 0.2767 0.0
H470 H 0.71663 0.79318 0.38716 0.0
H471 H 0.69029 0.80938 0.35309 0.0
H472 H 0.7227 0.71714 0.40746 0.0
H473 H 0.77292 0.68268 0.40591 0.0
C474 C 0.06204 0.8114 0.67827 0.0
C475 C 0.09795 0.87969 0.68307 0.0
C476 C 0.01382 0.89118 0.6574 0.0
C477 C 0.98158 0.82495 0.64865 0.0
N478 N 0.97973 0.72251 0.64787 0.0
N479 N 0.11771 0.98527 0.66784 0.0
C480 C 0.00687 0.78478 0.65828 0.0
C481 C 0.077 0.91969 0.66938 0.0
N482 N 0.0796 0.77231 0.69318 0.0
N483 N 0.98281 0.92634 0.65549 0.0
H484 H 0.16602 0.00704 0.67494 0.0
H485 H 0.10571 0.0161 0.65628 0.0
H486 H 0.93372 0.90466 0.64979 0.0
H487 H 1.00314 0.97391 0.66348 0.0
H488 H 0.05165 0.72179 0.69302 0.0
H489 H 0.12075 0.79111 0.70701 0.0
H490 H 0.99979 0.69299 0.65188 0.0
H491 H 0.93931 0.70196 0.63359 0.0
C492 C 0.09016 0.30781 0.00946 0.0
C493 C 0.02734 0.25199 0.00935 0.0
C494 C 0.06534 0.19499 0.04245 0.0
C495 C 0.12918 0.24942 0.04073 0.0
N496 N 0.19572 0.36488 0.03364 0.0
N497 N 0.95009 0.1504 0.03214 0.0
C498 C 0.13936 0.30824 0.02771 0.0
C499 C 0.01322 0.19804 0.02803 0.0
N500 N 0.10342 0.35984 0.99151 0.0
N501 N 0.05487 0.13995 0.05691 0.0
H502 H 0.91131 0.15204 0.022 0.0
H503 H 0.93551 0.11232 0.04742 0.0
H504 H 0.09076 0.1381 0.06951 0.0
H505 H 0.01165 0.09572 0.05562 0.0
H506 H 0.15026 0.39831 0.98777 0.0
H507 H 0.06806 0.36288 0.97883 0.0
H508 H 0.20402 0.41045 0.02701 0.0
H509 H 0.23122 0.36688 0.04827 0.0
C510 C 0.89298 0.05047 0.31908 0.0
C511 C 0.82816 0.02922 0.3281 0.0
C512 C 0.87034 0.11325 0.36768 0.0
C513 C 0.9337 0.13949 0.35545 0.0
N514 N 0.99972 0.14312 0.31268 0.0
N515 N 0.75691 0.05928 0.35441 0.0
C516 C 0.94319 0.11184 0.32879 0.0
C517 C 0.81682 0.06517 0.35085 0.0
N518 N 0.90776 0.0108 0.30284 0.0
N519 N 0.86023 0.13644 0.39423 0.0
H520 H 0.71835 0.03357 0.33954 0.0
H521 H 0.74834 0.08837 0.36923 0.0
H522 H 0.89704 0.17506 0.40625 0.0
H523 H 0.81552 0.11384 0.40533 0.0
H524 H 0.95508 0.02364 0.29674 0.0
H525 H 0.87427 0.96194 0.29976 0.0
H526 H 0.00488 0.12701 0.29142 0.0
H527 H 0.04022 0.18623 0.31969 0.0
C528 C 0.72935 0.87115 0.6439 0.0
C529 C 0.78608 0.88147 0.62849 0.0
C530 C 0.83721 0.99811 0.63967 0.0
C531 C 0.78618 0.98452 0.66027 0.0
N532 N 0.68351 0.90754 0.68285 0.0
N533 N 0.89287 0.95625 0.60913 0.0
C534 C 0.73203 0.92091 0.66254 0.0
C535 C 0.83942 0.9456 0.62517 0.0
N536 N 0.67211 0.81434 0.63966 0.0
N537 N 0.88302 0.06112 0.6338 0.0
H538 H 0.89449 0.91997 0.59677 0.0
H539 H 0.93664 1.00008 0.60919 0.0
H540 H 0.88291 0.10019 0.64443 0.0
H541 H 0.91787 0.07504 0.61684 0.0
H542 H 0.62772 0.80604 0.64818 0.0
H543 H 0.66775 0.77858 0.62452 0.0
H544 H 0.64698 0.86048 0.68797 0.0
H545 H 0.68217 0.94295 0.69626 0.0
C546 C 0.81329 0.79951 0.96663 0.0
C547 C 0.76901 0.7426 0.98255 0.0
C548 C 0.82391 0.68624 0.96313 0.0
C549 C 0.87547 0.7464 0.95274 0.0
N550 N 0.91603 0.85863 0.94005 0.0
N551 N 0.73024 0.63058 0.99581 0.0
C552 C 0.86872 0.80244 0.95265 0.0
C553 C 0.77313 0.68524 0.98037 0.0
N554 N 0.80158 0.85009 0.96465 0.0
N555 N 0.8232 0.62995 0.95581 0.0
H556 H 0.69079 0.62692 0.00781 0.0
H557 H 0.73584 0.59007 -0.00175 0.0
H558 H 0.85872 0.62946 0.94209 0.0
H559 H 0.78434 0.58382 0.96038 0.0
H560 H 0.82856 0.89133 0.95151 0.0
H561 H 0.76096 0.84825 0.9745 0.0
H562 H 0.91897 0.90358 0.94248 0.0
H563 H 0.95378 0.86032 0.92752 0.0
C564 C 0.09538 0.84961 0.34342 0.0
C565 C 0.07413 0.78458 0.33471 0.0
C566 C 0.15816 0.82577 0.29528 0.0
C567 C 0.18432 0.88942 0.30725 0.0
N568 N 0.18794 0.95657 0.34957 0.0
N569 N 0.10364 0.71253 0.30875 0.0
C570 C 0.15673 0.89958 0.33371 0.0
C571 C 0.10995 0.77264 0.31214 0.0
N572 N 0.05551 0.86476 0.35924 0.0
N573 N 0.1815 0.81512 0.26892 0.0
H574 H 0.07741 0.6741 0.32354 0.0
H575 H 0.13267 0.70354 0.29411 0.0
H576 H 0.22029 0.85168 0.25695 0.0
H577 H 0.15893 0.77022 0.25792 0.0
H578 H 0.06842 0.91211 0.36532 0.0
H579 H 0.00647 0.83148 0.36183 0.0
H580 H 0.1718 0.96232 0.3707 0.0
H581 H 0.23108 0.99685 0.34251 0.0
C582 C 0.34711 0.18151 0.69361 0.0
C583 C 0.28766 0.13201 0.70578 0.0
C584 C 0.23529 0.19468 0.69143 0.0
C585 C 0.29077 0.23613 0.67398 0.0
N586 N 0.40021 0.26967 0.65788 0.0
N587 N 0.17552 0.09323 0.71861 0.0
C588 C 0.34716 0.23013 0.67511 0.0
C589 C 0.232 0.13957 0.70584 0.0
N590 N 0.40388 0.18289 0.70062 0.0
N591 N 0.18643 0.20873 0.6946 0.0
H592 H 0.17288 0.05513 0.73113 0.0
H593 H 0.1309 0.09093 0.71577 0.0
H594 H 0.18822 0.24911 0.68448 0.0
H595 H 0.14722 0.18419 0.70923 0.0
H596 H 0.44961 0.22086 0.69468 0.0
H597 H 0.4056 0.14959 0.71544 0.0
H598 H 0.43947 0.26217 0.65492 0.0
H599 H 0.4033 0.30763 0.64485 0.0
loop_
_geom_bond_atom_site_label_1
_geom_bond_atom_site_label_2
_geom_bond_distance
_geom_bond_site_symmetry_2
_ccdc_geom_bond_type
Co0 O1 2.216 . S
Co0 O2 2.091 . S
Co0 O4 2.004 . S
Co0 O10 2.021 . S
Co0 O12 2.137 . S
Co0 O13 2.244 . S
O1 Co0 2.216 . S
O1 C8 1.247 . S
O2 Co0 2.091 . S
O2 C8 1.261 . S
C3 O12 1.247 . S
C3 O13 1.272 . S
O4 Co0 2.004 . S
O4 C9 1.259 . S
Co5 O6 2.061 . S
Co5 O11 2.052 . S
Co5 O13 2.135 . S
O6 Co5 2.061 . S
O6 C9 1.235 . S
C7 O10 1.238 . S
C7 O11 1.241 . S
C8 O1 1.247 . S
C8 O2 1.261 . S
C9 O4 1.259 . S
C9 O6 1.235 . S
O10 Co0 2.021 . S
O10 C7 1.238 . S
O11 Co5 2.052 . S
O11 C7 1.241 . S
O12 Co0 2.137 . S
O12 C3 1.247 . S
O13 Co0 2.244 . S
O13 C3 1.272 . S
O13 Co5 2.135 . S
Co14 O15 2.216 . S
Co14 O16 2.091 . S
Co14 O18 2.004 . S
Co14 O24 2.021 . S
Co14 O26 2.137 . S
Co14 O27 2.244 . S
O15 Co14 2.216 . S
O15 C22 1.247 . S
O16 Co14 2.091 . S
O16 C22 1.261 . S
C17 O26 1.247 1_655 S
C17 O27 1.272 1_655 S
O18 Co14 2.004 . S
O18 C23 1.259 . S
Co19 O20 2.061 . S
Co19 O25 2.052 . S
Co19 O27 2.135 . S
O20 Co19 2.061 . S
O20 C23 1.235 . S
C21 O24 1.238 . S
C21 O25 1.241 . S
C22 O15 1.247 . S
C22 O16 1.261 . S
C23 O18 1.259 . S
C23 O20 1.235 . S
O24 Co14 2.021 . S
O24 C21 1.238 . S
O25 Co19 2.052 . S
O25 C21 1.241 . S
O26 Co14 2.137 . S
O26 C17 1.247 1_455 S
O27 Co14 2.244 . S
O27 C17 1.272 1_455 S
O27 Co19 2.135 . S
Co28 O29 2.216 . S
Co28 O30 2.091 . S
Co28 O32 2.004 . S
Co28 O38 2.021 . S
Co28 O40 2.137 . S
Co28 O41 2.244 . S
O29 Co28 2.216 . S
O29 C36 1.247 . S
O30 Co28 2.091 . S
O30 C36 1.261 . S
C31 O40 1.247 1_565 S
C31 O41 1.272 1_565 S
O32 Co28 2.004 . S
O32 C37 1.259 . S
Co33 O34 2.061 . S
Co33 O39 2.052 . S
Co33 O41 2.135 . S
O34 Co33 2.061 . S
O34 C37 1.235 . S
C35 O38 1.238 . S
C35 O39 1.241 . S
C36 O29 1.247 . S
C36 O30 1.261 . S
C37 O32 1.259 . S
C37 O34 1.235 . S
O38 Co28 2.021 . S
O38 C35 1.238 . S
O39 Co33 2.052 . S
O39 C35 1.241 . S
O40 Co28 2.137 . S
O40 C31 1.247 1_545 S
O41 Co28 2.244 . S
O41 C31 1.272 1_545 S
O41 Co33 2.135 . S
Co42 O43 2.216 . S
Co42 O44 2.091 . S
Co42 O46 2.004 . S
Co42 O52 2.021 . S
Co42 O54 2.137 . S
Co42 O55 2.244 . S
O43 Co42 2.216 . S
O43 C50 1.247 . S
O44 Co42 2.091 . S
O44 C50 1.261 . S
C45 O54 1.247 . S
C45 O55 1.272 . S
O46 Co42 2.004 . S
O46 C51 1.259 . S
Co47 O48 2.061 . S
Co47 O53 2.052 . S
Co47 O55 2.135 . S
O48 Co47 2.061 . S
O48 C51 1.235 . S
C49 O52 1.238 . S
C49 O53 1.241 . S
C50 O43 1.247 . S
C50 O44 1.261 . S
C51 O46 1.259 . S
C51 O48 1.235 . S
O52 Co42 2.021 . S
O52 C49 1.238 . S
O53 Co47 2.052 . S
O53 C49 1.241 . S
O54 Co42 2.137 . S
O54 C45 1.247 . S
O55 Co42 2.244 . S
O55 C45 1.272 . S
O55 Co47 2.135 . S
Co56 O57 2.216 . S
Co56 O58 2.091 . S
Co56 O60 2.004 . S
Co56 O66 2.021 . S
Co56 O68 2.137 . S
Co56 O69 2.244 . S
O57 Co56 2.216 . S
O57 C64 1.247 . S
O58 Co56 2.091 . S
O58 C64 1.261 . S
C59 O68 1.247 1_455 S
C59 O69 1.272 1_455 S
O60 Co56 2.004 . S
O60 C65 1.259 . S
Co61 O62 2.061 . S
Co61 O67 2.052 . S
Co61 O69 2.135 . S
O62 Co61 2.061 . S
O62 C65 1.235 . S
C63 O66 1.238 . S
C63 O67 1.241 . S
C64 O57 1.247 . S
C64 O58 1.261 . S
C65 O60 1.259 . S
C65 O62 1.235 . S
O66 Co56 2.021 . S
O66 C63 1.238 . S
O67 Co61 2.052 . S
O67 C63 1.241 . S
O68 Co56 2.137 . S
O68 C59 1.247 1_655 S
O69 Co56 2.244 . S
O69 C59 1.272 1_655 S
O69 Co61 2.135 . S
Co70 O71 2.216 . S
Co70 O72 2.091 . S
Co70 O74 2.004 . S
Co70 O80 2.021 . S
Co70 O82 2.137 . S
Co70 O83 2.244 . S
O71 Co70 2.216 . S
O71 C78 1.247 . S
O72 Co70 2.091 . S
O72 C78 1.261 . S
C73 O82 1.247 1_545 S
C73 O83 1.272 1_545 S
O74 Co70 2.004 . S
O74 C79 1.259 . S
Co75 O76 2.061 . S
Co75 O81 2.052 . S
Co75 O83 2.135 . S
O76 Co75 2.061 . S
O76 C79 1.235 . S
C77 O80 1.238 . S
C77 O81 1.241 . S
C78 O71 1.247 . S
C78 O72 1.261 . S
C79 O74 1.259 . S
C79 O76 1.235 . S
O80 Co70 2.021 . S
O80 C77 1.238 . S
O81 Co75 2.052 . S
O81 C77 1.241 . S
O82 Co70 2.137 . S
O82 C73 1.247 1_565 S
O83 Co70 2.244 . S
O83 C73 1.272 1_565 S
O83 Co75 2.135 . S
Co84 O85 2.216 . S
Co84 O86 2.091 . S
Co84 O88 2.004 . S
Co84 O94 2.021 . S
Co84 O96 2.137 . S
Co84 O97 2.244 . S
O85 Co84 2.216 . S
O85 C92 1.247 . S
O86 Co84 2.091 . S
O86 C92 1.261 . S
C87 O96 1.247 . S
C87 O97 1.272 . S
O88 Co84 2.004 . S
O88 C93 1.259 . S
Co89 O90 2.061 . S
Co89 O95 2.052 . S
Co89 O97 2.135 . S
O90 Co89 2.061 . S
O90 C93 1.235 . S
C91 O94 1.238 . S
C91 O95 1.241 . S
C92 O85 1.247 . S
C92 O86 1.261 . S
C93 O88 1.259 . S
C93 O90 1.235 . S
O94 Co84 2.021 . S
O94 C91 1.238 . S
O95 Co89 2.052 . S
O95 C91 1.241 . S
O96 Co84 2.137 . S
O96 C87 1.247 . S
O97 Co84 2.244 . S
O97 C87 1.272 . S
O97 Co89 2.135 . S
Co98 O99 2.216 . S
Co98 O100 2.091 . S
Co98 O102 2.004 . S
Co98 O108 2.021 . S
Co98 O110 2.137 . S
Co98 O111 2.244 . S
O99 Co98 2.216 . S
O99 C106 1.247 . S
O100 Co98 2.091 . S
O100 C106 1.261 . S
C101 O110 1.247 1_655 S
C101 O111 1.272 1_655 S
O102 Co98 2.004 . S
O102 C107 1.259 . S
Co103 O104 2.061 . S
Co103 O109 2.052 . S
Co103 O111 2.135 . S
O104 Co103 2.061 . S
O104 C107 1.235 . S
C105 O108 1.238 . S
C105 O109 1.241 . S
C106 O99 1.247 . S
C106 O100 1.261 . S
C107 O102 1.259 . S
C107 O104 1.235 . S
O108 Co98 2.021 . S
O108 C105 1.238 . S
O109 Co103 2.052 . S
O109 C105 1.241 . S
O110 Co98 2.137 . S
O110 C101 1.247 1_455 S
O111 Co98 2.244 . S
O111 C101 1.272 1_455 S
O111 Co103 2.135 . S
Co112 O113 2.216 . S
Co112 O114 2.091 . S
Co112 O116 2.004 . S
Co112 O122 2.021 . S
Co112 O124 2.137 . S
Co112 O125 2.244 . S
O113 Co112 2.216 . S
O113 C120 1.247 . S
O114 Co112 2.091 . S
O114 C120 1.261 . S
C115 O124 1.247 1_565 S
C115 O125 1.272 1_565 S
O116 Co112 2.004 . S
O116 C121 1.259 . S
Co117 O118 2.061 . S
Co117 O123 2.052 . S
Co117 O125 2.135 . S
O118 Co117 2.061 . S
O118 C121 1.235 . S
C119 O122 1.238 . S
C119 O123 1.241 . S
C120 O113 1.247 . S
C120 O114 1.261 . S
C121 O116 1.259 . S
C121 O118 1.235 . S
O122 Co112 2.021 . S
O122 C119 1.238 . S
O123 Co117 2.052 . S
O123 C119 1.241 . S
O124 Co112 2.137 . S
O124 C115 1.247 1_545 S
O125 Co112 2.244 . S
O125 C115 1.272 1_545 S
O125 Co117 2.135 . S
Co126 O127 2.216 . S
Co126 O128 2.091 . S
Co126 O130 2.004 . S
Co126 O136 2.021 . S
Co126 O138 2.137 . S
Co126 O139 2.244 . S
O127 Co126 2.216 . S
O127 C134 1.247 . S
O128 Co126 2.091 . S
O128 C134 1.261 . S
C129 O138 1.247 . S
C129 O139 1.272 . S
O130 Co126 2.004 . S
O130 C135 1.259 . S
Co131 O132 2.061 . S
Co131 O137 2.052 . S
Co131 O139 2.135 . S
O132 Co131 2.061 . S
O132 C135 1.235 . S
C133 O136 1.238 . S
C133 O137 1.241 . S
C134 O127 1.247 . S
C134 O128 1.261 . S
C135 O130 1.259 . S
C135 O132 1.235 . S
O136 Co126 2.021 . S
O136 C133 1.238 . S
O137 Co131 2.052 . S
O137 C133 1.241 . S
O138 Co126 2.137 . S
O138 C129 1.247 . S
O139 Co126 2.244 . S
O139 C129 1.272 . S
O139 Co131 2.135 . S
Co140 O141 2.216 . S
Co140 O142 2.091 . S
Co140 O144 2.004 . S
Co140 O150 2.021 . S
Co140 O152 2.137 . S
Co140 O153 2.244 . S
O141 Co140 2.216 . S
O141 C148 1.247 . S
O142 Co140 2.091 . S
O142 C148 1.261 . S
C143 O152 1.247 1_455 S
C143 O153 1.272 1_455 S
O144 Co140 2.004 . S
O144 C149 1.259 . S
Co145 O146 2.061 . S
Co145 O151 2.052 . S
Co145 O153 2.135 . S
O146 Co145 2.061 . S
O146 C149 1.235 . S
C147 O150 1.238 . S
C147 O151 1.241 . S
C148 O141 1.247 . S
C148 O142 1.261 . S
C149 O144 1.259 . S
C149 O146 1.235 . S
O150 Co140 2.021 . S
O150 C147 1.238 . S
O151 Co145 2.052 . S
O151 C147 1.241 . S
O152 Co140 2.137 . S
O152 C143 1.247 1_655 S
O153 Co140 2.244 . S
O153 C143 1.272 1_655 S
O153 Co145 2.135 . S
Co154 O155 2.216 . S
Co154 O156 2.091 . S
Co154 O158 2.004 . S
Co154 O164 2.021 . S
Co154 O166 2.137 . S
Co154 O167 2.244 . S
O155 Co154 2.216 . S
O155 C162 1.247 . S
O156 Co154 2.091 . S
O156 C162 1.261 . S
C157 O166 1.247 1_545 S
C157 O167 1.272 1_545 S
O158 Co154 2.004 . S
O158 C163 1.259 . S
Co159 O160 2.061 . S
Co159 O165 2.052 . S
Co159 O167 2.135 . S
O160 Co159 2.061 . S
O160 C163 1.235 . S
C161 O164 1.238 . S
C161 O165 1.241 . S
C162 O155 1.247 . S
C162 O156 1.261 . S
C163 O158 1.259 . S
C163 O160 1.235 . S
O164 Co154 2.021 . S
O164 C161 1.238 . S
O165 Co159 2.052 . S
O165 C161 1.241 . S
O166 Co154 2.137 . S
O166 C157 1.247 1_565 S
O167 Co154 2.244 . S
O167 C157 1.272 1_565 S
O167 Co159 2.135 . S
C168 C169 1.363 . S
C168 C174 1.379 . S
C168 N176 1.356 . S
C169 C168 1.363 . S
C169 C175 1.363 . S
C170 C171 1.363 . S
C170 C175 1.379 . S
C170 N177 1.356 . S
C171 C170 1.363 . S
C171 C174 1.363 . S
N172 C174 1.356 . S
N172 H184 0.984 1_554 S
N172 H185 0.985 . S
N173 C175 1.356 . S
N173 H178 0.984 . S
N173 H179 0.985 . S
C174 C168 1.379 . S
C174 C171 1.363 . S
C174 N172 1.356 . S
C175 C169 1.363 . S
C175 C170 1.379 . S
C175 N173 1.356 . S
N176 C168 1.356 . S
N176 H182 0.984 1_554 S
N176 H183 0.984 . S
N177 C170 1.356 . S
N177 H180 0.984 . S
N177 H181 0.985 . S
H178 N173 0.984 . S
H179 N173 0.985 . S
H180 N177 0.984 . S
H181 N177 0.985 . S
H182 N176 0.984 1_556 S
H183 N176 0.984 . S
H184 N172 0.984 1_556 S
H185 N172 0.985 . S
C186 C187 1.363 1_655 S
C186 C192 1.379 . S
C186 N194 1.356 1_655 S
C187 C186 1.363 1_455 S
C187 C193 1.363 . S
C188 C189 1.363 1_455 S
C188 C193 1.379 . S
C188 N195 1.356 1_455 S
C189 C188 1.363 1_655 S
C189 C192 1.363 . S
N190 C192 1.356 . S
N190 H202 0.984 . S
N190 H203 0.985 . S
N191 C193 1.356 . S
N191 H196 0.984 . S
N191 H197 0.985 . S
C192 C186 1.379 . S
C192 C189 1.363 . S
C192 N190 1.356 . S
C193 C187 1.363 . S
C193 C188 1.379 . S
C193 N191 1.356 . S
N194 C186 1.356 1_455 S
N194 H200 0.984 1_455 S
N194 H201 0.984 . S
N195 C188 1.356 1_655 S
N195 H198 0.984 . S
N195 H199 0.985 1_655 S
H196 N191 0.984 . S
H197 N191 0.985 . S
H198 N195 0.984 . S
H199 N195 0.985 1_455 S
H200 N194 0.984 1_655 S
H201 N194 0.984 . S
H202 N190 0.984 . S
H203 N190 0.985 . S
C204 C205 1.363 . S
C204 C210 1.379 . S
C204 N212 1.356 . S
C205 C204 1.363 . S
C205 C211 1.363 1_565 S
C206 C207 1.363 . S
C206 C211 1.379 . S
C206 N213 1.356 . S
C207 C206 1.363 . S
C207 C210 1.363 1_545 S
N208 C210 1.356 1_545 S
N208 H220 0.984 1_545 S
N208 H221 0.985 . S
N209 C211 1.356 1_565 S
N209 H214 0.984 . S
N209 H215 0.985 1_565 S
C210 C204 1.379 . S
C210 C207 1.363 1_565 S
C210 N208 1.356 1_565 S
C211 C205 1.363 1_545 S
C211 C206 1.379 . S
C211 N209 1.356 1_545 S
N212 C204 1.356 . S
N212 H218 0.984 . S
N212 H219 0.984 . S
N213 C206 1.356 . S
N213 H216 0.984 . S
N213 H217 0.985 . S
H214 N209 0.984 . S
H215 N209 0.985 1_545 S
H216 N213 0.984 . S
H217 N213 0.985 . S
H218 N212 0.984 . S
H219 N212 0.984 . S
H220 N208 0.984 1_565 S
H221 N208 0.985 . S
C222 C223 1.363 . S
C222 C228 1.379 . S
C222 N230 1.356 . S
C223 C222 1.363 . S
C223 C229 1.363 . S
C224 C225 1.363 . S
C224 C229 1.379 . S
C224 N231 1.356 . S
C225 C224 1.363 . S
C225 C228 1.363 . S
N226 C228 1.356 . S
N226 H238 0.984 . S
N226 H239 0.985 . S
N227 C229 1.356 . S
N227 H232 0.984 . S
N227 H233 0.985 . S
C228 C222 1.379 . S
C228 C225 1.363 . S
C228 N226 1.356 . S
C229 C223 1.363 . S
C229 C224 1.379 . S
C229 N227 1.356 . S
N230 C222 1.356 . S
N230 H236 0.984 . S
N230 H237 0.984 . S
N231 C224 1.356 . S
N231 H234 0.984 . S
N231 H235 0.985 . S
H232 N227 0.984 . S
H233 N227 0.985 . S
H234 N231 0.984 . S
H235 N231 0.985 . S
H236 N230 0.984 . S
H237 N230 0.984 . S
H238 N226 0.984 . S
H239 N226 0.985 . S
C240 C241 1.363 . S
C240 C246 1.379 . S
C240 N248 1.356 . S
C241 C240 1.363 . S
C241 C247 1.363 1_655 S
C242 C243 1.363 . S
C242 C247 1.379 . S
C242 N249 1.356 . S
C243 C242 1.363 . S
C243 C246 1.363 1_455 S
N244 C246 1.356 1_455 S
N244 H256 0.984 1_456 S
N244 H257 0.985 . S
N245 C247 1.356 1_655 S
N245 H250 0.984 . S
N245 H251 0.985 1_655 S
C246 C240 1.379 . S
C246 C243 1.363 1_655 S
C246 N244 1.356 1_655 S
C247 C241 1.363 1_455 S
C247 C242 1.379 . S
C247 N245 1.356 1_455 S
N248 C240 1.356 . S
N248 H254 0.984 1_556 S
N248 H255 0.984 . S
N249 C242 1.356 . S
N249 H252 0.984 . S
N249 H253 0.985 . S
H250 N245 0.984 . S
H251 N245 0.985 1_455 S
H252 N249 0.984 . S
H253 N249 0.985 . S
H254 N248 0.984 1_554 S
H255 N248 0.984 . S
H256 N244 0.984 1_654 S
H257 N244 0.985 . S
C258 C259 1.363 . S
C258 C264 1.379 . S
C258 N266 1.356 . S
C259 C258 1.363 . S
C259 C265 1.363 1_545 S
C260 C261 1.363 . S
C260 C265 1.379 . S
C260 N267 1.356 . S
C261 C260 1.363 . S
C261 C264 1.363 1_565 S
N262 C264 1.356 1_565 S
N262 H274 0.984 1_565 S
N262 H275 0.985 . S
N263 C265 1.356 1_545 S
N263 H268 0.984 . S
N263 H269 0.985 1_545 S
C264 C258 1.379 . S
C264 C261 1.363 1_545 S
C264 N262 1.356 1_545 S
C265 C259 1.363 1_565 S
C265 C260 1.379 . S
C265 N263 1.356 1_565 S
N266 C258 1.356 . S
N266 H272 0.984 . S
N266 H273 0.984 . S
N267 C260 1.356 . S
N267 H270 0.984 . S
N267 H271 0.985 . S
H268 N263 0.984 . S
H269 N263 0.985 1_565 S
H270 N267 0.984 . S
H271 N267 0.985 . S
H272 N266 0.984 . S
H273 N266 0.984 . S
H274 N262 0.984 1_545 S
H275 N262 0.985 . S
C276 C277 1.363 . S
C276 C282 1.379 . S
C276 N284 1.356 . S
C277 C276 1.363 . S
C277 C283 1.363 . S
C278 C279 1.363 . S
C278 C283 1.379 . S
C278 N285 1.356 . S
C279 C278 1.363 . S
C279 C282 1.363 . S
N280 C282 1.356 . S
N280 H292 0.984 . S
N280 H293 0.985 . S
N281 C283 1.356 . S
N281 H286 0.984 . S
N281 H287 0.985 . S
C282 C276 1.379 . S
C282 C279 1.363 . S
C282 N280 1.356 . S
C283 C277 1.363 . S
C283 C278 1.379 . S
C283 N281 1.356 . S
N284 C276 1.356 . S
N284 H290 0.984 . S
N284 H291 0.984 . S
N285 C278 1.356 . S
N285 H288 0.984 . S
N285 H289 0.985 . S
H286 N281 0.984 . S
H287 N281 0.985 . S
H288 N285 0.984 . S
H289 N285 0.985 . S
H290 N284 0.984 . S
H291 N284 0.984 . S
H292 N280 0.984 . S
H293 N280 0.985 . S
C294 C295 1.363 . S
C294 C300 1.379 . S
C294 N302 1.356 . S
C295 C294 1.363 . S
C295 C301 1.363 . S
C296 C297 1.363 . S
C296 C301 1.379 . S
C296 N303 1.356 . S
C297 C296 1.363 . S
C297 C300 1.363 . S
N298 C300 1.356 . S
N298 H310 0.984 . S
N298 H311 0.985 . S
N299 C301 1.356 . S
N299 H304 0.984 . S
N299 H305 0.985 . S
C300 C294 1.379 . S
C300 C297 1.363 . S
C300 N298 1.356 . S
C301 C295 1.363 . S
C301 C296 1.379 . S
C301 N299 1.356 . S
N302 C294 1.356 . S
N302 H308 0.984 . S
N302 H309 0.984 . S
N303 C296 1.356 . S
N303 H306 0.984 . S
N303 H307 0.985 . S
H304 N299 0.984 . S
H305 N299 0.985 . S
H306 N303 0.984 . S
H307 N303 0.985 . S
H308 N302 0.984 . S
H309 N302 0.984 . S
H310 N298 0.984 . S
H311 N298 0.985 . S
C312 C313 1.363 . S
C312 C318 1.379 . S
C312 N320 1.356 . S
C313 C312 1.363 . S
C313 C319 1.363 . S
C314 C315 1.363 . S
C314 C319 1.379 . S
C314 N321 1.356 . S
C315 C314 1.363 . S
C315 C318 1.363 . S
N316 C318 1.356 . S
N316 H328 0.984 . S
N316 H329 0.985 . S
N317 C319 1.356 . S
N317 H322 0.984 . S
N317 H323 0.985 . S
C318 C312 1.379 . S
C318 C315 1.363 . S
C318 N316 1.356 . S
C319 C313 1.363 . S
C319 C314 1.379 . S
C319 N317 1.356 . S
N320 C312 1.356 . S
N320 H326 0.984 . S
N320 H327 0.984 . S
N321 C314 1.356 . S
N321 H324 0.984 . S
N321 H325 0.985 . S
H322 N317 0.984 . S
H323 N317 0.985 . S
H324 N321 0.984 . S
H325 N321 0.985 . S
H326 N320 0.984 . S
H327 N320 0.984 . S
H328 N316 0.984 . S
H329 N316 0.985 . S
C330 C331 1.363 . S
C330 C336 1.379 . S
C330 N338 1.356 . S
C331 C330 1.363 . S
C331 C337 1.363 . S
C332 C333 1.363 . S
C332 C337 1.379 . S
C332 N339 1.356 . S
C333 C332 1.363 . S
C333 C336 1.363 . S
N334 C336 1.356 . S
N334 H346 0.984 . S
N334 H347 0.985 . S
N335 C337 1.356 . S
N335 H340 0.984 . S
N335 H341 0.985 . S
C336 C330 1.379 . S
C336 C333 1.363 . S
C336 N334 1.356 . S
C337 C331 1.363 . S
C337 C332 1.379 . S
C337 N335 1.356 . S
N338 C330 1.356 . S
N338 H344 0.984 . S
N338 H345 0.984 . S
N339 C332 1.356 . S
N339 H342 0.984 . S
N339 H343 0.985 . S
H340 N335 0.984 . S
H341 N335 0.985 . S
H342 N339 0.984 . S
H343 N339 0.985 . S
H344 N338 0.984 . S
H345 N338 0.984 . S
H346 N334 0.984 . S
H347 N334 0.985 . S
C348 C349 1.363 . S
C348 C354 1.379 . S
C348 N356 1.356 . S
C349 C348 1.363 . S
C349 C355 1.363 . S
C350 C351 1.363 . S
C350 C355 1.379 . S
C350 N357 1.356 . S
C351 C350 1.363 . S
C351 C354 1.363 . S
N352 C354 1.356 . S
N352 H364 0.984 . S
N352 H365 0.985 . S
N353 C355 1.356 . S
N353 H358 0.984 . S
N353 H359 0.985 . S
C354 C348 1.379 . S
C354 C351 1.363 . S
C354 N352 1.356 . S
C355 C349 1.363 . S
C355 C350 1.379 . S
C355 N353 1.356 . S
N356 C348 1.356 . S
N356 H362 0.984 . S
N356 H363 0.984 . S
N357 C350 1.356 . S
N357 H360 0.984 . S
N357 H361 0.985 . S
H358 N353 0.984 . S
H359 N353 0.985 . S
H360 N357 0.984 . S
H361 N357 0.985 . S
H362 N356 0.984 . S
H363 N356 0.984 . S
H364 N352 0.984 . S
H365 N352 0.985 . S
C366 C367 1.363 . S
C366 C372 1.379 . S
C366 N374 1.356 . S
C367 C366 1.363 . S
C367 C373 1.363 . S
C368 C369 1.363 . S
C368 C373 1.379 . S
C368 N375 1.356 . S
C369 C368 1.363 . S
C369 C372 1.363 . S
N370 C372 1.356 . S
N370 H382 0.984 . S
N370 H383 0.985 . S
N371 C373 1.356 . S
N371 H376 0.984 . S
N371 H377 0.985 . S
C372 C366 1.379 . S
C372 C369 1.363 . S
C372 N370 1.356 . S
C373 C367 1.363 . S
C373 C368 1.379 . S
C373 N371 1.356 . S
N374 C366 1.356 . S
N374 H380 0.984 . S
N374 H381 0.984 . S
N375 C368 1.356 . S
N375 H378 0.984 . S
N375 H379 0.985 . S
H376 N371 0.984 . S
H377 N371 0.985 . S
H378 N375 0.984 . S
H379 N375 0.985 . S
H380 N374 0.984 . S
H381 N374 0.984 . S
H382 N370 0.984 . S
H383 N370 0.985 . S
C384 C385 1.363 1_554 S
C384 C390 1.379 1_565 S
C384 N392 1.356 . S
C385 C384 1.363 1_556 S
C385 C391 1.363 . S
C386 C387 1.363 1_556 S
C386 C391 1.379 1_545 S
C386 N393 1.356 . S
C387 C386 1.363 1_554 S
C387 C390 1.363 . S
N388 C390 1.356 . S
N388 H400 0.984 . S
N388 H401 0.985 . S
N389 C391 1.356 . S
N389 H394 0.984 . S
N389 H395 0.985 . S
C390 C384 1.379 1_545 S
C390 C387 1.363 . S
C390 N388 1.356 . S
C391 C385 1.363 . S
C391 C386 1.379 1_565 S
C391 N389 1.356 . S
N392 C384 1.356 . S
N392 H398 0.984 . S
N392 H399 0.984 1_554 S
N393 C386 1.356 . S
N393 H396 0.984 1_556 S
N393 H397 0.985 . S
H394 N389 0.984 . S
H395 N389 0.985 . S
H396 N393 0.984 1_554 S
H397 N393 0.985 . S
H398 N392 0.984 . S
H399 N392 0.984 1_556 S
H400 N388 0.984 . S
H401 N388 0.985 . S
C402 C403 1.363 . S
C402 C408 1.379 . S
C402 N410 1.356 . S
C403 C402 1.363 . S
C403 C409 1.363 . S
C404 C405 1.363 . S
C404 C409 1.379 . S
C404 N411 1.356 . S
C405 C404 1.363 . S
C405 C408 1.363 . S
N406 C408 1.356 . S
N406 H418 0.984 . S
N406 H419 0.985 . S
N407 C409 1.356 . S
N407 H412 0.984 . S
N407 H413 0.985 . S
C408 C402 1.379 . S
C408 C405 1.363 . S
C408 N406 1.356 . S
C409 C403 1.363 . S
C409 C404 1.379 . S
C409 N407 1.356 . S
N410 C402 1.356 . S
N410 H416 0.984 . S
N410 H417 0.984 . S
N411 C404 1.356 . S
N411 H414 0.984 . S
N411 H415 0.985 . S
H412 N407 0.984 . S
H413 N407 0.985 . S
H414 N411 0.984 . S
H415 N411 0.985 . S
H416 N410 0.984 . S
H417 N410 0.984 . S
H418 N406 0.984 . S
H419 N406 0.985 . S
C420 C421 1.363 . S
C420 C426 1.379 1_655 S
C420 N428 1.356 . S
C421 C420 1.363 . S
C421 C427 1.363 . S
C422 C423 1.363 . S
C422 C427 1.379 1_455 S
C422 N429 1.356 . S
C423 C422 1.363 . S
C423 C426 1.363 . S
N424 C426 1.356 . S
N424 H436 0.984 . S
N424 H437 0.985 . S
N425 C427 1.356 . S
N425 H430 0.984 . S
N425 H431 0.985 . S
C426 C420 1.379 1_455 S
C426 C423 1.363 . S
C426 N424 1.356 . S
C427 C421 1.363 . S
C427 C422 1.379 1_655 S
C427 N425 1.356 . S
N428 C420 1.356 . S
N428 H434 0.984 . S
N428 H435 0.984 . S
N429 C422 1.356 . S
N429 H432 0.984 . S
N429 H433 0.985 . S
H430 N425 0.984 . S
H431 N425 0.985 . S
H432 N429 0.984 . S
H433 N429 0.985 . S
H434 N428 0.984 . S
H435 N428 0.984 . S
H436 N424 0.984 . S
H437 N424 0.985 . S
C438 C439 1.363 . S
C438 C444 1.379 1_565 S
C438 N446 1.356 . S
C439 C438 1.363 . S
C439 C445 1.363 1_554 S
C440 C441 1.363 . S
C440 C445 1.379 1_545 S
C440 N447 1.356 . S
C441 C440 1.363 . S
C441 C444 1.363 1_556 S
N442 C444 1.356 . S
N442 H454 0.984 . S
N442 H455 0.985 . S
N443 C445 1.356 . S
N443 H448 0.984 . S
N443 H449 0.985 . S
C444 C438 1.379 1_545 S
C444 C441 1.363 1_554 S
C444 N442 1.356 . S
C445 C439 1.363 1_556 S
C445 C440 1.379 1_565 S
C445 N443 1.356 . S
N446 C438 1.356 . S
N446 H452 0.984 . S
N446 H453 0.984 . S
N447 C440 1.356 . S
N447 H450 0.984 . S
N447 H451 0.985 . S
H448 N443 0.984 . S
H449 N443 0.985 . S
H450 N447 0.984 . S
H451 N447 0.985 . S
H452 N446 0.984 . S
H453 N446 0.984 . S
H454 N442 0.984 . S
H455 N442 0.985 . S
C456 C457 1.363 . S
C456 C462 1.379 . S
C456 N464 1.356 . S
C457 C456 1.363 . S
C457 C463 1.363 . S
C458 C459 1.363 . S
C458 C463 1.379 . S
C458 N465 1.356 . S
C459 C458 1.363 . S
C459 C462 1.363 . S
N460 C462 1.356 . S
N460 H472 0.984 . S
N460 H473 0.985 . S
N461 C463 1.356 . S
N461 H466 0.984 . S
N461 H467 0.985 . S
C462 C456 1.379 . S
C462 C459 1.363 . S
C462 N460 1.356 . S
C463 C457 1.363 . S
C463 C458 1.379 . S
C463 N461 1.356 . S
N464 C456 1.356 . S
N464 H470 0.984 . S
N464 H471 0.984 . S
N465 C458 1.356 . S
N465 H468 0.984 . S
N465 H469 0.985 . S
H466 N461 0.984 . S
H467 N461 0.985 . S
H468 N465 0.984 . S
H469 N465 0.985 . S
H470 N464 0.984 . S
H471 N464 0.984 . S
H472 N460 0.984 . S
H473 N460 0.985 . S
C474 C475 1.363 . S
C474 C480 1.379 1_455 S
C474 N482 1.356 . S
C475 C474 1.363 . S
C475 C481 1.363 . S
C476 C477 1.363 . S
C476 C481 1.379 1_655 S
C476 N483 1.356 . S
C477 C476 1.363 . S
C477 C480 1.363 . S
N478 C480 1.356 . S
N478 H490 0.984 . S
N478 H491 0.985 . S
N479 C481 1.356 . S
N479 H484 0.984 . S
N479 H485 0.985 . S
C480 C474 1.379 1_655 S
C480 C477 1.363 . S
C480 N478 1.356 . S
C481 C475 1.363 . S
C481 C476 1.379 1_455 S
C481 N479 1.356 . S
N482 C474 1.356 . S
N482 H488 0.984 . S
N482 H489 0.984 . S
N483 C476 1.356 . S
N483 H486 0.984 . S
N483 H487 0.985 . S
H484 N479 0.984 . S
H485 N479 0.985 . S
H486 N483 0.984 . S
H487 N483 0.985 . S
H488 N482 0.984 . S
H489 N482 0.984 . S
H490 N478 0.984 . S
H491 N478 0.985 . S
C492 C493 1.363 . S
C492 C498 1.379 . S
C492 N500 1.356 . S
C493 C492 1.363 . S
C493 C499 1.363 1_556 S
C494 C495 1.363 . S
C494 C499 1.379 . S
C494 N501 1.356 . S
C495 C494 1.363 . S
C495 C498 1.363 1_554 S
N496 C498 1.356 . S
N496 H508 0.984 . S
N496 H509 0.985 1_556 S
N497 C499 1.348 1_655 S
N497 H502 0.993 1_554 S
N497 H503 0.985 . S
C498 C492 1.379 . S
C498 C495 1.363 1_556 S
C498 N496 1.356 . S
C499 C493 1.363 1_554 S
C499 C494 1.379 . S
C499 N497 1.348 1_455 S
N500 C492 1.356 . S
N500 H506 0.984 . S
N500 H507 0.984 . S
N501 C494 1.356 . S
N501 H504 0.984 . S
N501 H505 0.985 . S
H502 N497 0.993 1_556 S
H503 N497 0.985 . S
H504 N501 0.984 . S
H505 N501 0.985 . S
H506 N500 0.984 . S
H507 N500 0.984 . S
H508 N496 0.984 . S
H509 N496 0.985 1_554 S
C510 C511 1.363 . S
C510 C516 1.379 . S
C510 N518 1.356 . S
C511 C510 1.363 . S
C511 C517 1.363 . S
C512 C513 1.363 . S
C512 C517 1.379 . S
C512 N519 1.356 . S
C513 C512 1.363 . S
C513 C516 1.363 . S
N514 C516 1.359 . S
N514 H526 0.982 1_655 S
N514 H527 0.984 1_655 S
N515 C517 1.356 . S
N515 H520 0.984 . S
N515 H521 0.985 . S
C516 C510 1.379 . S
C516 C513 1.363 . S
C516 N514 1.359 . S
C517 C511 1.363 . S
C517 C512 1.379 . S
C517 N515 1.356 . S
N518 C510 1.356 . S
N518 H524 0.984 . S
N518 H525 0.984 . S
N519 C512 1.356 . S
N519 H522 0.984 . S
N519 H523 0.985 . S
H520 N515 0.984 . S
H521 N515 0.985 . S
H522 N519 0.984 . S
H523 N519 0.985 . S
H524 N518 0.984 . S
H525 N518 0.984 . S
H526 N514 0.982 1_455 S
H527 N514 0.984 1_455 S
C528 C529 1.363 . S
C528 C534 1.379 . S
C528 N536 1.356 . S
C529 C528 1.363 . S
C529 C535 1.363 . S
C530 C531 1.363 . S
C530 C535 1.379 . S
C530 N537 1.352 1_565 S
C531 C530 1.363 . S
C531 C534 1.363 . S
N532 C534 1.356 . S
N532 H544 0.984 . S
N532 H545 0.985 . S
N533 C535 1.356 . S
N533 H538 0.984 . S
N533 H539 0.985 . S
C534 C528 1.379 . S
C534 C531 1.363 . S
C534 N532 1.356 . S
C535 C529 1.363 . S
C535 C530 1.379 . S
C535 N533 1.356 . S
N536 C528 1.356 . S
N536 H542 0.984 . S
N536 H543 0.984 . S
N537 C530 1.352 1_545 S
N537 H540 0.988 . S
N537 H541 0.985 . S
H538 N533 0.984 . S
H539 N533 0.985 . S
H540 N537 0.988 . S
H541 N537 0.985 . S
H542 N536 0.984 . S
H543 N536 0.984 . S
H544 N532 0.984 . S
H545 N532 0.985 . S
C546 C547 1.363 1_556 S
C546 C552 1.379 . S
C546 N554 1.356 . S
C547 C546 1.363 1_554 S
C547 C553 1.363 . S
C548 C549 1.363 1_554 S
C548 C553 1.379 . S
C548 N555 1.356 . S
C549 C548 1.363 1_556 S
C549 C552 1.363 . S
N550 C552 1.356 . S
N550 H562 0.984 . S
N550 H563 0.985 . S
N551 C553 1.356 . S
N551 H556 0.984 . S
N551 H557 0.985 . S
C552 C546 1.379 . S
C552 C549 1.363 . S
C552 N550 1.356 . S
C553 C547 1.363 . S
C553 C548 1.379 . S
C553 N551 1.356 . S
N554 C546 1.356 . S
N554 H560 0.984 . S
N554 H561 0.984 1_556 S
N555 C548 1.356 . S
N555 H558 0.984 1_554 S
N555 H559 0.985 . S
H556 N551 0.984 . S
H557 N551 0.985 . S
H558 N555 0.984 1_556 S
H559 N555 0.985 . S
H560 N554 0.984 . S
H561 N554 0.984 1_554 S
H562 N550 0.984 . S
H563 N550 0.985 . S
C564 C565 1.363 . S
C564 C570 1.379 . S
C564 N572 1.356 . S
C565 C564 1.363 . S
C565 C571 1.363 . S
C566 C567 1.363 . S
C566 C571 1.379 . S
C566 N573 1.356 . S
C567 C566 1.363 . S
C567 C570 1.363 . S
N568 C570 1.353 1_545 S
N568 H580 0.987 . S
N568 H581 0.985 . S
N569 C571 1.356 . S
N569 H574 0.984 . S
N569 H575 0.985 . S
C570 C564 1.379 . S
C570 C567 1.363 . S
C570 N568 1.353 1_565 S
C571 C565 1.363 . S
C571 C566 1.379 . S
C571 N569 1.356 . S
N572 C564 1.356 . S
N572 H578 0.984 . S
N572 H579 0.984 . S
N573 C566 1.356 . S
N573 H576 0.984 . S
N573 H577 0.985 . S
H574 N569 0.984 . S
H575 N569 0.985 . S
H576 N573 0.984 . S
H577 N573 0.985 . S
H578 N572 0.984 . S
H579 N572 0.984 . S
H580 N568 0.987 . S
H581 N568 0.985 . S
C582 C583 1.363 . S
C582 C588 1.379 . S
C582 N590 1.356 . S
C583 C582 1.363 . S
C583 C589 1.363 . S
C584 C585 1.363 . S
C584 C589 1.379 . S
C584 N591 1.356 . S
C585 C584 1.363 . S
C585 C588 1.363 . S
N586 C588 1.356 . S
N586 H598 0.984 . S
N586 H599 0.985 . S
N587 C589 1.356 . S
N587 H592 0.984 . S
N587 H593 0.985 . S
C588 C582 1.379 . S
C588 C585 1.363 . S
C588 N586 1.356 . S
C589 C583 1.363 . S
C589 C584 1.379 . S
C589 N587 1.356 . S
N590 C582 1.356 . S
N590 H596 0.984 . S
N590 H597 0.984 . S
N591 C584 1.356 . S
N591 H594 0.984 . S
N591 H595 0.985 . S
H592 N587 0.984 . S
H593 N587 0.985 . S
H594 N591 0.984 . S
H595 N591 0.985 . S
H596 N590 0.984 . S
H597 N590 0.984 . S
H598 N586 0.984 . S
H599 N586 0.985 . S
C169 C50 1.456 . S
C171 C8 1.456 . S
C187 C22 1.456 . S
C189 C64 1.456 . S
C205 C78 1.456 . S
C207 C36 1.456 . S
C223 C92 1.456 . S
C225 C134 1.456 . S
C241 C148 1.456 . S
C243 C106 1.456 . S
C259 C120 1.456 . S
C261 C162 1.456 . S
C277 C119 1.556 . S
C279 C7 1.556 . S
C295 C21 1.556 . S
C297 C133 1.556 . S
C313 C35 1.556 . S
C315 C147 1.556 . S
C331 C49 1.556 . S
C333 C161 1.556 . S
C349 C91 1.556 . S
C351 C63 1.556 . S
C367 C105 1.556 . S
C369 C77 1.556 . S
C385 C107 1.277 . S
C387 C9 1.277 . S
C403 C23 1.277 . S
C405 C121 1.277 . S
C421 C37 1.277 . S
C423 C135 1.277 . S
C439 C51 1.277 . S
C441 C149 1.277 . S
C457 C163 1.277 . S
C459 C65 1.277 . S
C475 C79 1.277 . S
C477 C93 1.277 . S
C493 C143 1.495 . S
C495 C3 1.495 . S
C511 C157 1.494 . S
C513 C17 1.494 . S
C529 C87 1.495 . S
C531 C31 1.495 . S
C547 C45 1.495 . S
C549 C101 1.495 . S
C565 C59 1.494 . S
C567 C115 1.494 . S
C583 C73 1.495 . S
C585 C129 1.495 . S
