# Generated by pormake.
# Topology utn, (3)-cn, num edge types: 1
# Building blocks:
#     Node 0, Type 0, BuildingBlock: OLANEW_clean_sbu_2, # of connection points: 3
#     Node 1, Type 0, BuildingBlock: OLANEW_clean_sbu_2, # of connection points: 3
#     Node 2, Type 0, BuildingBlock: OLANEW_clean_sbu_2, # of connection points: 3
#     Node 3, Type 0, BuildingBlock: OLANEW_clean_sbu_2, # of connection points: 3
#     Node 4, Type 0, BuildingBlock: OLANEW_clean_sbu_2, # of connection points: 3
#     Node 5, Type 0, BuildingBlock: OLANEW_clean_sbu_2, # of connection points: 3
#     Node 6, Type 0, BuildingBlock: OLANEW_clean_sbu_2, # of connection points: 3
#     Node 7, Type 0, BuildingBlock: OLANEW_clean_sbu_2, # of connection points: 3
#     Node 8, Type 0, BuildingBlock: OLANEW_clean_sbu_2, # of connection points: 3
#     Node 9, Type 0, BuildingBlock: OLANEW_clean_sbu_2, # of connection points: 3
#     Node 10, Type 0, BuildingBlock: OLANEW_clean_sbu_2, # of connection points: 3
#     Node 11, Type 0, BuildingBlock: OLANEW_clean_sbu_2, # of connection points: 3
#     Node 12, Type 0, BuildingBlock: OLANEW_clean_sbu_2, # of connection points: 3
#     Node 13, Type 0, BuildingBlock: OLANEW_clean_sbu_2, # of connection points: 3
#     Node 14, Type 0, BuildingBlock: OLANEW_clean_sbu_2, # of connection points: 3
#     Node 15, Type 0, BuildingBlock: OLANEW_clean_sbu_2, # of connection points: 3
#     Node 16, Type 0, BuildingBlock: OLANEW_clean_sbu_2, # of connection points: 3
#     Node 17, Type 0, BuildingBlock: OLANEW_clean_sbu_2, # of connection points: 3
#     Node 18, Type 0, BuildingBlock: OLANEW_clean_sbu_2, # of connection points: 3
#     Node 19, Type 0, BuildingBlock: OLANEW_clean_sbu_2, # of connection points: 3
#     Node 20, Type 0, BuildingBlock: OLANEW_clean_sbu_2, # of connection points: 3
#     Node 21, Type 0, BuildingBlock: OLANEW_clean_sbu_2, # of connection points: 3
#     Node 22, Type 0, BuildingBlock: OLANEW_clean_sbu_2, # of connection points: 3
#     Node 23, Type 0, BuildingBlock: OLANEW_clean_sbu_2, # of connection points: 3
#     Node 24, Type 0, BuildingBlock: OLANEW_clean_sbu_2, # of connection points: 3
#     Node 25, Type 0, BuildingBlock: OLANEW_clean_sbu_2, # of connection points: 3
#     Node 26, Type 0, BuildingBlock: OLANEW_clean_sbu_2, # of connection points: 3
#     Node 27, Type 0, BuildingBlock: OLANEW_clean_sbu_2, # of connection points: 3
#     Node 28, Type 0, BuildingBlock: OLANEW_clean_sbu_2, # of connection points: 3
#     Node 29, Type 0, BuildingBlock: OLANEW_clean_sbu_2, # of connection points: 3
#     Node 30, Type 0, BuildingBlock: OLANEW_clean_sbu_2, # of connection points: 3
#     Node 31, Type 0, BuildingBlock: OLANEW_clean_sbu_2, # of connection points: 3
#     Edge 32, Type (0, 0), BuildingBlock: XIVTED_clean_linker_0, # of connection points: 2
#     Edge 33, Type (0, 0), BuildingBlock: XIVTED_clean_linker_0, # of connection points: 2
#     Edge 34, Type (0, 0), BuildingBlock: XIVTED_clean_linker_0, # of connection points: 2
#     Edge 35, Type (0, 0), BuildingBlock: XIVTED_clean_linker_0, # of connection points: 2
#     Edge 36, Type (0, 0), BuildingBlock: XIVTED_clean_linker_0, # of connection points: 2
#     Edge 37, Type (0, 0), BuildingBlock: XIVTED_clean_linker_0, # of connection points: 2
#     Edge 38, Type (0, 0), BuildingBlock: XIVTED_clean_linker_0, # of connection points: 2
#     Edge 39, Type (0, 0), BuildingBlock: XIVTED_clean_linker_0, # of connection points: 2
#     Edge 40, Type (0, 0), BuildingBlock: XIVTED_clean_linker_0, # of connection points: 2
#     Edge 41, Type (0, 0), BuildingBlock: XIVTED_clean_linker_0, # of connection points: 2
#     Edge 42, Type (0, 0), BuildingBlock: XIVTED_clean_linker_0, # of connection points: 2
#     Edge 43, Type (0, 0), BuildingBlock: XIVTED_clean_linker_0, # of connection points: 2
#     Edge 44, Type (0, 0), BuildingBlock: XIVTED_clean_linker_0, # of connection points: 2
#     Edge 45, Type (0, 0), BuildingBlock: XIVTED_clean_linker_0, # of connection points: 2
#     Edge 46, Type (0, 0), BuildingBlock: XIVTED_clean_linker_0, # of connection points: 2
#     Edge 47, Type (0, 0), BuildingBlock: XIVTED_clean_linker_0, # of connection points: 2
#     Edge 48, Type (0, 0), BuildingBlock: XIVTED_clean_linker_0, # of connection points: 2
#     Edge 49, Type (0, 0), BuildingBlock: XIVTED_clean_linker_0, # of connection points: 2
#     Edge 50, Type (0, 0), BuildingBlock: XIVTED_clean_linker_0, # of connection points: 2
#     Edge 51, Type (0, 0), BuildingBlock: XIVTED_clean_linker_0, # of connection points: 2
#     Edge 52, Type (0, 0), BuildingBlock: XIVTED_clean_linker_0, # of connection points: 2
#     Edge 53, Type (0, 0), BuildingBlock: XIVTED_clean_linker_0, # of connection points: 2
#     Edge 54, Type (0, 0), BuildingBlock: XIVTED_clean_linker_0, # of connection points: 2
#     Edge 55, Type (0, 0), BuildingBlock: XIVTED_clean_linker_0, # of connection points: 2
#     Edge 56, Type (0, 0), BuildingBlock: XIVTED_clean_linker_0, # of connection points: 2
#     Edge 57, Type (0, 0), BuildingBlock: XIVTED_clean_linker_0, # of connection points: 2
#     Edge 58, Type (0, 0), BuildingBlock: XIVTED_clean_linker_0, # of connection points: 2
#     Edge 59, Type (0, 0), BuildingBlock: XIVTED_clean_linker_0, # of connection points: 2
#     Edge 60, Type (0, 0), BuildingBlock: XIVTED_clean_linker_0, # of connection points: 2
#     Edge 61, Type (0, 0), BuildingBlock: XIVTED_clean_linker_0, # of connection points: 2
#     Edge 62, Type (0, 0), BuildingBlock: XIVTED_clean_linker_0, # of connection points: 2
#     Edge 63, Type (0, 0), BuildingBlock: XIVTED_clean_linker_0, # of connection points: 2
#     Edge 64, Type (0, 0), BuildingBlock: XIVTED_clean_linker_0, # of connection points: 2
#     Edge 65, Type (0, 0), BuildingBlock: XIVTED_clean_linker_0, # of connection points: 2
#     Edge 66, Type (0, 0), BuildingBlock: XIVTED_clean_linker_0, # of connection points: 2
#     Edge 67, Type (0, 0), BuildingBlock: XIVTED_clean_linker_0, # of connection points: 2
#     Edge 68, Type (0, 0), BuildingBlock: XIVTED_clean_linker_0, # of connection points: 2
#     Edge 69, Type (0, 0), BuildingBlock: XIVTED_clean_linker_0, # of connection points: 2
#     Edge 70, Type (0, 0), BuildingBlock: XIVTED_clean_linker_0, # of connection points: 2
#     Edge 71, Type (0, 0), BuildingBlock: XIVTED_clean_linker_0, # of connection points: 2
#     Edge 72, Type (0, 0), BuildingBlock: XIVTED_clean_linker_0, # of connection points: 2
#     Edge 73, Type (0, 0), BuildingBlock: XIVTED_clean_linker_0, # of connection points: 2
#     Edge 74, Type (0, 0), BuildingBlock: XIVTED_clean_linker_0, # of connection points: 2
#     Edge 75, Type (0, 0), BuildingBlock: XIVTED_clean_linker_0, # of connection points: 2
#     Edge 76, Type (0, 0), BuildingBlock: XIVTED_clean_linker_0, # of connection points: 2
#     Edge 77, Type (0, 0), BuildingBlock: XIVTED_clean_linker_0, # of connection points: 2
#     Edge 78, Type (0, 0), BuildingBlock: XIVTED_clean_linker_0, # of connection points: 2
#     Edge 79, Type (0, 0), BuildingBlock: XIVTED_clean_linker_0, # of connection points: 2
# Relax obj value: 0.009
# Max RMSD: 0.035
# Mean RMSD: 0.035
data_MOF--net-utn--node1-OLANEW_clean_sbu_2--edge1-XIVTED_clean_linker_0
_symmetry_space_group_name_H-M    P1
_symmetry_Int_Tables_number       1
_symmetry_cell_setting            triclinic
loop_
_symmetry_equiv_pos_as_xyz
'x, y, z'
_cell_length_a     82.644079
_cell_length_b     82.635993
_cell_length_c     28.763365
_cell_angle_alpha  89.961712
_cell_angle_beta   90.010126
_cell_angle_gamma 89.987621
loop_
_atom_site_label
_atom_site_type_symbol
_atom_site_fract_x
_atom_site_fract_y
_atom_site_fract_z
_atom_type_partial_charge
O0 O 0.25419 0.11684 0.31567 0.0
Cd1 Cd 0.25462 0.11632 0.23077 0.0
O2 O 0.24923 0.14277 0.31181 0.0
Cd3 Cd 0.24377 0.16758 0.33353 0.0
O4 O 0.24291 0.19389 0.33974 0.0
C5 C 0.25562 0.20142 0.35194 0.0
O6 O 0.26866 0.19307 0.36239 0.0
C7 C 0.25162 0.13017 0.33638 0.0
C8 C 0.23466 0.09213 0.19514 0.0
O9 O 0.24961 0.08935 0.20396 0.0
O10 O 0.22916 0.10636 0.20317 0.0
O11 O 0.13608 0.01146 0.55439 0.0
Cd12 Cd 0.13642 0.01547 0.47026 0.0
O13 O 0.10964 0.00975 0.55233 0.0
Cd14 Cd 0.08564 0.0046 0.58094 0.0
O15 O 0.06048 0.99873 0.59671 0.0
C16 C 0.05081 0.00946 0.61186 0.0
O17 O 0.05626 0.02416 0.6194 0.0
C18 C 0.12273 0.00948 0.57554 0.0
C19 C 0.15693 0.99316 0.42773 0.0
O20 O 0.16217 0.00702 0.44084 0.0
O21 O 0.14194 0.98991 0.4344 0.0
O22 O 0.2511 0.87918 0.78383 0.0
Cd23 Cd 0.25282 0.8793 0.69903 0.0
O24 O 0.2563 0.85324 0.78344 0.0
Cd25 Cd 0.2615 0.82884 0.80938 0.0
O26 O 0.26271 0.80288 0.8234 0.0
C27 C 0.24967 0.79536 0.83241 0.0
O28 O 0.23606 0.80355 0.83449 0.0
C29 C 0.25323 0.86609 0.80622 0.0
C30 C 0.27386 0.90323 0.66706 0.0
O31 O 0.25876 0.90617 0.67271 0.0
O32 O 0.279 0.88896 0.67646 0.0
O33 O 0.37205 0.98565 0.05714 0.0
Cd34 Cd 0.36788 0.98343 0.9733 0.0
O35 O 0.39408 0.99967 0.04363 0.0
Cd36 Cd 0.41675 0.01085 0.06605 0.0
O37 O 0.44239 0.01571 0.07786 0.0
C38 C 0.45082 0.00522 0.09927 0.0
O39 O 0.44368 0.99216 0.11533 0.0
C40 C 0.38423 0.99338 0.07234 0.0
C41 C 0.34619 0.0067 0.94085 0.0
O42 O 0.34126 0.99271 0.9539 0.0
O43 O 0.36139 0.00967 0.94309 0.0
O44 O 0.2528 0.88487 0.17447 0.0
Cd45 Cd 0.25272 0.88609 0.25932 0.0
O46 O 0.24785 0.85897 0.18022 0.0
Cd47 Cd 0.2426 0.834 0.15982 0.0
O48 O 0.24203 0.8077 0.15292 0.0
C49 C 0.25545 0.8002 0.15416 0.0
O50 O 0.26889 0.80858 0.15801 0.0
C51 C 0.25041 0.87132 0.15475 0.0
C52 C 0.23138 0.90943 0.29299 0.0
O53 O 0.24619 0.91293 0.28439 0.0
O54 O 0.22666 0.89488 0.28554 0.0
O55 O 0.37496 0.01034 0.43436 0.0
Cd56 Cd 0.37182 0.01209 0.51866 0.0
O57 O 0.39848 0.99856 0.44438 0.0
Cd58 Cd 0.42178 0.98947 0.41949 0.0
O59 O 0.44775 0.98615 0.4089 0.0
C60 C 0.45619 0.99846 0.39822 0.0
O61 O 0.44889 0.01243 0.39215 0.0
C62 C 0.38756 0.00386 0.41725 0.0
C63 C 0.35082 0.98834 0.55193 0.0
O64 O 0.34554 0.00231 0.53983 0.0
O65 O 0.36604 0.98563 0.54842 0.0
O66 O 0.24698 0.11552 0.70628 0.0
Cd67 Cd 0.24745 0.11469 0.79118 0.0
O68 O 0.25263 0.14134 0.70948 0.0
Cd69 Cd 0.25884 0.16573 0.68554 0.0
O70 O 0.26172 0.19159 0.67237 0.0
C71 C 0.24972 0.1998 0.65789 0.0
O72 O 0.23595 0.19236 0.64973 0.0
C73 C 0.2497 0.12877 0.68529 0.0
C74 C 0.26912 0.09148 0.82407 0.0
O75 O 0.25425 0.08792 0.81661 0.0
O76 O 0.27373 0.10602 0.81605 0.0
O77 O 0.14066 0.98637 0.93769 0.0
Cd78 Cd 0.1425 0.98282 0.02183 0.0
O79 O 0.11496 0.99206 0.94581 0.0
Cd80 Cd 0.09014 0.99732 0.92385 0.0
O81 O 0.06466 0.00333 0.91365 0.0
C82 C 0.0548 0.99303 0.89713 0.0
O83 O 0.0602 0.97869 0.88489 0.0
C84 C 0.12722 0.99034 0.91952 0.0
C85 C 0.1621 0.00649 0.06174 0.0
O86 O 0.16804 0.99296 0.04826 0.0
O87 O 0.14686 0.00879 0.05654 0.0
O88 O 0.74076 0.91185 0.71548 0.0
Cd89 Cd 0.74236 0.92294 0.79394 0.0
O90 O 0.73982 0.88775 0.747 0.0
Cd91 Cd 0.73935 0.86125 0.74805 0.0
O92 O 0.73951 0.83502 0.75802 0.0
C93 C 0.74639 0.82576 0.72884 0.0
O94 O 0.75331 0.83214 0.692 0.0
C95 C 0.73962 0.89661 0.71081 0.0
C96 C 0.77345 0.93297 0.81773 0.0
O97 O 0.76887 0.91834 0.82471 0.0
O98 O 0.76335 0.9428 0.79913 0.0
O99 O 0.89197 0.02401 0.45124 0.0
Cd100 Cd 0.89777 0.03056 0.53239 0.0
O101 O 0.8907 0.99778 0.46369 0.0
Cd102 Cd 0.90098 0.00041 0.53313 0.0
O103 O 0.92304 0.00312 0.57414 0.0
C104 C 0.93268 0.99114 0.57523 0.0
O105 O 0.92829 0.97756 0.5551 0.0
C106 C 0.88924 0.00979 0.4363 0.0
C107 C 0.87398 0.05093 0.56822 0.0
O108 O 0.88696 0.05672 0.55039 0.0
O109 O 0.87233 0.03552 0.56947 0.0
O110 O 0.72579 0.14097 0.19063 0.0
Cd111 Cd 0.72297 0.14749 0.27309 0.0
O112 O 0.7523 0.13894 0.19369 0.0
Cd113 Cd 0.75315 0.14993 0.26261 0.0
O114 O 0.75416 0.17198 0.30429 0.0
C115 C 0.76711 0.18026 0.30271 0.0
O116 O 0.77951 0.17454 0.27928 0.0
C117 C 0.73916 0.13764 0.17096 0.0
C118 C 0.70402 0.12417 0.31708 0.0
O119 O 0.69766 0.13712 0.30066 0.0
O120 O 0.71937 0.12237 0.31319 0.0
O121 O 0.61593 0.96897 0.95052 0.0
Cd122 Cd 0.60351 0.96233 0.02526 0.0
O123 O 0.6153 0.99542 0.95886 0.0
Cd124 Cd 0.60141 0.99386 0.02323 0.0
O125 O 0.5783 0.99534 0.05982 0.0
C126 C 0.57029 0.00838 0.05519 0.0
O127 O 0.57674 0.02037 0.03155 0.0
C128 C 0.61907 0.98303 0.93498 0.0
C129 C 0.62173 0.93972 0.07471 0.0
O130 O 0.61242 0.93534 0.0414 0.0
O131 O 0.62246 0.9548 0.0848 0.0
O132 O 0.75905 0.13854 0.80662 0.0
Cd133 Cd 0.76313 0.14485 0.72443 0.0
O134 O 0.73258 0.14098 0.80352 0.0
Cd135 Cd 0.73355 0.15203 0.73465 0.0
O136 O 0.7355 0.17392 0.69251 0.0
C137 C 0.72363 0.1837 0.69307 0.0
O138 O 0.71047 0.1796 0.71582 0.0
C139 C 0.7453 0.13744 0.82622 0.0
C140 C 0.78734 0.1252 0.68756 0.0
O141 O 0.79065 0.13925 0.70381 0.0
O142 O 0.77255 0.12054 0.68827 0.0
O143 O 0.62191 0.00868 0.57605 0.0
Cd144 Cd 0.61465 0.01342 0.49489 0.0
O145 O 0.6171 0.98255 0.57163 0.0
Cd146 Cd 0.60456 0.98437 0.50491 0.0
O147 O 0.58203 0.98415 0.46497 0.0
C148 C 0.57526 0.99728 0.45256 0.0
O149 O 0.58255 0.01108 0.46117 0.0
C150 C 0.62217 0.9947 0.59452 0.0
C151 C 0.63364 0.03783 0.4562 0.0
O152 O 0.61988 0.04106 0.47457 0.0
O153 O 0.63835 0.02305 0.4559 0.0
O154 O 0.70766 0.84337 0.38403 0.0
Cd155 Cd 0.69822 0.83262 0.30953 0.0
O156 O 0.72915 0.85606 0.35748 0.0
Cd157 Cd 0.72651 0.84388 0.29066 0.0
O158 O 0.7269 0.82319 0.24355 0.0
C159 C 0.74051 0.81794 0.22959 0.0
O160 O 0.7537 0.82577 0.24155 0.0
C161 C 0.71975 0.85259 0.391 0.0
C162 C 0.68206 0.85634 0.25827 0.0
O163 O 0.67506 0.84894 0.29184 0.0
O164 O 0.69669 0.8525 0.24854 0.0
O165 O 0.89996 0.97957 0.08148 0.0
Cd166 Cd 0.90813 0.97289 0.00208 0.0
O167 O 0.89532 0.0053 0.06705 0.0
Cd168 Cd 0.90675 0.00331 0.99897 0.0
O169 O 0.92843 0.00094 0.95624 0.0
C170 C 0.93784 0.01307 0.95369 0.0
O171 O 0.93349 0.02667 0.97378 0.0
C172 C 0.89504 0.99337 0.09502 0.0
C173 C 0.8808 0.9649 0.95026 0.0
O174 O 0.88849 0.95411 0.97345 0.0
O175 O 0.88622 0.97943 0.95088 0.0
O176 O 0.73032 0.62139 0.7938 0.0
Cd177 Cd 0.71652 0.62422 0.71916 0.0
O178 O 0.73343 0.64759 0.79038 0.0
Cd179 Cd 0.7385 0.67256 0.81118 0.0
O180 O 0.7409 0.6989 0.80919 0.0
C181 C 0.74737 0.70519 0.77342 0.0
O182 O 0.75274 0.69564 0.74033 0.0
C183 C 0.73523 0.6344 0.81266 0.0
C184 C 0.70336 0.59551 0.68557 0.0
O185 O 0.71666 0.60102 0.66904 0.0
O186 O 0.69642 0.60342 0.71824 0.0
O187 O 0.63317 0.5029 0.05211 0.0
Cd188 Cd 0.63678 0.50549 0.96816 0.0
O189 O 0.60992 0.49093 0.03918 0.0
Cd190 Cd 0.58646 0.48188 0.06277 0.0
O191 O 0.56059 0.47966 0.07674 0.0
C192 C 0.55332 0.49149 0.09572 0.0
O193 O 0.56174 0.50429 0.10796 0.0
C194 C 0.62047 0.49612 0.06761 0.0
C195 C 0.6594 0.48342 0.93435 0.0
O196 O 0.66371 0.4976 0.94743 0.0
O197 O 0.64438 0.47968 0.93723 0.0
O198 O 0.75183 0.38299 0.30152 0.0
Cd199 Cd 0.75173 0.38395 0.21664 0.0
O200 O 0.75847 0.3574 0.29766 0.0
Cd201 Cd 0.76586 0.3334 0.32215 0.0
O202 O 0.77046 0.30772 0.33417 0.0
C203 C 0.75987 0.29897 0.35405 0.0
O204 O 0.74641 0.30574 0.36871 0.0
C205 C 0.75518 0.3698 0.32213 0.0
C206 C 0.77264 0.4077 0.18291 0.0
O207 O 0.75774 0.4109 0.19122 0.0
O208 O 0.77764 0.39325 0.1905 0.0
O209 O 0.86535 0.47566 0.56498 0.0
Cd210 Cd 0.86148 0.47094 0.48186 0.0
O211 O 0.88652 0.49065 0.54893 0.0
Cd212 Cd 0.90839 0.50375 0.56912 0.0
O213 O 0.93341 0.51123 0.5805 0.0
C214 C 0.94292 0.50173 0.60203 0.0
O215 O 0.9372 0.48802 0.61835 0.0
C216 C 0.87699 0.48448 0.57873 0.0
C217 C 0.84643 0.49711 0.43842 0.0
O218 O 0.8381 0.48549 0.45574 0.0
O219 O 0.86188 0.49634 0.44166 0.0
O220 O 0.76401 0.38274 0.69175 0.0
Cd221 Cd 0.76447 0.3832 0.77664 0.0
O222 O 0.75417 0.35821 0.69502 0.0
Cd223 Cd 0.74372 0.33544 0.67023 0.0
O224 O 0.736 0.31051 0.65837 0.0
C225 C 0.74559 0.30047 0.6394 0.0
O226 O 0.75989 0.30548 0.62558 0.0
C227 C 0.75892 0.3702 0.67083 0.0
C228 C 0.74194 0.40511 0.8119 0.0
O229 O 0.75652 0.40947 0.80337 0.0
O230 O 0.73803 0.39036 0.80389 0.0
O231 O 0.8696 0.51376 0.93627 0.0
Cd232 Cd 0.86717 0.5171 0.02035 0.0
O233 O 0.89211 0.50029 0.94746 0.0
Cd234 Cd 0.91442 0.48864 0.92387 0.0
O235 O 0.93981 0.48218 0.91382 0.0
C236 C 0.94928 0.49238 0.89501 0.0
O237 O 0.94335 0.50622 0.88031 0.0
C238 C 0.88152 0.50593 0.91983 0.0
C239 C 0.84654 0.49382 0.05798 0.0
O240 O 0.84112 0.5076 0.04463 0.0
O241 O 0.86173 0.4911 0.05378 0.0
O242 O 0.77262 0.61892 0.1677 0.0
Cd243 Cd 0.77856 0.62055 0.25089 0.0
O244 O 0.7729 0.64536 0.16825 0.0
Cd245 Cd 0.76915 0.67003 0.14266 0.0
O246 O 0.7663 0.69622 0.13689 0.0
C247 C 0.75229 0.70255 0.13758 0.0
O248 O 0.73955 0.69306 0.13973 0.0
C249 C 0.77109 0.63221 0.14588 0.0
C250 C 0.79355 0.59304 0.28696 0.0
O251 O 0.77809 0.59424 0.28595 0.0
O252 O 0.8019 0.60476 0.27038 0.0
O253 O 0.62235 0.47883 0.43355 0.0
Cd254 Cd 0.62038 0.47935 0.51823 0.0
O255 O 0.60011 0.4932 0.43644 0.0
Cd256 Cd 0.57877 0.50455 0.40555 0.0
O257 O 0.55329 0.50977 0.39208 0.0
C258 C 0.54425 0.49826 0.3785 0.0
O259 O 0.55074 0.484 0.3708 0.0
C260 C 0.61122 0.48654 0.41262 0.0
C261 C 0.64038 0.50317 0.5554 0.0
O262 O 0.64453 0.48824 0.55713 0.0
O263 O 0.62682 0.5068 0.5365 0.0
O264 O 0.25771 0.37233 0.18497 0.0
Cd265 Cd 0.26294 0.36272 0.26396 0.0
O266 O 0.27953 0.35993 0.15935 0.0
Cd267 Cd 0.28278 0.34551 0.22217 0.0
O268 O 0.28063 0.32409 0.26615 0.0
C269 C 0.26661 0.31804 0.27131 0.0
O270 O 0.25417 0.32542 0.25232 0.0
C271 C 0.26759 0.36933 0.15216 0.0
C272 C 0.28624 0.38192 0.30718 0.0
O273 O 0.29024 0.371 0.27783 0.0
O274 O 0.2712 0.38377 0.3166 0.0
O275 O 0.39668 0.5342 0.92458 0.0
Cd276 Cd 0.408 0.54455 0.99704 0.0
O277 O 0.39139 0.50958 0.94938 0.0
Cd278 Cd 0.40479 0.51361 0.01371 0.0
O279 O 0.42749 0.51171 0.05213 0.0
C280 C 0.43404 0.4978 0.05365 0.0
O281 O 0.42635 0.48548 0.0351 0.0
C282 C 0.39077 0.52022 0.91747 0.0
C283 C 0.38464 0.56295 0.04236 0.0
O284 O 0.39291 0.56886 0.00875 0.0
O285 O 0.38757 0.54839 0.05525 0.0
O286 O 0.2352 0.62804 0.69567 0.0
Cd287 Cd 0.23272 0.63506 0.77771 0.0
O288 O 0.26166 0.63082 0.69447 0.0
Cd289 Cd 0.26183 0.64392 0.76039 0.0
O290 O 0.26213 0.66721 0.79644 0.0
C291 C 0.24911 0.67536 0.79881 0.0
O292 O 0.2357 0.66902 0.78247 0.0
C293 C 0.2486 0.62669 0.67432 0.0
C294 C 0.20813 0.61662 0.81733 0.0
O295 O 0.20524 0.63076 0.80099 0.0
O296 O 0.2227 0.61135 0.81566 0.0
O297 O 0.10443 0.48267 0.43666 0.0
Cd298 Cd 0.09336 0.47466 0.5119 0.0
O299 O 0.10538 0.50887 0.44965 0.0
Cd300 Cd 0.09265 0.50607 0.51559 0.0
O301 O 0.07012 0.5051 0.55506 0.0
C302 C 0.06096 0.51743 0.55286 0.0
O303 O 0.06601 0.53024 0.52996 0.0
C304 C 0.10804 0.49686 0.42312 0.0
C305 C 0.11401 0.45265 0.55496 0.0
O306 O 0.10412 0.4481 0.52326 0.0
O307 O 0.11404 0.46759 0.56683 0.0
O308 O 0.26491 0.6305 0.31358 0.0
Cd309 Cd 0.27091 0.64249 0.23803 0.0
O310 O 0.23884 0.63583 0.31324 0.0
Cd311 Cd 0.24057 0.65002 0.24941 0.0
O312 O 0.24191 0.67284 0.21122 0.0
C313 C 0.25452 0.68147 0.21621 0.0
O314 O 0.26646 0.67593 0.24183 0.0
C315 C 0.25113 0.62966 0.33307 0.0
C316 C 0.29596 0.62575 0.19491 0.0
O317 O 0.29886 0.6362 0.22672 0.0
O318 O 0.28121 0.6233 0.18304 0.0
O319 O 0.1039 0.52216 0.06652 0.0
Cd320 Cd 0.09633 0.5266 0.98546 0.0
O321 O 0.11042 0.49661 0.05615 0.0
Cd322 Cd 0.09896 0.4964 0.9878 0.0
O323 O 0.07679 0.49575 0.94652 0.0
C324 C 0.06771 0.48345 0.95145 0.0
O325 O 0.07267 0.47151 0.9781 0.0
C326 C 0.1097 0.509 0.08231 0.0
C327 C 0.11981 0.54582 0.9434 0.0
O328 O 0.10716 0.55216 0.96164 0.0
O329 O 0.12118 0.53037 0.94428 0.0
O330 O 0.2235 0.36533 0.81668 0.0
Cd331 Cd 0.21167 0.35301 0.74744 0.0
O332 O 0.24875 0.36512 0.7926 0.0
Cd333 Cd 0.24266 0.35097 0.73099 0.0
O334 O 0.24155 0.32761 0.69574 0.0
C335 C 0.25469 0.31968 0.69279 0.0
O336 O 0.2681 0.32637 0.70808 0.0
C337 C 0.23831 0.36875 0.82335 0.0
C338 C 0.19024 0.37442 0.70505 0.0
O339 O 0.18598 0.36608 0.74057 0.0
O340 O 0.2046 0.37255 0.68915 0.0
O341 O 0.3893 0.47307 0.58104 0.0
Cd342 Cd 0.39856 0.462 0.5071 0.0
O343 O 0.38547 0.49805 0.55708 0.0
Cd344 Cd 0.39669 0.49283 0.49008 0.0
O345 O 0.41818 0.49171 0.44611 0.0
C346 C 0.42632 0.50467 0.44171 0.0
O347 O 0.4208 0.518 0.46091 0.0
C348 C 0.38471 0.48748 0.58913 0.0
C349 C 0.37351 0.44545 0.46345 0.0
O350 O 0.38159 0.43892 0.49651 0.0
O351 O 0.37734 0.45979 0.45055 0.0
H352 H 0.25695 0.15605 0.39536 0.0
H353 H 0.25488 0.10349 0.62654 0.0
H354 H 0.24638 0.10491 0.39528 0.0
H355 H 0.24393 0.15454 0.62629 0.0
H356 H 0.25522 0.10389 0.54161 0.0
H357 H 0.25569 0.15599 0.48013 0.0
C358 C 0.25394 0.1449 0.41288 0.0
C359 C 0.25119 0.13059 0.38786 0.0
C360 C 0.25287 0.11503 0.56025 0.0
C361 C 0.25061 0.13027 0.48514 0.0
C362 C 0.25268 0.11483 0.60872 0.0
C363 C 0.24988 0.12913 0.6338 0.0
C364 C 0.25032 0.12966 0.53656 0.0
C365 C 0.24697 0.14342 0.60874 0.0
C366 C 0.25346 0.14483 0.46142 0.0
C367 C 0.24844 0.11627 0.41303 0.0
N368 N 0.24737 0.14335 0.56147 0.0
N369 N 0.24825 0.11647 0.46024 0.0
H370 H 0.10036 0.01922 0.6401 0.0
H371 H 0.1456 0.97601 0.85266 0.0
H372 H 0.14538 0.99328 0.62606 0.0
H373 H 0.10697 0.01055 0.87059 0.0
H374 H 0.14422 0.98027 0.76864 0.0
H375 H 0.10084 0.01397 0.72385 0.0
C376 C 0.11019 0.01218 0.65454 0.0
C377 C 0.12268 0.00639 0.62607 0.0
C378 C 0.13594 0.98681 0.79095 0.0
C379 C 0.12353 0.00067 0.72184 0.0
C380 C 0.13672 0.98438 0.83889 0.0
C381 C 0.12608 0.9926 0.86864 0.0
C382 C 0.12447 0.99759 0.77255 0.0
C383 C 0.1149 0.0034 0.84895 0.0
C384 C 0.11057 0.00936 0.7024 0.0
C385 C 0.13548 0.9979 0.64684 0.0
N386 N 0.11437 0.00557 0.80212 0.0
N387 N 0.13554 0.99523 0.69344 0.0
H388 H 0.24646 0.84093 0.86661 0.0
H389 H 0.24526 0.89585 0.09327 0.0
H390 H 0.25727 0.892 0.86346 0.0
H391 H 0.2566 0.84491 0.09858 0.0
H392 H 0.24568 0.89452 0.0084 0.0
H393 H 0.24618 0.8419 0.95145 0.0
C394 C 0.2492 0.85224 0.88355 0.0
C395 C 0.25252 0.86627 0.85769 0.0
C396 C 0.24793 0.8836 0.02826 0.0
C397 C 0.25129 0.86763 0.95484 0.0
C398 C 0.24768 0.88433 0.07669 0.0
C399 C 0.25043 0.87035 0.10332 0.0
C400 C 0.25086 0.86877 0.00616 0.0
C401 C 0.25362 0.85581 0.07981 0.0
C402 C 0.24877 0.85283 0.93207 0.0
C403 C 0.25482 0.88084 0.88191 0.0
N404 N 0.25366 0.85537 0.03255 0.0
N405 N 0.25414 0.88116 0.92908 0.0
H406 H 0.39356 0.02027 0.12008 0.0
H407 H 0.39877 0.9781 0.36767 0.0
H408 H 0.38045 0.97019 0.13884 0.0
H409 H 0.37995 0.02646 0.35182 0.0
H410 H 0.39962 0.97542 0.28258 0.0
H411 H 0.39612 0.0231 0.20482 0.0
C412 C 0.39149 0.00982 0.14206 0.0
C413 C 0.38686 0.99496 0.12275 0.0
C414 C 0.39547 0.98665 0.2979 0.0
C415 C 0.38988 0.99807 0.21889 0.0
C416 C 0.3951 0.98823 0.34622 0.0
C417 C 0.38935 0.00254 0.36648 0.0
C418 C 0.39041 0.99961 0.26994 0.0
C419 C 0.38444 0.01523 0.33733 0.0
C420 C 0.39284 0.01148 0.19019 0.0
C421 C 0.38401 0.98185 0.1526 0.0
N422 N 0.38517 0.01352 0.29039 0.0
N423 N 0.38567 0.98367 0.19933 0.0
H424 H 0.70461 0.84417 0.47198 0.0
H425 H 0.75238 0.90781 0.62955 0.0
H426 H 0.74218 0.87526 0.41802 0.0
H427 H 0.72219 0.8699 0.68516 0.0
H428 H 0.74809 0.89691 0.55132 0.0
H429 H 0.71013 0.85435 0.54993 0.0
C430 C 0.71401 0.85317 0.47647 0.0
C431 C 0.72293 0.85889 0.4383 0.0
C432 C 0.74257 0.89087 0.58071 0.0
C433 C 0.72931 0.87061 0.52772 0.0
C434 C 0.74499 0.89709 0.6253 0.0
C435 C 0.73789 0.88955 0.66394 0.0
C436 C 0.73274 0.87717 0.57469 0.0
C437 C 0.72832 0.87578 0.65656 0.0
C438 C 0.71719 0.85893 0.52108 0.0
C439 C 0.73501 0.8705 0.4464 0.0
N440 N 0.72596 0.87008 0.61278 0.0
N441 N 0.7378 0.87603 0.49021 0.0
H442 H 0.88697 0.02174 0.13881 0.0
H443 H 0.88523 0.98091 0.39087 0.0
H444 H 0.89209 0.97043 0.16324 0.0
H445 H 0.88564 0.03254 0.36766 0.0
H446 H 0.88317 0.9767 0.30707 0.0
H447 H 0.88198 0.02567 0.22178 0.0
C448 C 0.88687 0.01127 0.16149 0.0
C449 C 0.89016 0.99575 0.14407 0.0
C450 C 0.88356 0.98895 0.32034 0.0
C451 C 0.88451 0.00019 0.23914 0.0
C452 C 0.88469 0.99137 0.36824 0.0
C453 C 0.88582 0.0071 0.38636 0.0
C454 C 0.88356 0.00235 0.29026 0.0
C455 C 0.88496 0.02019 0.35527 0.0
C456 C 0.88405 0.01354 0.2089 0.0
C457 C 0.88979 0.98264 0.17514 0.0
N458 N 0.88404 0.01752 0.30873 0.0
N459 N 0.88716 0.98517 0.22118 0.0
H460 H 0.77006 0.13016 0.88611 0.0
H461 H 0.71354 0.13473 0.111 0.0
H462 H 0.71813 0.13562 0.88069 0.0
H463 H 0.76566 0.1314 0.11643 0.0
H464 H 0.71469 0.13125 0.0268 0.0
H465 H 0.76834 0.12677 0.97028 0.0
C466 C 0.75827 0.13047 0.90251 0.0
C467 C 0.74424 0.13338 0.87628 0.0
C468 C 0.72587 0.13112 0.04645 0.0
C469 C 0.7422 0.1296 0.97281 0.0
C470 C 0.72523 0.13309 0.0946 0.0
C471 C 0.73954 0.13356 0.12085 0.0
C472 C 0.74094 0.12966 0.02428 0.0
C473 C 0.75431 0.13126 0.09762 0.0
C474 C 0.7573 0.12855 0.95064 0.0
C475 C 0.72929 0.13355 0.89949 0.0
N476 N 0.75463 0.12957 0.05064 0.0
N477 N 0.72868 0.13185 0.94646 0.0
H478 H 0.6262 0.9665 0.64324 0.0
H479 H 0.62555 0.01122 0.88794 0.0
H480 H 0.62872 0.01841 0.65854 0.0
H481 H 0.62618 0.95928 0.87183 0.0
H482 H 0.63075 0.0141 0.80476 0.0
H483 H 0.63011 0.9636 0.72688 0.0
C484 C 0.62777 0.9773 0.66409 0.0
C485 C 0.62689 0.99274 0.64387 0.0
C486 C 0.62999 0.00207 0.81953 0.0
C487 C 0.63123 0.9895 0.73993 0.0
C488 C 0.62705 0.00041 0.86711 0.0
C489 C 0.62515 0.98498 0.88685 0.0
C490 C 0.63094 0.9882 0.79141 0.0
C491 C 0.62734 0.97142 0.85811 0.0
C492 C 0.63002 0.97563 0.71193 0.0
C493 C 0.62917 0.00627 0.67264 0.0
N494 N 0.62989 0.97336 0.81178 0.0
N495 N 0.63101 0.00435 0.71929 0.0
H496 H 0.75386 0.60928 0.0994 0.0
H497 H 0.75596 0.65598 0.85522 0.0
H498 H 0.77867 0.65462 0.0786 0.0
H499 H 0.72985 0.61153 0.87896 0.0
H500 H 0.76517 0.65542 0.93599 0.0
H501 H 0.74598 0.60941 0.01756 0.0
C502 C 0.7576 0.6193 0.07761 0.0
C503 C 0.76658 0.63217 0.09614 0.0
C504 C 0.75738 0.64582 0.92354 0.0
C505 C 0.75767 0.63239 0.00227 0.0
C506 C 0.75196 0.64624 0.87751 0.0
C507 C 0.74176 0.63402 0.86057 0.0
C508 C 0.75264 0.63304 0.95275 0.0
C509 C 0.73763 0.62127 0.89058 0.0
C510 C 0.75308 0.61939 0.03089 0.0
C511 C 0.77121 0.64478 0.06626 0.0
N512 N 0.743 0.62116 0.93519 0.0
N513 N 0.76667 0.6446 0.02081 0.0
H514 H 0.6091 0.46997 0.11517 0.0
H515 H 0.60427 0.5131 0.36046 0.0
H516 H 0.62639 0.51874 0.13434 0.0
H517 H 0.61867 0.4631 0.34927 0.0
H518 H 0.60568 0.51552 0.27548 0.0
H519 H 0.60594 0.46737 0.19985 0.0
C520 C 0.61203 0.48017 0.13724 0.0
C521 C 0.61793 0.49461 0.11806 0.0
C522 C 0.60841 0.50402 0.29174 0.0
C523 C 0.61423 0.49178 0.21407 0.0
C524 C 0.60749 0.50258 0.33999 0.0
C525 C 0.61127 0.48785 0.36158 0.0
C526 C 0.61279 0.49052 0.26505 0.0
C527 C 0.61569 0.47465 0.33372 0.0
C528 C 0.61034 0.47864 0.18533 0.0
C529 C 0.62182 0.50741 0.14799 0.0
N530 N 0.6162 0.47625 0.28668 0.0
N531 N 0.61977 0.50575 0.19464 0.0
H532 H 0.75629 0.39609 0.61282 0.0
H533 H 0.74955 0.34391 0.38047 0.0
H534 H 0.76092 0.34409 0.61145 0.0
H535 H 0.76081 0.39489 0.3812 0.0
H536 H 0.75095 0.34372 0.46529 0.0
H537 H 0.75528 0.39596 0.52793 0.0
C538 C 0.75697 0.38462 0.5947 0.0
C539 C 0.75822 0.37003 0.61943 0.0
C540 C 0.75328 0.3549 0.44681 0.0
C541 C 0.75707 0.3698 0.52224 0.0
C542 C 0.75272 0.35497 0.39828 0.0
C543 C 0.75563 0.36931 0.37353 0.0
C544 C 0.75647 0.36935 0.47077 0.0
C545 C 0.75862 0.38352 0.39885 0.0
C546 C 0.75639 0.38456 0.54626 0.0
C547 C 0.75918 0.35555 0.5941 0.0
N548 N 0.75897 0.38318 0.44604 0.0
N549 N 0.75851 0.35579 0.54687 0.0
H550 H 0.8738 0.46278 0.64946 0.0
H551 H 0.87452 0.52736 0.85066 0.0
H552 H 0.88517 0.51276 0.62145 0.0
H553 H 0.89091 0.47852 0.87456 0.0
H554 H 0.87506 0.52224 0.76658 0.0
H555 H 0.87668 0.46811 0.73305 0.0
C556 C 0.877 0.47484 0.66101 0.0
C557 C 0.87943 0.48733 0.62877 0.0
C558 C 0.87871 0.51272 0.79029 0.0
C559 C 0.88238 0.49356 0.72373 0.0
C560 C 0.87835 0.51561 0.83809 0.0
C561 C 0.88285 0.50338 0.8693 0.0
C562 C 0.88312 0.49735 0.77387 0.0
C563 C 0.88764 0.48834 0.85147 0.0
C564 C 0.8787 0.47785 0.7085 0.0
C565 C 0.88348 0.50277 0.6453 0.0
N566 N 0.88746 0.48566 0.80485 0.0
N567 N 0.88465 0.50551 0.69177 0.0
H568 H 0.26929 0.37306 0.85528 0.0
H569 H 0.23991 0.38332 0.11792 0.0
H570 H 0.21931 0.37857 0.89613 0.0
H571 H 0.28803 0.36864 0.07747 0.0
H572 H 0.23353 0.38849 0.03616 0.0
H573 H 0.27747 0.37843 0.93539 0.0
C574 C 0.26004 0.37569 0.88086 0.0
C575 C 0.24356 0.37504 0.86911 0.0
C576 C 0.24556 0.38437 0.04531 0.0
C577 C 0.25286 0.38108 0.96096 0.0
C578 C 0.24923 0.38147 0.09199 0.0
C579 C 0.26443 0.37525 0.10446 0.0
C580 C 0.25719 0.38109 0.01097 0.0
C581 C 0.27606 0.37317 0.06938 0.0
C582 C 0.26472 0.3787 0.92666 0.0
C583 C 0.23214 0.37868 0.90373 0.0
N584 N 0.27214 0.3759 0.02421 0.0
N585 N 0.23699 0.38133 0.94821 0.0
H586 H 0.38557 0.54046 0.84359 0.0
H587 H 0.37965 0.46769 0.66408 0.0
H588 H 0.38216 0.49029 0.88446 0.0
H589 H 0.37965 0.51801 0.6236 0.0
H590 H 0.37659 0.47586 0.74506 0.0
H591 H 0.37949 0.5327 0.76367 0.0
C592 C 0.38334 0.52782 0.83589 0.0
C593 C 0.38464 0.51597 0.8707 0.0
C594 C 0.37703 0.48512 0.71845 0.0
C595 C 0.3778 0.50699 0.77903 0.0
C596 C 0.37878 0.48046 0.67212 0.0
C597 C 0.38018 0.49219 0.63701 0.0
C598 C 0.37683 0.50164 0.72988 0.0
C599 C 0.37879 0.50855 0.64953 0.0
C600 C 0.37985 0.5234 0.79019 0.0
C601 C 0.38144 0.49982 0.85871 0.0
N602 N 0.37744 0.51279 0.695 0.0
N603 N 0.3784 0.49578 0.81376 0.0
H604 H 0.27499 0.62063 0.61932 0.0
H605 H 0.22383 0.62634 0.38656 0.0
H606 H 0.22277 0.62175 0.6163 0.0
H607 H 0.27557 0.61908 0.38977 0.0
H608 H 0.2228 0.62097 0.47 0.0
H609 H 0.27517 0.61648 0.53533 0.0
C610 C 0.26355 0.6198 0.6011 0.0
C611 C 0.24885 0.6218 0.62483 0.0
C612 C 0.23435 0.6203 0.45233 0.0
C613 C 0.24897 0.6172 0.52849 0.0
C614 C 0.23494 0.62335 0.40461 0.0
C615 C 0.24985 0.62344 0.38122 0.0
C616 C 0.24877 0.61749 0.47691 0.0
C617 C 0.26382 0.61934 0.40641 0.0
C618 C 0.26366 0.61741 0.55309 0.0
C619 C 0.2344 0.62044 0.59942 0.0
N620 N 0.26297 0.61679 0.453 0.0
N621 N 0.23483 0.61847 0.55254 0.0
H622 H 0.11223 0.52565 0.37699 0.0
H623 H 0.11989 0.48213 0.13012 0.0
H624 H 0.11623 0.47394 0.35862 0.0
H625 H 0.10995 0.53306 0.14778 0.0
H626 H 0.12396 0.47972 0.21394 0.0
H627 H 0.11688 0.52927 0.29372 0.0
C628 C 0.11435 0.51507 0.35564 0.0
C629 C 0.11358 0.49945 0.37474 0.0
C630 C 0.12106 0.49146 0.1994 0.0
C631 C 0.11878 0.50351 0.27935 0.0
C632 C 0.11876 0.49286 0.1515 0.0
C633 C 0.11432 0.50778 0.13192 0.0
C634 C 0.1189 0.50507 0.22798 0.0
C635 C 0.11315 0.52127 0.16139 0.0
C636 C 0.11695 0.51714 0.30804 0.0
C637 C 0.1165 0.4862 0.34535 0.0
N638 N 0.11526 0.51956 0.20798 0.0
N639 N 0.11879 0.48853 0.29907 0.0
H640 H 0.24291 0.06108 0.17178 0.0
H641 H 0.15338 0.03682 0.09085 0.0
H642 H 0.20229 0.09393 0.17519 0.0
H643 H 0.19462 0.00499 0.07953 0.0
H644 H 0.17094 0.05763 0.12394 0.0
H645 H 0.22524 0.04013 0.14004 0.0
C646 C 0.23027 0.06389 0.16589 0.0
C647 C 0.22408 0.0793 0.17613 0.0
C648 C 0.17615 0.04609 0.11424 0.0
C649 C 0.20376 0.05534 0.1398 0.0
C650 C 0.16612 0.03419 0.09537 0.0
C651 C 0.17254 0.01914 0.08235 0.0
C652 C 0.19272 0.04292 0.12023 0.0
C653 C 0.18915 0.01643 0.08902 0.0
C654 C 0.22019 0.05192 0.14773 0.0
C655 C 0.2076 0.08223 0.16777 0.0
N656 N 0.19866 0.0282 0.10749 0.0
N657 N 0.19802 0.07037 0.15011 0.0
H658 H 0.19915 0.906 0.31287 0.0
H659 H 0.1891 0.99663 0.4072 0.0
H660 H 0.23792 0.941 0.315 0.0
H661 H 0.14978 0.96235 0.39924 0.0
H662 H 0.20714 0.97644 0.37315 0.0
H663 H 0.18085 0.92649 0.34426 0.0
C664 C 0.20382 0.918 0.31988 0.0
C665 C 0.2201 0.92178 0.31134 0.0
C666 C 0.19456 0.97334 0.37875 0.0
C667 C 0.19921 0.9453 0.34736 0.0
C668 C 0.18424 0.98486 0.39821 0.0
C669 C 0.1679 0.98117 0.40615 0.0
C670 C 0.18851 0.95796 0.36722 0.0
C671 C 0.16229 0.96573 0.39376 0.0
C672 C 0.19335 0.9297 0.33779 0.0
C673 C 0.22546 0.93754 0.32106 0.0
N674 N 0.17259 0.95469 0.37502 0.0
N675 N 0.21506 0.9487 0.33862 0.0
H676 H 0.35817 0.95739 0.57877 0.0
H677 H 0.26664 0.93448 0.64287 0.0
H678 H 0.31803 0.99047 0.56462 0.0
H679 H 0.30656 0.90095 0.65286 0.0
H680 H 0.28533 0.95526 0.61511 0.0
H681 H 0.3395 0.93667 0.60697 0.0
C682 C 0.34543 0.96031 0.58161 0.0
C683 C 0.33966 0.9757 0.56929 0.0
C684 C 0.29 0.94336 0.62336 0.0
C685 C 0.3182 0.95201 0.60158 0.0
C686 C 0.27934 0.93148 0.63924 0.0
C687 C 0.28504 0.91594 0.6502 0.0
C688 C 0.30652 0.93969 0.61843 0.0
C689 C 0.30162 0.91276 0.6448 0.0
C690 C 0.33477 0.94846 0.59771 0.0
C691 C 0.32302 0.97878 0.5737 0.0
N692 N 0.31176 0.92453 0.62932 0.0
N693 N 0.31289 0.96704 0.58948 0.0
H694 H 0.3016 0.09492 0.84035 0.0
H695 H 0.31343 0.00376 0.92912 0.0
H696 H 0.2629 0.05992 0.84721 0.0
H697 H 0.35268 0.0378 0.9136 0.0
H698 H 0.29463 0.02436 0.90081 0.0
H699 H 0.32039 0.07434 0.8688 0.0
C700 C 0.29704 0.08291 0.84786 0.0
C701 C 0.28064 0.07915 0.84137 0.0
C702 C 0.30736 0.02733 0.90357 0.0
C703 C 0.30211 0.05551 0.87401 0.0
C704 C 0.3181 0.01557 0.91977 0.0
C705 C 0.33466 0.01905 0.92373 0.0
C706 C 0.31319 0.04272 0.89132 0.0
C707 C 0.34002 0.03456 0.91108 0.0
C708 C 0.30779 0.07116 0.86407 0.0
C709 C 0.27544 0.06337 0.85166 0.0
N710 N 0.32931 0.04582 0.89549 0.0
N711 N 0.28613 0.05215 0.86749 0.0
H712 H 0.86295 0.98436 0.8927 0.0
H713 H 0.78591 0.96362 0.81397 0.0
H714 H 0.86442 0.93612 0.9501 0.0
H715 H 0.79809 0.9148 0.85426 0.0
H716 H 0.81215 0.97267 0.84131 0.0
H717 H 0.83757 0.97784 0.85449 0.0
C718 C 0.85786 0.97239 0.8974 0.0
C719 C 0.86576 0.96083 0.92499 0.0
C720 C 0.80938 0.95992 0.84355 0.0
C721 C 0.83624 0.95328 0.8823 0.0
C722 C 0.79423 0.95476 0.82809 0.0
C723 C 0.78977 0.93843 0.83186 0.0
C724 C 0.82026 0.94864 0.86273 0.0
C725 C 0.801 0.92752 0.85073 0.0
C726 C 0.8432 0.96867 0.8758 0.0
C727 C 0.85872 0.94545 0.92935 0.0
N728 N 0.81567 0.93283 0.86558 0.0
N729 N 0.84435 0.94218 0.90845 0.0
H730 H 0.84364 0.04264 0.59798 0.0
H731 H 0.8192 0.13263 0.67235 0.0
H732 H 0.87513 0.08383 0.57957 0.0
H733 H 0.78486 0.09346 0.66132 0.0
H734 H 0.8404 0.11461 0.64342 0.0
H735 H 0.82251 0.06075 0.6267 0.0
C736 C 0.84613 0.05549 0.60007 0.0
C737 C 0.86117 0.06173 0.58632 0.0
C738 C 0.82822 0.10997 0.64722 0.0
C739 C 0.83704 0.08252 0.61924 0.0
C740 C 0.81611 0.12025 0.6638 0.0
C741 C 0.80023 0.11455 0.66923 0.0
C742 C 0.82445 0.09384 0.63639 0.0
C743 C 0.79693 0.09839 0.65757 0.0
C744 C 0.83403 0.06583 0.61633 0.0
C745 C 0.8637 0.07849 0.5897 0.0
N746 N 0.80895 0.08859 0.64187 0.0
N747 N 0.85176 0.0883 0.60593 0.0
H748 H 0.71329 0.094 0.34601 0.0
H749 H 0.62582 0.06972 0.44291 0.0
H750 H 0.67172 0.12553 0.33812 0.0
H751 H 0.66472 0.03547 0.42408 0.0
H752 H 0.643 0.09094 0.41005 0.0
H753 H 0.69622 0.07303 0.38047 0.0
C754 C 0.70058 0.09654 0.35166 0.0
C755 C 0.69391 0.11154 0.3391 0.0
C756 C 0.64776 0.07878 0.41306 0.0
C757 C 0.67431 0.08758 0.37857 0.0
C758 C 0.63798 0.06666 0.43189 0.0
C759 C 0.64384 0.05079 0.43619 0.0
C760 C 0.66357 0.07503 0.39877 0.0
C761 C 0.65968 0.04753 0.4213 0.0
C762 C 0.69083 0.08454 0.37121 0.0
C763 C 0.67736 0.11413 0.34717 0.0
N764 N 0.66901 0.05955 0.40337 0.0
N765 N 0.66813 0.10228 0.36645 0.0
H766 H 0.65796 0.87626 0.28863 0.0
H767 H 0.63337 0.91077 0.04369 0.0
H768 H 0.68665 0.86507 0.16756 0.0
H769 H 0.63153 0.94124 0.1653 0.0
H770 H 0.6488 0.89066 0.08839 0.0
H771 H 0.64376 0.89719 0.24371 0.0
C772 C 0.66122 0.87818 0.25257 0.0
C773 C 0.67347 0.86897 0.23167 0.0
C774 C 0.64503 0.90179 0.10508 0.0
C775 C 0.65716 0.89254 0.18026 0.0
C776 C 0.6362 0.91319 0.0798 0.0
C777 C 0.63122 0.92766 0.10093 0.0
C778 C 0.64846 0.90469 0.15209 0.0
C779 C 0.63523 0.93026 0.14773 0.0
C780 C 0.6532 0.89014 0.22716 0.0
C781 C 0.67731 0.87198 0.18493 0.0
N782 N 0.64346 0.91878 0.17201 0.0
N783 N 0.66903 0.8834 0.16053 0.0
H784 H 0.65947 0.5017 0.63281 0.0
H785 H 0.70421 0.58491 0.5959 0.0
H786 H 0.64514 0.5335 0.52118 0.0
H787 H 0.68529 0.57292 0.73138 0.0
H788 H 0.68967 0.56156 0.56325 0.0
H789 H 0.67614 0.52366 0.66537 0.0
C790 C 0.65997 0.51324 0.61501 0.0
C791 C 0.65091 0.51591 0.5745 0.0
C792 C 0.68888 0.56403 0.60017 0.0
C793 C 0.67011 0.54063 0.61053 0.0
C794 C 0.69719 0.57722 0.6188 0.0
C795 C 0.69583 0.58082 0.66628 0.0
C796 C 0.67963 0.55414 0.62954 0.0
C797 C 0.68651 0.57057 0.69452 0.0
C798 C 0.66938 0.5257 0.63361 0.0
C799 C 0.65188 0.53106 0.55272 0.0
N800 N 0.67882 0.55758 0.67576 0.0
N801 N 0.66145 0.54285 0.57078 0.0
H802 H 0.74672 0.43687 0.83532 0.0
H803 H 0.65429 0.45209 0.90692 0.0
H804 H 0.70983 0.39992 0.83032 0.0
H805 H 0.69188 0.48803 0.92089 0.0
H806 H 0.67434 0.43297 0.87732 0.0
H807 H 0.72669 0.45594 0.86526 0.0
C808 C 0.73441 0.43276 0.84053 0.0
C809 C 0.72995 0.41676 0.83029 0.0
C810 C 0.67821 0.44503 0.88689 0.0
C811 C 0.70693 0.43856 0.86453 0.0
C812 C 0.66676 0.45597 0.90376 0.0
C813 C 0.67141 0.4717 0.91641 0.0
C814 C 0.69444 0.44985 0.88249 0.0
C815 C 0.68775 0.47604 0.91159 0.0
C816 C 0.72297 0.44366 0.85766 0.0
C817 C 0.71382 0.41213 0.83776 0.0
N818 N 0.69866 0.46518 0.89498 0.0
N819 N 0.70289 0.42298 0.85436 0.0
H820 H 0.80506 0.40501 0.16464 0.0
H821 H 0.81394 0.49623 0.07377 0.0
H822 H 0.76552 0.43913 0.16047 0.0
H823 H 0.85406 0.46303 0.08597 0.0
H824 H 0.79596 0.47538 0.10465 0.0
H825 H 0.82313 0.42599 0.13492 0.0
C826 C 0.80017 0.41691 0.15748 0.0
C827 C 0.78374 0.42031 0.16505 0.0
C828 C 0.8087 0.47265 0.10064 0.0
C829 C 0.80438 0.44441 0.13095 0.0
C830 C 0.81898 0.48456 0.08298 0.0
C831 C 0.83554 0.48138 0.07724 0.0
C832 C 0.81499 0.45741 0.11256 0.0
C833 C 0.84138 0.46603 0.08981 0.0
C834 C 0.8105 0.4289 0.14054 0.0
C835 C 0.77809 0.43596 0.15518 0.0
N836 N 0.83111 0.45462 0.1068 0.0
N837 N 0.78839 0.44742 0.13859 0.0
H838 H 0.82602 0.58715 0.29575 0.0
H839 H 0.81397 0.50228 0.42607 0.0
H840 H 0.77927 0.56623 0.32528 0.0
H841 H 0.86067 0.52358 0.39822 0.0
H842 H 0.80104 0.52537 0.38811 0.0
H843 H 0.83893 0.56369 0.33175 0.0
C844 C 0.81846 0.57761 0.30968 0.0
C845 C 0.80153 0.57868 0.30752 0.0
C846 C 0.81412 0.52499 0.39027 0.0
C847 C 0.81625 0.55177 0.34893 0.0
C848 C 0.82151 0.51181 0.41196 0.0
C849 C 0.83843 0.51099 0.41538 0.0
C850 C 0.8237 0.53748 0.37182 0.0
C851 C 0.84758 0.5237 0.39642 0.0
C852 C 0.82585 0.56421 0.3303 0.0
C853 C 0.79236 0.56593 0.32619 0.0
N854 N 0.8401 0.53641 0.37549 0.0
N855 N 0.79984 0.55303 0.34616 0.0
H856 H 0.35353 0.423 0.50248 0.0
H857 H 0.3151 0.39145 0.27066 0.0
H858 H 0.36315 0.44791 0.37355 0.0
H859 H 0.28569 0.39527 0.39407 0.0
H860 H 0.336 0.40791 0.30865 0.0
H861 H 0.33143 0.40825 0.46425 0.0
C862 C 0.351 0.42532 0.46612 0.0
C863 C 0.36012 0.43665 0.441 0.0
C864 C 0.32492 0.40516 0.3272 0.0
C865 C 0.33524 0.41969 0.39727 0.0
C866 C 0.31307 0.39575 0.30576 0.0
C867 C 0.2987 0.39205 0.32938 0.0
C868 C 0.32255 0.41046 0.37297 0.0
C869 C 0.2966 0.39794 0.3747 0.0
C870 C 0.33838 0.41699 0.44453 0.0
C871 C 0.35633 0.4393 0.39408 0.0
N872 N 0.30853 0.4067 0.39539 0.0
N873 N 0.34428 0.4307 0.37344 0.0
H874 H 0.3248 0.61707 0.2336 0.0
H875 H 0.36605 0.58651 0.0032 0.0
H876 H 0.29728 0.61383 0.10649 0.0
H877 H 0.37407 0.5611 0.13224 0.0
H878 H 0.34419 0.6019 0.04047 0.0
H879 H 0.34667 0.60155 0.19669 0.0
C880 C 0.32342 0.61316 0.19787 0.0
C881 C 0.30926 0.61667 0.17296 0.0
C882 C 0.35079 0.59296 0.06048 0.0
C883 C 0.33419 0.59934 0.13068 0.0
C884 C 0.36327 0.58427 0.03945 0.0
C885 C 0.3718 0.57254 0.06479 0.0
C886 C 0.34719 0.59021 0.10744 0.0
C887 C 0.36769 0.57001 0.11154 0.0
C888 C 0.33582 0.60428 0.17705 0.0
C889 C 0.30799 0.61128 0.12687 0.0
N890 N 0.35576 0.57891 0.13162 0.0
N891 N 0.32041 0.60301 0.10694 0.0
H892 H 0.14958 0.53637 0.91188 0.0
H893 H 0.17663 0.62526 0.83369 0.0
H894 H 0.11942 0.5786 0.92912 0.0
H895 H 0.2096 0.58489 0.84426 0.0
H896 H 0.15492 0.60804 0.8635 0.0
H897 H 0.17108 0.55363 0.8812 0.0
C898 C 0.14745 0.54926 0.90903 0.0
C899 C 0.13268 0.55605 0.92314 0.0
C900 C 0.16691 0.60297 0.8594 0.0
C901 C 0.15725 0.57588 0.88809 0.0
C902 C 0.17932 0.61279 0.84236 0.0
C903 C 0.19496 0.60651 0.83653 0.0
C904 C 0.17015 0.58672 0.87032 0.0
C905 C 0.19774 0.59026 0.84832 0.0
C906 C 0.15975 0.55912 0.89168 0.0
C907 C 0.13062 0.57285 0.91875 0.0
N908 N 0.18544 0.58091 0.8645 0.0
N909 N 0.14276 0.58219 0.90155 0.0
H910 H 0.12654 0.42517 0.51683 0.0
H911 H 0.16554 0.3908 0.74665 0.0
H912 H 0.12688 0.45368 0.64243 0.0
H913 H 0.18925 0.38424 0.61437 0.0
H914 H 0.14695 0.4102 0.71011 0.0
H915 H 0.14546 0.40608 0.55332 0.0
C916 C 0.13054 0.42735 0.55215 0.0
C917 C 0.1252 0.44099 0.57674 0.0
C918 C 0.15625 0.40449 0.68924 0.0
C919 C 0.14647 0.41918 0.61858 0.0
C920 C 0.16677 0.3934 0.70989 0.0
C921 C 0.17892 0.38597 0.6834 0.0
C922 C 0.15764 0.40778 0.64159 0.0
C923 C 0.18007 0.38979 0.63598 0.0
C924 C 0.14136 0.41654 0.57273 0.0
C925 C 0.13079 0.44333 0.62229 0.0
N926 N 0.16943 0.40033 0.61638 0.0
N927 N 0.14102 0.43242 0.64202 0.0
H928 H 0.23101 0.22246 0.3311 0.0
H929 H 0.28982 0.29885 0.31157 0.0
H930 H 0.28169 0.22117 0.36736 0.0
H931 H 0.23871 0.30052 0.28082 0.0
H932 H 0.28655 0.27112 0.33956 0.0
H933 H 0.23303 0.25168 0.31986 0.0
C934 C 0.24253 0.22833 0.3371 0.0
C935 C 0.25624 0.21931 0.3497 0.0
C936 C 0.27602 0.2776 0.32709 0.0
C937 C 0.25867 0.25278 0.33661 0.0
C938 C 0.27787 0.29345 0.31112 0.0
C939 C 0.26455 0.30197 0.29332 0.0
C940 C 0.26074 0.27017 0.32503 0.0
C941 C 0.24935 0.29438 0.29388 0.0
C942 C 0.24368 0.24503 0.33067 0.0
C943 C 0.27083 0.22761 0.3573 0.0
N944 N 0.24789 0.27887 0.30902 0.0
N945 N 0.27169 0.24384 0.35021 0.0
H946 H 0.03563 0.98027 0.60048 0.0
H947 H 0.94691 0.01843 0.61117 0.0
H948 H 0.02617 0.03029 0.6342 0.0
H949 H 0.95675 0.96844 0.57803 0.0
H950 H 0.97556 0.02227 0.62919 0.0
H951 H 0.00659 0.97502 0.60122 0.0
C952 C 0.02746 0.99014 0.60841 0.0
C953 C 0.03336 0.00579 0.61675 0.0
C954 C 0.97142 0.01042 0.61845 0.0
C955 C 1e-05 0.99987 0.61743 0.0
C956 C 0.95504 0.0082 0.60825 0.0
C957 C 0.94944 0.99313 0.59249 0.0
C958 C 0.98228 0.99749 0.61272 0.0
C959 C 0.96053 0.98031 0.58961 0.0
C960 C 0.01085 0.98712 0.60885 0.0
C961 C 0.02217 0.01806 0.62721 0.0
N962 N 0.97643 0.98282 0.59914 0.0
N963 N 0.00603 0.01487 0.62681 0.0
H964 H 0.2755 0.694 0.82093 0.0
H965 H 0.22353 0.77539 0.84333 0.0
H966 H 0.2234 0.69579 0.81085 0.0
H967 H 0.27558 0.77459 0.83085 0.0
H968 H 0.22339 0.74584 0.84352 0.0
H969 H 0.27579 0.72306 0.83692 0.0
C970 C 0.2641 0.70045 0.82262 0.0
C971 C 0.24941 0.69247 0.81406 0.0
C972 C 0.23485 0.75213 0.84105 0.0
C973 C 0.24967 0.72574 0.83216 0.0
C974 C 0.23495 0.76902 0.84101 0.0
C975 C 0.24958 0.7775 0.8366 0.0
C976 C 0.24949 0.74363 0.83675 0.0
C977 C 0.26401 0.76856 0.83394 0.0
C978 C 0.26429 0.71706 0.83158 0.0
C979 C 0.23503 0.70146 0.81681 0.0
N980 N 0.26359 0.75212 0.83378 0.0
N981 N 0.23553 0.71762 0.82532 0.0
H982 H 0.47271 0.98377 0.13571 0.0
H983 H 0.54943 0.0339 0.04629 0.0
H984 H 0.46957 0.03045 0.06878 0.0
H985 H 0.5523 0.98516 0.09985 0.0
H986 H 0.52061 0.03434 0.0646 0.0
H987 H 0.5022 0.98561 0.13294 0.0
C988 C 0.4782 0.99448 0.12081 0.0
C989 C 0.46863 0.0069 0.10199 0.0
C990 C 0.52756 0.02359 0.0727 0.0
C991 C 0.50241 0.00905 0.09862 0.0
C992 C 0.54405 0.02334 0.06233 0.0
C993 C 0.55328 0.0094 0.07108 0.0
C994 C 0.52021 0.00981 0.09194 0.0
C995 C 0.54563 0.99612 0.09218 0.0
C996 C 0.49506 0.9955 0.11918 0.0
C997 C 0.47645 0.02052 0.08335 0.0
N998 N 0.52952 0.99661 0.10154 0.0
N999 N 0.49288 0.02117 0.08185 0.0
H1000 H 0.23011 0.69881 0.17479 0.0
H1001 H 0.28188 0.78061 0.1647 0.0
H1002 H 0.28018 0.70233 0.21644 0.0
H1003 H 0.23007 0.77897 0.14585 0.0
H1004 H 0.28218 0.7512 0.17234 0.0
H1005 H 0.23068 0.72739 0.15254 0.0
C1006 C 0.24127 0.70553 0.1788 0.0
C1007 C 0.25508 0.6982 0.19793 0.0
C1008 C 0.27075 0.75726 0.16626 0.0
C1009 C 0.25579 0.73089 0.17265 0.0
C1010 C 0.27057 0.77406 0.1618 0.0
C1011 C 0.2559 0.7823 0.15505 0.0
C1012 C 0.25617 0.74858 0.16384 0.0
C1013 C 0.24164 0.77314 0.15138 0.0
C1014 C 0.24157 0.72186 0.16623 0.0
C1015 C 0.26921 0.7075 0.20222 0.0
N1016 N 0.24212 0.75678 0.15608 0.0
N1017 N 0.26917 0.72338 0.18993 0.0
H1018 H 0.47535 0.97164 0.41002 0.0
H1019 H 0.55706 0.02304 0.42316 0.0
H1020 H 0.47783 0.02303 0.38387 0.0
H1021 H 0.55516 0.97119 0.44089 0.0
H1022 H 0.52845 0.02291 0.40196 0.0
H1023 H 0.50486 0.97084 0.41495 0.0
C1024 C 0.48209 0.98274 0.40493 0.0
C1025 C 0.47408 0.99746 0.39697 0.0
C1026 C 0.53432 0.01153 0.41006 0.0
C1027 C 0.50789 0.99664 0.40282 0.0
C1028 C 0.55068 0.01159 0.42215 0.0
C1029 C 0.5585 0.99712 0.4343 0.0
C1030 C 0.52566 0.9969 0.41039 0.0
C1031 C 0.54961 0.98265 0.43208 0.0
C1032 C 0.49896 0.98227 0.40774 0.0
C1033 C 0.48347 0.01143 0.39038 0.0
N1034 N 0.53364 0.98294 0.42086 0.0
N1035 N 0.49986 0.0107 0.39386 0.0
H1036 H 0.28048 0.29903 0.68688 0.0
H1037 H 0.22565 0.22127 0.63561 0.0
H1038 H 0.22883 0.30119 0.6651 0.0
H1039 H 0.27633 0.219 0.67156 0.0
H1040 H 0.22726 0.2508 0.63599 0.0
H1041 H 0.2798 0.27006 0.67073 0.0
C1042 C 0.269 0.29345 0.67826 0.0
C1043 C 0.25465 0.30254 0.67783 0.0
C1044 C 0.23805 0.24384 0.64348 0.0
C1045 C 0.2538 0.26929 0.65954 0.0
C1046 C 0.23715 0.22696 0.64322 0.0
C1047 C 0.25084 0.21763 0.65403 0.0
C1048 C 0.25274 0.25145 0.65458 0.0
C1049 C 0.26543 0.22569 0.66339 0.0
C1050 C 0.26863 0.27688 0.66913 0.0
C1051 C 0.24017 0.29465 0.66615 0.0
N1052 N 0.26597 0.24213 0.66372 0.0
N1053 N 0.24009 0.27845 0.65783 0.0
H1054 H 0.02991 0.9728 0.87259 0.0
H1055 H 0.96152 0.0361 0.94765 0.0
H1056 H 0.03971 0.02161 0.91808 0.0
H1057 H 0.95186 0.98594 0.91618 0.0
H1058 H 0.98971 0.03206 0.92528 0.0
H1059 H 0.00092 0.97846 0.87718 0.0
C1060 C 0.02599 0.98475 0.88314 0.0
C1061 C 0.03727 0.99669 0.89549 0.0
C1062 C 0.9814 0.02197 0.92286 0.0
C1063 C 0.00409 0.00323 0.90086 0.0
C1064 C 0.96527 0.02427 0.93554 0.0
C1065 C 0.95434 0.01129 0.93436 0.0
C1066 C 0.98668 0.00655 0.90896 0.0
C1067 C 0.95989 0.99627 0.91803 0.0
C1068 C 0.00942 0.98797 0.8858 0.0
C1069 C 0.03146 0.01198 0.90866 0.0
N1070 N 0.97571 0.99427 0.9064 0.0
N1071 N 0.01528 0.01477 0.91131 0.0
H1072 H 0.7339 0.80868 0.80228 0.0
H1073 H 0.76053 0.72237 0.70138 0.0
H1074 H 0.75973 0.80242 0.67306 0.0
H1075 H 0.73586 0.7286 0.83245 0.0
H1076 H 0.76068 0.75169 0.69103 0.0
H1077 H 0.73469 0.77942 0.8143 0.0
C1078 C 0.73974 0.80116 0.7764 0.0
C1079 C 0.74675 0.80804 0.73654 0.0
C1080 C 0.75527 0.74666 0.72213 0.0
C1081 C 0.7477 0.77449 0.75016 0.0
C1082 C 0.75519 0.7299 0.7281 0.0
C1083 C 0.74813 0.72299 0.76782 0.0
C1084 C 0.74822 0.75664 0.75605 0.0
C1085 C 0.74142 0.73338 0.80126 0.0
C1086 C 0.7402 0.78445 0.78334 0.0
C1087 C 0.75416 0.79767 0.70428 0.0
N1088 N 0.74158 0.74967 0.79455 0.0
N1089 N 0.75442 0.78143 0.71177 0.0
H1090 H 0.73836 0.27631 0.38609 0.0
H1091 H 0.79233 0.20168 0.30077 0.0
H1092 H 0.78622 0.2811 0.32752 0.0
H1093 H 0.74274 0.19706 0.34603 0.0
H1094 H 0.79169 0.23027 0.32178 0.0
H1095 H 0.74114 0.24688 0.38265 0.0
C1096 C 0.74951 0.27119 0.37291 0.0
C1097 C 0.762 0.2812 0.35656 0.0
C1098 C 0.78098 0.22298 0.32752 0.0
C1099 C 0.76525 0.24751 0.35246 0.0
C1100 C 0.78135 0.20662 0.31562 0.0
C1101 C 0.7675 0.19698 0.3211 0.0
C1102 C 0.76665 0.2298 0.34497 0.0
C1103 C 0.75366 0.20406 0.34083 0.0
C1104 C 0.75108 0.25437 0.37091 0.0
C1105 C 0.77621 0.27387 0.3401 0.0
N1106 N 0.75354 0.22008 0.35164 0.0
N1107 N 0.77739 0.25748 0.33816 0.0
H1108 H 0.76439 0.27525 0.60912 0.0
H1109 H 0.70118 0.20804 0.69302 0.0
H1110 H 0.71707 0.28604 0.66468 0.0
H1111 H 0.75015 0.19728 0.65079 0.0
H1112 H 0.70543 0.23627 0.67134 0.0
H1113 H 0.75801 0.2464 0.61305 0.0
C1114 C 0.7526 0.27157 0.62173 0.0
C1115 C 0.74132 0.28309 0.63711 0.0
C1116 C 0.71521 0.22771 0.66641 0.0
C1117 C 0.73397 0.25007 0.64179 0.0
C1118 C 0.71278 0.21156 0.6787 0.0
C1119 C 0.7254 0.20029 0.67427 0.0
C1120 C 0.73037 0.23268 0.64963 0.0
C1121 C 0.74012 0.20557 0.65518 0.0
C1122 C 0.74898 0.25509 0.62402 0.0
C1123 C 0.72621 0.2776 0.65287 0.0
N1124 N 0.74225 0.22141 0.64398 0.0
N1125 N 0.72303 0.26149 0.65512 0.0
H1126 H 0.77611 0.72561 0.1366 0.0
H1127 H 0.71585 0.7974 0.20521 0.0
H1128 H 0.72427 0.72004 0.1463 0.0
H1129 H 0.76781 0.8024 0.19947 0.0
H1130 H 0.7184 0.77001 0.17409 0.0
H1131 H 0.77299 0.7546 0.1501 0.0
C1132 C 0.76405 0.7305 0.14115 0.0
C1133 C 0.75044 0.72033 0.14084 0.0
C1134 C 0.72923 0.77715 0.17923 0.0
C1135 C 0.74679 0.75356 0.15656 0.0
C1136 C 0.72779 0.79281 0.19694 0.0
C1137 C 0.74166 0.80216 0.20549 0.0
C1138 C 0.74466 0.77075 0.17012 0.0
C1139 C 0.75679 0.7956 0.19384 0.0
C1140 C 0.76228 0.74707 0.14889 0.0
C1141 C 0.73512 0.72739 0.14663 0.0
N1142 N 0.7579 0.78026 0.17717 0.0
N1143 N 0.73372 0.74353 0.15466 0.0
H1144 H 0.53374 0.51608 0.12602 0.0
H1145 H 0.45217 0.47011 0.05578 0.0
H1146 H 0.53215 0.46709 0.07408 0.0
H1147 H 0.45435 0.52099 0.08928 0.0
H1148 H 0.48086 0.46767 0.07452 0.0
H1149 H 0.50419 0.51689 0.12466 0.0
C1150 C 0.52719 0.50543 0.11474 0.0
C1151 C 0.53546 0.49155 0.09962 0.0
C1152 C 0.47504 0.47935 0.07816 0.0
C1153 C 0.50161 0.49243 0.09792 0.0
C1154 C 0.45863 0.48075 0.06756 0.0
C1155 C 0.45086 0.49583 0.07042 0.0
C1156 C 0.48379 0.49311 0.09174 0.0
C1157 C 0.45986 0.50915 0.08619 0.0
C1158 C 0.5103 0.50592 0.11391 0.0
C1159 C 0.5263 0.4781 0.08564 0.0
N1160 N 0.47588 0.50751 0.09588 0.0
N1161 N 0.50988 0.47892 0.08482 0.0
H1162 H 0.96703 0.48259 0.63743 0.0
H1163 H 0.03772 0.54095 0.54821 0.0
H1164 H 0.9588 0.52895 0.57222 0.0
H1165 H 0.04575 0.49217 0.59686 0.0
H1166 H 0.00916 0.53838 0.56839 0.0
H1167 H 0.99616 0.48755 0.63411 0.0
C1168 C 0.97133 0.49389 0.62281 0.0
C1169 C 0.96045 0.50529 0.60458 0.0
C1170 C 0.01719 0.52828 0.57503 0.0
C1171 C 0.99379 0.51102 0.60061 0.0
C1172 C 0.03353 0.52975 0.5636 0.0
C1173 C 0.04413 0.51668 0.57032 0.0
C1174 C 0.01137 0.51363 0.59331 0.0
C1175 C 0.038 0.50251 0.5907 0.0
C1176 C 0.98797 0.49669 0.62087 0.0
C1177 C 0.96673 0.51974 0.5863 0.0
N1178 N 0.022 0.50131 0.6011 0.0
N1179 N 0.98298 0.52213 0.58449 0.0
H1180 H 0.05249 0.50722 0.90101 0.0
H1181 H 0.96569 0.46534 0.92386 0.0
H1182 H 0.04479 0.45975 0.95977 0.0
H1183 H 0.97318 0.51271 0.86424 0.0
H1184 H 0.99497 0.46187 0.92925 0.0
H1185 H 0.02393 0.50821 0.87909 0.0
C1186 C 0.04485 0.49693 0.90884 0.0
C1187 C 0.05102 0.48346 0.93275 0.0
C1188 C 0.99022 0.47297 0.91461 0.0
C1189 C 0.01827 0.48456 0.90804 0.0
C1190 C 0.97349 0.47496 0.91151 0.0
C1191 C 0.96695 0.48942 0.89404 0.0
C1192 C 0.00053 0.48555 0.90035 0.0
C1193 C 0.97767 0.50141 0.87828 0.0
C1194 C 0.02852 0.49751 0.89638 0.0
C1195 C 0.04055 0.47045 0.94176 0.0
N1196 N 0.99392 0.49927 0.88221 0.0
N1197 N 0.02468 0.47139 0.9298 0.0
H1198 H 0.52668 0.5259 0.39399 0.0
H1199 H 0.44238 0.47885 0.40336 0.0
H1200 H 0.52125 0.47535 0.35947 0.0
H1201 H 0.44768 0.52978 0.4331 0.0
H1202 H 0.47064 0.47801 0.37846 0.0
H1203 H 0.4973 0.52825 0.39984 0.0
C1204 C 0.51931 0.51533 0.38718 0.0
C1205 C 0.52647 0.50035 0.37679 0.0
C1206 C 0.46558 0.48941 0.38998 0.0
C1207 C 0.49278 0.50294 0.38374 0.0
C1208 C 0.44942 0.4899 0.40416 0.0
C1209 C 0.4427 0.50436 0.4209 0.0
C1210 C 0.4751 0.50346 0.39278 0.0
C1211 C 0.45239 0.51832 0.42088 0.0
C1212 C 0.50252 0.51667 0.39054 0.0
C1213 C 0.51628 0.4871 0.36798 0.0
N1214 N 0.46813 0.51748 0.40754 0.0
N1215 N 0.49998 0.48867 0.37213 0.0
loop_
_geom_bond_atom_site_label_1
_geom_bond_atom_site_label_2
_geom_bond_distance
_geom_bond_site_symmetry_2
_ccdc_geom_bond_type
O0 Cd1 2.300 . S
O0 C7 1.275 . S
Cd1 O0 2.300 . S
Cd1 O9 2.381 . S
Cd1 O10 2.378 . S
O2 Cd3 2.385 . S
O2 C7 1.255 . S
Cd3 O2 2.385 . S
Cd3 O4 2.317 . S
O4 Cd3 2.317 . S
O4 C5 1.232 . S
C5 O4 1.232 . S
C5 O6 1.218 . S
O6 C5 1.218 . S
C7 O0 1.275 . S
C7 O2 1.255 . S
C8 O9 1.258 . S
C8 O10 1.256 . S
O9 Cd1 2.381 . S
O9 C8 1.258 . S
O10 Cd1 2.378 . S
O10 C8 1.256 . S
O11 Cd12 2.300 . S
O11 C18 1.275 . S
Cd12 O11 2.300 . S
Cd12 O20 2.381 . S
Cd12 O21 2.378 . S
O13 Cd14 2.385 . S
O13 C18 1.255 . S
Cd14 O13 2.385 . S
Cd14 O15 2.317 . S
O15 Cd14 2.317 . S
O15 C16 1.232 . S
C16 O15 1.232 . S
C16 O17 1.218 . S
O17 C16 1.218 . S
C18 O11 1.275 . S
C18 O13 1.255 . S
C19 O20 1.258 . S
C19 O21 1.256 . S
O20 Cd12 2.381 . S
O20 C19 1.258 . S
O21 Cd12 2.378 . S
O21 C19 1.256 . S
O22 Cd23 2.300 . S
O22 C29 1.275 . S
Cd23 O22 2.300 . S
Cd23 O31 2.381 . S
Cd23 O32 2.378 . S
O24 Cd25 2.385 . S
O24 C29 1.255 . S
Cd25 O24 2.385 . S
Cd25 O26 2.317 . S
O26 Cd25 2.317 . S
O26 C27 1.232 . S
C27 O26 1.232 . S
C27 O28 1.218 . S
O28 C27 1.218 . S
C29 O22 1.275 . S
C29 O24 1.255 . S
C30 O31 1.258 . S
C30 O32 1.256 . S
O31 Cd23 2.381 . S
O31 C30 1.258 . S
O32 Cd23 2.378 . S
O32 C30 1.256 . S
O33 Cd34 2.300 . S
O33 C40 1.275 . S
Cd34 O33 2.300 . S
Cd34 O42 2.381 1_554 S
Cd34 O43 2.378 1_554 S
O35 Cd36 2.385 . S
O35 C40 1.255 . S
Cd36 O35 2.385 . S
Cd36 O37 2.317 1_554 S
O37 Cd36 2.317 1_556 S
O37 C38 1.232 1_556 S
C38 O37 1.232 1_554 S
C38 O39 1.218 . S
O39 C38 1.218 . S
C40 O33 1.275 . S
C40 O35 1.255 . S
C41 O42 1.258 . S
C41 O43 1.256 . S
O42 Cd34 2.381 1_556 S
O42 C41 1.258 . S
O43 Cd34 2.378 1_556 S
O43 C41 1.256 . S
O44 Cd45 2.300 . S
O44 C51 1.275 . S
Cd45 O44 2.300 . S
Cd45 O53 2.381 . S
Cd45 O54 2.378 . S
O46 Cd47 2.385 . S
O46 C51 1.255 . S
Cd47 O46 2.385 . S
Cd47 O48 2.317 . S
O48 Cd47 2.317 . S
O48 C49 1.232 . S
C49 O48 1.232 . S
C49 O50 1.218 . S
O50 C49 1.218 . S
C51 O44 1.275 . S
C51 O46 1.255 . S
C52 O53 1.258 . S
C52 O54 1.256 . S
O53 Cd45 2.381 . S
O53 C52 1.258 . S
O54 Cd45 2.378 . S
O54 C52 1.256 . S
O55 Cd56 2.300 . S
O55 C62 1.275 . S
Cd56 O55 2.300 . S
Cd56 O64 2.381 . S
Cd56 O65 2.378 . S
O57 Cd58 2.385 . S
O57 C62 1.255 . S
Cd58 O57 2.385 . S
Cd58 O59 2.317 . S
O59 Cd58 2.317 . S
O59 C60 1.232 . S
C60 O59 1.232 . S
C60 O61 1.218 . S
O61 C60 1.218 . S
C62 O55 1.275 . S
C62 O57 1.255 . S
C63 O64 1.258 . S
C63 O65 1.256 . S
O64 Cd56 2.381 . S
O64 C63 1.258 . S
O65 Cd56 2.378 . S
O65 C63 1.256 . S
O66 Cd67 2.300 . S
O66 C73 1.275 . S
Cd67 O66 2.300 . S
Cd67 O75 2.381 . S
Cd67 O76 2.378 . S
O68 Cd69 2.385 . S
O68 C73 1.255 . S
Cd69 O68 2.385 . S
Cd69 O70 2.317 . S
O70 Cd69 2.317 . S
O70 C71 1.232 . S
C71 O70 1.232 . S
C71 O72 1.218 . S
O72 C71 1.218 . S
C73 O66 1.275 . S
C73 O68 1.255 . S
C74 O75 1.258 . S
C74 O76 1.256 . S
O75 Cd67 2.381 . S
O75 C74 1.258 . S
O76 Cd67 2.378 . S
O76 C74 1.256 . S
O77 Cd78 2.300 . S
O77 C84 1.275 . S
Cd78 O77 2.300 . S
Cd78 O86 2.381 1_556 S
Cd78 O87 2.378 1_556 S
O79 Cd80 2.385 . S
O79 C84 1.255 . S
Cd80 O79 2.385 . S
Cd80 O81 2.317 1_556 S
O81 Cd80 2.317 1_554 S
O81 C82 1.232 1_554 S
C82 O81 1.232 1_556 S
C82 O83 1.218 . S
O83 C82 1.218 . S
C84 O77 1.275 . S
C84 O79 1.255 . S
C85 O86 1.258 . S
C85 O87 1.256 . S
O86 Cd78 2.381 1_554 S
O86 C85 1.258 . S
O87 Cd78 2.378 1_554 S
O87 C85 1.256 . S
O88 Cd89 2.300 . S
O88 C95 1.275 . S
Cd89 O88 2.300 . S
Cd89 O97 2.381 . S
Cd89 O98 2.378 . S
O90 Cd91 2.385 . S
O90 C95 1.255 . S
Cd91 O90 2.385 . S
Cd91 O92 2.317 . S
O92 Cd91 2.317 . S
O92 C93 1.232 . S
C93 O92 1.232 . S
C93 O94 1.218 . S
O94 C93 1.218 . S
C95 O88 1.275 . S
C95 O90 1.255 . S
C96 O97 1.258 . S
C96 O98 1.256 . S
O97 Cd89 2.381 . S
O97 C96 1.258 . S
O98 Cd89 2.378 . S
O98 C96 1.256 . S
O99 Cd100 2.300 . S
O99 C106 1.275 . S
Cd100 O99 2.300 . S
Cd100 O108 2.381 . S
Cd100 O109 2.378 . S
O101 Cd102 2.385 . S
O101 C106 1.255 1_565 S
Cd102 O101 2.385 . S
Cd102 O103 2.317 . S
O103 Cd102 2.317 . S
O103 C104 1.232 . S
C104 O103 1.232 . S
C104 O105 1.218 . S
O105 C104 1.218 . S
C106 O99 1.275 . S
C106 O101 1.255 1_545 S
C107 O108 1.258 . S
C107 O109 1.256 . S
O108 Cd100 2.381 . S
O108 C107 1.258 . S
O109 Cd100 2.378 . S
O109 C107 1.256 . S
O110 Cd111 2.300 . S
O110 C117 1.275 . S
Cd111 O110 2.300 . S
Cd111 O119 2.381 . S
Cd111 O120 2.378 . S
O112 Cd113 2.385 . S
O112 C117 1.255 . S
Cd113 O112 2.385 . S
Cd113 O114 2.317 . S
O114 Cd113 2.317 . S
O114 C115 1.232 . S
C115 O114 1.232 . S
C115 O116 1.218 . S
O116 C115 1.218 . S
C117 O110 1.275 . S
C117 O112 1.255 . S
C118 O119 1.258 . S
C118 O120 1.256 . S
O119 Cd111 2.381 . S
O119 C118 1.258 . S
O120 Cd111 2.378 . S
O120 C118 1.256 . S
O121 Cd122 2.300 1_556 S
O121 C128 1.275 . S
Cd122 O121 2.300 1_554 S
Cd122 O130 2.381 . S
Cd122 O131 2.378 . S
O123 Cd124 2.385 1_556 S
O123 C128 1.255 1_545 S
Cd124 O123 2.385 1_554 S
Cd124 O125 2.317 . S
O125 Cd124 2.317 . S
O125 C126 1.232 . S
C126 O125 1.232 . S
C126 O127 1.218 1_554 S
O127 C126 1.218 1_556 S
C128 O121 1.275 . S
C128 O123 1.255 1_565 S
C129 O130 1.258 . S
C129 O131 1.256 . S
O130 Cd122 2.381 . S
O130 C129 1.258 . S
O131 Cd122 2.378 . S
O131 C129 1.256 . S
O132 Cd133 2.300 . S
O132 C139 1.275 . S
Cd133 O132 2.300 . S
Cd133 O141 2.381 . S
Cd133 O142 2.378 . S
O134 Cd135 2.385 . S
O134 C139 1.255 . S
Cd135 O134 2.385 . S
Cd135 O136 2.317 . S
O136 Cd135 2.317 . S
O136 C137 1.232 . S
C137 O136 1.232 . S
C137 O138 1.218 . S
O138 C137 1.218 . S
C139 O132 1.275 . S
C139 O134 1.255 . S
C140 O141 1.258 . S
C140 O142 1.256 . S
O141 Cd133 2.381 . S
O141 C140 1.258 . S
O142 Cd133 2.378 . S
O142 C140 1.256 . S
O143 Cd144 2.300 . S
O143 C150 1.275 . S
Cd144 O143 2.300 . S
Cd144 O152 2.381 . S
Cd144 O153 2.378 . S
O145 Cd146 2.385 . S
O145 C150 1.255 1_565 S
Cd146 O145 2.385 . S
Cd146 O147 2.317 . S
O147 Cd146 2.317 . S
O147 C148 1.232 . S
C148 O147 1.232 . S
C148 O149 1.218 . S
O149 C148 1.218 . S
C150 O143 1.275 . S
C150 O145 1.255 1_545 S
C151 O152 1.258 . S
C151 O153 1.256 . S
O152 Cd144 2.381 . S
O152 C151 1.258 . S
O153 Cd144 2.378 . S
O153 C151 1.256 . S
O154 Cd155 2.300 . S
O154 C161 1.275 . S
Cd155 O154 2.300 . S
Cd155 O163 2.381 . S
Cd155 O164 2.378 . S
O156 Cd157 2.385 . S
O156 C161 1.255 . S
Cd157 O156 2.385 . S
Cd157 O158 2.317 . S
O158 Cd157 2.317 . S
O158 C159 1.232 . S
C159 O158 1.232 . S
C159 O160 1.218 . S
O160 C159 1.218 . S
C161 O154 1.275 . S
C161 O156 1.255 . S
C162 O163 1.258 . S
C162 O164 1.256 . S
O163 Cd155 2.381 . S
O163 C162 1.258 . S
O164 Cd155 2.378 . S
O164 C162 1.256 . S
O165 Cd166 2.300 1_554 S
O165 C172 1.275 . S
Cd166 O165 2.300 1_556 S
Cd166 O174 2.381 . S
Cd166 O175 2.378 . S
O167 Cd168 2.385 1_554 S
O167 C172 1.255 1_545 S
Cd168 O167 2.385 1_556 S
Cd168 O169 2.317 . S
O169 Cd168 2.317 . S
O169 C170 1.232 . S
C170 O169 1.232 . S
C170 O171 1.218 1_556 S
O171 C170 1.218 1_554 S
C172 O165 1.275 . S
C172 O167 1.255 1_565 S
C173 O174 1.258 . S
C173 O175 1.256 . S
O174 Cd166 2.381 . S
O174 C173 1.258 . S
O175 Cd166 2.378 . S
O175 C173 1.256 . S
O176 Cd177 2.300 . S
O176 C183 1.275 . S
Cd177 O176 2.300 . S
Cd177 O185 2.381 . S
Cd177 O186 2.378 . S
O178 Cd179 2.385 . S
O178 C183 1.255 . S
Cd179 O178 2.385 . S
Cd179 O180 2.317 . S
O180 Cd179 2.317 . S
O180 C181 1.232 . S
C181 O180 1.232 . S
C181 O182 1.218 . S
O182 C181 1.218 . S
C183 O176 1.275 . S
C183 O178 1.255 . S
C184 O185 1.258 . S
C184 O186 1.256 . S
O185 Cd177 2.381 . S
O185 C184 1.258 . S
O186 Cd177 2.378 . S
O186 C184 1.256 . S
O187 Cd188 2.300 . S
O187 C194 1.275 . S
Cd188 O187 2.300 . S
Cd188 O196 2.381 1_554 S
Cd188 O197 2.378 1_554 S
O189 Cd190 2.385 . S
O189 C194 1.255 . S
Cd190 O189 2.385 . S
Cd190 O191 2.317 1_554 S
O191 Cd190 2.317 1_556 S
O191 C192 1.232 1_556 S
C192 O191 1.232 1_554 S
C192 O193 1.218 . S
O193 C192 1.218 . S
C194 O187 1.275 . S
C194 O189 1.255 . S
C195 O196 1.258 . S
C195 O197 1.256 . S
O196 Cd188 2.381 1_556 S
O196 C195 1.258 . S
O197 Cd188 2.378 1_556 S
O197 C195 1.256 . S
O198 Cd199 2.300 . S
O198 C205 1.275 . S
Cd199 O198 2.300 . S
Cd199 O207 2.381 . S
Cd199 O208 2.378 . S
O200 Cd201 2.385 . S
O200 C205 1.255 . S
Cd201 O200 2.385 . S
Cd201 O202 2.317 . S
O202 Cd201 2.317 . S
O202 C203 1.232 . S
C203 O202 1.232 . S
C203 O204 1.218 . S
O204 C203 1.218 . S
C205 O198 1.275 . S
C205 O200 1.255 . S
C206 O207 1.258 . S
C206 O208 1.256 . S
O207 Cd199 2.381 . S
O207 C206 1.258 . S
O208 Cd199 2.378 . S
O208 C206 1.256 . S
O209 Cd210 2.300 . S
O209 C216 1.275 . S
Cd210 O209 2.300 . S
Cd210 O218 2.381 . S
Cd210 O219 2.378 . S
O211 Cd212 2.385 . S
O211 C216 1.255 . S
Cd212 O211 2.385 . S
Cd212 O213 2.317 . S
O213 Cd212 2.317 . S
O213 C214 1.232 . S
C214 O213 1.232 . S
C214 O215 1.218 . S
O215 C214 1.218 . S
C216 O209 1.275 . S
C216 O211 1.255 . S
C217 O218 1.258 . S
C217 O219 1.256 . S
O218 Cd210 2.381 . S
O218 C217 1.258 . S
O219 Cd210 2.378 . S
O219 C217 1.256 . S
O220 Cd221 2.300 . S
O220 C227 1.275 . S
Cd221 O220 2.300 . S
Cd221 O229 2.381 . S
Cd221 O230 2.378 . S
O222 Cd223 2.385 . S
O222 C227 1.255 . S
Cd223 O222 2.385 . S
Cd223 O224 2.317 . S
O224 Cd223 2.317 . S
O224 C225 1.232 . S
C225 O224 1.232 . S
C225 O226 1.218 . S
O226 C225 1.218 . S
C227 O220 1.275 . S
C227 O222 1.255 . S
C228 O229 1.258 . S
C228 O230 1.256 . S
O229 Cd221 2.381 . S
O229 C228 1.258 . S
O230 Cd221 2.378 . S
O230 C228 1.256 . S
O231 Cd232 2.300 . S
O231 C238 1.275 . S
Cd232 O231 2.300 . S
Cd232 O240 2.381 1_556 S
Cd232 O241 2.378 1_556 S
O233 Cd234 2.385 . S
O233 C238 1.255 . S
Cd234 O233 2.385 . S
Cd234 O235 2.317 1_556 S
O235 Cd234 2.317 1_554 S
O235 C236 1.232 1_554 S
C236 O235 1.232 1_556 S
C236 O237 1.218 . S
O237 C236 1.218 . S
C238 O231 1.275 . S
C238 O233 1.255 . S
C239 O240 1.258 . S
C239 O241 1.256 . S
O240 Cd232 2.381 1_554 S
O240 C239 1.258 . S
O241 Cd232 2.378 1_554 S
O241 C239 1.256 . S
O242 Cd243 2.300 . S
O242 C249 1.275 . S
Cd243 O242 2.300 . S
Cd243 O251 2.381 . S
Cd243 O252 2.378 . S
O244 Cd245 2.385 . S
O244 C249 1.255 . S
Cd245 O244 2.385 . S
Cd245 O246 2.317 . S
O246 Cd245 2.317 . S
O246 C247 1.232 . S
C247 O246 1.232 . S
C247 O248 1.218 . S
O248 C247 1.218 . S
C249 O242 1.275 . S
C249 O244 1.255 . S
C250 O251 1.258 . S
C250 O252 1.256 . S
O251 Cd243 2.381 . S
O251 C250 1.258 . S
O252 Cd243 2.378 . S
O252 C250 1.256 . S
O253 Cd254 2.300 . S
O253 C260 1.275 . S
Cd254 O253 2.300 . S
Cd254 O262 2.381 . S
Cd254 O263 2.378 . S
O255 Cd256 2.385 . S
O255 C260 1.255 . S
Cd256 O255 2.385 . S
Cd256 O257 2.317 . S
O257 Cd256 2.317 . S
O257 C258 1.232 . S
C258 O257 1.232 . S
C258 O259 1.218 . S
O259 C258 1.218 . S
C260 O253 1.275 . S
C260 O255 1.255 . S
C261 O262 1.258 . S
C261 O263 1.256 . S
O262 Cd254 2.381 . S
O262 C261 1.258 . S
O263 Cd254 2.378 . S
O263 C261 1.256 . S
O264 Cd265 2.300 . S
O264 C271 1.275 . S
Cd265 O264 2.300 . S
Cd265 O273 2.381 . S
Cd265 O274 2.378 . S
O266 Cd267 2.385 . S
O266 C271 1.255 . S
Cd267 O266 2.385 . S
Cd267 O268 2.317 . S
O268 Cd267 2.317 . S
O268 C269 1.232 . S
C269 O268 1.232 . S
C269 O270 1.218 . S
O270 C269 1.218 . S
C271 O264 1.275 . S
C271 O266 1.255 . S
C272 O273 1.258 . S
C272 O274 1.256 . S
O273 Cd265 2.381 . S
O273 C272 1.258 . S
O274 Cd265 2.378 . S
O274 C272 1.256 . S
O275 Cd276 2.300 1_556 S
O275 C282 1.275 . S
Cd276 O275 2.300 1_554 S
Cd276 O284 2.381 . S
Cd276 O285 2.378 . S
O277 Cd278 2.385 1_556 S
O277 C282 1.255 . S
Cd278 O277 2.385 1_554 S
Cd278 O279 2.317 . S
O279 Cd278 2.317 . S
O279 C280 1.232 . S
C280 O279 1.232 . S
C280 O281 1.218 1_554 S
O281 C280 1.218 1_556 S
C282 O275 1.275 . S
C282 O277 1.255 . S
C283 O284 1.258 . S
C283 O285 1.256 . S
O284 Cd276 2.381 . S
O284 C283 1.258 . S
O285 Cd276 2.378 . S
O285 C283 1.256 . S
O286 Cd287 2.300 . S
O286 C293 1.275 . S
Cd287 O286 2.300 . S
Cd287 O295 2.381 . S
Cd287 O296 2.378 . S
O288 Cd289 2.385 . S
O288 C293 1.255 . S
Cd289 O288 2.385 . S
Cd289 O290 2.317 . S
O290 Cd289 2.317 . S
O290 C291 1.232 . S
C291 O290 1.232 . S
C291 O292 1.218 . S
O292 C291 1.218 . S
C293 O286 1.275 . S
C293 O288 1.255 . S
C294 O295 1.258 . S
C294 O296 1.256 . S
O295 Cd287 2.381 . S
O295 C294 1.258 . S
O296 Cd287 2.378 . S
O296 C294 1.256 . S
O297 Cd298 2.300 . S
O297 C304 1.275 . S
Cd298 O297 2.300 . S
Cd298 O306 2.381 . S
Cd298 O307 2.378 . S
O299 Cd300 2.385 . S
O299 C304 1.255 . S
Cd300 O299 2.385 . S
Cd300 O301 2.317 . S
O301 Cd300 2.317 . S
O301 C302 1.232 . S
C302 O301 1.232 . S
C302 O303 1.218 . S
O303 C302 1.218 . S
C304 O297 1.275 . S
C304 O299 1.255 . S
C305 O306 1.258 . S
C305 O307 1.256 . S
O306 Cd298 2.381 . S
O306 C305 1.258 . S
O307 Cd298 2.378 . S
O307 C305 1.256 . S
O308 Cd309 2.300 . S
O308 C315 1.275 . S
Cd309 O308 2.300 . S
Cd309 O317 2.381 . S
Cd309 O318 2.378 . S
O310 Cd311 2.385 . S
O310 C315 1.255 . S
Cd311 O310 2.385 . S
Cd311 O312 2.317 . S
O312 Cd311 2.317 . S
O312 C313 1.232 . S
C313 O312 1.232 . S
C313 O314 1.218 . S
O314 C313 1.218 . S
C315 O308 1.275 . S
C315 O310 1.255 . S
C316 O317 1.258 . S
C316 O318 1.256 . S
O317 Cd309 2.381 . S
O317 C316 1.258 . S
O318 Cd309 2.378 . S
O318 C316 1.256 . S
O319 Cd320 2.300 1_554 S
O319 C326 1.275 . S
Cd320 O319 2.300 1_556 S
Cd320 O328 2.381 . S
Cd320 O329 2.378 . S
O321 Cd322 2.385 1_554 S
O321 C326 1.255 . S
Cd322 O321 2.385 1_556 S
Cd322 O323 2.317 . S
O323 Cd322 2.317 . S
O323 C324 1.232 . S
C324 O323 1.232 . S
C324 O325 1.218 1_556 S
O325 C324 1.218 1_554 S
C326 O319 1.275 . S
C326 O321 1.255 . S
C327 O328 1.258 . S
C327 O329 1.256 . S
O328 Cd320 2.381 . S
O328 C327 1.258 . S
O329 Cd320 2.378 . S
O329 C327 1.256 . S
O330 Cd331 2.300 . S
O330 C337 1.275 . S
Cd331 O330 2.300 . S
Cd331 O339 2.381 . S
Cd331 O340 2.378 . S
O332 Cd333 2.385 . S
O332 C337 1.255 . S
Cd333 O332 2.385 . S
Cd333 O334 2.317 . S
O334 Cd333 2.317 . S
O334 C335 1.232 . S
C335 O334 1.232 . S
C335 O336 1.218 . S
O336 C335 1.218 . S
C337 O330 1.275 . S
C337 O332 1.255 . S
C338 O339 1.258 . S
C338 O340 1.256 . S
O339 Cd331 2.381 . S
O339 C338 1.258 . S
O340 Cd331 2.378 . S
O340 C338 1.256 . S
O341 Cd342 2.300 . S
O341 C348 1.275 . S
Cd342 O341 2.300 . S
Cd342 O350 2.381 . S
Cd342 O351 2.378 . S
O343 Cd344 2.385 . S
O343 C348 1.255 . S
Cd344 O343 2.385 . S
Cd344 O345 2.317 . S
O345 Cd344 2.317 . S
O345 C346 1.232 . S
C346 O345 1.232 . S
C346 O347 1.218 . S
O347 C346 1.218 . S
C348 O341 1.275 . S
C348 O343 1.255 . S
C349 O350 1.258 . S
C349 O351 1.256 . S
O350 Cd342 2.381 . S
O350 C349 1.258 . S
O351 Cd342 2.378 . S
O351 C349 1.256 . S
H352 C358 0.930 . S
H353 C362 0.930 . S
H354 C367 0.929 . S
H355 C365 0.929 . S
H356 C360 0.929 . S
H357 C366 0.929 . S
C358 H352 0.930 . S
C358 C359 1.367 . S
C358 C366 1.378 . S
C359 C358 1.367 . S
C359 C367 1.433 . S
C360 H356 0.929 . S
C360 C362 1.378 . S
C360 C364 1.350 . S
C361 C364 1.463 . S
C361 C366 1.350 . S
C361 N369 1.427 . S
C362 H353 0.930 . S
C362 C360 1.378 . S
C362 C363 1.367 . S
C363 C362 1.367 . S
C363 C365 1.433 . S
C364 C360 1.350 . S
C364 C361 1.463 . S
C364 N368 1.427 . S
C365 H355 0.929 . S
C365 C363 1.433 . S
C365 N368 1.384 . S
C366 H357 0.929 . S
C366 C358 1.378 . S
C366 C361 1.350 . S
C367 H354 0.929 . S
C367 C359 1.433 . S
C367 N369 1.384 . S
N368 C364 1.427 . S
N368 C365 1.384 . S
N369 C361 1.427 . S
N369 C367 1.384 . S
H370 C376 0.930 . S
H371 C380 0.930 . S
H372 C385 0.929 . S
H373 C383 0.929 . S
H374 C378 0.929 . S
H375 C384 0.929 . S
C376 H370 0.930 . S
C376 C377 1.367 1_545 S
C376 C384 1.378 . S
C377 C376 1.367 1_565 S
C377 C385 1.433 . S
C378 H374 0.929 . S
C378 C380 1.378 . S
C378 C382 1.354 1_565 S
C379 C382 1.463 1_565 S
C379 C384 1.353 1_565 S
C379 N387 1.424 . S
C380 H371 0.930 . S
C380 C378 1.378 . S
C380 C381 1.367 1_565 S
C381 C380 1.367 1_545 S
C381 C383 1.433 . S
C382 C378 1.354 1_545 S
C382 C379 1.463 1_545 S
C382 N386 1.423 . S
C383 H373 0.929 . S
C383 C381 1.433 . S
C383 N386 1.384 . S
C384 H375 0.929 . S
C384 C376 1.378 . S
C384 C379 1.353 1_545 S
C385 H372 0.929 . S
C385 C377 1.433 . S
C385 N387 1.384 . S
N386 C382 1.423 . S
N386 C383 1.384 . S
N387 C379 1.424 . S
N387 C385 1.384 . S
H388 C394 0.930 . S
H389 C398 0.930 . S
H390 C403 0.929 . S
H391 C401 0.929 . S
H392 C396 0.929 . S
H393 C402 0.929 . S
C394 H388 0.930 . S
C394 C395 1.367 . S
C394 C402 1.378 . S
C395 C394 1.367 . S
C395 C403 1.433 . S
C396 H392 0.929 . S
C396 C398 1.378 . S
C396 C400 1.350 . S
C397 C400 1.463 1_556 S
C397 C402 1.350 . S
C397 N405 1.427 . S
C398 H389 0.930 . S
C398 C396 1.378 . S
C398 C399 1.367 . S
C399 C398 1.367 . S
C399 C401 1.433 . S
C400 C396 1.350 . S
C400 C397 1.463 1_554 S
C400 N404 1.427 . S
C401 H391 0.929 . S
C401 C399 1.433 . S
C401 N404 1.384 . S
C402 H393 0.929 . S
C402 C394 1.378 . S
C402 C397 1.350 . S
C403 H390 0.929 . S
C403 C395 1.433 . S
C403 N405 1.384 . S
N404 C400 1.427 . S
N404 C401 1.384 . S
N405 C397 1.427 . S
N405 C403 1.384 . S
H406 C412 0.930 . S
H407 C416 0.930 . S
H408 C421 0.929 . S
H409 C419 0.929 . S
H410 C414 0.929 . S
H411 C420 0.929 . S
C412 H406 0.930 . S
C412 C413 1.367 . S
C412 C420 1.378 . S
C413 C412 1.367 . S
C413 C421 1.433 1_545 S
C414 H410 0.929 . S
C414 C416 1.378 . S
C414 C418 1.396 . S
C415 C418 1.457 1_545 S
C415 C420 1.397 . S
C415 N423 1.383 1_545 S
C416 H407 0.930 . S
C416 C414 1.378 . S
C416 C417 1.367 . S
C417 C416 1.367 . S
C417 C419 1.433 1_565 S
C418 C414 1.396 . S
C418 C415 1.457 1_565 S
C418 N422 1.384 1_565 S
C419 H409 0.929 . S
C419 C417 1.433 1_545 S
C419 N422 1.384 . S
C420 H411 0.929 . S
C420 C412 1.378 . S
C420 C415 1.397 . S
C421 H408 0.929 . S
C421 C413 1.433 1_565 S
C421 N423 1.384 . S
N422 C418 1.384 1_545 S
N422 C419 1.384 . S
N423 C415 1.383 1_565 S
N423 C421 1.384 . S
H424 C430 0.930 . S
H425 C434 0.930 . S
H426 C439 0.929 . S
H427 C437 0.929 . S
H428 C432 0.929 . S
H429 C438 0.929 . S
C430 H424 0.930 . S
C430 C431 1.367 . S
C430 C438 1.378 . S
C431 C430 1.367 . S
C431 C439 1.433 . S
C432 H428 0.929 . S
C432 C434 1.378 . S
C432 C436 1.350 . S
C433 C436 1.463 . S
C433 C438 1.350 . S
C433 N441 1.427 . S
C434 H425 0.930 . S
C434 C432 1.378 . S
C434 C435 1.367 . S
C435 C434 1.367 . S
C435 C437 1.433 . S
C436 C432 1.350 . S
C436 C433 1.463 . S
C436 N440 1.427 . S
C437 H427 0.929 . S
C437 C435 1.433 . S
C437 N440 1.384 . S
C438 H429 0.929 . S
C438 C430 1.378 . S
C438 C433 1.350 . S
C439 H426 0.929 . S
C439 C431 1.433 . S
C439 N441 1.384 . S
N440 C436 1.427 . S
N440 C437 1.384 . S
N441 C433 1.427 . S
N441 C439 1.384 . S
H442 C448 0.930 . S
H443 C452 0.930 . S
H444 C457 0.929 . S
H445 C455 0.929 . S
H446 C450 0.929 . S
H447 C456 0.929 . S
C448 H442 0.930 . S
C448 C449 1.367 1_545 S
C448 C456 1.378 . S
C449 C448 1.367 1_565 S
C449 C457 1.433 . S
C450 H446 0.929 . S
C450 C452 1.378 . S
C450 C454 1.347 . S
C451 C454 1.463 1_545 S
C451 C456 1.348 . S
C451 N459 1.430 1_545 S
C452 H443 0.930 . S
C452 C450 1.378 . S
C452 C453 1.367 1_565 S
C453 C452 1.367 1_545 S
C453 C455 1.433 . S
C454 C450 1.347 . S
C454 C451 1.463 1_565 S
C454 N458 1.431 1_565 S
C455 H445 0.929 . S
C455 C453 1.433 . S
C455 N458 1.384 . S
C456 H447 0.929 . S
C456 C448 1.378 . S
C456 C451 1.348 . S
C457 H444 0.929 . S
C457 C449 1.433 . S
C457 N459 1.384 . S
N458 C454 1.431 1_545 S
N458 C455 1.384 . S
N459 C451 1.430 1_565 S
N459 C457 1.384 . S
H460 C466 0.930 . S
H461 C470 0.930 . S
H462 C475 0.929 . S
H463 C473 0.929 . S
H464 C468 0.929 . S
H465 C474 0.929 . S
C466 H460 0.930 . S
C466 C467 1.367 . S
C466 C474 1.378 . S
C467 C466 1.367 . S
C467 C475 1.433 . S
C468 H464 0.929 . S
C468 C470 1.378 . S
C468 C472 1.350 . S
C469 C472 1.463 1_556 S
C469 C474 1.350 . S
C469 N477 1.427 . S
C470 H461 0.930 . S
C470 C468 1.378 . S
C470 C471 1.367 . S
C471 C470 1.367 . S
C471 C473 1.433 . S
C472 C468 1.350 . S
C472 C469 1.463 1_554 S
C472 N476 1.427 . S
C473 H463 0.929 . S
C473 C471 1.433 . S
C473 N476 1.384 . S
C474 H465 0.929 . S
C474 C466 1.378 . S
C474 C469 1.350 . S
C475 H462 0.929 . S
C475 C467 1.433 . S
C475 N477 1.384 . S
N476 C472 1.427 . S
N476 C473 1.384 . S
N477 C469 1.427 . S
N477 C475 1.384 . S
H478 C484 0.930 . S
H479 C488 0.930 . S
H480 C493 0.929 . S
H481 C491 0.929 . S
H482 C486 0.929 . S
H483 C492 0.929 . S
C484 H478 0.930 . S
C484 C485 1.367 1_565 S
C484 C492 1.378 . S
C485 C484 1.367 1_545 S
C485 C493 1.433 . S
C486 H482 0.929 . S
C486 C488 1.378 . S
C486 C490 1.353 . S
C487 C490 1.462 1_565 S
C487 C492 1.354 . S
C487 N495 1.423 1_565 S
C488 H479 0.930 . S
C488 C486 1.378 . S
C488 C489 1.367 1_545 S
C489 C488 1.367 1_565 S
C489 C491 1.433 . S
C490 C486 1.353 . S
C490 C487 1.462 1_545 S
C490 N494 1.424 1_545 S
C491 H481 0.929 . S
C491 C489 1.433 . S
C491 N494 1.384 . S
C492 H483 0.929 . S
C492 C484 1.378 . S
C492 C487 1.354 . S
C493 H480 0.929 . S
C493 C485 1.433 . S
C493 N495 1.384 . S
N494 C490 1.424 1_565 S
N494 C491 1.384 . S
N495 C487 1.423 1_545 S
N495 C493 1.384 . S
H496 C502 0.930 . S
H497 C506 0.930 . S
H498 C511 0.929 . S
H499 C509 0.929 . S
H500 C504 0.929 . S
H501 C510 0.929 . S
C502 H496 0.930 . S
C502 C503 1.367 . S
C502 C510 1.378 . S
C503 C502 1.367 . S
C503 C511 1.433 . S
C504 H500 0.929 . S
C504 C506 1.378 . S
C504 C508 1.350 . S
C505 C508 1.463 1_554 S
C505 C510 1.350 . S
C505 N513 1.427 . S
C506 H497 0.930 . S
C506 C504 1.378 . S
C506 C507 1.367 . S
C507 C506 1.367 . S
C507 C509 1.433 . S
C508 C504 1.350 . S
C508 C505 1.463 1_556 S
C508 N512 1.427 . S
C509 H499 0.929 . S
C509 C507 1.433 . S
C509 N512 1.384 . S
C510 H501 0.929 . S
C510 C502 1.378 . S
C510 C505 1.350 . S
C511 H498 0.929 . S
C511 C503 1.433 . S
C511 N513 1.384 . S
N512 C508 1.427 . S
N512 C509 1.384 . S
N513 C505 1.427 . S
N513 C511 1.384 . S
H514 C520 0.930 . S
H515 C524 0.930 . S
H516 C529 0.929 . S
H517 C527 0.929 . S
H518 C522 0.929 . S
H519 C528 0.929 . S
C520 H514 0.930 . S
C520 C521 1.367 . S
C520 C528 1.378 . S
C521 C520 1.367 . S
C521 C529 1.433 . S
C522 H518 0.929 . S
C522 C524 1.378 . S
C522 C526 1.350 . S
C523 C526 1.463 . S
C523 C528 1.350 . S
C523 N531 1.427 . S
C524 H515 0.930 . S
C524 C522 1.378 . S
C524 C525 1.367 . S
C525 C524 1.367 . S
C525 C527 1.433 . S
C526 C522 1.350 . S
C526 C523 1.463 . S
C526 N530 1.427 . S
C527 H517 0.929 . S
C527 C525 1.433 . S
C527 N530 1.384 . S
C528 H519 0.929 . S
C528 C520 1.378 . S
C528 C523 1.350 . S
C529 H516 0.929 . S
C529 C521 1.433 . S
C529 N531 1.384 . S
N530 C526 1.427 . S
N530 C527 1.384 . S
N531 C523 1.427 . S
N531 C529 1.384 . S
H532 C538 0.930 . S
H533 C542 0.930 . S
H534 C547 0.929 . S
H535 C545 0.929 . S
H536 C540 0.929 . S
H537 C546 0.929 . S
C538 H532 0.930 . S
C538 C539 1.367 . S
C538 C546 1.378 . S
C539 C538 1.367 . S
C539 C547 1.433 . S
C540 H536 0.929 . S
C540 C542 1.378 . S
C540 C544 1.350 . S
C541 C544 1.463 . S
C541 C546 1.350 . S
C541 N549 1.427 . S
C542 H533 0.930 . S
C542 C540 1.378 . S
C542 C543 1.367 . S
C543 C542 1.367 . S
C543 C545 1.433 . S
C544 C540 1.350 . S
C544 C541 1.463 . S
C544 N548 1.427 . S
C545 H535 0.929 . S
C545 C543 1.433 . S
C545 N548 1.384 . S
C546 H537 0.929 . S
C546 C538 1.378 . S
C546 C541 1.350 . S
C547 H534 0.929 . S
C547 C539 1.433 . S
C547 N549 1.384 . S
N548 C544 1.427 . S
N548 C545 1.384 . S
N549 C541 1.427 . S
N549 C547 1.384 . S
H550 C556 0.930 . S
H551 C560 0.930 . S
H552 C565 0.929 . S
H553 C563 0.929 . S
H554 C558 0.929 . S
H555 C564 0.929 . S
C556 H550 0.930 . S
C556 C557 1.367 . S
C556 C564 1.378 . S
C557 C556 1.367 . S
C557 C565 1.433 . S
C558 H554 0.929 . S
C558 C560 1.378 . S
C558 C562 1.350 . S
C559 C562 1.463 . S
C559 C564 1.350 . S
C559 N567 1.427 . S
C560 H551 0.930 . S
C560 C558 1.378 . S
C560 C561 1.367 . S
C561 C560 1.367 . S
C561 C563 1.433 . S
C562 C558 1.350 . S
C562 C559 1.463 . S
C562 N566 1.427 . S
C563 H553 0.929 . S
C563 C561 1.433 . S
C563 N566 1.384 . S
C564 H555 0.929 . S
C564 C556 1.378 . S
C564 C559 1.350 . S
C565 H552 0.929 . S
C565 C557 1.433 . S
C565 N567 1.384 . S
N566 C562 1.427 . S
N566 C563 1.384 . S
N567 C559 1.427 . S
N567 C565 1.384 . S
H568 C574 0.930 . S
H569 C578 0.930 . S
H570 C583 0.929 . S
H571 C581 0.929 . S
H572 C576 0.929 . S
H573 C582 0.929 . S
C574 H568 0.930 . S
C574 C575 1.367 . S
C574 C582 1.378 . S
C575 C574 1.367 . S
C575 C583 1.433 . S
C576 H572 0.929 . S
C576 C578 1.378 . S
C576 C580 1.350 . S
C577 C580 1.463 1_556 S
C577 C582 1.350 . S
C577 N585 1.427 . S
C578 H569 0.930 . S
C578 C576 1.378 . S
C578 C579 1.367 . S
C579 C578 1.367 . S
C579 C581 1.433 . S
C580 C576 1.350 . S
C580 C577 1.463 1_554 S
C580 N584 1.427 . S
C581 H571 0.929 . S
C581 C579 1.433 . S
C581 N584 1.384 . S
C582 H573 0.929 . S
C582 C574 1.378 . S
C582 C577 1.350 . S
C583 H570 0.929 . S
C583 C575 1.433 . S
C583 N585 1.384 . S
N584 C580 1.427 . S
N584 C581 1.384 . S
N585 C577 1.427 . S
N585 C583 1.384 . S
H586 C592 0.930 . S
H587 C596 0.930 . S
H588 C601 0.929 . S
H589 C599 0.929 . S
H590 C594 0.929 . S
H591 C600 0.929 . S
C592 H586 0.930 . S
C592 C593 1.367 . S
C592 C600 1.378 . S
C593 C592 1.367 . S
C593 C601 1.433 . S
C594 H590 0.929 . S
C594 C596 1.378 . S
C594 C598 1.350 . S
C595 C598 1.463 . S
C595 C600 1.350 . S
C595 N603 1.427 . S
C596 H587 0.930 . S
C596 C594 1.378 . S
C596 C597 1.367 . S
C597 C596 1.367 . S
C597 C599 1.433 . S
C598 C594 1.350 . S
C598 C595 1.463 . S
C598 N602 1.427 . S
C599 H589 0.929 . S
C599 C597 1.433 . S
C599 N602 1.384 . S
C600 H591 0.929 . S
C600 C592 1.378 . S
C600 C595 1.350 . S
C601 H588 0.929 . S
C601 C593 1.433 . S
C601 N603 1.384 . S
N602 C598 1.427 . S
N602 C599 1.384 . S
N603 C595 1.427 . S
N603 C601 1.384 . S
H604 C610 0.930 . S
H605 C614 0.930 . S
H606 C619 0.929 . S
H607 C617 0.929 . S
H608 C612 0.929 . S
H609 C618 0.929 . S
C610 H604 0.930 . S
C610 C611 1.367 . S
C610 C618 1.378 . S
C611 C610 1.367 . S
C611 C619 1.433 . S
C612 H608 0.929 . S
C612 C614 1.378 . S
C612 C616 1.350 . S
C613 C616 1.463 . S
C613 C618 1.350 . S
C613 N621 1.427 . S
C614 H605 0.930 . S
C614 C612 1.378 . S
C614 C615 1.367 . S
C615 C614 1.367 . S
C615 C617 1.433 . S
C616 C612 1.350 . S
C616 C613 1.463 . S
C616 N620 1.427 . S
C617 H607 0.929 . S
C617 C615 1.433 . S
C617 N620 1.384 . S
C618 H609 0.929 . S
C618 C610 1.378 . S
C618 C613 1.350 . S
C619 H606 0.929 . S
C619 C611 1.433 . S
C619 N621 1.384 . S
N620 C616 1.427 . S
N620 C617 1.384 . S
N621 C613 1.427 . S
N621 C619 1.384 . S
H622 C628 0.930 . S
H623 C632 0.930 . S
H624 C637 0.929 . S
H625 C635 0.929 . S
H626 C630 0.929 . S
H627 C636 0.929 . S
C628 H622 0.930 . S
C628 C629 1.367 . S
C628 C636 1.378 . S
C629 C628 1.367 . S
C629 C637 1.433 . S
C630 H626 0.929 . S
C630 C632 1.378 . S
C630 C634 1.350 . S
C631 C634 1.463 . S
C631 C636 1.350 . S
C631 N639 1.427 . S
C632 H623 0.930 . S
C632 C630 1.378 . S
C632 C633 1.367 . S
C633 C632 1.367 . S
C633 C635 1.433 . S
C634 C630 1.350 . S
C634 C631 1.463 . S
C634 N638 1.427 . S
C635 H625 0.929 . S
C635 C633 1.433 . S
C635 N638 1.384 . S
C636 H627 0.929 . S
C636 C628 1.378 . S
C636 C631 1.350 . S
C637 H624 0.929 . S
C637 C629 1.433 . S
C637 N639 1.384 . S
N638 C634 1.427 . S
N638 C635 1.384 . S
N639 C631 1.427 . S
N639 C637 1.384 . S
H640 C646 0.930 . S
H641 C650 0.930 . S
H642 C655 0.929 . S
H643 C653 0.929 . S
H644 C648 0.929 . S
H645 C654 0.929 . S
C646 H640 0.930 . S
C646 C647 1.367 . S
C646 C654 1.378 . S
C647 C646 1.367 . S
C647 C655 1.433 . S
C648 H644 0.929 . S
C648 C650 1.378 . S
C648 C652 1.350 . S
C649 C652 1.463 . S
C649 C654 1.350 . S
C649 N657 1.427 . S
C650 H641 0.930 . S
C650 C648 1.378 . S
C650 C651 1.367 . S
C651 C650 1.367 . S
C651 C653 1.433 . S
C652 C648 1.350 . S
C652 C649 1.463 . S
C652 N656 1.427 . S
C653 H643 0.929 . S
C653 C651 1.433 . S
C653 N656 1.384 . S
C654 H645 0.929 . S
C654 C646 1.378 . S
C654 C649 1.350 . S
C655 H642 0.929 . S
C655 C647 1.433 . S
C655 N657 1.384 . S
N656 C652 1.427 . S
N656 C653 1.384 . S
N657 C649 1.427 . S
N657 C655 1.384 . S
H658 C664 0.930 . S
H659 C668 0.930 . S
H660 C673 0.929 . S
H661 C671 0.929 . S
H662 C666 0.929 . S
H663 C672 0.929 . S
C664 H658 0.930 . S
C664 C665 1.367 . S
C664 C672 1.378 . S
C665 C664 1.367 . S
C665 C673 1.433 . S
C666 H662 0.929 . S
C666 C668 1.378 . S
C666 C670 1.350 . S
C667 C670 1.463 . S
C667 C672 1.350 . S
C667 N675 1.427 . S
C668 H659 0.930 . S
C668 C666 1.378 . S
C668 C669 1.367 . S
C669 C668 1.367 . S
C669 C671 1.433 . S
C670 C666 1.350 . S
C670 C667 1.463 . S
C670 N674 1.427 . S
C671 H661 0.929 . S
C671 C669 1.433 . S
C671 N674 1.384 . S
C672 H663 0.929 . S
C672 C664 1.378 . S
C672 C667 1.350 . S
C673 H660 0.929 . S
C673 C665 1.433 . S
C673 N675 1.384 . S
N674 C670 1.427 . S
N674 C671 1.384 . S
N675 C667 1.427 . S
N675 C673 1.384 . S
H676 C682 0.930 . S
H677 C686 0.930 . S
H678 C691 0.929 . S
H679 C689 0.929 . S
H680 C684 0.929 . S
H681 C690 0.929 . S
C682 H676 0.930 . S
C682 C683 1.367 . S
C682 C690 1.378 . S
C683 C682 1.367 . S
C683 C691 1.433 . S
C684 H680 0.929 . S
C684 C686 1.378 . S
C684 C688 1.350 . S
C685 C688 1.463 . S
C685 C690 1.350 . S
C685 N693 1.427 . S
C686 H677 0.930 . S
C686 C684 1.378 . S
C686 C687 1.367 . S
C687 C686 1.367 . S
C687 C689 1.433 . S
C688 C684 1.350 . S
C688 C685 1.463 . S
C688 N692 1.427 . S
C689 H679 0.929 . S
C689 C687 1.433 . S
C689 N692 1.384 . S
C690 H681 0.929 . S
C690 C682 1.378 . S
C690 C685 1.350 . S
C691 H678 0.929 . S
C691 C683 1.433 . S
C691 N693 1.384 . S
N692 C688 1.427 . S
N692 C689 1.384 . S
N693 C685 1.427 . S
N693 C691 1.384 . S
H694 C700 0.930 . S
H695 C704 0.930 . S
H696 C709 0.929 . S
H697 C707 0.929 . S
H698 C702 0.929 . S
H699 C708 0.929 . S
C700 H694 0.930 . S
C700 C701 1.367 . S
C700 C708 1.378 . S
C701 C700 1.367 . S
C701 C709 1.433 . S
C702 H698 0.929 . S
C702 C704 1.378 . S
C702 C706 1.350 . S
C703 C706 1.463 . S
C703 C708 1.350 . S
C703 N711 1.427 . S
C704 H695 0.930 . S
C704 C702 1.378 . S
C704 C705 1.367 . S
C705 C704 1.367 . S
C705 C707 1.433 . S
C706 C702 1.350 . S
C706 C703 1.463 . S
C706 N710 1.427 . S
C707 H697 0.929 . S
C707 C705 1.433 . S
C707 N710 1.384 . S
C708 H699 0.929 . S
C708 C700 1.378 . S
C708 C703 1.350 . S
C709 H696 0.929 . S
C709 C701 1.433 . S
C709 N711 1.384 . S
N710 C706 1.427 . S
N710 C707 1.384 . S
N711 C703 1.427 . S
N711 C709 1.384 . S
H712 C718 0.930 . S
H713 C722 0.930 . S
H714 C727 0.929 . S
H715 C725 0.929 . S
H716 C720 0.929 . S
H717 C726 0.929 . S
C718 H712 0.930 . S
C718 C719 1.367 . S
C718 C726 1.378 . S
C719 C718 1.367 . S
C719 C727 1.433 . S
C720 H716 0.929 . S
C720 C722 1.378 . S
C720 C724 1.350 . S
C721 C724 1.463 . S
C721 C726 1.350 . S
C721 N729 1.427 . S
C722 H713 0.930 . S
C722 C720 1.378 . S
C722 C723 1.367 . S
C723 C722 1.367 . S
C723 C725 1.433 . S
C724 C720 1.350 . S
C724 C721 1.463 . S
C724 N728 1.427 . S
C725 H715 0.929 . S
C725 C723 1.433 . S
C725 N728 1.384 . S
C726 H717 0.929 . S
C726 C718 1.378 . S
C726 C721 1.350 . S
C727 H714 0.929 . S
C727 C719 1.433 . S
C727 N729 1.384 . S
N728 C724 1.427 . S
N728 C725 1.384 . S
N729 C721 1.427 . S
N729 C727 1.384 . S
H730 C736 0.930 . S
H731 C740 0.930 . S
H732 C745 0.929 . S
H733 C743 0.929 . S
H734 C738 0.929 . S
H735 C744 0.929 . S
C736 H730 0.930 . S
C736 C737 1.367 . S
C736 C744 1.378 . S
C737 C736 1.367 . S
C737 C745 1.433 . S
C738 H734 0.929 . S
C738 C740 1.378 . S
C738 C742 1.350 . S
C739 C742 1.463 . S
C739 C744 1.350 . S
C739 N747 1.427 . S
C740 H731 0.930 . S
C740 C738 1.378 . S
C740 C741 1.367 . S
C741 C740 1.367 . S
C741 C743 1.433 . S
C742 C738 1.350 . S
C742 C739 1.463 . S
C742 N746 1.427 . S
C743 H733 0.929 . S
C743 C741 1.433 . S
C743 N746 1.384 . S
C744 H735 0.929 . S
C744 C736 1.378 . S
C744 C739 1.350 . S
C745 H732 0.929 . S
C745 C737 1.433 . S
C745 N747 1.384 . S
N746 C742 1.427 . S
N746 C743 1.384 . S
N747 C739 1.427 . S
N747 C745 1.384 . S
H748 C754 0.930 . S
H749 C758 0.930 . S
H750 C763 0.929 . S
H751 C761 0.929 . S
H752 C756 0.929 . S
H753 C762 0.929 . S
C754 H748 0.930 . S
C754 C755 1.367 . S
C754 C762 1.378 . S
C755 C754 1.367 . S
C755 C763 1.433 . S
C756 H752 0.929 . S
C756 C758 1.378 . S
C756 C760 1.350 . S
C757 C760 1.463 . S
C757 C762 1.350 . S
C757 N765 1.427 . S
C758 H749 0.930 . S
C758 C756 1.378 . S
C758 C759 1.367 . S
C759 C758 1.367 . S
C759 C761 1.433 . S
C760 C756 1.350 . S
C760 C757 1.463 . S
C760 N764 1.427 . S
C761 H751 0.929 . S
C761 C759 1.433 . S
C761 N764 1.384 . S
C762 H753 0.929 . S
C762 C754 1.378 . S
C762 C757 1.350 . S
C763 H750 0.929 . S
C763 C755 1.433 . S
C763 N765 1.384 . S
N764 C760 1.427 . S
N764 C761 1.384 . S
N765 C757 1.427 . S
N765 C763 1.384 . S
H766 C772 0.930 . S
H767 C776 0.930 . S
H768 C781 0.929 . S
H769 C779 0.929 . S
H770 C774 0.929 . S
H771 C780 0.929 . S
C772 H766 0.930 . S
C772 C773 1.367 . S
C772 C780 1.378 . S
C773 C772 1.367 . S
C773 C781 1.433 . S
C774 H770 0.929 . S
C774 C776 1.378 . S
C774 C778 1.350 . S
C775 C778 1.463 . S
C775 C780 1.350 . S
C775 N783 1.427 . S
C776 H767 0.930 . S
C776 C774 1.378 . S
C776 C777 1.367 . S
C777 C776 1.367 . S
C777 C779 1.433 . S
C778 C774 1.350 . S
C778 C775 1.463 . S
C778 N782 1.427 . S
C779 H769 0.929 . S
C779 C777 1.433 . S
C779 N782 1.384 . S
C780 H771 0.929 . S
C780 C772 1.378 . S
C780 C775 1.350 . S
C781 H768 0.929 . S
C781 C773 1.433 . S
C781 N783 1.384 . S
N782 C778 1.427 . S
N782 C779 1.384 . S
N783 C775 1.427 . S
N783 C781 1.384 . S
H784 C790 0.930 . S
H785 C794 0.930 . S
H786 C799 0.929 . S
H787 C797 0.929 . S
H788 C792 0.929 . S
H789 C798 0.929 . S
C790 H784 0.930 . S
C790 C791 1.367 . S
C790 C798 1.378 . S
C791 C790 1.367 . S
C791 C799 1.433 . S
C792 H788 0.929 . S
C792 C794 1.378 . S
C792 C796 1.350 . S
C793 C796 1.463 . S
C793 C798 1.350 . S
C793 N801 1.427 . S
C794 H785 0.930 . S
C794 C792 1.378 . S
C794 C795 1.367 . S
C795 C794 1.367 . S
C795 C797 1.433 . S
C796 C792 1.350 . S
C796 C793 1.463 . S
C796 N800 1.427 . S
C797 H787 0.929 . S
C797 C795 1.433 . S
C797 N800 1.384 . S
C798 H789 0.929 . S
C798 C790 1.378 . S
C798 C793 1.350 . S
C799 H786 0.929 . S
C799 C791 1.433 . S
C799 N801 1.384 . S
N800 C796 1.427 . S
N800 C797 1.384 . S
N801 C793 1.427 . S
N801 C799 1.384 . S
H802 C808 0.930 . S
H803 C812 0.930 . S
H804 C817 0.929 . S
H805 C815 0.929 . S
H806 C810 0.929 . S
H807 C816 0.929 . S
C808 H802 0.930 . S
C808 C809 1.367 . S
C808 C816 1.378 . S
C809 C808 1.367 . S
C809 C817 1.433 . S
C810 H806 0.929 . S
C810 C812 1.378 . S
C810 C814 1.350 . S
C811 C814 1.463 . S
C811 C816 1.350 . S
C811 N819 1.427 . S
C812 H803 0.930 . S
C812 C810 1.378 . S
C812 C813 1.367 . S
C813 C812 1.367 . S
C813 C815 1.433 . S
C814 C810 1.350 . S
C814 C811 1.463 . S
C814 N818 1.427 . S
C815 H805 0.929 . S
C815 C813 1.433 . S
C815 N818 1.384 . S
C816 H807 0.929 . S
C816 C808 1.378 . S
C816 C811 1.350 . S
C817 H804 0.929 . S
C817 C809 1.433 . S
C817 N819 1.384 . S
N818 C814 1.427 . S
N818 C815 1.384 . S
N819 C811 1.427 . S
N819 C817 1.384 . S
H820 C826 0.930 . S
H821 C830 0.930 . S
H822 C835 0.929 . S
H823 C833 0.929 . S
H824 C828 0.929 . S
H825 C834 0.929 . S
C826 H820 0.930 . S
C826 C827 1.367 . S
C826 C834 1.378 . S
C827 C826 1.367 . S
C827 C835 1.433 . S
C828 H824 0.929 . S
C828 C830 1.378 . S
C828 C832 1.350 . S
C829 C832 1.463 . S
C829 C834 1.350 . S
C829 N837 1.427 . S
C830 H821 0.930 . S
C830 C828 1.378 . S
C830 C831 1.367 . S
C831 C830 1.367 . S
C831 C833 1.433 . S
C832 C828 1.350 . S
C832 C829 1.463 . S
C832 N836 1.427 . S
C833 H823 0.929 . S
C833 C831 1.433 . S
C833 N836 1.384 . S
C834 H825 0.929 . S
C834 C826 1.378 . S
C834 C829 1.350 . S
C835 H822 0.929 . S
C835 C827 1.433 . S
C835 N837 1.384 . S
N836 C832 1.427 . S
N836 C833 1.384 . S
N837 C829 1.427 . S
N837 C835 1.384 . S
H838 C844 0.930 . S
H839 C848 0.930 . S
H840 C853 0.929 . S
H841 C851 0.929 . S
H842 C846 0.929 . S
H843 C852 0.929 . S
C844 H838 0.930 . S
C844 C845 1.367 . S
C844 C852 1.378 . S
C845 C844 1.367 . S
C845 C853 1.433 . S
C846 H842 0.929 . S
C846 C848 1.378 . S
C846 C850 1.350 . S
C847 C850 1.463 . S
C847 C852 1.350 . S
C847 N855 1.427 . S
C848 H839 0.930 . S
C848 C846 1.378 . S
C848 C849 1.367 . S
C849 C848 1.367 . S
C849 C851 1.433 . S
C850 C846 1.350 . S
C850 C847 1.463 . S
C850 N854 1.427 . S
C851 H841 0.929 . S
C851 C849 1.433 . S
C851 N854 1.384 . S
C852 H843 0.929 . S
C852 C844 1.378 . S
C852 C847 1.350 . S
C853 H840 0.929 . S
C853 C845 1.433 . S
C853 N855 1.384 . S
N854 C850 1.427 . S
N854 C851 1.384 . S
N855 C847 1.427 . S
N855 C853 1.384 . S
H856 C862 0.930 . S
H857 C866 0.930 . S
H858 C871 0.929 . S
H859 C869 0.929 . S
H860 C864 0.929 . S
H861 C870 0.929 . S
C862 H856 0.930 . S
C862 C863 1.367 . S
C862 C870 1.378 . S
C863 C862 1.367 . S
C863 C871 1.433 . S
C864 H860 0.929 . S
C864 C866 1.378 . S
C864 C868 1.350 . S
C865 C868 1.463 . S
C865 C870 1.350 . S
C865 N873 1.427 . S
C866 H857 0.930 . S
C866 C864 1.378 . S
C866 C867 1.367 . S
C867 C866 1.367 . S
C867 C869 1.433 . S
C868 C864 1.350 . S
C868 C865 1.463 . S
C868 N872 1.427 . S
C869 H859 0.929 . S
C869 C867 1.433 . S
C869 N872 1.384 . S
C870 H861 0.929 . S
C870 C862 1.378 . S
C870 C865 1.350 . S
C871 H858 0.929 . S
C871 C863 1.433 . S
C871 N873 1.384 . S
N872 C868 1.427 . S
N872 C869 1.384 . S
N873 C865 1.427 . S
N873 C871 1.384 . S
H874 C880 0.930 . S
H875 C884 0.930 . S
H876 C889 0.929 . S
H877 C887 0.929 . S
H878 C882 0.929 . S
H879 C888 0.929 . S
C880 H874 0.930 . S
C880 C881 1.367 . S
C880 C888 1.378 . S
C881 C880 1.367 . S
C881 C889 1.433 . S
C882 H878 0.929 . S
C882 C884 1.378 . S
C882 C886 1.350 . S
C883 C886 1.463 . S
C883 C888 1.350 . S
C883 N891 1.427 . S
C884 H875 0.930 . S
C884 C882 1.378 . S
C884 C885 1.367 . S
C885 C884 1.367 . S
C885 C887 1.433 . S
C886 C882 1.350 . S
C886 C883 1.463 . S
C886 N890 1.427 . S
C887 H877 0.929 . S
C887 C885 1.433 . S
C887 N890 1.384 . S
C888 H879 0.929 . S
C888 C880 1.378 . S
C888 C883 1.350 . S
C889 H876 0.929 . S
C889 C881 1.433 . S
C889 N891 1.384 . S
N890 C886 1.427 . S
N890 C887 1.384 . S
N891 C883 1.427 . S
N891 C889 1.384 . S
H892 C898 0.930 . S
H893 C902 0.930 . S
H894 C907 0.929 . S
H895 C905 0.929 . S
H896 C900 0.929 . S
H897 C906 0.929 . S
C898 H892 0.930 . S
C898 C899 1.367 . S
C898 C906 1.378 . S
C899 C898 1.367 . S
C899 C907 1.433 . S
C900 H896 0.929 . S
C900 C902 1.378 . S
C900 C904 1.350 . S
C901 C904 1.463 . S
C901 C906 1.350 . S
C901 N909 1.427 . S
C902 H893 0.930 . S
C902 C900 1.378 . S
C902 C903 1.367 . S
C903 C902 1.367 . S
C903 C905 1.433 . S
C904 C900 1.350 . S
C904 C901 1.463 . S
C904 N908 1.427 . S
C905 H895 0.929 . S
C905 C903 1.433 . S
C905 N908 1.384 . S
C906 H897 0.929 . S
C906 C898 1.378 . S
C906 C901 1.350 . S
C907 H894 0.929 . S
C907 C899 1.433 . S
C907 N909 1.384 . S
N908 C904 1.427 . S
N908 C905 1.384 . S
N909 C901 1.427 . S
N909 C907 1.384 . S
H910 C916 0.930 . S
H911 C920 0.930 . S
H912 C925 0.929 . S
H913 C923 0.929 . S
H914 C918 0.929 . S
H915 C924 0.929 . S
C916 H910 0.930 . S
C916 C917 1.367 . S
C916 C924 1.378 . S
C917 C916 1.367 . S
C917 C925 1.433 . S
C918 H914 0.929 . S
C918 C920 1.378 . S
C918 C922 1.350 . S
C919 C922 1.463 . S
C919 C924 1.350 . S
C919 N927 1.427 . S
C920 H911 0.930 . S
C920 C918 1.378 . S
C920 C921 1.367 . S
C921 C920 1.367 . S
C921 C923 1.433 . S
C922 C918 1.350 . S
C922 C919 1.463 . S
C922 N926 1.427 . S
C923 H913 0.929 . S
C923 C921 1.433 . S
C923 N926 1.384 . S
C924 H915 0.929 . S
C924 C916 1.378 . S
C924 C919 1.350 . S
C925 H912 0.929 . S
C925 C917 1.433 . S
C925 N927 1.384 . S
N926 C922 1.427 . S
N926 C923 1.384 . S
N927 C919 1.427 . S
N927 C925 1.384 . S
H928 C934 0.930 . S
H929 C938 0.930 . S
H930 C943 0.929 . S
H931 C941 0.929 . S
H932 C936 0.929 . S
H933 C942 0.929 . S
C934 H928 0.930 . S
C934 C935 1.367 . S
C934 C942 1.378 . S
C935 C934 1.367 . S
C935 C943 1.433 . S
C936 H932 0.929 . S
C936 C938 1.378 . S
C936 C940 1.350 . S
C937 C940 1.463 . S
C937 C942 1.350 . S
C937 N945 1.427 . S
C938 H929 0.930 . S
C938 C936 1.378 . S
C938 C939 1.367 . S
C939 C938 1.367 . S
C939 C941 1.433 . S
C940 C936 1.350 . S
C940 C937 1.463 . S
C940 N944 1.427 . S
C941 H931 0.929 . S
C941 C939 1.433 . S
C941 N944 1.384 . S
C942 H933 0.929 . S
C942 C934 1.378 . S
C942 C937 1.350 . S
C943 H930 0.929 . S
C943 C935 1.433 . S
C943 N945 1.384 . S
N944 C940 1.427 . S
N944 C941 1.384 . S
N945 C937 1.427 . S
N945 C943 1.384 . S
H946 C952 0.930 . S
H947 C956 0.930 . S
H948 C961 0.929 . S
H949 C959 0.929 . S
H950 C954 0.929 . S
H951 C960 0.929 . S
C952 H946 0.930 . S
C952 C953 1.362 1_565 S
C952 C960 1.378 . S
C953 C952 1.362 1_545 S
C953 C961 1.439 . S
C954 H950 0.929 . S
C954 C956 1.378 . S
C954 C958 1.355 . S
C955 C958 1.462 1_465 S
C955 C960 1.355 . S
C955 N963 1.422 1_565 S
C956 H947 0.930 . S
C956 C954 1.378 . S
C956 C957 1.362 1_545 S
C957 C956 1.362 1_565 S
C957 C959 1.439 . S
C958 C954 1.355 . S
C958 C955 1.462 1_645 S
C958 N962 1.422 1_545 S
C959 H949 0.929 . S
C959 C957 1.439 . S
C959 N962 1.384 . S
C960 H951 0.929 . S
C960 C952 1.378 . S
C960 C955 1.355 . S
C961 H948 0.929 . S
C961 C953 1.439 . S
C961 N963 1.384 . S
N962 C958 1.422 1_565 S
N962 C959 1.384 . S
N963 C955 1.422 1_545 S
N963 C961 1.384 . S
H964 C970 0.930 . S
H965 C974 0.930 . S
H966 C979 0.929 . S
H967 C977 0.929 . S
H968 C972 0.929 . S
H969 C978 0.929 . S
C970 H964 0.930 . S
C970 C971 1.367 . S
C970 C978 1.378 . S
C971 C970 1.367 . S
C971 C979 1.433 . S
C972 H968 0.929 . S
C972 C974 1.378 . S
C972 C976 1.350 . S
C973 C976 1.463 . S
C973 C978 1.350 . S
C973 N981 1.427 . S
C974 H965 0.930 . S
C974 C972 1.378 . S
C974 C975 1.367 . S
C975 C974 1.367 . S
C975 C977 1.433 . S
C976 C972 1.350 . S
C976 C973 1.463 . S
C976 N980 1.427 . S
C977 H967 0.929 . S
C977 C975 1.433 . S
C977 N980 1.384 . S
C978 H969 0.929 . S
C978 C970 1.378 . S
C978 C973 1.350 . S
C979 H966 0.929 . S
C979 C971 1.433 . S
C979 N981 1.384 . S
N980 C976 1.427 . S
N980 C977 1.384 . S
N981 C973 1.427 . S
N981 C979 1.384 . S
H982 C988 0.930 . S
H983 C992 0.930 . S
H984 C997 0.929 . S
H985 C995 0.929 . S
H986 C990 0.929 . S
H987 C996 0.929 . S
C988 H982 0.930 . S
C988 C989 1.413 1_554 S
C988 C996 1.378 . S
C989 C988 1.413 1_556 S
C989 C997 1.387 1_565 S
C990 H986 0.929 . S
C990 C992 1.378 . S
C990 C994 1.380 1_556 S
C991 C994 1.459 1_566 S
C991 C996 1.380 1_556 S
C991 N999 1.399 1_565 S
C992 H983 0.930 . S
C992 C990 1.378 . S
C992 C993 1.413 1_556 S
C993 C992 1.413 1_554 S
C993 C995 1.387 1_545 S
C994 C990 1.380 1_554 S
C994 C991 1.459 1_544 S
C994 N998 1.399 1_545 S
C995 H985 0.929 . S
C995 C993 1.387 1_565 S
C995 N998 1.384 . S
C996 H987 0.929 . S
C996 C988 1.378 . S
C996 C991 1.380 1_554 S
C997 H984 0.929 . S
C997 C989 1.387 1_545 S
C997 N999 1.384 . S
N998 C994 1.399 1_565 S
N998 C995 1.384 . S
N999 C991 1.399 1_545 S
N999 C997 1.384 . S
H1000 C1006 0.930 . S
H1001 C1010 0.930 . S
H1002 C1015 0.929 . S
H1003 C1013 0.929 . S
H1004 C1008 0.929 . S
H1005 C1014 0.929 . S
C1006 H1000 0.930 . S
C1006 C1007 1.367 . S
C1006 C1014 1.378 . S
C1007 C1006 1.367 . S
C1007 C1015 1.433 . S
C1008 H1004 0.929 . S
C1008 C1010 1.378 . S
C1008 C1012 1.350 . S
C1009 C1012 1.463 . S
C1009 C1014 1.350 . S
C1009 N1017 1.427 . S
C1010 H1001 0.930 . S
C1010 C1008 1.378 . S
C1010 C1011 1.367 . S
C1011 C1010 1.367 . S
C1011 C1013 1.433 . S
C1012 C1008 1.350 . S
C1012 C1009 1.463 . S
C1012 N1016 1.427 . S
C1013 H1003 0.929 . S
C1013 C1011 1.433 . S
C1013 N1016 1.384 . S
C1014 H1005 0.929 . S
C1014 C1006 1.378 . S
C1014 C1009 1.350 . S
C1015 H1002 0.929 . S
C1015 C1007 1.433 . S
C1015 N1017 1.384 . S
N1016 C1012 1.427 . S
N1016 C1013 1.384 . S
N1017 C1009 1.427 . S
N1017 C1015 1.384 . S
H1018 C1024 0.930 . S
H1019 C1028 0.930 . S
H1020 C1033 0.929 . S
H1021 C1031 0.929 . S
H1022 C1026 0.929 . S
H1023 C1032 0.929 . S
C1024 H1018 0.930 . S
C1024 C1025 1.363 1_565 S
C1024 C1032 1.378 . S
C1025 C1024 1.363 1_545 S
C1025 C1033 1.437 . S
C1026 H1022 0.929 . S
C1026 C1028 1.378 . S
C1026 C1030 1.359 . S
C1027 C1030 1.462 1_565 S
C1027 C1032 1.359 . S
C1027 N1035 1.418 1_565 S
C1028 H1019 0.930 . S
C1028 C1026 1.378 . S
C1028 C1029 1.363 1_545 S
C1029 C1028 1.363 1_565 S
C1029 C1031 1.437 . S
C1030 C1026 1.359 . S
C1030 C1027 1.462 1_545 S
C1030 N1034 1.418 1_545 S
C1031 H1021 0.929 . S
C1031 C1029 1.437 . S
C1031 N1034 1.384 . S
C1032 H1023 0.929 . S
C1032 C1024 1.378 . S
C1032 C1027 1.359 . S
C1033 H1020 0.929 . S
C1033 C1025 1.437 . S
C1033 N1035 1.384 . S
N1034 C1030 1.418 1_565 S
N1034 C1031 1.384 . S
N1035 C1027 1.418 1_545 S
N1035 C1033 1.384 . S
H1036 C1042 0.930 . S
H1037 C1046 0.930 . S
H1038 C1051 0.929 . S
H1039 C1049 0.929 . S
H1040 C1044 0.929 . S
H1041 C1050 0.929 . S
C1042 H1036 0.930 . S
C1042 C1043 1.367 . S
C1042 C1050 1.378 . S
C1043 C1042 1.367 . S
C1043 C1051 1.433 . S
C1044 H1040 0.929 . S
C1044 C1046 1.378 . S
C1044 C1048 1.350 . S
C1045 C1048 1.463 . S
C1045 C1050 1.350 . S
C1045 N1053 1.427 . S
C1046 H1037 0.930 . S
C1046 C1044 1.378 . S
C1046 C1047 1.367 . S
C1047 C1046 1.367 . S
C1047 C1049 1.433 . S
C1048 C1044 1.350 . S
C1048 C1045 1.463 . S
C1048 N1052 1.427 . S
C1049 H1039 0.929 . S
C1049 C1047 1.433 . S
C1049 N1052 1.384 . S
C1050 H1041 0.929 . S
C1050 C1042 1.378 . S
C1050 C1045 1.350 . S
C1051 H1038 0.929 . S
C1051 C1043 1.433 . S
C1051 N1053 1.384 . S
N1052 C1048 1.427 . S
N1052 C1049 1.384 . S
N1053 C1045 1.427 . S
N1053 C1051 1.384 . S
H1054 C1060 0.930 . S
H1055 C1064 0.930 . S
H1056 C1069 0.929 . S
H1057 C1067 0.929 . S
H1058 C1062 0.929 . S
H1059 C1068 0.929 . S
C1060 H1054 0.930 . S
C1060 C1061 1.405 1_556 S
C1060 C1068 1.378 . S
C1061 C1060 1.405 1_554 S
C1061 C1069 1.395 1_565 S
C1062 H1058 0.929 . S
C1062 C1064 1.378 . S
C1062 C1066 1.371 1_554 S
C1063 C1066 1.460 1_464 S
C1063 C1068 1.371 1_554 S
C1063 N1071 1.407 1_565 S
C1064 H1055 0.930 . S
C1064 C1062 1.378 . S
C1064 C1065 1.405 1_554 S
C1065 C1064 1.405 1_556 S
C1065 C1067 1.395 1_545 S
C1066 C1062 1.371 1_556 S
C1066 C1063 1.460 1_646 S
C1066 N1070 1.407 1_545 S
C1067 H1057 0.929 . S
C1067 C1065 1.395 1_565 S
C1067 N1070 1.384 . S
C1068 H1059 0.929 . S
C1068 C1060 1.378 . S
C1068 C1063 1.371 1_556 S
C1069 H1056 0.929 . S
C1069 C1061 1.395 1_545 S
C1069 N1071 1.384 . S
N1070 C1066 1.407 1_565 S
N1070 C1067 1.384 . S
N1071 C1063 1.407 1_545 S
N1071 C1069 1.384 . S
H1072 C1078 0.930 . S
H1073 C1082 0.930 . S
H1074 C1087 0.929 . S
H1075 C1085 0.929 . S
H1076 C1080 0.929 . S
H1077 C1086 0.929 . S
C1078 H1072 0.930 . S
C1078 C1079 1.367 . S
C1078 C1086 1.378 . S
C1079 C1078 1.367 . S
C1079 C1087 1.433 . S
C1080 H1076 0.929 . S
C1080 C1082 1.378 . S
C1080 C1084 1.350 . S
C1081 C1084 1.463 . S
C1081 C1086 1.350 . S
C1081 N1089 1.427 . S
C1082 H1073 0.930 . S
C1082 C1080 1.378 . S
C1082 C1083 1.367 . S
C1083 C1082 1.367 . S
C1083 C1085 1.433 . S
C1084 C1080 1.350 . S
C1084 C1081 1.463 . S
C1084 N1088 1.427 . S
C1085 H1075 0.929 . S
C1085 C1083 1.433 . S
C1085 N1088 1.384 . S
C1086 H1077 0.929 . S
C1086 C1078 1.378 . S
C1086 C1081 1.350 . S
C1087 H1074 0.929 . S
C1087 C1079 1.433 . S
C1087 N1089 1.384 . S
N1088 C1084 1.427 . S
N1088 C1085 1.384 . S
N1089 C1081 1.427 . S
N1089 C1087 1.384 . S
H1090 C1096 0.930 . S
H1091 C1100 0.930 . S
H1092 C1105 0.929 . S
H1093 C1103 0.929 . S
H1094 C1098 0.929 . S
H1095 C1104 0.929 . S
C1096 H1090 0.930 . S
C1096 C1097 1.367 . S
C1096 C1104 1.378 . S
C1097 C1096 1.367 . S
C1097 C1105 1.433 . S
C1098 H1094 0.929 . S
C1098 C1100 1.378 . S
C1098 C1102 1.350 . S
C1099 C1102 1.463 . S
C1099 C1104 1.350 . S
C1099 N1107 1.427 . S
C1100 H1091 0.930 . S
C1100 C1098 1.378 . S
C1100 C1101 1.367 . S
C1101 C1100 1.367 . S
C1101 C1103 1.433 . S
C1102 C1098 1.350 . S
C1102 C1099 1.463 . S
C1102 N1106 1.427 . S
C1103 H1093 0.929 . S
C1103 C1101 1.433 . S
C1103 N1106 1.384 . S
C1104 H1095 0.929 . S
C1104 C1096 1.378 . S
C1104 C1099 1.350 . S
C1105 H1092 0.929 . S
C1105 C1097 1.433 . S
C1105 N1107 1.384 . S
N1106 C1102 1.427 . S
N1106 C1103 1.384 . S
N1107 C1099 1.427 . S
N1107 C1105 1.384 . S
H1108 C1114 0.930 . S
H1109 C1118 0.930 . S
H1110 C1123 0.929 . S
H1111 C1121 0.929 . S
H1112 C1116 0.929 . S
H1113 C1122 0.929 . S
C1114 H1108 0.930 . S
C1114 C1115 1.367 . S
C1114 C1122 1.378 . S
C1115 C1114 1.367 . S
C1115 C1123 1.433 . S
C1116 H1112 0.929 . S
C1116 C1118 1.378 . S
C1116 C1120 1.350 . S
C1117 C1120 1.463 . S
C1117 C1122 1.350 . S
C1117 N1125 1.427 . S
C1118 H1109 0.930 . S
C1118 C1116 1.378 . S
C1118 C1119 1.367 . S
C1119 C1118 1.367 . S
C1119 C1121 1.433 . S
C1120 C1116 1.350 . S
C1120 C1117 1.463 . S
C1120 N1124 1.427 . S
C1121 H1111 0.929 . S
C1121 C1119 1.433 . S
C1121 N1124 1.384 . S
C1122 H1113 0.929 . S
C1122 C1114 1.378 . S
C1122 C1117 1.350 . S
C1123 H1110 0.929 . S
C1123 C1115 1.433 . S
C1123 N1125 1.384 . S
N1124 C1120 1.427 . S
N1124 C1121 1.384 . S
N1125 C1117 1.427 . S
N1125 C1123 1.384 . S
H1126 C1132 0.930 . S
H1127 C1136 0.930 . S
H1128 C1141 0.929 . S
H1129 C1139 0.929 . S
H1130 C1134 0.929 . S
H1131 C1140 0.929 . S
C1132 H1126 0.930 . S
C1132 C1133 1.367 . S
C1132 C1140 1.378 . S
C1133 C1132 1.367 . S
C1133 C1141 1.433 . S
C1134 H1130 0.929 . S
C1134 C1136 1.378 . S
C1134 C1138 1.350 . S
C1135 C1138 1.463 . S
C1135 C1140 1.350 . S
C1135 N1143 1.427 . S
C1136 H1127 0.930 . S
C1136 C1134 1.378 . S
C1136 C1137 1.367 . S
C1137 C1136 1.367 . S
C1137 C1139 1.433 . S
C1138 C1134 1.350 . S
C1138 C1135 1.463 . S
C1138 N1142 1.427 . S
C1139 H1129 0.929 . S
C1139 C1137 1.433 . S
C1139 N1142 1.384 . S
C1140 H1131 0.929 . S
C1140 C1132 1.378 . S
C1140 C1135 1.350 . S
C1141 H1128 0.929 . S
C1141 C1133 1.433 . S
C1141 N1143 1.384 . S
N1142 C1138 1.427 . S
N1142 C1139 1.384 . S
N1143 C1135 1.427 . S
N1143 C1141 1.384 . S
H1144 C1150 0.930 . S
H1145 C1154 0.930 . S
H1146 C1159 0.929 . S
H1147 C1157 0.929 . S
H1148 C1152 0.929 . S
H1149 C1158 0.929 . S
C1150 H1144 0.930 . S
C1150 C1151 1.367 1_554 S
C1150 C1158 1.378 . S
C1151 C1150 1.367 1_556 S
C1151 C1159 1.433 . S
C1152 H1148 0.929 . S
C1152 C1154 1.378 . S
C1152 C1156 1.352 1_556 S
C1153 C1156 1.463 1_556 S
C1153 C1158 1.352 1_556 S
C1153 N1161 1.426 . S
C1154 H1145 0.930 . S
C1154 C1152 1.378 . S
C1154 C1155 1.367 1_556 S
C1155 C1154 1.367 1_554 S
C1155 C1157 1.433 . S
C1156 C1152 1.352 1_554 S
C1156 C1153 1.463 1_554 S
C1156 N1160 1.426 . S
C1157 H1147 0.929 . S
C1157 C1155 1.433 . S
C1157 N1160 1.384 . S
C1158 H1149 0.929 . S
C1158 C1150 1.378 . S
C1158 C1153 1.352 1_554 S
C1159 H1146 0.929 . S
C1159 C1151 1.433 . S
C1159 N1161 1.384 . S
N1160 C1156 1.426 . S
N1160 C1157 1.384 . S
N1161 C1153 1.426 . S
N1161 C1159 1.384 . S
H1162 C1168 0.930 . S
H1163 C1172 0.930 . S
H1164 C1177 0.929 . S
H1165 C1175 0.929 . S
H1166 C1170 0.929 . S
H1167 C1176 0.929 . S
C1168 H1162 0.930 . S
C1168 C1169 1.367 . S
C1168 C1176 1.378 . S
C1169 C1168 1.367 . S
C1169 C1177 1.433 . S
C1170 H1166 0.929 . S
C1170 C1172 1.378 . S
C1170 C1174 1.350 . S
C1171 C1174 1.463 1_655 S
C1171 C1176 1.350 . S
C1171 N1179 1.427 . S
C1172 H1163 0.930 . S
C1172 C1170 1.378 . S
C1172 C1173 1.367 . S
C1173 C1172 1.367 . S
C1173 C1175 1.433 . S
C1174 C1170 1.350 . S
C1174 C1171 1.463 1_455 S
C1174 N1178 1.427 . S
C1175 H1165 0.929 . S
C1175 C1173 1.433 . S
C1175 N1178 1.384 . S
C1176 H1167 0.929 . S
C1176 C1168 1.378 . S
C1176 C1171 1.350 . S
C1177 H1164 0.929 . S
C1177 C1169 1.433 . S
C1177 N1179 1.384 . S
N1178 C1174 1.427 . S
N1178 C1175 1.384 . S
N1179 C1171 1.427 . S
N1179 C1177 1.384 . S
H1180 C1186 0.930 . S
H1181 C1190 0.930 . S
H1182 C1195 0.929 . S
H1183 C1193 0.929 . S
H1184 C1188 0.929 . S
H1185 C1194 0.929 . S
C1186 H1180 0.930 . S
C1186 C1187 1.367 . S
C1186 C1194 1.378 . S
C1187 C1186 1.367 . S
C1187 C1195 1.433 1_556 S
C1188 H1184 0.929 . S
C1188 C1190 1.378 . S
C1188 C1192 1.350 . S
C1189 C1192 1.463 1_456 S
C1189 C1194 1.350 . S
C1189 N1197 1.427 1_556 S
C1190 H1181 0.930 . S
C1190 C1188 1.378 . S
C1190 C1191 1.367 . S
C1191 C1190 1.367 . S
C1191 C1193 1.433 1_554 S
C1192 C1188 1.350 . S
C1192 C1189 1.463 1_654 S
C1192 N1196 1.427 1_554 S
C1193 H1183 0.929 . S
C1193 C1191 1.433 1_556 S
C1193 N1196 1.384 . S
C1194 H1185 0.929 . S
C1194 C1186 1.378 . S
C1194 C1189 1.350 . S
C1195 H1182 0.929 . S
C1195 C1187 1.433 1_554 S
C1195 N1197 1.384 . S
N1196 C1192 1.427 1_556 S
N1196 C1193 1.384 . S
N1197 C1189 1.427 1_554 S
N1197 C1195 1.384 . S
H1198 C1204 0.930 . S
H1199 C1208 0.930 . S
H1200 C1213 0.929 . S
H1201 C1211 0.929 . S
H1202 C1206 0.929 . S
H1203 C1212 0.929 . S
C1204 H1198 0.930 . S
C1204 C1205 1.367 . S
C1204 C1212 1.378 . S
C1205 C1204 1.367 . S
C1205 C1213 1.433 . S
C1206 H1202 0.929 . S
C1206 C1208 1.378 . S
C1206 C1210 1.350 . S
C1207 C1210 1.463 . S
C1207 C1212 1.350 . S
C1207 N1215 1.427 . S
C1208 H1199 0.930 . S
C1208 C1206 1.378 . S
C1208 C1209 1.367 . S
C1209 C1208 1.367 . S
C1209 C1211 1.433 . S
C1210 C1206 1.350 . S
C1210 C1207 1.463 . S
C1210 N1214 1.427 . S
C1211 H1201 0.929 . S
C1211 C1209 1.433 . S
C1211 N1214 1.384 . S
C1212 H1203 0.929 . S
C1212 C1204 1.378 . S
C1212 C1207 1.350 . S
C1213 H1200 0.929 . S
C1213 C1205 1.433 . S
C1213 N1215 1.384 . S
N1214 C1210 1.427 . S
N1214 C1211 1.384 . S
N1215 C1207 1.427 . S
N1215 C1213 1.384 . S
C359 C7 1.437 . S
C363 C73 1.436 . S
C377 C18 1.450 . S
C381 C84 1.448 . S
C395 C29 1.438 . S
C399 C51 1.437 . S
C413 C40 1.434 . S
C417 C62 1.433 . S
C431 C161 1.528 . S
C435 C95 1.534 . S
C449 C172 1.531 . S
C453 C106 1.536 . S
C467 C139 1.528 . S
C471 C117 1.535 . S
C485 C150 1.533 . S
C489 C128 1.534 . S
C503 C249 1.446 . S
C507 C183 1.448 . S
C521 C194 1.433 . S
C525 C260 1.434 . S
C539 C227 1.445 . S
C543 C205 1.447 . S
C557 C216 1.452 . S
C561 C238 1.452 . S
C575 C337 1.536 . S
C579 C271 1.528 . S
C593 C282 1.532 . S
C597 C348 1.530 . S
C611 C293 1.536 . S
C615 C315 1.529 . S
C629 C304 1.529 . S
C633 C326 1.536 . S
C647 C8 1.644 . S
C651 C85 1.643 . S
C665 C52 1.634 . S
C669 C19 1.639 . S
C683 C63 1.635 . S
C687 C30 1.642 . S
C701 C74 1.634 . S
C705 C41 1.639 . S
C719 C173 1.678 . S
C723 C96 1.678 . S
C737 C107 1.675 . S
C741 C140 1.676 . S
C755 C118 1.676 . S
C759 C151 1.677 . S
C773 C162 1.675 . S
C777 C129 1.675 . S
C791 C261 1.644 . S
C795 C184 1.643 . S
C809 C228 1.639 . S
C813 C195 1.634 . S
C827 C206 1.634 . S
C831 C239 1.641 . S
C845 C250 1.634 . S
C849 C217 1.638 . S
C863 C349 1.675 . S
C867 C272 1.676 . S
C881 C316 1.676 . S
C885 C283 1.675 . S
C899 C327 1.676 . S
C903 C294 1.678 . S
C917 C305 1.675 . S
C921 C338 1.676 . S
C935 C5 1.330 . S
C939 C269 1.622 . S
C953 C16 1.325 1_545 S
C957 C104 1.625 . S
C971 C291 1.613 . S
C975 C27 1.342 . S
C989 C38 1.314 1_566 S
C993 C126 1.624 . S
C1007 C313 1.616 . S
C1011 C49 1.341 . S
C1025 C60 1.310 1_545 S
C1029 C148 1.625 . S
C1043 C335 1.608 . S
C1047 C71 1.338 . S
C1061 C82 1.312 1_564 S
C1065 C170 1.625 . S
C1079 C93 1.611 . S
C1083 C181 1.343 . S
C1097 C203 1.327 . S
C1101 C115 1.610 . S
C1115 C225 1.340 . S
C1119 C137 1.608 . S
C1133 C247 1.332 . S
C1137 C159 1.621 . S
C1151 C192 1.326 1_556 S
C1155 C280 1.611 . S
C1169 C214 1.328 . S
C1173 C302 1.610 . S
C1187 C324 1.624 . S
C1191 C236 1.324 1_554 S
C1205 C258 1.315 . S
C1209 C346 1.625 . S
