# Generated by pormake.
# Topology reo-e, (6)-cn, num edge types: 1
# Building blocks:
#     Node 0, Type 0, BuildingBlock: IZENUY_clean_sbu_0, # of connection points: 6
#     Node 1, Type 0, BuildingBlock: IZENUY_clean_sbu_0, # of connection points: 6
#     Node 2, Type 0, BuildingBlock: IZENUY_clean_sbu_0, # of connection points: 6
#     Node 3, Type 0, BuildingBlock: IZENUY_clean_sbu_0, # of connection points: 6
#     Node 4, Type 0, BuildingBlock: IZENUY_clean_sbu_0, # of connection points: 6
#     Node 5, Type 0, BuildingBlock: IZENUY_clean_sbu_0, # of connection points: 6
#     Node 6, Type 0, BuildingBlock: IZENUY_clean_sbu_0, # of connection points: 6
#     Node 7, Type 0, BuildingBlock: IZENUY_clean_sbu_0, # of connection points: 6
#     Node 8, Type 0, BuildingBlock: IZENUY_clean_sbu_0, # of connection points: 6
#     Node 9, Type 0, BuildingBlock: IZENUY_clean_sbu_0, # of connection points: 6
#     Node 10, Type 0, BuildingBlock: IZENUY_clean_sbu_0, # of connection points: 6
#     Node 11, Type 0, BuildingBlock: IZENUY_clean_sbu_0, # of connection points: 6
#     Edge 12, Type (0, 0), BuildingBlock: EYOCIG_clean_linker_4, # of connection points: 2
#     Edge 13, Type (0, 0), BuildingBlock: EYOCIG_clean_linker_4, # of connection points: 2
#     Edge 14, Type (0, 0), BuildingBlock: EYOCIG_clean_linker_4, # of connection points: 2
#     Edge 15, Type (0, 0), BuildingBlock: EYOCIG_clean_linker_4, # of connection points: 2
#     Edge 16, Type (0, 0), BuildingBlock: EYOCIG_clean_linker_4, # of connection points: 2
#     Edge 17, Type (0, 0), BuildingBlock: EYOCIG_clean_linker_4, # of connection points: 2
#     Edge 18, Type (0, 0), BuildingBlock: EYOCIG_clean_linker_4, # of connection points: 2
#     Edge 19, Type (0, 0), BuildingBlock: EYOCIG_clean_linker_4, # of connection points: 2
#     Edge 20, Type (0, 0), BuildingBlock: EYOCIG_clean_linker_4, # of connection points: 2
#     Edge 21, Type (0, 0), BuildingBlock: EYOCIG_clean_linker_4, # of connection points: 2
#     Edge 22, Type (0, 0), BuildingBlock: EYOCIG_clean_linker_4, # of connection points: 2
#     Edge 23, Type (0, 0), BuildingBlock: EYOCIG_clean_linker_4, # of connection points: 2
#     Edge 24, Type (0, 0), BuildingBlock: EYOCIG_clean_linker_4, # of connection points: 2
#     Edge 25, Type (0, 0), BuildingBlock: EYOCIG_clean_linker_4, # of connection points: 2
#     Edge 26, Type (0, 0), BuildingBlock: EYOCIG_clean_linker_4, # of connection points: 2
#     Edge 27, Type (0, 0), BuildingBlock: EYOCIG_clean_linker_4, # of connection points: 2
#     Edge 28, Type (0, 0), BuildingBlock: EYOCIG_clean_linker_4, # of connection points: 2
#     Edge 29, Type (0, 0), BuildingBlock: EYOCIG_clean_linker_4, # of connection points: 2
#     Edge 30, Type (0, 0), BuildingBlock: EYOCIG_clean_linker_4, # of connection points: 2
#     Edge 31, Type (0, 0), BuildingBlock: EYOCIG_clean_linker_4, # of connection points: 2
#     Edge 32, Type (0, 0), BuildingBlock: EYOCIG_clean_linker_4, # of connection points: 2
#     Edge 33, Type (0, 0), BuildingBlock: EYOCIG_clean_linker_4, # of connection points: 2
#     Edge 34, Type (0, 0), BuildingBlock: EYOCIG_clean_linker_4, # of connection points: 2
#     Edge 35, Type (0, 0), BuildingBlock: EYOCIG_clean_linker_4, # of connection points: 2
#     Edge 36, Type (0, 0), BuildingBlock: EYOCIG_clean_linker_4, # of connection points: 2
#     Edge 37, Type (0, 0), BuildingBlock: EYOCIG_clean_linker_4, # of connection points: 2
#     Edge 38, Type (0, 0), BuildingBlock: EYOCIG_clean_linker_4, # of connection points: 2
#     Edge 39, Type (0, 0), BuildingBlock: EYOCIG_clean_linker_4, # of connection points: 2
#     Edge 40, Type (0, 0), BuildingBlock: EYOCIG_clean_linker_4, # of connection points: 2
#     Edge 41, Type (0, 0), BuildingBlock: EYOCIG_clean_linker_4, # of connection points: 2
#     Edge 42, Type (0, 0), BuildingBlock: EYOCIG_clean_linker_4, # of connection points: 2
#     Edge 43, Type (0, 0), BuildingBlock: EYOCIG_clean_linker_4, # of connection points: 2
#     Edge 44, Type (0, 0), BuildingBlock: EYOCIG_clean_linker_4, # of connection points: 2
#     Edge 45, Type (0, 0), BuildingBlock: EYOCIG_clean_linker_4, # of connection points: 2
#     Edge 46, Type (0, 0), BuildingBlock: EYOCIG_clean_linker_4, # of connection points: 2
#     Edge 47, Type (0, 0), BuildingBlock: EYOCIG_clean_linker_4, # of connection points: 2
# Relax obj value: 0.074
# Max RMSD: 0.096
# Mean RMSD: 0.095
data_MOF--net-reo-e--node1-IZENUY_clean_sbu_0--edge1-EYOCIG_clean_linker_4
_symmetry_space_group_name_H-M    P1
_symmetry_Int_Tables_number       1
_symmetry_cell_setting            triclinic
loop_
_symmetry_equiv_pos_as_xyz
'x, y, z'
_cell_length_a     30.608684
_cell_length_b     30.603502
_cell_length_c     30.611623
_cell_angle_alpha  89.998645
_cell_angle_beta   90.061105
_cell_angle_gamma 90.020997
loop_
_atom_site_label
_atom_site_type_symbol
_atom_site_fract_x
_atom_site_fract_y
_atom_site_fract_z
_atom_type_partial_charge
Fe0 Fe 0.20019 0.20152 0.56588 0.0
Fe1 Fe 0.26424 0.26418 0.51454 0.0
O2 O 0.2218 0.22227 0.51431 0.0
Fe3 Fe 0.20089 0.20122 0.46253 0.0
O4 O 0.1437 0.2047 0.47784 0.0
O5 O 0.14315 0.20513 0.54976 0.0
O6 O 0.19323 0.25484 0.59087 0.0
C7 C 0.21118 0.29127 0.58509 0.0
C8 C 0.20429 0.12461 0.5144 0.0
O9 O 0.23897 0.2978 0.55582 0.0
C10 C 0.29064 0.21197 0.44318 0.0
O11 O 0.25332 0.19458 0.59139 0.0
O12 O 0.29808 0.23727 0.55448 0.0
O13 O 0.20407 0.14413 0.4783 0.0
O14 O 0.2034 0.14443 0.5503 0.0
C15 C 0.21105 0.29136 0.4446 0.0
O16 O 0.29774 0.23886 0.47319 0.0
O17 O 0.25409 0.19428 0.43738 0.0
C18 C 0.29046 0.21072 0.58465 0.0
O19 O 0.23789 0.29843 0.47468 0.0
O20 O 0.19433 0.25453 0.43761 0.0
C21 C 0.1237 0.2059 0.51361 0.0
Fe22 Fe 0.76385 0.26283 0.51422 0.0
Fe23 Fe 0.82768 0.19983 0.56565 0.0
O24 O 0.80604 0.22068 0.51407 0.0
Fe25 Fe 0.82675 0.19944 0.46231 0.0
O26 O 0.83393 0.25267 0.43735 0.0
O27 O 0.78994 0.29668 0.47353 0.0
O28 O 0.7899 0.29688 0.55503 0.0
C29 C 0.81687 0.28982 0.58509 0.0
C30 C 0.73662 0.20977 0.44343 0.0
O31 O 0.83402 0.25305 0.59117 0.0
C32 C 0.82339 0.12281 0.51397 0.0
O33 O 0.73034 0.23663 0.55509 0.0
O34 O 0.77462 0.19232 0.59078 0.0
O35 O 0.7734 0.19274 0.43713 0.0
O36 O 0.7297 0.2368 0.47344 0.0
C37 C 0.90401 0.20459 0.51357 0.0
O38 O 0.82505 0.1426 0.5499 0.0
O39 O 0.82306 0.14243 0.47798 0.0
C40 C 0.73784 0.20953 0.58489 0.0
O41 O 0.88463 0.20424 0.54972 0.0
O42 O 0.88397 0.20257 0.4778 0.0
C43 C 0.81727 0.28958 0.44388 0.0
Fe44 Fe 0.82989 0.82678 0.56566 0.0
Fe45 Fe 0.82931 0.82693 0.46234 0.0
O46 O 0.80841 0.80583 0.51409 0.0
Fe47 Fe 0.76604 0.76387 0.51424 0.0
O48 O 0.73212 0.7907 0.55426 0.0
O49 O 0.77675 0.8338 0.59094 0.0
O50 O 0.82657 0.88386 0.54996 0.0
C51 C 0.82577 0.90353 0.51398 0.0
C52 C 0.81883 0.73719 0.58541 0.0
O53 O 0.82659 0.88388 0.47805 0.0
C54 C 0.81866 0.73719 0.44384 0.0
O55 O 0.88689 0.82308 0.54966 0.0
O56 O 0.8864 0.82281 0.4777 0.0
O57 O 0.79142 0.73026 0.55574 0.0
O58 O 0.83676 0.77365 0.59096 0.0
C59 C 0.73942 0.81696 0.44316 0.0
O60 O 0.83535 0.77397 0.43707 0.0
O61 O 0.79239 0.72971 0.47427 0.0
C62 C 0.90631 0.82183 0.51355 0.0
O63 O 0.77605 0.8345 0.43742 0.0
O64 O 0.7325 0.78943 0.47272 0.0
C65 C 0.73964 0.81753 0.5843 0.0
Fe66 Fe 0.20228 0.82939 0.46285 0.0
Fe67 Fe 0.26538 0.7658 0.51426 0.0
O68 O 0.22311 0.80781 0.51443 0.0
Fe69 Fe 0.20154 0.82809 0.56619 0.0
O70 O 0.14474 0.82303 0.55043 0.0
O71 O 0.14518 0.82684 0.47858 0.0
O72 O 0.19445 0.77618 0.43793 0.0
C73 C 0.21142 0.73933 0.44419 0.0
C74 C 0.20539 0.90549 0.51516 0.0
O75 O 0.23926 0.73228 0.47339 0.0
C76 C 0.2915 0.81931 0.58477 0.0
O77 O 0.25545 0.83557 0.43722 0.0
O78 O 0.29935 0.792 0.47388 0.0
O79 O 0.20322 0.88533 0.55081 0.0
O80 O 0.20664 0.88629 0.47892 0.0
C81 C 0.21272 0.73804 0.58459 0.0
O82 O 0.29884 0.79192 0.55523 0.0
O83 O 0.25465 0.8362 0.59097 0.0
C84 C 0.29223 0.81855 0.4436 0.0
O85 O 0.23953 0.73138 0.55449 0.0
O86 O 0.19586 0.77476 0.59145 0.0
C87 C 0.12533 0.82376 0.51432 0.0
Fe88 Fe 0.56519 0.20236 0.19874 0.0
Fe89 Fe 0.51411 0.26586 0.2622 0.0
O90 O 0.51371 0.22375 0.21995 0.0
Fe91 Fe 0.46183 0.20295 0.19897 0.0
O92 O 0.47699 0.14552 0.20366 0.0
O93 O 0.54896 0.14511 0.20198 0.0
O94 O 0.59042 0.19494 0.25186 0.0
C95 C 0.58454 0.21207 0.28866 0.0
C96 C 0.51341 0.20623 0.12221 0.0
O97 O 0.55512 0.23967 0.29575 0.0
C98 C 0.44366 0.29323 0.20884 0.0
O99 O 0.59078 0.25564 0.19213 0.0
O100 O 0.55453 0.29972 0.23597 0.0
O101 O 0.47754 0.20508 0.14194 0.0
O102 O 0.54944 0.20618 0.14177 0.0
C103 C 0.44299 0.21382 0.28885 0.0
O104 O 0.47313 0.29981 0.23655 0.0
O105 O 0.43755 0.25665 0.19112 0.0
C106 C 0.58448 0.29252 0.20909 0.0
O107 O 0.47372 0.23981 0.29625 0.0
O108 O 0.43617 0.19732 0.25196 0.0
C109 C 0.51289 0.12546 0.20418 0.0
Fe110 Fe 0.82911 0.46246 0.20189 0.0
Fe111 Fe 0.76607 0.51389 0.2653 0.0
O112 O 0.80802 0.51405 0.22303 0.0
Fe113 Fe 0.82882 0.56582 0.20184 0.0
O114 O 0.82556 0.55023 0.14494 0.0
O115 O 0.82557 0.47829 0.14486 0.0
O116 O 0.77591 0.4373 0.19495 0.0
C117 C 0.73913 0.44381 0.21187 0.0
C118 C 0.90532 0.51456 0.20586 0.0
O119 O 0.7322 0.47342 0.23921 0.0
C120 C 0.81864 0.58461 0.29147 0.0
O121 O 0.8363 0.43715 0.25508 0.0
O122 O 0.79225 0.47311 0.29908 0.0
O123 O 0.88564 0.55044 0.20528 0.0
O124 O 0.88597 0.47842 0.20522 0.0
C125 C 0.73914 0.58444 0.21214 0.0
O126 O 0.79215 0.55439 0.29898 0.0
O127 O 0.83551 0.59105 0.25476 0.0
C128 C 0.81947 0.44338 0.29195 0.0
O129 O 0.73217 0.55472 0.23943 0.0
O130 O 0.77572 0.59065 0.19483 0.0
C131 C 0.82474 0.51432 0.12526 0.0
Fe132 Fe 0.56673 0.82744 0.19955 0.0
Fe133 Fe 0.4634 0.82703 0.19974 0.0
O134 O 0.51522 0.80599 0.22065 0.0
Fe135 Fe 0.51556 0.76364 0.26266 0.0
O136 O 0.55615 0.78992 0.29668 0.0
O137 O 0.59218 0.83407 0.25274 0.0
O138 O 0.55097 0.88469 0.20358 0.0
C139 C 0.51495 0.90441 0.20446 0.0
C140 C 0.58623 0.73751 0.20951 0.0
O141 O 0.4791 0.8844 0.20268 0.0
C142 C 0.44434 0.73694 0.21045 0.0
O143 O 0.55074 0.82414 0.14244 0.0
O144 O 0.47877 0.82286 0.14253 0.0
O145 O 0.55651 0.73015 0.23665 0.0
O146 O 0.59203 0.77429 0.19228 0.0
C147 C 0.44495 0.81663 0.2897 0.0
O148 O 0.43781 0.7738 0.19361 0.0
O149 O 0.47503 0.72958 0.23655 0.0
C150 C 0.51474 0.82224 0.12277 0.0
O151 O 0.4388 0.83431 0.25315 0.0
O152 O 0.47461 0.78923 0.29646 0.0
C153 C 0.58601 0.81707 0.28958 0.0
Fe154 Fe 0.19932 0.56678 0.20264 0.0
Fe155 Fe 0.26224 0.51525 0.26627 0.0
O156 O 0.22031 0.51513 0.22386 0.0
Fe157 Fe 0.19948 0.46338 0.20263 0.0
O158 O 0.20333 0.47902 0.14548 0.0
O159 O 0.20285 0.55099 0.14551 0.0
O160 O 0.2524 0.59193 0.19583 0.0
C161 C 0.28895 0.58584 0.21336 0.0
C162 C 0.123 0.51507 0.20618 0.0
O163 O 0.29582 0.55629 0.24077 0.0
C164 C 0.20934 0.44458 0.29261 0.0
O165 O 0.19224 0.59201 0.2559 0.0
O166 O 0.23561 0.55541 0.3002 0.0
O167 O 0.14252 0.47905 0.20547 0.0
O168 O 0.14254 0.55105 0.20584 0.0
C169 C 0.2896 0.44518 0.21289 0.0
O170 O 0.23654 0.47427 0.29971 0.0
O171 O 0.19217 0.43833 0.25587 0.0
C172 C 0.20868 0.58536 0.29293 0.0
O173 O 0.29649 0.4751 0.23999 0.0
O174 O 0.25275 0.43831 0.1962 0.0
C175 C 0.20412 0.51502 0.12574 0.0
Fe176 Fe 0.56672 0.82953 0.82607 0.0
Fe177 Fe 0.46336 0.82864 0.82712 0.0
O178 O 0.51499 0.80836 0.80518 0.0
Fe179 Fe 0.51487 0.76687 0.76242 0.0
O180 O 0.55488 0.73245 0.78857 0.0
O181 O 0.59214 0.77632 0.83198 0.0
O182 O 0.55165 0.8252 0.88324 0.0
C183 C 0.51591 0.82393 0.90327 0.0
C184 C 0.5857 0.82007 0.73617 0.0
O185 O 0.47975 0.82514 0.88396 0.0
C186 C 0.4443 0.82007 0.73697 0.0
O187 O 0.55042 0.88641 0.82342 0.0
O188 O 0.47841 0.88568 0.82362 0.0
O189 O 0.55615 0.79265 0.72907 0.0
O190 O 0.59152 0.83741 0.77286 0.0
C191 C 0.4447 0.73912 0.81575 0.0
O192 O 0.4374 0.83544 0.77434 0.0
O193 O 0.47483 0.79407 0.72885 0.0
C194 C 0.51419 0.90561 0.82268 0.0
O195 O 0.43899 0.77523 0.83422 0.0
O196 O 0.47361 0.73301 0.78748 0.0
C197 C 0.58518 0.73948 0.81523 0.0
Fe198 Fe 0.20168 0.567 0.82826 0.0
Fe199 Fe 0.26495 0.51504 0.76525 0.0
O200 O 0.22276 0.51521 0.80742 0.0
Fe201 Fe 0.20163 0.46362 0.82869 0.0
O202 O 0.14431 0.47923 0.8248 0.0
O203 O 0.14438 0.55117 0.82554 0.0
O204 O 0.19419 0.5916 0.77474 0.0
C205 C 0.21165 0.58539 0.73812 0.0
C206 C 0.20623 0.51584 0.90554 0.0
O207 O 0.23923 0.55591 0.73145 0.0
C208 C 0.29168 0.44457 0.81848 0.0
O209 O 0.25497 0.5925 0.83442 0.0
O210 O 0.29903 0.55538 0.79136 0.0
O211 O 0.20476 0.47974 0.88592 0.0
O212 O 0.20579 0.55173 0.88556 0.0
C213 C 0.21193 0.44453 0.73849 0.0
O214 O 0.2986 0.47416 0.7911 0.0
O215 O 0.25502 0.43859 0.83597 0.0
C216 C 0.29186 0.58577 0.81776 0.0
O217 O 0.2387 0.47463 0.73132 0.0
O218 O 0.19511 0.43808 0.7754 0.0
C219 C 0.1245 0.51523 0.8243 0.0
Fe220 Fe 0.51462 0.26326 0.76359 0.0
Fe221 Fe 0.46196 0.20093 0.82683 0.0
O222 O 0.51397 0.22134 0.80593 0.0
Fe223 Fe 0.56533 0.19986 0.82739 0.0
O224 O 0.59046 0.25301 0.83506 0.0
O225 O 0.55533 0.29684 0.78997 0.0
O226 O 0.47407 0.29755 0.7891 0.0
C227 C 0.44421 0.29101 0.81627 0.0
C228 C 0.5851 0.20991 0.73777 0.0
O229 O 0.43741 0.25441 0.83347 0.0
C230 C 0.51297 0.12389 0.82263 0.0
O231 O 0.47405 0.23727 0.7296 0.0
O232 O 0.43697 0.19406 0.77361 0.0
O233 O 0.59113 0.19318 0.77465 0.0
O234 O 0.55526 0.23682 0.73016 0.0
C235 C 0.51329 0.20415 0.9036 0.0
O236 O 0.47714 0.1438 0.82375 0.0
O237 O 0.54917 0.14312 0.82322 0.0
C238 C 0.44385 0.2106 0.73675 0.0
O239 O 0.47739 0.20436 0.88383 0.0
O240 O 0.54929 0.20268 0.88418 0.0
C241 C 0.58447 0.28981 0.8179 0.0
Fe242 Fe 0.82677 0.46252 0.82995 0.0
Fe243 Fe 0.76369 0.51343 0.76582 0.0
O244 O 0.80562 0.51394 0.8083 0.0
Fe245 Fe 0.82645 0.56589 0.82913 0.0
O246 O 0.88375 0.5504 0.82594 0.0
O247 O 0.88407 0.47841 0.82642 0.0
O248 O 0.83376 0.4366 0.77696 0.0
C249 C 0.81688 0.44242 0.73997 0.0
C250 C 0.82233 0.51503 0.90625 0.0
O251 O 0.78987 0.4723 0.73248 0.0
C252 C 0.73651 0.58453 0.81801 0.0
O253 O 0.77336 0.43743 0.83702 0.0
O254 O 0.72967 0.47299 0.79213 0.0
O255 O 0.82303 0.55078 0.88624 0.0
O256 O 0.82329 0.47885 0.88691 0.0
C257 C 0.81655 0.5842 0.73909 0.0
O258 O 0.72969 0.55443 0.79111 0.0
O259 O 0.77306 0.59084 0.83562 0.0
C260 C 0.73658 0.44353 0.81973 0.0
O261 O 0.78994 0.5539 0.73179 0.0
O262 O 0.83328 0.59078 0.77594 0.0
C263 C 0.90374 0.51452 0.82525 0.0
C264 C 0.19919 0.35514 0.38842 0.0
C265 C 0.20402 0.32544 0.4136 0.0
C266 C 0.19866 0.38765 0.35601 0.0
C267 C 0.20274 0.41303 0.32634 0.0
C268 C 0.64125 0.19849 0.35237 0.0
C269 C 0.61588 0.20401 0.32267 0.0
C270 C 0.6735 0.19806 0.3855 0.0
C271 C 0.70277 0.20291 0.41154 0.0
C272 C 0.82849 0.67541 0.38548 0.0
C273 C 0.82449 0.70413 0.41175 0.0
C274 C 0.8285 0.64308 0.35315 0.0
C275 C 0.82454 0.6168 0.32442 0.0
C276 C 0.35553 0.82853 0.38598 0.0
C277 C 0.32599 0.82468 0.4117 0.0
C278 C 0.38804 0.82805 0.35331 0.0
C279 C 0.41353 0.82348 0.3237 0.0
C280 C 0.20056 0.67397 0.64096 0.0
C281 C 0.20564 0.70366 0.61561 0.0
C282 C 0.20005 0.64161 0.67382 0.0
C283 C 0.20452 0.61657 0.70389 0.0
C284 C 0.35403 0.19872 0.64127 0.0
C285 C 0.32429 0.20346 0.61602 0.0
C286 C 0.38682 0.19881 0.6735 0.0
C287 C 0.41244 0.20368 0.70288 0.0
C288 C 0.82907 0.38493 0.67655 0.0
C289 C 0.8243 0.41055 0.70621 0.0
C290 C 0.82884 0.35268 0.64333 0.0
C291 C 0.82381 0.32359 0.6171 0.0
C292 C 0.67623 0.83095 0.64095 0.0
C293 C 0.70572 0.82537 0.61554 0.0
C294 C 0.64346 0.8316 0.67333 0.0
C295 C 0.61762 0.82703 0.70263 0.0
C296 C 0.38523 0.20302 0.35168 0.0
C297 C 0.41118 0.20744 0.32248 0.0
C298 C 0.35289 0.20257 0.38445 0.0
C299 C 0.3239 0.20623 0.41077 0.0
C300 C 0.83182 0.38623 0.35534 0.0
C301 C 0.82684 0.4118 0.32581 0.0
C302 C 0.83127 0.35345 0.38776 0.0
C303 C 0.82544 0.32376 0.41294 0.0
C304 C 0.64346 0.82954 0.35292 0.0
C305 C 0.61769 0.82441 0.32349 0.0
C306 C 0.67617 0.8295 0.38561 0.0
C307 C 0.70557 0.82437 0.41143 0.0
C308 C 0.19728 0.67511 0.38868 0.0
C309 C 0.203 0.7051 0.41347 0.0
C310 C 0.19668 0.64221 0.35647 0.0
C311 C 0.2015 0.61679 0.32685 0.0
C312 C 0.35432 0.83218 0.64191 0.0
C313 C 0.32507 0.82689 0.61626 0.0
C314 C 0.38679 0.83241 0.67439 0.0
C315 C 0.41254 0.82738 0.70359 0.0
C316 C 0.20002 0.35511 0.64195 0.0
C317 C 0.20434 0.32531 0.61656 0.0
C318 C 0.20029 0.38772 0.6746 0.0
C319 C 0.20493 0.4131 0.70439 0.0
C320 C 0.64326 0.19826 0.67566 0.0
C321 C 0.61717 0.20297 0.70461 0.0
C322 C 0.67573 0.19822 0.64317 0.0
C323 C 0.70467 0.20278 0.61702 0.0
C324 C 0.82862 0.64217 0.67654 0.0
C325 C 0.82349 0.61602 0.70549 0.0
C326 C 0.82927 0.67481 0.644 0.0
C327 C 0.82516 0.70387 0.61775 0.0
C328 C 0.38663 0.35704 0.19798 0.0
C329 C 0.41208 0.32726 0.20217 0.0
C330 C 0.35386 0.38947 0.19911 0.0
C331 C 0.32405 0.41451 0.20492 0.0
C332 C 0.35548 0.64289 0.82817 0.0
C333 C 0.32577 0.6174 0.82412 0.0
C334 C 0.3881 0.67539 0.82762 0.0
C335 C 0.41352 0.70501 0.8228 0.0
C336 C 0.35539 0.38759 0.82919 0.0
C337 C 0.32556 0.41295 0.82516 0.0
C338 C 0.38804 0.3551 0.82845 0.0
C339 C 0.41331 0.32539 0.82337 0.0
C340 C 0.67287 0.38668 0.83198 0.0
C341 C 0.70255 0.41211 0.82706 0.0
C342 C 0.6405 0.35382 0.83164 0.0
C343 C 0.61547 0.32393 0.82611 0.0
C344 C 0.67367 0.64259 0.82753 0.0
C345 C 0.70289 0.61654 0.82377 0.0
C346 C 0.64158 0.67558 0.82691 0.0
C347 C 0.61632 0.70534 0.82218 0.0
C348 C 0.64432 0.67492 0.19877 0.0
C349 C 0.61839 0.70419 0.20291 0.0
C350 C 0.67663 0.64217 0.19962 0.0
C351 C 0.70554 0.61609 0.20496 0.0
C352 C 0.38569 0.6745 0.20115 0.0
C353 C 0.41201 0.70353 0.20485 0.0
C354 C 0.35259 0.64249 0.20169 0.0
C355 C 0.32287 0.61717 0.2063 0.0
C356 C 0.64181 0.35596 0.1985 0.0
C357 C 0.61622 0.32634 0.20261 0.0
C358 C 0.67478 0.38812 0.19911 0.0
C359 C 0.70485 0.41297 0.20419 0.0
C360 C 0.20421 0.99194 0.51593 0.0
C361 C 0.20473 0.95248 0.51581 0.0
C362 C 0.20395 0.03817 0.51538 0.0
C363 C 0.20411 0.07762 0.51472 0.0
C364 C 0.03703 0.2078 0.51248 0.0
C365 C 0.07656 0.20693 0.51307 0.0
C366 C 0.99064 0.20753 0.51248 0.0
C367 C 0.95112 0.20619 0.51306 0.0
C368 C 0.8237 0.03625 0.51343 0.0
C369 C 0.82356 0.07574 0.51388 0.0
C370 C 0.82427 0.98998 0.51337 0.0
C371 C 0.82495 0.95052 0.51379 0.0
C372 C 0.03898 0.82065 0.5135 0.0
C373 C 0.0784 0.82207 0.51393 0.0
C374 C 0.99275 0.82016 0.51316 0.0
C375 C 0.9533 0.82092 0.51321 0.0
C376 C 0.51342 0.20476 0.98981 0.0
C377 C 0.51322 0.20449 0.95044 0.0
C378 C 0.5134 0.2053 0.03593 0.0
C379 C 0.51328 0.20572 0.07531 0.0
C380 C 0.82224 0.51584 0.9927 0.0
C381 C 0.82228 0.51562 0.95325 0.0
C382 C 0.8229 0.51535 0.03891 0.0
C383 C 0.82374 0.51462 0.07833 0.0
C384 C 0.51534 0.81995 0.03613 0.0
C385 C 0.51479 0.82099 0.07564 0.0
C386 C 0.51606 0.82042 0.98979 0.0
C387 C 0.51633 0.82202 0.95031 0.0
C388 C 0.20743 0.51606 0.99245 0.0
C389 C 0.20688 0.51612 0.95283 0.0
C390 C 0.2069 0.51557 0.03895 0.0
C391 C 0.20563 0.51512 0.07853 0.0
C392 C 0.0371 0.51584 0.2051 0.0
C393 C 0.07635 0.5153 0.20559 0.0
C394 C 0.9912 0.51575 0.20504 0.0
C395 C 0.95196 0.51504 0.20542 0.0
C396 C 0.99078 0.51552 0.82321 0.0
C397 C 0.95111 0.51493 0.82414 0.0
C398 C 0.03741 0.5157 0.82297 0.0
C399 C 0.0771 0.5154 0.82357 0.0
C400 C 0.51287 0.03777 0.82179 0.0
C401 C 0.51261 0.0771 0.82218 0.0
C402 C 0.51329 0.99173 0.82179 0.0
C403 C 0.51362 0.9524 0.8222 0.0
C404 C 0.51406 0.99157 0.20819 0.0
C405 C 0.51469 0.95186 0.2065 0.0
C406 C 0.5132 0.03829 0.20812 0.0
C407 C 0.51275 0.07801 0.20633 0.0
loop_
_geom_bond_atom_site_label_1
_geom_bond_atom_site_label_2
_geom_bond_distance
_geom_bond_site_symmetry_2
_ccdc_geom_bond_type
Fe0 O2 1.918 . S
Fe0 O5 1.997 . S
Fe0 O6 2.002 . S
Fe0 O11 1.976 . S
Fe0 O14 1.996 . S
Fe1 O2 1.918 . S
Fe1 O9 1.997 . S
Fe1 O12 1.996 . S
Fe1 O16 1.976 . S
Fe1 O19 2.002 . S
O2 Fe0 1.918 . S
O2 Fe1 1.918 . S
O2 Fe3 1.918 . S
Fe3 O2 1.918 . S
Fe3 O4 2.002 . S
Fe3 O13 1.976 . S
Fe3 O17 1.996 . S
Fe3 O20 1.997 . S
O4 Fe3 2.002 . S
O4 C21 1.295 . S
O5 Fe0 1.997 . S
O5 C21 1.235 . S
O6 Fe0 2.002 . S
O6 C7 1.295 . S
C7 O6 1.295 . S
C7 O9 1.235 . S
C8 O13 1.287 . S
C8 O14 1.255 . S
O9 Fe1 1.997 . S
O9 C7 1.235 . S
C10 O16 1.287 . S
C10 O17 1.255 . S
O11 Fe0 1.976 . S
O11 C18 1.287 . S
O12 Fe1 1.996 . S
O12 C18 1.255 . S
O13 Fe3 1.976 . S
O13 C8 1.287 . S
O14 Fe0 1.996 . S
O14 C8 1.255 . S
C15 O19 1.295 . S
C15 O20 1.235 . S
O16 Fe1 1.976 . S
O16 C10 1.287 . S
O17 Fe3 1.996 . S
O17 C10 1.255 . S
C18 O11 1.287 . S
C18 O12 1.255 . S
O19 Fe1 2.002 . S
O19 C15 1.295 . S
O20 Fe3 1.997 . S
O20 C15 1.235 . S
C21 O4 1.295 . S
C21 O5 1.235 . S
Fe22 O24 1.918 . S
Fe22 O27 1.997 . S
Fe22 O28 2.002 . S
Fe22 O33 1.976 . S
Fe22 O36 1.996 . S
Fe23 O24 1.918 . S
Fe23 O31 1.997 . S
Fe23 O34 1.996 . S
Fe23 O38 1.976 . S
Fe23 O41 2.002 . S
O24 Fe22 1.918 . S
O24 Fe23 1.918 . S
O24 Fe25 1.918 . S
Fe25 O24 1.918 . S
Fe25 O26 2.002 . S
Fe25 O35 1.976 . S
Fe25 O39 1.996 . S
Fe25 O42 1.997 . S
O26 Fe25 2.002 . S
O26 C43 1.295 . S
O27 Fe22 1.997 . S
O27 C43 1.235 . S
O28 Fe22 2.002 . S
O28 C29 1.295 . S
C29 O28 1.295 . S
C29 O31 1.235 . S
C30 O35 1.287 . S
C30 O36 1.255 . S
O31 Fe23 1.997 . S
O31 C29 1.235 . S
C32 O38 1.287 . S
C32 O39 1.255 . S
O33 Fe22 1.976 . S
O33 C40 1.287 . S
O34 Fe23 1.996 . S
O34 C40 1.255 . S
O35 Fe25 1.976 . S
O35 C30 1.287 . S
O36 Fe22 1.996 . S
O36 C30 1.255 . S
C37 O41 1.295 . S
C37 O42 1.235 . S
O38 Fe23 1.976 . S
O38 C32 1.287 . S
O39 Fe25 1.996 . S
O39 C32 1.255 . S
C40 O33 1.287 . S
C40 O34 1.255 . S
O41 Fe23 2.002 . S
O41 C37 1.295 . S
O42 Fe25 1.997 . S
O42 C37 1.235 . S
C43 O26 1.295 . S
C43 O27 1.235 . S
Fe44 O46 1.918 . S
Fe44 O49 1.997 . S
Fe44 O50 2.002 . S
Fe44 O55 1.976 . S
Fe44 O58 1.996 . S
Fe45 O46 1.918 . S
Fe45 O53 1.997 . S
Fe45 O56 1.996 . S
Fe45 O60 1.976 . S
Fe45 O63 2.002 . S
O46 Fe44 1.918 . S
O46 Fe45 1.918 . S
O46 Fe47 1.918 . S
Fe47 O46 1.918 . S
Fe47 O48 2.002 . S
Fe47 O57 1.976 . S
Fe47 O61 1.996 . S
Fe47 O64 1.997 . S
O48 Fe47 2.002 . S
O48 C65 1.295 . S
O49 Fe44 1.997 . S
O49 C65 1.235 . S
O50 Fe44 2.002 . S
O50 C51 1.295 . S
C51 O50 1.295 . S
C51 O53 1.235 . S
C52 O57 1.287 . S
C52 O58 1.255 . S
O53 Fe45 1.997 . S
O53 C51 1.235 . S
C54 O60 1.287 . S
C54 O61 1.255 . S
O55 Fe44 1.976 . S
O55 C62 1.287 . S
O56 Fe45 1.996 . S
O56 C62 1.255 . S
O57 Fe47 1.976 . S
O57 C52 1.287 . S
O58 Fe44 1.996 . S
O58 C52 1.255 . S
C59 O63 1.295 . S
C59 O64 1.235 . S
O60 Fe45 1.976 . S
O60 C54 1.287 . S
O61 Fe47 1.996 . S
O61 C54 1.255 . S
C62 O55 1.287 . S
C62 O56 1.255 . S
O63 Fe45 2.002 . S
O63 C59 1.295 . S
O64 Fe47 1.997 . S
O64 C59 1.235 . S
C65 O48 1.295 . S
C65 O49 1.235 . S
Fe66 O68 1.918 . S
Fe66 O71 1.997 . S
Fe66 O72 2.002 . S
Fe66 O77 1.976 . S
Fe66 O80 1.996 . S
Fe67 O68 1.918 . S
Fe67 O75 1.997 . S
Fe67 O78 1.996 . S
Fe67 O82 1.976 . S
Fe67 O85 2.002 . S
O68 Fe66 1.918 . S
O68 Fe67 1.918 . S
O68 Fe69 1.918 . S
Fe69 O68 1.918 . S
Fe69 O70 2.002 . S
Fe69 O79 1.976 . S
Fe69 O83 1.996 . S
Fe69 O86 1.997 . S
O70 Fe69 2.002 . S
O70 C87 1.295 . S
O71 Fe66 1.997 . S
O71 C87 1.235 . S
O72 Fe66 2.002 . S
O72 C73 1.295 . S
C73 O72 1.295 . S
C73 O75 1.235 . S
C74 O79 1.287 . S
C74 O80 1.255 . S
O75 Fe67 1.997 . S
O75 C73 1.235 . S
C76 O82 1.287 . S
C76 O83 1.255 . S
O77 Fe66 1.976 . S
O77 C84 1.287 . S
O78 Fe67 1.996 . S
O78 C84 1.255 . S
O79 Fe69 1.976 . S
O79 C74 1.287 . S
O80 Fe66 1.996 . S
O80 C74 1.255 . S
C81 O85 1.295 . S
C81 O86 1.235 . S
O82 Fe67 1.976 . S
O82 C76 1.287 . S
O83 Fe69 1.996 . S
O83 C76 1.255 . S
C84 O77 1.287 . S
C84 O78 1.255 . S
O85 Fe67 2.002 . S
O85 C81 1.295 . S
O86 Fe69 1.997 . S
O86 C81 1.235 . S
C87 O70 1.295 . S
C87 O71 1.235 . S
Fe88 O90 1.918 . S
Fe88 O93 1.997 . S
Fe88 O94 2.002 . S
Fe88 O99 1.976 . S
Fe88 O102 1.996 . S
Fe89 O90 1.918 . S
Fe89 O97 1.997 . S
Fe89 O100 1.996 . S
Fe89 O104 1.976 . S
Fe89 O107 2.002 . S
O90 Fe88 1.918 . S
O90 Fe89 1.918 . S
O90 Fe91 1.918 . S
Fe91 O90 1.918 . S
Fe91 O92 2.002 . S
Fe91 O101 1.976 . S
Fe91 O105 1.996 . S
Fe91 O108 1.997 . S
O92 Fe91 2.002 . S
O92 C109 1.295 . S
O93 Fe88 1.997 . S
O93 C109 1.235 . S
O94 Fe88 2.002 . S
O94 C95 1.295 . S
C95 O94 1.295 . S
C95 O97 1.235 . S
C96 O101 1.287 . S
C96 O102 1.255 . S
O97 Fe89 1.997 . S
O97 C95 1.235 . S
C98 O104 1.287 . S
C98 O105 1.255 . S
O99 Fe88 1.976 . S
O99 C106 1.287 . S
O100 Fe89 1.996 . S
O100 C106 1.255 . S
O101 Fe91 1.976 . S
O101 C96 1.287 . S
O102 Fe88 1.996 . S
O102 C96 1.255 . S
C103 O107 1.295 . S
C103 O108 1.235 . S
O104 Fe89 1.976 . S
O104 C98 1.287 . S
O105 Fe91 1.996 . S
O105 C98 1.255 . S
C106 O99 1.287 . S
C106 O100 1.255 . S
O107 Fe89 2.002 . S
O107 C103 1.295 . S
O108 Fe91 1.997 . S
O108 C103 1.235 . S
C109 O92 1.295 . S
C109 O93 1.235 . S
Fe110 O112 1.918 . S
Fe110 O115 1.997 . S
Fe110 O116 2.002 . S
Fe110 O121 1.976 . S
Fe110 O124 1.996 . S
Fe111 O112 1.918 . S
Fe111 O119 1.997 . S
Fe111 O122 1.996 . S
Fe111 O126 1.976 . S
Fe111 O129 2.002 . S
O112 Fe110 1.918 . S
O112 Fe111 1.918 . S
O112 Fe113 1.918 . S
Fe113 O112 1.918 . S
Fe113 O114 2.002 . S
Fe113 O123 1.976 . S
Fe113 O127 1.996 . S
Fe113 O130 1.997 . S
O114 Fe113 2.002 . S
O114 C131 1.295 . S
O115 Fe110 1.997 . S
O115 C131 1.235 . S
O116 Fe110 2.002 . S
O116 C117 1.295 . S
C117 O116 1.295 . S
C117 O119 1.235 . S
C118 O123 1.287 . S
C118 O124 1.255 . S
O119 Fe111 1.997 . S
O119 C117 1.235 . S
C120 O126 1.287 . S
C120 O127 1.255 . S
O121 Fe110 1.976 . S
O121 C128 1.287 . S
O122 Fe111 1.996 . S
O122 C128 1.255 . S
O123 Fe113 1.976 . S
O123 C118 1.287 . S
O124 Fe110 1.996 . S
O124 C118 1.255 . S
C125 O129 1.295 . S
C125 O130 1.235 . S
O126 Fe111 1.976 . S
O126 C120 1.287 . S
O127 Fe113 1.996 . S
O127 C120 1.255 . S
C128 O121 1.287 . S
C128 O122 1.255 . S
O129 Fe111 2.002 . S
O129 C125 1.295 . S
O130 Fe113 1.997 . S
O130 C125 1.235 . S
C131 O114 1.295 . S
C131 O115 1.235 . S
Fe132 O134 1.918 . S
Fe132 O137 1.997 . S
Fe132 O138 2.002 . S
Fe132 O143 1.976 . S
Fe132 O146 1.996 . S
Fe133 O134 1.918 . S
Fe133 O141 1.997 . S
Fe133 O144 1.996 . S
Fe133 O148 1.976 . S
Fe133 O151 2.002 . S
O134 Fe132 1.918 . S
O134 Fe133 1.918 . S
O134 Fe135 1.918 . S
Fe135 O134 1.918 . S
Fe135 O136 2.002 . S
Fe135 O145 1.976 . S
Fe135 O149 1.996 . S
Fe135 O152 1.997 . S
O136 Fe135 2.002 . S
O136 C153 1.295 . S
O137 Fe132 1.997 . S
O137 C153 1.235 . S
O138 Fe132 2.002 . S
O138 C139 1.295 . S
C139 O138 1.295 . S
C139 O141 1.235 . S
C140 O145 1.287 . S
C140 O146 1.255 . S
O141 Fe133 1.997 . S
O141 C139 1.235 . S
C142 O148 1.287 . S
C142 O149 1.255 . S
O143 Fe132 1.976 . S
O143 C150 1.287 . S
O144 Fe133 1.996 . S
O144 C150 1.255 . S
O145 Fe135 1.976 . S
O145 C140 1.287 . S
O146 Fe132 1.996 . S
O146 C140 1.255 . S
C147 O151 1.295 . S
C147 O152 1.235 . S
O148 Fe133 1.976 . S
O148 C142 1.287 . S
O149 Fe135 1.996 . S
O149 C142 1.255 . S
C150 O143 1.287 . S
C150 O144 1.255 . S
O151 Fe133 2.002 . S
O151 C147 1.295 . S
O152 Fe135 1.997 . S
O152 C147 1.235 . S
C153 O136 1.295 . S
C153 O137 1.235 . S
Fe154 O156 1.918 . S
Fe154 O159 1.997 . S
Fe154 O160 2.002 . S
Fe154 O165 1.976 . S
Fe154 O168 1.996 . S
Fe155 O156 1.918 . S
Fe155 O163 1.997 . S
Fe155 O166 1.996 . S
Fe155 O170 1.976 . S
Fe155 O173 2.002 . S
O156 Fe154 1.918 . S
O156 Fe155 1.918 . S
O156 Fe157 1.918 . S
Fe157 O156 1.918 . S
Fe157 O158 2.002 . S
Fe157 O167 1.976 . S
Fe157 O171 1.996 . S
Fe157 O174 1.997 . S
O158 Fe157 2.002 . S
O158 C175 1.295 . S
O159 Fe154 1.997 . S
O159 C175 1.235 . S
O160 Fe154 2.002 . S
O160 C161 1.295 . S
C161 O160 1.295 . S
C161 O163 1.235 . S
C162 O167 1.287 . S
C162 O168 1.255 . S
O163 Fe155 1.997 . S
O163 C161 1.235 . S
C164 O170 1.287 . S
C164 O171 1.255 . S
O165 Fe154 1.976 . S
O165 C172 1.287 . S
O166 Fe155 1.996 . S
O166 C172 1.255 . S
O167 Fe157 1.976 . S
O167 C162 1.287 . S
O168 Fe154 1.996 . S
O168 C162 1.255 . S
C169 O173 1.295 . S
C169 O174 1.235 . S
O170 Fe155 1.976 . S
O170 C164 1.287 . S
O171 Fe157 1.996 . S
O171 C164 1.255 . S
C172 O165 1.287 . S
C172 O166 1.255 . S
O173 Fe155 2.002 . S
O173 C169 1.295 . S
O174 Fe157 1.997 . S
O174 C169 1.235 . S
C175 O158 1.295 . S
C175 O159 1.235 . S
Fe176 O178 1.918 . S
Fe176 O181 1.997 . S
Fe176 O182 2.002 . S
Fe176 O187 1.976 . S
Fe176 O190 1.996 . S
Fe177 O178 1.918 . S
Fe177 O185 1.997 . S
Fe177 O188 1.996 . S
Fe177 O192 1.976 . S
Fe177 O195 2.002 . S
O178 Fe176 1.918 . S
O178 Fe177 1.918 . S
O178 Fe179 1.918 . S
Fe179 O178 1.918 . S
Fe179 O180 2.002 . S
Fe179 O189 1.976 . S
Fe179 O193 1.996 . S
Fe179 O196 1.997 . S
O180 Fe179 2.002 . S
O180 C197 1.295 . S
O181 Fe176 1.997 . S
O181 C197 1.235 . S
O182 Fe176 2.002 . S
O182 C183 1.295 . S
C183 O182 1.295 . S
C183 O185 1.235 . S
C184 O189 1.287 . S
C184 O190 1.255 . S
O185 Fe177 1.997 . S
O185 C183 1.235 . S
C186 O192 1.287 . S
C186 O193 1.255 . S
O187 Fe176 1.976 . S
O187 C194 1.287 . S
O188 Fe177 1.996 . S
O188 C194 1.255 . S
O189 Fe179 1.976 . S
O189 C184 1.287 . S
O190 Fe176 1.996 . S
O190 C184 1.255 . S
C191 O195 1.295 . S
C191 O196 1.235 . S
O192 Fe177 1.976 . S
O192 C186 1.287 . S
O193 Fe179 1.996 . S
O193 C186 1.255 . S
C194 O187 1.287 . S
C194 O188 1.255 . S
O195 Fe177 2.002 . S
O195 C191 1.295 . S
O196 Fe179 1.997 . S
O196 C191 1.235 . S
C197 O180 1.295 . S
C197 O181 1.235 . S
Fe198 O200 1.918 . S
Fe198 O203 1.997 . S
Fe198 O204 2.002 . S
Fe198 O209 1.976 . S
Fe198 O212 1.996 . S
Fe199 O200 1.918 . S
Fe199 O207 1.997 . S
Fe199 O210 1.996 . S
Fe199 O214 1.976 . S
Fe199 O217 2.002 . S
O200 Fe198 1.918 . S
O200 Fe199 1.918 . S
O200 Fe201 1.918 . S
Fe201 O200 1.918 . S
Fe201 O202 2.002 . S
Fe201 O211 1.976 . S
Fe201 O215 1.996 . S
Fe201 O218 1.997 . S
O202 Fe201 2.002 . S
O202 C219 1.295 . S
O203 Fe198 1.997 . S
O203 C219 1.235 . S
O204 Fe198 2.002 . S
O204 C205 1.295 . S
C205 O204 1.295 . S
C205 O207 1.235 . S
C206 O211 1.287 . S
C206 O212 1.255 . S
O207 Fe199 1.997 . S
O207 C205 1.235 . S
C208 O214 1.287 . S
C208 O215 1.255 . S
O209 Fe198 1.976 . S
O209 C216 1.287 . S
O210 Fe199 1.996 . S
O210 C216 1.255 . S
O211 Fe201 1.976 . S
O211 C206 1.287 . S
O212 Fe198 1.996 . S
O212 C206 1.255 . S
C213 O217 1.295 . S
C213 O218 1.235 . S
O214 Fe199 1.976 . S
O214 C208 1.287 . S
O215 Fe201 1.996 . S
O215 C208 1.255 . S
C216 O209 1.287 . S
C216 O210 1.255 . S
O217 Fe199 2.002 . S
O217 C213 1.295 . S
O218 Fe201 1.997 . S
O218 C213 1.235 . S
C219 O202 1.295 . S
C219 O203 1.235 . S
Fe220 O222 1.918 . S
Fe220 O225 1.997 . S
Fe220 O226 2.002 . S
Fe220 O231 1.976 . S
Fe220 O234 1.996 . S
Fe221 O222 1.918 . S
Fe221 O229 1.997 . S
Fe221 O232 1.996 . S
Fe221 O236 1.976 . S
Fe221 O239 2.002 . S
O222 Fe220 1.918 . S
O222 Fe221 1.918 . S
O222 Fe223 1.918 . S
Fe223 O222 1.918 . S
Fe223 O224 2.002 . S
Fe223 O233 1.976 . S
Fe223 O237 1.996 . S
Fe223 O240 1.997 . S
O224 Fe223 2.002 . S
O224 C241 1.295 . S
O225 Fe220 1.997 . S
O225 C241 1.235 . S
O226 Fe220 2.002 . S
O226 C227 1.295 . S
C227 O226 1.295 . S
C227 O229 1.235 . S
C228 O233 1.287 . S
C228 O234 1.255 . S
O229 Fe221 1.997 . S
O229 C227 1.235 . S
C230 O236 1.287 . S
C230 O237 1.255 . S
O231 Fe220 1.976 . S
O231 C238 1.287 . S
O232 Fe221 1.996 . S
O232 C238 1.255 . S
O233 Fe223 1.976 . S
O233 C228 1.287 . S
O234 Fe220 1.996 . S
O234 C228 1.255 . S
C235 O239 1.295 . S
C235 O240 1.235 . S
O236 Fe221 1.976 . S
O236 C230 1.287 . S
O237 Fe223 1.996 . S
O237 C230 1.255 . S
C238 O231 1.287 . S
C238 O232 1.255 . S
O239 Fe221 2.002 . S
O239 C235 1.295 . S
O240 Fe223 1.997 . S
O240 C235 1.235 . S
C241 O224 1.295 . S
C241 O225 1.235 . S
Fe242 O244 1.918 . S
Fe242 O247 1.997 . S
Fe242 O248 2.002 . S
Fe242 O253 1.976 . S
Fe242 O256 1.996 . S
Fe243 O244 1.918 . S
Fe243 O251 1.997 . S
Fe243 O254 1.996 . S
Fe243 O258 1.976 . S
Fe243 O261 2.002 . S
O244 Fe242 1.918 . S
O244 Fe243 1.918 . S
O244 Fe245 1.918 . S
Fe245 O244 1.918 . S
Fe245 O246 2.002 . S
Fe245 O255 1.976 . S
Fe245 O259 1.996 . S
Fe245 O262 1.997 . S
O246 Fe245 2.002 . S
O246 C263 1.295 . S
O247 Fe242 1.997 . S
O247 C263 1.235 . S
O248 Fe242 2.002 . S
O248 C249 1.295 . S
C249 O248 1.295 . S
C249 O251 1.235 . S
C250 O255 1.287 . S
C250 O256 1.255 . S
O251 Fe243 1.997 . S
O251 C249 1.235 . S
C252 O258 1.287 . S
C252 O259 1.255 . S
O253 Fe242 1.976 . S
O253 C260 1.287 . S
O254 Fe243 1.996 . S
O254 C260 1.255 . S
O255 Fe245 1.976 . S
O255 C250 1.287 . S
O256 Fe242 1.996 . S
O256 C250 1.255 . S
C257 O261 1.295 . S
C257 O262 1.235 . S
O258 Fe243 1.976 . S
O258 C252 1.287 . S
O259 Fe245 1.996 . S
O259 C252 1.255 . S
C260 O253 1.287 . S
C260 O254 1.255 . S
O261 Fe243 2.002 . S
O261 C257 1.295 . S
O262 Fe245 1.997 . S
O262 C257 1.235 . S
C263 O246 1.295 . S
C263 O247 1.235 . S
C264 C265 1.170 . S
C264 C266 1.380 . S
C265 C264 1.170 . S
C266 C264 1.380 . S
C266 C267 1.170 . S
C267 C266 1.170 . S
C268 C269 1.170 . S
C268 C270 1.380 . S
C269 C268 1.170 . S
C270 C268 1.380 . S
C270 C271 1.170 . S
C271 C270 1.170 . S
C272 C273 1.170 . S
C272 C274 1.380 . S
C273 C272 1.170 . S
C274 C272 1.380 . S
C274 C275 1.170 . S
C275 C274 1.170 . S
C276 C277 1.170 . S
C276 C278 1.380 . S
C277 C276 1.170 . S
C278 C276 1.380 . S
C278 C279 1.170 . S
C279 C278 1.170 . S
C280 C281 1.170 . S
C280 C282 1.380 . S
C281 C280 1.170 . S
C282 C280 1.380 . S
C282 C283 1.170 . S
C283 C282 1.170 . S
C284 C285 1.170 . S
C284 C286 1.380 . S
C285 C284 1.170 . S
C286 C284 1.380 . S
C286 C287 1.170 . S
C287 C286 1.170 . S
C288 C289 1.170 . S
C288 C290 1.380 . S
C289 C288 1.170 . S
C290 C288 1.380 . S
C290 C291 1.170 . S
C291 C290 1.170 . S
C292 C293 1.170 . S
C292 C294 1.380 . S
C293 C292 1.170 . S
C294 C292 1.380 . S
C294 C295 1.170 . S
C295 C294 1.170 . S
C296 C297 1.170 . S
C296 C298 1.380 . S
C297 C296 1.170 . S
C298 C296 1.380 . S
C298 C299 1.170 . S
C299 C298 1.170 . S
C300 C301 1.170 . S
C300 C302 1.380 . S
C301 C300 1.170 . S
C302 C300 1.380 . S
C302 C303 1.170 . S
C303 C302 1.170 . S
C304 C305 1.170 . S
C304 C306 1.380 . S
C305 C304 1.170 . S
C306 C304 1.380 . S
C306 C307 1.170 . S
C307 C306 1.170 . S
C308 C309 1.170 . S
C308 C310 1.380 . S
C309 C308 1.170 . S
C310 C308 1.380 . S
C310 C311 1.170 . S
C311 C310 1.170 . S
C312 C313 1.170 . S
C312 C314 1.380 . S
C313 C312 1.170 . S
C314 C312 1.380 . S
C314 C315 1.170 . S
C315 C314 1.170 . S
C316 C317 1.170 . S
C316 C318 1.380 . S
C317 C316 1.170 . S
C318 C316 1.380 . S
C318 C319 1.170 . S
C319 C318 1.170 . S
C320 C321 1.170 . S
C320 C322 1.380 . S
C321 C320 1.170 . S
C322 C320 1.380 . S
C322 C323 1.170 . S
C323 C322 1.170 . S
C324 C325 1.170 . S
C324 C326 1.380 . S
C325 C324 1.170 . S
C326 C324 1.380 . S
C326 C327 1.170 . S
C327 C326 1.170 . S
C328 C329 1.170 . S
C328 C330 1.380 . S
C329 C328 1.170 . S
C330 C328 1.380 . S
C330 C331 1.170 . S
C331 C330 1.170 . S
C332 C333 1.170 . S
C332 C334 1.380 . S
C333 C332 1.170 . S
C334 C332 1.380 . S
C334 C335 1.170 . S
C335 C334 1.170 . S
C336 C337 1.170 . S
C336 C338 1.380 . S
C337 C336 1.170 . S
C338 C336 1.380 . S
C338 C339 1.170 . S
C339 C338 1.170 . S
C340 C341 1.170 . S
C340 C342 1.380 . S
C341 C340 1.170 . S
C342 C340 1.380 . S
C342 C343 1.170 . S
C343 C342 1.170 . S
C344 C345 1.170 . S
C344 C346 1.380 . S
C345 C344 1.170 . S
C346 C344 1.380 . S
C346 C347 1.170 . S
C347 C346 1.170 . S
C348 C349 1.170 . S
C348 C350 1.380 . S
C349 C348 1.170 . S
C350 C348 1.380 . S
C350 C351 1.170 . S
C351 C350 1.170 . S
C352 C353 1.170 . S
C352 C354 1.380 . S
C353 C352 1.170 . S
C354 C352 1.380 . S
C354 C355 1.170 . S
C355 C354 1.170 . S
C356 C357 1.170 . S
C356 C358 1.380 . S
C357 C356 1.170 . S
C358 C356 1.380 . S
C358 C359 1.170 . S
C359 C358 1.170 . S
C360 C361 1.170 . S
C360 C362 1.380 1_565 S
C361 C360 1.170 . S
C362 C360 1.380 1_545 S
C362 C363 1.170 . S
C363 C362 1.170 . S
C364 C365 1.170 . S
C364 C366 1.380 1_455 S
C365 C364 1.170 . S
C366 C364 1.380 1_655 S
C366 C367 1.170 . S
C367 C366 1.170 . S
C368 C369 1.170 . S
C368 C370 1.380 1_545 S
C369 C368 1.170 . S
C370 C368 1.380 1_565 S
C370 C371 1.170 . S
C371 C370 1.170 . S
C372 C373 1.170 . S
C372 C374 1.380 1_455 S
C373 C372 1.170 . S
C374 C372 1.380 1_655 S
C374 C375 1.170 . S
C375 C374 1.170 . S
C376 C377 1.170 . S
C376 C378 1.380 1_556 S
C377 C376 1.170 . S
C378 C376 1.380 1_554 S
C378 C379 1.170 . S
C379 C378 1.170 . S
C380 C381 1.170 . S
C380 C382 1.380 1_556 S
C381 C380 1.170 . S
C382 C380 1.380 1_554 S
C382 C383 1.170 . S
C383 C382 1.170 . S
C384 C385 1.170 . S
C384 C386 1.380 1_554 S
C385 C384 1.170 . S
C386 C384 1.380 1_556 S
C386 C387 1.170 . S
C387 C386 1.170 . S
C388 C389 1.170 . S
C388 C390 1.380 1_556 S
C389 C388 1.170 . S
C390 C388 1.380 1_554 S
C390 C391 1.170 . S
C391 C390 1.170 . S
C392 C393 1.170 . S
C392 C394 1.380 1_455 S
C393 C392 1.170 . S
C394 C392 1.380 1_655 S
C394 C395 1.170 . S
C395 C394 1.170 . S
C396 C397 1.170 . S
C396 C398 1.380 1_655 S
C397 C396 1.170 . S
C398 C396 1.380 1_455 S
C398 C399 1.170 . S
C399 C398 1.170 . S
C400 C401 1.170 . S
C400 C402 1.380 1_545 S
C401 C400 1.170 . S
C402 C400 1.380 1_565 S
C402 C403 1.170 . S
C403 C402 1.170 . S
C404 C405 1.170 . S
C404 C406 1.380 1_565 S
C405 C404 1.170 . S
C406 C404 1.380 1_545 S
C406 C407 1.170 . S
C407 C406 1.170 . S
C265 C15 1.436 . S
C267 C164 1.468 . S
C269 C95 1.488 . S
C271 C30 1.505 . S
C273 C54 1.409 . S
C275 C120 1.409 . S
C277 C84 1.483 . S
C279 C147 1.472 . S
C281 C81 1.514 . S
C283 C205 1.525 . S
C285 C18 1.433 . S
C287 C238 1.439 . S
C289 C249 1.523 . S
C291 C29 1.531 . S
C293 C65 1.475 . S
C295 C184 1.486 . S
C297 C103 1.466 . S
C299 C10 1.494 . S
C301 C128 1.485 . S
C303 C43 1.471 . S
C305 C153 1.539 . S
C307 C59 1.531 . S
C309 C73 1.467 . S
C311 C172 1.474 . S
C313 C76 1.428 . S
C315 C186 1.429 . S
C317 C7 1.514 . S
C319 C213 1.506 . S
C321 C228 1.432 . S
C323 C40 1.426 . S
C325 C257 1.468 . S
C327 C52 1.484 . S
C329 C98 1.492 . S
C331 C169 1.472 . S
C333 C216 1.484 . S
C335 C191 1.473 . S
C337 C208 1.489 . S
C339 C227 1.459 . S
C341 C260 1.483 . S
C343 C241 1.472 . S
C345 C252 1.480 . S
C347 C197 1.450 . S
C349 C140 1.481 . S
C351 C125 1.466 . S
C353 C142 1.480 . S
C355 C161 1.465 . S
C357 C106 1.471 . S
C359 C117 1.465 . S
C361 C74 1.470 . S
C363 C8 1.469 . S
C365 C21 1.530 . S
C367 C37 1.535 . S
C369 C32 1.515 . S
C371 C51 1.510 . S
C373 C87 1.492 . S
C375 C62 1.489 . S
C377 C235 1.476 . S
C379 C96 1.486 . S
C381 C250 1.501 . S
C383 C131 1.494 . S
C385 C150 1.503 . S
C387 C183 1.504 . S
C389 C206 1.519 . S
C391 C175 1.523 . S
C393 C162 1.424 . S
C395 C118 1.425 . S
C397 C263 1.548 . S
C399 C219 1.551 . S
C401 C230 1.450 . S
C403 C194 1.448 . S
C405 C139 1.583 . S
C407 C109 1.582 . S
