# Generated by pormake.
# Topology ecf, (8)-cn, num edge types: 1
# Building blocks:
#     Node 0, Type 0, BuildingBlock: LIZSOE_clean_sbu_0, # of connection points: 8
#     Node 1, Type 0, BuildingBlock: LIZSOE_clean_sbu_0, # of connection points: 8
#     Node 2, Type 0, BuildingBlock: LIZSOE_clean_sbu_0, # of connection points: 8
#     Node 3, Type 0, BuildingBlock: LIZSOE_clean_sbu_0, # of connection points: 8
#     Node 4, Type 0, BuildingBlock: LIZSOE_clean_sbu_0, # of connection points: 8
#     Node 5, Type 0, BuildingBlock: LIZSOE_clean_sbu_0, # of connection points: 8
#     Edge 6, Type (0, 0), BuildingBlock: CIFDUS_clean_linker_0, # of connection points: 2
#     Edge 7, Type (0, 0), BuildingBlock: CIFDUS_clean_linker_0, # of connection points: 2
#     Edge 8, Type (0, 0), BuildingBlock: CIFDUS_clean_linker_0, # of connection points: 2
#     Edge 9, Type (0, 0), BuildingBlock: CIFDUS_clean_linker_0, # of connection points: 2
#     Edge 10, Type (0, 0), BuildingBlock: CIFDUS_clean_linker_0, # of connection points: 2
#     Edge 11, Type (0, 0), BuildingBlock: CIFDUS_clean_linker_0, # of connection points: 2
#     Edge 12, Type (0, 0), BuildingBlock: CIFDUS_clean_linker_0, # of connection points: 2
#     Edge 13, Type (0, 0), BuildingBlock: CIFDUS_clean_linker_0, # of connection points: 2
#     Edge 14, Type (0, 0), BuildingBlock: CIFDUS_clean_linker_0, # of connection points: 2
#     Edge 15, Type (0, 0), BuildingBlock: CIFDUS_clean_linker_0, # of connection points: 2
#     Edge 16, Type (0, 0), BuildingBlock: CIFDUS_clean_linker_0, # of connection points: 2
#     Edge 17, Type (0, 0), BuildingBlock: CIFDUS_clean_linker_0, # of connection points: 2
#     Edge 18, Type (0, 0), BuildingBlock: CIFDUS_clean_linker_0, # of connection points: 2
#     Edge 19, Type (0, 0), BuildingBlock: CIFDUS_clean_linker_0, # of connection points: 2
#     Edge 20, Type (0, 0), BuildingBlock: CIFDUS_clean_linker_0, # of connection points: 2
#     Edge 21, Type (0, 0), BuildingBlock: CIFDUS_clean_linker_0, # of connection points: 2
#     Edge 22, Type (0, 0), BuildingBlock: CIFDUS_clean_linker_0, # of connection points: 2
#     Edge 23, Type (0, 0), BuildingBlock: CIFDUS_clean_linker_0, # of connection points: 2
#     Edge 24, Type (0, 0), BuildingBlock: CIFDUS_clean_linker_0, # of connection points: 2
#     Edge 25, Type (0, 0), BuildingBlock: CIFDUS_clean_linker_0, # of connection points: 2
#     Edge 26, Type (0, 0), BuildingBlock: CIFDUS_clean_linker_0, # of connection points: 2
#     Edge 27, Type (0, 0), BuildingBlock: CIFDUS_clean_linker_0, # of connection points: 2
#     Edge 28, Type (0, 0), BuildingBlock: CIFDUS_clean_linker_0, # of connection points: 2
#     Edge 29, Type (0, 0), BuildingBlock: CIFDUS_clean_linker_0, # of connection points: 2
# Relax obj value: 0.284
# Max RMSD: 0.205
# Mean RMSD: 0.201
data_MOF--net-ecf--node1-LIZSOE_clean_sbu_0--edge1-CIFDUS_clean_linker_0
_symmetry_space_group_name_H-M    P1
_symmetry_Int_Tables_number       1
_symmetry_cell_setting            triclinic
loop_
_symmetry_equiv_pos_as_xyz
'x, y, z'
_cell_length_a     33.863909
_cell_length_b     34.052393
_cell_length_c     18.5349
_cell_angle_alpha  89.699368
_cell_angle_beta   90.64045
_cell_angle_gamma 119.97858
loop_
_atom_site_label
_atom_site_type_symbol
_atom_site_fract_x
_atom_site_fract_y
_atom_site_fract_z
_atom_type_partial_charge
Co0 Co 0.07868 0.25818 0.31747 0.0
N1 N 0.04266 0.19738 0.30033 0.0
C2 C 0.04363 0.16492 0.34114 0.0
N3 N 0.99497 0.1296 0.25302 0.0
C4 C 1.01179 0.17474 0.24763 0.0
C5 C 1.01489 0.12351 0.31185 0.0
Co6 Co 0.28579 0.4162 0.28971 0.0
N7 N 0.33835 0.46742 0.32344 0.0
N8 N 0.40608 0.53027 0.34172 0.0
C9 C 0.38139 0.52193 0.40177 0.0
C10 C 0.34007 0.48387 0.39039 0.0
C11 C 0.37933 0.49688 0.29462 0.0
Co12 Co 0.17496 0.34372 0.29617 0.0
C13 C 0.25796 0.38871 0.19178 0.0
H14 H 0.31228 0.47 0.42829 0.0
O15 O 0.11091 0.3153 0.34094 0.0
O16 O 0.18027 0.40212 0.32285 0.0
O17 O 0.14379 0.34348 0.20389 0.0
O18 O 0.17411 0.28804 0.266 0.0
O19 O 0.12469 0.24516 0.34305 0.0
O20 O 0.25446 0.44844 0.30576 0.0
O21 O 0.23801 0.37084 0.25294 0.0
O22 O 0.27547 0.39129 0.38437 0.0
O23 O 0.09363 0.26953 0.21573 0.0
O24 O 0.06851 0.25391 0.40976 0.0
O25 O 0.20143 0.34008 0.39094 0.0
O26 O 0.2918 0.4306 0.19419 0.0
C27 C 0.10877 0.30699 0.1811 0.0
C28 C 0.39327 0.49255 0.2201 0.0
H29 H 0.38075 0.45636 0.20771 0.0
H30 H 0.37767 0.50558 0.18071 0.0
H31 H 0.43088 0.51226 0.21442 0.0
C32 C 0.21499 0.44142 0.32046 0.0
C33 C 0.15965 0.25531 0.30813 0.0
H34 H 0.06331 0.17086 0.39028 0.0
H35 H 0.96471 0.17404 0.16585 0.0
H36 H 1.02363 0.20906 0.14661 0.0
H37 H 0.99795 0.22704 0.21399 0.0
C38 C 0.99831 0.19733 0.19059 0.0
C39 C 0.09125 0.29775 0.40337 0.0
C40 C 0.24192 0.3593 0.41707 0.0
H41 H 1.00672 0.09102 0.33482 0.0
H42 H 0.39179 0.5433 0.4493 0.0
Co43 Co 0.85977 0.07343 0.79029 0.0
N44 N 0.84019 1.01264 0.79402 0.0
C45 C 0.83865 0.99137 0.73221 0.0
N46 N 0.82502 0.94212 0.81944 0.0
C47 C 0.83097 0.98149 0.84627 0.0
C48 C 0.82937 0.94824 0.74746 0.0
Co49 Co 0.85435 0.26522 0.79421 0.0
N50 N 0.88026 0.32849 0.7992 0.0
N51 N 0.88846 0.39803 0.78227 0.0
C52 C 0.9273 0.40281 0.81132 0.0
C53 C 0.92238 0.36037 0.82104 0.0
C54 C 0.8604 0.35238 0.77584 0.0
Co55 Co 0.85113 0.16526 0.78947 0.0
C56 C 0.79753 0.21082 0.83845 0.0
H57 H 0.94834 0.35345 0.8414 0.0
O58 O 0.88218 0.12917 0.78481 0.0
O59 O 0.89888 0.20416 0.86186 0.0
O60 O 0.80974 0.1256 0.87186 0.0
O61 O 0.80322 0.12243 0.71481 0.0
O62 O 0.81059 0.0615 0.73465 0.0
O63 O 0.89692 0.26845 0.86804 0.0
O64 O 0.82265 0.20467 0.79148 0.0
O65 O 0.89737 0.27263 0.72248 0.0
O66 O 0.82672 0.07002 0.87347 0.0
O67 O 0.91074 0.09101 0.84285 0.0
O68 O 0.89334 0.20506 0.70944 0.0
O69 O 0.81185 0.25207 0.86087 0.0
C70 C 0.80695 0.08971 0.90079 0.0
C71 C 0.81228 0.32981 0.74777 0.0
H72 H 0.79214 0.29495 0.76923 0.0
H73 H 0.7956 0.34958 0.76233 0.0
H74 H 0.81251 0.32723 0.68816 0.0
C75 C 0.9133 0.2436 0.88788 0.0
C76 C 0.79042 0.08007 0.7043 0.0
H77 H 0.84647 1.00733 0.67967 0.0
H78 H 0.85251 0.02006 0.94392 0.0
H79 H 0.8178 0.95927 0.95825 0.0
H80 H 0.79155 0.98933 0.92431 0.0
C81 C 0.82346 0.98803 0.92321 0.0
C82 C 0.91603 0.1295 0.81955 0.0
C83 C 0.90985 0.24711 0.69212 0.0
H84 H 0.8302 0.92474 0.70919 0.0
H85 H 0.95766 0.43487 0.82304 0.0
Co86 Co 0.76248 0.79145 0.30438 0.0
N87 N 0.80079 0.77388 0.26542 0.0
C88 C 0.79287 0.74425 0.21138 0.0
N89 N 0.86673 0.77986 0.23271 0.0
C90 C 0.84577 0.79388 0.27891 0.0
C91 C 0.83356 0.74804 0.19094 0.0
Co92 Co 0.63099 0.88236 0.2706 0.0
N93 N 0.58029 0.88698 0.29405 0.0
N94 N 0.51123 0.87823 0.31627 0.0
C95 C 0.54265 0.914 0.35432 0.0
C96 C 0.5847 0.91939 0.3403 0.0
C97 C 0.53498 0.86284 0.27886 0.0
Co98 Co 0.69932 0.84009 0.29093 0.0
C99 C 0.66483 0.8883 0.17916 0.0
H100 H 0.61668 0.94499 0.36359 0.0
O101 O 0.72395 0.80365 0.34598 0.0
O102 O 0.63753 0.79027 0.31235 0.0
O103 O 0.69386 0.81184 0.19212 0.0
O104 O 0.76201 0.8872 0.27032 0.0
O105 O 0.80337 0.85236 0.27818 0.0
O106 O 0.59411 0.81765 0.27354 0.0
O107 O 0.67905 0.88146 0.24223 0.0
O108 O 0.64715 0.88756 0.36966 0.0
O109 O 0.73652 0.78209 0.21623 0.0
O110 O 0.71989 0.73633 0.32826 0.0
O111 O 0.70306 0.87103 0.38571 0.0
O112 O 0.6231 0.88072 0.17547 0.0
C113 C 0.71202 0.78882 0.17298 0.0
C114 C 0.51414 0.82592 0.22344 0.0
H115 H 0.53959 0.82856 0.18396 0.0
H116 H 0.49965 0.79277 0.25115 0.0
H117 H 0.48601 0.82718 0.19421 0.0
C118 C 0.59914 0.78467 0.29325 0.0
C119 C 0.79944 0.88707 0.26502 0.0
H120 H 0.76002 0.72283 0.18609 0.0
H121 H 0.88309 0.86081 0.32445 0.0
H122 H 0.89626 0.82038 0.3644 0.0
H123 H 0.84319 0.81856 0.38435 0.0
C124 C 0.86839 0.82507 0.34181 0.0
C125 C 0.70839 0.76101 0.36617 0.0
C126 C 0.67868 0.88771 0.40799 0.0
H127 H 0.83868 0.73025 0.14704 0.0
H128 H 0.53559 0.93445 0.39074 0.0
Co129 Co 0.97785 0.78631 0.77921 0.0
N130 N 0.03984 0.81999 0.78001 0.0
C131 C 0.07045 0.80989 0.80892 0.0
N132 N 0.10991 0.87645 0.75643 0.0
C133 C 0.06473 0.86027 0.74757 0.0
C134 C 0.11361 0.84499 0.7955 0.0
Co135 Co 0.7732 0.60176 0.79905 0.0
N136 N 0.70902 0.56783 0.79015 0.0
N137 N 0.63853 0.50639 0.77748 0.0
C138 C 0.63549 0.54405 0.76804 0.0
C139 C 0.67864 0.58161 0.77594 0.0
C140 C 0.68338 0.52189 0.79169 0.0
Co141 Co 0.87947 0.6914 0.79419 0.0
C142 C 0.82519 0.59128 0.76381 0.0
H143 H 0.68746 0.61664 0.7692 0.0
O144 O 0.92039 0.75774 0.78067 0.0
O145 O 0.84114 0.70448 0.86125 0.0
O146 O 0.91801 0.69143 0.88282 0.0
O147 O 0.91803 0.67716 0.72587 0.0
O148 O 0.98205 0.7441 0.72833 0.0
O149 O 0.76992 0.64415 0.86373 0.0
O150 O 0.83445 0.62579 0.80564 0.0
O151 O 0.77413 0.63922 0.71808 0.0
O152 O 0.98001 0.75897 0.8645 0.0
O153 O 0.96859 0.82543 0.82925 0.0
O154 O 0.84537 0.69558 0.70776 0.0
O155 O 0.78349 0.5666 0.73998 0.0
C156 C 0.95795 0.72397 0.90283 0.0
C157 C 0.70273 0.49182 0.80948 0.0
H158 H 0.73344 0.51001 0.84452 0.0
H159 H 0.67695 0.46049 0.83692 0.0
H160 H 0.71269 0.48191 0.7589 0.0
C161 C 0.79975 0.68434 0.88361 0.0
C162 C 0.95984 0.70339 0.70799 0.0
H163 H 0.06205 0.77945 0.83905 0.0
H164 H 1.0062 0.86434 0.70976 0.0
H165 H 0.05585 0.89231 0.65377 0.0
H166 H 0.05502 0.91767 0.73793 0.0
C167 C 0.04395 0.8849 0.7103 0.0
C168 C 0.92687 0.79331 0.81668 0.0
C169 C 0.80374 0.67536 0.687 0.0
H170 H 0.14524 0.84835 0.8159 0.0
H171 H 0.60469 0.54436 0.75283 0.0
Co172 Co 0.16381 0.76222 0.28491 0.0
N173 N 0.16197 0.70814 0.3036 0.0
C174 C 0.12912 0.67711 0.3463 0.0
N175 N 0.16807 0.64557 0.30811 0.0
C176 C 0.18501 0.68774 0.27981 0.0
C177 C 0.13305 0.63911 0.34979 0.0
Co178 Co 0.22251 0.97495 0.32859 0.0
N179 N 0.22918 0.02706 0.28877 0.0
N180 N 0.25656 0.10027 0.26213 0.0
C181 C 0.22466 0.07479 0.21256 0.0
C182 C 0.20762 0.03008 0.22938 0.0
C183 C 0.25841 0.0703 0.30818 0.0
Co184 Co 0.19471 0.8687 0.31269 0.0
C185 C 0.26434 0.96162 0.38562 0.0
H186 H 0.18004 1.00157 0.20162 0.0
O187 O 0.16212 0.80918 0.2597 0.0
O188 O 0.22883 0.89707 0.2201 0.0
O189 O 0.24693 0.86254 0.34358 0.0
O190 O 0.16005 0.83591 0.40195 0.0
O191 O 0.15288 0.76741 0.38321 0.0
O192 O 0.23282 0.96207 0.23772 0.0
O193 O 0.22231 0.92805 0.37185 0.0
O194 O 0.15847 0.94531 0.31137 0.0
O195 O 0.22879 0.79493 0.30022 0.0
O196 O 0.1706 0.76119 0.18901 0.0
O197 O 0.14296 0.87548 0.28187 0.0
O198 O 0.28091 0.99689 0.34404 0.0
C199 C 0.25778 0.83329 0.32632 0.0
C200 C 0.28735 0.08319 0.37554 0.0
H201 H 0.31929 0.08295 0.36395 0.0
H202 H 0.2973 0.11779 0.39431 0.0
H203 H 0.26905 0.05831 0.41908 0.0
C204 C 0.23762 0.9356 0.19699 0.0
C205 C 0.14768 0.7952 0.42209 0.0
H206 H 0.1032 0.68153 0.37241 0.0
H207 H 0.20941 0.69532 0.17186 0.0
H208 H 0.24971 0.69953 0.24003 0.0
H209 H 0.2392 0.74574 0.22349 0.0
C210 C 0.22323 0.70856 0.22646 0.0
C211 C 0.1592 0.79241 0.19495 0.0
C212 C 0.13136 0.90545 0.28798 0.0
H213 H 0.11112 0.60849 0.37958 0.0
H214 H 0.21096 0.08772 0.17175 0.0
Co215 Co 0.26737 0.20422 0.78131 0.0
N216 N 0.23509 0.23344 0.75137 0.0
C217 C 0.20825 0.21621 0.69223 0.0
N218 N 0.17524 0.24547 0.75681 0.0
C219 C 0.21463 0.25256 0.78869 0.0
C220 C 0.17265 0.22407 0.69473 0.0
Co221 Co 0.44325 0.18809 0.82604 0.0
N222 N 0.47945 0.16 0.82782 0.0
N223 N 0.5404 0.14946 0.8268 0.0
C224 C 0.50215 0.10865 0.82738 0.0
C225 C 0.46496 0.11515 0.82802 0.0
C226 C 0.52569 0.18 0.82758 0.0
Co227 Co 0.34812 0.19543 0.80967 0.0
C228 C 0.45078 0.24728 0.77895 0.0
H229 H 0.42952 0.08874 0.82714 0.0
O230 O 0.28515 0.1694 0.8048 0.0
O231 O 0.33983 0.15261 0.8895 0.0
O232 O 0.34394 0.23914 0.88524 0.0
O233 O 0.35272 0.23718 0.72444 0.0
O234 O 0.27994 0.19631 0.68848 0.0
O235 O 0.40086 0.14316 0.89304 0.0
O236 O 0.41586 0.22239 0.82062 0.0
O237 O 0.40933 0.14969 0.74603 0.0
O238 O 0.26844 0.21819 0.87778 0.0
O239 O 0.21361 0.14684 0.78671 0.0
O240 O 0.34336 0.14877 0.73593 0.0
O241 O 0.4781 0.23183 0.7644 0.0
C242 C 0.30762 0.23926 0.91014 0.0
C243 C 0.55692 0.23032 0.83053 0.0
H244 H 0.54084 0.24664 0.86075 0.0
H245 H 0.58992 0.23877 0.85655 0.0
H246 H 0.56379 0.244 0.77476 0.0
C247 C 0.36116 0.1332 0.91462 0.0
C248 C 0.32095 0.22722 0.67598 0.0
H249 H 0.20912 0.19218 0.65562 0.0
H250 H 0.22651 0.30984 0.85269 0.0
H251 H 0.2732 0.2981 0.85243 0.0
H252 H 0.22178 0.26274 0.90225 0.0
C253 C 0.23558 0.28269 0.8527 0.0
C254 C 0.24438 0.13631 0.80102 0.0
C255 C 0.37027 0.13461 0.7165 0.0
H256 H 0.14313 0.20834 0.6592 0.0
H257 H 0.50112 0.0764 0.82457 0.0
H258 H 0.22259 0.50157 0.22054 0.0
H259 H 0.19268 0.46646 0.44468 0.0
H260 H 0.17949 0.53039 0.46197 0.0
H261 H 0.17378 0.59404 0.41148 0.0
H262 H 0.19209 0.62135 0.1833 0.0
H263 H 0.21383 0.56361 0.16911 0.0
C264 C 0.21355 0.50844 0.2731 0.0
C265 C 0.20888 0.4803 0.33158 0.0
C266 C 0.20445 0.54394 0.2817 0.0
C267 C 0.19649 0.48829 0.39938 0.0
C268 C 0.18899 0.52463 0.4091 0.0
C269 C 0.18266 0.58734 0.35874 0.0
C270 C 0.18286 0.61301 0.29906 0.0
C271 C 0.19243 0.55232 0.35039 0.0
C272 C 0.1939 0.6038 0.23076 0.0
C273 C 0.20553 0.57014 0.22239 0.0
H274 H 0.58962 0.12491 0.91318 0.0
H275 H 0.59371 0.19229 0.71398 0.0
H276 H 0.67183 0.20875 0.69323 0.0
H277 H 0.74112 0.21005 0.7366 0.0
H278 H 0.74194 0.15195 0.9428 0.0
H279 H 0.65988 0.12423 0.95535 0.0
C280 C 0.60775 0.14291 0.86518 0.0
C281 C 0.58622 0.15785 0.81534 0.0
C282 C 0.65336 0.15324 0.85459 0.0
C283 C 0.6099 0.18115 0.75334 0.0
C284 C 0.65441 0.19027 0.74136 0.0
C285 C 0.72288 0.18987 0.7831 0.0
C286 C 0.7472 0.18164 0.83755 0.0
C287 C 0.67672 0.17709 0.79202 0.0
C288 C 0.72367 0.15731 0.89906 0.0
C289 C 0.67691 0.14222 0.9067 0.0
H290 H 0.42283 0.59397 0.24279 0.0
H291 H 0.48229 0.55892 0.42005 0.0
H292 H 0.54876 0.63558 0.42044 0.0
H293 H 0.5863 0.71403 0.37686 0.0
H294 H 0.52735 0.74943 0.19861 0.0
H295 H 0.4636 0.67165 0.19284 0.0
C296 C 0.45114 0.60303 0.27976 0.0
C297 C 0.44853 0.57115 0.3305 0.0
C298 C 0.48827 0.64751 0.28111 0.0
C299 C 0.48441 0.58314 0.37995 0.0
C300 C 0.52196 0.62693 0.38064 0.0
C301 C 0.55939 0.7047 0.33691 0.0
C302 C 0.56025 0.73789 0.29053 0.0
C303 C 0.52362 0.6597 0.33275 0.0
C304 C 0.52587 0.72514 0.23784 0.0
C305 C 0.48998 0.68043 0.23346 0.0
H306 H 0.91503 0.47606 0.85536 0.0
H307 H 0.84668 0.40483 0.66058 0.0
H308 H 0.82659 0.46268 0.63212 0.0
H309 H 0.82172 0.52937 0.66867 0.0
H310 H 0.89181 0.60258 0.8613 0.0
H311 H 0.92001 0.54986 0.88228 0.0
C312 C 0.89613 0.47348 0.80634 0.0
C313 C 0.8803 0.43468 0.76218 0.0
C314 C 0.88563 0.50776 0.78927 0.0
C315 C 0.85687 0.4326 0.6979 0.0
C316 C 0.84606 0.46622 0.68088 0.0
C317 C 0.84424 0.53461 0.71421 0.0
C318 C 0.85432 0.5699 0.7635 0.0
C319 C 0.85919 0.50331 0.72711 0.0
C320 C 0.88372 0.57615 0.82201 0.0
C321 C 0.89928 0.54543 0.83472 0.0
H322 H 0.29708 0.77965 0.32565 0.0
H323 H 0.32868 0.91926 0.33367 0.0
H324 H 0.40949 0.94498 0.32897 0.0
H325 H 0.47146 0.9287 0.31868 0.0
H326 H 0.44238 0.7903 0.32083 0.0
H327 H 0.36058 0.76329 0.32297 0.0
C328 C 0.32169 0.81562 0.32644 0.0
C329 C 0.30668 0.84731 0.32969 0.0
C330 C 0.36861 0.83052 0.32411 0.0
C331 C 0.3391 0.89392 0.33169 0.0
C332 C 0.38546 0.90885 0.32851 0.0
C333 C 0.44718 0.89263 0.31984 0.0
C334 C 0.46289 0.86163 0.31703 0.0
C335 C 0.40055 0.87753 0.32411 0.0
C336 C 0.43114 0.81492 0.31933 0.0
C337 C 0.38435 0.79947 0.32185 0.0
H338 H 0.51778 0.3025 0.68833 0.0
H339 H 0.43064 0.30545 0.85336 0.0
H340 H 0.47991 0.38791 0.86396 0.0
H341 H 0.55467 0.45807 0.83798 0.0
H342 H 0.64293 0.45128 0.67924 0.0
H343 H 0.58726 0.37178 0.65558 0.0
C344 C 0.50877 0.32118 0.72558 0.0
C345 C 0.47037 0.29735 0.77014 0.0
C346 C 0.53859 0.36808 0.73407 0.0
C347 C 0.45949 0.32254 0.81776 0.0
C348 C 0.48825 0.36979 0.82469 0.0
C349 C 0.56127 0.43907 0.79787 0.0
C350 C 0.6034 0.46022 0.76146 0.0
C351 C 0.52898 0.39272 0.78519 0.0
C352 C 0.61142 0.43543 0.70915 0.0
C353 C 0.57939 0.39007 0.69527 0.0
H354 H 0.23192 0.26396 0.23336 0.0
H355 H 0.14334 0.19303 0.41184 0.0
H356 H 0.18035 0.14839 0.42848 0.0
H357 H 0.225 0.11901 0.37711 0.0
H358 H 0.30099 0.17674 0.18335 0.0
H359 H 0.28365 0.23863 0.18868 0.0
C360 C 0.22105 0.23895 0.27606 0.0
C361 C 0.18442 0.23101 0.32026 0.0
C362 C 0.24082 0.21164 0.28291 0.0
C363 C 0.17078 0.19891 0.37597 0.0
C364 C 0.19218 0.17369 0.38605 0.0
C365 C 0.23985 0.14666 0.33856 0.0
C366 C 0.26437 0.14412 0.28048 0.0
C367 C 0.22576 0.1785 0.33801 0.0
C368 C 0.28241 0.17887 0.22892 0.0
C369 C 0.27172 0.21347 0.23131 0.0
H370 H 0.98847 0.15664 0.91016 0.0
H371 H 0.94958 0.17766 0.6977 0.0
H372 H 0.02903 0.2236 0.665 0.0
H373 H 0.10935 0.25448 0.69304 0.0
H374 H 0.14729 0.21914 0.8955 0.0
H375 H 0.07013 0.18793 0.93879 0.0
C376 C 0.9976 0.17326 0.85799 0.0
C377 C 0.96308 0.16612 0.80801 0.0
C378 C 0.04373 0.19912 0.8387 0.0
C379 C 0.97522 0.18556 0.73911 0.0
C380 C 1.02084 0.21157 0.72 0.0
C381 C 0.10092 0.24106 0.74741 0.0
C382 C 0.13477 0.24035 0.79095 0.0
C383 C 0.05534 0.21866 0.76924 0.0
C384 C 0.12314 0.22234 0.86123 0.0
C385 C 0.07829 0.20298 0.88546 0.0
H386 H 0.98832 0.05575 0.19455 0.0
H387 H 0.91236 0.12192 0.24745 0.0
H388 H 0.84164 0.04971 0.24511 0.0
H389 H 0.80655 0.96902 0.26098 0.0
H390 H 0.88096 0.89975 0.21488 0.0
H391 H 0.94857 0.97236 0.18602 0.0
C392 C 0.95579 0.05411 0.20198 0.0
C393 C 0.95507 0.09355 0.22073 0.0
C394 C 0.91597 1.01212 0.20655 0.0
C395 C 0.91336 0.09197 0.23108 0.0
C396 C 0.87317 0.05057 0.2319 0.0
C397 C 0.8371 0.96938 0.2429 0.0
C398 C 0.83932 0.92937 0.24196 0.0
C399 C 0.87486 1.01055 0.22503 0.0
C400 C 0.87915 0.93051 0.2185 0.0
C401 C 0.91742 0.9718 0.20089 0.0
H402 H 0.78456 0.85457 0.78716 0.0
H403 H 0.88266 0.95601 0.93171 0.0
H404 H 0.91307 0.9073 0.96289 0.0
H405 H 0.92808 0.84896 0.91943 0.0
H406 H 0.84472 0.76073 0.74853 0.0
H407 H 0.79259 0.78946 0.75674 0.0
C408 C 0.81144 0.86497 0.82745 0.0
C409 C 0.83107 0.90855 0.85686 0.0
C410 C 0.83263 0.83926 0.83836 0.0
C411 C 0.86589 0.92216 0.90934 0.0
C412 C 0.88426 0.89471 0.92591 0.0
C413 C 0.89784 0.83531 0.88527 0.0
C414 C 0.8898 0.80206 0.83386 0.0
C415 C 0.8705 0.85521 0.88599 0.0
C416 C 0.85073 0.78482 0.78993 0.0
C417 C 0.82124 0.80197 0.79404 0.0
H418 H 0.93198 0.86728 0.23112 0.0
H419 H 0.90829 0.73101 0.21579 0.0
H420 H 0.99052 0.75968 0.22312 0.0
H421 H 0.0658 0.82117 0.25207 0.0
H422 H 0.09043 0.95778 0.278 0.0
H423 H 1.00972 0.93086 0.25173 0.0
C424 C 0.94498 0.844 0.23044 0.0
C425 C 0.91462 0.79711 0.22624 0.0
C426 C 0.9917 0.86058 0.23822 0.0
C427 C 0.93143 0.76716 0.22044 0.0
C428 C 0.97813 0.7835 0.22521 0.0
C429 C 0.05404 0.84552 0.25114 0.0
C430 C 0.08401 0.89145 0.26773 0.0
C431 C 1.00817 0.82985 0.23706 0.0
C432 C 0.06786 0.9222 0.26627 0.0
C433 C 1.02191 0.90686 0.25103 0.0
H434 H 0.22274 0.08173 0.68783 0.0
H435 H 0.23184 0.08614 0.91872 0.0
H436 H 0.20033 1.00385 0.92407 0.0
H437 H 0.15883 0.93066 0.86304 0.0
H438 H 0.13594 0.92522 0.63369 0.0
H439 H 0.182 1.00811 0.62635 0.0
C440 C 0.21894 0.06441 0.73883 0.0
C441 C 0.23265 0.08926 0.803 0.0
C442 C 0.19679 0.01715 0.7411 0.0
C443 C 0.22552 0.06728 0.86927 0.0
C444 C 0.2062 0.02039 0.872 0.0
C445 C 0.16557 0.94779 0.81134 0.0
C446 C 0.14455 0.92271 0.74898 0.0
C447 C 0.19073 0.99497 0.80828 0.0
C448 C 0.1518 0.94456 0.68218 0.0
C449 C 0.17783 0.99165 0.67818 0.0
H450 H 0.33268 0.39863 0.11765 0.0
H451 H 0.18799 0.30839 0.13757 0.0
H452 H 0.19354 0.25113 0.06722 0.0
H453 H 0.23895 0.2262 0.99942 0.0
H454 H 0.38091 0.32008 0.95972 0.0
H455 H 0.37776 0.37518 1.04141 0.0
C456 C 0.3021 0.36675 0.10588 0.0
C457 C 0.2598 0.35779 0.13542 0.0
C458 C 0.30551 0.33401 0.06324 0.0
C459 C 0.22102 0.31606 0.11857 0.0
C460 C 0.22426 0.28317 0.07784 0.0
C461 C 0.26948 0.25867 1.00871 0.0
C462 C 0.31007 0.26882 0.97231 0.0
C463 C 0.26638 0.29149 0.05077 0.0
C464 C 0.34924 0.31088 0.98668 0.0
C465 C 0.34713 0.34279 1.03251 0.0
H466 H 0.91648 0.26444 0.54502 0.0
H467 H 0.99691 0.28545 0.73705 0.0
H468 H 0.06625 0.31533 0.66565 0.0
H469 H 0.10091 0.32077 0.54599 0.0
H470 H 1.02345 0.31056 0.35433 0.0
H471 H 0.95684 0.2924 0.42724 0.0
C472 C 0.94925 0.27569 0.57099 0.0
C473 C 0.95123 0.26959 0.64601 0.0
C474 C 0.98965 0.2949 0.52935 0.0
C475 C 0.99421 0.28705 0.67918 0.0
C476 C 0.03404 0.30487 0.63831 0.0
C477 C 0.07045 0.31753 0.52039 0.0
C478 C 0.06749 0.31701 0.44444 0.0
C479 C 0.03193 0.30694 0.56293 0.0
C480 C 1.02721 0.31199 0.41256 0.0
C481 C 0.98848 0.30026 0.45431 0.0
H482 H 0.64631 0.93867 0.08103 0.0
H483 H 0.75736 0.92273 0.16061 0.0
H484 H 0.81175 0.99279 0.09969 0.0
H485 H 0.82787 0.05776 1.02102 0.0
H486 H 0.71616 0.06289 0.91755 0.0
H487 H 0.66214 1.0006 0.99474 0.0
C488 C 0.68239 0.95005 0.08532 0.0
C489 C 0.69761 0.92564 0.12935 0.0
C490 C 0.71343 0.9898 0.04747 0.0
C491 C 0.7446 0.94146 0.13152 0.0
C492 C 0.77572 0.98167 0.09617 0.0
C493 C 0.79166 0.04564 1.01605 0.0
C494 C 0.7763 0.06506 0.96289 0.0
C495 C 0.7606 1.00648 0.05478 0.0
C496 C 0.72928 0.04929 0.95817 0.0
C497 C 0.69827 1.01274 1.00118 0.0
H498 H 0.71744 0.64867 0.62792 0.0
H499 H 0.85832 0.75507 0.61701 0.0
H500 H 0.83784 0.79688 0.53278 0.0
H501 H 0.78166 0.802 0.45444 0.0
H502 H 0.64368 0.69126 0.44723 0.0
H503 H 0.66025 0.65437 0.54793 0.0
C504 C 0.74375 0.68088 0.60695 0.0
C505 C 0.78967 0.69815 0.62988 0.0
C506 C 0.73187 0.70497 0.55611 0.0
C507 C 0.82281 0.74026 0.60129 0.0
C508 C 0.81108 0.76468 0.55304 0.0
C509 C 0.75482 0.77053 0.4765 0.0
C510 C 0.71111 0.7503 0.44391 0.0
C511 C 0.76586 0.7474 0.52964 0.0
C512 C 0.67714 0.7087 0.47244 0.0
C513 C 0.68706 0.68692 0.52897 0.0
H514 H 1.01134 0.79723 0.98515 0.0
H515 H 0.96514 0.65433 0.97018 0.0
H516 H 1.02361 0.66383 0.05973 0.0
H517 H 0.09217 0.71415 0.13362 0.0
H518 H 0.14033 0.85772 0.14236 0.0
H519 H 0.07711 0.84666 0.06286 0.0
C520 C 1.0133 0.76774 1.00238 0.0
C521 C 0.98323 0.72479 0.97068 0.0
C522 C 0.04822 0.77398 0.05143 0.0
C523 C 0.98675 0.68738 0.99405 0.0
C524 C 1.02088 0.69314 0.04445 0.0
C525 C 0.08925 0.74329 0.11781 0.0
C526 C 0.12181 0.78713 0.14398 0.0
C527 C 0.05264 0.73651 0.07179 0.0
C528 C 0.11631 0.82388 0.12367 0.0
C529 C 0.08 0.81741 0.07805 0.0
H530 H 0.29208 0.05034 0.6945 0.0
H531 H 0.42155 0.14359 0.60012 0.0
H532 H 0.4039 0.09322 0.49654 0.0
H533 H 0.34968 0.02622 0.42741 0.0
H534 H 0.21851 0.93283 0.51681 0.0
H535 H 0.24151 0.97611 0.63011 0.0
C536 C 0.31618 0.05973 0.65094 0.0
C537 C 0.3577 0.10177 0.65453 0.0
C538 C 0.30604 0.02977 0.59111 0.0
C539 C 0.38918 0.11217 0.59867 0.0
C540 C 0.37915 0.08315 0.53935 0.0
C541 C 0.32587 1.0148 0.47182 0.0
C542 C 0.28185 0.97621 0.46192 0.0
C543 C 0.33744 0.04225 0.53433 0.0
C544 C 0.25236 0.96214 0.52137 0.0
C545 C 0.26487 0.98801 0.58563 0.0
H546 H 0.71383 0.67057 0.91839 0.0
H547 H 0.85722 0.75499 0.96754 0.0
H548 H 0.84137 0.80394 1.04101 0.0
H549 H 0.78798 0.81982 0.10026 0.0
H550 H 0.64405 0.72581 0.08279 0.0
H551 H 0.6582 0.68524 0.98561 0.0
C552 C 0.7415 0.69968 0.94525 0.0
C553 C 0.78707 0.7101 0.93442 0.0
C554 C 0.73186 0.72669 0.99191 0.0
C555 C 0.82219 0.74726 0.97154 0.0
C556 C 0.81315 0.77529 1.01412 0.0
C557 C 0.75947 0.79139 0.07318 0.0
C558 C 0.71499 0.77652 0.09753 0.0
C559 C 0.76829 0.76538 1.02469 0.0
C560 C 0.67849 0.73884 0.06365 0.0
C561 C 0.68682 0.71494 1.0095 0.0
H562 H 0.05814 0.73423 0.42055 0.0
H563 H 0.17198 0.81046 0.56457 0.0
H564 H 0.12295 0.77303 0.66871 0.0
H565 H 0.04698 0.72514 0.71783 0.0
H566 H 0.93026 0.66201 0.57541 0.0
H567 H 0.98116 0.68387 0.47112 0.0
C568 C 0.07199 0.74258 0.47497 0.0
C569 C 0.1183 0.77548 0.48554 0.0
C570 C 0.04325 0.72181 0.53424 0.0
C571 C 0.13629 0.78592 0.55566 0.0
C572 C 0.10839 0.76408 0.61484 0.0
C573 C 0.03269 0.71468 0.66395 0.0
C574 C 0.98481 0.69219 0.6544 0.0
C575 C 0.06178 0.73249 0.60467 0.0
C576 C 0.96675 0.67874 0.58456 0.0
C577 C 0.99595 0.69258 0.52485 0.0
H578 H 0.37498 0.06176 0.95904 0.0
H579 H 0.29263 0.12369 0.99795 0.0
H580 H 0.23847 0.05764 0.06399 0.0
H581 H 0.21441 0.98379 0.11332 0.0
H582 H 0.30847 0.93394 0.12272 0.0
H583 H 0.35621 0.99056 1.03101 0.0
C584 C 0.34557 0.061 0.98305 0.0
C585 C 0.33639 0.09671 0.96911 0.0
C586 C 0.31599 0.02407 1.0279 0.0
C587 C 0.29923 0.09579 1.00362 0.0
C588 C 0.2682 0.05806 1.04209 0.0
C589 C 0.24558 0.98542 0.09603 0.0
C590 C 0.2579 0.95505 0.12568 0.0
C591 C 0.27593 0.02193 0.05373 0.0
C592 C 0.29757 0.95642 0.10015 0.0
C593 C 0.32552 0.98971 0.04929 0.0
H594 H 0.26248 0.20805 0.56651 0.0
H595 H 0.38678 0.3187 0.65351 0.0
H596 H 0.3745 0.37223 0.57885 0.0
H597 H 0.32184 0.3864 0.49724 0.0
H598 H 0.18402 0.27522 0.46722 0.0
H599 H 0.205 0.22365 0.5218 0.0
C600 C 0.2868 0.24403 0.57112 0.0
C601 C 0.3248 0.2591 0.61741 0.0
C602 C 0.2753 0.2746 0.54122 0.0
C603 C 0.35706 0.30577 0.61853 0.0
C604 C 0.34932 0.33646 0.57746 0.0
C605 C 0.29616 0.35107 0.50404 0.0
C606 C 0.25185 0.33444 0.47408 0.0
C607 C 0.30737 0.32129 0.54076 0.0
C608 C 0.21876 0.28894 0.48639 0.0
C609 C 0.23082 0.25905 0.51666 0.0
H610 H 0.10158 0.29386 1.03498 0.0
H611 H 0.04147 0.32339 0.21488 0.0
H612 H 0.97531 0.30896 0.14049 0.0
H613 H 0.93033 0.27931 1.02627 0.0
H614 H 0.99353 0.2547 0.84579 0.0
H615 H 0.06298 0.27802 0.91621 0.0
C616 C 0.07468 0.29857 0.05699 0.0
C617 C 0.07641 0.30987 0.13002 0.0
C618 C 0.0367 0.29037 1.01373 0.0
C619 C 0.04101 0.31524 0.15833 0.0
C620 C 1.00291 0.30651 0.11601 0.0
C621 C 0.95944 0.2793 1.00251 0.0
C622 C 0.95617 0.26352 0.93143 0.0
C623 C 0.99961 0.29261 1.04401 0.0
C624 C 0.99457 0.26481 0.90103 0.0
C625 C 0.03434 0.27813 0.94133 0.0
H626 H 0.74317 0.98895 0.70668 0.0
H627 H 0.76208 0.10231 0.57612 0.0
H628 H 0.72463 0.05031 0.47386 0.0
H629 H 0.69679 0.97442 0.4177 0.0
H630 H 0.69247 0.86603 0.54505 0.0
H631 H 0.7163 0.91495 0.65226 0.0
C632 C 0.73875 1.00261 0.65613 0.0
C633 C 0.75593 0.04995 0.64934 0.0
C634 C 0.72125 0.97343 0.59651 0.0
C635 C 0.74898 0.06634 0.58358 0.0
C636 C 0.72835 0.0366 0.52472 0.0
C637 C 0.70059 0.96143 0.46928 0.0
C638 C 0.69248 0.91643 0.47384 0.0
C639 C 0.71604 0.99045 0.52989 0.0
C640 C 0.69846 0.90031 0.54032 0.0
C641 C 0.71184 0.92825 0.60147 0.0
loop_
_geom_bond_atom_site_label_1
_geom_bond_atom_site_label_2
_geom_bond_distance
_geom_bond_site_symmetry_2
_ccdc_geom_bond_type
Co0 N1 2.034 1_455 S
Co0 O15 2.262 . S
Co0 O19 1.958 . S
Co0 O23 1.950 . S
Co0 O24 2.057 . S
N1 Co0 2.034 1_655 S
N1 C2 1.366 . S
N1 C4 1.332 . S
C2 N1 1.366 . S
C2 C5 1.377 . S
C2 H34 0.931 . S
N3 C4 1.346 . S
N3 C5 1.337 . S
C4 N1 1.332 . S
C4 N3 1.346 . S
C4 C38 1.361 . S
C5 C2 1.377 . S
C5 N3 1.337 . S
C5 H41 0.930 . S
Co6 N7 2.034 . S
Co6 O20 1.950 . S
Co6 O21 2.262 . S
Co6 O22 1.958 . S
Co6 O26 2.057 . S
N7 Co6 2.034 . S
N7 C10 1.366 . S
N7 C11 1.332 . S
N8 C9 1.337 . S
N8 C11 1.346 . S
C9 N8 1.337 . S
C9 C10 1.377 . S
C9 H42 0.930 . S
C10 N7 1.366 . S
C10 C9 1.377 . S
C10 H14 0.931 . S
C11 N7 1.332 . S
C11 N8 1.346 . S
C11 C28 1.361 . S
Co12 O15 2.097 . S
Co12 O16 2.065 . S
Co12 O17 2.065 . S
Co12 O18 2.042 . S
Co12 O21 2.097 . S
Co12 O25 2.042 . S
C13 O21 1.253 . S
C13 O26 1.263 . S
H14 C10 0.931 . S
O15 Co0 2.262 . S
O15 Co12 2.097 . S
O15 C39 1.253 . S
O16 Co12 2.065 . S
O16 C32 1.221 . S
O17 Co12 2.065 . S
O17 C27 1.221 . S
O18 Co12 2.042 . S
O18 C33 1.237 . S
O19 Co0 1.958 . S
O19 C33 1.278 . S
O20 Co6 1.950 . S
O20 C32 1.277 . S
O21 Co6 2.262 . S
O21 Co12 2.097 . S
O21 C13 1.253 . S
O22 Co6 1.958 . S
O22 C40 1.278 . S
O23 Co0 1.950 . S
O23 C27 1.277 . S
O24 Co0 2.057 . S
O24 C39 1.263 . S
O25 Co12 2.042 . S
O25 C40 1.237 . S
O26 Co6 2.057 . S
O26 C13 1.263 . S
C27 O17 1.221 . S
C27 O23 1.277 . S
C28 C11 1.361 . S
C28 H29 0.960 . S
C28 H30 0.961 . S
C28 H31 0.961 . S
H29 C28 0.960 . S
H30 C28 0.961 . S
H31 C28 0.961 . S
C32 O16 1.221 . S
C32 O20 1.277 . S
C33 O18 1.237 . S
C33 O19 1.278 . S
H34 C2 0.931 . S
H35 C38 0.961 . S
H36 C38 0.961 . S
H37 C38 0.960 . S
C38 C4 1.361 . S
C38 H35 0.961 . S
C38 H36 0.961 . S
C38 H37 0.960 . S
C39 O15 1.253 . S
C39 O24 1.263 . S
C40 O22 1.278 . S
C40 O25 1.237 . S
H41 C5 0.930 . S
H42 C9 0.930 . S
Co43 N44 2.034 1_545 S
Co43 O58 2.262 . S
Co43 O62 1.958 . S
Co43 O66 1.950 . S
Co43 O67 2.057 . S
N44 Co43 2.034 1_565 S
N44 C45 1.366 . S
N44 C47 1.332 . S
C45 N44 1.366 . S
C45 C48 1.377 . S
C45 H77 0.931 . S
N46 C47 1.346 . S
N46 C48 1.337 . S
C47 N44 1.332 . S
C47 N46 1.346 . S
C47 C81 1.361 . S
C48 C45 1.377 . S
C48 N46 1.337 . S
C48 H84 0.930 . S
Co49 N50 2.034 . S
Co49 O63 1.950 . S
Co49 O64 2.262 . S
Co49 O65 1.958 . S
Co49 O69 2.057 . S
N50 Co49 2.034 . S
N50 C53 1.366 . S
N50 C54 1.332 . S
N51 C52 1.337 . S
N51 C54 1.346 . S
C52 N51 1.337 . S
C52 C53 1.377 . S
C52 H85 0.930 . S
C53 N50 1.366 . S
C53 C52 1.377 . S
C53 H57 0.931 . S
C54 N50 1.332 . S
C54 N51 1.346 . S
C54 C71 1.361 . S
Co55 O58 2.097 . S
Co55 O59 2.065 . S
Co55 O60 2.065 . S
Co55 O61 2.042 . S
Co55 O64 2.097 . S
Co55 O68 2.042 . S
C56 O64 1.253 . S
C56 O69 1.263 . S
H57 C53 0.931 . S
O58 Co43 2.262 . S
O58 Co55 2.097 . S
O58 C82 1.253 . S
O59 Co55 2.065 . S
O59 C75 1.221 . S
O60 Co55 2.065 . S
O60 C70 1.221 . S
O61 Co55 2.042 . S
O61 C76 1.237 . S
O62 Co43 1.958 . S
O62 C76 1.278 . S
O63 Co49 1.950 . S
O63 C75 1.277 . S
O64 Co49 2.262 . S
O64 Co55 2.097 . S
O64 C56 1.253 . S
O65 Co49 1.958 . S
O65 C83 1.278 . S
O66 Co43 1.950 . S
O66 C70 1.277 . S
O67 Co43 2.057 . S
O67 C82 1.263 . S
O68 Co55 2.042 . S
O68 C83 1.237 . S
O69 Co49 2.057 . S
O69 C56 1.263 . S
C70 O60 1.221 . S
C70 O66 1.277 . S
C71 C54 1.361 . S
C71 H72 0.960 . S
C71 H73 0.961 . S
C71 H74 0.961 . S
H72 C71 0.960 . S
H73 C71 0.961 . S
H74 C71 0.961 . S
C75 O59 1.221 . S
C75 O63 1.277 . S
C76 O61 1.237 . S
C76 O62 1.278 . S
H77 C45 0.931 . S
H78 C81 0.961 . S
H79 C81 0.961 . S
H80 C81 0.960 . S
C81 C47 1.361 . S
C81 H78 0.961 . S
C81 H79 0.961 . S
C81 H80 0.960 . S
C82 O58 1.253 . S
C82 O67 1.263 . S
C83 O65 1.278 . S
C83 O68 1.237 . S
H84 C48 0.930 . S
H85 C52 0.930 . S
Co86 N87 2.034 . S
Co86 O101 2.262 . S
Co86 O105 1.958 . S
Co86 O109 1.950 . S
Co86 O110 2.057 . S
N87 Co86 2.034 . S
N87 C88 1.366 . S
N87 C90 1.332 . S
C88 N87 1.366 . S
C88 C91 1.377 . S
C88 H120 0.931 . S
N89 C90 1.346 . S
N89 C91 1.337 . S
C90 N87 1.332 . S
C90 N89 1.346 . S
C90 C124 1.361 . S
C91 C88 1.377 . S
C91 N89 1.337 . S
C91 H127 0.930 . S
Co92 N93 2.034 . S
Co92 O106 1.950 . S
Co92 O107 2.262 . S
Co92 O108 1.958 . S
Co92 O112 2.057 . S
N93 Co92 2.034 . S
N93 C96 1.366 . S
N93 C97 1.332 . S
N94 C95 1.337 . S
N94 C97 1.346 . S
C95 N94 1.337 . S
C95 C96 1.377 . S
C95 H128 0.930 . S
C96 N93 1.366 . S
C96 C95 1.377 . S
C96 H100 0.931 . S
C97 N93 1.332 . S
C97 N94 1.346 . S
C97 C114 1.361 . S
Co98 O101 2.097 . S
Co98 O102 2.065 . S
Co98 O103 2.065 . S
Co98 O104 2.042 . S
Co98 O107 2.097 . S
Co98 O111 2.042 . S
C99 O107 1.253 . S
C99 O112 1.263 . S
H100 C96 0.931 . S
O101 Co86 2.262 . S
O101 Co98 2.097 . S
O101 C125 1.253 . S
O102 Co98 2.065 . S
O102 C118 1.221 . S
O103 Co98 2.065 . S
O103 C113 1.221 . S
O104 Co98 2.042 . S
O104 C119 1.237 . S
O105 Co86 1.958 . S
O105 C119 1.278 . S
O106 Co92 1.950 . S
O106 C118 1.277 . S
O107 Co92 2.262 . S
O107 Co98 2.097 . S
O107 C99 1.253 . S
O108 Co92 1.958 . S
O108 C126 1.278 . S
O109 Co86 1.950 . S
O109 C113 1.277 . S
O110 Co86 2.057 . S
O110 C125 1.263 . S
O111 Co98 2.042 . S
O111 C126 1.237 . S
O112 Co92 2.057 . S
O112 C99 1.263 . S
C113 O103 1.221 . S
C113 O109 1.277 . S
C114 C97 1.361 . S
C114 H115 0.960 . S
C114 H116 0.961 . S
C114 H117 0.961 . S
H115 C114 0.960 . S
H116 C114 0.961 . S
H117 C114 0.961 . S
C118 O102 1.221 . S
C118 O106 1.277 . S
C119 O104 1.237 . S
C119 O105 1.278 . S
H120 C88 0.931 . S
H121 C124 0.961 . S
H122 C124 0.961 . S
H123 C124 0.960 . S
C124 C90 1.361 . S
C124 H121 0.961 . S
C124 H122 0.961 . S
C124 H123 0.960 . S
C125 O101 1.253 . S
C125 O110 1.263 . S
C126 O108 1.278 . S
C126 O111 1.237 . S
H127 C91 0.930 . S
H128 C95 0.930 . S
Co129 N130 2.034 1_655 S
Co129 O144 2.262 . S
Co129 O148 1.958 . S
Co129 O152 1.950 . S
Co129 O153 2.057 . S
N130 Co129 2.034 1_455 S
N130 C131 1.366 . S
N130 C133 1.332 . S
C131 N130 1.366 . S
C131 C134 1.377 . S
C131 H163 0.931 . S
N132 C133 1.346 . S
N132 C134 1.337 . S
C133 N130 1.332 . S
C133 N132 1.346 . S
C133 C167 1.361 . S
C134 C131 1.377 . S
C134 N132 1.337 . S
C134 H170 0.930 . S
Co135 N136 2.034 . S
Co135 O149 1.950 . S
Co135 O150 2.262 . S
Co135 O151 1.958 . S
Co135 O155 2.057 . S
N136 Co135 2.034 . S
N136 C139 1.366 . S
N136 C140 1.332 . S
N137 C138 1.337 . S
N137 C140 1.346 . S
C138 N137 1.337 . S
C138 C139 1.377 . S
C138 H171 0.930 . S
C139 N136 1.366 . S
C139 C138 1.377 . S
C139 H143 0.931 . S
C140 N136 1.332 . S
C140 N137 1.346 . S
C140 C157 1.361 . S
Co141 O144 2.097 . S
Co141 O145 2.065 . S
Co141 O146 2.065 . S
Co141 O147 2.042 . S
Co141 O150 2.097 . S
Co141 O154 2.042 . S
C142 O150 1.253 . S
C142 O155 1.263 . S
H143 C139 0.931 . S
O144 Co129 2.262 . S
O144 Co141 2.097 . S
O144 C168 1.253 . S
O145 Co141 2.065 . S
O145 C161 1.221 . S
O146 Co141 2.065 . S
O146 C156 1.221 . S
O147 Co141 2.042 . S
O147 C162 1.237 . S
O148 Co129 1.958 . S
O148 C162 1.278 . S
O149 Co135 1.950 . S
O149 C161 1.277 . S
O150 Co135 2.262 . S
O150 Co141 2.097 . S
O150 C142 1.253 . S
O151 Co135 1.958 . S
O151 C169 1.278 . S
O152 Co129 1.950 . S
O152 C156 1.277 . S
O153 Co129 2.057 . S
O153 C168 1.263 . S
O154 Co141 2.042 . S
O154 C169 1.237 . S
O155 Co135 2.057 . S
O155 C142 1.263 . S
C156 O146 1.221 . S
C156 O152 1.277 . S
C157 C140 1.361 . S
C157 H158 0.960 . S
C157 H159 0.961 . S
C157 H160 0.961 . S
H158 C157 0.960 . S
H159 C157 0.961 . S
H160 C157 0.961 . S
C161 O145 1.221 . S
C161 O149 1.277 . S
C162 O147 1.237 . S
C162 O148 1.278 . S
H163 C131 0.931 . S
H164 C167 0.961 . S
H165 C167 0.961 . S
H166 C167 0.960 . S
C167 C133 1.361 . S
C167 H164 0.961 . S
C167 H165 0.961 . S
C167 H166 0.960 . S
C168 O144 1.253 . S
C168 O153 1.263 . S
C169 O151 1.278 . S
C169 O154 1.237 . S
H170 C134 0.930 . S
H171 C138 0.930 . S
Co172 N173 2.034 . S
Co172 O187 2.262 . S
Co172 O191 1.958 . S
Co172 O195 1.950 . S
Co172 O196 2.057 . S
N173 Co172 2.034 . S
N173 C174 1.366 . S
N173 C176 1.332 . S
C174 N173 1.366 . S
C174 C177 1.377 . S
C174 H206 0.931 . S
N175 C176 1.346 . S
N175 C177 1.337 . S
C176 N173 1.332 . S
C176 N175 1.346 . S
C176 C210 1.361 . S
C177 C174 1.377 . S
C177 N175 1.337 . S
C177 H213 0.930 . S
Co178 N179 2.034 1_565 S
Co178 O192 1.950 . S
Co178 O193 2.262 . S
Co178 O194 1.958 . S
Co178 O198 2.057 . S
N179 Co178 2.034 1_545 S
N179 C182 1.366 . S
N179 C183 1.332 . S
N180 C181 1.337 . S
N180 C183 1.346 . S
C181 N180 1.337 . S
C181 C182 1.377 . S
C181 H214 0.930 . S
C182 N179 1.366 . S
C182 C181 1.377 . S
C182 H186 0.931 . S
C183 N179 1.332 . S
C183 N180 1.346 . S
C183 C200 1.361 . S
Co184 O187 2.097 . S
Co184 O188 2.065 . S
Co184 O189 2.065 . S
Co184 O190 2.042 . S
Co184 O193 2.097 . S
Co184 O197 2.042 . S
C185 O193 1.253 . S
C185 O198 1.263 . S
H186 C182 0.931 . S
O187 Co172 2.262 . S
O187 Co184 2.097 . S
O187 C211 1.253 . S
O188 Co184 2.065 . S
O188 C204 1.221 . S
O189 Co184 2.065 . S
O189 C199 1.221 . S
O190 Co184 2.042 . S
O190 C205 1.237 . S
O191 Co172 1.958 . S
O191 C205 1.278 . S
O192 Co178 1.950 . S
O192 C204 1.277 . S
O193 Co178 2.262 . S
O193 Co184 2.097 . S
O193 C185 1.253 . S
O194 Co178 1.958 . S
O194 C212 1.278 . S
O195 Co172 1.950 . S
O195 C199 1.277 . S
O196 Co172 2.057 . S
O196 C211 1.263 . S
O197 Co184 2.042 . S
O197 C212 1.237 . S
O198 Co178 2.057 . S
O198 C185 1.263 . S
C199 O189 1.221 . S
C199 O195 1.277 . S
C200 C183 1.361 . S
C200 H201 0.960 . S
C200 H202 0.961 . S
C200 H203 0.961 . S
H201 C200 0.960 . S
H202 C200 0.961 . S
H203 C200 0.961 . S
C204 O188 1.221 . S
C204 O192 1.277 . S
C205 O190 1.237 . S
C205 O191 1.278 . S
H206 C174 0.931 . S
H207 C210 0.961 . S
H208 C210 0.961 . S
H209 C210 0.960 . S
C210 C176 1.361 . S
C210 H207 0.961 . S
C210 H208 0.961 . S
C210 H209 0.960 . S
C211 O187 1.253 . S
C211 O196 1.263 . S
C212 O194 1.278 . S
C212 O197 1.237 . S
H213 C177 0.930 . S
H214 C181 0.930 . S
Co215 N216 2.034 . S
Co215 O230 2.262 . S
Co215 O234 1.958 . S
Co215 O238 1.950 . S
Co215 O239 2.057 . S
N216 Co215 2.034 . S
N216 C217 1.366 . S
N216 C219 1.332 . S
C217 N216 1.366 . S
C217 C220 1.377 . S
C217 H249 0.931 . S
N218 C219 1.346 . S
N218 C220 1.337 . S
C219 N216 1.332 . S
C219 N218 1.346 . S
C219 C253 1.361 . S
C220 C217 1.377 . S
C220 N218 1.337 . S
C220 H256 0.930 . S
Co221 N222 2.034 . S
Co221 O235 1.950 . S
Co221 O236 2.262 . S
Co221 O237 1.958 . S
Co221 O241 2.057 . S
N222 Co221 2.034 . S
N222 C225 1.366 . S
N222 C226 1.332 . S
N223 C224 1.337 . S
N223 C226 1.346 . S
C224 N223 1.337 . S
C224 C225 1.377 . S
C224 H257 0.930 . S
C225 N222 1.366 . S
C225 C224 1.377 . S
C225 H229 0.931 . S
C226 N222 1.332 . S
C226 N223 1.346 . S
C226 C243 1.361 . S
Co227 O230 2.097 . S
Co227 O231 2.065 . S
Co227 O232 2.065 . S
Co227 O233 2.042 . S
Co227 O236 2.097 . S
Co227 O240 2.042 . S
C228 O236 1.253 . S
C228 O241 1.263 . S
H229 C225 0.931 . S
O230 Co215 2.262 . S
O230 Co227 2.097 . S
O230 C254 1.253 . S
O231 Co227 2.065 . S
O231 C247 1.221 . S
O232 Co227 2.065 . S
O232 C242 1.221 . S
O233 Co227 2.042 . S
O233 C248 1.237 . S
O234 Co215 1.958 . S
O234 C248 1.278 . S
O235 Co221 1.950 . S
O235 C247 1.277 . S
O236 Co221 2.262 . S
O236 Co227 2.097 . S
O236 C228 1.253 . S
O237 Co221 1.958 . S
O237 C255 1.278 . S
O238 Co215 1.950 . S
O238 C242 1.277 . S
O239 Co215 2.057 . S
O239 C254 1.263 . S
O240 Co227 2.042 . S
O240 C255 1.237 . S
O241 Co221 2.057 . S
O241 C228 1.263 . S
C242 O232 1.221 . S
C242 O238 1.277 . S
C243 C226 1.361 . S
C243 H244 0.960 . S
C243 H245 0.961 . S
C243 H246 0.961 . S
H244 C243 0.960 . S
H245 C243 0.961 . S
H246 C243 0.961 . S
C247 O231 1.221 . S
C247 O235 1.277 . S
C248 O233 1.237 . S
C248 O234 1.278 . S
H249 C217 0.931 . S
H250 C253 0.961 . S
H251 C253 0.961 . S
H252 C253 0.960 . S
C253 C219 1.361 . S
C253 H250 0.961 . S
C253 H251 0.961 . S
C253 H252 0.960 . S
C254 O230 1.253 . S
C254 O239 1.263 . S
C255 O237 1.278 . S
C255 O240 1.237 . S
H256 C220 0.930 . S
H257 C224 0.930 . S
H258 C264 0.930 . S
H259 C267 0.930 . S
H260 C268 0.930 . S
H261 C269 0.930 . S
H262 C272 0.930 . S
H263 C273 0.930 . S
C264 H258 0.930 . S
C264 C265 1.355 . S
C264 C266 1.415 . S
C265 C264 1.355 . S
C265 C267 1.419 . S
C266 C264 1.415 . S
C266 C271 1.425 . S
C266 C273 1.409 . S
C267 H259 0.930 . S
C267 C265 1.419 . S
C267 C268 1.362 . S
C268 H260 0.930 . S
C268 C267 1.362 . S
C268 C271 1.409 . S
C269 H261 0.930 . S
C269 C270 1.355 . S
C269 C271 1.415 . S
C270 C269 1.355 . S
C270 C272 1.419 . S
C271 C266 1.425 . S
C271 C268 1.409 . S
C271 C269 1.415 . S
C272 H262 0.930 . S
C272 C270 1.419 . S
C272 C273 1.362 . S
C273 H263 0.930 . S
C273 C266 1.409 . S
C273 C272 1.362 . S
H274 C280 0.930 . S
H275 C283 0.930 . S
H276 C284 0.930 . S
H277 C285 0.930 . S
H278 C288 0.930 . S
H279 C289 0.930 . S
C280 H274 0.930 . S
C280 C281 1.355 . S
C280 C282 1.415 . S
C281 C280 1.355 . S
C281 C283 1.419 . S
C282 C280 1.415 . S
C282 C287 1.425 . S
C282 C289 1.409 . S
C283 H275 0.930 . S
C283 C281 1.419 . S
C283 C284 1.362 . S
C284 H276 0.930 . S
C284 C283 1.362 . S
C284 C287 1.409 . S
C285 H277 0.930 . S
C285 C286 1.355 . S
C285 C287 1.415 . S
C286 C285 1.355 . S
C286 C288 1.419 . S
C287 C282 1.425 . S
C287 C284 1.409 . S
C287 C285 1.415 . S
C288 H278 0.930 . S
C288 C286 1.419 . S
C288 C289 1.362 . S
C289 H279 0.930 . S
C289 C282 1.409 . S
C289 C288 1.362 . S
H290 C296 0.930 . S
H291 C299 0.930 . S
H292 C300 0.930 . S
H293 C301 0.930 . S
H294 C304 0.930 . S
H295 C305 0.930 . S
C296 H290 0.930 . S
C296 C297 1.355 . S
C296 C298 1.415 . S
C297 C296 1.355 . S
C297 C299 1.419 . S
C298 C296 1.415 . S
C298 C303 1.425 . S
C298 C305 1.409 . S
C299 H291 0.930 . S
C299 C297 1.419 . S
C299 C300 1.362 . S
C300 H292 0.930 . S
C300 C299 1.362 . S
C300 C303 1.409 . S
C301 H293 0.930 . S
C301 C302 1.355 . S
C301 C303 1.415 . S
C302 C301 1.355 . S
C302 C304 1.419 . S
C303 C298 1.425 . S
C303 C300 1.409 . S
C303 C301 1.415 . S
C304 H294 0.930 . S
C304 C302 1.419 . S
C304 C305 1.362 . S
C305 H295 0.930 . S
C305 C298 1.409 . S
C305 C304 1.362 . S
H306 C312 0.930 . S
H307 C315 0.930 . S
H308 C316 0.930 . S
H309 C317 0.930 . S
H310 C320 0.930 . S
H311 C321 0.930 . S
C312 H306 0.930 . S
C312 C313 1.355 . S
C312 C314 1.415 . S
C313 C312 1.355 . S
C313 C315 1.419 . S
C314 C312 1.415 . S
C314 C319 1.425 . S
C314 C321 1.409 . S
C315 H307 0.930 . S
C315 C313 1.419 . S
C315 C316 1.362 . S
C316 H308 0.930 . S
C316 C315 1.362 . S
C316 C319 1.409 . S
C317 H309 0.930 . S
C317 C318 1.355 . S
C317 C319 1.415 . S
C318 C317 1.355 . S
C318 C320 1.419 . S
C319 C314 1.425 . S
C319 C316 1.409 . S
C319 C317 1.415 . S
C320 H310 0.930 . S
C320 C318 1.419 . S
C320 C321 1.362 . S
C321 H311 0.930 . S
C321 C314 1.409 . S
C321 C320 1.362 . S
H322 C328 0.930 . S
H323 C331 0.930 . S
H324 C332 0.930 . S
H325 C333 0.930 . S
H326 C336 0.930 . S
H327 C337 0.930 . S
C328 H322 0.930 . S
C328 C329 1.355 . S
C328 C330 1.415 . S
C329 C328 1.355 . S
C329 C331 1.419 . S
C330 C328 1.415 . S
C330 C335 1.425 . S
C330 C337 1.409 . S
C331 H323 0.930 . S
C331 C329 1.419 . S
C331 C332 1.362 . S
C332 H324 0.930 . S
C332 C331 1.362 . S
C332 C335 1.409 . S
C333 H325 0.930 . S
C333 C334 1.355 . S
C333 C335 1.415 . S
C334 C333 1.355 . S
C334 C336 1.419 . S
C335 C330 1.425 . S
C335 C332 1.409 . S
C335 C333 1.415 . S
C336 H326 0.930 . S
C336 C334 1.419 . S
C336 C337 1.362 . S
C337 H327 0.930 . S
C337 C330 1.409 . S
C337 C336 1.362 . S
H338 C344 0.930 . S
H339 C347 0.930 . S
H340 C348 0.930 . S
H341 C349 0.930 . S
H342 C352 0.930 . S
H343 C353 0.930 . S
C344 H338 0.930 . S
C344 C345 1.355 . S
C344 C346 1.415 . S
C345 C344 1.355 . S
C345 C347 1.419 . S
C346 C344 1.415 . S
C346 C351 1.425 . S
C346 C353 1.409 . S
C347 H339 0.930 . S
C347 C345 1.419 . S
C347 C348 1.362 . S
C348 H340 0.930 . S
C348 C347 1.362 . S
C348 C351 1.409 . S
C349 H341 0.930 . S
C349 C350 1.355 . S
C349 C351 1.415 . S
C350 C349 1.355 . S
C350 C352 1.419 . S
C351 C346 1.425 . S
C351 C348 1.409 . S
C351 C349 1.415 . S
C352 H342 0.930 . S
C352 C350 1.419 . S
C352 C353 1.362 . S
C353 H343 0.930 . S
C353 C346 1.409 . S
C353 C352 1.362 . S
H354 C360 0.930 . S
H355 C363 0.930 . S
H356 C364 0.930 . S
H357 C365 0.930 . S
H358 C368 0.930 . S
H359 C369 0.930 . S
C360 H354 0.930 . S
C360 C361 1.355 . S
C360 C362 1.415 . S
C361 C360 1.355 . S
C361 C363 1.419 . S
C362 C360 1.415 . S
C362 C367 1.425 . S
C362 C369 1.409 . S
C363 H355 0.930 . S
C363 C361 1.419 . S
C363 C364 1.362 . S
C364 H356 0.930 . S
C364 C363 1.362 . S
C364 C367 1.409 . S
C365 H357 0.930 . S
C365 C366 1.355 . S
C365 C367 1.415 . S
C366 C365 1.355 . S
C366 C368 1.419 . S
C367 C362 1.425 . S
C367 C364 1.409 . S
C367 C365 1.415 . S
C368 H358 0.930 . S
C368 C366 1.419 . S
C368 C369 1.362 . S
C369 H359 0.930 . S
C369 C362 1.409 . S
C369 C368 1.362 . S
H370 C376 0.930 . S
H371 C379 0.930 . S
H372 C380 0.930 . S
H373 C381 0.930 . S
H374 C384 0.930 . S
H375 C385 0.930 . S
C376 H370 0.930 . S
C376 C377 1.355 . S
C376 C378 1.415 . S
C377 C376 1.355 . S
C377 C379 1.419 . S
C378 C376 1.415 . S
C378 C383 1.425 1_655 S
C378 C385 1.409 1_655 S
C379 H371 0.930 . S
C379 C377 1.419 . S
C379 C380 1.362 . S
C380 H372 0.930 . S
C380 C379 1.362 . S
C380 C383 1.409 1_655 S
C381 H373 0.930 . S
C381 C382 1.355 . S
C381 C383 1.415 . S
C382 C381 1.355 . S
C382 C384 1.419 . S
C383 C378 1.425 1_455 S
C383 C380 1.409 1_455 S
C383 C381 1.415 . S
C384 H374 0.930 . S
C384 C382 1.419 . S
C384 C385 1.362 . S
C385 H375 0.930 . S
C385 C378 1.409 1_455 S
C385 C384 1.362 . S
H386 C392 0.930 . S
H387 C395 0.930 . S
H388 C396 0.930 . S
H389 C397 0.930 . S
H390 C400 0.930 . S
H391 C401 0.930 . S
C392 H386 0.930 . S
C392 C393 1.355 . S
C392 C394 1.415 . S
C393 C392 1.355 . S
C393 C395 1.419 . S
C394 C392 1.415 . S
C394 C399 1.425 1_545 S
C394 C401 1.409 1_545 S
C395 H387 0.930 . S
C395 C393 1.419 . S
C395 C396 1.362 . S
C396 H388 0.930 . S
C396 C395 1.362 . S
C396 C399 1.409 1_545 S
C397 H389 0.930 . S
C397 C398 1.355 . S
C397 C399 1.415 . S
C398 C397 1.355 . S
C398 C400 1.419 . S
C399 C394 1.425 1_565 S
C399 C396 1.409 1_565 S
C399 C397 1.415 . S
C400 H390 0.930 . S
C400 C398 1.419 . S
C400 C401 1.362 . S
C401 H391 0.930 . S
C401 C394 1.409 1_565 S
C401 C400 1.362 . S
H402 C408 0.930 . S
H403 C411 0.930 . S
H404 C412 0.930 . S
H405 C413 0.930 . S
H406 C416 0.930 . S
H407 C417 0.930 . S
C408 H402 0.930 . S
C408 C409 1.355 . S
C408 C410 1.415 . S
C409 C408 1.355 . S
C409 C411 1.419 . S
C410 C408 1.415 . S
C410 C415 1.425 . S
C410 C417 1.409 . S
C411 H403 0.930 . S
C411 C409 1.419 . S
C411 C412 1.362 . S
C412 H404 0.930 . S
C412 C411 1.362 . S
C412 C415 1.409 . S
C413 H405 0.930 . S
C413 C414 1.355 . S
C413 C415 1.415 . S
C414 C413 1.355 . S
C414 C416 1.419 . S
C415 C410 1.425 . S
C415 C412 1.409 . S
C415 C413 1.415 . S
C416 H406 0.930 . S
C416 C414 1.419 . S
C416 C417 1.362 . S
C417 H407 0.930 . S
C417 C410 1.409 . S
C417 C416 1.362 . S
H418 C424 0.930 . S
H419 C427 0.930 . S
H420 C428 0.930 . S
H421 C429 0.930 . S
H422 C432 0.930 . S
H423 C433 0.930 . S
C424 H418 0.930 . S
C424 C425 1.355 . S
C424 C426 1.415 . S
C425 C424 1.355 . S
C425 C427 1.419 . S
C426 C424 1.415 . S
C426 C431 1.425 1_655 S
C426 C433 1.409 1_655 S
C427 H419 0.930 . S
C427 C425 1.419 . S
C427 C428 1.362 . S
C428 H420 0.930 . S
C428 C427 1.362 . S
C428 C431 1.409 1_655 S
C429 H421 0.930 . S
C429 C430 1.355 . S
C429 C431 1.415 . S
C430 C429 1.355 . S
C430 C432 1.419 . S
C431 C426 1.425 1_455 S
C431 C428 1.409 1_455 S
C431 C429 1.415 . S
C432 H422 0.930 . S
C432 C430 1.419 . S
C432 C433 1.362 . S
C433 H423 0.930 . S
C433 C426 1.409 1_455 S
C433 C432 1.362 . S
H434 C440 0.930 . S
H435 C443 0.930 . S
H436 C444 0.930 . S
H437 C445 0.930 . S
H438 C448 0.930 . S
H439 C449 0.930 . S
C440 H434 0.930 . S
C440 C441 1.355 . S
C440 C442 1.415 . S
C441 C440 1.355 . S
C441 C443 1.419 . S
C442 C440 1.415 . S
C442 C447 1.421 1_545 S
C442 C449 1.409 1_545 S
C443 H435 0.930 . S
C443 C441 1.419 . S
C443 C444 1.362 . S
C444 H436 0.930 . S
C444 C443 1.362 . S
C444 C447 1.399 1_545 S
C445 H437 0.930 . S
C445 C446 1.355 . S
C445 C447 1.429 . S
C446 C445 1.355 . S
C446 C448 1.419 . S
C447 C442 1.421 1_565 S
C447 C444 1.399 1_565 S
C447 C445 1.429 . S
C448 H438 0.930 . S
C448 C446 1.419 . S
C448 C449 1.362 . S
C449 H439 0.930 . S
C449 C442 1.409 1_565 S
C449 C448 1.362 . S
H450 C456 0.933 . S
H451 C459 0.930 . S
H452 C460 0.930 . S
H453 C461 0.930 . S
H454 C464 0.930 . S
H455 C465 0.930 . S
C456 H450 0.933 . S
C456 C457 1.355 . S
C456 C458 1.415 1_554 S
C457 C456 1.355 . S
C457 C459 1.419 . S
C458 C456 1.415 1_556 S
C458 C463 1.425 1_556 S
C458 C465 1.409 . S
C459 H451 0.930 . S
C459 C457 1.419 . S
C459 C460 1.362 . S
C460 H452 0.930 . S
C460 C459 1.362 . S
C460 C463 1.409 . S
C461 H453 0.930 . S
C461 C462 1.355 . S
C461 C463 1.415 1_556 S
C462 C461 1.355 . S
C462 C464 1.419 . S
C463 C458 1.425 1_554 S
C463 C460 1.409 . S
C463 C461 1.415 1_554 S
C464 H454 0.930 . S
C464 C462 1.419 . S
C464 C465 1.362 . S
C465 H455 0.930 . S
C465 C458 1.409 . S
C465 C464 1.362 . S
H466 C472 0.930 . S
H467 C475 0.930 . S
H468 C476 0.930 . S
H469 C477 0.930 . S
H470 C480 0.930 . S
H471 C481 0.930 . S
C472 H466 0.930 . S
C472 C473 1.355 . S
C472 C474 1.415 . S
C473 C472 1.355 . S
C473 C475 1.419 . S
C474 C472 1.415 . S
C474 C479 1.425 . S
C474 C481 1.409 . S
C475 H467 0.930 . S
C475 C473 1.419 . S
C475 C476 1.362 . S
C476 H468 0.930 . S
C476 C475 1.362 . S
C476 C479 1.409 . S
C477 H469 0.930 . S
C477 C478 1.355 . S
C477 C479 1.415 1_455 S
C478 C477 1.355 . S
C478 C480 1.419 1_455 S
C479 C474 1.425 . S
C479 C476 1.409 . S
C479 C477 1.415 1_655 S
C480 H470 0.930 . S
C480 C478 1.419 1_655 S
C480 C481 1.362 . S
C481 H471 0.930 . S
C481 C474 1.409 . S
C481 C480 1.362 . S
H482 C488 0.930 1_556 S
H483 C491 0.930 . S
H484 C492 0.930 . S
H485 C493 0.930 1_554 S
H486 C496 0.930 . S
H487 C497 0.930 . S
C488 H482 0.930 1_554 S
C488 C489 1.355 . S
C488 C490 1.415 1_554 S
C489 C488 1.355 . S
C489 C491 1.419 . S
C490 C488 1.415 1_556 S
C490 C495 1.425 1_556 S
C490 C497 1.409 . S
C491 H483 0.930 . S
C491 C489 1.419 . S
C491 C492 1.362 . S
C492 H484 0.930 . S
C492 C491 1.362 . S
C492 C495 1.409 . S
C493 H485 0.930 1_556 S
C493 C494 1.355 . S
C493 C495 1.415 1_546 S
C494 C493 1.355 . S
C494 C496 1.419 1_545 S
C495 C490 1.425 1_554 S
C495 C492 1.409 . S
C495 C493 1.415 1_564 S
C496 H486 0.930 . S
C496 C494 1.419 1_565 S
C496 C497 1.362 . S
C497 H487 0.930 . S
C497 C490 1.409 . S
C497 C496 1.362 . S
H498 C504 0.930 . S
H499 C507 0.930 . S
H500 C508 0.930 . S
H501 C509 0.930 . S
H502 C512 0.930 . S
H503 C513 0.930 . S
C504 H498 0.930 . S
C504 C505 1.355 . S
C504 C506 1.415 . S
C505 C504 1.355 . S
C505 C507 1.419 . S
C506 C504 1.415 . S
C506 C511 1.425 . S
C506 C513 1.409 . S
C507 H499 0.930 . S
C507 C505 1.419 . S
C507 C508 1.362 . S
C508 H500 0.930 . S
C508 C507 1.362 . S
C508 C511 1.409 . S
C509 H501 0.930 . S
C509 C510 1.355 . S
C509 C511 1.415 . S
C510 C509 1.355 . S
C510 C512 1.419 . S
C511 C506 1.425 . S
C511 C508 1.409 . S
C511 C509 1.415 . S
C512 H502 0.930 . S
C512 C510 1.419 . S
C512 C513 1.362 . S
C513 H503 0.930 . S
C513 C506 1.409 . S
C513 C512 1.362 . S
H514 C520 0.930 1_554 S
H515 C523 0.930 . S
H516 C524 0.930 . S
H517 C525 0.930 1_556 S
H518 C528 0.930 . S
H519 C529 0.930 . S
C520 H514 0.930 1_556 S
C520 C521 1.355 . S
C520 C522 1.415 1_656 S
C521 C520 1.355 . S
C521 C523 1.419 1_655 S
C522 C520 1.415 1_454 S
C522 C527 1.425 1_554 S
C522 C529 1.409 . S
C523 H515 0.930 . S
C523 C521 1.419 1_455 S
C523 C524 1.362 . S
C524 H516 0.930 . S
C524 C523 1.362 . S
C524 C527 1.409 . S
C525 H517 0.930 1_554 S
C525 C526 1.355 . S
C525 C527 1.415 1_554 S
C526 C525 1.355 . S
C526 C528 1.419 . S
C527 C522 1.425 1_556 S
C527 C524 1.409 . S
C527 C525 1.415 1_556 S
C528 H518 0.930 . S
C528 C526 1.419 . S
C528 C529 1.362 . S
C529 H519 0.930 . S
C529 C522 1.409 . S
C529 C528 1.362 . S
H530 C536 0.930 . S
H531 C539 0.930 . S
H532 C540 0.930 . S
H533 C541 0.930 . S
H534 C544 0.930 . S
H535 C545 0.930 . S
C536 H530 0.930 . S
C536 C537 1.355 . S
C536 C538 1.415 . S
C537 C536 1.355 . S
C537 C539 1.419 . S
C538 C536 1.415 . S
C538 C543 1.425 . S
C538 C545 1.409 . S
C539 H531 0.930 . S
C539 C537 1.419 . S
C539 C540 1.362 . S
C540 H532 0.930 . S
C540 C539 1.362 . S
C540 C543 1.409 . S
C541 H533 0.930 . S
C541 C542 1.355 1_545 S
C541 C543 1.415 . S
C542 C541 1.355 1_565 S
C542 C544 1.419 . S
C543 C538 1.425 . S
C543 C540 1.409 . S
C543 C541 1.415 . S
C544 H534 0.930 . S
C544 C542 1.419 . S
C544 C545 1.362 1_565 S
C545 H535 0.930 . S
C545 C538 1.409 . S
C545 C544 1.362 1_545 S
H546 C552 0.930 . S
H547 C555 0.930 . S
H548 C556 0.930 . S
H549 C557 0.930 . S
H550 C560 0.930 . S
H551 C561 0.930 . S
C552 H546 0.930 . S
C552 C553 1.355 . S
C552 C554 1.415 1_556 S
C553 C552 1.355 . S
C553 C555 1.419 . S
C554 C552 1.415 1_554 S
C554 C559 1.425 1_554 S
C554 C561 1.409 . S
C555 H547 0.930 . S
C555 C553 1.419 . S
C555 C556 1.362 . S
C556 H548 0.930 . S
C556 C555 1.362 . S
C556 C559 1.409 . S
C557 H549 0.930 . S
C557 C558 1.355 . S
C557 C559 1.415 1_554 S
C558 C557 1.355 . S
C558 C560 1.419 . S
C559 C554 1.425 1_556 S
C559 C556 1.409 . S
C559 C557 1.415 1_556 S
C560 H550 0.930 . S
C560 C558 1.419 . S
C560 C561 1.362 . S
C561 H551 0.930 . S
C561 C554 1.409 . S
C561 C560 1.362 . S
H562 C568 0.930 . S
H563 C571 0.930 . S
H564 C572 0.930 . S
H565 C573 0.930 . S
H566 C576 0.930 . S
H567 C577 0.930 . S
C568 H562 0.930 . S
C568 C569 1.355 . S
C568 C570 1.415 . S
C569 C568 1.355 . S
C569 C571 1.419 . S
C570 C568 1.415 . S
C570 C575 1.425 . S
C570 C577 1.409 . S
C571 H563 0.930 . S
C571 C569 1.419 . S
C571 C572 1.362 . S
C572 H564 0.930 . S
C572 C571 1.362 . S
C572 C575 1.409 . S
C573 H565 0.930 . S
C573 C574 1.355 . S
C573 C575 1.415 1_655 S
C574 C573 1.355 . S
C574 C576 1.419 1_655 S
C575 C570 1.425 . S
C575 C572 1.409 . S
C575 C573 1.415 1_455 S
C576 H566 0.930 . S
C576 C574 1.419 1_455 S
C576 C577 1.362 . S
C577 H567 0.930 . S
C577 C570 1.409 . S
C577 C576 1.362 . S
H578 C584 0.930 1_554 S
H579 C587 0.930 . S
H580 C588 0.930 . S
H581 C589 0.930 1_556 S
H582 C592 0.930 . S
H583 C593 0.930 . S
C584 H578 0.930 1_556 S
C584 C585 1.355 . S
C584 C586 1.415 1_556 S
C585 C584 1.355 . S
C585 C587 1.419 . S
C586 C584 1.415 1_554 S
C586 C591 1.425 1_554 S
C586 C593 1.409 . S
C587 H579 0.930 . S
C587 C585 1.419 . S
C587 C588 1.362 . S
C588 H580 0.930 . S
C588 C587 1.362 . S
C588 C591 1.409 . S
C589 H581 0.930 1_554 S
C589 C590 1.355 . S
C589 C591 1.415 1_564 S
C590 C589 1.355 . S
C590 C592 1.419 1_565 S
C591 C586 1.425 1_556 S
C591 C588 1.409 . S
C591 C589 1.415 1_546 S
C592 H582 0.930 . S
C592 C590 1.419 1_545 S
C592 C593 1.362 . S
C593 H583 0.930 . S
C593 C586 1.409 . S
C593 C592 1.362 . S
H594 C600 0.930 . S
H595 C603 0.930 . S
H596 C604 0.930 . S
H597 C605 0.930 . S
H598 C608 0.930 . S
H599 C609 0.930 . S
C600 H594 0.930 . S
C600 C601 1.355 . S
C600 C602 1.415 . S
C601 C600 1.355 . S
C601 C603 1.419 . S
C602 C600 1.415 . S
C602 C607 1.425 . S
C602 C609 1.409 . S
C603 H595 0.930 . S
C603 C601 1.419 . S
C603 C604 1.362 . S
C604 H596 0.930 . S
C604 C603 1.362 . S
C604 C607 1.409 . S
C605 H597 0.930 . S
C605 C606 1.355 . S
C605 C607 1.415 . S
C606 C605 1.355 . S
C606 C608 1.419 . S
C607 C602 1.425 . S
C607 C604 1.409 . S
C607 C605 1.415 . S
C608 H598 0.930 . S
C608 C606 1.419 . S
C608 C609 1.362 . S
C609 H599 0.930 . S
C609 C602 1.409 . S
C609 C608 1.362 . S
H610 C616 0.930 1_556 S
H611 C619 0.930 . S
H612 C620 0.930 . S
H613 C621 0.930 1_554 S
H614 C624 0.930 . S
H615 C625 0.930 . S
C616 H610 0.930 1_554 S
C616 C617 1.355 . S
C616 C618 1.415 1_454 S
C617 C616 1.355 . S
C617 C619 1.419 1_455 S
C618 C616 1.415 1_656 S
C618 C623 1.425 1_556 S
C618 C625 1.409 . S
C619 H611 0.930 . S
C619 C617 1.419 1_655 S
C619 C620 1.362 . S
C620 H612 0.930 . S
C620 C619 1.362 . S
C620 C623 1.409 . S
C621 H613 0.930 1_556 S
C621 C622 1.355 . S
C621 C623 1.415 1_556 S
C622 C621 1.355 . S
C622 C624 1.419 . S
C623 C618 1.425 1_554 S
C623 C620 1.409 . S
C623 C621 1.415 1_554 S
C624 H614 0.930 . S
C624 C622 1.419 . S
C624 C625 1.362 . S
C625 H615 0.930 . S
C625 C618 1.409 . S
C625 C624 1.362 . S
H626 C632 0.930 . S
H627 C635 0.930 . S
H628 C636 0.930 . S
H629 C637 0.930 . S
H630 C640 0.930 . S
H631 C641 0.930 . S
C632 H626 0.930 . S
C632 C633 1.355 . S
C632 C634 1.415 1_545 S
C633 C632 1.355 . S
C633 C635 1.419 1_545 S
C634 C632 1.415 1_565 S
C634 C639 1.425 . S
C634 C641 1.409 . S
C635 H627 0.930 . S
C635 C633 1.419 1_565 S
C635 C636 1.362 . S
C636 H628 0.930 . S
C636 C635 1.362 . S
C636 C639 1.409 . S
C637 H629 0.930 . S
C637 C638 1.355 . S
C637 C639 1.415 . S
C638 C637 1.355 . S
C638 C640 1.419 . S
C639 C634 1.425 . S
C639 C636 1.409 . S
C639 C637 1.415 . S
C640 H630 0.930 . S
C640 C638 1.419 . S
C640 C641 1.362 . S
C641 H631 0.930 . S
C641 C634 1.409 . S
C641 C640 1.362 . S
C265 C32 1.393 . S
C270 N175 1.461 . S
C281 N223 1.414 . S
C286 C56 1.323 . S
C297 N8 1.415 . S
C302 C118 1.384 . S
C313 N51 1.449 . S
C318 C142 1.330 . S
C329 C199 1.431 . S
C334 N94 1.474 . S
C345 C228 1.209 . S
C350 N137 1.367 . S
C361 C33 1.091 . S
C366 N180 0.877 . S
C377 C82 1.065 . S
C382 N218 1.017 . S
C393 N3 1.046 . S
C398 C119 1.115 . S
C409 N46 1.038 . S
C414 C168 1.063 . S
C425 N89 0.991 . S
C430 C212 1.104 . S
C441 C254 1.020 . S
C446 N132 1.008 . S
C457 C13 1.830 . S
C462 C242 1.773 . S
C473 C83 1.869 . S
C478 C39 1.577 . S
C489 C99 1.821 . S
C494 C70 1.763 . S
C505 C169 1.889 . S
C510 C125 1.674 . S
C521 C156 1.745 . S
C526 C211 1.805 . S
C537 C255 1.884 . S
C542 C185 1.587 . S
C553 C161 1.877 . S
C558 C113 1.801 . S
C569 C205 1.749 . S
C574 C162 1.658 . S
C585 C247 1.881 . S
C590 C204 1.782 . S
C601 C248 1.649 . S
C606 C40 1.749 . S
C617 C27 1.810 . S
C622 C75 1.880 . S
C633 C76 1.672 . S
C638 C126 1.753 . S
