# Generated by pormake.
# Topology whv, (6)-cn, num edge types: 1
# Building blocks:
#     Node 0, Type 0, BuildingBlock: VOLQOD_clean_sbu_1, # of connection points: 6
#     Node 1, Type 0, BuildingBlock: VOLQOD_clean_sbu_1, # of connection points: 6
#     Node 2, Type 0, BuildingBlock: VOLQOD_clean_sbu_1, # of connection points: 6
#     Node 3, Type 0, BuildingBlock: VOLQOD_clean_sbu_1, # of connection points: 6
#     Node 4, Type 0, BuildingBlock: VOLQOD_clean_sbu_1, # of connection points: 6
#     Node 5, Type 0, BuildingBlock: VOLQOD_clean_sbu_1, # of connection points: 6
#     Node 6, Type 0, BuildingBlock: VOLQOD_clean_sbu_1, # of connection points: 6
#     Node 7, Type 0, BuildingBlock: VOLQOD_clean_sbu_1, # of connection points: 6
#     Node 8, Type 0, BuildingBlock: VOLQOD_clean_sbu_1, # of connection points: 6
#     Node 9, Type 0, BuildingBlock: VOLQOD_clean_sbu_1, # of connection points: 6
#     Node 10, Type 0, BuildingBlock: VOLQOD_clean_sbu_1, # of connection points: 6
#     Node 11, Type 0, BuildingBlock: VOLQOD_clean_sbu_1, # of connection points: 6
#     Node 12, Type 0, BuildingBlock: VOLQOD_clean_sbu_1, # of connection points: 6
#     Node 13, Type 0, BuildingBlock: VOLQOD_clean_sbu_1, # of connection points: 6
#     Node 14, Type 0, BuildingBlock: VOLQOD_clean_sbu_1, # of connection points: 6
#     Node 15, Type 0, BuildingBlock: VOLQOD_clean_sbu_1, # of connection points: 6
#     Edge 16, Type (0, 0), BuildingBlock: EZIPEK_clean_linker_0, # of connection points: 2
#     Edge 17, Type (0, 0), BuildingBlock: EZIPEK_clean_linker_0, # of connection points: 2
#     Edge 18, Type (0, 0), BuildingBlock: EZIPEK_clean_linker_0, # of connection points: 2
#     Edge 19, Type (0, 0), BuildingBlock: EZIPEK_clean_linker_0, # of connection points: 2
#     Edge 20, Type (0, 0), BuildingBlock: EZIPEK_clean_linker_0, # of connection points: 2
#     Edge 21, Type (0, 0), BuildingBlock: EZIPEK_clean_linker_0, # of connection points: 2
#     Edge 22, Type (0, 0), BuildingBlock: EZIPEK_clean_linker_0, # of connection points: 2
#     Edge 23, Type (0, 0), BuildingBlock: EZIPEK_clean_linker_0, # of connection points: 2
#     Edge 24, Type (0, 0), BuildingBlock: EZIPEK_clean_linker_0, # of connection points: 2
#     Edge 25, Type (0, 0), BuildingBlock: EZIPEK_clean_linker_0, # of connection points: 2
#     Edge 26, Type (0, 0), BuildingBlock: EZIPEK_clean_linker_0, # of connection points: 2
#     Edge 27, Type (0, 0), BuildingBlock: EZIPEK_clean_linker_0, # of connection points: 2
#     Edge 28, Type (0, 0), BuildingBlock: EZIPEK_clean_linker_0, # of connection points: 2
#     Edge 29, Type (0, 0), BuildingBlock: EZIPEK_clean_linker_0, # of connection points: 2
#     Edge 30, Type (0, 0), BuildingBlock: EZIPEK_clean_linker_0, # of connection points: 2
#     Edge 31, Type (0, 0), BuildingBlock: EZIPEK_clean_linker_0, # of connection points: 2
#     Edge 32, Type (0, 0), BuildingBlock: EZIPEK_clean_linker_0, # of connection points: 2
#     Edge 33, Type (0, 0), BuildingBlock: EZIPEK_clean_linker_0, # of connection points: 2
#     Edge 34, Type (0, 0), BuildingBlock: EZIPEK_clean_linker_0, # of connection points: 2
#     Edge 35, Type (0, 0), BuildingBlock: EZIPEK_clean_linker_0, # of connection points: 2
#     Edge 36, Type (0, 0), BuildingBlock: EZIPEK_clean_linker_0, # of connection points: 2
#     Edge 37, Type (0, 0), BuildingBlock: EZIPEK_clean_linker_0, # of connection points: 2
#     Edge 38, Type (0, 0), BuildingBlock: EZIPEK_clean_linker_0, # of connection points: 2
#     Edge 39, Type (0, 0), BuildingBlock: EZIPEK_clean_linker_0, # of connection points: 2
#     Edge 40, Type (0, 0), BuildingBlock: EZIPEK_clean_linker_0, # of connection points: 2
#     Edge 41, Type (0, 0), BuildingBlock: EZIPEK_clean_linker_0, # of connection points: 2
#     Edge 42, Type (0, 0), BuildingBlock: EZIPEK_clean_linker_0, # of connection points: 2
#     Edge 43, Type (0, 0), BuildingBlock: EZIPEK_clean_linker_0, # of connection points: 2
#     Edge 44, Type (0, 0), BuildingBlock: EZIPEK_clean_linker_0, # of connection points: 2
#     Edge 45, Type (0, 0), BuildingBlock: EZIPEK_clean_linker_0, # of connection points: 2
#     Edge 46, Type (0, 0), BuildingBlock: EZIPEK_clean_linker_0, # of connection points: 2
#     Edge 47, Type (0, 0), BuildingBlock: EZIPEK_clean_linker_0, # of connection points: 2
#     Edge 48, Type (0, 0), BuildingBlock: EZIPEK_clean_linker_0, # of connection points: 2
#     Edge 49, Type (0, 0), BuildingBlock: EZIPEK_clean_linker_0, # of connection points: 2
#     Edge 50, Type (0, 0), BuildingBlock: EZIPEK_clean_linker_0, # of connection points: 2
#     Edge 51, Type (0, 0), BuildingBlock: EZIPEK_clean_linker_0, # of connection points: 2
#     Edge 52, Type (0, 0), BuildingBlock: EZIPEK_clean_linker_0, # of connection points: 2
#     Edge 53, Type (0, 0), BuildingBlock: EZIPEK_clean_linker_0, # of connection points: 2
#     Edge 54, Type (0, 0), BuildingBlock: EZIPEK_clean_linker_0, # of connection points: 2
#     Edge 55, Type (0, 0), BuildingBlock: EZIPEK_clean_linker_0, # of connection points: 2
#     Edge 56, Type (0, 0), BuildingBlock: EZIPEK_clean_linker_0, # of connection points: 2
#     Edge 57, Type (0, 0), BuildingBlock: EZIPEK_clean_linker_0, # of connection points: 2
#     Edge 58, Type (0, 0), BuildingBlock: EZIPEK_clean_linker_0, # of connection points: 2
#     Edge 59, Type (0, 0), BuildingBlock: EZIPEK_clean_linker_0, # of connection points: 2
#     Edge 60, Type (0, 0), BuildingBlock: EZIPEK_clean_linker_0, # of connection points: 2
#     Edge 61, Type (0, 0), BuildingBlock: EZIPEK_clean_linker_0, # of connection points: 2
#     Edge 62, Type (0, 0), BuildingBlock: EZIPEK_clean_linker_0, # of connection points: 2
#     Edge 63, Type (0, 0), BuildingBlock: EZIPEK_clean_linker_0, # of connection points: 2
# Relax obj value: 0.299
# Max RMSD: 0.250
# Mean RMSD: 0.250
data_MOF--net-whv--node1-VOLQOD_clean_sbu_1--edge1-EZIPEK_clean_linker_0
_symmetry_space_group_name_H-M    P1
_symmetry_Int_Tables_number       1
_symmetry_cell_setting            triclinic
loop_
_symmetry_equiv_pos_as_xyz
'x, y, z'
_cell_length_a     41.020376
_cell_length_b     41.059312
_cell_length_c     20.684044
_cell_angle_alpha  90.020805
_cell_angle_beta   89.919469
_cell_angle_gamma 90.104929
loop_
_atom_site_label
_atom_site_type_symbol
_atom_site_fract_x
_atom_site_fract_y
_atom_site_fract_z
_atom_type_partial_charge
O0 O 0.29297 0.18043 0.87151 0.0
Zn1 Zn 0.30303 0.1502 0.94252 0.0
O2 O 0.30886 0.1757 0.01901 0.0
Zn3 Zn 0.35371 0.18087 0.04071 0.0
Zn4 Zn 0.28801 0.21649 0.00785 0.0
Zn5 Zn 0.28687 0.15447 0.08699 0.0
O6 O 0.36372 0.15139 0.11941 0.0
O7 O 0.31779 0.12291 0.12722 0.0
O8 O 0.34536 0.12856 0.91357 0.0
O9 O 0.37898 0.16198 0.96644 0.0
O10 O 0.3669 0.22967 0.04258 0.0
O11 O 0.32216 0.24944 -0.00306 0.0
O12 O 0.26267 0.22972 0.08722 0.0
O13 O 0.26052 0.12469 0.94952 0.0
O14 O 0.27356 0.18776 0.15204 0.0
O15 O 0.24582 0.13482 0.05126 0.0
C16 C 0.27378 0.20461 0.87173 0.0
C17 C 0.34777 0.12698 0.14182 0.0
C18 C 0.35158 0.25283 0.01437 0.0
C19 C 0.37377 0.14067 0.92276 0.0
C20 C 0.26242 0.21628 0.14277 0.0
C21 C 0.23936 0.12408 0.99497 0.0
O22 O 0.26459 0.21855 0.92365 0.0
O23 O 0.52104 0.54735 0.15454 0.0
Zn24 Zn 0.56268 0.55969 0.19341 0.0
O25 O 0.55507 0.56908 0.28305 0.0
Zn26 Zn 0.56266 0.61516 0.29593 0.0
Zn27 Zn 0.51109 0.55661 0.30266 0.0
Zn28 Zn 0.58017 0.5415 0.33813 0.0
O29 O 0.60035 0.62013 0.36126 0.0
O30 O 0.61665 0.56824 0.36942 0.0
O31 O 0.57776 0.59859 0.13971 0.0
O32 O 0.57973 0.63683 0.21507 0.0
O33 O 0.51778 0.63798 0.30218 0.0
O34 O 0.48478 0.59521 0.29041 0.0
O35 O 0.50465 0.54046 0.39225 0.0
O36 O 0.58922 0.51837 0.1853 0.0
O37 O 0.55538 0.5273 0.41812 0.0
O38 O 0.59633 0.50255 0.28748 0.0
C39 C 0.49804 0.53002 0.17672 0.0
C40 C 0.62114 0.59854 0.37914 0.0
C41 C 0.48959 0.62568 0.29062 0.0
C42 C 0.58273 0.62808 0.15638 0.0
C43 C 0.52523 0.52927 0.43218 0.0
C44 C 0.59865 0.49735 0.22679 0.0
O45 O 0.49403 0.52526 0.23696 0.0
O46 O 0.20727 0.78007 0.40339 0.0
Zn47 Zn 0.18885 0.8195 0.44028 0.0
O48 O 0.17938 0.81084 0.52921 0.0
Zn49 Zn 0.13283 0.81316 0.54116 0.0
Zn50 Zn 0.19664 0.76882 0.55057 0.0
Zn51 Zn 0.2027 0.84046 0.58259 0.0
O52 O 0.123 0.85065 0.60435 0.0
O53 O 0.17184 0.87527 0.60565 0.0
O54 O 0.14947 0.8307 0.38494 0.0
O55 O 0.11066 0.82753 0.45913 0.0
O56 O 0.11471 0.76628 0.55006 0.0
O57 O 0.16051 0.73782 0.53685 0.0
O58 O 0.21217 0.76671 0.6424 0.0
O59 O 0.22713 0.84961 0.43198 0.0
O60 O 0.21714 0.81938 0.66557 0.0
O61 O 0.24197 0.85742 0.53436 0.0
C62 C 0.22832 0.76057 0.42604 0.0
C63 C 0.14131 0.87526 0.61699 0.0
C64 C 0.12956 0.73942 0.53832 0.0
C65 C 0.11953 0.83253 0.40102 0.0
C66 C 0.21915 0.78955 0.6816 0.0
C67 C 0.24763 0.85954 0.47387 0.0
O68 O 0.23172 0.75597 0.48656 0.0
O69 O 0.94687 0.44891 0.62296 0.0
Zn70 Zn 0.91601 0.42999 0.68461 0.0
O71 O 0.93855 0.42488 0.76481 0.0
Zn72 Zn 0.93919 0.38025 0.79209 0.0
Zn73 Zn 0.98069 0.44415 0.76174 0.0
Zn74 Zn 0.91572 0.45152 0.82282 0.0
O75 O 0.90524 0.37624 0.86649 0.0
O76 O 0.88044 0.4247 0.86007 0.0
O77 O 0.90347 0.38717 0.64555 0.0
O78 O 0.92221 0.35192 0.71801 0.0
O79 O 0.98779 0.36627 0.80429 0.0
O80 O 0.01183 0.40834 0.75546 0.0
O81 O 0.99189 0.468 0.84367 0.0
O82 O 0.88039 0.46445 0.6887 0.0
O83 O 0.94413 0.46686 0.89433 0.0
O84 O 0.90031 0.49033 0.77369 0.0
C85 C 0.9716 0.46719 0.62894 0.0
C86 C 0.8813 0.39533 0.8799 0.0
C87 C 0.01291 0.37959 0.77798 0.0
C88 C 0.90878 0.35802 0.66365 0.0
C89 C 0.97438 0.47338 0.8933 0.0
C90 C 0.88481 0.49071 0.72052 0.0
O91 O 0.98617 0.47139 0.68257 0.0
O92 O 0.70342 0.78285 0.17389 0.0
Zn93 Zn 0.68816 0.81976 0.12302 0.0
O94 O 0.68014 0.80531 0.03599 0.0
Zn95 Zn 0.63422 0.80956 0.016 0.0
Zn96 Zn 0.69493 0.76126 0.02738 0.0
Zn97 Zn 0.7069 0.82989 0.97798 0.0
O98 O 0.629 0.84794 0.95137 0.0
O99 O 0.68047 0.86577 0.94334 0.0
O100 O 0.64732 0.83384 0.17076 0.0
O101 O 0.6097 0.82319 0.0967 0.0
O102 O 0.61479 0.76367 -0.00233 0.0
O103 O 0.65633 0.73313 0.03037 0.0
O104 O 0.71651 0.75288 0.9422 0.0
O105 O 0.72809 0.8488 0.12707 0.0
O106 O 0.72219 0.80294 0.90302 0.0
O107 O 0.74574 0.84743 0.02527 0.0
C108 C 0.71996 0.75791 0.15932 0.0
C109 C 0.65018 0.86898 0.93239 0.0
C110 C 0.62661 0.73596 0.01419 0.0
C111 C 0.61749 0.8319 0.15379 0.0
C112 C 0.7249 0.77224 0.89723 0.0
C113 C 0.75017 0.85415 0.08473 0.0
O114 O 0.7233 0.74803 0.10145 0.0
O115 O 0.43446 0.45415 0.94194 0.0
Zn116 Zn 0.40433 0.44241 0.87312 0.0
O117 O 0.42828 0.43927 0.7943 0.0
Zn118 Zn 0.43274 0.39486 0.76643 0.0
Zn119 Zn 0.46855 0.46192 0.80491 0.0
Zn120 Zn 0.40577 0.46307 0.73089 0.0
O121 O 0.40454 0.38818 0.68435 0.0
O122 O 0.37406 0.43304 0.69063 0.0
O123 O 0.38681 0.39878 0.90372 0.0
O124 O 0.41188 0.36587 0.83436 0.0
O125 O 0.48195 0.38264 0.76789 0.0
O126 O 0.50219 0.42807 0.81184 0.0
O127 O 0.48078 0.48801 0.72605 0.0
O128 O 0.37615 0.4831 0.87225 0.0
O129 O 0.43748 0.47861 0.66403 0.0
O130 O 0.38497 0.50179 0.77276 0.0
C131 C 0.45603 0.47622 0.94168 0.0
C132 C 0.37872 0.40423 0.66971 0.0
C133 C 0.50556 0.39878 0.79318 0.0
C134 C 0.3946 0.37015 0.885 0.0
C135 C 0.46631 0.48939 0.67171 0.0
C136 C 0.37467 0.50592 0.83028 0.0
O137 O 0.4691 0.48664 0.88961 0.0
O138 O 0.7838 0.19301 0.66611 0.0
Zn139 Zn 0.79897 0.15785 0.6094 0.0
O140 O 0.81005 0.17668 0.52708 0.0
Zn141 Zn 0.85653 0.17477 0.51354 0.0
Zn142 Zn 0.79488 0.22039 0.52486 0.0
Zn143 Zn 0.78665 0.15484 0.46048 0.0
O144 O 0.86541 0.13865 0.44705 0.0
O145 O 0.81507 0.11997 0.4269 0.0
O146 O 0.8381 0.14072 0.65911 0.0
O147 O 0.87773 0.15987 0.59636 0.0
O148 O 0.87575 0.22101 0.50114 0.0
O149 O 0.83313 0.24802 0.53983 0.0
O150 O 0.77619 0.23281 0.43847 0.0
O151 O 0.75821 0.12991 0.60132 0.0
O152 O 0.77521 0.18503 0.38799 0.0
O153 O 0.74515 0.13702 0.49761 0.0
C154 C 0.7675 0.21851 0.65455 0.0
C155 C 0.8459 0.11769 0.42204 0.0
C156 C 0.8632 0.24688 0.5252 0.0
C157 C 0.86825 0.14659 0.64882 0.0
C158 C 0.77108 0.21571 0.38816 0.0
C159 C 0.73814 0.12728 0.55437 0.0
O160 O 0.76451 0.23007 0.59782 0.0
O161 O 0.03922 0.54422 0.40935 0.0
Zn162 Zn 0.07593 0.55998 0.35625 0.0
O163 O 0.05896 0.56637 0.27022 0.0
Zn164 Zn 0.06039 0.6115 0.24665 0.0
Zn165 Zn 0.0153 0.5503 0.26271 0.0
Zn166 Zn 0.0845 0.54057 0.21335 0.0
O167 O 0.09541 0.61668 0.17496 0.0
O168 O 0.12044 0.56846 0.1788 0.0
O169 O 0.09185 0.60164 0.39932 0.0
O170 O 0.07548 0.63677 0.32475 0.0
O171 O 0.01423 0.63052 0.2352 0.0
O172 O 0.98595 0.58766 0.2693 0.0
O173 O 0.00745 0.52758 0.17834 0.0
O174 O 0.10755 0.52197 0.35995 0.0
O175 O 0.05773 0.52603 0.13802 0.0
O176 O 0.10007 0.5009 0.26206 0.0
C177 C 0.01375 0.52775 0.39667 0.0
C178 C 0.11959 0.59814 0.16065 0.0
C179 C 0.98773 0.6177 0.25592 0.0
C180 C 0.08723 0.63084 0.38052 0.0
C181 C 0.02723 0.52116 0.13264 0.0
C182 C 0.10966 0.49816 0.32042 0.0
O183 O 0.00317 0.52394 0.33939 0.0
O184 O 0.79891 0.69119 0.38451 0.0
Zn185 Zn 0.8112 0.65712 0.44641 0.0
O186 O 0.81596 0.67771 0.52871 0.0
Zn187 Zn 0.86122 0.67948 0.54837 0.0
Zn188 Zn 0.79631 0.71935 0.52651 0.0
Zn189 Zn 0.79163 0.65423 0.59027 0.0
O190 O 0.87034 0.64279 0.61452 0.0
O191 O 0.82068 0.62016 0.62293 0.0
O192 O 0.85281 0.63749 0.409 0.0
O193 O 0.88604 0.66755 0.46833 0.0
O194 O 0.87623 0.72691 0.55935 0.0
O195 O 0.83253 0.74996 0.5147 0.0
O196 O 0.77372 0.7305 0.60994 0.0
O197 O 0.77064 0.62981 0.44611 0.0
O198 O 0.7777 0.68342 0.66256 0.0
O199 O 0.75212 0.63581 0.54663 0.0
C200 C 0.77728 0.71294 0.39175 0.0
C201 C 0.85131 0.61953 0.63239 0.0
C202 C 0.86225 0.7511 0.53181 0.0
C203 C 0.88098 0.64968 0.41916 0.0
C204 C 0.7702 0.71346 0.6609 0.0
C205 C 0.7479 0.6273 0.48801 0.0
O206 O 0.76853 0.72337 0.44715 0.0
O207 O 0.02531 0.05457 0.63912 0.0
Zn208 Zn 0.06534 0.06351 0.68789 0.0
O209 O 0.05415 0.06788 0.77657 0.0
Zn210 Zn 0.05352 0.11251 0.8033 0.0
Zn211 Zn 0.01285 0.04754 0.78433 0.0
Zn212 Zn 0.08282 0.04272 0.82736 0.0
O213 O 0.0875 0.1172 0.87819 0.0
O214 O 0.11658 0.07195 0.86115 0.0
O215 O 0.08478 0.10458 0.65059 0.0
O216 O 0.07095 0.13949 0.72856 0.0
O217 O 0.00497 0.12718 0.81382 0.0
O218 O 0.98043 0.0822 0.77922 0.0
O219 O 0.00786 0.02515 0.86982 0.0
O220 O 0.09067 0.02195 0.6753 0.0
O221 O 0.05926 0.0245 0.90386 0.0
O222 O 0.10092 0.00573 0.77581 0.0
C223 C 0.00844 0.02931 0.65082 0.0
C224 C 0.11336 0.09997 0.88667 0.0
C225 C 0.97931 0.11216 0.79431 0.0
C226 C 0.08261 0.13353 0.67251 0.0
C227 C 0.02912 0.01881 0.91272 0.0
C228 C 0.10139 0.00079 0.71507 0.0
O229 O 0.00458 0.01873 0.7082 0.0
O230 O 0.69881 0.30347 0.87729 0.0
Zn231 Zn 0.69126 0.33821 0.94116 0.0
O232 O 0.68416 0.31696 0.02244 0.0
Zn233 Zn 0.63846 0.31585 0.0393 0.0
Zn234 Zn 0.70255 0.27467 0.01915 0.0
Zn235 Zn 0.70772 0.3394 0.08705 0.0
O236 O 0.6285 0.35086 0.10828 0.0
O237 O 0.67786 0.3736 0.12041 0.0
O238 O 0.65161 0.36286 0.90719 0.0
O239 O 0.61574 0.3331 0.96183 0.0
O240 O 0.62089 0.26869 0.04181 0.0
O241 O 0.66613 0.24406 0.00814 0.0
O242 O 0.72611 0.2629 0.10139 0.0
O243 O 0.73468 0.36177 0.94383 0.0
O244 O 0.71992 0.30861 0.15802 0.0
O245 O 0.74933 0.35687 0.0471 0.0
C246 C 0.71874 0.28004 0.88271 0.0
C247 C 0.64699 0.37405 0.12838 0.0
C248 C 0.63575 0.24363 0.01962 0.0
C249 C 0.62245 0.35297 0.91663 0.0
C250 C 0.7284 0.27887 0.15406 0.0
C251 C 0.75577 0.36475 0.98883 0.0
O252 O 0.72815 0.26937 0.93749 0.0
O253 O 0.46791 0.95832 0.1482 0.0
Zn254 Zn 0.42769 0.94364 0.1906 0.0
O255 O 0.43949 0.93025 0.27693 0.0
Zn256 Zn 0.43339 0.88348 0.28661 0.0
Zn257 Zn 0.48404 0.94168 0.29417 0.0
Zn258 Zn 0.41415 0.9548 0.33761 0.0
O259 O 0.39437 0.87598 0.34786 0.0
O260 O 0.37714 0.92705 0.36436 0.0
O261 O 0.41132 0.90633 0.13421 0.0
O262 O 0.41941 0.86474 0.20089 0.0
O263 O 0.4775 0.85993 0.3029 0.0
O264 O 0.51009 0.90214 0.28654 0.0
O265 O 0.49083 0.95937 0.3833 0.0
O266 O 0.39993 0.98455 0.19155 0.0
O267 O 0.43989 0.96558 0.41767 0.0
O268 O 0.39814 0.99649 0.29659 0.0
C269 C 0.49467 0.97038 0.16756 0.0
C270 C 0.37321 0.89638 0.36904 0.0
C271 C 0.506 0.87169 0.29277 0.0
C272 C 0.41125 0.8758 0.14573 0.0
C273 C 0.4705 0.96676 0.42735 0.0
C274 C 0.39274 0.0039 0.23773 0.0
O275 O 0.50312 0.97022 0.22658 0.0
O276 O 0.20891 0.28908 0.65899 0.0
Zn277 Zn 0.19623 0.32775 0.60913 0.0
O278 O 0.186 0.31336 0.52337 0.0
Zn279 Zn 0.13965 0.31514 0.51042 0.0
Zn280 Zn 0.2027 0.27024 0.51422 0.0
Zn281 Zn 0.20957 0.33808 0.46105 0.0
O282 O 0.13068 0.3494 0.43948 0.0
O283 O 0.18001 0.37274 0.43068 0.0
O284 O 0.15724 0.34505 0.65999 0.0
O285 O 0.11808 0.33271 0.59031 0.0
O286 O 0.12061 0.26836 0.51097 0.0
O287 O 0.16619 0.24083 0.53164 0.0
O288 O 0.21921 0.26096 0.42524 0.0
O289 O 0.2379 0.35469 0.6066 0.0
O290 O 0.22144 0.31084 0.38382 0.0
O291 O 0.25066 0.35559 0.50166 0.0
C292 C 0.22866 0.26677 0.64304 0.0
C293 C 0.14941 0.37262 0.42023 0.0
C294 C 0.13533 0.24231 0.52866 0.0
C295 C 0.12707 0.34307 0.64546 0.0
C296 C 0.22456 0.28016 0.37821 0.0
C297 C 0.25768 0.36129 0.56058 0.0
O298 O 0.23506 0.26034 0.58414 0.0
O299 O 0.94722 0.9476 0.42372 0.0
Zn300 Zn 0.91559 0.93008 0.36113 0.0
O301 O 0.93881 0.92542 0.28111 0.0
Zn302 Zn 0.93837 0.88089 0.2558 0.0
Zn303 Zn 0.98196 0.94188 0.28419 0.0
Zn304 Zn 0.91683 0.95251 0.2226 0.0
O305 O 0.89912 0.87511 0.19475 0.0
O306 O 0.88051 0.9262 0.18695 0.0
O307 O 0.89993 0.88744 0.39819 0.0
O308 O 0.92714 0.85394 0.33344 0.0
O309 O 0.9848 0.86519 0.23355 0.0
O310 O 0.01102 0.904 0.28825 0.0
O311 O 0.99402 0.96623 0.20313 0.0
O312 O 0.88077 0.96511 0.35669 0.0
O313 O 0.94649 0.96642 0.15149 0.0
O314 O 0.90124 0.99157 0.27264 0.0
C315 C 0.97327 0.9641 0.41826 0.0
C316 C 0.87719 0.89567 0.17765 0.0
C317 C 0.01034 0.87596 0.26225 0.0
C318 C 0.91016 0.85906 0.38393 0.0
C319 C 0.97695 0.97207 0.15315 0.0
C320 C 0.88499 0.99148 0.32521 0.0
O321 O 0.98847 0.96746 0.36498 0.0
O322 O 0.29616 0.69708 0.18507 0.0
Zn323 Zn 0.31013 0.6678 0.11477 0.0
O324 O 0.31353 0.69442 0.03846 0.0
Zn325 Zn 0.35787 0.69425 0.00934 0.0
Zn326 Zn 0.29857 0.73796 0.05036 0.0
Zn327 Zn 0.28569 0.67498 0.97677 0.0
O328 O 0.36269 0.65474 0.94777 0.0
O329 O 0.31072 0.6403 0.9329 0.0
O330 O 0.35406 0.65156 0.14597 0.0
O331 O 0.38567 0.68347 0.08552 0.0
O332 O 0.37372 0.7408 0.98609 0.0
O333 O 0.337 0.76666 0.04647 0.0
O334 O 0.26976 0.75261 0.97586 0.0
O335 O 0.27312 0.63428 0.10793 0.0
O336 O 0.27041 0.70817 0.91399 0.0
O337 O 0.24754 0.65497 0.02271 0.0
C338 C 0.28403 0.72541 0.18889 0.0
C339 C 0.34107 0.63491 0.92601 0.0
C340 C 0.36398 0.76633 0.01624 0.0
C341 C 0.38168 0.66447 0.13342 0.0
C342 C 0.26352 0.73802 0.9228 0.0
C343 C 0.24754 0.63721 0.07316 0.0
O344 O 0.28002 0.74364 0.13965 0.0
O345 O 0.56662 0.04048 0.93267 0.0
Zn346 Zn 0.59364 0.05821 0.86279 0.0
O347 O 0.56601 0.05928 0.78797 0.0
Zn348 Zn 0.56018 0.10267 0.75732 0.0
Zn349 Zn 0.52617 0.03636 0.79948 0.0
Zn350 Zn 0.58807 0.03363 0.72809 0.0
O351 O 0.58949 0.10748 0.67587 0.0
O352 O 0.62019 0.06293 0.68639 0.0
O353 O 0.60696 0.10315 0.89324 0.0
O354 O 0.57766 0.13346 0.82579 0.0
O355 O 0.51092 0.11376 0.75632 0.0
O356 O 0.49253 0.06976 0.80817 0.0
O357 O 0.51339 0.00953 0.72179 0.0
O358 O 0.6298 0.02436 0.85562 0.0
O359 O 0.55735 0.01718 0.66084 0.0
O360 O 0.60652 0.99589 0.77781 0.0
C361 C 0.54291 0.02061 0.93404 0.0
C362 C 0.61534 0.09116 0.66236 0.0
C363 C 0.48833 0.09837 0.78656 0.0
C364 C 0.59584 0.13072 0.87548 0.0
C365 C 0.52825 0.00711 0.66794 0.0
C366 C 0.62415 0.99707 0.82839 0.0
O367 O 0.52679 0.01267 0.88377 0.0
C368 C 0.18815 0.14608 0.94668 0.0
C369 C 0.20456 0.11985 0.97733 0.0
C370 C 0.15441 0.08777 0.97209 0.0
C371 C 0.14087 0.11087 0.92839 0.0
N372 N 0.14572 0.16245 0.87266 0.0
N373 N 0.20337 0.0657 0.02136 0.0
C374 C 0.15769 0.14044 0.916 0.0
C375 C 0.18759 0.09074 0.99136 0.0
N376 N 0.20128 0.17665 0.94863 0.0
N377 N 0.13518 0.06329 -0.0043 0.0
H378 H 0.22742 0.06762 0.03736 0.0
H379 H 0.19336 0.04253 0.02673 0.0
H380 H 0.11047 0.0614 0.98419 0.0
H381 H 0.14269 0.04713 0.03149 0.0
H382 H 0.18918 0.1973 0.93205 0.0
H383 H 0.22269 0.18181 0.97367 0.0
H384 H 0.15924 0.1822 0.8557 0.0
H385 H 0.12308 0.16012 0.85058 0.0
C386 C 0.61163 0.40542 0.20727 0.0
C387 C 0.63248 0.40489 0.15263 0.0
C388 C 0.63444 0.46457 0.15285 0.0
C389 C 0.61102 0.46537 0.20326 0.0
N390 N 0.57141 0.43587 0.26779 0.0
N391 N 0.65564 0.43422 0.06215 0.0
C392 C 0.59793 0.4356 0.22771 0.0
C393 C 0.64148 0.43456 0.12204 0.0
N394 N 0.60567 0.37742 0.24095 0.0
N395 N 0.65105 0.49218 0.13591 0.0
H396 H 0.65966 0.41283 0.03609 0.0
H397 H 0.65985 0.45531 0.03535 0.0
H398 H 0.64787 0.51442 0.15942 0.0
H399 H 0.67056 0.49208 0.10356 0.0
H400 H 0.59351 0.37708 0.28521 0.0
H401 H 0.61532 0.35493 0.22753 0.0
H402 H 0.55901 0.41479 0.28141 0.0
H403 H 0.55959 0.45713 0.28207 0.0
C404 C 0.33999 0.86512 0.45089 0.0
C405 C 0.34151 0.88498 0.395 0.0
C406 C 0.28234 0.89285 0.39942 0.0
C407 C 0.28025 0.87011 0.45074 0.0
N408 N 0.30702 0.82893 0.51588 0.0
N409 N 0.31332 0.91142 0.30703 0.0
C410 C 0.30905 0.85469 0.47418 0.0
C411 C 0.31242 0.89701 0.36661 0.0
N412 N 0.36791 0.85704 0.48305 0.0
N413 N 0.25586 0.91129 0.38329 0.0
H414 H 0.33471 0.91377 0.28004 0.0
H415 H 0.29242 0.9178 0.28146 0.0
H416 H 0.23368 0.90976 0.40787 0.0
H417 H 0.25695 0.93045 0.35034 0.0
H418 H 0.36787 0.84573 0.52814 0.0
H419 H 0.39103 0.86416 0.46749 0.0
H420 H 0.32708 0.81484 0.52872 0.0
H421 H 0.28507 0.81923 0.53241 0.0
C422 C 0.85547 0.57833 0.7201 0.0
C423 C 0.86442 0.58847 0.65716 0.0
C424 C 0.88357 0.53329 0.63136 0.0
C425 C 0.87424 0.52293 0.69473 0.0
N426 N 0.84434 0.53344 0.79296 0.0
N427 N 0.88962 0.57757 0.55421 0.0
C428 C 0.85844 0.54498 0.73749 0.0
C429 C 0.87922 0.56647 0.61319 0.0
N430 N 0.84491 0.60102 0.76376 0.0
N431 N 0.89546 0.51137 0.58747 0.0
H432 H 0.88488 0.60095 0.53728 0.0
H433 H 0.90476 0.56465 0.5231 0.0
H434 H 0.90087 0.48734 0.59792 0.0
H435 H 0.89859 0.51617 0.53852 0.0
H436 H 0.84107 0.59615 0.81255 0.0
H437 H 0.8429 0.6257 0.7523 0.0
H438 H 0.82979 0.54744 0.82338 0.0
H439 H 0.84427 0.50881 0.80531 0.0
C440 C 0.81164 0.84884 0.08495 0.0
C441 C 0.78295 0.86527 0.10635 0.0
C442 C 0.81608 0.89663 0.18228 0.0
C443 C 0.84504 0.88406 0.15371 0.0
N444 N 0.86997 0.85257 0.06845 0.0
N445 N 0.75951 0.91032 0.16526 0.0
C446 C 0.84275 0.86142 0.10224 0.0
C447 C 0.78565 0.89083 0.15202 0.0
N448 N 0.80948 0.82021 0.05143 0.0
N449 N 0.81728 0.91271 0.24013 0.0
H450 H 0.73713 0.90787 0.14188 0.0
H451 H 0.76126 0.93113 0.19395 0.0
H452 H 0.83867 0.91547 0.2668 0.0
H453 H 0.79642 0.91974 0.26532 0.0
H454 H 0.82976 0.80596 0.04051 0.0
H455 H 0.78749 0.8086 0.0412 0.0
H456 H 0.86898 0.83862 0.02638 0.0
H457 H 0.89309 0.86182 0.07855 0.0
C458 C 0.33816 0.54379 0.89281 0.0
C459 C 0.36539 0.53934 0.8517 0.0
C460 C 0.37521 0.59853 0.85354 0.0
C461 C 0.35059 0.6022 0.901 0.0
N462 N 0.31591 0.57563 0.9802 0.0
N463 N 0.41568 0.56229 0.80908 0.0
C464 C 0.33406 0.57407 0.92478 0.0
C465 C 0.38558 0.56665 0.8362 0.0
N466 N 0.31572 0.51947 0.90046 0.0
N467 N 0.38826 0.62523 0.82376 0.0
H468 H 0.42591 0.53949 0.80061 0.0
H469 H 0.4322 0.58133 0.80253 0.0
H470 H 0.3808 0.64894 0.83404 0.0
H471 H 0.40405 0.6235 0.78436 0.0
H472 H 0.29391 0.52275 0.92555 0.0
H473 H 0.31716 0.49735 0.87581 0.0
H474 H 0.30573 0.5551 0.00199 0.0
H475 H 0.31448 0.59647 0.00889 0.0
C476 C 0.65328 0.13666 0.62291 0.0
C477 C 0.64133 0.1041 0.6184 0.0
C478 C 0.69138 0.08768 0.56156 0.0
C479 C 0.70372 0.11954 0.56917 0.0
N480 N 0.69167 0.17661 0.58196 0.0
N481 N 0.64317 0.05355 0.55897 0.0
C482 C 0.68306 0.14479 0.59155 0.0
C483 C 0.65857 0.08118 0.5796 0.0
N484 N 0.63775 0.15951 0.65967 0.0
N485 N 0.71109 0.06353 0.53857 0.0
H486 H 0.61853 0.04919 0.56841 0.0
H487 H 0.65359 0.0371 0.52667 0.0
H488 H 0.73494 0.06788 0.5231 0.0
H489 H 0.70443 0.03903 0.53861 0.0
H490 H 0.64833 0.1818 0.67165 0.0
H491 H 0.61508 0.15622 0.68093 0.0
H492 H 0.676 0.19603 0.59108 0.0
H493 H 0.71343 0.18348 0.55956 0.0
C494 C 0.11572 0.42315 0.4291 0.0
C495 C 0.13562 0.40248 0.39112 0.0
C496 C 0.14171 0.44581 0.3101 0.0
C497 C 0.11924 0.46537 0.34506 0.0
N498 N 0.07836 0.4682 0.42954 0.0
N499 N 0.16285 0.39154 0.29024 0.0
C500 C 0.10441 0.4528 0.40225 0.0
C501 C 0.14709 0.41303 0.32983 0.0
N502 N 0.10868 0.41535 0.49191 0.0
N503 N 0.15919 0.45897 0.26021 0.0
H504 H 0.16686 0.3673 0.30321 0.0
H505 H 0.16906 0.3968 0.24252 0.0
H506 H 0.15703 0.48325 0.24616 0.0
H507 H 0.17819 0.44682 0.23711 0.0
H508 H 0.09776 0.43158 0.52402 0.0
H509 H 0.11631 0.39388 0.51402 0.0
H510 H 0.06516 0.45857 0.46809 0.0
H511 H 0.06749 0.48852 0.40908 0.0
C512 C 0.65585 0.62993 0.45907 0.0
C513 C 0.65321 0.60801 0.40646 0.0
C514 C 0.7109 0.59407 0.41818 0.0
C515 C 0.71466 0.619 0.46481 0.0
N516 N 0.69143 0.66749 0.51428 0.0
N517 N 0.68124 0.57722 0.32343 0.0
C518 C 0.68736 0.63889 0.4814 0.0
C519 C 0.68165 0.5924 0.38225 0.0
N520 N 0.62858 0.64159 0.48905 0.0
N521 N 0.73491 0.57154 0.40888 0.0
H522 H 0.66101 0.57754 0.29294 0.0
H523 H 0.70219 0.5679 0.30169 0.0
H524 H 0.75614 0.57103 0.4366 0.0
H525 H 0.73198 0.55132 0.37893 0.0
H526 H 0.62959 0.65518 0.53161 0.0
H527 H 0.60503 0.63508 0.47527 0.0
H528 H 0.67243 0.68389 0.52187 0.0
H529 H 0.71409 0.67695 0.52699 0.0
C530 C 0.10996 0.90851 0.69861 0.0
C531 C 0.12719 0.90641 0.63947 0.0
C532 C 0.13077 0.96587 0.63424 0.0
C533 C 0.111 0.96824 0.69026 0.0
N534 N 0.07382 0.94102 0.76426 0.0
N535 N 0.14541 0.93305 0.54176 0.0
C536 C 0.0983 0.93935 0.71943 0.0
C537 C 0.13487 0.93512 0.60435 0.0
N538 N 0.10565 0.88147 0.73613 0.0
N539 N 0.14695 0.99258 0.61114 0.0
H540 H 0.14748 0.91092 0.51725 0.0
H541 H 0.14851 0.95338 0.5122 0.0
H542 H 0.14615 0.01526 0.63376 0.0
H543 H 0.16402 0.9913 0.57387 0.0
H544 H 0.09643 0.88252 0.78307 0.0
H545 H 0.11382 0.85842 0.72262 0.0
H546 H 0.06185 0.92046 0.78198 0.0
H547 H 0.06265 0.9627 0.77808 0.0
C548 C 0.83979 0.40379 0.96748 0.0
C549 C 0.85257 0.38369 0.91734 0.0
C550 C 0.80614 0.347 0.93104 0.0
C551 C 0.79025 0.37056 0.97001 0.0
N552 N 0.79157 0.42214 0.02521 0.0
N553 N 0.84447 0.33806 0.84452 0.0
C554 C 0.80708 0.39911 0.98885 0.0
C555 C 0.83506 0.35555 0.8976 0.0
N556 N 0.85922 0.42689 -0.00454 0.0
N557 N 0.79414 0.31605 0.92762 0.0
H558 H 0.8647 0.34386 0.81632 0.0
H559 H 0.8302 0.31952 0.82479 0.0
H560 H 0.77411 0.30862 0.95488 0.0
H561 H 0.80626 0.29714 0.90408 0.0
H562 H 0.85223 0.44044 0.0357 0.0
H563 H 0.88364 0.43 0.9826 0.0
H564 H 0.8014 0.44506 0.03456 0.0
H565 H 0.76782 0.41908 0.04234 0.0
C566 C 0.40647 0.05936 0.19494 0.0
C567 C 0.38302 0.0378 0.22199 0.0
C568 C 0.3433 0.08215 0.22368 0.0
C569 C 0.36373 0.10099 0.18243 0.0
N570 N 0.4183 0.11013 0.14046 0.0
N571 N 0.32893 0.02847 0.26343 0.0
C572 C 0.39654 0.09063 0.17213 0.0
C573 C 0.35148 0.04926 0.23754 0.0
N574 N 0.43859 0.05041 0.19375 0.0
N575 N 0.31667 0.09633 0.25161 0.0
H576 H 0.33419 0.00429 0.2748 0.0
H577 H 0.30444 0.03452 0.26909 0.0
H578 H 0.31157 0.12107 0.24596 0.0
H579 H 0.30223 0.0848 0.28619 0.0
H580 H 0.45755 0.06625 0.18236 0.0
H581 H 0.4468 0.02782 0.20997 0.0
H582 H 0.44028 0.10176 0.12164 0.0
H583 H 0.41526 0.13502 0.13431 0.0
C584 C 0.33958 0.35812 0.64262 0.0
C585 C 0.35228 0.38971 0.6295 0.0
C586 C 0.30387 0.40201 0.56385 0.0
C587 C 0.2916 0.37053 0.57718 0.0
N588 N 0.30458 0.31495 0.60377 0.0
N589 N 0.35175 0.43661 0.55909 0.0
C590 C 0.3117 0.34735 0.60827 0.0
C591 C 0.33606 0.41004 0.58395 0.0
N592 N 0.3521 0.33917 0.69083 0.0
N593 N 0.28459 0.42449 0.53397 0.0
H594 H 0.37592 0.44213 0.57046 0.0
H595 H 0.34215 0.45087 0.52208 0.0
H596 H 0.26113 0.4191 0.51766 0.0
H597 H 0.29106 0.44893 0.52933 0.0
H598 H 0.34106 0.31753 0.70568 0.0
H599 H 0.37139 0.34614 0.72033 0.0
H600 H 0.32016 0.29685 0.62085 0.0
H601 H 0.2847 0.30626 0.57745 0.0
C602 C 0.85507 0.07909 0.33054 0.0
C603 C 0.85864 0.08661 0.3969 0.0
C604 C 0.87899 0.03163 0.41806 0.0
C605 C 0.87325 0.02314 0.352 0.0
N606 N 0.84785 0.03676 0.25031 0.0
N607 N 0.86713 0.06841 0.50652 0.0
C608 C 0.85912 0.04637 0.30951 0.0
C609 C 0.86862 0.06242 0.44143 0.0
N610 N 0.84807 0.10334 0.28754 0.0
N611 N 0.89563 0.01121 0.45832 0.0
H612 H 0.86071 0.09092 0.52608 0.0
H613 H 0.86964 0.05034 0.54147 0.0
H614 H 0.90466 0.98872 0.44464 0.0
H615 H 0.90347 0.01788 0.50433 0.0
H616 H 0.84839 0.10005 0.23761 0.0
H617 H 0.84486 0.12753 0.30173 0.0
H618 H 0.83465 0.05191 0.21965 0.0
H619 H 0.84838 0.01258 0.23485 0.0
C620 C 0.16458 0.59411 0.07685 0.0
C621 C 0.14945 0.61143 0.12846 0.0
C622 C 0.20106 0.6387 0.15125 0.0
C623 C 0.21565 0.62426 0.09625 0.0
N624 N 0.21035 0.59013 0.00208 0.0
N625 N 0.1511 0.65981 0.19436 0.0
C626 C 0.19702 0.6026 0.05732 0.0
C627 C 0.16693 0.63658 0.1595 0.0
N628 N 0.14785 0.56974 0.04649 0.0
N629 N 0.21941 0.65426 0.1967 0.0
H630 H 0.12588 0.66192 0.19599 0.0
H631 H 0.16312 0.67988 0.21354 0.0
H632 H 0.24446 0.6576 0.19324 0.0
H633 H 0.20982 0.6606 0.24163 0.0
H634 H 0.1585 0.55361 0.0139 0.0
H635 H 0.12323 0.56513 0.05559 0.0
H636 H 0.19709 0.57708 0.96785 0.0
H637 H 0.23466 0.59404 0.9892 0.0
C638 C 0.64397 0.90705 0.83923 0.0
C639 C 0.64002 0.90087 0.90602 0.0
C640 C 0.62961 0.959 0.92567 0.0
C641 C 0.63472 0.96554 0.85837 0.0
N642 N 0.65583 0.94691 0.75604 0.0
N643 N 0.6347 0.92095 0.01491 0.0
C644 C 0.64446 0.93978 0.81658 0.0
C645 C 0.63438 0.92685 0.94974 0.0
N646 N 0.64704 0.88148 0.79735 0.0
N647 N 0.61896 0.98278 0.96684 0.0
H648 H 0.63597 0.89759 0.03458 0.0
H649 H 0.63584 0.93921 0.04978 0.0
H650 H 0.61738 0.00725 0.95542 0.0
H651 H 0.61004 0.97808 0.01305 0.0
H652 H 0.64676 0.88406 0.74727 0.0
H653 H 0.64687 0.85728 0.81281 0.0
H654 H 0.66602 0.92966 0.72515 0.0
H655 H 0.65853 0.97077 0.73946 0.0
C656 C 0.40237 0.13038 0.81528 0.0
C657 C 0.40239 0.12965 0.88422 0.0
C658 C 0.46121 0.1203 0.88301 0.0
C659 C 0.46038 0.1159 0.8152 0.0
N660 N 0.4298 0.11361 0.7163 0.0
N661 N 0.43088 0.11539 0.98223 0.0
C662 C 0.43083 0.12012 0.78097 0.0
C663 C 0.43162 0.12237 0.91769 0.0
N664 N 0.37595 0.14207 0.78264 0.0
N665 N 0.49046 0.12202 0.91445 0.0
H666 H 0.40923 0.11424 0.00863 0.0
H667 H 0.45114 0.10681 0.00728 0.0
H668 H 0.51276 0.12073 0.8902 0.0
H669 H 0.49248 0.1281 0.96323 0.0
H670 H 0.37591 0.14599 0.73289 0.0
H671 H 0.35503 0.15054 0.80577 0.0
H672 H 0.40819 0.11266 0.68995 0.0
H673 H 0.45062 0.10742 0.68996 0.0
C674 C 0.56904 0.68233 0.10421 0.0
C675 C 0.58893 0.65366 0.10614 0.0
C676 C 0.62162 0.6757 0.01674 0.0
C677 C 0.60608 0.70622 0.0243 0.0
N678 N 0.55624 0.73359 0.05064 0.0
N679 N 0.63502 0.62356 0.06428 0.0
C680 C 0.57695 0.70807 0.06049 0.0
C681 C 0.61488 0.65002 0.06103 0.0
N682 N 0.54313 0.68543 0.1454 0.0
N683 N 0.64314 0.67181 0.96693 0.0
H684 H 0.63207 0.60481 0.09767 0.0
H685 H 0.6564 0.62138 0.03749 0.0
H686 H 0.64775 0.69057 0.93401 0.0
H687 H 0.65356 0.64958 0.9544 0.0
H688 H 0.53052 0.70706 0.15291 0.0
H689 H 0.53471 0.66666 0.17464 0.0
H690 H 0.53333 0.73566 0.07182 0.0
H691 H 0.56016 0.75082 0.01453 0.0
C692 C 0.07016 0.87001 0.26246 0.0
C693 C 0.03944 0.85541 0.27414 0.0
C694 C 0.06522 0.81831 0.35123 0.0
C695 C 0.09374 0.83829 0.35127 0.0
N696 N 0.12231 0.88513 0.30785 0.0
N697 N 0.00748 0.81445 0.32888 0.0
C698 C 0.09636 0.86423 0.30596 0.0
C699 C 0.03705 0.82863 0.317 0.0
N700 N 0.07358 0.89052 0.21094 0.0
N701 N 0.06502 0.78925 0.38334 0.0
H702 H 0.98666 0.81953 0.30206 0.0
H703 H 0.0033 0.79848 0.36716 0.0
H704 H 0.08477 0.78081 0.40975 0.0
H705 H 0.04641 0.77211 0.37881 0.0
H706 H 0.09592 0.9001 0.19623 0.0
H707 H 0.0543 0.89504 0.17924 0.0
H708 H 0.12359 0.90634 0.28035 0.0
H709 H 0.14126 0.8832 0.34104 0.0
C710 C 0.86527 0.30671 0.53642 0.0
C711 C 0.88241 0.27685 0.54068 0.0
C712 C 0.92282 0.30468 0.60864 0.0
C713 C 0.90047 0.33071 0.61883 0.0
N714 N 0.84702 0.35328 0.59706 0.0
N715 N 0.92962 0.24783 0.58119 0.0
C716 C 0.87091 0.33119 0.58326 0.0
C717 C 0.9121 0.27594 0.57612 0.0
N718 N 0.84274 0.31106 0.48871 0.0
N719 N 0.9546 0.30787 0.62728 0.0
H720 H 0.92427 0.22672 0.5556 0.0
H721 H 0.94904 0.2452 0.61319 0.0
H722 H 0.96389 0.32926 0.64729 0.0
H723 H 0.97248 0.29088 0.61547 0.0
H724 H 0.83105 0.33324 0.48082 0.0
H725 H 0.83874 0.29348 0.45304 0.0
H726 H 0.82403 0.3524 0.57567 0.0
H727 H 0.84853 0.36987 0.63507 0.0
C728 C 0.59195 0.86303 0.24746 0.0
C729 C 0.59092 0.83691 0.20252 0.0
C730 C 0.53497 0.82384 0.23819 0.0
C731 C 0.53566 0.85132 0.27996 0.0
N732 N 0.56955 0.88531 0.3465 0.0
N733 N 0.56679 0.78466 0.1772 0.0
C734 C 0.56609 0.86648 0.29256 0.0
C735 C 0.56404 0.81482 0.20464 0.0
N736 N 0.61594 0.88611 0.24435 0.0
N737 N 0.50681 0.80676 0.22891 0.0
H738 H 0.58834 0.77635 0.15609 0.0
H739 H 0.54919 0.76653 0.18239 0.0
H740 H 0.48627 0.80954 0.25786 0.0
H741 H 0.50393 0.78969 0.19205 0.0
H742 H 0.61568 0.90713 0.27263 0.0
H743 H 0.63412 0.88626 0.20918 0.0
H744 H 0.59183 0.89526 0.36069 0.0
H745 H 0.55071 0.88774 0.3802 0.0
C746 C 0.34848 0.31301 -0.0002 0.0
C747 C 0.36746 0.28417 -0.00444 0.0
C748 C 0.40802 0.31493 0.93348 0.0
C749 C 0.38551 0.3411 0.92526 0.0
N750 N 0.33057 0.36087 0.94247 0.0
N751 N 0.41388 0.25692 0.94697 0.0
C752 C 0.35477 0.33922 0.95672 0.0
C753 C 0.39703 0.28487 0.95979 0.0
N754 N 0.32411 0.3152 0.04459 0.0
N755 N 0.4402 0.31883 0.91852 0.0
H756 H 0.40698 0.23402 0.96352 0.0
H757 H 0.4334 0.25621 0.91465 0.0
H758 H 0.44998 0.34085 0.90318 0.0
H759 H 0.45779 0.30134 0.92925 0.0
H760 H 0.31118 0.33663 0.05301 0.0
H761 H 0.31954 0.2967 0.078 0.0
H762 H 0.3069 0.35847 0.96031 0.0
H763 H 0.33278 0.37871 0.90693 0.0
C764 C 0.89431 0.11211 0.73701 0.0
C765 C 0.89292 0.14144 0.70098 0.0
C766 C 0.9451 0.15895 0.74872 0.0
C767 C 0.9473 0.12861 0.78149 0.0
N768 N 0.91689 0.08507 0.83091 0.0
N769 N 0.90945 0.1979 0.69665 0.0
C770 C 0.91915 0.10843 0.7842 0.0
C771 C 0.91598 0.16653 0.71436 0.0
N772 N 0.87377 0.08681 0.72347 0.0
N773 N 0.97077 0.18012 0.74786 0.0
H774 H 0.88765 0.20468 0.6745 0.0
H775 H 0.92376 0.21759 0.71106 0.0
H776 H 0.99093 0.17797 0.7779 0.0
H777 H 0.97199 0.19992 0.71639 0.0
H778 H 0.87623 0.06388 0.74451 0.0
H779 H 0.85635 0.08755 0.68694 0.0
H780 H 0.89599 0.07105 0.83817 0.0
H781 H 0.93476 0.08252 0.8665 0.0
C782 C 0.0862 0.66081 0.48845 0.0
C783 C 0.09649 0.65907 0.42267 0.0
C784 C 0.11912 0.71445 0.43127 0.0
C785 C 0.113 0.71408 0.49899 0.0
N786 N 0.09298 0.68661 0.59353 0.0
N787 N 0.1242 0.6834 0.33231 0.0
C788 C 0.09701 0.68723 0.52801 0.0
C789 C 0.11299 0.68595 0.39423 0.0
N790 N 0.06464 0.63837 0.51216 0.0
N791 N 0.1328 0.74155 0.40347 0.0
H792 H 0.12738 0.66089 0.31006 0.0
H793 H 0.13192 0.70277 0.30391 0.0
H794 H 0.13862 0.76255 0.42936 0.0
H795 H 0.13695 0.74461 0.35431 0.0
H796 H 0.05385 0.64021 0.55762 0.0
H797 H 0.05487 0.61964 0.48416 0.0
H798 H 0.08503 0.66612 0.61874 0.0
H799 H 0.09944 0.70623 0.623 0.0
C800 C 0.90334 0.64469 0.30418 0.0
C801 C 0.90852 0.64481 0.37248 0.0
C802 C 0.96734 0.64609 0.35189 0.0
C803 C 0.96205 0.6378 0.28645 0.0
N804 N 0.92453 0.62764 0.19979 0.0
N805 N 0.94733 0.63842 0.46015 0.0
C806 C 0.92982 0.63675 0.26232 0.0
C807 C 0.9411 0.64382 0.39614 0.0
N808 N 0.87399 0.6537 0.2788 0.0
N809 N -0.00224 0.65475 0.37228 0.0
H810 H 0.92927 0.63253 0.49358 0.0
H811 H 0.97081 0.63559 0.4784 0.0
H812 H 0.01708 0.65763 0.3401 0.0
H813 H 0.00255 0.66304 0.41897 0.0
H814 H 0.87015 0.65626 0.22927 0.0
H815 H 0.8548 0.66247 0.30676 0.0
H816 H 0.90136 0.62288 0.18139 0.0
H817 H 0.94372 0.62344 0.16761 0.0
C818 C 0.09478 0.19556 0.53598 0.0
C819 C 0.11783 0.21655 0.56543 0.0
C820 C 0.12014 0.18088 0.6603 0.0
C821 C 0.09526 0.1612 0.63367 0.0
N822 N 0.05464 0.1526 0.55098 0.0
N823 N 0.14541 0.23387 0.66306 0.0
C824 C 0.08131 0.16928 0.57272 0.0
C825 C 0.12822 0.21066 0.63001 0.0
N826 N 0.08663 0.20003 0.47263 0.0
N827 N 0.13729 0.17038 0.71292 0.0
H828 H 0.15126 0.25653 0.64342 0.0
H829 H 0.1508 0.23207 0.71215 0.0
H830 H 0.1332 0.14783 0.73474 0.0
H831 H 0.15787 0.18237 0.73041 0.0
H832 H 0.07271 0.18348 0.44627 0.0
H833 H 0.09565 0.2194 0.44526 0.0
H834 H 0.04143 0.15944 0.51025 0.0
H835 H 0.04411 0.13339 0.57659 0.0
C836 C 0.56684 0.3762 0.91764 0.0
C837 C 0.59425 0.36659 0.88066 0.0
C838 C 0.56266 0.37598 0.78119 0.0
C839 C 0.53457 0.38193 0.81938 0.0
N840 N 0.50834 0.37879 0.92344 0.0
N841 N 0.61681 0.35213 0.77654 0.0
C842 C 0.53621 0.37895 0.88739 0.0
C843 C 0.59191 0.36508 0.81199 0.0
N844 N 0.57033 0.38432 0.9814 0.0
N845 N 0.56155 0.3813 0.71612 0.0
H846 H 0.63835 0.34375 0.79734 0.0
H847 H 0.61508 0.34748 0.72716 0.0
H848 H 0.54012 0.38803 0.69254 0.0
H849 H 0.58213 0.38077 0.68655 0.0
H850 H 0.55144 0.394 0.00905 0.0
H851 H 0.59295 0.38506 0.00443 0.0
H852 H 0.50805 0.37248 0.97227 0.0
H853 H 0.48536 0.38251 0.90336 0.0
C854 C 0.36669 0.82648 0.01593 0.0
C855 C 0.38382 0.79666 0.02182 0.0
C856 C 0.42581 0.82532 0.08397 0.0
C857 C 0.40397 0.85177 0.0935 0.0
N858 N 0.35275 0.87761 0.06708 0.0
N859 N 0.43165 0.76803 0.05899 0.0
C860 C 0.3745 0.8529 0.05769 0.0
C861 C 0.41444 0.79632 0.05363 0.0
N862 N 0.34205 0.82878 0.97192 0.0
N863 N 0.45751 0.82814 0.10338 0.0
H864 H 0.42526 0.74674 0.03482 0.0
H865 H 0.45171 0.76546 0.08943 0.0
H866 H 0.46673 0.8494 0.12424 0.0
H867 H 0.47529 0.81095 0.09219 0.0
H868 H 0.33006 0.85049 0.96145 0.0
H869 H 0.33618 0.80943 0.94129 0.0
H870 H 0.32936 0.87754 0.04753 0.0
H871 H 0.35694 0.89706 0.0983 0.0
C872 C 0.07634 0.32432 0.70307 0.0
C873 C 0.10125 0.34832 0.69548 0.0
C874 C 0.07325 0.38178 0.77612 0.0
C875 C 0.04471 0.36251 0.76891 0.0
N876 N 0.0199 0.31303 0.72902 0.0
N877 N 0.12296 0.40093 0.72563 0.0
C878 C 0.04664 0.33266 0.73465 0.0
C879 C 0.10007 0.37705 0.73346 0.0
N880 N 0.08139 0.29332 0.68129 0.0
N881 N 0.07401 0.40529 0.82277 0.0
H882 H 0.14239 0.39908 0.69339 0.0
H883 H 0.12113 0.42378 0.74724 0.0
H884 H 0.05451 0.40877 0.85456 0.0
H885 H 0.09488 0.41864 0.83403 0.0
H886 H 0.0656 0.27401 0.69087 0.0
H887 H 0.10315 0.2861 0.65973 0.0
H888 H 0.0187 0.29349 0.697 0.0
H889 H -0.00152 0.31665 0.75495 0.0
C890 C 0.89341 0.80414 0.52967 0.0
C891 C 0.88184 0.77597 0.49772 0.0
C892 C 0.88736 0.80285 0.39288 0.0
C893 C 0.90056 0.83069 0.42398 0.0
N894 N 0.92342 0.85492 0.52041 0.0
N895 N 0.87662 0.74513 0.39891 0.0
C896 C 0.90578 0.83055 0.49208 0.0
C897 C 0.88213 0.77421 0.42922 0.0
N898 N 0.89165 0.80601 0.59546 0.0
N899 N 0.8776 0.80436 0.32969 0.0
H900 H 0.87198 0.72368 0.4242 0.0
H901 H 0.87976 0.74169 0.34938 0.0
H902 H 0.87815 0.82569 0.30239 0.0
H903 H 0.86548 0.78542 0.3063 0.0
H904 H 0.89623 0.82732 0.62128 0.0
H905 H 0.88386 0.78646 0.62384 0.0
H906 H 0.93045 0.85453 0.56877 0.0
H907 H 0.93368 0.87409 0.49427 0.0
C908 C 0.41145 0.66726 0.23971 0.0
C909 C 0.41045 0.65696 0.17398 0.0
C910 C 0.46604 0.63568 0.18259 0.0
C911 C 0.46602 0.64352 0.24982 0.0
N912 N 0.43941 0.66536 0.34349 0.0
N913 N 0.43732 0.63464 0.08009 0.0
C914 C 0.43907 0.65938 0.2785 0.0
C915 C 0.43808 0.64242 0.14451 0.0
N916 N 0.38654 0.68566 0.26412 0.0
N917 N 0.49196 0.61912 0.15673 0.0
H918 H 0.41611 0.63512 0.05238 0.0
H919 H 0.45763 0.62823 0.05286 0.0
H920 H 0.5132 0.61424 0.18253 0.0
H921 H 0.49259 0.60905 0.11066 0.0
H922 H 0.38704 0.69675 0.30934 0.0
H923 H 0.36598 0.69184 0.23727 0.0
H924 H 0.41926 0.67322 0.36975 0.0
H925 H 0.46002 0.66117 0.37184 0.0
C926 C 0.61524 0.18868 0.88223 0.0
C927 C 0.60338 0.16045 0.91407 0.0
C928 C 0.60744 0.18897 0.01863 0.0
C929 C 0.6176 0.21746 0.98586 0.0
N930 N 0.62253 0.24715 0.8858 0.0
N931 N 0.58021 0.13663 0.01082 0.0
C932 C 0.61827 0.21818 0.9173 0.0
C933 C 0.5971 0.16138 0.98191 0.0
N934 N 0.62581 0.18683 0.81965 0.0
N935 N 0.60857 0.18797 0.08454 0.0
H936 H 0.57116 0.11665 0.98537 0.0
H937 H 0.57243 0.13745 0.05875 0.0
H938 H 0.61477 0.20831 0.11227 0.0
H939 H 0.60508 0.1667 0.11112 0.0
H940 H 0.63747 0.20595 0.79587 0.0
H941 H 0.62642 0.16504 0.79388 0.0
H942 H 0.62042 0.24962 0.83584 0.0
H943 H 0.62492 0.26926 0.91023 0.0
C944 C 0.27377 0.2567 0.22973 0.0
C945 C 0.2515 0.23513 0.19926 0.0
C946 C 0.21007 0.24736 0.28083 0.0
C947 C 0.23344 0.2662 0.31497 0.0
N948 N 0.28819 0.28684 0.3265 0.0
N949 N 0.19963 0.20758 0.19652 0.0
C950 C 0.2654 0.27068 0.29033 0.0
C951 C 0.2199 0.22985 0.22491 0.0
N952 N 0.30296 0.26366 0.20072 0.0
N953 N 0.17826 0.2471 0.30087 0.0
H954 H 0.20553 0.19541 0.15378 0.0
H955 H 0.17783 0.19969 0.21707 0.0
H956 H 0.17015 0.25985 0.34145 0.0
H957 H 0.15937 0.23658 0.27457 0.0
H958 H 0.31866 0.28196 0.21639 0.0
H959 H 0.31066 0.25259 0.15797 0.0
H960 H 0.31286 0.28778 0.31491 0.0
H961 H 0.28291 0.29756 0.37102 0.0
C962 C 0.48136 0.53325 0.5933 0.0
C963 C 0.48452 0.50064 0.61449 0.0
C964 C 0.51594 0.48679 0.51751 0.0
C965 C 0.51365 0.51969 0.49713 0.0
N966 N 0.50097 0.57572 0.52164 0.0
N967 N 0.50983 0.44786 0.60489 0.0
C968 C 0.49833 0.5434 0.53687 0.0
C969 C 0.50356 0.47791 0.57924 0.0
N970 N 0.46159 0.55427 0.62636 0.0
N971 N 0.52819 0.4637 0.47648 0.0
H972 H 0.50042 0.44015 0.64921 0.0
H973 H 0.52644 0.43155 0.58492 0.0
H974 H 0.53735 0.46914 0.43068 0.0
H975 H 0.527 0.43879 0.48558 0.0
H976 H 0.4552 0.57723 0.60924 0.0
H977 H 0.44985 0.54795 0.66937 0.0
H978 H 0.49308 0.59441 0.55183 0.0
H979 H 0.51385 0.58409 0.48139 0.0
C980 C 0.26439 0.7783 0.75899 0.0
C981 C 0.23049 0.78105 0.74703 0.0
C982 C 0.218 0.75988 0.85506 0.0
C983 C 0.25188 0.75677 0.86667 0.0
N984 N 0.30747 0.7686 0.83696 0.0
N985 N 0.17515 0.78123 0.78609 0.0
C986 C 0.27513 0.76792 0.82088 0.0
C987 C 0.20729 0.77402 0.79602 0.0
N988 N 0.28617 0.78435 0.71025 0.0
N989 N 0.19622 0.74819 0.89949 0.0
H990 H 0.16659 0.79133 0.74305 0.0
H991 H 0.15733 0.77961 0.82181 0.0
H992 H 0.20339 0.7389 0.94421 0.0
H993 H 0.17129 0.7462 0.89113 0.0
H994 H 0.31094 0.77915 0.71314 0.0
H995 H 0.2792 0.79301 0.66491 0.0
H996 H 0.32542 0.77944 0.8086 0.0
H997 H 0.31618 0.7605 0.8815 0.0
C998 C 0.02209 0.47701 0.04997 0.0
C999 C 0.01438 0.50907 0.0706 0.0
C1000 C 0.98396 0.5189 0.97057 0.0
C1001 C 0.98962 0.48613 0.9524 0.0
N1002 N 0.01091 0.43269 0.97549 0.0
N1003 N 0.98697 0.56041 0.05378 0.0
C1004 C 0.00808 0.46487 0.99199 0.0
C1005 C 0.99494 0.52999 0.03186 0.0
N1006 N 0.04274 0.4582 0.08595 0.0
N1007 N 0.96909 0.53961 0.92802 0.0
H1008 H 0.99655 0.57052 0.09594 0.0
H1009 H 0.96964 0.57528 0.03204 0.0
H1010 H 0.96072 0.53218 0.88274 0.0
H1011 H 0.96711 0.56462 0.93502 0.0
H1012 H 0.05261 0.43631 0.06985 0.0
H1013 H 0.05157 0.4652 0.13113 0.0
H1014 H 0.02076 0.41499 0.00562 0.0
H1015 H 0.00144 0.423 0.93283 0.0
C1016 C 0.71607 0.75766 0.78133 0.0
C1017 C 0.73699 0.75852 0.83593 0.0
C1018 C 0.78064 0.73285 0.77339 0.0
C1019 C 0.75879 0.72936 0.72067 0.0
N1020 N 0.70481 0.73431 0.67588 0.0
N1021 N 0.7878 0.74462 0.88741 0.0
C1022 C 0.72629 0.74084 0.72478 0.0
C1023 C 0.76888 0.74536 0.83302 0.0
N1024 N 0.68648 0.77294 0.78356 0.0
N1025 N 0.81293 0.72549 0.76549 0.0
H1026 H 0.78076 0.75523 0.93108 0.0
H1027 H 0.80963 0.73183 0.89057 0.0
H1028 H 0.82255 0.71652 0.72232 0.0
H1029 H 0.83077 0.73077 0.79967 0.0
H1030 H 0.67178 0.77648 0.7432 0.0
H1031 H 0.67738 0.78412 0.8251 0.0
H1032 H 0.67989 0.73876 0.67886 0.0
H1033 H 0.71143 0.72199 0.63375 0.0
C1034 C 0.71933 0.23862 0.24304 0.0
C1035 C 0.73979 0.26212 0.21298 0.0
C1036 C 0.78166 0.2536 0.2957 0.0
C1037 C 0.76026 0.23187 0.32819 0.0
N1038 N 0.7072 0.20714 0.33938 0.0
N1039 N 0.78877 0.29473 0.21266 0.0
C1040 C 0.72872 0.22513 0.30346 0.0
C1041 C 0.77044 0.27051 0.24007 0.0
N1042 N 0.69088 0.22927 0.21392 0.0
N1043 N 0.81317 0.25691 0.31641 0.0
H1044 H 0.78244 0.30621 0.1695 0.0
H1045 H 0.80931 0.30482 0.2344 0.0
H1046 H 0.82234 0.24483 0.35682 0.0
H1047 H 0.83106 0.26956 0.29096 0.0
H1048 H 0.67699 0.20943 0.22902 0.0
H1049 H 0.68192 0.24006 0.17194 0.0
H1050 H 0.68269 0.20432 0.32771 0.0
H1051 H 0.71308 0.19709 0.38417 0.0
C1052 C 0.00782 0.97333 0.98083 0.0
C1053 C 0.01827 0.00614 0.97572 0.0
C1054 C 0.00289 0.01647 0.08838 0.0
C1055 C 0.99312 0.98349 0.09381 0.0
N1056 N 0.99191 0.92882 0.05134 0.0
N1057 N 0.03079 0.05789 0.02552 0.0
C1058 C 0.99721 0.96138 0.04174 0.0
C1059 C 0.01754 0.02736 0.02997 0.0
N1060 N 0.00767 0.95378 0.92725 0.0
N1061 N 0.99678 0.03765 0.13802 0.0
H1062 H 0.04018 0.06747 0.98267 0.0
H1063 H 0.03446 0.0731 0.06511 0.0
H1064 H 0.98663 0.03034 0.18197 0.0
H1065 H -0.00025 0.06276 0.13455 0.0
H1066 H 0.99676 0.93089 0.92581 0.0
H1067 H 0.01698 0.96116 0.88262 0.0
H1068 H -0.00239 0.91095 0.0175 0.0
H1069 H 0.98426 0.91921 0.09554 0.0
C1070 C 0.51841 0.96426 0.58415 0.0
C1071 C 0.5106 0.99513 0.61057 0.0
C1072 C 0.47621 0.00752 0.51698 0.0
C1073 C 0.48292 0.97608 0.49182 0.0
N1074 N 0.50448 0.92198 0.50709 0.0
N1075 N 0.47808 0.04411 0.60888 0.0
C1076 C 0.50237 0.95368 0.52702 0.0
C1077 C 0.48801 0.016 0.57931 0.0
N1078 N 0.5415 0.94528 0.61324 0.0
N1079 N 0.46032 0.02996 0.47972 0.0
H1080 H 0.48737 0.05215 0.65299 0.0
H1081 H 0.45886 0.05831 0.59215 0.0
H1082 H 0.45172 0.02495 0.43335 0.0
H1083 H 0.45802 0.0544 0.49226 0.0
H1084 H 0.55122 0.92441 0.59218 0.0
H1085 H 0.5524 0.95144 0.65713 0.0
H1086 H 0.51559 0.9037 0.53404 0.0
H1087 H 0.49252 0.91314 0.46619 0.0
C1088 C 0.23602 0.21587 0.70669 0.0
C1089 C 0.24447 0.24895 0.69555 0.0
C1090 C 0.27711 0.25001 0.79396 0.0
C1091 C 0.26477 0.21888 0.80978 0.0
N1092 N 0.23113 0.17227 0.78531 0.0
N1093 N 0.26927 0.2992 0.73294 0.0
C1094 C 0.24415 0.20156 0.76694 0.0
C1095 C 0.26408 0.26649 0.74023 0.0
N1096 N 0.21962 0.19848 0.66059 0.0
N1097 N 0.30195 0.26342 0.82922 0.0
H1098 H 0.26081 0.31249 0.69362 0.0
H1099 H 0.27995 0.31372 0.76841 0.0
H1100 H 0.31266 0.25165 0.86847 0.0
H1101 H 0.3142 0.28459 0.8156 0.0
H1102 H 0.21573 0.17346 0.66326 0.0
H1103 H 0.21166 0.20853 0.61719 0.0
H1104 H 0.21316 0.16001 0.75945 0.0
H1105 H 0.23669 0.16105 0.82914 0.0
C1106 C 0.45124 0.51871 0.02664 0.0
C1107 C 0.46558 0.48933 0.00457 0.0
C1108 C 0.49323 0.48169 0.10787 0.0
C1109 C 0.47979 0.51153 0.12891 0.0
N1110 N 0.4407 0.55447 0.11806 0.0
N1111 N 0.49438 0.43941 0.02686 0.0
C1112 C 0.45687 0.5287 0.09127 0.0
C1113 C 0.48463 0.46965 0.04627 0.0
N1114 N 0.43282 0.53714 0.9855 0.0
N1115 N 0.51583 0.46609 0.14524 0.0
H1116 H 0.49066 0.43091 0.98007 0.0
H1117 H 0.50438 0.42218 0.05792 0.0
H1118 H 0.52127 0.47347 0.19227 0.0
H1119 H 0.5301 0.44678 0.12908 0.0
H1120 H 0.42404 0.56023 -0.00333 0.0
H1121 H 0.42776 0.53009 0.93812 0.0
H1122 H 0.42172 0.56678 0.09553 0.0
H1123 H 0.44458 0.56163 0.1659 0.0
C1124 C 0.28001 0.75112 0.36487 0.0
C1125 C 0.24721 0.74251 0.37782 0.0
C1126 C 0.23837 0.72884 0.26539 0.0
C1127 C 0.27142 0.73519 0.25205 0.0
N1128 N 0.32557 0.74805 0.28992 0.0
N1129 N 0.20017 0.71179 0.34707 0.0
C1130 C 0.29302 0.74473 0.30229 0.0
C1131 C 0.22826 0.72727 0.33012 0.0
N1132 N 0.29798 0.76665 0.41101 0.0
N1133 N 0.21623 0.72587 0.21663 0.0
H1134 H 0.19275 0.7099 0.39528 0.0
H1135 H 0.18701 0.69789 0.31419 0.0
H1136 H 0.22262 0.72644 0.16782 0.0
H1137 H 0.19122 0.72634 0.22555 0.0
H1138 H 0.32068 0.77714 0.40209 0.0
H1139 H 0.2894 0.76981 0.45805 0.0
H1140 H 0.3429 0.75177 0.32595 0.0
H1141 H 0.33535 0.74554 0.24358 0.0
C1142 C -0.00218 0.47787 0.45682 0.0
C1143 C 0.99727 0.51225 0.45142 0.0
C1144 C 0.97892 0.51745 0.56356 0.0
C1145 C 0.98319 0.48342 0.5706 0.0
N1146 N 0.00146 0.43171 0.52903 0.0
N1147 N 0.98675 0.56533 0.49678 0.0
C1148 C 0.99372 0.46369 0.5185 0.0
C1149 C 0.9875 0.53222 0.50405 0.0
N1150 N 0.00268 0.45873 0.40355 0.0
N1151 N 0.96567 0.53531 0.61289 0.0
H1152 H 0.98971 0.5767 0.45201 0.0
H1153 H 0.98417 0.58164 0.53496 0.0
H1154 H 0.95955 0.52533 0.65766 0.0
H1155 H 0.95867 0.55955 0.60861 0.0
H1156 H -0.00042 0.43355 0.40382 0.0
H1157 H 0.00741 0.46787 0.3576 0.0
H1158 H 0.01279 0.41697 0.49478 0.0
H1159 H -0.00045 0.42064 0.5743 0.0
C1160 C 0.7645 0.75968 0.23833 0.0
C1161 C 0.73762 0.74253 0.21207 0.0
C1162 C 0.73638 0.70592 0.30469 0.0
C1163 C 0.76146 0.72489 0.33336 0.0
N1164 N 0.79697 0.7717 0.33315 0.0
N1165 N 0.69614 0.70112 0.21932 0.0
C1166 C 0.77491 0.75232 0.30176 0.0
C1167 C 0.7232 0.71587 0.24465 0.0
N1168 N 0.78019 0.78267 0.20185 0.0
N1169 N 0.72542 0.67839 0.33492 0.0
H1170 H 0.68685 0.70699 0.17385 0.0
H1171 H 0.68204 0.6841 0.24407 0.0
H1172 H 0.7329 0.67187 0.38122 0.0
H1173 H 0.71 0.66136 0.31357 0.0
H1174 H 0.80174 0.79414 0.2157 0.0
H1175 H 0.7731 0.78826 0.15473 0.0
H1176 H 0.80484 0.79413 0.31559 0.0
H1177 H 0.80545 0.76667 0.37962 0.0
C1178 C 0.76391 0.26713 0.72575 0.0
C1179 C 0.75299 0.23538 0.70974 0.0
C1180 C 0.72116 0.23221 0.8095 0.0
C1181 C 0.73059 0.26467 0.8235 0.0
N1182 N 0.75626 0.31525 0.79112 0.0
N1183 N 0.71844 0.18883 0.73052 0.0
C1184 C 0.75035 0.2829 0.78023 0.0
C1185 C 0.73083 0.21819 0.75004 0.0
N1186 N 0.78877 0.28135 0.69161 0.0
N1187 N 0.7031 0.21476 0.85314 0.0
H1188 H 0.72582 0.17718 0.68829 0.0
H1189 H 0.69925 0.17692 0.75353 0.0
H1190 H 0.69327 0.22484 0.89503 0.0
H1191 H 0.6991 0.18978 0.84979 0.0
H1192 H 0.80046 0.30268 0.70602 0.0
H1193 H 0.79992 0.27049 0.65179 0.0
H1194 H 0.76704 0.33058 0.75712 0.0
H1195 H 0.74854 0.32753 0.83243 0.0
C1196 C -0.00042 0.9627 0.52581 0.0
C1197 C 0.9847 0.98092 0.47591 0.0
C1198 C 0.97871 0.02761 0.54729 0.0
C1199 C 0.99671 0.01076 0.59506 0.0
N1200 N 0.02972 0.96438 0.62576 0.0
N1201 N 0.96512 0.0321 0.43395 0.0
C1202 C 0.00849 0.97874 0.58365 0.0
C1203 C 0.97596 0.0139 0.48491 0.0
N1204 N 0.0051 0.93008 0.51798 0.0
N1205 N 0.96336 0.05617 0.56242 0.0
H1206 H 0.96202 0.0226 0.38759 0.0
H1207 H 0.96143 0.05716 0.43658 0.0
H1208 H 0.96409 0.06632 0.60868 0.0
H1209 H 0.94727 0.06793 0.53134 0.0
H1210 H 0.01212 0.91482 0.55568 0.0
H1211 H 0.00076 0.91784 0.4746 0.0
H1212 H 0.04209 0.94285 0.61555 0.0
H1213 H 0.03717 0.97514 0.66878 0.0
C1214 C 0.53652 0.97323 0.00803 0.0
C1215 C 0.53386 0.0072 -0.0031 0.0
C1216 C 0.51965 0.01657 0.10993 0.0
C1217 C 0.51671 0.98264 0.1178 0.0
N1218 N 0.52512 0.92789 0.07997 0.0
N1219 N 0.51981 0.06127 0.03422 0.0
C1220 C 0.52649 0.9607 0.06862 0.0
C1221 C 0.5251 0.02904 0.04727 0.0
N1222 N 0.5491 0.95327 0.96128 0.0
N1223 N 0.51688 0.03675 0.16213 0.0
H1224 H 0.52229 0.0713 0.98817 0.0
H1225 H 0.50997 0.07753 0.06758 0.0
H1226 H 0.51277 0.02807 0.20879 0.0
H1227 H 0.52184 0.06162 0.16027 0.0
H1228 H 0.55462 0.92883 0.96854 0.0
H1229 H 0.55637 0.96163 0.9159 0.0
H1230 H 0.52801 0.91018 0.04445 0.0
H1231 H 0.52025 0.91835 0.12579 0.0
loop_
_geom_bond_atom_site_label_1
_geom_bond_atom_site_label_2
_geom_bond_distance
_geom_bond_site_symmetry_2
_ccdc_geom_bond_type
O0 Zn1 1.953 . S
O0 C16 1.225 . S
Zn1 O0 1.953 . S
Zn1 O2 1.949 1_556 S
Zn1 O8 1.919 . S
Zn1 O13 1.924 . S
O2 Zn1 1.949 1_554 S
O2 Zn3 1.923 . S
O2 Zn4 1.950 . S
O2 Zn5 1.945 . S
Zn3 O2 1.923 . S
Zn3 O6 1.933 . S
Zn3 O9 1.941 1_554 S
Zn3 O10 1.965 . S
Zn4 O2 1.950 . S
Zn4 O11 1.938 . S
Zn4 O12 1.906 . S
Zn4 O22 1.953 1_554 S
Zn5 O2 1.945 . S
Zn5 O7 1.932 . S
Zn5 O14 1.977 . S
Zn5 O15 1.910 . S
O6 Zn3 1.933 . S
O6 C17 1.226 . S
O7 Zn5 1.932 . S
O7 C17 1.307 . S
O8 Zn1 1.919 . S
O8 C19 1.253 . S
O9 Zn3 1.941 1_556 S
O9 C19 1.283 . S
O10 Zn3 1.965 . S
O10 C18 1.303 . S
O11 Zn4 1.938 . S
O11 C18 1.247 . S
O12 Zn4 1.906 . S
O12 C20 1.304 . S
O13 Zn1 1.924 . S
O13 C21 1.311 . S
O14 Zn5 1.977 . S
O14 C20 1.272 . S
O15 Zn5 1.910 . S
O15 C21 1.231 1_554 S
C16 O0 1.225 . S
C16 O22 1.298 . S
C17 O6 1.226 . S
C17 O7 1.307 . S
C18 O10 1.303 . S
C18 O11 1.247 . S
C19 O8 1.253 . S
C19 O9 1.283 . S
C20 O12 1.304 . S
C20 O14 1.272 . S
C21 O13 1.311 . S
C21 O15 1.231 1_556 S
O22 Zn4 1.953 1_556 S
O22 C16 1.298 . S
O23 Zn24 1.953 . S
O23 C39 1.225 . S
Zn24 O23 1.953 . S
Zn24 O25 1.949 . S
Zn24 O31 1.919 . S
Zn24 O36 1.924 . S
O25 Zn24 1.949 . S
O25 Zn26 1.923 . S
O25 Zn27 1.950 . S
O25 Zn28 1.945 . S
Zn26 O25 1.923 . S
Zn26 O29 1.933 . S
Zn26 O32 1.941 . S
Zn26 O33 1.965 . S
Zn27 O25 1.950 . S
Zn27 O34 1.938 . S
Zn27 O35 1.906 . S
Zn27 O45 1.953 . S
Zn28 O25 1.945 . S
Zn28 O30 1.932 . S
Zn28 O37 1.977 . S
Zn28 O38 1.910 . S
O29 Zn26 1.933 . S
O29 C40 1.226 . S
O30 Zn28 1.932 . S
O30 C40 1.307 . S
O31 Zn24 1.919 . S
O31 C42 1.253 . S
O32 Zn26 1.941 . S
O32 C42 1.283 . S
O33 Zn26 1.965 . S
O33 C41 1.303 . S
O34 Zn27 1.938 . S
O34 C41 1.247 . S
O35 Zn27 1.906 . S
O35 C43 1.304 . S
O36 Zn24 1.924 . S
O36 C44 1.311 . S
O37 Zn28 1.977 . S
O37 C43 1.272 . S
O38 Zn28 1.910 . S
O38 C44 1.231 . S
C39 O23 1.225 . S
C39 O45 1.298 . S
C40 O29 1.226 . S
C40 O30 1.307 . S
C41 O33 1.303 . S
C41 O34 1.247 . S
C42 O31 1.253 . S
C42 O32 1.283 . S
C43 O35 1.304 . S
C43 O37 1.272 . S
C44 O36 1.311 . S
C44 O38 1.231 . S
O45 Zn27 1.953 . S
O45 C39 1.298 . S
O46 Zn47 1.953 . S
O46 C62 1.225 . S
Zn47 O46 1.953 . S
Zn47 O48 1.949 . S
Zn47 O54 1.919 . S
Zn47 O59 1.924 . S
O48 Zn47 1.949 . S
O48 Zn49 1.923 . S
O48 Zn50 1.950 . S
O48 Zn51 1.945 . S
Zn49 O48 1.923 . S
Zn49 O52 1.933 . S
Zn49 O55 1.941 . S
Zn49 O56 1.965 . S
Zn50 O48 1.950 . S
Zn50 O57 1.938 . S
Zn50 O58 1.906 . S
Zn50 O68 1.953 . S
Zn51 O48 1.945 . S
Zn51 O53 1.932 . S
Zn51 O60 1.977 . S
Zn51 O61 1.910 . S
O52 Zn49 1.933 . S
O52 C63 1.226 . S
O53 Zn51 1.932 . S
O53 C63 1.307 . S
O54 Zn47 1.919 . S
O54 C65 1.253 . S
O55 Zn49 1.941 . S
O55 C65 1.283 . S
O56 Zn49 1.965 . S
O56 C64 1.303 . S
O57 Zn50 1.938 . S
O57 C64 1.247 . S
O58 Zn50 1.906 . S
O58 C66 1.304 . S
O59 Zn47 1.924 . S
O59 C67 1.311 . S
O60 Zn51 1.977 . S
O60 C66 1.272 . S
O61 Zn51 1.910 . S
O61 C67 1.231 . S
C62 O46 1.225 . S
C62 O68 1.298 . S
C63 O52 1.226 . S
C63 O53 1.307 . S
C64 O56 1.303 . S
C64 O57 1.247 . S
C65 O54 1.253 . S
C65 O55 1.283 . S
C66 O58 1.304 . S
C66 O60 1.272 . S
C67 O59 1.311 . S
C67 O61 1.231 . S
O68 Zn50 1.953 . S
O68 C62 1.298 . S
O69 Zn70 1.953 . S
O69 C85 1.225 . S
Zn70 O69 1.953 . S
Zn70 O71 1.949 . S
Zn70 O77 1.919 . S
Zn70 O82 1.924 . S
O71 Zn70 1.949 . S
O71 Zn72 1.923 . S
O71 Zn73 1.950 . S
O71 Zn74 1.945 . S
Zn72 O71 1.923 . S
Zn72 O75 1.933 . S
Zn72 O78 1.941 . S
Zn72 O79 1.965 . S
Zn73 O71 1.950 . S
Zn73 O80 1.938 1_655 S
Zn73 O81 1.906 . S
Zn73 O91 1.953 1_655 S
Zn74 O71 1.945 . S
Zn74 O76 1.932 . S
Zn74 O83 1.977 . S
Zn74 O84 1.910 . S
O75 Zn72 1.933 . S
O75 C86 1.226 . S
O76 Zn74 1.932 . S
O76 C86 1.307 . S
O77 Zn70 1.919 . S
O77 C88 1.253 . S
O78 Zn72 1.941 . S
O78 C88 1.283 . S
O79 Zn72 1.965 . S
O79 C87 1.303 1_655 S
O80 Zn73 1.938 1_455 S
O80 C87 1.247 . S
O81 Zn73 1.906 . S
O81 C89 1.304 . S
O82 Zn70 1.924 . S
O82 C90 1.311 . S
O83 Zn74 1.977 . S
O83 C89 1.272 . S
O84 Zn74 1.910 . S
O84 C90 1.231 . S
C85 O69 1.225 . S
C85 O91 1.298 1_655 S
C86 O75 1.226 . S
C86 O76 1.307 . S
C87 O79 1.303 1_455 S
C87 O80 1.247 . S
C88 O77 1.253 . S
C88 O78 1.283 . S
C89 O81 1.304 . S
C89 O83 1.272 . S
C90 O82 1.311 . S
C90 O84 1.231 . S
O91 Zn73 1.953 1_455 S
O91 C85 1.298 1_455 S
O92 Zn93 1.953 . S
O92 C108 1.225 . S
Zn93 O92 1.953 . S
Zn93 O94 1.949 . S
Zn93 O100 1.919 . S
Zn93 O105 1.924 . S
O94 Zn93 1.949 . S
O94 Zn95 1.923 . S
O94 Zn96 1.950 . S
O94 Zn97 1.945 1_554 S
Zn95 O94 1.923 . S
Zn95 O98 1.933 1_554 S
Zn95 O101 1.941 . S
Zn95 O102 1.965 . S
Zn96 O94 1.950 . S
Zn96 O103 1.938 . S
Zn96 O104 1.906 1_554 S
Zn96 O114 1.953 . S
Zn97 O94 1.945 1_556 S
Zn97 O99 1.932 . S
Zn97 O106 1.977 . S
Zn97 O107 1.910 1_556 S
O98 Zn95 1.933 1_556 S
O98 C109 1.226 . S
O99 Zn97 1.932 . S
O99 C109 1.307 . S
O100 Zn93 1.919 . S
O100 C111 1.253 . S
O101 Zn95 1.941 . S
O101 C111 1.283 . S
O102 Zn95 1.965 . S
O102 C110 1.303 . S
O103 Zn96 1.938 . S
O103 C110 1.247 . S
O104 Zn96 1.906 1_556 S
O104 C112 1.304 . S
O105 Zn93 1.924 . S
O105 C113 1.311 . S
O106 Zn97 1.977 . S
O106 C112 1.272 . S
O107 Zn97 1.910 1_554 S
O107 C113 1.231 . S
C108 O92 1.225 . S
C108 O114 1.298 . S
C109 O98 1.226 . S
C109 O99 1.307 . S
C110 O102 1.303 . S
C110 O103 1.247 . S
C111 O100 1.253 . S
C111 O101 1.283 . S
C112 O104 1.304 . S
C112 O106 1.272 . S
C113 O105 1.311 . S
C113 O107 1.231 . S
O114 Zn96 1.953 . S
O114 C108 1.298 . S
O115 Zn116 1.953 . S
O115 C131 1.225 . S
Zn116 O115 1.953 . S
Zn116 O117 1.949 . S
Zn116 O123 1.919 . S
Zn116 O128 1.924 . S
O117 Zn116 1.949 . S
O117 Zn118 1.923 . S
O117 Zn119 1.950 . S
O117 Zn120 1.945 . S
Zn118 O117 1.923 . S
Zn118 O121 1.933 . S
Zn118 O124 1.941 . S
Zn118 O125 1.965 . S
Zn119 O117 1.950 . S
Zn119 O126 1.938 . S
Zn119 O127 1.906 . S
Zn119 O137 1.953 . S
Zn120 O117 1.945 . S
Zn120 O122 1.932 . S
Zn120 O129 1.977 . S
Zn120 O130 1.910 . S
O121 Zn118 1.933 . S
O121 C132 1.226 . S
O122 Zn120 1.932 . S
O122 C132 1.307 . S
O123 Zn116 1.919 . S
O123 C134 1.253 . S
O124 Zn118 1.941 . S
O124 C134 1.283 . S
O125 Zn118 1.965 . S
O125 C133 1.303 . S
O126 Zn119 1.938 . S
O126 C133 1.247 . S
O127 Zn119 1.906 . S
O127 C135 1.304 . S
O128 Zn116 1.924 . S
O128 C136 1.311 . S
O129 Zn120 1.977 . S
O129 C135 1.272 . S
O130 Zn120 1.910 . S
O130 C136 1.231 . S
C131 O115 1.225 . S
C131 O137 1.298 . S
C132 O121 1.226 . S
C132 O122 1.307 . S
C133 O125 1.303 . S
C133 O126 1.247 . S
C134 O123 1.253 . S
C134 O124 1.283 . S
C135 O127 1.304 . S
C135 O129 1.272 . S
C136 O128 1.311 . S
C136 O130 1.231 . S
O137 Zn119 1.953 . S
O137 C131 1.298 . S
O138 Zn139 1.953 . S
O138 C154 1.225 . S
Zn139 O138 1.953 . S
Zn139 O140 1.949 . S
Zn139 O146 1.919 . S
Zn139 O151 1.924 . S
O140 Zn139 1.949 . S
O140 Zn141 1.923 . S
O140 Zn142 1.950 . S
O140 Zn143 1.945 . S
Zn141 O140 1.923 . S
Zn141 O144 1.933 . S
Zn141 O147 1.941 . S
Zn141 O148 1.965 . S
Zn142 O140 1.950 . S
Zn142 O149 1.938 . S
Zn142 O150 1.906 . S
Zn142 O160 1.953 . S
Zn143 O140 1.945 . S
Zn143 O145 1.932 . S
Zn143 O152 1.977 . S
Zn143 O153 1.910 . S
O144 Zn141 1.933 . S
O144 C155 1.226 . S
O145 Zn143 1.932 . S
O145 C155 1.307 . S
O146 Zn139 1.919 . S
O146 C157 1.253 . S
O147 Zn141 1.941 . S
O147 C157 1.283 . S
O148 Zn141 1.965 . S
O148 C156 1.303 . S
O149 Zn142 1.938 . S
O149 C156 1.247 . S
O150 Zn142 1.906 . S
O150 C158 1.304 . S
O151 Zn139 1.924 . S
O151 C159 1.311 . S
O152 Zn143 1.977 . S
O152 C158 1.272 . S
O153 Zn143 1.910 . S
O153 C159 1.231 . S
C154 O138 1.225 . S
C154 O160 1.298 . S
C155 O144 1.226 . S
C155 O145 1.307 . S
C156 O148 1.303 . S
C156 O149 1.247 . S
C157 O146 1.253 . S
C157 O147 1.283 . S
C158 O150 1.304 . S
C158 O152 1.272 . S
C159 O151 1.311 . S
C159 O153 1.231 . S
O160 Zn142 1.953 . S
O160 C154 1.298 . S
O161 Zn162 1.953 . S
O161 C177 1.225 . S
Zn162 O161 1.953 . S
Zn162 O163 1.949 . S
Zn162 O169 1.919 . S
Zn162 O174 1.924 . S
O163 Zn162 1.949 . S
O163 Zn164 1.923 . S
O163 Zn165 1.950 . S
O163 Zn166 1.945 . S
Zn164 O163 1.923 . S
Zn164 O167 1.933 . S
Zn164 O170 1.941 . S
Zn164 O171 1.965 . S
Zn165 O163 1.950 . S
Zn165 O172 1.938 1_455 S
Zn165 O173 1.906 . S
Zn165 O183 1.953 1_455 S
Zn166 O163 1.945 . S
Zn166 O168 1.932 . S
Zn166 O175 1.977 . S
Zn166 O176 1.910 . S
O167 Zn164 1.933 . S
O167 C178 1.226 . S
O168 Zn166 1.932 . S
O168 C178 1.307 . S
O169 Zn162 1.919 . S
O169 C180 1.253 . S
O170 Zn164 1.941 . S
O170 C180 1.283 . S
O171 Zn164 1.965 . S
O171 C179 1.303 1_455 S
O172 Zn165 1.938 1_655 S
O172 C179 1.247 . S
O173 Zn165 1.906 . S
O173 C181 1.304 . S
O174 Zn162 1.924 . S
O174 C182 1.311 . S
O175 Zn166 1.977 . S
O175 C181 1.272 . S
O176 Zn166 1.910 . S
O176 C182 1.231 . S
C177 O161 1.225 . S
C177 O183 1.298 1_455 S
C178 O167 1.226 . S
C178 O168 1.307 . S
C179 O171 1.303 1_655 S
C179 O172 1.247 . S
C180 O169 1.253 . S
C180 O170 1.283 . S
C181 O173 1.304 . S
C181 O175 1.272 . S
C182 O174 1.311 . S
C182 O176 1.231 . S
O183 Zn165 1.953 1_655 S
O183 C177 1.298 1_655 S
O184 Zn185 1.953 . S
O184 C200 1.225 . S
Zn185 O184 1.953 . S
Zn185 O186 1.949 . S
Zn185 O192 1.919 . S
Zn185 O197 1.924 . S
O186 Zn185 1.949 . S
O186 Zn187 1.923 . S
O186 Zn188 1.950 . S
O186 Zn189 1.945 . S
Zn187 O186 1.923 . S
Zn187 O190 1.933 . S
Zn187 O193 1.941 . S
Zn187 O194 1.965 . S
Zn188 O186 1.950 . S
Zn188 O195 1.938 . S
Zn188 O196 1.906 . S
Zn188 O206 1.953 . S
Zn189 O186 1.945 . S
Zn189 O191 1.932 . S
Zn189 O198 1.977 . S
Zn189 O199 1.910 . S
O190 Zn187 1.933 . S
O190 C201 1.226 . S
O191 Zn189 1.932 . S
O191 C201 1.307 . S
O192 Zn185 1.919 . S
O192 C203 1.253 . S
O193 Zn187 1.941 . S
O193 C203 1.283 . S
O194 Zn187 1.965 . S
O194 C202 1.303 . S
O195 Zn188 1.938 . S
O195 C202 1.247 . S
O196 Zn188 1.906 . S
O196 C204 1.304 . S
O197 Zn185 1.924 . S
O197 C205 1.311 . S
O198 Zn189 1.977 . S
O198 C204 1.272 . S
O199 Zn189 1.910 . S
O199 C205 1.231 . S
C200 O184 1.225 . S
C200 O206 1.298 . S
C201 O190 1.226 . S
C201 O191 1.307 . S
C202 O194 1.303 . S
C202 O195 1.247 . S
C203 O192 1.253 . S
C203 O193 1.283 . S
C204 O196 1.304 . S
C204 O198 1.272 . S
C205 O197 1.311 . S
C205 O199 1.231 . S
O206 Zn188 1.953 . S
O206 C200 1.298 . S
O207 Zn208 1.953 . S
O207 C223 1.225 . S
Zn208 O207 1.953 . S
Zn208 O209 1.949 . S
Zn208 O215 1.919 . S
Zn208 O220 1.924 . S
O209 Zn208 1.949 . S
O209 Zn210 1.923 . S
O209 Zn211 1.950 . S
O209 Zn212 1.945 . S
Zn210 O209 1.923 . S
Zn210 O213 1.933 . S
Zn210 O216 1.941 . S
Zn210 O217 1.965 . S
Zn211 O209 1.950 . S
Zn211 O218 1.938 1_455 S
Zn211 O219 1.906 . S
Zn211 O229 1.953 1_455 S
Zn212 O209 1.945 . S
Zn212 O214 1.932 . S
Zn212 O221 1.977 . S
Zn212 O222 1.925 . S
O213 Zn210 1.933 . S
O213 C224 1.226 . S
O214 Zn212 1.932 . S
O214 C224 1.307 . S
O215 Zn208 1.919 . S
O215 C226 1.253 . S
O216 Zn210 1.941 . S
O216 C226 1.283 . S
O217 Zn210 1.965 . S
O217 C225 1.303 1_455 S
O218 Zn211 1.938 1_655 S
O218 C225 1.247 . S
O219 Zn211 1.906 . S
O219 C227 1.304 . S
O220 Zn208 1.924 . S
O220 C228 1.311 1_545 S
O221 Zn212 1.977 . S
O221 C227 1.272 . S
O222 Zn212 1.925 . S
O222 C228 1.227 1_545 S
C223 O207 1.225 . S
C223 O229 1.298 1_455 S
C224 O213 1.226 . S
C224 O214 1.307 . S
C225 O217 1.303 1_655 S
C225 O218 1.247 . S
C226 O215 1.253 . S
C226 O216 1.283 . S
C227 O219 1.304 . S
C227 O221 1.272 . S
C228 O220 1.311 1_565 S
C228 O222 1.227 1_565 S
O229 Zn211 1.953 1_655 S
O229 C223 1.298 1_655 S
O230 Zn231 1.953 . S
O230 C246 1.225 . S
Zn231 O230 1.953 . S
Zn231 O232 1.949 1_556 S
Zn231 O238 1.919 . S
Zn231 O243 1.924 . S
O232 Zn231 1.949 1_554 S
O232 Zn233 1.923 . S
O232 Zn234 1.950 . S
O232 Zn235 1.945 . S
Zn233 O232 1.923 . S
Zn233 O236 1.933 . S
Zn233 O239 1.941 1_554 S
Zn233 O240 1.965 . S
Zn234 O232 1.950 . S
Zn234 O241 1.938 . S
Zn234 O242 1.906 . S
Zn234 O252 1.953 1_554 S
Zn235 O232 1.945 . S
Zn235 O237 1.932 . S
Zn235 O244 1.977 . S
Zn235 O245 1.910 . S
O236 Zn233 1.933 . S
O236 C247 1.226 . S
O237 Zn235 1.932 . S
O237 C247 1.307 . S
O238 Zn231 1.919 . S
O238 C249 1.253 . S
O239 Zn233 1.941 1_556 S
O239 C249 1.283 . S
O240 Zn233 1.965 . S
O240 C248 1.303 . S
O241 Zn234 1.938 . S
O241 C248 1.247 . S
O242 Zn234 1.906 . S
O242 C250 1.304 . S
O243 Zn231 1.924 . S
O243 C251 1.311 . S
O244 Zn235 1.977 . S
O244 C250 1.272 . S
O245 Zn235 1.910 . S
O245 C251 1.231 1_554 S
C246 O230 1.225 . S
C246 O252 1.298 . S
C247 O236 1.226 . S
C247 O237 1.307 . S
C248 O240 1.303 . S
C248 O241 1.247 . S
C249 O238 1.253 . S
C249 O239 1.283 . S
C250 O242 1.304 . S
C250 O244 1.272 . S
C251 O243 1.311 . S
C251 O245 1.231 1_556 S
O252 Zn234 1.953 1_556 S
O252 C246 1.298 . S
O253 Zn254 1.953 . S
O253 C269 1.225 . S
Zn254 O253 1.953 . S
Zn254 O255 1.949 . S
Zn254 O261 1.919 . S
Zn254 O266 1.924 . S
O255 Zn254 1.949 . S
O255 Zn256 1.923 . S
O255 Zn257 1.950 . S
O255 Zn258 1.945 . S
Zn256 O255 1.923 . S
Zn256 O259 1.933 . S
Zn256 O262 1.941 . S
Zn256 O263 1.965 . S
Zn257 O255 1.950 . S
Zn257 O264 1.938 . S
Zn257 O265 1.906 . S
Zn257 O275 1.953 . S
Zn258 O255 1.945 . S
Zn258 O260 1.932 . S
Zn258 O267 1.977 . S
Zn258 O268 1.925 . S
O259 Zn256 1.933 . S
O259 C270 1.226 . S
O260 Zn258 1.932 . S
O260 C270 1.307 . S
O261 Zn254 1.919 . S
O261 C272 1.253 . S
O262 Zn256 1.941 . S
O262 C272 1.283 . S
O263 Zn256 1.965 . S
O263 C271 1.303 . S
O264 Zn257 1.938 . S
O264 C271 1.247 . S
O265 Zn257 1.906 . S
O265 C273 1.304 . S
O266 Zn254 1.924 . S
O266 C274 1.311 1_565 S
O267 Zn258 1.977 . S
O267 C273 1.272 . S
O268 Zn258 1.925 . S
O268 C274 1.227 1_565 S
C269 O253 1.225 . S
C269 O275 1.298 . S
C270 O259 1.226 . S
C270 O260 1.307 . S
C271 O263 1.303 . S
C271 O264 1.247 . S
C272 O261 1.253 . S
C272 O262 1.283 . S
C273 O265 1.304 . S
C273 O267 1.272 . S
C274 O266 1.311 1_545 S
C274 O268 1.227 1_545 S
O275 Zn257 1.953 . S
O275 C269 1.298 . S
O276 Zn277 1.953 . S
O276 C292 1.225 . S
Zn277 O276 1.953 . S
Zn277 O278 1.949 . S
Zn277 O284 1.919 . S
Zn277 O289 1.924 . S
O278 Zn277 1.949 . S
O278 Zn279 1.923 . S
O278 Zn280 1.950 . S
O278 Zn281 1.945 . S
Zn279 O278 1.923 . S
Zn279 O282 1.933 . S
Zn279 O285 1.941 . S
Zn279 O286 1.965 . S
Zn280 O278 1.950 . S
Zn280 O287 1.938 . S
Zn280 O288 1.906 . S
Zn280 O298 1.953 . S
Zn281 O278 1.945 . S
Zn281 O283 1.932 . S
Zn281 O290 1.977 . S
Zn281 O291 1.910 . S
O282 Zn279 1.933 . S
O282 C293 1.226 . S
O283 Zn281 1.932 . S
O283 C293 1.307 . S
O284 Zn277 1.919 . S
O284 C295 1.253 . S
O285 Zn279 1.941 . S
O285 C295 1.283 . S
O286 Zn279 1.965 . S
O286 C294 1.303 . S
O287 Zn280 1.938 . S
O287 C294 1.247 . S
O288 Zn280 1.906 . S
O288 C296 1.304 . S
O289 Zn277 1.924 . S
O289 C297 1.311 . S
O290 Zn281 1.977 . S
O290 C296 1.272 . S
O291 Zn281 1.910 . S
O291 C297 1.231 . S
C292 O276 1.225 . S
C292 O298 1.298 . S
C293 O282 1.226 . S
C293 O283 1.307 . S
C294 O286 1.303 . S
C294 O287 1.247 . S
C295 O284 1.253 . S
C295 O285 1.283 . S
C296 O288 1.304 . S
C296 O290 1.272 . S
C297 O289 1.311 . S
C297 O291 1.231 . S
O298 Zn280 1.953 . S
O298 C292 1.298 . S
O299 Zn300 1.953 . S
O299 C315 1.225 . S
Zn300 O299 1.953 . S
Zn300 O301 1.949 . S
Zn300 O307 1.919 . S
Zn300 O312 1.924 . S
O301 Zn300 1.949 . S
O301 Zn302 1.923 . S
O301 Zn303 1.950 . S
O301 Zn304 1.945 . S
Zn302 O301 1.923 . S
Zn302 O305 1.933 . S
Zn302 O308 1.941 . S
Zn302 O309 1.965 . S
Zn303 O301 1.950 . S
Zn303 O310 1.938 1_655 S
Zn303 O311 1.906 . S
Zn303 O321 1.953 1_655 S
Zn304 O301 1.945 . S
Zn304 O306 1.932 . S
Zn304 O313 1.977 . S
Zn304 O314 1.925 . S
O305 Zn302 1.933 . S
O305 C316 1.226 . S
O306 Zn304 1.932 . S
O306 C316 1.307 . S
O307 Zn300 1.919 . S
O307 C318 1.253 . S
O308 Zn302 1.941 . S
O308 C318 1.283 . S
O309 Zn302 1.965 . S
O309 C317 1.303 1_655 S
O310 Zn303 1.938 1_455 S
O310 C317 1.247 . S
O311 Zn303 1.906 . S
O311 C319 1.304 . S
O312 Zn300 1.924 . S
O312 C320 1.311 1_565 S
O313 Zn304 1.977 . S
O313 C319 1.272 . S
O314 Zn304 1.925 . S
O314 C320 1.227 1_565 S
C315 O299 1.225 . S
C315 O321 1.298 1_655 S
C316 O305 1.226 . S
C316 O306 1.307 . S
C317 O309 1.303 1_455 S
C317 O310 1.247 . S
C318 O307 1.253 . S
C318 O308 1.283 . S
C319 O311 1.304 . S
C319 O313 1.272 . S
C320 O312 1.311 1_545 S
C320 O314 1.227 1_545 S
O321 Zn303 1.953 1_455 S
O321 C315 1.298 1_455 S
O322 Zn323 1.953 . S
O322 C338 1.225 . S
Zn323 O322 1.953 . S
Zn323 O324 1.949 . S
Zn323 O330 1.919 . S
Zn323 O335 1.924 . S
O324 Zn323 1.949 . S
O324 Zn325 1.923 . S
O324 Zn326 1.950 . S
O324 Zn327 1.945 1_554 S
Zn325 O324 1.923 . S
Zn325 O328 1.933 1_554 S
Zn325 O331 1.941 . S
Zn325 O332 1.965 . S
Zn326 O324 1.950 . S
Zn326 O333 1.938 . S
Zn326 O334 1.906 1_554 S
Zn326 O344 1.953 . S
Zn327 O324 1.945 1_556 S
Zn327 O329 1.932 . S
Zn327 O336 1.977 . S
Zn327 O337 1.910 1_556 S
O328 Zn325 1.933 1_556 S
O328 C339 1.226 . S
O329 Zn327 1.932 . S
O329 C339 1.307 . S
O330 Zn323 1.919 . S
O330 C341 1.253 . S
O331 Zn325 1.941 . S
O331 C341 1.283 . S
O332 Zn325 1.965 . S
O332 C340 1.303 . S
O333 Zn326 1.938 . S
O333 C340 1.247 . S
O334 Zn326 1.906 1_556 S
O334 C342 1.304 . S
O335 Zn323 1.924 . S
O335 C343 1.311 . S
O336 Zn327 1.977 . S
O336 C342 1.272 . S
O337 Zn327 1.910 1_554 S
O337 C343 1.231 . S
C338 O322 1.225 . S
C338 O344 1.298 . S
C339 O328 1.226 . S
C339 O329 1.307 . S
C340 O332 1.303 . S
C340 O333 1.247 . S
C341 O330 1.253 . S
C341 O331 1.283 . S
C342 O334 1.304 . S
C342 O336 1.272 . S
C343 O335 1.311 . S
C343 O337 1.231 . S
O344 Zn326 1.953 . S
O344 C338 1.298 . S
O345 Zn346 1.953 . S
O345 C361 1.225 . S
Zn346 O345 1.953 . S
Zn346 O347 1.949 . S
Zn346 O353 1.919 . S
Zn346 O358 1.924 . S
O347 Zn346 1.949 . S
O347 Zn348 1.923 . S
O347 Zn349 1.950 . S
O347 Zn350 1.945 . S
Zn348 O347 1.923 . S
Zn348 O351 1.933 . S
Zn348 O354 1.941 . S
Zn348 O355 1.965 . S
Zn349 O347 1.950 . S
Zn349 O356 1.938 . S
Zn349 O357 1.906 . S
Zn349 O367 1.953 . S
Zn350 O347 1.945 . S
Zn350 O352 1.932 . S
Zn350 O359 1.977 . S
Zn350 O360 1.925 . S
O351 Zn348 1.933 . S
O351 C362 1.226 . S
O352 Zn350 1.932 . S
O352 C362 1.307 . S
O353 Zn346 1.919 . S
O353 C364 1.253 . S
O354 Zn348 1.941 . S
O354 C364 1.283 . S
O355 Zn348 1.965 . S
O355 C363 1.303 . S
O356 Zn349 1.938 . S
O356 C363 1.247 . S
O357 Zn349 1.906 . S
O357 C365 1.304 . S
O358 Zn346 1.924 . S
O358 C366 1.311 1_545 S
O359 Zn350 1.977 . S
O359 C365 1.272 . S
O360 Zn350 1.925 . S
O360 C366 1.227 1_545 S
C361 O345 1.225 . S
C361 O367 1.298 . S
C362 O351 1.226 . S
C362 O352 1.307 . S
C363 O355 1.303 . S
C363 O356 1.247 . S
C364 O353 1.253 . S
C364 O354 1.283 . S
C365 O357 1.304 . S
C365 O359 1.272 . S
C366 O358 1.311 1_565 S
C366 O360 1.227 1_565 S
O367 Zn349 1.953 . S
O367 C361 1.298 . S
C368 C369 1.363 . S
C368 C374 1.379 . S
C368 N376 1.356 . S
C369 C368 1.363 . S
C369 C375 1.363 . S
C370 C371 1.363 . S
C370 C375 1.379 . S
C370 N377 1.356 . S
C371 C370 1.363 . S
C371 C374 1.363 . S
N372 C374 1.356 . S
N372 H384 0.984 . S
N372 H385 0.985 . S
N373 C375 1.356 . S
N373 H378 0.984 . S
N373 H379 0.985 1_556 S
C374 C368 1.379 . S
C374 C371 1.363 . S
C374 N372 1.356 . S
C375 C369 1.363 . S
C375 C370 1.379 . S
C375 N373 1.356 . S
N376 C368 1.356 . S
N376 H382 0.984 . S
N376 H383 0.984 . S
N377 C370 1.356 . S
N377 H380 0.984 . S
N377 H381 0.985 . S
H378 N373 0.984 . S
H379 N373 0.985 1_554 S
H380 N377 0.984 . S
H381 N377 0.985 . S
H382 N376 0.984 . S
H383 N376 0.984 . S
H384 N372 0.984 . S
H385 N372 0.985 . S
C386 C387 1.363 . S
C386 C392 1.379 . S
C386 N394 1.356 . S
C387 C386 1.363 . S
C387 C393 1.363 . S
C388 C389 1.363 . S
C388 C393 1.379 . S
C388 N395 1.356 . S
C389 C388 1.363 . S
C389 C392 1.363 . S
N390 C392 1.356 . S
N390 H402 0.984 . S
N390 H403 0.985 . S
N391 C393 1.356 . S
N391 H396 0.984 . S
N391 H397 0.985 . S
C392 C386 1.379 . S
C392 C389 1.363 . S
C392 N390 1.356 . S
C393 C387 1.363 . S
C393 C388 1.379 . S
C393 N391 1.356 . S
N394 C386 1.356 . S
N394 H400 0.984 . S
N394 H401 0.984 . S
N395 C388 1.356 . S
N395 H398 0.984 . S
N395 H399 0.985 . S
H396 N391 0.984 . S
H397 N391 0.985 . S
H398 N395 0.984 . S
H399 N395 0.985 . S
H400 N394 0.984 . S
H401 N394 0.984 . S
H402 N390 0.984 . S
H403 N390 0.985 . S
C404 C405 1.363 . S
C404 C410 1.379 . S
C404 N412 1.356 . S
C405 C404 1.363 . S
C405 C411 1.363 . S
C406 C407 1.363 . S
C406 C411 1.379 . S
C406 N413 1.356 . S
C407 C406 1.363 . S
C407 C410 1.363 . S
N408 C410 1.356 . S
N408 H420 0.984 . S
N408 H421 0.985 . S
N409 C411 1.356 . S
N409 H414 0.984 . S
N409 H415 0.985 . S
C410 C404 1.379 . S
C410 C407 1.363 . S
C410 N408 1.356 . S
C411 C405 1.363 . S
C411 C406 1.379 . S
C411 N409 1.356 . S
N412 C404 1.356 . S
N412 H418 0.984 . S
N412 H419 0.984 . S
N413 C406 1.356 . S
N413 H416 0.984 . S
N413 H417 0.985 . S
H414 N409 0.984 . S
H415 N409 0.985 . S
H416 N413 0.984 . S
H417 N413 0.985 . S
H418 N412 0.984 . S
H419 N412 0.984 . S
H420 N408 0.984 . S
H421 N408 0.985 . S
C422 C423 1.363 . S
C422 C428 1.379 . S
C422 N430 1.356 . S
C423 C422 1.363 . S
C423 C429 1.363 . S
C424 C425 1.363 . S
C424 C429 1.379 . S
C424 N431 1.356 . S
C425 C424 1.363 . S
C425 C428 1.363 . S
N426 C428 1.356 . S
N426 H438 0.984 . S
N426 H439 0.985 . S
N427 C429 1.356 . S
N427 H432 0.984 . S
N427 H433 0.985 . S
C428 C422 1.379 . S
C428 C425 1.363 . S
C428 N426 1.356 . S
C429 C423 1.363 . S
C429 C424 1.379 . S
C429 N427 1.356 . S
N430 C422 1.356 . S
N430 H436 0.984 . S
N430 H437 0.984 . S
N431 C424 1.356 . S
N431 H434 0.984 . S
N431 H435 0.985 . S
H432 N427 0.984 . S
H433 N427 0.985 . S
H434 N431 0.984 . S
H435 N431 0.985 . S
H436 N430 0.984 . S
H437 N430 0.984 . S
H438 N426 0.984 . S
H439 N426 0.985 . S
C440 C441 1.363 . S
C440 C446 1.379 . S
C440 N448 1.356 . S
C441 C440 1.363 . S
C441 C447 1.363 . S
C442 C443 1.363 . S
C442 C447 1.379 . S
C442 N449 1.356 . S
C443 C442 1.363 . S
C443 C446 1.363 . S
N444 C446 1.356 . S
N444 H456 0.984 1_554 S
N444 H457 0.985 . S
N445 C447 1.356 . S
N445 H450 0.984 . S
N445 H451 0.985 . S
C446 C440 1.379 . S
C446 C443 1.363 . S
C446 N444 1.356 . S
C447 C441 1.363 . S
C447 C442 1.379 . S
C447 N445 1.356 . S
N448 C440 1.356 . S
N448 H454 0.984 1_554 S
N448 H455 0.984 . S
N449 C442 1.356 . S
N449 H452 0.984 . S
N449 H453 0.985 . S
H450 N445 0.984 . S
H451 N445 0.985 . S
H452 N449 0.984 . S
H453 N449 0.985 . S
H454 N448 0.984 1_556 S
H455 N448 0.984 . S
H456 N444 0.984 1_556 S
H457 N444 0.985 . S
C458 C459 1.363 . S
C458 C464 1.379 . S
C458 N466 1.356 . S
C459 C458 1.363 . S
C459 C465 1.363 . S
C460 C461 1.363 . S
C460 C465 1.379 . S
C460 N467 1.356 . S
C461 C460 1.363 . S
C461 C464 1.363 . S
N462 C464 1.356 . S
N462 H474 0.984 1_556 S
N462 H475 0.985 . S
N463 C465 1.356 . S
N463 H468 0.984 . S
N463 H469 0.985 . S
C464 C458 1.379 . S
C464 C461 1.363 . S
C464 N462 1.356 . S
C465 C459 1.363 . S
C465 C460 1.379 . S
C465 N463 1.356 . S
N466 C458 1.356 . S
N466 H472 0.984 . S
N466 H473 0.984 . S
N467 C460 1.356 . S
N467 H470 0.984 . S
N467 H471 0.985 . S
H468 N463 0.984 . S
H469 N463 0.985 . S
H470 N467 0.984 . S
H471 N467 0.985 . S
H472 N466 0.984 . S
H473 N466 0.984 . S
H474 N462 0.984 1_554 S
H475 N462 0.985 . S
C476 C477 1.363 . S
C476 C482 1.379 . S
C476 N484 1.356 . S
C477 C476 1.363 . S
C477 C483 1.363 . S
C478 C479 1.363 . S
C478 C483 1.379 . S
C478 N485 1.356 . S
C479 C478 1.363 . S
C479 C482 1.363 . S
N480 C482 1.356 . S
N480 H492 0.984 . S
N480 H493 0.985 . S
N481 C483 1.356 . S
N481 H486 0.984 . S
N481 H487 0.985 . S
C482 C476 1.379 . S
C482 C479 1.363 . S
C482 N480 1.356 . S
C483 C477 1.363 . S
C483 C478 1.379 . S
C483 N481 1.356 . S
N484 C476 1.356 . S
N484 H490 0.984 . S
N484 H491 0.984 . S
N485 C478 1.356 . S
N485 H488 0.984 . S
N485 H489 0.985 . S
H486 N481 0.984 . S
H487 N481 0.985 . S
H488 N485 0.984 . S
H489 N485 0.985 . S
H490 N484 0.984 . S
H491 N484 0.984 . S
H492 N480 0.984 . S
H493 N480 0.985 . S
C494 C495 1.363 . S
C494 C500 1.379 . S
C494 N502 1.356 . S
C495 C494 1.363 . S
C495 C501 1.363 . S
C496 C497 1.363 . S
C496 C501 1.379 . S
C496 N503 1.356 . S
C497 C496 1.363 . S
C497 C500 1.363 . S
N498 C500 1.356 . S
N498 H510 0.984 . S
N498 H511 0.985 . S
N499 C501 1.356 . S
N499 H504 0.984 . S
N499 H505 0.985 . S
C500 C494 1.379 . S
C500 C497 1.363 . S
C500 N498 1.356 . S
C501 C495 1.363 . S
C501 C496 1.379 . S
C501 N499 1.356 . S
N502 C494 1.356 . S
N502 H508 0.984 . S
N502 H509 0.984 . S
N503 C496 1.356 . S
N503 H506 0.984 . S
N503 H507 0.985 . S
H504 N499 0.984 . S
H505 N499 0.985 . S
H506 N503 0.984 . S
H507 N503 0.985 . S
H508 N502 0.984 . S
H509 N502 0.984 . S
H510 N498 0.984 . S
H511 N498 0.985 . S
C512 C513 1.363 . S
C512 C518 1.379 . S
C512 N520 1.356 . S
C513 C512 1.363 . S
C513 C519 1.363 . S
C514 C515 1.363 . S
C514 C519 1.379 . S
C514 N521 1.356 . S
C515 C514 1.363 . S
C515 C518 1.363 . S
N516 C518 1.356 . S
N516 H528 0.984 . S
N516 H529 0.985 . S
N517 C519 1.356 . S
N517 H522 0.984 . S
N517 H523 0.985 . S
C518 C512 1.379 . S
C518 C515 1.363 . S
C518 N516 1.356 . S
C519 C513 1.363 . S
C519 C514 1.379 . S
C519 N517 1.356 . S
N520 C512 1.356 . S
N520 H526 0.984 . S
N520 H527 0.984 . S
N521 C514 1.356 . S
N521 H524 0.984 . S
N521 H525 0.985 . S
H522 N517 0.984 . S
H523 N517 0.985 . S
H524 N521 0.984 . S
H525 N521 0.985 . S
H526 N520 0.984 . S
H527 N520 0.984 . S
H528 N516 0.984 . S
H529 N516 0.985 . S
C530 C531 1.363 . S
C530 C536 1.379 . S
C530 N538 1.356 . S
C531 C530 1.363 . S
C531 C537 1.363 . S
C532 C533 1.363 . S
C532 C537 1.379 . S
C532 N539 1.356 . S
C533 C532 1.363 . S
C533 C536 1.363 . S
N534 C536 1.356 . S
N534 H546 0.984 . S
N534 H547 0.985 . S
N535 C537 1.356 . S
N535 H540 0.984 . S
N535 H541 0.985 . S
C536 C530 1.379 . S
C536 C533 1.363 . S
C536 N534 1.356 . S
C537 C531 1.363 . S
C537 C532 1.379 . S
C537 N535 1.356 . S
N538 C530 1.356 . S
N538 H544 0.984 . S
N538 H545 0.984 . S
N539 C532 1.356 . S
N539 H542 0.984 . S
N539 H543 0.985 . S
H540 N535 0.984 . S
H541 N535 0.985 . S
H542 N539 0.984 . S
H543 N539 0.985 . S
H544 N538 0.984 . S
H545 N538 0.984 . S
H546 N534 0.984 . S
H547 N534 0.985 . S
C548 C549 1.363 . S
C548 C554 1.379 . S
C548 N556 1.356 . S
C549 C548 1.363 . S
C549 C555 1.363 . S
C550 C551 1.363 . S
C550 C555 1.379 . S
C550 N557 1.356 . S
C551 C550 1.363 . S
C551 C554 1.363 . S
N552 C554 1.356 . S
N552 H564 0.984 . S
N552 H565 0.985 . S
N553 C555 1.356 . S
N553 H558 0.984 . S
N553 H559 0.985 . S
C554 C548 1.379 . S
C554 C551 1.363 . S
C554 N552 1.356 . S
C555 C549 1.363 . S
C555 C550 1.379 . S
C555 N553 1.356 . S
N556 C548 1.356 . S
N556 H562 0.984 . S
N556 H563 0.984 . S
N557 C550 1.356 . S
N557 H560 0.984 . S
N557 H561 0.985 . S
H558 N553 0.984 . S
H559 N553 0.985 . S
H560 N557 0.984 . S
H561 N557 0.985 . S
H562 N556 0.984 . S
H563 N556 0.984 . S
H564 N552 0.984 . S
H565 N552 0.985 . S
C566 C567 1.363 . S
C566 C572 1.379 . S
C566 N574 1.356 . S
C567 C566 1.363 . S
C567 C573 1.363 . S
C568 C569 1.363 . S
C568 C573 1.379 . S
C568 N575 1.356 . S
C569 C568 1.363 . S
C569 C572 1.363 . S
N570 C572 1.356 . S
N570 H582 0.984 . S
N570 H583 0.985 . S
N571 C573 1.356 . S
N571 H576 0.984 . S
N571 H577 0.985 . S
C572 C566 1.379 . S
C572 C569 1.363 . S
C572 N570 1.356 . S
C573 C567 1.363 . S
C573 C568 1.379 . S
C573 N571 1.356 . S
N574 C566 1.356 . S
N574 H580 0.984 . S
N574 H581 0.984 . S
N575 C568 1.356 . S
N575 H578 0.984 . S
N575 H579 0.985 . S
H576 N571 0.984 . S
H577 N571 0.985 . S
H578 N575 0.984 . S
H579 N575 0.985 . S
H580 N574 0.984 . S
H581 N574 0.984 . S
H582 N570 0.984 . S
H583 N570 0.985 . S
C584 C585 1.363 . S
C584 C590 1.379 . S
C584 N592 1.356 . S
C585 C584 1.363 . S
C585 C591 1.363 . S
C586 C587 1.363 . S
C586 C591 1.379 . S
C586 N593 1.356 . S
C587 C586 1.363 . S
C587 C590 1.363 . S
N588 C590 1.356 . S
N588 H600 0.984 . S
N588 H601 0.985 . S
N589 C591 1.356 . S
N589 H594 0.984 . S
N589 H595 0.985 . S
C590 C584 1.379 . S
C590 C587 1.363 . S
C590 N588 1.356 . S
C591 C585 1.363 . S
C591 C586 1.379 . S
C591 N589 1.356 . S
N592 C584 1.356 . S
N592 H598 0.984 . S
N592 H599 0.984 . S
N593 C586 1.356 . S
N593 H596 0.984 . S
N593 H597 0.985 . S
H594 N589 0.984 . S
H595 N589 0.985 . S
H596 N593 0.984 . S
H597 N593 0.985 . S
H598 N592 0.984 . S
H599 N592 0.984 . S
H600 N588 0.984 . S
H601 N588 0.985 . S
C602 C603 1.363 . S
C602 C608 1.379 . S
C602 N610 1.356 . S
C603 C602 1.363 . S
C603 C609 1.363 . S
C604 C605 1.363 . S
C604 C609 1.379 . S
C604 N611 1.356 . S
C605 C604 1.363 . S
C605 C608 1.363 . S
N606 C608 1.356 . S
N606 H618 0.984 . S
N606 H619 0.985 . S
N607 C609 1.356 . S
N607 H612 0.984 . S
N607 H613 0.985 . S
C608 C602 1.379 . S
C608 C605 1.363 . S
C608 N606 1.356 . S
C609 C603 1.363 . S
C609 C604 1.379 . S
C609 N607 1.356 . S
N610 C602 1.356 . S
N610 H616 0.984 . S
N610 H617 0.984 . S
N611 C604 1.356 . S
N611 H614 0.984 . S
N611 H615 0.985 . S
H612 N607 0.984 . S
H613 N607 0.985 . S
H614 N611 0.984 . S
H615 N611 0.985 . S
H616 N610 0.984 . S
H617 N610 0.984 . S
H618 N606 0.984 . S
H619 N606 0.985 . S
C620 C621 1.363 . S
C620 C626 1.379 . S
C620 N628 1.356 . S
C621 C620 1.363 . S
C621 C627 1.363 . S
C622 C623 1.363 . S
C622 C627 1.379 . S
C622 N629 1.356 . S
C623 C622 1.363 . S
C623 C626 1.363 . S
N624 C626 1.356 . S
N624 H636 0.984 . S
N624 H637 0.985 . S
N625 C627 1.356 . S
N625 H630 0.984 . S
N625 H631 0.985 . S
C626 C620 1.379 . S
C626 C623 1.363 . S
C626 N624 1.356 . S
C627 C621 1.363 . S
C627 C622 1.379 . S
C627 N625 1.356 . S
N628 C620 1.356 . S
N628 H634 0.984 . S
N628 H635 0.984 . S
N629 C622 1.356 . S
N629 H632 0.984 . S
N629 H633 0.985 . S
H630 N625 0.984 . S
H631 N625 0.985 . S
H632 N629 0.984 . S
H633 N629 0.985 . S
H634 N628 0.984 . S
H635 N628 0.984 . S
H636 N624 0.984 . S
H637 N624 0.985 . S
C638 C639 1.363 . S
C638 C644 1.379 . S
C638 N646 1.356 . S
C639 C638 1.363 . S
C639 C645 1.363 . S
C640 C641 1.363 . S
C640 C645 1.379 . S
C640 N647 1.356 . S
C641 C640 1.363 . S
C641 C644 1.363 . S
N642 C644 1.356 . S
N642 H654 0.984 . S
N642 H655 0.985 . S
N643 C645 1.356 . S
N643 H648 0.984 . S
N643 H649 0.985 1_556 S
C644 C638 1.379 . S
C644 C641 1.363 . S
C644 N642 1.356 . S
C645 C639 1.363 . S
C645 C640 1.379 . S
C645 N643 1.356 . S
N646 C638 1.356 . S
N646 H652 0.984 . S
N646 H653 0.984 . S
N647 C640 1.356 . S
N647 H650 0.984 . S
N647 H651 0.985 . S
H648 N643 0.984 . S
H649 N643 0.985 1_554 S
H650 N647 0.984 . S
H651 N647 0.985 . S
H652 N646 0.984 . S
H653 N646 0.984 . S
H654 N642 0.984 . S
H655 N642 0.985 . S
C656 C657 1.363 . S
C656 C662 1.379 . S
C656 N664 1.356 . S
C657 C656 1.363 . S
C657 C663 1.363 . S
C658 C659 1.363 . S
C658 C663 1.379 . S
C658 N665 1.356 . S
C659 C658 1.363 . S
C659 C662 1.363 . S
N660 C662 1.356 . S
N660 H672 0.984 . S
N660 H673 0.985 . S
N661 C663 1.356 . S
N661 H666 0.984 . S
N661 H667 0.985 . S
C662 C656 1.379 . S
C662 C659 1.363 . S
C662 N660 1.356 . S
C663 C657 1.363 . S
C663 C658 1.379 . S
C663 N661 1.356 . S
N664 C656 1.356 . S
N664 H670 0.984 . S
N664 H671 0.984 . S
N665 C658 1.356 . S
N665 H668 0.984 . S
N665 H669 0.985 . S
H666 N661 0.984 . S
H667 N661 0.985 . S
H668 N665 0.984 . S
H669 N665 0.985 . S
H670 N664 0.984 . S
H671 N664 0.984 . S
H672 N660 0.984 . S
H673 N660 0.985 . S
C674 C675 1.363 . S
C674 C680 1.379 . S
C674 N682 1.356 . S
C675 C674 1.363 . S
C675 C681 1.363 . S
C676 C677 1.363 . S
C676 C681 1.379 . S
C676 N683 1.356 . S
C677 C676 1.363 . S
C677 C680 1.363 . S
N678 C680 1.356 . S
N678 H690 0.984 . S
N678 H691 0.985 . S
N679 C681 1.356 . S
N679 H684 0.984 . S
N679 H685 0.985 . S
C680 C674 1.379 . S
C680 C677 1.363 . S
C680 N678 1.356 . S
C681 C675 1.363 . S
C681 C676 1.379 . S
C681 N679 1.356 . S
N682 C674 1.356 . S
N682 H688 0.984 . S
N682 H689 0.984 . S
N683 C676 1.356 . S
N683 H686 0.984 . S
N683 H687 0.985 . S
H684 N679 0.984 . S
H685 N679 0.985 . S
H686 N683 0.984 . S
H687 N683 0.985 . S
H688 N682 0.984 . S
H689 N682 0.984 . S
H690 N678 0.984 . S
H691 N678 0.985 . S
C692 C693 1.363 . S
C692 C698 1.379 . S
C692 N700 1.356 . S
C693 C692 1.363 . S
C693 C699 1.363 . S
C694 C695 1.363 . S
C694 C699 1.379 . S
C694 N701 1.356 . S
C695 C694 1.363 . S
C695 C698 1.363 . S
N696 C698 1.356 . S
N696 H708 0.984 . S
N696 H709 0.985 . S
N697 C699 1.356 . S
N697 H702 0.973 1_455 S
N697 H703 0.985 . S
C698 C692 1.379 . S
C698 C695 1.363 . S
C698 N696 1.356 . S
C699 C693 1.363 . S
C699 C694 1.379 . S
C699 N697 1.356 . S
N700 C692 1.356 . S
N700 H706 0.984 . S
N700 H707 0.984 . S
N701 C694 1.356 . S
N701 H704 0.984 . S
N701 H705 0.985 . S
H702 N697 0.973 1_655 S
H703 N697 0.985 . S
H704 N701 0.984 . S
H705 N701 0.985 . S
H706 N700 0.984 . S
H707 N700 0.984 . S
H708 N696 0.984 . S
H709 N696 0.985 . S
C710 C711 1.363 . S
C710 C716 1.379 . S
C710 N718 1.356 . S
C711 C710 1.363 . S
C711 C717 1.363 . S
C712 C713 1.363 . S
C712 C717 1.379 . S
C712 N719 1.356 . S
C713 C712 1.363 . S
C713 C716 1.363 . S
N714 C716 1.356 . S
N714 H726 0.984 . S
N714 H727 0.985 . S
N715 C717 1.356 . S
N715 H720 0.984 . S
N715 H721 0.985 . S
C716 C710 1.379 . S
C716 C713 1.363 . S
C716 N714 1.356 . S
C717 C711 1.363 . S
C717 C712 1.379 . S
C717 N715 1.356 . S
N718 C710 1.356 . S
N718 H724 0.984 . S
N718 H725 0.984 . S
N719 C712 1.356 . S
N719 H722 0.984 . S
N719 H723 0.985 . S
H720 N715 0.984 . S
H721 N715 0.985 . S
H722 N719 0.984 . S
H723 N719 0.985 . S
H724 N718 0.984 . S
H725 N718 0.984 . S
H726 N714 0.984 . S
H727 N714 0.985 . S
C728 C729 1.363 . S
C728 C734 1.379 . S
C728 N736 1.356 . S
C729 C728 1.363 . S
C729 C735 1.363 . S
C730 C731 1.363 . S
C730 C735 1.379 . S
C730 N737 1.356 . S
C731 C730 1.363 . S
C731 C734 1.363 . S
N732 C734 1.356 . S
N732 H744 0.984 . S
N732 H745 0.985 . S
N733 C735 1.356 . S
N733 H738 0.984 . S
N733 H739 0.985 . S
C734 C728 1.379 . S
C734 C731 1.363 . S
C734 N732 1.356 . S
C735 C729 1.363 . S
C735 C730 1.379 . S
C735 N733 1.356 . S
N736 C728 1.356 . S
N736 H742 0.984 . S
N736 H743 0.984 . S
N737 C730 1.356 . S
N737 H740 0.984 . S
N737 H741 0.985 . S
H738 N733 0.984 . S
H739 N733 0.985 . S
H740 N737 0.984 . S
H741 N737 0.985 . S
H742 N736 0.984 . S
H743 N736 0.984 . S
H744 N732 0.984 . S
H745 N732 0.985 . S
C746 C747 1.363 1_554 S
C746 C752 1.379 1_554 S
C746 N754 1.356 . S
C747 C746 1.363 1_556 S
C747 C753 1.363 . S
C748 C749 1.363 . S
C748 C753 1.379 . S
C748 N755 1.356 . S
C749 C748 1.363 . S
C749 C752 1.363 . S
N750 C752 1.356 . S
N750 H762 0.984 1_556 S
N750 H763 0.985 . S
N751 C753 1.356 . S
N751 H756 0.984 . S
N751 H757 0.985 . S
C752 C746 1.379 1_556 S
C752 C749 1.363 . S
C752 N750 1.356 . S
C753 C747 1.363 . S
C753 C748 1.379 . S
C753 N751 1.356 . S
N754 C746 1.356 . S
N754 H760 0.984 . S
N754 H761 0.984 . S
N755 C748 1.356 . S
N755 H758 0.984 . S
N755 H759 0.985 . S
H756 N751 0.984 . S
H757 N751 0.985 . S
H758 N755 0.984 . S
H759 N755 0.985 . S
H760 N754 0.984 . S
H761 N754 0.984 . S
H762 N750 0.984 1_554 S
H763 N750 0.985 . S
C764 C765 1.363 . S
C764 C770 1.379 . S
C764 N772 1.356 . S
C765 C764 1.363 . S
C765 C771 1.363 . S
C766 C767 1.363 . S
C766 C771 1.379 . S
C766 N773 1.356 . S
C767 C766 1.363 . S
C767 C770 1.363 . S
N768 C770 1.356 . S
N768 H780 0.984 . S
N768 H781 0.985 . S
N769 C771 1.356 . S
N769 H774 0.984 . S
N769 H775 0.985 . S
C770 C764 1.379 . S
C770 C767 1.363 . S
C770 N768 1.356 . S
C771 C765 1.363 . S
C771 C766 1.379 . S
C771 N769 1.356 . S
N772 C764 1.356 . S
N772 H778 0.984 . S
N772 H779 0.984 . S
N773 C766 1.356 . S
N773 H776 0.984 . S
N773 H777 0.985 . S
H774 N769 0.984 . S
H775 N769 0.985 . S
H776 N773 0.984 . S
H777 N773 0.985 . S
H778 N772 0.984 . S
H779 N772 0.984 . S
H780 N768 0.984 . S
H781 N768 0.985 . S
C782 C783 1.363 . S
C782 C788 1.379 . S
C782 N790 1.356 . S
C783 C782 1.363 . S
C783 C789 1.363 . S
C784 C785 1.363 . S
C784 C789 1.379 . S
C784 N791 1.356 . S
C785 C784 1.363 . S
C785 C788 1.363 . S
N786 C788 1.356 . S
N786 H798 0.984 . S
N786 H799 0.985 . S
N787 C789 1.356 . S
N787 H792 0.984 . S
N787 H793 0.985 . S
C788 C782 1.379 . S
C788 C785 1.363 . S
C788 N786 1.356 . S
C789 C783 1.363 . S
C789 C784 1.379 . S
C789 N787 1.356 . S
N790 C782 1.356 . S
N790 H796 0.984 . S
N790 H797 0.984 . S
N791 C784 1.356 . S
N791 H794 0.984 . S
N791 H795 0.985 . S
H792 N787 0.984 . S
H793 N787 0.985 . S
H794 N791 0.984 . S
H795 N791 0.985 . S
H796 N790 0.984 . S
H797 N790 0.984 . S
H798 N786 0.984 . S
H799 N786 0.985 . S
C800 C801 1.363 . S
C800 C806 1.379 . S
C800 N808 1.356 . S
C801 C800 1.363 . S
C801 C807 1.363 . S
C802 C803 1.363 . S
C802 C807 1.379 . S
C802 N809 1.356 . S
C803 C802 1.363 . S
C803 C806 1.363 . S
N804 C806 1.356 . S
N804 H816 0.984 . S
N804 H817 0.985 . S
N805 C807 1.356 . S
N805 H810 0.984 . S
N805 H811 0.985 . S
C806 C800 1.379 . S
C806 C803 1.363 . S
C806 N804 1.356 . S
C807 C801 1.363 . S
C807 C802 1.379 . S
C807 N805 1.356 . S
N808 C800 1.356 . S
N808 H814 0.984 . S
N808 H815 0.984 . S
N809 C802 1.356 . S
N809 H812 0.984 . S
N809 H813 0.985 . S
H810 N805 0.984 . S
H811 N805 0.985 . S
H812 N809 0.984 . S
H813 N809 0.985 . S
H814 N808 0.984 . S
H815 N808 0.984 . S
H816 N804 0.984 . S
H817 N804 0.985 . S
C818 C819 1.363 . S
C818 C824 1.379 . S
C818 N826 1.356 . S
C819 C818 1.363 . S
C819 C825 1.363 . S
C820 C821 1.363 . S
C820 C825 1.379 . S
C820 N827 1.356 . S
C821 C820 1.363 . S
C821 C824 1.363 . S
N822 C824 1.356 . S
N822 H834 0.984 . S
N822 H835 0.985 . S
N823 C825 1.356 . S
N823 H828 0.984 . S
N823 H829 0.985 . S
C824 C818 1.379 . S
C824 C821 1.363 . S
C824 N822 1.356 . S
C825 C819 1.363 . S
C825 C820 1.379 . S
C825 N823 1.356 . S
N826 C818 1.356 . S
N826 H832 0.984 . S
N826 H833 0.984 . S
N827 C820 1.356 . S
N827 H830 0.984 . S
N827 H831 0.985 . S
H828 N823 0.984 . S
H829 N823 0.985 . S
H830 N827 0.984 . S
H831 N827 0.985 . S
H832 N826 0.984 . S
H833 N826 0.984 . S
H834 N822 0.984 . S
H835 N822 0.985 . S
C836 C837 1.363 . S
C836 C842 1.379 . S
C836 N844 1.356 . S
C837 C836 1.363 . S
C837 C843 1.363 . S
C838 C839 1.363 . S
C838 C843 1.379 . S
C838 N845 1.356 . S
C839 C838 1.363 . S
C839 C842 1.363 . S
N840 C842 1.356 . S
N840 H852 0.984 . S
N840 H853 0.985 . S
N841 C843 1.356 . S
N841 H846 0.984 . S
N841 H847 0.985 . S
C842 C836 1.379 . S
C842 C839 1.363 . S
C842 N840 1.356 . S
C843 C837 1.363 . S
C843 C838 1.379 . S
C843 N841 1.356 . S
N844 C836 1.356 . S
N844 H850 0.984 . S
N844 H851 0.984 . S
N845 C838 1.356 . S
N845 H848 0.984 . S
N845 H849 0.985 . S
H846 N841 0.984 . S
H847 N841 0.985 . S
H848 N845 0.984 . S
H849 N845 0.985 . S
H850 N844 0.984 . S
H851 N844 0.984 . S
H852 N840 0.984 . S
H853 N840 0.985 . S
C854 C855 1.363 . S
C854 C860 1.379 . S
C854 N862 1.356 . S
C855 C854 1.363 . S
C855 C861 1.363 . S
C856 C857 1.363 . S
C856 C861 1.379 . S
C856 N863 1.356 . S
C857 C856 1.363 . S
C857 C860 1.363 . S
N858 C860 1.356 . S
N858 H870 0.984 . S
N858 H871 0.985 . S
N859 C861 1.356 . S
N859 H864 0.984 . S
N859 H865 0.985 . S
C860 C854 1.379 . S
C860 C857 1.363 . S
C860 N858 1.356 . S
C861 C855 1.363 . S
C861 C856 1.379 . S
C861 N859 1.356 . S
N862 C854 1.356 . S
N862 H868 0.984 1_554 S
N862 H869 0.984 . S
N863 C856 1.356 . S
N863 H866 0.984 . S
N863 H867 0.985 . S
H864 N859 0.984 . S
H865 N859 0.985 . S
H866 N863 0.984 . S
H867 N863 0.985 . S
H868 N862 0.984 1_556 S
H869 N862 0.984 . S
H870 N858 0.984 . S
H871 N858 0.985 . S
C872 C873 1.363 . S
C872 C878 1.379 . S
C872 N880 1.356 . S
C873 C872 1.363 . S
C873 C879 1.363 . S
C874 C875 1.363 . S
C874 C879 1.379 . S
C874 N881 1.356 . S
C875 C874 1.363 . S
C875 C878 1.363 . S
N876 C878 1.356 . S
N876 H888 0.984 . S
N876 H889 0.987 1_455 S
N877 C879 1.356 . S
N877 H882 0.984 . S
N877 H883 0.985 . S
C878 C872 1.379 . S
C878 C875 1.363 . S
C878 N876 1.356 . S
C879 C873 1.363 . S
C879 C874 1.379 . S
C879 N877 1.356 . S
N880 C872 1.356 . S
N880 H886 0.984 . S
N880 H887 0.984 . S
N881 C874 1.356 . S
N881 H884 0.984 . S
N881 H885 0.985 . S
H882 N877 0.984 . S
H883 N877 0.985 . S
H884 N881 0.984 . S
H885 N881 0.985 . S
H886 N880 0.984 . S
H887 N880 0.984 . S
H888 N876 0.984 . S
H889 N876 0.987 1_655 S
C890 C891 1.363 . S
C890 C896 1.379 . S
C890 N898 1.356 . S
C891 C890 1.363 . S
C891 C897 1.363 . S
C892 C893 1.363 . S
C892 C897 1.379 . S
C892 N899 1.356 . S
C893 C892 1.363 . S
C893 C896 1.363 . S
N894 C896 1.356 . S
N894 H906 0.984 . S
N894 H907 0.985 . S
N895 C897 1.356 . S
N895 H900 0.984 . S
N895 H901 0.985 . S
C896 C890 1.379 . S
C896 C893 1.363 . S
C896 N894 1.356 . S
C897 C891 1.363 . S
C897 C892 1.379 . S
C897 N895 1.356 . S
N898 C890 1.356 . S
N898 H904 0.984 . S
N898 H905 0.984 . S
N899 C892 1.356 . S
N899 H902 0.984 . S
N899 H903 0.985 . S
H900 N895 0.984 . S
H901 N895 0.985 . S
H902 N899 0.984 . S
H903 N899 0.985 . S
H904 N898 0.984 . S
H905 N898 0.984 . S
H906 N894 0.984 . S
H907 N894 0.985 . S
C908 C909 1.363 . S
C908 C914 1.379 . S
C908 N916 1.356 . S
C909 C908 1.363 . S
C909 C915 1.363 . S
C910 C911 1.363 . S
C910 C915 1.379 . S
C910 N917 1.356 . S
C911 C910 1.363 . S
C911 C914 1.363 . S
N912 C914 1.356 . S
N912 H924 0.984 . S
N912 H925 0.985 . S
N913 C915 1.356 . S
N913 H918 0.984 . S
N913 H919 0.985 . S
C914 C908 1.379 . S
C914 C911 1.363 . S
C914 N912 1.356 . S
C915 C909 1.363 . S
C915 C910 1.379 . S
C915 N913 1.356 . S
N916 C908 1.356 . S
N916 H922 0.984 . S
N916 H923 0.984 . S
N917 C910 1.356 . S
N917 H920 0.984 . S
N917 H921 0.985 . S
H918 N913 0.984 . S
H919 N913 0.985 . S
H920 N917 0.984 . S
H921 N917 0.985 . S
H922 N916 0.984 . S
H923 N916 0.984 . S
H924 N912 0.984 . S
H925 N912 0.985 . S
C926 C927 1.363 . S
C926 C932 1.379 . S
C926 N934 1.356 . S
C927 C926 1.363 . S
C927 C933 1.363 . S
C928 C929 1.363 1_554 S
C928 C933 1.379 1_554 S
C928 N935 1.356 . S
C929 C928 1.363 1_556 S
C929 C932 1.363 . S
N930 C932 1.356 . S
N930 H942 0.984 . S
N930 H943 0.985 . S
N931 C933 1.356 1_554 S
N931 H936 0.984 1_554 S
N931 H937 0.985 . S
C932 C926 1.379 . S
C932 C929 1.363 . S
C932 N930 1.356 . S
C933 C927 1.363 . S
C933 C928 1.379 1_556 S
C933 N931 1.356 1_556 S
N934 C926 1.356 . S
N934 H940 0.984 . S
N934 H941 0.984 . S
N935 C928 1.356 . S
N935 H938 0.984 . S
N935 H939 0.985 . S
H936 N931 0.984 1_556 S
H937 N931 0.985 . S
H938 N935 0.984 . S
H939 N935 0.985 . S
H940 N934 0.984 . S
H941 N934 0.984 . S
H942 N930 0.984 . S
H943 N930 0.985 . S
C944 C945 1.363 . S
C944 C950 1.379 . S
C944 N952 1.356 . S
C945 C944 1.363 . S
C945 C951 1.363 . S
C946 C947 1.363 . S
C946 C951 1.379 . S
C946 N953 1.356 . S
C947 C946 1.363 . S
C947 C950 1.363 . S
N948 C950 1.356 . S
N948 H960 0.984 . S
N948 H961 0.985 . S
N949 C951 1.356 . S
N949 H954 0.984 . S
N949 H955 0.985 . S
C950 C944 1.379 . S
C950 C947 1.363 . S
C950 N948 1.356 . S
C951 C945 1.363 . S
C951 C946 1.379 . S
C951 N949 1.356 . S
N952 C944 1.356 . S
N952 H958 0.984 . S
N952 H959 0.984 . S
N953 C946 1.356 . S
N953 H956 0.984 . S
N953 H957 0.985 . S
H954 N949 0.984 . S
H955 N949 0.985 . S
H956 N953 0.984 . S
H957 N953 0.985 . S
H958 N952 0.984 . S
H959 N952 0.984 . S
H960 N948 0.984 . S
H961 N948 0.985 . S
C962 C963 1.363 . S
C962 C968 1.379 . S
C962 N970 1.356 . S
C963 C962 1.363 . S
C963 C969 1.363 . S
C964 C965 1.363 . S
C964 C969 1.379 . S
C964 N971 1.356 . S
C965 C964 1.363 . S
C965 C968 1.363 . S
N966 C968 1.356 . S
N966 H978 0.984 . S
N966 H979 0.985 . S
N967 C969 1.356 . S
N967 H972 0.984 . S
N967 H973 0.985 . S
C968 C962 1.379 . S
C968 C965 1.363 . S
C968 N966 1.356 . S
C969 C963 1.363 . S
C969 C964 1.379 . S
C969 N967 1.356 . S
N970 C962 1.356 . S
N970 H976 0.984 . S
N970 H977 0.984 . S
N971 C964 1.356 . S
N971 H974 0.984 . S
N971 H975 0.985 . S
H972 N967 0.984 . S
H973 N967 0.985 . S
H974 N971 0.984 . S
H975 N971 0.985 . S
H976 N970 0.984 . S
H977 N970 0.984 . S
H978 N966 0.984 . S
H979 N966 0.985 . S
C980 C981 1.363 . S
C980 C986 1.379 . S
C980 N988 1.356 . S
C981 C980 1.363 . S
C981 C987 1.363 . S
C982 C983 1.363 . S
C982 C987 1.379 . S
C982 N989 1.356 . S
C983 C982 1.363 . S
C983 C986 1.363 . S
N984 C986 1.356 . S
N984 H996 0.984 . S
N984 H997 0.985 . S
N985 C987 1.356 . S
N985 H990 0.984 . S
N985 H991 0.985 . S
C986 C980 1.379 . S
C986 C983 1.363 . S
C986 N984 1.356 . S
C987 C981 1.363 . S
C987 C982 1.379 . S
C987 N985 1.356 . S
N988 C980 1.356 . S
N988 H994 0.984 . S
N988 H995 0.984 . S
N989 C982 1.356 . S
N989 H992 0.984 . S
N989 H993 0.985 . S
H990 N985 0.984 . S
H991 N985 0.985 . S
H992 N989 0.984 . S
H993 N989 0.985 . S
H994 N988 0.984 . S
H995 N988 0.984 . S
H996 N984 0.984 . S
H997 N984 0.985 . S
C998 C999 1.363 . S
C998 C1004 1.379 1_554 S
C998 N1006 1.356 . S
C999 C998 1.363 . S
C999 C1005 1.363 1_455 S
C1000 C1001 1.363 1_554 S
C1000 C1005 1.379 . S
C1000 N1007 1.356 1_554 S
C1001 C1000 1.363 1_556 S
C1001 C1004 1.363 1_655 S
N1002 C1004 1.356 . S
N1002 H1014 0.984 . S
N1002 H1015 0.985 1_455 S
N1003 C1005 1.356 . S
N1003 H1008 0.984 1_655 S
N1003 H1009 0.985 . S
C1004 C998 1.379 1_556 S
C1004 C1001 1.363 1_455 S
C1004 N1002 1.356 . S
C1005 C999 1.363 1_655 S
C1005 C1000 1.379 . S
C1005 N1003 1.356 . S
N1006 C998 1.356 . S
N1006 H1012 0.984 . S
N1006 H1013 0.984 . S
N1007 C1000 1.356 1_556 S
N1007 H1010 0.984 . S
N1007 H1011 0.985 . S
H1008 N1003 0.984 1_455 S
H1009 N1003 0.985 . S
H1010 N1007 0.984 . S
H1011 N1007 0.985 . S
H1012 N1006 0.984 . S
H1013 N1006 0.984 . S
H1014 N1002 0.984 . S
H1015 N1002 0.985 1_655 S
C1016 C1017 1.363 . S
C1016 C1022 1.379 . S
C1016 N1024 1.356 . S
C1017 C1016 1.363 . S
C1017 C1023 1.363 . S
C1018 C1019 1.363 . S
C1018 C1023 1.379 . S
C1018 N1025 1.356 . S
C1019 C1018 1.363 . S
C1019 C1022 1.363 . S
N1020 C1022 1.356 . S
N1020 H1032 0.984 . S
N1020 H1033 0.985 . S
N1021 C1023 1.356 . S
N1021 H1026 0.984 . S
N1021 H1027 0.985 . S
C1022 C1016 1.379 . S
C1022 C1019 1.363 . S
C1022 N1020 1.356 . S
C1023 C1017 1.363 . S
C1023 C1018 1.379 . S
C1023 N1021 1.356 . S
N1024 C1016 1.356 . S
N1024 H1030 0.984 . S
N1024 H1031 0.984 . S
N1025 C1018 1.356 . S
N1025 H1028 0.984 . S
N1025 H1029 0.985 . S
H1026 N1021 0.984 . S
H1027 N1021 0.985 . S
H1028 N1025 0.984 . S
H1029 N1025 0.985 . S
H1030 N1024 0.984 . S
H1031 N1024 0.984 . S
H1032 N1020 0.984 . S
H1033 N1020 0.985 . S
C1034 C1035 1.363 . S
C1034 C1040 1.379 . S
C1034 N1042 1.356 . S
C1035 C1034 1.363 . S
C1035 C1041 1.363 . S
C1036 C1037 1.363 . S
C1036 C1041 1.379 . S
C1036 N1043 1.356 . S
C1037 C1036 1.363 . S
C1037 C1040 1.363 . S
N1038 C1040 1.356 . S
N1038 H1050 0.984 . S
N1038 H1051 0.985 . S
N1039 C1041 1.356 . S
N1039 H1044 0.984 . S
N1039 H1045 0.985 . S
C1040 C1034 1.379 . S
C1040 C1037 1.363 . S
C1040 N1038 1.356 . S
C1041 C1035 1.363 . S
C1041 C1036 1.379 . S
C1041 N1039 1.356 . S
N1042 C1034 1.356 . S
N1042 H1048 0.984 . S
N1042 H1049 0.984 . S
N1043 C1036 1.356 . S
N1043 H1046 0.984 . S
N1043 H1047 0.985 . S
H1044 N1039 0.984 . S
H1045 N1039 0.985 . S
H1046 N1043 0.984 . S
H1047 N1043 0.985 . S
H1048 N1042 0.984 . S
H1049 N1042 0.984 . S
H1050 N1038 0.984 . S
H1051 N1038 0.985 . S
C1052 C1053 1.363 1_665 S
C1052 C1058 1.379 1_556 S
C1052 N1060 1.356 . S
C1053 C1052 1.363 1_445 S
C1053 C1059 1.363 1_556 S
C1054 C1055 1.363 1_445 S
C1054 C1059 1.379 . S
C1054 N1061 1.356 . S
C1055 C1054 1.363 1_665 S
C1055 C1058 1.363 . S
N1056 C1058 1.356 . S
N1056 H1068 0.984 . S
N1056 H1069 0.985 . S
N1057 C1059 1.356 1_556 S
N1057 H1062 0.984 . S
N1057 H1063 0.985 1_556 S
C1058 C1052 1.379 1_554 S
C1058 C1055 1.363 . S
C1058 N1056 1.356 . S
C1059 C1053 1.363 1_554 S
C1059 C1054 1.379 . S
C1059 N1057 1.356 1_554 S
N1060 C1052 1.356 . S
N1060 H1066 0.984 . S
N1060 H1067 0.984 1_655 S
N1061 C1054 1.356 . S
N1061 H1064 0.984 1_455 S
N1061 H1065 0.985 . S
H1062 N1057 0.984 . S
H1063 N1057 0.985 1_554 S
H1064 N1061 0.984 1_655 S
H1065 N1061 0.985 . S
H1066 N1060 0.984 . S
H1067 N1060 0.984 1_455 S
H1068 N1056 0.984 . S
H1069 N1056 0.985 . S
C1070 C1071 1.363 1_565 S
C1070 C1076 1.379 . S
C1070 N1078 1.356 . S
C1071 C1070 1.363 1_545 S
C1071 C1077 1.363 . S
C1072 C1073 1.363 1_545 S
C1072 C1077 1.379 . S
C1072 N1079 1.356 . S
C1073 C1072 1.363 1_565 S
C1073 C1076 1.363 . S
N1074 C1076 1.356 . S
N1074 H1086 0.984 . S
N1074 H1087 0.985 . S
N1075 C1077 1.356 . S
N1075 H1080 0.984 . S
N1075 H1081 0.985 . S
C1076 C1070 1.379 . S
C1076 C1073 1.363 . S
C1076 N1074 1.356 . S
C1077 C1071 1.363 . S
C1077 C1072 1.379 . S
C1077 N1075 1.356 . S
N1078 C1070 1.356 . S
N1078 H1084 0.984 . S
N1078 H1085 0.984 . S
N1079 C1072 1.356 . S
N1079 H1082 0.984 . S
N1079 H1083 0.985 . S
H1080 N1075 0.984 . S
H1081 N1075 0.985 . S
H1082 N1079 0.984 . S
H1083 N1079 0.985 . S
H1084 N1078 0.984 . S
H1085 N1078 0.984 . S
H1086 N1074 0.984 . S
H1087 N1074 0.985 . S
C1088 C1089 1.363 . S
C1088 C1094 1.379 . S
C1088 N1096 1.356 . S
C1089 C1088 1.363 . S
C1089 C1095 1.363 . S
C1090 C1091 1.363 . S
C1090 C1095 1.379 . S
C1090 N1097 1.356 . S
C1091 C1090 1.363 . S
C1091 C1094 1.363 . S
N1092 C1094 1.356 . S
N1092 H1104 0.984 . S
N1092 H1105 0.985 . S
N1093 C1095 1.356 . S
N1093 H1098 0.984 . S
N1093 H1099 0.985 . S
C1094 C1088 1.379 . S
C1094 C1091 1.363 . S
C1094 N1092 1.356 . S
C1095 C1089 1.363 . S
C1095 C1090 1.379 . S
C1095 N1093 1.356 . S
N1096 C1088 1.356 . S
N1096 H1102 0.984 . S
N1096 H1103 0.984 . S
N1097 C1090 1.356 . S
N1097 H1100 0.984 . S
N1097 H1101 0.985 . S
H1098 N1093 0.984 . S
H1099 N1093 0.985 . S
H1100 N1097 0.984 . S
H1101 N1097 0.985 . S
H1102 N1096 0.984 . S
H1103 N1096 0.984 . S
H1104 N1092 0.984 . S
H1105 N1092 0.985 . S
C1106 C1107 1.363 . S
C1106 C1112 1.379 1_556 S
C1106 N1114 1.356 . S
C1107 C1106 1.363 . S
C1107 C1113 1.363 1_556 S
C1108 C1109 1.363 . S
C1108 C1113 1.379 . S
C1108 N1115 1.356 . S
C1109 C1108 1.363 . S
C1109 C1112 1.363 . S
N1110 C1112 1.356 . S
N1110 H1122 0.984 . S
N1110 H1123 0.985 . S
N1111 C1113 1.356 1_556 S
N1111 H1116 0.984 . S
N1111 H1117 0.985 . S
C1112 C1106 1.379 1_554 S
C1112 C1109 1.363 . S
C1112 N1110 1.356 . S
C1113 C1107 1.363 1_554 S
C1113 C1108 1.379 . S
C1113 N1111 1.356 1_554 S
N1114 C1106 1.356 . S
N1114 H1120 0.984 . S
N1114 H1121 0.984 . S
N1115 C1108 1.356 . S
N1115 H1118 0.984 . S
N1115 H1119 0.985 . S
H1116 N1111 0.984 . S
H1117 N1111 0.985 . S
H1118 N1115 0.984 . S
H1119 N1115 0.985 . S
H1120 N1114 0.984 . S
H1121 N1114 0.984 . S
H1122 N1110 0.984 . S
H1123 N1110 0.985 . S
C1124 C1125 1.363 . S
C1124 C1130 1.379 . S
C1124 N1132 1.356 . S
C1125 C1124 1.363 . S
C1125 C1131 1.363 . S
C1126 C1127 1.363 . S
C1126 C1131 1.379 . S
C1126 N1133 1.356 . S
C1127 C1126 1.363 . S
C1127 C1130 1.363 . S
N1128 C1130 1.356 . S
N1128 H1140 0.984 . S
N1128 H1141 0.985 . S
N1129 C1131 1.356 . S
N1129 H1134 0.984 . S
N1129 H1135 0.985 . S
C1130 C1124 1.379 . S
C1130 C1127 1.363 . S
C1130 N1128 1.356 . S
C1131 C1125 1.363 . S
C1131 C1126 1.379 . S
C1131 N1129 1.356 . S
N1132 C1124 1.356 . S
N1132 H1138 0.984 . S
N1132 H1139 0.984 . S
N1133 C1126 1.356 . S
N1133 H1136 0.984 . S
N1133 H1137 0.985 . S
H1134 N1129 0.984 . S
H1135 N1129 0.985 . S
H1136 N1133 0.984 . S
H1137 N1133 0.985 . S
H1138 N1132 0.984 . S
H1139 N1132 0.984 . S
H1140 N1128 0.984 . S
H1141 N1128 0.985 . S
C1142 C1143 1.366 . S
C1142 C1148 1.379 . S
C1142 N1150 1.356 . S
C1143 C1142 1.366 . S
C1143 C1149 1.360 1_655 S
C1144 C1145 1.366 . S
C1144 C1149 1.379 . S
C1144 N1151 1.356 . S
C1145 C1144 1.366 . S
C1145 C1148 1.360 1_455 S
N1146 C1148 1.356 . S
N1146 H1158 0.984 . S
N1146 H1159 0.985 . S
N1147 C1149 1.356 . S
N1147 H1152 0.984 . S
N1147 H1153 0.985 . S
C1148 C1142 1.379 . S
C1148 C1145 1.360 1_655 S
C1148 N1146 1.356 . S
C1149 C1143 1.360 1_455 S
C1149 C1144 1.379 . S
C1149 N1147 1.356 . S
N1150 C1142 1.356 . S
N1150 H1156 0.984 . S
N1150 H1157 0.984 . S
N1151 C1144 1.356 . S
N1151 H1154 0.984 . S
N1151 H1155 0.985 . S
H1152 N1147 0.984 . S
H1153 N1147 0.985 . S
H1154 N1151 0.984 . S
H1155 N1151 0.985 . S
H1156 N1150 0.984 . S
H1157 N1150 0.984 . S
H1158 N1146 0.984 . S
H1159 N1146 0.985 . S
C1160 C1161 1.363 . S
C1160 C1166 1.379 . S
C1160 N1168 1.356 . S
C1161 C1160 1.363 . S
C1161 C1167 1.363 . S
C1162 C1163 1.363 . S
C1162 C1167 1.379 . S
C1162 N1169 1.356 . S
C1163 C1162 1.363 . S
C1163 C1166 1.363 . S
N1164 C1166 1.356 . S
N1164 H1176 0.984 . S
N1164 H1177 0.985 . S
N1165 C1167 1.356 . S
N1165 H1170 0.984 . S
N1165 H1171 0.985 . S
C1166 C1160 1.379 . S
C1166 C1163 1.363 . S
C1166 N1164 1.356 . S
C1167 C1161 1.363 . S
C1167 C1162 1.379 . S
C1167 N1165 1.356 . S
N1168 C1160 1.356 . S
N1168 H1174 0.984 . S
N1168 H1175 0.984 . S
N1169 C1162 1.356 . S
N1169 H1172 0.984 . S
N1169 H1173 0.985 . S
H1170 N1165 0.984 . S
H1171 N1165 0.985 . S
H1172 N1169 0.984 . S
H1173 N1169 0.985 . S
H1174 N1168 0.984 . S
H1175 N1168 0.984 . S
H1176 N1164 0.984 . S
H1177 N1164 0.985 . S
C1178 C1179 1.363 . S
C1178 C1184 1.379 . S
C1178 N1186 1.356 . S
C1179 C1178 1.363 . S
C1179 C1185 1.363 . S
C1180 C1181 1.363 . S
C1180 C1185 1.379 . S
C1180 N1187 1.356 . S
C1181 C1180 1.363 . S
C1181 C1184 1.363 . S
N1182 C1184 1.356 . S
N1182 H1194 0.984 . S
N1182 H1195 0.985 . S
N1183 C1185 1.356 . S
N1183 H1188 0.984 . S
N1183 H1189 0.985 . S
C1184 C1178 1.379 . S
C1184 C1181 1.363 . S
C1184 N1182 1.356 . S
C1185 C1179 1.363 . S
C1185 C1180 1.379 . S
C1185 N1183 1.356 . S
N1186 C1178 1.356 . S
N1186 H1192 0.984 . S
N1186 H1193 0.984 . S
N1187 C1180 1.356 . S
N1187 H1190 0.984 . S
N1187 H1191 0.985 . S
H1188 N1183 0.984 . S
H1189 N1183 0.985 . S
H1190 N1187 0.984 . S
H1191 N1187 0.985 . S
H1192 N1186 0.984 . S
H1193 N1186 0.984 . S
H1194 N1182 0.984 . S
H1195 N1182 0.985 . S
C1196 C1197 1.359 1_655 S
C1196 C1202 1.379 . S
C1196 N1204 1.356 . S
C1197 C1196 1.359 1_455 S
C1197 C1203 1.367 1_565 S
C1198 C1199 1.359 1_455 S
C1198 C1203 1.379 . S
C1198 N1205 1.356 . S
C1199 C1198 1.359 1_655 S
C1199 C1202 1.367 1_545 S
N1200 C1202 1.356 . S
N1200 H1212 0.984 . S
N1200 H1213 0.985 . S
N1201 C1203 1.356 . S
N1201 H1206 0.984 . S
N1201 H1207 0.985 . S
C1202 C1196 1.379 . S
C1202 C1199 1.367 1_565 S
C1202 N1200 1.356 . S
C1203 C1197 1.367 1_545 S
C1203 C1198 1.379 . S
C1203 N1201 1.356 . S
N1204 C1196 1.356 . S
N1204 H1210 0.984 . S
N1204 H1211 0.984 . S
N1205 C1198 1.356 . S
N1205 H1208 0.984 . S
N1205 H1209 0.985 . S
H1206 N1201 0.984 . S
H1207 N1201 0.985 . S
H1208 N1205 0.984 . S
H1209 N1205 0.985 . S
H1210 N1204 0.984 . S
H1211 N1204 0.984 . S
H1212 N1200 0.984 . S
H1213 N1200 0.985 . S
C1214 C1215 1.363 1_565 S
C1214 C1220 1.379 1_556 S
C1214 N1222 1.356 . S
C1215 C1214 1.363 1_545 S
C1215 C1221 1.363 1_556 S
C1216 C1217 1.363 1_545 S
C1216 C1221 1.379 . S
C1216 N1223 1.356 . S
C1217 C1216 1.363 1_565 S
C1217 C1220 1.363 . S
N1218 C1220 1.356 . S
N1218 H1230 0.984 . S
N1218 H1231 0.985 . S
N1219 C1221 1.356 1_556 S
N1219 H1224 0.984 . S
N1219 H1225 0.985 . S
C1220 C1214 1.379 1_554 S
C1220 C1217 1.363 . S
C1220 N1218 1.356 . S
C1221 C1215 1.363 1_554 S
C1221 C1216 1.379 . S
C1221 N1219 1.356 1_554 S
N1222 C1214 1.356 . S
N1222 H1228 0.984 . S
N1222 H1229 0.984 . S
N1223 C1216 1.356 . S
N1223 H1226 0.984 . S
N1223 H1227 0.985 . S
H1224 N1219 0.984 . S
H1225 N1219 0.985 . S
H1226 N1223 0.984 . S
H1227 N1223 0.985 . S
H1228 N1222 0.984 . S
H1229 N1222 0.984 . S
H1230 N1218 0.984 . S
H1231 N1218 0.985 . S
C369 C21 1.753 . S
C371 C224 1.680 . S
C387 C247 1.680 . S
C389 C44 1.752 . S
C405 C270 1.680 . S
C407 C67 1.753 . S
C423 C201 1.680 . S
C425 C90 1.752 . S
C441 C113 1.753 . S
C443 C316 1.680 . S
C459 C136 1.752 . S
C461 C339 1.680 . S
C477 C362 1.680 . S
C479 C159 1.753 . S
C495 C293 1.680 . S
C497 C182 1.752 . S
C513 C40 1.680 . S
C515 C205 1.753 . S
C531 C63 1.680 . S
C533 C228 1.752 . S
C549 C86 1.680 . S
C551 C251 1.753 . S
C567 C274 1.752 . S
C569 C17 1.680 . S
C585 C132 1.680 . S
C587 C297 1.753 . S
C603 C155 1.680 . S
C605 C320 1.752 . S
C621 C178 1.680 . S
C623 C343 1.753 . S
C639 C109 1.680 . S
C641 C366 1.752 . S
C657 C19 1.587 . S
C659 C363 1.618 . S
C675 C42 1.587 . S
C677 C110 1.618 . S
C693 C317 1.618 . S
C695 C65 1.587 . S
C711 C156 1.618 . S
C713 C88 1.587 . S
C729 C111 1.587 . S
C731 C271 1.618 . S
C747 C18 1.618 1_556 S
C749 C134 1.587 . S
C765 C157 1.587 . S
C767 C225 1.618 . S
C783 C180 1.587 . S
C785 C64 1.618 . S
C801 C203 1.587 . S
C803 C179 1.618 . S
C819 C294 1.618 . S
C821 C226 1.587 . S
C837 C249 1.587 . S
C839 C133 1.618 . S
C855 C340 1.618 . S
C857 C272 1.587 . S
C873 C295 1.587 . S
C875 C87 1.618 . S
C891 C202 1.618 . S
C893 C318 1.587 . S
C909 C341 1.587 . S
C911 C41 1.618 . S
C927 C364 1.587 . S
C929 C248 1.618 1_556 S
C945 C20 1.544 . S
C947 C296 1.544 . S
C963 C135 1.544 . S
C965 C43 1.544 . S
C981 C66 1.544 . S
C983 C342 1.544 . S
C999 C181 1.544 . S
C1001 C89 1.544 . S
C1017 C112 1.544 . S
C1019 C204 1.544 . S
C1035 C250 1.544 . S
C1037 C158 1.544 . S
C1053 C227 1.544 . S
C1055 C319 1.544 . S
C1071 C365 1.544 . S
C1073 C273 1.544 . S
C1089 C292 1.021 . S
C1091 C16 1.021 . S
C1107 C131 1.021 . S
C1109 C39 1.021 . S
C1125 C62 1.021 . S
C1127 C338 1.021 . S
C1143 C177 1.019 1_655 S
C1145 C85 1.019 1_455 S
C1161 C108 1.021 . S
C1163 C200 1.021 . S
C1179 C154 1.021 . S
C1181 C246 1.021 . S
C1197 C315 1.019 1_455 S
C1199 C223 1.019 1_655 S
C1215 C361 1.021 . S
C1217 C269 1.021 . S
