# Generated by pormake.
# Topology hcp, (12)-cn, num edge types: 1
# Building blocks:
#     Node 0, Type 0, BuildingBlock: QEWDON_clean_sbu_0, # of connection points: 12
#     Node 1, Type 0, BuildingBlock: QEWDON_clean_sbu_0, # of connection points: 12
#     Edge 2, Type (0, 0), BuildingBlock: KIFKEQ_clean_linker_1, # of connection points: 2
#     Edge 3, Type (0, 0), BuildingBlock: KIFKEQ_clean_linker_1, # of connection points: 2
#     Edge 4, Type (0, 0), BuildingBlock: KIFKEQ_clean_linker_1, # of connection points: 2
#     Edge 5, Type (0, 0), BuildingBlock: KIFKEQ_clean_linker_1, # of connection points: 2
#     Edge 6, Type (0, 0), BuildingBlock: KIFKEQ_clean_linker_1, # of connection points: 2
#     Edge 7, Type (0, 0), BuildingBlock: KIFKEQ_clean_linker_1, # of connection points: 2
#     Edge 8, Type (0, 0), BuildingBlock: KIFKEQ_clean_linker_1, # of connection points: 2
#     Edge 9, Type (0, 0), BuildingBlock: KIFKEQ_clean_linker_1, # of connection points: 2
#     Edge 10, Type (0, 0), BuildingBlock: KIFKEQ_clean_linker_1, # of connection points: 2
#     Edge 11, Type (0, 0), BuildingBlock: KIFKEQ_clean_linker_1, # of connection points: 2
#     Edge 12, Type (0, 0), BuildingBlock: KIFKEQ_clean_linker_1, # of connection points: 2
#     Edge 13, Type (0, 0), BuildingBlock: KIFKEQ_clean_linker_1, # of connection points: 2
# Relax obj value: 0.192
# Max RMSD: 0.273
# Mean RMSD: 0.273
data_MOF--net-hcp--node1-QEWDON_clean_sbu_0--edge1-KIFKEQ_clean_linker_1
_symmetry_space_group_name_H-M    P1
_symmetry_Int_Tables_number       1
_symmetry_cell_setting            triclinic
loop_
_symmetry_equiv_pos_as_xyz
'x, y, z'
_cell_length_a     19.699982
_cell_length_b     18.418727
_cell_length_c     31.924477
_cell_angle_alpha  92.012882
_cell_angle_beta   87.54749
_cell_angle_gamma 121.39341
loop_
_atom_site_label
_atom_site_type_symbol
_atom_site_fract_x
_atom_site_fract_y
_atom_site_fract_z
_atom_type_partial_charge
Zn0 Zn 0.72234 0.2302 0.26655 0.0
Zn1 Zn 0.81938 0.40093 0.21467 0.0
O2 O 0.73239 0.34312 0.25871 0.0
H3 H 0.71293 0.36798 0.27935 0.0
C4 C 0.60236 0.11706 0.21599 0.0
O5 O 0.6373 0.16114 0.18199 0.0
Zn6 Zn 0.5324 0.49388 0.23762 0.0
Zn7 Zn 0.46032 0.33095 0.2945 0.0
O8 O 0.50064 0.37111 0.23476 0.0
H9 H 0.47914 0.33366 0.21066 0.0
Zn10 Zn 0.52958 0.21513 0.20956 0.0
O11 O 0.62333 0.33435 0.19858 0.0
Zn12 Zn 0.6097 0.36887 0.1428 0.0
H13 H 0.64643 0.37747 0.22027 0.0
Zn14 Zn 0.61559 0.35982 0.35604 0.0
O15 O 0.63319 0.44065 0.31074 0.0
H16 H 0.60995 0.41744 0.28399 0.0
Zn17 Zn 0.74327 0.54229 0.31725 0.0
C18 C 0.45998 0.24427 0.40132 0.0
O19 O 0.39294 0.17109 0.40602 0.0
O20 O 0.8357 0.25582 0.26392 0.0
O21 O 0.88227 0.34281 0.20938 0.0
O22 O 0.41835 0.40192 0.32412 0.0
O23 O 0.45067 0.49822 0.27503 0.0
O24 O 0.47494 0.15915 0.15507 0.0
O25 O 0.53471 0.26393 0.10914 0.0
C26 C 0.88176 0.56124 0.25931 0.0
O27 O 0.69547 0.41578 0.40202 0.0
O28 O 0.78162 0.54437 0.37655 0.0
O29 O 0.38051 0.20047 0.29926 0.0
C30 C 0.8916 0.3022 0.238 0.0
O31 O 0.64827 0.15805 0.31569 0.0
C32 C 0.54851 0.49705 0.14922 0.0
O33 O 0.55346 0.13064 0.23682 0.0
C34 C 0.41396 0.46248 0.30909 0.0
O35 O 0.50404 0.25436 0.36903 0.0
C36 C 0.77498 0.43294 0.12569 0.0
O37 O 0.89873 0.52091 0.23208 0.0
O38 O 0.81161 0.52334 0.27523 0.0
C39 C 0.48728 0.18563 0.11766 0.0
O40 O 0.53039 0.53259 0.17873 0.0
O41 O 0.57241 0.44847 0.15957 0.0
C42 C 0.68624 0.63731 0.27915 0.0
O43 O 0.71434 0.42694 0.10966 0.0
O44 O 0.76778 0.40744 0.16299 0.0
C45 C 0.75731 0.48941 0.40571 0.0
O46 O 0.74209 0.64851 0.30231 0.0
O47 O 0.63788 0.56182 0.26639 0.0
C48 C 0.30703 0.17581 0.30274 0.0
O49 O 0.28632 0.2331 0.30379 0.0
C50 C 0.65224 0.19549 0.35048 0.0
O51 O 0.70402 0.27742 0.35409 0.0
Zn52 Zn 0.45179 0.53088 0.75666 0.0
Zn53 Zn 0.51797 0.68175 0.68964 0.0
O54 O 0.44223 0.62969 0.73844 0.0
H55 H 0.40819 0.64784 0.75142 0.0
C56 C 0.29028 0.42056 0.71805 0.0
O57 O 0.28139 0.45803 0.75181 0.0
Zn58 Zn 0.26424 0.82759 0.68746 0.0
Zn59 Zn 0.1457 0.64727 0.73297 0.0
O60 O 0.21416 0.69982 0.67902 0.0
H61 H 0.19393 0.67485 0.65197 0.0
Zn62 Zn 0.23381 0.52031 0.67789 0.0
O63 O 0.32015 0.64652 0.67689 0.0
Zn64 Zn 0.3179 0.67191 0.61668 0.0
H65 H 0.34065 0.68666 0.70007 0.0
Zn66 Zn 0.32947 0.67231 0.84068 0.0
O67 O 0.33509 0.74214 0.79031 0.0
H68 H 0.2938 0.72563 0.77035 0.0
Zn69 Zn 0.44714 0.84489 0.78808 0.0
C70 C 0.18787 0.64249 0.89104 0.0
O71 O 0.207 0.71532 0.8745 0.0
O72 O 0.53088 0.51324 0.72022 0.0
O73 O 0.58265 0.6264 0.67938 0.0
O74 O 0.15228 0.75411 0.75804 0.0
O75 O 0.17156 0.8388 0.70707 0.0
O76 O 0.13929 0.48828 0.63909 0.0
O77 O 0.21134 0.59149 0.59361 0.0
C78 C 0.57762 0.85456 0.72468 0.0
O79 O 0.4202 0.74523 0.88021 0.0
O80 O 0.48958 0.86746 0.84645 0.0
O81 O 0.03713 0.52919 0.73259 0.0
C82 C 0.58083 0.5604 0.69203 0.0
O83 O 0.46663 0.52471 0.81984 0.0
C84 C 0.34322 0.86026 0.60532 0.0
O85 O 0.27284 0.43534 0.68271 0.0
C86 C 0.12416 0.78447 0.73374 0.0
O87 O 0.22671 0.60732 0.87936 0.0
C88 C 0.44814 0.65187 0.60054 0.0
O89 O 0.59248 0.80816 0.70014 0.0
O90 O 0.51246 0.81864 0.74615 0.0
C91 C 0.14633 0.52552 0.60487 0.0
O92 O 0.31503 0.88928 0.63304 0.0
O93 O 0.33308 0.78712 0.61004 0.0
C94 C 0.39509 0.94459 0.74785 0.0
O95 O 0.3948 0.65529 0.58156 0.0
O96 O 0.4552 0.67049 0.63946 0.0
C97 C 0.47434 0.8236 0.87937 0.0
O98 O 0.44509 0.94958 0.77333 0.0
O99 O 0.34974 0.87253 0.73038 0.0
C100 C 0.0406 0.46233 0.73453 0.0
O101 O 0.11081 0.47066 0.73657 0.0
C102 C 0.42576 0.53265 0.84946 0.0
O103 O 0.36738 0.54386 0.84056 0.0
H104 H 0.41367 0.76093 0.95707 0.0
H105 H 0.58827 0.99084 0.89359 0.0
H106 H 0.40822 0.84425 0.0154 0.0
H107 H 0.58761 0.07484 0.95397 0.0
H108 H 0.49261 0.20891 0.03297 0.0
H109 H 0.49991 0.11713 0.97849 0.0
H110 H 0.45536 0.9319 0.07219 0.0
H111 H 0.44186 0.01972 0.12546 0.0
C112 C 0.45381 0.82928 0.95631 0.0
C113 C 0.49932 0.86945 0.91994 0.0
C114 C 0.45044 0.87747 0.99 0.0
C115 C 0.49486 0.9668 0.98873 0.0
C116 C 0.54941 1.0063 0.95504 0.0
C117 C 0.5513 0.95808 0.9208 0.0
C118 C 0.48159 0.14719 0.04154 0.0
C119 C 0.46721 0.1221 0.08357 0.0
C120 C 0.48774 0.09537 0.01052 0.0
C121 C 0.48118 0.01825 0.02105 0.0
C122 C 0.46089 0.99059 0.06265 0.0
C123 C 0.45269 0.0412 0.09336 0.0
H124 H 0.50703 0.6864 0.52125 0.0
H125 H 0.47594 0.53066 0.62636 0.0
H126 H 0.53019 0.59432 0.47511 0.0
H127 H 0.50836 0.44277 0.58134 0.0
H128 H 0.41216 0.2255 0.48334 0.0
H129 H 0.43614 0.3356 0.53479 0.0
H130 H 0.58846 0.52779 0.44451 0.0
H131 H 0.55516 0.41747 0.39188 0.0
C132 C 0.50995 0.63504 0.53487 0.0
C133 C 0.49128 0.61667 0.57755 0.0
C134 C 0.52359 0.58185 0.50835 0.0
C135 C 0.51982 0.50918 0.52398 0.0
C136 C 0.50968 0.49647 0.5677 0.0
C137 C 0.49394 0.54873 0.59406 0.0
C138 C 0.4509 0.29138 0.47457 0.0
C139 C 0.48282 0.31236 0.43357 0.0
C140 C 0.46604 0.35504 0.50443 0.0
C141 C 0.51467 0.44174 0.49431 0.0
C142 C 0.54969 0.46227 0.45369 0.0
C143 C 0.53237 0.39853 0.4235 0.0
H144 H 0.85456 0.58967 0.09209 0.0
H145 H 0.86081 0.36054 0.10123 0.0
H146 H 0.95997 0.64208 0.03823 0.0
H147 H 0.9624 0.40915 0.04493 0.0
H148 H 0.17747 0.53999 0.95431 0.0
H149 H 0.08866 0.49599 0.01615 0.0
H150 H 0.97356 0.6207 0.96827 0.0
H151 H 0.06556 0.66864 0.90821 0.0
C152 C 0.87981 0.55124 0.0829 0.0
C153 C 0.85048 0.47171 0.10103 0.0
C154 C 0.93921 0.58031 0.05135 0.0
C155 C 0.96885 0.52913 0.03592 0.0
C156 C 0.94197 0.45103 0.05582 0.0
C157 C 0.88381 0.423 0.08827 0.0
C158 C 0.13276 0.55746 0.95703 0.0
C159 C 0.12857 0.60789 0.92638 0.0
C160 C 0.08157 0.53214 0.99257 0.0
C161 C 0.02391 0.55539 0.99801 0.0
C162 C 0.01849 0.60359 0.96636 0.0
C163 C 0.07066 0.6303 0.9314 0.0
H164 H 0.41204 0.81716 0.54104 0.0
H165 H 0.36644 1.01397 0.58303 0.0
H166 H 0.48157 0.89868 0.47876 0.0
H167 H 0.4346 0.09474 0.52005 0.0
H168 H 0.64866 0.25567 0.42953 0.0
H169 H 0.56898 0.17477 0.49009 0.0
H170 H 0.45848 0.94541 0.41372 0.0
H171 H 0.53904 0.02612 0.35325 0.0
C172 C 0.41627 0.87751 0.53682 0.0
C173 C 0.38377 0.90909 0.56702 0.0
C174 C 0.45568 0.924 0.50094 0.0
C175 C 0.4634 1.00309 0.49436 0.0
C176 C 0.43038 0.03444 0.52442 0.0
C177 C 0.39102 0.98796 0.5604 0.0
C178 C 0.60714 0.18808 0.42559 0.0
C179 C 0.60084 0.14719 0.38669 0.0
C180 C 0.56106 0.14176 0.46027 0.0
C181 C 0.50788 0.05347 0.45682 0.0
C182 C 0.49998 1.01308 0.41759 0.0
C183 C 0.54592 0.05941 0.3829 0.0
H184 H 0.50349 0.60174 0.11856 0.0
H185 H 0.5658 0.41621 0.07976 0.0
H186 H 0.47575 0.61329 0.04625 0.0
H187 H 0.53541 0.42535 0.00778 0.0
H188 H 0.5485 0.52078 0.87723 0.0
H189 H 0.58189 0.51728 0.94915 0.0
H190 H 0.37978 0.53363 0.99352 0.0
H191 H 0.34775 0.53998 0.92123 0.0
C192 C 0.51137 0.56345 0.09458 0.0
C193 C 0.53684 0.50797 0.10492 0.0
C194 C 0.49474 0.5695 0.05317 0.0
C195 C 0.50286 0.51992 0.02116 0.0
C196 C 0.52945 0.46532 0.0315 0.0
C197 C 0.54656 0.45971 0.07286 0.0
C198 C 0.5111 0.52371 0.90228 0.0
C199 C 0.4452 0.53028 0.89346 0.0
C200 C 0.53005 0.52118 0.94359 0.0
C201 C 0.48335 0.52466 0.9772 0.0
C202 C 0.41762 0.5318 0.96841 0.0
C203 C 0.39886 0.5348 0.92697 0.0
H204 H 0.7135 0.39878 0.47786 0.0
H205 H 0.91242 0.61526 0.41646 0.0
H206 H 0.80188 0.40236 0.53 0.0
H207 H 0.0003 0.61993 0.4694 0.0
H208 H 0.14419 0.52005 0.52079 0.0
H209 H 0.04456 0.51795 0.47755 0.0
H210 H 0.89618 0.48224 0.58799 0.0
H211 H -0.00358 0.48279 0.63147 0.0
C212 C 0.7758 0.44843 0.47606 0.0
C213 C 0.80649 0.50562 0.44247 0.0
C214 C 0.82622 0.45055 0.50609 0.0
C215 C 0.90809 0.50991 0.50304 0.0
C216 C 0.93752 0.57201 0.47176 0.0
C217 C 0.88714 0.56995 0.44171 0.0
C218 C 0.08932 0.50951 0.53565 0.0
C219 C 0.07746 0.50111 0.57924 0.0
C220 C 0.03298 0.50981 0.51106 0.0
C221 C 0.96385 0.50253 0.5296 0.0
C222 C 0.94931 0.48848 0.57299 0.0
C223 C 0.00596 0.48773 0.59774 0.0
H224 H 0.50905 0.98027 0.26584 0.0
H225 H 0.73171 0.10506 0.19489 0.0
H226 H 0.53123 0.86547 0.28231 0.0
H227 H 0.75429 0.99099 0.21203 0.0
H228 H 0.79167 0.80665 0.29278 0.0
H229 H 0.77407 0.92595 0.27986 0.0
H230 H 0.54001 0.75123 0.23341 0.0
H231 H 0.55842 0.63295 0.24495 0.0
C232 C 0.56303 0.98358 0.25415 0.0
C233 C 0.61837 0.05117 0.22881 0.0
C234 C 0.5755 0.91783 0.26342 0.0
C235 C 0.64425 0.91939 0.24823 0.0
C236 C 0.70093 0.9885 0.22418 0.0
C237 C 0.68776 0.0534 0.21424 0.0
C238 C 0.73642 0.79357 0.27977 0.0
C239 C 0.67588 0.70956 0.27035 0.0
C240 C 0.72655 0.86193 0.27234 0.0
C241 C 0.65537 0.84753 0.25609 0.0
C242 C 0.59504 0.76391 0.24656 0.0
C243 C 0.60564 0.69592 0.25315 0.0
H244 H 0.07304 0.74209 0.65325 0.0
H245 H -0.00691 0.68987 0.78278 0.0
H246 H 0.93719 0.64749 0.63078 0.0
H247 H 0.85668 0.59809 0.76061 0.0
H248 H 0.61844 0.45105 0.72545 0.0
H249 H 0.75217 0.47501 0.72601 0.0
H250 H 0.82941 0.6705 0.63331 0.0
H251 H 0.69608 0.64467 0.63171 0.0
C252 C 0.02613 0.71086 0.67694 0.0
C253 C 0.04263 0.72578 0.71989 0.0
C254 C 0.94853 0.65597 0.66403 0.0
C255 C 0.8858 0.61609 0.69379 0.0
C256 C 0.90346 0.62693 0.7367 0.0
C257 C 0.98129 0.68081 0.74956 0.0
C258 C 0.66322 0.49661 0.70388 0.0
C259 C 0.64798 0.54912 0.68006 0.0
C260 C 0.73999 0.51067 0.70443 0.0
C261 C 0.80214 0.57737 0.68124 0.0
C262 C 0.7834 0.61942 0.65212 0.0
C263 C 0.70672 0.60507 0.65141 0.0
H264 H 0.14588 0.10424 0.30856 0.0
H265 H 0.32789 0.03984 0.29731 0.0
H266 H 0.04342 0.95408 0.30299 0.0
H267 H 0.22511 0.88936 0.29241 0.0
H268 H 0.02862 0.65585 0.22302 0.0
H269 H 0.13093 0.80133 0.23872 0.0
H270 H 0.98027 0.81401 0.33738 0.0
H271 H 0.87698 0.66688 0.32166 0.0
C272 C 0.16408 0.058 0.30541 0.0
C273 C 0.24514 0.08412 0.30294 0.0
C274 C 0.10522 0.97182 0.30253 0.0
C275 C 0.12608 0.90983 0.29704 0.0
C276 C 0.20714 0.93574 0.29604 0.0
C277 C 0.26604 0.02194 0.299 0.0
C278 C 0.01696 0.68913 0.24825 0.0
C279 C 0.94365 0.6497 0.27069 0.0
C280 C 0.07617 0.77263 0.25744 0.0
C281 C 0.06392 0.81932 0.28934 0.0
C282 C -0.00887 0.77989 0.31227 0.0
C283 C 0.93173 0.69567 0.30318 0.0
H284 H 0.32383 0.3401 0.65413 0.0
H285 H 0.32142 0.36547 0.78919 0.0
H286 H 0.36117 0.23372 0.65964 0.0
H287 H 0.35809 0.25849 0.79464 0.0
H288 H 0.47601 0.0999 0.78766 0.0
H289 H 0.46264 0.22318 0.77934 0.0
H290 H 0.28926 0.08659 0.68417 0.0
H291 H 0.30303 0.96548 0.69239 0.0
C292 C 0.3314 0.32315 0.685 0.0
C293 C 0.31826 0.36024 0.72125 0.0
C294 C 0.35278 0.26215 0.68814 0.0
C295 C 0.36173 0.23692 0.72759 0.0
C296 C 0.3521 0.2768 0.76377 0.0
C297 C 0.33047 0.33768 0.76064 0.0
C298 C 0.43541 0.09623 0.76467 0.0
C299 C 0.39009 0.0213 0.74065 0.0
C300 C 0.42763 0.16697 0.76007 0.0
C301 C 0.37492 0.16484 0.73105 0.0
C302 C 0.3313 0.09104 0.70643 0.0
C303 C 0.33875 0.02053 0.71132 0.0
H304 H 0.38486 0.58377 0.28493 0.0
H305 H 0.29293 0.36701 0.36579 0.0
H306 H 0.25216 0.55325 0.27531 0.0
H307 H 0.15917 0.33933 0.35855 0.0
H308 H 0.95523 0.21282 0.26588 0.0
H309 H 0.08181 0.27168 0.30048 0.0
H310 H 0.12664 0.52583 0.28445 0.0
H311 H 0.00457 0.46674 0.24659 0.0
C312 C 0.33651 0.53205 0.30248 0.0
C313 C 0.34836 0.47424 0.32367 0.0
C314 C 0.25969 0.51433 0.29701 0.0
C315 C 0.19418 0.44023 0.31401 0.0
C316 C 0.20814 0.39387 0.34294 0.0
C317 C 0.28511 0.41073 0.34774 0.0
C318 C -0.00615 0.28124 0.26877 0.0
C319 C 0.97226 0.33543 0.25217 0.0
C320 C 0.06519 0.31521 0.28968 0.0
C321 C 0.11465 0.40396 0.29573 0.0
C322 C 0.09142 0.45758 0.27973 0.0
C323 C 0.02178 0.42375 0.25757 0.0
H324 H 0.03248 0.31167 0.72077 0.0
H325 H 0.88376 0.41706 0.74724 0.0
H326 H 0.91524 0.16927 0.71959 0.0
H327 H 0.76517 0.27261 0.74633 0.0
H328 H 0.59431 0.97553 0.78488 0.0
H329 H 0.70139 0.12641 0.78777 0.0
H330 H 0.80043 0.09372 0.67055 0.0
H331 H 0.69504 0.94552 0.66744 0.0
C332 C 0.97471 0.30452 0.7265 0.0
C333 C 0.96769 0.37598 0.73401 0.0
C334 C 0.90735 0.2227 0.72569 0.0
C335 C 0.83083 0.20957 0.73274 0.0
C336 C 0.82339 0.28071 0.741 0.0
C337 C 0.89119 0.36331 0.74124 0.0
C338 C 0.63821 1.00108 0.75948 0.0
C339 C 0.63634 0.94788 0.72621 0.0
C340 C 0.69952 0.08741 0.76112 0.0
C341 C 0.76005 0.12159 0.72966 0.0
C342 C 0.75573 0.06907 0.69569 0.0
C343 C 0.695 0.98381 0.69398 0.0
loop_
_geom_bond_atom_site_label_1
_geom_bond_atom_site_label_2
_geom_bond_distance
_geom_bond_site_symmetry_2
_ccdc_geom_bond_type
Zn0 O2 1.933 . S
Zn0 O20 1.985 . S
Zn0 O31 1.955 . S
Zn1 O2 1.911 . S
Zn1 O21 1.970 . S
Zn1 O37 1.945 . S
Zn1 O44 1.981 . S
O2 Zn0 1.933 . S
O2 Zn1 1.911 . S
O2 H3 0.841 . S
H3 O2 0.841 . S
C4 O5 1.246 . S
C4 O33 1.276 . S
O5 C4 1.246 . S
Zn6 O8 1.911 . S
Zn6 O23 1.970 . S
Zn6 O40 1.945 . S
Zn6 O47 1.981 . S
Zn7 O8 1.933 . S
Zn7 O22 1.985 . S
Zn7 O29 1.955 . S
O8 Zn6 1.911 . S
O8 Zn7 1.933 . S
O8 H9 0.841 . S
H9 O8 0.841 . S
Zn10 O11 1.933 . S
Zn10 O24 1.985 . S
Zn10 O33 1.955 . S
O11 Zn10 1.933 . S
O11 Zn12 1.911 . S
O11 H13 0.841 . S
Zn12 O11 1.911 . S
Zn12 O25 1.970 . S
Zn12 O41 1.981 . S
Zn12 O43 1.945 . S
H13 O11 0.841 . S
Zn14 O15 1.933 . S
Zn14 O27 1.985 . S
Zn14 O35 1.955 . S
O15 Zn14 1.933 . S
O15 H16 0.841 . S
O15 Zn17 1.911 . S
H16 O15 0.841 . S
Zn17 O15 1.911 . S
Zn17 O28 1.970 . S
Zn17 O38 1.981 . S
Zn17 O46 1.945 . S
C18 O19 1.246 . S
C18 O35 1.276 . S
O19 C18 1.246 . S
O20 Zn0 1.985 . S
O20 C30 1.245 . S
O21 Zn1 1.970 . S
O21 C30 1.263 . S
O22 Zn7 1.985 . S
O22 C34 1.245 . S
O23 Zn6 1.970 . S
O23 C34 1.263 . S
O24 Zn10 1.985 . S
O24 C39 1.245 . S
O25 Zn12 1.970 . S
O25 C39 1.263 . S
C26 O37 1.262 . S
C26 O38 1.245 . S
O27 Zn14 1.985 . S
O27 C45 1.245 . S
O28 Zn17 1.970 . S
O28 C45 1.263 . S
O29 Zn7 1.955 . S
O29 C48 1.276 . S
C30 O20 1.245 . S
C30 O21 1.263 . S
O31 Zn0 1.955 . S
O31 C50 1.276 . S
C32 O40 1.262 . S
C32 O41 1.245 . S
O33 C4 1.276 . S
O33 Zn10 1.955 . S
C34 O22 1.245 . S
C34 O23 1.263 . S
O35 Zn14 1.955 . S
O35 C18 1.276 . S
C36 O43 1.262 . S
C36 O44 1.245 . S
O37 Zn1 1.945 . S
O37 C26 1.262 . S
O38 Zn17 1.981 . S
O38 C26 1.245 . S
C39 O24 1.245 . S
C39 O25 1.263 . S
O40 Zn6 1.945 . S
O40 C32 1.262 . S
O41 Zn12 1.981 . S
O41 C32 1.245 . S
C42 O46 1.262 . S
C42 O47 1.245 . S
O43 Zn12 1.945 . S
O43 C36 1.262 . S
O44 Zn1 1.981 . S
O44 C36 1.245 . S
C45 O27 1.245 . S
C45 O28 1.263 . S
O46 Zn17 1.945 . S
O46 C42 1.262 . S
O47 Zn6 1.981 . S
O47 C42 1.245 . S
C48 O29 1.276 . S
C48 O49 1.246 . S
O49 C48 1.246 . S
C50 O31 1.276 . S
C50 O51 1.246 . S
O51 C50 1.246 . S
Zn52 O54 1.933 . S
Zn52 O72 1.985 . S
Zn52 O83 1.955 . S
Zn53 O54 1.911 . S
Zn53 O73 1.970 . S
Zn53 O89 1.945 . S
Zn53 O96 1.981 . S
O54 Zn52 1.933 . S
O54 Zn53 1.911 . S
O54 H55 0.841 . S
H55 O54 0.841 . S
C56 O57 1.246 . S
C56 O85 1.276 . S
O57 C56 1.246 . S
Zn58 O60 1.911 . S
Zn58 O75 1.970 . S
Zn58 O92 1.945 . S
Zn58 O99 1.981 . S
Zn59 O60 1.933 . S
Zn59 O74 1.985 . S
Zn59 O81 1.955 . S
O60 Zn58 1.911 . S
O60 Zn59 1.933 . S
O60 H61 0.841 . S
H61 O60 0.841 . S
Zn62 O63 1.933 . S
Zn62 O76 1.985 . S
Zn62 O85 1.955 . S
O63 Zn62 1.933 . S
O63 Zn64 1.911 . S
O63 H65 0.841 . S
Zn64 O63 1.911 . S
Zn64 O77 1.970 . S
Zn64 O93 1.981 . S
Zn64 O95 1.945 . S
H65 O63 0.841 . S
Zn66 O67 1.933 . S
Zn66 O79 1.985 . S
Zn66 O87 1.955 . S
O67 Zn66 1.933 . S
O67 H68 0.841 . S
O67 Zn69 1.911 . S
H68 O67 0.841 . S
Zn69 O67 1.911 . S
Zn69 O80 1.970 . S
Zn69 O90 1.981 . S
Zn69 O98 1.945 . S
C70 O71 1.246 . S
C70 O87 1.276 . S
O71 C70 1.246 . S
O72 Zn52 1.985 . S
O72 C82 1.245 . S
O73 Zn53 1.970 . S
O73 C82 1.263 . S
O74 Zn59 1.985 . S
O74 C86 1.245 . S
O75 Zn58 1.970 . S
O75 C86 1.263 . S
O76 Zn62 1.985 . S
O76 C91 1.245 . S
O77 Zn64 1.970 . S
O77 C91 1.263 . S
C78 O89 1.262 . S
C78 O90 1.245 . S
O79 Zn66 1.985 . S
O79 C97 1.245 . S
O80 Zn69 1.970 . S
O80 C97 1.263 . S
O81 Zn59 1.955 . S
O81 C100 1.276 . S
C82 O72 1.245 . S
C82 O73 1.263 . S
O83 Zn52 1.955 . S
O83 C102 1.276 . S
C84 O92 1.262 . S
C84 O93 1.245 . S
O85 C56 1.276 . S
O85 Zn62 1.955 . S
C86 O74 1.245 . S
C86 O75 1.263 . S
O87 Zn66 1.955 . S
O87 C70 1.276 . S
C88 O95 1.262 . S
C88 O96 1.245 . S
O89 Zn53 1.945 . S
O89 C78 1.262 . S
O90 Zn69 1.981 . S
O90 C78 1.245 . S
C91 O76 1.245 . S
C91 O77 1.263 . S
O92 Zn58 1.945 . S
O92 C84 1.262 . S
O93 Zn64 1.981 . S
O93 C84 1.245 . S
C94 O98 1.262 . S
C94 O99 1.245 . S
O95 Zn64 1.945 . S
O95 C88 1.262 . S
O96 Zn53 1.981 . S
O96 C88 1.245 . S
C97 O79 1.245 . S
C97 O80 1.263 . S
O98 Zn69 1.945 . S
O98 C94 1.262 . S
O99 Zn58 1.981 . S
O99 C94 1.245 . S
C100 O81 1.276 . S
C100 O101 1.246 . S
O101 C100 1.246 . S
C102 O83 1.276 . S
C102 O103 1.246 . S
O103 C102 1.246 . S
H104 C112 0.950 . S
H105 C117 0.950 . S
H106 C114 0.950 . S
H107 C116 0.950 1_545 S
H108 C118 0.950 . S
H109 C120 0.950 . S
H110 C122 0.950 1_565 S
H111 C123 0.950 . S
C112 H104 0.950 . S
C112 C113 1.386 . S
C112 C114 1.391 . S
C113 C112 1.386 . S
C113 C117 1.393 . S
C114 H106 0.950 . S
C114 C112 1.391 . S
C114 C115 1.400 . S
C115 C114 1.400 . S
C115 C116 1.398 . S
C115 C121 1.491 1_566 S
C116 H107 0.950 1_565 S
C116 C115 1.398 . S
C116 C117 1.391 . S
C117 H105 0.950 . S
C117 C113 1.393 . S
C117 C116 1.391 . S
C118 H108 0.950 . S
C118 C119 1.386 . S
C118 C120 1.391 . S
C119 C118 1.386 . S
C119 C123 1.393 . S
C120 H109 0.950 . S
C120 C118 1.391 . S
C120 C121 1.400 . S
C121 C115 1.491 1_544 S
C121 C120 1.400 . S
C121 C122 1.398 . S
C122 H110 0.950 1_545 S
C122 C121 1.398 . S
C122 C123 1.391 . S
C123 H111 0.950 . S
C123 C119 1.393 . S
C123 C122 1.391 . S
H124 C132 0.950 . S
H125 C137 0.950 . S
H126 C134 0.950 . S
H127 C136 0.950 . S
H128 C138 0.950 . S
H129 C140 0.950 . S
H130 C142 0.950 . S
H131 C143 0.950 . S
C132 H124 0.950 . S
C132 C133 1.386 . S
C132 C134 1.391 . S
C133 C132 1.386 . S
C133 C137 1.393 . S
C134 H126 0.950 . S
C134 C132 1.391 . S
C134 C135 1.400 . S
C135 C134 1.400 . S
C135 C136 1.398 . S
C135 C141 1.491 . S
C136 H127 0.950 . S
C136 C135 1.398 . S
C136 C137 1.391 . S
C137 H125 0.950 . S
C137 C133 1.393 . S
C137 C136 1.391 . S
C138 H128 0.950 . S
C138 C139 1.386 . S
C138 C140 1.391 . S
C139 C138 1.386 . S
C139 C143 1.393 . S
C140 H129 0.950 . S
C140 C138 1.391 . S
C140 C141 1.400 . S
C141 C135 1.491 . S
C141 C140 1.400 . S
C141 C142 1.398 . S
C142 H130 0.950 . S
C142 C141 1.398 . S
C142 C143 1.391 . S
C143 H131 0.950 . S
C143 C139 1.393 . S
C143 C142 1.391 . S
H144 C152 0.950 . S
H145 C157 0.950 . S
H146 C154 0.950 . S
H147 C156 0.950 1_455 S
H148 C158 0.950 . S
H149 C160 0.950 . S
H150 C162 0.950 1_655 S
H151 C163 0.950 . S
C152 H144 0.950 . S
C152 C153 1.386 . S
C152 C154 1.391 . S
C153 C152 1.386 . S
C153 C157 1.393 . S
C154 H146 0.950 . S
C154 C152 1.391 . S
C154 C155 1.400 . S
C155 C154 1.400 . S
C155 C156 1.398 . S
C155 C161 1.491 1_654 S
C156 H147 0.950 1_655 S
C156 C155 1.398 . S
C156 C157 1.391 . S
C157 H145 0.950 . S
C157 C153 1.393 . S
C157 C156 1.391 . S
C158 H148 0.950 . S
C158 C159 1.386 . S
C158 C160 1.391 . S
C159 C158 1.386 . S
C159 C163 1.393 . S
C160 H149 0.950 . S
C160 C158 1.391 . S
C160 C161 1.400 . S
C161 C155 1.491 1_456 S
C161 C160 1.400 . S
C161 C162 1.398 . S
C162 H150 0.950 1_455 S
C162 C161 1.398 . S
C162 C163 1.391 . S
C163 H151 0.950 . S
C163 C159 1.393 . S
C163 C162 1.391 . S
H164 C172 0.950 . S
H165 C177 0.950 . S
H166 C174 0.950 . S
H167 C176 0.950 1_545 S
H168 C178 0.950 . S
H169 C180 0.950 . S
H170 C182 0.960 . S
H171 C183 0.950 . S
C172 H164 0.950 . S
C172 C173 1.386 . S
C172 C174 1.391 . S
C173 C172 1.386 . S
C173 C177 1.393 . S
C174 H166 0.950 . S
C174 C172 1.391 . S
C174 C175 1.400 . S
C175 C174 1.400 . S
C175 C176 1.398 . S
C175 C181 1.491 1_565 S
C176 H167 0.950 1_565 S
C176 C175 1.398 . S
C176 C177 1.391 . S
C177 H165 0.950 . S
C177 C173 1.393 . S
C177 C176 1.391 . S
C178 H168 0.950 . S
C178 C179 1.386 . S
C178 C180 1.391 . S
C179 C178 1.386 . S
C179 C183 1.393 . S
C180 H169 0.950 . S
C180 C178 1.391 . S
C180 C181 1.400 . S
C181 C175 1.491 1_545 S
C181 C180 1.400 . S
C181 C182 1.394 1_545 S
C182 H170 0.960 . S
C182 C181 1.394 1_565 S
C182 C183 1.386 1_565 S
C183 H171 0.950 . S
C183 C179 1.393 . S
C183 C182 1.386 1_545 S
H184 C192 0.950 . S
H185 C197 0.950 . S
H186 C194 0.950 . S
H187 C196 0.950 1_556 S
H188 C198 0.950 . S
H189 C200 0.950 . S
H190 C202 0.950 1_554 S
H191 C203 0.950 . S
C192 H184 0.950 . S
C192 C193 1.386 . S
C192 C194 1.391 . S
C193 C192 1.386 . S
C193 C197 1.393 . S
C194 H186 0.950 . S
C194 C192 1.391 . S
C194 C195 1.400 . S
C195 C194 1.400 . S
C195 C196 1.398 . S
C195 C201 1.491 1_554 S
C196 H187 0.950 1_554 S
C196 C195 1.398 . S
C196 C197 1.391 . S
C197 H185 0.950 . S
C197 C193 1.393 . S
C197 C196 1.391 . S
C198 H188 0.950 . S
C198 C199 1.386 . S
C198 C200 1.391 . S
C199 C198 1.386 . S
C199 C203 1.393 . S
C200 H189 0.950 . S
C200 C198 1.391 . S
C200 C201 1.400 . S
C201 C195 1.491 1_556 S
C201 C200 1.400 . S
C201 C202 1.398 . S
C202 H190 0.950 1_556 S
C202 C201 1.398 . S
C202 C203 1.391 . S
C203 H191 0.950 . S
C203 C199 1.393 . S
C203 C202 1.391 . S
H204 C212 0.950 . S
H205 C217 0.950 . S
H206 C214 0.950 . S
H207 C216 0.950 . S
H208 C218 0.950 . S
H209 C220 0.950 . S
H210 C222 0.950 . S
H211 C223 0.950 . S
C212 H204 0.950 . S
C212 C213 1.386 . S
C212 C214 1.391 . S
C213 C212 1.386 . S
C213 C217 1.393 . S
C214 H206 0.950 . S
C214 C212 1.391 . S
C214 C215 1.400 . S
C215 C214 1.400 . S
C215 C216 1.398 1_655 S
C215 C221 1.491 1_655 S
C216 H207 0.950 . S
C216 C215 1.398 1_455 S
C216 C217 1.391 1_455 S
C217 H205 0.950 . S
C217 C213 1.393 . S
C217 C216 1.391 1_655 S
C218 H208 0.950 . S
C218 C219 1.386 . S
C218 C220 1.391 . S
C219 C218 1.386 . S
C219 C223 1.393 . S
C220 H209 0.950 . S
C220 C218 1.391 . S
C220 C221 1.400 . S
C221 C215 1.491 1_455 S
C221 C220 1.400 . S
C221 C222 1.398 1_455 S
C222 H210 0.950 . S
C222 C221 1.398 1_655 S
C222 C223 1.391 1_655 S
C223 H211 0.950 . S
C223 C219 1.393 . S
C223 C222 1.391 1_455 S
H224 C232 0.950 . S
H225 C237 0.950 . S
H226 C234 0.950 . S
H227 C236 0.950 . S
H228 C238 0.950 . S
H229 C240 0.950 . S
H230 C242 0.950 . S
H231 C243 0.950 . S
C232 H224 0.950 . S
C232 C233 1.386 1_565 S
C232 C234 1.391 . S
C233 C232 1.386 1_545 S
C233 C237 1.393 . S
C234 H226 0.950 . S
C234 C232 1.391 . S
C234 C235 1.400 . S
C235 C234 1.400 . S
C235 C236 1.398 . S
C235 C241 1.491 . S
C236 H227 0.950 . S
C236 C235 1.398 . S
C236 C237 1.391 1_565 S
C237 H225 0.950 . S
C237 C233 1.393 . S
C237 C236 1.391 1_545 S
C238 H228 0.950 . S
C238 C239 1.386 . S
C238 C240 1.391 . S
C239 C238 1.386 . S
C239 C243 1.393 . S
C240 H229 0.950 . S
C240 C238 1.391 . S
C240 C241 1.400 . S
C241 C235 1.491 . S
C241 C240 1.400 . S
C241 C242 1.398 . S
C242 H230 0.950 . S
C242 C241 1.398 . S
C242 C243 1.391 . S
C243 H231 0.950 . S
C243 C239 1.393 . S
C243 C242 1.391 . S
H244 C252 0.950 . S
H245 C257 0.950 . S
H246 C254 0.950 . S
H247 C256 0.950 . S
H248 C258 0.950 . S
H249 C260 0.950 . S
H250 C262 0.950 . S
H251 C263 0.950 . S
C252 H244 0.950 . S
C252 C253 1.386 . S
C252 C254 1.391 1_455 S
C253 C252 1.386 . S
C253 C257 1.393 . S
C254 H246 0.950 . S
C254 C252 1.391 1_655 S
C254 C255 1.400 . S
C255 C254 1.400 . S
C255 C256 1.398 . S
C255 C261 1.491 . S
C256 H247 0.950 . S
C256 C255 1.398 . S
C256 C257 1.391 1_655 S
C257 H245 0.950 . S
C257 C253 1.393 . S
C257 C256 1.391 1_455 S
C258 H248 0.950 . S
C258 C259 1.386 . S
C258 C260 1.391 . S
C259 C258 1.386 . S
C259 C263 1.393 . S
C260 H249 0.950 . S
C260 C258 1.391 . S
C260 C261 1.400 . S
C261 C255 1.491 . S
C261 C260 1.400 . S
C261 C262 1.398 . S
C262 H250 0.950 . S
C262 C261 1.398 . S
C262 C263 1.391 . S
C263 H251 0.950 . S
C263 C259 1.393 . S
C263 C262 1.391 . S
H264 C272 0.950 . S
H265 C277 0.950 . S
H266 C274 0.950 . S
H267 C276 0.950 . S
H268 C278 0.950 . S
H269 C280 0.950 . S
H270 C282 0.950 . S
H271 C283 0.950 . S
C272 H264 0.950 . S
C272 C273 1.386 . S
C272 C274 1.391 1_545 S
C273 C272 1.386 . S
C273 C277 1.393 1_545 S
C274 H266 0.950 . S
C274 C272 1.391 1_565 S
C274 C275 1.400 . S
C275 C274 1.400 . S
C275 C276 1.398 . S
C275 C281 1.491 . S
C276 H267 0.950 . S
C276 C275 1.398 . S
C276 C277 1.391 . S
C277 H265 0.950 . S
C277 C273 1.393 1_565 S
C277 C276 1.391 . S
C278 H268 0.950 . S
C278 C279 1.386 1_455 S
C278 C280 1.391 . S
C279 C278 1.386 1_655 S
C279 C283 1.393 . S
C280 H269 0.950 . S
C280 C278 1.391 . S
C280 C281 1.400 . S
C281 C275 1.491 . S
C281 C280 1.400 . S
C281 C282 1.398 . S
C282 H270 0.950 . S
C282 C281 1.398 . S
C282 C283 1.391 1_455 S
C283 H271 0.950 . S
C283 C279 1.393 . S
C283 C282 1.391 1_655 S
H284 C292 0.950 . S
H285 C297 0.950 . S
H286 C294 0.950 . S
H287 C296 0.950 . S
H288 C298 0.950 . S
H289 C300 0.950 . S
H290 C302 0.950 . S
H291 C303 0.950 . S
C292 H284 0.950 . S
C292 C293 1.386 . S
C292 C294 1.391 . S
C293 C292 1.386 . S
C293 C297 1.393 . S
C294 H286 0.950 . S
C294 C292 1.391 . S
C294 C295 1.400 . S
C295 C294 1.400 . S
C295 C296 1.398 . S
C295 C301 1.491 . S
C296 H287 0.950 . S
C296 C295 1.398 . S
C296 C297 1.391 . S
C297 H285 0.950 . S
C297 C293 1.393 . S
C297 C296 1.391 . S
C298 H288 0.950 . S
C298 C299 1.386 1_545 S
C298 C300 1.391 . S
C299 C298 1.386 1_565 S
C299 C303 1.393 . S
C300 H289 0.950 . S
C300 C298 1.391 . S
C300 C301 1.400 . S
C301 C295 1.491 . S
C301 C300 1.400 . S
C301 C302 1.398 . S
C302 H290 0.950 . S
C302 C301 1.398 . S
C302 C303 1.391 1_545 S
C303 H291 0.950 . S
C303 C299 1.393 . S
C303 C302 1.391 1_565 S
H304 C312 0.950 . S
H305 C317 0.950 . S
H306 C314 0.950 . S
H307 C316 0.950 . S
H308 C318 0.950 . S
H309 C320 0.950 . S
H310 C322 0.950 . S
H311 C323 0.950 1_655 S
C312 H304 0.950 . S
C312 C313 1.386 . S
C312 C314 1.391 . S
C313 C312 1.386 . S
C313 C317 1.393 . S
C314 H306 0.950 . S
C314 C312 1.391 . S
C314 C315 1.400 . S
C315 C314 1.400 . S
C315 C316 1.398 . S
C315 C321 1.491 . S
C316 H307 0.950 . S
C316 C315 1.398 . S
C316 C317 1.391 . S
C317 H305 0.950 . S
C317 C313 1.393 . S
C317 C316 1.391 . S
C318 H308 0.950 . S
C318 C319 1.386 . S
C318 C320 1.391 1_655 S
C319 C318 1.386 . S
C319 C323 1.393 1_655 S
C320 H309 0.950 . S
C320 C318 1.391 1_455 S
C320 C321 1.400 . S
C321 C315 1.491 . S
C321 C320 1.400 . S
C321 C322 1.398 . S
C322 H310 0.950 . S
C322 C321 1.398 . S
C322 C323 1.391 . S
C323 H311 0.950 1_455 S
C323 C319 1.393 1_455 S
C323 C322 1.391 . S
H324 C332 0.949 1_455 S
H325 C337 0.950 . S
H326 C334 0.950 . S
H327 C336 0.950 . S
H328 C338 0.950 1_565 S
H329 C340 0.950 . S
H330 C342 0.950 . S
H331 C343 0.950 1_565 S
C332 H324 0.949 1_655 S
C332 C333 1.386 1_655 S
C332 C334 1.391 . S
C333 C332 1.386 1_455 S
C333 C337 1.393 . S
C334 H326 0.950 . S
C334 C332 1.391 . S
C334 C335 1.400 . S
C335 C334 1.400 . S
C335 C336 1.398 . S
C335 C341 1.491 . S
C336 H327 0.950 . S
C336 C335 1.398 . S
C336 C337 1.391 1_655 S
C337 H325 0.950 . S
C337 C333 1.393 . S
C337 C336 1.391 1_455 S
C338 H328 0.950 1_545 S
C338 C339 1.386 1_545 S
C338 C340 1.391 . S
C339 C338 1.386 1_565 S
C339 C343 1.393 1_565 S
C340 H329 0.950 . S
C340 C338 1.391 . S
C340 C341 1.400 . S
C341 C335 1.491 . S
C341 C340 1.400 . S
C341 C342 1.398 . S
C342 H330 0.950 . S
C342 C341 1.398 . S
C342 C343 1.391 . S
C343 H331 0.950 1_545 S
C343 C339 1.393 1_545 S
C343 C342 1.391 . S
C113 C97 0.673 . S
C119 C39 0.673 . S
C133 C88 2.438 . S
C139 C18 2.408 . S
C153 C36 1.811 . S
C159 C70 1.799 . S
C173 C84 2.815 . S
C179 C50 2.817 . S
C193 C32 1.803 . S
C199 C102 1.789 . S
C213 C45 1.824 . S
C219 C91 1.826 . S
C233 C4 1.326 . S
C239 C42 1.335 . S
C253 C86 0.756 . S
C259 C82 0.756 . S
C273 C48 1.397 . S
C279 C26 1.405 . S
C293 C56 1.319 . S
C299 C94 1.329 . S
C313 C34 0.731 . S
C319 C30 0.730 . S
C333 C100 1.404 . S
C339 C78 1.412 . S
