# Generated by pormake.
# Topology ukc, (4)-cn, num edge types: 1
# Building blocks:
#     Node 0, Type 0, BuildingBlock: QUQFOY_clean_sbu_3, # of connection points: 4
#     Node 1, Type 0, BuildingBlock: QUQFOY_clean_sbu_3, # of connection points: 4
#     Node 2, Type 0, BuildingBlock: QUQFOY_clean_sbu_3, # of connection points: 4
#     Node 3, Type 0, BuildingBlock: QUQFOY_clean_sbu_3, # of connection points: 4
#     Node 4, Type 0, BuildingBlock: QUQFOY_clean_sbu_3, # of connection points: 4
#     Node 5, Type 0, BuildingBlock: QUQFOY_clean_sbu_3, # of connection points: 4
#     Node 6, Type 0, BuildingBlock: QUQFOY_clean_sbu_3, # of connection points: 4
#     Node 7, Type 0, BuildingBlock: QUQFOY_clean_sbu_3, # of connection points: 4
#     Node 8, Type 0, BuildingBlock: QUQFOY_clean_sbu_3, # of connection points: 4
#     Node 9, Type 0, BuildingBlock: QUQFOY_clean_sbu_3, # of connection points: 4
#     Node 10, Type 0, BuildingBlock: QUQFOY_clean_sbu_3, # of connection points: 4
#     Node 11, Type 0, BuildingBlock: QUQFOY_clean_sbu_3, # of connection points: 4
#     Node 12, Type 0, BuildingBlock: QUQFOY_clean_sbu_3, # of connection points: 4
#     Node 13, Type 0, BuildingBlock: QUQFOY_clean_sbu_3, # of connection points: 4
#     Node 14, Type 0, BuildingBlock: QUQFOY_clean_sbu_3, # of connection points: 4
#     Node 15, Type 0, BuildingBlock: QUQFOY_clean_sbu_3, # of connection points: 4
#     Node 16, Type 0, BuildingBlock: QUQFOY_clean_sbu_3, # of connection points: 4
#     Node 17, Type 0, BuildingBlock: QUQFOY_clean_sbu_3, # of connection points: 4
#     Node 18, Type 0, BuildingBlock: QUQFOY_clean_sbu_3, # of connection points: 4
#     Node 19, Type 0, BuildingBlock: QUQFOY_clean_sbu_3, # of connection points: 4
#     Node 20, Type 0, BuildingBlock: QUQFOY_clean_sbu_3, # of connection points: 4
#     Node 21, Type 0, BuildingBlock: QUQFOY_clean_sbu_3, # of connection points: 4
#     Node 22, Type 0, BuildingBlock: QUQFOY_clean_sbu_3, # of connection points: 4
#     Node 23, Type 0, BuildingBlock: QUQFOY_clean_sbu_3, # of connection points: 4
#     Node 24, Type 0, BuildingBlock: QUQFOY_clean_sbu_3, # of connection points: 4
#     Node 25, Type 0, BuildingBlock: QUQFOY_clean_sbu_3, # of connection points: 4
#     Node 26, Type 0, BuildingBlock: QUQFOY_clean_sbu_3, # of connection points: 4
#     Node 27, Type 0, BuildingBlock: QUQFOY_clean_sbu_3, # of connection points: 4
#     Node 28, Type 0, BuildingBlock: QUQFOY_clean_sbu_3, # of connection points: 4
#     Node 29, Type 0, BuildingBlock: QUQFOY_clean_sbu_3, # of connection points: 4
#     Node 30, Type 0, BuildingBlock: QUQFOY_clean_sbu_3, # of connection points: 4
#     Node 31, Type 0, BuildingBlock: QUQFOY_clean_sbu_3, # of connection points: 4
#     Edge 32, Type (0, 0), BuildingBlock: AJUNOK_clean_linker_0, # of connection points: 2
#     Edge 33, Type (0, 0), BuildingBlock: AJUNOK_clean_linker_0, # of connection points: 2
#     Edge 34, Type (0, 0), BuildingBlock: AJUNOK_clean_linker_0, # of connection points: 2
#     Edge 35, Type (0, 0), BuildingBlock: AJUNOK_clean_linker_0, # of connection points: 2
#     Edge 36, Type (0, 0), BuildingBlock: AJUNOK_clean_linker_0, # of connection points: 2
#     Edge 37, Type (0, 0), BuildingBlock: AJUNOK_clean_linker_0, # of connection points: 2
#     Edge 38, Type (0, 0), BuildingBlock: AJUNOK_clean_linker_0, # of connection points: 2
#     Edge 39, Type (0, 0), BuildingBlock: AJUNOK_clean_linker_0, # of connection points: 2
#     Edge 40, Type (0, 0), BuildingBlock: AJUNOK_clean_linker_0, # of connection points: 2
#     Edge 41, Type (0, 0), BuildingBlock: AJUNOK_clean_linker_0, # of connection points: 2
#     Edge 42, Type (0, 0), BuildingBlock: AJUNOK_clean_linker_0, # of connection points: 2
#     Edge 43, Type (0, 0), BuildingBlock: AJUNOK_clean_linker_0, # of connection points: 2
#     Edge 44, Type (0, 0), BuildingBlock: AJUNOK_clean_linker_0, # of connection points: 2
#     Edge 45, Type (0, 0), BuildingBlock: AJUNOK_clean_linker_0, # of connection points: 2
#     Edge 46, Type (0, 0), BuildingBlock: AJUNOK_clean_linker_0, # of connection points: 2
#     Edge 47, Type (0, 0), BuildingBlock: AJUNOK_clean_linker_0, # of connection points: 2
#     Edge 48, Type (0, 0), BuildingBlock: AJUNOK_clean_linker_0, # of connection points: 2
#     Edge 49, Type (0, 0), BuildingBlock: AJUNOK_clean_linker_0, # of connection points: 2
#     Edge 50, Type (0, 0), BuildingBlock: AJUNOK_clean_linker_0, # of connection points: 2
#     Edge 51, Type (0, 0), BuildingBlock: AJUNOK_clean_linker_0, # of connection points: 2
#     Edge 52, Type (0, 0), BuildingBlock: AJUNOK_clean_linker_0, # of connection points: 2
#     Edge 53, Type (0, 0), BuildingBlock: AJUNOK_clean_linker_0, # of connection points: 2
#     Edge 54, Type (0, 0), BuildingBlock: AJUNOK_clean_linker_0, # of connection points: 2
#     Edge 55, Type (0, 0), BuildingBlock: AJUNOK_clean_linker_0, # of connection points: 2
#     Edge 56, Type (0, 0), BuildingBlock: AJUNOK_clean_linker_0, # of connection points: 2
#     Edge 57, Type (0, 0), BuildingBlock: AJUNOK_clean_linker_0, # of connection points: 2
#     Edge 58, Type (0, 0), BuildingBlock: AJUNOK_clean_linker_0, # of connection points: 2
#     Edge 59, Type (0, 0), BuildingBlock: AJUNOK_clean_linker_0, # of connection points: 2
#     Edge 60, Type (0, 0), BuildingBlock: AJUNOK_clean_linker_0, # of connection points: 2
#     Edge 61, Type (0, 0), BuildingBlock: AJUNOK_clean_linker_0, # of connection points: 2
#     Edge 62, Type (0, 0), BuildingBlock: AJUNOK_clean_linker_0, # of connection points: 2
#     Edge 63, Type (0, 0), BuildingBlock: AJUNOK_clean_linker_0, # of connection points: 2
#     Edge 64, Type (0, 0), BuildingBlock: AJUNOK_clean_linker_0, # of connection points: 2
#     Edge 65, Type (0, 0), BuildingBlock: AJUNOK_clean_linker_0, # of connection points: 2
#     Edge 66, Type (0, 0), BuildingBlock: AJUNOK_clean_linker_0, # of connection points: 2
#     Edge 67, Type (0, 0), BuildingBlock: AJUNOK_clean_linker_0, # of connection points: 2
#     Edge 68, Type (0, 0), BuildingBlock: AJUNOK_clean_linker_0, # of connection points: 2
#     Edge 69, Type (0, 0), BuildingBlock: AJUNOK_clean_linker_0, # of connection points: 2
#     Edge 70, Type (0, 0), BuildingBlock: AJUNOK_clean_linker_0, # of connection points: 2
#     Edge 71, Type (0, 0), BuildingBlock: AJUNOK_clean_linker_0, # of connection points: 2
#     Edge 72, Type (0, 0), BuildingBlock: AJUNOK_clean_linker_0, # of connection points: 2
#     Edge 73, Type (0, 0), BuildingBlock: AJUNOK_clean_linker_0, # of connection points: 2
#     Edge 74, Type (0, 0), BuildingBlock: AJUNOK_clean_linker_0, # of connection points: 2
#     Edge 75, Type (0, 0), BuildingBlock: AJUNOK_clean_linker_0, # of connection points: 2
#     Edge 76, Type (0, 0), BuildingBlock: AJUNOK_clean_linker_0, # of connection points: 2
#     Edge 77, Type (0, 0), BuildingBlock: AJUNOK_clean_linker_0, # of connection points: 2
#     Edge 78, Type (0, 0), BuildingBlock: AJUNOK_clean_linker_0, # of connection points: 2
#     Edge 79, Type (0, 0), BuildingBlock: AJUNOK_clean_linker_0, # of connection points: 2
#     Edge 80, Type (0, 0), BuildingBlock: AJUNOK_clean_linker_0, # of connection points: 2
#     Edge 81, Type (0, 0), BuildingBlock: AJUNOK_clean_linker_0, # of connection points: 2
#     Edge 82, Type (0, 0), BuildingBlock: AJUNOK_clean_linker_0, # of connection points: 2
#     Edge 83, Type (0, 0), BuildingBlock: AJUNOK_clean_linker_0, # of connection points: 2
#     Edge 84, Type (0, 0), BuildingBlock: AJUNOK_clean_linker_0, # of connection points: 2
#     Edge 85, Type (0, 0), BuildingBlock: AJUNOK_clean_linker_0, # of connection points: 2
#     Edge 86, Type (0, 0), BuildingBlock: AJUNOK_clean_linker_0, # of connection points: 2
#     Edge 87, Type (0, 0), BuildingBlock: AJUNOK_clean_linker_0, # of connection points: 2
#     Edge 88, Type (0, 0), BuildingBlock: AJUNOK_clean_linker_0, # of connection points: 2
#     Edge 89, Type (0, 0), BuildingBlock: AJUNOK_clean_linker_0, # of connection points: 2
#     Edge 90, Type (0, 0), BuildingBlock: AJUNOK_clean_linker_0, # of connection points: 2
#     Edge 91, Type (0, 0), BuildingBlock: AJUNOK_clean_linker_0, # of connection points: 2
#     Edge 92, Type (0, 0), BuildingBlock: AJUNOK_clean_linker_0, # of connection points: 2
#     Edge 93, Type (0, 0), BuildingBlock: AJUNOK_clean_linker_0, # of connection points: 2
#     Edge 94, Type (0, 0), BuildingBlock: AJUNOK_clean_linker_0, # of connection points: 2
#     Edge 95, Type (0, 0), BuildingBlock: AJUNOK_clean_linker_0, # of connection points: 2
# Relax obj value: 0.044
# Max RMSD: 0.063
# Mean RMSD: 0.063
data_MOF--net-ukc--node1-QUQFOY_clean_sbu_3--edge1-AJUNOK_clean_linker_0
_symmetry_space_group_name_H-M    P1
_symmetry_Int_Tables_number       1
_symmetry_cell_setting            triclinic
loop_
_symmetry_equiv_pos_as_xyz
'x, y, z'
_cell_length_a     34.963054
_cell_length_b     34.835454
_cell_length_c     67.828151
_cell_angle_alpha  90.125677
_cell_angle_beta   89.790258
_cell_angle_gamma 89.876197
loop_
_atom_site_label
_atom_site_type_symbol
_atom_site_fract_x
_atom_site_fract_y
_atom_site_fract_z
_atom_type_partial_charge
C0 C 0.07838 0.39123 0.0678 0.0
O1 O 0.04471 0.40482 0.0669 0.0
Cd2 Cd 0.00999 0.41169 0.0368 0.0
O3 O 0.09645 0.38197 0.05217 0.0
Cd4 Cd 0.08773 0.38346 0.01627 0.0
C5 C 0.01669 0.31865 0.01997 0.0
O6 O 0.05242 0.44268 0.01444 0.0
O7 O 0.05215 0.40827 -0.01196 0.0
O8 O 0.15132 0.40871 0.01095 0.0
C9 C 0.04278 0.43935 -0.00343 0.0
O10 O -0.00429 0.34595 0.02637 0.0
C11 C 0.16253 0.38119 7e-05 0.0
O12 O 0.05196 0.32403 0.01625 0.0
O13 O 0.13907 0.35402 -0.00289 0.0
C14 C 0.83089 0.83902 0.31796 0.0
O15 O 0.81763 0.8051 0.31832 0.0
Cd16 Cd 0.81142 0.7655 0.28974 0.0
O17 O 0.83964 0.85483 0.30166 0.0
Cd18 Cd 0.83805 0.84083 0.2661 0.0
C19 C 0.90469 0.77273 0.27374 0.0
O20 O 0.77901 0.80496 0.26649 0.0
O21 O 0.8117 0.8019 0.23961 0.0
O22 O 0.82119 0.90801 0.26225 0.0
C23 C 0.78149 0.793 0.24892 0.0
O24 O 0.878 0.75152 0.28045 0.0
C25 C 0.84233 0.91293 0.24721 0.0
O26 O 0.89796 0.80702 0.26842 0.0
O27 O 0.86172 0.88442 0.24113 0.0
C28 C 0.38487 0.58535 0.56487 0.0
O29 O 0.41845 0.57136 0.56493 0.0
Cd30 Cd 0.45772 0.56629 0.53606 0.0
O31 O 0.36926 0.59536 0.54876 0.0
Cd32 Cd 0.38149 0.59614 0.51314 0.0
C33 C 0.45168 0.66075 0.52086 0.0
O34 O 0.41871 0.53844 0.51134 0.0
O35 O 0.421 0.57409 0.48546 0.0
O36 O 0.31967 0.56854 0.5063 0.0
C37 C 0.43102 0.54328 0.49395 0.0
O38 O 0.4716 0.63305 0.52756 0.0
C39 C 0.30749 0.5965 0.49612 0.0
O40 O 0.41714 0.65571 0.51557 0.0
O41 O 0.32974 0.62502 0.49401 0.0
C42 C 0.63884 0.13977 0.82034 0.0
O43 O 0.6538 0.17297 0.82054 0.0
Cd44 Cd 0.66221 0.21069 0.7914 0.0
O45 O 0.62933 0.12417 0.80412 0.0
Cd46 Cd 0.63093 0.13588 0.76852 0.0
C47 C 0.56891 0.20871 0.77537 0.0
O48 O 0.69172 0.1685 0.76811 0.0
O49 O 0.65966 0.17082 0.74114 0.0
O50 O 0.64387 0.06757 0.7665 0.0
C51 C 0.68989 0.17944 0.75037 0.0
O52 O 0.59678 0.22829 0.78203 0.0
C53 C 0.62237 0.06209 0.75173 0.0
O54 O 0.57333 0.17373 0.77047 0.0
O55 O 0.605 0.09099 0.74472 0.0
C56 C 0.07428 0.58669 0.394 0.0
O57 O 0.04033 0.57381 0.39432 0.0
Cd58 Cd 0.00245 0.56803 0.42351 0.0
O59 O 0.09135 0.59576 0.40989 0.0
Cd60 Cd 0.08098 0.59487 0.44581 0.0
C61 C 0.01136 0.66156 0.43968 0.0
O62 O 0.04432 0.53736 0.446 0.0
O63 O 0.04396 0.56796 0.47356 0.0
O64 O 0.14431 0.56873 0.4508 0.0
C65 C 0.03358 0.53872 0.46378 0.0
O66 O -0.00986 0.63497 0.43286 0.0
C67 C 0.1558 0.59574 0.46187 0.0
O68 O 0.04569 0.65469 0.44476 0.0
O69 O 0.13244 0.62296 0.46532 0.0
C70 C 0.62365 0.83891 0.64407 0.0
O71 O 0.6378 0.80532 0.64351 0.0
Cd72 Cd 0.64433 0.76567 0.67187 0.0
O73 O 0.61446 0.85436 0.66045 0.0
Cd74 Cd 0.61685 0.8404 0.69603 0.0
C75 C 0.55087 0.77233 0.68807 0.0
O76 O 0.67621 0.80546 0.69507 0.0
O77 O 0.64469 0.80084 0.72221 0.0
O78 O 0.63432 0.90738 0.69907 0.0
C79 C 0.67467 0.79278 0.71249 0.0
O80 O 0.57788 0.75176 0.68104 0.0
C81 C 0.61454 0.91321 0.71452 0.0
O82 O 0.557 0.8065 0.69383 0.0
O83 O 0.5953 0.88524 0.72123 0.0
C84 C 0.38923 0.3891 0.89269 0.0
O85 O 0.4235 0.40102 0.89309 0.0
Cd86 Cd 0.46164 0.40313 0.92226 0.0
O87 O 0.37218 0.37924 0.90849 0.0
Cd88 Cd 0.38446 0.37759 0.94414 0.0
C89 C 0.45141 0.3092 0.93707 0.0
O90 O 0.42368 0.43418 0.94662 0.0
O91 O 0.4244 0.3966 0.97183 0.0
O92 O 0.32349 0.40668 0.95209 0.0
C93 C 0.43491 0.42794 0.96405 0.0
O94 O 0.47326 0.33581 0.93083 0.0
C95 C 0.31131 0.37861 0.9622 0.0
O96 O 0.41692 0.31628 0.94189 0.0
O97 O 0.333 0.34944 0.96357 0.0
C98 C 0.8412 0.14393 0.14136 0.0
O99 O 0.82754 0.17775 0.14169 0.0
Cd100 Cd 0.81814 0.21346 0.17144 0.0
O101 O 0.8486 0.12639 0.15733 0.0
Cd102 Cd 0.84389 0.13571 0.19315 0.0
C103 C 0.91005 0.20513 0.18913 0.0
O104 O 0.78419 0.17072 0.19259 0.0
O105 O 0.81435 0.17073 0.22021 0.0
O106 O 0.82747 0.06803 0.19405 0.0
C107 C 0.78477 0.1801 0.21062 0.0
O108 O 0.88362 0.22672 0.18247 0.0
C109 C 0.84672 0.0612 0.20949 0.0
O110 O 0.90346 0.17021 0.19328 0.0
O111 O 0.86486 0.08894 0.21717 0.0
C112 C 0.88916 0.58321 0.8874 0.0
O113 O 0.92347 0.5712 0.88737 0.0
Cd114 Cd 0.96278 0.56874 0.9162 0.0
O115 O 0.87279 0.59287 0.90345 0.0
Cd116 Cd 0.88651 0.59433 0.93886 0.0
C117 C 0.95284 0.66264 0.93133 0.0
O118 O 0.92642 0.5378 0.94125 0.0
O119 O 0.92736 0.57643 0.96617 0.0
O120 O 0.82634 0.56449 0.94731 0.0
C121 C 0.93776 0.54474 0.95862 0.0
O122 O 0.97454 0.63596 0.92487 0.0
C123 C 0.81411 0.59228 0.9577 0.0
O124 O 0.91849 0.65568 0.93642 0.0
O125 O 0.83531 0.62175 0.95894 0.0
C126 C 0.14443 0.13533 0.64213 0.0
O127 O 0.15829 0.169 0.64166 0.0
Cd128 Cd 0.16522 0.20878 0.67027 0.0
O129 O 0.1352 0.12001 0.65846 0.0
Cd130 Cd 0.13584 0.1334 0.69388 0.0
C131 C 0.07211 0.20492 0.68695 0.0
O132 O 0.19423 0.16908 0.69447 0.0
O133 O 0.16076 0.17187 0.72116 0.0
O134 O 0.16031 0.07003 0.70064 0.0
C135 C 0.19103 0.18119 0.71199 0.0
O136 O 0.09941 0.2247 0.67977 0.0
C137 C 0.13237 0.05992 0.71143 0.0
O138 O 0.07734 0.17026 0.6922 0.0
O139 O 0.10553 0.0841 0.71392 0.0
C140 C 0.58335 0.38733 0.39305 0.0
O141 O 0.55076 0.4035 0.39324 0.0
Cd142 Cd 0.51278 0.41143 0.42222 0.0
O143 O 0.59898 0.37623 0.40899 0.0
Cd144 Cd 0.58794 0.37766 0.44487 0.0
C145 C 0.51483 0.31654 0.43712 0.0
O146 O 0.55623 0.43882 0.44506 0.0
O147 O 0.55284 0.40762 0.47226 0.0
O148 O 0.65601 0.39018 0.44645 0.0
C149 C 0.54478 0.4378 0.46273 0.0
O150 O 0.49578 0.34506 0.43064 0.0
C151 C 0.66162 0.36918 0.46144 0.0
O152 O 0.54951 0.32035 0.4424 0.0
O153 O 0.6329 0.352 0.46874 0.0
C154 C 0.33108 0.82334 0.14029 0.0
O155 O 0.31708 0.78979 0.14111 0.0
Cd156 Cd 0.31296 0.75393 0.17107 0.0
O157 O 0.34164 0.84051 0.15592 0.0
Cd158 Cd 0.3427 0.83121 0.19171 0.0
C159 C 0.40724 0.76052 0.18539 0.0
O160 O 0.28452 0.79523 0.19495 0.0
O161 O 0.32156 0.79418 0.22028 0.0
O162 O 0.3159 0.89417 0.19717 0.0
C163 C 0.28992 0.78478 0.21259 0.0
O164 O 0.37952 0.73986 0.17945 0.0
C165 C 0.34327 0.90645 0.20765 0.0
O166 O 0.40219 0.79571 0.18978 0.0
O167 O 0.3713 0.88382 0.21038 0.0
C168 C 0.88891 0.37725 0.5673 0.0
O169 O 0.9223 0.39155 0.56703 0.0
Cd170 Cd 0.95953 0.39849 0.53765 0.0
O171 O 0.87232 0.36803 0.55132 0.0
Cd172 Cd 0.88356 0.36997 0.51556 0.0
C173 C 0.95324 0.30449 0.52222 0.0
O174 O 0.91821 0.43013 0.51495 0.0
O175 O 0.91997 0.3965 0.48829 0.0
O176 O 0.81616 0.38637 0.51309 0.0
C177 C 0.9286 0.42735 0.4971 0.0
O178 O 0.97417 0.33182 0.52847 0.0
C179 C 0.81029 0.3652 0.49814 0.0
O180 O 0.91863 0.31047 0.51743 0.0
O181 O 0.83832 0.34578 0.49156 0.0
C182 C 0.3248 0.13431 0.31348 0.0
O183 O 0.30992 0.1676 0.31332 0.0
Cd184 Cd 0.3059 0.20716 0.28466 0.0
O185 O 0.33637 0.11858 0.29758 0.0
Cd186 Cd 0.33816 0.13059 0.26191 0.0
C187 C 0.40113 0.20157 0.27084 0.0
O188 O 0.28071 0.16739 0.25956 0.0
O189 O 0.31762 0.17044 0.23414 0.0
O190 O 0.31222 0.06821 0.25447 0.0
C191 C 0.28644 0.1802 0.24236 0.0
O192 O 0.37297 0.22142 0.27719 0.0
C193 C 0.34056 0.05693 0.24423 0.0
O194 O 0.39669 0.16691 0.26533 0.0
O195 O 0.36857 0.07988 0.24248 0.0
C196 C 0.59176 0.5754 0.06881 0.0
O197 O 0.55773 0.56273 0.0686 0.0
Cd198 Cd 0.51913 0.55705 0.03975 0.0
O199 O 0.60865 0.58474 0.05287 0.0
Cd200 Cd 0.59584 0.58416 0.01725 0.0
C201 C 0.5258 0.65021 0.02352 0.0
O202 O 0.55919 0.52597 0.01626 0.0
O203 O 0.55719 0.56001 -0.01014 0.0
O204 O 0.65867 0.55884 0.00952 0.0
C205 C 0.54768 0.52944 -0.00128 0.0
O206 O 0.50473 0.62337 0.0302 0.0
C207 C 0.66856 0.58689 -0.00126 0.0
O208 O 0.56043 0.64381 0.01872 0.0
O209 O 0.64474 0.61422 -0.00308 0.0
C210 C 0.13533 0.8349 0.81723 0.0
O211 O 0.1485 0.8009 0.81733 0.0
Cd212 Cd 0.15163 0.76125 0.78847 0.0
O213 O 0.12509 0.85043 0.80115 0.0
Cd214 Cd 0.12338 0.83671 0.76575 0.0
C215 C 0.05774 0.76812 0.77328 0.0
O216 O 0.1804 0.79822 0.76315 0.0
O217 O 0.14231 0.79606 0.73821 0.0
O218 O 0.15295 0.89728 0.75839 0.0
C219 C 0.17381 0.78607 0.74588 0.0
O220 O 0.08516 0.74777 0.77988 0.0
C221 C 0.12548 0.9102 0.74819 0.0
O222 O 0.06304 0.8029 0.76825 0.0
O223 O 0.09616 0.88899 0.74641 0.0
C224 C 0.57253 0.89386 0.56853 0.0
O225 O 0.53833 0.90599 0.56741 0.0
Cd226 Cd 0.50313 0.90952 0.53724 0.0
O227 O 0.59093 0.88434 0.55304 0.0
Cd228 Cd 0.58233 0.88264 0.51717 0.0
C229 C 0.51349 0.8155 0.52256 0.0
O230 O 0.54442 0.94012 0.51411 0.0
O231 O 0.54637 0.9034 0.48847 0.0
O232 O 0.64501 0.90957 0.51113 0.0
C233 C 0.53552 0.93474 0.49624 0.0
O234 O 0.49124 0.84234 0.52832 0.0
C235 C 0.65713 0.88152 0.50088 0.0
O236 O 0.54838 0.82229 0.51853 0.0
O237 O 0.63462 0.85328 0.49863 0.0
C238 C 0.33728 0.33619 0.81701 0.0
O239 O 0.32382 0.30236 0.81693 0.0
Cd240 Cd 0.32067 0.26379 0.78776 0.0
O241 O 0.34748 0.35214 0.80099 0.0
Cd242 Cd 0.34889 0.33986 0.76539 0.0
C243 C 0.4153 0.27239 0.77387 0.0
O244 O 0.29038 0.30318 0.76371 0.0
O245 O 0.32639 0.30162 0.73788 0.0
O246 O 0.33053 0.40666 0.76273 0.0
C247 C 0.29528 0.29204 0.74609 0.0
O248 O 0.38812 0.25098 0.77986 0.0
C249 C 0.35229 0.41342 0.74813 0.0
O250 O 0.409 0.30683 0.76866 0.0
O251 O 0.37258 0.38594 0.74158 0.0
C252 C 0.89607 0.09125 0.06555 0.0
O253 O 0.92993 0.07802 0.06484 0.0
Cd254 Cd 0.96544 0.07059 0.03502 0.0
O255 O 0.87815 0.09981 0.04984 0.0
Cd256 Cd 0.88647 0.09707 0.01375 0.0
C257 C 0.95588 0.16366 0.01831 0.0
O258 O 0.92154 0.03774 0.01429 0.0
O259 O 0.92068 0.06619 -0.01374 0.0
O260 O 0.81868 0.08167 0.01371 0.0
C261 C 0.93104 0.0374 -0.00369 0.0
O262 O 0.97754 0.13714 0.02486 0.0
C263 C 0.81131 0.10115 -0.00162 0.0
O264 O 0.92124 0.15679 0.01394 0.0
O265 O 0.8389 0.11869 -0.00978 0.0
C266 C 0.12917 0.64173 0.31895 0.0
O267 O 0.14389 0.67503 0.31915 0.0
Cd268 Cd 0.15207 0.71311 0.29015 0.0
O269 O 0.11982 0.62598 0.30274 0.0
Cd270 Cd 0.12179 0.63825 0.26716 0.0
C271 C 0.05873 0.71001 0.27402 0.0
O272 O 0.18247 0.67144 0.26696 0.0
O273 O 0.14965 0.6745 0.2402 0.0
O274 O 0.13683 0.57049 0.26424 0.0
C275 C 0.1803 0.68241 0.24923 0.0
O276 O 0.08643 0.72984 0.28067 0.0
C277 C 0.11582 0.56514 0.24927 0.0
O278 O 0.06346 0.67506 0.26913 0.0
O279 O 0.09705 0.59369 0.24285 0.0
C280 C 0.58322 0.0829 0.89497 0.0
O281 O 0.5505 0.06718 0.89506 0.0
Cd282 Cd 0.51292 0.06033 0.92431 0.0
O283 O 0.59871 0.09379 0.91099 0.0
Cd284 Cd 0.587 0.09258 0.94674 0.0
C285 C 0.51477 0.15491 0.93937 0.0
O286 O 0.55474 0.03131 0.94763 0.0
O287 O 0.55078 0.0653 0.97407 0.0
O288 O 0.65474 0.07795 0.94894 0.0
C289 C 0.5433 0.03408 0.9653 0.0
O290 O 0.49547 0.12655 0.93295 0.0
C291 C 0.66053 0.09926 0.96383 0.0
O292 O 0.54955 0.15075 0.94441 0.0
O293 O 0.6322 0.11799 0.97062 0.0
C294 C 0.13086 0.33641 0.14337 0.0
O295 O 0.14587 0.30316 0.14327 0.0
Cd296 Cd 0.15594 0.26567 0.17226 0.0
O297 O 0.12196 0.35275 0.15955 0.0
Cd298 Cd 0.12519 0.34207 0.1953 0.0
C299 C 0.0632 0.26895 0.18989 0.0
O300 O 0.18563 0.30902 0.19453 0.0
O301 O 0.15599 0.30762 0.22229 0.0
O302 O 0.13838 0.41027 0.1968 0.0
C303 C 0.18524 0.29823 0.2123 0.0
O304 O 0.09085 0.24927 0.18286 0.0
C305 C 0.1179 0.41611 0.21201 0.0
O306 O 0.06762 0.30405 0.19453 0.0
O307 O 0.10078 0.38745 0.21944 0.0
C308 C 0.88445 0.89344 0.39319 0.0
O309 O 0.91834 0.90642 0.39369 0.0
Cd310 Cd 0.95611 0.91051 0.42296 0.0
O311 O 0.86752 0.8832 0.40897 0.0
Cd312 Cd 0.87905 0.88172 0.44467 0.0
C313 C 0.94928 0.8164 0.43826 0.0
O314 O 0.91653 0.9393 0.44735 0.0
O315 O 0.91801 0.90193 0.47258 0.0
O316 O 0.81731 0.90933 0.4524 0.0
C317 C 0.92811 0.93333 0.46473 0.0
O318 O 0.9699 0.84391 0.43194 0.0
C319 C 0.80562 0.88111 0.46255 0.0
O320 O 0.91427 0.82174 0.44273 0.0
O321 O 0.82789 0.85239 0.46399 0.0
C322 C 0.32836 0.63793 0.64023 0.0
O323 O 0.31329 0.67112 0.64066 0.0
Cd324 Cd 0.30498 0.70828 0.67002 0.0
O325 O 0.33882 0.62147 0.65606 0.0
Cd326 Cd 0.33742 0.63328 0.69179 0.0
C327 C 0.39833 0.70697 0.68583 0.0
O328 O 0.27604 0.6652 0.69283 0.0
O329 O 0.30928 0.66833 0.71937 0.0
O330 O 0.32488 0.56504 0.69501 0.0
C331 C 0.27834 0.67609 0.71058 0.0
O332 O 0.37007 0.72662 0.67961 0.0
C333 C 0.34673 0.5608 0.70976 0.0
O334 O 0.3945 0.67164 0.69004 0.0
O335 O 0.36479 0.59006 0.71582 0.0
C336 C 0.38437 0.08551 0.38829 0.0
O337 O 0.41894 0.07421 0.38784 0.0
Cd338 Cd 0.45899 0.06987 0.41635 0.0
O339 O 0.36838 0.09409 0.40459 0.0
Cd340 Cd 0.38316 0.09548 0.43982 0.0
C341 C 0.45109 0.16289 0.43281 0.0
O342 O 0.42123 0.03781 0.44052 0.0
O343 O 0.42247 0.07242 0.46692 0.0
O344 O 0.32127 0.06916 0.44822 0.0
C345 C 0.43243 0.0418 0.45812 0.0
O346 O 0.47247 0.13641 0.42586 0.0
C347 C 0.31064 0.09785 0.45845 0.0
O348 O 0.41682 0.15589 0.43796 0.0
O349 O 0.33388 0.12564 0.45996 0.0
C350 C 0.64186 0.632 0.14408 0.0
O351 O 0.65417 0.66628 0.14398 0.0
Cd352 Cd 0.65604 0.70608 0.17283 0.0
O353 O 0.63167 0.61628 0.16016 0.0
Cd354 Cd 0.62788 0.63012 0.19551 0.0
C355 C 0.56166 0.69852 0.18638 0.0
O356 O 0.68474 0.6682 0.19804 0.0
O357 O 0.64745 0.66999 0.2234 0.0
O358 O 0.65276 0.56734 0.20383 0.0
C359 C 0.67866 0.68018 0.21541 0.0
O360 O 0.58866 0.71989 0.18015 0.0
C361 C 0.62318 0.55684 0.21329 0.0
O362 O 0.56827 0.6643 0.19189 0.0
O363 O 0.59578 0.58071 0.21456 0.0
C364 C 0.08566 0.89244 0.89269 0.0
O365 O 0.05263 0.90768 0.89317 0.0
Cd366 Cd 0.01384 0.91224 0.92221 0.0
O367 O 0.10135 0.88032 0.9084 0.0
Cd368 Cd 0.0899 0.87718 0.94405 0.0
C369 C 0.01655 0.81643 0.93505 0.0
O370 O 0.05535 0.93611 0.94693 0.0
O371 O 0.05265 0.89985 0.97255 0.0
O372 O 0.15379 0.89935 0.95118 0.0
C373 C 0.04341 0.93122 0.96437 0.0
O374 O -0.00275 0.84523 0.9291 0.0
C375 C 0.16392 0.86943 0.96047 0.0
O376 O 0.05125 0.82009 0.94036 0.0
O377 O 0.13937 0.84278 0.96218 0.0
C378 C 0.83885 0.32392 0.6436 0.0
O379 O 0.82597 0.28995 0.64467 0.0
Cd380 Cd 0.82337 0.25524 0.67496 0.0
O381 O 0.84891 0.34188 0.65909 0.0
Cd382 Cd 0.85007 0.33392 0.69509 0.0
C383 C 0.91761 0.26647 0.68859 0.0
O384 O 0.79194 0.29721 0.69764 0.0
O385 O 0.82685 0.29817 0.72368 0.0
O386 O 0.83071 0.40083 0.69545 0.0
C387 C 0.79612 0.28761 0.71548 0.0
O388 O 0.89081 0.24415 0.68312 0.0
C389 C 0.85172 0.40985 0.70995 0.0
O390 O 0.91077 0.30134 0.6929 0.0
O391 O 0.87206 0.38354 0.71753 0.0
C392 C 0.38856 0.87509 0.06518 0.0
O393 O 0.42178 0.88974 0.0658 0.0
Cd394 Cd 0.46254 0.89737 0.03774 0.0
O395 O 0.3738 0.86526 0.04882 0.0
Cd396 Cd 0.38783 0.86611 0.01332 0.0
C397 C 0.4601 0.80342 0.02121 0.0
O398 O 0.42229 0.92499 0.01362 0.0
O399 O 0.42674 0.89329 -0.01355 0.0
O400 O 0.32487 0.89118 0.00673 0.0
C401 C 0.4352 0.92318 -0.00378 0.0
O402 O 0.47883 0.83132 0.02855 0.0
C403 C 0.31436 0.86349 -0.00414 0.0
O404 O 0.42574 0.80781 0.01545 0.0
O405 O 0.33826 0.83647 -0.00697 0.0
C406 C 0.83108 0.63733 0.81311 0.0
O407 O 0.81627 0.67064 0.81366 0.0
Cd408 Cd 0.81019 0.71015 0.78499 0.0
O409 O 0.84083 0.62231 0.79674 0.0
Cd410 Cd 0.83967 0.63541 0.76127 0.0
C411 C 0.90432 0.70477 0.77014 0.0
O412 O 0.78011 0.67055 0.76078 0.0
O413 O 0.81409 0.67338 0.73429 0.0
O414 O 0.82369 0.56797 0.75852 0.0
C415 C 0.78347 0.68235 0.74321 0.0
O416 O 0.87696 0.72536 0.77679 0.0
C417 C 0.8452 0.5619 0.74371 0.0
O418 O 0.89848 0.67057 0.76434 0.0
O419 O 0.86425 0.59005 0.73706 0.0
C420 C 0.08864 0.07801 0.56791 0.0
O421 O 0.05518 0.06389 0.56805 0.0
Cd422 Cd 0.01569 0.05707 0.53954 0.0
O423 O 0.10437 0.08829 0.55182 0.0
Cd424 Cd 0.09117 0.08851 0.51634 0.0
C425 C 0.01842 0.15097 0.5236 0.0
O426 O 0.05625 0.02954 0.5152 0.0
O427 O 0.05306 0.0638 0.48891 0.0
O428 O 0.15454 0.06535 0.50825 0.0
C429 C 0.044 0.03312 0.49779 0.0
O430 O -0.00097 0.12306 0.53047 0.0
C431 C 0.16381 0.09451 0.49812 0.0
O432 O 0.0532 0.14651 0.51849 0.0
O433 O 0.13915 0.12113 0.49655 0.0
C434 C 0.63296 0.32816 0.31779 0.0
O435 O 0.64486 0.29368 0.31771 0.0
Cd436 Cd 0.64832 0.25536 0.28835 0.0
O437 O 0.62388 0.34458 0.30175 0.0
Cd438 Cd 0.62195 0.33214 0.26627 0.0
C439 C 0.55499 0.26394 0.27349 0.0
O440 O 0.67914 0.294 0.26408 0.0
O441 O 0.64321 0.29363 0.23826 0.0
O442 O 0.64831 0.39479 0.25927 0.0
C443 C 0.67415 0.28333 0.24641 0.0
O444 O 0.58159 0.24218 0.27979 0.0
C445 C 0.61979 0.40631 0.24936 0.0
O446 O 0.56187 0.29845 0.26858 0.0
O447 O 0.5921 0.38312 0.24732 0.0
C448 C 0.97786 0.48556 0.95893 0.0
C449 C 0.96483 0.51882 0.96866 0.0
C450 C 0.00353 0.46039 0.96796 0.0
C451 C 0.0171 0.46744 -0.0129 0.0
H452 H 0.96815 0.47874 0.94418 0.0
H453 H 0.01249 0.43503 0.95989 0.0
S454 S -0.00765 0.55094 0.01887 0.0
N455 N 0.9678 0.55782 -0.00155 0.0
N456 N 0.01614 0.5105 0.01545 0.0
C457 C 0.00462 0.50081 -0.00302 0.0
C458 C 0.97844 0.52648 -0.01224 0.0
C459 C 0.73581 0.72248 0.21382 0.0
C460 C 0.7042 0.70876 0.22455 0.0
C461 C 0.76021 0.75014 0.22173 0.0
C462 C 0.75406 0.76514 0.24074 0.0
H463 H 0.74184 0.71189 0.1991 0.0
H464 H 0.78415 0.75958 0.21289 0.0
S465 S 0.67521 0.73895 0.27497 0.0
N466 N 0.66788 0.71232 0.25519 0.0
N467 N 0.71384 0.76446 0.27013 0.0
C468 C 0.72245 0.75185 0.25166 0.0
C469 C 0.69752 0.7236 0.24356 0.0
C470 C 0.50131 0.46105 0.48937 0.0
C471 C 0.51711 0.4662 0.47049 0.0
C472 C 0.47333 0.48601 0.4967 0.0
C473 C 0.46009 0.5172 0.48546 0.0
H474 H 0.51027 0.4373 0.49856 0.0
H475 H 0.46203 0.48069 0.51133 0.0
S476 S 0.49282 0.54388 0.43521 0.0
N477 N 0.51797 0.50526 0.44074 0.0
N478 N 0.46525 0.55223 0.45456 0.0
C479 C 0.47588 0.52298 0.46661 0.0
C480 C 0.50446 0.49751 0.45912 0.0
C481 C 0.73857 0.24581 0.71417 0.0
C482 C 0.76951 0.26046 0.725 0.0
C483 C 0.71342 0.21918 0.72243 0.0
C484 C 0.71815 0.20618 0.74188 0.0
H485 H 0.73368 0.25482 0.69911 0.0
H486 H 0.68997 0.2089 0.71348 0.0
S487 S 0.79461 0.23573 0.77658 0.0
N488 N 0.80355 0.2601 0.75625 0.0
N489 N 0.7562 0.20991 0.77182 0.0
C490 C 0.74904 0.22049 0.75291 0.0
C491 C 0.7747 0.2477 0.74447 0.0
C492 C 0.96914 0.48602 0.4996 0.0
C493 C 0.95424 0.45601 0.48804 0.0
C494 C -0.00517 0.51261 0.49165 0.0
C495 C 0.00654 0.51021 0.47184 0.0
H496 H 0.96129 0.48884 0.515 0.0
H497 H 0.0057 0.53507 0.50116 0.0
S498 S 0.97465 0.43786 0.43508 0.0
N499 N 0.95217 0.42608 0.45561 0.0
N500 N 0.00049 0.47591 0.44065 0.0
C501 C -0.00851 0.48059 0.46003 0.0
C502 C 0.96531 0.45355 0.46814 0.0
C503 C 0.69919 0.75012 0.73907 0.0
C504 C 0.70316 0.76509 0.71994 0.0
C505 C 0.72504 0.72301 0.74634 0.0
C506 C 0.75587 0.70986 0.73478 0.0
H507 H 0.6759 0.75932 0.74854 0.0
H508 H 0.72084 0.71251 0.76122 0.0
S509 S 0.77883 0.73966 0.68357 0.0
N510 N 0.74025 0.76458 0.68947 0.0
N511 N 0.78878 0.7135 0.70314 0.0
C512 C 0.76016 0.72445 0.71558 0.0
C513 C 0.73385 0.75213 0.70817 0.0
C514 C 0.47721 0.48535 0.96311 0.0
C515 C 0.46334 0.45327 0.97347 0.0
C516 C 0.50484 0.50945 0.9713 0.0
C517 C 0.51965 0.50251 -0.00981 0.0
H518 H 0.46677 0.49195 0.94849 0.0
H519 H 0.51446 0.53383 0.96274 0.0
S520 S 0.49296 0.42228 0.02349 0.0
N521 N 0.46652 0.41577 0.00366 0.0
N522 N 0.51856 0.46109 0.01909 0.0
C523 C 0.50615 0.47047 0.00074 0.0
C524 C 0.47794 0.44588 -0.00762 0.0
C525 C 0.75939 0.21795 0.23892 0.0
C526 C 0.75532 0.20541 0.21934 0.0
C527 C 0.73301 0.24319 0.24744 0.0
C528 C 0.70141 0.25683 0.23675 0.0
H529 H 0.78334 0.20849 0.24778 0.0
H530 H 0.73757 0.25203 0.26255 0.0
S531 S 0.67721 0.23217 0.18501 0.0
N532 N 0.71692 0.20806 0.18948 0.0
N533 N 0.66719 0.25561 0.20556 0.0
C534 C 0.69671 0.24428 0.21719 0.0
C535 C 0.72367 0.21852 0.20847 0.0
C536 C 0.2376 0.25026 0.74765 0.0
C537 C 0.26882 0.26452 0.7368 0.0
C538 C 0.21283 0.22308 0.73956 0.0
C539 C 0.21829 0.20913 0.72029 0.0
H540 H 0.2323 0.25992 0.76261 0.0
H541 H 0.18921 0.21297 0.74852 0.0
S542 S 0.29538 0.23781 0.68551 0.0
N543 N 0.30359 0.26311 0.70564 0.0
N544 N 0.25707 0.2119 0.69041 0.0
C545 C 0.24932 0.22325 0.7092 0.0
C546 C 0.27454 0.251 0.71745 0.0
C547 C 0.2041 0.7211 0.22099 0.0
C548 C 0.20937 0.70774 0.24033 0.0
C549 C 0.23022 0.74618 0.21228 0.0
C550 C 0.26274 0.75884 0.22253 0.0
H551 H 0.17947 0.71233 0.21246 0.0
H552 H 0.22478 0.75559 0.19734 0.0
S553 S 0.28998 0.73216 0.27355 0.0
N554 N 0.24971 0.70883 0.26953 0.0
N555 N 0.29895 0.7561 0.25309 0.0
C556 C 0.26854 0.74563 0.24188 0.0
C557 C 0.24185 0.72002 0.25078 0.0
C558 C 0.23115 0.22479 0.24564 0.0
C559 C 0.26145 0.2103 0.23411 0.0
C560 C 0.20735 0.25389 0.23861 0.0
C561 C 0.21274 0.26956 0.21974 0.0
H562 H 0.22567 0.21369 0.26028 0.0
H563 H 0.18424 0.26379 0.24803 0.0
S564 S 0.28839 0.24209 0.18376 0.0
N565 N 0.29596 0.21408 0.20296 0.0
N566 N 0.25107 0.2689 0.18968 0.0
C567 C 0.24317 0.25563 0.20808 0.0
C568 C 0.26752 0.22594 0.21527 0.0
C569 C 0.23167 0.74448 0.74669 0.0
C570 C 0.19939 0.75771 0.73641 0.0
C571 C 0.25646 0.71743 0.73836 0.0
C572 C 0.25004 0.70261 0.71937 0.0
H573 H 0.23803 0.75508 0.76133 0.0
H574 H 0.28105 0.70849 0.74683 0.0
S575 S 0.1691 0.72712 0.68638 0.0
N576 N 0.16188 0.75345 0.70631 0.0
N577 N 0.2086 0.7025 0.69059 0.0
C578 C 0.21761 0.71517 0.70897 0.0
C579 C 0.19228 0.74279 0.71748 0.0
C580 C 0.49584 -0.00584 0.49595 0.0
C581 C 0.5099 0.96168 0.4859 0.0
C582 C 0.47074 0.01978 0.48685 0.0
C583 C 0.45874 0.01397 0.46732 0.0
H584 H 0.50406 -0.00014 0.51106 0.0
H585 H 0.46066 0.0443 0.49525 0.0
S586 S 0.48778 0.93365 0.43435 0.0
N587 N 0.51042 0.92529 0.45522 0.0
N588 N 0.46313 0.97348 0.43806 0.0
C589 C 0.47272 0.9817 0.45701 0.0
C590 C 0.49835 0.95557 0.46631 0.0
C591 C 0.00096 -0.01159 0.9618 0.0
C592 C 0.01498 0.95769 0.97312 0.0
C593 C 0.97329 0.01352 0.9693 0.0
C594 C 0.95865 0.00904 -0.01153 0.0
H595 H 0.01129 -0.00683 0.94692 0.0
H596 H 0.96363 0.03683 0.96001 0.0
S597 S -0.01442 0.93296 0.02416 0.0
N598 N 0.01197 0.92394 0.00446 0.0
N599 N 0.95988 0.97123 0.01864 0.0
C600 C 0.97222 0.9783 -3e-05 0.0
C601 C 0.00043 0.95264 -0.00771 0.0
C602 C 0.50401 0.97473 0.9622 0.0
C603 C 0.51699 0.00548 0.97387 0.0
C604 C 0.47747 0.94834 0.96953 0.0
C605 C 0.46293 0.95166 -0.0112 0.0
H606 H 0.51404 0.97118 0.94718 0.0
H607 H 0.46819 0.92527 0.95995 0.0
S608 S 0.48882 0.02629 0.02563 0.0
N609 N 0.51415 0.03717 0.00585 0.0
N610 N 0.46417 -0.01232 0.01964 0.0
C611 C 0.47601 0.98204 0.00073 0.0
C612 C 0.5031 0.00888 -0.00673 0.0
C613 C -0.00053 0.01381 0.47099 0.0
C614 C 0.01519 0.0066 0.48966 0.0
C615 C 0.97098 -0.00979 0.46322 0.0
C616 C 0.95714 0.95841 0.47379 0.0
H617 H 0.00905 0.03801 0.46228 0.0
H618 H 0.9599 -0.00305 0.44874 0.0
S619 S -0.01119 0.92697 0.52339 0.0
N620 N 0.01489 0.96528 0.51859 0.0
N621 N 0.96121 0.92092 0.50396 0.0
C622 C 0.97258 0.9508 0.4925 0.0
C623 C 0.00168 0.97485 0.50042 0.0
C624 C 0.01025 0.21015 0.018 0.0
C625 C 0.97065 0.20342 0.01696 0.0
C626 C 0.02489 0.2475 0.01833 0.0
C627 C 0.00049 0.27966 0.01789 0.0
H628 H 0.0302 0.18638 0.01885 0.0
H629 H 0.05556 0.25112 0.01954 0.0
S630 S 0.89466 0.27795 0.01389 0.0
N631 N 0.90729 0.23229 0.01448 0.0
N632 N 0.9349 0.30245 0.01526 0.0
C633 C 0.96089 0.27344 0.01628 0.0
C634 C 0.94596 0.23537 0.01575 0.0
C635 C -0.0122 0.70279 0.27278 0.0
C636 C 0.01999 0.72698 0.2729 0.0
C637 C 0.95068 0.71784 0.27287 0.0
C638 C 0.94425 0.75768 0.27279 0.0
H639 H -0.00879 0.67187 0.27307 0.0
H640 H 0.92685 0.69802 0.27306 0.0
S641 S 0.01883 0.83351 0.27226 0.0
N642 N 0.04307 0.79281 0.27239 0.0
N643 N 0.97327 0.8212 0.27238 0.0
C644 C 0.97619 0.78227 0.27245 0.0
C645 C 0.01404 0.76691 0.27258 0.0
C646 C 0.44412 0.73205 0.52004 0.0
C647 C 0.46834 0.69975 0.52012 0.0
C648 C 0.459 0.76931 0.52064 0.0
C649 C 0.4987 0.77578 0.52107 0.0
H650 H 0.41334 0.72861 0.52 0.0
H651 H 0.43913 0.79321 0.52085 0.0
S652 S 0.57453 0.70088 0.52041 0.0
N653 N 0.53406 0.67661 0.51994 0.0
N654 N 0.56208 0.74659 0.52092 0.0
C655 C 0.52331 0.74372 0.52063 0.0
C656 C 0.50812 0.70574 0.52021 0.0
C657 C 0.49802 0.20205 0.7735 0.0
C658 C 0.53034 0.22604 0.77415 0.0
C659 C 0.46101 0.21732 0.77329 0.0
C660 C 0.45482 0.2572 0.77346 0.0
H661 H 0.5012 0.17111 0.77354 0.0
H662 H 0.43707 0.19763 0.77301 0.0
S663 S 0.52979 0.33259 0.77447 0.0
N664 N 0.5538 0.29174 0.77452 0.0
N665 N 0.48418 0.32055 0.77397 0.0
C666 C 0.48688 0.28161 0.77373 0.0
C667 C 0.52463 0.26601 0.77414 0.0
C668 C 0.9417 0.74517 0.43947 0.0
C669 C 0.96586 0.77741 0.43981 0.0
C670 C 0.95666 0.70787 0.43977 0.0
C671 C -0.00366 0.70131 0.4407 0.0
H672 H 0.91098 0.74868 0.43847 0.0
H673 H 0.93689 0.684 0.4391 0.0
S674 S 0.07182 0.77608 0.4431 0.0
N675 N 0.03136 0.80044 0.44195 0.0
N676 N 0.05952 0.73038 0.44267 0.0
C677 C 0.0208 0.73334 0.44164 0.0
C678 C 0.00556 0.77135 0.44113 0.0
C679 C 0.50606 0.71674 0.68798 0.0
C680 C 0.51161 0.75667 0.68868 0.0
C681 C 0.46931 0.70105 0.68749 0.0
C682 C 0.4366 0.72467 0.68741 0.0
H683 H 0.53032 0.69734 0.68771 0.0
H684 H 0.46664 0.67011 0.68673 0.0
S685 S 0.4354 0.83114 0.68961 0.0
N686 N 0.48122 0.81963 0.68974 0.0
N687 N 0.41205 0.79005 0.68865 0.0
C688 C 0.44165 0.76467 0.68837 0.0
C689 C 0.47915 0.78068 0.68909 0.0
C690 C 0.52135 0.22619 0.93993 0.0
C691 C 0.49747 0.19372 0.93985 0.0
C692 C 0.50614 0.26332 0.93913 0.0
C693 C 0.46641 0.26954 0.9385 0.0
H694 H 0.55217 0.223 0.94015 0.0
H695 H 0.52579 0.28733 0.93899 0.0
S696 S 0.39131 0.19429 0.93884 0.0
N697 N 0.43199 0.1702 0.93963 0.0
N698 N 0.40332 0.24008 0.93832 0.0
C699 C 0.4421 0.23738 0.93887 0.0
C700 C 0.45764 0.19947 0.93947 0.0
C701 C -0.00778 0.27566 0.19155 0.0
C702 C 0.02469 0.25171 0.1914 0.0
C703 C 0.95529 0.26032 0.19123 0.0
C704 C 0.94933 0.22041 0.19102 0.0
H705 H -0.00474 0.3066 0.19129 0.0
H706 H 0.93125 0.27997 0.1909 0.0
S707 S 0.02483 0.14518 0.19199 0.0
N708 N 0.04856 0.18609 0.19204 0.0
N709 N 0.97913 0.15712 0.1916 0.0
C710 C 0.98155 0.19607 0.19161 0.0
C711 C 0.01921 0.21175 0.19173 0.0
C712 C 0.0077 0.70813 0.93335 0.0
C713 C 0.96794 0.70218 0.93287 0.0
C714 C 0.023 0.74512 0.93448 0.0
C715 C -0.00081 0.77773 0.93489 0.0
H716 H 0.02729 0.684 0.93291 0.0
H717 H 0.05383 0.74811 0.93464 0.0
S718 S 0.89301 0.77788 0.93426 0.0
N719 N 0.90491 0.73204 0.93321 0.0
N720 N 0.93375 0.80168 0.93514 0.0
C721 C 0.95934 0.77225 0.93456 0.0
C722 C 0.9437 0.73448 0.93363 0.0
C723 C 0.96411 0.21206 0.68973 0.0
C724 C 0.95735 0.25185 0.68923 0.0
C725 C 0.00133 0.19728 0.68946 0.0
C726 C 0.0333 0.22168 0.6884 0.0
H727 H 0.94046 0.19205 0.69026 0.0
H728 H 0.00496 0.16639 0.68962 0.0
S729 S 0.03131 0.3282 0.68737 0.0
N730 N -0.01413 0.31556 0.68816 0.0
N731 N 0.05586 0.28768 0.68749 0.0
C732 C 0.02704 0.26157 0.68818 0.0
C733 C -0.01091 0.27668 0.68866 0.0
C734 C 0.52132 0.24522 0.43665 0.0
C735 C 0.4975 0.27784 0.43719 0.0
C736 C 0.50602 0.20824 0.4353 0.0
C737 C 0.46628 0.20233 0.43474 0.0
H738 H 0.55215 0.24823 0.43678 0.0
H739 H 0.52559 0.18411 0.43469 0.0
S740 S 0.39135 0.27803 0.4366 0.0
N741 N 0.43209 0.3018 0.43761 0.0
N742 N 0.40324 0.23221 0.4353 0.0
C743 C 0.44203 0.23462 0.43573 0.0
C744 C 0.45766 0.27237 0.43688 0.0
C745 C 0.47821 0.7682 0.18608 0.0
C746 C 0.44613 0.74387 0.18646 0.0
C747 C 0.5154 0.75328 0.18612 0.0
C748 C 0.52201 0.71346 0.18683 0.0
H749 H 0.47465 0.79906 0.18534 0.0
H750 H 0.53914 0.77319 0.18561 0.0
S751 S 0.44775 0.6374 0.18876 0.0
N752 N 0.42336 0.67798 0.18806 0.0
N753 N 0.49324 0.6499 0.18828 0.0
C754 C 0.49018 0.68879 0.18759 0.0
C755 C 0.45227 0.70399 0.18735 0.0
C756 C 0.00876 0.25926 0.52151 0.0
C757 C 0.96894 0.26502 0.52143 0.0
C758 C 0.02442 0.22227 0.52177 0.0
C759 C 0.00088 0.18956 0.52224 0.0
H760 H 0.02809 0.28352 0.52148 0.0
H761 H 0.05527 0.21939 0.52206 0.0
S762 S 0.89473 0.18881 0.52158 0.0
N763 N 0.90619 0.23474 0.52129 0.0
N764 N 0.93571 0.16523 0.52194 0.0
C765 C 0.961 0.19482 0.52186 0.0
C766 C 0.94502 0.23252 0.52139 0.0
C767 C 0.47214 0.19416 0.27091 0.0
C768 C 0.43991 0.21842 0.27068 0.0
C769 C 0.50919 0.20915 0.27176 0.0
C770 C 0.51551 0.24901 0.27214 0.0
H771 H 0.46878 0.16325 0.27083 0.0
H772 H 0.53305 0.18927 0.2721 0.0
S773 S 0.44082 0.32499 0.27108 0.0
N774 N 0.41671 0.28433 0.27043 0.0
N775 N 0.48637 0.31257 0.27187 0.0
C776 C 0.48356 0.27366 0.27154 0.0
C777 C 0.44578 0.25835 0.27088 0.0
C778 C 0.45433 0.73201 0.02052 0.0
C779 C 0.47774 0.76482 0.02047 0.0
C780 C 0.47015 0.6951 0.02133 0.0
C781 C 0.50999 0.68952 0.02181 0.0
H782 H 0.42347 0.73482 0.02047 0.0
H783 H 0.45091 0.67077 0.02167 0.0
S784 S 0.58389 0.76597 0.02084 0.0
N785 N 0.54282 0.78937 0.02022 0.0
N786 N 0.57262 0.72001 0.02155 0.0
C787 C 0.53379 0.72207 0.0212 0.0
C788 C 0.51765 0.75969 0.0206 0.0
C789 C 0.94971 0.7601 0.77093 0.0
C790 C 0.9437 0.72022 0.77003 0.0
C791 C -0.0133 0.77536 0.77161 0.0
C792 C 0.01907 0.75129 0.77174 0.0
H793 H 0.92566 0.77976 0.77113 0.0
H794 H -0.01013 0.80625 0.77244 0.0
S795 S 0.01903 0.64481 0.76922 0.0
N796 N 0.97338 0.65691 0.76896 0.0
N797 N 0.0428 0.68561 0.77039 0.0
C798 C 0.01352 0.71137 0.77067 0.0
C799 C 0.97588 0.69583 0.76975 0.0
C800 C 0.25402 0.34571 0.97611 0.0
C801 C 0.27371 0.37995 0.97206 0.0
C802 C 0.21795 0.34635 -0.01485 0.0
C803 C 0.20079 0.3812 -0.00914 0.0
H804 H 0.26626 0.31824 0.97198 0.0
H805 H 0.20355 0.31934 -0.01219 0.0
S806 S 0.24113 0.47875 -0.01595 0.0
N807 N 0.27372 0.44962 0.97461 0.0
N808 N 0.2063 0.45079 -0.008 0.0
C809 C 0.22046 0.41561 -0.01283 0.0
C810 C 0.25683 0.415 0.97764 0.0
C811 C 0.84512 0.02009 0.23931 0.0
C812 C 0.8467 0.0231 0.21867 0.0
C813 C 0.84331 0.98418 0.24846 0.0
C814 C 0.84426 0.95024 0.23725 0.0
H815 H 0.84439 0.04566 0.24843 0.0
H816 H 0.84158 0.98295 0.2644 0.0
S817 S 0.84953 0.94282 0.18278 0.0
N818 N 0.84927 -0.01056 0.18728 0.0
N819 N 0.8475 0.9217 0.20454 0.0
C820 C 0.84665 0.95286 0.21663 0.0
C821 C 0.8474 -0.01057 0.2073 0.0
C822 C 0.21248 0.62999 0.47559 0.0
C823 C 0.19452 0.59533 0.47044 0.0
C824 C 0.24938 0.63022 0.4836 0.0
C825 C 0.26912 0.59574 0.48718 0.0
H826 H 0.19813 0.65718 0.47321 0.0
H827 H 0.26225 0.65754 0.48732 0.0
S828 S 0.23449 0.4973 0.47644 0.0
N829 N 0.19926 0.52567 0.46938 0.0
N830 N 0.26817 0.52606 0.48486 0.0
C831 C 0.25137 0.56089 0.4822 0.0
C832 C 0.21417 0.56069 0.4737 0.0
C833 C 0.61775 0.02055 0.72205 0.0
C834 C 0.61867 0.02399 0.74268 0.0
C835 C 0.61637 0.98443 0.71302 0.0
C836 C 0.61461 0.95079 0.72437 0.0
H837 H 0.61917 0.04588 0.71283 0.0
H838 H 0.61653 0.98282 0.69707 0.0
S839 S 0.61441 0.9447 0.77893 0.0
N840 N 0.61709 -0.00888 0.77423 0.0
N841 N 0.6129 0.9231 0.75724 0.0
C842 C 0.61439 0.95392 0.74502 0.0
C843 C 0.61689 -0.00937 0.75419 0.0
C844 C 0.72207 0.62274 -0.01712 0.0
C845 C 0.70583 0.58752 -0.01149 0.0
C846 C 0.75734 0.62407 0.97305 0.0
C847 C 0.77712 0.59018 0.96814 0.0
H848 H 0.70763 0.64952 -0.01376 0.0
H849 H 0.76893 0.65181 0.96906 0.0
S850 S 0.74666 0.49062 0.97946 0.0
N851 N 0.7122 0.51796 -0.01145 0.0
N852 N 0.7781 0.52041 0.96972 0.0
C853 C 0.76108 0.55476 0.97358 0.0
C854 C 0.72554 0.55344 -0.01611 0.0
C855 C 0.09425 0.96883 0.73457 0.0
C856 C 0.12781 0.94814 0.73872 0.0
C857 C 0.09597 0.00525 0.72591 0.0
C858 C 0.13126 0.02175 0.72072 0.0
H859 H 0.0665 0.95707 0.7383 0.0
H860 H 0.06946 0.02037 0.72306 0.0
S861 S 0.22735 0.97882 0.72811 0.0
N862 N 0.19731 0.94656 0.7369 0.0
N863 N 0.2005 0.01464 0.72026 0.0
C864 C 0.16499 0.00114 0.72459 0.0
C865 C 0.16328 0.96441 0.73371 0.0
C866 C 0.73922 0.36574 0.49998 0.0
C867 C 0.77274 0.36418 0.48852 0.0
C868 C 0.70315 0.36604 0.49106 0.0
C869 C 0.69964 0.36607 0.47043 0.0
H870 H 0.74088 0.36661 0.51592 0.0
H871 H 0.67791 0.36742 0.50036 0.0
S872 S 0.77869 0.36201 0.43395 0.0
N873 N 0.80027 0.36173 0.45557 0.0
N874 N 0.73239 0.36393 0.43879 0.0
C875 C 0.73291 0.36446 0.45883 0.0
C876 C 0.76955 0.36305 0.46789 0.0
C877 C 0.37552 0.00026 0.23049 0.0
C878 C 0.3407 0.01888 0.23469 0.0
C879 C 0.37616 0.96372 0.22182 0.0
C880 C 0.34204 0.94501 0.21664 0.0
H881 H 0.40245 0.01373 0.23423 0.0
H882 H 0.40358 0.95019 0.21901 0.0
S883 S 0.24339 0.98205 0.22408 0.0
N884 N 0.27128 0.01616 0.23286 0.0
N885 N 0.27249 0.94789 0.2162 0.0
C886 C 0.30705 0.96359 0.22051 0.0
C887 C 0.30638 0.00042 0.22964 0.0
C888 C 0.7493 0.84734 0.47705 0.0
C889 C 0.768 0.88189 0.47245 0.0
C890 C 0.71335 0.84745 0.48623 0.0
C891 C 0.69528 0.8821 0.49153 0.0
H892 H 0.76227 0.82001 0.47327 0.0
H893 H 0.69976 0.82019 0.48933 0.0
S894 S 0.73278 0.98035 0.48318 0.0
N895 N 0.76605 0.95164 0.47404 0.0
N896 N 0.69886 0.95185 0.49165 0.0
C897 C 0.71394 0.91683 0.48726 0.0
C898 C 0.7502 0.91673 0.47761 0.0
C899 C 0.35064 0.48958 0.70872 0.0
C900 C 0.35004 0.52369 0.7198 0.0
C901 C 0.35268 0.45384 0.71805 0.0
C902 C 0.35284 0.45123 0.73871 0.0
H903 H 0.34969 0.49056 0.69276 0.0
H904 H 0.35297 0.42808 0.70906 0.0
S905 S 0.35173 0.53205 0.77429 0.0
N906 N 0.35066 0.5528 0.75242 0.0
N907 N 0.35278 0.48537 0.76998 0.0
C908 C 0.35225 0.48507 0.74994 0.0
C909 C 0.35133 0.52145 0.74045 0.0
C910 C 0.76796 0.10146 0.96943 0.0
C911 C 0.77263 0.10229 -0.01001 0.0
C912 C 0.73144 0.10045 0.96106 0.0
C913 C 0.69851 0.10152 0.97297 0.0
H914 H 0.7927 0.10055 0.95976 0.0
H915 H 0.72896 0.09903 0.94515 0.0
S916 S 0.69548 0.1054 0.02758 0.0
N917 N 0.74154 0.10458 0.02208 0.0
N918 N 0.67273 0.10431 0.00628 0.0
C919 C 0.70279 0.10339 -0.00647 0.0
C920 C 0.73996 0.10331 0.00207 0.0
C921 C 0.11583 0.49387 0.2508 0.0
C922 C 0.11421 0.52755 0.23948 0.0
C923 C 0.11574 0.45772 0.24176 0.0
C924 C 0.1153 0.45426 0.22112 0.0
H925 H 0.11707 0.49548 0.26674 0.0
H926 H 0.11719 0.43237 0.25095 0.0
S927 S 0.11072 0.53367 0.18495 0.0
N928 N 0.1111 0.55529 0.20665 0.0
N929 N 0.11253 0.48718 0.18962 0.0
C930 C 0.11357 0.48767 0.20964 0.0
C931 C 0.11257 0.52443 0.21885 0.0
C932 C 0.22061 0.06241 0.4833 0.0
C933 C 0.20124 0.09656 0.48815 0.0
C934 C 0.25579 0.06321 0.47347 0.0
C935 C 0.27325 0.09819 0.46851 0.0
H936 H 0.20827 0.03478 0.48688 0.0
H937 H 0.26963 0.03617 0.46996 0.0
S938 S 0.23456 0.19569 0.47817 0.0
N939 N 0.20196 0.16637 0.48728 0.0
N940 N 0.26874 0.16787 0.46916 0.0
C941 C 0.25442 0.1326 0.47343 0.0
C942 C 0.21819 0.13178 0.48314 0.0
C943 C 0.65434 0.4632 0.23629 0.0
C944 C 0.61948 0.44472 0.2403 0.0
C945 C 0.65517 0.49935 0.2274 0.0
C946 C 0.62117 0.51867 0.22256 0.0
H947 H 0.68127 0.44943 0.2398 0.0
H948 H 0.68272 0.51241 0.22449 0.0
S949 S 0.52236 0.48294 0.23029 0.0
N950 N 0.55005 0.44834 0.23882 0.0
N951 N 0.55161 0.51683 0.22244 0.0
C952 C 0.58606 0.50073 0.22666 0.0
C953 C 0.58522 0.46357 0.23542 0.0
C954 C 0.22183 0.90035 0.97438 0.0
C955 C 0.20227 0.86657 0.96931 0.0
C956 C 0.25797 0.8989 -0.01693 0.0
C957 C 0.27626 0.86363 -0.01337 0.0
H958 H 0.20891 0.92821 0.97188 0.0
H959 H 0.27184 0.9257 -0.01314 0.0
S960 S 0.23756 0.76689 0.97571 0.0
N961 N 0.20375 0.79677 0.96839 0.0
N962 N 0.27237 0.79407 -0.01567 0.0
C963 C 0.2573 0.82959 -0.01859 0.0
C964 C 0.22007 0.83105 0.97288 0.0
C965 C 0.8514 0.45416 0.73866 0.0
C966 C 0.85143 0.44887 0.71813 0.0
C967 C 0.84905 0.491 0.74685 0.0
C968 C 0.84797 0.52363 0.73474 0.0
H969 H 0.8522 0.42963 0.74845 0.0
H970 H 0.84844 0.494 0.76276 0.0
S971 S 0.84883 0.52506 0.68011 0.0
N972 N 0.85046 0.47902 0.68586 0.0
N973 N 0.84781 0.54855 0.7013 0.0
C974 C 0.84893 0.51877 0.7142 0.0
C975 C 0.85017 0.48124 0.70586 0.0
C976 C 0.12315 0.35309 0.08845 0.0
C977 C 0.09521 0.38207 0.08717 0.0
C978 C 0.13564 0.33961 0.10672 0.0
C979 C 0.12101 0.35487 0.12443 0.0
H980 H 0.13424 0.33935 0.07527 0.0
H981 H 0.15612 0.31623 0.10691 0.0
S982 S 0.05125 0.43508 0.12902 0.0
N983 N 0.05603 0.42833 0.10504 0.0
N984 N 0.07976 0.40333 0.13949 0.0
C985 C 0.09489 0.38566 0.12335 0.0
C986 C 0.08188 0.39913 0.10469 0.0
C987 C 0.83778 0.85718 0.37276 0.0
C988 C 0.86631 0.88549 0.37398 0.0
C989 C 0.82496 0.84379 0.35451 0.0
C990 C 0.83982 0.85849 0.33678 0.0
H991 H 0.82673 0.84361 0.38595 0.0
H992 H 0.80431 0.82064 0.35435 0.0
S993 S 0.91038 0.93758 0.33203 0.0
N994 N 0.90572 0.93112 0.35602 0.0
N995 N 0.88137 0.90625 0.32163 0.0
C996 C 0.86611 0.88902 0.3378 0.0
C997 C 0.87945 0.90241 0.35643 0.0
C998 C 0.36811 0.59361 0.61982 0.0
C999 C 0.3377 0.62 0.62107 0.0
C1000 C 0.38189 0.58094 0.60156 0.0
C1001 C 0.36555 0.59387 0.58384 0.0
H1002 H 0.3828 0.58417 0.63299 0.0
H1003 H 0.40652 0.56202 0.60137 0.0
S1004 S 0.28097 0.65808 0.57932 0.0
N1005 N 0.28862 0.65509 0.60326 0.0
N1006 N 0.31415 0.63104 0.56885 0.0
C1007 C 0.33314 0.61796 0.58495 0.0
C1008 C 0.31936 0.63113 0.60359 0.0
C1009 C 0.64058 0.13756 0.8571 0.0
C1010 C 0.62914 0.12073 0.8392 0.0
C1011 C 0.62725 0.12365 0.87516 0.0
C1012 C 0.60167 0.09259 0.87603 0.0
H1013 H 0.65889 0.1626 0.8572 0.0
H1014 H 0.63559 0.13867 0.88847 0.0
S1015 S 0.56754 0.03451 0.83372 0.0
N1016 N 0.59424 0.06826 0.82366 0.0
N1017 N 0.56888 0.04252 0.8577 0.0
C1018 C 0.59194 0.07387 0.85838 0.0
C1019 C 0.6058 0.0878 0.83995 0.0
C1020 C 0.13306 0.6384 0.35563 0.0
C1021 C 0.11957 0.62277 0.33783 0.0
C1022 C 0.11995 0.62486 0.37382 0.0
C1023 C 0.09254 0.59546 0.37489 0.0
H1024 H 0.15288 0.66225 0.35557 0.0
H1025 H 0.12992 0.63901 0.38707 0.0
S1026 S 0.05224 0.5409 0.33282 0.0
N1027 N 0.08046 0.57313 0.32253 0.0
N1028 N 0.05558 0.54808 0.35681 0.0
C1029 C 0.08067 0.57783 0.35731 0.0
C1030 C 0.09429 0.59134 0.33875 0.0
C1031 C 0.63166 0.84548 0.60774 0.0
C1032 C 0.6147 0.85855 0.62535 0.0
C1033 C 0.61947 0.85906 0.58945 0.0
C1034 C 0.58948 0.8859 0.58802 0.0
H1035 H 0.65363 0.82351 0.60802 0.0
H1036 H 0.63233 0.84675 0.57632 0.0
S1037 S 0.53918 0.93327 0.62979 0.0
N1038 N 0.56922 0.90308 0.64033 0.0
N1039 N 0.54604 0.92834 0.60582 0.0
C1040 C 0.57401 0.90117 0.60553 0.0
C1041 C 0.58672 0.8876 0.62423 0.0
C1042 C 0.33111 0.33913 0.85364 0.0
C1043 C 0.34515 0.35533 0.83607 0.0
C1044 C 0.34355 0.35219 0.87202 0.0
C1045 C 0.37083 0.38164 0.87352 0.0
H1046 H 0.31161 0.31502 0.85323 0.0
H1047 H 0.33341 0.33743 0.88507 0.0
S1048 S 0.41159 0.43818 0.83225 0.0
N1049 N 0.38399 0.40604 0.82149 0.0
N1050 N 0.4077 0.4301 0.85615 0.0
C1051 C 0.38288 0.40011 0.8562 0.0
C1052 C 0.3699 0.38712 0.83744 0.0
C1053 C 0.83816 0.14266 0.10462 0.0
C1054 C 0.85151 0.12619 0.12223 0.0
C1055 C 0.85127 0.12974 0.08628 0.0
C1056 C 0.8786 0.10019 0.08485 0.0
H1057 H 0.81821 0.1665 0.10498 0.0
H1058 H 0.84119 0.14429 0.07318 0.0
S1059 S 0.91932 0.0443 0.1263 0.0
N1060 N 0.89098 0.07617 0.13695 0.0
N1061 N 0.91588 0.05227 0.10239 0.0
C1062 C 0.89068 0.08205 0.10224 0.0
C1063 C 0.87702 0.09491 0.12095 0.0
C1064 C 0.827 0.63248 0.84974 0.0
C1065 C 0.841 0.61782 0.83178 0.0
C1066 C 0.84095 0.61915 0.86776 0.0
C1067 C 0.86977 0.59094 0.86851 0.0
H1068 H 0.80622 0.65559 0.84993 0.0
H1069 H 0.83058 0.63272 0.88115 0.0
S1070 S 0.91173 0.53875 0.82587 0.0
N1071 N 0.88195 0.56998 0.81595 0.0
N1072 N 0.90844 0.54534 0.84992 0.0
C1073 C 0.88203 0.57401 0.85076 0.0
C1074 C 0.86753 0.5873 0.83236 0.0
C1075 C 0.13447 0.11706 0.58745 0.0
C1076 C 0.1076 0.0871 0.58674 0.0
C1077 C 0.14786 0.13113 0.60545 0.0
C1078 C 0.13519 0.11553 0.62343 0.0
H1079 H 0.1437 0.13127 0.57407 0.0
H1080 H 0.1671 0.15546 0.60524 0.0
S1081 S 0.06998 0.03214 0.62936 0.0
N1082 N 0.07238 0.03908 0.60532 0.0
N1083 N 0.09779 0.06515 0.63925 0.0
C1084 C 0.11068 0.08345 0.62285 0.0
C1085 C 0.09677 0.06938 0.60448 0.0
C1086 C 0.62532 0.34492 0.37277 0.0
C1087 C 0.60122 0.37721 0.374 0.0
C1088 C 0.63718 0.3304 0.35451 0.0
C1089 C 0.62571 0.34787 0.3368 0.0
H1090 H 0.63339 0.32938 0.38594 0.0
H1091 H 0.65419 0.30437 0.35431 0.0
S1092 S 0.5681 0.43726 0.33231 0.0
N1093 N 0.57016 0.42909 0.35624 0.0
N1094 N 0.59275 0.40223 0.32183 0.0
C1095 C 0.60414 0.38207 0.33792 0.0
C1096 C 0.59176 0.39659 0.35655 0.0
C1097 C 0.38205 0.88194 0.1016 0.0
C1098 C 0.36852 0.8662 0.08385 0.0
C1099 C 0.36787 0.86961 0.11979 0.0
C1100 C 0.33989 0.84073 0.12095 0.0
H1101 H 0.40482 0.90299 0.10154 0.0
H1102 H 0.38054 0.88144 0.13302 0.0
S1103 S 0.2908 0.79428 0.07879 0.0
N1104 N 0.32226 0.82335 0.06851 0.0
N1105 N 0.29588 0.79994 0.10281 0.0
C1106 C 0.32417 0.82663 0.10333 0.0
C1107 C 0.33838 0.83946 0.08475 0.0
C1108 C 0.87398 0.37032 0.62239 0.0
C1109 C 0.84625 0.34131 0.62412 0.0
C1110 C 0.88625 0.38314 0.60391 0.0
C1111 C 0.87096 0.36778 0.58646 0.0
H1112 H 0.88782 0.38194 0.63535 0.0
H1113 H 0.90887 0.40432 0.60335 0.0
S1114 S 0.79341 0.2953 0.58306 0.0
N1115 N 0.80084 0.30051 0.60694 0.0
N1116 N 0.82358 0.32483 0.57213 0.0
C1117 C 0.84118 0.34074 0.588 0.0
C1118 C 0.82896 0.3274 0.60685 0.0
C1119 C 0.36512 0.09051 0.33358 0.0
C1120 C 0.33408 0.11618 0.33253 0.0
C1121 C 0.37991 0.07902 0.35175 0.0
C1122 C 0.36396 0.0924 0.36956 0.0
H1123 H 0.3797 0.08101 0.32031 0.0
H1124 H 0.40506 0.0608 0.35179 0.0
S1125 S 0.27788 0.15449 0.3747 0.0
N1126 N 0.28469 0.15065 0.35069 0.0
N1127 N 0.31212 0.12875 0.38495 0.0
C1128 C 0.3308 0.11541 0.36869 0.0
C1129 C 0.31597 0.12742 0.35014 0.0
C1130 C 0.6483 0.62834 0.10747 0.0
C1131 C 0.63487 0.61206 0.12514 0.0
C1132 C 0.63626 0.61443 0.08916 0.0
C1133 C 0.61001 0.58401 0.08787 0.0
H1134 H 0.66691 0.65315 0.10772 0.0
H1135 H 0.64581 0.62922 0.076 0.0
S1136 S 0.5713 0.52705 0.1295 0.0
N1137 N 0.59782 0.56036 0.14005 0.0
N1138 N 0.57488 0.53471 0.10556 0.0
C1139 C 0.59867 0.56553 0.10531 0.0
C1140 C 0.61124 0.57939 0.12397 0.0
C1141 C 0.14161 0.83873 0.8538 0.0
C1142 C 0.12811 0.85491 0.83616 0.0
C1143 C 0.12979 0.85295 0.87211 0.0
C1144 C 0.10371 0.88365 0.87349 0.0
H1145 H 0.16017 0.81379 0.85352 0.0
H1146 H 0.13947 0.83818 0.88523 0.0
S1147 S 0.06501 0.94051 0.83189 0.0
N1148 N 0.09123 0.90677 0.8213 0.0
N1149 N 0.06874 0.93312 0.85584 0.0
C1150 C 0.09233 0.90205 0.85606 0.0
C1151 C 0.10464 0.8878 0.83736 0.0
loop_
_geom_bond_atom_site_label_1
_geom_bond_atom_site_label_2
_geom_bond_distance
_geom_bond_site_symmetry_2
_ccdc_geom_bond_type
C0 O1 1.306 . S
C0 O3 1.160 . S
O1 C0 1.306 . S
O1 Cd2 2.228 . S
Cd2 O1 2.228 . S
Cd2 O6 2.273 . S
Cd2 O10 2.277 . S
O3 C0 1.160 . S
O3 Cd4 2.203 . S
Cd4 O3 2.203 . S
Cd4 O6 2.411 . S
Cd4 O7 2.333 . S
Cd4 O8 2.352 . S
Cd4 O12 2.277 . S
Cd4 O13 2.356 . S
C5 O10 1.209 . S
C5 O12 1.226 . S
O6 Cd2 2.273 . S
O6 Cd4 2.411 . S
O6 C9 1.320 . S
O7 Cd4 2.333 . S
O7 C9 1.214 . S
O8 Cd4 2.352 . S
O8 C11 1.258 . S
C9 O6 1.320 . S
C9 O7 1.214 . S
O10 Cd2 2.277 . S
O10 C5 1.209 . S
C11 O8 1.258 . S
C11 O13 1.282 . S
O12 Cd4 2.277 . S
O12 C5 1.226 . S
O13 Cd4 2.356 . S
O13 C11 1.282 . S
C14 O15 1.306 . S
C14 O17 1.160 . S
O15 C14 1.306 . S
O15 Cd16 2.228 . S
Cd16 O15 2.228 . S
Cd16 O20 2.273 . S
Cd16 O24 2.277 . S
O17 C14 1.160 . S
O17 Cd18 2.203 . S
Cd18 O17 2.203 . S
Cd18 O20 2.411 . S
Cd18 O21 2.333 . S
Cd18 O22 2.352 . S
Cd18 O26 2.277 . S
Cd18 O27 2.356 . S
C19 O24 1.209 . S
C19 O26 1.226 . S
O20 Cd16 2.273 . S
O20 Cd18 2.411 . S
O20 C23 1.320 . S
O21 Cd18 2.333 . S
O21 C23 1.214 . S
O22 Cd18 2.352 . S
O22 C25 1.258 . S
C23 O20 1.320 . S
C23 O21 1.214 . S
O24 Cd16 2.277 . S
O24 C19 1.209 . S
C25 O22 1.258 . S
C25 O27 1.282 . S
O26 Cd18 2.277 . S
O26 C19 1.226 . S
O27 Cd18 2.356 . S
O27 C25 1.282 . S
C28 O29 1.306 . S
C28 O31 1.160 . S
O29 C28 1.306 . S
O29 Cd30 2.228 . S
Cd30 O29 2.228 . S
Cd30 O34 2.273 . S
Cd30 O38 2.277 . S
O31 C28 1.160 . S
O31 Cd32 2.203 . S
Cd32 O31 2.203 . S
Cd32 O34 2.411 . S
Cd32 O35 2.333 . S
Cd32 O36 2.352 . S
Cd32 O40 2.277 . S
Cd32 O41 2.356 . S
C33 O38 1.209 . S
C33 O40 1.226 . S
O34 Cd30 2.273 . S
O34 Cd32 2.411 . S
O34 C37 1.320 . S
O35 Cd32 2.333 . S
O35 C37 1.214 . S
O36 Cd32 2.352 . S
O36 C39 1.258 . S
C37 O34 1.320 . S
C37 O35 1.214 . S
O38 Cd30 2.277 . S
O38 C33 1.209 . S
C39 O36 1.258 . S
C39 O41 1.282 . S
O40 Cd32 2.277 . S
O40 C33 1.226 . S
O41 Cd32 2.356 . S
O41 C39 1.282 . S
C42 O43 1.306 . S
C42 O45 1.160 . S
O43 C42 1.306 . S
O43 Cd44 2.228 . S
Cd44 O43 2.228 . S
Cd44 O48 2.273 . S
Cd44 O52 2.277 . S
O45 C42 1.160 . S
O45 Cd46 2.203 . S
Cd46 O45 2.203 . S
Cd46 O48 2.411 . S
Cd46 O49 2.333 . S
Cd46 O50 2.352 . S
Cd46 O54 2.277 . S
Cd46 O55 2.356 . S
C47 O52 1.209 . S
C47 O54 1.226 . S
O48 Cd44 2.273 . S
O48 Cd46 2.411 . S
O48 C51 1.320 . S
O49 Cd46 2.333 . S
O49 C51 1.214 . S
O50 Cd46 2.352 . S
O50 C53 1.258 . S
C51 O48 1.320 . S
C51 O49 1.214 . S
O52 Cd44 2.277 . S
O52 C47 1.209 . S
C53 O50 1.258 . S
C53 O55 1.282 . S
O54 Cd46 2.277 . S
O54 C47 1.226 . S
O55 Cd46 2.356 . S
O55 C53 1.282 . S
C56 O57 1.306 . S
C56 O59 1.160 . S
O57 C56 1.306 . S
O57 Cd58 2.228 . S
Cd58 O57 2.228 . S
Cd58 O62 2.273 . S
Cd58 O66 2.277 . S
O59 C56 1.160 . S
O59 Cd60 2.203 . S
Cd60 O59 2.203 . S
Cd60 O62 2.411 . S
Cd60 O63 2.333 . S
Cd60 O64 2.352 . S
Cd60 O68 2.277 . S
Cd60 O69 2.356 . S
C61 O66 1.209 . S
C61 O68 1.226 . S
O62 Cd58 2.273 . S
O62 Cd60 2.411 . S
O62 C65 1.320 . S
O63 Cd60 2.333 . S
O63 C65 1.214 . S
O64 Cd60 2.352 . S
O64 C67 1.258 . S
C65 O62 1.320 . S
C65 O63 1.214 . S
O66 Cd58 2.277 . S
O66 C61 1.209 . S
C67 O64 1.258 . S
C67 O69 1.282 . S
O68 Cd60 2.277 . S
O68 C61 1.226 . S
O69 Cd60 2.356 . S
O69 C67 1.282 . S
C70 O71 1.306 . S
C70 O73 1.160 . S
O71 C70 1.306 . S
O71 Cd72 2.228 . S
Cd72 O71 2.228 . S
Cd72 O76 2.273 . S
Cd72 O80 2.277 . S
O73 C70 1.160 . S
O73 Cd74 2.203 . S
Cd74 O73 2.203 . S
Cd74 O76 2.411 . S
Cd74 O77 2.333 . S
Cd74 O78 2.352 . S
Cd74 O82 2.277 . S
Cd74 O83 2.356 . S
C75 O80 1.209 . S
C75 O82 1.226 . S
O76 Cd72 2.273 . S
O76 Cd74 2.411 . S
O76 C79 1.320 . S
O77 Cd74 2.333 . S
O77 C79 1.214 . S
O78 Cd74 2.352 . S
O78 C81 1.258 . S
C79 O76 1.320 . S
C79 O77 1.214 . S
O80 Cd72 2.277 . S
O80 C75 1.209 . S
C81 O78 1.258 . S
C81 O83 1.282 . S
O82 Cd74 2.277 . S
O82 C75 1.226 . S
O83 Cd74 2.356 . S
O83 C81 1.282 . S
C84 O85 1.306 . S
C84 O87 1.160 . S
O85 C84 1.306 . S
O85 Cd86 2.228 . S
Cd86 O85 2.228 . S
Cd86 O90 2.273 . S
Cd86 O94 2.277 . S
O87 C84 1.160 . S
O87 Cd88 2.203 . S
Cd88 O87 2.203 . S
Cd88 O90 2.411 . S
Cd88 O91 2.333 . S
Cd88 O92 2.352 . S
Cd88 O96 2.277 . S
Cd88 O97 2.356 . S
C89 O94 1.209 . S
C89 O96 1.226 . S
O90 Cd86 2.273 . S
O90 Cd88 2.411 . S
O90 C93 1.320 . S
O91 Cd88 2.333 . S
O91 C93 1.214 . S
O92 Cd88 2.352 . S
O92 C95 1.258 . S
C93 O90 1.320 . S
C93 O91 1.214 . S
O94 Cd86 2.277 . S
O94 C89 1.209 . S
C95 O92 1.258 . S
C95 O97 1.282 . S
O96 Cd88 2.277 . S
O96 C89 1.226 . S
O97 Cd88 2.356 . S
O97 C95 1.282 . S
C98 O99 1.306 . S
C98 O101 1.160 . S
O99 C98 1.306 . S
O99 Cd100 2.228 . S
Cd100 O99 2.228 . S
Cd100 O104 2.273 . S
Cd100 O108 2.277 . S
O101 C98 1.160 . S
O101 Cd102 2.203 . S
Cd102 O101 2.203 . S
Cd102 O104 2.411 . S
Cd102 O105 2.333 . S
Cd102 O106 2.352 . S
Cd102 O110 2.277 . S
Cd102 O111 2.356 . S
C103 O108 1.209 . S
C103 O110 1.226 . S
O104 Cd100 2.273 . S
O104 Cd102 2.411 . S
O104 C107 1.320 . S
O105 Cd102 2.333 . S
O105 C107 1.214 . S
O106 Cd102 2.352 . S
O106 C109 1.258 . S
C107 O104 1.320 . S
C107 O105 1.214 . S
O108 Cd100 2.277 . S
O108 C103 1.209 . S
C109 O106 1.258 . S
C109 O111 1.282 . S
O110 Cd102 2.277 . S
O110 C103 1.226 . S
O111 Cd102 2.356 . S
O111 C109 1.282 . S
C112 O113 1.306 . S
C112 O115 1.160 . S
O113 C112 1.306 . S
O113 Cd114 2.228 . S
Cd114 O113 2.228 . S
Cd114 O118 2.273 . S
Cd114 O122 2.277 . S
O115 C112 1.160 . S
O115 Cd116 2.203 . S
Cd116 O115 2.203 . S
Cd116 O118 2.411 . S
Cd116 O119 2.333 . S
Cd116 O120 2.352 . S
Cd116 O124 2.277 . S
Cd116 O125 2.356 . S
C117 O122 1.209 . S
C117 O124 1.226 . S
O118 Cd114 2.273 . S
O118 Cd116 2.411 . S
O118 C121 1.320 . S
O119 Cd116 2.333 . S
O119 C121 1.214 . S
O120 Cd116 2.352 . S
O120 C123 1.258 . S
C121 O118 1.320 . S
C121 O119 1.214 . S
O122 Cd114 2.277 . S
O122 C117 1.209 . S
C123 O120 1.258 . S
C123 O125 1.282 . S
O124 Cd116 2.277 . S
O124 C117 1.226 . S
O125 Cd116 2.356 . S
O125 C123 1.282 . S
C126 O127 1.306 . S
C126 O129 1.160 . S
O127 C126 1.306 . S
O127 Cd128 2.228 . S
Cd128 O127 2.228 . S
Cd128 O132 2.273 . S
Cd128 O136 2.277 . S
O129 C126 1.160 . S
O129 Cd130 2.203 . S
Cd130 O129 2.203 . S
Cd130 O132 2.411 . S
Cd130 O133 2.333 . S
Cd130 O134 2.352 . S
Cd130 O138 2.277 . S
Cd130 O139 2.356 . S
C131 O136 1.209 . S
C131 O138 1.226 . S
O132 Cd128 2.273 . S
O132 Cd130 2.411 . S
O132 C135 1.320 . S
O133 Cd130 2.333 . S
O133 C135 1.214 . S
O134 Cd130 2.352 . S
O134 C137 1.258 . S
C135 O132 1.320 . S
C135 O133 1.214 . S
O136 Cd128 2.277 . S
O136 C131 1.209 . S
C137 O134 1.258 . S
C137 O139 1.282 . S
O138 Cd130 2.277 . S
O138 C131 1.226 . S
O139 Cd130 2.356 . S
O139 C137 1.282 . S
C140 O141 1.306 . S
C140 O143 1.160 . S
O141 C140 1.306 . S
O141 Cd142 2.228 . S
Cd142 O141 2.228 . S
Cd142 O146 2.273 . S
Cd142 O150 2.277 . S
O143 C140 1.160 . S
O143 Cd144 2.203 . S
Cd144 O143 2.203 . S
Cd144 O146 2.411 . S
Cd144 O147 2.333 . S
Cd144 O148 2.352 . S
Cd144 O152 2.277 . S
Cd144 O153 2.356 . S
C145 O150 1.209 . S
C145 O152 1.226 . S
O146 Cd142 2.273 . S
O146 Cd144 2.411 . S
O146 C149 1.320 . S
O147 Cd144 2.333 . S
O147 C149 1.214 . S
O148 Cd144 2.352 . S
O148 C151 1.258 . S
C149 O146 1.320 . S
C149 O147 1.214 . S
O150 Cd142 2.277 . S
O150 C145 1.209 . S
C151 O148 1.258 . S
C151 O153 1.282 . S
O152 Cd144 2.277 . S
O152 C145 1.226 . S
O153 Cd144 2.356 . S
O153 C151 1.282 . S
C154 O155 1.306 . S
C154 O157 1.160 . S
O155 C154 1.306 . S
O155 Cd156 2.228 . S
Cd156 O155 2.228 . S
Cd156 O160 2.273 . S
Cd156 O164 2.277 . S
O157 C154 1.160 . S
O157 Cd158 2.203 . S
Cd158 O157 2.203 . S
Cd158 O160 2.411 . S
Cd158 O161 2.333 . S
Cd158 O162 2.352 . S
Cd158 O166 2.277 . S
Cd158 O167 2.356 . S
C159 O164 1.209 . S
C159 O166 1.226 . S
O160 Cd156 2.273 . S
O160 Cd158 2.411 . S
O160 C163 1.320 . S
O161 Cd158 2.333 . S
O161 C163 1.214 . S
O162 Cd158 2.352 . S
O162 C165 1.258 . S
C163 O160 1.320 . S
C163 O161 1.214 . S
O164 Cd156 2.277 . S
O164 C159 1.209 . S
C165 O162 1.258 . S
C165 O167 1.282 . S
O166 Cd158 2.277 . S
O166 C159 1.226 . S
O167 Cd158 2.356 . S
O167 C165 1.282 . S
C168 O169 1.306 . S
C168 O171 1.160 . S
O169 C168 1.306 . S
O169 Cd170 2.228 . S
Cd170 O169 2.228 . S
Cd170 O174 2.273 . S
Cd170 O178 2.277 . S
O171 C168 1.160 . S
O171 Cd172 2.203 . S
Cd172 O171 2.203 . S
Cd172 O174 2.411 . S
Cd172 O175 2.333 . S
Cd172 O176 2.352 . S
Cd172 O180 2.277 . S
Cd172 O181 2.356 . S
C173 O178 1.209 . S
C173 O180 1.226 . S
O174 Cd170 2.273 . S
O174 Cd172 2.411 . S
O174 C177 1.320 . S
O175 Cd172 2.333 . S
O175 C177 1.214 . S
O176 Cd172 2.352 . S
O176 C179 1.258 . S
C177 O174 1.320 . S
C177 O175 1.214 . S
O178 Cd170 2.277 . S
O178 C173 1.209 . S
C179 O176 1.258 . S
C179 O181 1.282 . S
O180 Cd172 2.277 . S
O180 C173 1.226 . S
O181 Cd172 2.356 . S
O181 C179 1.282 . S
C182 O183 1.306 . S
C182 O185 1.160 . S
O183 C182 1.306 . S
O183 Cd184 2.228 . S
Cd184 O183 2.228 . S
Cd184 O188 2.273 . S
Cd184 O192 2.277 . S
O185 C182 1.160 . S
O185 Cd186 2.203 . S
Cd186 O185 2.203 . S
Cd186 O188 2.411 . S
Cd186 O189 2.333 . S
Cd186 O190 2.352 . S
Cd186 O194 2.277 . S
Cd186 O195 2.356 . S
C187 O192 1.209 . S
C187 O194 1.226 . S
O188 Cd184 2.273 . S
O188 Cd186 2.411 . S
O188 C191 1.320 . S
O189 Cd186 2.333 . S
O189 C191 1.214 . S
O190 Cd186 2.352 . S
O190 C193 1.258 . S
C191 O188 1.320 . S
C191 O189 1.214 . S
O192 Cd184 2.277 . S
O192 C187 1.209 . S
C193 O190 1.258 . S
C193 O195 1.282 . S
O194 Cd186 2.277 . S
O194 C187 1.226 . S
O195 Cd186 2.356 . S
O195 C193 1.282 . S
C196 O197 1.306 . S
C196 O199 1.160 . S
O197 C196 1.306 . S
O197 Cd198 2.228 . S
Cd198 O197 2.228 . S
Cd198 O202 2.273 . S
Cd198 O206 2.277 . S
O199 C196 1.160 . S
O199 Cd200 2.203 . S
Cd200 O199 2.203 . S
Cd200 O202 2.411 . S
Cd200 O203 2.333 . S
Cd200 O204 2.352 . S
Cd200 O208 2.277 . S
Cd200 O209 2.356 . S
C201 O206 1.209 . S
C201 O208 1.226 . S
O202 Cd198 2.273 . S
O202 Cd200 2.411 . S
O202 C205 1.320 . S
O203 Cd200 2.333 . S
O203 C205 1.214 . S
O204 Cd200 2.352 . S
O204 C207 1.258 . S
C205 O202 1.320 . S
C205 O203 1.214 . S
O206 Cd198 2.277 . S
O206 C201 1.209 . S
C207 O204 1.258 . S
C207 O209 1.282 . S
O208 Cd200 2.277 . S
O208 C201 1.226 . S
O209 Cd200 2.356 . S
O209 C207 1.282 . S
C210 O211 1.306 . S
C210 O213 1.160 . S
O211 C210 1.306 . S
O211 Cd212 2.228 . S
Cd212 O211 2.228 . S
Cd212 O216 2.273 . S
Cd212 O220 2.277 . S
O213 C210 1.160 . S
O213 Cd214 2.203 . S
Cd214 O213 2.203 . S
Cd214 O216 2.411 . S
Cd214 O217 2.333 . S
Cd214 O218 2.352 . S
Cd214 O222 2.277 . S
Cd214 O223 2.356 . S
C215 O220 1.209 . S
C215 O222 1.226 . S
O216 Cd212 2.273 . S
O216 Cd214 2.411 . S
O216 C219 1.320 . S
O217 Cd214 2.333 . S
O217 C219 1.214 . S
O218 Cd214 2.352 . S
O218 C221 1.258 . S
C219 O216 1.320 . S
C219 O217 1.214 . S
O220 Cd212 2.277 . S
O220 C215 1.209 . S
C221 O218 1.258 . S
C221 O223 1.282 . S
O222 Cd214 2.277 . S
O222 C215 1.226 . S
O223 Cd214 2.356 . S
O223 C221 1.282 . S
C224 O225 1.306 . S
C224 O227 1.160 . S
O225 C224 1.306 . S
O225 Cd226 2.228 . S
Cd226 O225 2.228 . S
Cd226 O230 2.273 . S
Cd226 O234 2.277 . S
O227 C224 1.160 . S
O227 Cd228 2.203 . S
Cd228 O227 2.203 . S
Cd228 O230 2.411 . S
Cd228 O231 2.333 . S
Cd228 O232 2.352 . S
Cd228 O236 2.277 . S
Cd228 O237 2.356 . S
C229 O234 1.209 . S
C229 O236 1.226 . S
O230 Cd226 2.273 . S
O230 Cd228 2.411 . S
O230 C233 1.320 . S
O231 Cd228 2.333 . S
O231 C233 1.214 . S
O232 Cd228 2.352 . S
O232 C235 1.258 . S
C233 O230 1.320 . S
C233 O231 1.214 . S
O234 Cd226 2.277 . S
O234 C229 1.209 . S
C235 O232 1.258 . S
C235 O237 1.282 . S
O236 Cd228 2.277 . S
O236 C229 1.226 . S
O237 Cd228 2.356 . S
O237 C235 1.282 . S
C238 O239 1.306 . S
C238 O241 1.160 . S
O239 C238 1.306 . S
O239 Cd240 2.228 . S
Cd240 O239 2.228 . S
Cd240 O244 2.273 . S
Cd240 O248 2.277 . S
O241 C238 1.160 . S
O241 Cd242 2.203 . S
Cd242 O241 2.203 . S
Cd242 O244 2.411 . S
Cd242 O245 2.333 . S
Cd242 O246 2.352 . S
Cd242 O250 2.277 . S
Cd242 O251 2.356 . S
C243 O248 1.209 . S
C243 O250 1.226 . S
O244 Cd240 2.273 . S
O244 Cd242 2.411 . S
O244 C247 1.320 . S
O245 Cd242 2.333 . S
O245 C247 1.214 . S
O246 Cd242 2.352 . S
O246 C249 1.258 . S
C247 O244 1.320 . S
C247 O245 1.214 . S
O248 Cd240 2.277 . S
O248 C243 1.209 . S
C249 O246 1.258 . S
C249 O251 1.282 . S
O250 Cd242 2.277 . S
O250 C243 1.226 . S
O251 Cd242 2.356 . S
O251 C249 1.282 . S
C252 O253 1.306 . S
C252 O255 1.160 . S
O253 C252 1.306 . S
O253 Cd254 2.228 . S
Cd254 O253 2.228 . S
Cd254 O258 2.273 . S
Cd254 O262 2.277 . S
O255 C252 1.160 . S
O255 Cd256 2.203 . S
Cd256 O255 2.203 . S
Cd256 O258 2.411 . S
Cd256 O259 2.333 . S
Cd256 O260 2.352 . S
Cd256 O264 2.277 . S
Cd256 O265 2.356 . S
C257 O262 1.209 . S
C257 O264 1.226 . S
O258 Cd254 2.273 . S
O258 Cd256 2.411 . S
O258 C261 1.320 . S
O259 Cd256 2.333 . S
O259 C261 1.214 . S
O260 Cd256 2.352 . S
O260 C263 1.258 . S
C261 O258 1.320 . S
C261 O259 1.214 . S
O262 Cd254 2.277 . S
O262 C257 1.209 . S
C263 O260 1.258 . S
C263 O265 1.282 . S
O264 Cd256 2.277 . S
O264 C257 1.226 . S
O265 Cd256 2.356 . S
O265 C263 1.282 . S
C266 O267 1.306 . S
C266 O269 1.160 . S
O267 C266 1.306 . S
O267 Cd268 2.228 . S
Cd268 O267 2.228 . S
Cd268 O272 2.273 . S
Cd268 O276 2.277 . S
O269 C266 1.160 . S
O269 Cd270 2.203 . S
Cd270 O269 2.203 . S
Cd270 O272 2.411 . S
Cd270 O273 2.333 . S
Cd270 O274 2.352 . S
Cd270 O278 2.277 . S
Cd270 O279 2.356 . S
C271 O276 1.209 . S
C271 O278 1.226 . S
O272 Cd268 2.273 . S
O272 Cd270 2.411 . S
O272 C275 1.320 . S
O273 Cd270 2.333 . S
O273 C275 1.214 . S
O274 Cd270 2.352 . S
O274 C277 1.258 . S
C275 O272 1.320 . S
C275 O273 1.214 . S
O276 Cd268 2.277 . S
O276 C271 1.209 . S
C277 O274 1.258 . S
C277 O279 1.282 . S
O278 Cd270 2.277 . S
O278 C271 1.226 . S
O279 Cd270 2.356 . S
O279 C277 1.282 . S
C280 O281 1.306 . S
C280 O283 1.160 . S
O281 C280 1.306 . S
O281 Cd282 2.228 . S
Cd282 O281 2.228 . S
Cd282 O286 2.273 . S
Cd282 O290 2.277 . S
O283 C280 1.160 . S
O283 Cd284 2.203 . S
Cd284 O283 2.203 . S
Cd284 O286 2.411 . S
Cd284 O287 2.333 . S
Cd284 O288 2.352 . S
Cd284 O292 2.277 . S
Cd284 O293 2.356 . S
C285 O290 1.209 . S
C285 O292 1.226 . S
O286 Cd282 2.273 . S
O286 Cd284 2.411 . S
O286 C289 1.320 . S
O287 Cd284 2.333 . S
O287 C289 1.214 . S
O288 Cd284 2.352 . S
O288 C291 1.258 . S
C289 O286 1.320 . S
C289 O287 1.214 . S
O290 Cd282 2.277 . S
O290 C285 1.209 . S
C291 O288 1.258 . S
C291 O293 1.282 . S
O292 Cd284 2.277 . S
O292 C285 1.226 . S
O293 Cd284 2.356 . S
O293 C291 1.282 . S
C294 O295 1.306 . S
C294 O297 1.160 . S
O295 C294 1.306 . S
O295 Cd296 2.228 . S
Cd296 O295 2.228 . S
Cd296 O300 2.273 . S
Cd296 O304 2.277 . S
O297 C294 1.160 . S
O297 Cd298 2.203 . S
Cd298 O297 2.203 . S
Cd298 O300 2.411 . S
Cd298 O301 2.333 . S
Cd298 O302 2.352 . S
Cd298 O306 2.277 . S
Cd298 O307 2.356 . S
C299 O304 1.209 . S
C299 O306 1.226 . S
O300 Cd296 2.273 . S
O300 Cd298 2.411 . S
O300 C303 1.320 . S
O301 Cd298 2.333 . S
O301 C303 1.214 . S
O302 Cd298 2.352 . S
O302 C305 1.258 . S
C303 O300 1.320 . S
C303 O301 1.214 . S
O304 Cd296 2.277 . S
O304 C299 1.209 . S
C305 O302 1.258 . S
C305 O307 1.282 . S
O306 Cd298 2.277 . S
O306 C299 1.226 . S
O307 Cd298 2.356 . S
O307 C305 1.282 . S
C308 O309 1.306 . S
C308 O311 1.160 . S
O309 C308 1.306 . S
O309 Cd310 2.228 . S
Cd310 O309 2.228 . S
Cd310 O314 2.273 . S
Cd310 O318 2.277 . S
O311 C308 1.160 . S
O311 Cd312 2.203 . S
Cd312 O311 2.203 . S
Cd312 O314 2.411 . S
Cd312 O315 2.333 . S
Cd312 O316 2.352 . S
Cd312 O320 2.277 . S
Cd312 O321 2.356 . S
C313 O318 1.209 . S
C313 O320 1.226 . S
O314 Cd310 2.273 . S
O314 Cd312 2.411 . S
O314 C317 1.320 . S
O315 Cd312 2.333 . S
O315 C317 1.214 . S
O316 Cd312 2.352 . S
O316 C319 1.258 . S
C317 O314 1.320 . S
C317 O315 1.214 . S
O318 Cd310 2.277 . S
O318 C313 1.209 . S
C319 O316 1.258 . S
C319 O321 1.282 . S
O320 Cd312 2.277 . S
O320 C313 1.226 . S
O321 Cd312 2.356 . S
O321 C319 1.282 . S
C322 O323 1.306 . S
C322 O325 1.160 . S
O323 C322 1.306 . S
O323 Cd324 2.228 . S
Cd324 O323 2.228 . S
Cd324 O328 2.273 . S
Cd324 O332 2.277 . S
O325 C322 1.160 . S
O325 Cd326 2.203 . S
Cd326 O325 2.203 . S
Cd326 O328 2.411 . S
Cd326 O329 2.333 . S
Cd326 O330 2.352 . S
Cd326 O334 2.277 . S
Cd326 O335 2.356 . S
C327 O332 1.209 . S
C327 O334 1.226 . S
O328 Cd324 2.273 . S
O328 Cd326 2.411 . S
O328 C331 1.320 . S
O329 Cd326 2.333 . S
O329 C331 1.214 . S
O330 Cd326 2.352 . S
O330 C333 1.258 . S
C331 O328 1.320 . S
C331 O329 1.214 . S
O332 Cd324 2.277 . S
O332 C327 1.209 . S
C333 O330 1.258 . S
C333 O335 1.282 . S
O334 Cd326 2.277 . S
O334 C327 1.226 . S
O335 Cd326 2.356 . S
O335 C333 1.282 . S
C336 O337 1.306 . S
C336 O339 1.160 . S
O337 C336 1.306 . S
O337 Cd338 2.228 . S
Cd338 O337 2.228 . S
Cd338 O342 2.273 . S
Cd338 O346 2.277 . S
O339 C336 1.160 . S
O339 Cd340 2.203 . S
Cd340 O339 2.203 . S
Cd340 O342 2.411 . S
Cd340 O343 2.333 . S
Cd340 O344 2.352 . S
Cd340 O348 2.277 . S
Cd340 O349 2.356 . S
C341 O346 1.209 . S
C341 O348 1.226 . S
O342 Cd338 2.273 . S
O342 Cd340 2.411 . S
O342 C345 1.320 . S
O343 Cd340 2.333 . S
O343 C345 1.214 . S
O344 Cd340 2.352 . S
O344 C347 1.258 . S
C345 O342 1.320 . S
C345 O343 1.214 . S
O346 Cd338 2.277 . S
O346 C341 1.209 . S
C347 O344 1.258 . S
C347 O349 1.282 . S
O348 Cd340 2.277 . S
O348 C341 1.226 . S
O349 Cd340 2.356 . S
O349 C347 1.282 . S
C350 O351 1.306 . S
C350 O353 1.160 . S
O351 C350 1.306 . S
O351 Cd352 2.228 . S
Cd352 O351 2.228 . S
Cd352 O356 2.273 . S
Cd352 O360 2.277 . S
O353 C350 1.160 . S
O353 Cd354 2.203 . S
Cd354 O353 2.203 . S
Cd354 O356 2.411 . S
Cd354 O357 2.333 . S
Cd354 O358 2.352 . S
Cd354 O362 2.277 . S
Cd354 O363 2.356 . S
C355 O360 1.209 . S
C355 O362 1.226 . S
O356 Cd352 2.273 . S
O356 Cd354 2.411 . S
O356 C359 1.320 . S
O357 Cd354 2.333 . S
O357 C359 1.214 . S
O358 Cd354 2.352 . S
O358 C361 1.258 . S
C359 O356 1.320 . S
C359 O357 1.214 . S
O360 Cd352 2.277 . S
O360 C355 1.209 . S
C361 O358 1.258 . S
C361 O363 1.282 . S
O362 Cd354 2.277 . S
O362 C355 1.226 . S
O363 Cd354 2.356 . S
O363 C361 1.282 . S
C364 O365 1.306 . S
C364 O367 1.160 . S
O365 C364 1.306 . S
O365 Cd366 2.228 . S
Cd366 O365 2.228 . S
Cd366 O370 2.273 . S
Cd366 O374 2.277 . S
O367 C364 1.160 . S
O367 Cd368 2.203 . S
Cd368 O367 2.203 . S
Cd368 O370 2.411 . S
Cd368 O371 2.333 . S
Cd368 O372 2.352 . S
Cd368 O376 2.277 . S
Cd368 O377 2.356 . S
C369 O374 1.209 . S
C369 O376 1.226 . S
O370 Cd366 2.273 . S
O370 Cd368 2.411 . S
O370 C373 1.320 . S
O371 Cd368 2.333 . S
O371 C373 1.214 . S
O372 Cd368 2.352 . S
O372 C375 1.258 . S
C373 O370 1.320 . S
C373 O371 1.214 . S
O374 Cd366 2.277 . S
O374 C369 1.209 . S
C375 O372 1.258 . S
C375 O377 1.282 . S
O376 Cd368 2.277 . S
O376 C369 1.226 . S
O377 Cd368 2.356 . S
O377 C375 1.282 . S
C378 O379 1.306 . S
C378 O381 1.160 . S
O379 C378 1.306 . S
O379 Cd380 2.228 . S
Cd380 O379 2.228 . S
Cd380 O384 2.273 . S
Cd380 O388 2.277 . S
O381 C378 1.160 . S
O381 Cd382 2.203 . S
Cd382 O381 2.203 . S
Cd382 O384 2.411 . S
Cd382 O385 2.333 . S
Cd382 O386 2.352 . S
Cd382 O390 2.277 . S
Cd382 O391 2.356 . S
C383 O388 1.209 . S
C383 O390 1.226 . S
O384 Cd380 2.273 . S
O384 Cd382 2.411 . S
O384 C387 1.320 . S
O385 Cd382 2.333 . S
O385 C387 1.214 . S
O386 Cd382 2.352 . S
O386 C389 1.258 . S
C387 O384 1.320 . S
C387 O385 1.214 . S
O388 Cd380 2.277 . S
O388 C383 1.209 . S
C389 O386 1.258 . S
C389 O391 1.282 . S
O390 Cd382 2.277 . S
O390 C383 1.226 . S
O391 Cd382 2.356 . S
O391 C389 1.282 . S
C392 O393 1.306 . S
C392 O395 1.160 . S
O393 C392 1.306 . S
O393 Cd394 2.228 . S
Cd394 O393 2.228 . S
Cd394 O398 2.273 . S
Cd394 O402 2.277 . S
O395 C392 1.160 . S
O395 Cd396 2.203 . S
Cd396 O395 2.203 . S
Cd396 O398 2.411 . S
Cd396 O399 2.333 . S
Cd396 O400 2.352 . S
Cd396 O404 2.277 . S
Cd396 O405 2.356 . S
C397 O402 1.209 . S
C397 O404 1.226 . S
O398 Cd394 2.273 . S
O398 Cd396 2.411 . S
O398 C401 1.320 . S
O399 Cd396 2.333 . S
O399 C401 1.214 . S
O400 Cd396 2.352 . S
O400 C403 1.258 . S
C401 O398 1.320 . S
C401 O399 1.214 . S
O402 Cd394 2.277 . S
O402 C397 1.209 . S
C403 O400 1.258 . S
C403 O405 1.282 . S
O404 Cd396 2.277 . S
O404 C397 1.226 . S
O405 Cd396 2.356 . S
O405 C403 1.282 . S
C406 O407 1.306 . S
C406 O409 1.160 . S
O407 C406 1.306 . S
O407 Cd408 2.228 . S
Cd408 O407 2.228 . S
Cd408 O412 2.273 . S
Cd408 O416 2.277 . S
O409 C406 1.160 . S
O409 Cd410 2.203 . S
Cd410 O409 2.203 . S
Cd410 O412 2.411 . S
Cd410 O413 2.333 . S
Cd410 O414 2.352 . S
Cd410 O418 2.277 . S
Cd410 O419 2.356 . S
C411 O416 1.209 . S
C411 O418 1.226 . S
O412 Cd408 2.273 . S
O412 Cd410 2.411 . S
O412 C415 1.320 . S
O413 Cd410 2.333 . S
O413 C415 1.214 . S
O414 Cd410 2.352 . S
O414 C417 1.258 . S
C415 O412 1.320 . S
C415 O413 1.214 . S
O416 Cd408 2.277 . S
O416 C411 1.209 . S
C417 O414 1.258 . S
C417 O419 1.282 . S
O418 Cd410 2.277 . S
O418 C411 1.226 . S
O419 Cd410 2.356 . S
O419 C417 1.282 . S
C420 O421 1.306 . S
C420 O423 1.160 . S
O421 C420 1.306 . S
O421 Cd422 2.228 . S
Cd422 O421 2.228 . S
Cd422 O426 2.273 . S
Cd422 O430 2.277 . S
O423 C420 1.160 . S
O423 Cd424 2.203 . S
Cd424 O423 2.203 . S
Cd424 O426 2.411 . S
Cd424 O427 2.333 . S
Cd424 O428 2.352 . S
Cd424 O432 2.277 . S
Cd424 O433 2.356 . S
C425 O430 1.209 . S
C425 O432 1.226 . S
O426 Cd422 2.273 . S
O426 Cd424 2.411 . S
O426 C429 1.320 . S
O427 Cd424 2.333 . S
O427 C429 1.214 . S
O428 Cd424 2.352 . S
O428 C431 1.258 . S
C429 O426 1.320 . S
C429 O427 1.214 . S
O430 Cd422 2.277 . S
O430 C425 1.209 . S
C431 O428 1.258 . S
C431 O433 1.282 . S
O432 Cd424 2.277 . S
O432 C425 1.226 . S
O433 Cd424 2.356 . S
O433 C431 1.282 . S
C434 O435 1.306 . S
C434 O437 1.160 . S
O435 C434 1.306 . S
O435 Cd436 2.228 . S
Cd436 O435 2.228 . S
Cd436 O440 2.273 . S
Cd436 O444 2.277 . S
O437 C434 1.160 . S
O437 Cd438 2.203 . S
Cd438 O437 2.203 . S
Cd438 O440 2.411 . S
Cd438 O441 2.333 . S
Cd438 O442 2.352 . S
Cd438 O446 2.277 . S
Cd438 O447 2.356 . S
C439 O444 1.209 . S
C439 O446 1.226 . S
O440 Cd436 2.273 . S
O440 Cd438 2.411 . S
O440 C443 1.320 . S
O441 Cd438 2.333 . S
O441 C443 1.214 . S
O442 Cd438 2.352 . S
O442 C445 1.258 . S
C443 O440 1.320 . S
C443 O441 1.214 . S
O444 Cd436 2.277 . S
O444 C439 1.209 . S
C445 O442 1.258 . S
C445 O447 1.282 . S
O446 Cd438 2.277 . S
O446 C439 1.226 . S
O447 Cd438 2.356 . S
O447 C445 1.282 . S
C448 C449 1.369 . S
C448 C450 1.419 1_655 S
C448 H452 0.930 . S
C449 C448 1.369 . S
C449 C458 1.429 1_556 S
C450 C448 1.419 1_455 S
C450 C451 1.363 1_556 S
C450 H453 0.929 . S
C451 C450 1.363 1_554 S
C451 C457 1.428 . S
H452 C448 0.930 . S
H453 C450 0.929 . S
S454 N455 1.613 1_455 S
S454 N456 1.610 . S
N455 S454 1.613 1_655 S
N455 C458 1.350 . S
N456 S454 1.610 . S
N456 C457 1.351 . S
C457 C451 1.428 . S
C457 N456 1.351 . S
C457 C458 1.434 1_455 S
C458 C449 1.429 1_554 S
C458 N455 1.350 . S
C458 C457 1.434 1_655 S
C459 C460 1.369 . S
C459 C461 1.419 . S
C459 H463 0.930 . S
C460 C459 1.369 . S
C460 C469 1.429 . S
C461 C459 1.419 . S
C461 C462 1.363 . S
C461 H464 0.929 . S
C462 C461 1.363 . S
C462 C468 1.428 . S
H463 C459 0.930 . S
H464 C461 0.929 . S
S465 N466 1.613 . S
S465 N467 1.610 . S
N466 S465 1.613 . S
N466 C469 1.350 . S
N467 S465 1.610 . S
N467 C468 1.351 . S
C468 C462 1.428 . S
C468 N467 1.351 . S
C468 C469 1.434 . S
C469 C460 1.429 . S
C469 N466 1.350 . S
C469 C468 1.434 . S
C470 C471 1.369 . S
C470 C472 1.419 . S
C470 H474 0.930 . S
C471 C470 1.369 . S
C471 C480 1.429 . S
C472 C470 1.419 . S
C472 C473 1.363 . S
C472 H475 0.929 . S
C473 C472 1.363 . S
C473 C479 1.428 . S
H474 C470 0.930 . S
H475 C472 0.929 . S
S476 N477 1.613 . S
S476 N478 1.610 . S
N477 S476 1.613 . S
N477 C480 1.350 . S
N478 S476 1.610 . S
N478 C479 1.351 . S
C479 C473 1.428 . S
C479 N478 1.351 . S
C479 C480 1.434 . S
C480 C471 1.429 . S
C480 N477 1.350 . S
C480 C479 1.434 . S
C481 C482 1.369 . S
C481 C483 1.419 . S
C481 H485 0.930 . S
C482 C481 1.369 . S
C482 C491 1.429 . S
C483 C481 1.419 . S
C483 C484 1.363 . S
C483 H486 0.929 . S
C484 C483 1.363 . S
C484 C490 1.428 . S
H485 C481 0.930 . S
H486 C483 0.929 . S
S487 N488 1.613 . S
S487 N489 1.610 . S
N488 S487 1.613 . S
N488 C491 1.350 . S
N489 S487 1.610 . S
N489 C490 1.351 . S
C490 C484 1.428 . S
C490 N489 1.351 . S
C490 C491 1.434 . S
C491 C482 1.429 . S
C491 N488 1.350 . S
C491 C490 1.434 . S
C492 C493 1.369 1_455 S
C492 C494 1.419 . S
C492 H496 0.930 . S
C493 C492 1.369 1_655 S
C493 C502 1.429 . S
C494 C492 1.419 . S
C494 C495 1.363 . S
C494 H497 0.929 . S
C495 C494 1.363 . S
C495 C501 1.428 1_455 S
H496 C492 0.930 . S
H497 C494 0.929 . S
S498 N499 1.613 . S
S498 N500 1.610 . S
N499 S498 1.613 . S
N499 C502 1.350 . S
N500 S498 1.610 . S
N500 C501 1.351 . S
C501 C495 1.428 1_655 S
C501 N500 1.351 . S
C501 C502 1.434 . S
C502 C493 1.429 . S
C502 N499 1.350 . S
C502 C501 1.434 . S
C503 C504 1.369 . S
C503 C505 1.419 . S
C503 H507 0.930 . S
C504 C503 1.369 . S
C504 C513 1.429 . S
C505 C503 1.419 . S
C505 C506 1.363 . S
C505 H508 0.929 . S
C506 C505 1.363 . S
C506 C512 1.428 . S
H507 C503 0.930 . S
H508 C505 0.929 . S
S509 N510 1.613 . S
S509 N511 1.610 . S
N510 S509 1.613 . S
N510 C513 1.350 . S
N511 S509 1.610 . S
N511 C512 1.351 . S
C512 C506 1.428 . S
C512 N511 1.351 . S
C512 C513 1.434 . S
C513 C504 1.429 . S
C513 N510 1.350 . S
C513 C512 1.434 . S
C514 C515 1.369 . S
C514 C516 1.419 . S
C514 H518 0.930 . S
C515 C514 1.369 . S
C515 C524 1.429 1_556 S
C516 C514 1.419 . S
C516 C517 1.363 1_556 S
C516 H519 0.929 . S
C517 C516 1.363 1_554 S
C517 C523 1.428 . S
H518 C514 0.930 . S
H519 C516 0.929 . S
S520 N521 1.613 . S
S520 N522 1.610 . S
N521 S520 1.613 . S
N521 C524 1.350 . S
N522 S520 1.610 . S
N522 C523 1.351 . S
C523 C517 1.428 . S
C523 N522 1.351 . S
C523 C524 1.434 . S
C524 C515 1.429 1_554 S
C524 N521 1.350 . S
C524 C523 1.434 . S
C525 C526 1.369 . S
C525 C527 1.419 . S
C525 H529 0.930 . S
C526 C525 1.369 . S
C526 C535 1.429 . S
C527 C525 1.419 . S
C527 C528 1.363 . S
C527 H530 0.929 . S
C528 C527 1.363 . S
C528 C534 1.428 . S
H529 C525 0.930 . S
H530 C527 0.929 . S
S531 N532 1.613 . S
S531 N533 1.610 . S
N532 S531 1.613 . S
N532 C535 1.350 . S
N533 S531 1.610 . S
N533 C534 1.351 . S
C534 C528 1.428 . S
C534 N533 1.351 . S
C534 C535 1.434 . S
C535 C526 1.429 . S
C535 N532 1.350 . S
C535 C534 1.434 . S
C536 C537 1.369 . S
C536 C538 1.419 . S
C536 H540 0.930 . S
C537 C536 1.369 . S
C537 C546 1.429 . S
C538 C536 1.419 . S
C538 C539 1.363 . S
C538 H541 0.929 . S
C539 C538 1.363 . S
C539 C545 1.428 . S
H540 C536 0.930 . S
H541 C538 0.929 . S
S542 N543 1.613 . S
S542 N544 1.610 . S
N543 S542 1.613 . S
N543 C546 1.350 . S
N544 S542 1.610 . S
N544 C545 1.351 . S
C545 C539 1.428 . S
C545 N544 1.351 . S
C545 C546 1.434 . S
C546 C537 1.429 . S
C546 N543 1.350 . S
C546 C545 1.434 . S
C547 C548 1.369 . S
C547 C549 1.419 . S
C547 H551 0.930 . S
C548 C547 1.369 . S
C548 C557 1.429 . S
C549 C547 1.419 . S
C549 C550 1.363 . S
C549 H552 0.929 . S
C550 C549 1.363 . S
C550 C556 1.428 . S
H551 C547 0.930 . S
H552 C549 0.929 . S
S553 N554 1.613 . S
S553 N555 1.610 . S
N554 S553 1.613 . S
N554 C557 1.350 . S
N555 S553 1.610 . S
N555 C556 1.351 . S
C556 C550 1.428 . S
C556 N555 1.351 . S
C556 C557 1.434 . S
C557 C548 1.429 . S
C557 N554 1.350 . S
C557 C556 1.434 . S
C558 C559 1.369 . S
C558 C560 1.419 . S
C558 H562 0.930 . S
C559 C558 1.369 . S
C559 C568 1.429 . S
C560 C558 1.419 . S
C560 C561 1.363 . S
C560 H563 0.929 . S
C561 C560 1.363 . S
C561 C567 1.428 . S
H562 C558 0.930 . S
H563 C560 0.929 . S
S564 N565 1.613 . S
S564 N566 1.610 . S
N565 S564 1.613 . S
N565 C568 1.350 . S
N566 S564 1.610 . S
N566 C567 1.351 . S
C567 C561 1.428 . S
C567 N566 1.351 . S
C567 C568 1.434 . S
C568 C559 1.429 . S
C568 N565 1.350 . S
C568 C567 1.434 . S
C569 C570 1.369 . S
C569 C571 1.419 . S
C569 H573 0.930 . S
C570 C569 1.369 . S
C570 C579 1.429 . S
C571 C569 1.419 . S
C571 C572 1.363 . S
C571 H574 0.929 . S
C572 C571 1.363 . S
C572 C578 1.428 . S
H573 C569 0.930 . S
H574 C571 0.929 . S
S575 N576 1.613 . S
S575 N577 1.610 . S
N576 S575 1.613 . S
N576 C579 1.350 . S
N577 S575 1.610 . S
N577 C578 1.351 . S
C578 C572 1.428 . S
C578 N577 1.351 . S
C578 C579 1.434 . S
C579 C570 1.429 . S
C579 N576 1.350 . S
C579 C578 1.434 . S
C580 C581 1.369 1_545 S
C580 C582 1.419 . S
C580 H584 0.930 . S
C581 C580 1.369 1_565 S
C581 C590 1.429 . S
C582 C580 1.419 . S
C582 C583 1.363 . S
C582 H585 0.929 . S
C583 C582 1.363 . S
C583 C589 1.428 1_545 S
H584 C580 0.930 . S
H585 C582 0.929 . S
S586 N587 1.613 . S
S586 N588 1.610 . S
N587 S586 1.613 . S
N587 C590 1.350 . S
N588 S586 1.610 . S
N588 C589 1.351 . S
C589 C583 1.428 1_565 S
C589 N588 1.351 . S
C589 C590 1.434 . S
C590 C581 1.429 . S
C590 N587 1.350 . S
C590 C589 1.434 . S
C591 C592 1.369 1_655 S
C591 C593 1.419 1_565 S
C591 H595 0.930 . S
C592 C591 1.369 1_455 S
C592 C601 1.429 1_556 S
C593 C591 1.419 1_545 S
C593 C594 1.363 1_556 S
C593 H596 0.929 . S
C594 C593 1.363 1_554 S
C594 C600 1.428 1_655 S
H595 C591 0.930 . S
H596 C593 0.929 . S
S597 N598 1.613 . S
S597 N599 1.610 1_565 S
N598 S597 1.613 . S
N598 C601 1.350 . S
N599 S597 1.610 1_545 S
N599 C600 1.351 . S
C600 C594 1.428 1_455 S
C600 N599 1.351 . S
C600 C601 1.434 1_545 S
C601 C592 1.429 1_554 S
C601 N598 1.350 . S
C601 C600 1.434 1_565 S
C602 C603 1.369 1_565 S
C602 C604 1.419 . S
C602 H606 0.930 . S
C603 C602 1.369 1_545 S
C603 C612 1.429 1_556 S
C604 C602 1.419 . S
C604 C605 1.363 1_556 S
C604 H607 0.929 . S
C605 C604 1.363 1_554 S
C605 C611 1.428 1_565 S
H606 C602 0.930 . S
H607 C604 0.929 . S
S608 N609 1.613 . S
S608 N610 1.610 . S
N609 S608 1.613 . S
N609 C612 1.350 . S
N610 S608 1.610 . S
N610 C611 1.351 . S
C611 C605 1.428 1_545 S
C611 N610 1.351 . S
C611 C612 1.434 . S
C612 C603 1.429 1_554 S
C612 N609 1.350 . S
C612 C611 1.434 . S
C613 C614 1.369 1_655 S
C613 C615 1.419 . S
C613 H617 0.930 . S
C614 C613 1.369 1_455 S
C614 C623 1.429 1_545 S
C615 C613 1.419 . S
C615 C616 1.363 1_545 S
C615 H618 0.929 . S
C616 C615 1.363 1_565 S
C616 C622 1.428 1_655 S
H617 C613 0.930 . S
H618 C615 0.929 . S
S619 N620 1.613 . S
S619 N621 1.610 . S
N620 S619 1.613 . S
N620 C623 1.350 . S
N621 S619 1.610 . S
N621 C622 1.351 . S
C622 C616 1.428 1_455 S
C622 N621 1.351 . S
C622 C623 1.434 . S
C623 C614 1.429 1_565 S
C623 N620 1.350 . S
C623 C622 1.434 . S
C624 C625 1.369 1_455 S
C624 C626 1.419 . S
C624 H628 0.930 . S
C625 C624 1.369 1_655 S
C625 C634 1.429 . S
C626 C624 1.419 . S
C626 C627 1.363 . S
C626 H629 0.929 . S
C627 C626 1.363 . S
C627 C633 1.428 1_455 S
H628 C624 0.930 . S
H629 C626 0.929 . S
S630 N631 1.613 1_556 S
S630 N632 1.610 1_556 S
N631 S630 1.613 1_554 S
N631 C634 1.350 . S
N632 S630 1.610 1_554 S
N632 C633 1.351 . S
C633 C627 1.428 1_655 S
C633 N632 1.351 . S
C633 C634 1.434 . S
C634 C625 1.429 . S
C634 N631 1.350 . S
C634 C633 1.434 . S
C635 C636 1.369 . S
C635 C637 1.419 1_455 S
C635 H639 0.930 . S
C636 C635 1.369 . S
C636 C645 1.429 . S
C637 C635 1.419 1_655 S
C637 C638 1.363 . S
C637 H640 0.929 . S
C638 C637 1.363 . S
C638 C644 1.428 . S
H639 C635 0.930 . S
H640 C637 0.929 . S
S641 N642 1.613 . S
S641 N643 1.610 1_455 S
N642 S641 1.613 . S
N642 C645 1.350 . S
N643 S641 1.610 1_655 S
N643 C644 1.351 . S
C644 C638 1.428 . S
C644 N643 1.351 . S
C644 C645 1.434 1_655 S
C645 C636 1.429 . S
C645 N642 1.350 . S
C645 C644 1.434 1_455 S
C646 C647 1.369 . S
C646 C648 1.419 . S
C646 H650 0.930 . S
C647 C646 1.369 . S
C647 C656 1.429 . S
C648 C646 1.419 . S
C648 C649 1.363 . S
C648 H651 0.929 . S
C649 C648 1.363 . S
C649 C655 1.428 . S
H650 C646 0.930 . S
H651 C648 0.929 . S
S652 N653 1.613 . S
S652 N654 1.610 . S
N653 S652 1.613 . S
N653 C656 1.350 . S
N654 S652 1.610 . S
N654 C655 1.351 . S
C655 C649 1.428 . S
C655 N654 1.351 . S
C655 C656 1.434 . S
C656 C647 1.429 . S
C656 N653 1.350 . S
C656 C655 1.434 . S
C657 C658 1.369 . S
C657 C659 1.419 . S
C657 H661 0.930 . S
C658 C657 1.369 . S
C658 C667 1.429 . S
C659 C657 1.419 . S
C659 C660 1.363 . S
C659 H662 0.929 . S
C660 C659 1.363 . S
C660 C666 1.428 . S
H661 C657 0.930 . S
H662 C659 0.929 . S
S663 N664 1.613 . S
S663 N665 1.610 . S
N664 S663 1.613 . S
N664 C667 1.350 . S
N665 S663 1.610 . S
N665 C666 1.351 . S
C666 C660 1.428 . S
C666 N665 1.351 . S
C666 C667 1.434 . S
C667 C658 1.429 . S
C667 N664 1.350 . S
C667 C666 1.434 . S
C668 C669 1.369 . S
C668 C670 1.419 . S
C668 H672 0.930 . S
C669 C668 1.369 . S
C669 C678 1.429 1_655 S
C670 C668 1.419 . S
C670 C671 1.363 1_655 S
C670 H673 0.929 . S
C671 C670 1.363 1_455 S
C671 C677 1.428 . S
H672 C668 0.930 . S
H673 C670 0.929 . S
S674 N675 1.613 . S
S674 N676 1.610 . S
N675 S674 1.613 . S
N675 C678 1.350 . S
N676 S674 1.610 . S
N676 C677 1.351 . S
C677 C671 1.428 . S
C677 N676 1.351 . S
C677 C678 1.434 . S
C678 C669 1.429 1_455 S
C678 N675 1.350 . S
C678 C677 1.434 . S
C679 C680 1.369 . S
C679 C681 1.419 . S
C679 H683 0.930 . S
C680 C679 1.369 . S
C680 C689 1.429 . S
C681 C679 1.419 . S
C681 C682 1.363 . S
C681 H684 0.929 . S
C682 C681 1.363 . S
C682 C688 1.428 . S
H683 C679 0.930 . S
H684 C681 0.929 . S
S685 N686 1.613 . S
S685 N687 1.610 . S
N686 S685 1.613 . S
N686 C689 1.350 . S
N687 S685 1.610 . S
N687 C688 1.351 . S
C688 C682 1.428 . S
C688 N687 1.351 . S
C688 C689 1.434 . S
C689 C680 1.429 . S
C689 N686 1.350 . S
C689 C688 1.434 . S
C690 C691 1.369 . S
C690 C692 1.419 . S
C690 H694 0.930 . S
C691 C690 1.369 . S
C691 C700 1.429 . S
C692 C690 1.419 . S
C692 C693 1.363 . S
C692 H695 0.929 . S
C693 C692 1.363 . S
C693 C699 1.428 . S
H694 C690 0.930 . S
H695 C692 0.929 . S
S696 N697 1.613 . S
S696 N698 1.610 . S
N697 S696 1.613 . S
N697 C700 1.350 . S
N698 S696 1.610 . S
N698 C699 1.351 . S
C699 C693 1.428 . S
C699 N698 1.351 . S
C699 C700 1.434 . S
C700 C691 1.429 . S
C700 N697 1.350 . S
C700 C699 1.434 . S
C701 C702 1.369 . S
C701 C703 1.419 1_455 S
C701 H705 0.930 . S
C702 C701 1.369 . S
C702 C711 1.429 . S
C703 C701 1.419 1_655 S
C703 C704 1.363 . S
C703 H706 0.929 . S
C704 C703 1.363 . S
C704 C710 1.428 . S
H705 C701 0.930 . S
H706 C703 0.929 . S
S707 N708 1.613 . S
S707 N709 1.610 1_455 S
N708 S707 1.613 . S
N708 C711 1.350 . S
N709 S707 1.610 1_655 S
N709 C710 1.351 . S
C710 C704 1.428 . S
C710 N709 1.351 . S
C710 C711 1.434 1_655 S
C711 C702 1.429 . S
C711 N708 1.350 . S
C711 C710 1.434 1_455 S
C712 C713 1.369 1_455 S
C712 C714 1.419 . S
C712 H716 0.930 . S
C713 C712 1.369 1_655 S
C713 C722 1.429 . S
C714 C712 1.419 . S
C714 C715 1.363 . S
C714 H717 0.929 . S
C715 C714 1.363 . S
C715 C721 1.428 1_455 S
H716 C712 0.930 . S
H717 C714 0.929 . S
S718 N719 1.613 . S
S718 N720 1.610 . S
N719 S718 1.613 . S
N719 C722 1.350 . S
N720 S718 1.610 . S
N720 C721 1.351 . S
C721 C715 1.428 1_655 S
C721 N720 1.351 . S
C721 C722 1.434 . S
C722 C713 1.429 . S
C722 N719 1.350 . S
C722 C721 1.434 . S
C723 C724 1.369 . S
C723 C725 1.419 1_655 S
C723 H727 0.930 . S
C724 C723 1.369 . S
C724 C733 1.429 . S
C725 C723 1.419 1_455 S
C725 C726 1.363 . S
C725 H728 0.929 . S
C726 C725 1.363 . S
C726 C732 1.428 . S
H727 C723 0.930 . S
H728 C725 0.929 . S
S729 N730 1.613 1_455 S
S729 N731 1.610 . S
N730 S729 1.613 1_655 S
N730 C733 1.350 . S
N731 S729 1.610 . S
N731 C732 1.351 . S
C732 C726 1.428 . S
C732 N731 1.351 . S
C732 C733 1.434 1_455 S
C733 C724 1.429 . S
C733 N730 1.350 . S
C733 C732 1.434 1_655 S
C734 C735 1.369 . S
C734 C736 1.419 . S
C734 H738 0.930 . S
C735 C734 1.369 . S
C735 C744 1.429 . S
C736 C734 1.419 . S
C736 C737 1.363 . S
C736 H739 0.929 . S
C737 C736 1.363 . S
C737 C743 1.428 . S
H738 C734 0.930 . S
H739 C736 0.929 . S
S740 N741 1.613 . S
S740 N742 1.610 . S
N741 S740 1.613 . S
N741 C744 1.350 . S
N742 S740 1.610 . S
N742 C743 1.351 . S
C743 C737 1.428 . S
C743 N742 1.351 . S
C743 C744 1.434 . S
C744 C735 1.429 . S
C744 N741 1.350 . S
C744 C743 1.434 . S
C745 C746 1.369 . S
C745 C747 1.419 . S
C745 H749 0.930 . S
C746 C745 1.369 . S
C746 C755 1.429 . S
C747 C745 1.419 . S
C747 C748 1.363 . S
C747 H750 0.929 . S
C748 C747 1.363 . S
C748 C754 1.428 . S
H749 C745 0.930 . S
H750 C747 0.929 . S
S751 N752 1.613 . S
S751 N753 1.610 . S
N752 S751 1.613 . S
N752 C755 1.350 . S
N753 S751 1.610 . S
N753 C754 1.351 . S
C754 C748 1.428 . S
C754 N753 1.351 . S
C754 C755 1.434 . S
C755 C746 1.429 . S
C755 N752 1.350 . S
C755 C754 1.434 . S
C756 C757 1.369 1_455 S
C756 C758 1.419 . S
C756 H760 0.930 . S
C757 C756 1.369 1_655 S
C757 C766 1.429 . S
C758 C756 1.419 . S
C758 C759 1.363 . S
C758 H761 0.929 . S
C759 C758 1.363 . S
C759 C765 1.428 1_455 S
H760 C756 0.930 . S
H761 C758 0.929 . S
S762 N763 1.613 . S
S762 N764 1.610 . S
N763 S762 1.613 . S
N763 C766 1.350 . S
N764 S762 1.610 . S
N764 C765 1.351 . S
C765 C759 1.428 1_655 S
C765 N764 1.351 . S
C765 C766 1.434 . S
C766 C757 1.429 . S
C766 N763 1.350 . S
C766 C765 1.434 . S
C767 C768 1.369 . S
C767 C769 1.419 . S
C767 H771 0.930 . S
C768 C767 1.369 . S
C768 C777 1.429 . S
C769 C767 1.419 . S
C769 C770 1.363 . S
C769 H772 0.929 . S
C770 C769 1.363 . S
C770 C776 1.428 . S
H771 C767 0.930 . S
H772 C769 0.929 . S
S773 N774 1.613 . S
S773 N775 1.610 . S
N774 S773 1.613 . S
N774 C777 1.350 . S
N775 S773 1.610 . S
N775 C776 1.351 . S
C776 C770 1.428 . S
C776 N775 1.351 . S
C776 C777 1.434 . S
C777 C768 1.429 . S
C777 N774 1.350 . S
C777 C776 1.434 . S
C778 C779 1.369 . S
C778 C780 1.419 . S
C778 H782 0.930 . S
C779 C778 1.369 . S
C779 C788 1.429 . S
C780 C778 1.419 . S
C780 C781 1.363 . S
C780 H783 0.929 . S
C781 C780 1.363 . S
C781 C787 1.428 . S
H782 C778 0.930 . S
H783 C780 0.929 . S
S784 N785 1.613 . S
S784 N786 1.610 . S
N785 S784 1.613 . S
N785 C788 1.350 . S
N786 S784 1.610 . S
N786 C787 1.351 . S
C787 C781 1.428 . S
C787 N786 1.351 . S
C787 C788 1.434 . S
C788 C779 1.429 . S
C788 N785 1.350 . S
C788 C787 1.434 . S
C789 C790 1.369 . S
C789 C791 1.419 1_655 S
C789 H793 0.930 . S
C790 C789 1.369 . S
C790 C799 1.429 . S
C791 C789 1.419 1_455 S
C791 C792 1.363 . S
C791 H794 0.929 . S
C792 C791 1.363 . S
C792 C798 1.428 . S
H793 C789 0.930 . S
H794 C791 0.929 . S
S795 N796 1.613 1_455 S
S795 N797 1.610 . S
N796 S795 1.613 1_655 S
N796 C799 1.350 . S
N797 S795 1.610 . S
N797 C798 1.351 . S
C798 C792 1.428 . S
C798 N797 1.351 . S
C798 C799 1.434 1_455 S
C799 C790 1.429 . S
C799 N796 1.350 . S
C799 C798 1.434 1_655 S
C800 C801 1.369 . S
C800 C802 1.419 1_556 S
C800 H804 0.930 . S
C801 C800 1.369 . S
C801 C810 1.429 . S
C802 C800 1.419 1_554 S
C802 C803 1.363 . S
C802 H805 0.929 . S
C803 C802 1.363 . S
C803 C809 1.428 . S
H804 C800 0.930 . S
H805 C802 0.929 . S
S806 N807 1.613 1_554 S
S806 N808 1.610 . S
N807 S806 1.613 1_556 S
N807 C810 1.350 . S
N808 S806 1.610 . S
N808 C809 1.351 . S
C809 C803 1.428 . S
C809 N808 1.351 . S
C809 C810 1.434 1_554 S
C810 C801 1.429 . S
C810 N807 1.350 . S
C810 C809 1.434 1_556 S
C811 C812 1.369 . S
C811 C813 1.419 1_545 S
C811 H815 0.930 . S
C812 C811 1.369 . S
C812 C821 1.422 1_545 S
C813 C811 1.419 1_565 S
C813 C814 1.363 . S
C813 H816 0.929 . S
C814 C813 1.363 . S
C814 C820 1.428 . S
H815 C811 0.930 . S
H816 C813 0.929 . S
S817 N818 1.613 . S
S817 N819 1.610 . S
N818 S817 1.613 . S
N818 C821 1.351 . S
N819 S817 1.610 . S
N819 C820 1.351 . S
C820 C814 1.428 . S
C820 N819 1.351 . S
C820 C821 1.441 . S
C821 C812 1.422 1_565 S
C821 N818 1.351 . S
C821 C820 1.441 . S
C822 C823 1.369 . S
C822 C824 1.419 . S
C822 H826 0.930 . S
C823 C822 1.369 . S
C823 C832 1.429 . S
C824 C822 1.419 . S
C824 C825 1.363 . S
C824 H827 0.929 . S
C825 C824 1.363 . S
C825 C831 1.428 . S
H826 C822 0.930 . S
H827 C824 0.929 . S
S828 N829 1.613 . S
S828 N830 1.610 . S
N829 S828 1.613 . S
N829 C832 1.350 . S
N830 S828 1.610 . S
N830 C831 1.351 . S
C831 C825 1.428 . S
C831 N830 1.351 . S
C831 C832 1.434 . S
C832 C823 1.429 . S
C832 N829 1.350 . S
C832 C831 1.434 . S
C833 C834 1.369 . S
C833 C835 1.419 1_545 S
C833 H837 0.930 . S
C834 C833 1.369 . S
C834 C843 1.448 . S
C835 C833 1.419 1_565 S
C835 C836 1.363 . S
C835 H838 0.929 . S
C836 C835 1.363 . S
C836 C842 1.428 . S
H837 C833 0.930 . S
H838 C835 0.929 . S
S839 N840 1.613 . S
S839 N841 1.610 . S
N840 S839 1.613 . S
N840 C843 1.348 1_565 S
N841 S839 1.610 . S
N841 C842 1.351 . S
C842 C836 1.428 . S
C842 N841 1.351 . S
C842 C843 1.415 1_565 S
C843 C834 1.448 . S
C843 N840 1.348 1_545 S
C843 C842 1.415 1_545 S
C844 C845 1.369 . S
C844 C846 1.419 1_554 S
C844 H848 0.930 . S
C845 C844 1.369 . S
C845 C854 1.429 . S
C846 C844 1.419 1_556 S
C846 C847 1.363 . S
C846 H849 0.929 . S
C847 C846 1.363 . S
C847 C853 1.428 . S
H848 C844 0.930 . S
H849 C846 0.929 . S
S850 N851 1.613 1_556 S
S850 N852 1.610 . S
N851 S850 1.613 1_554 S
N851 C854 1.350 . S
N852 S850 1.610 . S
N852 C853 1.351 . S
C853 C847 1.428 . S
C853 N852 1.351 . S
C853 C854 1.434 1_556 S
C854 C845 1.429 . S
C854 N851 1.350 . S
C854 C853 1.434 1_554 S
C855 C856 1.369 . S
C855 C857 1.419 1_565 S
C855 H859 0.930 . S
C856 C855 1.369 . S
C856 C865 1.429 . S
C857 C855 1.419 1_545 S
C857 C858 1.363 . S
C857 H860 0.929 . S
C858 C857 1.363 . S
C858 C864 1.428 . S
H859 C855 0.930 . S
H860 C857 0.929 . S
S861 N862 1.613 . S
S861 N863 1.610 1_565 S
N862 S861 1.613 . S
N862 C865 1.350 . S
N863 S861 1.610 1_545 S
N863 C864 1.351 . S
C864 C858 1.428 . S
C864 N863 1.351 . S
C864 C865 1.434 1_545 S
C865 C856 1.429 . S
C865 N862 1.350 . S
C865 C864 1.434 1_565 S
C866 C867 1.369 . S
C866 C868 1.419 . S
C866 H870 0.930 . S
C867 C866 1.369 . S
C867 C876 1.429 . S
C868 C866 1.419 . S
C868 C869 1.363 . S
C868 H871 0.929 . S
C869 C868 1.363 . S
C869 C875 1.428 . S
H870 C866 0.930 . S
H871 C868 0.929 . S
S872 N873 1.613 . S
S872 N874 1.610 . S
N873 S872 1.613 . S
N873 C876 1.350 . S
N874 S872 1.610 . S
N874 C875 1.351 . S
C875 C869 1.428 . S
C875 N874 1.351 . S
C875 C876 1.434 . S
C876 C867 1.429 . S
C876 N873 1.350 . S
C876 C875 1.434 . S
C877 C878 1.369 . S
C877 C879 1.419 1_545 S
C877 H881 0.930 . S
C878 C877 1.369 . S
C878 C887 1.429 . S
C879 C877 1.419 1_565 S
C879 C880 1.363 . S
C879 H882 0.929 . S
C880 C879 1.363 . S
C880 C886 1.428 . S
H881 C877 0.930 . S
H882 C879 0.929 . S
S883 N884 1.613 1_565 S
S883 N885 1.610 . S
N884 S883 1.613 1_545 S
N884 C887 1.350 . S
N885 S883 1.610 . S
N885 C886 1.351 . S
C886 C880 1.428 . S
C886 N885 1.351 . S
C886 C887 1.434 1_565 S
C887 C878 1.429 . S
C887 N884 1.350 . S
C887 C886 1.434 1_545 S
C888 C889 1.369 . S
C888 C890 1.419 . S
C888 H892 0.930 . S
C889 C888 1.369 . S
C889 C898 1.429 . S
C890 C888 1.419 . S
C890 C891 1.363 . S
C890 H893 0.929 . S
C891 C890 1.363 . S
C891 C897 1.428 . S
H892 C888 0.930 . S
H893 C890 0.929 . S
S894 N895 1.613 . S
S894 N896 1.610 . S
N895 S894 1.613 . S
N895 C898 1.350 . S
N896 S894 1.610 . S
N896 C897 1.351 . S
C897 C891 1.428 . S
C897 N896 1.351 . S
C897 C898 1.434 . S
C898 C889 1.429 . S
C898 N895 1.350 . S
C898 C897 1.434 . S
C899 C900 1.369 . S
C899 C901 1.419 . S
C899 H903 0.930 . S
C900 C899 1.369 . S
C900 C909 1.429 . S
C901 C899 1.419 . S
C901 C902 1.363 . S
C901 H904 0.929 . S
C902 C901 1.363 . S
C902 C908 1.428 . S
H903 C899 0.930 . S
H904 C901 0.929 . S
S905 N906 1.613 . S
S905 N907 1.610 . S
N906 S905 1.613 . S
N906 C909 1.350 . S
N907 S905 1.610 . S
N907 C908 1.351 . S
C908 C902 1.428 . S
C908 N907 1.351 . S
C908 C909 1.434 . S
C909 C900 1.429 . S
C909 N906 1.350 . S
C909 C908 1.434 . S
C910 C911 1.369 1_556 S
C910 C912 1.419 . S
C910 H914 0.930 . S
C911 C910 1.369 1_554 S
C911 C920 1.429 . S
C912 C910 1.419 . S
C912 C913 1.363 . S
C912 H915 0.929 . S
C913 C912 1.363 . S
C913 C919 1.428 1_556 S
H914 C910 0.930 . S
H915 C912 0.929 . S
S916 N917 1.613 . S
S916 N918 1.610 . S
N917 S916 1.613 . S
N917 C920 1.350 . S
N918 S916 1.610 . S
N918 C919 1.351 . S
C919 C913 1.428 1_554 S
C919 N918 1.351 . S
C919 C920 1.434 . S
C920 C911 1.429 . S
C920 N917 1.350 . S
C920 C919 1.434 . S
C921 C922 1.369 . S
C921 C923 1.419 . S
C921 H925 0.930 . S
C922 C921 1.369 . S
C922 C931 1.429 . S
C923 C921 1.419 . S
C923 C924 1.363 . S
C923 H926 0.929 . S
C924 C923 1.363 . S
C924 C930 1.428 . S
H925 C921 0.930 . S
H926 C923 0.929 . S
S927 N928 1.613 . S
S927 N929 1.610 . S
N928 S927 1.613 . S
N928 C931 1.350 . S
N929 S927 1.610 . S
N929 C930 1.351 . S
C930 C924 1.428 . S
C930 N929 1.351 . S
C930 C931 1.434 . S
C931 C922 1.429 . S
C931 N928 1.350 . S
C931 C930 1.434 . S
C932 C933 1.369 . S
C932 C934 1.419 . S
C932 H936 0.930 . S
C933 C932 1.369 . S
C933 C942 1.429 . S
C934 C932 1.419 . S
C934 C935 1.363 . S
C934 H937 0.929 . S
C935 C934 1.363 . S
C935 C941 1.428 . S
H936 C932 0.930 . S
H937 C934 0.929 . S
S938 N939 1.613 . S
S938 N940 1.610 . S
N939 S938 1.613 . S
N939 C942 1.350 . S
N940 S938 1.610 . S
N940 C941 1.351 . S
C941 C935 1.428 . S
C941 N940 1.351 . S
C941 C942 1.434 . S
C942 C933 1.429 . S
C942 N939 1.350 . S
C942 C941 1.434 . S
C943 C944 1.369 . S
C943 C945 1.419 . S
C943 H947 0.930 . S
C944 C943 1.369 . S
C944 C953 1.429 . S
C945 C943 1.419 . S
C945 C946 1.363 . S
C945 H948 0.929 . S
C946 C945 1.363 . S
C946 C952 1.428 . S
H947 C943 0.930 . S
H948 C945 0.929 . S
S949 N950 1.613 . S
S949 N951 1.610 . S
N950 S949 1.613 . S
N950 C953 1.350 . S
N951 S949 1.610 . S
N951 C952 1.351 . S
C952 C946 1.428 . S
C952 N951 1.351 . S
C952 C953 1.434 . S
C953 C944 1.429 . S
C953 N950 1.350 . S
C953 C952 1.434 . S
C954 C955 1.369 1_554 S
C954 C956 1.419 . S
C954 H958 0.930 . S
C955 C954 1.369 1_556 S
C955 C964 1.429 . S
C956 C954 1.419 . S
C956 C957 1.363 . S
C956 H959 0.929 . S
C957 C956 1.363 . S
C957 C963 1.428 1_554 S
H958 C954 0.930 . S
H959 C956 0.929 . S
S960 N961 1.613 . S
S960 N962 1.610 . S
N961 S960 1.613 . S
N961 C964 1.350 . S
N962 S960 1.610 . S
N962 C963 1.351 . S
C963 C957 1.428 1_556 S
C963 N962 1.351 . S
C963 C964 1.434 . S
C964 C955 1.429 . S
C964 N961 1.350 . S
C964 C963 1.434 . S
C965 C966 1.369 . S
C965 C967 1.419 . S
C965 H969 0.930 . S
C966 C965 1.369 . S
C966 C975 1.429 . S
C967 C965 1.419 . S
C967 C968 1.363 . S
C967 H970 0.929 . S
C968 C967 1.363 . S
C968 C974 1.428 . S
H969 C965 0.930 . S
H970 C967 0.929 . S
S971 N972 1.613 . S
S971 N973 1.610 . S
N972 S971 1.613 . S
N972 C975 1.350 . S
N973 S971 1.610 . S
N973 C974 1.351 . S
C974 C968 1.428 . S
C974 N973 1.351 . S
C974 C975 1.434 . S
C975 C966 1.429 . S
C975 N972 1.350 . S
C975 C974 1.434 . S
C976 C977 1.369 . S
C976 C978 1.419 . S
C976 H980 0.930 . S
C977 C976 1.369 . S
C977 C986 1.429 . S
C978 C976 1.419 . S
C978 C979 1.363 . S
C978 H981 0.929 . S
C979 C978 1.363 . S
C979 C985 1.428 . S
H980 C976 0.930 . S
H981 C978 0.929 . S
S982 N983 1.613 . S
S982 N984 1.610 . S
N983 S982 1.613 . S
N983 C986 1.350 . S
N984 S982 1.610 . S
N984 C985 1.351 . S
C985 C979 1.428 . S
C985 N984 1.351 . S
C985 C986 1.434 . S
C986 C977 1.429 . S
C986 N983 1.350 . S
C986 C985 1.434 . S
C987 C988 1.369 . S
C987 C989 1.419 . S
C987 H991 0.930 . S
C988 C987 1.369 . S
C988 C997 1.429 . S
C989 C987 1.419 . S
C989 C990 1.363 . S
C989 H992 0.929 . S
C990 C989 1.363 . S
C990 C996 1.428 . S
H991 C987 0.930 . S
H992 C989 0.929 . S
S993 N994 1.613 . S
S993 N995 1.610 . S
N994 S993 1.613 . S
N994 C997 1.350 . S
N995 S993 1.610 . S
N995 C996 1.351 . S
C996 C990 1.428 . S
C996 N995 1.351 . S
C996 C997 1.434 . S
C997 C988 1.429 . S
C997 N994 1.350 . S
C997 C996 1.434 . S
C998 C999 1.369 . S
C998 C1000 1.419 . S
C998 H1002 0.930 . S
C999 C998 1.369 . S
C999 C1008 1.429 . S
C1000 C998 1.419 . S
C1000 C1001 1.363 . S
C1000 H1003 0.929 . S
C1001 C1000 1.363 . S
C1001 C1007 1.428 . S
H1002 C998 0.930 . S
H1003 C1000 0.929 . S
S1004 N1005 1.613 . S
S1004 N1006 1.610 . S
N1005 S1004 1.613 . S
N1005 C1008 1.350 . S
N1006 S1004 1.610 . S
N1006 C1007 1.351 . S
C1007 C1001 1.428 . S
C1007 N1006 1.351 . S
C1007 C1008 1.434 . S
C1008 C999 1.429 . S
C1008 N1005 1.350 . S
C1008 C1007 1.434 . S
C1009 C1010 1.369 . S
C1009 C1011 1.419 . S
C1009 H1013 0.930 . S
C1010 C1009 1.369 . S
C1010 C1019 1.429 . S
C1011 C1009 1.419 . S
C1011 C1012 1.363 . S
C1011 H1014 0.929 . S
C1012 C1011 1.363 . S
C1012 C1018 1.428 . S
H1013 C1009 0.930 . S
H1014 C1011 0.929 . S
S1015 N1016 1.613 . S
S1015 N1017 1.610 . S
N1016 S1015 1.613 . S
N1016 C1019 1.350 . S
N1017 S1015 1.610 . S
N1017 C1018 1.351 . S
C1018 C1012 1.428 . S
C1018 N1017 1.351 . S
C1018 C1019 1.434 . S
C1019 C1010 1.429 . S
C1019 N1016 1.350 . S
C1019 C1018 1.434 . S
C1020 C1021 1.369 . S
C1020 C1022 1.419 . S
C1020 H1024 0.930 . S
C1021 C1020 1.369 . S
C1021 C1030 1.429 . S
C1022 C1020 1.419 . S
C1022 C1023 1.363 . S
C1022 H1025 0.929 . S
C1023 C1022 1.363 . S
C1023 C1029 1.428 . S
H1024 C1020 0.930 . S
H1025 C1022 0.929 . S
S1026 N1027 1.613 . S
S1026 N1028 1.610 . S
N1027 S1026 1.613 . S
N1027 C1030 1.350 . S
N1028 S1026 1.610 . S
N1028 C1029 1.351 . S
C1029 C1023 1.428 . S
C1029 N1028 1.351 . S
C1029 C1030 1.434 . S
C1030 C1021 1.429 . S
C1030 N1027 1.350 . S
C1030 C1029 1.434 . S
C1031 C1032 1.369 . S
C1031 C1033 1.419 . S
C1031 H1035 0.930 . S
C1032 C1031 1.369 . S
C1032 C1041 1.429 . S
C1033 C1031 1.419 . S
C1033 C1034 1.363 . S
C1033 H1036 0.929 . S
C1034 C1033 1.363 . S
C1034 C1040 1.428 . S
H1035 C1031 0.930 . S
H1036 C1033 0.929 . S
S1037 N1038 1.613 . S
S1037 N1039 1.610 . S
N1038 S1037 1.613 . S
N1038 C1041 1.350 . S
N1039 S1037 1.610 . S
N1039 C1040 1.351 . S
C1040 C1034 1.428 . S
C1040 N1039 1.351 . S
C1040 C1041 1.434 . S
C1041 C1032 1.429 . S
C1041 N1038 1.350 . S
C1041 C1040 1.434 . S
C1042 C1043 1.369 . S
C1042 C1044 1.419 . S
C1042 H1046 0.930 . S
C1043 C1042 1.369 . S
C1043 C1052 1.429 . S
C1044 C1042 1.419 . S
C1044 C1045 1.363 . S
C1044 H1047 0.929 . S
C1045 C1044 1.363 . S
C1045 C1051 1.428 . S
H1046 C1042 0.930 . S
H1047 C1044 0.929 . S
S1048 N1049 1.613 . S
S1048 N1050 1.610 . S
N1049 S1048 1.613 . S
N1049 C1052 1.350 . S
N1050 S1048 1.610 . S
N1050 C1051 1.351 . S
C1051 C1045 1.428 . S
C1051 N1050 1.351 . S
C1051 C1052 1.434 . S
C1052 C1043 1.429 . S
C1052 N1049 1.350 . S
C1052 C1051 1.434 . S
C1053 C1054 1.369 . S
C1053 C1055 1.419 . S
C1053 H1057 0.930 . S
C1054 C1053 1.369 . S
C1054 C1063 1.429 . S
C1055 C1053 1.419 . S
C1055 C1056 1.363 . S
C1055 H1058 0.929 . S
C1056 C1055 1.363 . S
C1056 C1062 1.428 . S
H1057 C1053 0.930 . S
H1058 C1055 0.929 . S
S1059 N1060 1.613 . S
S1059 N1061 1.610 . S
N1060 S1059 1.613 . S
N1060 C1063 1.350 . S
N1061 S1059 1.610 . S
N1061 C1062 1.351 . S
C1062 C1056 1.428 . S
C1062 N1061 1.351 . S
C1062 C1063 1.434 . S
C1063 C1054 1.429 . S
C1063 N1060 1.350 . S
C1063 C1062 1.434 . S
C1064 C1065 1.369 . S
C1064 C1066 1.419 . S
C1064 H1068 0.930 . S
C1065 C1064 1.369 . S
C1065 C1074 1.429 . S
C1066 C1064 1.419 . S
C1066 C1067 1.363 . S
C1066 H1069 0.929 . S
C1067 C1066 1.363 . S
C1067 C1073 1.428 . S
H1068 C1064 0.930 . S
H1069 C1066 0.929 . S
S1070 N1071 1.613 . S
S1070 N1072 1.610 . S
N1071 S1070 1.613 . S
N1071 C1074 1.350 . S
N1072 S1070 1.610 . S
N1072 C1073 1.351 . S
C1073 C1067 1.428 . S
C1073 N1072 1.351 . S
C1073 C1074 1.434 . S
C1074 C1065 1.429 . S
C1074 N1071 1.350 . S
C1074 C1073 1.434 . S
C1075 C1076 1.369 . S
C1075 C1077 1.419 . S
C1075 H1079 0.930 . S
C1076 C1075 1.369 . S
C1076 C1085 1.429 . S
C1077 C1075 1.419 . S
C1077 C1078 1.363 . S
C1077 H1080 0.929 . S
C1078 C1077 1.363 . S
C1078 C1084 1.428 . S
H1079 C1075 0.930 . S
H1080 C1077 0.929 . S
S1081 N1082 1.613 . S
S1081 N1083 1.610 . S
N1082 S1081 1.613 . S
N1082 C1085 1.350 . S
N1083 S1081 1.610 . S
N1083 C1084 1.351 . S
C1084 C1078 1.428 . S
C1084 N1083 1.351 . S
C1084 C1085 1.434 . S
C1085 C1076 1.429 . S
C1085 N1082 1.350 . S
C1085 C1084 1.434 . S
C1086 C1087 1.369 . S
C1086 C1088 1.419 . S
C1086 H1090 0.930 . S
C1087 C1086 1.369 . S
C1087 C1096 1.429 . S
C1088 C1086 1.419 . S
C1088 C1089 1.363 . S
C1088 H1091 0.929 . S
C1089 C1088 1.363 . S
C1089 C1095 1.428 . S
H1090 C1086 0.930 . S
H1091 C1088 0.929 . S
S1092 N1093 1.613 . S
S1092 N1094 1.610 . S
N1093 S1092 1.613 . S
N1093 C1096 1.350 . S
N1094 S1092 1.610 . S
N1094 C1095 1.351 . S
C1095 C1089 1.428 . S
C1095 N1094 1.351 . S
C1095 C1096 1.434 . S
C1096 C1087 1.429 . S
C1096 N1093 1.350 . S
C1096 C1095 1.434 . S
C1097 C1098 1.369 . S
C1097 C1099 1.419 . S
C1097 H1101 0.930 . S
C1098 C1097 1.369 . S
C1098 C1107 1.429 . S
C1099 C1097 1.419 . S
C1099 C1100 1.363 . S
C1099 H1102 0.929 . S
C1100 C1099 1.363 . S
C1100 C1106 1.428 . S
H1101 C1097 0.930 . S
H1102 C1099 0.929 . S
S1103 N1104 1.613 . S
S1103 N1105 1.610 . S
N1104 S1103 1.613 . S
N1104 C1107 1.350 . S
N1105 S1103 1.610 . S
N1105 C1106 1.351 . S
C1106 C1100 1.428 . S
C1106 N1105 1.351 . S
C1106 C1107 1.434 . S
C1107 C1098 1.429 . S
C1107 N1104 1.350 . S
C1107 C1106 1.434 . S
C1108 C1109 1.369 . S
C1108 C1110 1.419 . S
C1108 H1112 0.930 . S
C1109 C1108 1.369 . S
C1109 C1118 1.429 . S
C1110 C1108 1.419 . S
C1110 C1111 1.363 . S
C1110 H1113 0.929 . S
C1111 C1110 1.363 . S
C1111 C1117 1.428 . S
H1112 C1108 0.930 . S
H1113 C1110 0.929 . S
S1114 N1115 1.613 . S
S1114 N1116 1.610 . S
N1115 S1114 1.613 . S
N1115 C1118 1.350 . S
N1116 S1114 1.610 . S
N1116 C1117 1.351 . S
C1117 C1111 1.428 . S
C1117 N1116 1.351 . S
C1117 C1118 1.434 . S
C1118 C1109 1.429 . S
C1118 N1115 1.350 . S
C1118 C1117 1.434 . S
C1119 C1120 1.369 . S
C1119 C1121 1.419 . S
C1119 H1123 0.930 . S
C1120 C1119 1.369 . S
C1120 C1129 1.429 . S
C1121 C1119 1.419 . S
C1121 C1122 1.363 . S
C1121 H1124 0.929 . S
C1122 C1121 1.363 . S
C1122 C1128 1.428 . S
H1123 C1119 0.930 . S
H1124 C1121 0.929 . S
S1125 N1126 1.613 . S
S1125 N1127 1.610 . S
N1126 S1125 1.613 . S
N1126 C1129 1.350 . S
N1127 S1125 1.610 . S
N1127 C1128 1.351 . S
C1128 C1122 1.428 . S
C1128 N1127 1.351 . S
C1128 C1129 1.434 . S
C1129 C1120 1.429 . S
C1129 N1126 1.350 . S
C1129 C1128 1.434 . S
C1130 C1131 1.369 . S
C1130 C1132 1.419 . S
C1130 H1134 0.930 . S
C1131 C1130 1.369 . S
C1131 C1140 1.429 . S
C1132 C1130 1.419 . S
C1132 C1133 1.363 . S
C1132 H1135 0.929 . S
C1133 C1132 1.363 . S
C1133 C1139 1.428 . S
H1134 C1130 0.930 . S
H1135 C1132 0.929 . S
S1136 N1137 1.613 . S
S1136 N1138 1.610 . S
N1137 S1136 1.613 . S
N1137 C1140 1.350 . S
N1138 S1136 1.610 . S
N1138 C1139 1.351 . S
C1139 C1133 1.428 . S
C1139 N1138 1.351 . S
C1139 C1140 1.434 . S
C1140 C1131 1.429 . S
C1140 N1137 1.350 . S
C1140 C1139 1.434 . S
C1141 C1142 1.369 . S
C1141 C1143 1.419 . S
C1141 H1145 0.930 . S
C1142 C1141 1.369 . S
C1142 C1151 1.429 . S
C1143 C1141 1.419 . S
C1143 C1144 1.363 . S
C1143 H1146 0.929 . S
C1144 C1143 1.363 . S
C1144 C1150 1.428 . S
H1145 C1141 0.930 . S
H1146 C1143 0.929 . S
S1147 N1148 1.613 . S
S1147 N1149 1.610 . S
N1148 S1147 1.613 . S
N1148 C1151 1.350 . S
N1149 S1147 1.610 . S
N1149 C1150 1.351 . S
C1150 C1144 1.428 . S
C1150 N1149 1.351 . S
C1150 C1151 1.434 . S
C1151 C1142 1.429 . S
C1151 N1148 1.350 . S
C1151 C1150 1.434 . S
C449 C121 1.574 . S
C451 C9 1.575 . S
C460 C359 1.573 . S
C462 C23 1.575 . S
C471 C149 1.575 . S
C473 C37 1.574 . S
C482 C387 1.574 . S
C484 C51 1.575 . S
C493 C177 1.574 . S
C495 C65 1.575 . S
C504 C79 1.575 . S
C506 C415 1.574 . S
C515 C93 1.573 . S
C517 C205 1.575 . S
C526 C107 1.575 . S
C528 C443 1.574 . S
C537 C247 1.573 . S
C539 C135 1.575 . S
C548 C275 1.574 . S
C550 C163 1.575 . S
C559 C191 1.573 . S
C561 C303 1.575 . S
C570 C219 1.573 . S
C572 C331 1.575 . S
C581 C233 1.573 . S
C583 C345 1.575 . S
C592 C373 1.573 . S
C594 C261 1.575 . S
C603 C289 1.573 . S
C605 C401 1.575 . S
C614 C429 1.574 . S
C616 C317 1.575 . S
C625 C257 1.606 . S
C627 C5 1.607 . S
C636 C271 1.608 . S
C638 C19 1.605 . S
C647 C33 1.607 . S
C649 C229 1.604 . S
C658 C47 1.608 . S
C660 C243 1.605 . S
C669 C313 1.607 . S
C671 C61 1.604 . S
C680 C75 1.605 . S
C682 C327 1.607 . S
C691 C285 1.607 . S
C693 C89 1.604 . S
C702 C299 1.608 . S
C704 C103 1.604 . S
C713 C117 1.604 . S
C715 C369 1.607 . S
C724 C383 1.605 . S
C726 C131 1.606 . S
C735 C145 1.607 . S
C737 C341 1.605 . S
C746 C159 1.608 . S
C748 C355 1.605 . S
C757 C173 1.604 . S
C759 C425 1.607 . S
C768 C187 1.607 . S
C770 C439 1.605 . S
C779 C397 1.608 . S
C781 C201 1.604 . S
C790 C411 1.604 . S
C792 C215 1.607 . S
C801 C95 1.463 . S
C803 C11 1.464 . S
C812 C109 1.464 . S
C814 C25 1.461 . S
C823 C67 1.464 . S
C825 C39 1.463 . S
C834 C53 1.464 . S
C836 C81 1.461 . S
C845 C207 1.464 . S
C847 C123 1.463 . S
C856 C221 1.463 . S
C858 C137 1.463 . S
C867 C179 1.462 . S
C869 C151 1.464 . S
C878 C193 1.464 . S
C880 C165 1.463 . S
C889 C319 1.462 . S
C891 C235 1.464 . S
C900 C333 1.460 . S
C902 C249 1.463 . S
C911 C263 1.464 . S
C913 C291 1.461 . S
C922 C277 1.460 . S
C924 C305 1.462 . S
C933 C431 1.460 . S
C935 C347 1.461 . S
C944 C445 1.460 . S
C946 C361 1.462 . S
C955 C375 1.461 . S
C957 C403 1.460 . S
C966 C389 1.463 . S
C968 C417 1.460 . S
C977 C0 1.435 . S
C979 C294 1.436 . S
C988 C308 1.433 . S
C990 C14 1.434 . S
C999 C322 1.437 . S
C1001 C28 1.436 . S
C1010 C42 1.436 . S
C1012 C280 1.434 . S
C1021 C266 1.437 . S
C1023 C56 1.436 . S
C1032 C70 1.434 . S
C1034 C224 1.433 . S
C1043 C238 1.434 . S
C1045 C84 1.433 . S
C1054 C98 1.435 . S
C1056 C252 1.434 . S
C1065 C406 1.437 . S
C1067 C112 1.435 . S
C1076 C420 1.433 . S
C1078 C126 1.433 . S
C1087 C140 1.436 . S
C1089 C434 1.436 . S
C1098 C392 1.433 . S
C1100 C154 1.433 . S
C1109 C378 1.433 . S
C1111 C168 1.434 . S
C1120 C182 1.436 . S
C1122 C336 1.436 . S
C1131 C350 1.437 . S
C1133 C196 1.435 . S
C1142 C210 1.437 . S
C1144 C364 1.435 . S
