# Generated by pormake.
# Topology uou, (4)-cn, num edge types: 1
# Building blocks:
#     Node 0, Type 0, BuildingBlock: GALJAG_clean_sbu_0, # of connection points: 4
#     Node 1, Type 0, BuildingBlock: GALJAG_clean_sbu_0, # of connection points: 4
#     Node 2, Type 0, BuildingBlock: GALJAG_clean_sbu_0, # of connection points: 4
#     Node 3, Type 0, BuildingBlock: GALJAG_clean_sbu_0, # of connection points: 4
#     Node 4, Type 0, BuildingBlock: GALJAG_clean_sbu_0, # of connection points: 4
#     Node 5, Type 0, BuildingBlock: GALJAG_clean_sbu_0, # of connection points: 4
#     Node 6, Type 0, BuildingBlock: GALJAG_clean_sbu_0, # of connection points: 4
#     Node 7, Type 0, BuildingBlock: GALJAG_clean_sbu_0, # of connection points: 4
#     Node 8, Type 0, BuildingBlock: GALJAG_clean_sbu_0, # of connection points: 4
#     Node 9, Type 0, BuildingBlock: GALJAG_clean_sbu_0, # of connection points: 4
#     Node 10, Type 0, BuildingBlock: GALJAG_clean_sbu_0, # of connection points: 4
#     Node 11, Type 0, BuildingBlock: GALJAG_clean_sbu_0, # of connection points: 4
#     Node 12, Type 0, BuildingBlock: GALJAG_clean_sbu_0, # of connection points: 4
#     Node 13, Type 0, BuildingBlock: GALJAG_clean_sbu_0, # of connection points: 4
#     Node 14, Type 0, BuildingBlock: GALJAG_clean_sbu_0, # of connection points: 4
#     Node 15, Type 0, BuildingBlock: GALJAG_clean_sbu_0, # of connection points: 4
#     Edge 16, Type (0, 0), BuildingBlock: AJUNOK_clean_linker_0, # of connection points: 2
#     Edge 17, Type (0, 0), BuildingBlock: AJUNOK_clean_linker_0, # of connection points: 2
#     Edge 18, Type (0, 0), BuildingBlock: AJUNOK_clean_linker_0, # of connection points: 2
#     Edge 19, Type (0, 0), BuildingBlock: AJUNOK_clean_linker_0, # of connection points: 2
#     Edge 20, Type (0, 0), BuildingBlock: AJUNOK_clean_linker_0, # of connection points: 2
#     Edge 21, Type (0, 0), BuildingBlock: AJUNOK_clean_linker_0, # of connection points: 2
#     Edge 22, Type (0, 0), BuildingBlock: AJUNOK_clean_linker_0, # of connection points: 2
#     Edge 23, Type (0, 0), BuildingBlock: AJUNOK_clean_linker_0, # of connection points: 2
#     Edge 24, Type (0, 0), BuildingBlock: AJUNOK_clean_linker_0, # of connection points: 2
#     Edge 25, Type (0, 0), BuildingBlock: AJUNOK_clean_linker_0, # of connection points: 2
#     Edge 26, Type (0, 0), BuildingBlock: AJUNOK_clean_linker_0, # of connection points: 2
#     Edge 27, Type (0, 0), BuildingBlock: AJUNOK_clean_linker_0, # of connection points: 2
#     Edge 28, Type (0, 0), BuildingBlock: AJUNOK_clean_linker_0, # of connection points: 2
#     Edge 29, Type (0, 0), BuildingBlock: AJUNOK_clean_linker_0, # of connection points: 2
#     Edge 30, Type (0, 0), BuildingBlock: AJUNOK_clean_linker_0, # of connection points: 2
#     Edge 31, Type (0, 0), BuildingBlock: AJUNOK_clean_linker_0, # of connection points: 2
#     Edge 32, Type (0, 0), BuildingBlock: AJUNOK_clean_linker_0, # of connection points: 2
#     Edge 33, Type (0, 0), BuildingBlock: AJUNOK_clean_linker_0, # of connection points: 2
#     Edge 34, Type (0, 0), BuildingBlock: AJUNOK_clean_linker_0, # of connection points: 2
#     Edge 35, Type (0, 0), BuildingBlock: AJUNOK_clean_linker_0, # of connection points: 2
#     Edge 36, Type (0, 0), BuildingBlock: AJUNOK_clean_linker_0, # of connection points: 2
#     Edge 37, Type (0, 0), BuildingBlock: AJUNOK_clean_linker_0, # of connection points: 2
#     Edge 38, Type (0, 0), BuildingBlock: AJUNOK_clean_linker_0, # of connection points: 2
#     Edge 39, Type (0, 0), BuildingBlock: AJUNOK_clean_linker_0, # of connection points: 2
#     Edge 40, Type (0, 0), BuildingBlock: AJUNOK_clean_linker_0, # of connection points: 2
#     Edge 41, Type (0, 0), BuildingBlock: AJUNOK_clean_linker_0, # of connection points: 2
#     Edge 42, Type (0, 0), BuildingBlock: AJUNOK_clean_linker_0, # of connection points: 2
#     Edge 43, Type (0, 0), BuildingBlock: AJUNOK_clean_linker_0, # of connection points: 2
#     Edge 44, Type (0, 0), BuildingBlock: AJUNOK_clean_linker_0, # of connection points: 2
#     Edge 45, Type (0, 0), BuildingBlock: AJUNOK_clean_linker_0, # of connection points: 2
#     Edge 46, Type (0, 0), BuildingBlock: AJUNOK_clean_linker_0, # of connection points: 2
#     Edge 47, Type (0, 0), BuildingBlock: AJUNOK_clean_linker_0, # of connection points: 2
# Relax obj value: 0.005
# Max RMSD: 0.017
# Mean RMSD: 0.017
data_MOF--net-uou--node1-GALJAG_clean_sbu_0--edge1-AJUNOK_clean_linker_0
_symmetry_space_group_name_H-M    P1
_symmetry_Int_Tables_number       1
_symmetry_cell_setting            triclinic
loop_
_symmetry_equiv_pos_as_xyz
'x, y, z'
_cell_length_a     26.361705
_cell_length_b     31.779801
_cell_length_c     40.01209
_cell_angle_alpha  89.999323
_cell_angle_beta   89.958247
_cell_angle_gamma 89.994436
loop_
_atom_site_label
_atom_site_type_symbol
_atom_site_fract_x
_atom_site_fract_y
_atom_site_fract_z
_atom_type_partial_charge
In0 In 0.05889 0.08756 0.11673 0.0
O1 O 0.14527 0.0898 0.11207 0.0
O2 O 0.11029 0.03054 0.12103 0.0
C3 C 0.03267 0.16935 0.10814 0.0
C4 C 0.02386 0.04859 0.06158 0.0
C5 C 0.03131 0.07679 0.18112 0.0
O6 O 0.07835 0.1573 0.10897 0.0
O7 O 0.0007 0.14012 0.11129 0.0
O8 O 0.00246 0.06724 0.1571 0.0
O9 O 0.07369 0.09171 0.17259 0.0
C10 C 0.15096 0.05061 0.11633 0.0
O11 O 0.00851 0.03947 0.09061 0.0
O12 O 0.05577 0.07814 0.06045 0.0
In13 In 0.43571 0.92387 0.11656 0.0
O14 O 0.3489 0.92371 0.11223 0.0
O15 O 0.38686 0.98202 0.12013 0.0
C16 C 0.46514 0.84287 0.10861 0.0
C17 C 0.47099 0.96159 0.06114 0.0
C18 C 0.46228 0.93497 0.18085 0.0
O19 O 0.41882 0.85326 0.11 0.0
O20 O 0.49562 0.87327 0.11077 0.0
O21 O 0.49075 0.94586 0.15696 0.0
O22 O 0.42076 0.91856 0.17224 0.0
C23 C 0.34525 0.96323 0.11583 0.0
O24 O 0.487 0.97061 0.09004 0.0
O25 O 0.43813 0.93269 0.06028 0.0
In26 In 0.55704 0.92476 0.38288 0.0
O27 O 0.5074 0.97272 0.4096 0.0
O28 O 0.55467 0.93344 0.43923 0.0
C29 C 0.52605 0.93574 0.31934 0.0
C30 C 0.64958 0.96096 0.38237 0.0
C31 C 0.53136 0.84274 0.39025 0.0
O32 O 0.49891 0.94586 0.34408 0.0
O33 O 0.56884 0.9207 0.32674 0.0
O34 O 0.57686 0.85482 0.38763 0.0
O35 O 0.49924 0.87211 0.38981 0.0
C36 C 0.52281 0.96307 0.43848 0.0
O37 O 0.64333 0.92209 0.38785 0.0
O38 O 0.6092 0.98116 0.37698 0.0
In39 In 0.93584 0.08516 0.38343 0.0
O40 O 0.98489 0.03896 0.41266 0.0
O41 O 0.9332 0.07757 0.43972 0.0
C42 C 0.96681 0.07474 0.31977 0.0
C43 C 0.84507 0.04644 0.38199 0.0
C44 C 0.96547 0.16588 0.39223 0.0
O45 O 0.99287 0.06233 0.34437 0.0
O46 O 0.92508 0.09166 0.32736 0.0
O47 O 0.91915 0.15578 0.38985 0.0
O48 O 0.99582 0.13533 0.39056 0.0
C49 C 0.9661 0.04874 0.44072 0.0
O50 O 0.84894 0.08599 0.38519 0.0
O51 O 0.8867 0.02725 0.37889 0.0
In52 In 0.93584 0.92087 0.88411 0.0
O53 O 0.98757 0.96565 0.91297 0.0
O54 O 0.93174 0.93115 0.93995 0.0
C55 C 0.96636 0.9258 0.82015 0.0
C56 C 0.84337 0.95676 0.88002 0.0
C57 C 0.96802 0.84163 0.89549 0.0
O58 O 0.98168 0.95167 0.84195 0.0
O59 O 0.93548 0.8985 0.83055 0.0
O60 O 0.92138 0.8509 0.89344 0.0
O61 O 0.9978 0.87256 0.89263 0.0
C62 C 0.96694 0.958 0.9409 0.0
O63 O 0.84907 0.91806 0.88644 0.0
O64 O 0.88408 0.9766 0.87509 0.0
In65 In 0.56088 0.08636 0.88292 0.0
O66 O 0.64765 0.08515 0.88504 0.0
O67 O 0.60801 0.02742 0.87791 0.0
C68 C 0.53277 0.16735 0.89209 0.0
C69 C 0.52941 0.05029 0.93996 0.0
C70 C 0.53229 0.0764 0.81894 0.0
O71 O 0.57891 0.15668 0.88962 0.0
O72 O 0.5018 0.13725 0.89012 0.0
O73 O 0.50461 0.06469 0.84303 0.0
O74 O 0.57377 0.09313 0.82727 0.0
C75 C 0.65024 0.04561 0.88116 0.0
O76 O 0.51063 0.04076 0.91185 0.0
O77 O 0.56298 0.07858 0.93907 0.0
In78 In 0.43625 0.08827 0.61736 0.0
O79 O 0.48384 0.04099 0.58818 0.0
O80 O 0.43407 0.08115 0.56107 0.0
C81 C 0.46722 0.07674 0.68073 0.0
C82 C 0.34424 0.05165 0.61973 0.0
C83 C 0.46752 0.16868 0.60897 0.0
O84 O 0.49306 0.06446 0.65596 0.0
O85 O 0.42572 0.09422 0.67345 0.0
O86 O 0.42098 0.15903 0.61041 0.0
O87 O 0.49734 0.13785 0.6114 0.0
C88 C 0.46593 0.05154 0.56008 0.0
O89 O 0.34955 0.09104 0.61625 0.0
O90 O 0.38521 0.03137 0.62224 0.0
In91 In 0.06069 0.92306 0.61756 0.0
O92 O 0.00453 0.96573 0.59052 0.0
O93 O 0.06202 0.93558 0.56183 0.0
C94 C 0.03232 0.92655 0.68205 0.0
C95 C 0.15083 0.96308 0.62067 0.0
C96 C 0.03331 0.8426 0.60564 0.0
O97 O 0.0144 0.95151 0.66047 0.0
O98 O 0.06462 0.9007 0.67115 0.0
O99 O 0.07929 0.85404 0.6068 0.0
O100 O 0.00163 0.87198 0.60971 0.0
C101 C 0.02473 0.96048 0.56213 0.0
O102 O 0.14762 0.92419 0.61417 0.0
O103 O 0.10898 0.98088 0.62622 0.0
In104 In 0.5591 0.58626 0.11644 0.0
O105 O 0.64564 0.58888 0.11555 0.0
O106 O 0.61013 0.52898 0.12025 0.0
C107 C 0.53179 0.66788 0.109 0.0
C108 C 0.52867 0.54976 0.05917 0.0
C109 C 0.53013 0.57392 0.1802 0.0
O110 O 0.57762 0.65616 0.10926 0.0
O111 O 0.50016 0.63838 0.11206 0.0
O112 O 0.50191 0.56424 0.15585 0.0
O113 O 0.57234 0.5896 0.17224 0.0
C114 C 0.65107 0.54944 0.11837 0.0
O115 O 0.51035 0.53965 0.08727 0.0
O116 O 0.56097 0.57901 0.06012 0.0
In117 In 0.9372 0.42468 0.1178 0.0
O118 O 0.85022 0.42421 0.1136 0.0
O119 O 0.88709 0.48117 0.12707 0.0
C120 C 0.96724 0.3446 0.1069 0.0
C121 C 0.972 0.4621 0.06193 0.0
C122 C 0.96567 0.43083 0.18223 0.0
O123 O 0.92089 0.35466 0.10943 0.0
O124 O 0.99775 0.3751 0.10905 0.0
O125 O 0.98128 0.45639 0.1603 0.0
O126 O 0.93607 0.40268 0.17164 0.0
C127 C 0.84584 0.46285 0.12077 0.0
O128 O 0.9931 0.46687 0.09006 0.0
O129 O 0.93424 0.43768 0.06205 0.0
In130 In 0.06089 0.42133 0.38451 0.0
O131 O 0.00665 0.46284 0.41448 0.0
O132 O 0.06537 0.43082 0.44057 0.0
C133 C 0.03039 0.42931 0.32059 0.0
C134 C 0.15315 0.45793 0.38092 0.0
C135 C 0.03271 0.34059 0.39403 0.0
O136 O 0.01541 0.45429 0.34313 0.0
O137 O 0.0604 0.40099 0.33034 0.0
O138 O 0.07871 0.3518 0.39233 0.0
O139 O 0.00115 0.37038 0.39169 0.0
C140 C 0.0283 0.45582 0.44215 0.0
O141 O 0.14764 0.41901 0.38641 0.0
O142 O 0.11228 0.47782 0.37675 0.0
In143 In 0.43672 0.58632 0.38242 0.0
O144 O 0.48946 0.54242 0.4105 0.0
O145 O 0.43608 0.57771 0.43893 0.0
C146 C 0.46594 0.57453 0.31866 0.0
C147 C 0.3468 0.54618 0.38129 0.0
C148 C 0.46611 0.6674 0.38961 0.0
O149 O 0.4919 0.56175 0.34316 0.0
O150 O 0.42506 0.59278 0.32638 0.0
O151 O 0.41976 0.65692 0.38939 0.0
O152 O 0.49653 0.63706 0.38676 0.0
C153 C 0.47131 0.55077 0.43898 0.0
O154 O 0.3498 0.58574 0.38491 0.0
O155 O 0.38885 0.52772 0.378 0.0
In156 In 0.43791 0.42256 0.88219 0.0
O157 O 0.3511 0.41982 0.88393 0.0
O158 O 0.38637 0.47886 0.8749 0.0
C159 C 0.4669 0.3423 0.89327 0.0
C160 C 0.47275 0.4602 0.93784 0.0
C161 C 0.46547 0.42938 0.81772 0.0
O162 O 0.42086 0.35357 0.89331 0.0
O163 O 0.49815 0.37181 0.88842 0.0
O164 O 0.48183 0.45444 0.83975 0.0
O165 O 0.43574 0.40132 0.82828 0.0
C166 C 0.34555 0.45877 0.87859 0.0
O167 O 0.49331 0.46549 0.90959 0.0
O168 O 0.43567 0.43509 0.93794 0.0
In169 In 0.06218 0.58665 0.88314 0.0
O170 O 0.14896 0.58552 0.88493 0.0
O171 O 0.10996 0.52885 0.87318 0.0
C172 C 0.0356 0.66718 0.89506 0.0
C173 C 0.0309 0.55022 0.94028 0.0
C174 C 0.03189 0.58357 0.81903 0.0
O175 O 0.08144 0.65568 0.89251 0.0
O176 O 0.00361 0.63776 0.89246 0.0
O177 O 0.01415 0.55863 0.84075 0.0
O178 O 0.06476 0.60906 0.82965 0.0
C179 C 0.15198 0.5467 0.87811 0.0
O180 O 0.008 0.54453 0.91283 0.0
O181 O 0.06826 0.57493 0.93868 0.0
In182 In 0.93582 0.58817 0.61688 0.0
O183 O 0.98909 0.54074 0.59159 0.0
O184 O 0.93318 0.57125 0.56203 0.0
C185 C 0.96795 0.58518 0.68044 0.0
C186 C 0.84225 0.55459 0.62241 0.0
C187 C 0.96591 0.66802 0.60479 0.0
O188 O 0.98057 0.55733 0.65935 0.0
O189 O 0.93923 0.61378 0.66943 0.0
O190 O 0.91997 0.65854 0.61018 0.0
O191 O 0.9959 0.63706 0.60465 0.0
C192 C 0.96895 0.545 0.5631 0.0
O193 O 0.85142 0.58509 0.6031 0.0
O194 O 0.87946 0.5421 0.63939 0.0
In195 In 0.56288 0.42409 0.61634 0.0
O196 O 0.5091 0.46858 0.58813 0.0
O197 O 0.56853 0.43847 0.56139 0.0
C198 C 0.52893 0.42972 0.67925 0.0
C199 C 0.65529 0.45961 0.62236 0.0
C200 C 0.53621 0.34301 0.60642 0.0
O201 O 0.51643 0.45643 0.65724 0.0
O202 O 0.55805 0.40072 0.66939 0.0
O203 O 0.58158 0.35416 0.61176 0.0
O204 O 0.50479 0.37297 0.60522 0.0
C205 C 0.53172 0.46366 0.56048 0.0
O206 O 0.64778 0.42772 0.6042 0.0
O207 O 0.61699 0.4726 0.63805 0.0
C208 C 0.25029 0.96394 0.11778 0.0
C209 C 0.29625 0.98612 0.11529 0.0
C210 C 0.20362 0.98513 0.11815 0.0
C211 C 0.20103 0.02933 0.11576 0.0
H212 H 0.25032 0.92995 0.11984 0.0
H213 H 0.16928 0.96661 0.12032 0.0
S214 S 0.31045 0.10204 0.10746 0.0
N215 N 0.33627 0.05481 0.1096 0.0
N216 N 0.24863 0.09447 0.11007 0.0
C217 C 0.24669 0.05187 0.11283 0.0
C218 C 0.29424 0.03032 0.11266 0.0
C219 C 0.70322 0.02579 0.37902 0.0
C220 C 0.69996 0.98174 0.38241 0.0
C221 C 0.75019 0.04651 0.37908 0.0
C222 C 0.7958 0.02396 0.38222 0.0
H223 H 0.66916 0.04458 0.37639 0.0
H224 H 0.75072 0.08042 0.37639 0.0
S225 S 0.80825 0.9082 0.39247 0.0
N226 N 0.74657 0.91632 0.38954 0.0
N227 N 0.83478 0.95508 0.38941 0.0
C228 C 0.79314 0.97989 0.38571 0.0
C229 C 0.74527 0.95883 0.38587 0.0
C230 C 0.79142 0.02246 0.87831 0.0
C231 C 0.79345 0.97819 0.87963 0.0
C232 C 0.74504 0.044 0.87892 0.0
C233 C 0.6988 0.02212 0.88055 0.0
H234 H 0.82601 0.04081 0.87715 0.0
H235 H 0.7455 0.07807 0.87801 0.0
S236 S 0.68313 0.90598 0.88415 0.0
N237 N 0.74509 0.91319 0.88252 0.0
N238 N 0.65785 0.95349 0.88336 0.0
C239 C 0.70021 0.97779 0.88163 0.0
C240 C 0.74753 0.95588 0.88126 0.0
C241 C 0.24573 0.96447 0.6197 0.0
C242 C 0.19951 0.98644 0.62096 0.0
C243 C 0.29219 0.98592 0.61957 0.0
C244 C 0.29431 0.03022 0.62037 0.0
H245 H 0.24612 0.9304 0.6189 0.0
H246 H 0.32675 0.96752 0.61858 0.0
S247 S 0.18403 0.10264 0.62344 0.0
N248 N 0.15868 0.05516 0.62294 0.0
N249 N 0.246 0.09532 0.62239 0.0
C250 C 0.24839 0.05261 0.62155 0.0
C251 C 0.20102 0.03077 0.62194 0.0
C252 C 0.75091 0.46318 0.11771 0.0
C253 C 0.79667 0.48555 0.12076 0.0
C254 C 0.70409 0.48415 0.11716 0.0
C255 C 0.70121 0.52834 0.11931 0.0
H256 H 0.75117 0.42918 0.11578 0.0
H257 H 0.66989 0.4655 0.11477 0.0
S258 S 0.80998 0.60168 0.12754 0.0
N259 N 0.83614 0.55454 0.12604 0.0
N260 N 0.74826 0.59376 0.1247 0.0
C261 C 0.74666 0.55111 0.12232 0.0
C262 C 0.79432 0.52977 0.12315 0.0
C263 C 0.25187 0.54498 0.37964 0.0
C264 C 0.29803 0.52294 0.38101 0.0
C265 C 0.20535 0.5236 0.37925 0.0
C266 C 0.20312 0.47933 0.38048 0.0
H267 H 0.25158 0.57905 0.37875 0.0
H268 H 0.17083 0.54205 0.37824 0.0
S269 S 0.31317 0.40673 0.3845 0.0
N270 N 0.33865 0.45416 0.38363 0.0
N271 N 0.25124 0.41417 0.38314 0.0
C272 C 0.24898 0.45687 0.3819 0.0
C273 C 0.29639 0.47861 0.38209 0.0
C274 C 0.24678 0.54557 0.87895 0.0
C275 C 0.20069 0.52348 0.87716 0.0
C276 C 0.29332 0.52428 0.87899 0.0
C277 C 0.29561 0.48004 0.87762 0.0
H278 H 0.24701 0.57961 0.88039 0.0
H279 H 0.32778 0.54275 0.88056 0.0
S280 S 0.18587 0.40735 0.87222 0.0
N281 N 0.16023 0.45472 0.87347 0.0
N282 N 0.24778 0.41484 0.87394 0.0
C283 C 0.24987 0.45752 0.87568 0.0
C284 C 0.20242 0.4792 0.87532 0.0
C285 C 0.72714 0.49426 0.59285 0.0
C286 C 0.70363 0.48264 0.62301 0.0
C287 C 0.77103 0.51925 0.59282 0.0
C288 C 0.79345 0.5322 0.62297 0.0
H289 H 0.71087 0.48475 0.56916 0.0
H290 H 0.78826 0.52755 0.56913 0.0
S291 S 0.74689 0.50944 0.70844 0.0
N292 N 0.70523 0.48641 0.6836 0.0
N293 N 0.78948 0.53132 0.6836 0.0
C294 C 0.77067 0.52029 0.65322 0.0
C295 C 0.72517 0.49606 0.65323 0.0
C296 C 0.94866 0.0736 0.25857 0.0
C297 C 0.98426 0.07169 0.28472 0.0
C298 C 0.96415 0.07371 0.22505 0.0
C299 C 0.01586 0.07287 0.2165 0.0
H300 H 0.90846 0.07539 0.26404 0.0
H301 H 0.93545 0.07583 0.20576 0.0
S302 S 0.12413 0.0663 0.27549 0.0
N303 N 0.07345 0.06728 0.29976 0.0
N304 N 0.10266 0.06854 0.23677 0.0
C305 C 0.05184 0.07022 0.24236 0.0
C306 C 0.03601 0.06931 0.27648 0.0
C307 C 0.52914 0.93867 0.22475 0.0
C308 C 0.47747 0.93884 0.21619 0.0
C309 C 0.54448 0.93842 0.25826 0.0
C310 C 0.5087 0.93923 0.28437 0.0
H311 H 0.55796 0.93728 0.20546 0.0
H312 H 0.5847 0.93714 0.26373 0.0
S313 S 0.36877 0.94302 0.27504 0.0
N314 N 0.39049 0.94171 0.23633 0.0
N315 N 0.41934 0.94224 0.29936 0.0
C316 C 0.45694 0.94107 0.27612 0.0
C317 C 0.4413 0.94057 0.24199 0.0
C318 C 0.00473 0.96409 0.73397 0.0
C319 C 0.01575 0.92625 0.71723 0.0
C320 C 0.99001 0.964 0.76773 0.0
C321 C 0.98427 0.92599 0.7853 0.0
H322 H 0.00825 0.9939 0.72104 0.0
H323 H 0.98201 0.9937 0.77994 0.0
S324 S 0.00783 0.81857 0.7526 0.0
N325 N 0.02039 0.84998 0.72077 0.0
N326 N 0.99077 0.84974 0.78366 0.0
C327 C 0.99472 0.88803 0.76871 0.0
C328 C 0.01099 0.88818 0.73478 0.0
C329 C 0.44922 0.07336 0.74186 0.0
C330 C 0.48477 0.07296 0.71561 0.0
C331 C 0.46487 0.07279 0.77532 0.0
C332 C 0.51663 0.07282 0.78366 0.0
H333 H 0.40896 0.0745 0.73651 0.0
H334 H 0.43625 0.07381 0.79475 0.0
S335 S 0.62478 0.0703 0.72429 0.0
N336 N 0.57396 0.07088 0.7002 0.0
N337 N 0.60345 0.07091 0.7631 0.0
C338 C 0.55256 0.07164 0.75768 0.0
C339 C 0.5366 0.07138 0.72362 0.0
C340 C 0.46264 0.57259 0.22396 0.0
C341 C 0.51423 0.56978 0.21541 0.0
C342 C 0.44726 0.57338 0.2575 0.0
C343 C 0.48285 0.57042 0.2836 0.0
H344 H 0.4341 0.57581 0.20465 0.0
H345 H 0.40723 0.57681 0.26302 0.0
S346 S 0.62222 0.55934 0.27423 0.0
N347 N 0.60074 0.56212 0.23554 0.0
N348 N 0.57175 0.56252 0.29856 0.0
C349 C 0.53437 0.56584 0.27532 0.0
C350 C 0.55009 0.56583 0.24121 0.0
C351 C 0.00634 0.39363 0.26775 0.0
C352 C 0.01303 0.4313 0.28561 0.0
C353 C 0.99041 0.39397 0.2344 0.0
C354 C 0.98218 0.43202 0.21739 0.0
H355 H 0.01287 0.36356 0.27978 0.0
H356 H 0.98529 0.36417 0.22167 0.0
S357 S 0.99502 0.53929 0.25271 0.0
N358 N 0.00974 0.50769 0.28406 0.0
N359 N 0.98181 0.50836 0.22067 0.0
C360 C 0.98926 0.46998 0.23476 0.0
C361 C 0.00408 0.46961 0.26911 0.0
C362 C 0.5007 0.39345 0.73084 0.0
C363 C 0.51095 0.43132 0.71405 0.0
C364 C 0.48529 0.39338 0.76428 0.0
C365 C 0.48113 0.43109 0.78241 0.0
H366 H 0.5043 0.3636 0.71795 0.0
H367 H 0.47753 0.36345 0.77623 0.0
S368 S 0.50433 0.53864 0.74998 0.0
N369 N 0.51544 0.50755 0.71768 0.0
N370 N 0.48829 0.50733 0.78123 0.0
C371 C 0.49161 0.46921 0.76602 0.0
C372 C 0.50598 0.46935 0.7316 0.0
C373 C 0.0037 0.54644 0.76704 0.0
C374 C 0.01505 0.5841 0.78389 0.0
C375 C 0.98972 0.54675 0.73314 0.0
C376 C 0.98519 0.58483 0.71548 0.0
H377 H 0.00652 0.51656 0.77995 0.0
H378 H 0.98144 0.51715 0.72088 0.0
S379 S 0.00976 0.69192 0.74854 0.0
N380 N 0.021 0.66032 0.78044 0.0
N381 N 0.99293 0.661 0.71729 0.0
C382 C 0.99584 0.62264 0.73222 0.0
C383 C 0.01127 0.62225 0.76632 0.0
C384 C 0.96542 0.22499 0.10713 0.0
C385 C 0.01718 0.21417 0.10526 0.0
C386 C 0.94954 0.26713 0.10663 0.0
C387 C 0.98474 0.30025 0.10426 0.0
H388 H 0.9368 0.20074 0.10965 0.0
H389 H 0.90937 0.27374 0.1089 0.0
S390 S 0.12454 0.28889 0.09639 0.0
N391 N 0.10347 0.24011 0.09924 0.0
N392 N 0.07377 0.31921 0.09827 0.0
C393 C 0.03655 0.28987 0.10133 0.0
C394 C 0.05272 0.2469 0.10185 0.0
C395 C 0.44781 0.76526 0.10864 0.0
C396 C 0.48279 0.79855 0.10637 0.0
C397 C 0.46402 0.72318 0.10883 0.0
C398 C 0.51586 0.71265 0.10673 0.0
H399 H 0.40761 0.77171 0.11094 0.0
H400 H 0.43559 0.69875 0.1112 0.0
S401 S 0.6227 0.78795 0.09832 0.0
N402 N 0.57172 0.81798 0.10047 0.0
N403 N 0.60195 0.73906 0.10086 0.0
C404 C 0.55115 0.74557 0.10358 0.0
C405 C 0.53469 0.78843 0.1034 0.0
C406 C 0.44861 0.74479 0.3943 0.0
C407 C 0.48381 0.71172 0.39162 0.0
C408 C 0.46447 0.78696 0.39452 0.0
C409 C 0.51618 0.79779 0.39204 0.0
H410 H 0.40837 0.73815 0.39582 0.0
H411 H 0.43578 0.81128 0.39618 0.0
S412 S 0.62389 0.72303 0.3854 0.0
N413 N 0.57311 0.69274 0.38719 0.0
N414 N 0.60266 0.7718 0.38756 0.0
C415 C 0.55187 0.76502 0.38996 0.0
C416 C 0.53577 0.72208 0.38975 0.0
C417 C 0.96464 0.28554 0.39507 0.0
C418 C 0.01658 0.29589 0.39623 0.0
C419 C 0.94833 0.24349 0.39453 0.0
C420 C 0.98331 0.21008 0.39515 0.0
H421 H 0.93621 0.31011 0.39388 0.0
H422 H 0.90802 0.2372 0.39298 0.0
S423 S 0.1236 0.22013 0.40011 0.0
N424 N 0.10285 0.26911 0.39939 0.0
N425 N 0.07243 0.19029 0.39844 0.0
C426 C 0.03535 0.21999 0.39725 0.0
C427 C 0.05191 0.26279 0.39778 0.0
C428 C 0.96796 0.72218 0.8994 0.0
C429 C 0.01991 0.71188 0.89833 0.0
C430 C 0.95159 0.76418 0.89949 0.0
C431 C 0.98648 0.79764 0.89851 0.0
H432 H 0.93949 0.69761 0.89942 0.0
H433 H 0.91119 0.77037 0.89956 0.0
S434 S 0.12693 0.78777 0.89741 0.0
N435 N 0.10628 0.73874 0.89774 0.0
N436 N 0.07566 0.81757 0.89794 0.0
C437 C 0.03862 0.78782 0.8985 0.0
C438 C 0.05529 0.74501 0.8984 0.0
C439 C 0.53468 0.28701 0.89204 0.0
C440 C 0.48316 0.29769 0.89611 0.0
C441 C 0.55066 0.24487 0.8917 0.0
C442 C 0.51576 0.21172 0.89535 0.0
H443 H 0.56288 0.31134 0.88829 0.0
H444 H 0.59052 0.23826 0.88771 0.0
S445 S 0.37705 0.22278 0.9095 0.0
N446 N 0.39772 0.27159 0.90587 0.0
N447 N 0.42758 0.19259 0.90525 0.0
C448 C 0.46435 0.222 0.90061 0.0
C449 C 0.44811 0.2649 0.90099 0.0
C450 C 0.45141 0.24624 0.60406 0.0
C451 C 0.48607 0.21269 0.60605 0.0
C452 C 0.46808 0.28818 0.60321 0.0
C453 C 0.5201 0.29829 0.60442 0.0
H454 H 0.41098 0.24017 0.60369 0.0
H455 H 0.4398 0.31288 0.60232 0.0
S456 S 0.6266 0.22203 0.60798 0.0
N457 N 0.57514 0.19245 0.60783 0.0
N458 N 0.60625 0.2711 0.60637 0.0
C459 C 0.55522 0.26502 0.60556 0.0
C460 C 0.53828 0.22231 0.60634 0.0
C461 C 0.96538 0.78759 0.60462 0.0
C462 C 0.01721 0.798 0.60223 0.0
C463 C 0.94905 0.74559 0.60439 0.0
C464 C 0.98382 0.7122 0.6017 0.0
H465 H 0.9371 0.81205 0.6075 0.0
H466 H 0.90887 0.73929 0.60713 0.0
S467 S 0.12357 0.72244 0.59253 0.0
N468 N 0.10307 0.77139 0.59543 0.0
N469 N 0.0725 0.69252 0.59489 0.0
C470 C 0.03566 0.72216 0.59815 0.0
C471 C 0.0523 0.765 0.59845 0.0
C472 C 0.01637 0.01333 0.97109 0.0
C473 C 0.9813 0.98003 0.97212 0.0
C474 C 0.02936 0.03557 1.00009 0.0
C475 C 0.00792 0.02532 0.03128 0.0
H476 H 0.03377 0.02254 0.94767 0.0
H477 H 0.05666 0.06091 0.99798 0.0
S478 S 0.91449 0.94037 0.0476 0.0
N479 N 0.9255 0.93764 0.00705 0.0
N480 N 0.95004 0.97938 0.06148 0.0
C481 C 0.97288 0.992 0.0327 0.0
C482 C 0.95957 0.96938 0.00316 0.0
C483 C 0.47969 0.99542 0.97042 0.0
C484 C 0.51482 0.02869 0.9713 0.0
C485 C 0.46625 0.97366 0.99955 0.0
C486 C 0.48739 0.98431 0.03071 0.0
H487 H 0.46248 0.98593 0.94703 0.0
H488 H 0.43888 0.94836 0.99757 0.0
S489 S 0.58113 0.06912 0.04664 0.0
N490 N 0.57053 0.07135 0.00603 0.0
N491 N 0.54523 0.03045 0.06072 0.0
C492 C 0.5226 0.01752 0.03198 0.0
C493 C 0.53629 0.03971 0.00231 0.0
C494 C 0.51566 0.99709 0.5292 0.0
C495 C 0.47985 0.02987 0.52864 0.0
C496 C 0.52884 0.97544 0.49997 0.0
C497 C 0.50674 0.98571 0.46903 0.0
H498 H 0.53375 0.98797 0.5524 0.0
H499 H 0.55685 0.95058 0.50169 0.0
S500 S 0.41023 0.06866 0.45407 0.0
N501 N 0.42199 0.07132 0.49452 0.0
N502 N 0.44682 0.03063 0.43962 0.0
C503 C 0.47069 0.01832 0.46809 0.0
C504 C 0.45726 0.0404 0.49788 0.0
C505 C 0.03243 0.97492 0.501 0.0
C506 C 0.00792 0.9829 0.53163 0.0
C507 C 0.0188 0.99649 0.47184 0.0
C508 C 0.98023 0.02703 0.47213 0.0
H509 H 0.06263 0.95188 0.49947 0.0
H510 H 0.03881 0.98915 0.44891 0.0
S511 S 0.90379 0.05946 0.54579 0.0
N512 N 0.94284 0.02329 0.56043 0.0
N513 N 0.91724 0.06394 0.50565 0.0
C514 C 0.95524 0.03529 0.50256 0.0
C515 C 0.96905 0.01318 0.53228 0.0
C516 C 0.47695 0.49686 0.02802 0.0
C517 C 0.51505 0.5278 0.02779 0.0
C518 C 0.46402 0.47494 0.99888 0.0
C519 C 0.48882 0.48294 0.96836 0.0
H520 H 0.4568 0.48947 0.05089 0.0
H521 H 0.43416 0.45159 1.00035 0.0
S522 S 0.59197 0.56047 0.9544 0.0
N523 N 0.57791 0.56511 0.99443 0.0
N524 N 0.55366 0.52379 0.93973 0.0
C525 C 0.52723 0.51362 0.96778 0.0
C526 C 0.54029 0.5361 0.99745 0.0
C527 C 0.96127 0.47917 1.00132 0.0
C528 C 0.98852 0.48449 0.03129 0.0
C529 C 0.97496 0.50075 0.97211 0.0
C530 C 0.01645 0.52854 0.9717 0.0
H531 H 0.92885 0.45826 1.00036 0.0
H532 H 0.95283 0.49551 0.9497 0.0
S533 S 0.10066 0.55338 0.0435 0.0
N534 N 0.0592 0.51948 0.05868 0.0
N535 N 0.085 0.56003 0.00392 0.0
C536 C 0.04414 0.53411 1.00149 0.0
C537 C 0.03019 0.51209 0.03123 0.0
C538 C 0.96021 0.52862 0.50238 0.0
C539 C 0.98487 0.52116 0.53304 0.0
C540 C 0.974 0.5069 0.47332 0.0
C541 C 0.01304 0.4768 0.47368 0.0
H542 H 0.93 0.55164 0.50067 0.0
H543 H 0.95413 0.51412 0.45033 0.0
S544 S 0.0888 0.44466 0.54769 0.0
N545 N 0.04964 0.48091 0.56213 0.0
N546 N 0.0757 0.43999 0.50752 0.0
C547 C 0.03774 0.46864 0.50424 0.0
C548 C 0.02365 0.49084 0.53389 0.0
C549 C 0.47503 0.51301 0.52901 0.0
C550 C 0.51726 0.48599 0.52941 0.0
C551 C 0.46087 0.53434 0.49977 0.0
C552 C 0.48835 0.52936 0.46984 0.0
H553 H 0.45255 0.51762 0.55139 0.0
H554 H 0.42774 0.55449 0.50058 0.0
S555 S 0.60331 0.4636 0.45794 0.0
N556 N 0.58741 0.45643 0.49742 0.0
N557 N 0.56067 0.49637 0.44267 0.0
C558 C 0.53102 0.50285 0.47 0.0
C559 C 0.54549 0.48121 0.49973 0.0
loop_
_geom_bond_atom_site_label_1
_geom_bond_atom_site_label_2
_geom_bond_distance
_geom_bond_site_symmetry_2
_ccdc_geom_bond_type
In0 O1 2.294 . S
In0 O2 2.326 . S
In0 O6 2.266 . S
In0 O7 2.312 1_455 S
In0 O8 2.266 . S
In0 O9 2.326 . S
In0 O11 2.294 . S
In0 O12 2.326 . S
O1 In0 2.294 . S
O1 C10 1.240 . S
O2 In0 2.326 . S
O2 C10 1.252 . S
C3 O6 1.252 . S
C3 O7 1.247 1_455 S
C4 O11 1.240 . S
C4 O12 1.252 . S
C5 O8 1.252 . S
C5 O9 1.260 . S
O6 In0 2.266 . S
O6 C3 1.252 . S
O7 In0 2.312 1_655 S
O7 C3 1.247 1_655 S
O8 In0 2.266 . S
O8 C5 1.252 . S
O9 In0 2.326 . S
O9 C5 1.260 . S
C10 O1 1.240 . S
C10 O2 1.252 . S
O11 In0 2.294 . S
O11 C4 1.240 . S
O12 In0 2.326 . S
O12 C4 1.252 . S
In13 O14 2.294 . S
In13 O15 2.326 . S
In13 O19 2.266 . S
In13 O20 2.326 . S
In13 O21 2.266 . S
In13 O22 2.326 . S
In13 O24 2.294 . S
In13 O25 2.326 . S
O14 In13 2.294 . S
O14 C23 1.240 . S
O15 In13 2.326 . S
O15 C23 1.252 . S
C16 O19 1.252 . S
C16 O20 1.260 . S
C17 O24 1.240 . S
C17 O25 1.252 . S
C18 O21 1.252 . S
C18 O22 1.260 . S
O19 In13 2.266 . S
O19 C16 1.252 . S
O20 In13 2.326 . S
O20 C16 1.260 . S
O21 In13 2.266 . S
O21 C18 1.252 . S
O22 In13 2.326 . S
O22 C18 1.260 . S
C23 O14 1.240 . S
C23 O15 1.252 . S
O24 In13 2.294 . S
O24 C17 1.240 . S
O25 In13 2.326 . S
O25 C17 1.252 . S
In26 O27 2.294 . S
In26 O28 2.326 . S
In26 O32 2.266 . S
In26 O33 2.326 . S
In26 O34 2.266 . S
In26 O35 2.326 . S
In26 O37 2.294 . S
In26 O38 2.326 . S
O27 In26 2.294 . S
O27 C36 1.240 . S
O28 In26 2.326 . S
O28 C36 1.252 . S
C29 O32 1.252 . S
C29 O33 1.260 . S
C30 O37 1.240 . S
C30 O38 1.252 . S
C31 O34 1.252 . S
C31 O35 1.260 . S
O32 In26 2.266 . S
O32 C29 1.252 . S
O33 In26 2.326 . S
O33 C29 1.260 . S
O34 In26 2.266 . S
O34 C31 1.252 . S
O35 In26 2.326 . S
O35 C31 1.260 . S
C36 O27 1.240 . S
C36 O28 1.252 . S
O37 In26 2.294 . S
O37 C30 1.240 . S
O38 In26 2.326 . S
O38 C30 1.252 . S
In39 O40 2.294 . S
In39 O41 2.326 . S
In39 O45 2.266 . S
In39 O46 2.326 . S
In39 O47 2.266 . S
In39 O48 2.312 1_655 S
In39 O50 2.294 . S
In39 O51 2.326 . S
O40 In39 2.294 . S
O40 C49 1.240 . S
O41 In39 2.326 . S
O41 C49 1.252 . S
C42 O45 1.252 . S
C42 O46 1.260 . S
C43 O50 1.240 . S
C43 O51 1.252 . S
C44 O47 1.252 . S
C44 O48 1.247 1_655 S
O45 In39 2.266 . S
O45 C42 1.252 . S
O46 In39 2.326 . S
O46 C42 1.260 . S
O47 In39 2.266 . S
O47 C44 1.252 . S
O48 In39 2.312 1_455 S
O48 C44 1.247 1_455 S
C49 O40 1.240 . S
C49 O41 1.252 . S
O50 In39 2.294 . S
O50 C43 1.240 . S
O51 In39 2.326 . S
O51 C43 1.252 . S
In52 O53 2.294 . S
In52 O54 2.326 . S
In52 O58 2.266 . S
In52 O59 2.326 . S
In52 O60 2.266 . S
In52 O61 2.312 1_655 S
In52 O63 2.294 . S
In52 O64 2.326 . S
O53 In52 2.294 . S
O53 C62 1.240 . S
O54 In52 2.326 . S
O54 C62 1.252 . S
C55 O58 1.252 . S
C55 O59 1.260 . S
C56 O63 1.240 . S
C56 O64 1.252 . S
C57 O60 1.252 . S
C57 O61 1.247 1_655 S
O58 In52 2.266 . S
O58 C55 1.252 . S
O59 In52 2.326 . S
O59 C55 1.260 . S
O60 In52 2.266 . S
O60 C57 1.252 . S
O61 In52 2.312 1_455 S
O61 C57 1.247 1_455 S
C62 O53 1.240 . S
C62 O54 1.252 . S
O63 In52 2.294 . S
O63 C56 1.240 . S
O64 In52 2.326 . S
O64 C56 1.252 . S
In65 O66 2.294 . S
In65 O67 2.326 . S
In65 O71 2.266 . S
In65 O72 2.326 . S
In65 O73 2.266 . S
In65 O74 2.326 . S
In65 O76 2.294 . S
In65 O77 2.326 . S
O66 In65 2.294 . S
O66 C75 1.240 . S
O67 In65 2.326 . S
O67 C75 1.252 . S
C68 O71 1.252 . S
C68 O72 1.260 . S
C69 O76 1.240 . S
C69 O77 1.252 . S
C70 O73 1.252 . S
C70 O74 1.260 . S
O71 In65 2.266 . S
O71 C68 1.252 . S
O72 In65 2.326 . S
O72 C68 1.260 . S
O73 In65 2.266 . S
O73 C70 1.252 . S
O74 In65 2.326 . S
O74 C70 1.260 . S
C75 O66 1.240 . S
C75 O67 1.252 . S
O76 In65 2.294 . S
O76 C69 1.240 . S
O77 In65 2.326 . S
O77 C69 1.252 . S
In78 O79 2.294 . S
In78 O80 2.326 . S
In78 O84 2.266 . S
In78 O85 2.326 . S
In78 O86 2.266 . S
In78 O87 2.326 . S
In78 O89 2.294 . S
In78 O90 2.326 . S
O79 In78 2.294 . S
O79 C88 1.240 . S
O80 In78 2.326 . S
O80 C88 1.252 . S
C81 O84 1.252 . S
C81 O85 1.260 . S
C82 O89 1.240 . S
C82 O90 1.252 . S
C83 O86 1.252 . S
C83 O87 1.260 . S
O84 In78 2.266 . S
O84 C81 1.252 . S
O85 In78 2.326 . S
O85 C81 1.260 . S
O86 In78 2.266 . S
O86 C83 1.252 . S
O87 In78 2.326 . S
O87 C83 1.260 . S
C88 O79 1.240 . S
C88 O80 1.252 . S
O89 In78 2.294 . S
O89 C82 1.240 . S
O90 In78 2.326 . S
O90 C82 1.252 . S
In91 O92 2.294 . S
In91 O93 2.326 . S
In91 O97 2.266 . S
In91 O98 2.326 . S
In91 O99 2.266 . S
In91 O100 2.312 1_455 S
In91 O102 2.294 . S
In91 O103 2.326 . S
O92 In91 2.294 . S
O92 C101 1.240 . S
O93 In91 2.326 . S
O93 C101 1.252 . S
C94 O97 1.252 . S
C94 O98 1.260 . S
C95 O102 1.240 . S
C95 O103 1.252 . S
C96 O99 1.252 . S
C96 O100 1.247 1_455 S
O97 In91 2.266 . S
O97 C94 1.252 . S
O98 In91 2.326 . S
O98 C94 1.260 . S
O99 In91 2.266 . S
O99 C96 1.252 . S
O100 In91 2.312 1_655 S
O100 C96 1.247 1_655 S
C101 O92 1.240 . S
C101 O93 1.252 . S
O102 In91 2.294 . S
O102 C95 1.240 . S
O103 In91 2.326 . S
O103 C95 1.252 . S
In104 O105 2.294 . S
In104 O106 2.326 . S
In104 O110 2.266 . S
In104 O111 2.326 . S
In104 O112 2.266 . S
In104 O113 2.326 . S
In104 O115 2.294 . S
In104 O116 2.326 . S
O105 In104 2.294 . S
O105 C114 1.240 . S
O106 In104 2.326 . S
O106 C114 1.252 . S
C107 O110 1.252 . S
C107 O111 1.260 . S
C108 O115 1.240 . S
C108 O116 1.252 . S
C109 O112 1.252 . S
C109 O113 1.260 . S
O110 In104 2.266 . S
O110 C107 1.252 . S
O111 In104 2.326 . S
O111 C107 1.260 . S
O112 In104 2.266 . S
O112 C109 1.252 . S
O113 In104 2.326 . S
O113 C109 1.260 . S
C114 O105 1.240 . S
C114 O106 1.252 . S
O115 In104 2.294 . S
O115 C108 1.240 . S
O116 In104 2.326 . S
O116 C108 1.252 . S
In117 O118 2.294 . S
In117 O119 2.326 . S
In117 O123 2.266 . S
In117 O124 2.312 1_655 S
In117 O125 2.266 . S
In117 O126 2.326 . S
In117 O128 2.294 . S
In117 O129 2.326 . S
O118 In117 2.294 . S
O118 C127 1.240 . S
O119 In117 2.326 . S
O119 C127 1.252 . S
C120 O123 1.252 . S
C120 O124 1.247 1_655 S
C121 O128 1.240 . S
C121 O129 1.252 . S
C122 O125 1.252 . S
C122 O126 1.260 . S
O123 In117 2.266 . S
O123 C120 1.252 . S
O124 In117 2.312 1_455 S
O124 C120 1.247 1_455 S
O125 In117 2.266 . S
O125 C122 1.252 . S
O126 In117 2.326 . S
O126 C122 1.260 . S
C127 O118 1.240 . S
C127 O119 1.252 . S
O128 In117 2.294 . S
O128 C121 1.240 . S
O129 In117 2.326 . S
O129 C121 1.252 . S
In130 O131 2.294 . S
In130 O132 2.326 . S
In130 O136 2.266 . S
In130 O137 2.326 . S
In130 O138 2.266 . S
In130 O139 2.312 1_455 S
In130 O141 2.294 . S
In130 O142 2.326 . S
O131 In130 2.294 . S
O131 C140 1.240 . S
O132 In130 2.326 . S
O132 C140 1.252 . S
C133 O136 1.252 . S
C133 O137 1.260 . S
C134 O141 1.240 . S
C134 O142 1.252 . S
C135 O138 1.252 . S
C135 O139 1.247 1_455 S
O136 In130 2.266 . S
O136 C133 1.252 . S
O137 In130 2.326 . S
O137 C133 1.260 . S
O138 In130 2.266 . S
O138 C135 1.252 . S
O139 In130 2.312 1_655 S
O139 C135 1.247 1_655 S
C140 O131 1.240 . S
C140 O132 1.252 . S
O141 In130 2.294 . S
O141 C134 1.240 . S
O142 In130 2.326 . S
O142 C134 1.252 . S
In143 O144 2.294 . S
In143 O145 2.326 . S
In143 O149 2.266 . S
In143 O150 2.326 . S
In143 O151 2.266 . S
In143 O152 2.326 . S
In143 O154 2.294 . S
In143 O155 2.326 . S
O144 In143 2.294 . S
O144 C153 1.240 . S
O145 In143 2.326 . S
O145 C153 1.252 . S
C146 O149 1.252 . S
C146 O150 1.260 . S
C147 O154 1.240 . S
C147 O155 1.252 . S
C148 O151 1.252 . S
C148 O152 1.260 . S
O149 In143 2.266 . S
O149 C146 1.252 . S
O150 In143 2.326 . S
O150 C146 1.260 . S
O151 In143 2.266 . S
O151 C148 1.252 . S
O152 In143 2.326 . S
O152 C148 1.260 . S
C153 O144 1.240 . S
C153 O145 1.252 . S
O154 In143 2.294 . S
O154 C147 1.240 . S
O155 In143 2.326 . S
O155 C147 1.252 . S
In156 O157 2.294 . S
In156 O158 2.326 . S
In156 O162 2.266 . S
In156 O163 2.326 . S
In156 O164 2.266 . S
In156 O165 2.326 . S
In156 O167 2.294 . S
In156 O168 2.326 . S
O157 In156 2.294 . S
O157 C166 1.240 . S
O158 In156 2.326 . S
O158 C166 1.252 . S
C159 O162 1.252 . S
C159 O163 1.260 . S
C160 O167 1.240 . S
C160 O168 1.252 . S
C161 O164 1.252 . S
C161 O165 1.260 . S
O162 In156 2.266 . S
O162 C159 1.252 . S
O163 In156 2.326 . S
O163 C159 1.260 . S
O164 In156 2.266 . S
O164 C161 1.252 . S
O165 In156 2.326 . S
O165 C161 1.260 . S
C166 O157 1.240 . S
C166 O158 1.252 . S
O167 In156 2.294 . S
O167 C160 1.240 . S
O168 In156 2.326 . S
O168 C160 1.252 . S
In169 O170 2.294 . S
In169 O171 2.326 . S
In169 O175 2.266 . S
In169 O176 2.312 1_455 S
In169 O177 2.266 . S
In169 O178 2.326 . S
In169 O180 2.294 . S
In169 O181 2.326 . S
O170 In169 2.294 . S
O170 C179 1.240 . S
O171 In169 2.326 . S
O171 C179 1.252 . S
C172 O175 1.252 . S
C172 O176 1.247 1_455 S
C173 O180 1.240 . S
C173 O181 1.252 . S
C174 O177 1.252 . S
C174 O178 1.260 . S
O175 In169 2.266 . S
O175 C172 1.252 . S
O176 In169 2.312 1_655 S
O176 C172 1.247 1_655 S
O177 In169 2.266 . S
O177 C174 1.252 . S
O178 In169 2.326 . S
O178 C174 1.260 . S
C179 O170 1.240 . S
C179 O171 1.252 . S
O180 In169 2.294 . S
O180 C173 1.240 . S
O181 In169 2.326 . S
O181 C173 1.252 . S
In182 O183 2.294 . S
In182 O184 2.326 . S
In182 O188 2.266 . S
In182 O189 2.326 . S
In182 O190 2.266 . S
In182 O191 2.312 1_655 S
In182 O193 2.294 . S
In182 O194 2.326 . S
O183 In182 2.294 . S
O183 C192 1.240 . S
O184 In182 2.326 . S
O184 C192 1.252 . S
C185 O188 1.252 . S
C185 O189 1.260 . S
C186 O193 1.240 . S
C186 O194 1.252 . S
C187 O190 1.252 . S
C187 O191 1.247 1_655 S
O188 In182 2.266 . S
O188 C185 1.252 . S
O189 In182 2.326 . S
O189 C185 1.260 . S
O190 In182 2.266 . S
O190 C187 1.252 . S
O191 In182 2.312 1_455 S
O191 C187 1.247 1_455 S
C192 O183 1.240 . S
C192 O184 1.252 . S
O193 In182 2.294 . S
O193 C186 1.240 . S
O194 In182 2.326 . S
O194 C186 1.252 . S
In195 O196 2.294 . S
In195 O197 2.326 . S
In195 O201 2.266 . S
In195 O202 2.326 . S
In195 O203 2.266 . S
In195 O204 2.326 . S
In195 O206 2.294 . S
In195 O207 2.326 . S
O196 In195 2.294 . S
O196 C205 1.240 . S
O197 In195 2.326 . S
O197 C205 1.252 . S
C198 O201 1.252 . S
C198 O202 1.260 . S
C199 O206 1.240 . S
C199 O207 1.252 . S
C200 O203 1.252 . S
C200 O204 1.260 . S
O201 In195 2.266 . S
O201 C198 1.252 . S
O202 In195 2.326 . S
O202 C198 1.260 . S
O203 In195 2.266 . S
O203 C200 1.252 . S
O204 In195 2.326 . S
O204 C200 1.260 . S
C205 O196 1.240 . S
C205 O197 1.252 . S
O206 In195 2.294 . S
O206 C199 1.240 . S
O207 In195 2.326 . S
O207 C199 1.252 . S
C208 C209 1.369 . S
C208 C210 1.419 1_565 S
C208 H212 0.930 . S
C209 C208 1.369 . S
C209 C218 1.429 . S
C210 C208 1.419 1_545 S
C210 C211 1.363 . S
C210 H213 0.929 . S
C211 C210 1.363 . S
C211 C217 1.428 . S
H212 C208 0.930 . S
H213 C210 0.929 . S
S214 N215 1.613 1_545 S
S214 N216 1.610 . S
N215 S214 1.613 1_565 S
N215 C218 1.350 . S
N216 S214 1.610 . S
N216 C217 1.351 . S
C217 C211 1.428 . S
C217 N216 1.351 . S
C217 C218 1.434 1_545 S
C218 C209 1.429 . S
C218 N215 1.350 . S
C218 C217 1.434 1_565 S
C219 C220 1.369 1_545 S
C219 C221 1.419 . S
C219 H223 0.930 . S
C220 C219 1.369 1_565 S
C220 C229 1.429 . S
C221 C219 1.419 . S
C221 C222 1.363 . S
C221 H224 0.929 . S
C222 C221 1.363 . S
C222 C228 1.428 1_545 S
H223 C219 0.930 . S
H224 C221 0.929 . S
S225 N226 1.613 . S
S225 N227 1.610 . S
N226 S225 1.613 . S
N226 C229 1.350 . S
N227 S225 1.610 . S
N227 C228 1.351 . S
C228 C222 1.428 1_565 S
C228 N227 1.351 . S
C228 C229 1.434 . S
C229 C220 1.429 . S
C229 N226 1.350 . S
C229 C228 1.434 . S
C230 C231 1.369 1_545 S
C230 C232 1.419 . S
C230 H234 0.930 . S
C231 C230 1.369 1_565 S
C231 C240 1.429 . S
C232 C230 1.419 . S
C232 C233 1.363 . S
C232 H235 0.929 . S
C233 C232 1.363 . S
C233 C239 1.428 1_545 S
H234 C230 0.930 . S
H235 C232 0.929 . S
S236 N237 1.613 . S
S236 N238 1.610 . S
N237 S236 1.613 . S
N237 C240 1.350 . S
N238 S236 1.610 . S
N238 C239 1.351 . S
C239 C233 1.428 1_565 S
C239 N238 1.351 . S
C239 C240 1.434 . S
C240 C231 1.429 . S
C240 N237 1.350 . S
C240 C239 1.434 . S
C241 C242 1.369 . S
C241 C243 1.419 . S
C241 H245 0.930 . S
C242 C241 1.369 . S
C242 C251 1.429 1_565 S
C243 C241 1.419 . S
C243 C244 1.363 1_565 S
C243 H246 0.929 . S
C244 C243 1.363 1_545 S
C244 C250 1.428 . S
H245 C241 0.930 . S
H246 C243 0.929 . S
S247 N248 1.613 . S
S247 N249 1.610 . S
N248 S247 1.613 . S
N248 C251 1.350 . S
N249 S247 1.610 . S
N249 C250 1.351 . S
C250 C244 1.428 . S
C250 N249 1.351 . S
C250 C251 1.434 . S
C251 C242 1.429 1_545 S
C251 N248 1.350 . S
C251 C250 1.434 . S
C252 C253 1.369 . S
C252 C254 1.419 . S
C252 H256 0.930 . S
C253 C252 1.369 . S
C253 C262 1.429 . S
C254 C252 1.419 . S
C254 C255 1.363 . S
C254 H257 0.929 . S
C255 C254 1.363 . S
C255 C261 1.428 . S
H256 C252 0.930 . S
H257 C254 0.929 . S
S258 N259 1.613 . S
S258 N260 1.610 . S
N259 S258 1.613 . S
N259 C262 1.350 . S
N260 S258 1.610 . S
N260 C261 1.351 . S
C261 C255 1.428 . S
C261 N260 1.351 . S
C261 C262 1.434 . S
C262 C253 1.429 . S
C262 N259 1.350 . S
C262 C261 1.434 . S
C263 C264 1.369 . S
C263 C265 1.419 . S
C263 H267 0.930 . S
C264 C263 1.369 . S
C264 C273 1.429 . S
C265 C263 1.419 . S
C265 C266 1.363 . S
C265 H268 0.929 . S
C266 C265 1.363 . S
C266 C272 1.428 . S
H267 C263 0.930 . S
H268 C265 0.929 . S
S269 N270 1.613 . S
S269 N271 1.610 . S
N270 S269 1.613 . S
N270 C273 1.350 . S
N271 S269 1.610 . S
N271 C272 1.351 . S
C272 C266 1.428 . S
C272 N271 1.351 . S
C272 C273 1.434 . S
C273 C264 1.429 . S
C273 N270 1.350 . S
C273 C272 1.434 . S
C274 C275 1.369 . S
C274 C276 1.419 . S
C274 H278 0.930 . S
C275 C274 1.369 . S
C275 C284 1.429 . S
C276 C274 1.419 . S
C276 C277 1.363 . S
C276 H279 0.929 . S
C277 C276 1.363 . S
C277 C283 1.428 . S
H278 C274 0.930 . S
H279 C276 0.929 . S
S280 N281 1.613 . S
S280 N282 1.610 . S
N281 S280 1.613 . S
N281 C284 1.350 . S
N282 S280 1.610 . S
N282 C283 1.351 . S
C283 C277 1.428 . S
C283 N282 1.351 . S
C283 C284 1.434 . S
C284 C275 1.429 . S
C284 N281 1.350 . S
C284 C283 1.434 . S
C285 C286 1.369 . S
C285 C287 1.419 . S
C285 H289 0.930 . S
C286 C285 1.369 . S
C286 C295 1.429 . S
C287 C285 1.419 . S
C287 C288 1.363 . S
C287 H290 0.929 . S
C288 C287 1.363 . S
C288 C294 1.428 . S
H289 C285 0.930 . S
H290 C287 0.929 . S
S291 N292 1.613 . S
S291 N293 1.610 . S
N292 S291 1.613 . S
N292 C295 1.350 . S
N293 S291 1.610 . S
N293 C294 1.351 . S
C294 C288 1.428 . S
C294 N293 1.351 . S
C294 C295 1.434 . S
C295 C286 1.429 . S
C295 N292 1.350 . S
C295 C294 1.434 . S
C296 C297 1.369 . S
C296 C298 1.419 . S
C296 H300 0.930 . S
C297 C296 1.369 . S
C297 C306 1.429 1_655 S
C298 C296 1.419 . S
C298 C299 1.363 1_655 S
C298 H301 0.929 . S
C299 C298 1.363 1_455 S
C299 C305 1.428 . S
H300 C296 0.930 . S
H301 C298 0.929 . S
S302 N303 1.613 . S
S302 N304 1.610 . S
N303 S302 1.613 . S
N303 C306 1.350 . S
N304 S302 1.610 . S
N304 C305 1.351 . S
C305 C299 1.428 . S
C305 N304 1.351 . S
C305 C306 1.434 . S
C306 C297 1.429 1_455 S
C306 N303 1.350 . S
C306 C305 1.434 . S
C307 C308 1.369 . S
C307 C309 1.419 . S
C307 H311 0.930 . S
C308 C307 1.369 . S
C308 C317 1.429 . S
C309 C307 1.419 . S
C309 C310 1.363 . S
C309 H312 0.929 . S
C310 C309 1.363 . S
C310 C316 1.428 . S
H311 C307 0.930 . S
H312 C309 0.929 . S
S313 N314 1.613 . S
S313 N315 1.610 . S
N314 S313 1.613 . S
N314 C317 1.350 . S
N315 S313 1.610 . S
N315 C316 1.351 . S
C316 C310 1.428 . S
C316 N315 1.351 . S
C316 C317 1.434 . S
C317 C308 1.429 . S
C317 N314 1.350 . S
C317 C316 1.434 . S
C318 C319 1.369 1_655 S
C318 C320 1.419 . S
C318 H322 0.930 . S
C319 C318 1.369 1_455 S
C319 C328 1.429 . S
C320 C318 1.419 . S
C320 C321 1.363 . S
C320 H323 0.929 . S
C321 C320 1.363 . S
C321 C327 1.428 1_655 S
H322 C318 0.930 . S
H323 C320 0.929 . S
S324 N325 1.613 . S
S324 N326 1.610 . S
N325 S324 1.613 . S
N325 C328 1.350 . S
N326 S324 1.610 . S
N326 C327 1.351 . S
C327 C321 1.428 1_455 S
C327 N326 1.351 . S
C327 C328 1.434 . S
C328 C319 1.429 . S
C328 N325 1.350 . S
C328 C327 1.434 . S
C329 C330 1.369 . S
C329 C331 1.419 . S
C329 H333 0.930 . S
C330 C329 1.369 . S
C330 C339 1.429 . S
C331 C329 1.419 . S
C331 C332 1.363 . S
C331 H334 0.929 . S
C332 C331 1.363 . S
C332 C338 1.428 . S
H333 C329 0.930 . S
H334 C331 0.929 . S
S335 N336 1.613 . S
S335 N337 1.610 . S
N336 S335 1.613 . S
N336 C339 1.350 . S
N337 S335 1.610 . S
N337 C338 1.351 . S
C338 C332 1.428 . S
C338 N337 1.351 . S
C338 C339 1.434 . S
C339 C330 1.429 . S
C339 N336 1.350 . S
C339 C338 1.434 . S
C340 C341 1.369 . S
C340 C342 1.419 . S
C340 H344 0.930 . S
C341 C340 1.369 . S
C341 C350 1.429 . S
C342 C340 1.419 . S
C342 C343 1.363 . S
C342 H345 0.929 . S
C343 C342 1.363 . S
C343 C349 1.428 . S
H344 C340 0.930 . S
H345 C342 0.929 . S
S346 N347 1.613 . S
S346 N348 1.610 . S
N347 S346 1.613 . S
N347 C350 1.350 . S
N348 S346 1.610 . S
N348 C349 1.351 . S
C349 C343 1.428 . S
C349 N348 1.351 . S
C349 C350 1.434 . S
C350 C341 1.429 . S
C350 N347 1.350 . S
C350 C349 1.434 . S
C351 C352 1.369 . S
C351 C353 1.419 . S
C351 H355 0.930 . S
C352 C351 1.369 . S
C352 C361 1.429 1_455 S
C353 C351 1.419 . S
C353 C354 1.363 1_455 S
C353 H356 0.929 . S
C354 C353 1.363 1_655 S
C354 C360 1.428 . S
H355 C351 0.930 . S
H356 C353 0.929 . S
S357 N358 1.613 . S
S357 N359 1.610 . S
N358 S357 1.613 . S
N358 C361 1.350 . S
N359 S357 1.610 . S
N359 C360 1.351 . S
C360 C354 1.428 . S
C360 N359 1.351 . S
C360 C361 1.434 . S
C361 C352 1.429 1_655 S
C361 N358 1.350 . S
C361 C360 1.434 . S
C362 C363 1.369 . S
C362 C364 1.419 . S
C362 H366 0.930 . S
C363 C362 1.369 . S
C363 C372 1.429 . S
C364 C362 1.419 . S
C364 C365 1.363 . S
C364 H367 0.929 . S
C365 C364 1.363 . S
C365 C371 1.428 . S
H366 C362 0.930 . S
H367 C364 0.929 . S
S368 N369 1.613 . S
S368 N370 1.610 . S
N369 S368 1.613 . S
N369 C372 1.350 . S
N370 S368 1.610 . S
N370 C371 1.351 . S
C371 C365 1.428 . S
C371 N370 1.351 . S
C371 C372 1.434 . S
C372 C363 1.429 . S
C372 N369 1.350 . S
C372 C371 1.434 . S
C373 C374 1.369 1_655 S
C373 C375 1.419 . S
C373 H377 0.930 . S
C374 C373 1.369 1_455 S
C374 C383 1.429 . S
C375 C373 1.419 . S
C375 C376 1.363 . S
C375 H378 0.929 . S
C376 C375 1.363 . S
C376 C382 1.428 1_655 S
H377 C373 0.930 . S
H378 C375 0.929 . S
S379 N380 1.613 . S
S379 N381 1.610 . S
N380 S379 1.613 . S
N380 C383 1.350 . S
N381 S379 1.610 . S
N381 C382 1.351 . S
C382 C376 1.428 1_455 S
C382 N381 1.351 . S
C382 C383 1.434 . S
C383 C374 1.429 . S
C383 N380 1.350 . S
C383 C382 1.434 . S
C384 C385 1.369 . S
C384 C386 1.419 1_455 S
C384 H388 0.930 . S
C385 C384 1.369 . S
C385 C394 1.429 . S
C386 C384 1.419 1_655 S
C386 C387 1.363 . S
C386 H389 0.929 . S
C387 C386 1.363 . S
C387 C393 1.428 . S
H388 C384 0.930 . S
H389 C386 0.929 . S
S390 N391 1.613 . S
S390 N392 1.610 1_455 S
N391 S390 1.613 . S
N391 C394 1.350 . S
N392 S390 1.610 1_655 S
N392 C393 1.351 . S
C393 C387 1.428 . S
C393 N392 1.351 . S
C393 C394 1.434 1_655 S
C394 C385 1.429 . S
C394 N391 1.350 . S
C394 C393 1.434 1_455 S
C395 C396 1.369 . S
C395 C397 1.419 . S
C395 H399 0.930 . S
C396 C395 1.369 . S
C396 C405 1.429 . S
C397 C395 1.419 . S
C397 C398 1.363 . S
C397 H400 0.929 . S
C398 C397 1.363 . S
C398 C404 1.428 . S
H399 C395 0.930 . S
H400 C397 0.929 . S
S401 N402 1.613 . S
S401 N403 1.610 . S
N402 S401 1.613 . S
N402 C405 1.350 . S
N403 S401 1.610 . S
N403 C404 1.351 . S
C404 C398 1.428 . S
C404 N403 1.351 . S
C404 C405 1.434 . S
C405 C396 1.429 . S
C405 N402 1.350 . S
C405 C404 1.434 . S
C406 C407 1.369 . S
C406 C408 1.419 . S
C406 H410 0.930 . S
C407 C406 1.369 . S
C407 C416 1.429 . S
C408 C406 1.419 . S
C408 C409 1.363 . S
C408 H411 0.929 . S
C409 C408 1.363 . S
C409 C415 1.428 . S
H410 C406 0.930 . S
H411 C408 0.929 . S
S412 N413 1.613 . S
S412 N414 1.610 . S
N413 S412 1.613 . S
N413 C416 1.350 . S
N414 S412 1.610 . S
N414 C415 1.351 . S
C415 C409 1.428 . S
C415 N414 1.351 . S
C415 C416 1.434 . S
C416 C407 1.429 . S
C416 N413 1.350 . S
C416 C415 1.434 . S
C417 C418 1.369 1_655 S
C417 C419 1.419 . S
C417 H421 0.930 . S
C418 C417 1.369 1_455 S
C418 C427 1.429 . S
C419 C417 1.419 . S
C419 C420 1.363 . S
C419 H422 0.929 . S
C420 C419 1.363 . S
C420 C426 1.428 1_655 S
H421 C417 0.930 . S
H422 C419 0.929 . S
S423 N424 1.613 . S
S423 N425 1.610 . S
N424 S423 1.613 . S
N424 C427 1.350 . S
N425 S423 1.610 . S
N425 C426 1.351 . S
C426 C420 1.428 1_455 S
C426 N425 1.351 . S
C426 C427 1.434 . S
C427 C418 1.429 . S
C427 N424 1.350 . S
C427 C426 1.434 . S
C428 C429 1.369 1_655 S
C428 C430 1.419 . S
C428 H432 0.930 . S
C429 C428 1.369 1_455 S
C429 C438 1.429 . S
C430 C428 1.419 . S
C430 C431 1.363 . S
C430 H433 0.929 . S
C431 C430 1.363 . S
C431 C437 1.428 1_655 S
H432 C428 0.930 . S
H433 C430 0.929 . S
S434 N435 1.613 . S
S434 N436 1.610 . S
N435 S434 1.613 . S
N435 C438 1.350 . S
N436 S434 1.610 . S
N436 C437 1.351 . S
C437 C431 1.428 1_455 S
C437 N436 1.351 . S
C437 C438 1.434 . S
C438 C429 1.429 . S
C438 N435 1.350 . S
C438 C437 1.434 . S
C439 C440 1.369 . S
C439 C441 1.419 . S
C439 H443 0.930 . S
C440 C439 1.369 . S
C440 C449 1.429 . S
C441 C439 1.419 . S
C441 C442 1.363 . S
C441 H444 0.929 . S
C442 C441 1.363 . S
C442 C448 1.428 . S
H443 C439 0.930 . S
H444 C441 0.929 . S
S445 N446 1.613 . S
S445 N447 1.610 . S
N446 S445 1.613 . S
N446 C449 1.350 . S
N447 S445 1.610 . S
N447 C448 1.351 . S
C448 C442 1.428 . S
C448 N447 1.351 . S
C448 C449 1.434 . S
C449 C440 1.429 . S
C449 N446 1.350 . S
C449 C448 1.434 . S
C450 C451 1.369 . S
C450 C452 1.419 . S
C450 H454 0.930 . S
C451 C450 1.369 . S
C451 C460 1.429 . S
C452 C450 1.419 . S
C452 C453 1.363 . S
C452 H455 0.929 . S
C453 C452 1.363 . S
C453 C459 1.428 . S
H454 C450 0.930 . S
H455 C452 0.929 . S
S456 N457 1.613 . S
S456 N458 1.610 . S
N457 S456 1.613 . S
N457 C460 1.350 . S
N458 S456 1.610 . S
N458 C459 1.351 . S
C459 C453 1.428 . S
C459 N458 1.351 . S
C459 C460 1.434 . S
C460 C451 1.429 . S
C460 N457 1.350 . S
C460 C459 1.434 . S
C461 C462 1.369 1_655 S
C461 C463 1.419 . S
C461 H465 0.930 . S
C462 C461 1.369 1_455 S
C462 C471 1.429 . S
C463 C461 1.419 . S
C463 C464 1.363 . S
C463 H466 0.929 . S
C464 C463 1.363 . S
C464 C470 1.428 1_655 S
H465 C461 0.930 . S
H466 C463 0.929 . S
S467 N468 1.613 . S
S467 N469 1.610 . S
N468 S467 1.613 . S
N468 C471 1.350 . S
N469 S467 1.610 . S
N469 C470 1.351 . S
C470 C464 1.428 1_455 S
C470 N469 1.351 . S
C470 C471 1.434 . S
C471 C462 1.429 . S
C471 N468 1.350 . S
C471 C470 1.434 . S
C472 C473 1.369 1_545 S
C472 C474 1.419 1_655 S
C472 H476 0.930 . S
C473 C472 1.369 1_565 S
C473 C482 1.429 1_556 S
C474 C472 1.419 1_455 S
C474 C475 1.363 1_556 S
C474 H477 0.929 . S
C475 C474 1.363 1_554 S
C475 C481 1.428 1_545 S
H476 C472 0.930 . S
H477 C474 0.929 . S
S478 N479 1.613 . S
S478 N480 1.610 1_655 S
N479 S478 1.613 . S
N479 C482 1.350 . S
N480 S478 1.610 1_455 S
N480 C481 1.351 . S
C481 C475 1.428 1_565 S
C481 N480 1.351 . S
C481 C482 1.434 1_455 S
C482 C473 1.429 1_554 S
C482 N479 1.350 . S
C482 C481 1.434 1_655 S
C483 C484 1.369 1_565 S
C483 C485 1.419 . S
C483 H487 0.930 . S
C484 C483 1.369 1_545 S
C484 C493 1.429 1_556 S
C485 C483 1.419 . S
C485 C486 1.363 1_556 S
C485 H488 0.929 . S
C486 C485 1.363 1_554 S
C486 C492 1.428 1_565 S
H487 C483 0.930 . S
H488 C485 0.929 . S
S489 N490 1.613 . S
S489 N491 1.610 . S
N490 S489 1.613 . S
N490 C493 1.350 . S
N491 S489 1.610 . S
N491 C492 1.351 . S
C492 C486 1.428 1_545 S
C492 N491 1.351 . S
C492 C493 1.434 . S
C493 C484 1.429 1_554 S
C493 N490 1.350 . S
C493 C492 1.434 . S
C494 C495 1.369 . S
C494 C496 1.419 1_545 S
C494 H498 0.930 . S
C495 C494 1.369 . S
C495 C504 1.430 1_545 S
C496 C494 1.419 1_565 S
C496 C497 1.363 . S
C496 H499 0.929 . S
C497 C496 1.363 . S
C497 C503 1.428 . S
H498 C494 0.930 . S
H499 C496 0.929 . S
S500 N501 1.613 . S
S500 N502 1.610 . S
N501 S500 1.613 . S
N501 C504 1.350 . S
N502 S500 1.610 . S
N502 C503 1.351 . S
C503 C497 1.428 . S
C503 N502 1.351 . S
C503 C504 1.432 . S
C504 C495 1.430 1_565 S
C504 N501 1.350 . S
C504 C503 1.432 . S
C505 C506 1.369 . S
C505 C507 1.419 1_565 S
C505 H509 0.930 . S
C506 C505 1.369 . S
C506 C515 1.429 1_455 S
C507 C505 1.419 1_545 S
C507 C508 1.363 1_455 S
C507 H510 0.929 . S
C508 C507 1.363 1_655 S
C508 C514 1.428 . S
H509 C505 0.930 . S
H510 C507 0.929 . S
S511 N512 1.613 . S
S511 N513 1.610 1_565 S
N512 S511 1.613 . S
N512 C515 1.350 . S
N513 S511 1.610 1_545 S
N513 C514 1.351 . S
C514 C508 1.428 . S
C514 N513 1.351 . S
C514 C515 1.434 1_545 S
C515 C506 1.429 1_655 S
C515 N512 1.350 . S
C515 C514 1.434 1_565 S
C516 C517 1.369 . S
C516 C518 1.419 1_554 S
C516 H520 0.930 . S
C517 C516 1.369 . S
C517 C526 1.429 . S
C518 C516 1.419 1_556 S
C518 C519 1.363 . S
C518 H521 0.929 . S
C519 C518 1.363 . S
C519 C525 1.428 . S
H520 C516 0.930 . S
H521 C518 0.929 . S
S522 N523 1.613 1_556 S
S522 N524 1.610 . S
N523 S522 1.613 1_554 S
N523 C526 1.350 . S
N524 S522 1.610 . S
N524 C525 1.351 . S
C525 C519 1.428 . S
C525 N524 1.351 . S
C525 C526 1.434 1_556 S
C526 C517 1.429 . S
C526 N523 1.350 . S
C526 C525 1.434 1_554 S
C527 C528 1.369 . S
C527 C529 1.419 1_554 S
C527 H531 0.930 . S
C528 C527 1.369 . S
C528 C537 1.429 1_655 S
C529 C527 1.419 1_556 S
C529 C530 1.363 1_655 S
C529 H532 0.929 . S
C530 C529 1.363 1_455 S
C530 C536 1.425 1_556 S
H531 C527 0.930 . S
H532 C529 0.929 . S
S533 N534 1.613 . S
S533 N535 1.610 . S
N534 S533 1.613 . S
N534 C537 1.350 . S
N535 S533 1.610 . S
N535 C536 1.352 . S
C536 C530 1.425 1_554 S
C536 N535 1.352 . S
C536 C537 1.437 . S
C537 C528 1.429 1_455 S
C537 N534 1.350 . S
C537 C536 1.437 . S
C538 C539 1.369 1_455 S
C538 C540 1.419 . S
C538 H542 0.930 . S
C539 C538 1.369 1_655 S
C539 C548 1.429 . S
C540 C538 1.419 . S
C540 C541 1.363 . S
C540 H543 0.929 . S
C541 C540 1.363 . S
C541 C547 1.428 1_455 S
H542 C538 0.930 . S
H543 C540 0.929 . S
S544 N545 1.613 . S
S544 N546 1.610 . S
N545 S544 1.613 . S
N545 C548 1.350 . S
N546 S544 1.610 . S
N546 C547 1.351 . S
C547 C541 1.428 1_655 S
C547 N546 1.351 . S
C547 C548 1.434 . S
C548 C539 1.429 . S
C548 N545 1.350 . S
C548 C547 1.434 . S
C549 C550 1.369 . S
C549 C551 1.419 . S
C549 H553 0.930 . S
C550 C549 1.369 . S
C550 C559 1.429 . S
C551 C549 1.419 . S
C551 C552 1.363 . S
C551 H554 0.929 . S
C552 C551 1.363 . S
C552 C558 1.428 . S
H553 C549 0.930 . S
H554 C551 0.929 . S
S555 N556 1.613 . S
S555 N557 1.610 . S
N556 S555 1.613 . S
N556 C559 1.350 . S
N557 S555 1.610 . S
N557 C558 1.351 . S
C558 C552 1.428 . S
C558 N557 1.351 . S
C558 C559 1.434 . S
C559 C550 1.429 . S
C559 N556 1.350 . S
C559 C558 1.434 . S
C209 C23 1.506 . S
C211 C10 1.506 . S
C220 C30 1.506 . S
C222 C43 1.506 . S
C231 C56 1.506 . S
C233 C75 1.506 . S
C242 C95 1.506 . S
C244 C82 1.506 . S
C253 C127 1.506 . S
C255 C114 1.506 . S
C264 C147 1.506 . S
C266 C134 1.506 . S
C275 C179 1.506 . S
C277 C166 1.506 . S
C286 C199 1.506 . S
C288 C186 1.506 . S
C297 C42 1.516 . S
C299 C5 1.516 . S
C308 C18 1.516 . S
C310 C29 1.516 . S
C319 C94 1.515 . S
C321 C55 1.515 . S
C330 C81 1.516 . S
C332 C70 1.515 . S
C341 C109 1.516 . S
C343 C146 1.516 . S
C352 C133 1.516 . S
C354 C122 1.516 . S
C363 C198 1.516 . S
C365 C161 1.516 . S
C374 C174 1.515 . S
C376 C185 1.516 . S
C385 C3 1.468 . S
C387 C120 1.468 . S
C396 C16 1.468 . S
C398 C107 1.468 . S
C407 C148 1.467 . S
C409 C31 1.467 . S
C418 C135 1.467 . S
C420 C44 1.467 . S
C429 C172 1.467 . S
C431 C57 1.467 . S
C440 C159 1.468 . S
C442 C68 1.468 . S
C451 C83 1.467 . S
C453 C200 1.467 . S
C462 C96 1.468 . S
C464 C187 1.467 . S
C473 C62 1.525 . S
C475 C4 1.524 . S
C484 C69 1.525 . S
C486 C17 1.524 . S
C495 C88 1.524 . S
C497 C36 1.524 . S
C506 C101 1.524 . S
C508 C49 1.524 . S
C517 C108 1.524 . S
C519 C160 1.524 . S
C528 C121 1.524 . S
C530 C173 1.525 . S
C539 C192 1.523 . S
C541 C140 1.525 . S
C550 C205 1.523 . S
C552 C153 1.525 . S
