# Generated by pormake.
# Topology can, (4)-cn, num edge types: 1
# Building blocks:
#     Node 0, Type 0, BuildingBlock: CEKHIL_clean_sbu_0, # of connection points: 4
#     Node 1, Type 0, BuildingBlock: CEKHIL_clean_sbu_0, # of connection points: 4
#     Node 2, Type 0, BuildingBlock: CEKHIL_clean_sbu_0, # of connection points: 4
#     Node 3, Type 0, BuildingBlock: CEKHIL_clean_sbu_0, # of connection points: 4
#     Node 4, Type 0, BuildingBlock: CEKHIL_clean_sbu_0, # of connection points: 4
#     Node 5, Type 0, BuildingBlock: CEKHIL_clean_sbu_0, # of connection points: 4
#     Node 6, Type 0, BuildingBlock: CEKHIL_clean_sbu_0, # of connection points: 4
#     Node 7, Type 0, BuildingBlock: CEKHIL_clean_sbu_0, # of connection points: 4
#     Node 8, Type 0, BuildingBlock: CEKHIL_clean_sbu_0, # of connection points: 4
#     Node 9, Type 0, BuildingBlock: CEKHIL_clean_sbu_0, # of connection points: 4
#     Node 10, Type 0, BuildingBlock: CEKHIL_clean_sbu_0, # of connection points: 4
#     Node 11, Type 0, BuildingBlock: CEKHIL_clean_sbu_0, # of connection points: 4
#     Edge 12, Type (0, 0), BuildingBlock: MIFKUJ_clean_linker_0, # of connection points: 2
#     Edge 13, Type (0, 0), BuildingBlock: MIFKUJ_clean_linker_0, # of connection points: 2
#     Edge 14, Type (0, 0), BuildingBlock: MIFKUJ_clean_linker_0, # of connection points: 2
#     Edge 15, Type (0, 0), BuildingBlock: MIFKUJ_clean_linker_0, # of connection points: 2
#     Edge 16, Type (0, 0), BuildingBlock: MIFKUJ_clean_linker_0, # of connection points: 2
#     Edge 17, Type (0, 0), BuildingBlock: MIFKUJ_clean_linker_0, # of connection points: 2
#     Edge 18, Type (0, 0), BuildingBlock: MIFKUJ_clean_linker_0, # of connection points: 2
#     Edge 19, Type (0, 0), BuildingBlock: MIFKUJ_clean_linker_0, # of connection points: 2
#     Edge 20, Type (0, 0), BuildingBlock: MIFKUJ_clean_linker_0, # of connection points: 2
#     Edge 21, Type (0, 0), BuildingBlock: MIFKUJ_clean_linker_0, # of connection points: 2
#     Edge 22, Type (0, 0), BuildingBlock: MIFKUJ_clean_linker_0, # of connection points: 2
#     Edge 23, Type (0, 0), BuildingBlock: MIFKUJ_clean_linker_0, # of connection points: 2
#     Edge 24, Type (0, 0), BuildingBlock: MIFKUJ_clean_linker_0, # of connection points: 2
#     Edge 25, Type (0, 0), BuildingBlock: MIFKUJ_clean_linker_0, # of connection points: 2
#     Edge 26, Type (0, 0), BuildingBlock: MIFKUJ_clean_linker_0, # of connection points: 2
#     Edge 27, Type (0, 0), BuildingBlock: MIFKUJ_clean_linker_0, # of connection points: 2
#     Edge 28, Type (0, 0), BuildingBlock: MIFKUJ_clean_linker_0, # of connection points: 2
#     Edge 29, Type (0, 0), BuildingBlock: MIFKUJ_clean_linker_0, # of connection points: 2
#     Edge 30, Type (0, 0), BuildingBlock: MIFKUJ_clean_linker_0, # of connection points: 2
#     Edge 31, Type (0, 0), BuildingBlock: MIFKUJ_clean_linker_0, # of connection points: 2
#     Edge 32, Type (0, 0), BuildingBlock: MIFKUJ_clean_linker_0, # of connection points: 2
#     Edge 33, Type (0, 0), BuildingBlock: MIFKUJ_clean_linker_0, # of connection points: 2
#     Edge 34, Type (0, 0), BuildingBlock: MIFKUJ_clean_linker_0, # of connection points: 2
#     Edge 35, Type (0, 0), BuildingBlock: MIFKUJ_clean_linker_0, # of connection points: 2
# Relax obj value: 0.060
# Max RMSD: 0.044
# Mean RMSD: 0.044
data_MOF--net-can--node1-CEKHIL_clean_sbu_0--edge1-MIFKUJ_clean_linker_0
_symmetry_space_group_name_H-M    P1
_symmetry_Int_Tables_number       1
_symmetry_cell_setting            triclinic
loop_
_symmetry_equiv_pos_as_xyz
'x, y, z'
_cell_length_a     70.629373
_cell_length_b     70.616631
_cell_length_c     35.579995
_cell_angle_alpha  89.988384
_cell_angle_beta   90.01764
_cell_angle_gamma 119.99583
loop_
_atom_site_label
_atom_site_type_symbol
_atom_site_fract_x
_atom_site_fract_y
_atom_site_fract_z
_atom_type_partial_charge
Co0 Co 0.06419 0.39406 0.26183 0.0
O1 O 0.07633 0.37494 0.26227 0.0
O2 O 0.09349 0.4089 0.24096 0.0
C3 C 0.05154 0.38691 0.32146 0.0
O4 O 0.05769 0.41922 0.25897 0.0
Co5 Co 0.01429 0.37599 0.27326 0.0
O6 O 0.02297 0.40724 0.27704 0.0
C7 C 0.0306 0.37105 0.19942 0.0
C8 C 0.09408 0.39118 0.24863 0.0
C9 C 0.04182 0.42256 0.26725 0.0
O10 O 0.05063 0.38288 0.21038 0.0
O11 O 0.01421 0.3652 0.22129 0.0
O12 O 0.07197 0.40088 0.31492 0.0
O13 O 0.04009 0.37651 0.29248 0.0
Co14 Co 0.67339 0.06423 0.75481 0.0
O15 O 0.7048 0.07755 0.75378 0.0
O16 O 0.6864 0.09338 0.73383 0.0
C17 C 0.66901 0.05182 0.81451 0.0
O18 O 0.64136 0.05643 0.75312 0.0
Co19 Co 0.64317 0.01417 0.76714 0.0
O20 O 0.61978 0.02171 0.7722 0.0
C21 C 0.66348 0.03076 0.6927 0.0
C22 C 0.70522 0.09484 0.74029 0.0
C23 C 0.62251 0.04024 0.7622 0.0
O24 O 0.67094 0.05072 0.70341 0.0
O25 O 0.65373 0.01437 0.71489 0.0
O26 O 0.67457 0.07203 0.80786 0.0
O27 O 0.66821 0.04051 0.78548 0.0
Co28 Co 0.61198 0.67287 0.25368 0.0
O29 O 0.63009 0.70426 0.25359 0.0
O30 O 0.59612 0.68612 0.2324 0.0
C31 C 0.61944 0.66819 0.3134 0.0
O32 O 0.5878 0.64093 0.25081 0.0
Co33 Co 0.63107 0.64222 0.26642 0.0
O34 O 0.60004 0.6199 0.27618 0.0
C35 C 0.63657 0.66378 0.19262 0.0
C36 C 0.61342 0.70485 0.2396 0.0
C37 C 0.58457 0.62252 0.26375 0.0
O38 O 0.62369 0.67088 0.20277 0.0
O39 O 0.64276 0.65366 0.21488 0.0
O40 O 0.60458 0.67341 0.30645 0.0
O41 O 0.63029 0.66757 0.28473 0.0
Co42 Co 0.94067 0.61074 0.75599 0.0
O43 O 0.92761 0.62903 0.75703 0.0
O44 O 0.91124 0.5951 0.73564 0.0
C45 C 0.95348 0.61818 0.81545 0.0
O46 O 0.94816 0.58634 0.75253 0.0
Co47 Co 0.99059 0.62983 0.76715 0.0
O48 O 0.98252 0.59879 0.77288 0.0
C49 C 0.97367 0.63303 0.69253 0.0
C50 C 0.91006 0.61247 0.74359 0.0
C51 C 0.96402 0.58326 0.76209 0.0
O52 O 0.95374 0.62213 0.70434 0.0
O53 O 0.99028 0.63869 0.71384 0.0
O54 O 0.93331 0.60342 0.80897 0.0
O55 O 0.96468 0.62903 0.78655 0.0
Co56 Co 0.33252 0.93917 0.25695 0.0
O57 O 0.30121 0.92705 0.25422 0.0
O58 O 0.31883 0.9101 0.23582 0.0
C59 C 0.33627 0.95137 0.31674 0.0
O60 O 0.36401 0.9453 0.25665 0.0
Co61 Co 0.36535 0.98837 0.27115 0.0
O62 O 0.3859 0.97785 0.2837 0.0
C63 C 0.34663 0.97331 0.19484 0.0
C64 C 0.3003 0.90941 0.24127 0.0
C65 C 0.38248 0.95957 0.27087 0.0
O66 O 0.33657 0.95315 0.20559 0.0
O67 O 0.35769 0.98937 0.21718 0.0
O68 O 0.32994 0.93098 0.31 0.0
O69 O 0.3385 0.9632 0.2876 0.0
Co70 Co 0.39153 0.33103 0.75298 0.0
O71 O 0.37399 0.29969 0.75675 0.0
O72 O 0.40743 0.31741 0.73318 0.0
C73 C 0.38503 0.33798 0.81193 0.0
O74 O 0.41519 0.36297 0.7468 0.0
Co75 Co 0.37106 0.36077 0.76116 0.0
O76 O 0.40195 0.38466 0.76454 0.0
C77 C 0.36506 0.33648 0.69052 0.0
C78 C 0.39051 0.29886 0.74272 0.0
C79 C 0.41777 0.38192 0.75467 0.0
O80 O 0.3788 0.33067 0.70167 0.0
O81 O 0.35845 0.34675 0.7115 0.0
O82 O 0.4 0.33281 0.80573 0.0
O83 O 0.37341 0.33702 0.78325 0.0
Co84 Co 0.61411 0.94004 0.24025 0.0
O85 O 0.63232 0.92681 0.24136 0.0
O86 O 0.59796 0.91081 0.26064 0.0
C87 C 0.6224 0.95293 0.18094 0.0
O88 O 0.58972 0.94754 0.2419 0.0
Co89 Co 0.63322 0.99004 0.22927 0.0
O90 O 0.60226 0.98172 0.22055 0.0
C91 C 0.63756 0.97306 0.30285 0.0
C92 C 0.61536 0.90942 0.25441 0.0
C93 C 0.58664 0.96321 0.23107 0.0
O94 O 0.62476 0.95322 0.2919 0.0
O95 O 0.64424 0.98962 0.28103 0.0
O96 O 0.60793 0.93259 0.18702 0.0
O97 O 0.63262 0.96412 0.21028 0.0
Co98 Co 0.67296 0.61033 0.73996 0.0
O99 O 0.70431 0.62806 0.73737 0.0
O100 O 0.68652 0.59457 0.76092 0.0
C101 C 0.66717 0.61718 0.68035 0.0
O102 O 0.64093 0.58649 0.74486 0.0
Co103 Co 0.64291 0.63038 0.72851 0.0
O104 O 0.61938 0.59943 0.72466 0.0
C105 C 0.66433 0.63483 0.80222 0.0
C106 C 0.70506 0.61155 0.75161 0.0
C107 C 0.62205 0.58377 0.7358 0.0
O108 O 0.6722 0.62275 0.79111 0.0
O109 O 0.65382 0.64084 0.78055 0.0
O110 O 0.67223 0.60218 0.68716 0.0
O111 O 0.66736 0.62846 0.70898 0.0
Co112 Co 0.06406 0.67562 0.24131 0.0
O113 O 0.07709 0.70701 0.24039 0.0
O114 O 0.09299 0.68931 0.26331 0.0
C115 C 0.05229 0.67011 0.18116 0.0
O116 O 0.05668 0.64381 0.24534 0.0
Co117 Co 0.01441 0.64457 0.22805 0.0
O118 O 0.02269 0.62163 0.22375 0.0
C119 C 0.02987 0.66625 0.3019 0.0
C120 C 0.09433 0.7079 0.25516 0.0
C121 C 0.04111 0.62479 0.23546 0.0
O122 O 0.04998 0.67388 0.29189 0.0
O123 O 0.01374 0.65582 0.27945 0.0
O124 O 0.07242 0.67581 0.18885 0.0
O125 O 0.04058 0.6697 0.20933 0.0
Co126 Co 0.39299 0.06464 0.74151 0.0
O127 O 0.37495 0.07799 0.74056 0.0
O128 O 0.40923 0.09434 0.76027 0.0
C129 C 0.38466 0.05056 0.68288 0.0
O130 O 0.41709 0.05677 0.74468 0.0
Co131 Co 0.37256 0.01423 0.73441 0.0
O132 O 0.40343 0.0214 0.7293 0.0
C133 C 0.36912 0.03324 0.80614 0.0
C134 C 0.39185 0.09562 0.75302 0.0
C135 C 0.41947 0.0402 0.73745 0.0
O136 O 0.3824 0.05267 0.79389 0.0
O137 O 0.36162 0.01613 0.78549 0.0
O138 O 0.39929 0.07095 0.688 0.0
O139 O 0.37424 0.04008 0.71265 0.0
Co140 Co 0.33055 0.39213 0.24018 0.0
O141 O 0.29924 0.37405 0.23744 0.0
O142 O 0.31659 0.40719 0.26238 0.0
C143 C 0.33646 0.38627 0.18003 0.0
O144 O 0.36248 0.41628 0.24556 0.0
Co145 Co 0.36147 0.37336 0.22685 0.0
O146 O 0.38358 0.40455 0.21878 0.0
C147 C 0.33988 0.36729 0.3009 0.0
C148 C 0.29817 0.39018 0.25263 0.0
C149 C 0.38097 0.41977 0.23245 0.0
O150 O 0.33146 0.37902 0.29049 0.0
O151 O 0.35104 0.36226 0.27891 0.0
O152 O 0.3311 0.40095 0.18783 0.0
O153 O 0.33656 0.37474 0.20807 0.0
Co154 Co 0.94015 0.32961 0.74748 0.0
O155 O 0.92663 0.29816 0.74767 0.0
O156 O 0.91085 0.3166 0.7677 0.0
C157 C 0.95303 0.3346 0.68811 0.0
O158 O 0.94807 0.36163 0.74981 0.0
Co159 Co 0.99031 0.35968 0.73694 0.0
O160 O 0.98298 0.38325 0.73184 0.0
C161 C 0.97297 0.33764 0.80975 0.0
C162 C 0.90928 0.29778 0.76078 0.0
C163 C 0.96435 0.3805 0.74116 0.0
O164 O 0.95324 0.33146 0.79909 0.0
O165 O 0.9895 0.34716 0.78783 0.0
O166 O 0.93279 0.32901 0.69437 0.0
O167 O 0.96409 0.33499 0.71728 0.0
H168 H 0.99122 0.35459 0.16435 0.0
H169 H 0.98261 0.34538 0.09867 0.0
H170 H 0.04958 0.36324 0.07674 0.0
H171 H 0.05866 0.37333 0.14313 0.0
H172 H 0.03562 0.37928 0.02432 0.0
H173 H 0.00669 0.3083 0.07801 0.0
H174 H 0.98547 0.27835 0.12272 0.0
H175 H 0.92627 0.27613 0.08733 0.0
H176 H 0.94716 0.30627 0.04276 0.0
H177 H 0.00989 0.34017 0.83884 0.0
H178 H 0.01988 0.34182 0.90476 0.0
H179 H 0.95688 0.3321 0.93768 0.0
H180 H 0.94654 0.33016 0.87135 0.0
H181 H 0.97076 0.30991 0.98363 0.0
H182 H 1.00066 0.38306 0.93413 0.0
H183 H 0.02204 0.41292 0.88934 0.0
H184 H 0.07993 0.41045 0.91711 0.0
H185 H 0.05882 0.38035 0.96171 0.0
C186 C 0.0042 0.35641 0.14586 0.0
C187 C 0.02567 0.36459 0.15928 0.0
C188 C 0.99916 0.35097 0.10813 0.0
C189 C 0.01528 0.3531 0.08275 0.0
C190 C 0.0368 0.36128 0.09586 0.0
C191 C 0.04197 0.36702 0.1338 0.0
C192 C 0.00965 0.3478 0.04233 0.0
C193 C 0.02173 0.36391 0.01541 0.0
C194 C 0.9912 0.32792 0.0306 0.0
C195 C 0.97853 0.30965 0.05719 0.0
C196 C 0.98916 0.30152 0.07992 0.0
C197 C 0.97719 0.28449 0.10522 0.0
C198 C 0.95454 0.27537 0.1079 0.0
C199 C 0.94381 0.28321 0.08522 0.0
C200 C 0.95571 0.30025 0.05989 0.0
C201 C 0.99799 0.33812 0.86 0.0
C202 C 0.97749 0.33533 0.84973 0.0
C203 C 0.00379 0.33912 0.89774 0.0
C204 C 0.98933 0.33757 0.92613 0.0
C205 C 0.96835 0.33347 0.91617 0.0
C206 C 0.96245 0.33235 0.87825 0.0
C207 C 0.99661 0.34147 0.96597 0.0
C208 C 0.98482 0.32513 0.99266 0.0
C209 C 0.01537 0.36108 0.9775 0.0
C210 C 0.02811 0.37932 0.95096 0.0
C211 C 0.01792 0.38879 0.93049 0.0
C212 C 0.02999 0.40577 0.90516 0.0
C213 C 0.05232 0.41354 0.90031 0.0
C214 C 0.06263 0.40439 0.92086 0.0
C215 C 0.05062 0.38738 0.94618 0.0
H216 H 0.06164 0.42668 0.88068 0.0
H217 H 0.9453 0.2622 0.12753 0.0
H218 H 0.67029 0.01074 0.33334 0.0
H219 H 0.67777 0.02013 0.39961 0.0
H220 H 0.62676 0.95537 0.43016 0.0
H221 H 0.61896 0.94581 0.36351 0.0
H222 H 0.62245 0.98671 0.46624 0.0
H223 H 0.67994 0.97099 0.44527 0.0
H224 H 0.712 0.97323 0.41347 0.0
H225 H 0.74909 0.04205 0.43671 0.0
H226 H 0.71714 0.04029 0.46821 0.0
H227 H 0.64374 0.99071 0.65911 0.0
H228 H 0.64282 0.98221 0.59281 0.0
H229 H 0.68477 0.05055 0.56767 0.0
H230 H 0.68568 0.05949 0.63474 0.0
H231 H 0.69477 0.01863 0.52901 0.0
H232 H 0.63658 0.03395 0.54935 0.0
H233 H 0.60448 0.03098 0.5822 0.0
H234 H 0.56868 0.96195 0.56036 0.0
H235 H 0.60072 0.96445 0.52789 0.0
C236 C 0.66079 0.99834 0.35406 0.0
C237 C 0.6439 0.97753 0.34304 0.0
C238 C 0.66521 0.00373 0.39202 0.0
C239 C 0.65288 0.98845 0.41988 0.0
C240 C 0.63648 0.96742 0.40908 0.0
C241 C 0.63211 0.96194 0.37098 0.0
C242 C 0.65609 0.99505 0.46005 0.0
C243 C 0.63821 0.99337 0.48007 0.0
C244 C 0.67681 0.0044 0.47778 0.0
C245 C 0.69606 0.00555 0.45877 0.0
C246 C 0.69486 0.98665 0.4433 0.0
C247 C 0.71303 0.98782 0.42539 0.0
C248 C 0.73255 0.00778 0.42298 0.0
C249 C 0.73395 0.02661 0.43855 0.0
C250 C 0.71582 0.02553 0.45647 0.0
C251 C 0.65301 0.00406 0.63979 0.0
C252 C 0.66472 0.02588 0.65243 0.0
C253 C 0.6524 0.99909 0.60178 0.0
C254 C 0.66358 0.01574 0.57541 0.0
C255 C 0.67603 0.03748 0.58775 0.0
C256 C 0.67646 0.04255 0.626 0.0
C257 C 0.66113 0.01015 0.53492 0.0
C258 C 0.6791 0.01201 0.51496 0.0
C259 C 0.64048 1.00092 0.51715 0.0
C260 C 0.62114 0.99935 0.53652 0.0
C261 C 0.62194 0.0181 0.55187 0.0
C262 C 0.60374 0.01651 0.57036 0.0
C263 C 0.58457 0.99628 0.57346 0.0
C264 C 0.58355 0.9776 0.55798 0.0
C265 C 0.60172 0.9791 0.5395 0.0
H266 H 0.5705 0.99509 0.58777 0.0
H267 H 0.74661 0.00866 0.40912 0.0
H268 H 0.61787 0.6711 0.13078 0.0
H269 H 0.6263 0.66895 0.06467 0.0
H270 H 0.67907 0.65852 0.09814 0.0
H271 H 0.67081 0.66064 0.16414 0.0
H272 H 0.68965 0.68551 0.0353 0.0
H273 H 0.63279 0.61581 0.07737 0.0
H274 H 0.59766 0.58999 0.10711 0.0
H275 H 0.56329 0.60567 0.02451 0.0
H276 H 0.59828 0.63188 0.99461 0.0
H277 H 0.68975 0.63195 0.85869 0.0
H278 H 0.68896 0.6397 0.92599 0.0
H279 H 0.64034 0.65815 0.90399 0.0
H280 H 0.64121 0.65097 0.83752 0.0
H281 H 0.62941 0.62601 0.96228 0.0
H282 H 0.68735 0.6967 0.92146 0.0
H283 H 0.72286 0.72198 0.89231 0.0
H284 H 0.75562 0.70306 0.97286 0.0
H285 H 0.72022 0.67739 0.00217 0.0
C286 C 0.63152 0.66876 0.12409 0.0
C287 C 0.6435 0.6658 0.15276 0.0
C288 C 0.63627 0.66744 0.08631 0.0
C289 C 0.65314 0.66328 0.07656 0.0
C290 C 0.66596 0.66167 0.10505 0.0
C291 C 0.66111 0.66279 0.14277 0.0
C292 C 0.65633 0.65898 0.03691 0.0
C293 C 0.67658 0.67235 0.01943 0.0
C294 C 0.63927 0.6418 0.01624 0.0
C295 C 0.61817 0.62599 0.03401 0.0
C296 C 0.61775 0.6139 0.06575 0.0
C297 C 0.59787 0.59917 0.0826 0.0
C298 C 0.57826 0.59624 0.06777 0.0
C299 C 0.5785 0.60799 0.036 0.0
C300 C 0.59836 0.62279 0.01907 0.0
C301 C 0.67909 0.63788 0.86819 0.0
C302 C 0.66558 0.64083 0.84257 0.0
C303 C 0.67866 0.64231 0.90657 0.0
C304 C 0.66452 0.64943 0.91984 0.0
C305 C 0.65131 0.65263 0.89431 0.0
C306 C 0.65196 0.64858 0.85617 0.0
C307 C 0.66256 0.6528 0.96044 0.0
C308 C 0.64252 0.63912 0.97818 0.0
C309 C 0.67985 0.66956 0.98131 0.0
C310 C 0.70112 0.6849 0.96367 0.0
C311 C 0.7021 0.69774 0.93269 0.0
C312 C 0.72221 0.71218 0.9162 0.0
C313 C 0.74148 0.71407 0.93063 0.0
C314 C 0.74067 0.70154 0.96165 0.0
C315 C 0.72059 0.68705 0.97822 0.0
H316 H 0.75703 0.72528 0.91785 0.0
H317 H 0.56288 0.58482 0.08085 0.0
H318 H 0.05785 0.68234 0.36267 0.0
H319 H 0.04766 0.67979 0.42921 0.0
H320 H 0.97982 0.65091 0.39805 0.0
H321 H 0.98965 0.65344 0.33199 0.0
H322 H 0.02291 0.69453 0.47347 0.0
H323 H 0.95162 0.60633 0.45655 0.0
H324 H 0.9402 0.57477 0.4142 0.0
H325 H 0.00737 0.59622 0.38885 0.0
H326 H 0.0192 0.62764 0.43156 0.0
H327 H 0.94795 0.63767 0.63887 0.0
H328 H 0.95666 0.64633 0.57168 0.0
H329 H 0.01774 0.64757 0.58764 0.0
H330 H 0.00963 0.63962 0.65415 0.0
H331 H 0.97691 0.61852 0.52006 0.0
H332 H 0.03808 0.68849 0.57576 0.0
H333 H 0.04938 0.71993 0.61837 0.0
H334 H 0.00338 0.73447 0.56573 0.0
H335 H 0.99159 0.70285 0.52324 0.0
C336 C 0.0408 0.67581 0.36992 0.0
C337 C 0.02459 0.66785 0.34184 0.0
C338 C 0.03502 0.67441 0.40796 0.0
C339 C 0.01296 0.66489 0.4185 0.0
C340 C 0.99692 0.65808 0.39052 0.0
C341 C 0.00263 0.65955 0.35267 0.0
C342 C 0.00639 0.66037 0.45857 0.0
C343 C 0.01291 0.67791 0.48359 0.0
C344 C 0.99314 0.63869 0.47182 0.0
C345 C 0.98626 0.61947 0.44693 0.0
C346 C 0.96395 0.60423 0.4421 0.0
C347 C 0.95741 0.58637 0.41803 0.0
C348 C 0.97305 0.58353 0.39875 0.0
C349 C 0.99527 0.59846 0.40371 0.0
C350 C 1.0019 0.61631 0.42782 0.0
C351 C 0.96327 0.63993 0.62801 0.0
C352 C 0.97819 0.63821 0.65196 0.0
C353 C 0.96822 0.64488 0.58976 0.0
C354 C 0.98798 0.64786 0.57502 0.0
C355 C 0.0026 0.6457 0.59867 0.0
C356 C 0.9979 0.64117 0.63674 0.0
C357 C 0.99346 0.65264 0.53472 0.0
C358 C 0.98672 0.63512 0.5097 0.0
C359 C 0.00663 0.67425 0.52154 0.0
C360 C 0.01378 0.69322 0.54679 0.0
C361 C 0.03024 0.69827 0.57359 0.0
C362 C 0.03676 0.71613 0.59764 0.0
C363 C 0.02705 0.72914 0.59485 0.0
C364 C 0.01084 0.72434 0.56793 0.0
C365 C 0.00422 0.70645 0.5439 0.0
H366 H 0.03213 0.74298 0.61347 0.0
H367 H 0.96794 0.56975 0.38 0.0
H368 H 0.33285 0.99971 0.83852 0.0
H369 H 0.3266 0.9905 0.90527 0.0
H370 H 0.38707 0.04898 0.93237 0.0
H371 H 0.39335 0.05848 0.86544 0.0
H372 H 0.38365 0.01055 0.9622 0.0
H373 H 0.34157 0.04645 0.95761 0.0
H374 H 0.31352 0.05437 0.93362 0.0
H375 H 0.26344 0.98848 0.95772 0.0
H376 H 0.29126 0.98007 0.98136 0.0
H377 H 0.37555 0.01079 0.15904 0.0
H378 H 0.37645 0.02005 0.09297 0.0
H379 H 0.31869 0.95778 0.07242 0.0
H380 H 0.31775 0.94807 0.13916 0.0
H381 H 0.31929 0.99663 0.03898 0.0
H382 H 0.36142 0.96079 0.04368 0.0
H383 H 0.38952 0.95306 0.06811 0.0
H384 H 0.43949 0.0189 0.04347 0.0
H385 H 0.41162 0.02714 0.01945 0.0
C386 C 0.34462 0.01085 0.85873 0.0
C387 C 0.36364 0.0298 0.84669 0.0
C388 C 0.34099 0.00557 0.89688 0.0
C389 C 0.35639 0.01902 0.92376 0.0
C390 C 0.37499 0.03839 0.91202 0.0
C391 C 0.37848 0.04387 0.87382 0.0
C392 C 0.35387 0.0119 0.96359 0.0
C393 C 0.36974 0.00782 0.97915 0.0
C394 C 0.33532 0.00761 0.98523 0.0
C395 C 0.31854 0.01256 0.97086 0.0
C396 C 0.32461 0.03358 0.95743 0.0
C397 C 0.30874 0.03817 0.94398 0.0
C398 C 0.28672 0.02192 0.94404 0.0
C399 C 0.28051 1.00105 0.95763 0.0
C400 C 0.29633 0.99636 0.97109 0.0
C401 C 0.3629 0.999 0.14069 0.0
C402 C 0.34653 0.97864 0.15449 0.0
C403 C 0.36352 0.00435 0.10284 0.0
C404 C 0.3477 0.9896 0.07784 0.0
C405 C 0.33104 0.96939 0.09139 0.0
C406 C 0.33059 0.96383 0.1294 0.0
C407 C 0.34915 0.99547 0.03752 0.0
C408 C 0.33312 0.99929 0.0219 0.0
C409 C 0.36754 0.9995 0.01569 0.0
C410 C 0.38439 0.99465 0.03012 0.0
C411 C 0.37837 0.97369 0.04382 0.0
C412 C 0.39426 0.9692 0.05752 0.0
C413 C 0.41627 0.9855 0.05744 0.0
C414 C 0.42243 0.0063 0.04357 0.0
C415 C 0.40659 0.01089 0.02988 0.0
H416 H 0.42856 0.98198 0.06804 0.0
H417 H 0.27445 0.02551 0.93364 0.0
H418 H 0.31186 0.36639 0.35594 0.0
H419 H 0.31063 0.35598 0.42209 0.0
H420 H 0.36316 0.34273 0.402 0.0
H421 H 0.36387 0.35213 0.33628 0.0
H422 H 0.33603 0.31336 0.44674 0.0
H423 H 0.37054 0.39227 0.44252 0.0
H424 H 0.37268 0.42743 0.42779 0.0
H425 H 0.31625 0.40971 0.49647 0.0
H426 H 0.31363 0.37433 0.51126 0.0
H427 H 0.38411 0.32884 0.6294 0.0
H428 H 0.37489 0.32916 0.56313 0.0
H429 H 0.32011 0.33659 0.59559 0.0
H430 H 0.32943 0.33672 0.66156 0.0
H431 H 0.34423 0.36642 0.54557 0.0
H432 H 0.31334 0.28862 0.55547 0.0
H433 H 0.3136 0.25474 0.57119 0.0
H434 H 0.36571 0.27152 0.49251 0.0
H435 H 0.36597 0.30566 0.47666 0.0
C436 C 0.32301 0.36109 0.36563 0.0
C437 C 0.33799 0.36018 0.34072 0.0
C438 C 0.32236 0.35522 0.40349 0.0
C439 C 0.33703 0.34884 0.41731 0.0
C440 C 0.35161 0.34749 0.3922 0.0
C441 C 0.35202 0.35298 0.35446 0.0
C442 C 0.33803 0.34432 0.45798 0.0
C443 C 0.33794 0.32504 0.46831 0.0
C444 C 0.34013 0.35929 0.48639 0.0
C445 C 0.34174 0.38057 0.47763 0.0
C446 C 0.3585 0.39583 0.45427 0.0
C447 C 0.35981 0.4158 0.44594 0.0
C448 C 0.34456 0.42077 0.46109 0.0
C449 C 0.32802 0.40582 0.4847 0.0
C450 C 0.32662 0.38581 0.49307 0.0
C451 C 0.36984 0.33008 0.62243 0.0
C452 C 0.35763 0.33293 0.6508 0.0
C453 C 0.36456 0.33024 0.5845 0.0
C454 C 0.34678 0.3329 0.5743 0.0
C455 C 0.33397 0.33466 0.60269 0.0
C456 C 0.33932 0.33468 0.64046 0.0
C457 C 0.3425 0.33561 0.53427 0.0
C458 C 0.34202 0.35459 0.52407 0.0
C459 C 0.34015 0.32049 0.50602 0.0
C460 C 0.33978 0.29979 0.51508 0.0
C461 C 0.32494 0.28515 0.54167 0.0
C462 C 0.32498 0.26589 0.55059 0.0
C463 C 0.33969 0.261 0.53293 0.0
C464 C 0.35434 0.27533 0.50619 0.0
C465 C 0.35437 0.29462 0.49718 0.0
H466 H 0.33973 0.2461 0.53992 0.0
H467 H 0.3456 0.43624 0.45461 0.0
H468 H 0.9847 0.65642 0.84525 0.0
H469 H 1.00153 0.66252 0.90729 0.0
H470 H 0.96294 0.59336 0.93082 0.0
H471 H 0.94483 0.58763 0.86972 0.0
H472 H 0.96437 0.61199 0.98984 0.0
H473 H 0.0209 0.62178 0.90704 0.0
H474 H 0.04565 0.63596 0.85247 0.0
H475 H 0.0737 0.70125 0.89593 0.0
H476 H 0.0489 0.68749 0.95052 0.0
H477 H 0.06765 0.65623 0.12306 0.0
H478 H 0.05097 0.64365 0.06099 0.0
H479 H 0.99966 0.65711 0.09142 0.0
H480 H 0.0156 0.66846 0.1539 0.0
H481 H 0.04428 0.66108 0.00505 0.0
H482 H 0.95269 0.6248 0.04916 0.0
H483 H 0.92902 0.60521 0.10314 0.0
H484 H 0.97302 0.5828 0.13592 0.0
H485 H 0.99677 0.60195 0.08184 0.0
C486 C 0.97981 0.64257 0.8638 0.0
C487 C 0.96354 0.62158 0.85289 0.0
C488 C 0.98959 0.646 0.89914 0.0
C489 C 0.98402 0.62834 0.92363 0.0
C490 C 0.96763 0.6073 0.9126 0.0
C491 C 0.95729 0.604 0.8777 0.0
C492 C 0.99488 0.63198 0.961 0.0
C493 C 0.98186 0.62262 0.99303 0.0
C494 C 0.01784 0.64524 0.96543 0.0
C495 C 0.03292 0.6536 0.93277 0.0
C496 C 0.03226 0.63917 0.90486 0.0
C497 C 0.0463 0.64714 0.87393 0.0
C498 C 0.06121 0.6695 0.8707 0.0
C499 C 0.06214 0.68393 0.89846 0.0
C500 C 0.04811 0.67606 0.92943 0.0
C501 C 0.05275 0.65638 0.11644 0.0
C502 C 0.04281 0.66317 0.14329 0.0
C503 C 0.04324 0.64923 0.08097 0.0
C504 C 0.02379 0.64902 0.07158 0.0
C505 C 0.01426 0.65642 0.0982 0.0
C506 C 0.02348 0.66309 0.13385 0.0
C507 C 0.01366 0.64159 0.0338 0.0
C508 C 0.02682 0.65024 0.00174 0.0
C509 C 0.991 0.6268 0.02923 0.0
C510 C 0.97661 0.61498 0.06158 0.0
C511 C 0.95725 0.6156 0.06776 0.0
C512 C 0.94383 0.60458 0.0984 0.0
C513 C 0.94954 0.59282 0.12299 0.0
C514 C 0.96865 0.59197 0.11692 0.0
C515 C 0.9821 0.60292 0.08629 0.0
H516 H 0.93914 0.58433 0.14672 0.0
H517 H 0.07206 0.67563 0.84673 0.0
H518 H 0.32781 0.92973 0.38382 0.0
H519 H 0.33696 0.9458 0.44696 0.0
H520 H 0.3674 0.01044 0.39869 0.0
H521 H 0.35806 0.99456 0.33569 0.0
H522 H 0.39243 0.00519 0.45645 0.0
H523 H 0.31935 0.99164 0.43326 0.0
H524 H 0.28041 0.96896 0.4165 0.0
H525 H 0.27058 0.92652 0.50996 0.0
H526 H 0.30957 0.9488 0.52696 0.0
H527 H 0.40071 0.06976 0.61481 0.0
H528 H 0.39342 0.05197 0.55337 0.0
H529 H 0.35304 0.98923 0.60596 0.0
H530 H 0.35968 0.00704 0.66728 0.0
H531 H 0.33342 0.99207 0.54642 0.0
H532 H 0.40576 0.00613 0.57231 0.0
H533 H 0.44473 0.02822 0.58933 0.0
H534 H 0.45642 0.06849 0.4919 0.0
H535 H 0.41744 0.04687 0.47461 0.0
C536 C 0.3365 0.94736 0.3867 0.0
C537 C 0.34216 0.96089 0.35484 0.0
C538 C 0.34169 0.9565 0.42273 0.0
C539 C 0.3528 0.9793 0.42741 0.0
C540 C 0.35886 0.99282 0.39562 0.0
C541 C 0.35342 0.9837 0.35967 0.0
C542 C 0.35768 0.98911 0.46546 0.0
C543 C 0.37957 0.00252 0.4761 0.0
C544 C 0.34086 0.98512 0.49126 0.0
C545 C 0.31743 0.97173 0.48111 0.0
C546 C 0.30893 0.97735 0.45002 0.0
C547 C 0.28685 0.96459 0.44052 0.0
C548 C 0.27304 0.94626 0.46208 0.0
C549 C 0.2813 0.94069 0.49325 0.0
C550 C 0.30338 0.95339 0.50284 0.0
C551 C 0.39034 0.05217 0.61327 0.0
C552 C 0.38079 0.03979 0.64584 0.0
C553 C 0.38629 0.04199 0.57815 0.0
C554 C 0.37292 0.01919 0.57503 0.0
C555 C 0.36342 0.00682 0.60762 0.0
C556 C 0.36727 0.01702 0.64267 0.0
C557 C 0.36828 0.0083 0.5377 0.0
C558 C 0.34638 0.99468 0.52707 0.0
C559 C 0.38514 0.01197 0.51205 0.0
C560 C 0.40862 0.02498 0.52234 0.0
C561 C 0.4166 0.0198 0.55467 0.0
C562 C 0.4387 0.03223 0.56434 0.0
C563 C 0.45303 0.04978 0.54174 0.0
C564 C 0.44529 0.05491 0.5094 0.0
C565 C 0.4232 0.04256 0.49963 0.0
H566 H 0.47013 0.05937 0.54922 0.0
H567 H 0.25594 0.93641 0.45469 0.0
H568 H 0.41573 0.36115 0.86534 0.0
H569 H 0.40974 0.37288 0.92684 0.0
H570 H 0.34041 0.34081 0.90409 0.0
H571 H 0.34671 0.3307 0.84168 0.0
H572 H 0.34947 0.37476 0.93784 0.0
H573 H 0.36741 0.31868 0.96308 0.0
H574 H 0.38978 0.30082 0.9608 0.0
H575 H 0.44241 0.35607 0.01631 0.0
H576 H 0.42043 0.37436 0.01853 0.0
H577 H 0.33732 0.35074 0.15352 0.0
H578 H 0.34696 0.3449 0.09052 0.0
H579 H 0.36102 0.40963 0.05831 0.0
H580 H 0.35018 0.41503 0.12106 0.0
H581 H 0.38128 0.36139 0.05211 0.0
H582 H 0.35241 0.41186 0.96548 0.0
H583 H 0.32453 0.42314 0.9686 0.0
H584 H 0.28392 0.3674 0.0375 0.0
H585 H 0.31142 0.35566 0.03439 0.0
C586 C 0.39926 0.35671 0.87363 0.0
C587 C 0.38164 0.34492 0.84909 0.0
C588 C 0.3958 0.36329 0.90883 0.0
C589 C 0.37453 0.35736 0.92069 0.0
C590 C 0.35698 0.3457 0.8958 0.0
C591 C 0.36055 0.3398 0.86019 0.0
C592 C 0.37031 0.36297 0.95901 0.0
C593 C 0.35647 0.37183 0.96277 0.0
C594 C 0.37914 0.35894 0.99184 0.0
C595 C 0.39237 0.34798 0.9906 0.0
C596 C 0.3838 0.32707 0.97458 0.0
C597 C 0.39641 0.31687 0.97333 0.0
C598 C 0.41753 0.32733 0.9883 0.0
C599 C 0.42607 0.348 0.00466 0.0
C600 C 0.41354 0.35829 0.00595 0.0
C601 C 0.34239 0.3637 0.13295 0.0
C602 C 0.34284 0.38326 0.14201 0.0
C603 C 0.34801 0.36039 0.09696 0.0
C604 C 0.35454 0.37671 0.06937 0.0
C605 C 0.35556 0.39656 0.07874 0.0
C606 C 0.34946 0.39969 0.11462 0.0
C607 C 0.36005 0.37268 0.03091 0.0
C608 C 0.37432 0.36435 0.02713 0.0
C609 C 0.35078 0.37619 0.99821 0.0
C610 C 0.3341 0.38306 8e-05 0.0
C611 C 0.33751 0.402 0.98123 0.0
C612 C 0.32177 0.40847 0.98299 0.0
C613 C 0.30251 0.39604 0.00336 0.0
C614 C 0.29889 0.37707 0.02187 0.0
C615 C 0.31455 0.37051 0.02015 0.0
H616 H 0.29035 0.40109 0.0047 0.0
H617 H 0.42726 0.31941 0.98731 0.0
H618 H 0.93322 0.3341 0.62183 0.0
H619 H 0.95011 0.34458 0.55954 0.0
H620 H 0.01251 0.36066 0.60738 0.0
H621 H 0.9958 0.35029 0.66968 0.0
H622 H 0.01551 0.39183 0.55674 0.0
H623 H 0.98322 0.31325 0.56251 0.0
H624 H 0.95294 0.27558 0.57227 0.0
H625 H 0.91673 0.28367 0.48289 0.0
H626 H 0.94668 0.32151 0.47294 0.0
H627 H 0.07251 0.39683 0.38917 0.0
H628 H 0.0559 0.38918 0.45171 0.0
H629 H 0.99197 0.36243 0.40127 0.0
H630 H 0.00842 0.36896 0.33892 0.0
H631 H 0.98935 0.33711 0.45387 0.0
H632 H 0.0205 0.41487 0.44642 0.0
H633 H 0.04959 0.45308 0.43655 0.0
H634 H 0.08636 0.44769 0.52791 0.0
H635 H 0.05761 0.40934 0.53802 0.0
C636 C 0.95055 0.33991 0.61907 0.0
C637 C 0.96317 0.34127 0.65057 0.0
C638 C 0.96015 0.34585 0.58349 0.0
C639 C 0.98252 0.35322 0.57885 0.0
C640 C 0.99523 0.35501 0.61039 0.0
C641 C 0.98563 0.349 0.64592 0.0
C642 C 0.99263 0.35863 0.54101 0.0
C643 C 0.00998 0.37985 0.53427 0.0
C644 C 0.985 0.34312 0.51156 0.0
C645 C 0.9671 0.32028 0.51723 0.0
C646 C 0.96874 0.30705 0.54511 0.0
C647 C 0.95165 0.28566 0.55066 0.0
C648 C 0.9329 0.27726 0.52829 0.0
C649 C 0.93124 0.29021 0.50024 0.0
C650 C 0.94828 0.31162 0.49461 0.0
C651 C 0.05493 0.38943 0.39153 0.0
C652 C 0.04176 0.3835 0.35924 0.0
C653 C 0.04544 0.38518 0.42728 0.0
C654 C 0.02265 0.3755 0.43136 0.0
C655 C 0.00956 0.36986 0.39898 0.0
C656 C 0.01899 0.37367 0.36331 0.0
C657 C 0.0123 0.37046 0.4692 0.0
C658 C 0.9949 0.34924 0.4761 0.0
C659 C 0.01972 0.38608 0.49863 0.0
C660 C 0.03698 0.40917 0.49275 0.0
C661 C 0.03485 0.42179 0.46424 0.0
C662 C 0.05127 0.44348 0.45863 0.0
C663 C 0.06984 0.45279 0.48153 0.0
C664 C 0.07198 0.44045 0.51016 0.0
C665 C 0.05562 0.41874 0.51587 0.0
H666 H 0.08253 0.46958 0.47713 0.0
H667 H 0.91968 0.2607 0.53264 0.0
H668 H 0.67078 0.07219 0.88089 0.0
H669 H 0.66131 0.0557 0.94365 0.0
H670 H 0.64386 0.99285 0.89616 0.0
H671 H 0.65322 0.00915 0.8335 0.0
H672 H 0.61376 0.99049 0.94871 0.0
H673 H 0.6923 0.02238 0.93802 0.0
H674 H 0.72982 0.05259 0.92661 0.0
H675 H 0.72346 0.089 0.01754 0.0
H676 H 0.68579 0.05911 0.02917 0.0
H677 H 0.61164 0.93253 0.11274 0.0
H678 H 0.61844 0.94962 0.05067 0.0
H679 H 0.64685 0.01326 0.10281 0.0
H680 H 0.64122 0.99631 0.1646 0.0
H681 H 0.67072 0.01619 0.04781 0.0
H682 H 0.59341 0.98544 0.06112 0.0
H683 H 0.55539 0.95652 0.07319 0.0
H684 H 0.55807 0.91988 0.97907 0.0
H685 H 0.59622 0.94844 0.96674 0.0
C686 C 0.66486 0.05485 0.88385 0.0
C687 C 0.66284 0.04198 0.85233 0.0
C688 C 0.6595 0.04547 0.91968 0.0
C689 C 0.65205 0.02309 0.92453 0.0
C690 C 0.64957 0.01014 0.893 0.0
C691 C 0.65502 0.01951 0.85725 0.0
C692 C 0.64732 0.01318 0.96254 0.0
C693 C 0.62622 0.99594 0.97036 0.0
C694 C 0.66345 0.02074 0.99098 0.0
C695 C 0.68617 0.0386 0.98422 0.0
C696 C 0.69886 0.03689 0.9554 0.0
C697 C 0.72015 0.05395 0.94893 0.0
C698 C 0.72899 0.07273 0.97127 0.0
C699 C 0.71658 0.07446 0.00022 0.0
C700 C 0.69527 0.05746 0.00679 0.0
C701 C 0.61928 0.95015 0.11086 0.0
C702 C 0.62586 0.96309 0.14346 0.0
C703 C 0.62304 0.95992 0.07539 0.0
C704 C 0.63283 0.98276 0.07193 0.0
C705 C 0.63928 0.99563 0.10462 0.0
C706 C 0.63599 0.98591 0.13998 0.0
C707 C 0.63703 0.99336 0.03434 0.0
C708 C 0.6581 0.01075 0.02645 0.0
C709 C 0.62074 0.98613 0.00604 0.0
C710 C 0.59774 0.969 0.01322 0.0
C711 C 0.58594 0.97115 0.04314 0.0
C712 C 0.56436 0.95483 0.05001 0.0
C713 C 0.55434 0.93635 0.02696 0.0
C714 C 0.56586 0.93419 0.99692 0.0
C715 C 0.58745 0.95045 0.98996 0.0
H716 H 0.53764 0.92374 0.03233 0.0
H717 H 0.74548 0.08592 0.96621 0.0
H718 H 0.58956 0.64869 0.36963 0.0
H719 H 0.59572 0.63758 0.43157 0.0
H720 H 0.66399 0.66405 0.40434 0.0
H721 H 0.65741 0.67363 0.34168 0.0
H722 H 0.65267 0.62972 0.439 0.0
H723 H 0.64244 0.69066 0.46408 0.0
H724 H 0.62351 0.71203 0.46275 0.0
H725 H 0.56925 0.66089 0.5227 0.0
H726 H 0.58776 0.6391 0.52398 0.0
H727 H 0.66957 0.65441 0.65466 0.0
H728 H 0.66041 0.66154 0.59215 0.0
H729 H 0.64025 0.59521 0.55938 0.0
H730 H 0.65077 0.5885 0.62148 0.0
H731 H 0.6263 0.6482 0.55479 0.0
H732 H 0.64646 0.59142 0.4666 0.0
H733 H 0.6715 0.57654 0.46833 0.0
H734 H 0.71686 0.63099 0.53548 0.0
H735 H 0.69223 0.64632 0.53376 0.0
C736 C 0.60584 0.65211 0.37706 0.0
C737 C 0.62305 0.6621 0.35116 0.0
C738 C 0.60941 0.64586 0.41249 0.0
C739 C 0.63044 0.65029 0.4231 0.0
C740 C 0.6476 0.66033 0.39698 0.0
C741 C 0.64387 0.66593 0.36124 0.0
C742 C 0.63475 0.64456 0.46122 0.0
C743 C 0.64688 0.6338 0.46428 0.0
C744 C 0.62755 0.6501 0.49444 0.0
C745 C 0.61638 0.66316 0.49376 0.0
C746 C 0.62641 0.68391 0.47675 0.0
C747 C 0.61577 0.69611 0.47604 0.0
C748 C 0.59517 0.68779 0.49253 0.0
C749 C 0.58519 0.66729 0.50987 0.0
C750 C 0.59576 0.65502 0.51062 0.0
C751 C 0.66328 0.64138 0.63403 0.0
C752 C 0.66105 0.62098 0.64269 0.0
C753 C 0.65793 0.64543 0.59833 0.0
C754 C 0.64983 0.62902 0.57071 0.0
C755 C 0.64698 0.60834 0.57977 0.0
C756 C 0.65289 0.60447 0.61529 0.0
C757 C 0.6446 0.63378 0.53256 0.0
C758 C 0.63209 0.64414 0.52949 0.0
C759 C 0.65239 0.62887 0.4994 0.0
C760 C 0.66737 0.61985 0.50041 0.0
C761 C 0.6618 0.60023 0.48165 0.0
C762 C 0.67592 0.59172 0.48264 0.0
C763 C 0.69572 0.60277 0.50212 0.0
C764 C 0.70148 0.6224 0.52053 0.0
C765 C 0.68744 0.63099 0.5196 0.0
H766 H 0.70661 0.59615 0.50287 0.0
H767 H 0.58695 0.69726 0.49196 0.0
H768 H 0.01111 0.58183 0.22244 0.0
H769 H 0.01563 0.55008 0.23056 0.0
H770 H 0.08258 0.59195 0.26458 0.0
H771 H 0.07828 0.62409 0.25644 0.0
H772 H 0.07703 0.55857 0.21438 0.0
H773 H 0.04696 0.56524 0.33078 0.0
H774 H 0.02125 0.56987 0.37132 0.0
H775 H 0.96774 0.51057 0.32743 0.0
H776 H 0.9931 0.50569 0.28631 0.0
H777 H 0.08014 0.46207 0.27199 0.0
H778 H 0.0843 0.49872 0.26974 0.0
H779 H 0.0148 0.46985 0.25213 0.0
H780 H 0.01051 0.43355 0.2559 0.0
H781 H 0.02668 0.50005 0.30134 0.0
H782 H 0.05572 0.4954 0.18001 0.0
H783 H 0.08096 0.4908 0.13811 0.0
H784 H 0.13575 0.54596 0.18967 0.0
H785 H 0.11083 0.55073 0.23218 0.0
C786 C 0.02686 0.58442 0.23154 0.0
C787 C 0.04428 0.60559 0.23904 0.0
C788 C 0.02938 0.56619 0.23626 0.0
C789 C 0.04935 0.56863 0.24861 0.0
C790 C 0.06701 0.58972 0.25514 0.0
C791 C 0.06447 0.60804 0.25059 0.0
C792 C 0.05138 0.54897 0.2553 0.0
C793 C 0.0663 0.54589 0.23384 0.0
C794 C 0.03723 0.53238 0.28043 0.0
C795 C 0.02193 0.53518 0.3053 0.0
C796 C 0.02969 0.55326 0.32959 0.0
C797 C 0.01518 0.55592 0.35269 0.0
C798 C 0.99287 0.54055 0.35189 0.0
C799 C 0.98502 0.52246 0.32802 0.0
C800 C 0.99947 0.51972 0.30486 0.0
C801 C 0.06581 0.46362 0.26752 0.0
C802 C 0.04499 0.44491 0.26431 0.0
C803 C 0.0682 0.48457 0.26609 0.0
C804 C 0.04987 0.48714 0.26052 0.0
C805 C 0.02919 0.4684 0.25676 0.0
C806 C 0.02676 0.44759 0.25885 0.0
C807 C 0.05173 0.50911 0.25927 0.0
C808 C 0.0376 0.51273 0.28205 0.0
C809 C 0.0665 0.52608 0.23518 0.0
C810 C 0.08144 0.52326 0.20953 0.0
C811 C 0.07316 0.50645 0.18258 0.0
C812 C 0.0874 0.50383 0.15869 0.0
C813 C 0.10994 0.51804 0.16131 0.0
C814 C 0.11829 0.53495 0.18773 0.0
C815 C 0.10411 0.53762 0.2117 0.0
H816 H 0.12094 0.51598 0.1428 0.0
H817 H 0.98167 0.54261 0.36985 0.0
H818 H 0.45915 0.07812 0.74397 0.0
H819 H 0.49539 0.08161 0.74934 0.0
H820 H 0.46605 0.01154 0.74213 0.0
H821 H 0.42996 0.00785 0.73664 0.0
H822 H 0.49575 0.02967 0.80083 0.0
H823 H 0.49128 0.04175 0.66818 0.0
H824 H 0.48626 0.06039 0.61378 0.0
H825 H 0.54145 0.12119 0.64873 0.0
H826 H 0.54659 0.10294 0.70378 0.0
H827 H 0.57975 0.00797 0.7626 0.0
H828 H 0.54739 0.01171 0.75962 0.0
H829 H 0.58804 0.0819 0.75471 0.0
H830 H 0.62081 0.07825 0.75658 0.0
H831 H 0.55473 0.06845 0.70688 0.0
H832 H 0.56136 0.05589 0.83665 0.0
H833 H 0.56631 0.03737 0.89139 0.0
H834 H 0.50719 0.97824 0.86333 0.0
H835 H 0.50204 0.9963 0.8081 0.0
C836 C 0.46041 0.06345 0.74345 0.0
C837 C 0.4416 0.0427 0.73987 0.0
C838 C 0.48114 0.0655 0.74642 0.0
C839 C 0.48338 0.04683 0.74609 0.0
C840 C 0.46467 0.02615 0.74255 0.0
C841 C 0.44403 0.0241 0.73925 0.0
C842 C 0.50512 0.04857 0.74982 0.0
C843 C 0.50861 0.03803 0.78019 0.0
C844 C 0.52212 0.0601 0.72354 0.0
C845 C 0.51916 0.07104 0.69033 0.0
C846 C 0.50223 0.05914 0.66446 0.0
C847 C 0.49938 0.06962 0.63346 0.0
C848 C 0.51349 0.09198 0.62783 0.0
C849 C 0.53051 0.10388 0.65316 0.0
C850 C 0.5334 0.09347 0.68426 0.0
C851 C 0.58192 0.02426 0.76101 0.0
C852 C 0.60294 0.04284 0.7602 0.0
C853 C 0.56333 0.02637 0.75944 0.0
C854 C 0.56523 0.04711 0.75778 0.0
C855 C 0.58617 0.06573 0.75622 0.0
C856 C 0.60488 0.06362 0.75738 0.0
C857 C 0.54522 0.04907 0.7575 0.0
C858 C 0.54203 0.06034 0.72786 0.0
C859 C 0.52848 0.0383 0.78462 0.0
C860 C 0.53139 0.02743 0.81808 0.0
C861 C 0.54948 0.0389 0.84202 0.0
C862 C 0.55232 0.02848 0.87316 0.0
C863 C 0.53709 0.00663 0.8808 0.0
C864 C 0.51897 0.99516 0.85738 0.0
C865 C 0.51607 0.00549 0.82618 0.0
H866 H 0.53933 0.9986 0.9049 0.0
H867 H 0.51126 0.10006 0.6038 0.0
H868 H 0.56715 0.58723 0.31054 0.0
H869 H 0.53108 0.55449 0.30677 0.0
H870 H 0.5158 0.58113 0.20979 0.0
H871 H 0.55152 0.61444 0.21473 0.0
H872 H 0.48078 0.5601 0.2489 0.0
H873 H 0.53388 0.54255 0.20301 0.0
H874 H 0.56744 0.53999 0.20504 0.0
H875 H 0.54314 0.49819 0.30178 0.0
H876 H 0.50954 0.50073 0.30059 0.0
H877 H 0.41804 0.4361 0.19037 0.0
H878 H 0.45085 0.47189 0.19503 0.0
H879 H 0.42121 0.48951 0.28429 0.0
H880 H 0.38786 0.4538 0.27878 0.0
H881 H 0.47856 0.48879 0.2475 0.0
H882 H 0.44366 0.54501 0.28811 0.0
H883 H 0.41075 0.5479 0.27653 0.0
H884 H 0.39934 0.51251 0.17305 0.0
H885 H 0.43232 0.50966 0.18376 0.0
C886 C 0.55604 0.58615 0.28857 0.0
C887 C 0.56224 0.60329 0.26267 0.0
C888 C 0.53543 0.56739 0.28633 0.0
C889 C 0.52084 0.56503 0.25741 0.0
C890 C 0.52674 0.58247 0.2323 0.0
C891 C 0.54719 0.60149 0.23506 0.0
C892 C 0.49988 0.54407 0.25247 0.0
C893 C 0.48029 0.54451 0.24864 0.0
C894 C 0.49918 0.52367 0.25126 0.0
C895 C 0.51929 0.52199 0.25191 0.0
C896 C 0.53576 0.53292 0.22484 0.0
C897 C 0.55477 0.53146 0.22583 0.0
C898 C 0.55744 0.51898 0.25358 0.0
C899 C 0.54106 0.50788 0.28033 0.0
C900 C 0.52202 0.5093 0.2795 0.0
C901 C 0.4184 0.44762 0.21085 0.0
C902 C 0.40034 0.44205 0.23432 0.0
C903 C 0.43723 0.46811 0.21353 0.0
C904 C 0.4386 0.48351 0.23996 0.0
C905 C 0.42049 0.4781 0.26323 0.0
C906 C 0.40144 0.45764 0.26016 0.0
C907 C 0.45937 0.50474 0.24398 0.0
C908 C 0.47897 0.50435 0.24781 0.0
C909 C 0.46011 0.52516 0.24381 0.0
C910 C 0.44032 0.52691 0.23699 0.0
C911 C 0.43416 0.5379 0.26284 0.0
C912 C 0.41549 0.53952 0.25643 0.0
C913 C 0.40292 0.53033 0.22415 0.0
C914 C 0.40904 0.51955 0.19813 0.0
C915 C 0.4277 0.51789 0.20439 0.0
H916 H 0.38847 0.5316 0.21924 0.0
H917 H 0.57218 0.51788 0.2543 0.0
H918 H 0.92593 0.54401 0.75254 0.0
H919 H 0.92198 0.50755 0.74688 0.0
H920 H 0.99171 0.53588 0.75894 0.0
H921 H 0.99583 0.57211 0.76483 0.0
H922 H 0.97414 0.50669 0.69853 0.0
H923 H 0.9598 0.51059 0.83106 0.0
H924 H 0.93989 0.51507 0.88407 0.0
H925 H 0.88001 0.46015 0.8452 0.0
H926 H 0.89953 0.45554 0.79162 0.0
H927 H 0.99636 0.42343 0.74016 0.0
H928 H 0.99218 0.45558 0.74143 0.0
H929 H 0.92206 0.41433 0.74555 0.0
H930 H 0.92614 0.38183 0.74538 0.0
H931 H 0.93445 0.44764 0.79199 0.0
H932 H 0.94833 0.4408 0.66357 0.0
H933 H 0.96715 0.43583 0.60936 0.0
H934 H 0.02585 0.49545 0.63713 0.0
H935 H 0.00748 0.50063 0.69185 0.0
C936 C 0.94041 0.54246 0.75404 0.0
C937 C 0.96119 0.56102 0.75918 0.0
C938 C 0.93811 0.52162 0.75089 0.0
C939 C 0.95657 0.51905 0.75253 0.0
C940 C 0.97727 0.53752 0.75751 0.0
C941 C 0.97956 0.55824 0.76104 0.0
C942 C 0.95464 0.49723 0.74884 0.0
C943 C 0.96557 0.4938 0.71904 0.0
C944 C 0.94276 0.48016 0.77483 0.0
C945 C 0.93107 0.48289 0.80709 0.0
C946 C 0.94235 0.4996 0.83363 0.0
C947 C 0.93114 0.50214 0.86381 0.0
C948 C 0.90868 0.48795 0.86793 0.0
C949 C 0.8974 0.47116 0.84193 0.0
C950 C 0.90852 0.46857 0.81166 0.0
C951 C 0.98001 0.4211 0.74125 0.0
C952 C 0.96157 0.39999 0.74238 0.0
C953 C 0.97764 0.43956 0.74181 0.0
C954 C 0.95678 0.43742 0.74276 0.0
C955 C 0.93832 0.4164 0.74458 0.0
C956 C 0.94068 0.39784 0.74443 0.0
C957 C 0.95454 0.45728 0.74221 0.0
C958 C 0.94277 0.46035 0.77109 0.0
C959 C 0.96545 0.47397 0.71506 0.0
C960 C 0.97655 0.47102 0.68199 0.0
C961 C 0.96529 0.45279 0.65827 0.0
C962 C 0.97588 0.44994 0.62743 0.0
C963 C 0.99769 0.4653 0.61984 0.0
C964 C 0.00895 0.48356 0.64304 0.0
C965 C 0.99845 0.48648 0.67396 0.0
H966 H 0.00586 0.46306 0.59595 0.0
H967 H 0.90004 0.48994 0.89133 0.0
H968 H 0.41537 0.97204 0.32183 0.0
H969 H 0.44823 0.96899 0.31594 0.0
H970 H 0.4253 0.93676 0.20882 0.0
H971 H 0.39176 0.93854 0.21593 0.0
H972 H 0.44573 0.9201 0.24025 0.0
H973 H 0.4634 0.99418 0.21881 0.0
H974 H 0.46508 0.02912 0.23353 0.0
H975 H 0.50358 0.03651 0.33169 0.0
H976 H 0.5019 1.00147 0.31779 0.0
H977 H 0.57176 0.9878 0.19647 0.0
H978 H 0.53562 0.9841 0.20144 0.0
H979 H 0.51495 0.92855 0.27491 0.0
H980 H 0.55093 0.93175 0.26909 0.0
H981 H 0.51618 0.98896 0.25781 0.0
H982 H 0.45994 0.89465 0.26898 0.0
H983 H 0.4583 0.86113 0.24472 0.0
H984 H 0.49743 0.89678 0.14976 0.0
H985 H 0.49905 0.93042 0.17316 0.0
C986 C 0.41724 0.96403 0.29732 0.0
C987 C 0.40115 0.95568 0.26919 0.0
C988 C 0.43609 0.96242 0.29381 0.0
C989 C 0.43964 0.95323 0.26138 0.0
C990 C 0.42307 0.94401 0.23404 0.0
C991 C 0.40391 0.94506 0.23807 0.0
C992 C 0.46097 0.95421 0.25508 0.0
C993 C 0.46112 0.93515 0.24416 0.0
C994 C 0.48116 0.97395 0.25919 0.0
C995 C 0.48236 0.99512 0.26744 0.0
C996 C 0.47213 0.00321 0.24364 0.0
C997 C 0.47308 0.02303 0.25183 0.0
C998 C 0.48438 0.035 0.28357 0.0
C999 C 0.49481 0.02721 0.30713 0.0
C1000 C 0.49388 0.00738 0.2991 0.0
C1001 C 0.55948 0.97467 0.21346 0.0
C1002 C 0.56428 0.9601 0.23245 0.0
C1003 C 0.53881 0.9726 0.21634 0.0
C1004 C 0.52247 0.95601 0.23845 0.0
C1005 C 0.52712 0.94127 0.25715 0.0
C1006 C 0.54775 0.94317 0.25391 0.0
C1007 C 0.50097 0.95484 0.24316 0.0
C1008 C 0.5008 0.97388 0.25393 0.0
C1009 C 0.48082 0.9353 0.23751 0.0
C1010 C 0.47981 0.9151 0.22308 0.0
C1011 C 0.46813 0.89531 0.24287 0.0
C1012 C 0.46721 0.87629 0.22927 0.0
C1013 C 0.47782 0.87684 0.19579 0.0
C1014 C 0.4893 0.89639 0.17577 0.0
C1015 C 0.49025 0.91545 0.18922 0.0
H1016 H 0.47709 0.8621 0.18533 0.0
H1017 H 0.4851 0.05034 0.28987 0.0
H1018 H 0.62011 0.54408 0.74426 0.0
H1019 H 0.5872 0.50789 0.74943 0.0
H1020 H 0.54682 0.53755 0.7406 0.0
H1021 H 0.57934 0.57354 0.73525 0.0
H1022 H 0.53441 0.50721 0.79902 0.0
H1023 H 0.55303 0.51312 0.6665 0.0
H1024 H 0.57747 0.51822 0.61323 0.0
H1025 H 0.58152 0.4622 0.64851 0.0
H1026 H 0.55734 0.45696 0.70234 0.0
H1027 H 0.42866 0.42488 0.75551 0.0
H1028 H 0.46503 0.45703 0.75417 0.0
H1029 H 0.49379 0.41571 0.74842 0.0
H1030 H 0.45723 0.38325 0.74877 0.0
H1031 H 0.51474 0.44958 0.70255 0.0
H1032 H 0.49374 0.44096 0.83105 0.0
H1033 H 0.46977 0.43533 0.88529 0.0
H1034 H 0.47127 0.49559 0.86059 0.0
H1035 H 0.49499 0.50143 0.80583 0.0
C1036 C 0.60422 0.54289 0.74347 0.0
C1037 C 0.60239 0.56174 0.73925 0.0
C1038 C 0.58545 0.5222 0.74632 0.0
C1039 C 0.56459 0.52007 0.74529 0.0
C1040 C 0.56276 0.53885 0.74151 0.0
C1041 C 0.58142 0.55942 0.73828 0.0
C1042 C 0.54446 0.49837 0.74804 0.0
C1043 C 0.53002 0.49464 0.77785 0.0
C1044 C 0.53915 0.48171 0.72111 0.0
C1045 C 0.5536 0.48481 0.68869 0.0
C1046 C 0.55929 0.50201 0.66309 0.0
C1047 C 0.57306 0.50491 0.63276 0.0
C1048 C 0.5811 0.49059 0.62756 0.0
C1049 C 0.57532 0.47331 0.65262 0.0
C1050 C 0.56158 0.47036 0.68303 0.0
C1051 C 0.44267 0.42254 0.75393 0.0
C1052 C 0.43998 0.40143 0.75252 0.0
C1053 C 0.46351 0.44099 0.75334 0.0
C1054 C 0.4822 0.43882 0.75201 0.0
C1055 C 0.47962 0.4178 0.74968 0.0
C1056 C 0.4587 0.39926 0.74991 0.0
C1057 C 0.50433 0.4586 0.75307 0.0
C1058 C 0.51919 0.46198 0.72407 0.0
C1059 C 0.51017 0.47489 0.78103 0.0
C1060 C 0.49604 0.47155 0.81415 0.0
C1061 C 0.48885 0.45295 0.83703 0.0
C1062 C 0.47532 0.44972 0.86789 0.0
C1063 C 0.46897 0.46507 0.87634 0.0
C1064 C 0.47619 0.48371 0.854 0.0
C1065 C 0.48971 0.48699 0.82306 0.0
H1066 H 0.45849 0.46255 0.90024 0.0
H1067 H 0.59176 0.49285 0.60406 0.0
H1068 H 0.10185 0.36015 0.27815 0.0
H1069 H 0.13634 0.36021 0.28044 0.0
H1070 H 0.16711 0.41959 0.21487 0.0
H1071 H 0.13269 0.42013 0.21409 0.0
H1072 H 0.16111 0.35643 0.23517 0.0
H1073 H 0.22072 0.45053 0.23599 0.0
H1074 H 0.22143 0.48401 0.25804 0.0
H1075 H 0.17237 0.44666 0.34051 0.0
H1076 H 0.17158 0.41303 0.31931 0.0
H1077 H 0.26575 0.37279 0.20126 0.0
H1078 H 0.23169 0.37357 0.2006 0.0
H1079 H 0.24841 0.40695 0.3076 0.0
H1080 H 0.28363 0.40782 0.30646 0.0
H1081 H 0.2301 0.42302 0.27125 0.0
H1082 H 0.20835 0.34842 0.29369 0.0
H1083 H 0.20632 0.31292 0.28326 0.0
H1084 H 0.17714 0.3076 0.17504 0.0
H1085 H 0.17923 0.3432 0.18463 0.0
C1086 C 0.11591 0.37318 0.26398 0.0
C1087 C 0.11453 0.39019 0.24604 0.0
C1088 C 0.13569 0.37319 0.2653 0.0
C1089 C 0.15458 0.39009 0.24837 0.0
C1090 C 0.153 0.40664 0.22903 0.0
C1091 C 0.13324 0.40684 0.22826 0.0
C1092 C 0.17579 0.39028 0.25128 0.0
C1093 C 0.17617 0.37102 0.24308 0.0
C1094 C 0.19546 0.40906 0.26269 0.0
C1095 C 0.19592 0.42924 0.27574 0.0
C1096 C 0.21013 0.44948 0.25889 0.0
C1097 C 0.21054 0.46848 0.27124 0.0
C1098 C 0.1969 0.46745 0.30056 0.0
C1099 C 0.18286 0.44743 0.3177 0.0
C1100 C 0.18241 0.42839 0.3055 0.0
C1101 C 0.2621 0.3802 0.22475 0.0
C1102 C 0.27716 0.38999 0.25419 0.0
C1103 C 0.24249 0.38051 0.22451 0.0
C1104 C 0.23693 0.3897 0.25461 0.0
C1105 C 0.25212 0.39963 0.28406 0.0
C1106 C 0.27219 0.40003 0.28359 0.0
C1107 C 0.21547 0.38919 0.25483 0.0
C1108 C 0.21504 0.4084 0.26348 0.0
C1109 C 0.19553 0.37005 0.24557 0.0
C1110 C 0.19411 0.34856 0.23978 0.0
C1111 C 0.20161 0.33973 0.26759 0.0
C1112 C 0.20044 0.31959 0.26183 0.0
C1113 C 0.19165 0.30804 0.22848 0.0
C1114 C 0.18396 0.31658 0.20085 0.0
C1115 C 0.1851 0.33672 0.20645 0.0
H1116 H 0.19077 0.29245 0.22407 0.0
H1117 H 0.19723 0.48218 0.31006 0.0
H1118 H 0.90258 0.25621 0.75973 0.0
H1119 H 0.86767 0.22204 0.75616 0.0
H1120 H 0.83336 0.2582 0.76176 0.0
H1121 H 0.86827 0.29239 0.76689 0.0
H1122 H 0.81159 0.22249 0.79977 0.0
H1123 H 0.84266 0.23855 0.67655 0.0
H1124 H 0.87101 0.24757 0.62836 0.0
H1125 H 0.87022 0.18748 0.6513 0.0
H1126 H 0.84206 0.17824 0.70001 0.0
H1127 H 0.71104 0.13578 0.72897 0.0
H1128 H 0.74552 0.17067 0.73111 0.0
H1129 H 0.78099 0.13616 0.74587 0.0
H1130 H 0.74663 0.10127 0.74397 0.0
H1131 H 0.80135 0.17145 0.69567 0.0
H1132 H 0.76993 0.15654 0.82044 0.0
H1133 H 0.74074 0.14815 0.86661 0.0
H1134 H 0.74118 0.20733 0.83709 0.0
H1135 H 0.77018 0.21591 0.79034 0.0
C1136 C 0.88759 0.25686 0.76073 0.0
C1137 C 0.88819 0.27701 0.76341 0.0
C1138 C 0.86761 0.23731 0.75834 0.0
C1139 C 0.84781 0.23751 0.75764 0.0
C1140 C 0.84837 0.25757 0.76199 0.0
C1141 C 0.86836 0.27712 0.76497 0.0
C1142 C 0.82662 0.21691 0.75154 0.0
C1143 C 0.80931 0.21152 0.77666 0.0
C1144 C 0.82355 0.20237 0.72161 0.0
C1145 C 0.84039 0.2078 0.69217 0.0
C1146 C 0.84863 0.22733 0.67149 0.0
C1147 C 0.86466 0.23247 0.64406 0.0
C1148 C 0.87245 0.21813 0.63684 0.0
C1149 C 0.86419 0.19858 0.65696 0.0
C1150 C 0.84818 0.19337 0.68446 0.0
C1151 C 0.72621 0.1356 0.73208 0.0
C1152 C 0.7261 0.11575 0.73644 0.0
C1153 C 0.74588 0.15556 0.73352 0.0
C1154 C 0.7658 0.15602 0.73911 0.0
C1155 C 0.76582 0.1362 0.74164 0.0
C1156 C 0.74615 0.11626 0.74058 0.0
C1157 C 0.78653 0.17709 0.74397 0.0
C1158 C 0.8037 0.18253 0.71862 0.0
C1159 C 0.78937 0.19181 0.77334 0.0
C1160 C 0.77206 0.18675 0.80163 0.0
C1161 C 0.76368 0.16767 0.82359 0.0
C1162 C 0.74719 0.1629 0.8499 0.0
C1163 C 0.73907 0.17717 0.85471 0.0
C1164 C 0.74746 0.19628 0.83329 0.0
C1165 C 0.76394 0.20111 0.8069 0.0
H1166 H 0.7263 0.17345 0.87509 0.0
H1167 H 0.88486 0.22214 0.6156 0.0
H1168 H 0.64869 0.74606 0.24252 0.0
H1169 H 0.64864 0.7806 0.2446 0.0
H1170 H 0.57844 0.74571 0.23273 0.0
H1171 H 0.57849 0.71109 0.22936 0.0
H1172 H 0.5948 0.78207 0.1943 0.0
H1173 H 0.60405 0.76405 0.31976 0.0
H1174 H 0.62073 0.75378 0.37093 0.0
H1175 H 0.68177 0.81313 0.35428 0.0
H1176 H 0.66553 0.82362 0.30263 0.0
H1177 H 0.57999 0.86852 0.26335 0.0
H1178 H 0.57939 0.83356 0.26124 0.0
H1179 H 0.64962 0.8678 0.25105 0.0
H1180 H 0.65034 0.90284 0.25268 0.0
H1181 H 0.63229 0.83157 0.30193 0.0
H1182 H 0.62152 0.84866 0.17503 0.0
H1183 H 0.60323 0.85837 0.12589 0.0
H1184 H 0.54264 0.79958 0.14862 0.0
H1185 H 0.56052 0.78969 0.19833 0.0
C1186 C 0.63326 0.74575 0.23985 0.0
C1187 C 0.61357 0.72583 0.236 0.0
C1188 C 0.63323 0.76552 0.24134 0.0
C1189 C 0.61348 0.76578 0.23982 0.0
C1190 C 0.59389 0.74597 0.23423 0.0
C1191 C 0.59393 0.72617 0.23225 0.0
C1192 C 0.61326 0.78661 0.24505 0.0
C1193 C 0.60276 0.79271 0.21813 0.0
C1194 C 0.62382 0.80072 0.27594 0.0
C1195 C 0.63363 0.79452 0.30708 0.0
C1196 C 0.62107 0.77484 0.32683 0.0
C1197 C 0.63044 0.76898 0.35594 0.0
C1198 C 0.65231 0.78276 0.36578 0.0
C1199 C 0.66484 0.80246 0.34659 0.0
C1200 C 0.65556 0.80837 0.31741 0.0
C1201 C 0.59534 0.86863 0.2612 0.0
C1202 C 0.61522 0.88845 0.25807 0.0
C1203 C 0.59495 0.84863 0.2598 0.0
C1204 C 0.61444 0.8481 0.25559 0.0
C1205 C 0.63439 0.86786 0.25422 0.0
C1206 C 0.63477 0.88786 0.25513 0.0
C1207 C 0.61398 0.82696 0.25112 0.0
C1208 C 0.62433 0.82084 0.2782 0.0
C1209 C 0.60303 0.8127 0.22071 0.0
C1210 C 0.5923 0.81856 0.19067 0.0
C1211 C 0.60426 0.8379 0.16977 0.0
C1212 C 0.59397 0.84342 0.14178 0.0
C1213 C 0.57177 0.82963 0.13421 0.0
C1214 C 0.55983 0.81026 0.15455 0.0
C1215 C 0.57003 0.80468 0.18262 0.0
H1216 H 0.56384 0.83393 0.11251 0.0
H1217 H 0.65953 0.77821 0.38834 0.0
H1218 H 0.90189 0.64358 0.77136 0.0
H1219 H 0.86707 0.64279 0.77421 0.0
H1220 H 0.83621 0.58176 0.71329 0.0
H1221 H 0.87105 0.58202 0.71186 0.0
H1222 H 0.84144 0.64487 0.7284 0.0
H1223 H 0.78288 0.55074 0.73783 0.0
H1224 H 0.78305 0.51821 0.76276 0.0
H1225 H 0.83338 0.55848 0.84138 0.0
H1226 H 0.8333 0.59118 0.81728 0.0
H1227 H 0.73603 0.6268 0.69781 0.0
H1228 H 0.76999 0.62581 0.69621 0.0
H1229 H 0.75571 0.59588 0.80618 0.0
H1230 H 0.72051 0.59512 0.80608 0.0
H1231 H 0.77362 0.57896 0.77083 0.0
H1232 H 0.79494 0.65399 0.7868 0.0
H1233 H 0.79623 0.68888 0.77334 0.0
H1234 H 0.82333 0.69113 0.66431 0.0
H1235 H 0.82196 0.65611 0.67694 0.0
C1236 C 0.88774 0.63001 0.75834 0.0
C1237 C 0.88925 0.61282 0.74145 0.0
C1238 C 0.86777 0.62959 0.75998 0.0
C1239 C 0.8488 0.61207 0.74447 0.0
C1240 C 0.85043 0.59523 0.7263 0.0
C1241 C 0.87041 0.59548 0.72515 0.0
C1242 C 0.82746 0.61159 0.74751 0.0
C1243 C 0.82663 0.63043 0.73769 0.0
C1244 C 0.80815 0.59303 0.76068 0.0
C1245 C 0.80825 0.57343 0.77541 0.0
C1246 C 0.79394 0.55263 0.76049 0.0
C1247 C 0.79403 0.53417 0.77448 0.0
C1248 C 0.80828 0.53629 0.80354 0.0
C1249 C 0.82242 0.55687 0.81876 0.0
C1250 C 0.82238 0.57538 0.80492 0.0
C1251 C 0.74019 0.62006 0.72169 0.0
C1252 C 0.72585 0.61132 0.75232 0.0
C1253 C 0.75973 0.61964 0.72091 0.0
C1254 C 0.76599 0.61145 0.7516 0.0
C1255 C 0.75146 0.60244 0.78217 0.0
C1256 C 0.73141 0.6021 0.78228 0.0
C1257 C 0.78755 0.61221 0.75142 0.0
C1258 C 0.78843 0.59343 0.76164 0.0
C1259 C 0.80718 0.63119 0.74032 0.0
C1260 C 0.80819 0.65234 0.73272 0.0
C1261 C 0.80107 0.66187 0.75988 0.0
C1262 C 0.80183 0.68168 0.7524 0.0
C1263 C 0.80981 0.69219 0.71796 0.0
C1264 C 0.81713 0.68296 0.69096 0.0
C1265 C 0.8164 0.66315 0.69828 0.0
H1266 H 0.81037 0.70752 0.71222 0.0
H1267 H 0.80832 0.52198 0.81431 0.0
H1268 H 0.29331 0.86788 0.24404 0.0
H1269 H 0.25832 0.83391 0.24678 0.0
H1270 H 0.2245 0.87017 0.23208 0.0
H1271 H 0.25962 0.90438 0.23179 0.0
H1272 H 0.20488 0.84248 0.28291 0.0
H1273 H 0.22915 0.83553 0.16063 0.0
H1274 H 0.25458 0.83504 0.11367 0.0
H1275 H 0.25453 0.7817 0.17171 0.0
H1276 H 0.22931 0.78205 0.21929 0.0
H1277 H 0.10117 0.74891 0.24141 0.0
H1278 H 0.13606 0.78319 0.23978 0.0
H1279 H 0.1695 0.74901 0.2742 0.0
H1280 H 0.1346 0.71455 0.27566 0.0
H1281 H 0.18882 0.77526 0.21318 0.0
H1282 H 0.16322 0.78271 0.33486 0.0
H1283 H 0.13667 0.78332 0.37912 0.0
H1284 H 0.13787 0.83623 0.31761 0.0
H1285 H 0.16421 0.83574 0.27267 0.0
C1286 C 0.27842 0.86858 0.24078 0.0
C1287 C 0.2792 0.88878 0.23746 0.0
C1288 C 0.25835 0.84908 0.2422 0.0
C1289 C 0.23858 0.84926 0.23903 0.0
C1290 C 0.23942 0.86947 0.23465 0.0
C1291 C 0.25951 0.88904 0.23422 0.0
C1292 C 0.21709 0.82856 0.24223 0.0
C1293 C 0.20131 0.82793 0.2671 0.0
C1294 C 0.2124 0.80926 0.2224 0.0
C1295 C 0.22748 0.80895 0.1937 0.0
C1296 C 0.23467 0.82379 0.16351 0.0
C1297 C 0.24903 0.82352 0.13676 0.0
C1298 C 0.2562 0.80838 0.13976 0.0
C1299 C 0.24898 0.79343 0.16945 0.0
C1300 C 0.23463 0.79364 0.19629 0.0
C1301 C 0.1159 0.74871 0.24918 0.0
C1302 C 0.11509 0.72898 0.25871 0.0
C1303 C 0.13585 0.76835 0.24827 0.0
C1304 C 0.15542 0.76872 0.257 0.0
C1305 C 0.15461 0.74912 0.26733 0.0
C1306 C 0.13463 0.72946 0.26837 0.0
C1307 C 0.17678 0.78934 0.25365 0.0
C1308 C 0.19249 0.7899 0.22881 0.0
C1309 C 0.18126 0.80864 0.27302 0.0
C1310 C 0.16555 0.80906 0.30022 0.0
C1311 C 0.1577 0.79437 0.33061 0.0
C1312 C 0.14271 0.79471 0.35585 0.0
C1313 C 0.13555 0.80977 0.35113 0.0
C1314 C 0.14341 0.82456 0.32121 0.0
C1315 C 0.15839 0.82427 0.29588 0.0
H1316 H 0.12393 0.81 0.37069 0.0
H1317 H 0.26733 0.80821 0.11903 0.0
H1318 H 0.41969 0.2901 0.70661 0.0
H1319 H 0.42059 0.25575 0.70797 0.0
H1320 H 0.36298 0.22645 0.77774 0.0
H1321 H 0.36171 0.26037 0.77597 0.0
H1322 H 0.3977 0.22053 0.8048 0.0
H1323 H 0.35639 0.2122 0.69174 0.0
H1324 H 0.35032 0.22342 0.62932 0.0
H1325 H 0.40689 0.22289 0.58651 0.0
H1326 H 0.41349 0.21198 0.64888 0.0
H1327 H 0.35916 0.10327 0.73194 0.0
H1328 H 0.35989 0.1382 0.73036 0.0
H1329 H 0.42504 0.17045 0.77668 0.0
H1330 H 0.42447 0.13543 0.7783 0.0
H1331 H 0.38756 0.17555 0.69137 0.0
H1332 H 0.4295 0.21305 0.83241 0.0
H1333 H 0.43385 0.20121 0.89551 0.0
H1334 H 0.37245 0.14166 0.88341 0.0
H1335 H 0.36761 0.15328 0.82048 0.0
C1336 C 0.40712 0.27626 0.72194 0.0
C1337 C 0.39059 0.27793 0.74105 0.0
C1338 C 0.40768 0.2567 0.72275 0.0
C1339 C 0.3919 0.23861 0.74311 0.0
C1340 C 0.37537 0.24024 0.76203 0.0
C1341 C 0.37459 0.25962 0.76075 0.0
C1342 C 0.39249 0.21792 0.74494 0.0
C1343 C 0.39563 0.21075 0.77998 0.0
C1344 C 0.38959 0.2051 0.71262 0.0
C1345 C 0.38558 0.21152 0.67507 0.0
C1346 C 0.36765 0.21467 0.66911 0.0
C1347 C 0.36409 0.22093 0.63372 0.0
C1348 C 0.37825 0.22393 0.604 0.0
C1349 C 0.39596 0.22061 0.60958 0.0
C1350 C 0.39961 0.21437 0.64493 0.0
C1351 C 0.3736 0.11774 0.74214 0.0
C1352 C 0.39175 0.11654 0.75534 0.0
C1353 C 0.37403 0.13773 0.74096 0.0
C1354 C 0.39252 0.15695 0.75331 0.0
C1355 C 0.41055 0.1558 0.76718 0.0
C1356 C 0.41019 0.13577 0.76814 0.0
C1357 C 0.39284 0.17814 0.75128 0.0
C1358 C 0.38989 0.18543 0.71617 0.0
C1359 C 0.39576 0.19101 0.7836 0.0
C1360 C 0.39834 0.18394 0.82158 0.0
C1361 C 0.41691 0.19747 0.84328 0.0
C1362 C 0.41946 0.19079 0.87901 0.0
C1363 C 0.40347 0.17066 0.89341 0.0
C1364 C 0.38486 0.1572 0.87217 0.0
C1365 C 0.38223 0.16382 0.83644 0.0
H1366 H 0.40549 0.16551 0.92106 0.0
H1367 H 0.37547 0.22878 0.57662 0.0
loop_
_geom_bond_atom_site_label_1
_geom_bond_atom_site_label_2
_geom_bond_distance
_geom_bond_site_symmetry_2
_ccdc_geom_bond_type
Co0 O1 2.216 . S
Co0 O2 2.091 . S
Co0 O4 2.004 . S
Co0 O10 2.021 . S
Co0 O12 2.137 . S
Co0 O13 2.244 . S
O1 Co0 2.216 . S
O1 C8 1.247 . S
O2 Co0 2.091 . S
O2 C8 1.261 . S
C3 O12 1.247 . S
C3 O13 1.272 . S
O4 Co0 2.004 . S
O4 C9 1.259 . S
Co5 O6 2.069 . S
Co5 O11 2.073 . S
Co5 O13 2.168 . S
O6 Co5 2.069 . S
O6 C9 1.235 . S
C7 O10 1.238 . S
C7 O11 1.241 . S
C8 O1 1.247 . S
C8 O2 1.261 . S
C9 O4 1.259 . S
C9 O6 1.235 . S
O10 Co0 2.021 . S
O10 C7 1.238 . S
O11 Co5 2.073 . S
O11 C7 1.241 . S
O12 Co0 2.137 . S
O12 C3 1.247 . S
O13 Co0 2.244 . S
O13 C3 1.272 . S
O13 Co5 2.168 . S
Co14 O15 2.216 . S
Co14 O16 2.091 . S
Co14 O18 2.004 . S
Co14 O24 2.021 . S
Co14 O26 2.137 . S
Co14 O27 2.244 . S
O15 Co14 2.216 . S
O15 C22 1.247 . S
O16 Co14 2.091 . S
O16 C22 1.261 . S
C17 O26 1.247 . S
C17 O27 1.272 . S
O18 Co14 2.004 . S
O18 C23 1.259 . S
Co19 O20 2.099 . S
Co19 O25 2.052 . S
Co19 O27 2.146 . S
O20 Co19 2.099 . S
O20 C23 1.235 . S
C21 O24 1.238 . S
C21 O25 1.241 . S
C22 O15 1.247 . S
C22 O16 1.261 . S
C23 O18 1.259 . S
C23 O20 1.235 . S
O24 Co14 2.021 . S
O24 C21 1.238 . S
O25 Co19 2.052 . S
O25 C21 1.241 . S
O26 Co14 2.137 . S
O26 C17 1.247 . S
O27 Co14 2.244 . S
O27 C17 1.272 . S
O27 Co19 2.146 . S
Co28 O29 2.216 . S
Co28 O30 2.091 . S
Co28 O32 2.004 . S
Co28 O38 2.021 . S
Co28 O40 2.137 . S
Co28 O41 2.244 . S
O29 Co28 2.216 . S
O29 C36 1.247 . S
O30 Co28 2.091 . S
O30 C36 1.261 . S
C31 O40 1.247 . S
C31 O41 1.272 . S
O32 Co28 2.004 . S
O32 C37 1.259 . S
Co33 O34 2.061 . S
Co33 O39 2.052 . S
Co33 O41 2.135 . S
O34 Co33 2.061 . S
O34 C37 1.235 . S
C35 O38 1.238 . S
C35 O39 1.241 . S
C36 O29 1.247 . S
C36 O30 1.261 . S
C37 O32 1.259 . S
C37 O34 1.235 . S
O38 Co28 2.021 . S
O38 C35 1.238 . S
O39 Co33 2.052 . S
O39 C35 1.241 . S
O40 Co28 2.137 . S
O40 C31 1.247 . S
O41 Co28 2.244 . S
O41 C31 1.272 . S
O41 Co33 2.135 . S
Co42 O43 2.216 . S
Co42 O44 2.091 . S
Co42 O46 2.004 . S
Co42 O52 2.021 . S
Co42 O54 2.137 . S
Co42 O55 2.244 . S
O43 Co42 2.216 . S
O43 C50 1.247 . S
O44 Co42 2.091 . S
O44 C50 1.261 . S
C45 O54 1.247 . S
C45 O55 1.272 . S
O46 Co42 2.004 . S
O46 C51 1.259 . S
Co47 O48 2.069 . S
Co47 O53 2.073 . S
Co47 O55 2.168 . S
O48 Co47 2.069 . S
O48 C51 1.235 . S
C49 O52 1.238 . S
C49 O53 1.241 . S
C50 O43 1.247 . S
C50 O44 1.261 . S
C51 O46 1.259 . S
C51 O48 1.235 . S
O52 Co42 2.021 . S
O52 C49 1.238 . S
O53 Co47 2.073 . S
O53 C49 1.241 . S
O54 Co42 2.137 . S
O54 C45 1.247 . S
O55 Co42 2.244 . S
O55 C45 1.272 . S
O55 Co47 2.168 . S
Co56 O57 2.216 . S
Co56 O58 2.091 . S
Co56 O60 2.004 . S
Co56 O66 2.021 . S
Co56 O68 2.137 . S
Co56 O69 2.244 . S
O57 Co56 2.216 . S
O57 C64 1.247 . S
O58 Co56 2.091 . S
O58 C64 1.261 . S
C59 O68 1.247 . S
C59 O69 1.272 . S
O60 Co56 2.004 . S
O60 C65 1.259 . S
Co61 O62 2.099 . S
Co61 O67 2.052 . S
Co61 O69 2.146 . S
O62 Co61 2.099 . S
O62 C65 1.235 . S
C63 O66 1.238 . S
C63 O67 1.241 . S
C64 O57 1.247 . S
C64 O58 1.261 . S
C65 O60 1.259 . S
C65 O62 1.235 . S
O66 Co56 2.021 . S
O66 C63 1.238 . S
O67 Co61 2.052 . S
O67 C63 1.241 . S
O68 Co56 2.137 . S
O68 C59 1.247 . S
O69 Co56 2.244 . S
O69 C59 1.272 . S
O69 Co61 2.146 . S
Co70 O71 2.216 . S
Co70 O72 2.091 . S
Co70 O74 2.004 . S
Co70 O80 2.021 . S
Co70 O82 2.137 . S
Co70 O83 2.244 . S
O71 Co70 2.216 . S
O71 C78 1.247 . S
O72 Co70 2.091 . S
O72 C78 1.261 . S
C73 O82 1.247 . S
C73 O83 1.272 . S
O74 Co70 2.004 . S
O74 C79 1.259 . S
Co75 O76 2.061 . S
Co75 O81 2.052 . S
Co75 O83 2.135 . S
O76 Co75 2.061 . S
O76 C79 1.235 . S
C77 O80 1.238 . S
C77 O81 1.241 . S
C78 O71 1.247 . S
C78 O72 1.261 . S
C79 O74 1.259 . S
C79 O76 1.235 . S
O80 Co70 2.021 . S
O80 C77 1.238 . S
O81 Co75 2.052 . S
O81 C77 1.241 . S
O82 Co70 2.137 . S
O82 C73 1.247 . S
O83 Co70 2.244 . S
O83 C73 1.272 . S
O83 Co75 2.135 . S
Co84 O85 2.216 . S
Co84 O86 2.091 . S
Co84 O88 2.004 . S
Co84 O94 2.021 . S
Co84 O96 2.137 . S
Co84 O97 2.244 . S
O85 Co84 2.216 . S
O85 C92 1.247 . S
O86 Co84 2.091 . S
O86 C92 1.261 . S
C87 O96 1.247 . S
C87 O97 1.272 . S
O88 Co84 2.004 . S
O88 C93 1.259 . S
Co89 O90 2.069 . S
Co89 O95 2.073 . S
Co89 O97 2.168 . S
O90 Co89 2.069 . S
O90 C93 1.235 . S
C91 O94 1.238 . S
C91 O95 1.241 . S
C92 O85 1.247 . S
C92 O86 1.261 . S
C93 O88 1.259 . S
C93 O90 1.235 . S
O94 Co84 2.021 . S
O94 C91 1.238 . S
O95 Co89 2.073 . S
O95 C91 1.241 . S
O96 Co84 2.137 . S
O96 C87 1.247 . S
O97 Co84 2.244 . S
O97 C87 1.272 . S
O97 Co89 2.168 . S
Co98 O99 2.216 . S
Co98 O100 2.091 . S
Co98 O102 2.004 . S
Co98 O108 2.021 . S
Co98 O110 2.137 . S
Co98 O111 2.244 . S
O99 Co98 2.216 . S
O99 C106 1.247 . S
O100 Co98 2.091 . S
O100 C106 1.261 . S
C101 O110 1.247 . S
C101 O111 1.272 . S
O102 Co98 2.004 . S
O102 C107 1.259 . S
Co103 O104 2.061 . S
Co103 O109 2.052 . S
Co103 O111 2.135 . S
O104 Co103 2.061 . S
O104 C107 1.235 . S
C105 O108 1.238 . S
C105 O109 1.241 . S
C106 O99 1.247 . S
C106 O100 1.261 . S
C107 O102 1.259 . S
C107 O104 1.235 . S
O108 Co98 2.021 . S
O108 C105 1.238 . S
O109 Co103 2.052 . S
O109 C105 1.241 . S
O110 Co98 2.137 . S
O110 C101 1.247 . S
O111 Co98 2.244 . S
O111 C101 1.272 . S
O111 Co103 2.135 . S
Co112 O113 2.216 . S
Co112 O114 2.091 . S
Co112 O116 2.004 . S
Co112 O122 2.021 . S
Co112 O124 2.137 . S
Co112 O125 2.244 . S
O113 Co112 2.216 . S
O113 C120 1.247 . S
O114 Co112 2.091 . S
O114 C120 1.261 . S
C115 O124 1.247 . S
C115 O125 1.272 . S
O116 Co112 2.004 . S
O116 C121 1.259 . S
Co117 O118 2.099 . S
Co117 O123 2.052 . S
Co117 O125 2.146 . S
O118 Co117 2.099 . S
O118 C121 1.235 . S
C119 O122 1.238 . S
C119 O123 1.241 . S
C120 O113 1.247 . S
C120 O114 1.261 . S
C121 O116 1.259 . S
C121 O118 1.235 . S
O122 Co112 2.021 . S
O122 C119 1.238 . S
O123 Co117 2.052 . S
O123 C119 1.241 . S
O124 Co112 2.137 . S
O124 C115 1.247 . S
O125 Co112 2.244 . S
O125 C115 1.272 . S
O125 Co117 2.146 . S
Co126 O127 2.216 . S
Co126 O128 2.091 . S
Co126 O130 2.004 . S
Co126 O136 2.021 . S
Co126 O138 2.137 . S
Co126 O139 2.244 . S
O127 Co126 2.216 . S
O127 C134 1.247 . S
O128 Co126 2.091 . S
O128 C134 1.261 . S
C129 O138 1.247 . S
C129 O139 1.272 . S
O130 Co126 2.004 . S
O130 C135 1.259 . S
Co131 O132 2.069 . S
Co131 O137 2.073 . S
Co131 O139 2.168 . S
O132 Co131 2.069 . S
O132 C135 1.235 . S
C133 O136 1.238 . S
C133 O137 1.241 . S
C134 O127 1.247 . S
C134 O128 1.261 . S
C135 O130 1.259 . S
C135 O132 1.235 . S
O136 Co126 2.021 . S
O136 C133 1.238 . S
O137 Co131 2.073 . S
O137 C133 1.241 . S
O138 Co126 2.137 . S
O138 C129 1.247 . S
O139 Co126 2.244 . S
O139 C129 1.272 . S
O139 Co131 2.168 . S
Co140 O141 2.216 . S
Co140 O142 2.091 . S
Co140 O144 2.004 . S
Co140 O150 2.021 . S
Co140 O152 2.137 . S
Co140 O153 2.244 . S
O141 Co140 2.216 . S
O141 C148 1.247 . S
O142 Co140 2.091 . S
O142 C148 1.261 . S
C143 O152 1.247 . S
C143 O153 1.272 . S
O144 Co140 2.004 . S
O144 C149 1.259 . S
Co145 O146 2.061 . S
Co145 O151 2.052 . S
Co145 O153 2.135 . S
O146 Co145 2.061 . S
O146 C149 1.235 . S
C147 O150 1.238 . S
C147 O151 1.241 . S
C148 O141 1.247 . S
C148 O142 1.261 . S
C149 O144 1.259 . S
C149 O146 1.235 . S
O150 Co140 2.021 . S
O150 C147 1.238 . S
O151 Co145 2.052 . S
O151 C147 1.241 . S
O152 Co140 2.137 . S
O152 C143 1.247 . S
O153 Co140 2.244 . S
O153 C143 1.272 . S
O153 Co145 2.135 . S
Co154 O155 2.216 . S
Co154 O156 2.091 . S
Co154 O158 2.004 . S
Co154 O164 2.021 . S
Co154 O166 2.137 . S
Co154 O167 2.244 . S
O155 Co154 2.216 . S
O155 C162 1.247 . S
O156 Co154 2.091 . S
O156 C162 1.261 . S
C157 O166 1.247 . S
C157 O167 1.272 . S
O158 Co154 2.004 . S
O158 C163 1.259 . S
Co159 O160 2.099 . S
Co159 O165 2.052 . S
Co159 O167 2.146 . S
O160 Co159 2.099 . S
O160 C163 1.235 . S
C161 O164 1.238 . S
C161 O165 1.241 . S
C162 O155 1.247 . S
C162 O156 1.261 . S
C163 O158 1.259 . S
C163 O160 1.235 . S
O164 Co154 2.021 . S
O164 C161 1.238 . S
O165 Co159 2.052 . S
O165 C161 1.241 . S
O166 Co154 2.137 . S
O166 C157 1.247 . S
O167 Co154 2.244 . S
O167 C157 1.272 . S
O167 Co159 2.146 . S
H168 C186 0.951 . S
H169 C188 0.951 1_655 S
H170 C190 0.950 . S
H171 C191 0.950 . S
H172 C193 0.950 . S
H173 C196 0.950 . S
H174 C197 0.950 . S
H175 C199 0.950 . S
H176 C200 0.950 . S
H177 C201 0.951 . S
H178 C203 0.951 1_455 S
H179 C205 0.950 . S
H180 C206 0.950 . S
H181 C208 0.950 . S
H182 C211 0.950 . S
H183 C212 0.950 . S
H184 C214 0.950 . S
H185 C215 0.950 . S
C186 H168 0.951 . S
C186 C187 1.366 . S
C186 C188 1.388 . S
C187 C186 1.366 . S
C187 C191 1.385 . S
C188 H169 0.951 1_455 S
C188 C186 1.388 . S
C188 C189 1.366 . S
C189 C188 1.366 . S
C189 C190 1.414 . S
C189 C192 1.499 . S
C190 H170 0.950 . S
C190 C189 1.414 . S
C190 C191 1.374 . S
C191 H171 0.950 . S
C191 C187 1.385 . S
C191 C190 1.374 . S
C192 C189 1.499 . S
C192 C193 1.373 . S
C192 C194 1.389 1_455 S
C193 H172 0.950 . S
C193 C192 1.373 . S
C193 C209 1.377 1_554 S
C194 C192 1.389 1_655 S
C194 C195 1.524 . S
C194 C208 1.377 1_554 S
C195 C194 1.524 . S
C195 C196 1.397 . S
C195 C200 1.363 . S
C196 H173 0.950 . S
C196 C195 1.397 . S
C196 C197 1.334 . S
C197 H174 0.950 . S
C197 C196 1.334 . S
C197 C198 1.287 . S
C198 C197 1.287 . S
C198 C199 1.524 . S
C198 H217 0.913 . S
C199 H175 0.950 . S
C199 C198 1.524 . S
C199 C200 1.415 . S
C200 H176 0.950 . S
C200 C195 1.363 . S
C200 C199 1.415 . S
C201 H177 0.951 . S
C201 C202 1.366 . S
C201 C203 1.388 . S
C202 C201 1.366 . S
C202 C206 1.385 . S
C203 H178 0.951 1_655 S
C203 C201 1.388 . S
C203 C204 1.366 . S
C204 C203 1.366 . S
C204 C205 1.414 . S
C204 C207 1.499 . S
C205 H179 0.950 . S
C205 C204 1.414 . S
C205 C206 1.374 . S
C206 H180 0.950 . S
C206 C202 1.385 . S
C206 C205 1.374 . S
C207 C204 1.499 . S
C207 C208 1.373 . S
C207 C209 1.389 1_655 S
C208 H181 0.950 . S
C208 C194 1.377 1_556 S
C208 C207 1.373 . S
C209 C193 1.377 1_556 S
C209 C207 1.389 1_455 S
C209 C210 1.524 . S
C210 C209 1.524 . S
C210 C211 1.397 . S
C210 C215 1.363 . S
C211 H182 0.950 . S
C211 C210 1.397 . S
C211 C212 1.334 . S
C212 H183 0.950 . S
C212 C211 1.334 . S
C212 C213 1.287 . S
C213 C212 1.287 . S
C213 C214 1.524 . S
C213 H216 0.999 . S
C214 H184 0.950 . S
C214 C213 1.524 . S
C214 C215 1.415 . S
C215 H185 0.950 . S
C215 C210 1.363 . S
C215 C214 1.415 . S
H216 C213 0.999 . S
H217 C198 0.913 . S
H218 C236 0.951 . S
H219 C238 0.951 1_545 S
H220 C240 0.950 . S
H221 C241 0.950 . S
H222 C243 0.950 . S
H223 C246 0.950 . S
H224 C247 0.950 . S
H225 C249 0.950 1_545 S
H226 C250 0.996 . S
H227 C251 0.951 . S
H228 C253 0.951 1_565 S
H229 C255 0.950 . S
H230 C256 0.950 . S
H231 C258 0.950 . S
H232 C261 0.950 . S
H233 C262 0.950 . S
H234 C264 0.950 1_565 S
H235 C265 0.996 . S
C236 H218 0.951 . S
C236 C237 1.366 . S
C236 C238 1.388 . S
C237 C236 1.366 . S
C237 C241 1.385 . S
C238 H219 0.951 1_565 S
C238 C236 1.388 . S
C238 C239 1.366 . S
C239 C238 1.366 . S
C239 C240 1.414 . S
C239 C242 1.499 . S
C240 H220 0.950 . S
C240 C239 1.414 . S
C240 C241 1.374 . S
C241 H221 0.950 . S
C241 C237 1.385 . S
C241 C240 1.374 . S
C242 C239 1.499 . S
C242 C243 1.373 . S
C242 C244 1.389 . S
C243 H222 0.950 . S
C243 C242 1.373 . S
C243 C259 1.377 1_565 S
C244 C242 1.389 . S
C244 C245 1.524 . S
C244 C258 1.377 1_565 S
C245 C244 1.524 . S
C245 C246 1.397 . S
C245 C250 1.357 1_565 S
C246 H223 0.950 . S
C246 C245 1.397 . S
C246 C247 1.334 . S
C247 H224 0.950 . S
C247 C246 1.334 . S
C247 C248 1.287 . S
C248 C247 1.287 . S
C248 C249 1.524 . S
C248 H267 0.913 . S
C249 H225 0.950 1_565 S
C249 C248 1.524 . S
C249 C250 1.377 1_565 S
C250 H226 0.996 . S
C250 C245 1.357 1_545 S
C250 C249 1.377 1_545 S
C251 H227 0.951 . S
C251 C252 1.366 . S
C251 C253 1.388 . S
C252 C251 1.366 . S
C252 C256 1.385 . S
C253 H228 0.951 1_545 S
C253 C251 1.388 . S
C253 C254 1.366 . S
C254 C253 1.366 . S
C254 C255 1.414 . S
C254 C257 1.499 . S
C255 H229 0.950 . S
C255 C254 1.414 . S
C255 C256 1.374 . S
C256 H230 0.950 . S
C256 C252 1.385 . S
C256 C255 1.374 . S
C257 C254 1.499 . S
C257 C258 1.373 . S
C257 C259 1.389 . S
C258 H231 0.950 . S
C258 C244 1.377 1_545 S
C258 C257 1.373 . S
C259 C243 1.377 1_545 S
C259 C257 1.389 . S
C259 C260 1.524 . S
C260 C259 1.524 . S
C260 C261 1.397 . S
C260 C265 1.357 1_545 S
C261 H232 0.950 . S
C261 C260 1.397 . S
C261 C262 1.334 . S
C262 H233 0.950 . S
C262 C261 1.334 . S
C262 C263 1.287 . S
C263 C262 1.287 . S
C263 C264 1.524 . S
C263 H266 0.999 . S
C264 H234 0.950 1_545 S
C264 C263 1.524 . S
C264 C265 1.377 1_545 S
C265 H235 0.996 . S
C265 C260 1.357 1_565 S
C265 C264 1.377 1_565 S
H266 C263 0.999 . S
H267 C248 0.913 . S
H268 C286 0.951 . S
H269 C288 0.951 . S
H270 C290 0.950 . S
H271 C291 0.950 . S
H272 C293 0.950 . S
H273 C296 0.950 . S
H274 C297 0.950 . S
H275 C299 0.950 . S
H276 C300 0.950 . S
H277 C301 0.951 . S
H278 C303 0.951 . S
H279 C305 0.950 . S
H280 C306 0.950 . S
H281 C308 0.950 . S
H282 C311 0.950 . S
H283 C312 0.950 . S
H284 C314 0.950 . S
H285 C315 0.950 . S
C286 H268 0.951 . S
C286 C287 1.366 . S
C286 C288 1.388 . S
C287 C286 1.366 . S
C287 C291 1.385 . S
C288 H269 0.951 . S
C288 C286 1.388 . S
C288 C289 1.366 . S
C289 C288 1.366 . S
C289 C290 1.414 . S
C289 C292 1.499 . S
C290 H270 0.950 . S
C290 C289 1.414 . S
C290 C291 1.374 . S
C291 H271 0.950 . S
C291 C287 1.385 . S
C291 C290 1.374 . S
C292 C289 1.499 . S
C292 C293 1.373 . S
C292 C294 1.389 . S
C293 H272 0.950 . S
C293 C292 1.373 . S
C293 C309 1.377 1_554 S
C294 C292 1.389 . S
C294 C295 1.524 . S
C294 C308 1.377 1_554 S
C295 C294 1.524 . S
C295 C296 1.397 . S
C295 C300 1.363 . S
C296 H273 0.950 . S
C296 C295 1.397 . S
C296 C297 1.334 . S
C297 H274 0.950 . S
C297 C296 1.334 . S
C297 C298 1.287 . S
C298 C297 1.287 . S
C298 C299 1.524 . S
C298 H317 0.913 . S
C299 H275 0.950 . S
C299 C298 1.524 . S
C299 C300 1.415 . S
C300 H276 0.950 . S
C300 C295 1.363 . S
C300 C299 1.415 . S
C301 H277 0.951 . S
C301 C302 1.366 . S
C301 C303 1.388 . S
C302 C301 1.366 . S
C302 C306 1.385 . S
C303 H278 0.951 . S
C303 C301 1.388 . S
C303 C304 1.366 . S
C304 C303 1.366 . S
C304 C305 1.414 . S
C304 C307 1.499 . S
C305 H279 0.950 . S
C305 C304 1.414 . S
C305 C306 1.374 . S
C306 H280 0.950 . S
C306 C302 1.385 . S
C306 C305 1.374 . S
C307 C304 1.499 . S
C307 C308 1.373 . S
C307 C309 1.389 . S
C308 H281 0.950 . S
C308 C294 1.377 1_556 S
C308 C307 1.373 . S
C309 C293 1.377 1_556 S
C309 C307 1.389 . S
C309 C310 1.524 . S
C310 C309 1.524 . S
C310 C311 1.397 . S
C310 C315 1.363 . S
C311 H282 0.950 . S
C311 C310 1.397 . S
C311 C312 1.334 . S
C312 H283 0.950 . S
C312 C311 1.334 . S
C312 C313 1.287 . S
C313 C312 1.287 . S
C313 C314 1.524 . S
C313 H316 0.999 . S
C314 H284 0.950 . S
C314 C313 1.524 . S
C314 C315 1.415 . S
C315 H285 0.950 . S
C315 C310 1.363 . S
C315 C314 1.415 . S
H316 C313 0.999 . S
H317 C298 0.913 . S
H318 C336 0.951 . S
H319 C338 0.951 . S
H320 C340 0.950 . S
H321 C341 0.950 . S
H322 C343 0.950 . S
H323 C346 0.950 . S
H324 C347 0.950 . S
H325 C349 0.950 . S
H326 C350 0.950 . S
H327 C351 0.951 . S
H328 C353 0.951 . S
H329 C355 0.950 . S
H330 C356 0.950 . S
H331 C358 0.950 . S
H332 C361 0.950 . S
H333 C362 0.950 . S
H334 C364 0.950 . S
H335 C365 0.950 . S
C336 H318 0.951 . S
C336 C337 1.366 . S
C336 C338 1.388 . S
C337 C336 1.366 . S
C337 C341 1.385 . S
C338 H319 0.951 . S
C338 C336 1.388 . S
C338 C339 1.366 . S
C339 C338 1.366 . S
C339 C340 1.414 . S
C339 C342 1.499 . S
C340 H320 0.950 . S
C340 C339 1.414 . S
C340 C341 1.374 . S
C341 H321 0.950 . S
C341 C337 1.385 . S
C341 C340 1.374 . S
C342 C339 1.499 . S
C342 C343 1.373 . S
C342 C344 1.389 1_455 S
C343 H322 0.950 . S
C343 C342 1.373 . S
C343 C359 1.377 . S
C344 C342 1.389 1_655 S
C344 C345 1.524 . S
C344 C358 1.377 . S
C345 C344 1.524 . S
C345 C346 1.397 . S
C345 C350 1.363 . S
C346 H323 0.950 . S
C346 C345 1.397 . S
C346 C347 1.334 . S
C347 H324 0.950 . S
C347 C346 1.334 . S
C347 C348 1.287 . S
C348 C347 1.287 . S
C348 C349 1.524 . S
C348 H367 0.913 . S
C349 H325 0.950 . S
C349 C348 1.524 . S
C349 C350 1.415 . S
C350 H326 0.950 . S
C350 C345 1.363 . S
C350 C349 1.415 . S
C351 H327 0.951 . S
C351 C352 1.366 . S
C351 C353 1.388 . S
C352 C351 1.366 . S
C352 C356 1.385 . S
C353 H328 0.951 . S
C353 C351 1.388 . S
C353 C354 1.366 . S
C354 C353 1.366 . S
C354 C355 1.414 . S
C354 C357 1.499 . S
C355 H329 0.950 . S
C355 C354 1.414 . S
C355 C356 1.374 . S
C356 H330 0.950 . S
C356 C352 1.385 . S
C356 C355 1.374 . S
C357 C354 1.499 . S
C357 C358 1.373 . S
C357 C359 1.389 1_655 S
C358 H331 0.950 . S
C358 C344 1.377 . S
C358 C357 1.373 . S
C359 C343 1.377 . S
C359 C357 1.389 1_455 S
C359 C360 1.524 . S
C360 C359 1.524 . S
C360 C361 1.397 . S
C360 C365 1.363 . S
C361 H332 0.950 . S
C361 C360 1.397 . S
C361 C362 1.334 . S
C362 H333 0.950 . S
C362 C361 1.334 . S
C362 C363 1.287 . S
C363 C362 1.287 . S
C363 C364 1.524 . S
C363 H366 0.999 . S
C364 H334 0.950 . S
C364 C363 1.524 . S
C364 C365 1.415 . S
C365 H335 0.950 . S
C365 C360 1.363 . S
C365 C364 1.415 . S
H366 C363 0.999 . S
H367 C348 0.913 . S
H368 C386 0.951 . S
H369 C388 0.951 . S
H370 C390 0.950 . S
H371 C391 0.950 . S
H372 C393 0.950 . S
H373 C396 0.950 . S
H374 C397 0.950 . S
H375 C399 0.950 . S
H376 C400 0.950 . S
H377 C401 0.951 . S
H378 C403 0.951 . S
H379 C405 0.950 . S
H380 C406 0.950 . S
H381 C408 0.950 . S
H382 C411 0.950 . S
H383 C412 0.950 . S
H384 C414 0.950 . S
H385 C415 0.950 . S
C386 H368 0.951 . S
C386 C387 1.366 . S
C386 C388 1.388 . S
C387 C386 1.366 . S
C387 C391 1.385 . S
C388 H369 0.951 . S
C388 C386 1.388 . S
C388 C389 1.366 . S
C389 C388 1.366 . S
C389 C390 1.414 . S
C389 C392 1.499 . S
C390 H370 0.950 . S
C390 C389 1.414 . S
C390 C391 1.374 . S
C391 H371 0.950 . S
C391 C387 1.385 . S
C391 C390 1.374 . S
C392 C389 1.499 . S
C392 C393 1.373 1_545 S
C392 C394 1.389 . S
C393 H372 0.950 . S
C393 C392 1.373 1_565 S
C393 C409 1.377 1_556 S
C394 C392 1.389 . S
C394 C395 1.524 . S
C394 C408 1.377 1_556 S
C395 C394 1.524 . S
C395 C396 1.397 . S
C395 C400 1.363 . S
C396 H373 0.950 . S
C396 C395 1.397 . S
C396 C397 1.334 . S
C397 H374 0.950 . S
C397 C396 1.334 . S
C397 C398 1.287 . S
C398 C397 1.287 . S
C398 C399 1.524 . S
C398 H417 0.913 . S
C399 H375 0.950 . S
C399 C398 1.524 . S
C399 C400 1.415 . S
C400 H376 0.950 . S
C400 C395 1.363 . S
C400 C399 1.415 . S
C401 H377 0.951 . S
C401 C402 1.366 . S
C401 C403 1.388 . S
C402 C401 1.366 . S
C402 C406 1.385 . S
C403 H378 0.951 . S
C403 C401 1.388 . S
C403 C404 1.366 . S
C404 C403 1.366 . S
C404 C405 1.414 . S
C404 C407 1.499 . S
C405 H379 0.950 . S
C405 C404 1.414 . S
C405 C406 1.374 . S
C406 H380 0.950 . S
C406 C402 1.385 . S
C406 C405 1.374 . S
C407 C404 1.499 . S
C407 C408 1.373 1_565 S
C407 C409 1.389 . S
C408 H381 0.950 . S
C408 C394 1.377 1_554 S
C408 C407 1.373 1_545 S
C409 C393 1.377 1_554 S
C409 C407 1.389 . S
C409 C410 1.524 . S
C410 C409 1.524 . S
C410 C411 1.397 . S
C410 C415 1.363 . S
C411 H382 0.950 . S
C411 C410 1.397 . S
C411 C412 1.334 . S
C412 H383 0.950 . S
C412 C411 1.334 . S
C412 C413 1.287 . S
C413 C412 1.287 . S
C413 C414 1.524 . S
C413 H416 0.999 . S
C414 H384 0.950 . S
C414 C413 1.524 . S
C414 C415 1.415 . S
C415 H385 0.950 . S
C415 C410 1.363 . S
C415 C414 1.415 . S
H416 C413 0.999 . S
H417 C398 0.913 . S
H418 C436 0.951 . S
H419 C438 0.951 . S
H420 C440 0.950 . S
H421 C441 0.950 . S
H422 C443 0.950 . S
H423 C446 0.950 . S
H424 C447 0.950 . S
H425 C449 0.950 . S
H426 C450 0.950 . S
H427 C451 0.951 . S
H428 C453 0.951 . S
H429 C455 0.950 . S
H430 C456 0.950 . S
H431 C458 0.950 . S
H432 C461 0.950 . S
H433 C462 0.950 . S
H434 C464 0.950 . S
H435 C465 0.950 . S
C436 H418 0.951 . S
C436 C437 1.366 . S
C436 C438 1.388 . S
C437 C436 1.366 . S
C437 C441 1.385 . S
C438 H419 0.951 . S
C438 C436 1.388 . S
C438 C439 1.366 . S
C439 C438 1.366 . S
C439 C440 1.414 . S
C439 C442 1.499 . S
C440 H420 0.950 . S
C440 C439 1.414 . S
C440 C441 1.374 . S
C441 H421 0.950 . S
C441 C437 1.385 . S
C441 C440 1.374 . S
C442 C439 1.499 . S
C442 C443 1.373 . S
C442 C444 1.389 . S
C443 H422 0.950 . S
C443 C442 1.373 . S
C443 C459 1.377 . S
C444 C442 1.389 . S
C444 C445 1.524 . S
C444 C458 1.377 . S
C445 C444 1.524 . S
C445 C446 1.397 . S
C445 C450 1.363 . S
C446 H423 0.950 . S
C446 C445 1.397 . S
C446 C447 1.334 . S
C447 H424 0.950 . S
C447 C446 1.334 . S
C447 C448 1.287 . S
C448 C447 1.287 . S
C448 C449 1.524 . S
C448 H467 0.913 . S
C449 H425 0.950 . S
C449 C448 1.524 . S
C449 C450 1.415 . S
C450 H426 0.950 . S
C450 C445 1.363 . S
C450 C449 1.415 . S
C451 H427 0.951 . S
C451 C452 1.366 . S
C451 C453 1.388 . S
C452 C451 1.366 . S
C452 C456 1.385 . S
C453 H428 0.951 . S
C453 C451 1.388 . S
C453 C454 1.366 . S
C454 C453 1.366 . S
C454 C455 1.414 . S
C454 C457 1.499 . S
C455 H429 0.950 . S
C455 C454 1.414 . S
C455 C456 1.374 . S
C456 H430 0.950 . S
C456 C452 1.385 . S
C456 C455 1.374 . S
C457 C454 1.499 . S
C457 C458 1.373 . S
C457 C459 1.389 . S
C458 H431 0.950 . S
C458 C444 1.377 . S
C458 C457 1.373 . S
C459 C443 1.377 . S
C459 C457 1.389 . S
C459 C460 1.524 . S
C460 C459 1.524 . S
C460 C461 1.397 . S
C460 C465 1.363 . S
C461 H432 0.950 . S
C461 C460 1.397 . S
C461 C462 1.334 . S
C462 H433 0.950 . S
C462 C461 1.334 . S
C462 C463 1.287 . S
C463 C462 1.287 . S
C463 C464 1.524 . S
C463 H466 0.999 . S
C464 H434 0.950 . S
C464 C463 1.524 . S
C464 C465 1.415 . S
C465 H435 0.950 . S
C465 C460 1.363 . S
C465 C464 1.415 . S
H466 C463 0.999 . S
H467 C448 0.913 . S
H468 C486 0.951 . S
H469 C488 0.951 . S
H470 C490 0.950 . S
H471 C491 0.950 . S
H472 C493 0.950 . S
H473 C496 0.950 . S
H474 C497 0.950 . S
H475 C499 0.950 . S
H476 C500 0.950 . S
H477 C501 0.951 . S
H478 C503 0.951 . S
H479 C505 0.950 . S
H480 C506 0.950 . S
H481 C508 0.950 . S
H482 C511 0.950 . S
H483 C512 0.950 . S
H484 C514 0.950 . S
H485 C515 0.950 . S
C486 H468 0.951 . S
C486 C487 1.366 . S
C486 C488 1.388 . S
C487 C486 1.366 . S
C487 C491 1.385 . S
C488 H469 0.951 . S
C488 C486 1.388 . S
C488 C489 1.366 . S
C489 C488 1.366 . S
C489 C490 1.414 . S
C489 C492 1.499 . S
C490 H470 0.950 . S
C490 C489 1.414 . S
C490 C491 1.374 . S
C491 H471 0.950 . S
C491 C487 1.385 . S
C491 C490 1.374 . S
C492 C489 1.499 . S
C492 C493 1.373 . S
C492 C494 1.389 1_655 S
C493 H472 0.950 . S
C493 C492 1.373 . S
C493 C509 1.377 1_556 S
C494 C492 1.389 1_455 S
C494 C495 1.524 . S
C494 C508 1.377 1_556 S
C495 C494 1.524 . S
C495 C496 1.397 . S
C495 C500 1.363 . S
C496 H473 0.950 . S
C496 C495 1.397 . S
C496 C497 1.334 . S
C497 H474 0.950 . S
C497 C496 1.334 . S
C497 C498 1.287 . S
C498 C497 1.287 . S
C498 C499 1.524 . S
C498 H517 0.913 . S
C499 H475 0.950 . S
C499 C498 1.524 . S
C499 C500 1.415 . S
C500 H476 0.950 . S
C500 C495 1.363 . S
C500 C499 1.415 . S
C501 H477 0.951 . S
C501 C502 1.366 . S
C501 C503 1.388 . S
C502 C501 1.366 . S
C502 C506 1.385 . S
C503 H478 0.951 . S
C503 C501 1.388 . S
C503 C504 1.366 . S
C504 C503 1.366 . S
C504 C505 1.414 . S
C504 C507 1.499 . S
C505 H479 0.950 . S
C505 C504 1.414 . S
C505 C506 1.374 . S
C506 H480 0.950 . S
C506 C502 1.385 . S
C506 C505 1.374 . S
C507 C504 1.499 . S
C507 C508 1.373 . S
C507 C509 1.389 1_455 S
C508 H481 0.950 . S
C508 C494 1.377 1_554 S
C508 C507 1.373 . S
C509 C493 1.377 1_554 S
C509 C507 1.389 1_655 S
C509 C510 1.524 . S
C510 C509 1.524 . S
C510 C511 1.397 . S
C510 C515 1.363 . S
C511 H482 0.950 . S
C511 C510 1.397 . S
C511 C512 1.334 . S
C512 H483 0.950 . S
C512 C511 1.334 . S
C512 C513 1.287 . S
C513 C512 1.287 . S
C513 C514 1.524 . S
C513 H516 0.999 . S
C514 H484 0.950 . S
C514 C513 1.524 . S
C514 C515 1.415 . S
C515 H485 0.950 . S
C515 C510 1.363 . S
C515 C514 1.415 . S
H516 C513 0.999 . S
H517 C498 0.913 . S
H518 C536 0.951 . S
H519 C538 0.951 . S
H520 C540 0.950 . S
H521 C541 0.950 1_545 S
H522 C543 0.950 . S
H523 C546 0.950 1_545 S
H524 C547 0.950 . S
H525 C549 0.950 . S
H526 C550 0.950 . S
H527 C551 0.951 . S
H528 C553 0.951 . S
H529 C555 0.950 . S
H530 C556 0.950 1_565 S
H531 C558 0.950 . S
H532 C561 0.950 1_565 S
H533 C562 0.950 . S
H534 C564 0.950 . S
H535 C565 0.950 . S
C536 H518 0.951 . S
C536 C537 1.366 . S
C536 C538 1.388 . S
C537 C536 1.366 . S
C537 C541 1.385 . S
C538 H519 0.951 . S
C538 C536 1.388 . S
C538 C539 1.366 . S
C539 C538 1.366 . S
C539 C540 1.414 1_565 S
C539 C542 1.499 . S
C540 H520 0.950 . S
C540 C539 1.414 1_545 S
C540 C541 1.374 1_545 S
C541 H521 0.950 1_565 S
C541 C537 1.385 . S
C541 C540 1.374 1_565 S
C542 C539 1.499 . S
C542 C543 1.373 1_565 S
C542 C544 1.389 . S
C543 H522 0.950 . S
C543 C542 1.373 1_545 S
C543 C559 1.377 . S
C544 C542 1.389 . S
C544 C545 1.524 . S
C544 C558 1.377 . S
C545 C544 1.524 . S
C545 C546 1.397 . S
C545 C550 1.363 . S
C546 H523 0.950 1_565 S
C546 C545 1.397 . S
C546 C547 1.334 . S
C547 H524 0.950 . S
C547 C546 1.334 . S
C547 C548 1.287 . S
C548 C547 1.287 . S
C548 C549 1.524 . S
C548 H567 0.913 . S
C549 H525 0.950 . S
C549 C548 1.524 . S
C549 C550 1.415 . S
C550 H526 0.950 . S
C550 C545 1.363 . S
C550 C549 1.415 . S
C551 H527 0.951 . S
C551 C552 1.366 . S
C551 C553 1.388 . S
C552 C551 1.366 . S
C552 C556 1.385 . S
C553 H528 0.951 . S
C553 C551 1.388 . S
C553 C554 1.366 . S
C554 C553 1.366 . S
C554 C555 1.414 1_545 S
C554 C557 1.499 . S
C555 H529 0.950 . S
C555 C554 1.414 1_565 S
C555 C556 1.374 1_565 S
C556 H530 0.950 1_545 S
C556 C552 1.385 . S
C556 C555 1.374 1_545 S
C557 C554 1.499 . S
C557 C558 1.373 1_545 S
C557 C559 1.389 . S
C558 H531 0.950 . S
C558 C544 1.377 . S
C558 C557 1.373 1_565 S
C559 C543 1.377 . S
C559 C557 1.389 . S
C559 C560 1.524 . S
C560 C559 1.524 . S
C560 C561 1.397 . S
C560 C565 1.363 . S
C561 H532 0.950 1_545 S
C561 C560 1.397 . S
C561 C562 1.334 . S
C562 H533 0.950 . S
C562 C561 1.334 . S
C562 C563 1.287 . S
C563 C562 1.287 . S
C563 C564 1.524 . S
C563 H566 0.999 . S
C564 H534 0.950 . S
C564 C563 1.524 . S
C564 C565 1.415 . S
C565 H535 0.950 . S
C565 C560 1.363 . S
C565 C564 1.415 . S
H566 C563 0.999 . S
H567 C548 0.913 . S
H568 C586 0.951 . S
H569 C588 0.951 . S
H570 C590 0.950 . S
H571 C591 0.950 . S
H572 C593 0.950 . S
H573 C596 0.950 . S
H574 C597 0.950 . S
H575 C599 0.950 . S
H576 C600 0.950 1_554 S
H577 C601 0.951 . S
H578 C603 0.951 . S
H579 C605 0.950 . S
H580 C606 0.950 . S
H581 C608 0.950 . S
H582 C611 0.950 . S
H583 C612 0.950 . S
H584 C614 0.950 . S
H585 C615 0.950 1_556 S
C586 H568 0.951 . S
C586 C587 1.366 . S
C586 C588 1.388 . S
C587 C586 1.366 . S
C587 C591 1.385 . S
C588 H569 0.951 . S
C588 C586 1.388 . S
C588 C589 1.366 . S
C589 C588 1.366 . S
C589 C590 1.414 . S
C589 C592 1.499 . S
C590 H570 0.950 . S
C590 C589 1.414 . S
C590 C591 1.374 . S
C591 H571 0.950 . S
C591 C587 1.385 . S
C591 C590 1.374 . S
C592 C589 1.499 . S
C592 C593 1.373 . S
C592 C594 1.389 . S
C593 H572 0.950 . S
C593 C592 1.373 . S
C593 C609 1.377 1_556 S
C594 C592 1.389 . S
C594 C595 1.524 . S
C594 C608 1.377 1_556 S
C595 C594 1.524 . S
C595 C596 1.397 . S
C595 C600 1.363 . S
C596 H573 0.950 . S
C596 C595 1.397 . S
C596 C597 1.334 . S
C597 H574 0.950 . S
C597 C596 1.334 . S
C597 C598 1.287 . S
C598 C597 1.287 . S
C598 C599 1.524 . S
C598 H617 0.913 . S
C599 H575 0.950 . S
C599 C598 1.524 . S
C599 C600 1.415 . S
C600 H576 0.950 1_556 S
C600 C595 1.363 . S
C600 C599 1.415 . S
C601 H577 0.951 . S
C601 C602 1.366 . S
C601 C603 1.388 . S
C602 C601 1.366 . S
C602 C606 1.385 . S
C603 H578 0.951 . S
C603 C601 1.388 . S
C603 C604 1.366 . S
C604 C603 1.366 . S
C604 C605 1.414 . S
C604 C607 1.499 . S
C605 H579 0.950 . S
C605 C604 1.414 . S
C605 C606 1.374 . S
C606 H580 0.950 . S
C606 C602 1.385 . S
C606 C605 1.374 . S
C607 C604 1.499 . S
C607 C608 1.373 . S
C607 C609 1.389 . S
C608 H581 0.950 . S
C608 C594 1.377 1_554 S
C608 C607 1.373 . S
C609 C593 1.377 1_554 S
C609 C607 1.389 . S
C609 C610 1.524 . S
C610 C609 1.524 . S
C610 C611 1.397 . S
C610 C615 1.363 . S
C611 H582 0.950 . S
C611 C610 1.397 . S
C611 C612 1.334 . S
C612 H583 0.950 . S
C612 C611 1.334 . S
C612 C613 1.287 . S
C613 C612 1.287 . S
C613 C614 1.524 . S
C613 H616 0.999 . S
C614 H584 0.950 . S
C614 C613 1.524 . S
C614 C615 1.415 . S
C615 H585 0.950 1_554 S
C615 C610 1.363 . S
C615 C614 1.415 . S
H616 C613 0.999 . S
H617 C598 0.913 . S
H618 C636 0.951 . S
H619 C638 0.951 . S
H620 C640 0.950 1_455 S
H621 C641 0.950 . S
H622 C643 0.950 . S
H623 C646 0.950 . S
H624 C647 0.950 . S
H625 C649 0.950 . S
H626 C650 0.950 . S
H627 C651 0.951 . S
H628 C653 0.951 . S
H629 C655 0.950 1_655 S
H630 C656 0.950 . S
H631 C658 0.950 . S
H632 C661 0.950 . S
H633 C662 0.950 . S
H634 C664 0.950 . S
H635 C665 0.950 . S
C636 H618 0.951 . S
C636 C637 1.366 . S
C636 C638 1.388 . S
C637 C636 1.366 . S
C637 C641 1.385 . S
C638 H619 0.951 . S
C638 C636 1.388 . S
C638 C639 1.366 . S
C639 C638 1.366 . S
C639 C640 1.414 . S
C639 C642 1.499 . S
C640 H620 0.950 1_655 S
C640 C639 1.414 . S
C640 C641 1.374 . S
C641 H621 0.950 . S
C641 C637 1.385 . S
C641 C640 1.374 . S
C642 C639 1.499 . S
C642 C643 1.373 1_655 S
C642 C644 1.389 . S
C643 H622 0.950 . S
C643 C642 1.373 1_455 S
C643 C659 1.377 . S
C644 C642 1.389 . S
C644 C645 1.524 . S
C644 C658 1.377 . S
C645 C644 1.524 . S
C645 C646 1.397 . S
C645 C650 1.363 . S
C646 H623 0.950 . S
C646 C645 1.397 . S
C646 C647 1.334 . S
C647 H624 0.950 . S
C647 C646 1.334 . S
C647 C648 1.287 . S
C648 C647 1.287 . S
C648 C649 1.524 . S
C648 H667 0.913 . S
C649 H625 0.950 . S
C649 C648 1.524 . S
C649 C650 1.415 . S
C650 H626 0.950 . S
C650 C645 1.363 . S
C650 C649 1.415 . S
C651 H627 0.951 . S
C651 C652 1.366 . S
C651 C653 1.388 . S
C652 C651 1.366 . S
C652 C656 1.385 . S
C653 H628 0.951 . S
C653 C651 1.388 . S
C653 C654 1.366 . S
C654 C653 1.366 . S
C654 C655 1.414 . S
C654 C657 1.499 . S
C655 H629 0.950 1_455 S
C655 C654 1.414 . S
C655 C656 1.374 . S
C656 H630 0.950 . S
C656 C652 1.385 . S
C656 C655 1.374 . S
C657 C654 1.499 . S
C657 C658 1.373 1_455 S
C657 C659 1.389 . S
C658 H631 0.950 . S
C658 C644 1.377 . S
C658 C657 1.373 1_655 S
C659 C643 1.377 . S
C659 C657 1.389 . S
C659 C660 1.524 . S
C660 C659 1.524 . S
C660 C661 1.397 . S
C660 C665 1.363 . S
C661 H632 0.950 . S
C661 C660 1.397 . S
C661 C662 1.334 . S
C662 H633 0.950 . S
C662 C661 1.334 . S
C662 C663 1.287 . S
C663 C662 1.287 . S
C663 C664 1.524 . S
C663 H666 0.999 . S
C664 H634 0.950 . S
C664 C663 1.524 . S
C664 C665 1.415 . S
C665 H635 0.950 . S
C665 C660 1.363 . S
C665 C664 1.415 . S
H666 C663 0.999 . S
H667 C648 0.913 . S
H668 C686 0.951 . S
H669 C688 0.951 . S
H670 C690 0.950 1_565 S
H671 C691 0.950 . S
H672 C693 0.950 . S
H673 C696 0.950 . S
H674 C697 0.950 . S
H675 C699 0.950 1_554 S
H676 C700 0.950 . S
H677 C701 0.951 . S
H678 C703 0.951 . S
H679 C705 0.950 1_545 S
H680 C706 0.950 . S
H681 C708 0.950 . S
H682 C711 0.950 . S
H683 C712 0.950 . S
H684 C714 0.950 1_556 S
H685 C715 0.950 . S
C686 H668 0.951 . S
C686 C687 1.366 . S
C686 C688 1.388 . S
C687 C686 1.366 . S
C687 C691 1.385 . S
C688 H669 0.951 . S
C688 C686 1.388 . S
C688 C689 1.366 . S
C689 C688 1.366 . S
C689 C690 1.414 . S
C689 C692 1.499 . S
C690 H670 0.950 1_545 S
C690 C689 1.414 . S
C690 C691 1.374 . S
C691 H671 0.950 . S
C691 C687 1.385 . S
C691 C690 1.374 . S
C692 C689 1.499 . S
C692 C693 1.373 1_545 S
C692 C694 1.389 . S
C693 H672 0.950 . S
C693 C692 1.373 1_565 S
C693 C709 1.377 1_556 S
C694 C692 1.389 . S
C694 C695 1.524 . S
C694 C708 1.377 1_556 S
C695 C694 1.524 . S
C695 C696 1.397 . S
C695 C700 1.363 1_556 S
C696 H673 0.950 . S
C696 C695 1.397 . S
C696 C697 1.334 . S
C697 H674 0.950 . S
C697 C696 1.334 . S
C697 C698 1.287 . S
C698 C697 1.287 . S
C698 C699 1.524 . S
C698 H717 0.913 . S
C699 H675 0.950 1_556 S
C699 C698 1.524 . S
C699 C700 1.415 1_556 S
C700 H676 0.950 . S
C700 C695 1.363 1_554 S
C700 C699 1.415 1_554 S
C701 H677 0.951 . S
C701 C702 1.366 . S
C701 C703 1.388 . S
C702 C701 1.366 . S
C702 C706 1.385 . S
C703 H678 0.951 . S
C703 C701 1.388 . S
C703 C704 1.366 . S
C704 C703 1.366 . S
C704 C705 1.414 . S
C704 C707 1.499 . S
C705 H679 0.950 1_565 S
C705 C704 1.414 . S
C705 C706 1.374 . S
C706 H680 0.950 . S
C706 C702 1.385 . S
C706 C705 1.374 . S
C707 C704 1.499 . S
C707 C708 1.373 1_565 S
C707 C709 1.389 . S
C708 H681 0.950 . S
C708 C694 1.377 1_554 S
C708 C707 1.373 1_545 S
C709 C693 1.377 1_554 S
C709 C707 1.389 . S
C709 C710 1.524 . S
C710 C709 1.524 . S
C710 C711 1.397 . S
C710 C715 1.363 1_554 S
C711 H682 0.950 . S
C711 C710 1.397 . S
C711 C712 1.334 . S
C712 H683 0.950 . S
C712 C711 1.334 . S
C712 C713 1.287 . S
C713 C712 1.287 . S
C713 C714 1.524 . S
C713 H716 0.999 . S
C714 H684 0.950 1_554 S
C714 C713 1.524 . S
C714 C715 1.415 1_554 S
C715 H685 0.950 . S
C715 C710 1.363 1_556 S
C715 C714 1.415 1_556 S
H716 C713 0.999 . S
H717 C698 0.913 . S
H718 C736 0.951 . S
H719 C738 0.951 . S
H720 C740 0.950 . S
H721 C741 0.950 . S
H722 C743 0.950 . S
H723 C746 0.950 . S
H724 C747 0.950 . S
H725 C749 0.950 . S
H726 C750 0.950 . S
H727 C751 0.951 . S
H728 C753 0.951 . S
H729 C755 0.950 . S
H730 C756 0.950 . S
H731 C758 0.950 . S
H732 C761 0.950 . S
H733 C762 0.950 . S
H734 C764 0.950 . S
H735 C765 0.950 . S
C736 H718 0.951 . S
C736 C737 1.366 . S
C736 C738 1.388 . S
C737 C736 1.366 . S
C737 C741 1.385 . S
C738 H719 0.951 . S
C738 C736 1.388 . S
C738 C739 1.366 . S
C739 C738 1.366 . S
C739 C740 1.414 . S
C739 C742 1.499 . S
C740 H720 0.950 . S
C740 C739 1.414 . S
C740 C741 1.374 . S
C741 H721 0.950 . S
C741 C737 1.385 . S
C741 C740 1.374 . S
C742 C739 1.499 . S
C742 C743 1.373 . S
C742 C744 1.389 . S
C743 H722 0.950 . S
C743 C742 1.373 . S
C743 C759 1.377 . S
C744 C742 1.389 . S
C744 C745 1.524 . S
C744 C758 1.377 . S
C745 C744 1.524 . S
C745 C746 1.397 . S
C745 C750 1.363 . S
C746 H723 0.950 . S
C746 C745 1.397 . S
C746 C747 1.334 . S
C747 H724 0.950 . S
C747 C746 1.334 . S
C747 C748 1.287 . S
C748 C747 1.287 . S
C748 C749 1.524 . S
C748 H767 0.913 . S
C749 H725 0.950 . S
C749 C748 1.524 . S
C749 C750 1.415 . S
C750 H726 0.950 . S
C750 C745 1.363 . S
C750 C749 1.415 . S
C751 H727 0.951 . S
C751 C752 1.366 . S
C751 C753 1.388 . S
C752 C751 1.366 . S
C752 C756 1.385 . S
C753 H728 0.951 . S
C753 C751 1.388 . S
C753 C754 1.366 . S
C754 C753 1.366 . S
C754 C755 1.414 . S
C754 C757 1.499 . S
C755 H729 0.950 . S
C755 C754 1.414 . S
C755 C756 1.374 . S
C756 H730 0.950 . S
C756 C752 1.385 . S
C756 C755 1.374 . S
C757 C754 1.499 . S
C757 C758 1.373 . S
C757 C759 1.389 . S
C758 H731 0.950 . S
C758 C744 1.377 . S
C758 C757 1.373 . S
C759 C743 1.377 . S
C759 C757 1.389 . S
C759 C760 1.524 . S
C760 C759 1.524 . S
C760 C761 1.397 . S
C760 C765 1.363 . S
C761 H732 0.950 . S
C761 C760 1.397 . S
C761 C762 1.334 . S
C762 H733 0.950 . S
C762 C761 1.334 . S
C762 C763 1.287 . S
C763 C762 1.287 . S
C763 C764 1.524 . S
C763 H766 0.999 . S
C764 H734 0.950 . S
C764 C763 1.524 . S
C764 C765 1.415 . S
C765 H735 0.950 . S
C765 C760 1.363 . S
C765 C764 1.415 . S
H766 C763 0.999 . S
H767 C748 0.913 . S
H768 C786 0.951 . S
H769 C788 0.951 . S
H770 C790 0.950 . S
H771 C791 0.950 . S
H772 C793 0.950 . S
H773 C796 0.950 . S
H774 C797 0.950 . S
H775 C799 0.950 . S
H776 C800 0.950 . S
H777 C801 0.951 . S
H778 C803 0.951 . S
H779 C805 0.950 . S
H780 C806 0.950 . S
H781 C808 0.950 . S
H782 C811 0.950 . S
H783 C812 0.950 . S
H784 C814 0.950 . S
H785 C815 0.950 . S
C786 H768 0.951 . S
C786 C787 1.366 . S
C786 C788 1.388 . S
C787 C786 1.366 . S
C787 C791 1.385 . S
C788 H769 0.951 . S
C788 C786 1.388 . S
C788 C789 1.366 . S
C789 C788 1.366 . S
C789 C790 1.414 . S
C789 C792 1.499 . S
C790 H770 0.950 . S
C790 C789 1.414 . S
C790 C791 1.374 . S
C791 H771 0.950 . S
C791 C787 1.385 . S
C791 C790 1.374 . S
C792 C789 1.499 . S
C792 C793 1.373 . S
C792 C794 1.389 . S
C793 H772 0.950 . S
C793 C792 1.373 . S
C793 C809 1.377 . S
C794 C792 1.389 . S
C794 C795 1.524 . S
C794 C808 1.377 . S
C795 C794 1.524 . S
C795 C796 1.397 . S
C795 C800 1.363 1_455 S
C796 H773 0.950 . S
C796 C795 1.397 . S
C796 C797 1.334 1_455 S
C797 H774 0.950 . S
C797 C796 1.334 1_655 S
C797 C798 1.287 . S
C798 C797 1.287 . S
C798 C799 1.524 . S
C798 H817 0.913 . S
C799 H775 0.950 . S
C799 C798 1.524 . S
C799 C800 1.415 . S
C800 H776 0.950 . S
C800 C795 1.363 1_655 S
C800 C799 1.415 . S
C801 H777 0.951 . S
C801 C802 1.366 . S
C801 C803 1.388 . S
C802 C801 1.366 . S
C802 C806 1.385 . S
C803 H778 0.951 . S
C803 C801 1.388 . S
C803 C804 1.366 . S
C804 C803 1.366 . S
C804 C805 1.414 . S
C804 C807 1.499 . S
C805 H779 0.950 . S
C805 C804 1.414 . S
C805 C806 1.374 . S
C806 H780 0.950 . S
C806 C802 1.385 . S
C806 C805 1.374 . S
C807 C804 1.499 . S
C807 C808 1.373 . S
C807 C809 1.389 . S
C808 H781 0.950 . S
C808 C794 1.377 . S
C808 C807 1.373 . S
C809 C793 1.377 . S
C809 C807 1.389 . S
C809 C810 1.524 . S
C810 C809 1.524 . S
C810 C811 1.397 . S
C810 C815 1.363 . S
C811 H782 0.950 . S
C811 C810 1.397 . S
C811 C812 1.334 . S
C812 H783 0.950 . S
C812 C811 1.334 . S
C812 C813 1.287 . S
C813 C812 1.287 . S
C813 C814 1.524 . S
C813 H816 0.999 . S
C814 H784 0.950 . S
C814 C813 1.524 . S
C814 C815 1.415 . S
C815 H785 0.950 . S
C815 C810 1.363 . S
C815 C814 1.415 . S
H816 C813 0.999 . S
H817 C798 0.913 . S
H818 C836 0.951 . S
H819 C838 0.951 . S
H820 C840 0.950 . S
H821 C841 0.950 . S
H822 C843 0.950 . S
H823 C846 0.950 . S
H824 C847 0.950 . S
H825 C849 0.950 . S
H826 C850 0.950 . S
H827 C851 0.951 . S
H828 C853 0.951 . S
H829 C855 0.950 . S
H830 C856 0.950 . S
H831 C858 0.950 . S
H832 C861 0.950 . S
H833 C862 0.950 . S
H834 C864 0.950 . S
H835 C865 0.950 . S
C836 H818 0.951 . S
C836 C837 1.366 . S
C836 C838 1.388 . S
C837 C836 1.366 . S
C837 C841 1.385 . S
C838 H819 0.951 . S
C838 C836 1.388 . S
C838 C839 1.366 . S
C839 C838 1.366 . S
C839 C840 1.414 . S
C839 C842 1.499 . S
C840 H820 0.950 . S
C840 C839 1.414 . S
C840 C841 1.374 . S
C841 H821 0.950 . S
C841 C837 1.385 . S
C841 C840 1.374 . S
C842 C839 1.499 . S
C842 C843 1.373 . S
C842 C844 1.389 . S
C843 H822 0.950 . S
C843 C842 1.373 . S
C843 C859 1.377 . S
C844 C842 1.389 . S
C844 C845 1.524 . S
C844 C858 1.377 . S
C845 C844 1.524 . S
C845 C846 1.397 . S
C845 C850 1.363 . S
C846 H823 0.950 . S
C846 C845 1.397 . S
C846 C847 1.334 . S
C847 H824 0.950 . S
C847 C846 1.334 . S
C847 C848 1.287 . S
C848 C847 1.287 . S
C848 C849 1.524 . S
C848 H867 0.913 . S
C849 H825 0.950 . S
C849 C848 1.524 . S
C849 C850 1.415 . S
C850 H826 0.950 . S
C850 C845 1.363 . S
C850 C849 1.415 . S
C851 H827 0.951 . S
C851 C852 1.366 . S
C851 C853 1.388 . S
C852 C851 1.366 . S
C852 C856 1.385 . S
C853 H828 0.951 . S
C853 C851 1.388 . S
C853 C854 1.366 . S
C854 C853 1.366 . S
C854 C855 1.414 . S
C854 C857 1.499 . S
C855 H829 0.950 . S
C855 C854 1.414 . S
C855 C856 1.374 . S
C856 H830 0.950 . S
C856 C852 1.385 . S
C856 C855 1.374 . S
C857 C854 1.499 . S
C857 C858 1.373 . S
C857 C859 1.389 . S
C858 H831 0.950 . S
C858 C844 1.377 . S
C858 C857 1.373 . S
C859 C843 1.377 . S
C859 C857 1.389 . S
C859 C860 1.524 . S
C860 C859 1.524 . S
C860 C861 1.397 . S
C860 C865 1.363 1_545 S
C861 H832 0.950 . S
C861 C860 1.397 . S
C861 C862 1.334 . S
C862 H833 0.950 . S
C862 C861 1.334 . S
C862 C863 1.287 1_545 S
C863 C862 1.287 1_565 S
C863 C864 1.524 . S
C863 H866 0.999 . S
C864 H834 0.950 . S
C864 C863 1.524 . S
C864 C865 1.415 . S
C865 H835 0.950 . S
C865 C860 1.363 1_565 S
C865 C864 1.415 . S
H866 C863 0.999 . S
H867 C848 0.913 . S
H868 C886 0.951 . S
H869 C888 0.951 . S
H870 C890 0.950 . S
H871 C891 0.950 . S
H872 C893 0.950 . S
H873 C896 0.950 . S
H874 C897 0.950 . S
H875 C899 0.950 . S
H876 C900 0.950 . S
H877 C901 0.951 . S
H878 C903 0.951 . S
H879 C905 0.950 . S
H880 C906 0.950 . S
H881 C908 0.950 . S
H882 C911 0.950 . S
H883 C912 0.950 . S
H884 C914 0.950 . S
H885 C915 0.950 . S
C886 H868 0.951 . S
C886 C887 1.366 . S
C886 C888 1.388 . S
C887 C886 1.366 . S
C887 C891 1.385 . S
C888 H869 0.951 . S
C888 C886 1.388 . S
C888 C889 1.366 . S
C889 C888 1.366 . S
C889 C890 1.414 . S
C889 C892 1.499 . S
C890 H870 0.950 . S
C890 C889 1.414 . S
C890 C891 1.374 . S
C891 H871 0.950 . S
C891 C887 1.385 . S
C891 C890 1.374 . S
C892 C889 1.499 . S
C892 C893 1.373 . S
C892 C894 1.389 . S
C893 H872 0.950 . S
C893 C892 1.373 . S
C893 C909 1.377 . S
C894 C892 1.389 . S
C894 C895 1.524 . S
C894 C908 1.377 . S
C895 C894 1.524 . S
C895 C896 1.397 . S
C895 C900 1.363 . S
C896 H873 0.950 . S
C896 C895 1.397 . S
C896 C897 1.334 . S
C897 H874 0.950 . S
C897 C896 1.334 . S
C897 C898 1.287 . S
C898 C897 1.287 . S
C898 C899 1.524 . S
C898 H917 0.913 . S
C899 H875 0.950 . S
C899 C898 1.524 . S
C899 C900 1.415 . S
C900 H876 0.950 . S
C900 C895 1.363 . S
C900 C899 1.415 . S
C901 H877 0.951 . S
C901 C902 1.366 . S
C901 C903 1.388 . S
C902 C901 1.366 . S
C902 C906 1.385 . S
C903 H878 0.951 . S
C903 C901 1.388 . S
C903 C904 1.366 . S
C904 C903 1.366 . S
C904 C905 1.414 . S
C904 C907 1.499 . S
C905 H879 0.950 . S
C905 C904 1.414 . S
C905 C906 1.374 . S
C906 H880 0.950 . S
C906 C902 1.385 . S
C906 C905 1.374 . S
C907 C904 1.499 . S
C907 C908 1.373 . S
C907 C909 1.389 . S
C908 H881 0.950 . S
C908 C894 1.377 . S
C908 C907 1.373 . S
C909 C893 1.377 . S
C909 C907 1.389 . S
C909 C910 1.524 . S
C910 C909 1.524 . S
C910 C911 1.397 . S
C910 C915 1.363 . S
C911 H882 0.950 . S
C911 C910 1.397 . S
C911 C912 1.334 . S
C912 H883 0.950 . S
C912 C911 1.334 . S
C912 C913 1.287 . S
C913 C912 1.287 . S
C913 C914 1.524 . S
C913 H916 0.999 . S
C914 H884 0.950 . S
C914 C913 1.524 . S
C914 C915 1.415 . S
C915 H885 0.950 . S
C915 C910 1.363 . S
C915 C914 1.415 . S
H916 C913 0.999 . S
H917 C898 0.913 . S
H918 C936 0.951 . S
H919 C938 0.951 . S
H920 C940 0.950 . S
H921 C941 0.950 . S
H922 C943 0.950 . S
H923 C946 0.950 . S
H924 C947 0.950 . S
H925 C949 0.950 . S
H926 C950 0.950 . S
H927 C951 0.951 . S
H928 C953 0.951 . S
H929 C955 0.950 . S
H930 C956 0.950 . S
H931 C958 0.950 . S
H932 C961 0.950 . S
H933 C962 0.950 . S
H934 C964 0.950 . S
H935 C965 0.950 . S
C936 H918 0.951 . S
C936 C937 1.366 . S
C936 C938 1.388 . S
C937 C936 1.366 . S
C937 C941 1.385 . S
C938 H919 0.951 . S
C938 C936 1.388 . S
C938 C939 1.366 . S
C939 C938 1.366 . S
C939 C940 1.414 . S
C939 C942 1.499 . S
C940 H920 0.950 . S
C940 C939 1.414 . S
C940 C941 1.374 . S
C941 H921 0.950 . S
C941 C937 1.385 . S
C941 C940 1.374 . S
C942 C939 1.499 . S
C942 C943 1.373 . S
C942 C944 1.389 . S
C943 H922 0.950 . S
C943 C942 1.373 . S
C943 C959 1.377 . S
C944 C942 1.389 . S
C944 C945 1.524 . S
C944 C958 1.377 . S
C945 C944 1.524 . S
C945 C946 1.397 . S
C945 C950 1.363 . S
C946 H923 0.950 . S
C946 C945 1.397 . S
C946 C947 1.334 . S
C947 H924 0.950 . S
C947 C946 1.334 . S
C947 C948 1.287 . S
C948 C947 1.287 . S
C948 C949 1.524 . S
C948 H967 0.913 . S
C949 H925 0.950 . S
C949 C948 1.524 . S
C949 C950 1.415 . S
C950 H926 0.950 . S
C950 C945 1.363 . S
C950 C949 1.415 . S
C951 H927 0.951 . S
C951 C952 1.366 . S
C951 C953 1.388 . S
C952 C951 1.366 . S
C952 C956 1.385 . S
C953 H928 0.951 . S
C953 C951 1.388 . S
C953 C954 1.366 . S
C954 C953 1.366 . S
C954 C955 1.414 . S
C954 C957 1.499 . S
C955 H929 0.950 . S
C955 C954 1.414 . S
C955 C956 1.374 . S
C956 H930 0.950 . S
C956 C952 1.385 . S
C956 C955 1.374 . S
C957 C954 1.499 . S
C957 C958 1.373 . S
C957 C959 1.389 . S
C958 H931 0.950 . S
C958 C944 1.377 . S
C958 C957 1.373 . S
C959 C943 1.377 . S
C959 C957 1.389 . S
C959 C960 1.524 . S
C960 C959 1.524 . S
C960 C961 1.397 . S
C960 C965 1.363 1_655 S
C961 H932 0.950 . S
C961 C960 1.397 . S
C961 C962 1.334 . S
C962 H933 0.950 . S
C962 C961 1.334 . S
C962 C963 1.287 1_655 S
C963 C962 1.287 1_455 S
C963 C964 1.524 . S
C963 H966 0.999 . S
C964 H934 0.950 . S
C964 C963 1.524 . S
C964 C965 1.415 . S
C965 H935 0.950 . S
C965 C960 1.363 1_455 S
C965 C964 1.415 . S
H966 C963 0.999 . S
H967 C948 0.913 . S
H968 C986 0.951 . S
H969 C988 0.951 . S
H970 C990 0.950 . S
H971 C991 0.950 . S
H972 C993 0.950 . S
H973 C996 0.950 . S
H974 C997 0.950 . S
H975 C999 0.950 . S
H976 C1000 0.950 . S
H977 C1001 0.951 . S
H978 C1003 0.951 . S
H979 C1005 0.950 . S
H980 C1006 0.950 . S
H981 C1008 0.950 . S
H982 C1011 0.950 . S
H983 C1012 0.950 . S
H984 C1014 0.950 . S
H985 C1015 0.950 . S
C986 H968 0.951 . S
C986 C987 1.366 . S
C986 C988 1.388 . S
C987 C986 1.366 . S
C987 C991 1.385 . S
C988 H969 0.951 . S
C988 C986 1.388 . S
C988 C989 1.366 . S
C989 C988 1.366 . S
C989 C990 1.414 . S
C989 C992 1.499 . S
C990 H970 0.950 . S
C990 C989 1.414 . S
C990 C991 1.374 . S
C991 H971 0.950 . S
C991 C987 1.385 . S
C991 C990 1.374 . S
C992 C989 1.499 . S
C992 C993 1.373 . S
C992 C994 1.389 . S
C993 H972 0.950 . S
C993 C992 1.373 . S
C993 C1009 1.377 . S
C994 C992 1.389 . S
C994 C995 1.524 . S
C994 C1008 1.377 . S
C995 C994 1.524 . S
C995 C996 1.397 1_565 S
C995 C1000 1.363 . S
C996 H973 0.950 . S
C996 C995 1.397 1_545 S
C996 C997 1.334 . S
C997 H974 0.950 . S
C997 C996 1.334 . S
C997 C998 1.287 . S
C998 C997 1.287 . S
C998 C999 1.524 . S
C998 H1017 0.913 . S
C999 H975 0.950 . S
C999 C998 1.524 . S
C999 C1000 1.415 1_545 S
C1000 H976 0.950 . S
C1000 C995 1.363 . S
C1000 C999 1.415 1_565 S
C1001 H977 0.951 . S
C1001 C1002 1.366 . S
C1001 C1003 1.388 . S
C1002 C1001 1.366 . S
C1002 C1006 1.385 . S
C1003 H978 0.951 . S
C1003 C1001 1.388 . S
C1003 C1004 1.366 . S
C1004 C1003 1.366 . S
C1004 C1005 1.414 . S
C1004 C1007 1.499 . S
C1005 H979 0.950 . S
C1005 C1004 1.414 . S
C1005 C1006 1.374 . S
C1006 H980 0.950 . S
C1006 C1002 1.385 . S
C1006 C1005 1.374 . S
C1007 C1004 1.499 . S
C1007 C1008 1.373 . S
C1007 C1009 1.389 . S
C1008 H981 0.950 . S
C1008 C994 1.377 . S
C1008 C1007 1.373 . S
C1009 C993 1.377 . S
C1009 C1007 1.389 . S
C1009 C1010 1.524 . S
C1010 C1009 1.524 . S
C1010 C1011 1.397 . S
C1010 C1015 1.363 . S
C1011 H982 0.950 . S
C1011 C1010 1.397 . S
C1011 C1012 1.334 . S
C1012 H983 0.950 . S
C1012 C1011 1.334 . S
C1012 C1013 1.287 . S
C1013 C1012 1.287 . S
C1013 C1014 1.524 . S
C1013 H1016 0.999 . S
C1014 H984 0.950 . S
C1014 C1013 1.524 . S
C1014 C1015 1.415 . S
C1015 H985 0.950 . S
C1015 C1010 1.363 . S
C1015 C1014 1.415 . S
H1016 C1013 0.999 . S
H1017 C998 0.913 . S
H1018 C1036 0.951 . S
H1019 C1038 0.951 . S
H1020 C1040 0.950 . S
H1021 C1041 0.950 . S
H1022 C1043 0.950 . S
H1023 C1046 0.950 . S
H1024 C1047 0.950 . S
H1025 C1049 0.950 . S
H1026 C1050 0.950 . S
H1027 C1051 0.951 . S
H1028 C1053 0.951 . S
H1029 C1055 0.950 . S
H1030 C1056 0.950 . S
H1031 C1058 0.950 . S
H1032 C1061 0.950 . S
H1033 C1062 0.950 . S
H1034 C1064 0.950 . S
H1035 C1065 0.950 . S
C1036 H1018 0.951 . S
C1036 C1037 1.366 . S
C1036 C1038 1.388 . S
C1037 C1036 1.366 . S
C1037 C1041 1.385 . S
C1038 H1019 0.951 . S
C1038 C1036 1.388 . S
C1038 C1039 1.366 . S
C1039 C1038 1.366 . S
C1039 C1040 1.414 . S
C1039 C1042 1.499 . S
C1040 H1020 0.950 . S
C1040 C1039 1.414 . S
C1040 C1041 1.374 . S
C1041 H1021 0.950 . S
C1041 C1037 1.385 . S
C1041 C1040 1.374 . S
C1042 C1039 1.499 . S
C1042 C1043 1.373 . S
C1042 C1044 1.389 . S
C1043 H1022 0.950 . S
C1043 C1042 1.373 . S
C1043 C1059 1.377 . S
C1044 C1042 1.389 . S
C1044 C1045 1.524 . S
C1044 C1058 1.377 . S
C1045 C1044 1.524 . S
C1045 C1046 1.397 . S
C1045 C1050 1.363 . S
C1046 H1023 0.950 . S
C1046 C1045 1.397 . S
C1046 C1047 1.334 . S
C1047 H1024 0.950 . S
C1047 C1046 1.334 . S
C1047 C1048 1.287 . S
C1048 C1047 1.287 . S
C1048 C1049 1.524 . S
C1048 H1067 0.913 . S
C1049 H1025 0.950 . S
C1049 C1048 1.524 . S
C1049 C1050 1.415 . S
C1050 H1026 0.950 . S
C1050 C1045 1.363 . S
C1050 C1049 1.415 . S
C1051 H1027 0.951 . S
C1051 C1052 1.366 . S
C1051 C1053 1.388 . S
C1052 C1051 1.366 . S
C1052 C1056 1.385 . S
C1053 H1028 0.951 . S
C1053 C1051 1.388 . S
C1053 C1054 1.366 . S
C1054 C1053 1.366 . S
C1054 C1055 1.414 . S
C1054 C1057 1.499 . S
C1055 H1029 0.950 . S
C1055 C1054 1.414 . S
C1055 C1056 1.374 . S
C1056 H1030 0.950 . S
C1056 C1052 1.385 . S
C1056 C1055 1.374 . S
C1057 C1054 1.499 . S
C1057 C1058 1.373 . S
C1057 C1059 1.389 . S
C1058 H1031 0.950 . S
C1058 C1044 1.377 . S
C1058 C1057 1.373 . S
C1059 C1043 1.377 . S
C1059 C1057 1.389 . S
C1059 C1060 1.524 . S
C1060 C1059 1.524 . S
C1060 C1061 1.397 . S
C1060 C1065 1.363 . S
C1061 H1032 0.950 . S
C1061 C1060 1.397 . S
C1061 C1062 1.334 . S
C1062 H1033 0.950 . S
C1062 C1061 1.334 . S
C1062 C1063 1.287 . S
C1063 C1062 1.287 . S
C1063 C1064 1.524 . S
C1063 H1066 0.999 . S
C1064 H1034 0.950 . S
C1064 C1063 1.524 . S
C1064 C1065 1.415 . S
C1065 H1035 0.950 . S
C1065 C1060 1.363 . S
C1065 C1064 1.415 . S
H1066 C1063 0.999 . S
H1067 C1048 0.913 . S
H1068 C1086 0.951 . S
H1069 C1088 0.951 . S
H1070 C1090 0.950 . S
H1071 C1091 0.950 . S
H1072 C1093 0.950 . S
H1073 C1096 0.950 . S
H1074 C1097 0.950 . S
H1075 C1099 0.950 . S
H1076 C1100 0.950 . S
H1077 C1101 0.951 . S
H1078 C1103 0.951 . S
H1079 C1105 0.950 . S
H1080 C1106 0.950 . S
H1081 C1108 0.950 . S
H1082 C1111 0.950 . S
H1083 C1112 0.950 . S
H1084 C1114 0.950 . S
H1085 C1115 0.950 . S
C1086 H1068 0.951 . S
C1086 C1087 1.366 . S
C1086 C1088 1.388 . S
C1087 C1086 1.366 . S
C1087 C1091 1.385 . S
C1088 H1069 0.951 . S
C1088 C1086 1.388 . S
C1088 C1089 1.366 . S
C1089 C1088 1.366 . S
C1089 C1090 1.414 . S
C1089 C1092 1.499 . S
C1090 H1070 0.950 . S
C1090 C1089 1.414 . S
C1090 C1091 1.374 . S
C1091 H1071 0.950 . S
C1091 C1087 1.385 . S
C1091 C1090 1.374 . S
C1092 C1089 1.499 . S
C1092 C1093 1.373 . S
C1092 C1094 1.389 . S
C1093 H1072 0.950 . S
C1093 C1092 1.373 . S
C1093 C1109 1.377 . S
C1094 C1092 1.389 . S
C1094 C1095 1.524 . S
C1094 C1108 1.377 . S
C1095 C1094 1.524 . S
C1095 C1096 1.397 . S
C1095 C1100 1.363 . S
C1096 H1073 0.950 . S
C1096 C1095 1.397 . S
C1096 C1097 1.334 . S
C1097 H1074 0.950 . S
C1097 C1096 1.334 . S
C1097 C1098 1.287 . S
C1098 C1097 1.287 . S
C1098 C1099 1.524 . S
C1098 H1117 0.913 . S
C1099 H1075 0.950 . S
C1099 C1098 1.524 . S
C1099 C1100 1.415 . S
C1100 H1076 0.950 . S
C1100 C1095 1.363 . S
C1100 C1099 1.415 . S
C1101 H1077 0.951 . S
C1101 C1102 1.366 . S
C1101 C1103 1.388 . S
C1102 C1101 1.366 . S
C1102 C1106 1.385 . S
C1103 H1078 0.951 . S
C1103 C1101 1.388 . S
C1103 C1104 1.366 . S
C1104 C1103 1.366 . S
C1104 C1105 1.414 . S
C1104 C1107 1.499 . S
C1105 H1079 0.950 . S
C1105 C1104 1.414 . S
C1105 C1106 1.374 . S
C1106 H1080 0.950 . S
C1106 C1102 1.385 . S
C1106 C1105 1.374 . S
C1107 C1104 1.499 . S
C1107 C1108 1.373 . S
C1107 C1109 1.389 . S
C1108 H1081 0.950 . S
C1108 C1094 1.377 . S
C1108 C1107 1.373 . S
C1109 C1093 1.377 . S
C1109 C1107 1.389 . S
C1109 C1110 1.524 . S
C1110 C1109 1.524 . S
C1110 C1111 1.397 . S
C1110 C1115 1.363 . S
C1111 H1082 0.950 . S
C1111 C1110 1.397 . S
C1111 C1112 1.334 . S
C1112 H1083 0.950 . S
C1112 C1111 1.334 . S
C1112 C1113 1.287 . S
C1113 C1112 1.287 . S
C1113 C1114 1.524 . S
C1113 H1116 0.999 . S
C1114 H1084 0.950 . S
C1114 C1113 1.524 . S
C1114 C1115 1.415 . S
C1115 H1085 0.950 . S
C1115 C1110 1.363 . S
C1115 C1114 1.415 . S
H1116 C1113 0.999 . S
H1117 C1098 0.913 . S
H1118 C1136 0.951 . S
H1119 C1138 0.951 . S
H1120 C1140 0.950 . S
H1121 C1141 0.950 . S
H1122 C1143 0.950 . S
H1123 C1146 0.950 . S
H1124 C1147 0.950 . S
H1125 C1149 0.950 . S
H1126 C1150 0.950 . S
H1127 C1151 0.951 . S
H1128 C1153 0.951 . S
H1129 C1155 0.950 . S
H1130 C1156 0.950 . S
H1131 C1158 0.950 . S
H1132 C1161 0.950 . S
H1133 C1162 0.950 . S
H1134 C1164 0.950 . S
H1135 C1165 0.950 . S
C1136 H1118 0.951 . S
C1136 C1137 1.366 . S
C1136 C1138 1.388 . S
C1137 C1136 1.366 . S
C1137 C1141 1.385 . S
C1138 H1119 0.951 . S
C1138 C1136 1.388 . S
C1138 C1139 1.366 . S
C1139 C1138 1.366 . S
C1139 C1140 1.414 . S
C1139 C1142 1.499 . S
C1140 H1120 0.950 . S
C1140 C1139 1.414 . S
C1140 C1141 1.374 . S
C1141 H1121 0.950 . S
C1141 C1137 1.385 . S
C1141 C1140 1.374 . S
C1142 C1139 1.499 . S
C1142 C1143 1.373 . S
C1142 C1144 1.389 . S
C1143 H1122 0.950 . S
C1143 C1142 1.373 . S
C1143 C1159 1.377 . S
C1144 C1142 1.389 . S
C1144 C1145 1.524 . S
C1144 C1158 1.377 . S
C1145 C1144 1.524 . S
C1145 C1146 1.397 . S
C1145 C1150 1.363 . S
C1146 H1123 0.950 . S
C1146 C1145 1.397 . S
C1146 C1147 1.334 . S
C1147 H1124 0.950 . S
C1147 C1146 1.334 . S
C1147 C1148 1.287 . S
C1148 C1147 1.287 . S
C1148 C1149 1.524 . S
C1148 H1167 0.913 . S
C1149 H1125 0.950 . S
C1149 C1148 1.524 . S
C1149 C1150 1.415 . S
C1150 H1126 0.950 . S
C1150 C1145 1.363 . S
C1150 C1149 1.415 . S
C1151 H1127 0.951 . S
C1151 C1152 1.366 . S
C1151 C1153 1.388 . S
C1152 C1151 1.366 . S
C1152 C1156 1.385 . S
C1153 H1128 0.951 . S
C1153 C1151 1.388 . S
C1153 C1154 1.366 . S
C1154 C1153 1.366 . S
C1154 C1155 1.414 . S
C1154 C1157 1.499 . S
C1155 H1129 0.950 . S
C1155 C1154 1.414 . S
C1155 C1156 1.374 . S
C1156 H1130 0.950 . S
C1156 C1152 1.385 . S
C1156 C1155 1.374 . S
C1157 C1154 1.499 . S
C1157 C1158 1.373 . S
C1157 C1159 1.389 . S
C1158 H1131 0.950 . S
C1158 C1144 1.377 . S
C1158 C1157 1.373 . S
C1159 C1143 1.377 . S
C1159 C1157 1.389 . S
C1159 C1160 1.524 . S
C1160 C1159 1.524 . S
C1160 C1161 1.397 . S
C1160 C1165 1.363 . S
C1161 H1132 0.950 . S
C1161 C1160 1.397 . S
C1161 C1162 1.334 . S
C1162 H1133 0.950 . S
C1162 C1161 1.334 . S
C1162 C1163 1.287 . S
C1163 C1162 1.287 . S
C1163 C1164 1.524 . S
C1163 H1166 0.999 . S
C1164 H1134 0.950 . S
C1164 C1163 1.524 . S
C1164 C1165 1.415 . S
C1165 H1135 0.950 . S
C1165 C1160 1.363 . S
C1165 C1164 1.415 . S
H1166 C1163 0.999 . S
H1167 C1148 0.913 . S
H1168 C1186 0.951 . S
H1169 C1188 0.951 . S
H1170 C1190 0.950 . S
H1171 C1191 0.950 . S
H1172 C1193 0.950 . S
H1173 C1196 0.950 . S
H1174 C1197 0.950 . S
H1175 C1199 0.950 . S
H1176 C1200 0.950 . S
H1177 C1201 0.951 . S
H1178 C1203 0.951 . S
H1179 C1205 0.950 . S
H1180 C1206 0.950 . S
H1181 C1208 0.950 . S
H1182 C1211 0.950 . S
H1183 C1212 0.950 . S
H1184 C1214 0.950 . S
H1185 C1215 0.950 . S
C1186 H1168 0.951 . S
C1186 C1187 1.366 . S
C1186 C1188 1.388 . S
C1187 C1186 1.366 . S
C1187 C1191 1.385 . S
C1188 H1169 0.951 . S
C1188 C1186 1.388 . S
C1188 C1189 1.366 . S
C1189 C1188 1.366 . S
C1189 C1190 1.414 . S
C1189 C1192 1.499 . S
C1190 H1170 0.950 . S
C1190 C1189 1.414 . S
C1190 C1191 1.374 . S
C1191 H1171 0.950 . S
C1191 C1187 1.385 . S
C1191 C1190 1.374 . S
C1192 C1189 1.499 . S
C1192 C1193 1.373 . S
C1192 C1194 1.389 . S
C1193 H1172 0.950 . S
C1193 C1192 1.373 . S
C1193 C1209 1.377 . S
C1194 C1192 1.389 . S
C1194 C1195 1.524 . S
C1194 C1208 1.377 . S
C1195 C1194 1.524 . S
C1195 C1196 1.397 . S
C1195 C1200 1.363 . S
C1196 H1173 0.950 . S
C1196 C1195 1.397 . S
C1196 C1197 1.334 . S
C1197 H1174 0.950 . S
C1197 C1196 1.334 . S
C1197 C1198 1.287 . S
C1198 C1197 1.287 . S
C1198 C1199 1.524 . S
C1198 H1217 0.913 . S
C1199 H1175 0.950 . S
C1199 C1198 1.524 . S
C1199 C1200 1.415 . S
C1200 H1176 0.950 . S
C1200 C1195 1.363 . S
C1200 C1199 1.415 . S
C1201 H1177 0.951 . S
C1201 C1202 1.366 . S
C1201 C1203 1.388 . S
C1202 C1201 1.366 . S
C1202 C1206 1.385 . S
C1203 H1178 0.951 . S
C1203 C1201 1.388 . S
C1203 C1204 1.366 . S
C1204 C1203 1.366 . S
C1204 C1205 1.414 . S
C1204 C1207 1.499 . S
C1205 H1179 0.950 . S
C1205 C1204 1.414 . S
C1205 C1206 1.374 . S
C1206 H1180 0.950 . S
C1206 C1202 1.385 . S
C1206 C1205 1.374 . S
C1207 C1204 1.499 . S
C1207 C1208 1.373 . S
C1207 C1209 1.389 . S
C1208 H1181 0.950 . S
C1208 C1194 1.377 . S
C1208 C1207 1.373 . S
C1209 C1193 1.377 . S
C1209 C1207 1.389 . S
C1209 C1210 1.524 . S
C1210 C1209 1.524 . S
C1210 C1211 1.397 . S
C1210 C1215 1.363 . S
C1211 H1182 0.950 . S
C1211 C1210 1.397 . S
C1211 C1212 1.334 . S
C1212 H1183 0.950 . S
C1212 C1211 1.334 . S
C1212 C1213 1.287 . S
C1213 C1212 1.287 . S
C1213 C1214 1.524 . S
C1213 H1216 0.999 . S
C1214 H1184 0.950 . S
C1214 C1213 1.524 . S
C1214 C1215 1.415 . S
C1215 H1185 0.950 . S
C1215 C1210 1.363 . S
C1215 C1214 1.415 . S
H1216 C1213 0.999 . S
H1217 C1198 0.913 . S
H1218 C1236 0.951 . S
H1219 C1238 0.951 . S
H1220 C1240 0.950 . S
H1221 C1241 0.950 . S
H1222 C1243 0.950 . S
H1223 C1246 0.950 . S
H1224 C1247 0.950 . S
H1225 C1249 0.950 . S
H1226 C1250 0.950 . S
H1227 C1251 0.951 . S
H1228 C1253 0.951 . S
H1229 C1255 0.950 . S
H1230 C1256 0.950 . S
H1231 C1258 0.950 . S
H1232 C1261 0.950 . S
H1233 C1262 0.950 . S
H1234 C1264 0.950 . S
H1235 C1265 0.950 . S
C1236 H1218 0.951 . S
C1236 C1237 1.366 . S
C1236 C1238 1.388 . S
C1237 C1236 1.366 . S
C1237 C1241 1.385 . S
C1238 H1219 0.951 . S
C1238 C1236 1.388 . S
C1238 C1239 1.366 . S
C1239 C1238 1.366 . S
C1239 C1240 1.414 . S
C1239 C1242 1.499 . S
C1240 H1220 0.950 . S
C1240 C1239 1.414 . S
C1240 C1241 1.374 . S
C1241 H1221 0.950 . S
C1241 C1237 1.385 . S
C1241 C1240 1.374 . S
C1242 C1239 1.499 . S
C1242 C1243 1.373 . S
C1242 C1244 1.389 . S
C1243 H1222 0.950 . S
C1243 C1242 1.373 . S
C1243 C1259 1.377 . S
C1244 C1242 1.389 . S
C1244 C1245 1.524 . S
C1244 C1258 1.377 . S
C1245 C1244 1.524 . S
C1245 C1246 1.397 . S
C1245 C1250 1.363 . S
C1246 H1223 0.950 . S
C1246 C1245 1.397 . S
C1246 C1247 1.334 . S
C1247 H1224 0.950 . S
C1247 C1246 1.334 . S
C1247 C1248 1.287 . S
C1248 C1247 1.287 . S
C1248 C1249 1.524 . S
C1248 H1267 0.913 . S
C1249 H1225 0.950 . S
C1249 C1248 1.524 . S
C1249 C1250 1.415 . S
C1250 H1226 0.950 . S
C1250 C1245 1.363 . S
C1250 C1249 1.415 . S
C1251 H1227 0.951 . S
C1251 C1252 1.366 . S
C1251 C1253 1.388 . S
C1252 C1251 1.366 . S
C1252 C1256 1.385 . S
C1253 H1228 0.951 . S
C1253 C1251 1.388 . S
C1253 C1254 1.366 . S
C1254 C1253 1.366 . S
C1254 C1255 1.414 . S
C1254 C1257 1.499 . S
C1255 H1229 0.950 . S
C1255 C1254 1.414 . S
C1255 C1256 1.374 . S
C1256 H1230 0.950 . S
C1256 C1252 1.385 . S
C1256 C1255 1.374 . S
C1257 C1254 1.499 . S
C1257 C1258 1.373 . S
C1257 C1259 1.389 . S
C1258 H1231 0.950 . S
C1258 C1244 1.377 . S
C1258 C1257 1.373 . S
C1259 C1243 1.377 . S
C1259 C1257 1.389 . S
C1259 C1260 1.524 . S
C1260 C1259 1.524 . S
C1260 C1261 1.397 . S
C1260 C1265 1.363 . S
C1261 H1232 0.950 . S
C1261 C1260 1.397 . S
C1261 C1262 1.334 . S
C1262 H1233 0.950 . S
C1262 C1261 1.334 . S
C1262 C1263 1.287 . S
C1263 C1262 1.287 . S
C1263 C1264 1.524 . S
C1263 H1266 0.999 . S
C1264 H1234 0.950 . S
C1264 C1263 1.524 . S
C1264 C1265 1.415 . S
C1265 H1235 0.950 . S
C1265 C1260 1.363 . S
C1265 C1264 1.415 . S
H1266 C1263 0.999 . S
H1267 C1248 0.913 . S
H1268 C1286 0.951 . S
H1269 C1288 0.951 . S
H1270 C1290 0.950 . S
H1271 C1291 0.950 . S
H1272 C1293 0.950 . S
H1273 C1296 0.950 . S
H1274 C1297 0.950 . S
H1275 C1299 0.950 . S
H1276 C1300 0.950 . S
H1277 C1301 0.951 . S
H1278 C1303 0.951 . S
H1279 C1305 0.950 . S
H1280 C1306 0.950 . S
H1281 C1308 0.950 . S
H1282 C1311 0.950 . S
H1283 C1312 0.950 . S
H1284 C1314 0.950 . S
H1285 C1315 0.950 . S
C1286 H1268 0.951 . S
C1286 C1287 1.366 . S
C1286 C1288 1.388 . S
C1287 C1286 1.366 . S
C1287 C1291 1.385 . S
C1288 H1269 0.951 . S
C1288 C1286 1.388 . S
C1288 C1289 1.366 . S
C1289 C1288 1.366 . S
C1289 C1290 1.414 . S
C1289 C1292 1.499 . S
C1290 H1270 0.950 . S
C1290 C1289 1.414 . S
C1290 C1291 1.374 . S
C1291 H1271 0.950 . S
C1291 C1287 1.385 . S
C1291 C1290 1.374 . S
C1292 C1289 1.499 . S
C1292 C1293 1.373 . S
C1292 C1294 1.389 . S
C1293 H1272 0.950 . S
C1293 C1292 1.373 . S
C1293 C1309 1.377 . S
C1294 C1292 1.389 . S
C1294 C1295 1.524 . S
C1294 C1308 1.377 . S
C1295 C1294 1.524 . S
C1295 C1296 1.397 . S
C1295 C1300 1.363 . S
C1296 H1273 0.950 . S
C1296 C1295 1.397 . S
C1296 C1297 1.334 . S
C1297 H1274 0.950 . S
C1297 C1296 1.334 . S
C1297 C1298 1.287 . S
C1298 C1297 1.287 . S
C1298 C1299 1.524 . S
C1298 H1317 0.913 . S
C1299 H1275 0.950 . S
C1299 C1298 1.524 . S
C1299 C1300 1.415 . S
C1300 H1276 0.950 . S
C1300 C1295 1.363 . S
C1300 C1299 1.415 . S
C1301 H1277 0.951 . S
C1301 C1302 1.366 . S
C1301 C1303 1.388 . S
C1302 C1301 1.366 . S
C1302 C1306 1.385 . S
C1303 H1278 0.951 . S
C1303 C1301 1.388 . S
C1303 C1304 1.366 . S
C1304 C1303 1.366 . S
C1304 C1305 1.414 . S
C1304 C1307 1.499 . S
C1305 H1279 0.950 . S
C1305 C1304 1.414 . S
C1305 C1306 1.374 . S
C1306 H1280 0.950 . S
C1306 C1302 1.385 . S
C1306 C1305 1.374 . S
C1307 C1304 1.499 . S
C1307 C1308 1.373 . S
C1307 C1309 1.389 . S
C1308 H1281 0.950 . S
C1308 C1294 1.377 . S
C1308 C1307 1.373 . S
C1309 C1293 1.377 . S
C1309 C1307 1.389 . S
C1309 C1310 1.524 . S
C1310 C1309 1.524 . S
C1310 C1311 1.397 . S
C1310 C1315 1.363 . S
C1311 H1282 0.950 . S
C1311 C1310 1.397 . S
C1311 C1312 1.334 . S
C1312 H1283 0.950 . S
C1312 C1311 1.334 . S
C1312 C1313 1.287 . S
C1313 C1312 1.287 . S
C1313 C1314 1.524 . S
C1313 H1316 0.999 . S
C1314 H1284 0.950 . S
C1314 C1313 1.524 . S
C1314 C1315 1.415 . S
C1315 H1285 0.950 . S
C1315 C1310 1.363 . S
C1315 C1314 1.415 . S
H1316 C1313 0.999 . S
H1317 C1298 0.913 . S
H1318 C1336 0.951 . S
H1319 C1338 0.951 . S
H1320 C1340 0.950 . S
H1321 C1341 0.950 . S
H1322 C1343 0.950 . S
H1323 C1346 0.950 . S
H1324 C1347 0.950 . S
H1325 C1349 0.950 . S
H1326 C1350 0.950 . S
H1327 C1351 0.951 . S
H1328 C1353 0.951 . S
H1329 C1355 0.950 . S
H1330 C1356 0.950 . S
H1331 C1358 0.950 . S
H1332 C1361 0.950 . S
H1333 C1362 0.950 . S
H1334 C1364 0.950 . S
H1335 C1365 0.950 . S
C1336 H1318 0.951 . S
C1336 C1337 1.366 . S
C1336 C1338 1.388 . S
C1337 C1336 1.366 . S
C1337 C1341 1.385 . S
C1338 H1319 0.951 . S
C1338 C1336 1.388 . S
C1338 C1339 1.366 . S
C1339 C1338 1.366 . S
C1339 C1340 1.414 . S
C1339 C1342 1.499 . S
C1340 H1320 0.950 . S
C1340 C1339 1.414 . S
C1340 C1341 1.374 . S
C1341 H1321 0.950 . S
C1341 C1337 1.385 . S
C1341 C1340 1.374 . S
C1342 C1339 1.499 . S
C1342 C1343 1.373 . S
C1342 C1344 1.389 . S
C1343 H1322 0.950 . S
C1343 C1342 1.373 . S
C1343 C1359 1.377 . S
C1344 C1342 1.389 . S
C1344 C1345 1.524 . S
C1344 C1358 1.377 . S
C1345 C1344 1.524 . S
C1345 C1346 1.397 . S
C1345 C1350 1.363 . S
C1346 H1323 0.950 . S
C1346 C1345 1.397 . S
C1346 C1347 1.334 . S
C1347 H1324 0.950 . S
C1347 C1346 1.334 . S
C1347 C1348 1.287 . S
C1348 C1347 1.287 . S
C1348 C1349 1.524 . S
C1348 H1367 0.913 . S
C1349 H1325 0.950 . S
C1349 C1348 1.524 . S
C1349 C1350 1.415 . S
C1350 H1326 0.950 . S
C1350 C1345 1.363 . S
C1350 C1349 1.415 . S
C1351 H1327 0.951 . S
C1351 C1352 1.366 . S
C1351 C1353 1.388 . S
C1352 C1351 1.366 . S
C1352 C1356 1.385 . S
C1353 H1328 0.951 . S
C1353 C1351 1.388 . S
C1353 C1354 1.366 . S
C1354 C1353 1.366 . S
C1354 C1355 1.414 . S
C1354 C1357 1.499 . S
C1355 H1329 0.950 . S
C1355 C1354 1.414 . S
C1355 C1356 1.374 . S
C1356 H1330 0.950 . S
C1356 C1352 1.385 . S
C1356 C1355 1.374 . S
C1357 C1354 1.499 . S
C1357 C1358 1.373 . S
C1357 C1359 1.389 . S
C1358 H1331 0.950 . S
C1358 C1344 1.377 . S
C1358 C1357 1.373 . S
C1359 C1343 1.377 . S
C1359 C1357 1.389 . S
C1359 C1360 1.524 . S
C1360 C1359 1.524 . S
C1360 C1361 1.397 . S
C1360 C1365 1.363 . S
C1361 H1332 0.950 . S
C1361 C1360 1.397 . S
C1361 C1362 1.334 . S
C1362 H1333 0.950 . S
C1362 C1361 1.334 . S
C1362 C1363 1.287 . S
C1363 C1362 1.287 . S
C1363 C1364 1.524 . S
C1363 H1366 0.999 . S
C1364 H1334 0.950 . S
C1364 C1363 1.524 . S
C1364 C1365 1.415 . S
C1365 H1335 0.950 . S
C1365 C1360 1.363 . S
C1365 C1364 1.415 . S
H1366 C1363 0.999 . S
H1367 C1348 0.913 . S
C187 C7 1.254 . S
C202 C161 1.255 . S
C237 C91 1.254 . S
C252 C21 1.254 . S
C287 C35 1.255 . S
C302 C105 1.254 . S
C337 C119 1.255 . S
C352 C49 1.254 . S
C387 C133 1.254 . S
C402 C63 1.254 . S
C437 C147 1.254 . S
C452 C77 1.254 . S
C487 C45 1.236 . S
C502 C115 1.236 . S
C537 C59 1.236 . S
C552 C129 1.237 . S
C587 C73 1.237 . S
C602 C143 1.237 . S
C637 C157 1.237 . S
C652 C3 1.237 . S
C687 C17 1.237 . S
C702 C87 1.237 . S
C737 C31 1.237 . S
C752 C101 1.237 . S
C787 C121 1.708 . S
C802 C9 1.707 . S
C837 C135 1.708 . S
C852 C23 1.708 . S
C887 C37 1.708 . S
C902 C149 1.707 . S
C937 C51 1.707 . S
C952 C163 1.708 . S
C987 C65 1.708 . S
C1002 C93 1.707 . S
C1037 C107 1.708 . S
C1052 C79 1.708 . S
C1087 C8 1.648 . S
C1102 C148 1.647 . S
C1137 C162 1.647 . S
C1152 C22 1.648 . S
C1187 C36 1.647 . S
C1202 C92 1.648 . S
C1237 C50 1.648 . S
C1252 C106 1.647 . S
C1287 C64 1.648 . S
C1302 C120 1.647 . S
C1337 C78 1.647 . S
C1352 C134 1.647 . S
