# Generated by pormake.
# Topology umk, (4)-cn, num edge types: 1
# Building blocks:
#     Node 0, Type 0, BuildingBlock: KUFVIS_clean_sbu_0, # of connection points: 4
#     Node 1, Type 0, BuildingBlock: KUFVIS_clean_sbu_0, # of connection points: 4
#     Node 2, Type 0, BuildingBlock: KUFVIS_clean_sbu_0, # of connection points: 4
#     Node 3, Type 0, BuildingBlock: KUFVIS_clean_sbu_0, # of connection points: 4
#     Node 4, Type 0, BuildingBlock: KUFVIS_clean_sbu_0, # of connection points: 4
#     Node 5, Type 0, BuildingBlock: KUFVIS_clean_sbu_0, # of connection points: 4
#     Node 6, Type 0, BuildingBlock: KUFVIS_clean_sbu_0, # of connection points: 4
#     Node 7, Type 0, BuildingBlock: KUFVIS_clean_sbu_0, # of connection points: 4
#     Node 8, Type 0, BuildingBlock: KUFVIS_clean_sbu_0, # of connection points: 4
#     Node 9, Type 0, BuildingBlock: KUFVIS_clean_sbu_0, # of connection points: 4
#     Node 10, Type 0, BuildingBlock: KUFVIS_clean_sbu_0, # of connection points: 4
#     Node 11, Type 0, BuildingBlock: KUFVIS_clean_sbu_0, # of connection points: 4
#     Node 12, Type 0, BuildingBlock: KUFVIS_clean_sbu_0, # of connection points: 4
#     Node 13, Type 0, BuildingBlock: KUFVIS_clean_sbu_0, # of connection points: 4
#     Node 14, Type 0, BuildingBlock: KUFVIS_clean_sbu_0, # of connection points: 4
#     Node 15, Type 0, BuildingBlock: KUFVIS_clean_sbu_0, # of connection points: 4
#     Node 16, Type 0, BuildingBlock: KUFVIS_clean_sbu_0, # of connection points: 4
#     Node 17, Type 0, BuildingBlock: KUFVIS_clean_sbu_0, # of connection points: 4
#     Node 18, Type 0, BuildingBlock: KUFVIS_clean_sbu_0, # of connection points: 4
#     Node 19, Type 0, BuildingBlock: KUFVIS_clean_sbu_0, # of connection points: 4
#     Node 20, Type 0, BuildingBlock: KUFVIS_clean_sbu_0, # of connection points: 4
#     Node 21, Type 0, BuildingBlock: KUFVIS_clean_sbu_0, # of connection points: 4
#     Node 22, Type 0, BuildingBlock: KUFVIS_clean_sbu_0, # of connection points: 4
#     Node 23, Type 0, BuildingBlock: KUFVIS_clean_sbu_0, # of connection points: 4
#     Edge 24, Type (0, 0), BuildingBlock: KIFKEQ_clean_linker_1, # of connection points: 2
#     Edge 25, Type (0, 0), BuildingBlock: KIFKEQ_clean_linker_1, # of connection points: 2
#     Edge 26, Type (0, 0), BuildingBlock: KIFKEQ_clean_linker_1, # of connection points: 2
#     Edge 27, Type (0, 0), BuildingBlock: KIFKEQ_clean_linker_1, # of connection points: 2
#     Edge 28, Type (0, 0), BuildingBlock: KIFKEQ_clean_linker_1, # of connection points: 2
#     Edge 29, Type (0, 0), BuildingBlock: KIFKEQ_clean_linker_1, # of connection points: 2
#     Edge 30, Type (0, 0), BuildingBlock: KIFKEQ_clean_linker_1, # of connection points: 2
#     Edge 31, Type (0, 0), BuildingBlock: KIFKEQ_clean_linker_1, # of connection points: 2
#     Edge 32, Type (0, 0), BuildingBlock: KIFKEQ_clean_linker_1, # of connection points: 2
#     Edge 33, Type (0, 0), BuildingBlock: KIFKEQ_clean_linker_1, # of connection points: 2
#     Edge 34, Type (0, 0), BuildingBlock: KIFKEQ_clean_linker_1, # of connection points: 2
#     Edge 35, Type (0, 0), BuildingBlock: KIFKEQ_clean_linker_1, # of connection points: 2
#     Edge 36, Type (0, 0), BuildingBlock: KIFKEQ_clean_linker_1, # of connection points: 2
#     Edge 37, Type (0, 0), BuildingBlock: KIFKEQ_clean_linker_1, # of connection points: 2
#     Edge 38, Type (0, 0), BuildingBlock: KIFKEQ_clean_linker_1, # of connection points: 2
#     Edge 39, Type (0, 0), BuildingBlock: KIFKEQ_clean_linker_1, # of connection points: 2
#     Edge 40, Type (0, 0), BuildingBlock: KIFKEQ_clean_linker_1, # of connection points: 2
#     Edge 41, Type (0, 0), BuildingBlock: KIFKEQ_clean_linker_1, # of connection points: 2
#     Edge 42, Type (0, 0), BuildingBlock: KIFKEQ_clean_linker_1, # of connection points: 2
#     Edge 43, Type (0, 0), BuildingBlock: KIFKEQ_clean_linker_1, # of connection points: 2
#     Edge 44, Type (0, 0), BuildingBlock: KIFKEQ_clean_linker_1, # of connection points: 2
#     Edge 45, Type (0, 0), BuildingBlock: KIFKEQ_clean_linker_1, # of connection points: 2
#     Edge 46, Type (0, 0), BuildingBlock: KIFKEQ_clean_linker_1, # of connection points: 2
#     Edge 47, Type (0, 0), BuildingBlock: KIFKEQ_clean_linker_1, # of connection points: 2
#     Edge 48, Type (0, 0), BuildingBlock: KIFKEQ_clean_linker_1, # of connection points: 2
#     Edge 49, Type (0, 0), BuildingBlock: KIFKEQ_clean_linker_1, # of connection points: 2
#     Edge 50, Type (0, 0), BuildingBlock: KIFKEQ_clean_linker_1, # of connection points: 2
#     Edge 51, Type (0, 0), BuildingBlock: KIFKEQ_clean_linker_1, # of connection points: 2
#     Edge 52, Type (0, 0), BuildingBlock: KIFKEQ_clean_linker_1, # of connection points: 2
#     Edge 53, Type (0, 0), BuildingBlock: KIFKEQ_clean_linker_1, # of connection points: 2
#     Edge 54, Type (0, 0), BuildingBlock: KIFKEQ_clean_linker_1, # of connection points: 2
#     Edge 55, Type (0, 0), BuildingBlock: KIFKEQ_clean_linker_1, # of connection points: 2
#     Edge 56, Type (0, 0), BuildingBlock: KIFKEQ_clean_linker_1, # of connection points: 2
#     Edge 57, Type (0, 0), BuildingBlock: KIFKEQ_clean_linker_1, # of connection points: 2
#     Edge 58, Type (0, 0), BuildingBlock: KIFKEQ_clean_linker_1, # of connection points: 2
#     Edge 59, Type (0, 0), BuildingBlock: KIFKEQ_clean_linker_1, # of connection points: 2
#     Edge 60, Type (0, 0), BuildingBlock: KIFKEQ_clean_linker_1, # of connection points: 2
#     Edge 61, Type (0, 0), BuildingBlock: KIFKEQ_clean_linker_1, # of connection points: 2
#     Edge 62, Type (0, 0), BuildingBlock: KIFKEQ_clean_linker_1, # of connection points: 2
#     Edge 63, Type (0, 0), BuildingBlock: KIFKEQ_clean_linker_1, # of connection points: 2
#     Edge 64, Type (0, 0), BuildingBlock: KIFKEQ_clean_linker_1, # of connection points: 2
#     Edge 65, Type (0, 0), BuildingBlock: KIFKEQ_clean_linker_1, # of connection points: 2
#     Edge 66, Type (0, 0), BuildingBlock: KIFKEQ_clean_linker_1, # of connection points: 2
#     Edge 67, Type (0, 0), BuildingBlock: KIFKEQ_clean_linker_1, # of connection points: 2
#     Edge 68, Type (0, 0), BuildingBlock: KIFKEQ_clean_linker_1, # of connection points: 2
#     Edge 69, Type (0, 0), BuildingBlock: KIFKEQ_clean_linker_1, # of connection points: 2
#     Edge 70, Type (0, 0), BuildingBlock: KIFKEQ_clean_linker_1, # of connection points: 2
#     Edge 71, Type (0, 0), BuildingBlock: KIFKEQ_clean_linker_1, # of connection points: 2
# Relax obj value: 0.071
# Max RMSD: 0.061
# Mean RMSD: 0.061
data_MOF--net-umk--node1-KUFVIS_clean_sbu_0--edge1-KIFKEQ_clean_linker_1
_symmetry_space_group_name_H-M    P1
_symmetry_Int_Tables_number       1
_symmetry_cell_setting            triclinic
loop_
_symmetry_equiv_pos_as_xyz
'x, y, z'
_cell_length_a     67.227224
_cell_length_b     67.26907
_cell_length_c     43.179971
_cell_angle_alpha  90.049415
_cell_angle_beta   90.088018
_cell_angle_gamma 119.99203
loop_
_atom_site_label
_atom_site_type_symbol
_atom_site_fract_x
_atom_site_fract_y
_atom_site_fract_z
_atom_type_partial_charge
Mn0 Mn 0.34553 0.47686 0.08044 0.0
Mn1 Mn 0.39376 0.51052 0.12118 0.0
C2 C 0.3782 0.50468 0.0551 0.0
C3 C 0.30991 0.47091 0.06261 0.0
C4 C 0.37737 0.46049 0.10501 0.0
O5 O 0.33462 0.47168 0.12561 0.0
O6 O 0.36666 0.49955 0.14854 0.0
C7 C 0.38622 0.54948 0.13409 0.0
N8 N 0.39964 0.54139 0.12251 0.0
C9 C 0.42939 0.57948 0.10896 0.0
C10 C 0.41599 0.58826 0.12105 0.0
C11 C 0.39426 0.57318 0.13352 0.0
C12 C 0.42041 0.5557 0.11 0.0
H13 H 0.36948 0.53792 0.14357 0.0
C14 C 0.34547 0.48392 0.14911 0.0
O15 O 0.3139 0.45395 0.0651 0.0
O16 O 0.32638 0.49095 0.07088 0.0
N17 N 0.42155 0.52259 0.09775 0.0
C18 C 0.43207 0.5113 0.0863 0.0
C19 C 0.45399 0.52389 0.07307 0.0
C20 C 0.46498 0.54794 0.07205 0.0
C21 C 0.45388 0.5592 0.08405 0.0
C22 C 0.43215 0.54576 0.09726 0.0
H23 H 0.42391 0.49285 0.08742 0.0
O24 O 0.3618 0.48804 0.03956 0.0
O25 O 0.37467 0.50482 0.08456 0.0
O26 O 0.36063 0.45703 0.08733 0.0
O27 O 0.38942 0.4792 0.12005 0.0
C28 C 0.46349 0.58322 0.08334 0.0
C29 C 0.45118 0.59334 0.09557 0.0
H30 H 0.42214 0.60653 0.12067 0.0
H31 H 0.38375 0.57981 0.14269 0.0
H32 H 0.46246 0.51507 0.06388 0.0
H33 H 0.48197 0.55757 0.06207 0.0
H34 H 0.48022 0.59405 0.07311 0.0
H35 H 0.45859 0.61179 0.09448 0.0
Mn36 Mn 0.8771 0.34008 0.57898 0.0
Mn37 Mn 0.8945 0.38672 0.62472 0.0
C38 C 0.88332 0.37443 0.55775 0.0
C39 C 0.84664 0.3063 0.55818 0.0
C40 C 0.92612 0.36929 0.60324 0.0
O41 O 0.87095 0.32677 0.62289 0.0
O42 O 0.87914 0.35858 0.65036 0.0
C43 C 0.84892 0.37937 0.64304 0.0
N44 N 0.8699 0.39289 0.63002 0.0
C45 C 0.86121 0.42295 0.62022 0.0
C46 C 0.83955 0.40941 0.6337 0.0
C47 C 0.83336 0.3875 0.64508 0.0
C48 C 0.87596 0.41392 0.61878 0.0
H49 H 0.84411 0.36252 0.65176 0.0
C50 C 0.87198 0.33707 0.64822 0.0
O51 O 0.86716 0.30905 0.56044 0.0
O52 O 0.84382 0.32275 0.56871 0.0
N53 N 0.90976 0.41535 0.60312 0.0
C54 C 0.93115 0.42608 0.59039 0.0
C55 C 0.94 0.4482 0.578 0.0
C56 C 0.92687 0.45914 0.5791 0.0
C57 C 0.90499 0.44786 0.5926 0.0
C58 C 0.89719 0.42593 0.60487 0.0
H59 H 0.94142 0.41785 0.58971 0.0
O60 O 0.88287 0.35858 0.54014 0.0
O61 O 0.87971 0.3695 0.587 0.0
O62 O 0.91192 0.35337 0.58524 0.0
O63 O 0.92096 0.38185 0.61977 0.0
C64 C 0.89056 0.45743 0.59417 0.0
C65 C 0.86864 0.44494 0.60784 0.0
H66 H 0.82749 0.4156 0.63529 0.0
H67 H 0.81664 0.37691 0.65541 0.0
H68 H 0.95691 0.45682 0.56767 0.0
H69 H 0.93376 0.4762 0.56951 0.0
H70 H 0.89607 0.47429 0.58466 0.0
H71 H 0.8576 0.45238 0.6086 0.0
Mn72 Mn 0.54188 0.87153 0.07279 0.0
Mn73 Mn 0.5101 0.88553 0.11879 0.0
C74 C 0.51244 0.87575 0.05155 0.0
C75 C 0.54716 0.84218 0.05223 0.0
C76 C 0.55851 0.92001 0.09733 0.0
O77 O 0.54993 0.86598 0.11641 0.0
O78 O 0.52469 0.87166 0.14394 0.0
C79 C 0.47428 0.83858 0.13642 0.0
N80 N 0.4802 0.85941 0.12398 0.0
C81 C 0.44059 0.84811 0.11516 0.0
C82 C 0.43404 0.82657 0.12804 0.0
C83 C 0.45098 0.82177 0.13862 0.0
C84 C 0.46407 0.86412 0.11342 0.0
H85 H 0.48727 0.83485 0.14456 0.0
C86 C 0.54012 0.86592 0.14169 0.0
O87 O 0.5641 0.86322 0.0538 0.0
O88 O 0.52759 0.83838 0.06291 0.0
N89 N 0.49479 0.89923 0.098 0.0
C90 C 0.50398 0.92084 0.08623 0.0
C91 C 0.48935 0.92851 0.07509 0.0
C92 C 0.46544 0.91401 0.07652 0.0
C93 C 0.45636 0.89194 0.08901 0.0
C94 C 0.47179 0.88534 0.1001 0.0
H95 H 0.52234 0.9322 0.08545 0.0
O96 O 0.52837 0.87637 0.03399 0.0
O97 O 0.51388 0.87207 0.08075 0.0
O98 O 0.56167 0.90658 0.07954 0.0
O99 O 0.54037 0.91337 0.11361 0.0
C100 C 0.43262 0.87621 0.09088 0.0
C101 C 0.42474 0.85425 0.10376 0.0
H102 H 0.41608 0.81357 0.12982 0.0
H103 H 0.44606 0.80516 0.14849 0.0
H104 H 0.49648 0.9456 0.06557 0.0
H105 H 0.45422 0.92005 0.06811 0.0
H106 H 0.42029 0.88076 0.08224 0.0
H107 H 0.40646 0.84223 0.10479 0.0
Mn108 Mn 0.67501 0.53666 0.5723 0.0
Mn109 Mn 0.62867 0.50572 0.61763 0.0
C110 C 0.64122 0.5076 0.55071 0.0
C111 C 0.70961 0.54141 0.55246 0.0
C112 C 0.64382 0.55433 0.59588 0.0
O113 O 0.68828 0.54446 0.61621 0.0
O114 O 0.65692 0.5196 0.6433 0.0
C115 C 0.63837 0.469 0.63584 0.0
N116 N 0.62399 0.47549 0.62303 0.0
C117 C 0.59492 0.43619 0.61403 0.0
C118 C 0.60937 0.42906 0.62729 0.0
C119 C 0.63122 0.44554 0.63814 0.0
C120 C 0.60305 0.4598 0.61219 0.0
H121 H 0.65517 0.48163 0.6442 0.0
C122 C 0.67822 0.5347 0.64137 0.0
O123 O 0.70577 0.55852 0.55379 0.0
O124 O 0.69358 0.52192 0.56296 0.0
N125 N 0.59984 0.49113 0.59629 0.0
C126 C 0.58803 0.50088 0.58407 0.0
C127 C 0.56568 0.48676 0.57269 0.0
C128 C 0.55561 0.46279 0.5743 0.0
C129 C 0.56803 0.45314 0.58712 0.0
C130 C 0.59012 0.46808 0.59847 0.0
H131 H 0.59552 0.51928 0.58319 0.0
O132 O 0.65683 0.52332 0.53326 0.0
O133 O 0.64612 0.50902 0.58 0.0
O134 O 0.66033 0.557 0.57834 0.0
O135 O 0.63197 0.53636 0.61228 0.0
C136 C 0.55935 0.42929 0.5891 0.0
C137 C 0.57286 0.42083 0.60235 0.0
H138 H 0.60391 0.41098 0.62916 0.0
H139 H 0.64251 0.44017 0.6483 0.0
H140 H 0.55618 0.49433 0.56289 0.0
H141 H 0.53829 0.45198 0.5658 0.0
H142 H 0.5424 0.41732 0.58028 0.0
H143 H 0.5661 0.40247 0.60346 0.0
Mn144 Mn 0.14313 0.67404 0.07625 0.0
Mn145 Mn 0.1287 0.62783 0.12144 0.0
C146 C 0.13918 0.64063 0.05454 0.0
C147 C 0.17255 0.70897 0.05679 0.0
C148 C 0.09445 0.64205 0.09971 0.0
O149 O 0.14832 0.68716 0.12014 0.0
O150 O 0.14255 0.65603 0.14718 0.0
C151 C 0.17547 0.6385 0.13973 0.0
N152 N 0.15468 0.62382 0.12685 0.0
C153 C 0.1658 0.59542 0.11774 0.0
C154 C 0.18729 0.61018 0.13108 0.0
C155 C 0.19216 0.63184 0.14202 0.0
C156 C 0.14991 0.60306 0.11593 0.0
H157 H 0.17926 0.65516 0.14815 0.0
C158 C 0.14829 0.6772 0.14527 0.0
O159 O 0.15145 0.70472 0.05794 0.0
O160 O 0.17637 0.69312 0.06713 0.0
N161 N 0.115 0.59906 0.10002 0.0
C162 C 0.09346 0.5869 0.08776 0.0
C163 C 0.08573 0.56469 0.07622 0.0
C164 C 0.10008 0.55512 0.07774 0.0
C165 C 0.12209 0.56787 0.09067 0.0
C166 C 0.12875 0.5898 0.10216 0.0
H167 H 0.08221 0.59402 0.08691 0.0
O168 O 0.13869 0.65609 0.03714 0.0
O169 O 0.14255 0.64546 0.08385 0.0
O170 O 0.10804 0.65871 0.08221 0.0
O171 O 0.10095 0.63046 0.11607 0.0
C172 C 0.13768 0.55969 0.09262 0.0
C173 C 0.15958 0.57352 0.10596 0.0
H174 H 0.2002 0.6051 0.13292 0.0
H175 H 0.20874 0.64336 0.15223 0.0
H176 H 0.06869 0.55493 0.06633 0.0
H177 H 0.09398 0.53792 0.06904 0.0
H178 H 0.13308 0.54287 0.08369 0.0
H179 H 0.17151 0.56714 0.10703 0.0
Mn180 Mn 0.47485 0.13738 0.5807 0.0
Mn181 Mn 0.50463 0.12069 0.6264 0.0
C182 C 0.50375 0.13233 0.55953 0.0
C183 C 0.47052 0.16751 0.56112 0.0
C184 C 0.45582 0.08851 0.60415 0.0
O185 O 0.46695 0.14256 0.62471 0.0
O186 O 0.49178 0.136 0.65206 0.0
C187 C 0.54274 0.16635 0.64485 0.0
N188 N 0.53536 0.14537 0.6318 0.0
C189 C 0.57418 0.15418 0.62218 0.0
C190 C 0.5822 0.17584 0.6357 0.0
C191 C 0.56641 0.18197 0.64699 0.0
C192 C 0.5504 0.13937 0.62062 0.0
H193 H 0.53062 0.17112 0.6535 0.0
C194 C 0.47676 0.14232 0.64996 0.0
O195 O 0.4533 0.14663 0.56214 0.0
O196 O 0.48994 0.1708 0.5719 0.0
N197 N 0.51812 0.10555 0.60469 0.0
C198 C 0.50754 0.08419 0.59176 0.0
C199 C 0.52091 0.07541 0.57938 0.0
C200 C 0.54497 0.08858 0.58067 0.0
C201 C 0.55547 0.11043 0.59434 0.0
C202 C 0.54127 0.11816 0.6066 0.0
H203 H 0.48906 0.07388 0.59094 0.0
O204 O 0.48836 0.13271 0.54179 0.0
O205 O 0.50205 0.13547 0.58885 0.0
O206 O 0.45408 0.10244 0.58573 0.0
O207 O 0.47334 0.09408 0.62138 0.0
C208 C 0.57947 0.1249 0.59607 0.0
C209 C 0.58882 0.14681 0.60984 0.0
H210 H 0.60044 0.18794 0.63736 0.0
H211 H 0.57247 0.1987 0.65733 0.0
H212 H 0.51267 0.05853 0.56891 0.0
H213 H 0.5552 0.08174 0.57109 0.0
H214 H 0.59089 0.11945 0.58658 0.0
H215 H 0.60728 0.15789 0.61069 0.0
Mn216 Mn 0.54119 0.67195 0.92978 0.0
Mn217 Mn 0.50944 0.62445 0.88695 0.0
C218 C 0.51288 0.63879 0.95343 0.0
C219 C 0.54639 0.70712 0.94793 0.0
C220 C 0.55921 0.64167 0.90538 0.0
O221 O 0.54761 0.68348 0.88485 0.0
O222 O 0.52015 0.65193 0.86045 0.0
C223 C 0.46968 0.63048 0.8728 0.0
N224 N 0.47823 0.61751 0.88464 0.0
C225 C 0.44032 0.58688 0.89719 0.0
C226 C 0.43108 0.59981 0.88483 0.0
C227 C 0.44584 0.62174 0.87271 0.0
C228 C 0.46421 0.59652 0.89673 0.0
H229 H 0.48099 0.64738 0.86361 0.0
C230 C 0.53582 0.67312 0.86079 0.0
O231 O 0.56349 0.70329 0.94629 0.0
O232 O 0.5266 0.69076 0.93854 0.0
N233 N 0.49777 0.59643 0.9098 0.0
C234 C 0.50946 0.5865 0.92181 0.0
C235 C 0.49723 0.56458 0.93512 0.0
C236 C 0.47313 0.55298 0.93564 0.0
C237 C 0.46145 0.56345 0.92294 0.0
C238 C 0.47455 0.58525 0.90976 0.0
H239 H 0.52797 0.59516 0.92117 0.0
O240 O 0.52887 0.65505 0.96996 0.0
O241 O 0.51367 0.64277 0.92397 0.0
O242 O 0.56145 0.65729 0.92428 0.0
O243 O 0.54125 0.62989 0.88877 0.0
C244 C 0.43734 0.5532 0.92306 0.0
C245 C 0.42678 0.56497 0.91036 0.0
H246 H 0.4127 0.59314 0.88476 0.0
H247 H 0.43885 0.63189 0.86334 0.0
H248 H 0.50637 0.5566 0.94485 0.0
H249 H 0.46378 0.53607 0.94592 0.0
H250 H 0.42676 0.5364 0.93321 0.0
H251 H 0.40826 0.55706 0.91103 0.0
Mn252 Mn 0.87581 0.53645 0.43442 0.0
Mn253 Mn 0.89252 0.50511 0.39258 0.0
C254 C 0.88148 0.50886 0.45887 0.0
C255 C 0.84536 0.54107 0.45202 0.0
C256 C 0.92424 0.55518 0.41026 0.0
O257 O 0.87044 0.54225 0.38925 0.0
O258 O 0.87531 0.51508 0.36555 0.0
C259 C 0.84715 0.46468 0.37864 0.0
N260 N 0.86871 0.47371 0.39062 0.0
C261 C 0.86229 0.43621 0.40379 0.0
C262 C 0.84009 0.42647 0.3913 0.0
C263 C 0.83246 0.44078 0.37881 0.0
C264 C 0.87611 0.46014 0.40309 0.0
H265 H 0.84122 0.47564 0.36913 0.0
C266 C 0.86932 0.53041 0.36543 0.0
O267 O 0.86613 0.55842 0.45024 0.0
O268 O 0.84235 0.52135 0.44311 0.0
N269 N 0.90932 0.49416 0.41594 0.0
C270 C 0.93091 0.50631 0.42803 0.0
C271 C 0.94105 0.49458 0.44165 0.0
C272 C 0.92901 0.47048 0.44241 0.0
C273 C 0.90687 0.45833 0.42969 0.0
C274 C 0.89772 0.47095 0.41619 0.0
H275 H 0.9404 0.52482 0.42718 0.0
O276 O 0.8808 0.52479 0.47498 0.0
O277 O 0.87817 0.50926 0.42935 0.0
O278 O 0.91064 0.55725 0.4289 0.0
O279 O 0.91845 0.53715 0.39403 0.0
C280 C 0.89346 0.43419 0.43003 0.0
C281 C 0.87113 0.42315 0.41728 0.0
H282 H 0.8287 0.40805 0.3914 0.0
H283 H 0.81529 0.4334 0.36932 0.0
H284 H 0.95815 0.50408 0.45141 0.0
H285 H 0.93695 0.46152 0.45283 0.0
H286 H 0.90005 0.42397 0.44037 0.0
H287 H 0.86085 0.4046 0.41812 0.0
Mn288 Mn 0.34287 0.87318 0.93543 0.0
Mn289 Mn 0.38872 0.8866 0.88997 0.0
C290 C 0.37624 0.87698 0.9571 0.0
C291 C 0.30793 0.84407 0.95536 0.0
C292 C 0.37528 0.92152 0.91117 0.0
O293 O 0.32951 0.8677 0.89168 0.0
O294 O 0.36036 0.87285 0.86448 0.0
C295 C 0.37726 0.83948 0.87255 0.0
N296 N 0.39224 0.86031 0.88502 0.0
C297 C 0.42027 0.84871 0.89437 0.0
C298 C 0.40519 0.82717 0.88145 0.0
C299 C 0.38356 0.82252 0.87059 0.0
C300 C 0.41298 0.86488 0.89586 0.0
H301 H 0.36061 0.83586 0.8642 0.0
C302 C 0.33925 0.86737 0.86653 0.0
O303 O 0.31229 0.86519 0.95393 0.0
O304 O 0.32366 0.84008 0.94504 0.0
N305 N 0.41762 0.90014 0.91112 0.0
C306 C 0.43011 0.92175 0.92301 0.0
C307 C 0.45232 0.92927 0.93443 0.0
C308 C 0.46157 0.91463 0.93319 0.0
C309 C 0.44849 0.89255 0.92063 0.0
C310 C 0.42657 0.8861 0.90924 0.0
H311 H 0.42324 0.93321 0.92366 0.0
O312 O 0.36095 0.87781 0.97447 0.0
O313 O 0.37125 0.87334 0.92785 0.0
O314 O 0.35856 0.90825 0.92884 0.0
O315 O 0.38659 0.91462 0.89493 0.0
C316 C 0.45632 0.87667 0.919 0.0
C317 C 0.44216 0.85471 0.90607 0.0
H318 H 0.41 0.81405 0.87987 0.0
H319 H 0.3718 0.8059 0.8607 0.0
H320 H 0.46234 0.94636 0.94403 0.0
H321 H 0.47877 0.92056 0.94181 0.0
H322 H 0.47313 0.88111 0.92788 0.0
H323 H 0.44827 0.84257 0.90524 0.0
Mn324 Mn 0.47394 0.3365 0.4382 0.0
Mn325 Mn 0.50327 0.38246 0.39177 0.0
C326 C 0.50329 0.37051 0.45871 0.0
C327 C 0.46977 0.30212 0.45779 0.0
C328 C 0.45486 0.36638 0.41504 0.0
O329 O 0.46522 0.32308 0.39438 0.0
O330 O 0.49001 0.35407 0.36655 0.0
C331 C 0.54102 0.37452 0.37284 0.0
N332 N 0.53389 0.38832 0.38589 0.0
C333 C 0.57287 0.41834 0.39457 0.0
C334 C 0.58065 0.4045 0.38106 0.0
C335 C 0.56465 0.38247 0.37024 0.0
C336 C 0.54912 0.40945 0.39664 0.0
H337 H 0.52875 0.35757 0.36453 0.0
C338 C 0.47482 0.33283 0.36897 0.0
O339 O 0.45259 0.30589 0.45725 0.0
O340 O 0.48903 0.31809 0.44655 0.0
N341 N 0.51713 0.41132 0.41299 0.0
C342 C 0.50679 0.4224 0.4257 0.0
C343 C 0.52037 0.44473 0.4374 0.0
C344 C 0.54441 0.45553 0.43562 0.0
C345 C 0.55467 0.44388 0.42221 0.0
C346 C 0.54025 0.42176 0.41062 0.0
H347 H 0.48832 0.41432 0.42682 0.0
O348 O 0.48816 0.35491 0.4768 0.0
O349 O 0.50111 0.36544 0.42944 0.0
O350 O 0.4533 0.3509 0.43366 0.0
O351 O 0.47209 0.37797 0.39731 0.0
C352 C 0.57863 0.45332 0.41998 0.0
C353 C 0.58772 0.44051 0.40633 0.0
H354 H 0.59885 0.41057 0.379 0.0
H355 H 0.57052 0.37166 0.3599 0.0
H356 H 0.51233 0.45363 0.44767 0.0
H357 H 0.5548 0.47279 0.44457 0.0
H358 H 0.59022 0.47033 0.42895 0.0
H359 H 0.60617 0.44784 0.40506 0.0
Mn360 Mn 0.14419 0.47456 0.93982 0.0
Mn361 Mn 0.13101 0.50682 0.89351 0.0
C362 C 0.14031 0.50423 0.96092 0.0
C363 C 0.17343 0.46901 0.96046 0.0
C364 C 0.09586 0.45861 0.91489 0.0
O365 O 0.14973 0.46637 0.8963 0.0
O366 O 0.14471 0.49195 0.8686 0.0
C367 C 0.17829 0.54217 0.87639 0.0
N368 N 0.15744 0.53652 0.88852 0.0
C369 C 0.1692 0.57624 0.89724 0.0
C370 C 0.19077 0.58251 0.88466 0.0
C371 C 0.19535 0.56539 0.87429 0.0
C372 C 0.15294 0.55283 0.8989 0.0
H373 H 0.18186 0.52905 0.86841 0.0
C374 C 0.15013 0.4763 0.87098 0.0
O375 O 0.15232 0.45219 0.95899 0.0
O376 O 0.17733 0.48858 0.94976 0.0
N377 N 0.11751 0.52243 0.91399 0.0
C378 C 0.09583 0.5135 0.92545 0.0
C379 C 0.08835 0.52834 0.9363 0.0
C380 C 0.10311 0.55219 0.9349 0.0
C381 C 0.12526 0.561 0.92275 0.0
C382 C 0.13166 0.54537 0.91193 0.0
H383 H 0.08427 0.49519 0.9262 0.0
O384 O 0.13947 0.48823 0.97853 0.0
O385 O 0.14405 0.50274 0.93176 0.0
O386 O 0.10904 0.45514 0.93284 0.0
O387 O 0.10289 0.47677 0.89854 0.0
C388 C 0.14124 0.58467 0.92095 0.0
C389 C 0.16326 0.59228 0.9084 0.0
H390 H 0.20397 0.60039 0.88296 0.0
H391 H 0.21198 0.57009 0.86466 0.0
H392 H 0.0712 0.52142 0.94557 0.0
H393 H 0.09722 0.56358 0.94307 0.0
H394 H 0.13685 0.59715 0.9294 0.0
H395 H 0.17548 0.6105 0.90742 0.0
Mn396 Mn 0.67428 0.14098 0.43802 0.0
Mn397 Mn 0.6266 0.12493 0.39527 0.0
C398 C 0.64056 0.13441 0.46201 0.0
C399 C 0.70877 0.17105 0.45786 0.0
C400 C 0.6449 0.09297 0.41166 0.0
O401 O 0.68613 0.1477 0.39324 0.0
O402 O 0.65408 0.14237 0.36893 0.0
C403 C 0.63197 0.17061 0.38269 0.0
N404 N 0.61923 0.14891 0.39397 0.0
C405 C 0.58816 0.15539 0.40709 0.0
C406 C 0.60085 0.17775 0.39535 0.0
C407 C 0.62289 0.18541 0.38322 0.0
C408 C 0.59814 0.14146 0.40605 0.0
H409 H 0.64894 0.17656 0.37346 0.0
C410 C 0.67549 0.14874 0.36925 0.0
O411 O 0.70586 0.15058 0.45432 0.0
O412 O 0.69204 0.17408 0.44909 0.0
N413 N 0.59857 0.10793 0.41787 0.0
C414 C 0.5889 0.08616 0.42922 0.0
C415 C 0.56689 0.07595 0.44237 0.0
C416 C 0.55495 0.08811 0.44343 0.0
C417 C 0.56519 0.11045 0.43147 0.0
C418 C 0.58709 0.11966 0.41841 0.0
H419 H 0.59783 0.07659 0.42814 0.0
O420 O 0.65696 0.13465 0.47819 0.0
O421 O 0.64468 0.13853 0.4327 0.0
O422 O 0.66066 0.10636 0.43044 0.0
O423 O 0.63252 0.09889 0.39601 0.0
C424 C 0.55459 0.12398 0.43216 0.0
C425 C 0.56613 0.14649 0.42017 0.0
H426 H 0.59392 0.18922 0.39573 0.0
H427 H 0.63285 0.20269 0.3743 0.0
H428 H 0.55909 0.05871 0.45154 0.0
H429 H 0.53794 0.08013 0.4535 0.0
H430 H 0.53769 0.11735 0.4422 0.0
H431 H 0.55795 0.15685 0.42126 0.0
Mn432 Mn 0.67236 0.53527 0.93044 0.0
Mn433 Mn 0.6244 0.50151 0.88925 0.0
C434 C 0.63951 0.50762 0.9555 0.0
C435 C 0.70768 0.54115 0.94931 0.0
C436 C 0.64064 0.55156 0.90506 0.0
O437 O 0.68366 0.54028 0.88547 0.0
O438 O 0.65168 0.51256 0.86222 0.0
C439 C 0.63222 0.46266 0.87685 0.0
N440 N 0.61865 0.47069 0.88813 0.0
C441 C 0.58897 0.43257 0.9017 0.0
C442 C 0.60251 0.42386 0.8899 0.0
C443 C 0.62428 0.43899 0.87757 0.0
C444 C 0.59785 0.45633 0.9005 0.0
H445 H 0.64899 0.47426 0.8675 0.0
C446 C 0.67292 0.5281 0.86189 0.0
O447 O 0.70382 0.55816 0.94627 0.0
O448 O 0.69132 0.52112 0.94082 0.0
N449 N 0.59646 0.48937 0.91235 0.0
C450 C 0.58581 0.5006 0.92355 0.0
C451 C 0.56385 0.48796 0.93664 0.0
C452 C 0.55295 0.46392 0.93779 0.0
C453 C 0.56419 0.45272 0.92605 0.0
C454 C 0.58596 0.4662 0.91295 0.0
H455 H 0.59391 0.51905 0.92235 0.0
O456 O 0.65578 0.52433 0.9711 0.0
O457 O 0.64326 0.50732 0.92613 0.0
O458 O 0.65738 0.55512 0.92282 0.0
O459 O 0.62861 0.53278 0.89016 0.0
C460 C 0.55469 0.42871 0.92693 0.0
C461 C 0.56715 0.41866 0.91496 0.0
H462 H 0.59645 0.40561 0.89042 0.0
H463 H 0.6349 0.43241 0.86864 0.0
H464 H 0.55527 0.49673 0.94565 0.0
H465 H 0.53594 0.45424 0.94769 0.0
H466 H 0.53795 0.41785 0.93708 0.0
H467 H 0.55982 0.40022 0.91619 0.0
Mn468 Mn 0.14378 0.6707 0.43362 0.0
Mn469 Mn 0.12992 0.62334 0.39133 0.0
C470 C 0.13922 0.6378 0.45781 0.0
C471 C 0.17318 0.70596 0.4526 0.0
C472 C 0.09577 0.63891 0.40834 0.0
O473 O 0.1496 0.6824 0.38886 0.0
O474 O 0.14589 0.65093 0.36483 0.0
C475 C 0.17671 0.63168 0.37837 0.0
N476 N 0.15518 0.61786 0.38963 0.0
C477 C 0.16401 0.58829 0.40228 0.0
C478 C 0.18621 0.60209 0.39048 0.0
C479 C 0.19261 0.62393 0.37862 0.0
C480 C 0.14895 0.59699 0.40156 0.0
H481 H 0.18171 0.6485 0.36938 0.0
C482 C 0.15124 0.67206 0.365 0.0
O483 O 0.1522 0.70194 0.45013 0.0
O484 O 0.17693 0.68978 0.44356 0.0
N485 N 0.1144 0.59515 0.41394 0.0
C486 C 0.09254 0.58423 0.4252 0.0
C487 C 0.08345 0.56218 0.4379 0.0
C488 C 0.0968 0.55147 0.43858 0.0
C489 C 0.11919 0.56297 0.42673 0.0
C490 C 0.12724 0.58483 0.41406 0.0
H491 H 0.08204 0.59219 0.42438 0.0
O492 O 0.13868 0.6538 0.47393 0.0
O493 O 0.14298 0.64185 0.42846 0.0
O494 O 0.10886 0.65543 0.42645 0.0
O495 O 0.10268 0.62728 0.39284 0.0
C496 C 0.13388 0.55366 0.42712 0.0
C497 C 0.15633 0.56638 0.41511 0.0
H498 H 0.19852 0.59618 0.39064 0.0
H499 H 0.20977 0.63475 0.36969 0.0
H500 H 0.06614 0.5534 0.44698 0.0
H501 H 0.08965 0.5344 0.44822 0.0
H502 H 0.12818 0.53685 0.43695 0.0
H503 H 0.16758 0.55919 0.41596 0.0
Mn504 Mn 0.47928 0.14144 0.93948 0.0
Mn505 Mn 0.51042 0.12472 0.89719 0.0
C506 C 0.5072 0.13602 0.96352 0.0
C507 C 0.47449 0.17166 0.95755 0.0
C508 C 0.46048 0.09302 0.91525 0.0
O509 O 0.47308 0.1466 0.89436 0.0
O510 O 0.50024 0.14183 0.87041 0.0
C511 C 0.55077 0.17002 0.88304 0.0
N512 N 0.54182 0.14852 0.89501 0.0
C513 C 0.57946 0.15489 0.90753 0.0
C514 C 0.58911 0.17704 0.89506 0.0
C515 C 0.57469 0.18467 0.88291 0.0
C516 C 0.5555 0.14112 0.90717 0.0
H517 H 0.53973 0.17594 0.87377 0.0
C518 C 0.48483 0.14771 0.87045 0.0
O519 O 0.45724 0.15084 0.95566 0.0
O520 O 0.49422 0.17489 0.94833 0.0
N521 N 0.52156 0.10801 0.92033 0.0
C522 C 0.50949 0.08646 0.9324 0.0
C523 C 0.52135 0.07632 0.94567 0.0
C524 C 0.54546 0.0883 0.94607 0.0
C525 C 0.55752 0.1104 0.93338 0.0
C526 C 0.54478 0.11956 0.92027 0.0
H527 H 0.49097 0.07699 0.93179 0.0
O528 O 0.49135 0.13665 0.97985 0.0
O529 O 0.50653 0.13922 0.93403 0.0
O530 O 0.45856 0.10663 0.93404 0.0
O531 O 0.47837 0.09879 0.8988 0.0
C532 C 0.58168 0.12375 0.93333 0.0
C533 C 0.59264 0.14604 0.92063 0.0
H534 H 0.60755 0.18839 0.89491 0.0
H535 H 0.582 0.20179 0.87343 0.0
H536 H 0.51192 0.05925 0.95541 0.0
H537 H 0.55451 0.08035 0.95619 0.0
H538 H 0.592 0.11713 0.94332 0.0
H539 H 0.6112 0.15627 0.92118 0.0
Mn540 Mn 0.34463 0.47602 0.43871 0.0
Mn541 Mn 0.39061 0.50721 0.39285 0.0
C542 C 0.37844 0.50533 0.45994 0.0
C543 C 0.31002 0.47082 0.4591 0.0
C544 C 0.37609 0.45878 0.41472 0.0
O545 O 0.33107 0.46802 0.39497 0.0
O546 O 0.36218 0.49294 0.36753 0.0
C547 C 0.38018 0.54346 0.37475 0.0
N548 N 0.39485 0.53726 0.38738 0.0
C549 C 0.42362 0.57673 0.39597 0.0
C550 C 0.40888 0.58356 0.38288 0.0
C551 C 0.38703 0.56684 0.37233 0.0
C552 C 0.41579 0.55318 0.39794 0.0
H553 H 0.36338 0.53065 0.36661 0.0
C554 C 0.34094 0.47773 0.36969 0.0
O555 O 0.31411 0.45389 0.45756 0.0
O556 O 0.3258 0.4904 0.44846 0.0
N557 N 0.41958 0.52219 0.41381 0.0
C558 C 0.43171 0.51273 0.42584 0.0
C559 C 0.45411 0.52711 0.43689 0.0
C560 C 0.4639 0.55104 0.43514 0.0
C561 C 0.45115 0.56039 0.42251 0.0
C562 C 0.42903 0.5452 0.41149 0.0
H563 H 0.42444 0.49435 0.42682 0.0
O564 O 0.36304 0.48954 0.47753 0.0
O565 O 0.37333 0.50383 0.43071 0.0
O566 O 0.35959 0.45596 0.43236 0.0
O567 O 0.38775 0.47676 0.39826 0.0
C568 C 0.45954 0.58418 0.4204 0.0
C569 C 0.44572 0.59234 0.40733 0.0
H570 H 0.41411 0.60157 0.38093 0.0
H571 H 0.37552 0.57197 0.36231 0.0
H572 H 0.46386 0.51976 0.44654 0.0
H573 H 0.48126 0.56205 0.44338 0.0
H574 H 0.47651 0.59634 0.42898 0.0
H575 H 0.45225 0.61066 0.40612 0.0
Mn576 Mn 0.87528 0.3424 0.93797 0.0
Mn577 Mn 0.89217 0.39 0.89513 0.0
C578 C 0.8805 0.37585 0.96142 0.0
C579 C 0.845 0.30749 0.95615 0.0
C580 C 0.92394 0.37208 0.91449 0.0
O581 O 0.87025 0.33073 0.89296 0.0
O582 O 0.8753 0.36257 0.86847 0.0
C583 C 0.8468 0.38469 0.87997 0.0
N584 N 0.86827 0.39743 0.89213 0.0
C585 C 0.8616 0.42859 0.90384 0.0
C586 C 0.8395 0.41591 0.89111 0.0
C587 C 0.83203 0.39381 0.87927 0.0
C588 C 0.8755 0.41855 0.90402 0.0
H589 H 0.84098 0.36766 0.87101 0.0
C590 C 0.86929 0.34126 0.86882 0.0
O591 O 0.86586 0.31109 0.95463 0.0
O592 O 0.84177 0.3239 0.94648 0.0
N593 N 0.90864 0.41799 0.91812 0.0
C594 C 0.93012 0.42763 0.93062 0.0
C595 C 0.94007 0.44966 0.94374 0.0
C596 C 0.92798 0.46167 0.94356 0.0
C597 C 0.90595 0.45148 0.93042 0.0
C598 C 0.89698 0.42955 0.91749 0.0
H599 H 0.93968 0.41866 0.93047 0.0
O600 O 0.87987 0.35951 0.97809 0.0
O601 O 0.87746 0.37179 0.93194 0.0
O602 O 0.91017 0.35654 0.93309 0.0
O603 O 0.91823 0.38408 0.89764 0.0
C604 C 0.89249 0.46217 0.9298 0.0
C605 C 0.87027 0.45066 0.91673 0.0
H606 H 0.82806 0.42289 0.89054 0.0
H607 H 0.81494 0.38385 0.86963 0.0
H608 H 0.95708 0.45742 0.95382 0.0
H609 H 0.93577 0.4787 0.95361 0.0
H610 H 0.89896 0.47912 0.93964 0.0
H611 H 0.85994 0.4589 0.91685 0.0
Mn612 Mn 0.54058 0.87341 0.43016 0.0
Mn613 Mn 0.50702 0.88751 0.38843 0.0
C614 C 0.51224 0.87783 0.45464 0.0
C615 C 0.54659 0.84402 0.44866 0.0
C616 C 0.55677 0.92154 0.40567 0.0
O617 O 0.54633 0.86769 0.38525 0.0
O618 O 0.51861 0.87168 0.36152 0.0
C619 C 0.46856 0.84081 0.37496 0.0
N620 N 0.47628 0.86229 0.3865 0.0
C621 C 0.43787 0.85342 0.39925 0.0
C622 C 0.42947 0.83129 0.38713 0.0
C623 C 0.4449 0.82492 0.37509 0.0
C624 C 0.46163 0.86846 0.39863 0.0
H625 H 0.48038 0.83583 0.36588 0.0
C626 C 0.53431 0.86619 0.36146 0.0
O627 O 0.5635 0.86501 0.44631 0.0
O628 O 0.5266 0.84024 0.43975 0.0
N629 N 0.49437 0.9029 0.41148 0.0
C630 C 0.50531 0.92465 0.42319 0.0
C631 C 0.49236 0.93366 0.43622 0.0
C632 C 0.4683 0.92034 0.43678 0.0
C633 C 0.4574 0.89806 0.42448 0.0
C634 C 0.47119 0.89008 0.41151 0.0
H635 H 0.52378 0.93512 0.42247 0.0
O636 O 0.52883 0.87835 0.47065 0.0
O637 O 0.51251 0.87422 0.42522 0.0
O638 O 0.56023 0.90833 0.42343 0.0
O639 O 0.5382 0.91474 0.39021 0.0
C640 C 0.43339 0.8834 0.42473 0.0
C641 C 0.42365 0.86104 0.41233 0.0
H642 H 0.41124 0.81898 0.3872 0.0
H643 H 0.43856 0.80781 0.36593 0.0
H644 H 0.5009 0.95088 0.44565 0.0
H645 H 0.45839 0.92742 0.4467 0.0
H646 H 0.42229 0.88905 0.43476 0.0
H647 H 0.4052 0.8498 0.4131 0.0
Mn648 Mn 0.47698 0.34022 0.08045 0.0
Mn649 Mn 0.50817 0.38774 0.12349 0.0
C650 C 0.50497 0.37361 0.05701 0.0
C651 C 0.47257 0.30546 0.06186 0.0
C652 C 0.45833 0.36998 0.10489 0.0
O653 O 0.47065 0.3285 0.12529 0.0
O654 O 0.49765 0.36023 0.14989 0.0
C655 C 0.5482 0.38218 0.13777 0.0
N656 N 0.53948 0.395 0.12594 0.0
C657 C 0.57728 0.42588 0.11349 0.0
C658 C 0.58669 0.41311 0.12587 0.0
C659 C 0.57207 0.39113 0.13793 0.0
C660 C 0.55336 0.41605 0.1139 0.0
H661 H 0.537 0.36523 0.14687 0.0
C662 C 0.48228 0.33894 0.14941 0.0
O663 O 0.45517 0.30883 0.06357 0.0
O664 O 0.49215 0.32198 0.07155 0.0
N665 N 0.51964 0.41576 0.10071 0.0
C666 C 0.5078 0.4255 0.08859 0.0
C667 C 0.51987 0.44742 0.07523 0.0
C668 C 0.54398 0.45921 0.07476 0.0
C669 C 0.55582 0.44894 0.0876 0.0
C670 C 0.54287 0.42714 0.10082 0.0
H671 H 0.48928 0.41668 0.08915 0.0
O672 O 0.48913 0.3573 0.04038 0.0
O673 O 0.50422 0.36957 0.08644 0.0
O674 O 0.45627 0.35438 0.08606 0.0
O675 O 0.47624 0.38195 0.12149 0.0
C676 C 0.57995 0.45939 0.08753 0.0
C677 C 0.59067 0.44782 0.10031 0.0
H678 H 0.60509 0.41994 0.12599 0.0
H679 H 0.57919 0.38109 0.1473 0.0
H680 H 0.51061 0.45523 0.06539 0.0
H681 H 0.55322 0.4761 0.06441 0.0
H682 H 0.59041 0.4762 0.07735 0.0
H683 H 0.60921 0.45587 0.09968 0.0
Mn684 Mn 0.14558 0.47574 0.58237 0.0
Mn685 Mn 0.13031 0.50837 0.62409 0.0
C686 C 0.14052 0.50368 0.55789 0.0
C687 C 0.17551 0.47049 0.56416 0.0
C688 C 0.09719 0.4585 0.6065 0.0
O689 O 0.15121 0.46998 0.62734 0.0
O690 O 0.14661 0.49732 0.65105 0.0
C691 C 0.17657 0.54753 0.63789 0.0
N692 N 0.15504 0.53935 0.62619 0.0
C693 C 0.163 0.57747 0.61357 0.0
C694 C 0.18517 0.58633 0.62584 0.0
C695 C 0.19202 0.57128 0.63789 0.0
C696 C 0.14841 0.55364 0.61406 0.0
H697 H 0.18191 0.53599 0.64701 0.0
C698 C 0.15241 0.48186 0.65114 0.0
O699 O 0.15464 0.45332 0.56628 0.0
O700 O 0.17888 0.49031 0.57312 0.0
N701 N 0.11441 0.52047 0.60101 0.0
C702 C 0.09266 0.50912 0.58927 0.0
C703 C 0.08318 0.52167 0.5763 0.0
C704 C 0.09603 0.54574 0.57583 0.0
C705 C 0.11832 0.55707 0.58816 0.0
C706 C 0.12678 0.54366 0.60108 0.0
H707 H 0.08254 0.49064 0.58995 0.0
O708 O 0.14052 0.48738 0.54185 0.0
O709 O 0.14406 0.50342 0.58734 0.0
O710 O 0.11068 0.45553 0.58869 0.0
O711 O 0.10356 0.4769 0.62216 0.0
C712 C 0.13252 0.58113 0.58802 0.0
C713 C 0.15491 0.59131 0.60052 0.0
H714 H 0.19714 0.60464 0.62588 0.0
H715 H 0.20916 0.57797 0.64717 0.0
H716 H 0.06595 0.51281 0.56685 0.0
H717 H 0.08858 0.55535 0.56598 0.0
H718 H 0.1265 0.59193 0.57803 0.0
H719 H 0.16579 0.6098 0.59985 0.0
Mn720 Mn 0.67754 0.14057 0.07964 0.0
Mn721 Mn 0.63101 0.12242 0.12558 0.0
C722 C 0.64326 0.13514 0.05898 0.0
C723 C 0.71164 0.17126 0.06013 0.0
C724 C 0.64827 0.09119 0.10175 0.0
O725 O 0.69084 0.1455 0.12361 0.0
O726 O 0.65922 0.13764 0.15123 0.0
C727 C 0.638 0.16754 0.14569 0.0
N728 N 0.62457 0.14673 0.13208 0.0
C729 C 0.59418 0.15515 0.12343 0.0
C730 C 0.60763 0.17664 0.13752 0.0
C731 C 0.62966 0.18288 0.1486 0.0
C732 C 0.60343 0.14063 0.12108 0.0
H733 H 0.65495 0.17239 0.15419 0.0
C734 C 0.68067 0.14454 0.14902 0.0
O735 O 0.70834 0.15051 0.0607 0.0
O736 O 0.6954 0.17413 0.07144 0.0
N737 N 0.60231 0.10728 0.10393 0.0
C738 C 0.59165 0.08605 0.0906 0.0
C739 C 0.5694 0.07715 0.0785 0.0
C740 C 0.55824 0.09004 0.08049 0.0
C741 C 0.56946 0.11174 0.09456 0.0
C742 C 0.59153 0.11961 0.10653 0.0
H743 H 0.60002 0.07594 0.08928 0.0
O744 O 0.65911 0.13604 0.04096 0.0
O745 O 0.64819 0.13799 0.0883 0.0
O746 O 0.66391 0.10562 0.08375 0.0
O747 O 0.63611 0.09618 0.11937 0.0
C748 C 0.55965 0.12593 0.09706 0.0
C749 C 0.57205 0.14767 0.11132 0.0
H750 H 0.60127 0.18852 0.1398 0.0
H751 H 0.64018 0.19947 0.15939 0.0
H752 H 0.56084 0.06036 0.06772 0.0
H753 H 0.54107 0.08309 0.07116 0.0
H754 H 0.54268 0.12038 0.08781 0.0
H755 H 0.56444 0.15853 0.11279 0.0
Mn756 Mn 0.54597 0.67662 0.57188 0.0
Mn757 Mn 0.51667 0.6305 0.61808 0.0
C758 C 0.51666 0.64262 0.55122 0.0
C759 C 0.55009 0.71103 0.55243 0.0
C760 C 0.56513 0.64676 0.59487 0.0
O761 O 0.5546 0.68992 0.61578 0.0
O762 O 0.52983 0.65882 0.64343 0.0
C763 C 0.47881 0.63826 0.63705 0.0
N764 N 0.48601 0.62454 0.62394 0.0
C765 C 0.44708 0.59444 0.6152 0.0
C766 C 0.43923 0.6082 0.62878 0.0
C767 C 0.45517 0.63023 0.63965 0.0
C768 C 0.47083 0.60341 0.61313 0.0
H769 H 0.49104 0.65521 0.64542 0.0
C770 C 0.54496 0.68007 0.64113 0.0
O771 O 0.56729 0.70731 0.55293 0.0
O772 O 0.53084 0.695 0.56362 0.0
N773 N 0.5029 0.6017 0.59671 0.0
C774 C 0.51331 0.59071 0.58393 0.0
C775 C 0.49979 0.56839 0.57217 0.0
C776 C 0.47575 0.5575 0.57396 0.0
C777 C 0.46542 0.56907 0.58743 0.0
C778 C 0.47978 0.59119 0.59908 0.0
H779 H 0.53178 0.59885 0.58282 0.0
O780 O 0.53179 0.65827 0.53319 0.0
O781 O 0.51883 0.64762 0.58051 0.0
O782 O 0.56667 0.66227 0.57632 0.0
O783 O 0.54789 0.63509 0.61255 0.0
C784 C 0.44145 0.55955 0.58968 0.0
C785 C 0.43228 0.57228 0.60338 0.0
H786 H 0.42101 0.60207 0.63083 0.0
H787 H 0.44924 0.64099 0.65005 0.0
H788 H 0.50788 0.55956 0.56186 0.0
H789 H 0.4654 0.54026 0.56497 0.0
H790 H 0.4299 0.54254 0.58067 0.0
H791 H 0.41382 0.56489 0.60465 0.0
Mn792 Mn 0.87418 0.54117 0.07582 0.0
Mn793 Mn 0.89163 0.51217 0.12176 0.0
C794 C 0.87953 0.51234 0.05492 0.0
C795 C 0.84368 0.54495 0.05611 0.0
C796 C 0.92321 0.56091 0.09916 0.0
O797 O 0.86917 0.54932 0.11987 0.0
O798 O 0.87587 0.52461 0.14718 0.0
C799 C 0.84631 0.47358 0.14014 0.0
N800 N 0.86736 0.48128 0.1272 0.0
C801 C 0.85944 0.44269 0.11811 0.0
C802 C 0.83771 0.43433 0.1315 0.0
C803 C 0.83109 0.44985 0.14247 0.0
C804 C 0.87381 0.46651 0.1163 0.0
H805 H 0.84118 0.48547 0.14858 0.0
C806 C 0.86943 0.53952 0.14509 0.0
O807 O 0.8645 0.5623 0.05701 0.0
O808 O 0.84064 0.52572 0.06717 0.0
N809 N 0.90725 0.49909 0.10028 0.0
C810 C 0.92866 0.50996 0.0876 0.0
C811 C 0.93794 0.49691 0.0757 0.0
C812 C 0.92523 0.47285 0.07726 0.0
C813 C 0.90331 0.46204 0.09063 0.0
C814 C 0.89506 0.47595 0.10241 0.0
H815 H 0.93865 0.52845 0.08666 0.0
O816 O 0.87878 0.52742 0.03702 0.0
O817 O 0.87653 0.51425 0.0842 0.0
O818 O 0.90912 0.56224 0.08054 0.0
O819 O 0.91787 0.54366 0.11672 0.0
C820 C 0.88929 0.43801 0.09263 0.0
C821 C 0.86731 0.42835 0.10619 0.0
H822 H 0.82592 0.41604 0.13334 0.0
H823 H 0.81431 0.44353 0.15272 0.0
H824 H 0.95489 0.50538 0.06546 0.0
H825 H 0.9325 0.46287 0.06815 0.0
H826 H 0.89514 0.42681 0.08354 0.0
H827 H 0.85657 0.40985 0.10726 0.0
Mn828 Mn 0.34242 0.86929 0.57829 0.0
Mn829 Mn 0.38987 0.88363 0.62077 0.0
C830 C 0.37553 0.87429 0.5542 0.0
C831 C 0.30723 0.8398 0.55926 0.0
C832 C 0.37375 0.91731 0.60365 0.0
O833 O 0.33067 0.86339 0.62304 0.0
O834 O 0.36225 0.86734 0.64714 0.0
C835 C 0.38214 0.83708 0.63369 0.0
N836 N 0.39576 0.85866 0.6225 0.0
C837 C 0.4258 0.85042 0.61017 0.0
C838 C 0.41219 0.82817 0.62188 0.0
C839 C 0.39021 0.82144 0.63354 0.0
C840 C 0.41677 0.86519 0.61076 0.0
H841 H 0.36522 0.83184 0.64255 0.0
C842 C 0.34107 0.86183 0.64692 0.0
O843 O 0.31113 0.86071 0.56178 0.0
O844 O 0.3235 0.83614 0.56827 0.0
N845 N 0.41813 0.89951 0.59836 0.0
C846 C 0.42888 0.9214 0.58729 0.0
C847 C 0.45107 0.93083 0.5749 0.0
C848 C 0.46209 0.91777 0.57435 0.0
C849 C 0.45075 0.89533 0.58599 0.0
C850 C 0.42875 0.88694 0.59837 0.0
H851 H 0.4207 0.93169 0.58806 0.0
O852 O 0.35941 0.87458 0.53803 0.0
O853 O 0.37147 0.87045 0.58355 0.0
O854 O 0.35737 0.90413 0.58543 0.0
O855 O 0.38551 0.9106 0.61928 0.0
C856 C 0.46038 0.88092 0.58572 0.0
C857 C 0.44785 0.85842 0.59759 0.0
H858 H 0.41836 0.81606 0.62182 0.0
H859 H 0.37954 0.80425 0.64242 0.0
H860 H 0.45973 0.94817 0.56598 0.0
H861 H 0.47927 0.92519 0.565 0.0
H862 H 0.47731 0.88689 0.5761 0.0
H863 H 0.4553 0.8474 0.59685 0.0
H864 H 0.31431 0.44267 0.17516 0.0
H865 H 0.35135 0.5157 0.19194 0.0
H866 H 0.30279 0.43607 0.22985 0.0
H867 H 0.34015 0.50931 0.24587 0.0
H868 H 0.32055 0.49873 0.34123 0.0
H869 H 0.31147 0.49623 0.28598 0.0
H870 H 0.32627 0.44098 0.27625 0.0
H871 H 0.33463 0.4432 0.3316 0.0
C872 C 0.31934 0.45729 0.19027 0.0
C873 C 0.33387 0.47969 0.17943 0.0
C874 C 0.31291 0.45353 0.22159 0.0
C875 C 0.32062 0.47214 0.24235 0.0
C876 C 0.33359 0.49455 0.23065 0.0
C877 C 0.34021 0.49825 0.19968 0.0
C878 C 0.32069 0.48533 0.32745 0.0
C879 C 0.32801 0.47099 0.34048 0.0
C880 C 0.31576 0.48403 0.29579 0.0
C881 C 0.31853 0.46867 0.27654 0.0
C882 C 0.32374 0.45286 0.29033 0.0
C883 C 0.32853 0.45409 0.32205 0.0
H884 H 0.90073 0.3324 0.68712 0.0
H885 H 0.83031 0.31556 0.67619 0.0
H886 H 0.89442 0.3238 0.74229 0.0
H887 H 0.82355 0.30624 0.73136 0.0
H888 H 0.84175 0.34504 0.82657 0.0
H889 H 0.83738 0.33404 0.77252 0.0
H890 H 0.87652 0.29989 0.78795 0.0
H891 H 0.88099 0.31126 0.84275 0.0
C892 C 0.88357 0.32569 0.69636 0.0
C893 C 0.86593 0.32439 0.67757 0.0
C894 C 0.8799 0.32074 0.72799 0.0
C895 C 0.85853 0.31459 0.74144 0.0
C896 C 0.84029 0.31122 0.72185 0.0
C897 C 0.84403 0.31629 0.69023 0.0
C898 C 0.84882 0.33457 0.81868 0.0
C899 C 0.86184 0.32915 0.83879 0.0
C900 C 0.84619 0.32808 0.78762 0.0
C901 C 0.85673 0.31618 0.77568 0.0
C902 C 0.86833 0.30921 0.79636 0.0
C903 C 0.87074 0.31553 0.82776 0.0
H904 H 0.50271 0.83947 0.31891 0.0
H905 H 0.57577 0.87648 0.33587 0.0
H906 H 0.50926 0.83408 0.26529 0.0
H907 H 0.58255 0.871 0.28142 0.0
H908 H 0.57472 0.8946 0.17935 0.0
H909 H 0.57732 0.88889 0.23469 0.0
H910 H 0.52266 0.81849 0.22562 0.0
H911 H 0.51974 0.82467 0.17037 0.0
C912 C 0.52022 0.84588 0.3113 0.0
C913 C 0.53873 0.85858 0.33146 0.0
C914 C 0.52401 0.84263 0.2805 0.0
C915 C 0.54647 0.85219 0.26888 0.0
C916 C 0.56505 0.86354 0.28962 0.0
C917 C 0.56119 0.86655 0.32079 0.0
C918 C 0.56406 0.87764 0.18903 0.0
C919 C 0.54715 0.86001 0.17082 0.0
C920 C 0.56551 0.87432 0.22075 0.0
C921 C 0.54994 0.85332 0.23473 0.0
C922 C 0.53467 0.83497 0.21566 0.0
C923 C 0.53312 0.83838 0.184 0.0
H924 H 0.66712 0.49631 0.8191 0.0
H925 H 0.70435 0.56931 0.83606 0.0
H926 H 0.6785 0.50272 0.76525 0.0
H927 H 0.71606 0.57595 0.78143 0.0
H928 H 0.68456 0.56916 0.6796 0.0
H929 H 0.69276 0.57123 0.73498 0.0
H930 H 0.70719 0.51572 0.72521 0.0
H931 H 0.69826 0.51339 0.66992 0.0
C932 C 0.67835 0.51376 0.81143 0.0
C933 C 0.68468 0.53231 0.83169 0.0
C934 C 0.68507 0.51747 0.7805 0.0
C935 C 0.69814 0.53989 0.76885 0.0
C936 C 0.70587 0.55848 0.78965 0.0
C937 C 0.69933 0.5547 0.82093 0.0
C938 C 0.69054 0.55817 0.68916 0.0
C939 C 0.69099 0.54125 0.6707 0.0
C940 C 0.69524 0.55932 0.72089 0.0
C941 C 0.70031 0.5434 0.73468 0.0
C942 C 0.70301 0.52801 0.71541 0.0
C943 C 0.69816 0.5268 0.68373 0.0
H944 H 0.14011 0.70272 0.33985 0.0
H945 H 0.17809 0.66781 0.32214 0.0
H946 H 0.14466 0.71465 0.28536 0.0
H947 H 0.18257 0.67943 0.2684 0.0
H948 H 0.18998 0.6988 0.17305 0.0
H949 H 0.19696 0.70815 0.22821 0.0
H950 H 0.12618 0.69077 0.23929 0.0
H951 H 0.11963 0.68212 0.18406 0.0
C952 C 0.15009 0.69829 0.32459 0.0
C953 C 0.15858 0.68418 0.33506 0.0
C954 C 0.15256 0.70496 0.29339 0.0
C955 C 0.16386 0.69789 0.27241 0.0
C956 C 0.17402 0.68548 0.28381 0.0
C957 C 0.1713 0.67862 0.31466 0.0
C958 C 0.17632 0.69812 0.18712 0.0
C959 C 0.15436 0.68999 0.17454 0.0
C960 C 0.18019 0.70324 0.21871 0.0
C961 C 0.16203 0.69985 0.2383 0.0
C962 C 0.14062 0.6938 0.22493 0.0
C963 C 0.13682 0.68882 0.19329 0.0
H964 H 0.5161 0.17437 0.82773 0.0
H965 H 0.44312 0.13628 0.84453 0.0
H966 H 0.50922 0.17811 0.77356 0.0
H967 H 0.436 0.14012 0.78964 0.0
H968 H 0.44333 0.11423 0.68927 0.0
H969 H 0.44145 0.12132 0.74433 0.0
H970 H 0.49522 0.19176 0.73222 0.0
H971 H 0.49737 0.18423 0.67721 0.0
C972 C 0.49853 0.16743 0.81994 0.0
C973 C 0.48015 0.1549 0.84027 0.0
C974 C 0.49454 0.1697 0.78882 0.0
C975 C 0.47202 0.15927 0.77706 0.0
C976 C 0.45355 0.14819 0.79791 0.0
C977 C 0.4576 0.14615 0.82936 0.0
C978 C 0.45397 0.13146 0.69823 0.0
C979 C 0.47033 0.14876 0.67918 0.0
C980 C 0.45292 0.13558 0.72979 0.0
C981 C 0.4684 0.15705 0.74286 0.0
C982 C 0.48327 0.17495 0.72299 0.0
C983 C 0.48437 0.17076 0.69146 0.0
H984 H 0.52436 0.70109 0.66895 0.0
H985 H 0.57895 0.6857 0.67982 0.0
H986 H 0.52628 0.70976 0.72428 0.0
H987 H 0.5806 0.69367 0.7352 0.0
H988 H 0.57762 0.70432 0.83622 0.0
H989 H 0.58521 0.7167 0.7819 0.0
H990 H 0.51217 0.68059 0.76382 0.0
H991 H 0.50482 0.66853 0.8174 0.0
C992 C 0.53748 0.70062 0.68301 0.0
C993 C 0.55169 0.69303 0.6703 0.0
C994 C 0.53844 0.70531 0.71473 0.0
C995 C 0.55332 0.70202 0.73432 0.0
C996 C 0.56908 0.6966 0.72087 0.0
C997 C 0.56819 0.69204 0.68912 0.0
C998 C 0.56327 0.69977 0.82075 0.0
C999 C 0.54065 0.68532 0.83088 0.0
C1000 C 0.56758 0.7067 0.78964 0.0
C1001 C 0.54932 0.69955 0.76839 0.0
C1002 C 0.52669 0.68671 0.77943 0.0
C1003 C 0.52244 0.6796 0.8102 0.0
H1004 H 0.8779 0.5716 0.34065 0.0
H1005 H 0.84436 0.49893 0.32167 0.0
H1006 H 0.87237 0.5787 0.28635 0.0
H1007 H 0.83895 0.50581 0.26814 0.0
H1008 H 0.82825 0.517 0.17376 0.0
H1009 H 0.82196 0.51841 0.22929 0.0
H1010 H 0.89107 0.57557 0.23893 0.0
H1011 H 0.89688 0.57442 0.18329 0.0
C1012 C 0.86873 0.55713 0.32515 0.0
C1013 C 0.86172 0.53473 0.33527 0.0
C1014 C 0.8657 0.56118 0.29404 0.0
C1015 C 0.85529 0.54285 0.27277 0.0
C1016 C 0.84675 0.52036 0.28376 0.0
C1017 C 0.85002 0.51639 0.31451 0.0
C1018 C 0.84159 0.53059 0.18759 0.0
C1019 C 0.86292 0.54578 0.1744 0.0
C1020 C 0.83814 0.53126 0.21943 0.0
C1021 C 0.85616 0.54682 0.23871 0.0
C1022 C 0.87674 0.56348 0.22485 0.0
C1023 C 0.8801 0.56289 0.19294 0.0
H1024 H 0.31113 0.87373 0.67247 0.0
H1025 H 0.3449 0.83457 0.6895 0.0
H1026 H 0.30003 0.8699 0.72725 0.0
H1027 H 0.33412 0.83081 0.74355 0.0
H1028 H 0.3168 0.82538 0.83973 0.0
H1029 H 0.30643 0.8177 0.7849 0.0
H1030 H 0.32489 0.88862 0.77227 0.0
H1031 H 0.33455 0.89587 0.82717 0.0
C1032 C 0.31544 0.86362 0.68766 0.0
C1033 C 0.32903 0.85461 0.67691 0.0
C1034 C 0.30926 0.86157 0.71902 0.0
C1035 C 0.31633 0.85021 0.73991 0.0
C1036 C 0.32811 0.83945 0.72825 0.0
C1037 C 0.33447 0.84174 0.6972 0.0
C1038 C 0.31754 0.83895 0.8254 0.0
C1039 C 0.32623 0.86112 0.83743 0.0
C1040 C 0.31183 0.83466 0.794 0.0
C1041 C 0.31517 0.85263 0.77404 0.0
C1042 C 0.32187 0.87432 0.78692 0.0
C1043 C 0.32744 0.87853 0.81836 0.0
H1044 H 0.4952 0.31166 0.34094 0.0
H1045 H 0.4406 0.3271 0.33069 0.0
H1046 H 0.49277 0.30261 0.28568 0.0
H1047 H 0.43846 0.31878 0.27538 0.0
H1048 H 0.44064 0.30781 0.17442 0.0
H1049 H 0.43344 0.29556 0.22882 0.0
H1050 H 0.50662 0.33148 0.24585 0.0
H1051 H 0.51357 0.3434 0.19221 0.0
C1052 C 0.48198 0.31208 0.32703 0.0
C1053 C 0.46791 0.31979 0.33988 0.0
C1054 C 0.48073 0.30717 0.29537 0.0
C1055 C 0.4657 0.31036 0.27595 0.0
C1056 C 0.45008 0.31592 0.28957 0.0
C1057 C 0.45126 0.32068 0.32129 0.0
C1058 C 0.4551 0.31233 0.18968 0.0
C1059 C 0.47765 0.32669 0.17925 0.0
C1060 C 0.451 0.30548 0.22083 0.0
C1061 C 0.46943 0.31263 0.24182 0.0
C1062 C 0.49197 0.32536 0.23045 0.0
C1063 C 0.496 0.33238 0.19965 0.0
H1064 H 0.14148 0.44039 0.67711 0.0
H1065 H 0.1793 0.51343 0.69358 0.0
H1066 H 0.14621 0.43364 0.73185 0.0
H1067 H 0.18396 0.50693 0.74754 0.0
H1068 H 0.12154 0.44207 0.83278 0.0
H1069 H 0.12791 0.43935 0.77769 0.0
H1070 H 0.19855 0.49326 0.78821 0.0
H1071 H 0.19173 0.49629 0.8432 0.0
C1072 C 0.15146 0.45496 0.69216 0.0
C1073 C 0.15986 0.47742 0.68126 0.0
C1074 C 0.15403 0.45112 0.7235 0.0
C1075 C 0.16534 0.46972 0.7442 0.0
C1076 C 0.1754 0.49215 0.73238 0.0
C1077 C 0.17258 0.49593 0.70139 0.0
C1078 C 0.13867 0.45255 0.82348 0.0
C1079 C 0.1562 0.46926 0.84201 0.0
C1080 C 0.14238 0.45102 0.79191 0.0
C1081 C 0.16367 0.46634 0.77838 0.0
C1082 C 0.18186 0.48144 0.79781 0.0
C1083 C 0.17807 0.48306 0.82932 0.0
H1084 H 0.67013 0.17468 0.32594 0.0
H1085 H 0.70692 0.13864 0.34425 0.0
H1086 H 0.68149 0.1789 0.27203 0.0
H1087 H 0.71853 0.14289 0.28965 0.0
H1088 H 0.70146 0.18638 0.17637 0.0
H1089 H 0.71029 0.19371 0.23164 0.0
H1090 H 0.69461 0.12358 0.2437 0.0
H1091 H 0.68635 0.11664 0.18842 0.0
C1092 C 0.68131 0.16829 0.31856 0.0
C1093 C 0.68752 0.15622 0.33923 0.0
C1094 C 0.68798 0.17083 0.2876 0.0
C1095 C 0.70084 0.16111 0.27635 0.0
C1096 C 0.7085 0.15044 0.29755 0.0
C1097 C 0.70203 0.14817 0.32883 0.0
C1098 C 0.70108 0.17296 0.19067 0.0
C1099 C 0.69356 0.15107 0.17829 0.0
C1100 C 0.70586 0.17703 0.22235 0.0
C1101 C 0.70283 0.15914 0.24223 0.0
C1102 C 0.69737 0.13783 0.22913 0.0
C1103 C 0.69265 0.13381 0.19743 0.0
H1104 H 0.21882 0.50066 0.95971 0.0
H1105 H 0.17132 0.43241 0.99256 0.0
H1106 H 0.25029 0.49908 0.9847 0.0
H1107 H 0.20321 0.43098 0.0184 0.0
H1108 H 0.27394 0.43289 0.03484 0.0
H1109 H 0.23991 0.43049 0.00994 0.0
H1110 H 0.26279 0.50042 0.03741 0.0
H1111 H 0.2966 0.50293 0.06146 0.0
C1112 C 0.21505 0.48525 0.97232 0.0
C1113 C 0.19246 0.46674 0.97435 0.0
C1114 C 0.23316 0.48441 0.98686 0.0
C1115 C 0.22929 0.46508 1.00409 0.0
C1116 C 0.2068 0.44614 1.00532 0.0
C1117 C 0.18853 0.44698 0.9906 0.0
C1118 C 0.27154 0.44765 0.0357 0.0
C1119 C 0.28813 0.46818 0.04984 0.0
C1120 C 0.25202 0.44625 0.02153 0.0
C1121 C 0.24877 0.46538 0.02121 0.0
C1122 C 0.26497 0.48552 0.03649 0.0
C1123 C 0.28436 0.48692 0.05049 0.0
H1124 H 0.75247 0.17731 0.46115 0.0
H1125 H 0.71172 0.20749 0.48858 0.0
H1126 H 0.78651 0.20973 0.48439 0.0
H1127 H 0.74483 0.23877 0.51356 0.0
H1128 H 0.80984 0.30434 0.5297 0.0
H1129 H 0.77796 0.27192 0.50444 0.0
H1130 H 0.80706 0.22928 0.52838 0.0
H1131 H 0.84005 0.26265 0.55188 0.0
C1132 C 0.75077 0.19077 0.47243 0.0
C1133 C 0.72951 0.19003 0.47267 0.0
C1134 C 0.77025 0.20932 0.486 0.0
C1135 C 0.76876 0.22729 0.50069 0.0
C1136 C 0.74714 0.22591 0.50164 0.0
C1137 C 0.72796 0.20777 0.48749 0.0
C1138 C 0.80945 0.28804 0.52957 0.0
C1139 C 0.82736 0.28601 0.54301 0.0
C1140 C 0.79097 0.26925 0.51525 0.0
C1141 C 0.78942 0.24757 0.51469 0.0
C1142 C 0.80757 0.24562 0.52796 0.0
C1143 C 0.82646 0.2647 0.54168 0.0
H1144 H 0.58392 0.84439 0.02069 0.0
H1145 H 0.51513 0.79688 0.05179 0.0
H1146 H 0.5854 0.81277 0.99436 0.0
H1147 H 0.51675 0.76561 0.02628 0.0
H1148 H 0.51401 0.72003 0.94894 0.0
H1149 H 0.51604 0.75343 0.97362 0.0
H1150 H 0.58576 0.77626 1.00239 0.0
H1151 H 0.58386 0.74273 0.9769 0.0
C1152 C 0.56924 0.82722 0.02216 0.0
C1153 C 0.54934 0.82322 0.03809 0.0
C1154 C 0.5701 0.8091 0.00716 0.0
C1155 C 0.55105 0.78668 0.00777 0.0
C1156 C 0.53153 0.78271 0.02462 0.0
C1157 C 0.53066 0.80069 0.03947 0.0
C1158 C 0.52986 0.73219 0.96033 0.0
C1159 C 0.54871 0.72858 0.96114 0.0
C1160 C 0.53098 0.75132 0.9747 0.0
C1161 C 0.55093 0.76739 0.99048 0.0
C1162 C 0.57014 0.76426 0.99039 0.0
C1163 C 0.56903 0.74502 0.97588 0.0
H1164 H 0.72257 0.5091 0.55251 0.0
H1165 H 0.74456 0.57804 0.52146 0.0
H1166 H 0.75575 0.51064 0.52802 0.0
H1167 H 0.77787 0.57943 0.49609 0.0
H1168 H 0.84647 0.57836 0.48027 0.0
H1169 H 0.81442 0.57994 0.50485 0.0
H1170 H 0.76837 0.50997 0.47639 0.0
H1171 H 0.8002 0.50825 0.45269 0.0
C1172 C 0.7345 0.52463 0.54039 0.0
C1173 C 0.73079 0.54339 0.53878 0.0
C1174 C 0.75351 0.52546 0.52612 0.0
C1175 C 0.76936 0.54502 0.5096 0.0
C1176 C 0.76605 0.56411 0.50868 0.0
C1177 C 0.74694 0.5633 0.52313 0.0
C1178 C 0.82945 0.56339 0.47914 0.0
C1179 C 0.82594 0.54311 0.46476 0.0
C1180 C 0.81107 0.56432 0.49313 0.0
C1181 C 0.78883 0.54497 0.49302 0.0
C1182 C 0.78532 0.52502 0.47764 0.0
C1183 C 0.8036 0.52408 0.46382 0.0
H1184 H 0.27304 0.84643 0.98582 0.0
H1185 H 0.29425 0.79871 0.95523 0.0
H1186 H 0.23936 0.81475 0.01108 0.0
H1187 H 0.26086 0.76744 0.97971 0.0
H1188 H 0.21793 0.72248 0.05714 0.0
H1189 H 0.24934 0.75592 0.03289 0.0
H1190 H 0.20223 0.77772 1.00155 0.0
H1191 H 0.17043 0.74403 0.02657 0.0
C1192 C 0.27042 0.82921 0.98423 0.0
C1193 C 0.28648 0.82515 0.96881 0.0
C1194 C 0.25111 0.81108 0.9986 0.0
C1195 C 0.2476 0.78861 0.99784 0.0
C1196 C 0.26328 0.78458 0.98142 0.0
C1197 C 0.28243 0.80256 0.9672 0.0
C1198 C 0.21416 0.73439 0.04523 0.0
C1199 C 0.19159 0.73042 0.04355 0.0
C1200 C 0.23222 0.75356 0.03115 0.0
C1201 C 0.22828 0.76933 0.0148 0.0
C1202 C 0.20583 0.7659 0.01399 0.0
C1203 C 0.18763 0.74658 0.02822 0.0
H1204 H 0.43355 0.16599 0.53129 0.0
H1205 H 0.50344 0.21263 0.55964 0.0
H1206 H 0.43206 0.19773 0.50568 0.0
H1207 H 0.50181 0.24417 0.53482 0.0
H1208 H 0.50251 0.28965 0.45805 0.0
H1209 H 0.50126 0.25667 0.48287 0.0
H1210 H 0.43224 0.23405 0.51439 0.0
H1211 H 0.43334 0.2671 0.48878 0.0
C1212 C 0.4485 0.18302 0.53232 0.0
C1213 C 0.46867 0.18673 0.54732 0.0
C1214 C 0.44762 0.20122 0.51774 0.0
C1215 C 0.46691 0.22349 0.51783 0.0
C1216 C 0.4868 0.22719 0.53363 0.0
C1217 C 0.48768 0.20909 0.54809 0.0
C1218 C 0.48699 0.27762 0.47013 0.0
C1219 C 0.46807 0.28112 0.47157 0.0
C1220 C 0.48633 0.25874 0.48458 0.0
C1221 C 0.46677 0.24282 0.50105 0.0
C1222 C 0.44755 0.24592 0.50181 0.0
C1223 C 0.44821 0.2649 0.48723 0.0
H1224 H 0.84487 0.581 0.0243 0.0
H1225 H 0.79851 0.51205 0.05578 0.0
H1226 H 0.81292 0.58159 0.9977 0.0
H1227 H 0.76676 0.51279 0.03003 0.0
H1228 H 0.74301 0.57908 0.97798 0.0
H1229 H 0.77644 0.58147 1.00453 0.0
H1230 H 0.75412 0.5115 0.97778 0.0
H1231 H 0.72081 0.509 0.95211 0.0
C1232 C 0.82785 0.56608 0.02583 0.0
C1233 C 0.82429 0.54641 0.04195 0.0
C1234 C 0.80952 0.56644 0.01067 0.0
C1235 C 0.78728 0.54712 0.01131 0.0
C1236 C 0.78372 0.52779 0.02835 0.0
C1237 C 0.80195 0.52742 0.04335 0.0
C1238 C 0.74539 0.5643 0.97764 0.0
C1239 C 0.72913 0.54379 0.96314 0.0
C1240 C 0.76457 0.56568 0.99279 0.0
C1241 C 0.76783 0.54656 0.99374 0.0
C1242 C 0.75192 0.52639 0.97825 0.0
C1243 C 0.73284 0.52501 0.96328 0.0
H1244 H 0.21858 0.7196 0.45324 0.0
H1245 H 0.17067 0.74074 0.48311 0.0
H1246 H 0.24962 0.7526 0.47901 0.0
H1247 H 0.20204 0.77393 0.50975 0.0
H1248 H 0.27215 0.84221 0.52944 0.0
H1249 H 0.23889 0.81091 0.50286 0.0
H1250 H 0.26082 0.76348 0.53215 0.0
H1251 H 0.2939 0.79448 0.55788 0.0
C1252 C 0.21465 0.73134 0.4653 0.0
C1253 C 0.19206 0.72738 0.46633 0.0
C1254 C 0.23249 0.75024 0.4803 0.0
C1255 C 0.22831 0.76573 0.497 0.0
C1256 C 0.20586 0.76234 0.49709 0.0
C1257 C 0.18789 0.74331 0.4819 0.0
C1258 C 0.2697 0.82504 0.53034 0.0
C1259 C 0.28582 0.8209 0.54551 0.0
C1260 C 0.25063 0.80711 0.51519 0.0
C1261 C 0.24737 0.78473 0.5149 0.0
C1262 C 0.26306 0.78058 0.53117 0.0
C1263 C 0.28201 0.79838 0.54614 0.0
H1264 H 0.50705 0.21692 0.95922 0.0
H1265 H 0.43714 0.16982 0.98643 0.0
H1266 H 0.50504 0.24824 0.98418 0.0
H1267 H 0.43526 0.20128 0.01227 0.0
H1268 H 0.43599 0.27016 0.03113 0.0
H1269 H 0.4351 0.23737 1.00491 0.0
H1270 H 0.5044 0.26048 0.036 0.0
H1271 H 0.50545 0.29321 0.06134 0.0
C1272 C 0.4912 0.21323 0.97053 0.0
C1273 C 0.47231 0.19081 0.97098 0.0
C1274 C 0.4901 0.23121 0.98509 0.0
C1275 C 0.47011 0.22729 1.00073 0.0
C1276 C 0.4509 0.20496 1.00037 0.0
C1277 C 0.452 0.18691 0.98565 0.0
C1278 C 0.45095 0.26809 0.03249 0.0
C1279 C 0.47085 0.2844 0.04813 0.0
C1280 C 0.45043 0.24928 0.01753 0.0
C1281 C 0.4698 0.24642 0.01792 0.0
C1282 C 0.48936 0.26238 0.03449 0.0
C1283 C 0.4899 0.28112 0.04928 0.0
H1284 H 0.22074 0.5029 0.56332 0.0
H1285 H 0.17373 0.4332 0.53476 0.0
H1286 H 0.25213 0.50118 0.5383 0.0
H1287 H 0.20541 0.43162 0.5089 0.0
H1288 H 0.29666 0.50282 0.46006 0.0
H1289 H 0.26364 0.50091 0.48563 0.0
H1290 H 0.24234 0.43209 0.51657 0.0
H1291 H 0.27551 0.43387 0.49017 0.0
C1292 C 0.21708 0.48714 0.55171 0.0
C1293 C 0.19465 0.46825 0.55084 0.0
C1294 C 0.23511 0.48621 0.53714 0.0
C1295 C 0.23128 0.4664 0.52108 0.0
C1296 C 0.20898 0.44713 0.52111 0.0
C1297 C 0.19083 0.44805 0.53585 0.0
C1298 C 0.28494 0.4872 0.47217 0.0
C1299 C 0.28886 0.46856 0.47325 0.0
C1300 C 0.26602 0.48615 0.48705 0.0
C1301 C 0.25049 0.46648 0.50365 0.0
C1302 C 0.25394 0.44749 0.50396 0.0
C1303 C 0.27297 0.44853 0.48892 0.0
H1304 H 0.84676 0.27192 0.98492 0.0
H1305 H 0.79976 0.29504 0.95814 0.0
H1306 H 0.81529 0.23859 0.01056 0.0
H1307 H 0.76841 0.26171 0.98296 0.0
H1308 H 0.72335 0.21629 0.0597 0.0
H1309 H 0.75591 0.24822 0.03448 0.0
H1310 H 0.77933 0.20252 1.00261 0.0
H1311 H 0.74679 0.17044 0.02866 0.0
C1312 C 0.82969 0.26976 0.9842 0.0
C1313 C 0.82582 0.28624 0.96965 0.0
C1314 C 0.81163 0.25062 0.99882 0.0
C1315 C 0.78931 0.24755 0.9992 0.0
C1316 C 0.78543 0.26373 0.9838 0.0
C1317 C 0.80342 0.28281 0.96932 0.0
C1318 C 0.73548 0.21301 0.04747 0.0
C1319 C 0.73238 0.19076 0.0461 0.0
C1320 C 0.7541 0.23134 0.03276 0.0
C1321 C 0.77015 0.22797 0.01608 0.0
C1322 C 0.76739 0.20579 0.01535 0.0
C1323 C 0.7487 0.18738 0.0302 0.0
H1324 H 0.51459 0.7987 0.45046 0.0
H1325 H 0.5845 0.84656 0.47736 0.0
H1326 H 0.51714 0.76775 0.47541 0.0
H1327 H 0.58694 0.81533 0.50313 0.0
H1328 H 0.58627 0.74596 0.52085 0.0
H1329 H 0.58704 0.77881 0.49502 0.0
H1330 H 0.51836 0.75633 0.52784 0.0
H1331 H 0.51743 0.72359 0.55288 0.0
C1332 C 0.53057 0.80264 0.4617 0.0
C1333 C 0.54929 0.82518 0.46209 0.0
C1334 C 0.53198 0.78487 0.47623 0.0
C1335 C 0.55211 0.78906 0.49178 0.0
C1336 C 0.57118 0.81148 0.49133 0.0
C1337 C 0.56978 0.82938 0.47664 0.0
C1338 C 0.57142 0.74817 0.52265 0.0
C1339 C 0.55171 0.73202 0.53869 0.0
C1340 C 0.57189 0.76703 0.50794 0.0
C1341 C 0.55264 0.77007 0.50895 0.0
C1342 C 0.5333 0.75428 0.52591 0.0
C1343 C 0.53282 0.73553 0.54048 0.0
H1344 H 0.41062 0.46151 0.14224 0.0
H1345 H 0.36097 0.41972 0.07249 0.0
H1346 H 0.42572 0.43572 0.14279 0.0
H1347 H 0.37581 0.39305 0.07388 0.0
H1348 H 0.43276 0.37252 0.05722 0.0
H1349 H 0.40925 0.39093 0.05856 0.0
H1350 H 0.41917 0.39953 0.15765 0.0
H1351 H 0.4435 0.38229 0.15585 0.0
C1352 C 0.40258 0.44656 0.12732 0.0
C1353 C 0.38453 0.44285 0.10723 0.0
C1354 C 0.41118 0.43153 0.12786 0.0
C1355 C 0.40194 0.41207 0.10856 0.0
C1356 C 0.38348 0.40793 0.08892 0.0
C1357 C 0.37485 0.42314 0.08829 0.0
C1358 C 0.42943 0.3779 0.07933 0.0
C1359 C 0.44013 0.37622 0.10639 0.0
C1360 C 0.41593 0.38845 0.08014 0.0
C1361 C 0.41266 0.39722 0.10813 0.0
C1362 C 0.42186 0.39368 0.13551 0.0
C1363 C 0.43565 0.3836 0.13458 0.0
H1364 H 0.0731 0.41927 0.57091 0.0
H1365 H 0.06483 0.45759 0.64527 0.0
H1366 H 0.03156 0.39258 0.571 0.0
H1367 H 0.02391 0.43179 0.64464 0.0
H1368 H 0.95259 0.37817 0.65431 0.0
H1369 H 0.9941 0.3948 0.65652 0.0
H1370 H 0.99624 0.39167 0.55666 0.0
H1371 H 0.95432 0.37382 0.55481 0.0
C1372 C 0.06254 0.42189 0.58747 0.0
C1373 C 0.07243 0.44066 0.60806 0.0
C1374 C 0.03869 0.40669 0.58736 0.0
C1375 C 0.02426 0.40989 0.6079 0.0
C1376 C 0.03435 0.42834 0.6289 0.0
C1377 C 0.05799 0.44338 0.62907 0.0
C1378 C 0.96191 0.3805 0.63291 0.0
C1379 C 0.95033 0.37485 0.6044 0.0
C1380 C 0.98574 0.39024 0.6341 0.0
C1381 C 0.9987 0.39518 0.60672 0.0
C1382 C 0.98689 0.38807 0.57823 0.0
C1383 C 0.96287 0.37785 0.57712 0.0
H1384 H 0.59778 0.94474 0.06199 0.0
H1385 H 0.55863 0.95201 0.13603 0.0
H1386 H 0.62451 0.98632 0.06351 0.0
H1387 H 0.58445 0.99283 0.13683 0.0
H1388 H 0.63873 0.06317 0.15114 0.0
H1389 H 0.62176 0.02163 0.1508 0.0
H1390 H 0.62577 0.0224 0.05087 0.0
H1391 H 0.64394 0.06436 0.05156 0.0
C1392 C 0.59495 0.95508 0.0787 0.0
C1393 C 0.57599 0.94489 0.09888 0.0
C1394 C 0.61018 0.97892 0.07944 0.0
C1395 C 0.60682 0.99301 0.10048 0.0
C1396 C 0.58804 0.98263 0.12081 0.0
C1397 C 0.57298 0.95904 0.12011 0.0
C1398 C 0.63651 0.05449 0.12918 0.0
C1399 C 0.64248 0.06691 0.10139 0.0
C1400 C 0.6266 0.03065 0.1289 0.0
C1401 C 0.62179 0.01852 0.10075 0.0
C1402 C 0.62925 0.03113 0.07299 0.0
C1403 C 0.63964 0.05516 0.07334 0.0
H1404 H 0.65917 0.59329 0.5597 0.0
H1405 H 0.61226 0.55564 0.63394 0.0
H1406 H 0.64503 0.62059 0.5599 0.0
H1407 H 0.59794 0.58206 0.63346 0.0
H1408 H 0.58309 0.63744 0.64514 0.0
H1409 H 0.60702 0.61975 0.64618 0.0
H1410 H 0.61061 0.62233 0.54621 0.0
H1411 H 0.58744 0.64119 0.54549 0.0
C1412 C 0.64605 0.59091 0.57619 0.0
C1413 C 0.63693 0.5722 0.59679 0.0
C1414 C 0.63783 0.60647 0.57617 0.0
C1415 C 0.62044 0.6037 0.59686 0.0
C1416 C 0.6117 0.58519 0.61767 0.0
C1417 C 0.61984 0.56979 0.61772 0.0
C1418 C 0.58949 0.63475 0.62345 0.0
C1419 C 0.58332 0.64052 0.59525 0.0
C1420 C 0.60305 0.62442 0.62397 0.0
C1421 C 0.61029 0.61902 0.59623 0.0
C1422 C 0.60542 0.62627 0.56803 0.0
C1423 C 0.59214 0.63706 0.56757 0.0
H1424 H 0.95078 0.58389 0.04991 0.0
H1425 H 0.95055 0.57879 0.14948 0.0
H1426 H 0.99276 0.60762 0.05057 0.0
H1427 H 0.99211 0.60329 0.15047 0.0
H1428 H 0.06197 0.60985 0.13746 0.0
H1429 H 0.02112 0.59492 0.13719 0.0
H1430 H 0.02863 0.64225 0.06446 0.0
H1431 H 0.07021 0.65703 0.06404 0.0
C1432 C 0.95967 0.58854 0.07198 0.0
C1433 C 0.94752 0.57934 0.09963 0.0
C1434 C 0.98372 0.60214 0.0724 0.0
C1435 C 0.99593 0.60698 0.10054 0.0
C1436 C 0.9834 0.59936 0.1283 0.0
C1437 C 0.95955 0.58547 0.12781 0.0
C1438 C 0.05515 0.61735 0.12147 0.0
C1439 C 0.06957 0.63471 0.10071 0.0
C1440 C 0.03154 0.60886 0.12154 0.0
C1441 C 0.02145 0.61749 0.10104 0.0
C1442 C 0.03581 0.63514 0.0805 0.0
C1443 C 0.05965 0.64371 0.08039 0.0
H1444 H 0.43895 0.06144 0.65472 0.0
H1445 H 0.43194 0.06065 0.55537 0.0
H1446 H 0.41417 0.01994 0.6561 0.0
H1447 H 0.40798 0.01875 0.55635 0.0
H1448 H 0.35858 0.94189 0.56928 0.0
H1449 H 0.37366 0.98344 0.5704 0.0
H1450 H 0.42107 0.99016 0.64286 0.0
H1451 H 0.40572 0.94924 0.64252 0.0
C1452 C 0.43183 0.05232 0.63318 0.0
C1453 C 0.43747 0.06418 0.60494 0.0
C1454 C 0.41778 0.02851 0.63388 0.0
C1455 C 0.40949 0.01582 0.60626 0.0
C1456 C 0.41394 0.02789 0.5781 0.0
C1457 C 0.42769 0.0519 0.57748 0.0
C1458 C 0.37194 0.95225 0.5858 0.0
C1459 C 0.38089 0.94209 0.60578 0.0
C1460 C 0.38071 0.9761 0.58628 0.0
C1461 C 0.39856 0.99027 0.60681 0.0
C1462 C 0.40701 0.97992 0.62718 0.0
C1463 C 0.39828 0.95627 0.62678 0.0
H1464 H 0.57351 0.62885 0.85435 0.0
H1465 H 0.58509 0.63934 0.95278 0.0
H1466 H 0.59793 0.61174 0.85234 0.0
H1467 H 0.60868 0.62102 0.95126 0.0
H1468 H 0.65709 0.59252 0.9371 0.0
H1469 H 0.64204 0.61901 0.93564 0.0
H1470 H 0.59186 0.57579 0.86735 0.0
H1471 H 0.60717 0.55019 0.86794 0.0
C1472 C 0.58153 0.6277 0.87554 0.0
C1473 C 0.57728 0.63526 0.90374 0.0
C1474 C 0.59538 0.61769 0.87448 0.0
C1475 C 0.60488 0.6144 0.90176 0.0
C1476 C 0.60178 0.62332 0.92974 0.0
C1477 C 0.58823 0.63379 0.93067 0.0
C1478 C 0.64311 0.58894 0.92141 0.0
C1479 C 0.63341 0.56914 0.90267 0.0
C1480 C 0.63436 0.60405 0.92074 0.0
C1481 C 0.61575 0.59969 0.90128 0.0
C1482 C 0.6065 0.58015 0.88214 0.0
C1483 C 0.61523 0.56523 0.8827 0.0
H1484 H 0.95093 0.57017 0.35897 0.0
H1485 H 0.95248 0.58113 0.45757 0.0
H1486 H 0.99238 0.59523 0.3566 0.0
H1487 H 0.99432 0.60532 0.45571 0.0
H1488 H 0.06377 0.60564 0.37089 0.0
H1489 H 0.02278 0.5898 0.37073 0.0
H1490 H 0.02931 0.63898 0.44027 0.0
H1491 H 0.07096 0.65453 0.44133 0.0
C1492 C 0.96019 0.57819 0.38012 0.0
C1493 C 0.94855 0.5736 0.40846 0.0
C1494 C 0.984 0.59241 0.37887 0.0
C1495 C 0.99691 0.6019 0.40608 0.0
C1496 C 0.98504 0.59845 0.43423 0.0
C1497 C 0.96104 0.58454 0.43536 0.0
C1498 C 0.05668 0.61338 0.38603 0.0
C1499 C 0.07086 0.6314 0.40622 0.0
C1500 C 0.03298 0.60434 0.38571 0.0
C1501 C 0.02253 0.61314 0.40533 0.0
C1502 C 0.0367 0.63162 0.42501 0.0
C1503 C 0.06061 0.64067 0.42544 0.0
H1504 H 0.43492 0.06491 0.96267 0.0
H1505 H 0.44489 0.06633 0.86389 0.0
H1506 H 0.4104 0.02311 0.96067 0.0
H1507 H 0.4195 0.02496 0.86141 0.0
H1508 H 0.40892 0.95365 0.87463 0.0
H1509 H 0.42512 0.99461 0.87525 0.0
H1510 H 0.3763 0.98817 0.94515 0.0
H1511 H 0.36032 0.94644 0.9454 0.0
C1512 C 0.43123 0.05633 0.94041 0.0
C1513 C 0.44198 0.06876 0.91348 0.0
C1514 C 0.41714 0.03237 0.93921 0.0
C1515 C 0.41332 0.02049 0.91096 0.0
C1516 C 0.42262 0.03335 0.88374 0.0
C1517 C 0.43702 0.05711 0.88506 0.0
C1518 C 0.40135 0.96073 0.89006 0.0
C1519 C 0.38326 0.94654 0.91006 0.0
C1520 C 0.41059 0.98444 0.89017 0.0
C1521 C 0.40196 0.99489 0.91003 0.0
C1522 C 0.3835 0.98075 0.92967 0.0
C1523 C 0.37422 0.95681 0.92966 0.0
H1524 H 0.36058 0.41954 0.4503 0.0
H1525 H 0.40818 0.45805 0.37711 0.0
H1526 H 0.37481 0.39231 0.44987 0.0
H1527 H 0.42257 0.43167 0.37736 0.0
H1528 H 0.43229 0.37158 0.46439 0.0
H1529 H 0.40919 0.39051 0.46383 0.0
H1530 H 0.41345 0.39403 0.36393 0.0
H1531 H 0.43728 0.37622 0.36481 0.0
C1532 C 0.37389 0.42213 0.434 0.0
C1533 C 0.38316 0.44104 0.41373 0.0
C1534 C 0.38214 0.40661 0.43389 0.0
C1535 C 0.39973 0.40963 0.41341 0.0
C1536 C 0.40866 0.42836 0.39297 0.0
C1537 C 0.40047 0.44373 0.39304 0.0
C1538 C 0.42775 0.37594 0.44235 0.0
C1539 C 0.43674 0.3727 0.41467 0.0
C1540 C 0.41452 0.38677 0.44198 0.0
C1541 C 0.40986 0.39429 0.41386 0.0
C1542 C 0.41726 0.38913 0.38608 0.0
C1543 C 0.43076 0.37875 0.38652 0.0
H1544 H 0.07047 0.41865 0.94881 0.0
H1545 H 0.06402 0.4604 0.87783 0.0
H1546 H 0.02867 0.39299 0.94764 0.0
H1547 H 0.02304 0.43575 0.87755 0.0
H1548 H 0.95145 0.3838 0.864 0.0
H1549 H 0.99289 0.39995 0.86281 0.0
H1550 H 0.99337 0.39185 0.96208 0.0
H1551 H 0.95151 0.3744 0.96277 0.0
C1552 C 0.06026 0.4223 0.93285 0.0
C1553 C 0.07078 0.44166 0.91343 0.0
C1554 C 0.03628 0.40768 0.93232 0.0
C1555 C 0.02234 0.4121 0.91232 0.0
C1556 C 0.03304 0.43129 0.89272 0.0
C1557 C 0.05677 0.44569 0.89314 0.0
C1558 C 0.96038 0.38501 0.88545 0.0
C1559 C 0.94831 0.37802 0.91348 0.0
C1560 C 0.98419 0.39447 0.88488 0.0
C1561 C 0.9967 0.39783 0.91248 0.0
C1562 C 0.9844 0.38949 0.94034 0.0
C1563 C 0.9604 0.37952 0.94079 0.0
H1564 H 0.5553 0.95395 0.36946 0.0
H1565 H 0.59741 0.94596 0.4385 0.0
H1566 H 0.58053 0.99491 0.37014 0.0
H1567 H 0.62356 0.98757 0.43831 0.0
H1568 H 0.64293 0.06424 0.45793 0.0
H1569 H 0.62514 0.02244 0.45498 0.0
H1570 H 0.6163 0.0254 0.35621 0.0
H1571 H 0.63284 0.06682 0.35968 0.0
C1572 C 0.57023 0.96086 0.38446 0.0
C1573 C 0.57417 0.94646 0.40402 0.0
C1574 C 0.58494 0.98455 0.38463 0.0
C1575 C 0.60431 0.99476 0.40412 0.0
C1576 C 0.60872 0.98037 0.42317 0.0
C1577 C 0.59381 0.95648 0.4231 0.0
C1578 C 0.63761 0.05591 0.43554 0.0
C1579 C 0.63903 0.06869 0.40908 0.0
C1580 C 0.62743 0.03194 0.43379 0.0
C1581 C 0.61877 0.02036 0.40544 0.0
C1582 C 0.62204 0.03355 0.37863 0.0
C1583 C 0.63174 0.05734 0.3805 0.0
H1584 H 0.46865 0.62884 0.95168 0.0
H1585 H 0.51294 0.60576 0.98961 0.0
H1586 H 0.43532 0.59623 0.97571 0.0
H1587 H 0.47957 0.57265 0.0128 0.0
H1588 H 0.38804 0.54885 0.05489 0.0
H1589 H 0.42047 0.58167 0.02978 0.0
H1590 H 0.44342 0.53667 0.99366 0.0
H1591 H 0.41058 0.50379 0.01829 0.0
C1592 C 0.47114 0.61667 0.96515 0.0
C1593 C 0.49311 0.61932 0.96832 0.0
C1594 C 0.45216 0.59813 0.97901 0.0
C1595 C 0.45483 0.58182 0.99604 0.0
C1596 C 0.47698 0.58486 0.99972 0.0
C1597 C 0.49604 0.60374 0.9865 0.0
C1598 C 0.40002 0.54607 0.04141 0.0
C1599 C 0.39733 0.52406 0.03905 0.0
C1600 C 0.41844 0.56475 0.0269 0.0
C1601 C 0.43458 0.56175 0.00996 0.0
C1602 C 0.43139 0.53952 1.00682 0.0
C1603 C 0.41265 0.52075 0.02081 0.0
H1604 H 0.91615 0.40773 0.52159 0.0
H1605 H 0.8495 0.38497 0.56164 0.0
H1606 H 0.91572 0.44102 0.49913 0.0
H1607 H 0.84862 0.41775 0.5383 0.0
H1608 H 0.9148 0.5101 0.49613 0.0
H1609 H 0.91524 0.47732 0.52048 0.0
H1610 H 0.84809 0.43163 0.48237 0.0
H1611 H 0.84801 0.46432 0.45743 0.0
C1612 C 0.90142 0.40991 0.52544 0.0
C1613 C 0.88316 0.39433 0.54395 0.0
C1614 C 0.90116 0.42888 0.51264 0.0
C1615 C 0.88217 0.432 0.51705 0.0
C1616 C 0.86346 0.41577 0.53452 0.0
C1617 C 0.86401 0.39715 0.54798 0.0
C1618 C 0.90021 0.493 0.49304 0.0
C1619 C 0.88167 0.48948 0.47432 0.0
C1620 C 0.90045 0.47431 0.5069 0.0
C1621 C 0.88175 0.45194 0.50317 0.0
C1622 C 0.86271 0.44867 0.48566 0.0
C1623 C 0.86272 0.46728 0.47126 0.0
H1624 H 0.38566 0.84231 0.95482 0.0
H1625 H 0.41014 0.91006 0.99226 0.0
H1626 H 0.4185 0.84135 0.978 0.0
H1627 H 0.44337 0.90952 0.01472 0.0
H1628 H 0.4681 0.84156 0.05393 0.0
H1629 H 0.43453 0.84121 0.031 0.0
H1630 H 0.47856 0.90924 0.99468 0.0
H1631 H 0.51209 0.90916 0.01683 0.0
C1632 C 0.39819 0.857 0.96796 0.0
C1633 C 0.39591 0.87652 0.97117 0.0
C1634 C 0.41683 0.85641 0.9814 0.0
C1635 C 0.43356 0.87541 0.99807 0.0
C1636 C 0.43084 0.89469 1.00189 0.0
C1637 C 0.41191 0.89504 0.98906 0.0
C1638 C 0.47047 0.85636 0.04093 0.0
C1639 C 0.49241 0.87565 0.03773 0.0
C1640 C 0.45136 0.85611 0.02764 0.0
C1641 C 0.45391 0.87525 0.01114 0.0
C1642 C 0.47604 0.89431 0.00737 0.0
C1643 C 0.49519 0.89431 0.02003 0.0
H1644 H 0.54759 0.38084 0.45404 0.0
H1645 H 0.50434 0.40443 0.49403 0.0
H1646 H 0.58162 0.41406 0.4762 0.0
H1647 H 0.53836 0.43816 0.51512 0.0
H1648 H 0.60781 0.50731 0.51491 0.0
H1649 H 0.57419 0.47374 0.49266 0.0
H1650 H 0.5975 0.42964 0.53093 0.0
H1651 H 0.63072 0.46321 0.5539 0.0
C1652 C 0.54548 0.39328 0.46747 0.0
C1653 C 0.52358 0.39057 0.47182 0.0
C1654 C 0.56485 0.41214 0.48027 0.0
C1655 C 0.56262 0.42871 0.49734 0.0
C1656 C 0.54059 0.42569 0.50208 0.0
C1657 C 0.52117 0.40649 0.48999 0.0
C1658 C 0.60562 0.4904 0.51852 0.0
C1659 C 0.6213 0.4876 0.53676 0.0
C1660 C 0.58646 0.47124 0.50584 0.0
C1661 C 0.5832 0.44909 0.51018 0.0
C1662 C 0.5996 0.4465 0.52719 0.0
C1663 C 0.61845 0.46561 0.54048 0.0
H1664 H 0.10671 0.50475 0.995 0.0
H1665 H 0.17475 0.54848 0.95897 0.0
H1666 H 0.10668 0.53832 0.01695 0.0
H1667 H 0.17513 0.58209 0.98171 0.0
H1668 H 0.17366 0.63093 0.05758 0.0
H1669 H 0.1746 0.59805 0.03463 0.0
H1670 H 0.1068 0.57366 0.99669 0.0
H1671 H 0.1063 0.60696 0.01885 0.0
C1672 C 0.12167 0.5216 0.992 0.0
C1673 C 0.14045 0.52429 0.97464 0.0
C1674 C 0.12169 0.54077 1.00454 0.0
C1675 C 0.14088 0.56285 1.00101 0.0
C1676 C 0.16013 0.56531 0.98487 0.0
C1677 C 0.15987 0.54617 0.97169 0.0
C1678 C 0.15905 0.61851 0.04419 0.0
C1679 C 0.13965 0.62096 0.04054 0.0
C1680 C 0.15964 0.59984 0.0309 0.0
C1681 C 0.14073 0.58323 0.01394 0.0
C1682 C 0.12157 0.58611 0.0097 0.0
C1683 C 0.12124 0.60508 0.02237 0.0
H1684 H 0.54808 0.1662 0.56402 0.0
H1685 H 0.50449 0.09969 0.52318 0.0
H1686 H 0.5819 0.16715 0.54109 0.0
H1687 H 0.53833 0.10021 0.50104 0.0
H1688 H 0.62991 0.16816 0.46149 0.0
H1689 H 0.59702 0.16806 0.48605 0.0
H1690 H 0.57467 0.10032 0.52223 0.0
H1691 H 0.60799 0.10077 0.4982 0.0
C1692 C 0.54585 0.15174 0.55027 0.0
C1693 C 0.52392 0.1326 0.54593 0.0
C1694 C 0.5651 0.15233 0.53704 0.0
C1695 C 0.56274 0.13367 0.51946 0.0
C1696 C 0.54067 0.11472 0.51468 0.0
C1697 C 0.52135 0.1144 0.52728 0.0
C1698 C 0.61795 0.15332 0.47482 0.0
C1699 C 0.62097 0.13421 0.4774 0.0
C1700 C 0.59928 0.15332 0.48902 0.0
C1701 C 0.58321 0.13411 0.50586 0.0
C1702 C 0.58667 0.11525 0.50916 0.0
C1703 C 0.60566 0.11549 0.49549 0.0
H1704 H 0.54921 0.38375 0.05915 0.0
H1705 H 0.50479 0.4065 0.02065 0.0
H1706 H 0.58252 0.41641 0.0352 0.0
H1707 H 0.53815 0.43964 0.99748 0.0
H1708 H 0.60702 0.50858 0.99196 0.0
H1709 H 0.5742 0.47573 0.01668 0.0
H1710 H 0.59737 0.43075 0.98114 0.0
H1711 H 0.6298 0.46353 0.95601 0.0
C1712 C 0.54669 0.39586 0.04558 0.0
C1713 C 0.52471 0.39312 0.04221 0.0
C1714 C 0.56566 0.41442 0.03177 0.0
C1715 C 0.56294 0.43063 0.01458 0.0
C1716 C 0.54077 0.4275 0.0107 0.0
C1717 C 0.52173 0.40861 0.0239 0.0
C1718 C 0.60499 0.49163 0.98959 0.0
C1719 C 0.62036 0.48829 0.9715 0.0
C1720 C 0.58627 0.47288 1.00361 0.0
C1721 C 0.58315 0.45067 1.00064 0.0
C1722 C 0.59935 0.44765 0.98386 0.0
C1723 C 0.61776 0.46631 0.96934 0.0
H1724 H 0.10603 0.6045 0.4935 0.0
H1725 H 0.1741 0.62878 0.45752 0.0
H1726 H 0.10657 0.57159 0.51693 0.0
H1727 H 0.17503 0.5963 0.4816 0.0
H1728 H 0.1747 0.54788 0.55887 0.0
H1729 H 0.17499 0.58096 0.53474 0.0
H1730 H 0.10714 0.53619 0.49784 0.0
H1731 H 0.10725 0.50308 0.52135 0.0
C1732 C 0.12113 0.6028 0.4909 0.0
C1733 C 0.13977 0.61863 0.47316 0.0
C1734 C 0.12147 0.58402 0.50422 0.0
C1735 C 0.14081 0.58132 0.501 0.0
C1736 C 0.15992 0.59795 0.48454 0.0
C1737 C 0.15936 0.61641 0.47064 0.0
C1738 C 0.15996 0.54522 0.54539 0.0
C1739 C 0.14071 0.52321 0.54246 0.0
C1740 C 0.16015 0.56405 0.53146 0.0
C1741 C 0.14101 0.56117 0.51455 0.0
C1742 C 0.12204 0.53895 0.5109 0.0
C1743 C 0.12208 0.52004 0.52427 0.0
H1744 H 0.60981 0.10247 0.02268 0.0
H1745 H 0.63231 0.1686 0.06444 0.0
H1746 H 0.57607 0.10264 1.00129 0.0
H1747 H 0.5991 0.16929 0.04201 0.0
H1748 H 0.50657 0.10293 1.00044 0.0
H1749 H 0.53974 0.10274 0.02403 0.0
H1750 H 0.58475 0.16987 0.9859 0.0
H1751 H 0.55165 0.16968 0.96163 0.0
C1752 C 0.60749 0.11704 0.0271 0.0
C1753 C 0.62314 0.13522 0.04579 0.0
C1754 C 0.58827 0.11716 0.01491 0.0
C1755 C 0.58497 0.13595 0.02004 0.0
C1756 C 0.60124 0.1546 0.03769 0.0
C1757 C 0.6201 0.15416 0.05061 0.0
C1758 C 0.52359 0.11757 0.99721 0.0
C1759 C 0.52681 0.13603 0.97866 0.0
C1760 C 0.54251 0.11748 0.01064 0.0
C1761 C 0.5648 0.13625 1.00668 0.0
C1762 C 0.56777 0.15521 0.98937 0.0
C1763 C 0.54893 0.15505 0.97536 0.0
H1764 H 0.51554 0.60873 0.51572 0.0
H1765 H 0.47236 0.63231 0.55598 0.0
H1766 H 0.48148 0.57499 0.49473 0.0
H1767 H 0.4383 0.59909 0.5339 0.0
H1768 H 0.38877 0.54969 0.45685 0.0
H1769 H 0.42208 0.58335 0.4795 0.0
H1770 H 0.44584 0.53945 0.51718 0.0
H1771 H 0.41214 0.5058 0.49525 0.0
C1772 C 0.49872 0.60668 0.51982 0.0
C1773 C 0.49634 0.6226 0.53805 0.0
C1774 C 0.47928 0.58747 0.50779 0.0
C1775 C 0.45725 0.58444 0.51263 0.0
C1776 C 0.45506 0.60102 0.52974 0.0
C1777 C 0.47445 0.61989 0.54249 0.0
C1778 C 0.40116 0.54735 0.47007 0.0
C1779 C 0.39841 0.5254 0.4737 0.0
C1780 C 0.42007 0.56651 0.48319 0.0
C1781 C 0.43663 0.56401 0.49994 0.0
C1782 C 0.43346 0.54189 0.5042 0.0
C1783 C 0.41425 0.52269 0.4917 0.0
H1784 H 0.84654 0.38618 0.95834 0.0
H1785 H 0.91323 0.40873 0.99848 0.0
H1786 H 0.84584 0.41903 0.98179 0.0
H1787 H 0.91294 0.44207 0.0212 0.0
H1788 H 0.84605 0.4679 0.05942 0.0
H1789 H 0.84579 0.43418 0.03725 0.0
H1790 H 0.91287 0.47814 0.99817 0.0
H1791 H 0.91264 0.51188 0.01936 0.0
C1792 C 0.86105 0.39826 0.97219 0.0
C1793 C 0.88018 0.39541 0.97611 0.0
C1794 C 0.8606 0.41692 0.98571 0.0
C1795 C 0.8794 0.43315 1.00316 0.0
C1796 C 0.8983 0.4299 0.00771 0.0
C1797 C 0.89849 0.4109 0.99478 0.0
C1798 C 0.86066 0.47024 0.04598 0.0
C1799 C 0.87962 0.49226 0.04161 0.0
C1800 C 0.86048 0.45104 0.0332 0.0
C1801 C 0.87938 0.45356 0.01613 0.0
C1802 C 0.89816 0.4757 0.01135 0.0
C1803 C 0.89805 0.49496 0.02343 0.0
H1804 H 0.51163 0.91048 0.49115 0.0
H1805 H 0.4685 0.84268 0.45371 0.0
H1806 H 0.47789 0.90939 0.51454 0.0
H1807 H 0.43482 0.84119 0.47774 0.0
H1808 H 0.40843 0.90811 0.51885 0.0
H1809 H 0.44198 0.90874 0.49559 0.0
H1810 H 0.41894 0.8405 0.53048 0.0
H1811 H 0.38577 0.84024 0.55433 0.0
C1812 C 0.49491 0.89531 0.48825 0.0
C1813 C 0.49237 0.87692 0.47011 0.0
C1814 C 0.47564 0.89466 0.50156 0.0
C1815 C 0.4537 0.87524 0.4979 0.0
C1816 C 0.45149 0.85635 0.48104 0.0
C1817 C 0.47067 0.85724 0.46717 0.0
C1818 C 0.41064 0.89331 0.52138 0.0
C1819 C 0.39507 0.8744 0.53893 0.0
C1820 C 0.42978 0.89365 0.50817 0.0
C1821 C 0.43315 0.87472 0.51133 0.0
C1822 C 0.41679 0.85531 0.52759 0.0
C1823 C 0.39794 0.8552 0.54136 0.0
loop_
_geom_bond_atom_site_label_1
_geom_bond_atom_site_label_2
_geom_bond_distance
_geom_bond_site_symmetry_2
_ccdc_geom_bond_type
Mn0 O5 2.095 . S
Mn0 O15 2.162 . S
Mn0 O16 2.297 . S
Mn0 O24 2.385 . S
Mn0 O25 2.209 . S
Mn0 O26 2.094 . S
Mn1 O6 2.121 . S
Mn1 N8 2.257 . S
Mn1 N17 2.282 . S
Mn1 O25 2.215 . S
Mn1 O27 2.117 . S
C2 O24 1.234 . S
C2 O25 1.283 . S
C3 O15 1.281 . S
C3 O16 1.236 . S
C4 O26 1.240 . S
C4 O27 1.264 . S
O5 Mn0 2.095 . S
O5 C14 1.250 . S
O6 Mn1 2.121 . S
O6 C14 1.258 . S
C7 N8 1.326 . S
C7 C11 1.460 . S
C7 H13 0.929 . S
N8 Mn1 2.257 . S
N8 C7 1.326 . S
N8 C12 1.362 . S
C9 C10 1.258 . S
C9 C12 1.431 . S
C9 C29 1.449 . S
C10 C9 1.258 . S
C10 C11 1.477 . S
C10 H30 0.931 . S
C11 C7 1.460 . S
C11 C10 1.477 . S
C11 H31 0.930 . S
C12 N8 1.362 . S
C12 C9 1.431 . S
C12 C22 1.476 . S
H13 C7 0.929 . S
C14 O5 1.250 . S
C14 O6 1.258 . S
O15 Mn0 2.162 . S
O15 C3 1.281 . S
O16 Mn0 2.297 . S
O16 C3 1.236 . S
N17 Mn1 2.282 . S
N17 C18 1.328 . S
N17 C22 1.318 . S
C18 N17 1.328 . S
C18 C19 1.457 . S
C18 H23 0.929 . S
C19 C18 1.457 . S
C19 C20 1.291 . S
C19 H32 0.931 . S
C20 C19 1.291 . S
C20 C21 1.373 . S
C20 H33 0.929 . S
C21 C20 1.373 . S
C21 C22 1.396 . S
C21 C28 1.403 . S
C22 C12 1.476 . S
C22 N17 1.318 . S
C22 C21 1.396 . S
H23 C18 0.929 . S
O24 Mn0 2.385 . S
O24 C2 1.234 . S
O25 Mn0 2.209 . S
O25 Mn1 2.215 . S
O25 C2 1.283 . S
O26 Mn0 2.094 . S
O26 C4 1.240 . S
O27 Mn1 2.117 . S
O27 C4 1.264 . S
C28 C21 1.403 . S
C28 C29 1.399 . S
C28 H34 0.929 . S
C29 C9 1.449 . S
C29 C28 1.399 . S
C29 H35 0.930 . S
H30 C10 0.931 . S
H31 C11 0.930 . S
H32 C19 0.931 . S
H33 C20 0.929 . S
H34 C28 0.929 . S
H35 C29 0.930 . S
Mn36 O41 2.095 . S
Mn36 O51 2.162 . S
Mn36 O52 2.297 . S
Mn36 O60 2.385 . S
Mn36 O61 2.209 . S
Mn36 O62 2.094 . S
Mn37 O42 2.121 . S
Mn37 N44 2.257 . S
Mn37 N53 2.282 . S
Mn37 O61 2.215 . S
Mn37 O63 2.117 . S
C38 O60 1.234 . S
C38 O61 1.283 . S
C39 O51 1.281 . S
C39 O52 1.236 . S
C40 O62 1.240 . S
C40 O63 1.264 . S
O41 Mn36 2.095 . S
O41 C50 1.250 . S
O42 Mn37 2.121 . S
O42 C50 1.258 . S
C43 N44 1.326 . S
C43 C47 1.460 . S
C43 H49 0.929 . S
N44 Mn37 2.257 . S
N44 C43 1.326 . S
N44 C48 1.362 . S
C45 C46 1.258 . S
C45 C48 1.431 . S
C45 C65 1.449 . S
C46 C45 1.258 . S
C46 C47 1.477 . S
C46 H66 0.931 . S
C47 C43 1.460 . S
C47 C46 1.477 . S
C47 H67 0.930 . S
C48 N44 1.362 . S
C48 C45 1.431 . S
C48 C58 1.476 . S
H49 C43 0.929 . S
C50 O41 1.250 . S
C50 O42 1.258 . S
O51 Mn36 2.162 . S
O51 C39 1.281 . S
O52 Mn36 2.297 . S
O52 C39 1.236 . S
N53 Mn37 2.282 . S
N53 C54 1.328 . S
N53 C58 1.318 . S
C54 N53 1.328 . S
C54 C55 1.457 . S
C54 H59 0.929 . S
C55 C54 1.457 . S
C55 C56 1.291 . S
C55 H68 0.931 . S
C56 C55 1.291 . S
C56 C57 1.373 . S
C56 H69 0.929 . S
C57 C56 1.373 . S
C57 C58 1.396 . S
C57 C64 1.403 . S
C58 C48 1.476 . S
C58 N53 1.318 . S
C58 C57 1.396 . S
H59 C54 0.929 . S
O60 Mn36 2.385 . S
O60 C38 1.234 . S
O61 Mn36 2.209 . S
O61 Mn37 2.215 . S
O61 C38 1.283 . S
O62 Mn36 2.094 . S
O62 C40 1.240 . S
O63 Mn37 2.117 . S
O63 C40 1.264 . S
C64 C57 1.403 . S
C64 C65 1.399 . S
C64 H70 0.929 . S
C65 C45 1.449 . S
C65 C64 1.399 . S
C65 H71 0.930 . S
H66 C46 0.931 . S
H67 C47 0.930 . S
H68 C55 0.931 . S
H69 C56 0.929 . S
H70 C64 0.929 . S
H71 C65 0.930 . S
Mn72 O77 2.095 . S
Mn72 O87 2.162 . S
Mn72 O88 2.297 . S
Mn72 O96 2.385 . S
Mn72 O97 2.209 . S
Mn72 O98 2.094 . S
Mn73 O78 2.121 . S
Mn73 N80 2.257 . S
Mn73 N89 2.282 . S
Mn73 O97 2.215 . S
Mn73 O99 2.117 . S
C74 O96 1.234 . S
C74 O97 1.283 . S
C75 O87 1.281 . S
C75 O88 1.236 . S
C76 O98 1.240 . S
C76 O99 1.264 . S
O77 Mn72 2.095 . S
O77 C86 1.250 . S
O78 Mn73 2.121 . S
O78 C86 1.258 . S
C79 N80 1.326 . S
C79 C83 1.460 . S
C79 H85 0.929 . S
N80 Mn73 2.257 . S
N80 C79 1.326 . S
N80 C84 1.362 . S
C81 C82 1.258 . S
C81 C84 1.431 . S
C81 C101 1.449 . S
C82 C81 1.258 . S
C82 C83 1.477 . S
C82 H102 0.931 . S
C83 C79 1.460 . S
C83 C82 1.477 . S
C83 H103 0.930 . S
C84 N80 1.362 . S
C84 C81 1.431 . S
C84 C94 1.476 . S
H85 C79 0.929 . S
C86 O77 1.250 . S
C86 O78 1.258 . S
O87 Mn72 2.162 . S
O87 C75 1.281 . S
O88 Mn72 2.297 . S
O88 C75 1.236 . S
N89 Mn73 2.282 . S
N89 C90 1.328 . S
N89 C94 1.318 . S
C90 N89 1.328 . S
C90 C91 1.457 . S
C90 H95 0.929 . S
C91 C90 1.457 . S
C91 C92 1.291 . S
C91 H104 0.931 . S
C92 C91 1.291 . S
C92 C93 1.373 . S
C92 H105 0.929 . S
C93 C92 1.373 . S
C93 C94 1.396 . S
C93 C100 1.403 . S
C94 C84 1.476 . S
C94 N89 1.318 . S
C94 C93 1.396 . S
H95 C90 0.929 . S
O96 Mn72 2.385 . S
O96 C74 1.234 . S
O97 Mn72 2.209 . S
O97 Mn73 2.215 . S
O97 C74 1.283 . S
O98 Mn72 2.094 . S
O98 C76 1.240 . S
O99 Mn73 2.117 . S
O99 C76 1.264 . S
C100 C93 1.403 . S
C100 C101 1.399 . S
C100 H106 0.929 . S
C101 C81 1.449 . S
C101 C100 1.399 . S
C101 H107 0.930 . S
H102 C82 0.931 . S
H103 C83 0.930 . S
H104 C91 0.931 . S
H105 C92 0.929 . S
H106 C100 0.929 . S
H107 C101 0.930 . S
Mn108 O113 2.095 . S
Mn108 O123 2.162 . S
Mn108 O124 2.297 . S
Mn108 O132 2.385 . S
Mn108 O133 2.209 . S
Mn108 O134 2.094 . S
Mn109 O114 2.121 . S
Mn109 N116 2.257 . S
Mn109 N125 2.282 . S
Mn109 O133 2.215 . S
Mn109 O135 2.117 . S
C110 O132 1.234 . S
C110 O133 1.283 . S
C111 O123 1.281 . S
C111 O124 1.236 . S
C112 O134 1.240 . S
C112 O135 1.264 . S
O113 Mn108 2.095 . S
O113 C122 1.250 . S
O114 Mn109 2.121 . S
O114 C122 1.258 . S
C115 N116 1.326 . S
C115 C119 1.460 . S
C115 H121 0.929 . S
N116 Mn109 2.257 . S
N116 C115 1.326 . S
N116 C120 1.362 . S
C117 C118 1.258 . S
C117 C120 1.431 . S
C117 C137 1.449 . S
C118 C117 1.258 . S
C118 C119 1.477 . S
C118 H138 0.931 . S
C119 C115 1.460 . S
C119 C118 1.477 . S
C119 H139 0.930 . S
C120 N116 1.362 . S
C120 C117 1.431 . S
C120 C130 1.476 . S
H121 C115 0.929 . S
C122 O113 1.250 . S
C122 O114 1.258 . S
O123 Mn108 2.162 . S
O123 C111 1.281 . S
O124 Mn108 2.297 . S
O124 C111 1.236 . S
N125 Mn109 2.282 . S
N125 C126 1.328 . S
N125 C130 1.318 . S
C126 N125 1.328 . S
C126 C127 1.457 . S
C126 H131 0.929 . S
C127 C126 1.457 . S
C127 C128 1.291 . S
C127 H140 0.931 . S
C128 C127 1.291 . S
C128 C129 1.373 . S
C128 H141 0.929 . S
C129 C128 1.373 . S
C129 C130 1.396 . S
C129 C136 1.403 . S
C130 C120 1.476 . S
C130 N125 1.318 . S
C130 C129 1.396 . S
H131 C126 0.929 . S
O132 Mn108 2.385 . S
O132 C110 1.234 . S
O133 Mn108 2.209 . S
O133 Mn109 2.215 . S
O133 C110 1.283 . S
O134 Mn108 2.094 . S
O134 C112 1.240 . S
O135 Mn109 2.117 . S
O135 C112 1.264 . S
C136 C129 1.403 . S
C136 C137 1.399 . S
C136 H142 0.929 . S
C137 C117 1.449 . S
C137 C136 1.399 . S
C137 H143 0.930 . S
H138 C118 0.931 . S
H139 C119 0.930 . S
H140 C127 0.931 . S
H141 C128 0.929 . S
H142 C136 0.929 . S
H143 C137 0.930 . S
Mn144 O149 2.095 . S
Mn144 O159 2.162 . S
Mn144 O160 2.297 . S
Mn144 O168 2.385 . S
Mn144 O169 2.209 . S
Mn144 O170 2.094 . S
Mn145 O150 2.121 . S
Mn145 N152 2.257 . S
Mn145 N161 2.282 . S
Mn145 O169 2.215 . S
Mn145 O171 2.117 . S
C146 O168 1.234 . S
C146 O169 1.283 . S
C147 O159 1.281 . S
C147 O160 1.236 . S
C148 O170 1.240 . S
C148 O171 1.264 . S
O149 Mn144 2.095 . S
O149 C158 1.250 . S
O150 Mn145 2.121 . S
O150 C158 1.258 . S
C151 N152 1.326 . S
C151 C155 1.460 . S
C151 H157 0.929 . S
N152 Mn145 2.257 . S
N152 C151 1.326 . S
N152 C156 1.362 . S
C153 C154 1.258 . S
C153 C156 1.431 . S
C153 C173 1.449 . S
C154 C153 1.258 . S
C154 C155 1.477 . S
C154 H174 0.931 . S
C155 C151 1.460 . S
C155 C154 1.477 . S
C155 H175 0.930 . S
C156 N152 1.362 . S
C156 C153 1.431 . S
C156 C166 1.476 . S
H157 C151 0.929 . S
C158 O149 1.250 . S
C158 O150 1.258 . S
O159 Mn144 2.162 . S
O159 C147 1.281 . S
O160 Mn144 2.297 . S
O160 C147 1.236 . S
N161 Mn145 2.282 . S
N161 C162 1.328 . S
N161 C166 1.318 . S
C162 N161 1.328 . S
C162 C163 1.457 . S
C162 H167 0.929 . S
C163 C162 1.457 . S
C163 C164 1.291 . S
C163 H176 0.931 . S
C164 C163 1.291 . S
C164 C165 1.373 . S
C164 H177 0.929 . S
C165 C164 1.373 . S
C165 C166 1.396 . S
C165 C172 1.403 . S
C166 C156 1.476 . S
C166 N161 1.318 . S
C166 C165 1.396 . S
H167 C162 0.929 . S
O168 Mn144 2.385 . S
O168 C146 1.234 . S
O169 Mn144 2.209 . S
O169 Mn145 2.215 . S
O169 C146 1.283 . S
O170 Mn144 2.094 . S
O170 C148 1.240 . S
O171 Mn145 2.117 . S
O171 C148 1.264 . S
C172 C165 1.403 . S
C172 C173 1.399 . S
C172 H178 0.929 . S
C173 C153 1.449 . S
C173 C172 1.399 . S
C173 H179 0.930 . S
H174 C154 0.931 . S
H175 C155 0.930 . S
H176 C163 0.931 . S
H177 C164 0.929 . S
H178 C172 0.929 . S
H179 C173 0.930 . S
Mn180 O185 2.095 . S
Mn180 O195 2.162 . S
Mn180 O196 2.297 . S
Mn180 O204 2.385 . S
Mn180 O205 2.209 . S
Mn180 O206 2.094 . S
Mn181 O186 2.121 . S
Mn181 N188 2.257 . S
Mn181 N197 2.282 . S
Mn181 O205 2.215 . S
Mn181 O207 2.117 . S
C182 O204 1.234 . S
C182 O205 1.283 . S
C183 O195 1.281 . S
C183 O196 1.236 . S
C184 O206 1.240 . S
C184 O207 1.264 . S
O185 Mn180 2.095 . S
O185 C194 1.250 . S
O186 Mn181 2.121 . S
O186 C194 1.258 . S
C187 N188 1.326 . S
C187 C191 1.460 . S
C187 H193 0.929 . S
N188 Mn181 2.257 . S
N188 C187 1.326 . S
N188 C192 1.362 . S
C189 C190 1.258 . S
C189 C192 1.431 . S
C189 C209 1.449 . S
C190 C189 1.258 . S
C190 C191 1.477 . S
C190 H210 0.931 . S
C191 C187 1.460 . S
C191 C190 1.477 . S
C191 H211 0.930 . S
C192 N188 1.362 . S
C192 C189 1.431 . S
C192 C202 1.476 . S
H193 C187 0.929 . S
C194 O185 1.250 . S
C194 O186 1.258 . S
O195 Mn180 2.162 . S
O195 C183 1.281 . S
O196 Mn180 2.297 . S
O196 C183 1.236 . S
N197 Mn181 2.282 . S
N197 C198 1.328 . S
N197 C202 1.318 . S
C198 N197 1.328 . S
C198 C199 1.457 . S
C198 H203 0.929 . S
C199 C198 1.457 . S
C199 C200 1.291 . S
C199 H212 0.931 . S
C200 C199 1.291 . S
C200 C201 1.373 . S
C200 H213 0.929 . S
C201 C200 1.373 . S
C201 C202 1.396 . S
C201 C208 1.403 . S
C202 C192 1.476 . S
C202 N197 1.318 . S
C202 C201 1.396 . S
H203 C198 0.929 . S
O204 Mn180 2.385 . S
O204 C182 1.234 . S
O205 Mn180 2.209 . S
O205 Mn181 2.215 . S
O205 C182 1.283 . S
O206 Mn180 2.094 . S
O206 C184 1.240 . S
O207 Mn181 2.117 . S
O207 C184 1.264 . S
C208 C201 1.403 . S
C208 C209 1.399 . S
C208 H214 0.929 . S
C209 C189 1.449 . S
C209 C208 1.399 . S
C209 H215 0.930 . S
H210 C190 0.931 . S
H211 C191 0.930 . S
H212 C199 0.931 . S
H213 C200 0.929 . S
H214 C208 0.929 . S
H215 C209 0.930 . S
Mn216 O221 2.095 . S
Mn216 O231 2.162 . S
Mn216 O232 2.297 . S
Mn216 O240 2.385 . S
Mn216 O241 2.209 . S
Mn216 O242 2.094 . S
Mn217 O222 2.121 . S
Mn217 N224 2.257 . S
Mn217 N233 2.282 . S
Mn217 O241 2.215 . S
Mn217 O243 2.117 . S
C218 O240 1.234 . S
C218 O241 1.283 . S
C219 O231 1.281 . S
C219 O232 1.236 . S
C220 O242 1.240 . S
C220 O243 1.264 . S
O221 Mn216 2.095 . S
O221 C230 1.250 . S
O222 Mn217 2.121 . S
O222 C230 1.258 . S
C223 N224 1.326 . S
C223 C227 1.460 . S
C223 H229 0.929 . S
N224 Mn217 2.257 . S
N224 C223 1.326 . S
N224 C228 1.362 . S
C225 C226 1.258 . S
C225 C228 1.431 . S
C225 C245 1.449 . S
C226 C225 1.258 . S
C226 C227 1.477 . S
C226 H246 0.931 . S
C227 C223 1.460 . S
C227 C226 1.477 . S
C227 H247 0.930 . S
C228 N224 1.362 . S
C228 C225 1.431 . S
C228 C238 1.476 . S
H229 C223 0.929 . S
C230 O221 1.250 . S
C230 O222 1.258 . S
O231 Mn216 2.162 . S
O231 C219 1.281 . S
O232 Mn216 2.297 . S
O232 C219 1.236 . S
N233 Mn217 2.282 . S
N233 C234 1.328 . S
N233 C238 1.318 . S
C234 N233 1.328 . S
C234 C235 1.457 . S
C234 H239 0.929 . S
C235 C234 1.457 . S
C235 C236 1.291 . S
C235 H248 0.931 . S
C236 C235 1.291 . S
C236 C237 1.373 . S
C236 H249 0.929 . S
C237 C236 1.373 . S
C237 C238 1.396 . S
C237 C244 1.403 . S
C238 C228 1.476 . S
C238 N233 1.318 . S
C238 C237 1.396 . S
H239 C234 0.929 . S
O240 Mn216 2.385 . S
O240 C218 1.234 . S
O241 Mn216 2.209 . S
O241 Mn217 2.215 . S
O241 C218 1.283 . S
O242 Mn216 2.094 . S
O242 C220 1.240 . S
O243 Mn217 2.117 . S
O243 C220 1.264 . S
C244 C237 1.403 . S
C244 C245 1.399 . S
C244 H250 0.929 . S
C245 C225 1.449 . S
C245 C244 1.399 . S
C245 H251 0.930 . S
H246 C226 0.931 . S
H247 C227 0.930 . S
H248 C235 0.931 . S
H249 C236 0.929 . S
H250 C244 0.929 . S
H251 C245 0.930 . S
Mn252 O257 2.095 . S
Mn252 O267 2.162 . S
Mn252 O268 2.297 . S
Mn252 O276 2.385 . S
Mn252 O277 2.209 . S
Mn252 O278 2.094 . S
Mn253 O258 2.121 . S
Mn253 N260 2.257 . S
Mn253 N269 2.282 . S
Mn253 O277 2.215 . S
Mn253 O279 2.117 . S
C254 O276 1.234 . S
C254 O277 1.283 . S
C255 O267 1.281 . S
C255 O268 1.236 . S
C256 O278 1.240 . S
C256 O279 1.264 . S
O257 Mn252 2.095 . S
O257 C266 1.250 . S
O258 Mn253 2.121 . S
O258 C266 1.258 . S
C259 N260 1.326 . S
C259 C263 1.460 . S
C259 H265 0.929 . S
N260 Mn253 2.257 . S
N260 C259 1.326 . S
N260 C264 1.362 . S
C261 C262 1.258 . S
C261 C264 1.431 . S
C261 C281 1.449 . S
C262 C261 1.258 . S
C262 C263 1.477 . S
C262 H282 0.931 . S
C263 C259 1.460 . S
C263 C262 1.477 . S
C263 H283 0.930 . S
C264 N260 1.362 . S
C264 C261 1.431 . S
C264 C274 1.476 . S
H265 C259 0.929 . S
C266 O257 1.250 . S
C266 O258 1.258 . S
O267 Mn252 2.162 . S
O267 C255 1.281 . S
O268 Mn252 2.297 . S
O268 C255 1.236 . S
N269 Mn253 2.282 . S
N269 C270 1.328 . S
N269 C274 1.318 . S
C270 N269 1.328 . S
C270 C271 1.457 . S
C270 H275 0.929 . S
C271 C270 1.457 . S
C271 C272 1.291 . S
C271 H284 0.931 . S
C272 C271 1.291 . S
C272 C273 1.373 . S
C272 H285 0.929 . S
C273 C272 1.373 . S
C273 C274 1.396 . S
C273 C280 1.403 . S
C274 C264 1.476 . S
C274 N269 1.318 . S
C274 C273 1.396 . S
H275 C270 0.929 . S
O276 Mn252 2.385 . S
O276 C254 1.234 . S
O277 Mn252 2.209 . S
O277 Mn253 2.215 . S
O277 C254 1.283 . S
O278 Mn252 2.094 . S
O278 C256 1.240 . S
O279 Mn253 2.117 . S
O279 C256 1.264 . S
C280 C273 1.403 . S
C280 C281 1.399 . S
C280 H286 0.929 . S
C281 C261 1.449 . S
C281 C280 1.399 . S
C281 H287 0.930 . S
H282 C262 0.931 . S
H283 C263 0.930 . S
H284 C271 0.931 . S
H285 C272 0.929 . S
H286 C280 0.929 . S
H287 C281 0.930 . S
Mn288 O293 2.095 . S
Mn288 O303 2.162 . S
Mn288 O304 2.297 . S
Mn288 O312 2.385 . S
Mn288 O313 2.209 . S
Mn288 O314 2.094 . S
Mn289 O294 2.121 . S
Mn289 N296 2.257 . S
Mn289 N305 2.282 . S
Mn289 O313 2.215 . S
Mn289 O315 2.117 . S
C290 O312 1.234 . S
C290 O313 1.283 . S
C291 O303 1.281 . S
C291 O304 1.236 . S
C292 O314 1.240 . S
C292 O315 1.264 . S
O293 Mn288 2.095 . S
O293 C302 1.250 . S
O294 Mn289 2.121 . S
O294 C302 1.258 . S
C295 N296 1.326 . S
C295 C299 1.460 . S
C295 H301 0.929 . S
N296 Mn289 2.257 . S
N296 C295 1.326 . S
N296 C300 1.362 . S
C297 C298 1.258 . S
C297 C300 1.431 . S
C297 C317 1.449 . S
C298 C297 1.258 . S
C298 C299 1.477 . S
C298 H318 0.931 . S
C299 C295 1.460 . S
C299 C298 1.477 . S
C299 H319 0.930 . S
C300 N296 1.362 . S
C300 C297 1.431 . S
C300 C310 1.476 . S
H301 C295 0.929 . S
C302 O293 1.250 . S
C302 O294 1.258 . S
O303 Mn288 2.162 . S
O303 C291 1.281 . S
O304 Mn288 2.297 . S
O304 C291 1.236 . S
N305 Mn289 2.282 . S
N305 C306 1.328 . S
N305 C310 1.318 . S
C306 N305 1.328 . S
C306 C307 1.457 . S
C306 H311 0.929 . S
C307 C306 1.457 . S
C307 C308 1.291 . S
C307 H320 0.931 . S
C308 C307 1.291 . S
C308 C309 1.373 . S
C308 H321 0.929 . S
C309 C308 1.373 . S
C309 C310 1.396 . S
C309 C316 1.403 . S
C310 C300 1.476 . S
C310 N305 1.318 . S
C310 C309 1.396 . S
H311 C306 0.929 . S
O312 Mn288 2.385 . S
O312 C290 1.234 . S
O313 Mn288 2.209 . S
O313 Mn289 2.215 . S
O313 C290 1.283 . S
O314 Mn288 2.094 . S
O314 C292 1.240 . S
O315 Mn289 2.117 . S
O315 C292 1.264 . S
C316 C309 1.403 . S
C316 C317 1.399 . S
C316 H322 0.929 . S
C317 C297 1.449 . S
C317 C316 1.399 . S
C317 H323 0.930 . S
H318 C298 0.931 . S
H319 C299 0.930 . S
H320 C307 0.931 . S
H321 C308 0.929 . S
H322 C316 0.929 . S
H323 C317 0.930 . S
Mn324 O329 2.095 . S
Mn324 O339 2.162 . S
Mn324 O340 2.297 . S
Mn324 O348 2.385 . S
Mn324 O349 2.209 . S
Mn324 O350 2.094 . S
Mn325 O330 2.121 . S
Mn325 N332 2.257 . S
Mn325 N341 2.282 . S
Mn325 O349 2.215 . S
Mn325 O351 2.117 . S
C326 O348 1.234 . S
C326 O349 1.283 . S
C327 O339 1.281 . S
C327 O340 1.236 . S
C328 O350 1.240 . S
C328 O351 1.264 . S
O329 Mn324 2.095 . S
O329 C338 1.250 . S
O330 Mn325 2.121 . S
O330 C338 1.258 . S
C331 N332 1.326 . S
C331 C335 1.460 . S
C331 H337 0.929 . S
N332 Mn325 2.257 . S
N332 C331 1.326 . S
N332 C336 1.362 . S
C333 C334 1.258 . S
C333 C336 1.431 . S
C333 C353 1.449 . S
C334 C333 1.258 . S
C334 C335 1.477 . S
C334 H354 0.931 . S
C335 C331 1.460 . S
C335 C334 1.477 . S
C335 H355 0.930 . S
C336 N332 1.362 . S
C336 C333 1.431 . S
C336 C346 1.476 . S
H337 C331 0.929 . S
C338 O329 1.250 . S
C338 O330 1.258 . S
O339 Mn324 2.162 . S
O339 C327 1.281 . S
O340 Mn324 2.297 . S
O340 C327 1.236 . S
N341 Mn325 2.282 . S
N341 C342 1.328 . S
N341 C346 1.318 . S
C342 N341 1.328 . S
C342 C343 1.457 . S
C342 H347 0.929 . S
C343 C342 1.457 . S
C343 C344 1.291 . S
C343 H356 0.931 . S
C344 C343 1.291 . S
C344 C345 1.373 . S
C344 H357 0.929 . S
C345 C344 1.373 . S
C345 C346 1.396 . S
C345 C352 1.403 . S
C346 C336 1.476 . S
C346 N341 1.318 . S
C346 C345 1.396 . S
H347 C342 0.929 . S
O348 Mn324 2.385 . S
O348 C326 1.234 . S
O349 Mn324 2.209 . S
O349 Mn325 2.215 . S
O349 C326 1.283 . S
O350 Mn324 2.094 . S
O350 C328 1.240 . S
O351 Mn325 2.117 . S
O351 C328 1.264 . S
C352 C345 1.403 . S
C352 C353 1.399 . S
C352 H358 0.929 . S
C353 C333 1.449 . S
C353 C352 1.399 . S
C353 H359 0.930 . S
H354 C334 0.931 . S
H355 C335 0.930 . S
H356 C343 0.931 . S
H357 C344 0.929 . S
H358 C352 0.929 . S
H359 C353 0.930 . S
Mn360 O365 2.095 . S
Mn360 O375 2.162 . S
Mn360 O376 2.297 . S
Mn360 O384 2.385 . S
Mn360 O385 2.209 . S
Mn360 O386 2.094 . S
Mn361 O366 2.121 . S
Mn361 N368 2.257 . S
Mn361 N377 2.282 . S
Mn361 O385 2.215 . S
Mn361 O387 2.117 . S
C362 O384 1.234 . S
C362 O385 1.283 . S
C363 O375 1.281 . S
C363 O376 1.236 . S
C364 O386 1.240 . S
C364 O387 1.264 . S
O365 Mn360 2.095 . S
O365 C374 1.250 . S
O366 Mn361 2.121 . S
O366 C374 1.258 . S
C367 N368 1.326 . S
C367 C371 1.460 . S
C367 H373 0.929 . S
N368 Mn361 2.257 . S
N368 C367 1.326 . S
N368 C372 1.362 . S
C369 C370 1.258 . S
C369 C372 1.431 . S
C369 C389 1.449 . S
C370 C369 1.258 . S
C370 C371 1.477 . S
C370 H390 0.931 . S
C371 C367 1.460 . S
C371 C370 1.477 . S
C371 H391 0.930 . S
C372 N368 1.362 . S
C372 C369 1.431 . S
C372 C382 1.476 . S
H373 C367 0.929 . S
C374 O365 1.250 . S
C374 O366 1.258 . S
O375 Mn360 2.162 . S
O375 C363 1.281 . S
O376 Mn360 2.297 . S
O376 C363 1.236 . S
N377 Mn361 2.282 . S
N377 C378 1.328 . S
N377 C382 1.318 . S
C378 N377 1.328 . S
C378 C379 1.457 . S
C378 H383 0.929 . S
C379 C378 1.457 . S
C379 C380 1.291 . S
C379 H392 0.931 . S
C380 C379 1.291 . S
C380 C381 1.373 . S
C380 H393 0.929 . S
C381 C380 1.373 . S
C381 C382 1.396 . S
C381 C388 1.403 . S
C382 C372 1.476 . S
C382 N377 1.318 . S
C382 C381 1.396 . S
H383 C378 0.929 . S
O384 Mn360 2.385 . S
O384 C362 1.234 . S
O385 Mn360 2.209 . S
O385 Mn361 2.215 . S
O385 C362 1.283 . S
O386 Mn360 2.094 . S
O386 C364 1.240 . S
O387 Mn361 2.117 . S
O387 C364 1.264 . S
C388 C381 1.403 . S
C388 C389 1.399 . S
C388 H394 0.929 . S
C389 C369 1.449 . S
C389 C388 1.399 . S
C389 H395 0.930 . S
H390 C370 0.931 . S
H391 C371 0.930 . S
H392 C379 0.931 . S
H393 C380 0.929 . S
H394 C388 0.929 . S
H395 C389 0.930 . S
Mn396 O401 2.095 . S
Mn396 O411 2.162 . S
Mn396 O412 2.297 . S
Mn396 O420 2.385 . S
Mn396 O421 2.209 . S
Mn396 O422 2.094 . S
Mn397 O402 2.121 . S
Mn397 N404 2.257 . S
Mn397 N413 2.282 . S
Mn397 O421 2.215 . S
Mn397 O423 2.117 . S
C398 O420 1.234 . S
C398 O421 1.283 . S
C399 O411 1.281 . S
C399 O412 1.236 . S
C400 O422 1.240 . S
C400 O423 1.264 . S
O401 Mn396 2.095 . S
O401 C410 1.250 . S
O402 Mn397 2.121 . S
O402 C410 1.258 . S
C403 N404 1.326 . S
C403 C407 1.460 . S
C403 H409 0.929 . S
N404 Mn397 2.257 . S
N404 C403 1.326 . S
N404 C408 1.362 . S
C405 C406 1.258 . S
C405 C408 1.431 . S
C405 C425 1.449 . S
C406 C405 1.258 . S
C406 C407 1.477 . S
C406 H426 0.931 . S
C407 C403 1.460 . S
C407 C406 1.477 . S
C407 H427 0.930 . S
C408 N404 1.362 . S
C408 C405 1.431 . S
C408 C418 1.476 . S
H409 C403 0.929 . S
C410 O401 1.250 . S
C410 O402 1.258 . S
O411 Mn396 2.162 . S
O411 C399 1.281 . S
O412 Mn396 2.297 . S
O412 C399 1.236 . S
N413 Mn397 2.282 . S
N413 C414 1.328 . S
N413 C418 1.318 . S
C414 N413 1.328 . S
C414 C415 1.457 . S
C414 H419 0.929 . S
C415 C414 1.457 . S
C415 C416 1.291 . S
C415 H428 0.931 . S
C416 C415 1.291 . S
C416 C417 1.373 . S
C416 H429 0.929 . S
C417 C416 1.373 . S
C417 C418 1.396 . S
C417 C424 1.403 . S
C418 C408 1.476 . S
C418 N413 1.318 . S
C418 C417 1.396 . S
H419 C414 0.929 . S
O420 Mn396 2.385 . S
O420 C398 1.234 . S
O421 Mn396 2.209 . S
O421 Mn397 2.215 . S
O421 C398 1.283 . S
O422 Mn396 2.094 . S
O422 C400 1.240 . S
O423 Mn397 2.117 . S
O423 C400 1.264 . S
C424 C417 1.403 . S
C424 C425 1.399 . S
C424 H430 0.929 . S
C425 C405 1.449 . S
C425 C424 1.399 . S
C425 H431 0.930 . S
H426 C406 0.931 . S
H427 C407 0.930 . S
H428 C415 0.931 . S
H429 C416 0.929 . S
H430 C424 0.929 . S
H431 C425 0.930 . S
Mn432 O437 2.095 . S
Mn432 O447 2.162 . S
Mn432 O448 2.297 . S
Mn432 O456 2.385 . S
Mn432 O457 2.209 . S
Mn432 O458 2.094 . S
Mn433 O438 2.121 . S
Mn433 N440 2.257 . S
Mn433 N449 2.282 . S
Mn433 O457 2.215 . S
Mn433 O459 2.117 . S
C434 O456 1.234 . S
C434 O457 1.283 . S
C435 O447 1.281 . S
C435 O448 1.236 . S
C436 O458 1.240 . S
C436 O459 1.264 . S
O437 Mn432 2.095 . S
O437 C446 1.250 . S
O438 Mn433 2.121 . S
O438 C446 1.258 . S
C439 N440 1.326 . S
C439 C443 1.460 . S
C439 H445 0.929 . S
N440 Mn433 2.257 . S
N440 C439 1.326 . S
N440 C444 1.362 . S
C441 C442 1.258 . S
C441 C444 1.431 . S
C441 C461 1.449 . S
C442 C441 1.258 . S
C442 C443 1.477 . S
C442 H462 0.931 . S
C443 C439 1.460 . S
C443 C442 1.477 . S
C443 H463 0.930 . S
C444 N440 1.362 . S
C444 C441 1.431 . S
C444 C454 1.476 . S
H445 C439 0.929 . S
C446 O437 1.250 . S
C446 O438 1.258 . S
O447 Mn432 2.162 . S
O447 C435 1.281 . S
O448 Mn432 2.297 . S
O448 C435 1.236 . S
N449 Mn433 2.282 . S
N449 C450 1.328 . S
N449 C454 1.318 . S
C450 N449 1.328 . S
C450 C451 1.457 . S
C450 H455 0.929 . S
C451 C450 1.457 . S
C451 C452 1.291 . S
C451 H464 0.931 . S
C452 C451 1.291 . S
C452 C453 1.373 . S
C452 H465 0.929 . S
C453 C452 1.373 . S
C453 C454 1.396 . S
C453 C460 1.403 . S
C454 C444 1.476 . S
C454 N449 1.318 . S
C454 C453 1.396 . S
H455 C450 0.929 . S
O456 Mn432 2.385 . S
O456 C434 1.234 . S
O457 Mn432 2.209 . S
O457 Mn433 2.215 . S
O457 C434 1.283 . S
O458 Mn432 2.094 . S
O458 C436 1.240 . S
O459 Mn433 2.117 . S
O459 C436 1.264 . S
C460 C453 1.403 . S
C460 C461 1.399 . S
C460 H466 0.929 . S
C461 C441 1.449 . S
C461 C460 1.399 . S
C461 H467 0.930 . S
H462 C442 0.931 . S
H463 C443 0.930 . S
H464 C451 0.931 . S
H465 C452 0.929 . S
H466 C460 0.929 . S
H467 C461 0.930 . S
Mn468 O473 2.095 . S
Mn468 O483 2.162 . S
Mn468 O484 2.297 . S
Mn468 O492 2.385 . S
Mn468 O493 2.209 . S
Mn468 O494 2.094 . S
Mn469 O474 2.121 . S
Mn469 N476 2.257 . S
Mn469 N485 2.282 . S
Mn469 O493 2.215 . S
Mn469 O495 2.117 . S
C470 O492 1.234 . S
C470 O493 1.283 . S
C471 O483 1.281 . S
C471 O484 1.236 . S
C472 O494 1.240 . S
C472 O495 1.264 . S
O473 Mn468 2.095 . S
O473 C482 1.250 . S
O474 Mn469 2.121 . S
O474 C482 1.258 . S
C475 N476 1.326 . S
C475 C479 1.460 . S
C475 H481 0.929 . S
N476 Mn469 2.257 . S
N476 C475 1.326 . S
N476 C480 1.362 . S
C477 C478 1.258 . S
C477 C480 1.431 . S
C477 C497 1.449 . S
C478 C477 1.258 . S
C478 C479 1.477 . S
C478 H498 0.931 . S
C479 C475 1.460 . S
C479 C478 1.477 . S
C479 H499 0.930 . S
C480 N476 1.362 . S
C480 C477 1.431 . S
C480 C490 1.476 . S
H481 C475 0.929 . S
C482 O473 1.250 . S
C482 O474 1.258 . S
O483 Mn468 2.162 . S
O483 C471 1.281 . S
O484 Mn468 2.297 . S
O484 C471 1.236 . S
N485 Mn469 2.282 . S
N485 C486 1.328 . S
N485 C490 1.318 . S
C486 N485 1.328 . S
C486 C487 1.457 . S
C486 H491 0.929 . S
C487 C486 1.457 . S
C487 C488 1.291 . S
C487 H500 0.931 . S
C488 C487 1.291 . S
C488 C489 1.373 . S
C488 H501 0.929 . S
C489 C488 1.373 . S
C489 C490 1.396 . S
C489 C496 1.403 . S
C490 C480 1.476 . S
C490 N485 1.318 . S
C490 C489 1.396 . S
H491 C486 0.929 . S
O492 Mn468 2.385 . S
O492 C470 1.234 . S
O493 Mn468 2.209 . S
O493 Mn469 2.215 . S
O493 C470 1.283 . S
O494 Mn468 2.094 . S
O494 C472 1.240 . S
O495 Mn469 2.117 . S
O495 C472 1.264 . S
C496 C489 1.403 . S
C496 C497 1.399 . S
C496 H502 0.929 . S
C497 C477 1.449 . S
C497 C496 1.399 . S
C497 H503 0.930 . S
H498 C478 0.931 . S
H499 C479 0.930 . S
H500 C487 0.931 . S
H501 C488 0.929 . S
H502 C496 0.929 . S
H503 C497 0.930 . S
Mn504 O509 2.095 . S
Mn504 O519 2.162 . S
Mn504 O520 2.297 . S
Mn504 O528 2.385 . S
Mn504 O529 2.209 . S
Mn504 O530 2.094 . S
Mn505 O510 2.121 . S
Mn505 N512 2.257 . S
Mn505 N521 2.282 . S
Mn505 O529 2.215 . S
Mn505 O531 2.117 . S
C506 O528 1.234 . S
C506 O529 1.283 . S
C507 O519 1.281 . S
C507 O520 1.236 . S
C508 O530 1.240 . S
C508 O531 1.264 . S
O509 Mn504 2.095 . S
O509 C518 1.250 . S
O510 Mn505 2.121 . S
O510 C518 1.258 . S
C511 N512 1.326 . S
C511 C515 1.460 . S
C511 H517 0.929 . S
N512 Mn505 2.257 . S
N512 C511 1.326 . S
N512 C516 1.362 . S
C513 C514 1.258 . S
C513 C516 1.431 . S
C513 C533 1.449 . S
C514 C513 1.258 . S
C514 C515 1.477 . S
C514 H534 0.931 . S
C515 C511 1.460 . S
C515 C514 1.477 . S
C515 H535 0.930 . S
C516 N512 1.362 . S
C516 C513 1.431 . S
C516 C526 1.476 . S
H517 C511 0.929 . S
C518 O509 1.250 . S
C518 O510 1.258 . S
O519 Mn504 2.162 . S
O519 C507 1.281 . S
O520 Mn504 2.297 . S
O520 C507 1.236 . S
N521 Mn505 2.282 . S
N521 C522 1.328 . S
N521 C526 1.318 . S
C522 N521 1.328 . S
C522 C523 1.457 . S
C522 H527 0.929 . S
C523 C522 1.457 . S
C523 C524 1.291 . S
C523 H536 0.931 . S
C524 C523 1.291 . S
C524 C525 1.373 . S
C524 H537 0.929 . S
C525 C524 1.373 . S
C525 C526 1.396 . S
C525 C532 1.403 . S
C526 C516 1.476 . S
C526 N521 1.318 . S
C526 C525 1.396 . S
H527 C522 0.929 . S
O528 Mn504 2.385 . S
O528 C506 1.234 . S
O529 Mn504 2.209 . S
O529 Mn505 2.215 . S
O529 C506 1.283 . S
O530 Mn504 2.094 . S
O530 C508 1.240 . S
O531 Mn505 2.117 . S
O531 C508 1.264 . S
C532 C525 1.403 . S
C532 C533 1.399 . S
C532 H538 0.929 . S
C533 C513 1.449 . S
C533 C532 1.399 . S
C533 H539 0.930 . S
H534 C514 0.931 . S
H535 C515 0.930 . S
H536 C523 0.931 . S
H537 C524 0.929 . S
H538 C532 0.929 . S
H539 C533 0.930 . S
Mn540 O545 2.095 . S
Mn540 O555 2.162 . S
Mn540 O556 2.297 . S
Mn540 O564 2.385 . S
Mn540 O565 2.209 . S
Mn540 O566 2.094 . S
Mn541 O546 2.121 . S
Mn541 N548 2.257 . S
Mn541 N557 2.282 . S
Mn541 O565 2.215 . S
Mn541 O567 2.117 . S
C542 O564 1.234 . S
C542 O565 1.283 . S
C543 O555 1.281 . S
C543 O556 1.236 . S
C544 O566 1.240 . S
C544 O567 1.264 . S
O545 Mn540 2.095 . S
O545 C554 1.250 . S
O546 Mn541 2.121 . S
O546 C554 1.258 . S
C547 N548 1.326 . S
C547 C551 1.460 . S
C547 H553 0.929 . S
N548 Mn541 2.257 . S
N548 C547 1.326 . S
N548 C552 1.362 . S
C549 C550 1.258 . S
C549 C552 1.431 . S
C549 C569 1.449 . S
C550 C549 1.258 . S
C550 C551 1.477 . S
C550 H570 0.931 . S
C551 C547 1.460 . S
C551 C550 1.477 . S
C551 H571 0.930 . S
C552 N548 1.362 . S
C552 C549 1.431 . S
C552 C562 1.476 . S
H553 C547 0.929 . S
C554 O545 1.250 . S
C554 O546 1.258 . S
O555 Mn540 2.162 . S
O555 C543 1.281 . S
O556 Mn540 2.297 . S
O556 C543 1.236 . S
N557 Mn541 2.282 . S
N557 C558 1.328 . S
N557 C562 1.318 . S
C558 N557 1.328 . S
C558 C559 1.457 . S
C558 H563 0.929 . S
C559 C558 1.457 . S
C559 C560 1.291 . S
C559 H572 0.931 . S
C560 C559 1.291 . S
C560 C561 1.373 . S
C560 H573 0.929 . S
C561 C560 1.373 . S
C561 C562 1.396 . S
C561 C568 1.403 . S
C562 C552 1.476 . S
C562 N557 1.318 . S
C562 C561 1.396 . S
H563 C558 0.929 . S
O564 Mn540 2.385 . S
O564 C542 1.234 . S
O565 Mn540 2.209 . S
O565 Mn541 2.215 . S
O565 C542 1.283 . S
O566 Mn540 2.094 . S
O566 C544 1.240 . S
O567 Mn541 2.117 . S
O567 C544 1.264 . S
C568 C561 1.403 . S
C568 C569 1.399 . S
C568 H574 0.929 . S
C569 C549 1.449 . S
C569 C568 1.399 . S
C569 H575 0.930 . S
H570 C550 0.931 . S
H571 C551 0.930 . S
H572 C559 0.931 . S
H573 C560 0.929 . S
H574 C568 0.929 . S
H575 C569 0.930 . S
Mn576 O581 2.095 . S
Mn576 O591 2.162 . S
Mn576 O592 2.297 . S
Mn576 O600 2.385 . S
Mn576 O601 2.209 . S
Mn576 O602 2.094 . S
Mn577 O582 2.121 . S
Mn577 N584 2.257 . S
Mn577 N593 2.282 . S
Mn577 O601 2.215 . S
Mn577 O603 2.117 . S
C578 O600 1.234 . S
C578 O601 1.283 . S
C579 O591 1.281 . S
C579 O592 1.236 . S
C580 O602 1.240 . S
C580 O603 1.264 . S
O581 Mn576 2.095 . S
O581 C590 1.250 . S
O582 Mn577 2.121 . S
O582 C590 1.258 . S
C583 N584 1.326 . S
C583 C587 1.460 . S
C583 H589 0.929 . S
N584 Mn577 2.257 . S
N584 C583 1.326 . S
N584 C588 1.362 . S
C585 C586 1.258 . S
C585 C588 1.431 . S
C585 C605 1.449 . S
C586 C585 1.258 . S
C586 C587 1.477 . S
C586 H606 0.931 . S
C587 C583 1.460 . S
C587 C586 1.477 . S
C587 H607 0.930 . S
C588 N584 1.362 . S
C588 C585 1.431 . S
C588 C598 1.476 . S
H589 C583 0.929 . S
C590 O581 1.250 . S
C590 O582 1.258 . S
O591 Mn576 2.162 . S
O591 C579 1.281 . S
O592 Mn576 2.297 . S
O592 C579 1.236 . S
N593 Mn577 2.282 . S
N593 C594 1.328 . S
N593 C598 1.318 . S
C594 N593 1.328 . S
C594 C595 1.457 . S
C594 H599 0.929 . S
C595 C594 1.457 . S
C595 C596 1.291 . S
C595 H608 0.931 . S
C596 C595 1.291 . S
C596 C597 1.373 . S
C596 H609 0.929 . S
C597 C596 1.373 . S
C597 C598 1.396 . S
C597 C604 1.403 . S
C598 C588 1.476 . S
C598 N593 1.318 . S
C598 C597 1.396 . S
H599 C594 0.929 . S
O600 Mn576 2.385 . S
O600 C578 1.234 . S
O601 Mn576 2.209 . S
O601 Mn577 2.215 . S
O601 C578 1.283 . S
O602 Mn576 2.094 . S
O602 C580 1.240 . S
O603 Mn577 2.117 . S
O603 C580 1.264 . S
C604 C597 1.403 . S
C604 C605 1.399 . S
C604 H610 0.929 . S
C605 C585 1.449 . S
C605 C604 1.399 . S
C605 H611 0.930 . S
H606 C586 0.931 . S
H607 C587 0.930 . S
H608 C595 0.931 . S
H609 C596 0.929 . S
H610 C604 0.929 . S
H611 C605 0.930 . S
Mn612 O617 2.095 . S
Mn612 O627 2.162 . S
Mn612 O628 2.297 . S
Mn612 O636 2.385 . S
Mn612 O637 2.209 . S
Mn612 O638 2.094 . S
Mn613 O618 2.121 . S
Mn613 N620 2.257 . S
Mn613 N629 2.282 . S
Mn613 O637 2.215 . S
Mn613 O639 2.117 . S
C614 O636 1.234 . S
C614 O637 1.283 . S
C615 O627 1.281 . S
C615 O628 1.236 . S
C616 O638 1.240 . S
C616 O639 1.264 . S
O617 Mn612 2.095 . S
O617 C626 1.250 . S
O618 Mn613 2.121 . S
O618 C626 1.258 . S
C619 N620 1.326 . S
C619 C623 1.460 . S
C619 H625 0.929 . S
N620 Mn613 2.257 . S
N620 C619 1.326 . S
N620 C624 1.362 . S
C621 C622 1.258 . S
C621 C624 1.431 . S
C621 C641 1.449 . S
C622 C621 1.258 . S
C622 C623 1.477 . S
C622 H642 0.931 . S
C623 C619 1.460 . S
C623 C622 1.477 . S
C623 H643 0.930 . S
C624 N620 1.362 . S
C624 C621 1.431 . S
C624 C634 1.476 . S
H625 C619 0.929 . S
C626 O617 1.250 . S
C626 O618 1.258 . S
O627 Mn612 2.162 . S
O627 C615 1.281 . S
O628 Mn612 2.297 . S
O628 C615 1.236 . S
N629 Mn613 2.282 . S
N629 C630 1.328 . S
N629 C634 1.318 . S
C630 N629 1.328 . S
C630 C631 1.457 . S
C630 H635 0.929 . S
C631 C630 1.457 . S
C631 C632 1.291 . S
C631 H644 0.931 . S
C632 C631 1.291 . S
C632 C633 1.373 . S
C632 H645 0.929 . S
C633 C632 1.373 . S
C633 C634 1.396 . S
C633 C640 1.403 . S
C634 C624 1.476 . S
C634 N629 1.318 . S
C634 C633 1.396 . S
H635 C630 0.929 . S
O636 Mn612 2.385 . S
O636 C614 1.234 . S
O637 Mn612 2.209 . S
O637 Mn613 2.215 . S
O637 C614 1.283 . S
O638 Mn612 2.094 . S
O638 C616 1.240 . S
O639 Mn613 2.117 . S
O639 C616 1.264 . S
C640 C633 1.403 . S
C640 C641 1.399 . S
C640 H646 0.929 . S
C641 C621 1.449 . S
C641 C640 1.399 . S
C641 H647 0.930 . S
H642 C622 0.931 . S
H643 C623 0.930 . S
H644 C631 0.931 . S
H645 C632 0.929 . S
H646 C640 0.929 . S
H647 C641 0.930 . S
Mn648 O653 2.095 . S
Mn648 O663 2.162 . S
Mn648 O664 2.297 . S
Mn648 O672 2.385 . S
Mn648 O673 2.209 . S
Mn648 O674 2.094 . S
Mn649 O654 2.121 . S
Mn649 N656 2.257 . S
Mn649 N665 2.282 . S
Mn649 O673 2.215 . S
Mn649 O675 2.117 . S
C650 O672 1.234 . S
C650 O673 1.283 . S
C651 O663 1.281 . S
C651 O664 1.236 . S
C652 O674 1.240 . S
C652 O675 1.264 . S
O653 Mn648 2.095 . S
O653 C662 1.250 . S
O654 Mn649 2.121 . S
O654 C662 1.258 . S
C655 N656 1.326 . S
C655 C659 1.460 . S
C655 H661 0.929 . S
N656 Mn649 2.257 . S
N656 C655 1.326 . S
N656 C660 1.362 . S
C657 C658 1.258 . S
C657 C660 1.431 . S
C657 C677 1.449 . S
C658 C657 1.258 . S
C658 C659 1.477 . S
C658 H678 0.931 . S
C659 C655 1.460 . S
C659 C658 1.477 . S
C659 H679 0.930 . S
C660 N656 1.362 . S
C660 C657 1.431 . S
C660 C670 1.476 . S
H661 C655 0.929 . S
C662 O653 1.250 . S
C662 O654 1.258 . S
O663 Mn648 2.162 . S
O663 C651 1.281 . S
O664 Mn648 2.297 . S
O664 C651 1.236 . S
N665 Mn649 2.282 . S
N665 C666 1.328 . S
N665 C670 1.318 . S
C666 N665 1.328 . S
C666 C667 1.457 . S
C666 H671 0.929 . S
C667 C666 1.457 . S
C667 C668 1.291 . S
C667 H680 0.931 . S
C668 C667 1.291 . S
C668 C669 1.373 . S
C668 H681 0.929 . S
C669 C668 1.373 . S
C669 C670 1.396 . S
C669 C676 1.403 . S
C670 C660 1.476 . S
C670 N665 1.318 . S
C670 C669 1.396 . S
H671 C666 0.929 . S
O672 Mn648 2.385 . S
O672 C650 1.234 . S
O673 Mn648 2.209 . S
O673 Mn649 2.215 . S
O673 C650 1.283 . S
O674 Mn648 2.094 . S
O674 C652 1.240 . S
O675 Mn649 2.117 . S
O675 C652 1.264 . S
C676 C669 1.403 . S
C676 C677 1.399 . S
C676 H682 0.929 . S
C677 C657 1.449 . S
C677 C676 1.399 . S
C677 H683 0.930 . S
H678 C658 0.931 . S
H679 C659 0.930 . S
H680 C667 0.931 . S
H681 C668 0.929 . S
H682 C676 0.929 . S
H683 C677 0.930 . S
Mn684 O689 2.095 . S
Mn684 O699 2.162 . S
Mn684 O700 2.297 . S
Mn684 O708 2.385 . S
Mn684 O709 2.209 . S
Mn684 O710 2.094 . S
Mn685 O690 2.121 . S
Mn685 N692 2.257 . S
Mn685 N701 2.282 . S
Mn685 O709 2.215 . S
Mn685 O711 2.117 . S
C686 O708 1.234 . S
C686 O709 1.283 . S
C687 O699 1.281 . S
C687 O700 1.236 . S
C688 O710 1.240 . S
C688 O711 1.264 . S
O689 Mn684 2.095 . S
O689 C698 1.250 . S
O690 Mn685 2.121 . S
O690 C698 1.258 . S
C691 N692 1.326 . S
C691 C695 1.460 . S
C691 H697 0.929 . S
N692 Mn685 2.257 . S
N692 C691 1.326 . S
N692 C696 1.362 . S
C693 C694 1.258 . S
C693 C696 1.431 . S
C693 C713 1.449 . S
C694 C693 1.258 . S
C694 C695 1.477 . S
C694 H714 0.931 . S
C695 C691 1.460 . S
C695 C694 1.477 . S
C695 H715 0.930 . S
C696 N692 1.362 . S
C696 C693 1.431 . S
C696 C706 1.476 . S
H697 C691 0.929 . S
C698 O689 1.250 . S
C698 O690 1.258 . S
O699 Mn684 2.162 . S
O699 C687 1.281 . S
O700 Mn684 2.297 . S
O700 C687 1.236 . S
N701 Mn685 2.282 . S
N701 C702 1.328 . S
N701 C706 1.318 . S
C702 N701 1.328 . S
C702 C703 1.457 . S
C702 H707 0.929 . S
C703 C702 1.457 . S
C703 C704 1.291 . S
C703 H716 0.931 . S
C704 C703 1.291 . S
C704 C705 1.373 . S
C704 H717 0.929 . S
C705 C704 1.373 . S
C705 C706 1.396 . S
C705 C712 1.403 . S
C706 C696 1.476 . S
C706 N701 1.318 . S
C706 C705 1.396 . S
H707 C702 0.929 . S
O708 Mn684 2.385 . S
O708 C686 1.234 . S
O709 Mn684 2.209 . S
O709 Mn685 2.215 . S
O709 C686 1.283 . S
O710 Mn684 2.094 . S
O710 C688 1.240 . S
O711 Mn685 2.117 . S
O711 C688 1.264 . S
C712 C705 1.403 . S
C712 C713 1.399 . S
C712 H718 0.929 . S
C713 C693 1.449 . S
C713 C712 1.399 . S
C713 H719 0.930 . S
H714 C694 0.931 . S
H715 C695 0.930 . S
H716 C703 0.931 . S
H717 C704 0.929 . S
H718 C712 0.929 . S
H719 C713 0.930 . S
Mn720 O725 2.095 . S
Mn720 O735 2.162 . S
Mn720 O736 2.297 . S
Mn720 O744 2.385 . S
Mn720 O745 2.209 . S
Mn720 O746 2.094 . S
Mn721 O726 2.121 . S
Mn721 N728 2.257 . S
Mn721 N737 2.282 . S
Mn721 O745 2.215 . S
Mn721 O747 2.117 . S
C722 O744 1.234 . S
C722 O745 1.283 . S
C723 O735 1.281 . S
C723 O736 1.236 . S
C724 O746 1.240 . S
C724 O747 1.264 . S
O725 Mn720 2.095 . S
O725 C734 1.250 . S
O726 Mn721 2.121 . S
O726 C734 1.258 . S
C727 N728 1.326 . S
C727 C731 1.460 . S
C727 H733 0.929 . S
N728 Mn721 2.257 . S
N728 C727 1.326 . S
N728 C732 1.362 . S
C729 C730 1.258 . S
C729 C732 1.431 . S
C729 C749 1.449 . S
C730 C729 1.258 . S
C730 C731 1.477 . S
C730 H750 0.931 . S
C731 C727 1.460 . S
C731 C730 1.477 . S
C731 H751 0.930 . S
C732 N728 1.362 . S
C732 C729 1.431 . S
C732 C742 1.476 . S
H733 C727 0.929 . S
C734 O725 1.250 . S
C734 O726 1.258 . S
O735 Mn720 2.162 . S
O735 C723 1.281 . S
O736 Mn720 2.297 . S
O736 C723 1.236 . S
N737 Mn721 2.282 . S
N737 C738 1.328 . S
N737 C742 1.318 . S
C738 N737 1.328 . S
C738 C739 1.457 . S
C738 H743 0.929 . S
C739 C738 1.457 . S
C739 C740 1.291 . S
C739 H752 0.931 . S
C740 C739 1.291 . S
C740 C741 1.373 . S
C740 H753 0.929 . S
C741 C740 1.373 . S
C741 C742 1.396 . S
C741 C748 1.403 . S
C742 C732 1.476 . S
C742 N737 1.318 . S
C742 C741 1.396 . S
H743 C738 0.929 . S
O744 Mn720 2.385 . S
O744 C722 1.234 . S
O745 Mn720 2.209 . S
O745 Mn721 2.215 . S
O745 C722 1.283 . S
O746 Mn720 2.094 . S
O746 C724 1.240 . S
O747 Mn721 2.117 . S
O747 C724 1.264 . S
C748 C741 1.403 . S
C748 C749 1.399 . S
C748 H754 0.929 . S
C749 C729 1.449 . S
C749 C748 1.399 . S
C749 H755 0.930 . S
H750 C730 0.931 . S
H751 C731 0.930 . S
H752 C739 0.931 . S
H753 C740 0.929 . S
H754 C748 0.929 . S
H755 C749 0.930 . S
Mn756 O761 2.095 . S
Mn756 O771 2.162 . S
Mn756 O772 2.297 . S
Mn756 O780 2.385 . S
Mn756 O781 2.209 . S
Mn756 O782 2.094 . S
Mn757 O762 2.121 . S
Mn757 N764 2.257 . S
Mn757 N773 2.282 . S
Mn757 O781 2.215 . S
Mn757 O783 2.117 . S
C758 O780 1.234 . S
C758 O781 1.283 . S
C759 O771 1.281 . S
C759 O772 1.236 . S
C760 O782 1.240 . S
C760 O783 1.264 . S
O761 Mn756 2.095 . S
O761 C770 1.250 . S
O762 Mn757 2.121 . S
O762 C770 1.258 . S
C763 N764 1.326 . S
C763 C767 1.460 . S
C763 H769 0.929 . S
N764 Mn757 2.257 . S
N764 C763 1.326 . S
N764 C768 1.362 . S
C765 C766 1.258 . S
C765 C768 1.431 . S
C765 C785 1.449 . S
C766 C765 1.258 . S
C766 C767 1.477 . S
C766 H786 0.931 . S
C767 C763 1.460 . S
C767 C766 1.477 . S
C767 H787 0.930 . S
C768 N764 1.362 . S
C768 C765 1.431 . S
C768 C778 1.476 . S
H769 C763 0.929 . S
C770 O761 1.250 . S
C770 O762 1.258 . S
O771 Mn756 2.162 . S
O771 C759 1.281 . S
O772 Mn756 2.297 . S
O772 C759 1.236 . S
N773 Mn757 2.282 . S
N773 C774 1.328 . S
N773 C778 1.318 . S
C774 N773 1.328 . S
C774 C775 1.457 . S
C774 H779 0.929 . S
C775 C774 1.457 . S
C775 C776 1.291 . S
C775 H788 0.931 . S
C776 C775 1.291 . S
C776 C777 1.373 . S
C776 H789 0.929 . S
C777 C776 1.373 . S
C777 C778 1.396 . S
C777 C784 1.403 . S
C778 C768 1.476 . S
C778 N773 1.318 . S
C778 C777 1.396 . S
H779 C774 0.929 . S
O780 Mn756 2.385 . S
O780 C758 1.234 . S
O781 Mn756 2.209 . S
O781 Mn757 2.215 . S
O781 C758 1.283 . S
O782 Mn756 2.094 . S
O782 C760 1.240 . S
O783 Mn757 2.117 . S
O783 C760 1.264 . S
C784 C777 1.403 . S
C784 C785 1.399 . S
C784 H790 0.929 . S
C785 C765 1.449 . S
C785 C784 1.399 . S
C785 H791 0.930 . S
H786 C766 0.931 . S
H787 C767 0.930 . S
H788 C775 0.931 . S
H789 C776 0.929 . S
H790 C784 0.929 . S
H791 C785 0.930 . S
Mn792 O797 2.095 . S
Mn792 O807 2.162 . S
Mn792 O808 2.297 . S
Mn792 O816 2.385 . S
Mn792 O817 2.209 . S
Mn792 O818 2.094 . S
Mn793 O798 2.121 . S
Mn793 N800 2.257 . S
Mn793 N809 2.282 . S
Mn793 O817 2.215 . S
Mn793 O819 2.117 . S
C794 O816 1.234 . S
C794 O817 1.283 . S
C795 O807 1.281 . S
C795 O808 1.236 . S
C796 O818 1.240 . S
C796 O819 1.264 . S
O797 Mn792 2.095 . S
O797 C806 1.250 . S
O798 Mn793 2.121 . S
O798 C806 1.258 . S
C799 N800 1.326 . S
C799 C803 1.460 . S
C799 H805 0.929 . S
N800 Mn793 2.257 . S
N800 C799 1.326 . S
N800 C804 1.362 . S
C801 C802 1.258 . S
C801 C804 1.431 . S
C801 C821 1.449 . S
C802 C801 1.258 . S
C802 C803 1.477 . S
C802 H822 0.931 . S
C803 C799 1.460 . S
C803 C802 1.477 . S
C803 H823 0.930 . S
C804 N800 1.362 . S
C804 C801 1.431 . S
C804 C814 1.476 . S
H805 C799 0.929 . S
C806 O797 1.250 . S
C806 O798 1.258 . S
O807 Mn792 2.162 . S
O807 C795 1.281 . S
O808 Mn792 2.297 . S
O808 C795 1.236 . S
N809 Mn793 2.282 . S
N809 C810 1.328 . S
N809 C814 1.318 . S
C810 N809 1.328 . S
C810 C811 1.457 . S
C810 H815 0.929 . S
C811 C810 1.457 . S
C811 C812 1.291 . S
C811 H824 0.931 . S
C812 C811 1.291 . S
C812 C813 1.373 . S
C812 H825 0.929 . S
C813 C812 1.373 . S
C813 C814 1.396 . S
C813 C820 1.403 . S
C814 C804 1.476 . S
C814 N809 1.318 . S
C814 C813 1.396 . S
H815 C810 0.929 . S
O816 Mn792 2.385 . S
O816 C794 1.234 . S
O817 Mn792 2.209 . S
O817 Mn793 2.215 . S
O817 C794 1.283 . S
O818 Mn792 2.094 . S
O818 C796 1.240 . S
O819 Mn793 2.117 . S
O819 C796 1.264 . S
C820 C813 1.403 . S
C820 C821 1.399 . S
C820 H826 0.929 . S
C821 C801 1.449 . S
C821 C820 1.399 . S
C821 H827 0.930 . S
H822 C802 0.931 . S
H823 C803 0.930 . S
H824 C811 0.931 . S
H825 C812 0.929 . S
H826 C820 0.929 . S
H827 C821 0.930 . S
Mn828 O833 2.095 . S
Mn828 O843 2.162 . S
Mn828 O844 2.297 . S
Mn828 O852 2.385 . S
Mn828 O853 2.209 . S
Mn828 O854 2.094 . S
Mn829 O834 2.121 . S
Mn829 N836 2.257 . S
Mn829 N845 2.282 . S
Mn829 O853 2.215 . S
Mn829 O855 2.117 . S
C830 O852 1.234 . S
C830 O853 1.283 . S
C831 O843 1.281 . S
C831 O844 1.236 . S
C832 O854 1.240 . S
C832 O855 1.264 . S
O833 Mn828 2.095 . S
O833 C842 1.250 . S
O834 Mn829 2.121 . S
O834 C842 1.258 . S
C835 N836 1.326 . S
C835 C839 1.460 . S
C835 H841 0.929 . S
N836 Mn829 2.257 . S
N836 C835 1.326 . S
N836 C840 1.362 . S
C837 C838 1.258 . S
C837 C840 1.431 . S
C837 C857 1.449 . S
C838 C837 1.258 . S
C838 C839 1.477 . S
C838 H858 0.931 . S
C839 C835 1.460 . S
C839 C838 1.477 . S
C839 H859 0.930 . S
C840 N836 1.362 . S
C840 C837 1.431 . S
C840 C850 1.476 . S
H841 C835 0.929 . S
C842 O833 1.250 . S
C842 O834 1.258 . S
O843 Mn828 2.162 . S
O843 C831 1.281 . S
O844 Mn828 2.297 . S
O844 C831 1.236 . S
N845 Mn829 2.282 . S
N845 C846 1.328 . S
N845 C850 1.318 . S
C846 N845 1.328 . S
C846 C847 1.457 . S
C846 H851 0.929 . S
C847 C846 1.457 . S
C847 C848 1.291 . S
C847 H860 0.931 . S
C848 C847 1.291 . S
C848 C849 1.373 . S
C848 H861 0.929 . S
C849 C848 1.373 . S
C849 C850 1.396 . S
C849 C856 1.403 . S
C850 C840 1.476 . S
C850 N845 1.318 . S
C850 C849 1.396 . S
H851 C846 0.929 . S
O852 Mn828 2.385 . S
O852 C830 1.234 . S
O853 Mn828 2.209 . S
O853 Mn829 2.215 . S
O853 C830 1.283 . S
O854 Mn828 2.094 . S
O854 C832 1.240 . S
O855 Mn829 2.117 . S
O855 C832 1.264 . S
C856 C849 1.403 . S
C856 C857 1.399 . S
C856 H862 0.929 . S
C857 C837 1.449 . S
C857 C856 1.399 . S
C857 H863 0.930 . S
H858 C838 0.931 . S
H859 C839 0.930 . S
H860 C847 0.931 . S
H861 C848 0.929 . S
H862 C856 0.929 . S
H863 C857 0.930 . S
H864 C872 0.950 . S
H865 C877 0.950 . S
H866 C874 0.950 . S
H867 C876 0.950 . S
H868 C878 0.950 . S
H869 C880 0.950 . S
H870 C882 0.950 . S
H871 C883 0.950 . S
C872 H864 0.950 . S
C872 C873 1.386 . S
C872 C874 1.391 . S
C873 C872 1.386 . S
C873 C877 1.393 . S
C874 H866 0.950 . S
C874 C872 1.391 . S
C874 C875 1.400 . S
C875 C874 1.400 . S
C875 C876 1.398 . S
C875 C881 1.491 . S
C876 H867 0.950 . S
C876 C875 1.398 . S
C876 C877 1.391 . S
C877 H865 0.950 . S
C877 C873 1.393 . S
C877 C876 1.391 . S
C878 H868 0.950 . S
C878 C879 1.386 . S
C878 C880 1.391 . S
C879 C878 1.386 . S
C879 C883 1.393 . S
C880 H869 0.950 . S
C880 C878 1.391 . S
C880 C881 1.400 . S
C881 C875 1.491 . S
C881 C880 1.400 . S
C881 C882 1.398 . S
C882 H870 0.950 . S
C882 C881 1.398 . S
C882 C883 1.391 . S
C883 H871 0.950 . S
C883 C879 1.393 . S
C883 C882 1.391 . S
H884 C892 0.950 . S
H885 C897 0.950 . S
H886 C894 0.950 . S
H887 C896 0.950 . S
H888 C898 0.950 . S
H889 C900 0.950 . S
H890 C902 0.950 . S
H891 C903 0.950 . S
C892 H884 0.950 . S
C892 C893 1.386 . S
C892 C894 1.391 . S
C893 C892 1.386 . S
C893 C897 1.393 . S
C894 H886 0.950 . S
C894 C892 1.391 . S
C894 C895 1.400 . S
C895 C894 1.400 . S
C895 C896 1.398 . S
C895 C901 1.491 . S
C896 H887 0.950 . S
C896 C895 1.398 . S
C896 C897 1.391 . S
C897 H885 0.950 . S
C897 C893 1.393 . S
C897 C896 1.391 . S
C898 H888 0.950 . S
C898 C899 1.386 . S
C898 C900 1.391 . S
C899 C898 1.386 . S
C899 C903 1.393 . S
C900 H889 0.950 . S
C900 C898 1.391 . S
C900 C901 1.400 . S
C901 C895 1.491 . S
C901 C900 1.400 . S
C901 C902 1.398 . S
C902 H890 0.950 . S
C902 C901 1.398 . S
C902 C903 1.391 . S
C903 H891 0.950 . S
C903 C899 1.393 . S
C903 C902 1.391 . S
H904 C912 0.950 . S
H905 C917 0.950 . S
H906 C914 0.950 . S
H907 C916 0.950 . S
H908 C918 0.950 . S
H909 C920 0.950 . S
H910 C922 0.950 . S
H911 C923 0.950 . S
C912 H904 0.950 . S
C912 C913 1.386 . S
C912 C914 1.391 . S
C913 C912 1.386 . S
C913 C917 1.393 . S
C914 H906 0.950 . S
C914 C912 1.391 . S
C914 C915 1.400 . S
C915 C914 1.400 . S
C915 C916 1.398 . S
C915 C921 1.491 . S
C916 H907 0.950 . S
C916 C915 1.398 . S
C916 C917 1.391 . S
C917 H905 0.950 . S
C917 C913 1.393 . S
C917 C916 1.391 . S
C918 H908 0.950 . S
C918 C919 1.386 . S
C918 C920 1.391 . S
C919 C918 1.386 . S
C919 C923 1.393 . S
C920 H909 0.950 . S
C920 C918 1.391 . S
C920 C921 1.400 . S
C921 C915 1.491 . S
C921 C920 1.400 . S
C921 C922 1.398 . S
C922 H910 0.950 . S
C922 C921 1.398 . S
C922 C923 1.391 . S
C923 H911 0.950 . S
C923 C919 1.393 . S
C923 C922 1.391 . S
H924 C932 0.950 . S
H925 C937 0.950 . S
H926 C934 0.950 . S
H927 C936 0.950 . S
H928 C938 0.950 . S
H929 C940 0.950 . S
H930 C942 0.950 . S
H931 C943 0.950 . S
C932 H924 0.950 . S
C932 C933 1.386 . S
C932 C934 1.391 . S
C933 C932 1.386 . S
C933 C937 1.393 . S
C934 H926 0.950 . S
C934 C932 1.391 . S
C934 C935 1.400 . S
C935 C934 1.400 . S
C935 C936 1.398 . S
C935 C941 1.491 . S
C936 H927 0.950 . S
C936 C935 1.398 . S
C936 C937 1.391 . S
C937 H925 0.950 . S
C937 C933 1.393 . S
C937 C936 1.391 . S
C938 H928 0.950 . S
C938 C939 1.386 . S
C938 C940 1.391 . S
C939 C938 1.386 . S
C939 C943 1.393 . S
C940 H929 0.950 . S
C940 C938 1.391 . S
C940 C941 1.400 . S
C941 C935 1.491 . S
C941 C940 1.400 . S
C941 C942 1.398 . S
C942 H930 0.950 . S
C942 C941 1.398 . S
C942 C943 1.391 . S
C943 H931 0.950 . S
C943 C939 1.393 . S
C943 C942 1.391 . S
H944 C952 0.950 . S
H945 C957 0.950 . S
H946 C954 0.950 . S
H947 C956 0.950 . S
H948 C958 0.950 . S
H949 C960 0.950 . S
H950 C962 0.950 . S
H951 C963 0.950 . S
C952 H944 0.950 . S
C952 C953 1.386 . S
C952 C954 1.391 . S
C953 C952 1.386 . S
C953 C957 1.393 . S
C954 H946 0.950 . S
C954 C952 1.391 . S
C954 C955 1.400 . S
C955 C954 1.400 . S
C955 C956 1.398 . S
C955 C961 1.491 . S
C956 H947 0.950 . S
C956 C955 1.398 . S
C956 C957 1.391 . S
C957 H945 0.950 . S
C957 C953 1.393 . S
C957 C956 1.391 . S
C958 H948 0.950 . S
C958 C959 1.386 . S
C958 C960 1.391 . S
C959 C958 1.386 . S
C959 C963 1.393 . S
C960 H949 0.950 . S
C960 C958 1.391 . S
C960 C961 1.400 . S
C961 C955 1.491 . S
C961 C960 1.400 . S
C961 C962 1.398 . S
C962 H950 0.950 . S
C962 C961 1.398 . S
C962 C963 1.391 . S
C963 H951 0.950 . S
C963 C959 1.393 . S
C963 C962 1.391 . S
H964 C972 0.950 . S
H965 C977 0.950 . S
H966 C974 0.950 . S
H967 C976 0.950 . S
H968 C978 0.950 . S
H969 C980 0.950 . S
H970 C982 0.950 . S
H971 C983 0.950 . S
C972 H964 0.950 . S
C972 C973 1.386 . S
C972 C974 1.391 . S
C973 C972 1.386 . S
C973 C977 1.393 . S
C974 H966 0.950 . S
C974 C972 1.391 . S
C974 C975 1.400 . S
C975 C974 1.400 . S
C975 C976 1.398 . S
C975 C981 1.491 . S
C976 H967 0.950 . S
C976 C975 1.398 . S
C976 C977 1.391 . S
C977 H965 0.950 . S
C977 C973 1.393 . S
C977 C976 1.391 . S
C978 H968 0.950 . S
C978 C979 1.386 . S
C978 C980 1.391 . S
C979 C978 1.386 . S
C979 C983 1.393 . S
C980 H969 0.950 . S
C980 C978 1.391 . S
C980 C981 1.400 . S
C981 C975 1.491 . S
C981 C980 1.400 . S
C981 C982 1.398 . S
C982 H970 0.950 . S
C982 C981 1.398 . S
C982 C983 1.391 . S
C983 H971 0.950 . S
C983 C979 1.393 . S
C983 C982 1.391 . S
H984 C992 0.950 . S
H985 C997 0.950 . S
H986 C994 0.950 . S
H987 C996 0.950 . S
H988 C998 0.950 . S
H989 C1000 0.950 . S
H990 C1002 0.950 . S
H991 C1003 0.950 . S
C992 H984 0.950 . S
C992 C993 1.386 . S
C992 C994 1.391 . S
C993 C992 1.386 . S
C993 C997 1.393 . S
C994 H986 0.950 . S
C994 C992 1.391 . S
C994 C995 1.400 . S
C995 C994 1.400 . S
C995 C996 1.398 . S
C995 C1001 1.491 . S
C996 H987 0.950 . S
C996 C995 1.398 . S
C996 C997 1.391 . S
C997 H985 0.950 . S
C997 C993 1.393 . S
C997 C996 1.391 . S
C998 H988 0.950 . S
C998 C999 1.386 . S
C998 C1000 1.391 . S
C999 C998 1.386 . S
C999 C1003 1.393 . S
C1000 H989 0.950 . S
C1000 C998 1.391 . S
C1000 C1001 1.400 . S
C1001 C995 1.491 . S
C1001 C1000 1.400 . S
C1001 C1002 1.398 . S
C1002 H990 0.950 . S
C1002 C1001 1.398 . S
C1002 C1003 1.391 . S
C1003 H991 0.950 . S
C1003 C999 1.393 . S
C1003 C1002 1.391 . S
H1004 C1012 0.950 . S
H1005 C1017 0.950 . S
H1006 C1014 0.950 . S
H1007 C1016 0.950 . S
H1008 C1018 0.950 . S
H1009 C1020 0.950 . S
H1010 C1022 0.950 . S
H1011 C1023 0.950 . S
C1012 H1004 0.950 . S
C1012 C1013 1.386 . S
C1012 C1014 1.391 . S
C1013 C1012 1.386 . S
C1013 C1017 1.393 . S
C1014 H1006 0.950 . S
C1014 C1012 1.391 . S
C1014 C1015 1.400 . S
C1015 C1014 1.400 . S
C1015 C1016 1.398 . S
C1015 C1021 1.491 . S
C1016 H1007 0.950 . S
C1016 C1015 1.398 . S
C1016 C1017 1.391 . S
C1017 H1005 0.950 . S
C1017 C1013 1.393 . S
C1017 C1016 1.391 . S
C1018 H1008 0.950 . S
C1018 C1019 1.386 . S
C1018 C1020 1.391 . S
C1019 C1018 1.386 . S
C1019 C1023 1.393 . S
C1020 H1009 0.950 . S
C1020 C1018 1.391 . S
C1020 C1021 1.400 . S
C1021 C1015 1.491 . S
C1021 C1020 1.400 . S
C1021 C1022 1.398 . S
C1022 H1010 0.950 . S
C1022 C1021 1.398 . S
C1022 C1023 1.391 . S
C1023 H1011 0.950 . S
C1023 C1019 1.393 . S
C1023 C1022 1.391 . S
H1024 C1032 0.950 . S
H1025 C1037 0.950 . S
H1026 C1034 0.950 . S
H1027 C1036 0.950 . S
H1028 C1038 0.950 . S
H1029 C1040 0.950 . S
H1030 C1042 0.950 . S
H1031 C1043 0.950 . S
C1032 H1024 0.950 . S
C1032 C1033 1.386 . S
C1032 C1034 1.391 . S
C1033 C1032 1.386 . S
C1033 C1037 1.393 . S
C1034 H1026 0.950 . S
C1034 C1032 1.391 . S
C1034 C1035 1.400 . S
C1035 C1034 1.400 . S
C1035 C1036 1.398 . S
C1035 C1041 1.491 . S
C1036 H1027 0.950 . S
C1036 C1035 1.398 . S
C1036 C1037 1.391 . S
C1037 H1025 0.950 . S
C1037 C1033 1.393 . S
C1037 C1036 1.391 . S
C1038 H1028 0.950 . S
C1038 C1039 1.386 . S
C1038 C1040 1.391 . S
C1039 C1038 1.386 . S
C1039 C1043 1.393 . S
C1040 H1029 0.950 . S
C1040 C1038 1.391 . S
C1040 C1041 1.400 . S
C1041 C1035 1.491 . S
C1041 C1040 1.400 . S
C1041 C1042 1.398 . S
C1042 H1030 0.950 . S
C1042 C1041 1.398 . S
C1042 C1043 1.391 . S
C1043 H1031 0.950 . S
C1043 C1039 1.393 . S
C1043 C1042 1.391 . S
H1044 C1052 0.950 . S
H1045 C1057 0.950 . S
H1046 C1054 0.950 . S
H1047 C1056 0.950 . S
H1048 C1058 0.950 . S
H1049 C1060 0.950 . S
H1050 C1062 0.950 . S
H1051 C1063 0.950 . S
C1052 H1044 0.950 . S
C1052 C1053 1.386 . S
C1052 C1054 1.391 . S
C1053 C1052 1.386 . S
C1053 C1057 1.393 . S
C1054 H1046 0.950 . S
C1054 C1052 1.391 . S
C1054 C1055 1.400 . S
C1055 C1054 1.400 . S
C1055 C1056 1.398 . S
C1055 C1061 1.491 . S
C1056 H1047 0.950 . S
C1056 C1055 1.398 . S
C1056 C1057 1.391 . S
C1057 H1045 0.950 . S
C1057 C1053 1.393 . S
C1057 C1056 1.391 . S
C1058 H1048 0.950 . S
C1058 C1059 1.386 . S
C1058 C1060 1.391 . S
C1059 C1058 1.386 . S
C1059 C1063 1.393 . S
C1060 H1049 0.950 . S
C1060 C1058 1.391 . S
C1060 C1061 1.400 . S
C1061 C1055 1.491 . S
C1061 C1060 1.400 . S
C1061 C1062 1.398 . S
C1062 H1050 0.950 . S
C1062 C1061 1.398 . S
C1062 C1063 1.391 . S
C1063 H1051 0.950 . S
C1063 C1059 1.393 . S
C1063 C1062 1.391 . S
H1064 C1072 0.950 . S
H1065 C1077 0.950 . S
H1066 C1074 0.950 . S
H1067 C1076 0.950 . S
H1068 C1078 0.950 . S
H1069 C1080 0.950 . S
H1070 C1082 0.950 . S
H1071 C1083 0.950 . S
C1072 H1064 0.950 . S
C1072 C1073 1.386 . S
C1072 C1074 1.391 . S
C1073 C1072 1.386 . S
C1073 C1077 1.393 . S
C1074 H1066 0.950 . S
C1074 C1072 1.391 . S
C1074 C1075 1.400 . S
C1075 C1074 1.400 . S
C1075 C1076 1.398 . S
C1075 C1081 1.491 . S
C1076 H1067 0.950 . S
C1076 C1075 1.398 . S
C1076 C1077 1.391 . S
C1077 H1065 0.950 . S
C1077 C1073 1.393 . S
C1077 C1076 1.391 . S
C1078 H1068 0.950 . S
C1078 C1079 1.386 . S
C1078 C1080 1.391 . S
C1079 C1078 1.386 . S
C1079 C1083 1.393 . S
C1080 H1069 0.950 . S
C1080 C1078 1.391 . S
C1080 C1081 1.400 . S
C1081 C1075 1.491 . S
C1081 C1080 1.400 . S
C1081 C1082 1.398 . S
C1082 H1070 0.950 . S
C1082 C1081 1.398 . S
C1082 C1083 1.391 . S
C1083 H1071 0.950 . S
C1083 C1079 1.393 . S
C1083 C1082 1.391 . S
H1084 C1092 0.950 . S
H1085 C1097 0.950 . S
H1086 C1094 0.950 . S
H1087 C1096 0.950 . S
H1088 C1098 0.950 . S
H1089 C1100 0.950 . S
H1090 C1102 0.950 . S
H1091 C1103 0.950 . S
C1092 H1084 0.950 . S
C1092 C1093 1.386 . S
C1092 C1094 1.391 . S
C1093 C1092 1.386 . S
C1093 C1097 1.393 . S
C1094 H1086 0.950 . S
C1094 C1092 1.391 . S
C1094 C1095 1.400 . S
C1095 C1094 1.400 . S
C1095 C1096 1.398 . S
C1095 C1101 1.491 . S
C1096 H1087 0.950 . S
C1096 C1095 1.398 . S
C1096 C1097 1.391 . S
C1097 H1085 0.950 . S
C1097 C1093 1.393 . S
C1097 C1096 1.391 . S
C1098 H1088 0.950 . S
C1098 C1099 1.386 . S
C1098 C1100 1.391 . S
C1099 C1098 1.386 . S
C1099 C1103 1.393 . S
C1100 H1089 0.950 . S
C1100 C1098 1.391 . S
C1100 C1101 1.400 . S
C1101 C1095 1.491 . S
C1101 C1100 1.400 . S
C1101 C1102 1.398 . S
C1102 H1090 0.950 . S
C1102 C1101 1.398 . S
C1102 C1103 1.391 . S
C1103 H1091 0.950 . S
C1103 C1099 1.393 . S
C1103 C1102 1.391 . S
H1104 C1112 0.950 . S
H1105 C1117 0.950 . S
H1106 C1114 0.950 . S
H1107 C1116 0.952 . S
H1108 C1118 0.950 . S
H1109 C1120 0.950 . S
H1110 C1122 0.952 . S
H1111 C1123 0.950 . S
C1112 H1104 0.950 . S
C1112 C1113 1.386 . S
C1112 C1114 1.391 . S
C1113 C1112 1.386 . S
C1113 C1117 1.393 . S
C1114 H1106 0.950 . S
C1114 C1112 1.391 . S
C1114 C1115 1.400 . S
C1115 C1114 1.400 . S
C1115 C1116 1.398 1_556 S
C1115 C1121 1.491 1_556 S
C1116 H1107 0.952 . S
C1116 C1115 1.398 1_554 S
C1116 C1117 1.389 1_554 S
C1117 H1105 0.950 . S
C1117 C1113 1.393 . S
C1117 C1116 1.389 1_556 S
C1118 H1108 0.950 . S
C1118 C1119 1.386 . S
C1118 C1120 1.391 . S
C1119 C1118 1.386 . S
C1119 C1123 1.393 . S
C1120 H1109 0.950 . S
C1120 C1118 1.391 . S
C1120 C1121 1.400 . S
C1121 C1115 1.491 1_554 S
C1121 C1120 1.400 . S
C1121 C1122 1.398 1_554 S
C1122 H1110 0.952 . S
C1122 C1121 1.398 1_556 S
C1122 C1123 1.389 1_556 S
C1123 H1111 0.950 . S
C1123 C1119 1.393 . S
C1123 C1122 1.389 1_554 S
H1124 C1132 0.950 . S
H1125 C1137 0.950 . S
H1126 C1134 0.950 . S
H1127 C1136 0.950 . S
H1128 C1138 0.950 . S
H1129 C1140 0.950 . S
H1130 C1142 0.950 . S
H1131 C1143 0.950 . S
C1132 H1124 0.950 . S
C1132 C1133 1.386 . S
C1132 C1134 1.391 . S
C1133 C1132 1.386 . S
C1133 C1137 1.393 . S
C1134 H1126 0.950 . S
C1134 C1132 1.391 . S
C1134 C1135 1.400 . S
C1135 C1134 1.400 . S
C1135 C1136 1.398 . S
C1135 C1141 1.491 . S
C1136 H1127 0.950 . S
C1136 C1135 1.398 . S
C1136 C1137 1.391 . S
C1137 H1125 0.950 . S
C1137 C1133 1.393 . S
C1137 C1136 1.391 . S
C1138 H1128 0.950 . S
C1138 C1139 1.386 . S
C1138 C1140 1.391 . S
C1139 C1138 1.386 . S
C1139 C1143 1.393 . S
C1140 H1129 0.950 . S
C1140 C1138 1.391 . S
C1140 C1141 1.400 . S
C1141 C1135 1.491 . S
C1141 C1140 1.400 . S
C1141 C1142 1.398 . S
C1142 H1130 0.950 . S
C1142 C1141 1.398 . S
C1142 C1143 1.391 . S
C1143 H1131 0.950 . S
C1143 C1139 1.393 . S
C1143 C1142 1.391 . S
H1144 C1152 0.950 . S
H1145 C1157 0.950 . S
H1146 C1154 0.950 . S
H1147 C1156 0.950 . S
H1148 C1158 0.950 . S
H1149 C1160 0.950 . S
H1150 C1162 0.950 . S
H1151 C1163 0.950 . S
C1152 H1144 0.950 . S
C1152 C1153 1.386 . S
C1152 C1154 1.391 1_554 S
C1153 C1152 1.386 . S
C1153 C1157 1.393 . S
C1154 H1146 0.950 . S
C1154 C1152 1.391 1_556 S
C1154 C1155 1.400 1_556 S
C1155 C1154 1.400 1_554 S
C1155 C1156 1.398 . S
C1155 C1161 1.491 1_554 S
C1156 H1147 0.950 . S
C1156 C1155 1.398 . S
C1156 C1157 1.391 . S
C1157 H1145 0.950 . S
C1157 C1153 1.393 . S
C1157 C1156 1.391 . S
C1158 H1148 0.950 . S
C1158 C1159 1.386 . S
C1158 C1160 1.391 1_556 S
C1159 C1158 1.386 . S
C1159 C1163 1.393 . S
C1160 H1149 0.950 . S
C1160 C1158 1.391 1_554 S
C1160 C1161 1.400 1_554 S
C1161 C1155 1.491 1_556 S
C1161 C1160 1.400 1_556 S
C1161 C1162 1.398 . S
C1162 H1150 0.950 . S
C1162 C1161 1.398 . S
C1162 C1163 1.391 . S
C1163 H1151 0.950 . S
C1163 C1159 1.393 . S
C1163 C1162 1.391 . S
H1164 C1172 0.950 . S
H1165 C1177 0.950 . S
H1166 C1174 0.950 . S
H1167 C1176 0.950 . S
H1168 C1178 0.950 . S
H1169 C1180 0.950 . S
H1170 C1182 0.950 . S
H1171 C1183 0.950 . S
C1172 H1164 0.950 . S
C1172 C1173 1.386 . S
C1172 C1174 1.391 . S
C1173 C1172 1.386 . S
C1173 C1177 1.393 . S
C1174 H1166 0.950 . S
C1174 C1172 1.391 . S
C1174 C1175 1.400 . S
C1175 C1174 1.400 . S
C1175 C1176 1.398 . S
C1175 C1181 1.491 . S
C1176 H1167 0.950 . S
C1176 C1175 1.398 . S
C1176 C1177 1.391 . S
C1177 H1165 0.950 . S
C1177 C1173 1.393 . S
C1177 C1176 1.391 . S
C1178 H1168 0.950 . S
C1178 C1179 1.386 . S
C1178 C1180 1.391 . S
C1179 C1178 1.386 . S
C1179 C1183 1.393 . S
C1180 H1169 0.950 . S
C1180 C1178 1.391 . S
C1180 C1181 1.400 . S
C1181 C1175 1.491 . S
C1181 C1180 1.400 . S
C1181 C1182 1.398 . S
C1182 H1170 0.950 . S
C1182 C1181 1.398 . S
C1182 C1183 1.391 . S
C1183 H1171 0.950 . S
C1183 C1179 1.393 . S
C1183 C1182 1.391 . S
H1184 C1192 0.950 . S
H1185 C1197 0.950 . S
H1186 C1194 0.950 . S
H1187 C1196 0.950 . S
H1188 C1198 0.950 . S
H1189 C1200 0.950 . S
H1190 C1202 0.950 . S
H1191 C1203 0.950 . S
C1192 H1184 0.950 . S
C1192 C1193 1.386 . S
C1192 C1194 1.391 . S
C1193 C1192 1.386 . S
C1193 C1197 1.393 . S
C1194 H1186 0.950 . S
C1194 C1192 1.391 . S
C1194 C1195 1.400 . S
C1195 C1194 1.400 . S
C1195 C1196 1.398 . S
C1195 C1201 1.491 1_556 S
C1196 H1187 0.950 . S
C1196 C1195 1.398 . S
C1196 C1197 1.391 . S
C1197 H1185 0.950 . S
C1197 C1193 1.393 . S
C1197 C1196 1.391 . S
C1198 H1188 0.950 . S
C1198 C1199 1.386 . S
C1198 C1200 1.391 . S
C1199 C1198 1.386 . S
C1199 C1203 1.393 . S
C1200 H1189 0.950 . S
C1200 C1198 1.391 . S
C1200 C1201 1.400 . S
C1201 C1195 1.491 1_554 S
C1201 C1200 1.400 . S
C1201 C1202 1.398 . S
C1202 H1190 0.950 . S
C1202 C1201 1.398 . S
C1202 C1203 1.391 . S
C1203 H1191 0.950 . S
C1203 C1199 1.393 . S
C1203 C1202 1.391 . S
H1204 C1212 0.950 . S
H1205 C1217 0.950 . S
H1206 C1214 0.950 . S
H1207 C1216 0.950 . S
H1208 C1218 0.950 . S
H1209 C1220 0.950 . S
H1210 C1222 0.950 . S
H1211 C1223 0.950 . S
C1212 H1204 0.950 . S
C1212 C1213 1.386 . S
C1212 C1214 1.391 . S
C1213 C1212 1.386 . S
C1213 C1217 1.393 . S
C1214 H1206 0.950 . S
C1214 C1212 1.391 . S
C1214 C1215 1.400 . S
C1215 C1214 1.400 . S
C1215 C1216 1.398 . S
C1215 C1221 1.491 . S
C1216 H1207 0.950 . S
C1216 C1215 1.398 . S
C1216 C1217 1.391 . S
C1217 H1205 0.950 . S
C1217 C1213 1.393 . S
C1217 C1216 1.391 . S
C1218 H1208 0.950 . S
C1218 C1219 1.386 . S
C1218 C1220 1.391 . S
C1219 C1218 1.386 . S
C1219 C1223 1.393 . S
C1220 H1209 0.950 . S
C1220 C1218 1.391 . S
C1220 C1221 1.400 . S
C1221 C1215 1.491 . S
C1221 C1220 1.400 . S
C1221 C1222 1.398 . S
C1222 H1210 0.950 . S
C1222 C1221 1.398 . S
C1222 C1223 1.391 . S
C1223 H1211 0.950 . S
C1223 C1219 1.393 . S
C1223 C1222 1.391 . S
H1224 C1232 0.950 1_556 S
H1225 C1237 0.950 . S
H1226 C1234 0.950 . S
H1227 C1236 0.950 . S
H1228 C1238 0.950 1_554 S
H1229 C1240 0.950 . S
H1230 C1242 0.950 . S
H1231 C1243 0.950 . S
C1232 H1224 0.950 1_554 S
C1232 C1233 1.386 . S
C1232 C1234 1.391 1_554 S
C1233 C1232 1.386 . S
C1233 C1237 1.393 . S
C1234 H1226 0.950 . S
C1234 C1232 1.391 1_556 S
C1234 C1235 1.400 1_556 S
C1235 C1234 1.400 1_554 S
C1235 C1236 1.398 . S
C1235 C1241 1.491 1_554 S
C1236 H1227 0.950 . S
C1236 C1235 1.398 . S
C1236 C1237 1.391 . S
C1237 H1225 0.950 . S
C1237 C1233 1.393 . S
C1237 C1236 1.391 . S
C1238 H1228 0.950 1_556 S
C1238 C1239 1.386 . S
C1238 C1240 1.391 1_556 S
C1239 C1238 1.386 . S
C1239 C1243 1.393 . S
C1240 H1229 0.950 . S
C1240 C1238 1.391 1_554 S
C1240 C1241 1.400 1_554 S
C1241 C1235 1.491 1_556 S
C1241 C1240 1.400 1_556 S
C1241 C1242 1.398 . S
C1242 H1230 0.950 . S
C1242 C1241 1.398 . S
C1242 C1243 1.391 . S
C1243 H1231 0.950 . S
C1243 C1239 1.393 . S
C1243 C1242 1.391 . S
H1244 C1252 0.950 . S
H1245 C1257 0.950 . S
H1246 C1254 0.950 . S
H1247 C1256 0.950 . S
H1248 C1258 0.950 . S
H1249 C1260 0.950 . S
H1250 C1262 0.950 . S
H1251 C1263 0.950 . S
C1252 H1244 0.950 . S
C1252 C1253 1.386 . S
C1252 C1254 1.391 . S
C1253 C1252 1.386 . S
C1253 C1257 1.393 . S
C1254 H1246 0.950 . S
C1254 C1252 1.391 . S
C1254 C1255 1.400 . S
C1255 C1254 1.400 . S
C1255 C1256 1.398 . S
C1255 C1261 1.491 . S
C1256 H1247 0.950 . S
C1256 C1255 1.398 . S
C1256 C1257 1.391 . S
C1257 H1245 0.950 . S
C1257 C1253 1.393 . S
C1257 C1256 1.391 . S
C1258 H1248 0.950 . S
C1258 C1259 1.386 . S
C1258 C1260 1.391 . S
C1259 C1258 1.386 . S
C1259 C1263 1.393 . S
C1260 H1249 0.950 . S
C1260 C1258 1.391 . S
C1260 C1261 1.400 . S
C1261 C1255 1.491 . S
C1261 C1260 1.400 . S
C1261 C1262 1.398 . S
C1262 H1250 0.950 . S
C1262 C1261 1.398 . S
C1262 C1263 1.391 . S
C1263 H1251 0.950 . S
C1263 C1259 1.393 . S
C1263 C1262 1.391 . S
H1264 C1272 0.950 . S
H1265 C1277 0.950 . S
H1266 C1274 0.950 1_554 S
H1267 C1276 0.950 . S
H1268 C1278 0.950 . S
H1269 C1280 0.950 1_556 S
H1270 C1282 0.950 . S
H1271 C1283 0.950 . S
C1272 H1264 0.950 . S
C1272 C1273 1.386 . S
C1272 C1274 1.391 . S
C1273 C1272 1.386 . S
C1273 C1277 1.393 . S
C1274 H1266 0.950 1_556 S
C1274 C1272 1.391 . S
C1274 C1275 1.400 . S
C1275 C1274 1.400 . S
C1275 C1276 1.398 . S
C1275 C1281 1.491 1_556 S
C1276 H1267 0.950 . S
C1276 C1275 1.398 . S
C1276 C1277 1.391 . S
C1277 H1265 0.950 . S
C1277 C1273 1.393 . S
C1277 C1276 1.391 . S
C1278 H1268 0.950 . S
C1278 C1279 1.386 . S
C1278 C1280 1.391 . S
C1279 C1278 1.386 . S
C1279 C1283 1.393 . S
C1280 H1269 0.950 1_554 S
C1280 C1278 1.391 . S
C1280 C1281 1.400 . S
C1281 C1275 1.491 1_554 S
C1281 C1280 1.400 . S
C1281 C1282 1.398 . S
C1282 H1270 0.950 . S
C1282 C1281 1.398 . S
C1282 C1283 1.391 . S
C1283 H1271 0.950 . S
C1283 C1279 1.393 . S
C1283 C1282 1.391 . S
H1284 C1292 0.950 . S
H1285 C1297 0.950 . S
H1286 C1294 0.950 . S
H1287 C1296 0.950 . S
H1288 C1298 0.950 . S
H1289 C1300 0.950 . S
H1290 C1302 0.950 . S
H1291 C1303 0.950 . S
C1292 H1284 0.950 . S
C1292 C1293 1.386 . S
C1292 C1294 1.391 . S
C1293 C1292 1.386 . S
C1293 C1297 1.393 . S
C1294 H1286 0.950 . S
C1294 C1292 1.391 . S
C1294 C1295 1.400 . S
C1295 C1294 1.400 . S
C1295 C1296 1.398 . S
C1295 C1301 1.491 . S
C1296 H1287 0.950 . S
C1296 C1295 1.398 . S
C1296 C1297 1.391 . S
C1297 H1285 0.950 . S
C1297 C1293 1.393 . S
C1297 C1296 1.391 . S
C1298 H1288 0.950 . S
C1298 C1299 1.386 . S
C1298 C1300 1.391 . S
C1299 C1298 1.386 . S
C1299 C1303 1.393 . S
C1300 H1289 0.950 . S
C1300 C1298 1.391 . S
C1300 C1301 1.400 . S
C1301 C1295 1.491 . S
C1301 C1300 1.400 . S
C1301 C1302 1.398 . S
C1302 H1290 0.950 . S
C1302 C1301 1.398 . S
C1302 C1303 1.391 . S
C1303 H1291 0.950 . S
C1303 C1299 1.393 . S
C1303 C1302 1.391 . S
H1304 C1312 0.950 . S
H1305 C1317 0.950 . S
H1306 C1314 0.950 . S
H1307 C1316 0.950 1_554 S
H1308 C1318 0.950 . S
H1309 C1320 0.950 . S
H1310 C1322 0.950 1_556 S
H1311 C1323 0.950 . S
C1312 H1304 0.950 . S
C1312 C1313 1.386 . S
C1312 C1314 1.391 . S
C1313 C1312 1.386 . S
C1313 C1317 1.393 . S
C1314 H1306 0.950 . S
C1314 C1312 1.391 . S
C1314 C1315 1.400 . S
C1315 C1314 1.400 . S
C1315 C1316 1.398 . S
C1315 C1321 1.491 1_556 S
C1316 H1307 0.950 1_556 S
C1316 C1315 1.398 . S
C1316 C1317 1.391 . S
C1317 H1305 0.950 . S
C1317 C1313 1.393 . S
C1317 C1316 1.391 . S
C1318 H1308 0.950 . S
C1318 C1319 1.386 . S
C1318 C1320 1.391 . S
C1319 C1318 1.386 . S
C1319 C1323 1.393 . S
C1320 H1309 0.950 . S
C1320 C1318 1.391 . S
C1320 C1321 1.400 . S
C1321 C1315 1.491 1_554 S
C1321 C1320 1.400 . S
C1321 C1322 1.398 . S
C1322 H1310 0.950 1_554 S
C1322 C1321 1.398 . S
C1322 C1323 1.391 . S
C1323 H1311 0.950 . S
C1323 C1319 1.393 . S
C1323 C1322 1.391 . S
H1324 C1332 0.950 . S
H1325 C1337 0.950 . S
H1326 C1334 0.950 . S
H1327 C1336 0.950 . S
H1328 C1338 0.950 . S
H1329 C1340 0.950 . S
H1330 C1342 0.950 . S
H1331 C1343 0.950 . S
C1332 H1324 0.950 . S
C1332 C1333 1.386 . S
C1332 C1334 1.391 . S
C1333 C1332 1.386 . S
C1333 C1337 1.393 . S
C1334 H1326 0.950 . S
C1334 C1332 1.391 . S
C1334 C1335 1.400 . S
C1335 C1334 1.400 . S
C1335 C1336 1.398 . S
C1335 C1341 1.491 . S
C1336 H1327 0.950 . S
C1336 C1335 1.398 . S
C1336 C1337 1.391 . S
C1337 H1325 0.950 . S
C1337 C1333 1.393 . S
C1337 C1336 1.391 . S
C1338 H1328 0.950 . S
C1338 C1339 1.386 . S
C1338 C1340 1.391 . S
C1339 C1338 1.386 . S
C1339 C1343 1.393 . S
C1340 H1329 0.950 . S
C1340 C1338 1.391 . S
C1340 C1341 1.400 . S
C1341 C1335 1.491 . S
C1341 C1340 1.400 . S
C1341 C1342 1.398 . S
C1342 H1330 0.950 . S
C1342 C1341 1.398 . S
C1342 C1343 1.391 . S
C1343 H1331 0.950 . S
C1343 C1339 1.393 . S
C1343 C1342 1.391 . S
H1344 C1352 0.950 . S
H1345 C1357 0.950 . S
H1346 C1354 0.950 . S
H1347 C1356 0.950 . S
H1348 C1358 0.950 . S
H1349 C1360 0.950 . S
H1350 C1362 0.950 . S
H1351 C1363 0.950 . S
C1352 H1344 0.950 . S
C1352 C1353 1.386 . S
C1352 C1354 1.391 . S
C1353 C1352 1.386 . S
C1353 C1357 1.393 . S
C1354 H1346 0.950 . S
C1354 C1352 1.391 . S
C1354 C1355 1.400 . S
C1355 C1354 1.400 . S
C1355 C1356 1.398 . S
C1355 C1361 1.491 . S
C1356 H1347 0.950 . S
C1356 C1355 1.398 . S
C1356 C1357 1.391 . S
C1357 H1345 0.950 . S
C1357 C1353 1.393 . S
C1357 C1356 1.391 . S
C1358 H1348 0.950 . S
C1358 C1359 1.386 . S
C1358 C1360 1.391 . S
C1359 C1358 1.386 . S
C1359 C1363 1.393 . S
C1360 H1349 0.950 . S
C1360 C1358 1.391 . S
C1360 C1361 1.400 . S
C1361 C1355 1.491 . S
C1361 C1360 1.400 . S
C1361 C1362 1.398 . S
C1362 H1350 0.950 . S
C1362 C1361 1.398 . S
C1362 C1363 1.391 . S
C1363 H1351 0.950 . S
C1363 C1359 1.393 . S
C1363 C1362 1.391 . S
H1364 C1372 0.950 . S
H1365 C1377 0.950 . S
H1366 C1374 0.950 . S
H1367 C1376 0.950 . S
H1368 C1378 0.950 . S
H1369 C1380 0.950 . S
H1370 C1382 0.950 . S
H1371 C1383 0.950 . S
C1372 H1364 0.950 . S
C1372 C1373 1.386 . S
C1372 C1374 1.391 . S
C1373 C1372 1.386 . S
C1373 C1377 1.393 . S
C1374 H1366 0.950 . S
C1374 C1372 1.391 . S
C1374 C1375 1.400 . S
C1375 C1374 1.400 . S
C1375 C1376 1.398 . S
C1375 C1381 1.491 1_455 S
C1376 H1367 0.950 . S
C1376 C1375 1.398 . S
C1376 C1377 1.391 . S
C1377 H1365 0.950 . S
C1377 C1373 1.393 . S
C1377 C1376 1.391 . S
C1378 H1368 0.950 . S
C1378 C1379 1.386 . S
C1378 C1380 1.391 . S
C1379 C1378 1.386 . S
C1379 C1383 1.393 . S
C1380 H1369 0.950 . S
C1380 C1378 1.391 . S
C1380 C1381 1.400 . S
C1381 C1375 1.491 1_655 S
C1381 C1380 1.400 . S
C1381 C1382 1.398 . S
C1382 H1370 0.950 . S
C1382 C1381 1.398 . S
C1382 C1383 1.391 . S
C1383 H1371 0.950 . S
C1383 C1379 1.393 . S
C1383 C1382 1.391 . S
H1384 C1392 0.950 . S
H1385 C1397 0.950 . S
H1386 C1394 0.950 . S
H1387 C1396 0.950 . S
H1388 C1398 0.950 . S
H1389 C1400 0.950 . S
H1390 C1402 0.950 . S
H1391 C1403 0.950 . S
C1392 H1384 0.950 . S
C1392 C1393 1.386 . S
C1392 C1394 1.391 . S
C1393 C1392 1.386 . S
C1393 C1397 1.393 . S
C1394 H1386 0.950 . S
C1394 C1392 1.391 . S
C1394 C1395 1.400 . S
C1395 C1394 1.400 . S
C1395 C1396 1.398 . S
C1395 C1401 1.491 1_565 S
C1396 H1387 0.950 . S
C1396 C1395 1.398 . S
C1396 C1397 1.391 . S
C1397 H1385 0.950 . S
C1397 C1393 1.393 . S
C1397 C1396 1.391 . S
C1398 H1388 0.950 . S
C1398 C1399 1.386 . S
C1398 C1400 1.391 . S
C1399 C1398 1.386 . S
C1399 C1403 1.393 . S
C1400 H1389 0.950 . S
C1400 C1398 1.391 . S
C1400 C1401 1.400 . S
C1401 C1395 1.491 1_545 S
C1401 C1400 1.400 . S
C1401 C1402 1.398 . S
C1402 H1390 0.950 . S
C1402 C1401 1.398 . S
C1402 C1403 1.391 . S
C1403 H1391 0.950 . S
C1403 C1399 1.393 . S
C1403 C1402 1.391 . S
H1404 C1412 0.950 . S
H1405 C1417 0.950 . S
H1406 C1414 0.950 . S
H1407 C1416 0.950 . S
H1408 C1418 0.950 . S
H1409 C1420 0.950 . S
H1410 C1422 0.950 . S
H1411 C1423 0.950 . S
C1412 H1404 0.950 . S
C1412 C1413 1.386 . S
C1412 C1414 1.391 . S
C1413 C1412 1.386 . S
C1413 C1417 1.393 . S
C1414 H1406 0.950 . S
C1414 C1412 1.391 . S
C1414 C1415 1.400 . S
C1415 C1414 1.400 . S
C1415 C1416 1.398 . S
C1415 C1421 1.491 . S
C1416 H1407 0.950 . S
C1416 C1415 1.398 . S
C1416 C1417 1.391 . S
C1417 H1405 0.950 . S
C1417 C1413 1.393 . S
C1417 C1416 1.391 . S
C1418 H1408 0.950 . S
C1418 C1419 1.386 . S
C1418 C1420 1.391 . S
C1419 C1418 1.386 . S
C1419 C1423 1.393 . S
C1420 H1409 0.950 . S
C1420 C1418 1.391 . S
C1420 C1421 1.400 . S
C1421 C1415 1.491 . S
C1421 C1420 1.400 . S
C1421 C1422 1.398 . S
C1422 H1410 0.950 . S
C1422 C1421 1.398 . S
C1422 C1423 1.391 . S
C1423 H1411 0.950 . S
C1423 C1419 1.393 . S
C1423 C1422 1.391 . S
H1424 C1432 0.950 . S
H1425 C1437 0.950 . S
H1426 C1434 0.950 . S
H1427 C1436 0.950 . S
H1428 C1438 0.950 . S
H1429 C1440 0.950 . S
H1430 C1442 0.950 . S
H1431 C1443 0.950 . S
C1432 H1424 0.950 . S
C1432 C1433 1.386 . S
C1432 C1434 1.391 . S
C1433 C1432 1.386 . S
C1433 C1437 1.393 . S
C1434 H1426 0.950 . S
C1434 C1432 1.391 . S
C1434 C1435 1.400 . S
C1435 C1434 1.400 . S
C1435 C1436 1.398 . S
C1435 C1441 1.491 1_655 S
C1436 H1427 0.950 . S
C1436 C1435 1.398 . S
C1436 C1437 1.391 . S
C1437 H1425 0.950 . S
C1437 C1433 1.393 . S
C1437 C1436 1.391 . S
C1438 H1428 0.950 . S
C1438 C1439 1.386 . S
C1438 C1440 1.391 . S
C1439 C1438 1.386 . S
C1439 C1443 1.393 . S
C1440 H1429 0.950 . S
C1440 C1438 1.391 . S
C1440 C1441 1.400 . S
C1441 C1435 1.491 1_455 S
C1441 C1440 1.400 . S
C1441 C1442 1.398 . S
C1442 H1430 0.950 . S
C1442 C1441 1.398 . S
C1442 C1443 1.391 . S
C1443 H1431 0.950 . S
C1443 C1439 1.393 . S
C1443 C1442 1.391 . S
H1444 C1452 0.950 . S
H1445 C1457 0.950 . S
H1446 C1454 0.950 . S
H1447 C1456 0.950 . S
H1448 C1458 0.950 . S
H1449 C1460 0.950 . S
H1450 C1462 0.950 . S
H1451 C1463 0.950 . S
C1452 H1444 0.950 . S
C1452 C1453 1.386 . S
C1452 C1454 1.391 . S
C1453 C1452 1.386 . S
C1453 C1457 1.393 . S
C1454 H1446 0.950 . S
C1454 C1452 1.391 . S
C1454 C1455 1.400 . S
C1455 C1454 1.400 . S
C1455 C1456 1.398 . S
C1455 C1461 1.491 1_545 S
C1456 H1447 0.950 . S
C1456 C1455 1.398 . S
C1456 C1457 1.391 . S
C1457 H1445 0.950 . S
C1457 C1453 1.393 . S
C1457 C1456 1.391 . S
C1458 H1448 0.950 . S
C1458 C1459 1.386 . S
C1458 C1460 1.391 . S
C1459 C1458 1.386 . S
C1459 C1463 1.393 . S
C1460 H1449 0.950 . S
C1460 C1458 1.391 . S
C1460 C1461 1.400 . S
C1461 C1455 1.491 1_565 S
C1461 C1460 1.400 . S
C1461 C1462 1.398 . S
C1462 H1450 0.950 . S
C1462 C1461 1.398 . S
C1462 C1463 1.391 . S
C1463 H1451 0.950 . S
C1463 C1459 1.393 . S
C1463 C1462 1.391 . S
H1464 C1472 0.950 . S
H1465 C1477 0.950 . S
H1466 C1474 0.950 . S
H1467 C1476 0.950 . S
H1468 C1478 0.950 . S
H1469 C1480 0.950 . S
H1470 C1482 0.950 . S
H1471 C1483 0.950 . S
C1472 H1464 0.950 . S
C1472 C1473 1.386 . S
C1472 C1474 1.391 . S
C1473 C1472 1.386 . S
C1473 C1477 1.393 . S
C1474 H1466 0.950 . S
C1474 C1472 1.391 . S
C1474 C1475 1.400 . S
C1475 C1474 1.400 . S
C1475 C1476 1.398 . S
C1475 C1481 1.491 . S
C1476 H1467 0.950 . S
C1476 C1475 1.398 . S
C1476 C1477 1.391 . S
C1477 H1465 0.950 . S
C1477 C1473 1.393 . S
C1477 C1476 1.391 . S
C1478 H1468 0.950 . S
C1478 C1479 1.386 . S
C1478 C1480 1.391 . S
C1479 C1478 1.386 . S
C1479 C1483 1.393 . S
C1480 H1469 0.950 . S
C1480 C1478 1.391 . S
C1480 C1481 1.400 . S
C1481 C1475 1.491 . S
C1481 C1480 1.400 . S
C1481 C1482 1.398 . S
C1482 H1470 0.950 . S
C1482 C1481 1.398 . S
C1482 C1483 1.391 . S
C1483 H1471 0.950 . S
C1483 C1479 1.393 . S
C1483 C1482 1.391 . S
H1484 C1492 0.950 . S
H1485 C1497 0.950 . S
H1486 C1494 0.950 . S
H1487 C1496 0.950 . S
H1488 C1498 0.950 . S
H1489 C1500 0.950 . S
H1490 C1502 0.950 . S
H1491 C1503 0.950 . S
C1492 H1484 0.950 . S
C1492 C1493 1.386 . S
C1492 C1494 1.391 . S
C1493 C1492 1.386 . S
C1493 C1497 1.393 . S
C1494 H1486 0.950 . S
C1494 C1492 1.391 . S
C1494 C1495 1.400 . S
C1495 C1494 1.400 . S
C1495 C1496 1.398 . S
C1495 C1501 1.491 1_655 S
C1496 H1487 0.950 . S
C1496 C1495 1.398 . S
C1496 C1497 1.391 . S
C1497 H1485 0.950 . S
C1497 C1493 1.393 . S
C1497 C1496 1.391 . S
C1498 H1488 0.950 . S
C1498 C1499 1.386 . S
C1498 C1500 1.391 . S
C1499 C1498 1.386 . S
C1499 C1503 1.393 . S
C1500 H1489 0.950 . S
C1500 C1498 1.391 . S
C1500 C1501 1.400 . S
C1501 C1495 1.491 1_455 S
C1501 C1500 1.400 . S
C1501 C1502 1.398 . S
C1502 H1490 0.950 . S
C1502 C1501 1.398 . S
C1502 C1503 1.391 . S
C1503 H1491 0.950 . S
C1503 C1499 1.393 . S
C1503 C1502 1.391 . S
H1504 C1512 0.950 . S
H1505 C1517 0.950 . S
H1506 C1514 0.950 . S
H1507 C1516 0.950 . S
H1508 C1518 0.950 . S
H1509 C1520 0.950 . S
H1510 C1522 0.950 . S
H1511 C1523 0.950 . S
C1512 H1504 0.950 . S
C1512 C1513 1.386 . S
C1512 C1514 1.391 . S
C1513 C1512 1.386 . S
C1513 C1517 1.393 . S
C1514 H1506 0.950 . S
C1514 C1512 1.391 . S
C1514 C1515 1.400 . S
C1515 C1514 1.400 . S
C1515 C1516 1.398 . S
C1515 C1521 1.491 1_545 S
C1516 H1507 0.950 . S
C1516 C1515 1.398 . S
C1516 C1517 1.391 . S
C1517 H1505 0.950 . S
C1517 C1513 1.393 . S
C1517 C1516 1.391 . S
C1518 H1508 0.950 . S
C1518 C1519 1.386 . S
C1518 C1520 1.391 . S
C1519 C1518 1.386 . S
C1519 C1523 1.393 . S
C1520 H1509 0.950 . S
C1520 C1518 1.391 . S
C1520 C1521 1.400 . S
C1521 C1515 1.491 1_565 S
C1521 C1520 1.400 . S
C1521 C1522 1.398 . S
C1522 H1510 0.950 . S
C1522 C1521 1.398 . S
C1522 C1523 1.391 . S
C1523 H1511 0.950 . S
C1523 C1519 1.393 . S
C1523 C1522 1.391 . S
H1524 C1532 0.950 . S
H1525 C1537 0.950 . S
H1526 C1534 0.950 . S
H1527 C1536 0.950 . S
H1528 C1538 0.950 . S
H1529 C1540 0.950 . S
H1530 C1542 0.950 . S
H1531 C1543 0.950 . S
C1532 H1524 0.950 . S
C1532 C1533 1.386 . S
C1532 C1534 1.391 . S
C1533 C1532 1.386 . S
C1533 C1537 1.393 . S
C1534 H1526 0.950 . S
C1534 C1532 1.391 . S
C1534 C1535 1.400 . S
C1535 C1534 1.400 . S
C1535 C1536 1.398 . S
C1535 C1541 1.491 . S
C1536 H1527 0.950 . S
C1536 C1535 1.398 . S
C1536 C1537 1.391 . S
C1537 H1525 0.950 . S
C1537 C1533 1.393 . S
C1537 C1536 1.391 . S
C1538 H1528 0.950 . S
C1538 C1539 1.386 . S
C1538 C1540 1.391 . S
C1539 C1538 1.386 . S
C1539 C1543 1.393 . S
C1540 H1529 0.950 . S
C1540 C1538 1.391 . S
C1540 C1541 1.400 . S
C1541 C1535 1.491 . S
C1541 C1540 1.400 . S
C1541 C1542 1.398 . S
C1542 H1530 0.950 . S
C1542 C1541 1.398 . S
C1542 C1543 1.391 . S
C1543 H1531 0.950 . S
C1543 C1539 1.393 . S
C1543 C1542 1.391 . S
H1544 C1552 0.950 . S
H1545 C1557 0.950 . S
H1546 C1554 0.950 . S
H1547 C1556 0.950 . S
H1548 C1558 0.950 . S
H1549 C1560 0.950 . S
H1550 C1562 0.950 . S
H1551 C1563 0.950 . S
C1552 H1544 0.950 . S
C1552 C1553 1.386 . S
C1552 C1554 1.391 . S
C1553 C1552 1.386 . S
C1553 C1557 1.393 . S
C1554 H1546 0.950 . S
C1554 C1552 1.391 . S
C1554 C1555 1.400 . S
C1555 C1554 1.400 . S
C1555 C1556 1.398 . S
C1555 C1561 1.491 1_455 S
C1556 H1547 0.950 . S
C1556 C1555 1.398 . S
C1556 C1557 1.391 . S
C1557 H1545 0.950 . S
C1557 C1553 1.393 . S
C1557 C1556 1.391 . S
C1558 H1548 0.950 . S
C1558 C1559 1.386 . S
C1558 C1560 1.391 . S
C1559 C1558 1.386 . S
C1559 C1563 1.393 . S
C1560 H1549 0.950 . S
C1560 C1558 1.391 . S
C1560 C1561 1.400 . S
C1561 C1555 1.491 1_655 S
C1561 C1560 1.400 . S
C1561 C1562 1.398 . S
C1562 H1550 0.950 . S
C1562 C1561 1.398 . S
C1562 C1563 1.391 . S
C1563 H1551 0.950 . S
C1563 C1559 1.393 . S
C1563 C1562 1.391 . S
H1564 C1572 0.950 . S
H1565 C1577 0.950 . S
H1566 C1574 0.950 . S
H1567 C1576 0.950 . S
H1568 C1578 0.950 . S
H1569 C1580 0.950 . S
H1570 C1582 0.950 . S
H1571 C1583 0.950 . S
C1572 H1564 0.950 . S
C1572 C1573 1.386 . S
C1572 C1574 1.391 . S
C1573 C1572 1.386 . S
C1573 C1577 1.393 . S
C1574 H1566 0.950 . S
C1574 C1572 1.391 . S
C1574 C1575 1.400 . S
C1575 C1574 1.400 . S
C1575 C1576 1.398 . S
C1575 C1581 1.491 1_565 S
C1576 H1567 0.950 . S
C1576 C1575 1.398 . S
C1576 C1577 1.391 . S
C1577 H1565 0.950 . S
C1577 C1573 1.393 . S
C1577 C1576 1.391 . S
C1578 H1568 0.950 . S
C1578 C1579 1.386 . S
C1578 C1580 1.391 . S
C1579 C1578 1.386 . S
C1579 C1583 1.393 . S
C1580 H1569 0.950 . S
C1580 C1578 1.391 . S
C1580 C1581 1.400 . S
C1581 C1575 1.491 1_545 S
C1581 C1580 1.400 . S
C1581 C1582 1.398 . S
C1582 H1570 0.950 . S
C1582 C1581 1.398 . S
C1582 C1583 1.391 . S
C1583 H1571 0.950 . S
C1583 C1579 1.393 . S
C1583 C1582 1.391 . S
H1584 C1592 0.950 . S
H1585 C1597 0.950 1_554 S
H1586 C1594 0.950 . S
H1587 C1596 0.950 . S
H1588 C1598 0.950 . S
H1589 C1600 0.950 . S
H1590 C1602 0.950 . S
H1591 C1603 0.950 1_556 S
C1592 H1584 0.950 . S
C1592 C1593 1.386 . S
C1592 C1594 1.391 . S
C1593 C1592 1.386 . S
C1593 C1597 1.393 . S
C1594 H1586 0.950 . S
C1594 C1592 1.391 . S
C1594 C1595 1.400 . S
C1595 C1594 1.400 . S
C1595 C1596 1.398 1_556 S
C1595 C1601 1.491 1_556 S
C1596 H1587 0.950 . S
C1596 C1595 1.398 1_554 S
C1596 C1597 1.391 1_554 S
C1597 H1585 0.950 1_556 S
C1597 C1593 1.393 . S
C1597 C1596 1.391 1_556 S
C1598 H1588 0.950 . S
C1598 C1599 1.386 . S
C1598 C1600 1.391 . S
C1599 C1598 1.386 . S
C1599 C1603 1.393 . S
C1600 H1589 0.950 . S
C1600 C1598 1.391 . S
C1600 C1601 1.400 . S
C1601 C1595 1.491 1_554 S
C1601 C1600 1.400 . S
C1601 C1602 1.398 1_554 S
C1602 H1590 0.950 . S
C1602 C1601 1.398 1_556 S
C1602 C1603 1.391 1_556 S
C1603 H1591 0.950 1_554 S
C1603 C1599 1.393 . S
C1603 C1602 1.391 1_554 S
H1604 C1612 0.950 . S
H1605 C1617 0.950 . S
H1606 C1614 0.950 . S
H1607 C1616 0.950 . S
H1608 C1618 0.950 . S
H1609 C1620 0.950 . S
H1610 C1622 0.950 . S
H1611 C1623 0.950 . S
C1612 H1604 0.950 . S
C1612 C1613 1.386 . S
C1612 C1614 1.391 . S
C1613 C1612 1.386 . S
C1613 C1617 1.393 . S
C1614 H1606 0.950 . S
C1614 C1612 1.391 . S
C1614 C1615 1.400 . S
C1615 C1614 1.400 . S
C1615 C1616 1.398 . S
C1615 C1621 1.491 . S
C1616 H1607 0.950 . S
C1616 C1615 1.398 . S
C1616 C1617 1.391 . S
C1617 H1605 0.950 . S
C1617 C1613 1.393 . S
C1617 C1616 1.391 . S
C1618 H1608 0.950 . S
C1618 C1619 1.386 . S
C1618 C1620 1.391 . S
C1619 C1618 1.386 . S
C1619 C1623 1.393 . S
C1620 H1609 0.950 . S
C1620 C1618 1.391 . S
C1620 C1621 1.400 . S
C1621 C1615 1.491 . S
C1621 C1620 1.400 . S
C1621 C1622 1.398 . S
C1622 H1610 0.950 . S
C1622 C1621 1.398 . S
C1622 C1623 1.391 . S
C1623 H1611 0.950 . S
C1623 C1619 1.393 . S
C1623 C1622 1.391 . S
H1624 C1632 0.950 . S
H1625 C1637 0.950 1_554 S
H1626 C1634 0.950 . S
H1627 C1636 0.950 . S
H1628 C1638 0.950 . S
H1629 C1640 0.950 . S
H1630 C1642 0.950 . S
H1631 C1643 0.950 1_556 S
C1632 H1624 0.950 . S
C1632 C1633 1.386 . S
C1632 C1634 1.391 . S
C1633 C1632 1.386 . S
C1633 C1637 1.393 . S
C1634 H1626 0.950 . S
C1634 C1632 1.391 . S
C1634 C1635 1.400 . S
C1635 C1634 1.400 . S
C1635 C1636 1.398 1_556 S
C1635 C1641 1.491 1_556 S
C1636 H1627 0.950 . S
C1636 C1635 1.398 1_554 S
C1636 C1637 1.391 1_554 S
C1637 H1625 0.950 1_556 S
C1637 C1633 1.393 . S
C1637 C1636 1.391 1_556 S
C1638 H1628 0.950 . S
C1638 C1639 1.386 . S
C1638 C1640 1.391 . S
C1639 C1638 1.386 . S
C1639 C1643 1.393 . S
C1640 H1629 0.950 . S
C1640 C1638 1.391 . S
C1640 C1641 1.400 . S
C1641 C1635 1.491 1_554 S
C1641 C1640 1.400 . S
C1641 C1642 1.398 1_554 S
C1642 H1630 0.950 . S
C1642 C1641 1.398 1_556 S
C1642 C1643 1.391 1_556 S
C1643 H1631 0.950 1_554 S
C1643 C1639 1.393 . S
C1643 C1642 1.391 1_554 S
H1644 C1652 0.950 . S
H1645 C1657 0.950 . S
H1646 C1654 0.950 . S
H1647 C1656 0.950 . S
H1648 C1658 0.950 . S
H1649 C1660 0.950 . S
H1650 C1662 0.950 . S
H1651 C1663 0.950 . S
C1652 H1644 0.950 . S
C1652 C1653 1.386 . S
C1652 C1654 1.391 . S
C1653 C1652 1.386 . S
C1653 C1657 1.393 . S
C1654 H1646 0.950 . S
C1654 C1652 1.391 . S
C1654 C1655 1.400 . S
C1655 C1654 1.400 . S
C1655 C1656 1.398 . S
C1655 C1661 1.491 . S
C1656 H1647 0.950 . S
C1656 C1655 1.398 . S
C1656 C1657 1.391 . S
C1657 H1645 0.950 . S
C1657 C1653 1.393 . S
C1657 C1656 1.391 . S
C1658 H1648 0.950 . S
C1658 C1659 1.386 . S
C1658 C1660 1.391 . S
C1659 C1658 1.386 . S
C1659 C1663 1.393 . S
C1660 H1649 0.950 . S
C1660 C1658 1.391 . S
C1660 C1661 1.400 . S
C1661 C1655 1.491 . S
C1661 C1660 1.400 . S
C1661 C1662 1.398 . S
C1662 H1650 0.950 . S
C1662 C1661 1.398 . S
C1662 C1663 1.391 . S
C1663 H1651 0.950 . S
C1663 C1659 1.393 . S
C1663 C1662 1.391 . S
H1664 C1672 0.950 . S
H1665 C1677 0.950 . S
H1666 C1674 0.950 . S
H1667 C1676 0.950 . S
H1668 C1678 0.950 . S
H1669 C1680 0.950 . S
H1670 C1682 0.950 . S
H1671 C1683 0.950 . S
C1672 H1664 0.950 . S
C1672 C1673 1.386 . S
C1672 C1674 1.391 . S
C1673 C1672 1.386 . S
C1673 C1677 1.393 . S
C1674 H1666 0.950 . S
C1674 C1672 1.391 . S
C1674 C1675 1.400 . S
C1675 C1674 1.400 . S
C1675 C1676 1.398 . S
C1675 C1681 1.491 1_556 S
C1676 H1667 0.950 . S
C1676 C1675 1.398 . S
C1676 C1677 1.391 . S
C1677 H1665 0.950 . S
C1677 C1673 1.393 . S
C1677 C1676 1.391 . S
C1678 H1668 0.950 . S
C1678 C1679 1.386 . S
C1678 C1680 1.391 . S
C1679 C1678 1.386 . S
C1679 C1683 1.393 . S
C1680 H1669 0.950 . S
C1680 C1678 1.391 . S
C1680 C1681 1.400 . S
C1681 C1675 1.491 1_554 S
C1681 C1680 1.400 . S
C1681 C1682 1.398 . S
C1682 H1670 0.950 . S
C1682 C1681 1.398 . S
C1682 C1683 1.391 . S
C1683 H1671 0.950 . S
C1683 C1679 1.393 . S
C1683 C1682 1.391 . S
H1684 C1692 0.950 . S
H1685 C1697 0.950 . S
H1686 C1694 0.950 . S
H1687 C1696 0.950 . S
H1688 C1698 0.950 . S
H1689 C1700 0.950 . S
H1690 C1702 0.950 . S
H1691 C1703 0.950 . S
C1692 H1684 0.950 . S
C1692 C1693 1.386 . S
C1692 C1694 1.391 . S
C1693 C1692 1.386 . S
C1693 C1697 1.393 . S
C1694 H1686 0.950 . S
C1694 C1692 1.391 . S
C1694 C1695 1.400 . S
C1695 C1694 1.400 . S
C1695 C1696 1.398 . S
C1695 C1701 1.491 . S
C1696 H1687 0.950 . S
C1696 C1695 1.398 . S
C1696 C1697 1.391 . S
C1697 H1685 0.950 . S
C1697 C1693 1.393 . S
C1697 C1696 1.391 . S
C1698 H1688 0.950 . S
C1698 C1699 1.386 . S
C1698 C1700 1.391 . S
C1699 C1698 1.386 . S
C1699 C1703 1.393 . S
C1700 H1689 0.950 . S
C1700 C1698 1.391 . S
C1700 C1701 1.400 . S
C1701 C1695 1.491 . S
C1701 C1700 1.400 . S
C1701 C1702 1.398 . S
C1702 H1690 0.950 . S
C1702 C1701 1.398 . S
C1702 C1703 1.391 . S
C1703 H1691 0.950 . S
C1703 C1699 1.393 . S
C1703 C1702 1.391 . S
H1704 C1712 0.950 . S
H1705 C1717 0.950 . S
H1706 C1714 0.950 . S
H1707 C1716 0.950 1_556 S
H1708 C1718 0.950 . S
H1709 C1720 0.950 . S
H1710 C1722 0.950 1_554 S
H1711 C1723 0.950 . S
C1712 H1704 0.950 . S
C1712 C1713 1.386 . S
C1712 C1714 1.391 . S
C1713 C1712 1.386 . S
C1713 C1717 1.393 . S
C1714 H1706 0.950 . S
C1714 C1712 1.391 . S
C1714 C1715 1.400 . S
C1715 C1714 1.400 . S
C1715 C1716 1.398 . S
C1715 C1721 1.491 1_554 S
C1716 H1707 0.950 1_554 S
C1716 C1715 1.398 . S
C1716 C1717 1.391 . S
C1717 H1705 0.950 . S
C1717 C1713 1.393 . S
C1717 C1716 1.391 . S
C1718 H1708 0.950 . S
C1718 C1719 1.386 . S
C1718 C1720 1.391 . S
C1719 C1718 1.386 . S
C1719 C1723 1.393 . S
C1720 H1709 0.950 . S
C1720 C1718 1.391 . S
C1720 C1721 1.400 . S
C1721 C1715 1.491 1_556 S
C1721 C1720 1.400 . S
C1721 C1722 1.398 . S
C1722 H1710 0.950 1_556 S
C1722 C1721 1.398 . S
C1722 C1723 1.391 . S
C1723 H1711 0.950 . S
C1723 C1719 1.393 . S
C1723 C1722 1.391 . S
H1724 C1732 0.950 . S
H1725 C1737 0.950 . S
H1726 C1734 0.950 . S
H1727 C1736 0.950 . S
H1728 C1738 0.950 . S
H1729 C1740 0.950 . S
H1730 C1742 0.950 . S
H1731 C1743 0.950 . S
C1732 H1724 0.950 . S
C1732 C1733 1.386 . S
C1732 C1734 1.391 . S
C1733 C1732 1.386 . S
C1733 C1737 1.393 . S
C1734 H1726 0.950 . S
C1734 C1732 1.391 . S
C1734 C1735 1.400 . S
C1735 C1734 1.400 . S
C1735 C1736 1.398 . S
C1735 C1741 1.491 . S
C1736 H1727 0.950 . S
C1736 C1735 1.398 . S
C1736 C1737 1.391 . S
C1737 H1725 0.950 . S
C1737 C1733 1.393 . S
C1737 C1736 1.391 . S
C1738 H1728 0.950 . S
C1738 C1739 1.386 . S
C1738 C1740 1.391 . S
C1739 C1738 1.386 . S
C1739 C1743 1.393 . S
C1740 H1729 0.950 . S
C1740 C1738 1.391 . S
C1740 C1741 1.400 . S
C1741 C1735 1.491 . S
C1741 C1740 1.400 . S
C1741 C1742 1.398 . S
C1742 H1730 0.950 . S
C1742 C1741 1.398 . S
C1742 C1743 1.391 . S
C1743 H1731 0.950 . S
C1743 C1739 1.393 . S
C1743 C1742 1.391 . S
H1744 C1752 0.950 1_556 S
H1745 C1757 0.950 . S
H1746 C1754 0.950 . S
H1747 C1756 0.950 . S
H1748 C1758 0.950 1_554 S
H1749 C1760 0.950 . S
H1750 C1762 0.950 . S
H1751 C1763 0.950 . S
C1752 H1744 0.950 1_554 S
C1752 C1753 1.386 . S
C1752 C1754 1.391 1_554 S
C1753 C1752 1.386 . S
C1753 C1757 1.393 . S
C1754 H1746 0.950 . S
C1754 C1752 1.391 1_556 S
C1754 C1755 1.400 1_556 S
C1755 C1754 1.400 1_554 S
C1755 C1756 1.398 . S
C1755 C1761 1.491 1_554 S
C1756 H1747 0.950 . S
C1756 C1755 1.398 . S
C1756 C1757 1.391 . S
C1757 H1745 0.950 . S
C1757 C1753 1.393 . S
C1757 C1756 1.391 . S
C1758 H1748 0.950 1_556 S
C1758 C1759 1.386 . S
C1758 C1760 1.391 1_556 S
C1759 C1758 1.386 . S
C1759 C1763 1.393 . S
C1760 H1749 0.950 . S
C1760 C1758 1.391 1_554 S
C1760 C1761 1.400 1_554 S
C1761 C1755 1.491 1_556 S
C1761 C1760 1.400 1_556 S
C1761 C1762 1.398 . S
C1762 H1750 0.950 . S
C1762 C1761 1.398 . S
C1762 C1763 1.391 . S
C1763 H1751 0.950 . S
C1763 C1759 1.393 . S
C1763 C1762 1.391 . S
H1764 C1772 0.950 . S
H1765 C1777 0.950 . S
H1766 C1774 0.950 . S
H1767 C1776 0.950 . S
H1768 C1778 0.950 . S
H1769 C1780 0.950 . S
H1770 C1782 0.950 . S
H1771 C1783 0.950 . S
C1772 H1764 0.950 . S
C1772 C1773 1.386 . S
C1772 C1774 1.391 . S
C1773 C1772 1.386 . S
C1773 C1777 1.393 . S
C1774 H1766 0.950 . S
C1774 C1772 1.391 . S
C1774 C1775 1.400 . S
C1775 C1774 1.400 . S
C1775 C1776 1.398 . S
C1775 C1781 1.491 . S
C1776 H1767 0.950 . S
C1776 C1775 1.398 . S
C1776 C1777 1.391 . S
C1777 H1765 0.950 . S
C1777 C1773 1.393 . S
C1777 C1776 1.391 . S
C1778 H1768 0.950 . S
C1778 C1779 1.386 . S
C1778 C1780 1.391 . S
C1779 C1778 1.386 . S
C1779 C1783 1.393 . S
C1780 H1769 0.950 . S
C1780 C1778 1.391 . S
C1780 C1781 1.400 . S
C1781 C1775 1.491 . S
C1781 C1780 1.400 . S
C1781 C1782 1.398 . S
C1782 H1770 0.950 . S
C1782 C1781 1.398 . S
C1782 C1783 1.391 . S
C1783 H1771 0.950 . S
C1783 C1779 1.393 . S
C1783 C1782 1.391 . S
H1784 C1792 0.950 . S
H1785 C1797 0.950 1_554 S
H1786 C1794 0.950 . S
H1787 C1796 0.950 . S
H1788 C1798 0.950 . S
H1789 C1800 0.950 . S
H1790 C1802 0.950 . S
H1791 C1803 0.950 1_556 S
C1792 H1784 0.950 . S
C1792 C1793 1.386 . S
C1792 C1794 1.391 . S
C1793 C1792 1.386 . S
C1793 C1797 1.393 . S
C1794 H1786 0.950 . S
C1794 C1792 1.391 . S
C1794 C1795 1.400 . S
C1795 C1794 1.400 . S
C1795 C1796 1.398 1_556 S
C1795 C1801 1.491 1_556 S
C1796 H1787 0.950 . S
C1796 C1795 1.398 1_554 S
C1796 C1797 1.391 1_554 S
C1797 H1785 0.950 1_556 S
C1797 C1793 1.393 . S
C1797 C1796 1.391 1_556 S
C1798 H1788 0.950 . S
C1798 C1799 1.386 . S
C1798 C1800 1.391 . S
C1799 C1798 1.386 . S
C1799 C1803 1.393 . S
C1800 H1789 0.950 . S
C1800 C1798 1.391 . S
C1800 C1801 1.400 . S
C1801 C1795 1.491 1_554 S
C1801 C1800 1.400 . S
C1801 C1802 1.398 1_554 S
C1802 H1790 0.950 . S
C1802 C1801 1.398 1_556 S
C1802 C1803 1.391 1_556 S
C1803 H1791 0.950 1_554 S
C1803 C1799 1.393 . S
C1803 C1802 1.391 1_554 S
H1804 C1812 0.950 . S
H1805 C1817 0.950 . S
H1806 C1814 0.950 . S
H1807 C1816 0.950 . S
H1808 C1818 0.950 . S
H1809 C1820 0.950 . S
H1810 C1822 0.950 . S
H1811 C1823 0.950 . S
C1812 H1804 0.950 . S
C1812 C1813 1.386 . S
C1812 C1814 1.391 . S
C1813 C1812 1.386 . S
C1813 C1817 1.393 . S
C1814 H1806 0.950 . S
C1814 C1812 1.391 . S
C1814 C1815 1.400 . S
C1815 C1814 1.400 . S
C1815 C1816 1.398 . S
C1815 C1821 1.491 . S
C1816 H1807 0.950 . S
C1816 C1815 1.398 . S
C1816 C1817 1.391 . S
C1817 H1805 0.950 . S
C1817 C1813 1.393 . S
C1817 C1816 1.391 . S
C1818 H1808 0.950 . S
C1818 C1819 1.386 . S
C1818 C1820 1.391 . S
C1819 C1818 1.386 . S
C1819 C1823 1.393 . S
C1820 H1809 0.950 . S
C1820 C1818 1.391 . S
C1820 C1821 1.400 . S
C1821 C1815 1.491 . S
C1821 C1820 1.400 . S
C1821 C1822 1.398 . S
C1822 H1810 0.950 . S
C1822 C1821 1.398 . S
C1822 C1823 1.391 . S
C1823 H1811 0.950 . S
C1823 C1819 1.393 . S
C1823 C1822 1.391 . S
C873 C14 1.368 . S
C879 C554 1.401 . S
C893 C50 1.369 . S
C899 C590 1.400 . S
C913 C626 1.370 . S
C919 C86 1.399 . S
C933 C446 1.370 . S
C939 C122 1.399 . S
C953 C482 1.401 . S
C959 C158 1.368 . S
C973 C518 1.372 . S
C979 C194 1.397 . S
C993 C770 1.368 . S
C999 C230 1.401 . S
C1013 C266 1.371 . S
C1019 C806 1.398 . S
C1033 C842 1.401 . S
C1039 C302 1.368 . S
C1053 C338 1.401 . S
C1059 C662 1.368 . S
C1073 C698 1.392 . S
C1079 C374 1.377 . S
C1093 C410 1.397 . S
C1099 C734 1.372 . S
C1113 C363 1.285 . S
C1119 C3 1.285 . S
C1133 C399 1.287 . S
C1139 C39 1.287 . S
C1153 C75 1.287 . S
C1159 C219 1.287 . S
C1173 C111 1.285 . S
C1179 C255 1.285 . S
C1193 C291 1.288 . S
C1199 C147 1.288 . S
C1213 C183 1.287 . S
C1219 C327 1.287 . S
C1233 C795 1.286 . S
C1239 C435 1.287 . S
C1253 C471 1.287 . S
C1259 C831 1.287 . S
C1273 C507 1.287 . S
C1279 C651 1.288 . S
C1293 C687 1.287 . S
C1299 C543 1.286 . S
C1313 C579 1.285 . S
C1319 C723 1.285 . S
C1333 C615 1.287 . S
C1339 C759 1.287 . S
C1353 C4 1.376 . S
C1359 C652 1.364 . S
C1373 C688 1.379 . S
C1379 C40 1.361 . S
C1393 C76 1.369 . S
C1399 C724 1.371 . S
C1413 C112 1.371 . S
C1419 C760 1.369 . S
C1433 C796 1.380 . S
C1439 C148 1.361 . S
C1453 C184 1.373 . S
C1459 C832 1.368 . S
C1473 C220 1.371 . S
C1479 C436 1.369 . S
C1493 C256 1.372 . S
C1499 C472 1.369 . S
C1513 C508 1.380 . S
C1519 C292 1.361 . S
C1533 C544 1.363 . S
C1539 C328 1.377 . S
C1553 C364 1.370 . S
C1559 C580 1.371 . S
C1573 C616 1.368 . S
C1579 C400 1.372 . S
C1593 C218 1.478 . S
C1599 C2 1.485 . S
C1613 C38 1.489 . S
C1619 C254 1.480 . S
C1633 C290 1.479 . S
C1639 C74 1.488 . S
C1653 C326 1.486 . S
C1659 C110 1.487 . S
C1673 C362 1.480 . S
C1679 C146 1.480 . S
C1693 C182 1.478 . S
C1699 C398 1.485 . S
C1713 C650 1.481 . S
C1719 C434 1.479 . S
C1733 C470 1.486 . S
C1739 C686 1.488 . S
C1753 C722 1.482 . S
C1759 C506 1.489 . S
C1773 C758 1.487 . S
C1779 C542 1.487 . S
C1793 C578 1.488 . S
C1799 C794 1.479 . S
C1813 C614 1.478 . S
C1819 C830 1.484 . S
