# Generated by pormake.
# Topology rac, (4)-cn, num edge types: 1
# Building blocks:
#     Node 0, Type 0, BuildingBlock: ICAMEG_clean_sbu_1, # of connection points: 4
#     Node 1, Type 0, BuildingBlock: ICAMEG_clean_sbu_1, # of connection points: 4
#     Node 2, Type 0, BuildingBlock: ICAMEG_clean_sbu_1, # of connection points: 4
#     Node 3, Type 0, BuildingBlock: ICAMEG_clean_sbu_1, # of connection points: 4
#     Node 4, Type 0, BuildingBlock: ICAMEG_clean_sbu_1, # of connection points: 4
#     Node 5, Type 0, BuildingBlock: ICAMEG_clean_sbu_1, # of connection points: 4
#     Node 6, Type 0, BuildingBlock: ICAMEG_clean_sbu_1, # of connection points: 4
#     Node 7, Type 0, BuildingBlock: ICAMEG_clean_sbu_1, # of connection points: 4
#     Edge 8, Type (0, 0), BuildingBlock: ZUJKAS_clean_linker_0, # of connection points: 2
#     Edge 9, Type (0, 0), BuildingBlock: ZUJKAS_clean_linker_0, # of connection points: 2
#     Edge 10, Type (0, 0), BuildingBlock: ZUJKAS_clean_linker_0, # of connection points: 2
#     Edge 11, Type (0, 0), BuildingBlock: ZUJKAS_clean_linker_0, # of connection points: 2
#     Edge 12, Type (0, 0), BuildingBlock: ZUJKAS_clean_linker_0, # of connection points: 2
#     Edge 13, Type (0, 0), BuildingBlock: ZUJKAS_clean_linker_0, # of connection points: 2
#     Edge 14, Type (0, 0), BuildingBlock: ZUJKAS_clean_linker_0, # of connection points: 2
#     Edge 15, Type (0, 0), BuildingBlock: ZUJKAS_clean_linker_0, # of connection points: 2
#     Edge 16, Type (0, 0), BuildingBlock: ZUJKAS_clean_linker_0, # of connection points: 2
#     Edge 17, Type (0, 0), BuildingBlock: ZUJKAS_clean_linker_0, # of connection points: 2
#     Edge 18, Type (0, 0), BuildingBlock: ZUJKAS_clean_linker_0, # of connection points: 2
#     Edge 19, Type (0, 0), BuildingBlock: ZUJKAS_clean_linker_0, # of connection points: 2
#     Edge 20, Type (0, 0), BuildingBlock: ZUJKAS_clean_linker_0, # of connection points: 2
#     Edge 21, Type (0, 0), BuildingBlock: ZUJKAS_clean_linker_0, # of connection points: 2
#     Edge 22, Type (0, 0), BuildingBlock: ZUJKAS_clean_linker_0, # of connection points: 2
#     Edge 23, Type (0, 0), BuildingBlock: ZUJKAS_clean_linker_0, # of connection points: 2
# Relax obj value: 0.287
# Max RMSD: 0.137
# Mean RMSD: 0.137
data_MOF--net-rac--node1-ICAMEG_clean_sbu_1--edge1-ZUJKAS_clean_linker_0
_symmetry_space_group_name_H-M    P1
_symmetry_Int_Tables_number       1
_symmetry_cell_setting            triclinic
loop_
_symmetry_equiv_pos_as_xyz
'x, y, z'
_cell_length_a     58.607457
_cell_length_b     26.35185
_cell_length_c     52.790921
_cell_angle_alpha  90.003678
_cell_angle_beta   89.973586
_cell_angle_gamma 89.974008
loop_
_atom_site_label
_atom_site_type_symbol
_atom_site_fract_x
_atom_site_fract_y
_atom_site_fract_z
_atom_type_partial_charge
Co0 Co 0.33829 0.31608 0.07315 0.0
Co1 Co 0.37363 0.26872 0.02712 0.0
O2 O 0.36869 0.3037 0.05933 0.0
C3 C 0.36383 0.27235 0.11653 0.0
O4 O 0.37231 0.23813 0.10109 0.0
C5 C 0.4001 0.36379 0.02223 0.0
O6 O 0.38147 0.38745 0.0294 0.0
O7 O 0.3527 0.31662 0.0094 0.0
O8 O 0.32527 0.3268 0.03861 0.0
H9 H 0.34992 0.18702 0.94529 0.0
H10 H 0.37748 0.37504 0.09291 0.0
O11 O 0.35021 0.30612 0.10828 0.0
H12 H 0.32419 0.50231 0.05839 0.0
H13 H 0.28234 0.38848 0.13592 0.0
H14 H 0.29155 0.28281 0.0595 0.0
H15 H 0.3146 0.41126 0.05723 0.0
H16 H 0.32048 0.374 0.11752 0.0
O17 O 0.40003 0.31558 0.01994 0.0
H18 H 0.34368 0.23003 0.98623 0.0
H19 H 0.41517 0.23556 0.99903 0.0
H20 H 0.25308 0.29662 0.07715 0.0
H21 H 0.38764 0.46581 0.09472 0.0
H22 H 0.24829 0.3498 0.11564 0.0
H23 H 0.36093 0.53012 0.07728 0.0
O24 O 0.33108 0.24277 0.07084 0.0
H25 H 0.4383 0.22297 0.08528 0.0
H26 H 0.37849 0.15602 0.02875 0.0
H27 H 0.40385 0.09645 0.05122 0.0
H28 H 0.43405 0.12986 0.07969 0.0
H29 H 0.4124 0.28119 0.06265 0.0
H30 H 0.4222 0.19302 0.95812 0.0
H31 H 0.38942 0.16826 0.931 0.0
O32 O 0.34731 0.22085 0.03385 0.0
C33 C 0.33291 0.33141 0.01613 0.0
C34 C 0.36434 0.19748 0.95697 0.0
C35 C 0.40491 0.2009 0.96416 0.0
N36 N 0.37903 0.23489 0.99507 0.0
C37 C 0.36091 0.2217 0.9802 0.0
C38 C 0.40083 0.22508 0.98727 0.0
C39 C 0.38651 0.18701 0.94896 0.0
C40 C 0.36565 0.40286 0.08556 0.0
N41 N 0.34543 0.38787 0.07509 0.0
C42 C 0.37154 0.45418 0.08652 0.0
C43 C 0.35657 0.49023 0.07669 0.0
C44 C 0.33596 0.47466 0.06608 0.0
C45 C 0.33065 0.42301 0.06542 0.0
C46 C 0.2842 0.36532 0.11912 0.0
C47 C 0.28959 0.30624 0.07616 0.0
C48 C 0.30576 0.3569 0.10864 0.0
N49 N 0.30822 0.3279 0.08734 0.0
C50 C 0.26777 0.31381 0.08611 0.0
C51 C 0.2651 0.34362 0.10772 0.0
C52 C 0.33369 0.21215 0.05235 0.0
C53 C 0.42524 0.20795 0.07287 0.0
C54 C 0.39151 0.17087 0.0412 0.0
C55 C 0.40587 0.13694 0.05381 0.0
C56 C 0.42283 0.15572 0.06976 0.0
N57 N 0.394 0.22206 0.04434 0.0
C58 C 0.4106 0.24074 0.05993 0.0
Co59 Co 0.16934 0.68196 0.07384 0.0
Co60 Co 0.13625 0.73742 0.02706 0.0
O61 O 0.14004 0.703 0.05972 0.0
C62 C 0.1478 0.7427 0.11511 0.0
O63 O 0.13934 0.77391 0.09817 0.0
C64 C 0.10863 0.64408 0.02282 0.0
O65 O 0.12669 0.62011 0.03137 0.0
O66 O 0.15694 0.68857 0.00938 0.0
O67 O 0.17958 0.65762 0.04011 0.0
H68 H 0.16241 0.81769 0.94575 0.0
H69 H 0.12616 0.64588 0.09684 0.0
O70 O 0.15986 0.70489 0.10835 0.0
H71 H 0.16752 0.49093 0.07156 0.0
H72 H 0.22082 0.60367 0.1395 0.0
H73 H 0.21736 0.69076 0.05691 0.0
H74 H 0.18458 0.57537 0.06474 0.0
H75 H 0.18382 0.62933 0.12131 0.0
O76 O 0.1094 0.69203 0.01943 0.0
H77 H 0.16741 0.77441 0.98681 0.0
H78 H 0.09565 0.77277 0.99805 0.0
H79 H 0.25472 0.6653 0.07428 0.0
H80 H 0.10853 0.56217 0.10419 0.0
H81 H 0.25661 0.62143 0.11588 0.0
H82 H 0.12922 0.48396 0.09141 0.0
O83 O 0.18262 0.7502 0.06715 0.0
H84 H 0.07114 0.78787 0.08374 0.0
H85 H 0.13302 0.85031 0.02862 0.0
H86 H 0.10813 0.91174 0.05052 0.0
H87 H 0.0769 0.8806 0.07828 0.0
H88 H 0.09657 0.72775 0.06168 0.0
H89 H 0.08985 0.81564 0.957 0.0
H90 H 0.12339 0.83857 0.9306 0.0
O91 O 0.16299 0.78291 0.03434 0.0
C92 C 0.17349 0.66127 0.01705 0.0
C93 C 0.14766 0.80802 0.95711 0.0
C94 C 0.10693 0.80681 0.96341 0.0
N95 N 0.13185 0.77144 0.99487 0.0
C96 C 0.15039 0.78365 0.98041 0.0
C97 C 0.11032 0.78244 0.9866 0.0
C98 C 0.12576 0.81968 0.94861 0.0
C99 C 0.13535 0.61199 0.09145 0.0
N100 N 0.15639 0.6155 0.08042 0.0
C101 C 0.12525 0.56471 0.09557 0.0
C102 C 0.13685 0.52084 0.08837 0.0
C103 C 0.15834 0.52473 0.07721 0.0
C104 C 0.16789 0.57265 0.07335 0.0
C105 C 0.22022 0.62269 0.12134 0.0
C106 C 0.21804 0.67141 0.07495 0.0
C107 C 0.19932 0.63743 0.11098 0.0
N108 N 0.19843 0.66122 0.08799 0.0
C109 C 0.23924 0.65722 0.08472 0.0
C110 C 0.24029 0.63265 0.10807 0.0
C111 C 0.17918 0.78467 0.05057 0.0
C112 C 0.08465 0.8019 0.07163 0.0
C113 C 0.11953 0.83645 0.04075 0.0
C114 C 0.10545 0.87143 0.05305 0.0
C115 C 0.08791 0.85393 0.0686 0.0
N116 N 0.1162 0.78548 0.0438 0.0
C117 C 0.09904 0.76803 0.05901 0.0
Co118 Co 0.34053 0.18041 0.42576 0.0
Co119 Co 0.37375 0.23577 0.4724 0.0
O120 O 0.36989 0.20126 0.43978 0.0
C121 C 0.36191 0.24079 0.38437 0.0
O122 O 0.36969 0.27297 0.40127 0.0
C123 C 0.40187 0.14295 0.47649 0.0
O124 O 0.38389 0.11845 0.46813 0.0
O125 O 0.35335 0.18653 0.49017 0.0
O126 O 0.33019 0.15682 0.4596 0.0
H127 H 0.34778 0.31546 0.55394 0.0
H128 H 0.38357 0.14324 0.40284 0.0
O129 O 0.35015 0.20257 0.39118 0.0
H130 H 0.34183 0.98941 0.42893 0.0
H131 H 0.28889 0.10166 0.36041 0.0
H132 H 0.29252 0.1902 0.44262 0.0
H133 H 0.32503 0.07424 0.43543 0.0
H134 H 0.32595 0.12716 0.37852 0.0
O135 O 0.40084 0.19089 0.47983 0.0
H136 H 0.3427 0.27213 0.5129 0.0
H137 H 0.41438 0.27188 0.50109 0.0
H138 H 0.25511 0.16492 0.42534 0.0
H139 H 0.40093 0.05912 0.39578 0.0
H140 H 0.25314 0.12032 0.38394 0.0
H141 H 0.38006 0.98147 0.40897 0.0
O142 O 0.3274 0.24895 0.43219 0.0
H143 H 0.43818 0.28733 0.41506 0.0
H144 H 0.37659 0.34872 0.4709 0.0
H145 H 0.40106 0.41058 0.44874 0.0
H146 H 0.43214 0.37997 0.42062 0.0
H147 H 0.41317 0.22679 0.43738 0.0
H148 H 0.42027 0.31481 0.54211 0.0
H149 H 0.3868 0.33708 0.56878 0.0
O150 O 0.34679 0.28088 0.46535 0.0
C151 C 0.33654 0.15991 0.48259 0.0
C152 C 0.36249 0.30609 0.54246 0.0
C153 C 0.40318 0.30566 0.53583 0.0
N154 N 0.37821 0.26984 0.50456 0.0
C155 C 0.35972 0.28169 0.51917 0.0
C156 C 0.39975 0.28125 0.51266 0.0
C157 C 0.38439 0.31816 0.55078 0.0
C158 C 0.37429 0.10959 0.4084 0.0
N159 N 0.3533 0.11364 0.41948 0.0
C160 C 0.38425 0.06208 0.40445 0.0
C161 C 0.37254 0.01853 0.41188 0.0
C162 C 0.3511 0.02296 0.42309 0.0
C163 C 0.34169 0.0711 0.42678 0.0
C164 C 0.28953 0.12101 0.37849 0.0
C165 C 0.2918 0.17054 0.42466 0.0
C166 C 0.31046 0.13566 0.3888 0.0
N167 N 0.31139 0.15986 0.41168 0.0
C168 C 0.27057 0.15645 0.41494 0.0
C169 C 0.26948 0.13147 0.3917 0.0
C170 C 0.33071 0.28304 0.44899 0.0
C171 C 0.42473 0.30114 0.42732 0.0
C172 C 0.39002 0.3351 0.45862 0.0
C173 C 0.40386 0.37031 0.44618 0.0
C174 C 0.42131 0.35311 0.43041 0.0
N175 N 0.3935 0.28418 0.4555 0.0
C176 C 0.41058 0.26703 0.4401 0.0
Co177 Co 0.17084 0.81396 0.42773 0.0
Co178 Co 0.13561 0.76652 0.47375 0.0
O179 O 0.14045 0.80135 0.44147 0.0
C180 C 0.14547 0.77033 0.38418 0.0
O181 O 0.13686 0.73613 0.39953 0.0
C182 C 0.10855 0.86101 0.47831 0.0
O183 O 0.12706 0.88512 0.47115 0.0
O184 O 0.15628 0.81509 0.4914 0.0
O185 O 0.18382 0.8246 0.46228 0.0
H186 H 0.15961 0.68605 0.55579 0.0
H187 H 0.13163 0.87281 0.40793 0.0
O188 O 0.15903 0.80407 0.39257 0.0
H189 H 0.18467 1.00021 0.44271 0.0
H190 H 0.22681 0.88689 0.36515 0.0
H191 H 0.21761 0.7808 0.44142 0.0
H192 H 0.19439 0.9092 0.44379 0.0
H193 H 0.18866 0.87219 0.38347 0.0
O194 O 0.10894 0.81283 0.48076 0.0
H195 H 0.16569 0.72885 0.51477 0.0
H196 H 0.0942 0.73269 0.50185 0.0
H197 H 0.25609 0.79482 0.42385 0.0
H198 H 0.12134 0.96354 0.40619 0.0
H199 H 0.26087 0.84821 0.38544 0.0
H200 H 0.14793 0.02791 0.42376 0.0
O201 O 0.17813 0.74068 0.42998 0.0
H202 H 0.07126 0.71878 0.41557 0.0
H203 H 0.13129 0.6537 0.47239 0.0
H204 H 0.10625 0.59336 0.45002 0.0
H205 H 0.07594 0.62583 0.42141 0.0
H206 H 0.09685 0.77779 0.4381 0.0
H207 H 0.08731 0.69035 0.54283 0.0
H208 H 0.12018 0.66655 0.57005 0.0
O209 O 0.16219 0.71908 0.46716 0.0
C210 C 0.1761 0.8297 0.4847 0.0
C211 C 0.14515 0.6961 0.54406 0.0
C212 C 0.10457 0.69857 0.5368 0.0
N213 N 0.13033 0.73286 0.50587 0.0
C214 C 0.1485 0.7202 0.52079 0.0
C215 C 0.10857 0.72263 0.51365 0.0
C216 C 0.12302 0.68521 0.55206 0.0
C217 C 0.1434 0.90066 0.41533 0.0
N218 N 0.16361 0.88572 0.42584 0.0
C219 C 0.13744 0.95195 0.41441 0.0
C220 C 0.15235 0.98805 0.42431 0.0
C221 C 0.17295 0.97252 0.43496 0.0
C222 C 0.17833 0.92091 0.43558 0.0
C223 C 0.22496 0.86363 0.38192 0.0
C224 C 0.21956 0.80432 0.42479 0.0
C225 C 0.20339 0.85509 0.39235 0.0
N226 N 0.20093 0.82597 0.41361 0.0
C227 C 0.24139 0.81201 0.41489 0.0
C228 C 0.24406 0.84193 0.39332 0.0
C229 C 0.17571 0.71025 0.44858 0.0
C230 C 0.08437 0.70417 0.42804 0.0
C231 C 0.11822 0.66813 0.45988 0.0
C232 C 0.10405 0.63378 0.44732 0.0
C233 C 0.08703 0.65202 0.43129 0.0
N234 N 0.1155 0.71924 0.4566 0.0
C235 C 0.09884 0.73741 0.44093 0.0
Co236 Co 0.66768 0.69543 0.924 0.0
Co237 Co 0.63376 0.74238 0.97136 0.0
O238 O 0.63769 0.70839 0.93873 0.0
C239 C 0.64116 0.74059 0.88174 0.0
O240 O 0.6332 0.77457 0.89764 0.0
C241 C 0.60659 0.64834 0.97609 0.0
O242 O 0.62493 0.62426 0.96834 0.0
O243 O 0.65459 0.69279 0.98801 0.0
O244 O 0.68145 0.68358 0.95808 0.0
H245 H 0.66001 0.81983 0.05328 0.0
H246 H 0.62773 0.63793 0.90503 0.0
O247 O 0.65497 0.70655 0.88931 0.0
H248 H 0.68103 0.50853 0.9375 0.0
H249 H 0.7217 0.62317 0.85915 0.0
H250 H 0.71495 0.72674 0.93659 0.0
H251 H 0.69119 0.59926 0.93877 0.0
H252 H 0.68409 0.63827 0.87874 0.0
O253 O 0.60707 0.69647 0.97877 0.0
H254 H 0.66496 0.7781 0.01179 0.0
H255 H 0.59318 0.77634 0.00087 0.0
H256 H 0.7529 0.71232 0.91773 0.0
H257 H 0.617 0.5475 0.90313 0.0
H258 H 0.75645 0.66018 0.87872 0.0
H259 H 0.64371 0.48212 0.91956 0.0
O260 O 0.67538 0.76841 0.92657 0.0
H261 H 0.56825 0.79354 0.91554 0.0
H262 H 0.63005 0.85532 0.97089 0.0
H263 H 0.60478 0.91699 0.94973 0.0
H264 H 0.57358 0.88618 0.92186 0.0
H265 H 0.59408 0.73319 0.93685 0.0
H266 H 0.58742 0.81764 0.04233 0.0
H267 H 0.621 0.83986 0.06879 0.0
O268 O 0.66046 0.78914 0.9644 0.0
C269 C 0.67418 0.67795 0.98065 0.0
C270 C 0.64524 0.81048 0.04189 0.0
C271 C 0.6045 0.80919 0.03576 0.0
N272 N 0.62939 0.7752 0.00386 0.0
C273 C 0.64795 0.78699 0.01836 0.0
C274 C 0.60786 0.78571 0.01233 0.0
C275 C 0.62335 0.82167 0.05059 0.0
C276 C 0.63956 0.60965 0.91192 0.0
N277 N 0.66009 0.62388 0.92188 0.0
C278 C 0.63335 0.55852 0.91091 0.0
C279 C 0.64832 0.52187 0.92018 0.0
C280 C 0.66926 0.53666 0.93027 0.0
C281 C 0.67489 0.58813 0.93098 0.0
C282 C 0.72038 0.64588 0.87617 0.0
C283 C 0.71636 0.70379 0.9197 0.0
C284 C 0.69912 0.65464 0.88732 0.0
N285 N 0.69734 0.68308 0.90889 0.0
C286 C 0.73789 0.69586 0.90907 0.0
C287 C 0.73987 0.66664 0.88717 0.0
C288 C 0.67372 0.79802 0.9456 0.0
C289 C 0.58175 0.80743 0.92769 0.0
C290 C 0.61659 0.84161 0.95869 0.0
C291 C 0.60229 0.87672 0.94682 0.0
C292 C 0.58477 0.8594 0.93121 0.0
N293 N 0.61351 0.79069 0.95515 0.0
C294 C 0.59636 0.77343 0.93989 0.0
Co295 Co 0.84093 0.31538 0.92551 0.0
Co296 Co 0.87517 0.26626 0.97225 0.0
O297 O 0.87091 0.30147 0.94 0.0
C298 C 0.86702 0.2694 0.88314 0.0
O299 O 0.87489 0.23541 0.89907 0.0
C300 C 0.9017 0.36096 0.97751 0.0
O301 O 0.88316 0.3845 0.96998 0.0
O302 O 0.85408 0.31418 0.98969 0.0
O303 O 0.82753 0.32777 0.95973 0.0
H304 H 0.84986 0.18424 0.05344 0.0
H305 H 0.8812 0.37135 0.90619 0.0
O306 O 0.85334 0.30373 0.8907 0.0
H307 H 0.82908 0.50269 0.93914 0.0
H308 H 0.787 0.38913 0.86104 0.0
H309 H 0.79354 0.28587 0.93861 0.0
H310 H 0.81824 0.41236 0.94045 0.0
H311 H 0.82463 0.37292 0.88034 0.0
O312 O 0.90158 0.31277 0.97997 0.0
H313 H 0.84442 0.22764 0.01248 0.0
H314 H 0.91612 0.23237 0.00109 0.0
H315 H 0.75557 0.3014 0.92004 0.0
H316 H 0.89262 0.46136 0.90424 0.0
H317 H 0.75213 0.35338 0.88097 0.0
H318 H 0.8665 0.52772 0.92091 0.0
O319 O 0.83266 0.24266 0.92812 0.0
H320 H 0.94077 0.2197 0.91547 0.0
H321 H 0.87955 0.15353 0.97041 0.0
H322 H 0.90509 0.09362 0.94838 0.0
H323 H 0.936 0.12664 0.92072 0.0
H324 H 0.91468 0.27826 0.93763 0.0
H325 H 0.92237 0.18943 0.04204 0.0
H326 H 0.88907 0.16488 0.06847 0.0
O327 O 0.84873 0.21913 0.96495 0.0
C328 C 0.83471 0.33052 0.98245 0.0
C329 C 0.8645 0.1946 0.04206 0.0
C330 C 0.9052 0.19758 0.03568 0.0
N331 N 0.87992 0.23212 0.00434 0.0
C332 C 0.86152 0.21904 0.01882 0.0
C333 C 0.90156 0.22198 0.01254 0.0
C334 C 0.88651 0.1838 0.05049 0.0
C335 C 0.86962 0.40007 0.91317 0.0
N336 N 0.84904 0.38661 0.92329 0.0
C337 C 0.87623 0.45095 0.91214 0.0
C338 C 0.86159 0.48815 0.92154 0.0
C339 C 0.8406 0.47414 0.93179 0.0
C340 C 0.83457 0.4229 0.93252 0.0
C341 C 0.78827 0.3665 0.87809 0.0
C342 C 0.79217 0.30876 0.92168 0.0
C343 C 0.80954 0.35712 0.88908 0.0
N344 N 0.81126 0.32876 0.91067 0.0
C345 C 0.77063 0.31732 0.91122 0.0
C346 C 0.76871 0.34645 0.88929 0.0
C347 C 0.83489 0.21171 0.94653 0.0
C348 C 0.9274 0.20485 0.92753 0.0
C349 C 0.89288 0.1682 0.9583 0.0
C350 C 0.90734 0.13408 0.94594 0.0
C351 C 0.9247 0.15264 0.93045 0.0
N352 N 0.89566 0.21936 0.95535 0.0
C353 C 0.91265 0.23784 0.94021 0.0
Co354 Co 0.66822 0.81392 0.57496 0.0
Co355 Co 0.63668 0.76778 0.52525 0.0
O356 O 0.63911 0.80068 0.55838 0.0
C357 C 0.6408 0.76472 0.6156 0.0
O358 O 0.63352 0.73113 0.59911 0.0
C359 C 0.61022 0.86276 0.51986 0.0
O360 O 0.62831 0.88607 0.52875 0.0
O361 O 0.65875 0.8167 0.50989 0.0
O362 O 0.68317 0.82881 0.54194 0.0
H363 H 0.66632 0.69109 0.44454 0.0
H364 H 0.62679 0.86784 0.59263 0.0
O365 O 0.6543 0.79994 0.60878 0.0
H366 H 0.67998 1.00235 0.56562 0.0
H367 H 0.71871 0.8848 0.64355 0.0
H368 H 0.71623 0.78506 0.56456 0.0
H369 H 0.69124 0.91231 0.56325 0.0
H370 H 0.68214 0.86943 0.62176 0.0
O371 O 0.61066 0.81476 0.51662 0.0
H372 H 0.66955 0.73167 0.48651 0.0
H373 H 0.59736 0.73597 0.49322 0.0
H374 H 0.75318 0.79981 0.58563 0.0
H375 H 0.61491 0.95748 0.59555 0.0
H376 H 0.75458 0.85004 0.62542 0.0
H377 H 0.64157 0.02543 0.58189 0.0
O378 O 0.67687 0.74145 0.57163 0.0
H379 H 0.56839 0.71765 0.57714 0.0
H380 H 0.63219 0.65504 0.5248 0.0
H381 H 0.60561 0.59376 0.54418 0.0
H382 H 0.5734 0.62499 0.57052 0.0
H383 H 0.59551 0.77759 0.55762 0.0
H384 H 0.59334 0.69583 0.45123 0.0
H385 H 0.62799 0.67292 0.42665 0.0
O386 O 0.66266 0.72011 0.53354 0.0
C387 C 0.67761 0.833 0.51871 0.0
C388 C 0.6511 0.70075 0.45511 0.0
C389 C 0.61013 0.70347 0.45885 0.0
N390 N 0.63367 0.73579 0.49236 0.0
C391 C 0.65282 0.7236 0.4789 0.0
C392 C 0.61251 0.72629 0.48258 0.0
C393 C 0.62959 0.69061 0.44507 0.0
C394 C 0.63858 0.89724 0.58693 0.0
N395 N 0.65971 0.88485 0.5779 0.0
C396 C 0.63172 0.94791 0.58851 0.0
C397 C 0.64667 0.98601 0.5808 0.0
C398 C 0.66822 0.97308 0.57165 0.0
C399 C 0.67447 0.92201 0.5703 0.0
C400 C 0.71833 0.86295 0.62619 0.0
C401 C 0.71671 0.80717 0.5818 0.0
C402 C 0.69767 0.85403 0.6138 0.0
N403 N 0.69707 0.82667 0.59181 0.0
C404 C 0.73768 0.8153 0.59367 0.0
C405 C 0.73845 0.84344 0.61601 0.0
C406 C 0.67554 0.71155 0.55267 0.0
C407 C 0.58232 0.70359 0.56564 0.0
C408 C 0.61828 0.66892 0.53633 0.0
C409 C 0.60324 0.63405 0.5472 0.0
C410 C 0.58517 0.6516 0.56195 0.0
N411 N 0.61536 0.71986 0.54001 0.0
C412 C 0.59768 0.73736 0.55445 0.0
Co413 Co 0.84195 0.19016 0.57651 0.0
Co414 Co 0.87326 0.23614 0.52654 0.0
O415 O 0.87099 0.2039 0.55985 0.0
C416 C 0.86897 0.2411 0.61697 0.0
O417 O 0.87615 0.27453 0.60034 0.0
C418 C 0.90024 0.14175 0.52156 0.0
O419 O 0.88226 0.11808 0.53053 0.0
O420 O 0.85145 0.18638 0.51142 0.0
O421 O 0.82714 0.17402 0.54358 0.0
H422 H 0.84326 0.31027 0.44544 0.0
H423 H 0.8837 0.138 0.59445 0.0
O424 O 0.8557 0.20536 0.61025 0.0
H425 H 0.83138 1.00116 0.56836 0.0
H426 H 0.79179 0.11936 0.64546 0.0
H427 H 0.79378 0.21729 0.5659 0.0
H428 H 0.81955 0.09076 0.56543 0.0
H429 H 0.82829 0.13531 0.6236 0.0
O430 O 0.89954 0.18967 0.51813 0.0
H431 H 0.84023 0.27056 0.48762 0.0
H432 H 0.91243 0.2683 0.49432 0.0
H433 H 0.75689 0.20193 0.58703 0.0
H434 H 0.89615 0.04883 0.59793 0.0
H435 H 0.75574 0.15262 0.62712 0.0
H436 H 0.86993 0.9797 0.58473 0.0
O437 O 0.83284 0.2623 0.57275 0.0
H438 H 0.94127 0.28908 0.57811 0.0
H439 H 0.87718 0.34897 0.52549 0.0
H440 H 0.90345 0.41132 0.54452 0.0
H441 H 0.9358 0.38146 0.571 0.0
H442 H 0.91446 0.22806 0.55894 0.0
H443 H 0.91626 0.3076 0.45211 0.0
H444 H 0.8815 0.32903 0.42742 0.0
O445 O 0.84705 0.2833 0.53459 0.0
C446 C 0.83269 0.16963 0.52035 0.0
C447 C 0.85853 0.30125 0.45604 0.0
C448 C 0.89951 0.29969 0.45978 0.0
N449 N 0.87612 0.26751 0.49348 0.0
C450 C 0.85692 0.2789 0.47997 0.0
C451 C 0.89724 0.27734 0.48363 0.0
C452 C 0.87999 0.31172 0.44594 0.0
C453 C 0.87211 0.10809 0.58894 0.0
N454 N 0.8509 0.11958 0.57986 0.0
C455 C 0.87929 0.05769 0.59084 0.0
C456 C 0.86458 0.01893 0.58339 0.0
C457 C 0.84296 0.03094 0.57418 0.0
C458 C 0.83638 0.08177 0.57251 0.0
C459 C 0.79206 0.14082 0.62798 0.0
C460 C 0.79341 0.19559 0.58327 0.0
C461 C 0.81269 0.15006 0.61555 0.0
N462 N 0.81315 0.17692 0.5934 0.0
C463 C 0.77247 0.18711 0.59518 0.0
C464 C 0.77184 0.15948 0.61768 0.0
C465 C 0.83407 0.29188 0.55365 0.0
C466 C 0.92727 0.30255 0.56655 0.0
C467 C 0.89116 0.33568 0.53709 0.0
C468 C 0.90601 0.37117 0.54775 0.0
C469 C 0.92417 0.35439 0.56259 0.0
N470 N 0.89433 0.2849 0.54104 0.0
C471 C 0.91209 0.26816 0.55556 0.0
H472 H 0.30344 0.17942 0.0884 0.0
H473 H 0.27833 0.10577 0.08677 0.0
H474 H 0.3051 0.06648 0.01325 0.0
H475 H 0.33072 0.13974 0.01487 0.0
H476 H 0.2445 0.08506 0.05308 0.0
H477 H 0.30957 0.9321 0.05062 0.0
H478 H 0.31652 0.99686 0.05862 0.0
H479 H 0.31274 0.97872 0.02606 0.0
C480 C 0.30425 0.15494 0.07194 0.0
C481 C 0.31927 0.16562 0.0518 0.0
C482 C 0.28976 0.11282 0.07103 0.0
C483 C 0.28994 0.08016 0.05003 0.0
C484 C 0.30495 0.09047 0.0299 0.0
H485 H 0.17975 0.86477 0.01714 0.0
H486 H 0.2064 0.93614 0.01605 0.0
C487 C 0.31954 0.1326 0.03082 0.0
C488 C 0.27382 0.03648 0.04901 0.0
H489 H 0.27108 0.90718 0.04462 0.0
C490 C 0.25032 0.04616 0.05121 0.0
C491 C 0.2814 0.98564 0.04685 0.0
C492 C 0.30643 0.97247 0.04564 0.0
C493 C 0.23423 0.00658 0.05129 0.0
C494 C 0.24177 0.95581 0.04861 0.0
C495 C 0.26527 0.94609 0.04646 0.0
C496 C 0.22564 0.91212 0.04892 0.0
C497 C 0.20935 0.01947 0.05497 0.0
C498 C 0.22786 0.87406 0.06736 0.0
C499 C 0.21277 0.83295 0.06794 0.0
C500 C 0.19506 0.82879 0.05001 0.0
C501 C 0.193 0.86681 0.03139 0.0
C502 C 0.20819 0.90787 0.0308 0.0
H503 H 0.20708 0.05791 0.06324 0.0
H504 H 0.20062 0.01884 0.03633 0.0
H505 H 0.20087 0.9914 0.06752 0.0
H506 H 0.24123 0.87637 0.08149 0.0
H507 H 0.21501 0.80445 0.08251 0.0
H508 H 0.20595 0.67774 0.41246 0.0
H509 H 0.23116 0.60421 0.41396 0.0
H510 H 0.20463 0.56461 0.48753 0.0
H511 H 0.17892 0.63782 0.48605 0.0
H512 H 0.26512 0.58341 0.44756 0.0
H513 H 0.20016 0.43033 0.44997 0.0
H514 H 0.19315 0.4951 0.44204 0.0
H515 H 0.19704 0.47689 0.47457 0.0
C516 C 0.20523 0.65323 0.42891 0.0
C517 C 0.19023 0.66382 0.4491 0.0
C518 C 0.21976 0.61117 0.42975 0.0
C519 C 0.21968 0.57844 0.45072 0.0
C520 C 0.20472 0.58867 0.47091 0.0
H521 H 0.33012 0.36276 0.48266 0.0
H522 H 0.30342 0.43406 0.48404 0.0
C523 C 0.19007 0.63077 0.47007 0.0
C524 C 0.23585 0.53476 0.45161 0.0
H525 H 0.23869 0.4054 0.45561 0.0
C526 C 0.25933 0.54448 0.44934 0.0
C527 C 0.22831 0.48388 0.45367 0.0
C528 C 0.20329 0.47069 0.45497 0.0
C529 C 0.27545 0.50491 0.44908 0.0
C530 C 0.26796 0.4541 0.45164 0.0
C531 C 0.24446 0.44434 0.45387 0.0
C532 C 0.28413 0.41042 0.45115 0.0
C533 C 0.3003 0.51787 0.44535 0.0
C534 C 0.28191 0.37259 0.43259 0.0
C535 C 0.29705 0.33152 0.43183 0.0
C536 C 0.31479 0.32715 0.4497 0.0
C537 C 0.31684 0.36495 0.46844 0.0
C538 C 0.30162 0.40597 0.4692 0.0
H539 H 0.30253 0.55643 0.43719 0.0
H540 H 0.30911 0.517 0.46395 0.0
H541 H 0.30876 0.48998 0.43267 0.0
H542 H 0.26851 0.37504 0.4185 0.0
H543 H 0.2948 0.30318 0.41718 0.0
H544 H 0.70608 0.8262 0.91087 0.0
H545 H 0.73331 0.89582 0.91372 0.0
H546 H 0.7044 0.94095 0.98535 0.0
H547 H 0.67678 0.8713 0.98266 0.0
H548 H 0.71279 0.0227 0.95217 0.0
H549 H 0.78894 0.89917 0.961 0.0
H550 H 0.77145 0.88445 0.93408 0.0
H551 H 0.76025 0.87589 0.96551 0.0
C552 C 0.70534 0.85093 0.92724 0.0
C553 C 0.6892 0.84278 0.94661 0.0
C554 C 0.7211 0.89057 0.92891 0.0
C555 C 0.72122 0.92298 0.94998 0.0
C556 C 0.70475 0.91609 0.96901 0.0
H557 H 0.83202 0.13734 0.98307 0.0
H558 H 0.80443 0.06762 0.98544 0.0
C559 C 0.68894 0.87626 0.96741 0.0
C560 C 0.73845 0.96426 0.95189 0.0
H561 H 0.79591 0.9867 0.95231 0.0
C562 C 0.73095 0.01484 0.9524 0.0
C563 C 0.76216 0.954 0.95259 0.0
C564 C 0.77124 0.90044 0.95352 0.0
C565 C 0.74653 0.05542 0.95264 0.0
C566 C 0.77026 0.04516 0.95201 0.0
C567 C 0.77775 0.99457 0.95247 0.0
C568 C 0.7875 0.08647 0.95026 0.0
C569 C 0.73744 0.10896 0.95364 0.0
C570 C 0.78756 0.1194 0.92939 0.0
C571 C 0.80329 0.15915 0.92792 0.0
C572 C 0.81948 0.16682 0.94728 0.0
C573 C 0.81982 0.13275 0.96784 0.0
C574 C 0.80403 0.09288 0.96925 0.0
H575 H 0.71974 0.11015 0.96119 0.0
H576 H 0.74842 0.13353 0.9656 0.0
H577 H 0.73716 0.12497 0.9342 0.0
H578 H 0.77533 0.1145 0.91421 0.0
H579 H 0.8025 0.1843 0.91172 0.0
H580 H 0.70745 0.68373 0.58802 0.0
H581 H 0.73414 0.6128 0.58622 0.0
H582 H 0.70555 0.56587 0.51476 0.0
H583 H 0.67851 0.63676 0.51638 0.0
H584 H 0.71288 0.48516 0.54907 0.0
H585 H 0.79014 0.60503 0.53939 0.0
H586 H 0.77249 0.62146 0.56597 0.0
H587 H 0.76168 0.6293 0.53435 0.0
C588 C 0.70667 0.65833 0.57191 0.0
C589 C 0.69079 0.66632 0.55227 0.0
C590 C 0.72212 0.61792 0.57085 0.0
C591 C 0.72215 0.58457 0.55013 0.0
C592 C 0.70595 0.5914 0.53084 0.0
H593 H 0.83066 0.36545 0.51682 0.0
H594 H 0.80344 0.43591 0.51487 0.0
C595 C 0.69048 0.63197 0.53182 0.0
C596 C 0.73903 0.54245 0.54881 0.0
H597 H 0.79629 0.51743 0.54823 0.0
C598 C 0.73111 0.49219 0.54874 0.0
C599 C 0.76283 0.55163 0.54799 0.0
C600 C 0.77235 0.60476 0.54668 0.0
C601 C 0.74634 0.45092 0.54869 0.0
C602 C 0.77014 0.46012 0.54903 0.0
C603 C 0.77806 0.51037 0.54827 0.0
C604 C 0.78706 0.41809 0.55051 0.0
C605 C 0.73679 0.39776 0.54811 0.0
C606 C 0.78729 0.38536 0.57147 0.0
C607 C 0.80284 0.34515 0.57271 0.0
C608 C 0.81864 0.33681 0.55302 0.0
C609 C 0.81875 0.37053 0.53231 0.0
C610 C 0.80318 0.41085 0.53114 0.0
H611 H 0.71895 0.39717 0.541 0.0
H612 H 0.74736 0.3726 0.53596 0.0
H613 H 0.73679 0.382 0.5676 0.0
H614 H 0.77536 0.39083 0.58691 0.0
H615 H 0.80222 0.32023 0.58901 0.0
H616 H 0.34105 0.32025 0.15448 0.0
H617 H 0.34894 0.31774 0.19963 0.0
H618 H 0.40727 0.22152 0.18604 0.0
H619 H 0.39885 0.22226 0.14048 0.0
H620 H 0.38396 0.18597 0.22373 0.0
H621 H 0.39451 0.39023 0.24161 0.0
H622 H 0.36766 0.37991 0.22633 0.0
H623 H 0.3938 0.36454 0.20994 0.0
C624 C 0.35571 0.2989 0.16099 0.0
C625 C 0.36938 0.27158 0.14387 0.0
C626 C 0.36036 0.29796 0.18688 0.0
C627 C 0.37911 0.2707 0.19628 0.0
C628 C 0.39286 0.24333 0.17922 0.0
H629 H 0.39597 0.29729 0.36224 0.0
H630 H 0.4048 0.30344 0.31681 0.0
C631 C 0.38801 0.24366 0.15322 0.0
C632 C 0.38296 0.26775 0.22408 0.0
H633 H 0.38186 0.33983 0.27784 0.0
C634 C 0.38398 0.2197 0.2355 0.0
C635 C 0.38369 0.31161 0.2396 0.0
C636 C 0.38514 0.36439 0.22865 0.0
C637 C 0.38393 0.21431 0.26194 0.0
C638 C 0.38197 0.25806 0.27739 0.0
C639 C 0.38278 0.30618 0.26605 0.0
C640 C 0.37712 0.25445 0.30496 0.0
C641 C 0.38565 0.16162 0.27298 0.0
C642 C 0.35832 0.22612 0.31334 0.0
C643 C 0.35342 0.22218 0.33909 0.0
C644 C 0.36691 0.24746 0.35712 0.0
C645 C 0.38529 0.27738 0.34877 0.0
C646 C 0.39038 0.28077 0.32286 0.0
H647 H 0.39563 0.1362 0.26034 0.0
H648 H 0.39382 0.16198 0.29195 0.0
H649 H 0.36829 0.14525 0.27479 0.0
H650 H 0.34727 0.20712 0.29991 0.0
H651 H 0.33891 0.19948 0.34485 0.0
H652 H 0.11062 0.72079 0.35965 0.0
H653 H 0.10316 0.71917 0.31389 0.0
H654 H 0.16196 0.81439 0.30126 0.0
H655 H 0.1689 0.81783 0.34662 0.0
H656 H 0.12759 0.84413 0.27231 0.0
H657 H 0.13784 0.635 0.26382 0.0
H658 H 0.11535 0.65512 0.2846 0.0
H659 H 0.14455 0.66872 0.29256 0.0
C660 C 0.12189 0.74139 0.34705 0.0
C661 C 0.14041 0.76916 0.35673 0.0
C662 C 0.11768 0.74027 0.32092 0.0
C663 C 0.13222 0.76598 0.30405 0.0
C664 C 0.15046 0.79431 0.31383 0.0
H665 H 0.17318 0.70722 0.15417 0.0
H666 H 0.16573 0.71532 0.19931 0.0
C667 C 0.15446 0.79609 0.33983 0.0
C668 C 0.12921 0.76286 0.27614 0.0
H669 H 0.13115 0.68031 0.22636 0.0
C670 C 0.12817 0.80829 0.26223 0.0
C671 C 0.13003 0.71605 0.26302 0.0
C672 C 0.1322 0.66594 0.27669 0.0
C673 C 0.12912 0.80841 0.23563 0.0
C674 C 0.1304 0.76163 0.22255 0.0
C675 C 0.13018 0.71614 0.23643 0.0
C676 C 0.13461 0.75871 0.19482 0.0
C677 C 0.13011 0.85867 0.22196 0.0
C678 C 0.11969 0.78084 0.17711 0.0
C679 C 0.12419 0.77705 0.15107 0.0
C680 C 0.14338 0.75012 0.14242 0.0
C681 C 0.15818 0.72801 0.16021 0.0
C682 C 0.1539 0.73249 0.18607 0.0
H683 H 0.13414 0.89051 0.23501 0.0
H684 H 0.14315 0.85788 0.2067 0.0
H685 H 0.11328 0.86654 0.21318 0.0
H686 H 0.10444 0.80034 0.18336 0.0
H687 H 0.11237 0.79396 0.13774 0.0
H688 H 0.60489 0.78967 0.85964 0.0
H689 H 0.59455 0.7901 0.81456 0.0
H690 H 0.65308 0.69642 0.79792 0.0
H691 H 0.66287 0.69418 0.84261 0.0
H692 H 0.6156 0.82637 0.77556 0.0
H693 H 0.60652 0.6217 0.75843 0.0
H694 H 0.60826 0.64753 0.79003 0.0
H695 H 0.63386 0.633 0.77242 0.0
C696 C 0.61537 0.7688 0.84633 0.0
C697 C 0.63459 0.7416 0.85469 0.0
C698 C 0.60942 0.76892 0.82061 0.0
C699 C 0.62265 0.74208 0.80285 0.0
C700 C 0.64204 0.7157 0.81126 0.0
H701 H 0.66104 0.81242 0.65522 0.0
H702 H 0.65129 0.80737 0.69978 0.0
C703 C 0.64777 0.71493 0.83687 0.0
C704 C 0.61759 0.74466 0.77528 0.0
H705 H 0.61821 0.67225 0.72166 0.0
C706 C 0.61564 0.79255 0.76384 0.0
C707 C 0.61684 0.70067 0.75987 0.0
C708 C 0.6162 0.6479 0.77093 0.0
C709 C 0.615 0.79774 0.7374 0.0
C710 C 0.61723 0.75403 0.72197 0.0
C711 C 0.6171 0.70595 0.7334 0.0
C712 C 0.62226 0.75769 0.69444 0.0
C713 C 0.61244 0.85023 0.72634 0.0
C714 C 0.60984 0.72958 0.67647 0.0
C715 C 0.61575 0.73151 0.65072 0.0
C716 C 0.63414 0.76168 0.64261 0.0
C717 C 0.64655 0.7894 0.66071 0.0
C718 C 0.64084 0.78696 0.68628 0.0
H719 H 0.60195 0.87471 0.73892 0.0
H720 H 0.62951 0.86811 0.72469 0.0
H721 H 0.60439 0.8492 0.70731 0.0
H722 H 0.59562 0.70615 0.68236 0.0
H723 H 0.6059 0.70967 0.63722 0.0
H724 H 0.90344 0.29747 0.63859 0.0
H725 H 0.91337 0.30217 0.68379 0.0
H726 H 0.85802 0.20008 0.70128 0.0
H727 H 0.84863 0.1939 0.65668 0.0
H728 H 0.89034 0.33622 0.72287 0.0
H729 H 0.90745 0.13441 0.74096 0.0
H730 H 0.90511 0.15942 0.70923 0.0
H731 H 0.87996 0.14014 0.72648 0.0
C732 C 0.89358 0.27571 0.65212 0.0
C733 C 0.8754 0.24494 0.64401 0.0
C734 C 0.89929 0.27831 0.67791 0.0
C735 C 0.88687 0.25028 0.69592 0.0
C736 C 0.86847 0.22045 0.68776 0.0
H737 H 0.8453 0.31518 0.84385 0.0
H738 H 0.85523 0.31263 0.79917 0.0
C739 C 0.86297 0.21735 0.66216 0.0
C740 C 0.8917 0.25448 0.72347 0.0
H741 H 0.89332 0.18293 0.77731 0.0
C742 C 0.89153 0.30272 0.73474 0.0
C743 C 0.89403 0.21104 0.73907 0.0
C744 C 0.89694 0.15846 0.72821 0.0
C745 C 0.89159 0.30837 0.76119 0.0
C746 C 0.89095 0.26458 0.77675 0.0
C747 C 0.89319 0.21659 0.76549 0.0
C748 C 0.88577 0.26741 0.8043 0.0
C749 C 0.89195 0.36131 0.77207 0.0
C750 C 0.899 0.24091 0.82216 0.0
C751 C 0.89296 0.24117 0.84786 0.0
C752 C 0.87364 0.26819 0.85611 0.0
C753 C 0.86046 0.29456 0.83819 0.0
C754 C 0.86629 0.29362 0.81259 0.0
H755 H 0.90159 0.38754 0.75953 0.0
H756 H 0.87421 0.37587 0.77339 0.0
H757 H 0.89977 0.36213 0.79121 0.0
H758 H 0.91396 0.21989 0.81622 0.0
H759 H 0.90345 0.22056 0.86125 0.0
H760 H 0.44152 0.32786 0.00593 0.0
H761 H 0.47646 0.37627 0.99828 0.0
H762 H 0.44194 0.51405 0.02006 0.0
H763 H 0.40682 0.46612 0.02745 0.0
H764 H 0.46742 0.52473 0.97601 0.0
H765 H 0.51934 0.43495 0.05159 0.0
H766 H 0.50684 0.39064 0.02982 0.0
H767 H 0.48873 0.42816 0.04997 0.0
C768 C 0.44134 0.36845 0.00915 0.0
C769 C 0.42134 0.39304 0.01737 0.0
C770 C 0.4614 0.39605 0.00491 0.0
C771 C 0.46196 0.44871 0.00899 0.0
C772 C 0.44196 0.47343 0.0169 0.0
H773 H 0.56548 0.68521 0.99289 0.0
H774 H 0.53036 0.63753 0.00081 0.0
C775 C 0.42188 0.44591 0.02112 0.0
C776 C 0.48324 0.47823 0.00456 0.0
H777 H 0.53892 0.48923 0.02304 0.0
C778 C 0.48302 0.51715 0.98638 0.0
C779 C 0.50362 0.46831 0.01808 0.0
C780 C 0.50469 0.42858 0.03863 0.0
C781 C 0.50271 0.54571 0.981 0.0
C782 C 0.5231 0.5357 0.99449 0.0
C783 C 0.52331 0.49685 0.01269 0.0
C784 C 0.54445 0.56483 0.98987 0.0
C785 C 0.50165 0.58551 0.96049 0.0
C786 C 0.56426 0.53972 0.98169 0.0
C787 C 0.58442 0.56681 0.97729 0.0
C788 C 0.58525 0.61963 0.98113 0.0
C789 C 0.56544 0.64463 0.98961 0.0
C790 C 0.54528 0.61746 0.99401 0.0
H791 H 0.48685 0.57956 0.94768 0.0
H792 H 0.4998 0.62348 0.96934 0.0
H793 H 0.51751 0.58551 0.94897 0.0
H794 H 0.56407 0.49912 0.97847 0.0
H795 H 0.59933 0.54628 0.97077 0.0
H796 H 0.06777 0.68056 0.005 0.0
H797 H 0.03245 0.63293 0.9978 0.0
H798 H 0.06584 0.49535 0.02191 0.0
H799 H 0.10103 0.54256 0.0295 0.0
H800 H 0.02422 0.55091 0.96571 0.0
H801 H 0.00856 0.4968 0.06576 0.0
H802 H 0.02878 0.54529 0.05689 0.0
H803 H 0.03632 0.47933 0.05432 0.0
C804 C 0.06759 0.64018 0.00884 0.0
C805 C 0.08725 0.61546 0.01792 0.0
C806 C 0.04739 0.613 0.00469 0.0
C807 C 0.04636 0.56069 0.00971 0.0
C808 C 0.06604 0.53585 0.01843 0.0
H809 H 0.94299 0.32564 0.99456 0.0
H810 H 0.97795 0.37443 0.00184 0.0
C811 C 0.08623 0.56292 0.02258 0.0
C812 C 0.02488 0.53187 0.00535 0.0
H813 H 0.98531 0.45688 0.03473 0.0
C814 C 0.01563 0.53061 0.98083 0.0
C815 C 0.0137 0.50527 0.02508 0.0
C816 C 0.02219 0.507 0.05205 0.0
C817 C 0.99579 0.50265 0.97539 0.0
C818 C 0.98466 0.47589 0.99509 0.0
C819 C 0.99388 0.47726 0.01963 0.0
C820 C 0.96337 0.44646 0.99067 0.0
C821 C 0.98721 0.50102 0.94845 0.0
C822 C 0.94344 0.47082 0.98232 0.0
C823 C 0.92342 0.44308 0.97816 0.0
C824 C 0.92287 0.39036 0.9824 0.0
C825 C 0.9428 0.36614 0.99106 0.0
C826 C 0.96281 0.39397 0.99525 0.0
H827 H 1.00066 0.51223 0.93471 0.0
H828 H 0.98102 0.46247 0.94347 0.0
H829 H 0.97275 0.52789 0.9464 0.0
H830 H 0.94331 0.51142 0.97914 0.0
H831 H 0.9084 0.46305 0.97156 0.0
H832 H 0.56947 0.82726 0.50142 0.0
H833 H 0.53443 0.87541 0.49377 0.0
H834 H 0.56784 0.0124 0.51858 0.0
H835 H 0.60286 0.96451 0.52662 0.0
H836 H 0.52494 0.99964 0.53994 0.0
H837 H 0.52097 0.97327 0.43577 0.0
H838 H 0.52315 0.9151 0.45331 0.0
H839 H 0.54633 0.95976 0.45394 0.0
C840 C 0.56944 0.86769 0.5051 0.0
C841 C 0.58907 0.89202 0.51448 0.0
C842 C 0.5494 0.89524 0.50058 0.0
C843 C 0.54858 0.94772 0.50521 0.0
C844 C 0.56809 0.97202 0.51472 0.0
H845 H 0.44254 0.18062 0.49418 0.0
H846 H 0.47812 0.13411 0.50142 0.0
C847 C 0.58814 0.94454 0.51924 0.0
C848 C 0.52721 0.97706 0.50083 0.0
H849 H 0.48844 0.01007 0.45534 0.0
C850 C 0.51702 1.00217 0.52141 0.0
C851 C 0.51685 0.98031 0.47666 0.0
C852 C 0.52746 0.9561 0.45358 0.0
C853 C 0.49655 0.0295 0.51861 0.0
C854 C 0.48615 0.03262 0.49445 0.0
C855 C 0.49638 0.00764 0.47386 0.0
C856 C 0.46455 0.06114 0.49016 0.0
C857 C 0.48592 0.05369 0.54168 0.0
C858 C 0.44519 0.03594 0.48087 0.0
C859 C 0.42485 0.06245 0.47658 0.0
C860 C 0.42344 0.11492 0.48137 0.0
C861 C 0.44294 0.1402 0.49047 0.0
C862 C 0.46329 0.11359 0.49476 0.0
H863 H 0.49263 0.037 0.55952 0.0
H864 H 0.48994 0.09483 0.54177 0.0
H865 H 0.46708 0.04938 0.54147 0.0
H866 H 0.44577 0.99556 0.47704 0.0
H867 H 0.41025 0.04176 0.46942 0.0
H868 H 0.90804 0.04013 0.52825 0.0
H869 H 0.94348 0.99329 0.52087 0.0
H870 H 0.97617 0.13086 0.49568 0.0
H871 H 0.94088 0.1782 0.50323 0.0
H872 H 0.96862 0.98104 0.47613 0.0
H873 H 0.02018 0.07799 0.54984 0.0
H874 H 0.98947 0.08265 0.5486 0.0
H875 H 0.00678 0.11997 0.52755 0.0
C876 C 0.92275 0.06052 0.52113 0.0
C877 C 0.92159 0.11304 0.51641 0.0
C878 C 0.94301 0.03363 0.51692 0.0
C879 C 0.96261 0.05864 0.50808 0.0
C880 C 0.96143 0.1109 0.50299 0.0
H881 H 0.10103 0.96285 0.47208 0.0
H882 H 0.06551 0.00976 0.47885 0.0
C883 C 0.94116 0.13786 0.50717 0.0
C884 C 0.98415 0.02984 0.50389 0.0
H885 H 0.03994 0.02194 0.52239 0.0
C886 C 0.9842 0.98983 0.48631 0.0
C887 C 1.00449 0.04138 0.51715 0.0
C888 C 0.00529 0.08252 0.53701 0.0
C889 C 1.0041 0.96166 0.4813 0.0
C890 C 0.02443 0.97312 0.49461 0.0
C891 C 0.02438 0.01316 0.51218 0.0
C892 C 0.04597 0.94417 0.49054 0.0
C893 C 1.00328 0.92069 0.46136 0.0
C894 C 0.04695 0.89171 0.49518 0.0
C895 C 0.06724 0.86469 0.49128 0.0
C896 C 0.08708 0.88966 0.48286 0.0
C897 C 0.08611 0.94234 0.47857 0.0
C898 C 0.0658 0.96928 0.48244 0.0
H899 H 0.9886 0.92589 0.44829 0.0
H900 H 0.01925 0.92003 0.45003 0.0
H901 H 1.00134 0.88325 0.47072 0.0
H902 H 0.03204 0.87165 0.50198 0.0
H903 H 0.06738 0.82424 0.49491 0.0
H904 H 0.17756 0.55984 0.01811 0.0
H905 H 0.20606 0.50895 0.99602 0.0
H906 H 0.22727 0.64081 0.95365 0.0
H907 H 0.19858 0.69232 0.97622 0.0
H908 H 0.21926 0.48778 0.94442 0.0
H909 H 0.28318 0.60295 0.99778 0.0
H910 H 0.25321 0.60622 0.00535 0.0
H911 H 0.26369 0.63461 0.97672 0.0
C912 C 0.1879 0.57762 0.0036 0.0
C913 C 0.18614 0.62981 0.99893 0.0
C914 C 0.20409 0.54854 0.99089 0.0
C915 C 0.21899 0.57125 0.97345 0.0
C916 C 0.21605 0.62271 0.96721 0.0
H917 H 0.3456 0.39809 0.97887 0.0
H918 H 0.32021 0.45727 0.9564 0.0
C919 C 0.19962 0.65195 0.97991 0.0
C920 C 0.2393 0.54201 0.96531 0.0
H921 H 0.29433 0.52287 0.98398 0.0
C922 C 0.23594 0.49617 0.95228 0.0
C923 C 0.26112 0.55317 0.97538 0.0
C924 C 0.2657 0.60176 0.98967 0.0
C925 C 0.25314 0.45912 0.95129 0.0
C926 C 0.274 0.46796 0.96398 0.0
C927 C 0.27827 0.51604 0.97437 0.0
C928 C 0.2891 0.42565 0.97188 0.0
C929 C 0.24825 0.40954 0.93814 0.0
C930 C 0.28003 0.38766 0.98755 0.0
C931 C 0.29439 0.3545 0.00048 0.0
C932 C 0.31817 0.35846 0.99797 0.0
C933 C 0.3273 0.39395 0.98089 0.0
C934 C 0.31284 0.42777 0.96811 0.0
H935 H 0.23692 0.41554 0.92154 0.0
H936 H 0.26419 0.39072 0.93171 0.0
H937 H 0.23925 0.38379 0.95143 0.0
H938 H 0.26187 0.38601 0.99134 0.0
H939 H 0.28692 0.32751 0.01355 0.0
H940 H 0.33305 0.05835 0.48229 0.0
H941 H 0.30425 0.00762 0.50401 0.0
H942 H 0.28164 0.14041 0.54476 0.0
H943 H 0.31061 0.1917 0.52258 0.0
H944 H 0.28988 0.98782 0.55541 0.0
H945 H 0.22696 0.10042 0.49926 0.0
H946 H 0.2571 0.10367 0.4926 0.0
H947 H 0.24582 0.13325 0.52055 0.0
C948 C 0.32236 0.07634 0.49642 0.0
C949 C 0.32382 0.1287 0.50075 0.0
C950 C 0.30598 0.04738 0.5089 0.0
C951 C 0.29061 0.07038 0.52574 0.0
C952 C 0.29324 0.12207 0.53167 0.0
H953 H 0.16346 0.89876 0.52088 0.0
H954 H 0.18901 0.9586 0.54266 0.0
C955 C 0.30983 0.15118 0.5192 0.0
C956 C 0.27019 0.04117 0.53355 0.0
H957 H 0.21537 0.02156 0.51424 0.0
C958 C 0.27333 0.99592 0.54715 0.0
C959 C 0.24854 0.05194 0.52293 0.0
C960 C 0.24423 0.09979 0.50792 0.0
C961 C 0.25605 0.95911 0.54837 0.0
C962 C 0.23532 0.96754 0.53532 0.0
C963 C 0.23131 0.01505 0.52417 0.0
C964 C 0.22006 0.9251 0.528 0.0
C965 C 0.26067 0.91022 0.56227 0.0
C966 C 0.22904 0.8858 0.51308 0.0
C967 C 0.21459 0.85222 0.50056 0.0
C968 C 0.19082 0.85707 0.50274 0.0
C969 C 0.18176 0.89391 0.51915 0.0
C970 C 0.19631 0.92812 0.53152 0.0
H971 H 0.27189 0.91696 0.57889 0.0
H972 H 0.24462 0.89203 0.5688 0.0
H973 H 0.26971 0.88358 0.54943 0.0
H974 H 0.24721 0.88338 0.50948 0.0
H975 H 0.222 0.82421 0.48797 0.0
H976 H 0.72024 0.68079 0.98331 0.0
H977 H 0.74495 0.61651 0.00215 0.0
H978 H 0.68619 0.54188 0.0342 0.0
H979 H 0.66122 0.60684 0.01549 0.0
H980 H 0.75005 0.56368 0.0547 0.0
H981 H 0.71457 0.45035 0.97451 0.0
H982 H 0.71242 0.51862 0.97508 0.0
H983 H 0.69523 0.48126 0.99608 0.0
C984 C 0.71266 0.65176 0.99517 0.0
C985 C 0.68886 0.64841 0.99782 0.0
C986 C 0.72679 0.61522 0.006 0.0
C987 C 0.71735 0.57443 0.0194 0.0
C988 C 0.69375 0.57333 0.02399 0.0
H989 H 0.79507 0.29712 0.00251 0.0
H990 H 0.76526 0.35026 0.02142 0.0
C991 C 0.67954 0.61043 0.01337 0.0
C992 C 0.73173 0.52926 0.02384 0.0
H993 H 0.74724 0.41971 0.99428 0.0
C994 C 0.74918 0.53141 0.04198 0.0
C995 C 0.73048 0.48739 0.00718 0.0
C996 C 0.71227 0.48389 0.987 0.0
C997 C 0.76608 0.49358 0.04315 0.0
C998 C 0.76582 0.45364 0.0252 0.0
C999 C 0.74749 0.45011 0.00813 0.0
C1000 C 0.78552 0.41901 0.02119 0.0
C1001 C 0.78429 0.49753 0.06322 0.0
C1002 C 0.80721 0.43928 0.01586 0.0
C1003 C 0.82437 0.40859 0.00568 0.0
C1004 C 0.81996 0.35747 0.00032 0.0
C1005 C 0.79888 0.33633 0.00703 0.0
C1006 C 0.78186 0.36674 0.01768 0.0
H1007 H 0.77736 0.51522 0.08072 0.0
H1008 H 0.79151 0.45981 0.06807 0.0
H1009 H 0.79825 0.52226 0.05622 0.0
H1010 H 0.81033 0.47962 0.01753 0.0
H1011 H 0.84034 0.4258 -0.0001 0.0
H1012 H 0.72118 0.85931 0.52998 0.0
H1013 H 0.74644 0.91406 0.50651 0.0
H1014 H 0.69752 0.92305 0.44559 0.0
H1015 H 0.67123 0.86871 0.46984 0.0
H1016 H 0.76742 0.91239 0.46077 0.0
H1017 H 0.70425 0.07076 0.46438 0.0
H1018 H 0.69933 0.01304 0.48184 0.0
H1019 H 0.69706 0.01324 0.4479 0.0
C1020 C 0.71564 0.8724 0.51153 0.0
C1021 C 0.69388 0.86037 0.50208 0.0
C1022 C 0.73031 0.90354 0.49795 0.0
C1023 C 0.72384 0.9234 0.47439 0.0
C1024 C 0.70273 0.90898 0.46396 0.0
H1025 H 0.83845 0.13726 0.47078 0.0
H1026 H 0.81212 0.08369 0.44616 0.0
C1027 C 0.68779 0.87771 0.47777 0.0
C1028 C 0.73869 0.963 0.46301 0.0
H1029 H 0.74271 0.09205 0.46326 0.0
C1030 C 0.76202 0.95177 0.46036 0.0
C1031 C 0.73153 0.01426 0.46191 0.0
C1032 C 0.70672 0.02896 0.46417 0.0
C1033 C 0.77858 0.99026 0.4611 0.0
C1034 C 0.77145 0.04131 0.46364 0.0
C1035 C 0.74809 0.05277 0.46176 0.0
C1036 C 0.78648 0.07977 0.47566 0.0
C1037 C 0.80343 0.97547 0.46243 0.0
C1038 C 0.78043 0.09707 0.49986 0.0
C1039 C 0.79513 0.12771 0.51367 0.0
C1040 C 0.8165 0.14181 0.50381 0.0
C1041 C 0.82222 0.12666 0.47901 0.0
C1042 C 0.80725 0.09587 0.46498 0.0
H1043 H 0.80593 0.93372 0.46142 0.0
H1044 H 0.81282 0.99307 0.44644 0.0
H1045 H 0.81109 0.98945 0.48036 0.0
H1046 H 0.76459 0.08514 0.50862 0.0
H1047 H 0.78988 0.13897 0.53252 0.0
loop_
_geom_bond_atom_site_label_1
_geom_bond_atom_site_label_2
_geom_bond_distance
_geom_bond_site_symmetry_2
_ccdc_geom_bond_type
Co0 O2 2.143 . S
Co0 O8 2.074 . S
Co0 O11 2.093 . S
Co0 O24 2.097 . S
Co0 N41 2.151 . S
Co0 N49 2.214 . S
Co1 O2 2.160 . S
Co1 O7 2.058 . S
Co1 O17 2.057 . S
Co1 O32 2.037 . S
Co1 N36 2.145 1_554 S
Co1 N57 2.257 . S
O2 Co0 2.143 . S
O2 Co1 2.160 . S
C3 O4 1.278 . S
C3 O11 1.224 . S
O4 C3 1.278 . S
C5 O6 1.245 . S
C5 O17 1.232 . S
O6 C5 1.245 . S
O7 Co1 2.058 . S
O7 C33 1.269 . S
O8 Co0 2.074 . S
O8 C33 1.257 . S
H9 C34 0.930 . S
H10 C40 0.930 . S
O11 Co0 2.093 . S
O11 C3 1.224 . S
H12 C44 0.929 . S
H13 C46 0.930 . S
H14 C47 0.930 . S
H15 C45 0.929 . S
H16 C48 0.928 . S
O17 Co1 2.057 . S
O17 C5 1.232 . S
H18 C37 0.929 . S
H19 C38 0.929 . S
H20 C50 0.931 . S
H21 C42 0.929 . S
H22 C51 0.930 . S
H23 C43 0.931 . S
O24 Co0 2.097 . S
O24 C52 1.214 . S
H25 C53 0.929 . S
H26 C54 0.929 . S
H27 C55 0.930 . S
H28 C56 0.929 . S
H29 C58 0.930 . S
H30 C35 0.930 . S
H31 C39 0.930 . S
O32 Co1 2.037 . S
O32 C52 1.234 . S
C33 O7 1.269 . S
C33 O8 1.257 . S
C34 H9 0.930 . S
C34 C37 1.388 . S
C34 C39 1.418 . S
C35 H30 0.930 . S
C35 C38 1.404 . S
C35 C39 1.353 . S
N36 Co1 2.145 1_556 S
N36 C37 1.397 . S
N36 C38 1.334 . S
C37 H18 0.929 . S
C37 C34 1.388 . S
C37 N36 1.397 . S
C38 H19 0.929 . S
C38 C35 1.404 . S
C38 N36 1.334 . S
C39 H31 0.930 . S
C39 C34 1.418 . S
C39 C35 1.353 . S
C40 H10 0.930 . S
C40 N41 1.330 . S
C40 C42 1.446 . S
N41 Co0 2.151 . S
N41 C40 1.330 . S
N41 C45 1.418 . S
C42 H21 0.929 . S
C42 C40 1.446 . S
C42 C43 1.332 . S
C43 H23 0.931 . S
C43 C42 1.332 . S
C43 C44 1.267 . S
C44 H12 0.929 . S
C44 C43 1.267 . S
C44 C45 1.251 . S
C45 H15 0.929 . S
C45 N41 1.418 . S
C45 C44 1.251 . S
C46 H13 0.930 . S
C46 C48 1.406 . S
C46 C51 1.261 . S
C47 H14 0.930 . S
C47 N49 1.325 . S
C47 C50 1.357 . S
C48 H16 0.928 . S
C48 C46 1.406 . S
C48 N49 1.261 . S
N49 Co0 2.214 . S
N49 C47 1.325 . S
N49 C48 1.261 . S
C50 H20 0.931 . S
C50 C47 1.357 . S
C50 C51 1.312 . S
C51 H22 0.930 . S
C51 C46 1.261 . S
C51 C50 1.312 . S
C52 O24 1.214 . S
C52 O32 1.234 . S
C53 H25 0.929 . S
C53 C56 1.391 . S
C53 C58 1.391 . S
C54 H26 0.929 . S
C54 C55 1.390 . S
C54 N57 1.391 . S
C55 H27 0.930 . S
C55 C54 1.390 . S
C55 C56 1.392 . S
C56 H28 0.929 . S
C56 C53 1.391 . S
C56 C55 1.392 . S
N57 Co1 2.257 . S
N57 C54 1.391 . S
N57 C58 1.388 . S
C58 H29 0.930 . S
C58 C53 1.391 . S
C58 N57 1.388 . S
Co59 O61 2.143 . S
Co59 O67 2.074 . S
Co59 O70 2.093 . S
Co59 O83 2.097 . S
Co59 N100 2.151 . S
Co59 N108 2.214 . S
Co60 O61 2.160 . S
Co60 O66 2.058 . S
Co60 O76 2.057 . S
Co60 O91 2.037 . S
Co60 N95 2.145 1_554 S
Co60 N116 2.257 . S
O61 Co59 2.143 . S
O61 Co60 2.160 . S
C62 O63 1.278 . S
C62 O70 1.224 . S
O63 C62 1.278 . S
C64 O65 1.245 . S
C64 O76 1.232 . S
O65 C64 1.245 . S
O66 Co60 2.058 . S
O66 C92 1.269 . S
O67 Co59 2.074 . S
O67 C92 1.257 . S
H68 C93 0.930 . S
H69 C99 0.930 . S
O70 Co59 2.093 . S
O70 C62 1.224 . S
H71 C103 0.929 . S
H72 C105 0.930 . S
H73 C106 0.930 . S
H74 C104 0.929 . S
H75 C107 0.928 . S
O76 Co60 2.057 . S
O76 C64 1.232 . S
H77 C96 0.929 . S
H78 C97 0.929 . S
H79 C109 0.931 . S
H80 C101 0.929 . S
H81 C110 0.930 . S
H82 C102 0.931 . S
O83 Co59 2.097 . S
O83 C111 1.214 . S
H84 C112 0.929 . S
H85 C113 0.929 . S
H86 C114 0.930 . S
H87 C115 0.929 . S
H88 C117 0.930 . S
H89 C94 0.930 . S
H90 C98 0.930 . S
O91 Co60 2.037 . S
O91 C111 1.234 . S
C92 O66 1.269 . S
C92 O67 1.257 . S
C93 H68 0.930 . S
C93 C96 1.388 . S
C93 C98 1.418 . S
C94 H89 0.930 . S
C94 C97 1.404 . S
C94 C98 1.353 . S
N95 Co60 2.145 1_556 S
N95 C96 1.397 . S
N95 C97 1.334 . S
C96 H77 0.929 . S
C96 C93 1.388 . S
C96 N95 1.397 . S
C97 H78 0.929 . S
C97 C94 1.404 . S
C97 N95 1.334 . S
C98 H90 0.930 . S
C98 C93 1.418 . S
C98 C94 1.353 . S
C99 H69 0.930 . S
C99 N100 1.330 . S
C99 C101 1.446 . S
N100 Co59 2.151 . S
N100 C99 1.330 . S
N100 C104 1.418 . S
C101 H80 0.929 . S
C101 C99 1.446 . S
C101 C102 1.332 . S
C102 H82 0.931 . S
C102 C101 1.332 . S
C102 C103 1.267 . S
C103 H71 0.929 . S
C103 C102 1.267 . S
C103 C104 1.251 . S
C104 H74 0.929 . S
C104 N100 1.418 . S
C104 C103 1.251 . S
C105 H72 0.930 . S
C105 C107 1.406 . S
C105 C110 1.261 . S
C106 H73 0.930 . S
C106 N108 1.325 . S
C106 C109 1.357 . S
C107 H75 0.928 . S
C107 C105 1.406 . S
C107 N108 1.261 . S
N108 Co59 2.214 . S
N108 C106 1.325 . S
N108 C107 1.261 . S
C109 H79 0.931 . S
C109 C106 1.357 . S
C109 C110 1.312 . S
C110 H81 0.930 . S
C110 C105 1.261 . S
C110 C109 1.312 . S
C111 O83 1.214 . S
C111 O91 1.234 . S
C112 H84 0.929 . S
C112 C115 1.391 . S
C112 C117 1.391 . S
C113 H85 0.929 . S
C113 C114 1.390 . S
C113 N116 1.391 . S
C114 H86 0.930 . S
C114 C113 1.390 . S
C114 C115 1.392 . S
C115 H87 0.929 . S
C115 C112 1.391 . S
C115 C114 1.392 . S
N116 Co60 2.257 . S
N116 C113 1.391 . S
N116 C117 1.388 . S
C117 H88 0.930 . S
C117 C112 1.391 . S
C117 N116 1.388 . S
Co118 O120 2.143 . S
Co118 O126 2.074 . S
Co118 O129 2.093 . S
Co118 O142 2.097 . S
Co118 N159 2.151 . S
Co118 N167 2.214 . S
Co119 O120 2.160 . S
Co119 O125 2.058 . S
Co119 O135 2.057 . S
Co119 O150 2.037 . S
Co119 N154 2.145 . S
Co119 N175 2.257 . S
O120 Co118 2.143 . S
O120 Co119 2.160 . S
C121 O122 1.278 . S
C121 O129 1.224 . S
O122 C121 1.278 . S
C123 O124 1.245 . S
C123 O135 1.232 . S
O124 C123 1.245 . S
O125 Co119 2.058 . S
O125 C151 1.269 . S
O126 Co118 2.074 . S
O126 C151 1.257 . S
H127 C152 0.930 . S
H128 C158 0.930 . S
O129 Co118 2.093 . S
O129 C121 1.224 . S
H130 C162 0.929 . S
H131 C164 0.930 . S
H132 C165 0.930 . S
H133 C163 0.929 . S
H134 C166 0.928 . S
O135 Co119 2.057 . S
O135 C123 1.232 . S
H136 C155 0.929 . S
H137 C156 0.929 . S
H138 C168 0.931 . S
H139 C160 0.929 . S
H140 C169 0.930 . S
H141 C161 0.931 . S
O142 Co118 2.097 . S
O142 C170 1.214 . S
H143 C171 0.929 . S
H144 C172 0.929 . S
H145 C173 0.930 . S
H146 C174 0.929 . S
H147 C176 0.930 . S
H148 C153 0.930 . S
H149 C157 0.930 . S
O150 Co119 2.037 . S
O150 C170 1.234 . S
C151 O125 1.269 . S
C151 O126 1.257 . S
C152 H127 0.930 . S
C152 C155 1.388 . S
C152 C157 1.418 . S
C153 H148 0.930 . S
C153 C156 1.404 . S
C153 C157 1.353 . S
N154 Co119 2.145 . S
N154 C155 1.397 . S
N154 C156 1.334 . S
C155 H136 0.929 . S
C155 C152 1.388 . S
C155 N154 1.397 . S
C156 H137 0.929 . S
C156 C153 1.404 . S
C156 N154 1.334 . S
C157 H149 0.930 . S
C157 C152 1.418 . S
C157 C153 1.353 . S
C158 H128 0.930 . S
C158 N159 1.330 . S
C158 C160 1.446 . S
N159 Co118 2.151 . S
N159 C158 1.330 . S
N159 C163 1.418 . S
C160 H139 0.929 . S
C160 C158 1.446 . S
C160 C161 1.332 . S
C161 H141 0.931 . S
C161 C160 1.332 . S
C161 C162 1.267 . S
C162 H130 0.929 . S
C162 C161 1.267 . S
C162 C163 1.251 . S
C163 H133 0.929 . S
C163 N159 1.418 . S
C163 C162 1.251 . S
C164 H131 0.930 . S
C164 C166 1.406 . S
C164 C169 1.261 . S
C165 H132 0.930 . S
C165 N167 1.325 . S
C165 C168 1.357 . S
C166 H134 0.928 . S
C166 C164 1.406 . S
C166 N167 1.261 . S
N167 Co118 2.214 . S
N167 C165 1.325 . S
N167 C166 1.261 . S
C168 H138 0.931 . S
C168 C165 1.357 . S
C168 C169 1.312 . S
C169 H140 0.930 . S
C169 C164 1.261 . S
C169 C168 1.312 . S
C170 O142 1.214 . S
C170 O150 1.234 . S
C171 H143 0.929 . S
C171 C174 1.391 . S
C171 C176 1.391 . S
C172 H144 0.929 . S
C172 C173 1.390 . S
C172 N175 1.391 . S
C173 H145 0.930 . S
C173 C172 1.390 . S
C173 C174 1.392 . S
C174 H146 0.929 . S
C174 C171 1.391 . S
C174 C173 1.392 . S
N175 Co119 2.257 . S
N175 C172 1.391 . S
N175 C176 1.388 . S
C176 H147 0.930 . S
C176 C171 1.391 . S
C176 N175 1.388 . S
Co177 O179 2.143 . S
Co177 O185 2.074 . S
Co177 O188 2.093 . S
Co177 O201 2.097 . S
Co177 N218 2.151 . S
Co177 N226 2.214 . S
Co178 O179 2.160 . S
Co178 O184 2.058 . S
Co178 O194 2.057 . S
Co178 O209 2.037 . S
Co178 N213 2.145 . S
Co178 N234 2.257 . S
O179 Co177 2.143 . S
O179 Co178 2.160 . S
C180 O181 1.278 . S
C180 O188 1.224 . S
O181 C180 1.278 . S
C182 O183 1.245 . S
C182 O194 1.232 . S
O183 C182 1.245 . S
O184 Co178 2.058 . S
O184 C210 1.269 . S
O185 Co177 2.074 . S
O185 C210 1.257 . S
H186 C211 0.930 . S
H187 C217 0.930 . S
O188 Co177 2.093 . S
O188 C180 1.224 . S
H189 C221 0.929 . S
H190 C223 0.930 . S
H191 C224 0.930 . S
H192 C222 0.929 . S
H193 C225 0.928 . S
O194 Co178 2.057 . S
O194 C182 1.232 . S
H195 C214 0.929 . S
H196 C215 0.929 . S
H197 C227 0.931 . S
H198 C219 0.929 . S
H199 C228 0.930 . S
H200 C220 0.931 . S
O201 Co177 2.097 . S
O201 C229 1.214 . S
H202 C230 0.929 . S
H203 C231 0.929 . S
H204 C232 0.930 . S
H205 C233 0.929 . S
H206 C235 0.930 . S
H207 C212 0.930 . S
H208 C216 0.930 . S
O209 Co178 2.037 . S
O209 C229 1.234 . S
C210 O184 1.269 . S
C210 O185 1.257 . S
C211 H186 0.930 . S
C211 C214 1.388 . S
C211 C216 1.418 . S
C212 H207 0.930 . S
C212 C215 1.404 . S
C212 C216 1.353 . S
N213 Co178 2.145 . S
N213 C214 1.397 . S
N213 C215 1.334 . S
C214 H195 0.929 . S
C214 C211 1.388 . S
C214 N213 1.397 . S
C215 H196 0.929 . S
C215 C212 1.404 . S
C215 N213 1.334 . S
C216 H208 0.930 . S
C216 C211 1.418 . S
C216 C212 1.353 . S
C217 H187 0.930 . S
C217 N218 1.330 . S
C217 C219 1.446 . S
N218 Co177 2.151 . S
N218 C217 1.330 . S
N218 C222 1.418 . S
C219 H198 0.929 . S
C219 C217 1.446 . S
C219 C220 1.332 . S
C220 H200 0.931 . S
C220 C219 1.332 . S
C220 C221 1.267 . S
C221 H189 0.929 . S
C221 C220 1.267 . S
C221 C222 1.251 . S
C222 H192 0.929 . S
C222 N218 1.418 . S
C222 C221 1.251 . S
C223 H190 0.930 . S
C223 C225 1.406 . S
C223 C228 1.261 . S
C224 H191 0.930 . S
C224 N226 1.325 . S
C224 C227 1.357 . S
C225 H193 0.928 . S
C225 C223 1.406 . S
C225 N226 1.261 . S
N226 Co177 2.214 . S
N226 C224 1.325 . S
N226 C225 1.261 . S
C227 H197 0.931 . S
C227 C224 1.357 . S
C227 C228 1.312 . S
C228 H199 0.930 . S
C228 C223 1.261 . S
C228 C227 1.312 . S
C229 O201 1.214 . S
C229 O209 1.234 . S
C230 H202 0.929 . S
C230 C233 1.391 . S
C230 C235 1.391 . S
C231 H203 0.929 . S
C231 C232 1.390 . S
C231 N234 1.391 . S
C232 H204 0.930 . S
C232 C231 1.390 . S
C232 C233 1.392 . S
C233 H205 0.929 . S
C233 C230 1.391 . S
C233 C232 1.392 . S
N234 Co178 2.257 . S
N234 C231 1.391 . S
N234 C235 1.388 . S
C235 H206 0.930 . S
C235 C230 1.391 . S
C235 N234 1.388 . S
Co236 O238 2.143 . S
Co236 O244 2.074 . S
Co236 O247 2.093 . S
Co236 O260 2.097 . S
Co236 N277 2.151 . S
Co236 N285 2.214 . S
Co237 O238 2.160 . S
Co237 O243 2.058 . S
Co237 O253 2.057 . S
Co237 O268 2.037 . S
Co237 N272 2.145 1_556 S
Co237 N293 2.257 . S
O238 Co236 2.143 . S
O238 Co237 2.160 . S
C239 O240 1.278 . S
C239 O247 1.224 . S
O240 C239 1.278 . S
C241 O242 1.245 . S
C241 O253 1.232 . S
O242 C241 1.245 . S
O243 Co237 2.058 . S
O243 C269 1.269 . S
O244 Co236 2.074 . S
O244 C269 1.257 . S
H245 C270 0.930 . S
H246 C276 0.930 . S
O247 Co236 2.093 . S
O247 C239 1.224 . S
H248 C280 0.929 . S
H249 C282 0.930 . S
H250 C283 0.930 . S
H251 C281 0.929 . S
H252 C284 0.928 . S
O253 Co237 2.057 . S
O253 C241 1.232 . S
H254 C273 0.929 . S
H255 C274 0.929 . S
H256 C286 0.931 . S
H257 C278 0.929 . S
H258 C287 0.930 . S
H259 C279 0.931 . S
O260 Co236 2.097 . S
O260 C288 1.214 . S
H261 C289 0.929 . S
H262 C290 0.929 . S
H263 C291 0.930 . S
H264 C292 0.929 . S
H265 C294 0.930 . S
H266 C271 0.930 . S
H267 C275 0.930 . S
O268 Co237 2.037 . S
O268 C288 1.234 . S
C269 O243 1.269 . S
C269 O244 1.257 . S
C270 H245 0.930 . S
C270 C273 1.388 . S
C270 C275 1.418 . S
C271 H266 0.930 . S
C271 C274 1.404 . S
C271 C275 1.353 . S
N272 Co237 2.145 1_554 S
N272 C273 1.397 . S
N272 C274 1.334 . S
C273 H254 0.929 . S
C273 C270 1.388 . S
C273 N272 1.397 . S
C274 H255 0.929 . S
C274 C271 1.404 . S
C274 N272 1.334 . S
C275 H267 0.930 . S
C275 C270 1.418 . S
C275 C271 1.353 . S
C276 H246 0.930 . S
C276 N277 1.330 . S
C276 C278 1.446 . S
N277 Co236 2.151 . S
N277 C276 1.330 . S
N277 C281 1.418 . S
C278 H257 0.929 . S
C278 C276 1.446 . S
C278 C279 1.332 . S
C279 H259 0.931 . S
C279 C278 1.332 . S
C279 C280 1.267 . S
C280 H248 0.929 . S
C280 C279 1.267 . S
C280 C281 1.251 . S
C281 H251 0.929 . S
C281 N277 1.418 . S
C281 C280 1.251 . S
C282 H249 0.930 . S
C282 C284 1.406 . S
C282 C287 1.261 . S
C283 H250 0.930 . S
C283 N285 1.325 . S
C283 C286 1.357 . S
C284 H252 0.928 . S
C284 C282 1.406 . S
C284 N285 1.261 . S
N285 Co236 2.214 . S
N285 C283 1.325 . S
N285 C284 1.261 . S
C286 H256 0.931 . S
C286 C283 1.357 . S
C286 C287 1.312 . S
C287 H258 0.930 . S
C287 C282 1.261 . S
C287 C286 1.312 . S
C288 O260 1.214 . S
C288 O268 1.234 . S
C289 H261 0.929 . S
C289 C292 1.391 . S
C289 C294 1.391 . S
C290 H262 0.929 . S
C290 C291 1.390 . S
C290 N293 1.391 . S
C291 H263 0.930 . S
C291 C290 1.390 . S
C291 C292 1.392 . S
C292 H264 0.929 . S
C292 C289 1.391 . S
C292 C291 1.392 . S
N293 Co237 2.257 . S
N293 C290 1.391 . S
N293 C294 1.388 . S
C294 H265 0.930 . S
C294 C289 1.391 . S
C294 N293 1.388 . S
Co295 O297 2.143 . S
Co295 O303 2.074 . S
Co295 O306 2.093 . S
Co295 O319 2.097 . S
Co295 N336 2.151 . S
Co295 N344 2.214 . S
Co296 O297 2.160 . S
Co296 O302 2.058 . S
Co296 O312 2.057 . S
Co296 O327 2.037 . S
Co296 N331 2.145 1_556 S
Co296 N352 2.257 . S
O297 Co295 2.143 . S
O297 Co296 2.160 . S
C298 O299 1.278 . S
C298 O306 1.224 . S
O299 C298 1.278 . S
C300 O301 1.245 . S
C300 O312 1.232 . S
O301 C300 1.245 . S
O302 Co296 2.058 . S
O302 C328 1.269 . S
O303 Co295 2.074 . S
O303 C328 1.257 . S
H304 C329 0.930 . S
H305 C335 0.930 . S
O306 Co295 2.093 . S
O306 C298 1.224 . S
H307 C339 0.929 . S
H308 C341 0.930 . S
H309 C342 0.930 . S
H310 C340 0.929 . S
H311 C343 0.928 . S
O312 Co296 2.057 . S
O312 C300 1.232 . S
H313 C332 0.929 . S
H314 C333 0.929 . S
H315 C345 0.931 . S
H316 C337 0.929 . S
H317 C346 0.930 . S
H318 C338 0.931 . S
O319 Co295 2.097 . S
O319 C347 1.214 . S
H320 C348 0.929 . S
H321 C349 0.929 . S
H322 C350 0.930 . S
H323 C351 0.929 . S
H324 C353 0.930 . S
H325 C330 0.930 . S
H326 C334 0.930 . S
O327 Co296 2.037 . S
O327 C347 1.234 . S
C328 O302 1.269 . S
C328 O303 1.257 . S
C329 H304 0.930 . S
C329 C332 1.388 . S
C329 C334 1.418 . S
C330 H325 0.930 . S
C330 C333 1.404 . S
C330 C334 1.353 . S
N331 Co296 2.145 1_554 S
N331 C332 1.397 . S
N331 C333 1.334 . S
C332 H313 0.929 . S
C332 C329 1.388 . S
C332 N331 1.397 . S
C333 H314 0.929 . S
C333 C330 1.404 . S
C333 N331 1.334 . S
C334 H326 0.930 . S
C334 C329 1.418 . S
C334 C330 1.353 . S
C335 H305 0.930 . S
C335 N336 1.330 . S
C335 C337 1.446 . S
N336 Co295 2.151 . S
N336 C335 1.330 . S
N336 C340 1.418 . S
C337 H316 0.929 . S
C337 C335 1.446 . S
C337 C338 1.332 . S
C338 H318 0.931 . S
C338 C337 1.332 . S
C338 C339 1.267 . S
C339 H307 0.929 . S
C339 C338 1.267 . S
C339 C340 1.251 . S
C340 H310 0.929 . S
C340 N336 1.418 . S
C340 C339 1.251 . S
C341 H308 0.930 . S
C341 C343 1.406 . S
C341 C346 1.261 . S
C342 H309 0.930 . S
C342 N344 1.325 . S
C342 C345 1.357 . S
C343 H311 0.928 . S
C343 C341 1.406 . S
C343 N344 1.261 . S
N344 Co295 2.214 . S
N344 C342 1.325 . S
N344 C343 1.261 . S
C345 H315 0.931 . S
C345 C342 1.357 . S
C345 C346 1.312 . S
C346 H317 0.930 . S
C346 C341 1.261 . S
C346 C345 1.312 . S
C347 O319 1.214 . S
C347 O327 1.234 . S
C348 H320 0.929 . S
C348 C351 1.391 . S
C348 C353 1.391 . S
C349 H321 0.929 . S
C349 C350 1.390 . S
C349 N352 1.391 . S
C350 H322 0.930 . S
C350 C349 1.390 . S
C350 C351 1.392 . S
C351 H323 0.929 . S
C351 C348 1.391 . S
C351 C350 1.392 . S
N352 Co296 2.257 . S
N352 C349 1.391 . S
N352 C353 1.388 . S
C353 H324 0.930 . S
C353 C348 1.391 . S
C353 N352 1.388 . S
Co354 O356 2.143 . S
Co354 O362 2.074 . S
Co354 O365 2.093 . S
Co354 O378 2.097 . S
Co354 N395 2.151 . S
Co354 N403 2.214 . S
Co355 O356 2.160 . S
Co355 O361 2.058 . S
Co355 O371 2.057 . S
Co355 O386 2.037 . S
Co355 N390 2.145 . S
Co355 N411 2.257 . S
O356 Co354 2.143 . S
O356 Co355 2.160 . S
C357 O358 1.278 . S
C357 O365 1.224 . S
O358 C357 1.278 . S
C359 O360 1.245 . S
C359 O371 1.232 . S
O360 C359 1.245 . S
O361 Co355 2.058 . S
O361 C387 1.269 . S
O362 Co354 2.074 . S
O362 C387 1.257 . S
H363 C388 0.930 . S
H364 C394 0.930 . S
O365 Co354 2.093 . S
O365 C357 1.224 . S
H366 C398 0.929 . S
H367 C400 0.930 . S
H368 C401 0.930 . S
H369 C399 0.929 . S
H370 C402 0.928 . S
O371 Co355 2.057 . S
O371 C359 1.232 . S
H372 C391 0.929 . S
H373 C392 0.929 . S
H374 C404 0.931 . S
H375 C396 0.929 . S
H376 C405 0.930 . S
H377 C397 0.931 . S
O378 Co354 2.097 . S
O378 C406 1.214 . S
H379 C407 0.929 . S
H380 C408 0.929 . S
H381 C409 0.930 . S
H382 C410 0.929 . S
H383 C412 0.930 . S
H384 C389 0.930 . S
H385 C393 0.930 . S
O386 Co355 2.037 . S
O386 C406 1.234 . S
C387 O361 1.269 . S
C387 O362 1.257 . S
C388 H363 0.930 . S
C388 C391 1.388 . S
C388 C393 1.418 . S
C389 H384 0.930 . S
C389 C392 1.404 . S
C389 C393 1.353 . S
N390 Co355 2.145 . S
N390 C391 1.397 . S
N390 C392 1.334 . S
C391 H372 0.929 . S
C391 C388 1.388 . S
C391 N390 1.397 . S
C392 H373 0.929 . S
C392 C389 1.404 . S
C392 N390 1.334 . S
C393 H385 0.930 . S
C393 C388 1.418 . S
C393 C389 1.353 . S
C394 H364 0.930 . S
C394 N395 1.330 . S
C394 C396 1.446 . S
N395 Co354 2.151 . S
N395 C394 1.330 . S
N395 C399 1.418 . S
C396 H375 0.929 . S
C396 C394 1.446 . S
C396 C397 1.332 . S
C397 H377 0.931 . S
C397 C396 1.332 . S
C397 C398 1.267 . S
C398 H366 0.929 . S
C398 C397 1.267 . S
C398 C399 1.251 . S
C399 H369 0.929 . S
C399 N395 1.418 . S
C399 C398 1.251 . S
C400 H367 0.930 . S
C400 C402 1.406 . S
C400 C405 1.261 . S
C401 H368 0.930 . S
C401 N403 1.325 . S
C401 C404 1.357 . S
C402 H370 0.928 . S
C402 C400 1.406 . S
C402 N403 1.261 . S
N403 Co354 2.214 . S
N403 C401 1.325 . S
N403 C402 1.261 . S
C404 H374 0.931 . S
C404 C401 1.357 . S
C404 C405 1.312 . S
C405 H376 0.930 . S
C405 C400 1.261 . S
C405 C404 1.312 . S
C406 O378 1.214 . S
C406 O386 1.234 . S
C407 H379 0.929 . S
C407 C410 1.391 . S
C407 C412 1.391 . S
C408 H380 0.929 . S
C408 C409 1.390 . S
C408 N411 1.391 . S
C409 H381 0.930 . S
C409 C408 1.390 . S
C409 C410 1.392 . S
C410 H382 0.929 . S
C410 C407 1.391 . S
C410 C409 1.392 . S
N411 Co355 2.257 . S
N411 C408 1.391 . S
N411 C412 1.388 . S
C412 H383 0.930 . S
C412 C407 1.391 . S
C412 N411 1.388 . S
Co413 O415 2.143 . S
Co413 O421 2.074 . S
Co413 O424 2.093 . S
Co413 O437 2.097 . S
Co413 N454 2.151 . S
Co413 N462 2.214 . S
Co414 O415 2.160 . S
Co414 O420 2.058 . S
Co414 O430 2.057 . S
Co414 O445 2.037 . S
Co414 N449 2.145 . S
Co414 N470 2.257 . S
O415 Co413 2.143 . S
O415 Co414 2.160 . S
C416 O417 1.278 . S
C416 O424 1.224 . S
O417 C416 1.278 . S
C418 O419 1.245 . S
C418 O430 1.232 . S
O419 C418 1.245 . S
O420 Co414 2.058 . S
O420 C446 1.269 . S
O421 Co413 2.074 . S
O421 C446 1.257 . S
H422 C447 0.930 . S
H423 C453 0.930 . S
O424 Co413 2.093 . S
O424 C416 1.224 . S
H425 C457 0.929 . S
H426 C459 0.930 . S
H427 C460 0.930 . S
H428 C458 0.929 . S
H429 C461 0.928 . S
O430 Co414 2.057 . S
O430 C418 1.232 . S
H431 C450 0.929 . S
H432 C451 0.929 . S
H433 C463 0.931 . S
H434 C455 0.929 . S
H435 C464 0.930 . S
H436 C456 0.931 . S
O437 Co413 2.097 . S
O437 C465 1.214 . S
H438 C466 0.929 . S
H439 C467 0.929 . S
H440 C468 0.930 . S
H441 C469 0.929 . S
H442 C471 0.930 . S
H443 C448 0.930 . S
H444 C452 0.930 . S
O445 Co414 2.037 . S
O445 C465 1.234 . S
C446 O420 1.269 . S
C446 O421 1.257 . S
C447 H422 0.930 . S
C447 C450 1.388 . S
C447 C452 1.418 . S
C448 H443 0.930 . S
C448 C451 1.404 . S
C448 C452 1.353 . S
N449 Co414 2.145 . S
N449 C450 1.397 . S
N449 C451 1.334 . S
C450 H431 0.929 . S
C450 C447 1.388 . S
C450 N449 1.397 . S
C451 H432 0.929 . S
C451 C448 1.404 . S
C451 N449 1.334 . S
C452 H444 0.930 . S
C452 C447 1.418 . S
C452 C448 1.353 . S
C453 H423 0.930 . S
C453 N454 1.330 . S
C453 C455 1.446 . S
N454 Co413 2.151 . S
N454 C453 1.330 . S
N454 C458 1.418 . S
C455 H434 0.929 . S
C455 C453 1.446 . S
C455 C456 1.332 . S
C456 H436 0.931 . S
C456 C455 1.332 . S
C456 C457 1.267 . S
C457 H425 0.929 . S
C457 C456 1.267 . S
C457 C458 1.251 . S
C458 H428 0.929 . S
C458 N454 1.418 . S
C458 C457 1.251 . S
C459 H426 0.930 . S
C459 C461 1.406 . S
C459 C464 1.261 . S
C460 H427 0.930 . S
C460 N462 1.325 . S
C460 C463 1.357 . S
C461 H429 0.928 . S
C461 C459 1.406 . S
C461 N462 1.261 . S
N462 Co413 2.214 . S
N462 C460 1.325 . S
N462 C461 1.261 . S
C463 H433 0.931 . S
C463 C460 1.357 . S
C463 C464 1.312 . S
C464 H435 0.930 . S
C464 C459 1.261 . S
C464 C463 1.312 . S
C465 O437 1.214 . S
C465 O445 1.234 . S
C466 H438 0.929 . S
C466 C469 1.391 . S
C466 C471 1.391 . S
C467 H439 0.929 . S
C467 C468 1.390 . S
C467 N470 1.391 . S
C468 H440 0.930 . S
C468 C467 1.390 . S
C468 C469 1.392 . S
C469 H441 0.929 . S
C469 C466 1.391 . S
C469 C468 1.392 . S
N470 Co414 2.257 . S
N470 C467 1.391 . S
N470 C471 1.388 . S
C471 H442 0.930 . S
C471 C466 1.391 . S
C471 N470 1.388 . S
H472 C480 0.929 . S
H473 C482 0.930 . S
H474 C484 0.930 . S
H475 C487 0.929 . S
H476 C490 0.930 . S
H477 C492 0.960 . S
H478 C492 0.960 . S
H479 C492 0.960 . S
C480 H472 0.929 . S
C480 C481 1.377 . S
C480 C482 1.384 . S
C481 C480 1.377 . S
C481 C487 1.390 . S
C482 H473 0.930 . S
C482 C480 1.384 . S
C482 C483 1.372 . S
C483 C482 1.372 . S
C483 C484 1.400 . S
C483 C488 1.490 . S
C484 H474 0.930 . S
C484 C483 1.400 . S
C484 C487 1.386 . S
H485 C501 0.942 . S
H486 C502 0.969 . S
C487 H475 0.929 . S
C487 C481 1.390 . S
C487 C484 1.386 . S
C488 C483 1.490 . S
C488 C490 1.395 . S
C488 C491 1.403 1_545 S
H489 C495 0.930 . S
C490 H476 0.930 . S
C490 C488 1.395 . S
C490 C493 1.403 . S
C491 C488 1.403 1_565 S
C491 C492 1.524 . S
C491 C495 1.400 . S
C492 H477 0.960 . S
C492 H478 0.960 . S
C492 H479 0.960 . S
C492 C491 1.524 . S
C493 C490 1.403 . S
C493 C494 1.392 1_545 S
C493 C497 1.495 . S
C494 C493 1.392 1_565 S
C494 C495 1.385 . S
C494 C496 1.478 . S
C495 H489 0.930 . S
C495 C491 1.400 . S
C495 C494 1.385 . S
C496 C494 1.478 . S
C496 C498 1.381 . S
C496 C502 1.383 . S
C497 C493 1.495 . S
C497 H503 0.959 . S
C497 H504 0.961 . S
C497 H505 0.960 . S
C498 C496 1.381 . S
C498 C499 1.394 . S
C498 H506 0.930 . S
C499 C498 1.394 . S
C499 C500 1.383 . S
C499 H507 0.929 . S
C500 C499 1.383 . S
C500 C501 1.377 . S
C501 H485 0.942 . S
C501 C500 1.377 . S
C501 C502 1.379 . S
C502 H486 0.969 . S
C502 C496 1.383 . S
C502 C501 1.379 . S
H503 C497 0.959 . S
H504 C497 0.961 . S
H505 C497 0.960 . S
H506 C498 0.930 . S
H507 C499 0.929 . S
H508 C516 0.929 . S
H509 C518 0.930 . S
H510 C520 0.930 . S
H511 C523 0.929 . S
H512 C526 0.930 . S
H513 C528 0.960 . S
H514 C528 0.960 . S
H515 C528 0.960 . S
C516 H508 0.929 . S
C516 C517 1.377 . S
C516 C518 1.384 . S
C517 C516 1.377 . S
C517 C523 1.390 . S
C518 H509 0.930 . S
C518 C516 1.384 . S
C518 C519 1.372 . S
C519 C518 1.372 . S
C519 C520 1.400 . S
C519 C524 1.490 . S
C520 H510 0.930 . S
C520 C519 1.400 . S
C520 C523 1.386 . S
H521 C537 0.930 . S
H522 C538 0.931 . S
C523 H511 0.929 . S
C523 C517 1.390 . S
C523 C520 1.386 . S
C524 C519 1.490 . S
C524 C526 1.395 . S
C524 C527 1.403 . S
H525 C531 0.930 . S
C526 H512 0.930 . S
C526 C524 1.395 . S
C526 C529 1.403 . S
C527 C524 1.403 . S
C527 C528 1.524 . S
C527 C531 1.400 . S
C528 H513 0.960 . S
C528 H514 0.960 . S
C528 H515 0.960 . S
C528 C527 1.524 . S
C529 C526 1.403 . S
C529 C530 1.392 . S
C529 C533 1.495 . S
C530 C529 1.392 . S
C530 C531 1.385 . S
C530 C532 1.478 . S
C531 H525 0.930 . S
C531 C527 1.400 . S
C531 C530 1.385 . S
C532 C530 1.478 . S
C532 C534 1.381 . S
C532 C538 1.383 . S
C533 C529 1.495 . S
C533 H539 0.959 . S
C533 H540 0.961 . S
C533 H541 0.960 . S
C534 C532 1.381 . S
C534 C535 1.394 . S
C534 H542 0.930 . S
C535 C534 1.394 . S
C535 C536 1.383 . S
C535 H543 0.929 . S
C536 C535 1.383 . S
C536 C537 1.377 . S
C537 H521 0.930 . S
C537 C536 1.377 . S
C537 C538 1.379 . S
C538 H522 0.931 . S
C538 C532 1.383 . S
C538 C537 1.379 . S
H539 C533 0.959 . S
H540 C533 0.961 . S
H541 C533 0.960 . S
H542 C534 0.930 . S
H543 C535 0.929 . S
H544 C552 0.929 . S
H545 C554 0.930 . S
H546 C556 0.930 . S
H547 C559 0.929 . S
H548 C562 0.930 . S
H549 C564 0.960 . S
H550 C564 0.960 . S
H551 C564 0.960 . S
C552 H544 0.929 . S
C552 C553 1.377 . S
C552 C554 1.384 . S
C553 C552 1.377 . S
C553 C559 1.390 . S
C554 H545 0.930 . S
C554 C552 1.384 . S
C554 C555 1.372 . S
C555 C554 1.372 . S
C555 C556 1.400 . S
C555 C560 1.490 . S
C556 H546 0.930 . S
C556 C555 1.400 . S
C556 C559 1.386 . S
H557 C573 0.930 . S
H558 C574 0.931 . S
C559 H547 0.929 . S
C559 C553 1.390 . S
C559 C556 1.386 . S
C560 C555 1.490 . S
C560 C562 1.395 . S
C560 C563 1.403 . S
H561 C567 0.930 . S
C562 H548 0.930 . S
C562 C560 1.395 . S
C562 C565 1.403 1_565 S
C563 C560 1.403 . S
C563 C564 1.524 1_556 S
C563 C567 1.400 1_565 S
C564 H549 0.960 . S
C564 H550 0.960 . S
C564 H551 0.960 . S
C564 C563 1.524 1_554 S
C565 C562 1.403 1_545 S
C565 C566 1.392 . S
C565 C569 1.495 . S
C566 C565 1.392 . S
C566 C567 1.385 . S
C566 C568 1.478 . S
C567 H561 0.930 . S
C567 C563 1.400 1_545 S
C567 C566 1.385 . S
C568 C566 1.478 . S
C568 C570 1.381 . S
C568 C574 1.383 . S
C569 C565 1.495 . S
C569 H575 0.959 . S
C569 H576 0.961 . S
C569 H577 0.960 . S
C570 C568 1.381 . S
C570 C571 1.394 . S
C570 H578 0.930 . S
C571 C570 1.394 . S
C571 C572 1.383 . S
C571 H579 0.929 . S
C572 C571 1.383 . S
C572 C573 1.377 . S
C573 H557 0.930 . S
C573 C572 1.377 . S
C573 C574 1.379 . S
C574 H558 0.931 . S
C574 C568 1.383 . S
C574 C573 1.379 . S
H575 C569 0.959 . S
H576 C569 0.961 . S
H577 C569 0.960 . S
H578 C570 0.930 . S
H579 C571 0.929 . S
H580 C588 0.929 . S
H581 C590 0.930 . S
H582 C592 0.930 . S
H583 C595 0.929 . S
H584 C598 0.930 . S
H585 C600 0.960 . S
H586 C600 0.960 . S
H587 C600 0.960 . S
C588 H580 0.929 . S
C588 C589 1.377 . S
C588 C590 1.384 . S
C589 C588 1.377 . S
C589 C595 1.390 . S
C590 H581 0.930 . S
C590 C588 1.384 . S
C590 C591 1.372 . S
C591 C590 1.372 . S
C591 C592 1.400 . S
C591 C596 1.490 . S
C592 H582 0.930 . S
C592 C591 1.400 . S
C592 C595 1.386 . S
H593 C609 0.930 . S
H594 C610 0.931 . S
C595 H583 0.929 . S
C595 C589 1.390 . S
C595 C592 1.386 . S
C596 C591 1.490 . S
C596 C598 1.395 . S
C596 C599 1.403 . S
H597 C603 0.930 . S
C598 H584 0.930 . S
C598 C596 1.395 . S
C598 C601 1.403 . S
C599 C596 1.403 . S
C599 C600 1.524 . S
C599 C603 1.400 . S
C600 H585 0.960 . S
C600 H586 0.960 . S
C600 H587 0.960 . S
C600 C599 1.524 . S
C601 C598 1.403 . S
C601 C602 1.392 . S
C601 C605 1.495 . S
C602 C601 1.392 . S
C602 C603 1.385 . S
C602 C604 1.478 . S
C603 H597 0.930 . S
C603 C599 1.400 . S
C603 C602 1.385 . S
C604 C602 1.478 . S
C604 C606 1.381 . S
C604 C610 1.383 . S
C605 C601 1.495 . S
C605 H611 0.959 . S
C605 H612 0.961 . S
C605 H613 0.960 . S
C606 C604 1.381 . S
C606 C607 1.394 . S
C606 H614 0.930 . S
C607 C606 1.394 . S
C607 C608 1.383 . S
C607 H615 0.929 . S
C608 C607 1.383 . S
C608 C609 1.377 . S
C609 H593 0.930 . S
C609 C608 1.377 . S
C609 C610 1.379 . S
C610 H594 0.931 . S
C610 C604 1.383 . S
C610 C609 1.379 . S
H611 C605 0.959 . S
H612 C605 0.961 . S
H613 C605 0.960 . S
H614 C606 0.930 . S
H615 C607 0.929 . S
H616 C624 0.929 . S
H617 C626 0.930 . S
H618 C628 0.930 . S
H619 C631 0.929 . S
H620 C634 0.930 . S
H621 C636 0.960 . S
H622 C636 0.960 . S
H623 C636 0.960 . S
C624 H616 0.929 . S
C624 C625 1.377 . S
C624 C626 1.384 . S
C625 C624 1.377 . S
C625 C631 1.390 . S
C626 H617 0.930 . S
C626 C624 1.384 . S
C626 C627 1.372 . S
C627 C626 1.372 . S
C627 C628 1.400 . S
C627 C632 1.490 . S
C628 H618 0.930 . S
C628 C627 1.400 . S
C628 C631 1.386 . S
H629 C645 0.930 . S
H630 C646 0.931 . S
C631 H619 0.929 . S
C631 C625 1.390 . S
C631 C628 1.386 . S
C632 C627 1.490 . S
C632 C634 1.395 . S
C632 C635 1.403 . S
H633 C639 0.930 . S
C634 H620 0.930 . S
C634 C632 1.395 . S
C634 C637 1.403 . S
C635 C632 1.403 . S
C635 C636 1.524 . S
C635 C639 1.400 . S
C636 H621 0.960 . S
C636 H622 0.960 . S
C636 H623 0.960 . S
C636 C635 1.524 . S
C637 C634 1.403 . S
C637 C638 1.392 . S
C637 C641 1.495 . S
C638 C637 1.392 . S
C638 C639 1.385 . S
C638 C640 1.478 . S
C639 H633 0.930 . S
C639 C635 1.400 . S
C639 C638 1.385 . S
C640 C638 1.478 . S
C640 C642 1.381 . S
C640 C646 1.383 . S
C641 C637 1.495 . S
C641 H647 0.959 . S
C641 H648 0.961 . S
C641 H649 0.960 . S
C642 C640 1.381 . S
C642 C643 1.394 . S
C642 H650 0.930 . S
C643 C642 1.394 . S
C643 C644 1.383 . S
C643 H651 0.929 . S
C644 C643 1.383 . S
C644 C645 1.377 . S
C645 H629 0.930 . S
C645 C644 1.377 . S
C645 C646 1.379 . S
C646 H630 0.931 . S
C646 C640 1.383 . S
C646 C645 1.379 . S
H647 C641 0.959 . S
H648 C641 0.961 . S
H649 C641 0.960 . S
H650 C642 0.930 . S
H651 C643 0.929 . S
H652 C660 0.929 . S
H653 C662 0.930 . S
H654 C664 0.930 . S
H655 C667 0.929 . S
H656 C670 0.930 . S
H657 C672 0.960 . S
H658 C672 0.960 . S
H659 C672 0.960 . S
C660 H652 0.929 . S
C660 C661 1.377 . S
C660 C662 1.384 . S
C661 C660 1.377 . S
C661 C667 1.390 . S
C662 H653 0.930 . S
C662 C660 1.384 . S
C662 C663 1.372 . S
C663 C662 1.372 . S
C663 C664 1.400 . S
C663 C668 1.490 . S
C664 H654 0.930 . S
C664 C663 1.400 . S
C664 C667 1.386 . S
H665 C681 0.930 . S
H666 C682 0.931 . S
C667 H655 0.929 . S
C667 C661 1.390 . S
C667 C664 1.386 . S
C668 C663 1.490 . S
C668 C670 1.395 . S
C668 C671 1.403 . S
H669 C675 0.930 . S
C670 H656 0.930 . S
C670 C668 1.395 . S
C670 C673 1.403 . S
C671 C668 1.403 . S
C671 C672 1.524 . S
C671 C675 1.400 . S
C672 H657 0.960 . S
C672 H658 0.960 . S
C672 H659 0.960 . S
C672 C671 1.524 . S
C673 C670 1.403 . S
C673 C674 1.392 . S
C673 C677 1.495 . S
C674 C673 1.392 . S
C674 C675 1.385 . S
C674 C676 1.478 . S
C675 H669 0.930 . S
C675 C671 1.400 . S
C675 C674 1.385 . S
C676 C674 1.478 . S
C676 C678 1.381 . S
C676 C682 1.383 . S
C677 C673 1.495 . S
C677 H683 0.959 . S
C677 H684 0.961 . S
C677 H685 0.960 . S
C678 C676 1.381 . S
C678 C679 1.394 . S
C678 H686 0.930 . S
C679 C678 1.394 . S
C679 C680 1.383 . S
C679 H687 0.929 . S
C680 C679 1.383 . S
C680 C681 1.377 . S
C681 H665 0.930 . S
C681 C680 1.377 . S
C681 C682 1.379 . S
C682 H666 0.931 . S
C682 C676 1.383 . S
C682 C681 1.379 . S
H683 C677 0.959 . S
H684 C677 0.961 . S
H685 C677 0.960 . S
H686 C678 0.930 . S
H687 C679 0.929 . S
H688 C696 0.929 . S
H689 C698 0.930 . S
H690 C700 0.930 . S
H691 C703 0.929 . S
H692 C706 0.930 . S
H693 C708 0.960 . S
H694 C708 0.960 . S
H695 C708 0.960 . S
C696 H688 0.929 . S
C696 C697 1.377 . S
C696 C698 1.384 . S
C697 C696 1.377 . S
C697 C703 1.390 . S
C698 H689 0.930 . S
C698 C696 1.384 . S
C698 C699 1.372 . S
C699 C698 1.372 . S
C699 C700 1.400 . S
C699 C704 1.490 . S
C700 H690 0.930 . S
C700 C699 1.400 . S
C700 C703 1.386 . S
H701 C717 0.930 . S
H702 C718 0.931 . S
C703 H691 0.929 . S
C703 C697 1.390 . S
C703 C700 1.386 . S
C704 C699 1.490 . S
C704 C706 1.395 . S
C704 C707 1.403 . S
H705 C711 0.930 . S
C706 H692 0.930 . S
C706 C704 1.395 . S
C706 C709 1.403 . S
C707 C704 1.403 . S
C707 C708 1.524 . S
C707 C711 1.400 . S
C708 H693 0.960 . S
C708 H694 0.960 . S
C708 H695 0.960 . S
C708 C707 1.524 . S
C709 C706 1.403 . S
C709 C710 1.392 . S
C709 C713 1.495 . S
C710 C709 1.392 . S
C710 C711 1.385 . S
C710 C712 1.478 . S
C711 H705 0.930 . S
C711 C707 1.400 . S
C711 C710 1.385 . S
C712 C710 1.478 . S
C712 C714 1.381 . S
C712 C718 1.383 . S
C713 C709 1.495 . S
C713 H719 0.959 . S
C713 H720 0.961 . S
C713 H721 0.960 . S
C714 C712 1.381 . S
C714 C715 1.394 . S
C714 H722 0.930 . S
C715 C714 1.394 . S
C715 C716 1.383 . S
C715 H723 0.929 . S
C716 C715 1.383 . S
C716 C717 1.377 . S
C717 H701 0.930 . S
C717 C716 1.377 . S
C717 C718 1.379 . S
C718 H702 0.931 . S
C718 C712 1.383 . S
C718 C717 1.379 . S
H719 C713 0.959 . S
H720 C713 0.961 . S
H721 C713 0.960 . S
H722 C714 0.930 . S
H723 C715 0.929 . S
H724 C732 0.929 . S
H725 C734 0.930 . S
H726 C736 0.930 . S
H727 C739 0.929 . S
H728 C742 0.930 . S
H729 C744 0.960 . S
H730 C744 0.960 . S
H731 C744 0.960 . S
C732 H724 0.929 . S
C732 C733 1.377 . S
C732 C734 1.384 . S
C733 C732 1.377 . S
C733 C739 1.390 . S
C734 H725 0.930 . S
C734 C732 1.384 . S
C734 C735 1.372 . S
C735 C734 1.372 . S
C735 C736 1.400 . S
C735 C740 1.490 . S
C736 H726 0.930 . S
C736 C735 1.400 . S
C736 C739 1.386 . S
H737 C753 0.930 . S
H738 C754 0.931 . S
C739 H727 0.929 . S
C739 C733 1.390 . S
C739 C736 1.386 . S
C740 C735 1.490 . S
C740 C742 1.395 . S
C740 C743 1.403 . S
H741 C747 0.930 . S
C742 H728 0.930 . S
C742 C740 1.395 . S
C742 C745 1.403 . S
C743 C740 1.403 . S
C743 C744 1.524 . S
C743 C747 1.400 . S
C744 H729 0.960 . S
C744 H730 0.960 . S
C744 H731 0.960 . S
C744 C743 1.524 . S
C745 C742 1.403 . S
C745 C746 1.392 . S
C745 C749 1.495 . S
C746 C745 1.392 . S
C746 C747 1.385 . S
C746 C748 1.478 . S
C747 H741 0.930 . S
C747 C743 1.400 . S
C747 C746 1.385 . S
C748 C746 1.478 . S
C748 C750 1.381 . S
C748 C754 1.383 . S
C749 C745 1.495 . S
C749 H755 0.959 . S
C749 H756 0.961 . S
C749 H757 0.960 . S
C750 C748 1.381 . S
C750 C751 1.394 . S
C750 H758 0.930 . S
C751 C750 1.394 . S
C751 C752 1.383 . S
C751 H759 0.929 . S
C752 C751 1.383 . S
C752 C753 1.377 . S
C753 H737 0.930 . S
C753 C752 1.377 . S
C753 C754 1.379 . S
C754 H738 0.931 . S
C754 C748 1.383 . S
C754 C753 1.379 . S
H755 C749 0.959 . S
H756 C749 0.961 . S
H757 C749 0.960 . S
H758 C750 0.930 . S
H759 C751 0.929 . S
H760 C768 0.929 1_556 S
H761 C770 0.955 . S
H762 C772 0.930 . S
H763 C775 0.929 . S
H764 C778 0.930 . S
H765 C780 0.960 . S
H766 C780 0.960 . S
H767 C780 0.960 . S
C768 H760 0.929 1_554 S
C768 C769 1.377 . S
C768 C770 1.377 1_554 S
C769 C768 1.377 . S
C769 C775 1.390 . S
C770 H761 0.955 . S
C770 C768 1.377 1_556 S
C770 C771 1.356 1_556 S
C771 C770 1.356 1_554 S
C771 C772 1.400 . S
C771 C776 1.490 . S
C772 H762 0.930 . S
C772 C771 1.400 . S
C772 C775 1.386 . S
H773 C789 0.916 1_554 S
H774 C790 0.931 . S
C775 H763 0.929 . S
C775 C769 1.390 . S
C775 C772 1.386 . S
C776 C771 1.490 . S
C776 C778 1.395 . S
C776 C779 1.403 1_554 S
H777 C783 0.930 . S
C778 H764 0.930 . S
C778 C776 1.395 . S
C778 C781 1.403 . S
C779 C776 1.403 1_556 S
C779 C780 1.524 . S
C779 C783 1.400 . S
C780 H765 0.960 . S
C780 H766 0.960 . S
C780 H767 0.960 . S
C780 C779 1.524 . S
C781 C778 1.403 . S
C781 C782 1.392 1_554 S
C781 C785 1.495 . S
C782 C781 1.392 1_556 S
C782 C783 1.385 . S
C782 C784 1.478 . S
C783 H777 0.930 . S
C783 C779 1.400 . S
C783 C782 1.385 . S
C784 C782 1.478 . S
C784 C786 1.381 . S
C784 C790 1.383 1_556 S
C785 C781 1.495 . S
C785 H791 0.959 . S
C785 H792 0.961 . S
C785 H793 0.960 . S
C786 C784 1.381 . S
C786 C787 1.394 . S
C786 H794 0.930 . S
C787 C786 1.394 . S
C787 C788 1.383 . S
C787 H795 0.929 . S
C788 C787 1.383 . S
C788 C789 1.397 . S
C789 H773 0.916 1_556 S
C789 C788 1.397 . S
C789 C790 1.374 1_556 S
C790 H774 0.931 . S
C790 C784 1.383 1_554 S
C790 C789 1.374 1_554 S
H791 C785 0.959 . S
H792 C785 0.961 . S
H793 C785 0.960 . S
H794 C786 0.930 . S
H795 C787 0.929 . S
H796 C804 0.929 . S
H797 C806 0.930 . S
H798 C808 0.930 . S
H799 C811 0.929 . S
H800 C814 0.930 . S
H801 C816 0.960 . S
H802 C816 0.960 . S
H803 C816 0.960 . S
C804 H796 0.929 . S
C804 C805 1.377 . S
C804 C806 1.384 . S
C805 C804 1.377 . S
C805 C811 1.390 . S
C806 H797 0.930 . S
C806 C804 1.384 . S
C806 C807 1.372 . S
C807 C806 1.372 . S
C807 C808 1.400 . S
C807 C812 1.490 . S
C808 H798 0.930 . S
C808 C807 1.400 . S
C808 C811 1.386 . S
H809 C825 0.930 . S
H810 C826 0.931 . S
C811 H799 0.929 . S
C811 C805 1.390 . S
C811 C808 1.386 . S
C812 C807 1.490 . S
C812 C814 1.395 1_554 S
C812 C815 1.403 . S
H813 C819 0.930 . S
C814 H800 0.930 . S
C814 C812 1.395 1_556 S
C814 C817 1.403 1_455 S
C815 C812 1.403 . S
C815 C816 1.524 . S
C815 C819 1.400 1_455 S
C816 H801 0.960 . S
C816 H802 0.960 . S
C816 H803 0.960 . S
C816 C815 1.524 . S
C817 C814 1.403 1_655 S
C817 C818 1.392 . S
C817 C821 1.495 . S
C818 C817 1.392 . S
C818 C819 1.385 1_556 S
C818 C820 1.478 . S
C819 H813 0.930 . S
C819 C815 1.400 1_655 S
C819 C818 1.385 1_554 S
C820 C818 1.478 . S
C820 C822 1.381 . S
C820 C826 1.383 . S
C821 C817 1.495 . S
C821 H827 0.959 . S
C821 H828 0.961 . S
C821 H829 0.960 . S
C822 C820 1.381 . S
C822 C823 1.394 . S
C822 H830 0.930 . S
C823 C822 1.394 . S
C823 C824 1.383 . S
C823 H831 0.929 . S
C824 C823 1.383 . S
C824 C825 1.377 . S
C825 H809 0.930 . S
C825 C824 1.377 . S
C825 C826 1.379 . S
C826 H810 0.931 . S
C826 C820 1.383 . S
C826 C825 1.379 . S
H827 C821 0.959 . S
H828 C821 0.961 . S
H829 C821 0.960 . S
H830 C822 0.930 . S
H831 C823 0.929 . S
H832 C840 0.929 . S
H833 C842 0.930 . S
H834 C844 0.930 . S
H835 C847 0.929 . S
H836 C850 0.930 . S
H837 C852 0.960 . S
H838 C852 0.960 . S
H839 C852 0.960 . S
C840 H832 0.929 . S
C840 C841 1.377 . S
C840 C842 1.384 . S
C841 C840 1.377 . S
C841 C847 1.390 . S
C842 H833 0.930 . S
C842 C840 1.384 . S
C842 C843 1.372 . S
C843 C842 1.372 . S
C843 C844 1.400 . S
C843 C848 1.490 . S
C844 H834 0.930 . S
C844 C843 1.400 . S
C844 C847 1.386 . S
H845 C861 0.930 . S
H846 C862 0.931 . S
C847 H835 0.929 . S
C847 C841 1.390 . S
C847 C844 1.386 . S
C848 C843 1.490 . S
C848 C850 1.395 . S
C848 C851 1.403 . S
H849 C855 0.930 . S
C850 H836 0.930 . S
C850 C848 1.395 . S
C850 C853 1.403 1_565 S
C851 C848 1.403 . S
C851 C852 1.524 . S
C851 C855 1.400 1_565 S
C852 H837 0.960 . S
C852 H838 0.960 . S
C852 H839 0.960 . S
C852 C851 1.524 . S
C853 C850 1.403 1_545 S
C853 C854 1.392 . S
C853 C857 1.495 . S
C854 C853 1.392 . S
C854 C855 1.385 . S
C854 C856 1.478 . S
C855 H849 0.930 . S
C855 C851 1.400 1_545 S
C855 C854 1.385 . S
C856 C854 1.478 . S
C856 C858 1.381 . S
C856 C862 1.383 . S
C857 C853 1.495 . S
C857 H863 0.959 . S
C857 H864 0.961 . S
C857 H865 0.960 . S
C858 C856 1.381 . S
C858 C859 1.394 . S
C858 H866 0.930 . S
C859 C858 1.394 . S
C859 C860 1.383 . S
C859 H867 0.929 . S
C860 C859 1.383 . S
C860 C861 1.377 . S
C861 H845 0.930 . S
C861 C860 1.377 . S
C861 C862 1.379 . S
C862 H846 0.931 . S
C862 C856 1.383 . S
C862 C861 1.379 . S
H863 C857 0.959 . S
H864 C857 0.961 . S
H865 C857 0.960 . S
H866 C858 0.930 . S
H867 C859 0.929 . S
H868 C876 0.929 . S
H869 C878 0.930 . S
H870 C880 0.930 . S
H871 C883 0.929 . S
H872 C886 0.930 . S
H873 C888 0.960 . S
H874 C888 0.960 . S
H875 C888 0.960 . S
C876 H868 0.929 . S
C876 C877 1.377 . S
C876 C878 1.384 . S
C877 C876 1.377 . S
C877 C883 1.390 . S
C878 H869 0.930 . S
C878 C876 1.384 . S
C878 C879 1.372 . S
C879 C878 1.372 . S
C879 C880 1.400 . S
C879 C884 1.490 . S
C880 H870 0.930 . S
C880 C879 1.400 . S
C880 C883 1.386 . S
H881 C897 0.930 . S
H882 C898 0.931 . S
C883 H871 0.929 . S
C883 C877 1.390 . S
C883 C880 1.386 . S
C884 C879 1.490 . S
C884 C886 1.395 1_545 S
C884 C887 1.403 1_655 S
H885 C891 0.930 . S
C886 H872 0.930 . S
C886 C884 1.395 1_565 S
C886 C889 1.403 . S
C887 C884 1.403 1_455 S
C887 C888 1.524 . S
C887 C891 1.400 . S
C888 H873 0.960 . S
C888 H874 0.960 . S
C888 H875 0.960 . S
C888 C887 1.524 . S
C889 C886 1.403 . S
C889 C890 1.392 1_655 S
C889 C893 1.495 . S
C890 C889 1.392 1_455 S
C890 C891 1.385 1_565 S
C890 C892 1.478 . S
C891 H885 0.930 . S
C891 C887 1.400 . S
C891 C890 1.385 1_545 S
C892 C890 1.478 . S
C892 C894 1.381 . S
C892 C898 1.383 . S
C893 C889 1.495 . S
C893 H899 0.959 . S
C893 H900 0.961 . S
C893 H901 0.960 . S
C894 C892 1.381 . S
C894 C895 1.394 . S
C894 H902 0.930 . S
C895 C894 1.394 . S
C895 C896 1.383 . S
C895 H903 0.929 . S
C896 C895 1.383 . S
C896 C897 1.377 . S
C897 H881 0.930 . S
C897 C896 1.377 . S
C897 C898 1.379 . S
C898 H882 0.931 . S
C898 C892 1.383 . S
C898 C897 1.379 . S
H899 C893 0.959 . S
H900 C893 0.961 . S
H901 C893 0.960 . S
H902 C894 0.930 . S
H903 C895 0.929 . S
H904 C912 0.929 . S
H905 C914 0.930 . S
H906 C916 0.930 1_556 S
H907 C919 0.929 1_556 S
H908 C922 0.930 . S
H909 C924 0.960 . S
H910 C924 0.960 . S
H911 C924 0.960 . S
C912 H904 0.929 . S
C912 C913 1.377 . S
C912 C914 1.384 . S
C913 C912 1.377 . S
C913 C919 1.390 . S
C914 H905 0.930 . S
C914 C912 1.384 . S
C914 C915 1.372 . S
C915 C914 1.372 . S
C915 C916 1.400 . S
C915 C920 1.490 . S
C916 H906 0.930 1_554 S
C916 C915 1.400 . S
C916 C919 1.386 . S
H917 C933 0.930 1_556 S
H918 C934 0.931 1_556 S
C919 H907 0.929 1_554 S
C919 C913 1.390 . S
C919 C916 1.386 . S
C920 C915 1.490 . S
C920 C922 1.395 . S
C920 C923 1.403 . S
H921 C927 0.930 . S
C922 H908 0.930 . S
C922 C920 1.395 . S
C922 C925 1.403 . S
C923 C920 1.403 . S
C923 C924 1.524 . S
C923 C927 1.400 . S
C924 H909 0.960 . S
C924 H910 0.960 . S
C924 H911 0.960 . S
C924 C923 1.524 . S
C925 C922 1.403 . S
C925 C926 1.392 . S
C925 C929 1.495 . S
C926 C925 1.392 . S
C926 C927 1.385 . S
C926 C928 1.478 . S
C927 H921 0.930 . S
C927 C923 1.400 . S
C927 C926 1.385 . S
C928 C926 1.478 . S
C928 C930 1.381 . S
C928 C934 1.383 . S
C929 C925 1.495 . S
C929 H935 0.959 . S
C929 H936 0.974 . S
C929 H937 0.960 . S
C930 C928 1.381 . S
C930 C931 1.394 . S
C930 H938 0.930 . S
C931 C930 1.394 . S
C931 C932 1.383 . S
C931 H939 0.929 . S
C932 C931 1.383 . S
C932 C933 1.377 . S
C933 H917 0.930 1_554 S
C933 C932 1.377 . S
C933 C934 1.379 . S
C934 H918 0.931 1_554 S
C934 C928 1.383 . S
C934 C933 1.379 . S
H935 C929 0.959 . S
H936 C929 0.974 . S
H937 C929 0.960 . S
H938 C930 0.930 . S
H939 C931 0.929 . S
H940 C948 0.929 . S
H941 C950 0.930 . S
H942 C952 0.930 . S
H943 C955 0.929 . S
H944 C958 0.930 . S
H945 C960 0.960 . S
H946 C960 0.960 . S
H947 C960 0.960 . S
C948 H940 0.929 . S
C948 C949 1.377 . S
C948 C950 1.384 . S
C949 C948 1.377 . S
C949 C955 1.390 . S
C950 H941 0.930 . S
C950 C948 1.384 . S
C950 C951 1.372 . S
C951 C950 1.372 . S
C951 C952 1.400 . S
C951 C956 1.490 . S
C952 H942 0.930 . S
C952 C951 1.400 . S
C952 C955 1.386 . S
H953 C969 0.930 . S
H954 C970 0.931 . S
C955 H943 0.929 . S
C955 C949 1.390 . S
C955 C952 1.386 . S
C956 C951 1.490 . S
C956 C958 1.395 1_545 S
C956 C959 1.403 . S
H957 C963 0.930 . S
C958 H944 0.930 . S
C958 C956 1.395 1_565 S
C958 C961 1.403 . S
C959 C956 1.403 . S
C959 C960 1.524 . S
C959 C963 1.400 . S
C960 H945 0.960 . S
C960 H946 0.960 . S
C960 H947 0.960 . S
C960 C959 1.524 . S
C961 C958 1.403 . S
C961 C962 1.392 . S
C961 C965 1.495 . S
C962 C961 1.392 . S
C962 C963 1.385 1_565 S
C962 C964 1.478 . S
C963 H957 0.930 . S
C963 C959 1.400 . S
C963 C962 1.385 1_545 S
C964 C962 1.478 . S
C964 C966 1.381 . S
C964 C970 1.383 . S
C965 C961 1.495 . S
C965 H971 0.959 . S
C965 H972 0.961 . S
C965 H973 0.960 . S
C966 C964 1.381 . S
C966 C967 1.394 . S
C966 H974 0.930 . S
C967 C966 1.394 . S
C967 C968 1.383 . S
C967 H975 0.929 . S
C968 C967 1.383 . S
C968 C969 1.377 . S
C969 H953 0.930 . S
C969 C968 1.377 . S
C969 C970 1.379 . S
C970 H954 0.931 . S
C970 C964 1.383 . S
C970 C969 1.379 . S
H971 C965 0.959 . S
H972 C965 0.961 . S
H973 C965 0.960 . S
H974 C966 0.930 . S
H975 C967 0.929 . S
H976 C984 0.929 . S
H977 C986 0.930 . S
H978 C988 0.930 . S
H979 C991 0.929 . S
H980 C994 0.930 . S
H981 C996 0.960 . S
H982 C996 0.960 . S
H983 C996 0.960 . S
C984 H976 0.929 . S
C984 C985 1.377 . S
C984 C986 1.384 . S
C985 C984 1.377 . S
C985 C991 1.390 . S
C986 H977 0.930 . S
C986 C984 1.384 . S
C986 C987 1.372 . S
C987 C986 1.372 . S
C987 C988 1.400 . S
C987 C992 1.490 . S
C988 H978 0.930 . S
C988 C987 1.400 . S
C988 C991 1.386 . S
H989 C1005 0.930 . S
H990 C1006 0.931 . S
C991 H979 0.929 . S
C991 C985 1.390 . S
C991 C988 1.386 . S
C992 C987 1.490 . S
C992 C994 1.395 1_556 S
C992 C995 1.403 . S
H993 C999 0.930 . S
C994 H980 0.930 . S
C994 C992 1.395 1_554 S
C994 C997 1.403 . S
C995 C992 1.403 . S
C995 C996 1.524 . S
C995 C999 1.400 . S
C996 H981 0.960 . S
C996 H982 0.960 . S
C996 H983 0.960 . S
C996 C995 1.524 . S
C997 C994 1.403 . S
C997 C998 1.392 1_554 S
C997 C1001 1.495 . S
C998 C997 1.392 1_556 S
C998 C999 1.385 . S
C998 C1000 1.478 . S
C999 H993 0.930 . S
C999 C995 1.400 . S
C999 C998 1.385 . S
C1000 C998 1.478 . S
C1000 C1002 1.381 . S
C1000 C1006 1.383 . S
C1001 C997 1.495 . S
C1001 H1007 0.959 . S
C1001 H1008 0.961 . S
C1001 H1009 0.960 . S
C1002 C1000 1.381 . S
C1002 C1003 1.394 . S
C1002 H1010 0.930 . S
C1003 C1002 1.394 . S
C1003 C1004 1.383 . S
C1003 H1011 0.929 . S
C1004 C1003 1.383 . S
C1004 C1005 1.377 . S
C1005 H989 0.930 . S
C1005 C1004 1.377 . S
C1005 C1006 1.379 . S
C1006 H990 0.931 . S
C1006 C1000 1.383 . S
C1006 C1005 1.379 . S
H1007 C1001 0.959 . S
H1008 C1001 0.961 . S
H1009 C1001 0.960 . S
H1010 C1002 0.930 . S
H1011 C1003 0.929 . S
H1012 C1020 0.929 . S
H1013 C1022 0.930 . S
H1014 C1024 0.930 . S
H1015 C1027 0.929 . S
H1016 C1030 0.930 . S
H1017 C1032 0.960 . S
H1018 C1032 0.960 . S
H1019 C1032 0.960 . S
C1020 H1012 0.929 . S
C1020 C1021 1.377 . S
C1020 C1022 1.384 . S
C1021 C1020 1.377 . S
C1021 C1027 1.390 . S
C1022 H1013 0.930 . S
C1022 C1020 1.384 . S
C1022 C1023 1.372 . S
C1023 C1022 1.372 . S
C1023 C1024 1.400 . S
C1023 C1028 1.490 . S
C1024 H1014 0.930 . S
C1024 C1023 1.400 . S
C1024 C1027 1.386 . S
H1025 C1041 0.930 . S
H1026 C1042 0.931 . S
C1027 H1015 0.929 . S
C1027 C1021 1.390 . S
C1027 C1024 1.386 . S
C1028 C1023 1.490 . S
C1028 C1030 1.395 . S
C1028 C1031 1.403 1_565 S
H1029 C1035 0.930 . S
C1030 H1016 0.930 . S
C1030 C1028 1.395 . S
C1030 C1033 1.403 . S
C1031 C1028 1.403 1_545 S
C1031 C1032 1.524 . S
C1031 C1035 1.400 . S
C1032 H1017 0.960 . S
C1032 H1018 0.960 . S
C1032 H1019 0.960 . S
C1032 C1031 1.524 . S
C1033 C1030 1.403 . S
C1033 C1034 1.392 1_565 S
C1033 C1037 1.495 . S
C1034 C1033 1.392 1_545 S
C1034 C1035 1.385 . S
C1034 C1036 1.478 . S
C1035 H1029 0.930 . S
C1035 C1031 1.400 . S
C1035 C1034 1.385 . S
C1036 C1034 1.478 . S
C1036 C1038 1.381 . S
C1036 C1042 1.383 . S
C1037 C1033 1.495 . S
C1037 H1043 0.959 . S
C1037 H1044 0.961 . S
C1037 H1045 0.960 . S
C1038 C1036 1.381 . S
C1038 C1039 1.394 . S
C1038 H1046 0.930 . S
C1039 C1038 1.394 . S
C1039 C1040 1.383 . S
C1039 H1047 0.929 . S
C1040 C1039 1.383 . S
C1040 C1041 1.377 . S
C1041 H1025 0.930 . S
C1041 C1040 1.377 . S
C1041 C1042 1.379 . S
C1042 H1026 0.931 . S
C1042 C1036 1.383 . S
C1042 C1041 1.379 . S
H1043 C1037 0.959 . S
H1044 C1037 0.961 . S
H1045 C1037 0.960 . S
H1046 C1038 0.930 . S
H1047 C1039 0.929 . S
C481 C52 1.697 . S
C500 C111 1.700 . S
C517 C229 1.700 . S
C536 C170 1.685 . S
C553 C288 1.698 . S
C572 C347 1.683 . S
C589 C406 1.696 . S
C608 C465 1.689 . S
C625 C3 1.813 . S
C644 C121 1.818 . S
C661 C180 1.819 . S
C680 C62 1.834 . S
C697 C239 1.820 . S
C716 C357 1.807 . S
C733 C416 1.814 . S
C752 C298 1.833 . S
C769 C5 1.194 . S
C788 C241 1.213 . S
C805 C64 1.193 . S
C824 C300 1.171 . S
C841 C359 1.197 . S
C860 C123 1.198 . S
C877 C418 1.191 . S
C896 C182 1.208 . S
C913 C92 1.269 . S
C932 C33 1.277 . S
C949 C151 1.269 . S
C968 C210 1.276 . S
C985 C269 1.270 . S
C1004 C328 1.293 . S
C1021 C387 1.270 . S
C1040 C446 1.266 . S
