# Generated by pormake.
# Topology rkf, (6)-cn, num edge types: 1
# Building blocks:
#     Node 0, Type 0, BuildingBlock: BETDEL_clean_sbu_0, # of connection points: 6
#     Node 1, Type 0, BuildingBlock: BETDEL_clean_sbu_0, # of connection points: 6
#     Node 2, Type 0, BuildingBlock: BETDEL_clean_sbu_0, # of connection points: 6
#     Node 3, Type 0, BuildingBlock: BETDEL_clean_sbu_0, # of connection points: 6
#     Node 4, Type 0, BuildingBlock: BETDEL_clean_sbu_0, # of connection points: 6
#     Node 5, Type 0, BuildingBlock: BETDEL_clean_sbu_0, # of connection points: 6
#     Edge 6, Type (0, 0), BuildingBlock: XIVTED_clean_linker_0, # of connection points: 2
#     Edge 7, Type (0, 0), BuildingBlock: XIVTED_clean_linker_0, # of connection points: 2
#     Edge 8, Type (0, 0), BuildingBlock: XIVTED_clean_linker_0, # of connection points: 2
#     Edge 9, Type (0, 0), BuildingBlock: XIVTED_clean_linker_0, # of connection points: 2
#     Edge 10, Type (0, 0), BuildingBlock: XIVTED_clean_linker_0, # of connection points: 2
#     Edge 11, Type (0, 0), BuildingBlock: XIVTED_clean_linker_0, # of connection points: 2
#     Edge 12, Type (0, 0), BuildingBlock: XIVTED_clean_linker_0, # of connection points: 2
#     Edge 13, Type (0, 0), BuildingBlock: XIVTED_clean_linker_0, # of connection points: 2
#     Edge 14, Type (0, 0), BuildingBlock: XIVTED_clean_linker_0, # of connection points: 2
#     Edge 15, Type (0, 0), BuildingBlock: XIVTED_clean_linker_0, # of connection points: 2
#     Edge 16, Type (0, 0), BuildingBlock: XIVTED_clean_linker_0, # of connection points: 2
#     Edge 17, Type (0, 0), BuildingBlock: XIVTED_clean_linker_0, # of connection points: 2
#     Edge 18, Type (0, 0), BuildingBlock: XIVTED_clean_linker_0, # of connection points: 2
#     Edge 19, Type (0, 0), BuildingBlock: XIVTED_clean_linker_0, # of connection points: 2
#     Edge 20, Type (0, 0), BuildingBlock: XIVTED_clean_linker_0, # of connection points: 2
#     Edge 21, Type (0, 0), BuildingBlock: XIVTED_clean_linker_0, # of connection points: 2
#     Edge 22, Type (0, 0), BuildingBlock: XIVTED_clean_linker_0, # of connection points: 2
#     Edge 23, Type (0, 0), BuildingBlock: XIVTED_clean_linker_0, # of connection points: 2
# Relax obj value: 0.374
# Max RMSD: 0.269
# Mean RMSD: 0.269
data_MOF--net-rkf--node1-BETDEL_clean_sbu_0--edge1-XIVTED_clean_linker_0
_symmetry_space_group_name_H-M    P1
_symmetry_Int_Tables_number       1
_symmetry_cell_setting            triclinic
loop_
_symmetry_equiv_pos_as_xyz
'x, y, z'
_cell_length_a     24.727779
_cell_length_b     24.877584
_cell_length_c     40.986608
_cell_angle_alpha  89.9512
_cell_angle_beta   90.076115
_cell_angle_gamma 121.34045
loop_
_atom_site_label
_atom_site_type_symbol
_atom_site_fract_x
_atom_site_fract_y
_atom_site_fract_z
_atom_type_partial_charge
Dy0 Dy 0.21078 -0.02361 0.06762 0.0
C1 C 0.28304 0.19908 0.9884 0.0
C2 C 0.16261 0.87955 0.11207 0.0
Dy3 Dy 0.27438 0.11304 1.03388 0.0
O4 O 0.13026 0.88889 0.09027 0.0
O5 O 0.22256 0.92171 0.10857 0.0
O6 O 0.12895 0.94131 1.03365 0.0
O7 O 0.18044 0.03709 0.04736 0.0
C8 C 0.13858 -0.00293 1.02837 0.0
C9 C 0.35234 0.08884 0.06702 0.0
O10 O 0.25629 0.13861 0.08331 0.0
O11 O 0.22587 0.0427 0.10862 0.0
O12 O 0.31528 0.17119 0.98794 0.0
O13 O 0.24942 0.18302 1.01492 0.0
O14 O 0.3667 0.14639 0.06061 0.0
O15 O 0.30346 0.05047 0.05151 0.0
O16 O 0.24408 0.95482 1.02128 0.0
O17 O 0.25854 0.04437 0.99392 0.0
C18 C 0.24126 0.10236 0.10966 0.0
C19 C 0.25384 -0.01144 0.99418 0.0
Dy20 Dy 0.19776 0.25786 0.40829 0.0
C21 C 0.09273 0.35146 0.31446 0.0
C22 C 0.22973 0.19191 0.45028 0.0
Dy23 Dy 0.16265 0.33895 0.36241 0.0
O24 O 0.19431 0.16908 0.42441 0.0
O25 O 0.25108 0.25206 0.45195 0.0
O26 O 0.0924 0.19985 0.41837 0.0
O27 O 0.12431 0.24221 0.3744 0.0
C28 C 0.07467 0.2073 0.38975 0.0
C29 C 0.27525 0.40361 0.3912 0.0
O30 O 0.12926 0.34877 0.41213 0.0
O31 O 0.19485 0.32573 0.44218 0.0
O32 O 0.15447 0.38097 0.31517 0.0
O33 O 0.06996 0.31875 0.3411 0.0
O34 O 0.24417 0.42992 0.38101 0.0
O35 O 0.24828 0.34707 0.3818 0.0
O36 O 0.23385 0.24432 0.36013 0.0
O37 O 0.19899 0.29725 0.32673 0.0
C38 C 0.15798 0.34948 0.43978 0.0
C39 C 0.22557 0.26304 0.33094 0.0
Dy40 Dy 0.04569 0.27056 0.73488 0.0
C41 C 0.83684 0.11831 0.64655 0.0
C42 C 0.13344 0.29898 0.78349 0.0
Dy43 Dy 0.91318 0.19957 0.69507 0.0
O44 O 0.11517 0.25472 0.76192 0.0
O45 O 0.10569 0.33069 0.77769 0.0
O46 O 0.08123 0.22824 0.69927 0.0
O47 O -0.01568 0.18019 0.71164 0.0
C48 C 0.02519 0.18043 0.69317 0.0
C49 C 0.93498 0.30044 0.72882 0.0
O50 O 0.87656 0.15709 0.74422 0.0
O51 O -0.03041 0.22519 0.77276 0.0
O52 O 0.84257 0.10226 0.67594 0.0
O53 O 0.86917 0.17944 0.64455 0.0
O54 O 0.87824 0.25885 0.71796 0.0
O55 O -0.02515 0.2895 0.71655 0.0
O56 O 0.07648 0.33574 0.69185 0.0
O57 O -0.01048 0.26418 0.65959 0.0
C58 C 0.9084 0.18153 0.77177 0.0
C59 C 0.04571 0.31713 0.66335 0.0
Dy60 Dy 0.7947 0.06454 0.06805 0.0
C61 C 0.71782 0.84252 0.98773 0.0
C62 C 0.8481 0.16195 0.11208 0.0
Dy63 Dy 0.7282 0.92844 1.03368 0.0
O64 O 0.87855 0.1472 0.0918 0.0
O65 O 0.78731 0.12472 0.10746 0.0
O66 O 0.87552 0.09807 1.0336 0.0
O67 O 0.82281 0.00242 0.04739 0.0
C68 C 0.86485 0.04194 1.02835 0.0
C69 C 0.65201 0.95429 0.06716 0.0
O70 O 0.74519 0.90124 0.08297 0.0
O71 O 0.77482 -0.00359 0.10886 0.0
O72 O 0.68636 0.87124 0.98758 0.0
O73 O 0.75155 0.85767 1.01422 0.0
O74 O 0.63644 0.8965 0.06045 0.0
O75 O 0.70116 -0.00767 0.05174 0.0
O76 O 0.76322 0.08873 1.02192 0.0
O77 O 0.74558 -0.00155 0.99413 0.0
C78 C 0.75897 0.93659 0.10957 0.0
C79 C 0.75241 0.05519 0.99468 0.0
Dy80 Dy 0.80772 0.78739 0.40536 0.0
C81 C 0.92387 0.69749 0.31668 0.0
C82 C 0.77478 0.84526 0.45222 0.0
Dy83 Dy 0.84884 0.70511 0.36346 0.0
O84 O 0.80149 0.86936 0.42439 0.0
O85 O 0.76284 0.78778 0.45375 0.0
O86 O 0.89528 0.87496 0.38807 0.0
O87 O 0.89394 0.79147 0.39031 0.0
C88 C 0.92533 0.847 0.38041 0.0
C89 C 0.73371 0.64227 0.38875 0.0
O90 O 0.87183 0.68566 0.41344 0.0
O91 O 0.82151 0.72918 0.44231 0.0
O92 O 0.86257 0.66015 0.31872 0.0
O93 O 0.94387 0.73585 0.34136 0.0
O94 O 0.76514 0.61493 0.3808 0.0
O95 O 0.76167 0.69854 0.37866 0.0
O96 O 0.76155 0.78545 0.35765 0.0
O97 O 0.81487 0.74829 0.3267 0.0
C98 C 0.84936 0.6957 0.44082 0.0
C99 C 0.77905 0.77356 0.32911 0.0
Dy100 Dy -0.03847 0.77068 0.73627 0.0
C101 C 0.16605 0.91763 0.64482 0.0
C102 C 0.87644 0.74683 0.78544 0.0
Dy103 Dy 0.09213 0.83901 0.69482 0.0
O104 O 0.90109 0.7949 0.76595 0.0
O105 O 0.8967 0.70932 0.77748 0.0
O106 O 0.92511 0.81224 0.70059 0.0
O107 O 0.02251 0.85994 0.71191 0.0
C108 C -0.01892 0.85944 0.69375 0.0
C109 C 0.0706 0.73836 0.72875 0.0
O110 O 0.13103 0.88187 0.74383 0.0
O111 O 0.03963 0.81276 0.77323 0.0
O112 O 0.16332 0.93514 0.67435 0.0
O113 O 0.13206 0.8565 0.64347 0.0
O114 O 0.12693 0.77909 0.71712 0.0
O115 O 0.03064 0.74998 0.71716 0.0
O116 O 0.92706 0.70454 0.69372 0.0
O117 O 0.0136 0.77335 0.66047 0.0
C118 C 0.10069 0.85661 0.77165 0.0
C119 C 0.95676 0.72153 0.66495 0.0
H120 H 0.86453 0.9342 1.01759 0.0
H121 H 0.1375 0.10403 1.0174 0.0
H122 H 0.92169 0.11399 0.97447 0.0
H123 H 0.08051 0.92383 0.97499 0.0
H124 H 0.0744 0.11847 0.97752 0.0
H125 H 0.92682 0.91883 0.97767 0.0
C126 C 0.88815 0.96931 0.99881 0.0
C127 C 0.89017 0.0263 1.00012 0.0
C128 C 0.07711 0.07647 0.9758 0.0
C129 C -0.03158 0.01305 0.95721 0.0
C130 C 0.11376 0.06864 0.99876 0.0
C131 C 0.11218 0.01189 1.00025 0.0
C132 C 0.03293 0.02404 0.95736 0.0
C133 C 0.07952 0.96681 0.97585 0.0
C134 C 0.92427 0.96092 0.97581 0.0
C135 C 0.92247 0.0709 0.97548 0.0
N136 N 0.03905 0.97274 0.95592 0.0
N137 N -0.03755 0.06443 0.95551 0.0
H138 H 0.05404 0.91297 0.3859 0.0
H139 H 0.05548 0.19293 0.32372 0.0
H140 H 0.9112 0.84415 0.3121 0.0
H141 H -0.01942 0.0951 0.41477 0.0
H142 H 0.03685 0.09502 0.29907 0.0
H143 H 0.08855 0.02017 0.36953 0.0
C144 C 0.0316 0.91996 0.36494 0.0
C145 C -0.02742 0.87128 0.35422 0.0
C146 C 0.02216 0.0948 0.32399 0.0
C147 C 0.01117 -0.00892 0.33527 0.0
C148 C 0.03163 0.15011 0.33807 0.0
C149 C 0.02427 0.15262 0.3721 0.0
C150 C 0.00179 0.04238 0.34399 0.0
C151 C -0.00966 0.09577 0.38898 0.0
C152 C 0.0507 -0.01861 0.35598 0.0
C153 C 0.95045 0.88228 0.32486 0.0
N154 N -0.01721 0.04298 0.37509 0.0
N155 N -0.03496 0.94181 0.31815 0.0
H156 H 0.08897 0.97018 0.68128 0.0
H157 H 0.91769 0.06839 0.68254 0.0
H158 H 0.90427 0.84131 0.64161 0.0
H159 H 0.09999 0.19695 0.64047 0.0
H160 H 0.90211 -0.01004 0.64309 0.0
H161 H 0.10317 0.04751 0.64132 0.0
C162 C 0.05242 0.9572 0.66318 0.0
C163 C -0.00525 0.90038 0.66543 0.0
C164 C 0.94483 0.03598 0.64129 0.0
C165 C 0.00682 -0.00811 0.62266 0.0
C166 C 0.95331 0.08105 0.66399 0.0
C167 C 0.01071 0.13829 0.66534 0.0
C168 C -0.00272 0.04561 0.62301 0.0
C169 C 0.05627 0.15165 0.64128 0.0
C170 C 0.06014 0.00161 0.64018 0.0
C171 C 0.94819 0.88645 0.64182 0.0
N172 N 0.04963 0.10467 0.62163 0.0
N173 N 0.95425 0.93291 0.6219 0.0
H174 H 0.20821 0.25049 0.98403 0.0
H175 H 0.21618 0.25892 0.78973 0.0
H176 H 0.33321 0.21564 0.92704 0.0
H177 H 0.13055 0.34242 0.84516 0.0
H178 H 0.26151 0.24587 0.83996 0.0
H179 H 0.18088 0.28702 0.93448 0.0
C180 C 0.23086 0.25166 0.96122 0.0
C181 C 0.27338 0.23023 0.95978 0.0
C182 C 0.23367 0.26796 0.84125 0.0
C183 C 0.24125 0.27086 0.9027 0.0
C184 C 0.2079 0.27564 0.81248 0.0
C185 C 0.16985 0.30222 0.81316 0.0
C186 C 0.22032 0.28563 0.87133 0.0
C187 C 0.16022 0.3224 0.84344 0.0
C188 C 0.21506 0.27236 0.93289 0.0
C189 C 0.30053 0.23203 0.92941 0.0
N190 N 0.18448 0.31287 0.87137 0.0
N191 N 0.28355 0.25124 0.90215 0.0
H192 H 0.1348 0.39503 0.25265 0.0
H193 H 0.795 0.16795 0.16997 0.0
H194 H -0.03635 0.28208 0.30793 0.0
H195 H -0.02734 0.25189 0.11856 0.0
H196 H 0.85231 0.22614 0.21932 0.0
H197 H 0.07246 0.3604 0.20224 0.0
C198 C 0.0839 0.36406 0.25424 0.0
C199 C 0.05446 0.34131 0.28457 0.0
C200 C 0.8786 0.23257 0.19708 0.0
C201 C -0.01734 0.30058 0.22681 0.0
C202 C 0.84583 0.19973 0.16885 0.0
C203 C 0.87915 0.20499 0.14015 0.0
C204 C 0.94508 0.27125 0.19648 0.0
C205 C 0.9451 0.24629 0.14019 0.0
C206 C 0.04831 0.34389 0.2254 0.0
C207 C -0.01168 0.30079 0.28507 0.0
N208 N -0.02417 0.27743 0.16787 0.0
N209 N 0.95476 0.28129 0.25667 0.0
H210 H 0.78288 -0.00989 0.64653 0.0
H211 H 0.80366 0.96741 0.45187 0.0
H212 H 0.84002 0.1469 0.58153 0.0
H213 H 0.73958 0.80816 0.51597 0.0
H214 H 0.80982 0.03167 0.4986 0.0
H215 H 0.75938 0.92114 0.59916 0.0
C216 C 0.78931 0.00985 0.62227 0.0
C217 C 0.81312 0.07447 0.61809 0.0
C218 C 0.79377 -0.01746 0.50251 0.0
C219 C 0.78716 -0.00438 0.56345 0.0
C220 C 0.79001 0.94566 0.47574 0.0
C221 C 0.7709 0.88211 0.4799 0.0
C222 C 0.77873 0.95607 0.53397 0.0
C223 C 0.75428 0.85681 0.51153 0.0
C224 C 0.77622 0.97043 0.59518 0.0
C225 C 0.82136 0.0974 0.586 0.0
N226 N 0.75899 0.89385 0.5373 0.0
N227 N 0.80884 0.05825 0.56003 0.0
H228 H 0.6698 0.83066 0.92621 0.0
H229 H 0.86843 0.69168 0.8453 0.0
H230 H 0.7893 0.78735 0.98289 0.0
H231 H 0.80232 0.79665 0.79271 0.0
H232 H 0.82102 0.70414 0.89557 0.0
H233 H 0.69875 0.79566 0.87694 0.0
C234 C 0.70116 0.81259 0.92842 0.0
C235 C 0.72701 0.81186 0.9588 0.0
C236 C 0.81613 0.72355 0.87288 0.0
C237 C 0.76091 0.77198 0.90223 0.0
C238 C 0.84263 0.71592 0.84416 0.0
C239 C 0.83911 0.74299 0.81475 0.0
C240 C 0.78504 0.75758 0.872 0.0
C241 C 0.80611 0.77496 0.81482 0.0
C242 C 0.71804 0.79299 0.90021 0.0
C243 C 0.768 0.78849 0.96001 0.0
N244 N 0.78051 0.78135 0.84285 0.0
N245 N 0.78389 0.76975 0.93217 0.0
H246 H 0.88321 0.64534 0.25596 0.0
H247 H 0.21754 0.88239 0.17091 0.0
H248 H 0.05176 0.77517 0.30938 0.0
H249 H 0.03992 0.78412 0.11919 0.0
H250 H 0.16242 0.82671 0.22106 0.0
H251 H 0.94478 0.67868 0.20522 0.0
C252 C 0.93348 0.67977 0.25711 0.0
C253 C -0.03765 0.70755 0.28695 0.0
C254 C 0.13568 0.81659 0.19862 0.0
C255 C 0.03309 0.74659 0.22889 0.0
C256 C 0.16725 0.84801 0.16993 0.0
C257 C 0.13324 0.83798 0.14085 0.0
C258 C 0.06968 0.77452 0.19817 0.0
C259 C 0.06796 0.79339 0.14109 0.0
C260 C -0.03145 0.69917 0.2281 0.0
C261 C 0.02757 0.75249 0.28691 0.0
N262 N 0.03832 0.7637 0.16927 0.0
N263 N 0.06058 0.77092 0.25837 0.0
H264 H 0.22701 0.04664 0.64361 0.0
H265 H 0.18407 0.06505 0.45049 0.0
H266 H 0.15425 0.88593 0.57989 0.0
H267 H 0.27976 0.22921 0.51193 0.0
H268 H 0.17679 -0.00051 0.49699 0.0
H269 H 0.2506 0.11467 0.59576 0.0
C270 C 0.21708 0.02575 0.61951 0.0
C271 C 0.18903 0.96037 0.61586 0.0
C272 C 0.20004 0.04991 0.5003 0.0
C273 C 0.21489 0.03818 0.56066 0.0
C274 C 0.20443 0.08748 0.47365 0.0
C275 C 0.23281 0.15292 0.47717 0.0
C276 C 0.22357 0.07762 0.53103 0.0
C277 C 0.2578 0.1791 0.50795 0.0
C278 C 0.23027 0.06466 0.59214 0.0
C279 C 0.17632 0.93603 0.58395 0.0
N280 N 0.25213 0.14146 0.53365 0.0
N281 N 0.18886 0.97471 0.55773 0.0
H282 H 0.47421 0.16584 0.08873 0.0
H283 H 0.53056 0.87825 0.08921 0.0
H284 H 0.32792 0.9708 0.07712 0.0
H285 H 0.6778 0.07292 0.07751 0.0
H286 H 0.45625 0.91205 0.10302 0.0
H287 H 0.54921 0.13268 0.10259 0.0
C288 C 0.45758 0.11609 0.0899 0.0
C289 C 0.39517 0.07093 0.08144 0.0
C290 C 0.50524 0.94737 0.09813 0.0
C291 C 0.47991 0.0328 0.0971 0.0
C292 C 0.54752 0.92807 0.0903 0.0
C293 C 0.60991 0.9729 0.08173 0.0
C294 C 0.52585 0.0118 0.09725 0.0
C295 C 0.62987 0.03688 0.08375 0.0
C296 C 0.50023 0.09717 0.09776 0.0
C297 C 0.37569 0.00708 0.08345 0.0
N298 N 0.58773 0.05445 0.09082 0.0
N299 N 0.4181 -0.01009 0.09064 0.0
H300 H 0.34677 0.52894 0.40489 0.0
H301 H 0.66237 0.51876 0.40602 0.0
H302 H 0.35133 0.35793 0.40583 0.0
H303 H 0.65792 0.68958 0.4004 0.0
H304 H 0.54935 0.46027 0.41876 0.0
H305 H 0.46047 0.58907 0.41616 0.0
C306 C 0.37165 0.50405 0.40798 0.0
C307 C 0.34037 0.43878 0.40366 0.0
C308 C 0.57322 0.51068 0.41519 0.0
C309 C 0.46992 0.50686 0.41625 0.0
C310 C 0.63764 0.54399 0.4079 0.0
C311 C 0.66874 0.60859 0.40138 0.0
C312 C 0.5399 0.54234 0.41569 0.0
C313 C 0.63512 0.63944 0.40464 0.0
C314 C 0.43647 0.5383 0.4144 0.0
C315 C 0.37423 0.40849 0.40839 0.0
N316 N 0.57213 0.60581 0.41107 0.0
N317 N 0.43754 0.44293 0.41391 0.0
H318 H 0.05205 0.39128 0.74887 0.0
H319 H 0.95373 0.64791 0.74942 0.0
H320 H 0.85951 0.34828 0.74193 0.0
H321 H 0.14593 0.69028 0.74148 0.0
H322 H 0.91925 0.53912 0.76291 0.0
H323 H 0.0865 0.49991 0.76245 0.0
C324 C 0.01683 0.4045 0.75088 0.0
C325 C 0.95307 0.36133 0.74363 0.0
C326 C -0.03087 0.5724 0.75881 0.0
C327 C -0.00781 0.48558 0.7587 0.0
C328 C -0.01113 0.63451 0.75117 0.0
C329 C 0.05251 0.6775 0.74362 0.0
C330 C 0.0134 0.55323 0.75869 0.0
C331 C 0.09625 0.65815 0.74665 0.0
C332 C 0.03655 0.46655 0.75856 0.0
C333 C 0.90926 0.38054 0.74691 0.0
N334 N 0.07568 0.59697 0.75341 0.0
N335 N 0.92982 0.44173 0.75364 0.0
H336 H 0.27208 0.22281 0.12571 0.0
H337 H 0.22376 0.1533 0.3184 0.0
H338 H 0.21746 0.04302 0.16885 0.0
H339 H 0.26443 0.32771 0.27398 0.0
H340 H 0.23308 0.11561 0.26447 0.0
H341 H 0.27845 0.26501 0.18047 0.0
C342 C 0.26128 0.19214 0.14658 0.0
C343 C 0.24384 0.12914 0.14246 0.0
C344 C 0.24076 0.16246 0.26664 0.0
C345 C 0.25165 0.17731 0.20537 0.0
C346 C 0.23614 0.18415 0.29747 0.0
C347 C 0.24314 0.24356 0.30062 0.0
C348 C 0.25267 0.20064 0.23893 0.0
C349 C 0.25816 0.28132 0.2726 0.0
C350 C 0.26515 0.21631 0.1779 0.0
C351 C 0.23081 0.09183 0.17061 0.0
N352 N 0.26199 0.25914 0.243 0.0
N353 N 0.2349 0.11641 0.20075 0.0
H354 H 0.05271 0.35059 0.46053 0.0
H355 H 0.16987 0.38241 0.64309 0.0
H356 H 0.24352 0.4074 0.48823 0.0
H357 H -0.01821 0.33475 0.61528 0.0
H358 H 0.20542 0.41784 0.58701 0.0
H359 H 0.03305 0.37039 0.51665 0.0
C360 C 0.09088 0.36886 0.47819 0.0
C361 C 0.14917 0.37587 0.47009 0.0
C362 C 0.15667 0.40104 0.59338 0.0
C363 C 0.12715 0.39758 0.53416 0.0
C364 C 0.13666 0.38129 0.62544 0.0
C365 C 0.07273 0.35456 0.63347 0.0
C366 C 0.11215 0.39346 0.56946 0.0
C367 C 0.03135 0.35389 0.60975 0.0
C368 C 0.0797 0.37985 0.51027 0.0
C369 C 0.19724 0.3998 0.49381 0.0
N370 N 0.05145 0.37185 0.5787 0.0
N371 N 0.18484 0.40866 0.52489 0.0
H372 H 0.78973 0.08029 0.78713 0.0
H373 H 0.82879 0.17795 0.97581 0.0
H374 H 0.94943 0.24738 0.82846 0.0
H375 H 0.68743 -0.00542 0.93999 0.0
H376 H 0.85728 0.21411 0.91934 0.0
H377 H 0.7379 0.05641 0.84083 0.0
C378 C 0.81377 0.11191 0.80735 0.0
C379 C 0.87453 0.16511 0.80338 0.0
C380 C 0.81905 0.16631 0.92383 0.0
C381 C 0.81531 0.13903 0.86443 0.0
C382 C 0.80225 0.14604 0.95606 0.0
C383 C 0.75623 0.08317 0.96245 0.0
C384 C 0.78953 0.12326 0.89803 0.0
C385 C 0.72378 0.04336 0.93598 0.0
C386 C 0.78415 0.09848 0.83792 0.0
C387 C 0.90318 0.20498 0.83039 0.0
N388 N 0.74169 0.06375 0.90491 0.0
N389 N 0.8735 0.191 0.85966 0.0
H390 H 0.76705 -0.01027 0.16914 0.0
H391 H 0.75971 0.71374 0.27108 0.0
H392 H 0.74001 0.81985 0.12493 0.0
H393 H 0.75727 0.86925 0.31591 0.0
H394 H 0.74704 0.74907 0.21773 0.0
H395 H 0.76037 0.945 0.22281 0.0
C396 C 0.75977 0.94293 0.1706 0.0
C397 C 0.75465 0.90874 0.14224 0.0
C398 C 0.74842 0.77513 0.23918 0.0
C399 C 0.74662 0.85703 0.20417 0.0
C400 C 0.75557 0.75496 0.26972 0.0
C401 C 0.75983 0.78885 0.29798 0.0
C402 C 0.74642 0.83028 0.23668 0.0
C403 C 0.75386 0.84162 0.29476 0.0
C404 C 0.75557 0.9173 0.20142 0.0
C405 C 0.74457 0.84812 0.146 0.0
N406 N 0.74832 0.86126 0.26456 0.0
N407 N 0.74132 0.82439 0.17639 0.0
H408 H 0.94358 0.67635 0.46224 0.0
H409 H 0.83273 0.66372 0.6452 0.0
H410 H 0.76537 0.65476 0.49052 0.0
H411 H 0.01533 0.69603 0.61729 0.0
H412 H 0.79511 0.6294 0.58924 0.0
H413 H 0.95875 0.65363 0.51872 0.0
C414 C 0.90707 0.66535 0.48015 0.0
C415 C 0.85408 0.66904 0.47206 0.0
C416 C 0.84297 0.64248 0.59557 0.0
C417 C 0.87094 0.6436 0.53639 0.0
C418 C 0.86411 0.6615 0.62757 0.0
C419 C 0.92734 0.68368 0.63549 0.0
C420 C 0.88568 0.64614 0.57164 0.0
C421 C -0.03357 0.68032 0.61181 0.0
C422 C 0.9157 0.65262 0.51238 0.0
C423 C 0.80785 0.65408 0.49606 0.0
N424 N 0.94537 0.66312 0.5808 0.0
N425 N 0.8178 0.64304 0.52722 0.0
H426 H 0.06901 0.78215 0.82512 0.0
H427 H 0.31989 0.0526 0.94046 0.0
H428 H 0.21282 0.9647 0.78927 0.0
H429 H 0.18189 0.866 0.9738 0.0
H430 H 0.29439 0.01641 0.8841 0.0
H431 H 0.12048 0.80755 0.87801 0.0
C432 C 0.11159 0.82787 0.82837 0.0
C433 C 0.13584 0.87207 0.80286 0.0
C434 C 0.27064 -0.01709 0.90365 0.0
C435 C 0.19552 0.90137 0.86386 0.0
C436 C 0.28541 0.00341 0.93586 0.0
C437 C 0.25247 0.96223 0.96178 0.0
C438 C 0.22191 0.92093 0.89729 0.0
C439 C 0.20848 0.89916 0.95454 0.0
C440 C 0.14128 0.84209 0.85864 0.0
C441 C 0.19213 0.92962 0.80837 0.0
N442 N 0.19356 0.88068 0.9229 0.0
N443 N 0.21961 0.94304 0.83849 0.0
loop_
_geom_bond_atom_site_label_1
_geom_bond_atom_site_label_2
_geom_bond_distance
_geom_bond_site_symmetry_2
_ccdc_geom_bond_type
Dy0 O4 2.398 1_545 S
Dy0 O5 2.491 1_545 S
Dy0 O6 2.403 . S
Dy0 O7 2.664 1_554 S
Dy0 O11 2.326 . S
Dy0 O15 2.310 . S
Dy0 O16 2.351 1_544 S
C1 O12 1.185 . S
C1 O13 1.355 . S
C2 O4 1.185 . S
C2 O5 1.355 . S
Dy3 O7 2.310 . S
Dy3 O10 2.351 1_556 S
Dy3 O12 2.398 . S
Dy3 O13 2.491 . S
Dy3 O14 2.403 . S
Dy3 O15 2.664 1_556 S
Dy3 O17 2.326 . S
O4 Dy0 2.398 1_565 S
O4 C2 1.185 . S
O5 Dy0 2.491 1_565 S
O5 C2 1.355 . S
O6 Dy0 2.403 . S
O6 C8 1.254 . S
O7 Dy0 2.664 1_556 S
O7 Dy3 2.310 . S
O7 C8 1.268 1_556 S
C8 O6 1.254 . S
C8 O7 1.268 1_554 S
C9 O14 1.236 1_554 S
C9 O15 1.278 . S
O10 Dy3 2.351 1_554 S
O10 C18 1.249 . S
O11 Dy0 2.326 . S
O11 C18 1.267 . S
O12 C1 1.185 . S
O12 Dy3 2.398 . S
O13 C1 1.355 . S
O13 Dy3 2.491 . S
O14 Dy3 2.403 . S
O14 C9 1.236 1_556 S
O15 Dy0 2.310 . S
O15 Dy3 2.664 1_554 S
O15 C9 1.278 . S
O16 Dy0 2.351 1_566 S
O16 C19 1.249 1_565 S
O17 Dy3 2.326 . S
O17 C19 1.267 . S
C18 O10 1.249 . S
C18 O11 1.267 . S
C19 O16 1.249 1_545 S
C19 O17 1.267 . S
Dy20 O24 2.398 . S
Dy20 O25 2.491 . S
Dy20 O26 2.403 . S
Dy20 O27 2.664 . S
Dy20 O31 2.326 . S
Dy20 O35 2.310 . S
Dy20 O36 2.351 . S
C21 O32 1.185 . S
C21 O33 1.355 . S
C22 O24 1.185 . S
C22 O25 1.355 . S
Dy23 O27 2.310 . S
Dy23 O30 2.351 . S
Dy23 O32 2.398 . S
Dy23 O33 2.491 . S
Dy23 O34 2.403 . S
Dy23 O35 2.664 . S
Dy23 O37 2.326 . S
O24 Dy20 2.398 . S
O24 C22 1.185 . S
O25 Dy20 2.491 . S
O25 C22 1.355 . S
O26 Dy20 2.403 . S
O26 C28 1.254 . S
O27 Dy20 2.664 . S
O27 Dy23 2.310 . S
O27 C28 1.268 . S
C28 O26 1.254 . S
C28 O27 1.268 . S
C29 O34 1.254 . S
C29 O35 1.268 . S
O30 Dy23 2.351 . S
O30 C38 1.249 . S
O31 Dy20 2.326 . S
O31 C38 1.267 . S
O32 C21 1.185 . S
O32 Dy23 2.398 . S
O33 C21 1.355 . S
O33 Dy23 2.491 . S
O34 Dy23 2.403 . S
O34 C29 1.254 . S
O35 Dy20 2.310 . S
O35 Dy23 2.664 . S
O35 C29 1.268 . S
O36 Dy20 2.351 . S
O36 C39 1.249 . S
O37 Dy23 2.326 . S
O37 C39 1.267 . S
C38 O30 1.249 . S
C38 O31 1.267 . S
C39 O36 1.249 . S
C39 O37 1.267 . S
Dy40 O44 2.398 . S
Dy40 O45 2.491 . S
Dy40 O46 2.403 . S
Dy40 O47 2.664 1_455 S
Dy40 O51 2.326 1_455 S
Dy40 O55 2.310 . S
Dy40 O56 2.351 . S
C41 O52 1.185 . S
C41 O53 1.355 . S
C42 O44 1.185 . S
C42 O45 1.355 . S
Dy43 O47 2.310 . S
Dy43 O50 2.351 . S
Dy43 O52 2.398 . S
Dy43 O53 2.491 . S
Dy43 O54 2.403 . S
Dy43 O55 2.664 1_655 S
Dy43 O57 2.326 1_655 S
O44 Dy40 2.398 . S
O44 C42 1.185 . S
O45 Dy40 2.491 . S
O45 C42 1.355 . S
O46 Dy40 2.403 . S
O46 C48 1.254 . S
O47 Dy40 2.664 1_655 S
O47 Dy43 2.310 . S
O47 C48 1.268 1_655 S
C48 O46 1.254 . S
C48 O47 1.268 1_455 S
C49 O54 1.254 . S
C49 O55 1.268 1_655 S
O50 Dy43 2.351 . S
O50 C58 1.249 . S
O51 Dy40 2.326 1_655 S
O51 C58 1.267 . S
O52 C41 1.185 . S
O52 Dy43 2.398 . S
O53 C41 1.355 . S
O53 Dy43 2.491 . S
O54 Dy43 2.403 . S
O54 C49 1.254 . S
O55 Dy40 2.310 . S
O55 Dy43 2.664 1_455 S
O55 C49 1.268 1_455 S
O56 Dy40 2.351 . S
O56 C59 1.249 . S
O57 Dy43 2.326 1_455 S
O57 C59 1.267 . S
C58 O50 1.249 . S
C58 O51 1.267 . S
C59 O56 1.249 . S
C59 O57 1.267 . S
Dy60 O64 2.398 . S
Dy60 O65 2.491 . S
Dy60 O66 2.403 . S
Dy60 O67 2.664 1_544 S
Dy60 O71 2.326 1_545 S
Dy60 O75 2.310 . S
Dy60 O76 2.351 1_554 S
C61 O72 1.185 . S
C61 O73 1.355 . S
C62 O64 1.185 . S
C62 O65 1.355 . S
Dy63 O67 2.310 . S
Dy63 O70 2.351 1_556 S
Dy63 O72 2.398 . S
Dy63 O73 2.491 . S
Dy63 O74 2.403 . S
Dy63 O75 2.664 1_566 S
Dy63 O77 2.326 1_565 S
O64 Dy60 2.398 . S
O64 C62 1.185 . S
O65 Dy60 2.491 . S
O65 C62 1.355 . S
O66 Dy60 2.403 . S
O66 C68 1.254 . S
O67 Dy60 2.664 1_566 S
O67 Dy63 2.310 . S
O67 C68 1.268 1_566 S
C68 O66 1.254 . S
C68 O67 1.268 1_544 S
C69 O74 1.236 1_554 S
C69 O75 1.278 1_565 S
O70 Dy63 2.351 1_554 S
O70 C78 1.249 . S
O71 Dy60 2.326 1_565 S
O71 C78 1.267 . S
O72 C61 1.185 . S
O72 Dy63 2.398 . S
O73 C61 1.355 . S
O73 Dy63 2.491 . S
O74 Dy63 2.403 . S
O74 C69 1.236 1_556 S
O75 Dy60 2.310 . S
O75 Dy63 2.664 1_544 S
O75 C69 1.278 1_545 S
O76 Dy60 2.351 1_556 S
O76 C79 1.249 . S
O77 Dy63 2.326 1_545 S
O77 C79 1.267 . S
C78 O70 1.249 . S
C78 O71 1.267 . S
C79 O76 1.249 . S
C79 O77 1.267 . S
Dy80 O84 2.398 . S
Dy80 O85 2.491 . S
Dy80 O86 2.403 . S
Dy80 O87 2.664 . S
Dy80 O91 2.326 . S
Dy80 O95 2.310 . S
Dy80 O96 2.351 . S
C81 O92 1.185 . S
C81 O93 1.355 . S
C82 O84 1.185 . S
C82 O85 1.355 . S
Dy83 O87 2.310 . S
Dy83 O90 2.351 . S
Dy83 O92 2.398 . S
Dy83 O93 2.491 . S
Dy83 O94 2.403 . S
Dy83 O95 2.664 . S
Dy83 O97 2.326 . S
O84 Dy80 2.398 . S
O84 C82 1.185 . S
O85 Dy80 2.491 . S
O85 C82 1.355 . S
O86 Dy80 2.403 . S
O86 C88 1.254 . S
O87 Dy80 2.664 . S
O87 Dy83 2.310 . S
O87 C88 1.268 . S
C88 O86 1.254 . S
C88 O87 1.268 . S
C89 O94 1.254 . S
C89 O95 1.268 . S
O90 Dy83 2.351 . S
O90 C98 1.249 . S
O91 Dy80 2.326 . S
O91 C98 1.267 . S
O92 C81 1.185 . S
O92 Dy83 2.398 . S
O93 C81 1.355 . S
O93 Dy83 2.491 . S
O94 Dy83 2.403 . S
O94 C89 1.254 . S
O95 Dy80 2.310 . S
O95 Dy83 2.664 . S
O95 C89 1.268 . S
O96 Dy80 2.351 . S
O96 C99 1.249 . S
O97 Dy83 2.326 . S
O97 C99 1.267 . S
C98 O90 1.249 . S
C98 O91 1.267 . S
C99 O96 1.249 . S
C99 O97 1.267 . S
Dy100 O104 2.398 1_455 S
Dy100 O105 2.491 1_455 S
Dy100 O106 2.403 . S
Dy100 O107 2.664 . S
Dy100 O111 2.326 . S
Dy100 O115 2.310 . S
Dy100 O116 2.351 1_455 S
C101 O112 1.185 . S
C101 O113 1.355 . S
C102 O104 1.185 . S
C102 O105 1.355 . S
Dy103 O107 2.310 . S
Dy103 O110 2.351 . S
Dy103 O112 2.398 . S
Dy103 O113 2.491 . S
Dy103 O114 2.403 . S
Dy103 O115 2.664 . S
Dy103 O117 2.326 . S
O104 Dy100 2.398 1_655 S
O104 C102 1.185 . S
O105 Dy100 2.491 1_655 S
O105 C102 1.355 . S
O106 Dy100 2.403 . S
O106 C108 1.254 . S
O107 Dy100 2.664 . S
O107 Dy103 2.310 . S
O107 C108 1.268 . S
C108 O106 1.254 . S
C108 O107 1.268 . S
C109 O114 1.254 . S
C109 O115 1.268 . S
O110 Dy103 2.351 . S
O110 C118 1.249 . S
O111 Dy100 2.326 . S
O111 C118 1.267 . S
O112 C101 1.185 . S
O112 Dy103 2.398 . S
O113 C101 1.355 . S
O113 Dy103 2.491 . S
O114 Dy103 2.403 . S
O114 C109 1.254 . S
O115 Dy100 2.310 . S
O115 Dy103 2.664 . S
O115 C109 1.268 . S
O116 Dy100 2.351 1_655 S
O116 C119 1.249 1_655 S
O117 Dy103 2.326 . S
O117 C119 1.267 . S
C118 O110 1.249 . S
C118 O111 1.267 . S
C119 O116 1.249 1_455 S
C119 O117 1.267 . S
H120 C126 0.930 . S
H121 C130 0.930 . S
H122 C135 0.929 . S
H123 C133 0.929 . S
H124 C128 0.929 . S
H125 C134 0.929 . S
C126 H120 0.930 . S
C126 C127 1.367 1_554 S
C126 C134 1.378 . S
C127 C126 1.367 1_556 S
C127 C135 1.433 1_565 S
C128 H124 0.929 . S
C128 C130 1.378 . S
C128 C132 1.350 . S
C129 C132 1.463 . S
C129 C134 1.350 1_446 S
C129 N137 1.427 1_455 S
C130 H121 0.930 . S
C130 C128 1.378 . S
C130 C131 1.367 . S
C131 C130 1.367 . S
C131 C133 1.433 1_556 S
C132 C128 1.350 . S
C132 C129 1.463 . S
C132 N136 1.427 1_556 S
C133 H123 0.929 . S
C133 C131 1.433 1_554 S
C133 N136 1.384 . S
C134 H125 0.929 . S
C134 C126 1.378 . S
C134 C129 1.350 1_664 S
C135 H122 0.929 . S
C135 C127 1.433 1_545 S
C135 N137 1.384 . S
N136 C132 1.427 1_554 S
N136 C133 1.384 . S
N137 C129 1.427 1_655 S
N137 C135 1.384 . S
H138 C144 0.930 . S
H139 C148 0.930 . S
H140 C153 0.929 . S
H141 C151 0.929 . S
H142 C146 0.929 . S
H143 C152 0.929 . S
C144 H138 0.930 . S
C144 C145 1.367 . S
C144 C152 1.378 1_655 S
C145 C144 1.367 . S
C145 C153 1.433 . S
C146 H142 0.929 . S
C146 C148 1.378 . S
C146 C150 1.350 . S
C147 C150 1.463 . S
C147 C152 1.350 1_545 S
C147 N155 1.427 1_445 S
C148 H139 0.930 . S
C148 C146 1.378 . S
C148 C149 1.367 . S
C149 C148 1.367 . S
C149 C151 1.433 . S
C150 C146 1.350 . S
C150 C147 1.463 . S
C150 N154 1.427 . S
C151 H141 0.929 . S
C151 C149 1.433 . S
C151 N154 1.384 . S
C152 H143 0.929 . S
C152 C144 1.378 1_455 S
C152 C147 1.350 1_565 S
C153 H140 0.929 . S
C153 C145 1.433 . S
C153 N155 1.384 . S
N154 C150 1.427 . S
N154 C151 1.384 . S
N155 C147 1.427 1_665 S
N155 C153 1.384 . S
H156 C162 0.930 . S
H157 C166 0.930 . S
H158 C171 0.929 . S
H159 C169 0.929 . S
H160 C164 0.929 1_565 S
H161 C170 0.929 . S
C162 H156 0.930 . S
C162 C163 1.367 1_545 S
C162 C170 1.378 . S
C163 C162 1.367 1_565 S
C163 C171 1.433 . S
C164 H160 0.929 1_545 S
C164 C166 1.378 . S
C164 C168 1.350 1_655 S
C165 C168 1.463 . S
C165 C170 1.350 . S
C165 N173 1.427 1_545 S
C166 H157 0.930 . S
C166 C164 1.378 . S
C166 C167 1.367 . S
C167 C166 1.367 . S
C167 C169 1.433 1_655 S
C168 C164 1.350 1_455 S
C168 C165 1.463 . S
C168 N172 1.427 . S
C169 H159 0.929 . S
C169 C167 1.433 1_455 S
C169 N172 1.384 . S
C170 H161 0.929 . S
C170 C162 1.378 . S
C170 C165 1.350 . S
C171 H158 0.929 . S
C171 C163 1.433 . S
C171 N173 1.384 . S
N172 C168 1.427 . S
N172 C169 1.384 . S
N173 C165 1.427 1_565 S
N173 C171 1.384 . S
H174 C180 0.930 . S
H175 C184 0.930 . S
H176 C189 0.929 . S
H177 C187 0.929 . S
H178 C182 0.929 . S
H179 C188 0.929 . S
C180 H174 0.930 . S
C180 C181 1.367 . S
C180 C188 1.378 . S
C181 C180 1.367 . S
C181 C189 1.433 . S
C182 H178 0.929 . S
C182 C184 1.378 . S
C182 C186 1.350 . S
C183 C186 1.463 . S
C183 C188 1.350 . S
C183 N191 1.427 . S
C184 H175 0.930 . S
C184 C182 1.378 . S
C184 C185 1.367 . S
C185 C184 1.367 . S
C185 C187 1.433 . S
C186 C182 1.350 . S
C186 C183 1.463 . S
C186 N190 1.427 . S
C187 H177 0.929 . S
C187 C185 1.433 . S
C187 N190 1.384 . S
C188 H179 0.929 . S
C188 C180 1.378 . S
C188 C183 1.350 . S
C189 H176 0.929 . S
C189 C181 1.433 . S
C189 N191 1.384 . S
N190 C186 1.427 . S
N190 C187 1.384 . S
N191 C183 1.427 . S
N191 C189 1.384 . S
H192 C198 0.930 . S
H193 C202 0.930 . S
H194 C207 0.929 . S
H195 C205 0.929 . S
H196 C200 0.929 . S
H197 C206 0.929 . S
C198 H192 0.930 . S
C198 C199 1.367 . S
C198 C206 1.378 . S
C199 C198 1.367 . S
C199 C207 1.433 . S
C200 H196 0.929 . S
C200 C202 1.378 . S
C200 C204 1.350 . S
C201 C204 1.463 1_455 S
C201 C206 1.350 . S
C201 N209 1.427 . S
C202 H193 0.930 . S
C202 C200 1.378 . S
C202 C203 1.367 . S
C203 C202 1.367 . S
C203 C205 1.433 . S
C204 C200 1.350 . S
C204 C201 1.463 1_655 S
C204 N208 1.427 . S
C205 H195 0.929 . S
C205 C203 1.433 . S
C205 N208 1.384 . S
C206 H197 0.929 . S
C206 C198 1.378 . S
C206 C201 1.350 . S
C207 H194 0.929 . S
C207 C199 1.433 . S
C207 N209 1.384 . S
N208 C204 1.427 . S
N208 C205 1.384 . S
N209 C201 1.427 . S
N209 C207 1.384 . S
H210 C216 0.930 . S
H211 C220 0.930 . S
H212 C225 0.929 . S
H213 C223 0.929 . S
H214 C218 0.929 . S
H215 C224 0.929 1_565 S
C216 H210 0.930 . S
C216 C217 1.367 . S
C216 C224 1.378 . S
C217 C216 1.367 . S
C217 C225 1.433 . S
C218 H214 0.929 . S
C218 C220 1.378 1_545 S
C218 C222 1.350 1_545 S
C219 C222 1.463 1_545 S
C219 C224 1.350 . S
C219 N227 1.427 . S
C220 H211 0.930 . S
C220 C218 1.378 1_565 S
C220 C221 1.367 . S
C221 C220 1.367 . S
C221 C223 1.433 . S
C222 C218 1.350 1_565 S
C222 C219 1.463 1_565 S
C222 N226 1.427 . S
C223 H213 0.929 . S
C223 C221 1.433 . S
C223 N226 1.384 . S
C224 H215 0.929 1_545 S
C224 C216 1.378 . S
C224 C219 1.350 . S
C225 H212 0.929 . S
C225 C217 1.433 . S
C225 N227 1.384 . S
N226 C222 1.427 . S
N226 C223 1.384 . S
N227 C219 1.427 . S
N227 C225 1.384 . S
H228 C234 0.930 . S
H229 C238 0.930 . S
H230 C243 0.929 . S
H231 C241 0.929 . S
H232 C236 0.929 . S
H233 C242 0.929 . S
C234 H228 0.930 . S
C234 C235 1.367 . S
C234 C242 1.378 . S
C235 C234 1.367 . S
C235 C243 1.433 . S
C236 H232 0.929 . S
C236 C238 1.378 . S
C236 C240 1.350 . S
C237 C240 1.463 . S
C237 C242 1.350 . S
C237 N245 1.427 . S
C238 H229 0.930 . S
C238 C236 1.378 . S
C238 C239 1.367 . S
C239 C238 1.367 . S
C239 C241 1.433 . S
C240 C236 1.350 . S
C240 C237 1.463 . S
C240 N244 1.427 . S
C241 H231 0.929 . S
C241 C239 1.433 . S
C241 N244 1.384 . S
C242 H233 0.929 . S
C242 C234 1.378 . S
C242 C237 1.350 . S
C243 H230 0.929 . S
C243 C235 1.433 . S
C243 N245 1.384 . S
N244 C240 1.427 . S
N244 C241 1.384 . S
N245 C237 1.427 . S
N245 C243 1.384 . S
H246 C252 0.930 . S
H247 C256 0.930 . S
H248 C261 0.930 1_655 S
H249 C259 0.929 1_545 S
H250 C254 0.929 . S
H251 C260 0.929 . S
C252 H246 0.930 . S
C252 C253 1.367 . S
C252 C260 1.378 1_655 S
C253 C252 1.367 . S
C253 C261 1.430 1_655 S
C254 H250 0.929 . S
C254 C256 1.378 . S
C254 C258 1.350 . S
C255 C258 1.463 . S
C255 C260 1.350 . S
C255 N263 1.427 . S
C256 H247 0.930 . S
C256 C254 1.378 . S
C256 C257 1.367 . S
C257 C256 1.367 . S
C257 C259 1.433 . S
C258 C254 1.350 . S
C258 C255 1.463 . S
C258 N262 1.427 . S
C259 H249 0.929 1_565 S
C259 C257 1.433 . S
C259 N262 1.384 . S
C260 H251 0.929 . S
C260 C252 1.378 1_455 S
C260 C255 1.350 . S
C261 H248 0.930 1_455 S
C261 C253 1.430 1_455 S
C261 N263 1.385 . S
N262 C258 1.427 . S
N262 C259 1.384 . S
N263 C255 1.427 . S
N263 C261 1.385 . S
H264 C270 0.930 . S
H265 C274 0.930 . S
H266 C279 0.929 . S
H267 C277 0.929 . S
H268 C272 0.929 . S
H269 C278 0.929 . S
C270 H264 0.930 . S
C270 C271 1.367 1_545 S
C270 C278 1.378 . S
C271 C270 1.367 1_565 S
C271 C279 1.433 . S
C272 H268 0.929 . S
C272 C274 1.378 . S
C272 C276 1.350 . S
C273 C276 1.463 . S
C273 C278 1.350 . S
C273 N281 1.427 1_545 S
C274 H265 0.930 . S
C274 C272 1.378 . S
C274 C275 1.367 . S
C275 C274 1.367 . S
C275 C277 1.433 . S
C276 C272 1.350 . S
C276 C273 1.463 . S
C276 N280 1.427 . S
C277 H267 0.929 . S
C277 C275 1.433 . S
C277 N280 1.384 . S
C278 H269 0.929 . S
C278 C270 1.378 . S
C278 C273 1.350 . S
C279 H266 0.929 . S
C279 C271 1.433 . S
C279 N281 1.384 . S
N280 C276 1.427 . S
N280 C277 1.384 . S
N281 C273 1.427 1_565 S
N281 C279 1.384 . S
H282 C288 0.930 . S
H283 C292 0.930 . S
H284 C297 0.929 . S
H285 C295 0.929 . S
H286 C290 0.929 . S
H287 C296 0.929 . S
C288 H282 0.930 . S
C288 C289 1.367 1_556 S
C288 C296 1.378 . S
C289 C288 1.367 1_554 S
C289 C297 1.433 . S
C290 H286 0.929 . S
C290 C292 1.378 1_545 S
C290 C294 1.350 . S
C291 C294 1.463 . S
C291 C296 1.350 1_554 S
C291 N299 1.427 . S
C292 H283 0.930 . S
C292 C290 1.378 1_565 S
C292 C293 1.367 . S
C293 C292 1.367 . S
C293 C295 1.433 1_564 S
C294 C290 1.350 . S
C294 C291 1.463 . S
C294 N298 1.427 1_554 S
C295 H285 0.929 . S
C295 C293 1.433 1_546 S
C295 N298 1.384 . S
C296 H287 0.929 . S
C296 C288 1.378 . S
C296 C291 1.350 1_556 S
C297 H284 0.929 . S
C297 C289 1.433 . S
C297 N299 1.384 . S
N298 C294 1.427 1_556 S
N298 C295 1.384 . S
N299 C291 1.427 . S
N299 C297 1.384 . S
H300 C306 0.930 . S
H301 C310 0.930 . S
H302 C315 0.929 . S
H303 C313 0.929 . S
H304 C308 0.929 . S
H305 C314 0.929 . S
C306 H300 0.930 . S
C306 C307 1.367 . S
C306 C314 1.378 . S
C307 C306 1.367 . S
C307 C315 1.433 . S
C308 H304 0.929 . S
C308 C310 1.378 . S
C308 C312 1.350 . S
C309 C312 1.463 . S
C309 C314 1.350 . S
C309 N317 1.427 . S
C310 H301 0.930 . S
C310 C308 1.378 . S
C310 C311 1.367 . S
C311 C310 1.367 . S
C311 C313 1.433 . S
C312 C308 1.350 . S
C312 C309 1.463 . S
C312 N316 1.427 . S
C313 H303 0.929 . S
C313 C311 1.433 . S
C313 N316 1.384 . S
C314 H305 0.929 . S
C314 C306 1.378 . S
C314 C309 1.350 . S
C315 H302 0.929 . S
C315 C307 1.433 . S
C315 N317 1.384 . S
N316 C312 1.427 . S
N316 C313 1.384 . S
N317 C309 1.427 . S
N317 C315 1.384 . S
H318 C324 0.930 . S
H319 C328 0.930 1_655 S
H320 C333 0.929 . S
H321 C331 0.929 . S
H322 C326 0.929 1_655 S
H323 C332 0.929 . S
C324 H318 0.930 . S
C324 C325 1.367 1_455 S
C324 C332 1.378 . S
C325 C324 1.367 1_655 S
C325 C333 1.433 . S
C326 H322 0.929 1_455 S
C326 C328 1.378 . S
C326 C330 1.350 . S
C327 C330 1.463 . S
C327 C332 1.350 . S
C327 N335 1.427 1_455 S
C328 H319 0.930 1_455 S
C328 C326 1.378 . S
C328 C329 1.367 . S
C329 C328 1.367 . S
C329 C331 1.433 . S
C330 C326 1.350 . S
C330 C327 1.463 . S
C330 N334 1.427 . S
C331 H321 0.929 . S
C331 C329 1.433 . S
C331 N334 1.384 . S
C332 H323 0.929 . S
C332 C324 1.378 . S
C332 C327 1.350 . S
C333 H320 0.929 . S
C333 C325 1.433 . S
C333 N335 1.384 . S
N334 C330 1.427 . S
N334 C331 1.384 . S
N335 C327 1.427 1_655 S
N335 C333 1.384 . S
H336 C342 0.930 . S
H337 C346 0.930 . S
H338 C351 0.929 . S
H339 C349 0.929 . S
H340 C344 0.929 . S
H341 C350 0.929 . S
C342 H336 0.930 . S
C342 C343 1.367 . S
C342 C350 1.378 . S
C343 C342 1.367 . S
C343 C351 1.433 . S
C344 H340 0.929 . S
C344 C346 1.378 . S
C344 C348 1.350 . S
C345 C348 1.463 . S
C345 C350 1.350 . S
C345 N353 1.427 . S
C346 H337 0.930 . S
C346 C344 1.378 . S
C346 C347 1.367 . S
C347 C346 1.367 . S
C347 C349 1.433 . S
C348 C344 1.350 . S
C348 C345 1.463 . S
C348 N352 1.427 . S
C349 H339 0.929 . S
C349 C347 1.433 . S
C349 N352 1.384 . S
C350 H341 0.929 . S
C350 C342 1.378 . S
C350 C345 1.350 . S
C351 H338 0.929 . S
C351 C343 1.433 . S
C351 N353 1.384 . S
N352 C348 1.427 . S
N352 C349 1.384 . S
N353 C345 1.427 . S
N353 C351 1.384 . S
H354 C360 0.930 . S
H355 C364 0.930 . S
H356 C369 0.929 . S
H357 C367 0.929 . S
H358 C362 0.929 . S
H359 C368 0.929 . S
C360 H354 0.930 . S
C360 C361 1.367 . S
C360 C368 1.378 . S
C361 C360 1.367 . S
C361 C369 1.433 . S
C362 H358 0.929 . S
C362 C364 1.378 . S
C362 C366 1.350 . S
C363 C366 1.463 . S
C363 C368 1.350 . S
C363 N371 1.427 . S
C364 H355 0.930 . S
C364 C362 1.378 . S
C364 C365 1.367 . S
C365 C364 1.367 . S
C365 C367 1.433 . S
C366 C362 1.350 . S
C366 C363 1.463 . S
C366 N370 1.427 . S
C367 H357 0.929 . S
C367 C365 1.433 . S
C367 N370 1.384 . S
C368 H359 0.929 . S
C368 C360 1.378 . S
C368 C363 1.350 . S
C369 H356 0.929 . S
C369 C361 1.433 . S
C369 N371 1.384 . S
N370 C366 1.427 . S
N370 C367 1.384 . S
N371 C363 1.427 . S
N371 C369 1.384 . S
H372 C378 0.930 . S
H373 C382 0.930 . S
H374 C387 0.929 . S
H375 C385 0.929 . S
H376 C380 0.929 . S
H377 C386 0.929 . S
C378 H372 0.930 . S
C378 C379 1.367 . S
C378 C386 1.378 . S
C379 C378 1.367 . S
C379 C387 1.433 . S
C380 H376 0.929 . S
C380 C382 1.378 . S
C380 C384 1.350 . S
C381 C384 1.463 . S
C381 C386 1.350 . S
C381 N389 1.427 . S
C382 H373 0.930 . S
C382 C380 1.378 . S
C382 C383 1.367 . S
C383 C382 1.367 . S
C383 C385 1.433 . S
C384 C380 1.350 . S
C384 C381 1.463 . S
C384 N388 1.427 . S
C385 H375 0.929 . S
C385 C383 1.433 . S
C385 N388 1.384 . S
C386 H377 0.929 . S
C386 C378 1.378 . S
C386 C381 1.350 . S
C387 H374 0.929 . S
C387 C379 1.433 . S
C387 N389 1.384 . S
N388 C384 1.427 . S
N388 C385 1.384 . S
N389 C381 1.427 . S
N389 C387 1.384 . S
H390 C396 0.930 . S
H391 C400 0.930 . S
H392 C405 0.929 . S
H393 C403 0.929 . S
H394 C398 0.929 . S
H395 C404 0.929 . S
C396 H390 0.930 . S
C396 C397 1.367 . S
C396 C404 1.378 . S
C397 C396 1.367 . S
C397 C405 1.433 . S
C398 H394 0.929 . S
C398 C400 1.378 . S
C398 C402 1.350 . S
C399 C402 1.463 . S
C399 C404 1.350 . S
C399 N407 1.427 . S
C400 H391 0.930 . S
C400 C398 1.378 . S
C400 C401 1.367 . S
C401 C400 1.367 . S
C401 C403 1.433 . S
C402 C398 1.350 . S
C402 C399 1.463 . S
C402 N406 1.427 . S
C403 H393 0.929 . S
C403 C401 1.433 . S
C403 N406 1.384 . S
C404 H395 0.929 . S
C404 C396 1.378 . S
C404 C399 1.350 . S
C405 H392 0.929 . S
C405 C397 1.433 . S
C405 N407 1.384 . S
N406 C402 1.427 . S
N406 C403 1.384 . S
N407 C399 1.427 . S
N407 C405 1.384 . S
H408 C414 0.930 . S
H409 C418 0.930 . S
H410 C423 0.929 . S
H411 C421 0.929 . S
H412 C416 0.929 . S
H413 C422 0.929 . S
C414 H408 0.930 . S
C414 C415 1.367 . S
C414 C422 1.378 . S
C415 C414 1.367 . S
C415 C423 1.433 . S
C416 H412 0.929 . S
C416 C418 1.378 . S
C416 C420 1.350 . S
C417 C420 1.463 . S
C417 C422 1.350 . S
C417 N425 1.427 . S
C418 H409 0.930 . S
C418 C416 1.378 . S
C418 C419 1.367 . S
C419 C418 1.367 . S
C419 C421 1.433 . S
C420 C416 1.350 . S
C420 C417 1.463 . S
C420 N424 1.427 . S
C421 H411 0.929 . S
C421 C419 1.433 . S
C421 N424 1.384 . S
C422 H413 0.929 . S
C422 C414 1.378 . S
C422 C417 1.350 . S
C423 H410 0.929 . S
C423 C415 1.433 . S
C423 N425 1.384 . S
N424 C420 1.427 . S
N424 C421 1.384 . S
N425 C417 1.427 . S
N425 C423 1.384 . S
H426 C432 0.930 . S
H427 C436 0.930 . S
H428 C441 0.929 1_545 S
H429 C439 0.929 . S
H430 C434 0.929 . S
H431 C440 0.929 . S
C432 H426 0.930 . S
C432 C433 1.367 . S
C432 C440 1.378 . S
C433 C432 1.367 . S
C433 C441 1.433 . S
C434 H430 0.929 . S
C434 C436 1.378 . S
C434 C438 1.350 1_545 S
C435 C438 1.463 . S
C435 C440 1.350 . S
C435 N443 1.427 . S
C436 H427 0.930 . S
C436 C434 1.378 . S
C436 C437 1.367 1_545 S
C437 C436 1.367 1_565 S
C437 C439 1.433 . S
C438 C434 1.350 1_565 S
C438 C435 1.463 . S
C438 N442 1.427 . S
C439 H429 0.929 . S
C439 C437 1.433 . S
C439 N442 1.384 . S
C440 H431 0.929 . S
C440 C432 1.378 . S
C440 C435 1.350 . S
C441 H428 0.929 1_565 S
C441 C433 1.433 . S
C441 N443 1.384 . S
N442 C438 1.427 . S
N442 C439 1.384 . S
N443 C435 1.427 . S
N443 C441 1.384 . S
C127 C68 1.308 1_566 S
C131 C8 1.310 1_556 S
C145 C88 1.300 . S
C149 C28 1.307 . S
C163 C108 1.308 . S
C167 C48 1.312 1_655 S
C181 C1 1.407 . S
C185 C42 1.375 . S
C199 C21 1.421 . S
C203 C62 1.385 . S
C217 C41 1.408 . S
C221 C82 1.367 . S
C235 C61 1.421 . S
C239 C102 1.386 . S
C253 C81 1.411 . S
C257 C2 1.382 . S
C271 C101 1.409 . S
C275 C22 1.368 . S
C289 C9 1.117 . S
C293 C69 1.127 . S
C307 C29 1.113 . S
C311 C89 1.120 . S
C325 C49 1.122 . S
C329 C109 1.119 . S
C343 C18 1.870 . S
C347 C39 1.906 . S
C361 C38 1.870 . S
C365 C59 1.905 . S
C379 C58 1.872 . S
C383 C79 1.904 . S
C397 C78 1.868 . S
C401 C99 1.900 . S
C415 C98 1.872 . S
C419 C119 1.904 1_655 S
C433 C118 1.871 . S
C437 C19 1.901 1_565 S
