# Generated by pormake.
# Topology mon, (4)-cn, num edge types: 1
# Building blocks:
#     Node 0, Type 0, BuildingBlock: TATPOV_clean_sbu_0, # of connection points: 4
#     Node 1, Type 0, BuildingBlock: TATPOV_clean_sbu_0, # of connection points: 4
#     Node 2, Type 0, BuildingBlock: TATPOV_clean_sbu_0, # of connection points: 4
#     Node 3, Type 0, BuildingBlock: TATPOV_clean_sbu_0, # of connection points: 4
#     Node 4, Type 0, BuildingBlock: TATPOV_clean_sbu_0, # of connection points: 4
#     Node 5, Type 0, BuildingBlock: TATPOV_clean_sbu_0, # of connection points: 4
#     Node 6, Type 0, BuildingBlock: TATPOV_clean_sbu_0, # of connection points: 4
#     Node 7, Type 0, BuildingBlock: TATPOV_clean_sbu_0, # of connection points: 4
#     Node 8, Type 0, BuildingBlock: TATPOV_clean_sbu_0, # of connection points: 4
#     Node 9, Type 0, BuildingBlock: TATPOV_clean_sbu_0, # of connection points: 4
#     Node 10, Type 0, BuildingBlock: TATPOV_clean_sbu_0, # of connection points: 4
#     Node 11, Type 0, BuildingBlock: TATPOV_clean_sbu_0, # of connection points: 4
#     Node 12, Type 0, BuildingBlock: TATPOV_clean_sbu_0, # of connection points: 4
#     Node 13, Type 0, BuildingBlock: TATPOV_clean_sbu_0, # of connection points: 4
#     Node 14, Type 0, BuildingBlock: TATPOV_clean_sbu_0, # of connection points: 4
#     Node 15, Type 0, BuildingBlock: TATPOV_clean_sbu_0, # of connection points: 4
#     Edge 16, Type (0, 0), BuildingBlock: MIFKUJ_clean_linker_0, # of connection points: 2
#     Edge 17, Type (0, 0), BuildingBlock: MIFKUJ_clean_linker_0, # of connection points: 2
#     Edge 18, Type (0, 0), BuildingBlock: MIFKUJ_clean_linker_0, # of connection points: 2
#     Edge 19, Type (0, 0), BuildingBlock: MIFKUJ_clean_linker_0, # of connection points: 2
#     Edge 20, Type (0, 0), BuildingBlock: MIFKUJ_clean_linker_0, # of connection points: 2
#     Edge 21, Type (0, 0), BuildingBlock: MIFKUJ_clean_linker_0, # of connection points: 2
#     Edge 22, Type (0, 0), BuildingBlock: MIFKUJ_clean_linker_0, # of connection points: 2
#     Edge 23, Type (0, 0), BuildingBlock: MIFKUJ_clean_linker_0, # of connection points: 2
#     Edge 24, Type (0, 0), BuildingBlock: MIFKUJ_clean_linker_0, # of connection points: 2
#     Edge 25, Type (0, 0), BuildingBlock: MIFKUJ_clean_linker_0, # of connection points: 2
#     Edge 26, Type (0, 0), BuildingBlock: MIFKUJ_clean_linker_0, # of connection points: 2
#     Edge 27, Type (0, 0), BuildingBlock: MIFKUJ_clean_linker_0, # of connection points: 2
#     Edge 28, Type (0, 0), BuildingBlock: MIFKUJ_clean_linker_0, # of connection points: 2
#     Edge 29, Type (0, 0), BuildingBlock: MIFKUJ_clean_linker_0, # of connection points: 2
#     Edge 30, Type (0, 0), BuildingBlock: MIFKUJ_clean_linker_0, # of connection points: 2
#     Edge 31, Type (0, 0), BuildingBlock: MIFKUJ_clean_linker_0, # of connection points: 2
#     Edge 32, Type (0, 0), BuildingBlock: MIFKUJ_clean_linker_0, # of connection points: 2
#     Edge 33, Type (0, 0), BuildingBlock: MIFKUJ_clean_linker_0, # of connection points: 2
#     Edge 34, Type (0, 0), BuildingBlock: MIFKUJ_clean_linker_0, # of connection points: 2
#     Edge 35, Type (0, 0), BuildingBlock: MIFKUJ_clean_linker_0, # of connection points: 2
#     Edge 36, Type (0, 0), BuildingBlock: MIFKUJ_clean_linker_0, # of connection points: 2
#     Edge 37, Type (0, 0), BuildingBlock: MIFKUJ_clean_linker_0, # of connection points: 2
#     Edge 38, Type (0, 0), BuildingBlock: MIFKUJ_clean_linker_0, # of connection points: 2
#     Edge 39, Type (0, 0), BuildingBlock: MIFKUJ_clean_linker_0, # of connection points: 2
#     Edge 40, Type (0, 0), BuildingBlock: MIFKUJ_clean_linker_0, # of connection points: 2
#     Edge 41, Type (0, 0), BuildingBlock: MIFKUJ_clean_linker_0, # of connection points: 2
#     Edge 42, Type (0, 0), BuildingBlock: MIFKUJ_clean_linker_0, # of connection points: 2
#     Edge 43, Type (0, 0), BuildingBlock: MIFKUJ_clean_linker_0, # of connection points: 2
#     Edge 44, Type (0, 0), BuildingBlock: MIFKUJ_clean_linker_0, # of connection points: 2
#     Edge 45, Type (0, 0), BuildingBlock: MIFKUJ_clean_linker_0, # of connection points: 2
#     Edge 46, Type (0, 0), BuildingBlock: MIFKUJ_clean_linker_0, # of connection points: 2
#     Edge 47, Type (0, 0), BuildingBlock: MIFKUJ_clean_linker_0, # of connection points: 2
# Relax obj value: 0.114
# Max RMSD: 0.119
# Mean RMSD: 0.119
data_MOF--net-mon--node1-TATPOV_clean_sbu_0--edge1-MIFKUJ_clean_linker_0
_symmetry_space_group_name_H-M    P1
_symmetry_Int_Tables_number       1
_symmetry_cell_setting            triclinic
loop_
_symmetry_equiv_pos_as_xyz
'x, y, z'
_cell_length_a     43.455878
_cell_length_b     43.443074
_cell_length_c     109.6512
_cell_angle_alpha  89.935478
_cell_angle_beta   90.049429
_cell_angle_gamma 90.010753
loop_
_atom_site_label
_atom_site_type_symbol
_atom_site_fract_x
_atom_site_fract_y
_atom_site_fract_z
_atom_type_partial_charge
Zn0 Zn 0.006 0.9624 0.59351 0.0
Zn1 Zn 0.01639 0.02315 0.59302 0.0
O2 O 0.05403 0.0068 0.60268 0.0
O3 O 0.04416 0.95707 0.60346 0.0
O4 O 0.02266 0.06893 0.59244 0.0
O5 O 0.00811 0.96113 0.57511 0.0
O6 O 0.01696 0.01103 0.57498 0.0
C7 C 0.06121 0.9797 0.60613 0.0
C8 C 0.95722 0.9966 0.60431 0.0
O9 O 0.97364 0.0196 0.60122 0.0
O10 O 0.96615 0.96945 0.60217 0.0
C11 C 0.02559 0.08442 0.60219 0.0
O12 O 0.02548 0.06995 0.61272 0.0
C13 C 0.01339 0.98575 0.56927 0.0
Zn14 Zn 0.30309 0.75763 0.84598 0.0
Zn15 Zn 0.24138 0.75655 0.84365 0.0
O16 O 0.24948 0.79835 0.85185 0.0
O17 O 0.29969 0.79812 0.85473 0.0
O18 O 0.19554 0.75574 0.84249 0.0
O19 O 0.30621 0.75588 0.82746 0.0
O20 O 0.25568 0.75428 0.82603 0.0
C21 C 0.2738 0.81114 0.85584 0.0
C22 C 0.27514 0.70534 0.85756 0.0
O23 O 0.25044 0.71712 0.85341 0.0
O24 O 0.30075 0.71848 0.85574 0.0
C25 C 0.18038 0.75826 0.85233 0.0
O26 O 0.19534 0.76135 0.86267 0.0
C27 C 0.28207 0.7543 0.821 0.0
Zn28 Zn 0.54936 0.02764 0.07946 0.0
Zn29 Zn 0.53795 0.96938 0.08378 0.0
O30 O 0.50163 0.99074 0.0926 0.0
O31 O 0.51601 0.03924 0.0913 0.0
O32 O 0.53121 0.92381 0.08606 0.0
O33 O 0.53977 0.02327 0.06175 0.0
O34 O 0.53686 0.97339 0.065 0.0
C35 C 0.49742 0.01905 0.09518 0.0
C36 C 0.60028 0.99778 0.09046 0.0
O37 O 0.58085 0.97601 0.09163 0.0
O38 O 0.59303 0.02223 0.0849 0.0
C39 C 0.517 0.9112 0.09487 0.0
O40 O 0.50488 0.92851 0.10343 0.0
C41 C 0.53673 0.99622 0.05768 0.0
Zn42 Zn 0.23527 0.26085 0.32988 0.0
Zn43 Zn 0.29423 0.25179 0.33302 0.0
O44 O 0.27498 0.21604 0.34299 0.0
O45 O 0.22586 0.22818 0.3422 0.0
O46 O 0.34 0.24631 0.33496 0.0
O47 O 0.23788 0.24959 0.31227 0.0
O48 O 0.28819 0.24751 0.31441 0.0
C49 C 0.24715 0.2108 0.34604 0.0
C50 C 0.26454 0.31416 0.33914 0.0
O51 O 0.28741 0.29585 0.33977 0.0
O52 O 0.23928 0.305 0.33471 0.0
C53 C 0.35259 0.24 0.34513 0.0
O54 O 0.33521 0.23613 0.35481 0.0
C55 C 0.26431 0.24605 0.30767 0.0
Zn56 Zn 0.001 0.03521 0.4172 0.0
Zn57 Zn 0.00432 0.97482 0.41339 0.0
O58 O 0.04036 0.99189 0.40308 0.0
O59 O 0.03448 0.04206 0.40492 0.0
O60 O 0.0073 0.92903 0.41083 0.0
O61 O 0.01128 0.02903 0.43492 0.0
O62 O 0.01066 0.97896 0.43189 0.0
C63 C 0.04859 0.01925 0.40043 0.0
C64 C 0.94471 0.01057 0.40787 0.0
O65 O 0.96021 0.98566 0.40758 0.0
O66 O 0.95695 0.035 0.41186 0.0
C67 C 0.99415 0.91519 0.40205 0.0
O68 O 0.97793 0.93117 0.39415 0.0
C69 C 0.01348 0.00189 0.43904 0.0
Zn70 Zn 0.23709 0.71994 0.66902 0.0
Zn71 Zn 0.29709 0.72821 0.66506 0.0
O72 O 0.27822 0.76582 0.6565 0.0
O73 O 0.22859 0.75634 0.658 0.0
O74 O 0.34239 0.73379 0.66253 0.0
O75 O 0.24337 0.72609 0.687 0.0
O76 O 0.29326 0.72887 0.68376 0.0
C77 C 0.25044 0.77305 0.65416 0.0
C78 C 0.26516 0.66868 0.65713 0.0
O79 O 0.28853 0.68633 0.65687 0.0
O80 O 0.24046 0.67715 0.66221 0.0
C81 C 0.35368 0.73978 0.65211 0.0
O82 O 0.33518 0.7425 0.64268 0.0
C83 C 0.27051 0.72854 0.69108 0.0
Zn84 Zn 0.52557 0.96185 0.90312 0.0
Zn85 Zn 0.52276 0.02323 0.90436 0.0
O86 O 0.48011 0.01176 0.89753 0.0
O87 O 0.48132 0.96112 0.89789 0.0
O88 O 0.52073 0.06918 0.905 0.0
O89 O 0.53492 0.96027 0.92118 0.0
O90 O 0.52891 0.01054 0.92215 0.0
C91 C 0.46685 0.98594 0.89595 0.0
C92 C 0.57175 0.99164 0.8887 0.0
O93 O 0.56064 0.01575 0.89358 0.0
O94 O 0.5598 0.96558 0.89079 0.0
C95 C 0.51455 0.08356 0.89521 0.0
O96 O 0.50977 0.0678 0.88517 0.0
C97 C 0.53393 0.98483 0.92738 0.0
Zn98 Zn 0.29815 0.28112 0.15473 0.0
Zn99 Zn 0.23973 0.26445 0.15267 0.0
O100 O 0.26142 0.22961 0.14314 0.0
O101 O 0.30914 0.24665 0.1433 0.0
O102 O 0.19444 0.25459 0.15213 0.0
O103 O 0.2982 0.27315 0.17267 0.0
O104 O 0.24883 0.26258 0.17112 0.0
C105 C 0.28956 0.22665 0.14006 0.0
C106 C 0.26164 0.3287 0.14459 0.0
O107 O 0.24098 0.3079 0.14483 0.0
O108 O 0.28828 0.32343 0.14871 0.0
C109 C 0.17989 0.24777 0.14244 0.0
O110 O 0.19501 0.24563 0.1321 0.0
C111 C 0.27298 0.26581 0.17762 0.0
Zn112 Zn 0.73082 0.23583 0.16386 0.0
Zn113 Zn 0.79021 0.24554 0.16003 0.0
O114 O 0.77038 0.27927 0.14928 0.0
O115 O 0.72135 0.2667 0.15069 0.0
O116 O 0.83594 0.25066 0.15765 0.0
O117 O 0.73479 0.24931 0.18125 0.0
O118 O 0.78481 0.25282 0.17847 0.0
C119 C 0.74237 0.28348 0.14624 0.0
C120 C 0.76055 0.18204 0.15532 0.0
O121 O 0.78305 0.20069 0.15428 0.0
O122 O 0.73533 0.19114 0.1598 0.0
C123 C 0.84892 0.24251 0.14777 0.0
O124 O 0.83192 0.23179 0.13882 0.0
C125 C 0.76143 0.25439 0.18546 0.0
Zn126 Zn 0.80171 0.76949 0.66422 0.0
Zn127 Zn 0.74152 0.76257 0.66067 0.0
O128 O 0.75903 0.72191 0.65376 0.0
O129 O 0.80834 0.72672 0.65797 0.0
O130 O 0.69598 0.758 0.65849 0.0
O131 O 0.79474 0.77534 0.68223 0.0
O132 O 0.7455 0.76626 0.67925 0.0
C133 C 0.78623 0.7109 0.65381 0.0
C134 C 0.77649 0.81582 0.64861 0.0
O135 O 0.75124 0.80249 0.65121 0.0
O136 O 0.80172 0.80542 0.65265 0.0
C137 C 0.6827 0.76171 0.64827 0.0
O138 O 0.69928 0.76829 0.6386 0.0
C139 C 0.76787 0.77171 0.68644 0.0
Zn140 Zn 0.80395 0.22663 0.33765 0.0
Zn141 Zn 0.74408 0.23233 0.33927 0.0
O142 O 0.75987 0.26753 0.35036 0.0
O143 O 0.8096 0.2579 0.35086 0.0
O144 O 0.69795 0.23609 0.34022 0.0
O145 O 0.80346 0.23999 0.32017 0.0
O146 O 0.75288 0.24016 0.32106 0.0
C147 C 0.78674 0.27363 0.35434 0.0
C148 C 0.7761 0.17072 0.3451 0.0
O149 O 0.75203 0.18752 0.3452 0.0
O150 O 0.80153 0.18199 0.34171 0.0
C151 C 0.68321 0.22837 0.34975 0.0
O152 O 0.6985 0.2181 0.35927 0.0
C153 C 0.77767 0.24348 0.31499 0.0
Zn154 Zn 0.72823 0.75356 0.84131 0.0
Zn155 Zn 0.79006 0.75231 0.84001 0.0
O156 O 0.77973 0.71204 0.84902 0.0
O157 O 0.72922 0.71357 0.85053 0.0
O158 O 0.83599 0.75146 0.83961 0.0
O159 O 0.72711 0.75391 0.82274 0.0
O160 O 0.77774 0.75241 0.82212 0.0
C161 C 0.75454 0.70011 0.85259 0.0
C162 C 0.75665 0.80616 0.85232 0.0
O163 O 0.78126 0.79346 0.84857 0.0
O164 O 0.73084 0.79332 0.85065 0.0
C165 C 0.85022 0.75366 0.84969 0.0
O166 O 0.83431 0.75625 0.85982 0.0
C167 C 0.7519 0.75325 0.81666 0.0
Zn168 Zn 0.48738 0.46721 0.06993 0.0
Zn169 Zn 0.49823 0.52478 0.07612 0.0
O170 O 0.53355 0.50131 0.0849 0.0
O171 O 0.52215 0.45321 0.08055 0.0
O172 O 0.50555 0.56937 0.08041 0.0
O173 O 0.49518 0.47651 0.05241 0.0
O174 O 0.50181 0.52516 0.05729 0.0
C175 C 0.53935 0.4726 0.08582 0.0
C176 C 0.43568 0.4939 0.08157 0.0
O177 O 0.45408 0.51663 0.08259 0.0
O178 O 0.44437 0.4696 0.07625 0.0
C179 C 0.49467 0.5818 0.08998 0.0
O180 O 0.47877 0.56493 0.09768 0.0
C181 C 0.50044 0.50402 0.04925 0.0
Zn182 Zn 0.01661 0.53575 0.5845 0.0
Zn183 Zn 0.01337 0.47462 0.58556 0.0
O184 O 0.97553 0.48763 0.59556 0.0
O185 O 0.98249 0.53778 0.59693 0.0
O186 O 0.01242 0.42841 0.58632 0.0
O187 O 0.00702 0.53464 0.56657 0.0
O188 O 0.00959 0.48406 0.56728 0.0
C189 C 0.96746 0.51379 0.59968 0.0
C190 C 0.07193 0.50904 0.59348 0.0
O191 O 0.05585 0.48453 0.59306 0.0
O192 O 0.0608 0.53429 0.58978 0.0
C193 C 0.01657 0.41509 0.59651 0.0
O194 O 0.02066 0.43196 0.60632 0.0
C195 C 0.00646 0.50888 0.56119 0.0
Zn196 Zn 0.51718 0.53705 0.89455 0.0
Zn197 Zn 0.51573 0.47575 0.8977 0.0
O198 O 0.55609 0.48249 0.8882 0.0
O199 O 0.55604 0.53251 0.88489 0.0
O200 O 0.51465 0.42997 0.89964 0.0
O201 O 0.51867 0.54217 0.91297 0.0
O202 O 0.51709 0.49179 0.91514 0.0
C203 C 0.56853 0.50639 0.88363 0.0
C204 C 0.46264 0.50932 0.88483 0.0
O205 O 0.47456 0.48475 0.88905 0.0
O206 O 0.47662 0.53475 0.88584 0.0
C207 C 0.50998 0.41371 0.8902 0.0
O208 O 0.50604 0.42749 0.87964 0.0
C209 C 0.51823 0.51861 0.9198 0.0
Zn210 Zn 0.04969 0.46571 0.40911 0.0
Zn211 Zn 0.0366 0.52493 0.40564 0.0
O212 O 0.00133 0.50277 0.3966 0.0
O213 O 0.01517 0.45414 0.3978 0.0
O214 O 0.02649 0.57008 0.40334 0.0
O215 O 0.04082 0.4698 0.42689 0.0
O216 O 0.03355 0.51953 0.42429 0.0
C217 C 0.99648 0.47451 0.39413 0.0
C218 C 0.10001 0.49784 0.39883 0.0
O219 O 0.08059 0.51978 0.3985 0.0
O220 O 0.09278 0.47202 0.4033 0.0
C221 C 0.04292 0.5889 0.39729 0.0
O222 O 0.06803 0.57904 0.3919 0.0
C223 C 0.03496 0.49607 0.43127 0.0
H224 H 0.03328 0.12441 0.62121 0.0
H225 H 0.03347 0.18064 0.62044 0.0
H226 H 0.0212 0.17761 0.58141 0.0
H227 H 0.02159 0.12141 0.58206 0.0
H228 H 0.06227 0.22061 0.5875 0.0
H229 H 0.96061 0.19207 0.60054 0.0
H230 H 0.92233 0.16602 0.61355 0.0
H231 H 0.95534 0.21572 0.64476 0.0
H232 H 0.99412 0.24177 0.63196 0.0
H233 H 0.01067 0.37357 0.5779 0.0
H234 H 0.01371 0.31749 0.57918 0.0
H235 H 0.02847 0.32355 0.61801 0.0
H236 H 0.02511 0.37965 0.61685 0.0
H237 H 0.98715 0.27923 0.61239 0.0
H238 H 0.08805 0.30887 0.59902 0.0
H239 H 0.12577 0.33505 0.5858 0.0
H240 H 0.09353 0.28342 0.55496 0.0
H241 H 0.05531 0.25722 0.56797 0.0
C242 C 0.03078 0.13569 0.61245 0.0
C243 C 0.02724 0.11842 0.6017 0.0
C244 C 0.03076 0.16785 0.61204 0.0
C245 C 0.02688 0.18333 0.60089 0.0
C246 C 0.02416 0.16615 0.59012 0.0
C247 C 0.02431 0.13401 0.59051 0.0
C248 C 0.02517 0.21742 0.60046 0.0
C249 C 0.04561 0.23341 0.59284 0.0
C250 C 0.00385 0.23416 0.60761 0.0
C251 C 0.98047 0.21863 0.61531 0.0
C252 C 0.95986 0.19726 0.61019 0.0
C253 C 0.93805 0.18253 0.61753 0.0
C254 C 0.93646 0.18915 0.62998 0.0
C255 C 0.95663 0.21058 0.63512 0.0
C256 C 0.97851 0.22536 0.62783 0.0
C257 C 0.01452 0.363 0.58672 0.0
C258 C 0.01775 0.3811 0.59728 0.0
C259 C 0.0164 0.33094 0.58742 0.0
C260 C 0.0217 0.31638 0.59867 0.0
C261 C 0.02444 0.33434 0.60924 0.0
C262 C 0.02258 0.3664 0.60855 0.0
C263 C 0.02419 0.28239 0.59941 0.0
C264 C 0.00387 0.26643 0.60708 0.0
C265 C 0.04555 0.26568 0.59228 0.0
C266 C 0.06862 0.2813 0.58445 0.0
C267 C 0.08884 0.30327 0.5894 0.0
C268 C 0.11035 0.31808 0.58195 0.0
C269 C 0.112 0.31096 0.56954 0.0
C270 C 0.0922 0.28894 0.56457 0.0
C271 C 0.07063 0.27408 0.57198 0.0
H272 H 0.12866 0.32245 0.56379 0.0
H273 H 0.91956 0.17771 0.63564 0.0
H274 H 0.88749 0.76123 0.86952 0.0
H275 H 0.9437 0.76177 0.86997 0.0
H276 H 0.94598 0.74678 0.8311 0.0
H277 H 0.88975 0.74596 0.83056 0.0
H278 H 0.98671 0.70998 0.84324 0.0
H279 H 0.95956 0.81703 0.84216 0.0
H280 H 0.93279 0.86401 0.84895 0.0
H281 H 0.97655 0.85725 0.88397 0.0
H282 H 0.00326 0.80994 0.87745 0.0
H283 H 0.14269 0.74963 0.83266 0.0
H284 H 0.08649 0.74834 0.83246 0.0
H285 H 0.08504 0.76384 0.87131 0.0
H286 H 0.14127 0.76544 0.8716 0.0
H287 H 0.04388 0.80017 0.85931 0.0
H288 H 0.07135 0.69329 0.86034 0.0
H289 H 0.09815 0.64634 0.85353 0.0
H290 H 0.05384 0.65277 0.81861 0.0
H291 H 0.02709 0.70004 0.82515 0.0
C292 C 0.89993 0.75802 0.86107 0.0
C293 C 0.88418 0.75366 0.85 0.0
C294 C 0.93203 0.75844 0.86134 0.0
C295 C 0.94892 0.75462 0.85054 0.0
C296 C 0.93331 0.74982 0.83951 0.0
C297 C 0.9012 0.74945 0.83923 0.0
C298 C 0.98292 0.7556 0.85077 0.0
C299 C -0.00075 0.72984 0.84661 0.0
C300 C -0.00086 0.78127 0.85542 0.0
C301 C 0.98317 0.80976 0.85936 0.0
C302 C 0.96328 0.82541 0.85135 0.0
C303 C 0.94815 0.85213 0.85514 0.0
C304 C 0.9529 0.86356 0.86689 0.0
C305 C 0.97285 0.84834 0.87487 0.0
C306 C 0.98801 0.82158 0.87113 0.0
C307 C 0.13044 0.75276 0.84117 0.0
C308 C 0.14642 0.75755 0.85216 0.0
C309 C 0.09834 0.7519 0.84104 0.0
C310 C 0.08169 0.75569 0.85189 0.0
C311 C 0.09753 0.76082 0.86284 0.0
C312 C 0.12964 0.76164 0.86299 0.0
C313 C 0.04769 0.75455 0.85178 0.0
C314 C 0.03135 0.78029 0.85596 0.0
C315 C 0.03146 0.72886 0.84714 0.0
C316 C 0.04745 0.70038 0.84319 0.0
C317 C 0.06751 0.68484 0.85117 0.0
C318 C 0.08266 0.65814 0.84737 0.0
C319 C 0.07776 0.64663 0.83563 0.0
C320 C 0.05764 0.66174 0.82769 0.0
C321 C 0.04246 0.68848 0.83144 0.0
H322 H 0.08951 0.62595 0.83271 0.0
H323 H 0.94117 0.88426 0.86981 0.0
H324 H 0.52915 0.6224 0.0767 0.0
H325 H 0.53343 0.67798 0.07953 0.0
H326 H 0.47308 0.67276 0.11067 0.0
H327 H 0.46851 0.61704 0.10787 0.0
H328 H 0.45663 0.71894 0.09517 0.0
H329 H 0.54829 0.68523 0.115 0.0
H330 H 0.59699 0.65671 0.11729 0.0
H331 H 0.63522 0.70561 0.08681 0.0
H332 H 0.58656 0.73414 0.08422 0.0
H333 H 0.48481 0.87624 0.11135 0.0
H334 H 0.48125 0.82 0.1122 0.0
H335 H 0.54014 0.81317 0.08068 0.0
H336 H 0.54396 0.86917 0.07978 0.0
H337 H 0.55695 0.77284 0.09855 0.0
H338 H 0.46384 0.8034 0.07785 0.0
H339 H 0.415 0.83169 0.07549 0.0
H340 H 0.37957 0.78846 0.10779 0.0
H341 H 0.4284 0.7602 0.11043 0.0
C342 C 0.51692 0.633 0.08421 0.0
C343 C 0.49849 0.61526 0.09207 0.0
C344 C 0.5195 0.66477 0.08584 0.0
C345 C 0.50377 0.67947 0.09538 0.0
C346 C 0.48545 0.66185 0.10327 0.0
C347 C 0.48296 0.63001 0.10168 0.0
C348 C 0.50573 0.71338 0.09679 0.0
C349 C 0.47852 0.73071 0.09614 0.0
C350 C 0.53433 0.72873 0.09784 0.0
C351 C 0.56366 0.71164 0.09936 0.0
C352 C 0.56698 0.68973 0.10872 0.0
C353 C 0.5946 0.67359 0.11008 0.0
C354 C 0.61916 0.67929 0.10218 0.0
C355 C 0.61616 0.7012 0.09291 0.0
C356 C 0.58858 0.71738 0.09151 0.0
C357 C 0.49701 0.86277 0.1046 0.0
C358 C 0.5146 0.87721 0.09548 0.0
C359 C 0.49488 0.83064 0.10508 0.0
C360 C 0.5103 0.81243 0.09646 0.0
C361 C 0.5281 0.82679 0.08743 0.0
C362 C 0.53014 0.85883 0.08691 0.0
C363 C 0.50791 0.77838 0.09674 0.0
C364 C 0.53505 0.76103 0.0977 0.0
C365 C 0.47925 0.76302 0.09599 0.0
C366 C 0.4499 0.77998 0.09442 0.0
C367 C 0.44574 0.80014 0.08451 0.0
C368 C 0.41804 0.81613 0.08311 0.0
C369 C 0.39423 0.81195 0.09151 0.0
C370 C 0.39805 0.79171 0.10131 0.0
C371 C 0.42572 0.7757 0.10276 0.0
H372 H 0.3728 0.82434 0.0904 0.0
H373 H 0.64053 0.66678 0.10325 0.0
H374 H 0.64488 0.24847 0.33163 0.0
H375 H 0.58877 0.25081 0.33192 0.0
H376 H 0.58823 0.2153 0.36867 0.0
H377 H 0.64448 0.21248 0.36841 0.0
H378 H 0.54584 0.18684 0.35483 0.0
H379 H 0.5739 0.29083 0.36334 0.0
H380 H 0.60092 0.34013 0.36026 0.0
H381 H 0.55722 0.35091 0.32539 0.0
H382 H 0.53025 0.30143 0.32817 0.0
H383 H 0.387 0.22256 0.36491 0.0
H384 H 0.44317 0.22058 0.3665 0.0
H385 H 0.45106 0.25128 0.32921 0.0
H386 H 0.39504 0.25339 0.32754 0.0
H387 H 0.48955 0.28286 0.34464 0.0
H388 H 0.46314 0.17736 0.33606 0.0
H389 H 0.43607 0.1282 0.33945 0.0
H390 H 0.47662 0.12086 0.37506 0.0
H391 H 0.50361 0.17023 0.37195 0.0
C392 C 0.63288 0.24123 0.3398 0.0
C393 C 0.64919 0.23036 0.35002 0.0
C394 C 0.60078 0.24271 0.33996 0.0
C395 C 0.58431 0.23356 0.35037 0.0
C396 C 0.60049 0.22253 0.36056 0.0
C397 C 0.63264 0.22103 0.3604 0.0
C398 C 0.55018 0.23503 0.35048 0.0
C399 C 0.53352 0.20796 0.3528 0.0
C400 C 0.53412 0.26246 0.34763 0.0
C401 C 0.55027 0.29226 0.34592 0.0
C402 C 0.57024 0.30358 0.35497 0.0
C403 C 0.58551 0.33159 0.35328 0.0
C404 C 0.58085 0.34861 0.34262 0.0
C405 C 0.56084 0.33769 0.33363 0.0
C406 C 0.54552 0.30967 0.33526 0.0
C407 C 0.40068 0.22881 0.35703 0.0
C408 C 0.38653 0.23808 0.34609 0.0
C409 C 0.43277 0.22759 0.35795 0.0
C410 C 0.45126 0.23564 0.34795 0.0
C411 C 0.4372 0.245 0.33704 0.0
C412 C 0.40517 0.24607 0.33609 0.0
C413 C 0.48529 0.23463 0.34885 0.0
C414 C 0.50191 0.2618 0.34673 0.0
C415 C 0.50129 0.20735 0.35194 0.0
C416 C 0.48512 0.17766 0.35383 0.0
C417 C 0.46607 0.1654 0.34466 0.0
C418 C 0.45079 0.13747 0.34652 0.0
C419 C 0.45455 0.12146 0.35748 0.0
C420 C 0.47368 0.13331 0.36659 0.0
C421 C 0.48899 0.16125 0.36478 0.0
H422 H 0.44271 0.09984 0.35891 0.0
H423 H 0.59269 0.37029 0.34134 0.0
H424 H 0.9638 0.87746 0.38608 0.0
H425 H 0.96737 0.82138 0.38457 0.0
H426 H 0.03458 0.82055 0.41355 0.0
H427 H 0.0306 0.87638 0.41532 0.0
H428 H 0.01238 0.78359 0.379 0.0
H429 H 0.02721 0.75709 0.43068 0.0
H430 H 0.01069 0.77842 0.45046 0.0
H431 H 0.93195 0.81972 0.43334 0.0
H432 H 0.94775 0.7983 0.4135 0.0
H433 H 0.07706 0.63636 0.3881 0.0
H434 H 0.06417 0.69101 0.38797 0.0
H435 H 0.97669 0.67081 0.40476 0.0
H436 H 0.9898 0.6161 0.40524 0.0
H437 H 0.00148 0.71745 0.41566 0.0
H438 H 0.98239 0.69165 0.37422 0.0
H439 H 0.99324 0.66974 0.35394 0.0
H440 H 0.06964 0.73149 0.34966 0.0
H441 H 0.05951 0.7535 0.36999 0.0
C442 C 0.97931 0.86533 0.39214 0.0
C443 C 0.99677 0.88136 0.40087 0.0
C444 C 0.98137 0.83328 0.39124 0.0
C445 C 0.00091 0.81671 0.39906 0.0
C446 C 0.01885 0.83276 0.4076 0.0
C447 C 0.01665 0.86472 0.40856 0.0
C448 C 0.00278 0.78265 0.39827 0.0
C449 C 0.00991 0.7691 0.38701 0.0
C450 C 0.99877 0.76365 0.40865 0.0
C451 C 0.98884 0.77629 0.42058 0.0
C452 C 0.0063 0.7706 0.43115 0.0
C453 C 0.99707 0.78273 0.44237 0.0
C454 C 0.97034 0.80049 0.44315 0.0
C455 C 0.95271 0.80606 0.43272 0.0
C456 C 0.96181 0.79395 0.42148 0.0
C457 C 0.05498 0.64349 0.3917 0.0
C458 C 0.03446 0.62186 0.39669 0.0
C459 C 0.04757 0.67477 0.39156 0.0
C460 C 0.01929 0.68503 0.39622 0.0
C461 C 0.99864 0.66345 0.40111 0.0
C462 C 0.00615 0.63217 0.40136 0.0
C463 C 0.01189 0.71841 0.39646 0.0
C464 C 0.00375 0.73186 0.40763 0.0
C465 C 0.01416 0.73718 0.38593 0.0
C466 C 0.02032 0.72406 0.37368 0.0
C467 C 0.00164 0.70041 0.36899 0.0
C468 C 0.00764 0.688 0.35748 0.0
C469 C 0.03215 0.69917 0.35052 0.0
C470 C 0.05067 0.72284 0.35506 0.0
C471 C 0.04479 0.73532 0.36657 0.0
H472 H 0.03675 0.68953 0.34161 0.0
H473 H 0.96326 0.80989 0.45185 0.0
H474 H 0.38559 0.75524 0.63144 0.0
H475 H 0.44133 0.76135 0.62928 0.0
H476 H 0.45337 0.73841 0.66728 0.0
H477 H 0.39786 0.7328 0.66957 0.0
H478 H 0.48732 0.78722 0.66118 0.0
H479 H 0.46778 0.68606 0.64445 0.0
H480 H 0.44321 0.64899 0.63047 0.0
H481 H 0.48045 0.6975 0.59969 0.0
H482 H 0.50492 0.73509 0.6135 0.0
H483 H 0.64252 0.74681 0.66643 0.0
H484 H 0.58652 0.74548 0.66542 0.0
H485 H 0.58977 0.77128 0.62744 0.0
H486 H 0.64612 0.77225 0.62831 0.0
H487 H 0.54793 0.72578 0.6316 0.0
H488 H 0.57117 0.82438 0.64844 0.0
H489 H 0.59618 0.86106 0.66244 0.0
H490 H 0.55203 0.81768 0.69297 0.0
H491 H 0.52709 0.78044 0.67917 0.0
C492 C 0.40012 0.7515 0.63933 0.0
C493 C 0.3873 0.74348 0.65067 0.0
C494 C 0.43196 0.7549 0.63807 0.0
C495 C 0.4515 0.75007 0.64809 0.0
C496 C 0.43871 0.74228 0.65943 0.0
C497 C 0.40696 0.73899 0.66071 0.0
C498 C 0.48532 0.75324 0.64692 0.0
C499 C 0.5006 0.7736 0.65478 0.0
C500 C 0.50251 0.73621 0.63829 0.0
C501 C 0.48788 0.71357 0.63 0.0
C502 C 0.47052 0.68896 0.6347 0.0
C503 C 0.45665 0.66783 0.62681 0.0
C504 C 0.46019 0.67094 0.6142 0.0
C505 C 0.47768 0.69515 0.60946 0.0
C506 C 0.49157 0.71636 0.61731 0.0
C507 C 0.63141 0.75215 0.65784 0.0
C508 C 0.64878 0.75984 0.64746 0.0
C509 C 0.59936 0.7515 0.6573 0.0
C510 C 0.584 0.75879 0.64641 0.0
C511 C 0.60122 0.76573 0.63595 0.0
C512 C 0.63338 0.76633 0.63647 0.0
C513 C 0.54994 0.75917 0.64608 0.0
C514 C 0.53462 0.73962 0.63791 0.0
C515 C 0.53265 0.77696 0.65443 0.0
C516 C 0.54743 0.79948 0.66277 0.0
C517 C 0.56696 0.82253 0.65814 0.0
C518 C 0.5811 0.84344 0.66605 0.0
C519 C 0.57574 0.84167 0.67859 0.0
C520 C 0.55617 0.81902 0.68325 0.0
C521 C 0.54199 0.79802 0.67539 0.0
H522 H 0.58671 0.85787 0.68469 0.0
H523 H 0.44944 0.65456 0.60811 0.0
H524 H 0.52024 0.37806 0.91036 0.0
H525 H 0.51986 0.32189 0.91162 0.0
H526 H 0.49798 0.31646 0.8733 0.0
H527 H 0.49806 0.37263 0.87197 0.0
H528 H 0.46302 0.27714 0.88695 0.0
H529 H 0.57001 0.30331 0.88273 0.0
H530 H 0.61818 0.33014 0.88805 0.0
H531 H 0.61682 0.28878 0.92363 0.0
H532 H 0.56837 0.26203 0.91857 0.0
H533 H 0.50074 0.12098 0.87595 0.0
H534 H 0.4986 0.17716 0.87573 0.0
H535 H 0.5223 0.17917 0.91394 0.0
H536 H 0.52484 0.12295 0.91422 0.0
H537 H 0.5556 0.22029 0.90095 0.0
H538 H 0.44941 0.19294 0.90505 0.0
H539 H 0.40126 0.16602 0.89976 0.0
H540 H 0.40095 0.20945 0.86457 0.0
H541 H 0.44937 0.23631 0.86958 0.0
C542 C 0.5153 0.36494 0.9022 0.0
C543 C 0.50931 0.37979 0.89105 0.0
C544 C 0.51518 0.33285 0.90293 0.0
C545 C 0.50918 0.31508 0.89252 0.0
C546 C 0.50269 0.32981 0.88143 0.0
C547 C 0.50286 0.36189 0.88068 0.0
C548 C 0.50988 0.28107 0.89317 0.0
C549 C 0.48336 0.26465 0.88987 0.0
C550 C 0.53621 0.26494 0.89727 0.0
C551 C 0.56539 0.28093 0.90032 0.0
C552 C 0.57984 0.30014 0.89172 0.0
C553 C 0.60722 0.3153 0.89468 0.0
C554 C 0.62051 0.31124 0.90618 0.0
C555 C 0.60648 0.29194 0.91473 0.0
C556 C 0.57907 0.27676 0.91182 0.0
C557 C 0.50545 0.13334 0.88431 0.0
C558 C 0.51291 0.11752 0.89511 0.0
C559 C 0.50408 0.16544 0.88418 0.0
C560 C 0.50998 0.18227 0.89485 0.0
C561 C 0.51762 0.16657 0.90562 0.0
C562 C 0.51898 0.13446 0.90576 0.0
C563 C 0.50877 0.21631 0.89469 0.0
C564 C 0.53521 0.23275 0.89807 0.0
C565 C 0.48235 0.23246 0.89068 0.0
C566 C 0.45318 0.21641 0.88765 0.0
C567 C 0.43921 0.19656 0.89614 0.0
C568 C 0.41185 0.18135 0.8932 0.0
C569 C 0.3981 0.18597 0.88182 0.0
C570 C 0.41165 0.20587 0.87337 0.0
C571 C 0.43904 0.22111 0.87626 0.0
H572 H 0.37691 0.17417 0.87957 0.0
H573 H 0.64172 0.32298 0.90845 0.0
H574 H 0.14156 0.22993 0.12388 0.0
H575 H 0.08534 0.22686 0.12424 0.0
H576 H 0.08529 0.25579 0.16188 0.0
H577 H 0.14137 0.25812 0.16168 0.0
H578 H 0.04506 0.21133 0.15877 0.0
H579 H 0.06878 0.30614 0.138 0.0
H580 H 0.09314 0.33843 0.12221 0.0
H581 H 0.04603 0.28775 0.09425 0.0
H582 H 0.02169 0.25489 0.10988 0.0
H583 H 0.89085 0.2606 0.16497 0.0
H584 H 0.94692 0.2597 0.16343 0.0
H585 H 0.94014 0.22514 0.12667 0.0
H586 H 0.88396 0.22623 0.12808 0.0
H587 H 0.98343 0.27013 0.12859 0.0
H588 H 0.95779 0.1769 0.14975 0.0
H589 H 0.93318 0.14554 0.16577 0.0
H590 H 0.98379 0.19435 0.19328 0.0
H591 H 0.0084 0.22631 0.17743 0.0
C592 C 0.12958 0.23548 0.13225 0.0
C593 C 0.14596 0.24442 0.14273 0.0
C594 C 0.09742 0.23387 0.13243 0.0
C595 C 0.08102 0.24158 0.14303 0.0
C596 C 0.0974 0.24979 0.15358 0.0
C597 C 0.1295 0.25117 0.15344 0.0
C598 C 0.04681 0.24149 0.14318 0.0
C599 C 0.03162 0.22446 0.15225 0.0
C600 C 0.02917 0.25805 0.1345 0.0
C601 C 0.04368 0.27786 0.1251 0.0
C602 C 0.0638 0.30174 0.12848 0.0
C603 C 0.07757 0.32017 0.11956 0.0
C604 C 0.0712 0.31509 0.10723 0.0
C605 C 0.05098 0.29163 0.1038 0.0
C606 C 0.03717 0.27311 0.11268 0.0
C607 C 0.90124 0.25291 0.15653 0.0
C608 C 0.8829 0.24335 0.14666 0.0
C609 C 0.93332 0.25228 0.15569 0.0
C610 C 0.94772 0.24194 0.14499 0.0
C611 C 0.9295 0.2331 0.13502 0.0
C612 C 0.89739 0.23369 0.13586 0.0
C613 C 0.98178 0.24026 0.14426 0.0
C614 C 0.99691 0.25691 0.13507 0.0
C615 C -0.00062 0.22348 0.15286 0.0
C616 C 0.98473 0.20418 0.16241 0.0
C617 C 0.9635 0.1811 0.15922 0.0
C618 C 0.94958 0.16319 0.16827 0.0
C619 C 0.95686 0.168 0.18053 0.0
C620 C 0.97815 0.19067 0.18378 0.0
C621 C 0.99211 0.20867 0.17477 0.0
H622 H 0.94606 0.15411 0.18752 0.0
H623 H 0.08189 0.32938 0.10034 0.0
H624 H 0.01352 0.94738 0.45169 0.0
H625 H 0.01779 0.94047 0.47379 0.0
H626 H 0.02791 0.03858 0.47832 0.0
H627 H 0.02402 0.04571 0.45633 0.0
H628 H 0.06735 0.00675 0.4929 0.0
H629 H 0.95902 0.00487 0.48258 0.0
H630 H 0.91324 0.98565 0.47168 0.0
H631 H 0.92742 0.89561 0.48688 0.0
H632 H 0.97356 0.91424 0.49775 0.0
H633 H 0.02301 0.03415 0.55377 0.0
H634 H 0.02691 0.03266 0.53156 0.0
H635 H 0.0134 0.93429 0.53214 0.0
H636 H 0.00898 0.93557 0.55434 0.0
H637 H 0.97875 0.96087 0.51491 0.0
H638 H 0.08434 0.96421 0.52693 0.0
H639 H 0.12983 0.98376 0.53792 0.0
H640 H 0.12116 0.0708 0.51965 0.0
H641 H 0.07533 0.05192 0.50867 0.0
C642 C 0.01693 0.96745 0.45738 0.0
C643 C 0.01817 0.99712 0.45226 0.0
C644 C 0.01928 0.96346 0.47 0.0
C645 C 0.02283 0.98907 0.47767 0.0
C646 C 0.02517 0.01854 0.47255 0.0
C647 C 0.02279 0.02255 0.45997 0.0
C648 C 0.02277 0.98557 0.49109 0.0
C649 C 0.04793 0.99689 0.49774 0.0
C650 C 0.99773 0.97201 0.49734 0.0
C651 C 0.96992 0.96085 0.49086 0.0
C652 C 0.95251 0.98092 0.48352 0.0
C653 C 0.92648 0.97014 0.47736 0.0
C654 C 0.91749 0.9394 0.47855 0.0
C655 C 0.93445 0.9194 0.48594 0.0
C656 C 0.96053 0.93006 0.49211 0.0
C657 C 0.02091 0.01218 0.54918 0.0
C658 C 0.01573 0.98498 0.55583 0.0
C659 C 0.02331 0.01135 0.5365 0.0
C660 C 0.02086 0.98329 0.53023 0.0
C661 C 0.01545 0.95615 0.53681 0.0
C662 C 0.01297 0.95695 0.5495 0.0
C663 C 0.02315 0.98248 0.51677 0.0
C664 C 0.99839 0.97037 0.5101 0.0
C665 C 0.04858 0.99531 0.5105 0.0
C666 C 0.07624 0.00671 0.51704 0.0
C667 C 0.09199 0.9876 0.52532 0.0
C668 C 0.11786 0.99854 0.53154 0.0
C669 C 0.12834 0.02852 0.5295 0.0
C670 C 0.11301 0.04759 0.52122 0.0
C671 C 0.0871 0.03676 0.51498 0.0
H672 H 0.14837 0.03695 0.53433 0.0
H673 H 0.89733 0.9311 0.47377 0.0
H674 H 0.23519 0.74826 0.8046 0.0
H675 H 0.23909 0.74231 0.78255 0.0
H676 H 0.33799 0.74826 0.78489 0.0
H677 H 0.33437 0.75451 0.80704 0.0
H678 H 0.31436 0.78276 0.76598 0.0
H679 H 0.30644 0.67992 0.7808 0.0
H680 H 0.28473 0.63745 0.793 0.0
H681 H 0.19887 0.64576 0.77388 0.0
H682 H 0.21989 0.68864 0.7617 0.0
H683 H 0.32527 0.73411 0.70341 0.0
H684 H 0.33274 0.73691 0.72554 0.0
H685 H 0.23458 0.73069 0.73087 0.0
H686 H 0.22691 0.72756 0.70892 0.0
H687 H 0.26544 0.69263 0.74606 0.0
H688 H 0.2718 0.79913 0.73303 0.0
H689 H 0.29309 0.84234 0.72112 0.0
H690 H 0.38216 0.82682 0.73695 0.0
H691 H 0.36146 0.78323 0.74885 0.0
C692 C 0.2578 0.74839 0.80046 0.0
C693 C 0.28448 0.7517 0.80759 0.0
C694 C 0.25998 0.74486 0.78786 0.0
C695 C 0.28885 0.74441 0.78214 0.0
C696 C 0.31553 0.74842 0.78917 0.0
C697 C 0.31339 0.75191 0.80181 0.0
C698 C 0.29088 0.73967 0.76882 0.0
C699 C 0.30421 0.76278 0.76161 0.0
C700 C 0.27736 0.71372 0.76318 0.0
C701 C 0.2647 0.68767 0.77039 0.0
C702 C 0.28286 0.67284 0.77925 0.0
C703 C 0.27069 0.64867 0.78616 0.0
C704 C 0.24043 0.63895 0.78423 0.0
C705 C 0.22231 0.65333 0.77536 0.0
C706 C 0.23435 0.67755 0.76845 0.0
C707 C 0.30529 0.73336 0.7093 0.0
C708 C 0.27549 0.73065 0.7044 0.0
C709 C 0.3096 0.73503 0.72193 0.0
C710 C 0.28419 0.73413 0.72982 0.0
C711 C 0.2545 0.73131 0.72493 0.0
C712 C 0.25017 0.72965 0.71237 0.0
C713 C 0.28811 0.73614 0.74319 0.0
C714 C 0.27598 0.7124 0.75042 0.0
C715 C 0.30276 0.76149 0.74884 0.0
C716 C 0.31517 0.78771 0.74171 0.0
C717 C 0.29598 0.80477 0.73389 0.0
C718 C 0.30793 0.82936 0.72716 0.0
C719 C 0.33898 0.83726 0.72825 0.0
C720 C 0.35813 0.82064 0.7361 0.0
C721 C 0.3463 0.796 0.74284 0.0
H722 H 0.34819 0.85631 0.72303 0.0
H723 H 0.23104 0.62024 0.78959 0.0
H724 H 0.52987 0.04018 0.04021 0.0
H725 H 0.53056 0.03348 0.01818 0.0
H726 H 0.54036 0.93533 0.0228 0.0
H727 H 0.53929 0.94178 0.04501 0.0
H728 H 0.57684 0.01128 0.00463 0.0
H729 H 0.50679 0.90044 -0.00256 0.0
H730 H 0.46478 0.87124 0.00723 0.0
H731 H 0.42922 0.95469 0.02273 0.0
H732 H 0.47076 0.9844 0.01291 0.0
H733 H 0.54276 0.93372 0.94156 0.0
H734 H 0.54605 0.93127 0.9638 0.0
H735 H 0.53541 0.02988 0.96574 0.0
H736 H 0.53246 0.03264 0.94355 0.0
H737 H 0.50372 0.94771 0.9807 0.0
H738 H 0.57662 0.05774 0.98924 0.0
H739 H 0.61836 0.0869 0.9793 0.0
H740 H 0.64829 0.00499 0.96092 0.0
H741 H 0.60702 0.97525 0.97088 0.0
C742 C 0.53193 0.01709 0.03658 0.0
C743 C 0.53466 0.9915 0.04436 0.0
C744 C 0.53241 0.01334 0.02398 0.0
C745 C 0.53558 0.98396 0.01887 0.0
C746 C 0.53764 0.95819 0.02658 0.0
C747 C 0.53705 0.96192 0.03925 0.0
C748 C 0.53775 0.98082 0.00547 0.0
C749 C 0.5607 0.99758 -0.00062 0.0
C750 C 0.51736 0.96208 -0.0013 0.0
C751 C 0.49212 0.94455 0.00457 0.0
C752 C 0.48996 0.91254 0.00292 0.0
C753 C 0.46624 0.89591 0.00847 0.0
C754 C 0.44442 0.91108 0.01563 0.0
C755 C 0.44622 0.94294 0.01722 0.0
C756 C 0.46988 0.95968 0.01169 0.0
C757 C 0.54137 0.95493 0.94671 0.0
C758 C 0.5374 0.98341 0.94078 0.0
C759 C 0.54315 0.95344 0.95941 0.0
C760 C 0.54123 0.98039 0.96639 0.0
C761 C 0.53742 0.00884 0.9605 0.0
C762 C 0.53564 0.01037 0.94781 0.0
C763 C 0.54226 0.97887 0.97985 0.0
C764 C 0.52006 0.96115 0.98596 0.0
C765 C 0.56335 0.99671 0.98666 0.0
C766 C 0.58854 0.01433 0.98074 0.0
C767 C 0.59219 0.04592 0.98312 0.0
C768 C 0.61576 0.06256 0.97747 0.0
C769 C 0.63591 0.04783 0.96945 0.0
C770 C 0.6326 0.0164 0.9671 0.0
C771 C 0.60909 -0.00035 0.97273 0.0
H772 H 0.65412 0.06076 0.96508 0.0
H773 H 0.42608 0.89816 0.01993 0.0
H774 H 0.32075 0.26923 0.19369 0.0
H775 H 0.31939 0.26124 0.21567 0.0
H776 H 0.22198 0.24266 0.21377 0.0
H777 H 0.22299 0.25096 0.19168 0.0
H778 H 0.23654 0.28295 0.23186 0.0
H779 H 0.27219 0.18456 0.21803 0.0
H780 H 0.30576 0.14933 0.2065 0.0
H781 H 0.38429 0.18133 0.22661 0.0
H782 H 0.35126 0.21712 0.23814 0.0
H783 H 0.21844 0.23184 0.29176 0.0
H784 H 0.22112 0.23053 0.26959 0.0
H785 H 0.31842 0.24985 0.27113 0.0
H786 H 0.31608 0.25073 0.29347 0.0
H787 H 0.30387 0.20781 0.25317 0.0
H788 H 0.26963 0.30745 0.26621 0.0
H789 H 0.23709 0.34406 0.27754 0.0
H790 H 0.15706 0.31097 0.25866 0.0
H791 H 0.18908 0.27383 0.24734 0.0
C792 C 0.29899 0.26338 0.19791 0.0
C793 C 0.27194 0.26073 0.19093 0.0
C794 C 0.29833 0.25864 0.21047 0.0
C795 C 0.27068 0.25097 0.2163 0.0
C796 C 0.24358 0.24843 0.2094 0.0
C797 C 0.24421 0.25316 0.1968 0.0
C798 C 0.26996 0.2468 0.22967 0.0
C799 C 0.25084 0.26615 0.23651 0.0
C800 C 0.28939 0.22551 0.23571 0.0
C801 C 0.30927 0.20372 0.22888 0.0
C802 C 0.29665 0.18425 0.21994 0.0
C803 C 0.31558 0.16415 0.21341 0.0
C804 C 0.34715 0.16314 0.2158 0.0
C805 C 0.35983 0.18216 0.22476 0.0
C806 C 0.34101 0.20233 0.23131 0.0
C807 C 0.24052 0.23552 0.28742 0.0
C808 C 0.267 0.24184 0.29436 0.0
C809 C 0.24197 0.23478 0.27474 0.0
C810 C 0.26982 0.2407 0.26875 0.0
C811 C 0.29668 0.24537 0.27562 0.0
C812 C 0.29529 0.24593 0.28836 0.0
C813 C 0.2703 0.24384 0.25533 0.0
C814 C 0.28944 0.22444 0.2485 0.0
C815 C 0.25101 0.26522 0.24927 0.0
C816 C 0.23171 0.28765 0.25602 0.0
C817 C 0.24506 0.30781 0.26455 0.0
C818 C 0.22672 0.32869 0.27096 0.0
C819 C 0.19502 0.32979 0.26885 0.0
C820 C 0.18161 0.31006 0.2603 0.0
C821 C 0.19985 0.28911 0.25388 0.0
H822 H 0.18086 0.34597 0.27382 0.0
H823 H 0.36176 0.14758 0.21072 0.0
H824 H 0.71609 0.25993 0.20247 0.0
H825 H 0.72188 0.26571 0.2244 0.0
H826 H 0.82058 0.26918 0.22035 0.0
H827 H 0.81503 0.26281 0.19826 0.0
H828 H 0.80393 0.22868 0.23739 0.0
H829 H 0.7799 0.33339 0.22862 0.0
H830 H 0.75083 0.37642 0.21953 0.0
H831 H 0.67048 0.34993 0.23974 0.0
H832 H 0.69893 0.30645 0.24883 0.0
H833 H 0.82629 0.25585 0.30007 0.0
H834 H 0.82544 0.26472 0.27813 0.0
H835 H 0.72654 0.25628 0.27803 0.0
H836 H 0.72706 0.24772 0.30012 0.0
H837 H 0.74708 0.30336 0.26313 0.0
H838 H 0.76956 0.19605 0.2701 0.0
H839 H 0.79812 0.15247 0.27904 0.0
H840 H 0.88122 0.18398 0.26193 0.0
H841 H 0.85321 0.22802 0.25301 0.0
C842 C 0.73907 0.26226 0.20619 0.0
C843 C 0.76514 0.26074 0.19861 0.0
C844 C 0.74231 0.2658 0.21874 0.0
C845 C 0.77164 0.26821 0.22399 0.0
C846 C 0.79772 0.26746 0.21645 0.0
C847 C 0.79451 0.26386 0.20385 0.0
C848 C 0.7749 0.26888 0.23742 0.0
C849 C 0.79207 0.24545 0.24301 0.0
C850 C 0.75871 0.29027 0.24474 0.0
C851 C 0.74152 0.31651 0.23934 0.0
C852 C 0.75597 0.33659 0.23106 0.0
C853 C 0.73961 0.36109 0.22592 0.0
C854 C 0.70881 0.36587 0.22904 0.0
C855 C 0.69433 0.34619 0.23733 0.0
C856 C 0.71058 0.32164 0.24249 0.0
C857 C 0.80429 0.25604 0.29543 0.0
C858 C 0.77673 0.25072 0.30182 0.0
C859 C 0.80388 0.26112 0.28288 0.0
C860 C 0.77598 0.26072 0.27647 0.0
C861 C 0.74831 0.2566 0.28285 0.0
C862 C 0.74867 0.25159 0.29545 0.0
C863 C 0.77589 0.26306 0.26302 0.0
C864 C 0.75926 0.28693 0.25747 0.0
C865 C 0.79254 0.24206 0.2557 0.0
C866 C 0.80937 0.21551 0.261 0.0
C867 C 0.79398 0.19382 0.26832 0.0
C868 C 0.81005 0.16901 0.27337 0.0
C869 C 0.84148 0.16551 0.27108 0.0
C870 C 0.85688 0.18676 0.26371 0.0
C871 C 0.84092 0.21163 0.25865 0.0
H872 H 0.85389 0.14628 0.275 0.0
H873 H 0.69618 0.38485 0.22504 0.0
H874 H 0.81159 0.77553 0.70422 0.0
H875 H 0.80423 0.77169 0.7262 0.0
H876 H 0.70613 0.76436 0.721 0.0
H877 H 0.71321 0.76812 0.69886 0.0
H878 H 0.72399 0.80422 0.74036 0.0
H879 H 0.74227 0.70144 0.72652 0.0
H880 H 0.76952 0.66055 0.7153 0.0
H881 H 0.85101 0.67711 0.73647 0.0
H882 H 0.82439 0.71845 0.7477 0.0
H883 H 0.70103 0.75498 0.80189 0.0
H884 H 0.6998 0.75744 0.77962 0.0
H885 H 0.79905 0.75627 0.77871 0.0
H886 H 0.80054 0.75336 0.80092 0.0
H887 H 0.77529 0.71798 0.76206 0.0
H888 H 0.75894 0.82294 0.77476 0.0
H889 H 0.73279 0.86482 0.78582 0.0
H890 H 0.64868 0.84498 0.7668 0.0
H891 H 0.67426 0.80268 0.75574 0.0
C892 C 0.78839 0.77336 0.70771 0.0
C893 C 0.76299 0.77192 0.69978 0.0
C894 C 0.78426 0.77106 0.72028 0.0
C895 C 0.75469 0.76735 0.72516 0.0
C896 C 0.72913 0.76709 0.71735 0.0
C897 C 0.73325 0.76918 0.70473 0.0
C898 C 0.75088 0.7629 0.73843 0.0
C899 C 0.7347 0.7851 0.74512 0.0
C900 C 0.76533 0.73818 0.74457 0.0
C901 C 0.7814 0.71322 0.73788 0.0
C902 C 0.76608 0.69654 0.72872 0.0
C903 C 0.7814 0.67325 0.72237 0.0
C904 C 0.812 0.66628 0.72515 0.0
C905 C 0.82732 0.68255 0.73432 0.0
C906 C 0.81212 0.70589 0.74068 0.0
C907 C 0.7226 0.75518 0.79695 0.0
C908 C 0.7509 0.75407 0.80318 0.0
C909 C 0.72184 0.7567 0.78423 0.0
C910 C 0.74934 0.75735 0.77754 0.0
C911 C 0.77756 0.7558 0.78372 0.0
C912 C 0.77836 0.75422 0.79642 0.0
C913 C 0.74892 0.75966 0.76407 0.0
C914 C 0.76428 0.73697 0.75733 0.0
C915 C 0.73381 0.78399 0.7579 0.0
C916 C 0.71842 0.80942 0.76453 0.0
C917 C 0.7348 0.82733 0.77301 0.0
C918 C 0.7201 0.85118 0.77927 0.0
C919 C 0.68907 0.85749 0.77704 0.0
C920 C 0.6727 0.84002 0.76853 0.0
C921 C 0.68729 0.81612 0.76226 0.0
H922 H 0.67772 0.87597 0.78189 0.0
H923 H 0.82382 0.64824 0.72023 0.0
H924 H 0.51492 0.47321 0.93695 0.0
H925 H 0.51178 0.47908 0.95901 0.0
H926 H 0.51778 0.57772 0.95521 0.0
H927 H 0.52114 0.57213 0.93301 0.0
H928 H 0.5538 0.55453 0.97441 0.0
H929 H 0.45012 0.5492 0.96056 0.0
H930 H 0.40642 0.52861 0.94877 0.0
H931 H 0.41344 0.44261 0.9679 0.0
H932 H 0.45751 0.46252 0.97969 0.0
H933 H 0.50782 0.56064 0.03827 0.0
H934 H 0.51078 0.5713 0.01629 0.0
H935 H 0.5041 0.47406 0.00881 0.0
H936 H 0.50098 0.46325 0.03049 0.0
H937 H 0.46386 0.50767 0.99522 0.0
H938 H 0.57207 0.5113 0.00682 0.0
H939 H 0.61636 0.53172 0.01833 0.0
H940 H 0.6001 0.62173 0.00344 0.0
H941 H 0.55545 0.60189 0.99195 0.0
C942 C 0.51574 0.49618 0.94077 0.0
C943 C 0.51803 0.52222 0.9332 0.0
C944 C 0.51387 0.49949 0.95338 0.0
C945 C 0.51411 0.52886 0.95869 0.0
C946 C 0.51743 0.55489 0.95124 0.0
C947 C 0.51924 0.55162 0.93858 0.0
C948 C 0.51005 0.53196 0.97201 0.0
C949 C 0.53387 0.54488 0.97898 0.0
C950 C 0.48404 0.51933 0.97792 0.0
C951 C 0.45726 0.50732 0.97096 0.0
C952 C 0.44248 0.52583 0.9622 0.0
C953 C 0.41762 0.51428 0.95552 0.0
C954 C 0.40718 0.4843 0.95757 0.0
C955 C 0.42154 0.46583 0.96632 0.0
C956 C 0.44644 0.47725 0.97302 0.0
C957 C 0.50716 0.54157 0.03192 0.0
C958 C 0.504 0.51112 0.03613 0.0
C959 C 0.50889 0.5477 0.01939 0.0
C960 C 0.50755 0.52344 0.01095 0.0
C961 C 0.50493 0.49311 0.01517 0.0
C962 C 0.50323 0.487 0.0276 0.0
C963 C 0.50819 0.52903 -0.00235 0.0
C964 C 0.48354 0.51787 0.99066 0.0
C965 C 0.53337 0.54335 0.99177 0.0
C966 C 0.56022 0.55521 -0.00135 0.0
C967 C 0.57779 0.5355 0.00609 0.0
C968 C 0.60298 0.54696 0.01259 0.0
C969 C 0.61098 0.57803 0.01165 0.0
C970 C 0.59384 0.59769 0.00418 0.0
C971 C 0.5686 0.58635 -0.00233 0.0
H972 H 0.6305 0.58686 0.01669 0.0
H973 H 0.38794 0.4754 0.95238 0.0
H974 H 0.00741 0.45821 0.54638 0.0
H975 H 0.00846 0.45748 0.5241 0.0
H976 H 0.0016 0.55652 0.52335 0.0
H977 H 8e-05 0.55752 0.54559 0.0
H978 H 0.96677 0.52992 0.50548 0.0
H979 H 0.07048 0.52359 0.52057 0.0
H980 H 0.11273 0.50228 0.53301 0.0
H981 H 0.10292 0.41495 0.51511 0.0
H982 H 0.0603 0.43564 0.50268 0.0
H983 H 0.02432 0.54866 0.44453 0.0
H984 H 0.01624 0.55247 0.4666 0.0
H985 H 0.02484 0.45385 0.46986 0.0
H986 H 0.03333 0.44984 0.44801 0.0
H987 H 0.05897 0.48263 0.48652 0.0
H988 H 0.95494 0.48897 0.47143 0.0
H989 H 0.91276 0.51044 0.459 0.0
H990 H 0.92336 0.59791 0.47672 0.0
H991 H 0.96591 0.57706 0.48914 0.0
C992 C 0.00576 0.47981 0.54148 0.0
C993 C 0.00402 0.50794 0.54776 0.0
C994 C 0.00644 0.47935 0.52876 0.0
C995 C 0.0056 0.50699 0.52212 0.0
C996 C 0.00236 0.53497 0.52833 0.0
C997 C 0.00163 0.53547 0.54104 0.0
C998 C 0.00989 0.50687 0.50876 0.0
C999 C 0.98706 0.51989 0.50131 0.0
C1000 C 0.03625 0.49351 0.50337 0.0
C1001 C 0.06202 0.48108 0.51078 0.0
C1002 C 0.07719 0.49978 0.51935 0.0
C1003 C 0.10122 0.48782 0.52639 0.0
C1004 C 0.11045 0.45725 0.52487 0.0
C1005 C 0.09572 0.43861 0.51629 0.0
C1006 C 0.07164 0.45044 0.50924 0.0
C1007 C 0.02443 0.52781 0.44996 0.0
C1008 C 0.02957 0.49897 0.44452 0.0
C1009 C 0.01967 0.53001 0.46254 0.0
C1010 C 0.01978 0.5034 0.46983 0.0
C1011 C 0.02475 0.47466 0.46439 0.0
C1012 C 0.02957 0.47245 0.45189 0.0
C1013 C 0.01562 0.50521 0.48318 0.0
C1014 C 0.03864 0.49265 0.49065 0.0
C1015 C 0.98946 0.51901 0.48856 0.0
C1016 C 0.96382 0.53154 0.48112 0.0
C1017 C 0.94845 0.51285 0.47261 0.0
C1018 C 0.92444 0.5249 0.46558 0.0
C1019 C 0.91544 0.55555 0.46704 0.0
C1020 C 0.93038 0.57419 0.47557 0.0
C1021 C 0.95443 0.56226 0.48262 0.0
H1022 H 0.89685 0.56483 0.46159 0.0
H1023 H 0.12906 0.44804 0.53033 0.0
H1024 H 0.28574 0.82512 0.65165 0.0
H1025 H 0.27037 0.87392 0.64199 0.0
H1026 H 0.18367 0.83326 0.63159 0.0
H1027 H 0.19854 0.78504 0.64128 0.0
H1028 H 0.21037 0.86986 0.61309 0.0
H1029 H 0.18748 0.87229 0.6573 0.0
H1030 H 0.20372 0.87157 0.67887 0.0
H1031 H 0.26291 0.94909 0.67245 0.0
H1032 H 0.24722 0.95 0.6508 0.0
H1033 H 0.07118 0.93469 0.62259 0.0
H1034 H 0.12062 0.91609 0.62997 0.0
H1035 H 0.16674 0.99074 0.61159 0.0
H1036 H 0.11671 0.00974 0.60407 0.0
H1037 H 0.18068 0.95292 0.64179 0.0
H1038 H 0.19449 0.95451 0.59697 0.0
H1039 H 0.1726 0.95309 0.5762 0.0
H1040 H 0.12847 0.86699 0.58426 0.0
H1041 H 0.14983 0.86816 0.60513 0.0
C1042 C 0.26361 0.82656 0.64713 0.0
C1043 C 0.24319 0.8014 0.6473 0.0
C1044 C 0.25491 0.85438 0.64164 0.0
C1045 C 0.22592 0.85711 0.63608 0.0
C1046 C 0.20622 0.83155 0.63576 0.0
C1047 C 0.21465 0.80407 0.64139 0.0
C1048 C 0.21424 0.88691 0.63146 0.0
C1049 C 0.2048 0.88857 0.61925 0.0
C1050 C 0.20728 0.91148 0.63946 0.0
C1051 C 0.21653 0.91096 0.65244 0.0
C1052 C 0.20413 0.88902 0.66048 0.0
C1053 C 0.2132 0.8886 0.67272 0.0
C1054 C 0.23442 0.9102 0.67702 0.0
C1055 C 0.24654 0.93232 0.6691 0.0
C1056 C 0.23758 0.9328 0.65685 0.0
C1057 C 0.09172 0.94766 0.62036 0.0
C1058 C 0.09021 0.97341 0.61265 0.0
C1059 C 0.11992 0.9371 0.62464 0.0
C1060 C 0.14721 0.95193 0.62123 0.0
C1061 C 0.14581 0.97906 0.61429 0.0
C1062 C 0.11731 0.98989 0.61004 0.0
C1063 C 0.17636 0.93547 0.6235 0.0
C1064 C 0.18846 0.93564 0.63536 0.0
C1065 C 0.186 0.91265 0.61517 0.0
C1066 C 0.1736 0.91152 0.60259 0.0
C1067 C 0.17999 0.93538 0.59432 0.0
C1068 C 0.1677 0.93461 0.58253 0.0
C1069 C 0.14912 0.90999 0.57892 0.0
C1070 C 0.14286 0.88605 0.58707 0.0
C1071 C 0.15508 0.88673 0.59887 0.0
H1072 H 0.1396 0.90944 0.56979 0.0
H1073 H 0.24141 0.90985 0.6865 0.0
H1074 H 0.30159 0.82825 0.87667 0.0
H1075 H 0.30935 0.88047 0.88405 0.0
H1076 H 0.25318 0.91572 0.8547 0.0
H1077 H 0.2446 0.8627 0.84745 0.0
H1078 H 0.31291 0.93858 0.85487 0.0
H1079 H 0.23169 0.93868 0.8824 0.0
H1080 H 0.19443 0.91842 0.89731 0.0
H1081 H 0.26751 0.90211 0.92288 0.0
H1082 H 0.30531 0.92176 0.90809 0.0
H1083 H 0.43157 0.02943 0.88408 0.0
H1084 H 0.37738 0.02397 0.87772 0.0
H1085 H 0.37456 0.93381 0.89424 0.0
H1086 H 0.42794 0.93884 0.90037 0.0
H1087 H 0.32006 0.96944 0.89829 0.0
H1088 H 0.39293 0.93826 0.86405 0.0
H1089 H 0.43247 0.95381 0.84908 0.0
H1090 H 0.37453 0.02775 0.83682 0.0
H1091 H 0.33478 0.01264 0.85179 0.0
C1092 C 0.29001 0.84705 0.87206 0.0
C1093 C 0.27262 0.84168 0.86153 0.0
C1094 C 0.29421 0.87688 0.87632 0.0
C1095 C 0.28156 0.90202 0.86999 0.0
C1096 C 0.26274 0.89661 0.8598 0.0
C1097 C 0.2579 0.86644 0.85568 0.0
C1098 C 0.29355 0.93307 0.87284 0.0
C1099 C 0.31338 0.94649 0.86425 0.0
C1100 C 0.29391 0.94373 0.88502 0.0
C1101 C 0.27138 0.932 0.89411 0.0
C1102 C 0.23987 0.93072 0.89119 0.0
C1103 C 0.21863 0.91931 0.89963 0.0
C1104 C 0.22859 0.90907 0.91105 0.0
C1105 C 0.25981 0.91019 0.91405 0.0
C1106 C 0.28116 0.92158 0.90564 0.0
C1107 C 0.41913 0.00866 0.88643 0.0
C1108 C 0.43403 0.98437 0.89257 0.0
C1109 C 0.38825 0.00567 0.88287 0.0
C1110 C 0.37194 0.97863 0.88563 0.0
C1111 C 0.38658 0.95505 0.89217 0.0
C1112 C 0.41726 0.95779 0.89552 0.0
C1113 C 0.3411 0.97202 0.88058 0.0
C1114 C 0.3178 0.96335 0.88875 0.0
C1115 C 0.33748 0.96563 0.86804 0.0
C1116 C 0.36111 0.97449 0.85903 0.0
C1117 C 0.38873 0.95784 0.85815 0.0
C1118 C 0.41115 0.96658 0.84969 0.0
C1119 C 0.40604 0.99179 0.84202 0.0
C1120 C 0.37847 0.00827 0.84278 0.0
C1121 C 0.35601 -0.00036 0.85125 0.0
H1122 H 0.42341 0.99853 0.83547 0.0
H1123 H 0.21211 0.90021 0.91756 0.0
H1124 H 0.441 0.99074 0.09723 0.0
H1125 H 0.39417 0.01273 0.10638 0.0
H1126 H 0.44603 0.09244 0.11771 0.0
H1127 H 0.49231 0.0709 0.10865 0.0
H1128 H 0.40502 0.07386 0.13523 0.0
H1129 H 0.40751 0.09242 0.09093 0.0
H1130 H 0.40731 0.07488 0.06953 0.0
H1131 H 0.32218 0.02706 0.07561 0.0
H1132 H 0.32211 0.04408 0.09709 0.0
H1133 H 0.34558 0.21793 0.12972 0.0
H1134 H 0.36825 0.16958 0.12316 0.0
H1135 H 0.28252 0.12267 0.12986 0.0
H1136 H 0.25934 0.17143 0.1367 0.0
H1137 H 0.32599 0.10914 0.10564 0.0
H1138 H 0.31901 0.10404 0.14939 0.0
H1139 H 0.32101 0.12615 0.17008 0.0
H1140 H 0.41581 0.15058 0.16478 0.0
H1141 H 0.41422 0.12909 0.14398 0.0
C1142 C 0.44241 0.01265 0.10191 0.0
C1143 C 0.4702 0.02926 0.10215 0.0
C1144 C 0.41568 0.0252 0.10707 0.0
C1145 C 0.41662 0.0543 0.11265 0.0
C1146 C 0.44477 0.06994 0.11348 0.0
C1147 C 0.4712 0.05766 0.10824 0.0
C1148 C 0.38838 0.07033 0.11678 0.0
C1149 C 0.38736 0.08106 0.12884 0.0
C1150 C 0.36497 0.07924 0.10851 0.0
C1151 C 0.36502 0.06914 0.09562 0.0
C1152 C 0.38889 0.07797 0.08771 0.0
C1153 C 0.3888 0.06816 0.07557 0.0
C1154 C 0.36481 0.04977 0.07122 0.0
C1155 C 0.34079 0.04123 0.079 0.0
C1156 C 0.3408 0.05094 0.09115 0.0
C1157 C 0.33123 0.19754 0.12964 0.0
C1158 C 0.30074 0.19849 0.13389 0.0
C1159 C 0.34426 0.16992 0.12585 0.0
C1160 C 0.32713 0.14264 0.12617 0.0
C1161 C 0.29604 0.1436 0.12959 0.0
C1162 C 0.28288 0.17144 0.13346 0.0
C1163 C 0.34339 0.11333 0.12394 0.0
C1164 C 0.34251 0.10049 0.11223 0.0
C1165 C 0.36515 0.10249 0.13252 0.0
C1166 C 0.36643 0.11505 0.1451 0.0
C1167 C 0.34021 0.11432 0.1526 0.0
C1168 C 0.34129 0.12672 0.16436 0.0
C1169 C 0.36851 0.13979 0.16874 0.0
C1170 C 0.39474 0.14044 0.16138 0.0
C1171 C 0.39378 0.1281 0.14961 0.0
H1172 H 0.36929 0.14938 0.17784 0.0
H1173 H 0.36477 0.0422 0.06182 0.0
H1174 H 0.10265 0.98684 0.39913 0.0
H1175 H 0.15004 0.00314 0.38861 0.0
H1176 H 0.10177 0.08139 0.37369 0.0
H1177 H 0.05506 0.06569 0.38429 0.0
H1178 H 0.14281 0.05343 0.35699 0.0
H1179 H 0.13816 0.08971 0.39979 0.0
H1180 H 0.13679 0.07995 0.42195 0.0
H1181 H 0.22043 0.0277 0.41938 0.0
H1182 H 0.22203 0.03691 0.39715 0.0
H1183 H 0.193 0.20039 0.35753 0.0
H1184 H 0.17446 0.15215 0.36602 0.0
H1185 H 0.26243 0.10976 0.35917 0.0
H1186 H 0.28144 0.15847 0.35041 0.0
H1187 H 0.21895 0.10063 0.38509 0.0
H1188 H 0.22934 0.08019 0.3421 0.0
H1189 H 0.22834 0.09508 0.32039 0.0
H1190 H 0.1328 0.11909 0.32343 0.0
H1191 H 0.13338 0.10482 0.34521 0.0
C1192 C 0.10212 0.00706 0.39335 0.0
C1193 C 0.07537 0.02517 0.39254 0.0
C1194 C 0.12913 0.01635 0.38739 0.0
C1195 C 0.12935 0.04347 0.38041 0.0
C1196 C 0.10204 0.0603 0.37898 0.0
C1197 C 0.07541 0.05142 0.38508 0.0
C1198 C 0.15818 0.05694 0.37561 0.0
C1199 C 0.16002 0.06303 0.36307 0.0
C1200 C 0.18094 0.06899 0.38352 0.0
C1201 C 0.18 0.06363 0.39683 0.0
C1202 C 0.15611 0.07596 0.40395 0.0
C1203 C 0.15532 0.07056 0.41652 0.0
C1204 C 0.17845 0.05312 0.42207 0.0
C1205 C 0.20248 0.04113 0.41507 0.0
C1206 C 0.20334 0.04642 0.40249 0.0
C1207 C 0.2087 0.18105 0.35797 0.0
C1208 C 0.23858 0.18315 0.35314 0.0
C1209 C 0.19806 0.15352 0.36286 0.0
C1210 C 0.217 0.12747 0.36309 0.0
C1211 C 0.24753 0.12974 0.35904 0.0
C1212 C 0.25831 0.15753 0.35407 0.0
C1213 C 0.20289 0.09783 0.36655 0.0
C1214 C 0.20326 0.0892 0.37887 0.0
C1215 C 0.18217 0.08336 0.35844 0.0
C1216 C 0.18147 0.09152 0.3453 0.0
C1217 C 0.20818 0.08884 0.33815 0.0
C1218 C 0.20768 0.09714 0.32584 0.0
C1219 C 0.18053 0.10805 0.32054 0.0
C1220 C 0.15381 0.11061 0.32754 0.0
C1221 C 0.1542 0.10237 0.33987 0.0
H1222 H 0.18019 0.11448 0.311 0.0
H1223 H 0.1778 0.04898 0.4318 0.0
H1224 H 0.90762 0.06068 0.40701 0.0
H1225 H 0.85756 0.06542 0.39777 0.0
H1226 H 0.85772 0.96846 0.38912 0.0
H1227 H 0.90936 0.96375 0.39811 0.0
H1228 H 0.84008 0.99628 0.37039 0.0
H1229 H 0.79941 5e-05 0.40868 0.0
H1230 H 0.79397 0.00978 0.4307 0.0
H1231 H 0.78921 0.10702 0.42397 0.0
H1232 H 0.79515 0.09804 0.40195 0.0
H1233 H 0.73022 0.1404 0.35775 0.0
H1234 H 0.73447 0.08994 0.36776 0.0
H1235 H 0.82585 0.07951 0.35282 0.0
H1236 H 0.82115 0.12823 0.34257 0.0
H1237 H 0.76787 0.07643 0.38504 0.0
H1238 H 0.85485 0.0149 0.35083 0.0
H1239 H 0.85456 -5e-05 0.32919 0.0
H1240 H 0.75613 0.00777 0.32824 0.0
H1241 H 0.75564 0.02224 0.34995 0.0
C1242 C 0.89702 0.04012 0.40333 0.0
C1243 C 0.91269 0.01186 0.40324 0.0
C1244 C 0.86793 0.04277 0.39818 0.0
C1245 C 0.85323 0.01714 0.39298 0.0
C1246 C 0.86837 0.98852 0.39318 0.0
C1247 C 0.89789 0.98588 0.3983 0.0
C1248 C 0.82442 0.02223 0.38591 0.0
C1249 C 0.82384 0.01335 0.37361 0.0
C1250 C 0.80131 0.04235 0.3903 0.0
C1251 C 0.79752 0.04827 0.40358 0.0
C1252 C 0.79728 0.02354 0.41188 0.0
C1253 C 0.79413 0.02893 0.42438 0.0
C1254 C 0.79117 0.05899 0.42873 0.0
C1255 C 0.79137 0.08373 0.42058 0.0
C1256 C 0.79451 0.07848 0.40807 0.0
C1257 C 0.75075 0.12674 0.35633 0.0
C1258 C 0.77554 0.13853 0.34953 0.0
C1259 C 0.75317 0.0979 0.36205 0.0
C1260 C 0.78035 0.08046 0.361 0.0
C1261 C 0.80418 0.09165 0.35356 0.0
C1262 C 0.8017 0.12006 0.34783 0.0
C1263 C 0.78707 0.05404 0.36926 0.0
C1264 C 0.78311 0.05845 0.38184 0.0
C1265 C 0.80484 0.0287 0.3652 0.0
C1266 C 0.80519 0.01953 0.35212 0.0
C1267 C 0.83305 0.01304 0.34609 0.0
C1268 C 0.83305 0.00477 0.33378 0.0
C1269 C 0.80535 0.00287 0.32735 0.0
C1270 C 0.77758 0.00926 0.33323 0.0
C1271 C 0.77744 0.01754 0.34554 0.0
H1272 H 0.80541 0.99648 0.31781 0.0
H1273 H 0.78876 0.06312 0.43842 0.0
H1274 H 0.6553 0.00677 0.07958 0.0
H1275 H 0.70364 0.01947 0.08982 0.0
H1276 H 0.66066 0.00219 0.12468 0.0
H1277 H 0.61311 0.98754 0.11433 0.0
H1278 H 0.70573 0.06785 0.10171 0.0
H1279 H 0.70827 -0.00062 0.14796 0.0
H1280 H 0.70361 0.94561 0.15489 0.0
H1281 H 0.72961 0.91359 0.11934 0.0
H1282 H 0.73491 0.96715 0.11222 0.0
H1283 H 0.72499 0.13314 0.16157 0.0
H1284 H 0.71888 0.08541 0.15023 0.0
H1285 H 0.79358 0.11152 0.12649 0.0
H1286 H 0.7998 0.15974 0.13785 0.0
H1287 H 0.75088 0.03402 0.14105 0.0
H1288 H 0.76533 0.10322 0.0979 0.0
H1289 H 0.76838 0.1572 0.09088 0.0
H1290 H 0.7069 0.18478 0.1195 0.0
H1291 H 0.70324 0.13093 0.12656 0.0
C1292 C 0.6568 0.00428 0.0894 0.0
C1293 C 0.63072 0.99629 0.09623 0.0
C1294 C 0.68436 0.01162 0.09526 0.0
C1295 C 0.68594 0.01208 0.10806 0.0
C1296 C 0.66048 0.00149 0.11481 0.0
C1297 C 0.63315 0.99326 0.10891 0.0
C1298 C 0.7108 0.02973 0.11424 0.0
C1299 C 0.7165 0.05978 0.11005 0.0
C1300 C 0.72472 0.01973 0.12525 0.0
C1301 C 0.7219 0.98739 0.12954 0.0
C1302 C 0.71325 0.98091 0.14163 0.0
C1303 C 0.71042 0.95044 0.14559 0.0
C1304 C 0.71627 0.9262 0.13756 0.0
C1305 C 0.72501 0.93239 0.12555 0.0
C1306 C 0.72788 0.96281 0.12154 0.0
C1307 C 0.74072 0.12838 0.15415 0.0
C1308 C 0.76235 0.15048 0.15039 0.0
C1309 C 0.73743 0.10088 0.14776 0.0
C1310 C 0.75547 0.09514 0.13742 0.0
C1311 C 0.77934 0.11564 0.13442 0.0
C1312 C 0.78279 0.1432 0.14089 0.0
C1313 C 0.74456 0.07179 0.1286 0.0
C1314 C 0.74126 0.04106 0.13235 0.0
C1315 C 0.73284 0.08093 0.11713 0.0
C1316 C 0.73437 0.11323 0.11283 0.0
C1317 C 0.75244 0.12084 0.10266 0.0
C1318 C 0.75426 0.15138 0.09868 0.0
C1319 C 0.73793 0.17442 0.10477 0.0
C1320 C 0.7196 0.16694 0.11481 0.0
C1321 C 0.71765 0.13643 0.1188 0.0
H1322 H 0.73943 0.19805 0.10169 0.0
H1323 H 0.71405 0.90263 0.14064 0.0
H1324 H 0.7928 0.85505 0.8459 0.0
H1325 H 0.78465 0.90903 0.85187 0.0
H1326 H 0.71343 0.88014 0.8768 0.0
H1327 H 0.72103 0.82687 0.87071 0.0
H1328 H 0.72973 0.93663 0.84719 0.0
H1329 H 0.70717 0.92446 0.90002 0.0
H1330 H 0.73443 0.90318 0.91782 0.0
H1331 H 0.82037 0.90985 0.89873 0.0
H1332 H 0.79376 0.93167 0.88085 0.0
H1333 H 0.58853 0.95468 0.87001 0.0
H1334 H 0.64005 0.94815 0.86181 0.0
H1335 H 0.67245 0.024 0.88374 0.0
H1336 H 0.62028 0.03088 0.89191 0.0
H1337 H 0.70305 0.97236 0.88879 0.0
H1338 H 0.68732 0.0276 0.85328 0.0
H1339 H 0.66052 0.04908 0.83538 0.0
H1340 H 0.65321 0.95874 0.81982 0.0
H1341 H 0.67946 0.93658 0.83768 0.0
C1342 C 0.77618 0.8603 0.85295 0.0
C1343 C 0.75733 0.83702 0.85781 0.0
C1344 C 0.77155 0.89106 0.85634 0.0
C1345 C 0.74865 0.89859 0.86485 0.0
C1346 C 0.73164 0.87489 0.87038 0.0
C1347 C 0.73579 0.84445 0.86683 0.0
C1348 C 0.73776 0.93063 0.86642 0.0
C1349 C 0.72445 0.94507 0.85625 0.0
C1350 C 0.73231 0.94264 0.8782 0.0
C1351 C 0.74842 0.92991 0.88907 0.0
C1352 C 0.73193 0.92178 0.89964 0.0
C1353 C 0.74727 0.90949 0.90974 0.0
C1354 C 0.77911 0.9052 0.90941 0.0
C1355 C 0.7957 0.91318 0.89897 0.0
C1356 C 0.78049 0.92548 0.88884 0.0
C1357 C 0.60637 0.97066 0.87276 0.0
C1358 C 0.60057 0.99305 0.88166 0.0
C1359 C 0.63582 0.96714 0.86799 0.0
C1360 C 0.66017 0.98572 0.87211 0.0
C1361 C 0.65396 0.00962 0.88036 0.0
C1362 C 0.62419 0.01352 0.885 0.0
C1363 C 0.69207 0.97539 0.86966 0.0
C1364 C 0.70947 0.96516 0.87967 0.0
C1365 C 0.70143 0.96744 0.85773 0.0
C1366 C 0.68561 0.98043 0.84685 0.0
C1367 C 0.67992 0.01226 0.84607 0.0
C1368 C 0.6648 0.02457 0.83592 0.0
C1369 C 0.65523 0.0053 0.82646 0.0
C1370 C 0.66075 0.97366 0.82713 0.0
C1371 C 0.67585 0.96122 0.83726 0.0
H1372 H 0.64351 0.01487 0.81861 0.0
H1373 H 0.79093 0.89566 0.91724 0.0
H1374 H 0.73588 0.86404 0.64919 0.0
H1375 H 0.74313 0.91488 0.6396 0.0
H1376 H 0.82556 0.8816 0.62209 0.0
H1377 H 0.81882 0.83164 0.63178 0.0
H1378 H 0.79494 0.95064 0.64435 0.0
H1379 H 0.8345 0.91188 0.59541 0.0
H1380 H 0.81525 0.87781 0.57917 0.0
H1381 H 0.72359 0.88507 0.59345 0.0
H1382 H 0.74213 0.91963 0.60968 0.0
H1383 H 0.93926 0.97203 0.6256 0.0
H1384 H 0.88659 0.96533 0.63255 0.0
H1385 H 0.85405 0.02126 0.60262 0.0
H1386 H 0.9075 0.02835 0.59574 0.0
H1387 H 0.83009 0.96541 0.60173 0.0
H1388 H 0.8298 0.04056 0.63155 0.0
H1389 H 0.84903 0.07455 0.64783 0.0
H1390 H 0.86043 0.9967 0.67156 0.0
H1391 H 0.84179 0.96213 0.65538 0.0
C1392 C 0.75502 0.86752 0.64302 0.0
C1393 C 0.77693 0.84415 0.64124 0.0
C1394 C 0.75913 0.89647 0.63758 0.0
C1395 C 0.78467 0.90189 0.63004 0.0
C1396 C 0.80537 0.87781 0.6277 0.0
C1397 C 0.80167 0.84932 0.6333 0.0
C1398 C 0.79323 0.93327 0.62599 0.0
C1399 C 0.80204 0.95446 0.63499 0.0
C1400 C 0.801 0.93898 0.61369 0.0
C1401 C 0.78973 0.91855 0.60377 0.0
C1402 C 0.81016 0.90656 0.59502 0.0
C1403 C 0.79939 0.88704 0.58583 0.0
C1404 C 0.76822 0.87931 0.58527 0.0
C1405 C 0.74774 0.89107 0.5939 0.0
C1406 C 0.75838 0.91061 0.60311 0.0
C1407 C 0.92097 0.98403 0.62084 0.0
C1408 C 0.9272 0.00068 0.61019 0.0
C1409 C 0.89082 0.9804 0.62485 0.0
C1410 C 0.86624 0.99297 0.61816 0.0
C1411 C 0.87265 0.01165 0.60799 0.0
C1412 C 0.9031 0.01575 0.60409 0.0
C1413 C 0.83496 0.98045 0.62035 0.0
C1414 C 0.82176 0.96279 0.61099 0.0
C1415 C 0.82299 0.97816 0.63231 0.0
C1416 C 0.83414 0.99872 0.64222 0.0
C1417 C 0.83648 0.03063 0.64022 0.0
C1418 C 0.8473 0.05002 0.64944 0.0
C1419 C 0.85587 0.0378 0.66073 0.0
C1420 C 0.85365 0.00615 0.66282 0.0
C1421 C 0.84285 0.98665 0.65363 0.0
H1422 H 0.86427 0.05285 0.66786 0.0
H1423 H 0.75993 0.86417 0.57816 0.0
H1424 H 0.76717 0.34138 0.14447 0.0
H1425 H 0.74569 0.38511 0.13292 0.0
H1426 H 0.67598 0.32538 0.11793 0.0
H1427 H 0.69673 0.28222 0.12955 0.0
H1428 H 0.70178 0.3678 0.10078 0.0
H1429 H 0.6597 0.36372 0.14261 0.0
H1430 H 0.66586 0.36612 0.16496 0.0
H1431 H 0.70714 0.45561 0.16182 0.0
H1432 H 0.70155 0.45351 0.13942 0.0
H1433 H 0.555 0.41304 0.08999 0.0
H1434 H 0.6018 0.39315 0.09909 0.0
H1435 H 0.63376 0.48559 0.10573 0.0
H1436 H 0.5863 0.50614 0.09647 0.0
H1437 H 0.64275 0.44246 0.12577 0.0
H1438 H 0.66848 0.45164 0.08409 0.0
H1439 H 0.66037 0.4486 0.06188 0.0
H1440 H 0.65069 0.35044 0.06437 0.0
H1441 H 0.65825 0.3529 0.08662 0.0
C1442 C 0.74769 0.33759 0.13848 0.0
C1443 C 0.73345 0.30857 0.13791 0.0
C1444 C 0.73543 0.36252 0.13195 0.0
C1445 C 0.70923 0.35841 0.12461 0.0
C1446 C 0.69627 0.32899 0.1235 0.0
C1447 C 0.70806 0.30439 0.13017 0.0
C1448 C 0.69303 0.38466 0.11888 0.0
C1449 C 0.6892 0.38447 0.10619 0.0
C1450 C 0.67746 0.40701 0.12594 0.0
C1451 C 0.6806 0.40829 0.13937 0.0
C1452 C 0.67031 0.38379 0.14669 0.0
C1453 C 0.67366 0.38511 0.15936 0.0
C1454 C 0.68698 0.41096 0.16481 0.0
C1455 C 0.6969 0.43557 0.15759 0.0
C1456 C 0.69366 0.43433 0.14491 0.0
C1457 C 0.57178 0.42935 0.09339 0.0
C1458 C 0.56696 0.46126 0.09238 0.0
C1459 C 0.59864 0.41787 0.09857 0.0
C1460 C 0.62148 0.4379 0.10285 0.0
C1461 C 0.61646 0.4698 0.10236 0.0
C1462 C 0.58937 0.48146 0.09709 0.0
C1463 C 0.65033 0.42451 0.10772 0.0
C1464 C 0.65643 0.42695 0.12024 0.0
C1465 C 0.66815 0.40428 0.10049 0.0
C1466 C 0.66393 0.40249 0.08706 0.0
C1467 C 0.66448 0.42941 0.07992 0.0
C1468 C 0.65998 0.42779 0.06731 0.0
C1469 C 0.65503 0.39934 0.06171 0.0
C1470 C 0.65459 0.37245 0.06871 0.0
C1471 C 0.65905 0.37394 0.08133 0.0
H1472 H 0.65153 0.39814 0.05195 0.0
H1473 H 0.68955 0.41195 0.17462 0.0
H1474 H 0.75738 0.3294 0.35363 0.0
H1475 H 0.77707 0.37785 0.36219 0.0
H1476 H 0.84984 0.3277 0.3802 0.0
H1477 H 0.83045 0.27974 0.3717 0.0
H1478 H 0.83131 0.37687 0.39378 0.0
H1479 H 0.85911 0.35349 0.35108 0.0
H1480 H 0.84556 0.34461 0.3295 0.0
H1481 H 0.8007 0.43263 0.32801 0.0
H1482 H 0.81373 0.4418 0.34964 0.0
H1483 H 0.98188 0.41701 0.3863 0.0
H1484 H 0.93139 0.3979 0.38046 0.0
H1485 H 0.89396 0.48951 0.38305 0.0
H1486 H 0.94481 0.50914 0.38916 0.0
H1487 H 0.87862 0.43776 0.36035 0.0
H1488 H 0.86744 0.46466 0.40291 0.0
H1489 H 0.88689 0.46972 0.42395 0.0
H1490 H 0.90377 0.37241 0.42543 0.0
H1491 H 0.88489 0.36685 0.40432 0.0
C1492 C 0.77687 0.32871 0.35979 0.0
C1493 C 0.79266 0.30098 0.36192 0.0
C1494 C 0.78817 0.35637 0.36462 0.0
C1495 C 0.81515 0.35639 0.37169 0.0
C1496 C 0.82899 0.32826 0.37477 0.0
C1497 C 0.81798 0.30085 0.36987 0.0
C1498 C 0.83218 0.38513 0.37441 0.0
C1499 C 0.84102 0.39078 0.38651 0.0
C1500 C 0.8446 0.40356 0.36495 0.0
C1501 C 0.83702 0.39815 0.35197 0.0
C1502 C 0.84621 0.37084 0.34615 0.0
C1503 C 0.83864 0.36577 0.33392 0.0
C1504 C 0.82219 0.388 0.3274 0.0
C1505 C 0.81336 0.41539 0.33309 0.0
C1506 C 0.82081 0.42054 0.34532 0.0
C1507 C 0.96316 0.43333 0.38546 0.0
C1508 C 0.96734 0.46457 0.38834 0.0
C1509 C 0.93431 0.42232 0.3821 0.0
C1510 C 0.90906 0.44227 0.38148 0.0
C1511 C 0.9133 0.47383 0.38354 0.0
C1512 C 0.94234 0.48495 0.38699 0.0
C1513 C 0.87826 0.42873 0.37965 0.0
C1514 C 0.8673 0.42545 0.36771 0.0
C1515 C 0.86402 0.41233 0.38924 0.0
C1516 C 0.87487 0.41539 0.40202 0.0
C1517 C 0.87549 0.44438 0.40769 0.0
C1518 C 0.88639 0.44733 0.41964 0.0
C1519 C 0.89659 0.42141 0.42602 0.0
C1520 C 0.89585 0.39247 0.42048 0.0
C1521 C 0.885 0.3894 0.40853 0.0
H1522 H 0.90503 0.42374 0.43526 0.0
H1523 H 0.81635 0.38404 0.31793 0.0
H1524 H 0.96149 0.54827 0.61996 0.0
H1525 H 0.91385 0.56172 0.63044 0.0
H1526 H 0.86271 0.50224 0.60632 0.0
H1527 H 0.91097 0.4878 0.596 0.0
H1528 H 0.84443 0.56667 0.60677 0.0
H1529 H 0.85468 0.48396 0.63401 0.0
H1530 H 0.88107 0.44708 0.64753 0.0
H1531 H 0.90699 0.52073 0.67151 0.0
H1532 H 0.88121 0.55816 0.65805 0.0
H1533 H 0.74852 0.6724 0.64045 0.0
H1534 H 0.76175 0.62122 0.63236 0.0
H1535 H 0.85139 0.62783 0.64912 0.0
H1536 H 0.83852 0.67806 0.65717 0.0
H1537 H 0.82792 0.57017 0.65149 0.0
H1538 H 0.83899 0.64971 0.61916 0.0
H1539 H 0.81724 0.68875 0.60524 0.0
H1540 H 0.75423 0.62173 0.5909 0.0
H1541 H 0.77549 0.58238 0.60484 0.0
C1542 C 0.94021 0.53736 0.61714 0.0
C1543 C 0.93973 0.51706 0.60722 0.0
C1544 C 0.91305 0.54491 0.62315 0.0
C1545 C 0.88483 0.5328 0.61919 0.0
C1546 C 0.88435 0.51153 0.60957 0.0
C1547 C 0.91182 0.50329 0.60373 0.0
C1548 C 0.85623 0.5464 0.6241 0.0
C1549 C 0.83982 0.56657 0.6165 0.0
C1550 C 0.85037 0.54625 0.63676 0.0
C1551 C 0.86588 0.52391 0.645 0.0
C1552 C 0.86612 0.49235 0.64213 0.0
C1553 C 0.88098 0.47132 0.64979 0.0
C1554 C 0.89567 0.48155 0.66038 0.0
C1555 C 0.89553 0.51283 0.66332 0.0
C1556 C 0.88072 0.53396 0.65569 0.0
C1557 C 0.7709 0.66268 0.64249 0.0
C1558 C 0.79261 0.67944 0.64932 0.0
C1559 C 0.77837 0.63348 0.6379 0.0
C1560 C 0.80755 0.62072 0.64016 0.0
C1561 C 0.82865 0.63704 0.64735 0.0
C1562 C 0.82133 0.66602 0.65184 0.0
C1563 C 0.81817 0.59195 0.63427 0.0
C1564 C 0.83113 0.56899 0.6417 0.0
C1565 C 0.8212 0.58972 0.62146 0.0
C1566 C 0.80849 0.61331 0.61313 0.0
C1567 C 0.82036 0.6434 0.61309 0.0
C1568 C 0.80816 0.66556 0.60519 0.0
C1569 C 0.78429 0.65775 0.59722 0.0
C1570 C 0.77265 0.62776 0.59711 0.0
C1571 C 0.78475 0.60553 0.605 0.0
H1572 H 0.77487 0.67493 0.59111 0.0
H1573 H 0.90717 0.46524 0.6663 0.0
H1574 H 0.795 0.65221 0.84952 0.0
H1575 H 0.78698 0.59859 0.85604 0.0
H1576 H 0.70459 0.62609 0.8751 0.0
H1577 H 0.7124 0.679 0.86865 0.0
H1578 H 0.73418 0.57928 0.88709 0.0
H1579 H 0.70066 0.60607 0.84429 0.0
H1580 H 0.71406 0.62191 0.82332 0.0
H1581 H 0.7795 0.54805 0.82102 0.0
H1582 H 0.76656 0.53199 0.84203 0.0
H1583 H 0.58861 0.54125 0.8649 0.0
H1584 H 0.6418 0.55007 0.85915 0.0
H1585 H 0.67109 0.47796 0.88367 0.0
H1586 H 0.6172 0.46905 0.88951 0.0
H1587 H 0.69454 0.5233 0.85095 0.0
H1588 H 0.72972 0.50778 0.89884 0.0
H1589 H 0.70857 0.49884 0.91947 0.0
H1590 H 0.63157 0.55723 0.91117 0.0
H1591 H 0.65246 0.5666 0.89055 0.0
C1592 C 0.77575 0.64681 0.85541 0.0
C1593 C 0.75402 0.66955 0.85844 0.0
C1594 C 0.77122 0.61624 0.85912 0.0
C1595 C 0.74511 0.60832 0.86599 0.0
C1596 C 0.72501 0.63163 0.86986 0.0
C1597 C 0.72931 0.66187 0.86608 0.0
C1598 C 0.73492 0.57601 0.8675 0.0
C1599 C 0.72664 0.56611 0.87923 0.0
C1600 C 0.7253 0.55862 0.85729 0.0
C1601 C 0.73287 0.56804 0.84469 0.0
C1602 C 0.71794 0.5933 0.83929 0.0
C1603 C 0.72546 0.60231 0.82742 0.0
C1604 C 0.74767 0.58603 0.82085 0.0
C1605 C 0.76236 0.56067 0.82613 0.0
C1606 C 0.75496 0.55161 0.83802 0.0
C1607 C 0.60625 0.52652 0.86875 0.0
C1608 C 0.59897 0.5049 0.87779 0.0
C1609 C 0.6367 0.53137 0.86538 0.0
C1610 C 0.66052 0.51496 0.8711 0.0
C1611 C 0.65306 0.49096 0.87919 0.0
C1612 C 0.62232 0.48588 0.8825 0.0
C1613 C 0.6919 0.52821 0.87046 0.0
C1614 C 0.70428 0.5345 0.85891 0.0
C1615 C 0.70486 0.54271 0.88082 0.0
C1616 C 0.6925 0.53767 0.89321 0.0
C1617 C 0.70833 0.51873 0.90147 0.0
C1618 C 0.69639 0.51359 0.91313 0.0
C1619 C 0.66871 0.52742 0.91662 0.0
C1620 C 0.65298 0.54652 0.90846 0.0
C1621 C 0.66487 0.55179 0.8968 0.0
H1622 H 0.65948 0.52336 0.92564 0.0
H1623 H 0.75347 0.59303 0.81166 0.0
H1624 H 0.44075 0.54713 0.86732 0.0
H1625 H 0.38711 0.55705 0.86255 0.0
H1626 H 0.35954 0.48234 0.88613 0.0
H1627 H 0.41388 0.47232 0.89099 0.0
H1628 H 0.33432 0.53054 0.8543 0.0
H1629 H 0.30057 0.51044 0.90208 0.0
H1630 H 0.32234 0.49933 0.92245 0.0
H1631 H 0.3994 0.55812 0.91473 0.0
H1632 H 0.37789 0.56966 0.89436 0.0
H1633 H 0.23403 0.65803 0.85441 0.0
H1634 H 0.24165 0.60426 0.86073 0.0
H1635 H 0.32378 0.63084 0.88022 0.0
H1636 H 0.31626 0.68398 0.87403 0.0
H1637 H 0.29552 0.58256 0.89147 0.0
H1638 H 0.32759 0.61329 0.8488 0.0
H1639 H 0.31315 0.63104 0.82816 0.0
H1640 H 0.24729 0.55764 0.82533 0.0
H1641 H 0.26128 0.53967 0.846 0.0
C1642 C 0.42335 0.53218 0.8712 0.0
C1643 C 0.43134 0.50936 0.87967 0.0
C1644 C 0.39264 0.53765 0.86838 0.0
C1645 C 0.36924 0.52066 0.87409 0.0
C1646 C 0.37724 0.49579 0.88166 0.0
C1647 C 0.40824 0.49008 0.88442 0.0
C1648 C 0.33773 0.53368 0.87385 0.0
C1649 C 0.32479 0.54088 0.86247 0.0
C1650 C 0.32502 0.54698 0.8845 0.0
C1651 C 0.33778 0.54068 0.89674 0.0
C1652 C 0.3221 0.52101 0.90477 0.0
C1653 C 0.33439 0.51464 0.9163 0.0
C1654 C 0.36227 0.52796 0.91987 0.0
C1655 C 0.37784 0.5478 0.91195 0.0
C1656 C 0.3656 0.55429 0.90043 0.0
C1657 C 0.25307 0.65244 0.8604 0.0
C1658 C 0.27491 0.67497 0.86357 0.0
C1659 C 0.25738 0.62175 0.86399 0.0
C1660 C 0.28345 0.61348 0.87084 0.0
C1661 C 0.30343 0.63662 0.87498 0.0
C1662 C 0.29929 0.66701 0.87134 0.0
C1663 C 0.29401 0.58115 0.87184 0.0
C1664 C 0.30289 0.57026 0.88337 0.0
C1665 C 0.30341 0.56483 0.86132 0.0
C1666 C 0.29527 0.57533 0.8489 0.0
C1667 C 0.31002 0.60101 0.84375 0.0
C1668 C 0.30191 0.61111 0.83207 0.0
C1669 C 0.27928 0.59551 0.82544 0.0
C1670 C 0.26477 0.56973 0.83048 0.0
C1671 C 0.27277 0.55959 0.84217 0.0
H1672 H 0.27301 0.60336 0.8164 0.0
H1673 H 0.37177 0.52293 0.92878 0.0
H1674 H 0.11898 0.54715 0.58765 0.0
H1675 H 0.16743 0.55349 0.59852 0.0
H1676 H 0.14393 0.47771 0.62222 0.0
H1677 H 0.09517 0.47095 0.61116 0.0
H1678 H 0.15322 0.53239 0.6342 0.0
H1679 H 0.20901 0.47195 0.60627 0.0
H1680 H 0.22526 0.45226 0.58621 0.0
H1681 H 0.26015 0.54151 0.57662 0.0
H1682 H 0.2437 0.56192 0.59654 0.0
H1683 H 0.26159 0.61201 0.66729 0.0
H1684 H 0.24597 0.56475 0.65679 0.0
H1685 H 0.24944 0.61283 0.62233 0.0
H1686 H 0.26692 0.65938 0.63279 0.0
H1687 H 0.25817 0.5534 0.61847 0.0
H1688 H 0.18455 0.61555 0.64144 0.0
H1689 H 0.16443 0.6397 0.66017 0.0
H1690 H 0.15919 0.55109 0.67745 0.0
H1691 H 0.17965 0.5265 0.65885 0.0
C1692 C 0.12446 0.53131 0.59498 0.0
C1693 C 0.1032 0.50884 0.59869 0.0
C1694 C 0.15234 0.53472 0.6011 0.0
C1695 C 0.1594 0.51593 0.61113 0.0
C1696 C 0.13901 0.49223 0.61442 0.0
C1697 C 0.1112 0.48845 0.60813 0.0
C1698 C 0.18477 0.52533 0.61933 0.0
C1699 C 0.17655 0.53591 0.63094 0.0
C1700 C 0.21492 0.53059 0.61494 0.0
C1701 C 0.22506 0.51848 0.60293 0.0
C1702 C 0.21998 0.48745 0.59986 0.0
C1703 C 0.22926 0.47615 0.58852 0.0
C1704 C 0.24373 0.49562 0.58015 0.0
C1705 C 0.24899 0.52644 0.58312 0.0
C1706 C 0.23975 0.53787 0.59446 0.0
C1707 C 0.26041 0.61189 0.65742 0.0
C1708 C 0.26528 0.63905 0.65078 0.0
C1709 C 0.25134 0.58501 0.65143 0.0
C1710 C 0.2456 0.58551 0.63882 0.0
C1711 C 0.25359 0.61187 0.63207 0.0
C1712 C 0.26351 0.63849 0.63803 0.0
C1713 C 0.22604 0.56159 0.63304 0.0
C1714 C 0.2353 0.54854 0.62192 0.0
C1715 C 0.19643 0.55458 0.63771 0.0
C1716 C 0.18399 0.56928 0.64885 0.0
C1717 C 0.17924 0.60128 0.64927 0.0
C1718 C 0.16779 0.61503 0.65985 0.0
C1719 C 0.16063 0.59695 0.67001 0.0
C1720 C 0.16483 0.56507 0.66959 0.0
C1721 C 0.17637 0.55121 0.65904 0.0
H1722 H 0.15176 0.60763 0.6782 0.0
H1723 H 0.25089 0.48682 0.57137 0.0
H1724 H 0.1541 0.49552 0.41091 0.0
H1725 H 0.20436 0.48452 0.40188 0.0
H1726 H 0.16429 0.49242 0.36594 0.0
H1727 H 0.11471 0.50525 0.37503 0.0
H1728 H 0.21053 0.43419 0.39151 0.0
H1729 H 0.21316 0.49462 0.34344 0.0
H1730 H 0.207 0.54691 0.33507 0.0
H1731 H 0.22926 0.58569 0.36997 0.0
H1732 H 0.23606 0.53366 0.37853 0.0
H1733 H 0.22906 0.36278 0.33273 0.0
H1734 H 0.22351 0.4112 0.34358 0.0
H1735 H 0.29804 0.38586 0.3676 0.0
H1736 H 0.30362 0.33677 0.35671 0.0
H1737 H 0.25569 0.46247 0.35154 0.0
H1738 H 0.27197 0.40073 0.39613 0.0
H1739 H 0.27578 0.34818 0.40464 0.0
H1740 H 0.21323 0.31502 0.3773 0.0
H1741 H 0.20886 0.36742 0.36873 0.0
C1742 C 0.1566 0.49647 0.40108 0.0
C1743 C 0.13085 0.50124 0.39361 0.0
C1744 C 0.18525 0.49008 0.39592 0.0
C1745 C 0.1883 0.4874 0.3832 0.0
C1746 C 0.16297 0.49494 0.37574 0.0
C1747 C 0.13449 0.50211 0.38093 0.0
C1748 C 0.21468 0.47009 0.37795 0.0
C1749 C 0.22132 0.44112 0.38302 0.0
C1750 C 0.22881 0.47869 0.36681 0.0
C1751 C 0.22509 0.51011 0.36165 0.0
C1752 C 0.21703 0.51426 0.34932 0.0
C1753 C 0.21334 0.54389 0.34454 0.0
C1754 C 0.21771 0.5696 0.35199 0.0
C1755 C 0.22582 0.56574 0.36422 0.0
C1756 C 0.22955 0.53618 0.36905 0.0
C1757 C 0.24479 0.36776 0.34014 0.0
C1758 C 0.26626 0.34571 0.34408 0.0
C1759 C 0.24184 0.39567 0.34625 0.0
C1760 C 0.26008 0.40198 0.35649 0.0
C1761 C 0.28363 0.38132 0.35974 0.0
C1762 C 0.28673 0.35329 0.35355 0.0
C1763 C 0.24981 0.42662 0.36488 0.0
C1764 C 0.24611 0.45667 0.36037 0.0
C1765 C 0.23833 0.41923 0.37658 0.0
C1766 C 0.24044 0.38779 0.38173 0.0
C1767 C 0.25904 0.38218 0.39196 0.0
C1768 C 0.26128 0.35246 0.39679 0.0
C1769 C 0.24485 0.32826 0.39148 0.0
C1770 C 0.22602 0.33376 0.38138 0.0
C1771 C 0.22365 0.36345 0.37654 0.0
H1772 H 0.24666 0.30526 0.39522 0.0
H1773 H 0.21482 0.59251 0.34827 0.0
H1774 H 0.41316 0.53327 0.09909 0.0
H1775 H 0.36479 0.52736 0.11043 0.0
H1776 H 0.34027 0.45019 0.08766 0.0
H1777 H 0.38779 0.45619 0.07629 0.0
H1778 H 0.28891 0.48111 0.09509 0.0
H1779 H 0.38538 0.44007 0.11353 0.0
H1780 H 0.4373 0.4476 0.12219 0.0
H1781 H 0.40098 0.51243 0.14799 0.0
H1782 H 0.34889 0.50543 0.13937 0.0
H1783 H 0.25335 0.34087 0.12064 0.0
H1784 H 0.26322 0.39033 0.11089 0.0
H1785 H 0.26791 0.43386 0.14625 0.0
H1786 H 0.25984 0.38377 0.15596 0.0
H1787 H 0.31811 0.44192 0.13595 0.0
H1788 H 0.21796 0.46113 0.12223 0.0
H1789 H 0.16655 0.45088 0.11364 0.0
H1790 H 0.20721 0.42693 0.07927 0.0
H1791 H 0.25891 0.43653 0.08768 0.0
C1792 C 0.39701 0.51562 0.09631 0.0
C1793 C 0.40459 0.49469 0.08701 0.0
C1794 C 0.36937 0.51232 0.10277 0.0
C1795 C 0.34914 0.48804 0.1 0.0
C1796 C 0.35546 0.46909 0.08997 0.0
C1797 C 0.38291 0.47231 0.08357 0.0
C1798 C 0.32474 0.47816 0.10859 0.0
C1799 C 0.29491 0.47282 0.10411 0.0
C1800 C 0.33228 0.4685 0.12053 0.0
C1801 C 0.36345 0.47253 0.12574 0.0
C1802 C 0.38856 0.45601 0.12102 0.0
C1803 C 0.41798 0.46018 0.12591 0.0
C1804 C 0.42245 0.48056 0.13561 0.0
C1805 C 0.39749 0.49673 0.14045 0.0
C1806 C 0.36804 0.49268 0.13557 0.0
C1807 C 0.25505 0.3613 0.12627 0.0
C1808 C 0.2559 0.35878 0.13899 0.0
C1809 C 0.26054 0.38972 0.1207 0.0
C1810 C 0.2664 0.41608 0.12781 0.0
C1811 C 0.2636 0.41396 0.14055 0.0
C1812 C 0.25887 0.38541 0.14611 0.0
C1813 C 0.28244 0.44286 0.12221 0.0
C1814 C 0.31094 0.4514 0.12725 0.0
C1815 C 0.2735 0.45536 0.11081 0.0
C1816 C 0.24241 0.4496 0.10562 0.0
C1817 C 0.21599 0.45352 0.11286 0.0
C1818 C 0.18677 0.44784 0.10802 0.0
C1819 C 0.18362 0.43828 0.09592 0.0
C1820 C 0.20968 0.43441 0.08864 0.0
C1821 C 0.23896 0.44005 0.09343 0.0
H1822 H 0.16097 0.43387 0.09219 0.0
H1823 H 0.44525 0.48376 0.13939 0.0
loop_
_geom_bond_atom_site_label_1
_geom_bond_atom_site_label_2
_geom_bond_distance
_geom_bond_site_symmetry_2
_ccdc_geom_bond_type
Zn0 O3 2.031 . S
Zn0 O5 2.049 . S
Zn0 O10 2.067 1_455 S
Zn1 O2 1.962 . S
Zn1 O4 1.986 . S
Zn1 O6 1.996 . S
Zn1 O9 1.943 1_455 S
O2 Zn1 1.962 . S
O2 C7 1.254 1_545 S
O3 Zn0 2.031 . S
O3 C7 1.269 . S
O4 Zn1 1.986 . S
O4 C11 1.262 . S
O5 Zn0 2.049 . S
O5 C13 1.260 1_565 S
O6 Zn1 1.996 . S
O6 C13 1.257 . S
C7 O2 1.254 1_565 S
C7 O3 1.269 . S
C8 O9 1.236 1_565 S
C8 O10 1.280 . S
O9 Zn1 1.943 1_655 S
O9 C8 1.236 1_545 S
O10 Zn0 2.067 1_655 S
O10 C8 1.280 . S
C11 O4 1.262 . S
C11 O12 1.232 . S
O12 C11 1.232 . S
C13 O5 1.260 1_545 S
C13 O6 1.257 . S
Zn14 O17 2.031 . S
Zn14 O19 2.049 . S
Zn14 O24 2.067 . S
Zn15 O16 1.962 . S
Zn15 O18 1.986 . S
Zn15 O20 1.996 . S
Zn15 O23 1.943 . S
O16 Zn15 1.962 . S
O16 C21 1.254 . S
O17 Zn14 2.031 . S
O17 C21 1.269 . S
O18 Zn15 1.986 . S
O18 C25 1.262 . S
O19 Zn14 2.049 . S
O19 C27 1.260 . S
O20 Zn15 1.996 . S
O20 C27 1.257 . S
C21 O16 1.254 . S
C21 O17 1.269 . S
C22 O23 1.249 . S
C22 O24 1.270 . S
O23 Zn15 1.943 . S
O23 C22 1.249 . S
O24 Zn14 2.067 . S
O24 C22 1.270 . S
C25 O18 1.262 . S
C25 O26 1.232 . S
O26 C25 1.232 . S
C27 O19 1.260 . S
C27 O20 1.257 . S
Zn28 O31 2.031 . S
Zn28 O33 2.049 . S
Zn28 O38 2.067 . S
Zn29 O30 1.962 . S
Zn29 O32 1.986 . S
Zn29 O34 1.996 . S
Zn29 O37 1.943 . S
O30 Zn29 1.962 . S
O30 C35 1.254 1_565 S
O31 Zn28 2.031 . S
O31 C35 1.269 . S
O32 Zn29 1.986 . S
O32 C39 1.262 . S
O33 Zn28 2.049 . S
O33 C41 1.260 1_545 S
O34 Zn29 1.996 . S
O34 C41 1.257 . S
C35 O30 1.254 1_545 S
C35 O31 1.269 . S
C36 O37 1.236 1_545 S
C36 O38 1.280 . S
O37 Zn29 1.943 . S
O37 C36 1.236 1_565 S
O38 Zn28 2.067 . S
O38 C36 1.280 . S
C39 O32 1.262 . S
C39 O40 1.232 . S
O40 C39 1.232 . S
C41 O33 1.260 1_565 S
C41 O34 1.257 . S
Zn42 O45 2.031 . S
Zn42 O47 2.049 . S
Zn42 O52 2.067 . S
Zn43 O44 1.962 . S
Zn43 O46 1.986 . S
Zn43 O48 1.996 . S
Zn43 O51 1.943 . S
O44 Zn43 1.962 . S
O44 C49 1.254 . S
O45 Zn42 2.031 . S
O45 C49 1.269 . S
O46 Zn43 1.986 . S
O46 C53 1.262 . S
O47 Zn42 2.049 . S
O47 C55 1.260 . S
O48 Zn43 1.996 . S
O48 C55 1.257 . S
C49 O44 1.254 . S
C49 O45 1.269 . S
C50 O51 1.249 . S
C50 O52 1.270 . S
O51 Zn43 1.943 . S
O51 C50 1.249 . S
O52 Zn42 2.067 . S
O52 C50 1.270 . S
C53 O46 1.262 . S
C53 O54 1.232 . S
O54 C53 1.232 . S
C55 O47 1.260 . S
C55 O48 1.257 . S
Zn56 O59 2.031 . S
Zn56 O61 2.049 . S
Zn56 O66 2.067 1_455 S
Zn57 O58 1.962 . S
Zn57 O60 1.986 . S
Zn57 O62 1.996 . S
Zn57 O65 1.943 1_455 S
O58 Zn57 1.962 . S
O58 C63 1.254 1_565 S
O59 Zn56 2.031 . S
O59 C63 1.269 . S
O60 Zn57 1.986 . S
O60 C67 1.262 . S
O61 Zn56 2.049 . S
O61 C69 1.260 1_545 S
O62 Zn57 1.996 . S
O62 C69 1.257 . S
C63 O58 1.254 1_545 S
C63 O59 1.269 . S
C64 O65 1.236 1_545 S
C64 O66 1.280 . S
O65 Zn57 1.943 1_655 S
O65 C64 1.236 1_565 S
O66 Zn56 2.067 1_655 S
O66 C64 1.280 . S
C67 O60 1.262 . S
C67 O68 1.232 . S
O68 C67 1.232 . S
C69 O61 1.260 1_565 S
C69 O62 1.257 . S
Zn70 O73 2.031 . S
Zn70 O75 2.049 . S
Zn70 O80 2.067 . S
Zn71 O72 1.962 . S
Zn71 O74 1.986 . S
Zn71 O76 1.996 . S
Zn71 O79 1.943 . S
O72 Zn71 1.962 . S
O72 C77 1.254 . S
O73 Zn70 2.031 . S
O73 C77 1.269 . S
O74 Zn71 1.986 . S
O74 C81 1.262 . S
O75 Zn70 2.049 . S
O75 C83 1.260 . S
O76 Zn71 1.996 . S
O76 C83 1.257 . S
C77 O72 1.254 . S
C77 O73 1.269 . S
C78 O79 1.249 . S
C78 O80 1.270 . S
O79 Zn71 1.943 . S
O79 C78 1.249 . S
O80 Zn70 2.067 . S
O80 C78 1.270 . S
C81 O74 1.262 . S
C81 O82 1.232 . S
O82 C81 1.232 . S
C83 O75 1.260 . S
C83 O76 1.257 . S
Zn84 O87 2.031 . S
Zn84 O89 2.049 . S
Zn84 O94 2.067 . S
Zn85 O86 1.962 . S
Zn85 O88 1.986 . S
Zn85 O90 1.996 . S
Zn85 O93 1.943 . S
O86 Zn85 1.962 . S
O86 C91 1.254 1_545 S
O87 Zn84 2.031 . S
O87 C91 1.269 . S
O88 Zn85 1.986 . S
O88 C95 1.262 . S
O89 Zn84 2.049 . S
O89 C97 1.260 1_565 S
O90 Zn85 1.996 . S
O90 C97 1.257 . S
C91 O86 1.254 1_565 S
C91 O87 1.269 . S
C92 O93 1.236 1_565 S
C92 O94 1.280 . S
O93 Zn85 1.943 . S
O93 C92 1.236 1_545 S
O94 Zn84 2.067 . S
O94 C92 1.280 . S
C95 O88 1.262 . S
C95 O96 1.232 . S
O96 C95 1.232 . S
C97 O89 1.260 1_545 S
C97 O90 1.257 . S
Zn98 O101 2.031 . S
Zn98 O103 2.049 . S
Zn98 O108 2.067 . S
Zn99 O100 1.962 . S
Zn99 O102 1.986 . S
Zn99 O104 1.996 . S
Zn99 O107 1.943 . S
O100 Zn99 1.962 . S
O100 C105 1.254 . S
O101 Zn98 2.031 . S
O101 C105 1.269 . S
O102 Zn99 1.986 . S
O102 C109 1.262 . S
O103 Zn98 2.049 . S
O103 C111 1.260 . S
O104 Zn99 1.996 . S
O104 C111 1.257 . S
C105 O100 1.254 . S
C105 O101 1.269 . S
C106 O107 1.249 . S
C106 O108 1.270 . S
O107 Zn99 1.943 . S
O107 C106 1.249 . S
O108 Zn98 2.067 . S
O108 C106 1.270 . S
C109 O102 1.262 . S
C109 O110 1.232 . S
O110 C109 1.232 . S
C111 O103 1.260 . S
C111 O104 1.257 . S
Zn112 O115 2.031 . S
Zn112 O117 2.049 . S
Zn112 O122 2.067 . S
Zn113 O114 1.962 . S
Zn113 O116 1.986 . S
Zn113 O118 1.996 . S
Zn113 O121 1.943 . S
O114 Zn113 1.962 . S
O114 C119 1.254 . S
O115 Zn112 2.031 . S
O115 C119 1.269 . S
O116 Zn113 1.986 . S
O116 C123 1.262 . S
O117 Zn112 2.049 . S
O117 C125 1.260 . S
O118 Zn113 1.996 . S
O118 C125 1.257 . S
C119 O114 1.254 . S
C119 O115 1.269 . S
C120 O121 1.249 . S
C120 O122 1.270 . S
O121 Zn113 1.943 . S
O121 C120 1.249 . S
O122 Zn112 2.067 . S
O122 C120 1.270 . S
C123 O116 1.262 . S
C123 O124 1.232 . S
O124 C123 1.232 . S
C125 O117 1.260 . S
C125 O118 1.257 . S
Zn126 O129 2.031 . S
Zn126 O131 2.049 . S
Zn126 O136 2.067 . S
Zn127 O128 1.962 . S
Zn127 O130 1.986 . S
Zn127 O132 1.996 . S
Zn127 O135 1.943 . S
O128 Zn127 1.962 . S
O128 C133 1.254 . S
O129 Zn126 2.031 . S
O129 C133 1.269 . S
O130 Zn127 1.986 . S
O130 C137 1.262 . S
O131 Zn126 2.049 . S
O131 C139 1.260 . S
O132 Zn127 1.996 . S
O132 C139 1.257 . S
C133 O128 1.254 . S
C133 O129 1.269 . S
C134 O135 1.249 . S
C134 O136 1.270 . S
O135 Zn127 1.943 . S
O135 C134 1.249 . S
O136 Zn126 2.067 . S
O136 C134 1.270 . S
C137 O130 1.262 . S
C137 O138 1.232 . S
O138 C137 1.232 . S
C139 O131 1.260 . S
C139 O132 1.257 . S
Zn140 O143 2.031 . S
Zn140 O145 2.049 . S
Zn140 O150 2.067 . S
Zn141 O142 1.962 . S
Zn141 O144 1.986 . S
Zn141 O146 1.996 . S
Zn141 O149 1.943 . S
O142 Zn141 1.962 . S
O142 C147 1.254 . S
O143 Zn140 2.031 . S
O143 C147 1.269 . S
O144 Zn141 1.986 . S
O144 C151 1.262 . S
O145 Zn140 2.049 . S
O145 C153 1.260 . S
O146 Zn141 1.996 . S
O146 C153 1.257 . S
C147 O142 1.254 . S
C147 O143 1.269 . S
C148 O149 1.249 . S
C148 O150 1.270 . S
O149 Zn141 1.943 . S
O149 C148 1.249 . S
O150 Zn140 2.067 . S
O150 C148 1.270 . S
C151 O144 1.262 . S
C151 O152 1.232 . S
O152 C151 1.232 . S
C153 O145 1.260 . S
C153 O146 1.257 . S
Zn154 O157 2.031 . S
Zn154 O159 2.049 . S
Zn154 O164 2.067 . S
Zn155 O156 1.962 . S
Zn155 O158 1.986 . S
Zn155 O160 1.996 . S
Zn155 O163 1.943 . S
O156 Zn155 1.962 . S
O156 C161 1.254 . S
O157 Zn154 2.031 . S
O157 C161 1.269 . S
O158 Zn155 1.986 . S
O158 C165 1.262 . S
O159 Zn154 2.049 . S
O159 C167 1.260 . S
O160 Zn155 1.996 . S
O160 C167 1.257 . S
C161 O156 1.254 . S
C161 O157 1.269 . S
C162 O163 1.249 . S
C162 O164 1.270 . S
O163 Zn155 1.943 . S
O163 C162 1.249 . S
O164 Zn154 2.067 . S
O164 C162 1.270 . S
C165 O158 1.262 . S
C165 O166 1.232 . S
O166 C165 1.232 . S
C167 O159 1.260 . S
C167 O160 1.257 . S
Zn168 O171 2.031 . S
Zn168 O173 2.049 . S
Zn168 O178 2.067 . S
Zn169 O170 1.962 . S
Zn169 O172 1.986 . S
Zn169 O174 1.996 . S
Zn169 O177 1.943 . S
O170 Zn169 1.962 . S
O170 C175 1.254 . S
O171 Zn168 2.031 . S
O171 C175 1.269 . S
O172 Zn169 1.986 . S
O172 C179 1.262 . S
O173 Zn168 2.049 . S
O173 C181 1.260 . S
O174 Zn169 1.996 . S
O174 C181 1.257 . S
C175 O170 1.254 . S
C175 O171 1.269 . S
C176 O177 1.249 . S
C176 O178 1.270 . S
O177 Zn169 1.943 . S
O177 C176 1.249 . S
O178 Zn168 2.067 . S
O178 C176 1.270 . S
C179 O172 1.262 . S
C179 O180 1.232 . S
O180 C179 1.232 . S
C181 O173 1.260 . S
C181 O174 1.257 . S
Zn182 O185 2.031 . S
Zn182 O187 2.049 . S
Zn182 O192 2.067 . S
Zn183 O184 1.962 1_455 S
Zn183 O186 1.986 . S
Zn183 O188 1.996 . S
Zn183 O191 1.943 . S
O184 Zn183 1.962 1_655 S
O184 C189 1.254 . S
O185 Zn182 2.031 . S
O185 C189 1.269 1_455 S
O186 Zn183 1.986 . S
O186 C193 1.262 . S
O187 Zn182 2.049 . S
O187 C195 1.260 . S
O188 Zn183 1.996 . S
O188 C195 1.257 . S
C189 O184 1.254 . S
C189 O185 1.269 1_655 S
C190 O191 1.249 . S
C190 O192 1.270 . S
O191 Zn183 1.943 . S
O191 C190 1.249 . S
O192 Zn182 2.067 . S
O192 C190 1.270 . S
C193 O186 1.262 . S
C193 O194 1.232 . S
O194 C193 1.232 . S
C195 O187 1.260 . S
C195 O188 1.257 . S
Zn196 O199 2.031 . S
Zn196 O201 2.049 . S
Zn196 O206 2.067 . S
Zn197 O198 1.962 . S
Zn197 O200 1.986 . S
Zn197 O202 1.996 . S
Zn197 O205 1.943 . S
O198 Zn197 1.962 . S
O198 C203 1.254 . S
O199 Zn196 2.031 . S
O199 C203 1.269 . S
O200 Zn197 1.986 . S
O200 C207 1.262 . S
O201 Zn196 2.049 . S
O201 C209 1.260 . S
O202 Zn197 1.996 . S
O202 C209 1.257 . S
C203 O198 1.254 . S
C203 O199 1.269 . S
C204 O205 1.249 . S
C204 O206 1.270 . S
O205 Zn197 1.943 . S
O205 C204 1.249 . S
O206 Zn196 2.067 . S
O206 C204 1.270 . S
C207 O200 1.262 . S
C207 O208 1.232 . S
O208 C207 1.232 . S
C209 O201 1.260 . S
C209 O202 1.257 . S
Zn210 O213 2.031 . S
Zn210 O215 2.049 . S
Zn210 O220 2.067 . S
Zn211 O212 1.962 1_455 S
Zn211 O214 1.986 . S
Zn211 O216 1.996 . S
Zn211 O219 1.943 . S
O212 Zn211 1.962 1_655 S
O212 C217 1.254 . S
O213 Zn210 2.031 . S
O213 C217 1.269 1_455 S
O214 Zn211 1.986 . S
O214 C221 1.262 . S
O215 Zn210 2.049 . S
O215 C223 1.260 . S
O216 Zn211 1.996 . S
O216 C223 1.257 . S
C217 O212 1.254 . S
C217 O213 1.269 1_655 S
C218 O219 1.249 . S
C218 O220 1.270 . S
O219 Zn211 1.943 . S
O219 C218 1.249 . S
O220 Zn210 2.067 . S
O220 C218 1.270 . S
C221 O214 1.262 . S
C221 O222 1.232 . S
O222 C221 1.232 . S
C223 O215 1.260 . S
C223 O216 1.257 . S
H224 C242 0.951 . S
H225 C244 0.951 . S
H226 C246 0.950 . S
H227 C247 0.950 . S
H228 C249 0.950 . S
H229 C252 0.950 . S
H230 C253 0.950 . S
H231 C255 0.950 1_455 S
H232 C256 0.950 . S
H233 C257 0.951 1_655 S
H234 C259 0.951 1_655 S
H235 C261 0.950 . S
H236 C262 0.950 . S
H237 C264 0.950 . S
H238 C267 0.950 . S
H239 C268 0.950 . S
H240 C270 0.950 . S
H241 C271 0.950 . S
C242 H224 0.951 . S
C242 C243 1.366 . S
C242 C244 1.388 . S
C243 C242 1.366 . S
C243 C247 1.385 1_455 S
C244 H225 0.951 . S
C244 C242 1.388 . S
C244 C245 1.366 . S
C245 C244 1.366 . S
C245 C246 1.414 1_455 S
C245 C248 1.499 . S
C246 H226 0.950 . S
C246 C245 1.414 1_655 S
C246 C247 1.374 . S
C247 H227 0.950 . S
C247 C243 1.385 1_655 S
C247 C246 1.374 . S
C248 C245 1.499 . S
C248 C249 1.373 . S
C248 C250 1.389 . S
C249 H228 0.950 . S
C249 C248 1.373 . S
C249 C265 1.377 . S
C250 C248 1.389 . S
C250 C251 1.524 1_455 S
C250 C264 1.377 . S
C251 C250 1.524 1_655 S
C251 C252 1.397 . S
C251 C256 1.363 1_655 S
C252 H229 0.950 . S
C252 C251 1.397 . S
C252 C253 1.334 . S
C253 H230 0.950 . S
C253 C252 1.334 . S
C253 C254 1.287 . S
C254 C253 1.287 . S
C254 C255 1.524 . S
C254 H273 0.913 . S
C255 H231 0.950 1_655 S
C255 C254 1.524 . S
C255 C256 1.415 1_655 S
C256 H232 0.950 . S
C256 C251 1.363 1_455 S
C256 C255 1.415 1_455 S
C257 H233 0.951 1_455 S
C257 C258 1.366 . S
C257 C259 1.388 . S
C258 C257 1.366 . S
C258 C262 1.385 . S
C259 H234 0.951 1_455 S
C259 C257 1.388 . S
C259 C260 1.366 . S
C260 C259 1.366 . S
C260 C261 1.414 . S
C260 C263 1.499 . S
C261 H235 0.950 . S
C261 C260 1.414 . S
C261 C262 1.374 . S
C262 H236 0.950 . S
C262 C258 1.385 . S
C262 C261 1.374 . S
C263 C260 1.499 . S
C263 C264 1.373 . S
C263 C265 1.389 . S
C264 H237 0.950 . S
C264 C250 1.377 . S
C264 C263 1.373 . S
C265 C249 1.377 . S
C265 C263 1.389 . S
C265 C266 1.524 . S
C266 C265 1.524 . S
C266 C267 1.397 . S
C266 C271 1.363 . S
C267 H238 0.950 . S
C267 C266 1.397 . S
C267 C268 1.334 . S
C268 H239 0.950 . S
C268 C267 1.334 . S
C268 C269 1.287 . S
C269 C268 1.287 . S
C269 C270 1.524 . S
C269 H272 0.999 . S
C270 H240 0.950 . S
C270 C269 1.524 . S
C270 C271 1.415 . S
C271 H241 0.950 . S
C271 C266 1.363 . S
C271 C270 1.415 . S
H272 C269 0.999 . S
H273 C254 0.913 . S
H274 C292 0.951 . S
H275 C294 0.951 . S
H276 C296 0.950 . S
H277 C297 0.950 . S
H278 C299 0.947 1_655 S
H279 C302 0.950 . S
H280 C303 0.950 . S
H281 C305 0.950 . S
H282 C306 0.935 1_455 S
H283 C307 0.951 . S
H284 C309 0.951 . S
H285 C311 0.950 . S
H286 C312 0.950 . S
H287 C314 0.950 . S
H288 C317 0.950 . S
H289 C318 0.950 . S
H290 C320 0.950 . S
H291 C321 0.950 . S
C292 H274 0.951 . S
C292 C293 1.366 . S
C292 C294 1.388 . S
C293 C292 1.366 . S
C293 C297 1.385 . S
C294 H275 0.951 . S
C294 C292 1.388 . S
C294 C295 1.366 . S
C295 C294 1.366 . S
C295 C296 1.414 . S
C295 C298 1.499 . S
C296 H276 0.950 . S
C296 C295 1.414 . S
C296 C297 1.374 . S
C297 H277 0.950 . S
C297 C293 1.385 . S
C297 C296 1.374 . S
C298 C295 1.499 . S
C298 C299 1.371 1_655 S
C298 C300 1.389 1_655 S
C299 H278 0.947 1_455 S
C299 C298 1.371 1_455 S
C299 C315 1.382 . S
C300 C298 1.389 1_455 S
C300 C301 1.524 1_455 S
C300 C314 1.377 . S
C301 C300 1.524 1_655 S
C301 C302 1.397 . S
C301 C306 1.370 . S
C302 H279 0.950 . S
C302 C301 1.397 . S
C302 C303 1.334 . S
C303 H280 0.950 . S
C303 C302 1.334 . S
C303 C304 1.287 . S
C304 C303 1.287 . S
C304 C305 1.524 . S
C304 H323 0.913 . S
C305 H281 0.950 . S
C305 C304 1.524 . S
C305 C306 1.423 . S
C306 H282 0.935 1_655 S
C306 C301 1.370 . S
C306 C305 1.423 . S
C307 H283 0.951 . S
C307 C308 1.366 . S
C307 C309 1.388 . S
C308 C307 1.366 . S
C308 C312 1.385 . S
C309 H284 0.951 . S
C309 C307 1.388 . S
C309 C310 1.366 . S
C310 C309 1.366 . S
C310 C311 1.414 . S
C310 C313 1.499 . S
C311 H285 0.950 . S
C311 C310 1.414 . S
C311 C312 1.374 . S
C312 H286 0.950 . S
C312 C308 1.385 . S
C312 C311 1.374 . S
C313 C310 1.499 . S
C313 C314 1.373 . S
C313 C315 1.389 . S
C314 H287 0.950 . S
C314 C300 1.377 . S
C314 C313 1.373 . S
C315 C299 1.382 . S
C315 C313 1.389 . S
C315 C316 1.524 . S
C316 C315 1.524 . S
C316 C317 1.397 . S
C316 C321 1.363 . S
C317 H288 0.950 . S
C317 C316 1.397 . S
C317 C318 1.334 . S
C318 H289 0.950 . S
C318 C317 1.334 . S
C318 C319 1.287 . S
C319 C318 1.287 . S
C319 C320 1.524 . S
C319 H322 0.999 . S
C320 H290 0.950 . S
C320 C319 1.524 . S
C320 C321 1.415 . S
C321 H291 0.950 . S
C321 C316 1.363 . S
C321 C320 1.415 . S
H322 C319 0.999 . S
H323 C304 0.913 . S
H324 C342 0.951 . S
H325 C344 0.951 . S
H326 C346 0.950 . S
H327 C347 0.950 . S
H328 C349 0.950 . S
H329 C352 0.950 . S
H330 C353 0.950 . S
H331 C355 0.950 . S
H332 C356 0.950 . S
H333 C357 0.951 . S
H334 C359 0.951 . S
H335 C361 0.950 . S
H336 C362 0.950 . S
H337 C364 0.950 . S
H338 C367 0.950 . S
H339 C368 0.950 . S
H340 C370 0.950 . S
H341 C371 0.950 . S
C342 H324 0.951 . S
C342 C343 1.366 . S
C342 C344 1.388 . S
C343 C342 1.366 . S
C343 C347 1.385 . S
C344 H325 0.951 . S
C344 C342 1.388 . S
C344 C345 1.366 . S
C345 C344 1.366 . S
C345 C346 1.414 . S
C345 C348 1.499 . S
C346 H326 0.950 . S
C346 C345 1.414 . S
C346 C347 1.374 . S
C347 H327 0.950 . S
C347 C343 1.385 . S
C347 C346 1.374 . S
C348 C345 1.499 . S
C348 C349 1.373 . S
C348 C350 1.389 . S
C349 H328 0.950 . S
C349 C348 1.373 . S
C349 C365 1.377 . S
C350 C348 1.389 . S
C350 C351 1.524 . S
C350 C364 1.377 . S
C351 C350 1.524 . S
C351 C352 1.397 . S
C351 C356 1.363 . S
C352 H329 0.950 . S
C352 C351 1.397 . S
C352 C353 1.334 . S
C353 H330 0.950 . S
C353 C352 1.334 . S
C353 C354 1.287 . S
C354 C353 1.287 . S
C354 C355 1.524 . S
C354 H373 0.913 . S
C355 H331 0.950 . S
C355 C354 1.524 . S
C355 C356 1.415 . S
C356 H332 0.950 . S
C356 C351 1.363 . S
C356 C355 1.415 . S
C357 H333 0.951 . S
C357 C358 1.366 . S
C357 C359 1.388 . S
C358 C357 1.366 . S
C358 C362 1.385 . S
C359 H334 0.951 . S
C359 C357 1.388 . S
C359 C360 1.366 . S
C360 C359 1.366 . S
C360 C361 1.414 . S
C360 C363 1.499 . S
C361 H335 0.950 . S
C361 C360 1.414 . S
C361 C362 1.374 . S
C362 H336 0.950 . S
C362 C358 1.385 . S
C362 C361 1.374 . S
C363 C360 1.499 . S
C363 C364 1.373 . S
C363 C365 1.389 . S
C364 H337 0.950 . S
C364 C350 1.377 . S
C364 C363 1.373 . S
C365 C349 1.377 . S
C365 C363 1.389 . S
C365 C366 1.524 . S
C366 C365 1.524 . S
C366 C367 1.397 . S
C366 C371 1.363 . S
C367 H338 0.950 . S
C367 C366 1.397 . S
C367 C368 1.334 . S
C368 H339 0.950 . S
C368 C367 1.334 . S
C368 C369 1.287 . S
C369 C368 1.287 . S
C369 C370 1.524 . S
C369 H372 0.999 . S
C370 H340 0.950 . S
C370 C369 1.524 . S
C370 C371 1.415 . S
C371 H341 0.950 . S
C371 C366 1.363 . S
C371 C370 1.415 . S
H372 C369 0.999 . S
H373 C354 0.913 . S
H374 C392 0.951 . S
H375 C394 0.951 . S
H376 C396 0.950 . S
H377 C397 0.950 . S
H378 C399 0.950 . S
H379 C402 0.950 . S
H380 C403 0.950 . S
H381 C405 0.950 . S
H382 C406 0.950 . S
H383 C407 0.951 . S
H384 C409 0.951 . S
H385 C411 0.950 . S
H386 C412 0.950 . S
H387 C414 0.950 . S
H388 C417 0.950 . S
H389 C418 0.950 . S
H390 C420 0.950 . S
H391 C421 0.950 . S
C392 H374 0.951 . S
C392 C393 1.366 . S
C392 C394 1.388 . S
C393 C392 1.366 . S
C393 C397 1.385 . S
C394 H375 0.951 . S
C394 C392 1.388 . S
C394 C395 1.366 . S
C395 C394 1.366 . S
C395 C396 1.414 . S
C395 C398 1.499 . S
C396 H376 0.950 . S
C396 C395 1.414 . S
C396 C397 1.374 . S
C397 H377 0.950 . S
C397 C393 1.385 . S
C397 C396 1.374 . S
C398 C395 1.499 . S
C398 C399 1.373 . S
C398 C400 1.389 . S
C399 H378 0.950 . S
C399 C398 1.373 . S
C399 C415 1.377 . S
C400 C398 1.389 . S
C400 C401 1.524 . S
C400 C414 1.377 . S
C401 C400 1.524 . S
C401 C402 1.397 . S
C401 C406 1.363 . S
C402 H379 0.950 . S
C402 C401 1.397 . S
C402 C403 1.334 . S
C403 H380 0.950 . S
C403 C402 1.334 . S
C403 C404 1.287 . S
C404 C403 1.287 . S
C404 C405 1.524 . S
C404 H423 0.913 . S
C405 H381 0.950 . S
C405 C404 1.524 . S
C405 C406 1.415 . S
C406 H382 0.950 . S
C406 C401 1.363 . S
C406 C405 1.415 . S
C407 H383 0.951 . S
C407 C408 1.366 . S
C407 C409 1.388 . S
C408 C407 1.366 . S
C408 C412 1.385 . S
C409 H384 0.951 . S
C409 C407 1.388 . S
C409 C410 1.366 . S
C410 C409 1.366 . S
C410 C411 1.414 . S
C410 C413 1.499 . S
C411 H385 0.950 . S
C411 C410 1.414 . S
C411 C412 1.374 . S
C412 H386 0.950 . S
C412 C408 1.385 . S
C412 C411 1.374 . S
C413 C410 1.499 . S
C413 C414 1.373 . S
C413 C415 1.389 . S
C414 H387 0.950 . S
C414 C400 1.377 . S
C414 C413 1.373 . S
C415 C399 1.377 . S
C415 C413 1.389 . S
C415 C416 1.524 . S
C416 C415 1.524 . S
C416 C417 1.397 . S
C416 C421 1.363 . S
C417 H388 0.950 . S
C417 C416 1.397 . S
C417 C418 1.334 . S
C418 H389 0.950 . S
C418 C417 1.334 . S
C418 C419 1.287 . S
C419 C418 1.287 . S
C419 C420 1.524 . S
C419 H422 0.999 . S
C420 H390 0.950 . S
C420 C419 1.524 . S
C420 C421 1.415 . S
C421 H391 0.950 . S
C421 C416 1.363 . S
C421 C420 1.415 . S
H422 C419 0.999 . S
H423 C404 0.913 . S
H424 C442 0.951 . S
H425 C444 0.951 . S
H426 C446 0.950 . S
H427 C447 0.950 . S
H428 C449 0.950 . S
H429 C452 0.950 . S
H430 C453 0.950 . S
H431 C455 0.950 . S
H432 C456 0.950 . S
H433 C457 0.951 . S
H434 C459 0.951 . S
H435 C461 0.950 . S
H436 C462 0.950 . S
H437 C464 0.950 1_655 S
H438 C467 0.950 . S
H439 C468 0.950 . S
H440 C470 0.950 . S
H441 C471 0.950 . S
C442 H424 0.951 . S
C442 C443 1.366 1_655 S
C442 C444 1.388 . S
C443 C442 1.366 1_455 S
C443 C447 1.385 . S
C444 H425 0.951 . S
C444 C442 1.388 . S
C444 C445 1.366 1_655 S
C445 C444 1.366 1_455 S
C445 C446 1.414 . S
C445 C448 1.499 . S
C446 H426 0.950 . S
C446 C445 1.414 . S
C446 C447 1.374 . S
C447 H427 0.950 . S
C447 C443 1.385 . S
C447 C446 1.374 . S
C448 C445 1.499 . S
C448 C449 1.373 . S
C448 C450 1.389 . S
C449 H428 0.950 . S
C449 C448 1.373 . S
C449 C465 1.377 . S
C450 C448 1.389 . S
C450 C451 1.524 1_455 S
C450 C464 1.377 . S
C451 C450 1.524 1_655 S
C451 C452 1.397 1_655 S
C451 C456 1.363 . S
C452 H429 0.950 . S
C452 C451 1.397 1_455 S
C452 C453 1.334 . S
C453 H430 0.950 . S
C453 C452 1.334 . S
C453 C454 1.287 1_455 S
C454 C453 1.287 1_655 S
C454 C455 1.524 . S
C454 H473 0.913 . S
C455 H431 0.950 . S
C455 C454 1.524 . S
C455 C456 1.415 . S
C456 H432 0.950 . S
C456 C451 1.363 . S
C456 C455 1.415 . S
C457 H433 0.951 . S
C457 C458 1.366 . S
C457 C459 1.388 . S
C458 C457 1.366 . S
C458 C462 1.385 1_455 S
C459 H434 0.951 . S
C459 C457 1.388 . S
C459 C460 1.366 . S
C460 C459 1.366 . S
C460 C461 1.414 1_455 S
C460 C463 1.499 . S
C461 H435 0.950 . S
C461 C460 1.414 1_655 S
C461 C462 1.374 . S
C462 H436 0.950 . S
C462 C458 1.385 1_655 S
C462 C461 1.374 . S
C463 C460 1.499 . S
C463 C464 1.373 . S
C463 C465 1.389 . S
C464 H437 0.950 1_455 S
C464 C450 1.377 . S
C464 C463 1.373 . S
C465 C449 1.377 . S
C465 C463 1.389 . S
C465 C466 1.524 . S
C466 C465 1.524 . S
C466 C467 1.397 . S
C466 C471 1.363 . S
C467 H438 0.950 . S
C467 C466 1.397 . S
C467 C468 1.334 . S
C468 H439 0.950 . S
C468 C467 1.334 . S
C468 C469 1.287 . S
C469 C468 1.287 . S
C469 C470 1.524 . S
C469 H472 0.999 . S
C470 H440 0.950 . S
C470 C469 1.524 . S
C470 C471 1.415 . S
C471 H441 0.950 . S
C471 C466 1.363 . S
C471 C470 1.415 . S
H472 C469 0.999 . S
H473 C454 0.913 . S
H474 C492 0.951 . S
H475 C494 0.951 . S
H476 C496 0.950 . S
H477 C497 0.950 . S
H478 C499 0.950 . S
H479 C502 0.950 . S
H480 C503 0.950 . S
H481 C505 0.950 . S
H482 C506 0.950 . S
H483 C507 0.951 . S
H484 C509 0.951 . S
H485 C511 0.950 . S
H486 C512 0.950 . S
H487 C514 0.950 . S
H488 C517 0.950 . S
H489 C518 0.950 . S
H490 C520 0.950 . S
H491 C521 0.950 . S
C492 H474 0.951 . S
C492 C493 1.366 . S
C492 C494 1.388 . S
C493 C492 1.366 . S
C493 C497 1.385 . S
C494 H475 0.951 . S
C494 C492 1.388 . S
C494 C495 1.366 . S
C495 C494 1.366 . S
C495 C496 1.414 . S
C495 C498 1.499 . S
C496 H476 0.950 . S
C496 C495 1.414 . S
C496 C497 1.374 . S
C497 H477 0.950 . S
C497 C493 1.385 . S
C497 C496 1.374 . S
C498 C495 1.499 . S
C498 C499 1.373 . S
C498 C500 1.389 . S
C499 H478 0.950 . S
C499 C498 1.373 . S
C499 C515 1.377 . S
C500 C498 1.389 . S
C500 C501 1.524 . S
C500 C514 1.377 . S
C501 C500 1.524 . S
C501 C502 1.397 . S
C501 C506 1.363 . S
C502 H479 0.950 . S
C502 C501 1.397 . S
C502 C503 1.334 . S
C503 H480 0.950 . S
C503 C502 1.334 . S
C503 C504 1.287 . S
C504 C503 1.287 . S
C504 C505 1.524 . S
C504 H523 0.913 . S
C505 H481 0.950 . S
C505 C504 1.524 . S
C505 C506 1.415 . S
C506 H482 0.950 . S
C506 C501 1.363 . S
C506 C505 1.415 . S
C507 H483 0.951 . S
C507 C508 1.366 . S
C507 C509 1.388 . S
C508 C507 1.366 . S
C508 C512 1.385 . S
C509 H484 0.951 . S
C509 C507 1.388 . S
C509 C510 1.366 . S
C510 C509 1.366 . S
C510 C511 1.414 . S
C510 C513 1.499 . S
C511 H485 0.950 . S
C511 C510 1.414 . S
C511 C512 1.374 . S
C512 H486 0.950 . S
C512 C508 1.385 . S
C512 C511 1.374 . S
C513 C510 1.499 . S
C513 C514 1.373 . S
C513 C515 1.389 . S
C514 H487 0.950 . S
C514 C500 1.377 . S
C514 C513 1.373 . S
C515 C499 1.377 . S
C515 C513 1.389 . S
C515 C516 1.524 . S
C516 C515 1.524 . S
C516 C517 1.397 . S
C516 C521 1.363 . S
C517 H488 0.950 . S
C517 C516 1.397 . S
C517 C518 1.334 . S
C518 H489 0.950 . S
C518 C517 1.334 . S
C518 C519 1.287 . S
C519 C518 1.287 . S
C519 C520 1.524 . S
C519 H522 0.999 . S
C520 H490 0.950 . S
C520 C519 1.524 . S
C520 C521 1.415 . S
C521 H491 0.950 . S
C521 C516 1.363 . S
C521 C520 1.415 . S
H522 C519 0.999 . S
H523 C504 0.913 . S
H524 C542 0.951 . S
H525 C544 0.951 . S
H526 C546 0.950 . S
H527 C547 0.950 . S
H528 C549 0.950 . S
H529 C552 0.950 . S
H530 C553 0.950 . S
H531 C555 0.950 . S
H532 C556 0.950 . S
H533 C557 0.951 . S
H534 C559 0.951 . S
H535 C561 0.950 . S
H536 C562 0.950 . S
H537 C564 0.950 . S
H538 C567 0.950 . S
H539 C568 0.950 . S
H540 C570 0.950 . S
H541 C571 0.950 . S
C542 H524 0.951 . S
C542 C543 1.366 . S
C542 C544 1.388 . S
C543 C542 1.366 . S
C543 C547 1.385 . S
C544 H525 0.951 . S
C544 C542 1.388 . S
C544 C545 1.366 . S
C545 C544 1.366 . S
C545 C546 1.414 . S
C545 C548 1.499 . S
C546 H526 0.950 . S
C546 C545 1.414 . S
C546 C547 1.374 . S
C547 H527 0.950 . S
C547 C543 1.385 . S
C547 C546 1.374 . S
C548 C545 1.499 . S
C548 C549 1.373 . S
C548 C550 1.389 . S
C549 H528 0.950 . S
C549 C548 1.373 . S
C549 C565 1.377 . S
C550 C548 1.389 . S
C550 C551 1.524 . S
C550 C564 1.377 . S
C551 C550 1.524 . S
C551 C552 1.397 . S
C551 C556 1.363 . S
C552 H529 0.950 . S
C552 C551 1.397 . S
C552 C553 1.334 . S
C553 H530 0.950 . S
C553 C552 1.334 . S
C553 C554 1.287 . S
C554 C553 1.287 . S
C554 C555 1.524 . S
C554 H573 0.913 . S
C555 H531 0.950 . S
C555 C554 1.524 . S
C555 C556 1.415 . S
C556 H532 0.950 . S
C556 C551 1.363 . S
C556 C555 1.415 . S
C557 H533 0.951 . S
C557 C558 1.366 . S
C557 C559 1.388 . S
C558 C557 1.366 . S
C558 C562 1.385 . S
C559 H534 0.951 . S
C559 C557 1.388 . S
C559 C560 1.366 . S
C560 C559 1.366 . S
C560 C561 1.414 . S
C560 C563 1.499 . S
C561 H535 0.950 . S
C561 C560 1.414 . S
C561 C562 1.374 . S
C562 H536 0.950 . S
C562 C558 1.385 . S
C562 C561 1.374 . S
C563 C560 1.499 . S
C563 C564 1.373 . S
C563 C565 1.389 . S
C564 H537 0.950 . S
C564 C550 1.377 . S
C564 C563 1.373 . S
C565 C549 1.377 . S
C565 C563 1.389 . S
C565 C566 1.524 . S
C566 C565 1.524 . S
C566 C567 1.397 . S
C566 C571 1.363 . S
C567 H538 0.950 . S
C567 C566 1.397 . S
C567 C568 1.334 . S
C568 H539 0.950 . S
C568 C567 1.334 . S
C568 C569 1.287 . S
C569 C568 1.287 . S
C569 C570 1.524 . S
C569 H572 0.999 . S
C570 H540 0.950 . S
C570 C569 1.524 . S
C570 C571 1.415 . S
C571 H541 0.950 . S
C571 C566 1.363 . S
C571 C570 1.415 . S
H572 C569 0.999 . S
H573 C554 0.913 . S
H574 C592 0.951 . S
H575 C594 0.951 . S
H576 C596 0.950 . S
H577 C597 0.950 . S
H578 C599 0.950 . S
H579 C602 0.950 . S
H580 C603 0.950 . S
H581 C605 0.950 . S
H582 C606 0.950 . S
H583 C607 0.951 . S
H584 C609 0.951 . S
H585 C611 0.950 . S
H586 C612 0.950 . S
H587 C614 0.950 1_655 S
H588 C617 0.950 . S
H589 C618 0.950 . S
H590 C620 0.950 . S
H591 C621 0.950 1_455 S
C592 H574 0.951 . S
C592 C593 1.366 . S
C592 C594 1.388 . S
C593 C592 1.366 . S
C593 C597 1.385 . S
C594 H575 0.951 . S
C594 C592 1.388 . S
C594 C595 1.366 . S
C595 C594 1.366 . S
C595 C596 1.414 . S
C595 C598 1.499 . S
C596 H576 0.950 . S
C596 C595 1.414 . S
C596 C597 1.374 . S
C597 H577 0.950 . S
C597 C593 1.385 . S
C597 C596 1.374 . S
C598 C595 1.499 . S
C598 C599 1.373 . S
C598 C600 1.389 . S
C599 H578 0.950 . S
C599 C598 1.373 . S
C599 C615 1.377 . S
C600 C598 1.389 . S
C600 C601 1.524 . S
C600 C614 1.377 . S
C601 C600 1.524 . S
C601 C602 1.397 . S
C601 C606 1.363 . S
C602 H579 0.950 . S
C602 C601 1.397 . S
C602 C603 1.334 . S
C603 H580 0.950 . S
C603 C602 1.334 . S
C603 C604 1.287 . S
C604 C603 1.287 . S
C604 C605 1.524 . S
C604 H623 0.913 . S
C605 H581 0.950 . S
C605 C604 1.524 . S
C605 C606 1.415 . S
C606 H582 0.950 . S
C606 C601 1.363 . S
C606 C605 1.415 . S
C607 H583 0.951 . S
C607 C608 1.366 . S
C607 C609 1.388 . S
C608 C607 1.366 . S
C608 C612 1.385 . S
C609 H584 0.951 . S
C609 C607 1.388 . S
C609 C610 1.366 . S
C610 C609 1.366 . S
C610 C611 1.414 . S
C610 C613 1.499 . S
C611 H585 0.950 . S
C611 C610 1.414 . S
C611 C612 1.374 . S
C612 H586 0.950 . S
C612 C608 1.385 . S
C612 C611 1.374 . S
C613 C610 1.499 . S
C613 C614 1.373 1_655 S
C613 C615 1.389 1_655 S
C614 H587 0.950 1_455 S
C614 C600 1.377 . S
C614 C613 1.373 1_455 S
C615 C599 1.377 . S
C615 C613 1.389 1_455 S
C615 C616 1.524 1_455 S
C616 C615 1.524 1_655 S
C616 C617 1.397 . S
C616 C621 1.363 . S
C617 H588 0.950 . S
C617 C616 1.397 . S
C617 C618 1.334 . S
C618 H589 0.950 . S
C618 C617 1.334 . S
C618 C619 1.287 . S
C619 C618 1.287 . S
C619 C620 1.524 . S
C619 H622 0.999 . S
C620 H590 0.950 . S
C620 C619 1.524 . S
C620 C621 1.415 . S
C621 H591 0.950 1_655 S
C621 C616 1.363 . S
C621 C620 1.415 . S
H622 C619 0.999 . S
H623 C604 0.913 . S
H624 C642 0.949 1_655 S
H625 C644 0.952 . S
H626 C646 0.950 . S
H627 C647 0.950 . S
H628 C649 0.950 . S
H629 C652 0.950 1_545 S
H630 C653 0.950 . S
H631 C655 0.950 . S
H632 C656 0.950 . S
H633 C657 0.951 . S
H634 C659 0.951 . S
H635 C661 0.950 1_655 S
H636 C662 0.945 1_655 S
H637 C664 0.950 . S
H638 C667 0.950 1_565 S
H639 C668 0.950 . S
H640 C670 0.950 . S
H641 C671 0.950 . S
C642 H624 0.949 1_455 S
C642 C643 1.368 . S
C642 C644 1.387 1_455 S
C643 C642 1.368 . S
C643 C647 1.385 1_565 S
C644 H625 0.952 . S
C644 C642 1.387 1_655 S
C644 C645 1.365 1_655 S
C645 C644 1.365 1_455 S
C645 C646 1.414 1_565 S
C645 C648 1.499 . S
C646 H626 0.950 . S
C646 C645 1.414 1_545 S
C646 C647 1.374 . S
C647 H627 0.950 . S
C647 C643 1.385 1_545 S
C647 C646 1.374 . S
C648 C645 1.499 . S
C648 C649 1.373 1_565 S
C648 C650 1.389 1_455 S
C649 H628 0.950 . S
C649 C648 1.373 1_545 S
C649 C665 1.377 . S
C650 C648 1.389 1_655 S
C650 C651 1.524 . S
C650 C664 1.377 . S
C651 C650 1.524 . S
C651 C652 1.397 . S
C651 C656 1.363 . S
C652 H629 0.950 1_565 S
C652 C651 1.397 . S
C652 C653 1.334 . S
C653 H630 0.950 . S
C653 C652 1.334 . S
C653 C654 1.287 . S
C654 C653 1.287 . S
C654 C655 1.524 . S
C654 H673 0.913 . S
C655 H631 0.950 . S
C655 C654 1.524 . S
C655 C656 1.415 . S
C656 H632 0.950 . S
C656 C651 1.363 . S
C656 C655 1.415 . S
C657 H633 0.951 . S
C657 C658 1.366 . S
C657 C659 1.388 . S
C658 C657 1.366 . S
C658 C662 1.390 1_545 S
C659 H634 0.951 . S
C659 C657 1.388 . S
C659 C660 1.366 . S
C660 C659 1.366 . S
C660 C661 1.414 1_545 S
C660 C663 1.499 . S
C661 H635 0.950 1_455 S
C661 C660 1.414 1_565 S
C661 C662 1.375 . S
C662 H636 0.945 1_455 S
C662 C658 1.390 1_565 S
C662 C661 1.375 . S
C663 C660 1.499 . S
C663 C664 1.373 1_445 S
C663 C665 1.389 . S
C664 H637 0.950 . S
C664 C650 1.377 . S
C664 C663 1.373 1_665 S
C665 C649 1.377 . S
C665 C663 1.389 . S
C665 C666 1.524 . S
C666 C665 1.524 . S
C666 C667 1.397 . S
C666 C671 1.363 . S
C667 H638 0.950 1_545 S
C667 C666 1.397 . S
C667 C668 1.334 . S
C668 H639 0.950 . S
C668 C667 1.334 . S
C668 C669 1.287 . S
C669 C668 1.287 . S
C669 C670 1.524 . S
C669 H672 0.999 . S
C670 H640 0.950 . S
C670 C669 1.524 . S
C670 C671 1.415 . S
C671 H641 0.950 . S
C671 C666 1.363 . S
C671 C670 1.415 . S
H672 C669 0.999 . S
H673 C654 0.913 . S
H674 C692 0.951 . S
H675 C694 0.951 . S
H676 C696 0.950 . S
H677 C697 0.950 . S
H678 C699 0.950 . S
H679 C702 0.950 . S
H680 C703 0.950 . S
H681 C705 0.950 . S
H682 C706 0.950 . S
H683 C707 0.951 . S
H684 C709 0.951 . S
H685 C711 0.950 . S
H686 C712 0.950 . S
H687 C714 0.950 . S
H688 C717 0.950 . S
H689 C718 0.950 . S
H690 C720 0.950 . S
H691 C721 0.950 . S
C692 H674 0.951 . S
C692 C693 1.366 . S
C692 C694 1.388 . S
C693 C692 1.366 . S
C693 C697 1.385 . S
C694 H675 0.951 . S
C694 C692 1.388 . S
C694 C695 1.366 . S
C695 C694 1.366 . S
C695 C696 1.414 . S
C695 C698 1.499 . S
C696 H676 0.950 . S
C696 C695 1.414 . S
C696 C697 1.374 . S
C697 H677 0.950 . S
C697 C693 1.385 . S
C697 C696 1.374 . S
C698 C695 1.499 . S
C698 C699 1.373 . S
C698 C700 1.389 . S
C699 H678 0.950 . S
C699 C698 1.373 . S
C699 C715 1.377 . S
C700 C698 1.389 . S
C700 C701 1.524 . S
C700 C714 1.377 . S
C701 C700 1.524 . S
C701 C702 1.397 . S
C701 C706 1.363 . S
C702 H679 0.950 . S
C702 C701 1.397 . S
C702 C703 1.334 . S
C703 H680 0.950 . S
C703 C702 1.334 . S
C703 C704 1.287 . S
C704 C703 1.287 . S
C704 C705 1.524 . S
C704 H723 0.913 . S
C705 H681 0.950 . S
C705 C704 1.524 . S
C705 C706 1.415 . S
C706 H682 0.950 . S
C706 C701 1.363 . S
C706 C705 1.415 . S
C707 H683 0.951 . S
C707 C708 1.366 . S
C707 C709 1.388 . S
C708 C707 1.366 . S
C708 C712 1.385 . S
C709 H684 0.951 . S
C709 C707 1.388 . S
C709 C710 1.366 . S
C710 C709 1.366 . S
C710 C711 1.414 . S
C710 C713 1.499 . S
C711 H685 0.950 . S
C711 C710 1.414 . S
C711 C712 1.374 . S
C712 H686 0.950 . S
C712 C708 1.385 . S
C712 C711 1.374 . S
C713 C710 1.499 . S
C713 C714 1.373 . S
C713 C715 1.389 . S
C714 H687 0.950 . S
C714 C700 1.377 . S
C714 C713 1.373 . S
C715 C699 1.377 . S
C715 C713 1.389 . S
C715 C716 1.524 . S
C716 C715 1.524 . S
C716 C717 1.397 . S
C716 C721 1.363 . S
C717 H688 0.950 . S
C717 C716 1.397 . S
C717 C718 1.334 . S
C718 H689 0.950 . S
C718 C717 1.334 . S
C718 C719 1.287 . S
C719 C718 1.287 . S
C719 C720 1.524 . S
C719 H722 0.999 . S
C720 H690 0.950 . S
C720 C719 1.524 . S
C720 C721 1.415 . S
C721 H691 0.950 . S
C721 C716 1.363 . S
C721 C720 1.415 . S
H722 C719 0.999 . S
H723 C704 0.913 . S
H724 C742 0.951 . S
H725 C744 0.951 . S
H726 C746 0.950 . S
H727 C747 0.950 . S
H728 C749 0.950 . S
H729 C752 0.950 . S
H730 C753 0.950 . S
H731 C755 0.950 . S
H732 C756 0.981 . S
H733 C757 0.951 . S
H734 C759 0.951 . S
H735 C761 0.950 . S
H736 C762 0.950 . S
H737 C764 0.950 . S
H738 C767 0.950 . S
H739 C768 0.950 . S
H740 C770 0.950 . S
H741 C771 0.981 . S
C742 H724 0.951 . S
C742 C743 1.366 . S
C742 C744 1.388 . S
C743 C742 1.366 . S
C743 C747 1.385 . S
C744 H725 0.951 . S
C744 C742 1.388 . S
C744 C745 1.366 . S
C745 C744 1.366 . S
C745 C746 1.414 . S
C745 C748 1.499 . S
C746 H726 0.950 . S
C746 C745 1.414 . S
C746 C747 1.374 . S
C747 H727 0.950 . S
C747 C743 1.385 . S
C747 C746 1.374 . S
C748 C745 1.499 . S
C748 C749 1.373 1_565 S
C748 C750 1.389 . S
C749 H728 0.950 . S
C749 C748 1.373 1_545 S
C749 C765 1.377 1_554 S
C750 C748 1.389 . S
C750 C751 1.524 . S
C750 C764 1.377 1_554 S
C751 C750 1.524 . S
C751 C752 1.397 . S
C751 C756 1.363 . S
C752 H729 0.950 . S
C752 C751 1.397 . S
C752 C753 1.334 . S
C753 H730 0.950 . S
C753 C752 1.334 . S
C753 C754 1.287 . S
C754 C753 1.287 . S
C754 C755 1.524 . S
C754 H773 0.913 . S
C755 H731 0.950 . S
C755 C754 1.524 . S
C755 C756 1.415 . S
C756 H732 0.981 . S
C756 C751 1.363 . S
C756 C755 1.415 . S
C757 H733 0.951 . S
C757 C758 1.366 . S
C757 C759 1.388 . S
C758 C757 1.366 . S
C758 C762 1.385 . S
C759 H734 0.951 . S
C759 C757 1.388 . S
C759 C760 1.366 . S
C760 C759 1.366 . S
C760 C761 1.414 . S
C760 C763 1.499 . S
C761 H735 0.950 . S
C761 C760 1.414 . S
C761 C762 1.374 . S
C762 H736 0.950 . S
C762 C758 1.385 . S
C762 C761 1.374 . S
C763 C760 1.499 . S
C763 C764 1.373 1_545 S
C763 C765 1.389 . S
C764 H737 0.950 . S
C764 C750 1.377 1_556 S
C764 C763 1.373 1_565 S
C765 C749 1.377 1_556 S
C765 C763 1.389 . S
C765 C766 1.524 . S
C766 C765 1.524 . S
C766 C767 1.397 . S
C766 C771 1.363 . S
C767 H738 0.950 . S
C767 C766 1.397 . S
C767 C768 1.334 . S
C768 H739 0.950 . S
C768 C767 1.334 . S
C768 C769 1.287 . S
C769 C768 1.287 . S
C769 C770 1.524 . S
C769 H772 0.999 . S
C770 H740 0.950 . S
C770 C769 1.524 . S
C770 C771 1.415 . S
C771 H741 0.981 . S
C771 C766 1.363 . S
C771 C770 1.415 . S
H772 C769 0.999 . S
H773 C754 0.913 . S
H774 C792 0.951 . S
H775 C794 0.951 . S
H776 C796 0.950 . S
H777 C797 0.950 . S
H778 C799 0.950 . S
H779 C802 0.950 . S
H780 C803 0.950 . S
H781 C805 0.950 . S
H782 C806 0.950 . S
H783 C807 0.951 . S
H784 C809 0.951 . S
H785 C811 0.950 . S
H786 C812 0.950 . S
H787 C814 0.950 . S
H788 C817 0.950 . S
H789 C818 0.950 . S
H790 C820 0.950 . S
H791 C821 0.950 . S
C792 H774 0.951 . S
C792 C793 1.366 . S
C792 C794 1.388 . S
C793 C792 1.366 . S
C793 C797 1.385 . S
C794 H775 0.951 . S
C794 C792 1.388 . S
C794 C795 1.366 . S
C795 C794 1.366 . S
C795 C796 1.414 . S
C795 C798 1.499 . S
C796 H776 0.950 . S
C796 C795 1.414 . S
C796 C797 1.374 . S
C797 H777 0.950 . S
C797 C793 1.385 . S
C797 C796 1.374 . S
C798 C795 1.499 . S
C798 C799 1.373 . S
C798 C800 1.389 . S
C799 H778 0.950 . S
C799 C798 1.373 . S
C799 C815 1.377 . S
C800 C798 1.389 . S
C800 C801 1.524 . S
C800 C814 1.377 . S
C801 C800 1.524 . S
C801 C802 1.397 . S
C801 C806 1.363 . S
C802 H779 0.950 . S
C802 C801 1.397 . S
C802 C803 1.334 . S
C803 H780 0.950 . S
C803 C802 1.334 . S
C803 C804 1.287 . S
C804 C803 1.287 . S
C804 C805 1.524 . S
C804 H823 0.913 . S
C805 H781 0.950 . S
C805 C804 1.524 . S
C805 C806 1.415 . S
C806 H782 0.950 . S
C806 C801 1.363 . S
C806 C805 1.415 . S
C807 H783 0.951 . S
C807 C808 1.366 . S
C807 C809 1.388 . S
C808 C807 1.366 . S
C808 C812 1.385 . S
C809 H784 0.951 . S
C809 C807 1.388 . S
C809 C810 1.366 . S
C810 C809 1.366 . S
C810 C811 1.414 . S
C810 C813 1.499 . S
C811 H785 0.950 . S
C811 C810 1.414 . S
C811 C812 1.374 . S
C812 H786 0.950 . S
C812 C808 1.385 . S
C812 C811 1.374 . S
C813 C810 1.499 . S
C813 C814 1.373 . S
C813 C815 1.389 . S
C814 H787 0.950 . S
C814 C800 1.377 . S
C814 C813 1.373 . S
C815 C799 1.377 . S
C815 C813 1.389 . S
C815 C816 1.524 . S
C816 C815 1.524 . S
C816 C817 1.397 . S
C816 C821 1.363 . S
C817 H788 0.950 . S
C817 C816 1.397 . S
C817 C818 1.334 . S
C818 H789 0.950 . S
C818 C817 1.334 . S
C818 C819 1.287 . S
C819 C818 1.287 . S
C819 C820 1.524 . S
C819 H822 0.999 . S
C820 H790 0.950 . S
C820 C819 1.524 . S
C820 C821 1.415 . S
C821 H791 0.950 . S
C821 C816 1.363 . S
C821 C820 1.415 . S
H822 C819 0.999 . S
H823 C804 0.913 . S
H824 C842 0.951 . S
H825 C844 0.951 . S
H826 C846 0.950 . S
H827 C847 0.950 . S
H828 C849 0.950 . S
H829 C852 0.950 . S
H830 C853 0.950 . S
H831 C855 0.950 . S
H832 C856 0.950 . S
H833 C857 0.951 . S
H834 C859 0.951 . S
H835 C861 0.950 . S
H836 C862 0.950 . S
H837 C864 0.950 . S
H838 C867 0.950 . S
H839 C868 0.950 . S
H840 C870 0.950 . S
H841 C871 0.950 . S
C842 H824 0.951 . S
C842 C843 1.366 . S
C842 C844 1.388 . S
C843 C842 1.366 . S
C843 C847 1.385 . S
C844 H825 0.951 . S
C844 C842 1.388 . S
C844 C845 1.366 . S
C845 C844 1.366 . S
C845 C846 1.414 . S
C845 C848 1.499 . S
C846 H826 0.950 . S
C846 C845 1.414 . S
C846 C847 1.374 . S
C847 H827 0.950 . S
C847 C843 1.385 . S
C847 C846 1.374 . S
C848 C845 1.499 . S
C848 C849 1.373 . S
C848 C850 1.389 . S
C849 H828 0.950 . S
C849 C848 1.373 . S
C849 C865 1.377 . S
C850 C848 1.389 . S
C850 C851 1.524 . S
C850 C864 1.377 . S
C851 C850 1.524 . S
C851 C852 1.397 . S
C851 C856 1.363 . S
C852 H829 0.950 . S
C852 C851 1.397 . S
C852 C853 1.334 . S
C853 H830 0.950 . S
C853 C852 1.334 . S
C853 C854 1.287 . S
C854 C853 1.287 . S
C854 C855 1.524 . S
C854 H873 0.913 . S
C855 H831 0.950 . S
C855 C854 1.524 . S
C855 C856 1.415 . S
C856 H832 0.950 . S
C856 C851 1.363 . S
C856 C855 1.415 . S
C857 H833 0.951 . S
C857 C858 1.366 . S
C857 C859 1.388 . S
C858 C857 1.366 . S
C858 C862 1.385 . S
C859 H834 0.951 . S
C859 C857 1.388 . S
C859 C860 1.366 . S
C860 C859 1.366 . S
C860 C861 1.414 . S
C860 C863 1.499 . S
C861 H835 0.950 . S
C861 C860 1.414 . S
C861 C862 1.374 . S
C862 H836 0.950 . S
C862 C858 1.385 . S
C862 C861 1.374 . S
C863 C860 1.499 . S
C863 C864 1.373 . S
C863 C865 1.389 . S
C864 H837 0.950 . S
C864 C850 1.377 . S
C864 C863 1.373 . S
C865 C849 1.377 . S
C865 C863 1.389 . S
C865 C866 1.524 . S
C866 C865 1.524 . S
C866 C867 1.397 . S
C866 C871 1.363 . S
C867 H838 0.950 . S
C867 C866 1.397 . S
C867 C868 1.334 . S
C868 H839 0.950 . S
C868 C867 1.334 . S
C868 C869 1.287 . S
C869 C868 1.287 . S
C869 C870 1.524 . S
C869 H872 0.999 . S
C870 H840 0.950 . S
C870 C869 1.524 . S
C870 C871 1.415 . S
C871 H841 0.950 . S
C871 C866 1.363 . S
C871 C870 1.415 . S
H872 C869 0.999 . S
H873 C854 0.913 . S
H874 C892 0.951 . S
H875 C894 0.951 . S
H876 C896 0.950 . S
H877 C897 0.950 . S
H878 C899 0.950 . S
H879 C902 0.950 . S
H880 C903 0.950 . S
H881 C905 0.950 . S
H882 C906 0.950 . S
H883 C907 0.951 . S
H884 C909 0.951 . S
H885 C911 0.950 . S
H886 C912 0.950 . S
H887 C914 0.950 . S
H888 C917 0.950 . S
H889 C918 0.950 . S
H890 C920 0.950 . S
H891 C921 0.950 . S
C892 H874 0.951 . S
C892 C893 1.366 . S
C892 C894 1.388 . S
C893 C892 1.366 . S
C893 C897 1.385 . S
C894 H875 0.951 . S
C894 C892 1.388 . S
C894 C895 1.366 . S
C895 C894 1.366 . S
C895 C896 1.414 . S
C895 C898 1.499 . S
C896 H876 0.950 . S
C896 C895 1.414 . S
C896 C897 1.374 . S
C897 H877 0.950 . S
C897 C893 1.385 . S
C897 C896 1.374 . S
C898 C895 1.499 . S
C898 C899 1.373 . S
C898 C900 1.389 . S
C899 H878 0.950 . S
C899 C898 1.373 . S
C899 C915 1.377 . S
C900 C898 1.389 . S
C900 C901 1.524 . S
C900 C914 1.377 . S
C901 C900 1.524 . S
C901 C902 1.397 . S
C901 C906 1.363 . S
C902 H879 0.950 . S
C902 C901 1.397 . S
C902 C903 1.334 . S
C903 H880 0.950 . S
C903 C902 1.334 . S
C903 C904 1.287 . S
C904 C903 1.287 . S
C904 C905 1.524 . S
C904 H923 0.913 . S
C905 H881 0.950 . S
C905 C904 1.524 . S
C905 C906 1.415 . S
C906 H882 0.950 . S
C906 C901 1.363 . S
C906 C905 1.415 . S
C907 H883 0.951 . S
C907 C908 1.366 . S
C907 C909 1.388 . S
C908 C907 1.366 . S
C908 C912 1.385 . S
C909 H884 0.951 . S
C909 C907 1.388 . S
C909 C910 1.366 . S
C910 C909 1.366 . S
C910 C911 1.414 . S
C910 C913 1.499 . S
C911 H885 0.950 . S
C911 C910 1.414 . S
C911 C912 1.374 . S
C912 H886 0.950 . S
C912 C908 1.385 . S
C912 C911 1.374 . S
C913 C910 1.499 . S
C913 C914 1.373 . S
C913 C915 1.389 . S
C914 H887 0.950 . S
C914 C900 1.377 . S
C914 C913 1.373 . S
C915 C899 1.377 . S
C915 C913 1.389 . S
C915 C916 1.524 . S
C916 C915 1.524 . S
C916 C917 1.397 . S
C916 C921 1.363 . S
C917 H888 0.950 . S
C917 C916 1.397 . S
C917 C918 1.334 . S
C918 H889 0.950 . S
C918 C917 1.334 . S
C918 C919 1.287 . S
C919 C918 1.287 . S
C919 C920 1.524 . S
C919 H922 0.999 . S
C920 H890 0.950 . S
C920 C919 1.524 . S
C920 C921 1.415 . S
C921 H891 0.950 . S
C921 C916 1.363 . S
C921 C920 1.415 . S
H922 C919 0.999 . S
H923 C904 0.913 . S
H924 C942 0.951 . S
H925 C944 0.951 . S
H926 C946 0.950 . S
H927 C947 0.950 . S
H928 C949 0.950 . S
H929 C952 0.950 . S
H930 C953 0.950 . S
H931 C955 0.950 . S
H932 C956 0.898 1_554 S
H933 C957 0.951 . S
H934 C959 0.951 . S
H935 C961 0.950 . S
H936 C962 0.950 . S
H937 C964 0.950 . S
H938 C967 0.950 . S
H939 C968 0.950 . S
H940 C970 0.950 . S
H941 C971 0.898 1_556 S
C942 H924 0.951 . S
C942 C943 1.366 . S
C942 C944 1.388 . S
C943 C942 1.366 . S
C943 C947 1.385 . S
C944 H925 0.951 . S
C944 C942 1.388 . S
C944 C945 1.366 . S
C945 C944 1.366 . S
C945 C946 1.414 . S
C945 C948 1.499 . S
C946 H926 0.950 . S
C946 C945 1.414 . S
C946 C947 1.374 . S
C947 H927 0.950 . S
C947 C943 1.385 . S
C947 C946 1.374 . S
C948 C945 1.499 . S
C948 C949 1.373 . S
C948 C950 1.389 . S
C949 H928 0.950 . S
C949 C948 1.373 . S
C949 C965 1.377 1_556 S
C950 C948 1.389 . S
C950 C951 1.524 . S
C950 C964 1.377 1_556 S
C951 C950 1.524 . S
C951 C952 1.397 . S
C951 C956 1.363 . S
C952 H929 0.950 . S
C952 C951 1.397 . S
C952 C953 1.334 . S
C953 H930 0.950 . S
C953 C952 1.334 . S
C953 C954 1.287 . S
C954 C953 1.287 . S
C954 C955 1.524 . S
C954 H973 0.913 . S
C955 H931 0.950 . S
C955 C954 1.524 . S
C955 C956 1.415 . S
C956 H932 0.898 1_556 S
C956 C951 1.363 . S
C956 C955 1.415 . S
C957 H933 0.951 . S
C957 C958 1.366 . S
C957 C959 1.388 . S
C958 C957 1.366 . S
C958 C962 1.385 . S
C959 H934 0.951 . S
C959 C957 1.388 . S
C959 C960 1.366 . S
C960 C959 1.366 . S
C960 C961 1.414 . S
C960 C963 1.499 . S
C961 H935 0.950 . S
C961 C960 1.414 . S
C961 C962 1.374 . S
C962 H936 0.950 . S
C962 C958 1.385 . S
C962 C961 1.374 . S
C963 C960 1.499 . S
C963 C964 1.373 . S
C963 C965 1.389 . S
C964 H937 0.950 . S
C964 C950 1.377 1_554 S
C964 C963 1.373 . S
C965 C949 1.377 1_554 S
C965 C963 1.389 . S
C965 C966 1.524 . S
C966 C965 1.524 . S
C966 C967 1.397 . S
C966 C971 1.363 . S
C967 H938 0.950 . S
C967 C966 1.397 . S
C967 C968 1.334 . S
C968 H939 0.950 . S
C968 C967 1.334 . S
C968 C969 1.287 . S
C969 C968 1.287 . S
C969 C970 1.524 . S
C969 H972 0.999 . S
C970 H940 0.950 . S
C970 C969 1.524 . S
C970 C971 1.415 . S
C971 H941 0.898 1_554 S
C971 C966 1.363 . S
C971 C970 1.415 . S
H972 C969 0.999 . S
H973 C954 0.913 . S
H974 C992 0.951 . S
H975 C994 0.951 . S
H976 C996 0.950 . S
H977 C997 0.950 . S
H978 C999 0.950 1_655 S
H979 C1002 0.950 . S
H980 C1003 0.950 . S
H981 C1005 0.950 . S
H982 C1006 0.950 . S
H983 C1007 0.951 . S
H984 C1009 0.951 . S
H985 C1011 0.950 . S
H986 C1012 0.950 . S
H987 C1014 0.950 . S
H988 C1017 0.950 . S
H989 C1018 0.950 . S
H990 C1020 0.950 . S
H991 C1021 0.950 . S
C992 H974 0.951 . S
C992 C993 1.366 . S
C992 C994 1.388 . S
C993 C992 1.366 . S
C993 C997 1.385 . S
C994 H975 0.951 . S
C994 C992 1.388 . S
C994 C995 1.366 . S
C995 C994 1.366 . S
C995 C996 1.414 . S
C995 C998 1.499 . S
C996 H976 0.950 . S
C996 C995 1.414 . S
C996 C997 1.374 . S
C997 H977 0.950 . S
C997 C993 1.385 . S
C997 C996 1.374 . S
C998 C995 1.499 . S
C998 C999 1.373 . S
C998 C1000 1.389 . S
C999 H978 0.950 1_455 S
C999 C998 1.373 . S
C999 C1015 1.377 . S
C1000 C998 1.389 . S
C1000 C1001 1.524 . S
C1000 C1014 1.377 . S
C1001 C1000 1.524 . S
C1001 C1002 1.397 . S
C1001 C1006 1.363 . S
C1002 H979 0.950 . S
C1002 C1001 1.397 . S
C1002 C1003 1.334 . S
C1003 H980 0.950 . S
C1003 C1002 1.334 . S
C1003 C1004 1.287 . S
C1004 C1003 1.287 . S
C1004 C1005 1.524 . S
C1004 H1023 0.913 . S
C1005 H981 0.950 . S
C1005 C1004 1.524 . S
C1005 C1006 1.415 . S
C1006 H982 0.950 . S
C1006 C1001 1.363 . S
C1006 C1005 1.415 . S
C1007 H983 0.951 . S
C1007 C1008 1.366 . S
C1007 C1009 1.388 . S
C1008 C1007 1.366 . S
C1008 C1012 1.385 . S
C1009 H984 0.951 . S
C1009 C1007 1.388 . S
C1009 C1010 1.366 . S
C1010 C1009 1.366 . S
C1010 C1011 1.414 . S
C1010 C1013 1.499 . S
C1011 H985 0.950 . S
C1011 C1010 1.414 . S
C1011 C1012 1.374 . S
C1012 H986 0.950 . S
C1012 C1008 1.385 . S
C1012 C1011 1.374 . S
C1013 C1010 1.499 . S
C1013 C1014 1.373 . S
C1013 C1015 1.389 . S
C1014 H987 0.950 . S
C1014 C1000 1.377 . S
C1014 C1013 1.373 . S
C1015 C999 1.377 . S
C1015 C1013 1.389 . S
C1015 C1016 1.524 1_455 S
C1016 C1015 1.524 1_655 S
C1016 C1017 1.397 . S
C1016 C1021 1.363 . S
C1017 H988 0.950 . S
C1017 C1016 1.397 . S
C1017 C1018 1.334 . S
C1018 H989 0.950 . S
C1018 C1017 1.334 . S
C1018 C1019 1.287 . S
C1019 C1018 1.287 . S
C1019 C1020 1.524 . S
C1019 H1022 0.999 . S
C1020 H990 0.950 . S
C1020 C1019 1.524 . S
C1020 C1021 1.415 . S
C1021 H991 0.950 . S
C1021 C1016 1.363 . S
C1021 C1020 1.415 . S
H1022 C1019 0.999 . S
H1023 C1004 0.913 . S
H1024 C1042 0.951 . S
H1025 C1044 0.951 . S
H1026 C1046 0.950 . S
H1027 C1047 0.950 . S
H1028 C1049 0.950 . S
H1029 C1052 0.950 . S
H1030 C1053 0.950 . S
H1031 C1055 0.950 . S
H1032 C1056 0.950 . S
H1033 C1057 0.951 . S
H1034 C1059 0.951 . S
H1035 C1061 0.950 . S
H1036 C1062 0.970 . S
H1037 C1064 0.950 . S
H1038 C1067 0.950 . S
H1039 C1068 0.950 . S
H1040 C1070 0.950 . S
H1041 C1071 0.950 . S
C1042 H1024 0.951 . S
C1042 C1043 1.366 . S
C1042 C1044 1.388 . S
C1043 C1042 1.366 . S
C1043 C1047 1.385 . S
C1044 H1025 0.951 . S
C1044 C1042 1.388 . S
C1044 C1045 1.366 . S
C1045 C1044 1.366 . S
C1045 C1046 1.414 . S
C1045 C1048 1.499 . S
C1046 H1026 0.950 . S
C1046 C1045 1.414 . S
C1046 C1047 1.374 . S
C1047 H1027 0.950 . S
C1047 C1043 1.385 . S
C1047 C1046 1.374 . S
C1048 C1045 1.499 . S
C1048 C1049 1.373 . S
C1048 C1050 1.389 . S
C1049 H1028 0.950 . S
C1049 C1048 1.373 . S
C1049 C1065 1.377 . S
C1050 C1048 1.389 . S
C1050 C1051 1.524 . S
C1050 C1064 1.377 . S
C1051 C1050 1.524 . S
C1051 C1052 1.397 . S
C1051 C1056 1.363 . S
C1052 H1029 0.950 . S
C1052 C1051 1.397 . S
C1052 C1053 1.334 . S
C1053 H1030 0.950 . S
C1053 C1052 1.334 . S
C1053 C1054 1.287 . S
C1054 C1053 1.287 . S
C1054 C1055 1.524 . S
C1054 H1073 0.913 . S
C1055 H1031 0.950 . S
C1055 C1054 1.524 . S
C1055 C1056 1.415 . S
C1056 H1032 0.950 . S
C1056 C1051 1.363 . S
C1056 C1055 1.415 . S
C1057 H1033 0.951 . S
C1057 C1058 1.366 . S
C1057 C1059 1.388 . S
C1058 C1057 1.366 . S
C1058 C1062 1.385 . S
C1059 H1034 0.951 . S
C1059 C1057 1.388 . S
C1059 C1060 1.366 . S
C1060 C1059 1.366 . S
C1060 C1061 1.414 . S
C1060 C1063 1.499 . S
C1061 H1035 0.950 . S
C1061 C1060 1.414 . S
C1061 C1062 1.374 . S
C1062 H1036 0.970 . S
C1062 C1058 1.385 . S
C1062 C1061 1.374 . S
C1063 C1060 1.499 . S
C1063 C1064 1.373 . S
C1063 C1065 1.389 . S
C1064 H1037 0.950 . S
C1064 C1050 1.377 . S
C1064 C1063 1.373 . S
C1065 C1049 1.377 . S
C1065 C1063 1.389 . S
C1065 C1066 1.524 . S
C1066 C1065 1.524 . S
C1066 C1067 1.397 . S
C1066 C1071 1.363 . S
C1067 H1038 0.950 . S
C1067 C1066 1.397 . S
C1067 C1068 1.334 . S
C1068 H1039 0.950 . S
C1068 C1067 1.334 . S
C1068 C1069 1.287 . S
C1069 C1068 1.287 . S
C1069 C1070 1.524 . S
C1069 H1072 0.999 . S
C1070 H1040 0.950 . S
C1070 C1069 1.524 . S
C1070 C1071 1.415 . S
C1071 H1041 0.950 . S
C1071 C1066 1.363 . S
C1071 C1070 1.415 . S
H1072 C1069 0.999 . S
H1073 C1054 0.913 . S
H1074 C1092 0.951 . S
H1075 C1094 0.951 . S
H1076 C1096 0.950 . S
H1077 C1097 0.950 . S
H1078 C1099 0.950 . S
H1079 C1102 0.950 . S
H1080 C1103 0.950 . S
H1081 C1105 0.950 . S
H1082 C1106 0.950 . S
H1083 C1107 0.951 1_545 S
H1084 C1109 0.951 . S
H1085 C1111 0.950 . S
H1086 C1112 0.950 . S
H1087 C1114 0.950 . S
H1088 C1117 0.950 . S
H1089 C1118 0.950 . S
H1090 C1120 0.950 . S
H1091 C1121 0.950 . S
C1092 H1074 0.951 . S
C1092 C1093 1.366 . S
C1092 C1094 1.388 . S
C1093 C1092 1.366 . S
C1093 C1097 1.385 . S
C1094 H1075 0.951 . S
C1094 C1092 1.388 . S
C1094 C1095 1.366 . S
C1095 C1094 1.366 . S
C1095 C1096 1.414 . S
C1095 C1098 1.499 . S
C1096 H1076 0.950 . S
C1096 C1095 1.414 . S
C1096 C1097 1.374 . S
C1097 H1077 0.950 . S
C1097 C1093 1.385 . S
C1097 C1096 1.374 . S
C1098 C1095 1.499 . S
C1098 C1099 1.373 . S
C1098 C1100 1.389 . S
C1099 H1078 0.950 . S
C1099 C1098 1.373 . S
C1099 C1115 1.377 . S
C1100 C1098 1.389 . S
C1100 C1101 1.524 . S
C1100 C1114 1.377 . S
C1101 C1100 1.524 . S
C1101 C1102 1.397 . S
C1101 C1106 1.363 . S
C1102 H1079 0.950 . S
C1102 C1101 1.397 . S
C1102 C1103 1.334 . S
C1103 H1080 0.950 . S
C1103 C1102 1.334 . S
C1103 C1104 1.287 . S
C1104 C1103 1.287 . S
C1104 C1105 1.524 . S
C1104 H1123 0.913 . S
C1105 H1081 0.950 . S
C1105 C1104 1.524 . S
C1105 C1106 1.415 . S
C1106 H1082 0.950 . S
C1106 C1101 1.363 . S
C1106 C1105 1.415 . S
C1107 H1083 0.951 1_565 S
C1107 C1108 1.366 . S
C1107 C1109 1.388 . S
C1108 C1107 1.366 . S
C1108 C1112 1.385 . S
C1109 H1084 0.951 . S
C1109 C1107 1.388 . S
C1109 C1110 1.366 . S
C1110 C1109 1.366 . S
C1110 C1111 1.414 . S
C1110 C1113 1.499 . S
C1111 H1085 0.950 . S
C1111 C1110 1.414 . S
C1111 C1112 1.374 . S
C1112 H1086 0.950 . S
C1112 C1108 1.385 . S
C1112 C1111 1.374 . S
C1113 C1110 1.499 . S
C1113 C1114 1.373 . S
C1113 C1115 1.389 . S
C1114 H1087 0.950 . S
C1114 C1100 1.377 . S
C1114 C1113 1.373 . S
C1115 C1099 1.377 . S
C1115 C1113 1.389 . S
C1115 C1116 1.524 . S
C1116 C1115 1.524 . S
C1116 C1117 1.397 . S
C1116 C1121 1.363 . S
C1117 H1088 0.950 . S
C1117 C1116 1.397 . S
C1117 C1118 1.334 . S
C1118 H1089 0.950 . S
C1118 C1117 1.334 . S
C1118 C1119 1.287 . S
C1119 C1118 1.287 . S
C1119 C1120 1.524 . S
C1119 H1122 0.999 . S
C1120 H1090 0.950 . S
C1120 C1119 1.524 . S
C1120 C1121 1.415 . S
C1121 H1091 0.950 . S
C1121 C1116 1.363 . S
C1121 C1120 1.415 . S
H1122 C1119 0.999 . S
H1123 C1104 0.913 . S
H1124 C1142 0.951 1_565 S
H1125 C1144 0.951 . S
H1126 C1146 0.950 . S
H1127 C1147 0.950 . S
H1128 C1149 0.950 . S
H1129 C1152 0.950 . S
H1130 C1153 0.950 . S
H1131 C1155 0.950 1_565 S
H1132 C1156 0.950 . S
H1133 C1157 0.951 . S
H1134 C1159 0.951 . S
H1135 C1161 0.950 . S
H1136 C1162 0.950 . S
H1137 C1164 0.950 . S
H1138 C1167 0.950 . S
H1139 C1168 0.950 . S
H1140 C1170 0.950 . S
H1141 C1171 0.950 . S
C1142 H1124 0.951 1_545 S
C1142 C1143 1.366 . S
C1142 C1144 1.388 . S
C1143 C1142 1.366 . S
C1143 C1147 1.385 . S
C1144 H1125 0.951 . S
C1144 C1142 1.388 . S
C1144 C1145 1.366 . S
C1145 C1144 1.366 . S
C1145 C1146 1.414 . S
C1145 C1148 1.499 . S
C1146 H1126 0.950 . S
C1146 C1145 1.414 . S
C1146 C1147 1.374 . S
C1147 H1127 0.950 . S
C1147 C1143 1.385 . S
C1147 C1146 1.374 . S
C1148 C1145 1.499 . S
C1148 C1149 1.373 . S
C1148 C1150 1.389 . S
C1149 H1128 0.950 . S
C1149 C1148 1.373 . S
C1149 C1165 1.377 . S
C1150 C1148 1.389 . S
C1150 C1151 1.524 . S
C1150 C1164 1.377 . S
C1151 C1150 1.524 . S
C1151 C1152 1.397 . S
C1151 C1156 1.363 . S
C1152 H1129 0.950 . S
C1152 C1151 1.397 . S
C1152 C1153 1.334 . S
C1153 H1130 0.950 . S
C1153 C1152 1.334 . S
C1153 C1154 1.287 1_545 S
C1154 C1153 1.287 1_565 S
C1154 C1155 1.524 1_565 S
C1154 H1173 0.913 . S
C1155 H1131 0.950 1_545 S
C1155 C1154 1.524 1_545 S
C1155 C1156 1.415 . S
C1156 H1132 0.950 . S
C1156 C1151 1.363 . S
C1156 C1155 1.415 . S
C1157 H1133 0.951 . S
C1157 C1158 1.366 . S
C1157 C1159 1.388 . S
C1158 C1157 1.366 . S
C1158 C1162 1.385 . S
C1159 H1134 0.951 . S
C1159 C1157 1.388 . S
C1159 C1160 1.366 . S
C1160 C1159 1.366 . S
C1160 C1161 1.414 . S
C1160 C1163 1.499 . S
C1161 H1135 0.950 . S
C1161 C1160 1.414 . S
C1161 C1162 1.374 . S
C1162 H1136 0.950 . S
C1162 C1158 1.385 . S
C1162 C1161 1.374 . S
C1163 C1160 1.499 . S
C1163 C1164 1.373 . S
C1163 C1165 1.389 . S
C1164 H1137 0.950 . S
C1164 C1150 1.377 . S
C1164 C1163 1.373 . S
C1165 C1149 1.377 . S
C1165 C1163 1.389 . S
C1165 C1166 1.524 . S
C1166 C1165 1.524 . S
C1166 C1167 1.397 . S
C1166 C1171 1.363 . S
C1167 H1138 0.950 . S
C1167 C1166 1.397 . S
C1167 C1168 1.334 . S
C1168 H1139 0.950 . S
C1168 C1167 1.334 . S
C1168 C1169 1.287 . S
C1169 C1168 1.287 . S
C1169 C1170 1.524 . S
C1169 H1172 0.999 . S
C1170 H1140 0.950 . S
C1170 C1169 1.524 . S
C1170 C1171 1.415 . S
C1171 H1141 0.950 . S
C1171 C1166 1.363 . S
C1171 C1170 1.415 . S
H1172 C1169 0.999 . S
H1173 C1154 0.913 . S
H1174 C1192 0.951 1_565 S
H1175 C1194 0.951 . S
H1176 C1196 0.950 . S
H1177 C1197 0.950 . S
H1178 C1199 0.950 . S
H1179 C1202 0.950 . S
H1180 C1203 0.950 . S
H1181 C1205 0.950 . S
H1182 C1206 0.950 . S
H1183 C1207 0.951 . S
H1184 C1209 0.951 . S
H1185 C1211 0.950 . S
H1186 C1212 0.950 . S
H1187 C1214 0.950 . S
H1188 C1217 0.950 . S
H1189 C1218 0.950 . S
H1190 C1220 0.950 . S
H1191 C1221 0.950 . S
C1192 H1174 0.951 1_545 S
C1192 C1193 1.366 . S
C1192 C1194 1.388 . S
C1193 C1192 1.366 . S
C1193 C1197 1.385 . S
C1194 H1175 0.951 . S
C1194 C1192 1.388 . S
C1194 C1195 1.366 . S
C1195 C1194 1.366 . S
C1195 C1196 1.414 . S
C1195 C1198 1.499 . S
C1196 H1176 0.950 . S
C1196 C1195 1.414 . S
C1196 C1197 1.374 . S
C1197 H1177 0.950 . S
C1197 C1193 1.385 . S
C1197 C1196 1.374 . S
C1198 C1195 1.499 . S
C1198 C1199 1.373 . S
C1198 C1200 1.389 . S
C1199 H1178 0.950 . S
C1199 C1198 1.373 . S
C1199 C1215 1.377 . S
C1200 C1198 1.389 . S
C1200 C1201 1.524 . S
C1200 C1214 1.377 . S
C1201 C1200 1.524 . S
C1201 C1202 1.397 . S
C1201 C1206 1.363 . S
C1202 H1179 0.950 . S
C1202 C1201 1.397 . S
C1202 C1203 1.334 . S
C1203 H1180 0.950 . S
C1203 C1202 1.334 . S
C1203 C1204 1.287 . S
C1204 C1203 1.287 . S
C1204 C1205 1.524 . S
C1204 H1223 0.913 . S
C1205 H1181 0.950 . S
C1205 C1204 1.524 . S
C1205 C1206 1.415 . S
C1206 H1182 0.950 . S
C1206 C1201 1.363 . S
C1206 C1205 1.415 . S
C1207 H1183 0.951 . S
C1207 C1208 1.366 . S
C1207 C1209 1.388 . S
C1208 C1207 1.366 . S
C1208 C1212 1.385 . S
C1209 H1184 0.951 . S
C1209 C1207 1.388 . S
C1209 C1210 1.366 . S
C1210 C1209 1.366 . S
C1210 C1211 1.414 . S
C1210 C1213 1.499 . S
C1211 H1185 0.950 . S
C1211 C1210 1.414 . S
C1211 C1212 1.374 . S
C1212 H1186 0.950 . S
C1212 C1208 1.385 . S
C1212 C1211 1.374 . S
C1213 C1210 1.499 . S
C1213 C1214 1.373 . S
C1213 C1215 1.389 . S
C1214 H1187 0.950 . S
C1214 C1200 1.377 . S
C1214 C1213 1.373 . S
C1215 C1199 1.377 . S
C1215 C1213 1.389 . S
C1215 C1216 1.524 . S
C1216 C1215 1.524 . S
C1216 C1217 1.397 . S
C1216 C1221 1.363 . S
C1217 H1188 0.950 . S
C1217 C1216 1.397 . S
C1217 C1218 1.334 . S
C1218 H1189 0.950 . S
C1218 C1217 1.334 . S
C1218 C1219 1.287 . S
C1219 C1218 1.287 . S
C1219 C1220 1.524 . S
C1219 H1222 0.999 . S
C1220 H1190 0.950 . S
C1220 C1219 1.524 . S
C1220 C1221 1.415 . S
C1221 H1191 0.950 . S
C1221 C1216 1.363 . S
C1221 C1220 1.415 . S
H1222 C1219 0.999 . S
H1223 C1204 0.913 . S
H1224 C1242 0.951 . S
H1225 C1244 0.951 . S
H1226 C1246 0.950 . S
H1227 C1247 0.950 1_565 S
H1228 C1249 0.950 . S
H1229 C1252 0.950 . S
H1230 C1253 0.950 . S
H1231 C1255 0.950 . S
H1232 C1256 0.950 . S
H1233 C1257 0.951 . S
H1234 C1259 0.951 . S
H1235 C1261 0.950 . S
H1236 C1262 0.950 . S
H1237 C1264 0.950 . S
H1238 C1267 0.950 . S
H1239 C1268 0.950 . S
H1240 C1270 0.950 . S
H1241 C1271 0.950 . S
C1242 H1224 0.951 . S
C1242 C1243 1.366 . S
C1242 C1244 1.388 . S
C1243 C1242 1.366 . S
C1243 C1247 1.385 . S
C1244 H1225 0.951 . S
C1244 C1242 1.388 . S
C1244 C1245 1.366 . S
C1245 C1244 1.366 . S
C1245 C1246 1.414 . S
C1245 C1248 1.499 . S
C1246 H1226 0.950 . S
C1246 C1245 1.414 . S
C1246 C1247 1.374 . S
C1247 H1227 0.950 1_545 S
C1247 C1243 1.385 . S
C1247 C1246 1.374 . S
C1248 C1245 1.499 . S
C1248 C1249 1.373 . S
C1248 C1250 1.389 . S
C1249 H1228 0.950 . S
C1249 C1248 1.373 . S
C1249 C1265 1.377 . S
C1250 C1248 1.389 . S
C1250 C1251 1.524 . S
C1250 C1264 1.377 . S
C1251 C1250 1.524 . S
C1251 C1252 1.397 . S
C1251 C1256 1.363 . S
C1252 H1229 0.950 . S
C1252 C1251 1.397 . S
C1252 C1253 1.334 . S
C1253 H1230 0.950 . S
C1253 C1252 1.334 . S
C1253 C1254 1.287 . S
C1254 C1253 1.287 . S
C1254 C1255 1.524 . S
C1254 H1273 0.913 . S
C1255 H1231 0.950 . S
C1255 C1254 1.524 . S
C1255 C1256 1.415 . S
C1256 H1232 0.950 . S
C1256 C1251 1.363 . S
C1256 C1255 1.415 . S
C1257 H1233 0.951 . S
C1257 C1258 1.366 . S
C1257 C1259 1.388 . S
C1258 C1257 1.366 . S
C1258 C1262 1.385 . S
C1259 H1234 0.951 . S
C1259 C1257 1.388 . S
C1259 C1260 1.366 . S
C1260 C1259 1.366 . S
C1260 C1261 1.414 . S
C1260 C1263 1.499 . S
C1261 H1235 0.950 . S
C1261 C1260 1.414 . S
C1261 C1262 1.374 . S
C1262 H1236 0.950 . S
C1262 C1258 1.385 . S
C1262 C1261 1.374 . S
C1263 C1260 1.499 . S
C1263 C1264 1.373 . S
C1263 C1265 1.389 . S
C1264 H1237 0.950 . S
C1264 C1250 1.377 . S
C1264 C1263 1.373 . S
C1265 C1249 1.377 . S
C1265 C1263 1.389 . S
C1265 C1266 1.524 . S
C1266 C1265 1.524 . S
C1266 C1267 1.397 . S
C1266 C1271 1.363 . S
C1267 H1238 0.950 . S
C1267 C1266 1.397 . S
C1267 C1268 1.334 . S
C1268 H1239 0.950 . S
C1268 C1267 1.334 . S
C1268 C1269 1.287 . S
C1269 C1268 1.287 . S
C1269 C1270 1.524 . S
C1269 H1272 0.999 . S
C1270 H1240 0.950 . S
C1270 C1269 1.524 . S
C1270 C1271 1.415 . S
C1271 H1241 0.950 . S
C1271 C1266 1.363 . S
C1271 C1270 1.415 . S
H1272 C1269 0.999 . S
H1273 C1254 0.913 . S
H1274 C1292 0.951 1_565 S
H1275 C1294 0.951 . S
H1276 C1296 0.950 . S
H1277 C1297 0.950 . S
H1278 C1299 0.950 . S
H1279 C1302 0.950 . S
H1280 C1303 0.950 . S
H1281 C1305 0.950 . S
H1282 C1306 0.950 . S
H1283 C1307 0.951 . S
H1284 C1309 0.951 . S
H1285 C1311 0.950 . S
H1286 C1312 0.950 . S
H1287 C1314 0.950 . S
H1288 C1317 0.950 . S
H1289 C1318 0.950 . S
H1290 C1320 0.950 . S
H1291 C1321 0.950 . S
C1292 H1274 0.951 1_545 S
C1292 C1293 1.366 . S
C1292 C1294 1.388 . S
C1293 C1292 1.366 . S
C1293 C1297 1.385 . S
C1294 H1275 0.951 . S
C1294 C1292 1.388 . S
C1294 C1295 1.366 . S
C1295 C1294 1.366 . S
C1295 C1296 1.414 . S
C1295 C1298 1.499 . S
C1296 H1276 0.950 . S
C1296 C1295 1.414 . S
C1296 C1297 1.374 . S
C1297 H1277 0.950 . S
C1297 C1293 1.385 . S
C1297 C1296 1.374 . S
C1298 C1295 1.499 . S
C1298 C1299 1.373 . S
C1298 C1300 1.389 . S
C1299 H1278 0.950 . S
C1299 C1298 1.373 . S
C1299 C1315 1.377 . S
C1300 C1298 1.389 . S
C1300 C1301 1.524 . S
C1300 C1314 1.377 . S
C1301 C1300 1.524 . S
C1301 C1302 1.397 . S
C1301 C1306 1.363 . S
C1302 H1279 0.950 . S
C1302 C1301 1.397 . S
C1302 C1303 1.334 1_545 S
C1303 H1280 0.950 . S
C1303 C1302 1.334 1_565 S
C1303 C1304 1.287 . S
C1304 C1303 1.287 . S
C1304 C1305 1.524 . S
C1304 H1323 0.913 . S
C1305 H1281 0.950 . S
C1305 C1304 1.524 . S
C1305 C1306 1.415 1_565 S
C1306 H1282 0.950 . S
C1306 C1301 1.363 . S
C1306 C1305 1.415 1_545 S
C1307 H1283 0.951 . S
C1307 C1308 1.366 . S
C1307 C1309 1.388 . S
C1308 C1307 1.366 . S
C1308 C1312 1.385 . S
C1309 H1284 0.951 . S
C1309 C1307 1.388 . S
C1309 C1310 1.366 . S
C1310 C1309 1.366 . S
C1310 C1311 1.414 . S
C1310 C1313 1.499 . S
C1311 H1285 0.950 . S
C1311 C1310 1.414 . S
C1311 C1312 1.374 . S
C1312 H1286 0.950 . S
C1312 C1308 1.385 . S
C1312 C1311 1.374 . S
C1313 C1310 1.499 . S
C1313 C1314 1.373 . S
C1313 C1315 1.389 . S
C1314 H1287 0.950 . S
C1314 C1300 1.377 . S
C1314 C1313 1.373 . S
C1315 C1299 1.377 . S
C1315 C1313 1.389 . S
C1315 C1316 1.524 . S
C1316 C1315 1.524 . S
C1316 C1317 1.397 . S
C1316 C1321 1.363 . S
C1317 H1288 0.950 . S
C1317 C1316 1.397 . S
C1317 C1318 1.334 . S
C1318 H1289 0.950 . S
C1318 C1317 1.334 . S
C1318 C1319 1.287 . S
C1319 C1318 1.287 . S
C1319 C1320 1.524 . S
C1319 H1322 0.999 . S
C1320 H1290 0.950 . S
C1320 C1319 1.524 . S
C1320 C1321 1.415 . S
C1321 H1291 0.950 . S
C1321 C1316 1.363 . S
C1321 C1320 1.415 . S
H1322 C1319 0.999 . S
H1323 C1304 0.913 . S
H1324 C1342 0.951 . S
H1325 C1344 0.951 . S
H1326 C1346 0.950 . S
H1327 C1347 0.950 . S
H1328 C1349 0.950 . S
H1329 C1352 0.950 . S
H1330 C1353 0.950 . S
H1331 C1355 0.950 . S
H1332 C1356 0.950 . S
H1333 C1357 0.951 . S
H1334 C1359 0.951 . S
H1335 C1361 0.950 . S
H1336 C1362 0.950 1_545 S
H1337 C1364 0.950 . S
H1338 C1367 0.950 . S
H1339 C1368 0.950 1_545 S
H1340 C1370 0.950 . S
H1341 C1371 0.950 . S
C1342 H1324 0.951 . S
C1342 C1343 1.366 . S
C1342 C1344 1.388 . S
C1343 C1342 1.366 . S
C1343 C1347 1.385 . S
C1344 H1325 0.951 . S
C1344 C1342 1.388 . S
C1344 C1345 1.366 . S
C1345 C1344 1.366 . S
C1345 C1346 1.414 . S
C1345 C1348 1.499 . S
C1346 H1326 0.950 . S
C1346 C1345 1.414 . S
C1346 C1347 1.374 . S
C1347 H1327 0.950 . S
C1347 C1343 1.385 . S
C1347 C1346 1.374 . S
C1348 C1345 1.499 . S
C1348 C1349 1.373 . S
C1348 C1350 1.389 . S
C1349 H1328 0.950 . S
C1349 C1348 1.373 . S
C1349 C1365 1.377 . S
C1350 C1348 1.389 . S
C1350 C1351 1.524 . S
C1350 C1364 1.377 . S
C1351 C1350 1.524 . S
C1351 C1352 1.397 . S
C1351 C1356 1.363 . S
C1352 H1329 0.950 . S
C1352 C1351 1.397 . S
C1352 C1353 1.334 . S
C1353 H1330 0.950 . S
C1353 C1352 1.334 . S
C1353 C1354 1.287 . S
C1354 C1353 1.287 . S
C1354 C1355 1.524 . S
C1354 H1373 0.913 . S
C1355 H1331 0.950 . S
C1355 C1354 1.524 . S
C1355 C1356 1.415 . S
C1356 H1332 0.950 . S
C1356 C1351 1.363 . S
C1356 C1355 1.415 . S
C1357 H1333 0.951 . S
C1357 C1358 1.366 . S
C1357 C1359 1.388 . S
C1358 C1357 1.366 . S
C1358 C1362 1.385 . S
C1359 H1334 0.951 . S
C1359 C1357 1.388 . S
C1359 C1360 1.366 . S
C1360 C1359 1.366 . S
C1360 C1361 1.414 . S
C1360 C1363 1.499 . S
C1361 H1335 0.950 . S
C1361 C1360 1.414 . S
C1361 C1362 1.374 . S
C1362 H1336 0.950 1_565 S
C1362 C1358 1.385 . S
C1362 C1361 1.374 . S
C1363 C1360 1.499 . S
C1363 C1364 1.373 . S
C1363 C1365 1.389 . S
C1364 H1337 0.950 . S
C1364 C1350 1.377 . S
C1364 C1363 1.373 . S
C1365 C1349 1.377 . S
C1365 C1363 1.389 . S
C1365 C1366 1.524 . S
C1366 C1365 1.524 . S
C1366 C1367 1.397 . S
C1366 C1371 1.363 . S
C1367 H1338 0.950 . S
C1367 C1366 1.397 . S
C1367 C1368 1.334 . S
C1368 H1339 0.950 1_565 S
C1368 C1367 1.334 . S
C1368 C1369 1.287 . S
C1369 C1368 1.287 . S
C1369 C1370 1.524 . S
C1369 H1372 0.999 . S
C1370 H1340 0.950 . S
C1370 C1369 1.524 . S
C1370 C1371 1.415 . S
C1371 H1341 0.950 . S
C1371 C1366 1.363 . S
C1371 C1370 1.415 . S
H1372 C1369 0.999 . S
H1373 C1354 0.913 . S
H1374 C1392 0.951 . S
H1375 C1394 0.951 . S
H1376 C1396 0.950 . S
H1377 C1397 0.950 . S
H1378 C1399 0.950 . S
H1379 C1402 0.950 . S
H1380 C1403 0.950 . S
H1381 C1405 0.950 . S
H1382 C1406 0.950 . S
H1383 C1407 0.951 . S
H1384 C1409 0.951 . S
H1385 C1411 0.950 . S
H1386 C1412 0.950 1_545 S
H1387 C1414 0.950 . S
H1388 C1417 0.950 . S
H1389 C1418 0.950 . S
H1390 C1420 0.950 . S
H1391 C1421 0.950 . S
C1392 H1374 0.951 . S
C1392 C1393 1.366 . S
C1392 C1394 1.388 . S
C1393 C1392 1.366 . S
C1393 C1397 1.385 . S
C1394 H1375 0.951 . S
C1394 C1392 1.388 . S
C1394 C1395 1.366 . S
C1395 C1394 1.366 . S
C1395 C1396 1.414 . S
C1395 C1398 1.499 . S
C1396 H1376 0.950 . S
C1396 C1395 1.414 . S
C1396 C1397 1.374 . S
C1397 H1377 0.950 . S
C1397 C1393 1.385 . S
C1397 C1396 1.374 . S
C1398 C1395 1.499 . S
C1398 C1399 1.373 . S
C1398 C1400 1.389 . S
C1399 H1378 0.950 . S
C1399 C1398 1.373 . S
C1399 C1415 1.377 . S
C1400 C1398 1.389 . S
C1400 C1401 1.524 . S
C1400 C1414 1.377 . S
C1401 C1400 1.524 . S
C1401 C1402 1.397 . S
C1401 C1406 1.363 . S
C1402 H1379 0.950 . S
C1402 C1401 1.397 . S
C1402 C1403 1.334 . S
C1403 H1380 0.950 . S
C1403 C1402 1.334 . S
C1403 C1404 1.287 . S
C1404 C1403 1.287 . S
C1404 C1405 1.524 . S
C1404 H1423 0.913 . S
C1405 H1381 0.950 . S
C1405 C1404 1.524 . S
C1405 C1406 1.415 . S
C1406 H1382 0.950 . S
C1406 C1401 1.363 . S
C1406 C1405 1.415 . S
C1407 H1383 0.951 . S
C1407 C1408 1.366 . S
C1407 C1409 1.388 . S
C1408 C1407 1.366 . S
C1408 C1412 1.385 . S
C1409 H1384 0.951 . S
C1409 C1407 1.388 . S
C1409 C1410 1.366 . S
C1410 C1409 1.366 . S
C1410 C1411 1.414 . S
C1410 C1413 1.499 . S
C1411 H1385 0.950 . S
C1411 C1410 1.414 . S
C1411 C1412 1.374 . S
C1412 H1386 0.950 1_565 S
C1412 C1408 1.385 . S
C1412 C1411 1.374 . S
C1413 C1410 1.499 . S
C1413 C1414 1.373 . S
C1413 C1415 1.389 . S
C1414 H1387 0.950 . S
C1414 C1400 1.377 . S
C1414 C1413 1.373 . S
C1415 C1399 1.377 . S
C1415 C1413 1.389 . S
C1415 C1416 1.524 . S
C1416 C1415 1.524 . S
C1416 C1417 1.397 . S
C1416 C1421 1.363 . S
C1417 H1388 0.950 . S
C1417 C1416 1.397 . S
C1417 C1418 1.334 . S
C1418 H1389 0.950 . S
C1418 C1417 1.334 . S
C1418 C1419 1.287 . S
C1419 C1418 1.287 . S
C1419 C1420 1.524 . S
C1419 H1422 0.999 . S
C1420 H1390 0.950 . S
C1420 C1419 1.524 . S
C1420 C1421 1.415 . S
C1421 H1391 0.950 . S
C1421 C1416 1.363 . S
C1421 C1420 1.415 . S
H1422 C1419 0.999 . S
H1423 C1404 0.913 . S
H1424 C1442 0.951 . S
H1425 C1444 0.951 . S
H1426 C1446 0.950 . S
H1427 C1447 0.950 . S
H1428 C1449 0.950 . S
H1429 C1452 0.950 . S
H1430 C1453 0.950 . S
H1431 C1455 0.950 . S
H1432 C1456 0.950 . S
H1433 C1457 0.951 . S
H1434 C1459 0.951 . S
H1435 C1461 0.950 . S
H1436 C1462 0.950 . S
H1437 C1464 0.950 . S
H1438 C1467 0.950 . S
H1439 C1468 0.950 . S
H1440 C1470 0.950 . S
H1441 C1471 0.950 . S
C1442 H1424 0.951 . S
C1442 C1443 1.366 . S
C1442 C1444 1.388 . S
C1443 C1442 1.366 . S
C1443 C1447 1.385 . S
C1444 H1425 0.951 . S
C1444 C1442 1.388 . S
C1444 C1445 1.366 . S
C1445 C1444 1.366 . S
C1445 C1446 1.414 . S
C1445 C1448 1.499 . S
C1446 H1426 0.950 . S
C1446 C1445 1.414 . S
C1446 C1447 1.374 . S
C1447 H1427 0.950 . S
C1447 C1443 1.385 . S
C1447 C1446 1.374 . S
C1448 C1445 1.499 . S
C1448 C1449 1.373 . S
C1448 C1450 1.389 . S
C1449 H1428 0.950 . S
C1449 C1448 1.373 . S
C1449 C1465 1.377 . S
C1450 C1448 1.389 . S
C1450 C1451 1.524 . S
C1450 C1464 1.377 . S
C1451 C1450 1.524 . S
C1451 C1452 1.397 . S
C1451 C1456 1.363 . S
C1452 H1429 0.950 . S
C1452 C1451 1.397 . S
C1452 C1453 1.334 . S
C1453 H1430 0.950 . S
C1453 C1452 1.334 . S
C1453 C1454 1.287 . S
C1454 C1453 1.287 . S
C1454 C1455 1.524 . S
C1454 H1473 0.913 . S
C1455 H1431 0.950 . S
C1455 C1454 1.524 . S
C1455 C1456 1.415 . S
C1456 H1432 0.950 . S
C1456 C1451 1.363 . S
C1456 C1455 1.415 . S
C1457 H1433 0.951 . S
C1457 C1458 1.366 . S
C1457 C1459 1.388 . S
C1458 C1457 1.366 . S
C1458 C1462 1.385 . S
C1459 H1434 0.951 . S
C1459 C1457 1.388 . S
C1459 C1460 1.366 . S
C1460 C1459 1.366 . S
C1460 C1461 1.414 . S
C1460 C1463 1.499 . S
C1461 H1435 0.950 . S
C1461 C1460 1.414 . S
C1461 C1462 1.374 . S
C1462 H1436 0.950 . S
C1462 C1458 1.385 . S
C1462 C1461 1.374 . S
C1463 C1460 1.499 . S
C1463 C1464 1.373 . S
C1463 C1465 1.389 . S
C1464 H1437 0.950 . S
C1464 C1450 1.377 . S
C1464 C1463 1.373 . S
C1465 C1449 1.377 . S
C1465 C1463 1.389 . S
C1465 C1466 1.524 . S
C1466 C1465 1.524 . S
C1466 C1467 1.397 . S
C1466 C1471 1.363 . S
C1467 H1438 0.950 . S
C1467 C1466 1.397 . S
C1467 C1468 1.334 . S
C1468 H1439 0.950 . S
C1468 C1467 1.334 . S
C1468 C1469 1.287 . S
C1469 C1468 1.287 . S
C1469 C1470 1.524 . S
C1469 H1472 0.999 . S
C1470 H1440 0.950 . S
C1470 C1469 1.524 . S
C1470 C1471 1.415 . S
C1471 H1441 0.950 . S
C1471 C1466 1.363 . S
C1471 C1470 1.415 . S
H1472 C1469 0.999 . S
H1473 C1454 0.913 . S
H1474 C1492 0.951 . S
H1475 C1494 0.951 . S
H1476 C1496 0.950 . S
H1477 C1497 0.950 . S
H1478 C1499 0.950 . S
H1479 C1502 0.950 . S
H1480 C1503 0.950 . S
H1481 C1505 0.950 . S
H1482 C1506 0.950 . S
H1483 C1507 0.951 . S
H1484 C1509 0.951 . S
H1485 C1511 0.950 . S
H1486 C1512 0.950 . S
H1487 C1514 0.950 . S
H1488 C1517 0.950 . S
H1489 C1518 0.950 . S
H1490 C1520 0.950 . S
H1491 C1521 0.950 . S
C1492 H1474 0.951 . S
C1492 C1493 1.366 . S
C1492 C1494 1.388 . S
C1493 C1492 1.366 . S
C1493 C1497 1.385 . S
C1494 H1475 0.951 . S
C1494 C1492 1.388 . S
C1494 C1495 1.366 . S
C1495 C1494 1.366 . S
C1495 C1496 1.414 . S
C1495 C1498 1.499 . S
C1496 H1476 0.950 . S
C1496 C1495 1.414 . S
C1496 C1497 1.374 . S
C1497 H1477 0.950 . S
C1497 C1493 1.385 . S
C1497 C1496 1.374 . S
C1498 C1495 1.499 . S
C1498 C1499 1.373 . S
C1498 C1500 1.389 . S
C1499 H1478 0.950 . S
C1499 C1498 1.373 . S
C1499 C1515 1.377 . S
C1500 C1498 1.389 . S
C1500 C1501 1.524 . S
C1500 C1514 1.377 . S
C1501 C1500 1.524 . S
C1501 C1502 1.397 . S
C1501 C1506 1.363 . S
C1502 H1479 0.950 . S
C1502 C1501 1.397 . S
C1502 C1503 1.334 . S
C1503 H1480 0.950 . S
C1503 C1502 1.334 . S
C1503 C1504 1.287 . S
C1504 C1503 1.287 . S
C1504 C1505 1.524 . S
C1504 H1523 0.913 . S
C1505 H1481 0.950 . S
C1505 C1504 1.524 . S
C1505 C1506 1.415 . S
C1506 H1482 0.950 . S
C1506 C1501 1.363 . S
C1506 C1505 1.415 . S
C1507 H1483 0.951 . S
C1507 C1508 1.366 . S
C1507 C1509 1.388 . S
C1508 C1507 1.366 . S
C1508 C1512 1.385 . S
C1509 H1484 0.951 . S
C1509 C1507 1.388 . S
C1509 C1510 1.366 . S
C1510 C1509 1.366 . S
C1510 C1511 1.414 . S
C1510 C1513 1.499 . S
C1511 H1485 0.950 . S
C1511 C1510 1.414 . S
C1511 C1512 1.374 . S
C1512 H1486 0.950 . S
C1512 C1508 1.385 . S
C1512 C1511 1.374 . S
C1513 C1510 1.499 . S
C1513 C1514 1.373 . S
C1513 C1515 1.389 . S
C1514 H1487 0.950 . S
C1514 C1500 1.377 . S
C1514 C1513 1.373 . S
C1515 C1499 1.377 . S
C1515 C1513 1.389 . S
C1515 C1516 1.524 . S
C1516 C1515 1.524 . S
C1516 C1517 1.397 . S
C1516 C1521 1.363 . S
C1517 H1488 0.950 . S
C1517 C1516 1.397 . S
C1517 C1518 1.334 . S
C1518 H1489 0.950 . S
C1518 C1517 1.334 . S
C1518 C1519 1.287 . S
C1519 C1518 1.287 . S
C1519 C1520 1.524 . S
C1519 H1522 0.999 . S
C1520 H1490 0.950 . S
C1520 C1519 1.524 . S
C1520 C1521 1.415 . S
C1521 H1491 0.950 . S
C1521 C1516 1.363 . S
C1521 C1520 1.415 . S
H1522 C1519 0.999 . S
H1523 C1504 0.913 . S
H1524 C1542 0.951 . S
H1525 C1544 0.951 . S
H1526 C1546 0.950 . S
H1527 C1547 0.950 . S
H1528 C1549 0.950 . S
H1529 C1552 0.950 . S
H1530 C1553 0.950 . S
H1531 C1555 0.950 . S
H1532 C1556 0.950 . S
H1533 C1557 0.951 . S
H1534 C1559 0.951 . S
H1535 C1561 0.950 . S
H1536 C1562 0.950 . S
H1537 C1564 0.950 . S
H1538 C1567 0.950 . S
H1539 C1568 0.950 . S
H1540 C1570 0.950 . S
H1541 C1571 0.950 . S
C1542 H1524 0.951 . S
C1542 C1543 1.366 . S
C1542 C1544 1.388 . S
C1543 C1542 1.366 . S
C1543 C1547 1.385 . S
C1544 H1525 0.951 . S
C1544 C1542 1.388 . S
C1544 C1545 1.366 . S
C1545 C1544 1.366 . S
C1545 C1546 1.414 . S
C1545 C1548 1.499 . S
C1546 H1526 0.950 . S
C1546 C1545 1.414 . S
C1546 C1547 1.374 . S
C1547 H1527 0.950 . S
C1547 C1543 1.385 . S
C1547 C1546 1.374 . S
C1548 C1545 1.499 . S
C1548 C1549 1.373 . S
C1548 C1550 1.389 . S
C1549 H1528 0.950 . S
C1549 C1548 1.373 . S
C1549 C1565 1.377 . S
C1550 C1548 1.389 . S
C1550 C1551 1.524 . S
C1550 C1564 1.377 . S
C1551 C1550 1.524 . S
C1551 C1552 1.397 . S
C1551 C1556 1.363 . S
C1552 H1529 0.950 . S
C1552 C1551 1.397 . S
C1552 C1553 1.334 . S
C1553 H1530 0.950 . S
C1553 C1552 1.334 . S
C1553 C1554 1.287 . S
C1554 C1553 1.287 . S
C1554 C1555 1.524 . S
C1554 H1573 0.913 . S
C1555 H1531 0.950 . S
C1555 C1554 1.524 . S
C1555 C1556 1.415 . S
C1556 H1532 0.950 . S
C1556 C1551 1.363 . S
C1556 C1555 1.415 . S
C1557 H1533 0.951 . S
C1557 C1558 1.366 . S
C1557 C1559 1.388 . S
C1558 C1557 1.366 . S
C1558 C1562 1.385 . S
C1559 H1534 0.951 . S
C1559 C1557 1.388 . S
C1559 C1560 1.366 . S
C1560 C1559 1.366 . S
C1560 C1561 1.414 . S
C1560 C1563 1.499 . S
C1561 H1535 0.950 . S
C1561 C1560 1.414 . S
C1561 C1562 1.374 . S
C1562 H1536 0.950 . S
C1562 C1558 1.385 . S
C1562 C1561 1.374 . S
C1563 C1560 1.499 . S
C1563 C1564 1.373 . S
C1563 C1565 1.389 . S
C1564 H1537 0.950 . S
C1564 C1550 1.377 . S
C1564 C1563 1.373 . S
C1565 C1549 1.377 . S
C1565 C1563 1.389 . S
C1565 C1566 1.524 . S
C1566 C1565 1.524 . S
C1566 C1567 1.397 . S
C1566 C1571 1.363 . S
C1567 H1538 0.950 . S
C1567 C1566 1.397 . S
C1567 C1568 1.334 . S
C1568 H1539 0.950 . S
C1568 C1567 1.334 . S
C1568 C1569 1.287 . S
C1569 C1568 1.287 . S
C1569 C1570 1.524 . S
C1569 H1572 0.999 . S
C1570 H1540 0.950 . S
C1570 C1569 1.524 . S
C1570 C1571 1.415 . S
C1571 H1541 0.950 . S
C1571 C1566 1.363 . S
C1571 C1570 1.415 . S
H1572 C1569 0.999 . S
H1573 C1554 0.913 . S
H1574 C1592 0.951 . S
H1575 C1594 0.951 . S
H1576 C1596 0.950 . S
H1577 C1597 0.950 . S
H1578 C1599 0.950 . S
H1579 C1602 0.950 . S
H1580 C1603 0.950 . S
H1581 C1605 0.950 . S
H1582 C1606 0.950 . S
H1583 C1607 0.951 . S
H1584 C1609 0.951 . S
H1585 C1611 0.950 . S
H1586 C1612 0.950 . S
H1587 C1614 0.950 . S
H1588 C1617 0.950 . S
H1589 C1618 0.950 . S
H1590 C1620 0.950 . S
H1591 C1621 0.950 . S
C1592 H1574 0.951 . S
C1592 C1593 1.366 . S
C1592 C1594 1.388 . S
C1593 C1592 1.366 . S
C1593 C1597 1.385 . S
C1594 H1575 0.951 . S
C1594 C1592 1.388 . S
C1594 C1595 1.366 . S
C1595 C1594 1.366 . S
C1595 C1596 1.414 . S
C1595 C1598 1.499 . S
C1596 H1576 0.950 . S
C1596 C1595 1.414 . S
C1596 C1597 1.374 . S
C1597 H1577 0.950 . S
C1597 C1593 1.385 . S
C1597 C1596 1.374 . S
C1598 C1595 1.499 . S
C1598 C1599 1.373 . S
C1598 C1600 1.389 . S
C1599 H1578 0.950 . S
C1599 C1598 1.373 . S
C1599 C1615 1.377 . S
C1600 C1598 1.389 . S
C1600 C1601 1.524 . S
C1600 C1614 1.377 . S
C1601 C1600 1.524 . S
C1601 C1602 1.397 . S
C1601 C1606 1.363 . S
C1602 H1579 0.950 . S
C1602 C1601 1.397 . S
C1602 C1603 1.334 . S
C1603 H1580 0.950 . S
C1603 C1602 1.334 . S
C1603 C1604 1.287 . S
C1604 C1603 1.287 . S
C1604 C1605 1.524 . S
C1604 H1623 0.913 . S
C1605 H1581 0.950 . S
C1605 C1604 1.524 . S
C1605 C1606 1.415 . S
C1606 H1582 0.950 . S
C1606 C1601 1.363 . S
C1606 C1605 1.415 . S
C1607 H1583 0.951 . S
C1607 C1608 1.366 . S
C1607 C1609 1.388 . S
C1608 C1607 1.366 . S
C1608 C1612 1.385 . S
C1609 H1584 0.951 . S
C1609 C1607 1.388 . S
C1609 C1610 1.366 . S
C1610 C1609 1.366 . S
C1610 C1611 1.414 . S
C1610 C1613 1.499 . S
C1611 H1585 0.950 . S
C1611 C1610 1.414 . S
C1611 C1612 1.374 . S
C1612 H1586 0.950 . S
C1612 C1608 1.385 . S
C1612 C1611 1.374 . S
C1613 C1610 1.499 . S
C1613 C1614 1.373 . S
C1613 C1615 1.389 . S
C1614 H1587 0.950 . S
C1614 C1600 1.377 . S
C1614 C1613 1.373 . S
C1615 C1599 1.377 . S
C1615 C1613 1.389 . S
C1615 C1616 1.524 . S
C1616 C1615 1.524 . S
C1616 C1617 1.397 . S
C1616 C1621 1.363 . S
C1617 H1588 0.950 . S
C1617 C1616 1.397 . S
C1617 C1618 1.334 . S
C1618 H1589 0.950 . S
C1618 C1617 1.334 . S
C1618 C1619 1.287 . S
C1619 C1618 1.287 . S
C1619 C1620 1.524 . S
C1619 H1622 0.999 . S
C1620 H1590 0.950 . S
C1620 C1619 1.524 . S
C1620 C1621 1.415 . S
C1621 H1591 0.950 . S
C1621 C1616 1.363 . S
C1621 C1620 1.415 . S
H1622 C1619 0.999 . S
H1623 C1604 0.913 . S
H1624 C1642 0.951 . S
H1625 C1644 0.951 . S
H1626 C1646 0.950 . S
H1627 C1647 0.950 . S
H1628 C1649 0.950 . S
H1629 C1652 0.950 . S
H1630 C1653 0.950 . S
H1631 C1655 0.950 . S
H1632 C1656 0.950 . S
H1633 C1657 0.951 . S
H1634 C1659 0.951 . S
H1635 C1661 0.950 . S
H1636 C1662 0.950 . S
H1637 C1664 0.950 . S
H1638 C1667 0.950 . S
H1639 C1668 0.950 . S
H1640 C1670 0.950 . S
H1641 C1671 0.950 . S
C1642 H1624 0.951 . S
C1642 C1643 1.366 . S
C1642 C1644 1.388 . S
C1643 C1642 1.366 . S
C1643 C1647 1.385 . S
C1644 H1625 0.951 . S
C1644 C1642 1.388 . S
C1644 C1645 1.366 . S
C1645 C1644 1.366 . S
C1645 C1646 1.414 . S
C1645 C1648 1.499 . S
C1646 H1626 0.950 . S
C1646 C1645 1.414 . S
C1646 C1647 1.374 . S
C1647 H1627 0.950 . S
C1647 C1643 1.385 . S
C1647 C1646 1.374 . S
C1648 C1645 1.499 . S
C1648 C1649 1.373 . S
C1648 C1650 1.389 . S
C1649 H1628 0.950 . S
C1649 C1648 1.373 . S
C1649 C1665 1.377 . S
C1650 C1648 1.389 . S
C1650 C1651 1.524 . S
C1650 C1664 1.377 . S
C1651 C1650 1.524 . S
C1651 C1652 1.397 . S
C1651 C1656 1.363 . S
C1652 H1629 0.950 . S
C1652 C1651 1.397 . S
C1652 C1653 1.334 . S
C1653 H1630 0.950 . S
C1653 C1652 1.334 . S
C1653 C1654 1.287 . S
C1654 C1653 1.287 . S
C1654 C1655 1.524 . S
C1654 H1673 0.913 . S
C1655 H1631 0.950 . S
C1655 C1654 1.524 . S
C1655 C1656 1.415 . S
C1656 H1632 0.950 . S
C1656 C1651 1.363 . S
C1656 C1655 1.415 . S
C1657 H1633 0.951 . S
C1657 C1658 1.366 . S
C1657 C1659 1.388 . S
C1658 C1657 1.366 . S
C1658 C1662 1.385 . S
C1659 H1634 0.951 . S
C1659 C1657 1.388 . S
C1659 C1660 1.366 . S
C1660 C1659 1.366 . S
C1660 C1661 1.414 . S
C1660 C1663 1.499 . S
C1661 H1635 0.950 . S
C1661 C1660 1.414 . S
C1661 C1662 1.374 . S
C1662 H1636 0.950 . S
C1662 C1658 1.385 . S
C1662 C1661 1.374 . S
C1663 C1660 1.499 . S
C1663 C1664 1.373 . S
C1663 C1665 1.389 . S
C1664 H1637 0.950 . S
C1664 C1650 1.377 . S
C1664 C1663 1.373 . S
C1665 C1649 1.377 . S
C1665 C1663 1.389 . S
C1665 C1666 1.524 . S
C1666 C1665 1.524 . S
C1666 C1667 1.397 . S
C1666 C1671 1.363 . S
C1667 H1638 0.950 . S
C1667 C1666 1.397 . S
C1667 C1668 1.334 . S
C1668 H1639 0.950 . S
C1668 C1667 1.334 . S
C1668 C1669 1.287 . S
C1669 C1668 1.287 . S
C1669 C1670 1.524 . S
C1669 H1672 0.999 . S
C1670 H1640 0.950 . S
C1670 C1669 1.524 . S
C1670 C1671 1.415 . S
C1671 H1641 0.950 . S
C1671 C1666 1.363 . S
C1671 C1670 1.415 . S
H1672 C1669 0.999 . S
H1673 C1654 0.913 . S
H1674 C1692 0.951 . S
H1675 C1694 0.951 . S
H1676 C1696 0.950 . S
H1677 C1697 0.950 . S
H1678 C1699 0.950 . S
H1679 C1702 0.950 . S
H1680 C1703 0.950 . S
H1681 C1705 0.950 . S
H1682 C1706 0.950 . S
H1683 C1707 0.951 . S
H1684 C1709 0.951 . S
H1685 C1711 0.950 . S
H1686 C1712 0.950 . S
H1687 C1714 0.950 . S
H1688 C1717 0.950 . S
H1689 C1718 0.950 . S
H1690 C1720 0.950 . S
H1691 C1721 0.950 . S
C1692 H1674 0.951 . S
C1692 C1693 1.366 . S
C1692 C1694 1.388 . S
C1693 C1692 1.366 . S
C1693 C1697 1.385 . S
C1694 H1675 0.951 . S
C1694 C1692 1.388 . S
C1694 C1695 1.366 . S
C1695 C1694 1.366 . S
C1695 C1696 1.414 . S
C1695 C1698 1.499 . S
C1696 H1676 0.950 . S
C1696 C1695 1.414 . S
C1696 C1697 1.374 . S
C1697 H1677 0.950 . S
C1697 C1693 1.385 . S
C1697 C1696 1.374 . S
C1698 C1695 1.499 . S
C1698 C1699 1.373 . S
C1698 C1700 1.389 . S
C1699 H1678 0.950 . S
C1699 C1698 1.373 . S
C1699 C1715 1.377 . S
C1700 C1698 1.389 . S
C1700 C1701 1.524 . S
C1700 C1714 1.377 . S
C1701 C1700 1.524 . S
C1701 C1702 1.397 . S
C1701 C1706 1.363 . S
C1702 H1679 0.950 . S
C1702 C1701 1.397 . S
C1702 C1703 1.334 . S
C1703 H1680 0.950 . S
C1703 C1702 1.334 . S
C1703 C1704 1.287 . S
C1704 C1703 1.287 . S
C1704 C1705 1.524 . S
C1704 H1723 0.913 . S
C1705 H1681 0.950 . S
C1705 C1704 1.524 . S
C1705 C1706 1.415 . S
C1706 H1682 0.950 . S
C1706 C1701 1.363 . S
C1706 C1705 1.415 . S
C1707 H1683 0.951 . S
C1707 C1708 1.366 . S
C1707 C1709 1.388 . S
C1708 C1707 1.366 . S
C1708 C1712 1.385 . S
C1709 H1684 0.951 . S
C1709 C1707 1.388 . S
C1709 C1710 1.366 . S
C1710 C1709 1.366 . S
C1710 C1711 1.414 . S
C1710 C1713 1.499 . S
C1711 H1685 0.950 . S
C1711 C1710 1.414 . S
C1711 C1712 1.374 . S
C1712 H1686 0.950 . S
C1712 C1708 1.385 . S
C1712 C1711 1.374 . S
C1713 C1710 1.499 . S
C1713 C1714 1.373 . S
C1713 C1715 1.389 . S
C1714 H1687 0.950 . S
C1714 C1700 1.377 . S
C1714 C1713 1.373 . S
C1715 C1699 1.377 . S
C1715 C1713 1.389 . S
C1715 C1716 1.524 . S
C1716 C1715 1.524 . S
C1716 C1717 1.397 . S
C1716 C1721 1.363 . S
C1717 H1688 0.950 . S
C1717 C1716 1.397 . S
C1717 C1718 1.334 . S
C1718 H1689 0.950 . S
C1718 C1717 1.334 . S
C1718 C1719 1.287 . S
C1719 C1718 1.287 . S
C1719 C1720 1.524 . S
C1719 H1722 0.999 . S
C1720 H1690 0.950 . S
C1720 C1719 1.524 . S
C1720 C1721 1.415 . S
C1721 H1691 0.950 . S
C1721 C1716 1.363 . S
C1721 C1720 1.415 . S
H1722 C1719 0.999 . S
H1723 C1704 0.913 . S
H1724 C1742 0.951 . S
H1725 C1744 0.951 . S
H1726 C1746 0.950 . S
H1727 C1747 0.950 . S
H1728 C1749 0.950 . S
H1729 C1752 0.950 . S
H1730 C1753 0.950 . S
H1731 C1755 0.950 . S
H1732 C1756 0.950 . S
H1733 C1757 0.951 . S
H1734 C1759 0.951 . S
H1735 C1761 0.950 . S
H1736 C1762 0.950 . S
H1737 C1764 0.950 . S
H1738 C1767 0.950 . S
H1739 C1768 0.950 . S
H1740 C1770 0.950 . S
H1741 C1771 0.950 . S
C1742 H1724 0.951 . S
C1742 C1743 1.366 . S
C1742 C1744 1.388 . S
C1743 C1742 1.366 . S
C1743 C1747 1.385 . S
C1744 H1725 0.951 . S
C1744 C1742 1.388 . S
C1744 C1745 1.366 . S
C1745 C1744 1.366 . S
C1745 C1746 1.414 . S
C1745 C1748 1.499 . S
C1746 H1726 0.950 . S
C1746 C1745 1.414 . S
C1746 C1747 1.374 . S
C1747 H1727 0.950 . S
C1747 C1743 1.385 . S
C1747 C1746 1.374 . S
C1748 C1745 1.499 . S
C1748 C1749 1.373 . S
C1748 C1750 1.389 . S
C1749 H1728 0.950 . S
C1749 C1748 1.373 . S
C1749 C1765 1.377 . S
C1750 C1748 1.389 . S
C1750 C1751 1.524 . S
C1750 C1764 1.377 . S
C1751 C1750 1.524 . S
C1751 C1752 1.397 . S
C1751 C1756 1.363 . S
C1752 H1729 0.950 . S
C1752 C1751 1.397 . S
C1752 C1753 1.334 . S
C1753 H1730 0.950 . S
C1753 C1752 1.334 . S
C1753 C1754 1.287 . S
C1754 C1753 1.287 . S
C1754 C1755 1.524 . S
C1754 H1773 0.913 . S
C1755 H1731 0.950 . S
C1755 C1754 1.524 . S
C1755 C1756 1.415 . S
C1756 H1732 0.950 . S
C1756 C1751 1.363 . S
C1756 C1755 1.415 . S
C1757 H1733 0.951 . S
C1757 C1758 1.366 . S
C1757 C1759 1.388 . S
C1758 C1757 1.366 . S
C1758 C1762 1.385 . S
C1759 H1734 0.951 . S
C1759 C1757 1.388 . S
C1759 C1760 1.366 . S
C1760 C1759 1.366 . S
C1760 C1761 1.414 . S
C1760 C1763 1.499 . S
C1761 H1735 0.950 . S
C1761 C1760 1.414 . S
C1761 C1762 1.374 . S
C1762 H1736 0.950 . S
C1762 C1758 1.385 . S
C1762 C1761 1.374 . S
C1763 C1760 1.499 . S
C1763 C1764 1.373 . S
C1763 C1765 1.389 . S
C1764 H1737 0.950 . S
C1764 C1750 1.377 . S
C1764 C1763 1.373 . S
C1765 C1749 1.377 . S
C1765 C1763 1.389 . S
C1765 C1766 1.524 . S
C1766 C1765 1.524 . S
C1766 C1767 1.397 . S
C1766 C1771 1.363 . S
C1767 H1738 0.950 . S
C1767 C1766 1.397 . S
C1767 C1768 1.334 . S
C1768 H1739 0.950 . S
C1768 C1767 1.334 . S
C1768 C1769 1.287 . S
C1769 C1768 1.287 . S
C1769 C1770 1.524 . S
C1769 H1772 0.999 . S
C1770 H1740 0.950 . S
C1770 C1769 1.524 . S
C1770 C1771 1.415 . S
C1771 H1741 0.950 . S
C1771 C1766 1.363 . S
C1771 C1770 1.415 . S
H1772 C1769 0.999 . S
H1773 C1754 0.913 . S
H1774 C1792 0.951 . S
H1775 C1794 0.951 . S
H1776 C1796 0.950 . S
H1777 C1797 0.950 . S
H1778 C1799 0.950 . S
H1779 C1802 0.950 . S
H1780 C1803 0.950 . S
H1781 C1805 0.950 . S
H1782 C1806 0.950 . S
H1783 C1807 0.951 . S
H1784 C1809 0.951 . S
H1785 C1811 0.950 . S
H1786 C1812 0.950 . S
H1787 C1814 0.950 . S
H1788 C1817 0.950 . S
H1789 C1818 0.950 . S
H1790 C1820 0.950 . S
H1791 C1821 0.950 . S
C1792 H1774 0.951 . S
C1792 C1793 1.366 . S
C1792 C1794 1.388 . S
C1793 C1792 1.366 . S
C1793 C1797 1.385 . S
C1794 H1775 0.951 . S
C1794 C1792 1.388 . S
C1794 C1795 1.366 . S
C1795 C1794 1.366 . S
C1795 C1796 1.414 . S
C1795 C1798 1.499 . S
C1796 H1776 0.950 . S
C1796 C1795 1.414 . S
C1796 C1797 1.374 . S
C1797 H1777 0.950 . S
C1797 C1793 1.385 . S
C1797 C1796 1.374 . S
C1798 C1795 1.499 . S
C1798 C1799 1.373 . S
C1798 C1800 1.389 . S
C1799 H1778 0.950 . S
C1799 C1798 1.373 . S
C1799 C1815 1.377 . S
C1800 C1798 1.389 . S
C1800 C1801 1.524 . S
C1800 C1814 1.377 . S
C1801 C1800 1.524 . S
C1801 C1802 1.397 . S
C1801 C1806 1.363 . S
C1802 H1779 0.950 . S
C1802 C1801 1.397 . S
C1802 C1803 1.334 . S
C1803 H1780 0.950 . S
C1803 C1802 1.334 . S
C1803 C1804 1.287 . S
C1804 C1803 1.287 . S
C1804 C1805 1.524 . S
C1804 H1823 0.913 . S
C1805 H1781 0.950 . S
C1805 C1804 1.524 . S
C1805 C1806 1.415 . S
C1806 H1782 0.950 . S
C1806 C1801 1.363 . S
C1806 C1805 1.415 . S
C1807 H1783 0.951 . S
C1807 C1808 1.366 . S
C1807 C1809 1.388 . S
C1808 C1807 1.366 . S
C1808 C1812 1.385 . S
C1809 H1784 0.951 . S
C1809 C1807 1.388 . S
C1809 C1810 1.366 . S
C1810 C1809 1.366 . S
C1810 C1811 1.414 . S
C1810 C1813 1.499 . S
C1811 H1785 0.950 . S
C1811 C1810 1.414 . S
C1811 C1812 1.374 . S
C1812 H1786 0.950 . S
C1812 C1808 1.385 . S
C1812 C1811 1.374 . S
C1813 C1810 1.499 . S
C1813 C1814 1.373 . S
C1813 C1815 1.389 . S
C1814 H1787 0.950 . S
C1814 C1800 1.377 . S
C1814 C1813 1.373 . S
C1815 C1799 1.377 . S
C1815 C1813 1.389 . S
C1815 C1816 1.524 . S
C1816 C1815 1.524 . S
C1816 C1817 1.397 . S
C1816 C1821 1.363 . S
C1817 H1788 0.950 . S
C1817 C1816 1.397 . S
C1817 C1818 1.334 . S
C1818 H1789 0.950 . S
C1818 C1817 1.334 . S
C1818 C1819 1.287 . S
C1819 C1818 1.287 . S
C1819 C1820 1.524 . S
C1819 H1822 0.999 . S
C1820 H1790 0.950 . S
C1820 C1819 1.524 . S
C1820 C1821 1.415 . S
C1821 H1791 0.950 . S
C1821 C1816 1.363 . S
C1821 C1820 1.415 . S
H1822 C1819 0.999 . S
H1823 C1804 0.913 . S
C243 C11 0.914 . S
C258 C193 0.914 . S
C293 C165 0.914 . S
C308 C25 0.914 . S
C343 C179 0.914 . S
C358 C39 0.914 . S
C393 C151 0.915 . S
C408 C53 0.915 . S
C443 C67 0.914 . S
C458 C221 0.914 . S
C493 C81 0.914 . S
C508 C137 0.915 . S
C543 C207 0.914 . S
C558 C95 0.915 . S
C593 C109 0.914 . S
C608 C123 0.915 . S
C643 C69 1.512 . S
C658 C13 1.512 . S
C693 C27 1.511 . S
C708 C83 1.511 . S
C743 C41 1.510 . S
C758 C97 1.510 . S
C793 C111 1.512 . S
C808 C55 1.511 . S
C843 C125 1.512 . S
C858 C153 1.512 . S
C893 C139 1.511 . S
C908 C167 1.511 . S
C943 C209 1.510 . S
C958 C181 1.510 . S
C993 C195 1.511 . S
C1008 C223 1.512 . S
C1043 C77 1.298 . S
C1058 C7 1.299 . S
C1093 C21 1.298 . S
C1108 C91 1.299 . S
C1143 C35 1.299 . S
C1158 C105 1.300 . S
C1193 C63 1.299 . S
C1208 C49 1.299 . S
C1243 C64 1.204 . S
C1258 C148 1.198 . S
C1293 C36 1.202 . S
C1308 C120 1.197 . S
C1343 C162 1.197 . S
C1358 C92 1.202 . S
C1393 C134 1.197 . S
C1408 C8 1.203 . S
C1443 C119 1.299 . S
C1458 C175 1.299 . S
C1493 C147 1.299 . S
C1508 C217 1.299 . S
C1543 C189 1.298 . S
C1558 C133 1.299 . S
C1593 C161 1.299 . S
C1608 C203 1.299 . S
C1643 C204 1.198 . S
C1658 C22 1.198 . S
C1693 C190 1.198 . S
C1708 C78 1.198 . S
C1743 C218 1.197 . S
C1758 C50 1.198 . S
C1793 C176 1.198 . S
C1808 C106 1.197 . S
