# Generated by pormake.
# Topology vcc, (6)-cn, num edge types: 1
# Building blocks:
#     Node 0, Type 0, BuildingBlock: JUFBIX_clean_sbu_0, # of connection points: 6
#     Node 1, Type 0, BuildingBlock: JUFBIX_clean_sbu_0, # of connection points: 6
#     Node 2, Type 0, BuildingBlock: JUFBIX_clean_sbu_0, # of connection points: 6
#     Node 3, Type 0, BuildingBlock: JUFBIX_clean_sbu_0, # of connection points: 6
#     Node 4, Type 0, BuildingBlock: JUFBIX_clean_sbu_0, # of connection points: 6
#     Node 5, Type 0, BuildingBlock: JUFBIX_clean_sbu_0, # of connection points: 6
#     Node 6, Type 0, BuildingBlock: JUFBIX_clean_sbu_0, # of connection points: 6
#     Node 7, Type 0, BuildingBlock: JUFBIX_clean_sbu_0, # of connection points: 6
#     Node 8, Type 0, BuildingBlock: JUFBIX_clean_sbu_0, # of connection points: 6
#     Node 9, Type 0, BuildingBlock: JUFBIX_clean_sbu_0, # of connection points: 6
#     Node 10, Type 0, BuildingBlock: JUFBIX_clean_sbu_0, # of connection points: 6
#     Node 11, Type 0, BuildingBlock: JUFBIX_clean_sbu_0, # of connection points: 6
#     Node 12, Type 0, BuildingBlock: JUFBIX_clean_sbu_0, # of connection points: 6
#     Node 13, Type 0, BuildingBlock: JUFBIX_clean_sbu_0, # of connection points: 6
#     Node 14, Type 0, BuildingBlock: JUFBIX_clean_sbu_0, # of connection points: 6
#     Node 15, Type 0, BuildingBlock: JUFBIX_clean_sbu_0, # of connection points: 6
#     Node 16, Type 0, BuildingBlock: JUFBIX_clean_sbu_0, # of connection points: 6
#     Node 17, Type 0, BuildingBlock: JUFBIX_clean_sbu_0, # of connection points: 6
#     Node 18, Type 0, BuildingBlock: JUFBIX_clean_sbu_0, # of connection points: 6
#     Node 19, Type 0, BuildingBlock: JUFBIX_clean_sbu_0, # of connection points: 6
#     Node 20, Type 0, BuildingBlock: JUFBIX_clean_sbu_0, # of connection points: 6
#     Node 21, Type 0, BuildingBlock: JUFBIX_clean_sbu_0, # of connection points: 6
#     Node 22, Type 0, BuildingBlock: JUFBIX_clean_sbu_0, # of connection points: 6
#     Node 23, Type 0, BuildingBlock: JUFBIX_clean_sbu_0, # of connection points: 6
#     Node 24, Type 0, BuildingBlock: JUFBIX_clean_sbu_0, # of connection points: 6
#     Node 25, Type 0, BuildingBlock: JUFBIX_clean_sbu_0, # of connection points: 6
#     Node 26, Type 0, BuildingBlock: JUFBIX_clean_sbu_0, # of connection points: 6
#     Node 27, Type 0, BuildingBlock: JUFBIX_clean_sbu_0, # of connection points: 6
#     Node 28, Type 0, BuildingBlock: JUFBIX_clean_sbu_0, # of connection points: 6
#     Node 29, Type 0, BuildingBlock: JUFBIX_clean_sbu_0, # of connection points: 6
#     Node 30, Type 0, BuildingBlock: JUFBIX_clean_sbu_0, # of connection points: 6
#     Node 31, Type 0, BuildingBlock: JUFBIX_clean_sbu_0, # of connection points: 6
#     Edge 32, Type (0, 0), BuildingBlock: OJICUG_clean_linker_0, # of connection points: 2
#     Edge 33, Type (0, 0), BuildingBlock: OJICUG_clean_linker_0, # of connection points: 2
#     Edge 34, Type (0, 0), BuildingBlock: OJICUG_clean_linker_0, # of connection points: 2
#     Edge 35, Type (0, 0), BuildingBlock: OJICUG_clean_linker_0, # of connection points: 2
#     Edge 36, Type (0, 0), BuildingBlock: OJICUG_clean_linker_0, # of connection points: 2
#     Edge 37, Type (0, 0), BuildingBlock: OJICUG_clean_linker_0, # of connection points: 2
#     Edge 38, Type (0, 0), BuildingBlock: OJICUG_clean_linker_0, # of connection points: 2
#     Edge 39, Type (0, 0), BuildingBlock: OJICUG_clean_linker_0, # of connection points: 2
#     Edge 40, Type (0, 0), BuildingBlock: OJICUG_clean_linker_0, # of connection points: 2
#     Edge 41, Type (0, 0), BuildingBlock: OJICUG_clean_linker_0, # of connection points: 2
#     Edge 42, Type (0, 0), BuildingBlock: OJICUG_clean_linker_0, # of connection points: 2
#     Edge 43, Type (0, 0), BuildingBlock: OJICUG_clean_linker_0, # of connection points: 2
#     Edge 44, Type (0, 0), BuildingBlock: OJICUG_clean_linker_0, # of connection points: 2
#     Edge 45, Type (0, 0), BuildingBlock: OJICUG_clean_linker_0, # of connection points: 2
#     Edge 46, Type (0, 0), BuildingBlock: OJICUG_clean_linker_0, # of connection points: 2
#     Edge 47, Type (0, 0), BuildingBlock: OJICUG_clean_linker_0, # of connection points: 2
#     Edge 48, Type (0, 0), BuildingBlock: OJICUG_clean_linker_0, # of connection points: 2
#     Edge 49, Type (0, 0), BuildingBlock: OJICUG_clean_linker_0, # of connection points: 2
#     Edge 50, Type (0, 0), BuildingBlock: OJICUG_clean_linker_0, # of connection points: 2
#     Edge 51, Type (0, 0), BuildingBlock: OJICUG_clean_linker_0, # of connection points: 2
#     Edge 52, Type (0, 0), BuildingBlock: OJICUG_clean_linker_0, # of connection points: 2
#     Edge 53, Type (0, 0), BuildingBlock: OJICUG_clean_linker_0, # of connection points: 2
#     Edge 54, Type (0, 0), BuildingBlock: OJICUG_clean_linker_0, # of connection points: 2
#     Edge 55, Type (0, 0), BuildingBlock: OJICUG_clean_linker_0, # of connection points: 2
#     Edge 56, Type (0, 0), BuildingBlock: OJICUG_clean_linker_0, # of connection points: 2
#     Edge 57, Type (0, 0), BuildingBlock: OJICUG_clean_linker_0, # of connection points: 2
#     Edge 58, Type (0, 0), BuildingBlock: OJICUG_clean_linker_0, # of connection points: 2
#     Edge 59, Type (0, 0), BuildingBlock: OJICUG_clean_linker_0, # of connection points: 2
#     Edge 60, Type (0, 0), BuildingBlock: OJICUG_clean_linker_0, # of connection points: 2
#     Edge 61, Type (0, 0), BuildingBlock: OJICUG_clean_linker_0, # of connection points: 2
#     Edge 62, Type (0, 0), BuildingBlock: OJICUG_clean_linker_0, # of connection points: 2
#     Edge 63, Type (0, 0), BuildingBlock: OJICUG_clean_linker_0, # of connection points: 2
#     Edge 64, Type (0, 0), BuildingBlock: OJICUG_clean_linker_0, # of connection points: 2
#     Edge 65, Type (0, 0), BuildingBlock: OJICUG_clean_linker_0, # of connection points: 2
#     Edge 66, Type (0, 0), BuildingBlock: OJICUG_clean_linker_0, # of connection points: 2
#     Edge 67, Type (0, 0), BuildingBlock: OJICUG_clean_linker_0, # of connection points: 2
#     Edge 68, Type (0, 0), BuildingBlock: OJICUG_clean_linker_0, # of connection points: 2
#     Edge 69, Type (0, 0), BuildingBlock: OJICUG_clean_linker_0, # of connection points: 2
#     Edge 70, Type (0, 0), BuildingBlock: OJICUG_clean_linker_0, # of connection points: 2
#     Edge 71, Type (0, 0), BuildingBlock: OJICUG_clean_linker_0, # of connection points: 2
#     Edge 72, Type (0, 0), BuildingBlock: OJICUG_clean_linker_0, # of connection points: 2
#     Edge 73, Type (0, 0), BuildingBlock: OJICUG_clean_linker_0, # of connection points: 2
#     Edge 74, Type (0, 0), BuildingBlock: OJICUG_clean_linker_0, # of connection points: 2
#     Edge 75, Type (0, 0), BuildingBlock: OJICUG_clean_linker_0, # of connection points: 2
#     Edge 76, Type (0, 0), BuildingBlock: OJICUG_clean_linker_0, # of connection points: 2
#     Edge 77, Type (0, 0), BuildingBlock: OJICUG_clean_linker_0, # of connection points: 2
#     Edge 78, Type (0, 0), BuildingBlock: OJICUG_clean_linker_0, # of connection points: 2
#     Edge 79, Type (0, 0), BuildingBlock: OJICUG_clean_linker_0, # of connection points: 2
#     Edge 80, Type (0, 0), BuildingBlock: OJICUG_clean_linker_0, # of connection points: 2
#     Edge 81, Type (0, 0), BuildingBlock: OJICUG_clean_linker_0, # of connection points: 2
#     Edge 82, Type (0, 0), BuildingBlock: OJICUG_clean_linker_0, # of connection points: 2
#     Edge 83, Type (0, 0), BuildingBlock: OJICUG_clean_linker_0, # of connection points: 2
#     Edge 84, Type (0, 0), BuildingBlock: OJICUG_clean_linker_0, # of connection points: 2
#     Edge 85, Type (0, 0), BuildingBlock: OJICUG_clean_linker_0, # of connection points: 2
#     Edge 86, Type (0, 0), BuildingBlock: OJICUG_clean_linker_0, # of connection points: 2
#     Edge 87, Type (0, 0), BuildingBlock: OJICUG_clean_linker_0, # of connection points: 2
#     Edge 88, Type (0, 0), BuildingBlock: OJICUG_clean_linker_0, # of connection points: 2
#     Edge 89, Type (0, 0), BuildingBlock: OJICUG_clean_linker_0, # of connection points: 2
#     Edge 90, Type (0, 0), BuildingBlock: OJICUG_clean_linker_0, # of connection points: 2
#     Edge 91, Type (0, 0), BuildingBlock: OJICUG_clean_linker_0, # of connection points: 2
#     Edge 92, Type (0, 0), BuildingBlock: OJICUG_clean_linker_0, # of connection points: 2
#     Edge 93, Type (0, 0), BuildingBlock: OJICUG_clean_linker_0, # of connection points: 2
#     Edge 94, Type (0, 0), BuildingBlock: OJICUG_clean_linker_0, # of connection points: 2
#     Edge 95, Type (0, 0), BuildingBlock: OJICUG_clean_linker_0, # of connection points: 2
#     Edge 96, Type (0, 0), BuildingBlock: OJICUG_clean_linker_0, # of connection points: 2
#     Edge 97, Type (0, 0), BuildingBlock: OJICUG_clean_linker_0, # of connection points: 2
#     Edge 98, Type (0, 0), BuildingBlock: OJICUG_clean_linker_0, # of connection points: 2
#     Edge 99, Type (0, 0), BuildingBlock: OJICUG_clean_linker_0, # of connection points: 2
#     Edge 100, Type (0, 0), BuildingBlock: OJICUG_clean_linker_0, # of connection points: 2
#     Edge 101, Type (0, 0), BuildingBlock: OJICUG_clean_linker_0, # of connection points: 2
#     Edge 102, Type (0, 0), BuildingBlock: OJICUG_clean_linker_0, # of connection points: 2
#     Edge 103, Type (0, 0), BuildingBlock: OJICUG_clean_linker_0, # of connection points: 2
#     Edge 104, Type (0, 0), BuildingBlock: OJICUG_clean_linker_0, # of connection points: 2
#     Edge 105, Type (0, 0), BuildingBlock: OJICUG_clean_linker_0, # of connection points: 2
#     Edge 106, Type (0, 0), BuildingBlock: OJICUG_clean_linker_0, # of connection points: 2
#     Edge 107, Type (0, 0), BuildingBlock: OJICUG_clean_linker_0, # of connection points: 2
#     Edge 108, Type (0, 0), BuildingBlock: OJICUG_clean_linker_0, # of connection points: 2
#     Edge 109, Type (0, 0), BuildingBlock: OJICUG_clean_linker_0, # of connection points: 2
#     Edge 110, Type (0, 0), BuildingBlock: OJICUG_clean_linker_0, # of connection points: 2
#     Edge 111, Type (0, 0), BuildingBlock: OJICUG_clean_linker_0, # of connection points: 2
#     Edge 112, Type (0, 0), BuildingBlock: OJICUG_clean_linker_0, # of connection points: 2
#     Edge 113, Type (0, 0), BuildingBlock: OJICUG_clean_linker_0, # of connection points: 2
#     Edge 114, Type (0, 0), BuildingBlock: OJICUG_clean_linker_0, # of connection points: 2
#     Edge 115, Type (0, 0), BuildingBlock: OJICUG_clean_linker_0, # of connection points: 2
#     Edge 116, Type (0, 0), BuildingBlock: OJICUG_clean_linker_0, # of connection points: 2
#     Edge 117, Type (0, 0), BuildingBlock: OJICUG_clean_linker_0, # of connection points: 2
#     Edge 118, Type (0, 0), BuildingBlock: OJICUG_clean_linker_0, # of connection points: 2
#     Edge 119, Type (0, 0), BuildingBlock: OJICUG_clean_linker_0, # of connection points: 2
#     Edge 120, Type (0, 0), BuildingBlock: OJICUG_clean_linker_0, # of connection points: 2
#     Edge 121, Type (0, 0), BuildingBlock: OJICUG_clean_linker_0, # of connection points: 2
#     Edge 122, Type (0, 0), BuildingBlock: OJICUG_clean_linker_0, # of connection points: 2
#     Edge 123, Type (0, 0), BuildingBlock: OJICUG_clean_linker_0, # of connection points: 2
#     Edge 124, Type (0, 0), BuildingBlock: OJICUG_clean_linker_0, # of connection points: 2
#     Edge 125, Type (0, 0), BuildingBlock: OJICUG_clean_linker_0, # of connection points: 2
#     Edge 126, Type (0, 0), BuildingBlock: OJICUG_clean_linker_0, # of connection points: 2
#     Edge 127, Type (0, 0), BuildingBlock: OJICUG_clean_linker_0, # of connection points: 2
# Relax obj value: 0.454
# Max RMSD: 0.200
# Mean RMSD: 0.200
data_MOF--net-vcc--node1-JUFBIX_clean_sbu_0--edge1-OJICUG_clean_linker_0
_symmetry_space_group_name_H-M    P1
_symmetry_Int_Tables_number       1
_symmetry_cell_setting            triclinic
loop_
_symmetry_equiv_pos_as_xyz
'x, y, z'
_cell_length_a     50.662849
_cell_length_b     39.687597
_cell_length_c     24.973252
_cell_angle_alpha  89.955347
_cell_angle_beta   89.970684
_cell_angle_gamma 90.116042
loop_
_atom_site_label
_atom_site_type_symbol
_atom_site_fract_x
_atom_site_fract_y
_atom_site_fract_z
_atom_type_partial_charge
Co0 Co 0.35695 1.02522 0.18918 0.0
C1 C 0.36587 0.95714 0.17042 0.0
Co2 Co 0.3255 1.00563 0.14085 0.0
C3 C 0.39736 0.07019 0.22767 0.0
C4 C 0.38456 0.03432 0.2863 0.0
N5 N 0.38123 0.04354 0.23489 0.0
N6 N 0.41078 0.07802 0.27275 0.0
C7 C 0.40264 0.05535 0.3096 0.0
H8 H 0.39943 0.08323 0.18983 0.0
H9 H 0.37473 1.0133 0.30544 0.0
C10 C 0.32045 0.07445 0.16346 0.0
N11 N 0.30171 0.98593 0.09522 0.0
C12 C 0.27556 0.98162 0.10061 0.0
C13 C 0.30839 0.96736 1.05192 0.0
N14 N 0.26573 0.96102 1.06255 0.0
C15 C 0.28624 0.95227 1.03143 0.0
C16 C 0.3081 1.00643 0.24802 0.0
O17 O 0.34327 0.06821 0.18073 0.0
O18 O 0.30725 0.05047 0.14144 0.0
O19 O 0.30294 0.99332 0.20266 0.0
O20 O 0.33119 1.01975 0.2525 0.0
O21 O 0.34511 0.9614 0.142 0.0
H22 H 0.32828 0.96408 1.03707 0.0
H23 H 0.26394 0.9934 0.13179 0.0
O24 O 0.37287 0.9816 0.19984 0.0
O25 O 0.38086 0.0319 0.12319 0.0
O26 O 0.3458 1.01881 1.0778 0.0
C27 C 0.3698 1.02797 1.07709 0.0
H28 H 0.41047 0.05258 0.34967 0.0
H29 H 0.28529 0.93595 0.99677 0.0
Co30 Co 0.92382 0.28074 0.18401 0.0
C31 C 0.9156 0.35065 0.17746 0.0
Co32 Co 0.95691 0.30401 0.14464 0.0
C33 C 0.87193 0.25454 0.20485 0.0
C34 C 0.90112 0.23511 0.2585 0.0
N35 N 0.89748 0.25778 0.21899 0.0
N36 N 0.85951 0.23045 0.2336 0.0
C37 C 0.87786 0.21843 0.26773 0.0
H38 H 0.86282 0.269 0.17314 0.0
H39 H 0.91975 0.23002 0.27797 0.0
C40 C 0.96249 0.23373 0.15749 0.0
N41 N 0.98233 0.32712 0.10809 0.0
C42 C 1.00853 0.32754 0.11545 0.0
C43 C 0.97761 0.35129 1.07122 0.0
N44 N 0.02039 0.35104 1.08465 0.0
C45 C 1.00104 0.36592 1.05644 0.0
C46 C 0.97022 0.29528 0.25339 0.0
O47 O 0.93887 0.23846 0.17118 0.0
O48 O 0.9757 0.25924 0.14023 0.0
O49 O 0.97678 0.31097 0.21098 0.0
O50 O 0.94675 0.28238 0.25331 0.0
O51 O 0.93765 0.34796 0.15286 0.0
H52 H 0.95829 0.35805 1.0563 0.0
H53 H 0.01875 0.31027 0.14183 0.0
O54 O 0.90636 0.3239 0.19865 0.0
O55 O 0.90346 0.27799 0.11359 0.0
O56 O 0.9389 0.29647 1.07485 0.0
C57 C 0.91524 0.28611 1.06985 0.0
H58 H 0.87468 0.19936 0.29805 0.0
H59 H 1.00372 0.38538 1.02651 0.0
Co60 Co 0.35575 0.26411 0.22994 0.0
C61 C 0.35525 0.33334 0.25395 0.0
Co62 Co 0.32209 0.27594 0.2786 0.0
C63 C 0.39882 0.22725 0.18621 0.0
C64 C 0.38572 0.26677 0.13426 0.0
N65 N 0.38196 0.25333 0.18315 0.0
N66 N 0.41303 0.22367 0.14092 0.0
C67 C 0.40487 0.24871 0.10828 0.0
H68 H 0.40045 0.21112 0.22099 0.0
H69 H 0.37508 0.28819 0.11846 0.0
C70 C 0.32477 0.20742 0.24667 0.0
N71 N 0.29614 0.28459 0.32676 0.0
C72 C 0.2811 0.31215 0.33323 0.0
C73 C 0.29083 0.26477 0.36927 0.0
N74 N 0.26674 0.31036 0.37863 0.0
C75 C 0.2728 0.28053 0.40122 0.0
C76 C 0.30551 0.277 0.17086 0.0
O77 O 0.34668 0.21832 0.23016 0.0
O78 O 0.31028 0.22763 0.27357 0.0
O79 O 0.29793 0.28468 0.21805 0.0
O80 O 0.3301 0.2693 0.16603 0.0
O81 O 0.33446 0.32486 0.28037 0.0
H82 H 0.29974 0.24048 0.37681 0.0
H83 H 0.28058 0.33294 0.30516 0.0
O84 O 0.36651 0.31045 0.22695 0.0
O85 O 0.38026 0.25804 0.296 0.0
O86 O 0.34469 0.2667 0.34167 0.0
C87 C 0.3693 0.26065 0.34244 0.0
H88 H 0.41302 0.2547 1.06935 0.0
H89 H 0.26375 0.27002 0.43681 0.0
Co90 Co 0.92619 0.05038 0.23818 0.0
C91 C 0.92153 0.98086 0.25887 0.0
Co92 Co 0.96077 0.03276 0.27907 0.0
C93 C 0.87329 0.07437 0.22475 0.0
C94 C 0.89815 0.08597 0.15787 0.0
N95 N 0.89733 0.0681 0.20381 0.0
N96 N 0.85936 0.09603 0.19433 0.0
C97 C 0.87484 0.10298 0.15183 0.0
H98 H 0.86644 0.06431 0.26253 0.0
H99 H 0.91511 0.08819 0.13185 0.0
C100 C 0.96214 0.10266 0.25086 0.0
N101 N 0.99043 1.01792 0.31254 0.0
C102 C 0.99341 0.99708 0.35481 0.0
C103 C 0.0151 1.0262 0.29696 0.0
N104 N 0.01908 0.99199 0.36532 0.0
C105 C 0.03276 1.01022 0.32937 0.0
C106 C 0.9703 0.03275 0.16655 0.0
O107 O 0.93868 0.09486 0.24011 0.0
O108 O 0.97657 0.07979 0.27218 0.0
O109 O 0.97818 1.02221 0.21165 0.0
O110 O 0.94671 0.04498 0.16593 0.0
O111 O 0.94393 0.98607 0.282 0.0
H112 H 0.01993 0.0428 0.264 0.0
H113 H 0.97726 0.9861 0.37729 0.0
O114 O 0.91129 1.0056 0.23406 0.0
O115 O 0.90808 0.05585 0.31176 0.0
O116 O 0.94504 0.04294 0.35027 0.0
C117 C 0.92085 0.05102 0.3557 0.0
H118 H 0.86965 0.11901 0.11839 0.0
H119 H 0.05408 1.0121 0.32745 0.0
Co120 Co 0.71298 0.04399 1.03625 0.0
C121 C 0.71631 0.97396 1.01533 0.0
Co122 Co 0.67952 1.02379 0.99504 0.0
C123 C 0.74353 0.08178 0.11337 0.0
C124 C 0.7667 0.05739 1.05269 0.0
N125 N 0.74172 0.06164 1.06998 0.0
N126 N 0.76871 0.09089 0.12234 0.0
C127 C 0.78328 0.07548 1.08459 0.0
H128 H 0.72695 0.08923 0.13798 0.0
H129 H 0.77258 0.04174 1.01934 0.0
C130 C 0.67316 0.09343 1.00999 0.0
N131 N 0.65205 1.00435 0.96031 0.0
C132 C 0.62646 1.00499 0.97426 0.0
C133 C 0.65397 0.98057 0.9219 0.0
N134 N 0.61249 0.98191 0.94699 0.0
C135 C 0.62957 0.96666 0.91366 0.0
C136 C 0.67202 1.02551 0.11158 0.0
O137 O 0.69519 0.08964 1.03488 0.0
O138 O 0.66382 0.06778 0.98606 0.0
O139 O 0.66015 1.01954 1.067 0.0
O140 O 0.69612 0.03477 0.10754 0.0
O141 O 0.6929 0.9802 1.00236 0.0
H142 H 0.67215 0.97281 0.90287 0.0
H143 H 0.61835 1.02132 1.00481 0.0
O144 O 0.73009 0.9982 1.0344 0.0
O145 O 0.73103 0.05316 0.968 0.0
O146 O 0.70052 1.02726 0.92381 0.0
C147 C 0.72378 0.0404 0.92382 0.0
H148 H 0.80463 0.07607 1.08207 0.0
H149 H 0.62461 0.94727 0.88486 0.0
Co150 Co 0.07108 0.7658 1.03198 0.0
C151 C 0.06448 0.83487 1.0159 0.0
Co152 Co 0.10336 0.78788 0.98927 0.0
C153 C 0.03569 0.75027 0.11797 0.0
C154 C 0.03805 0.71165 1.05847 0.0
N155 N 0.04659 0.74288 1.07046 0.0
N156 N 0.02022 0.72494 0.1361 0.0
C157 C 0.02185 0.7006 0.09851 0.0
H158 H 0.03882 0.77404 0.13814 0.0
H159 H 0.04317 0.69787 1.02259 0.0
C160 C 0.11314 0.71935 1.00049 0.0
N161 N 0.12743 0.81204 0.94992 0.0
C162 C 0.15284 0.8187 0.961 0.0
C163 C 0.12104 0.83374 0.91023 0.0
N164 N 0.16247 0.84381 0.93007 0.0
C165 C 0.14256 0.85313 0.89778 0.0
C166 C 0.11378 0.78552 0.1028 0.0
O167 O 0.09149 0.72264 1.02639 0.0
O168 O 0.12154 0.74519 0.97531 0.0
O169 O 0.1252 0.79238 1.05801 0.0
O170 O 0.0899 0.77564 0.09964 0.0
O171 O 0.0879 0.82969 1.00183 0.0
H172 H 0.10156 0.83673 0.89324 0.0
H173 H 0.16405 0.80534 0.99113 0.0
O174 O 0.05129 0.80982 1.03461 0.0
O175 O 0.05034 0.7562 0.96801 0.0
O176 O 0.07933 0.78397 0.92217 0.0
C177 C 0.05617 0.77056 0.92421 0.0
H178 H 1.01078 0.67727 0.09781 0.0
H179 H 0.14347 0.87263 0.86749 0.0
Co180 Co 0.71011 0.77282 0.90186 0.0
C181 C 0.71356 0.8433 0.92487 0.0
Co182 Co 0.6771 0.79349 0.94383 0.0
C183 C 0.7408 0.73969 0.81864 0.0
C184 C 0.76375 0.75909 0.88397 0.0
N185 N 0.73879 0.75634 0.86564 0.0
N186 N 0.76601 0.7311 0.80852 0.0
C187 C 0.78039 0.74336 0.84934 0.0
H188 H 0.72441 0.73472 0.792 0.0
H189 H 0.76971 0.77263 0.9195 0.0
C190 C 0.67036 0.72316 0.92687 0.0
N191 N 0.65018 0.81151 0.98286 0.0
C192 C 0.63209 0.83418 0.96683 0.0
C193 C 0.64592 0.8073 1.03563 0.0
N194 N 0.61639 0.84411 1.00744 0.0
C195 C 0.62526 0.82728 1.05083 0.0
C196 C 0.66862 0.79264 0.82912 0.0
O197 O 0.69212 0.72709 0.90091 0.0
O198 O 0.66183 0.7486 0.95266 0.0
O199 O 0.65652 0.79775 0.87375 0.0
O200 O 0.69277 0.78378 0.83273 0.0
O201 O 0.68986 0.8375 0.93691 0.0
H202 H 0.65664 0.79015 1.06125 0.0
H203 H 0.62991 0.84247 0.92579 0.0
O204 O 0.72717 0.81881 0.90612 0.0
O205 O 0.72868 0.76193 0.96817 0.0
O206 O 0.69978 0.79041 1.01229 0.0
C207 C 0.72261 0.77643 1.01154 0.0
H208 H 0.80174 0.74282 0.85192 0.0
H209 H 0.61599 0.82704 1.08991 0.0
Co210 Co 0.07162 0.0327 0.88385 0.0
C211 C 0.06943 0.96427 0.9193 0.0
Co212 Co 0.10308 1.01812 0.93521 0.0
C213 C 0.03275 0.07365 0.83422 0.0
C214 C 0.03995 1.02819 0.79042 0.0
N215 N 0.04665 0.04483 0.83536 0.0
N216 N 0.01745 0.07575 0.79025 0.0
C217 C 0.02201 0.04713 0.76259 0.0
H218 H 0.03337 0.09233 0.86575 0.0
H219 H 0.04741 1.0037 0.77902 0.0
C220 C 0.10889 0.08569 0.90713 0.0
N221 N 0.12791 1.0062 0.984 0.0
C222 C 0.14614 0.98172 0.98133 0.0
C223 C 0.13038 1.01961 1.03328 0.0
N224 N 0.16002 0.97933 1.02721 0.0
C225 C 0.1501 1.00317 1.05992 0.0
C226 C 0.11792 1.01258 0.8234 0.0
O227 O 0.08865 0.07921 0.87784 0.0
O228 O 0.11599 0.06293 0.9394 0.0
O229 O 0.12832 1.01065 0.87051 0.0
O230 O 0.09337 1.01881 0.82251 0.0
O231 O 0.09219 0.97302 0.93431 0.0
H232 H 0.11893 0.04049 1.04847 0.0
H233 H 0.1494 0.96638 0.94614 0.0
O234 O 0.05586 0.98588 0.89264 0.0
O235 O 0.04781 0.04668 0.943 0.0
O236 O 0.07666 1.02526 0.99704 0.0
C237 C 0.05332 0.03728 0.99049 0.0
H238 H 1.01168 0.03929 0.72675 0.0
H239 H 0.15768 1.00979 0.09906 0.0
Co240 Co 0.3538 0.52325 0.69787 0.0
C241 C 0.35593 0.45365 0.67515 0.0
Co242 Co 0.32073 0.50863 0.64894 0.0
C243 C 0.39524 0.56297 0.74259 0.0
C244 C 0.38336 0.5224 0.79386 0.0
N245 N 0.3794 0.53576 0.74499 0.0
N246 N 0.40895 0.56735 0.78833 0.0
C247 C 0.40158 0.54165 0.82052 0.0
H248 H 0.39644 0.57938 0.70804 0.0
H249 H 0.37342 0.50026 0.80924 0.0
C250 C 0.32173 0.57822 0.67716 0.0
N251 N 0.29495 0.49675 0.60143 0.0
C252 C 0.27795 0.47065 0.60352 0.0
C253 C 0.29031 0.51189 0.5541 0.0
N254 N 0.26284 0.46886 0.55913 0.0
C255 C 0.27073 0.49477 0.52798 0.0
C256 C 0.3036 0.5092 0.75586 0.0
O257 O 0.34354 0.56856 0.69569 0.0
O258 O 0.30771 0.55669 0.65138 0.0
O259 O 0.29667 0.4998 0.70919 0.0
O260 O 0.32796 0.51801 0.76111 0.0
O261 O 0.33474 0.46051 0.64899 0.0
H262 H 0.30011 0.53445 0.54 0.0
H263 H 0.2761 0.45401 0.63769 0.0
O264 O 0.36606 0.47737 0.70232 0.0
O265 O 0.37826 0.52968 0.63247 0.0
O266 O 0.34311 0.51808 0.58669 0.0
C267 C 0.36742 0.52576 0.58619 0.0
H268 H 0.40964 0.53617 0.85969 0.0
H269 H 0.26149 0.50254 0.49088 0.0
Co270 Co 0.92477 0.7775 0.69032 0.0
C271 C 0.9199 0.84739 0.67242 0.0
Co272 Co 0.9587 0.79656 0.64844 0.0
C273 C 0.8714 0.75586 0.70568 0.0
C274 C 0.89731 0.73806 0.7672 0.0
N275 N 0.89615 0.75914 0.72489 0.0
N276 N 0.85735 0.73286 0.73332 0.0
C277 C 0.87347 0.72198 0.77259 0.0
H278 H 0.86414 0.7689 0.67063 0.0
H279 H 0.91481 0.73302 0.7906 0.0
C280 C 0.9608 0.72643 0.67281 0.0
N281 N 0.98836 0.81268 0.61473 0.0
C282 C 0.99166 0.83105 0.56962 0.0
C283 C 1.0129 0.80832 0.63452 0.0
N284 N 0.01724 0.83917 0.56225 0.0
C285 C 0.03055 0.82479 0.60278 0.0
C286 C 0.96961 0.79276 0.76005 0.0
O287 O 0.93714 0.73308 0.68389 0.0
O288 O 0.97489 0.75024 0.65309 0.0
O289 O 0.9764 0.80621 0.71615 0.0
O290 O 0.94619 0.78004 0.76099 0.0
O291 O 0.94178 0.84252 0.64741 0.0
H292 H 0.01784 0.79336 0.66928 0.0
H293 H 0.97587 0.83772 0.54243 0.0
O294 O 0.91028 0.82253 0.69828 0.0
O295 O 0.90558 0.77429 0.61902 0.0
O296 O 0.94196 0.78706 0.57765 0.0
C297 C 0.91747 0.77955 0.5744 0.0
H298 H 0.86844 0.70369 0.80312 0.0
H299 H 0.05183 0.82448 0.60701 0.0
Co300 Co 0.35125 0.77092 0.74143 0.0
C301 C 0.35093 0.8406 0.76542 0.0
Co302 Co 0.31823 0.78316 0.79105 0.0
C303 C 0.39564 0.73899 0.69072 0.0
C304 C 0.37852 0.77902 0.64497 0.0
N305 N 0.37679 0.76272 0.6922 0.0
N306 N 0.40912 0.73989 0.64413 0.0
C307 C 0.39836 0.76511 0.6154 0.0
H308 H 0.39946 0.72169 0.7233 0.0
H309 H 0.36627 0.80001 0.63303 0.0
C310 C 0.32183 0.71376 0.7588 0.0
N311 N 0.29263 0.79166 0.83974 0.0
C312 C 0.27862 0.82006 0.84606 0.0
C313 C 0.28686 0.77237 0.88258 0.0
N314 N 0.26436 0.81942 0.89156 0.0
C315 C 0.26943 0.78936 0.91451 0.0
C316 C 0.3 0.7837 0.68427 0.0
O317 O 0.34332 0.72505 0.74082 0.0
O318 O 0.30722 0.73396 0.78592 0.0
O319 O 0.29312 0.79181 0.73162 0.0
O320 O 0.32451 0.77576 0.67864 0.0
O321 O 0.33031 0.83263 0.79275 0.0
H322 H 0.29514 0.74775 0.89041 0.0
H323 H 0.27882 0.84074 0.81776 0.0
O324 O 0.36153 0.81728 0.73869 0.0
O325 O 0.37652 0.76469 0.80738 0.0
O326 O 0.34122 0.77415 0.85355 0.0
C327 C 0.36572 0.76754 0.8542 0.0
H328 H 0.40533 0.77424 0.57705 0.0
H329 H 0.26015 0.77961 0.9504 0.0
Co330 Co 0.92531 0.54968 0.75086 0.0
C331 C 0.9156 0.48155 0.76929 0.0
Co332 Co 0.95723 0.52943 0.79725 0.0
C333 C 0.87633 0.57887 0.71731 0.0
C334 C 0.90831 0.59031 0.66454 0.0
N335 N 0.90158 0.571 0.7071 0.0
N336 N 0.86713 0.60255 0.68328 0.0
C337 C 0.88716 0.60957 0.64971 0.0
H338 H 0.86499 0.56758 0.74939 0.0
H339 H 0.92785 0.59211 0.64738 0.0
C340 C 0.96325 0.59835 0.77286 0.0
N341 N 0.98207 0.51209 0.84333 0.0
C342 C 0.99643 0.48352 0.84117 0.0
C343 C 0.98841 0.52634 0.89058 0.0
N344 N 1.01127 0.47929 0.88569 0.0
C345 C 1.00604 0.50624 0.91672 0.0
C346 C 0.97266 0.52831 0.68883 0.0
O347 O 0.93997 0.59246 0.75864 0.0
O348 O 0.97625 0.57415 0.79418 0.0
O349 O 0.97894 0.51651 0.73463 0.0
O350 O 0.94978 0.54226 0.68594 0.0
O351 O 0.93686 0.48505 0.79721 0.0
H352 H 0.98119 0.55037 0.90469 0.0
H353 H 0.99668 0.46681 0.80694 0.0
O354 O 0.90841 0.50662 0.74102 0.0
O355 O 0.90223 0.55703 0.81795 0.0
O356 O 0.93717 0.54245 0.8617 0.0
C357 C 0.91332 0.55199 0.8636 0.0
H358 H 0.88669 0.62763 0.61723 0.0
H359 H 0.016 0.51257 0.95373 0.0
Co360 Co 0.71085 0.54177 0.54995 0.0
C361 C 0.70748 0.47307 0.51815 0.0
Co362 Co 0.67638 0.52934 0.50506 0.0
C363 C 0.75094 0.58031 0.60108 0.0
C364 C 0.74515 0.5316 0.63638 0.0
N365 N 0.73783 0.55113 0.59485 0.0
N366 N 0.76592 0.57995 0.64554 0.0
C367 C 0.76245 0.54926 0.66763 0.0
H368 H 0.74947 0.60141 0.57375 0.0
H369 H 0.73781 0.50644 0.64413 0.0
C370 C 0.67714 0.59814 0.52731 0.0
N371 N 0.6488 0.51896 0.46231 0.0
C372 C 0.62857 0.49818 0.4736 0.0
C373 C 0.6453 0.52856 0.41097 0.0
N374 N 0.61297 0.49404 0.43091 0.0
C375 C 0.62314 0.51307 0.39141 0.0
C376 C 0.6658 0.52601 0.61836 0.0
O377 O 0.69807 0.59026 0.55341 0.0
O378 O 0.6658 0.57499 0.50137 0.0
O379 O 0.65372 0.524 0.57317 0.0
O380 O 0.69038 0.5317 0.61538 0.0
O381 O 0.68489 0.48357 0.50537 0.0
H382 H 0.65798 0.5457 0.38918 0.0
H383 H 0.6255 0.48597 0.51188 0.0
O384 O 0.72292 0.49362 0.54239 0.0
O385 O 0.73312 0.55165 0.48783 0.0
O386 O 0.70049 0.53402 0.43887 0.0
C387 C 0.72484 0.54323 0.44161 0.0
H388 H 0.77268 0.53969 0.70252 0.0
H389 H 0.6147 0.51609 0.35187 0.0
Co390 Co 0.07055 0.25774 0.52561 0.0
C391 C 0.06513 0.3281 0.51287 0.0
Co392 Co 0.1032 0.28097 0.48553 0.0
C393 C 0.03314 0.24738 0.6069 0.0
C394 C 0.03446 0.20579 0.55263 0.0
N395 N 0.04542 0.23595 0.56324 0.0
N396 N 1.01358 0.22659 0.62273 0.0
C397 C 0.01476 0.19998 0.58913 0.0
H398 H 0.03741 0.27175 0.62422 0.0
H399 H 0.03938 0.19012 0.51865 0.0
C400 C 0.11185 0.21084 0.49378 0.0
N401 N 0.12786 0.30455 0.44663 0.0
C402 C 0.15378 0.30914 0.45528 0.0
C403 C 0.12165 0.32677 0.40754 0.0
N404 N 0.16389 0.33336 0.42314 0.0
C405 C 0.14374 0.34436 0.3929 0.0
C406 C 0.11267 0.27713 0.59931 0.0
O407 O 0.08975 0.21364 0.51836 0.0
O408 O 0.12091 0.23749 0.47163 0.0
O409 O 0.12451 0.28519 0.55537 0.0
O410 O 0.08927 0.26584 0.59416 0.0
O411 O 0.08841 0.32296 0.49813 0.0
H412 H 0.10201 0.33117 0.39213 0.0
H413 H 0.16502 0.29486 0.48429 0.0
O414 O 0.05181 0.30278 0.53015 0.0
O415 O 0.0496 0.25012 0.46083 0.0
O416 O 0.07937 0.27812 0.41749 0.0
C417 C 0.05591 0.26545 0.41806 0.0
H418 H 1.00059 0.17958 0.58706 0.0
H419 H 0.14489 0.36374 0.36246 0.0
Co420 Co 0.706 0.27368 0.39969 0.0
C421 C 0.70856 0.34397 0.41823 0.0
Co422 Co 0.67116 0.2946 0.43589 0.0
C423 C 0.74062 0.23886 0.32459 0.0
C424 C 0.76018 0.25817 0.39421 0.0
N425 N 0.73629 0.25586 0.37063 0.0
N426 N 0.76609 0.22955 0.32023 0.0
C427 C 0.77835 0.24172 0.36382 0.0
H428 H 0.72576 0.23438 0.29428 0.0
H429 H 0.76456 0.27233 0.43002 0.0
C430 C 0.66573 0.2241 0.42293 0.0
N431 N 0.64198 0.31471 0.46523 0.0
C432 C 0.61747 0.31621 0.4444 0.0
C433 C 0.64235 0.33806 0.50439 0.0
N434 N 0.60267 0.34009 0.46824 0.0
C435 C 0.61822 0.35358 0.50648 0.0
C436 C 0.66739 0.29062 0.31916 0.0
O437 O 0.68835 0.22804 0.40025 0.0
O438 O 0.65554 0.24992 0.44519 0.0
O439 O 0.65429 0.29679 0.36206 0.0
O440 O 0.69144 0.28188 0.32591 0.0
O441 O 0.68459 0.33824 0.42759 0.0
H442 H 0.65946 0.34463 0.5281 0.0
H443 H 0.61084 0.30081 0.41129 0.0
O444 O 0.72287 0.31935 0.4026 0.0
O445 O 0.72142 0.26582 0.47058 0.0
O446 O 0.69027 0.29357 0.50971 0.0
C447 C 0.7135 0.28048 0.51272 0.0
H448 H 0.79945 0.24109 0.37082 0.0
H449 H 0.61246 0.37289 0.53472 0.0
Co450 Co 0.06827 0.53136 0.39922 0.0
C451 C 0.06964 0.46218 0.43075 0.0
Co452 Co 0.10196 0.51799 0.44643 0.0
C453 C 0.02831 0.57034 0.34775 0.0
C454 C 0.03542 0.52281 0.3098 0.0
N455 N 0.04207 0.5416 0.35265 0.0
N456 N 1.01348 0.57037 0.30301 0.0
C457 C 0.01784 0.54044 0.27919 0.0
H458 H 0.02907 0.59073 0.37649 0.0
H459 H 0.04317 0.49804 0.30106 0.0
C460 C 0.10315 0.58711 0.42301 0.0
N461 N 0.12839 0.50625 0.49217 0.0
C462 C 0.14543 0.48038 0.48829 0.0
C463 C 0.1323 0.51934 0.54123 0.0
N464 N 0.15982 0.47664 0.53332 0.0
C465 C 0.15162 0.50129 0.56656 0.0
C466 C 0.11424 0.51524 0.33289 0.0
O467 O 0.08201 0.57969 0.39702 0.0
O468 O 0.11384 0.5637 0.44968 0.0
O469 O 0.12568 0.51177 0.3788 0.0
O470 O 0.08972 0.52153 0.33503 0.0
O471 O 0.09197 0.47235 0.44617 0.0
H472 H 0.12172 0.54065 0.55754 0.0
H473 H 0.14714 0.4646 0.45314 0.0
O474 O 0.05523 0.48313 0.40486 0.0
O475 O 0.04509 0.54138 0.46051 0.0
O476 O 0.07694 0.52396 0.51153 0.0
C477 C 0.0527 0.53347 0.50749 0.0
H478 H 1.00793 0.53121 0.24368 0.0
H479 H 0.15995 0.50706 0.6054 0.0
Co480 Co 0.85599 0.0458 0.68844 0.0
C481 C 0.85912 0.97611 0.66683 0.0
Co482 Co 0.82327 1.02991 0.6399 0.0
C483 C 0.89993 0.08332 0.72698 0.0
C484 C 0.88454 0.04943 0.78605 0.0
N485 N 0.88151 0.05939 0.73493 0.0
N486 N 0.91473 0.08856 0.77105 0.0
C487 C 0.90496 0.06725 0.80833 0.0
H488 H 0.9028 0.09607 0.68911 0.0
H489 H 0.87308 1.02992 0.80549 0.0
C490 C 0.82297 0.09954 0.66817 0.0
N491 N 0.79786 1.01816 0.59196 0.0
C492 C 0.78144 0.99153 0.59171 0.0
C493 C 0.79287 0.03489 0.5461 0.0
N494 N 0.76637 0.99096 0.5472 0.0
C495 C 0.77367 1.01816 0.51843 0.0
C496 C 0.80599 1.02927 0.74697 0.0
O497 O 0.84513 0.09085 0.68616 0.0
O498 O 0.80937 0.07742 0.6429 0.0
O499 O 0.79929 1.01992 0.7001 0.0
O500 O 0.83003 0.03961 0.75202 0.0
O501 O 0.83798 0.98227 0.64005 0.0
H502 H 0.80219 0.05826 0.53413 0.0
H503 H 0.77989 0.97365 0.62433 0.0
O504 O 0.86895 1.0003 0.69343 0.0
O505 O 0.88043 0.05273 0.62246 0.0
O506 O 0.84553 0.04007 0.57712 0.0
C507 C 0.86969 0.04842 0.57618 0.0
H508 H 0.91324 0.06288 0.84767 0.0
H509 H 0.76425 1.02693 0.4821 0.0
Co510 Co 0.4278 0.25654 0.67898 0.0
C511 C 0.4183 0.32596 0.66717 0.0
Co512 Co 0.4609 0.28012 0.64075 0.0
C513 C 0.37607 0.23037 0.70258 0.0
C514 C 0.40644 0.20907 0.75128 0.0
N515 N 0.4019 0.2329 0.71374 0.0
N516 N 0.36431 0.20578 0.73154 0.0
C517 C 0.38341 0.19236 0.76223 0.0
H518 H 0.36608 0.24663 0.67433 0.0
H519 H 0.42553 0.20334 0.76834 0.0
C520 C 0.46771 0.21034 0.65939 0.0
N521 N 0.48859 0.30146 0.60725 0.0
C522 C 0.48911 0.31812 0.56004 0.0
C523 C 0.5131 0.305 0.62759 0.0
N524 N 0.51273 0.33271 0.55143 0.0
C525 C 0.52783 0.32436 0.59369 0.0
C526 C 0.47095 0.27604 0.75225 0.0
O527 O 0.44361 0.21443 0.6689 0.0
O528 O 0.4808 0.23607 0.64315 0.0
O529 O 0.47772 0.29058 0.7092 0.0
O530 O 0.44866 0.26045 0.75053 0.0
O531 O 0.44054 0.32367 0.64256 0.0
H532 H 0.52024 0.29335 0.66388 0.0
H533 H 0.47286 0.3189 0.53196 0.0
O534 O 0.40966 0.29941 0.6902 0.0
O535 O 0.40871 0.25225 0.60665 0.0
O536 O 0.44489 0.26969 0.56894 0.0
C537 C 0.42111 0.25947 0.56301 0.0
H538 H 0.38093 0.17212 0.79086 0.0
H539 H 0.54872 0.32971 0.59753 0.0
Co540 Co 0.84704 0.29231 0.74087 0.0
C541 C 0.84687 0.3597 0.76955 0.0
Co542 Co 0.81491 0.3005 0.7928 0.0
C543 C 0.89445 0.26531 0.70297 0.0
C544 C 0.8771 0.29954 0.64649 0.0
N545 N 0.87321 0.28458 0.69433 0.0
N546 N 0.91177 0.26827 0.66293 0.0
C547 C 0.90118 0.28971 0.62715 0.0
H548 H 0.89802 0.25132 0.73948 0.0
H549 H 0.86402 0.31787 0.62858 0.0
C550 C 0.81924 0.23311 0.75705 0.0
N551 N 0.78923 0.30843 0.84145 0.0
C552 C 0.7751 0.33679 0.84708 0.0
C553 C 0.78324 0.28929 0.88431 0.0
N554 N 0.76043 0.33627 0.89202 0.0
C555 C 0.7655 0.30634 0.91549 0.0
C556 C 0.79632 0.30293 0.68574 0.0
O557 O 0.8408 0.24582 0.7419 0.0
O558 O 0.8034 0.25206 0.78347 0.0
O559 O 0.7901 0.31156 0.73334 0.0
O560 O 0.82066 0.29482 0.67871 0.0
O561 O 0.82816 0.34925 0.80019 0.0
H562 H 0.79139 0.26464 0.89242 0.0
H563 H 0.77525 0.35719 0.81828 0.0
O564 O 0.85561 0.339 0.73574 0.0
O565 O 0.8725 0.28877 0.80604 0.0
O566 O 0.83704 0.28891 0.85378 0.0
C567 C 0.86194 0.28705 0.85289 0.0
H568 H 0.91088 0.29894 0.59136 0.0
H569 H 0.75575 0.29652 0.95081 0.0
Co570 Co 0.42338 0.03781 0.74138 0.0
C571 C 0.4127 0.96886 0.75363 0.0
Co572 Co 0.45672 1.01383 0.77752 0.0
C573 C 0.3716 0.06556 0.72775 0.0
C574 C 0.39957 0.08523 0.67158 0.0
N575 N 0.39662 0.062 0.71048 0.0
N576 N 0.35871 0.09027 0.70132 0.0
C577 C 0.37637 0.1025 0.66571 0.0
H578 H 0.36319 0.05053 0.75961 0.0
H579 H 0.41769 0.09007 0.64997 0.0
C580 C 0.46476 0.08313 0.76031 0.0
N581 N 0.48305 0.99018 0.80899 0.0
C582 C 0.49612 0.99685 0.85447 0.0
C583 C 0.49133 0.95947 0.79351 0.0
N584 N 0.51253 0.97152 0.86806 0.0
C585 C 0.50953 0.948 0.82953 0.0
C586 C 0.46619 1.02007 0.66643 0.0
O587 O 0.44049 0.07963 0.75076 0.0
O588 O 0.47744 0.05711 0.77667 0.0
O589 O 0.47337 1.00489 0.70873 0.0
O590 O 0.44336 0.03444 0.66868 0.0
O591 O 0.4355 0.97114 0.77544 0.0
H592 H 0.48452 0.94629 0.7582 0.0
H593 H 0.4936 1.01994 0.87685 0.0
O594 O 0.40391 0.99532 0.73082 0.0
O595 O 0.40577 0.04184 0.81442 0.0
O596 O 0.44194 1.02296 0.84961 0.0
C597 C 0.41858 0.03378 0.85688 0.0
H598 H 0.37271 0.12185 0.63612 0.0
H599 H 0.52063 0.92485 0.82588 0.0
Co600 Co 0.21218 0.03133 0.52804 0.0
C601 C 0.21497 0.96062 0.50849 0.0
Co602 Co 0.17823 1.0103 0.48898 0.0
C603 C 0.24349 0.0688 0.60434 0.0
C604 C 0.26627 0.04481 0.54272 0.0
N605 N 0.24138 0.04892 0.5607 0.0
N606 N 0.26872 0.0779 0.61283 0.0
C607 C 0.28306 0.06274 0.57451 0.0
H608 H 0.22709 0.07601 0.62961 0.0
H609 H 0.27195 1.02925 0.50913 0.0
C610 C 0.17282 0.08125 0.50071 0.0
N611 N 0.14995 0.99042 0.45576 0.0
C612 C 0.1248 0.98904 0.47305 0.0
C613 C 0.15119 0.96829 0.41497 0.0
N614 N 0.11017 0.96675 0.4449 0.0
C615 C 0.12683 0.95387 0.40802 0.0
C616 C 0.1718 1.01367 0.60548 0.0
O617 O 0.19484 0.07736 0.52567 0.0
O618 O 0.16293 0.05512 0.47866 0.0
O619 O 0.15944 1.00731 0.56161 0.0
O620 O 0.19583 1.02292 0.60012 0.0
O621 O 0.19124 0.96654 0.49736 0.0
H622 H 0.16889 0.9621 0.39287 0.0
H623 H 0.11756 1.00382 0.50626 0.0
O624 O 0.22892 0.98517 0.52619 0.0
O625 O 0.22972 0.03957 0.45962 0.0
O626 O 0.19931 1.01223 0.41723 0.0
C627 C 0.22262 1.02539 0.4165 0.0
H628 H 0.3044 0.0633 0.57159 0.0
H629 H 0.12178 0.93594 0.37707 0.0
Co630 Co 0.57635 0.77416 0.53695 0.0
C631 C 0.5698 0.84221 0.51336 0.0
Co632 Co 0.60984 0.79439 0.4947 0.0
C633 C 0.52522 0.7475 0.56847 0.0
C634 C 0.55739 0.73107 0.61724 0.0
N635 N 0.55125 0.75179 0.5761 0.0
N636 N 0.51502 0.72491 0.60333 0.0
C637 C 0.53518 0.71466 0.63417 0.0
H638 H 0.51398 0.76089 0.53839 0.0
H639 H 0.57702 0.72743 0.63324 0.0
C640 C 0.61886 0.72693 0.51225 0.0
N641 N 0.63637 0.81675 0.45926 0.0
C642 C 0.66082 0.82322 0.47792 0.0
C643 C 0.63334 0.83754 0.41702 0.0
N644 N 0.67299 0.84777 0.44988 0.0
C645 C 0.65584 0.85649 0.41098 0.0
C646 C 0.61731 0.79512 0.61032 0.0
O647 O 0.59664 0.73101 0.53565 0.0
O648 O 0.62812 0.75191 0.48648 0.0
O649 O 0.62933 0.80066 0.56597 0.0
O650 O 0.59336 0.78594 0.60611 0.0
O651 O 0.59355 0.83675 0.50105 0.0
H652 H 0.6154 0.84018 0.39394 0.0
H653 H 0.66919 0.811 0.51265 0.0
O654 O 0.55662 0.81795 0.53471 0.0
O655 O 0.55758 0.76286 0.47037 0.0
O656 O 0.58831 0.78806 0.42443 0.0
C657 C 0.56499 0.77472 0.42532 0.0
H658 H 0.53393 0.69667 0.66668 0.0
H659 H 0.65928 0.87505 0.37998 0.0
Co660 Co 0.206 0.76253 0.39607 0.0
C661 C 0.21306 0.83139 0.41384 0.0
Co662 Co 0.17279 0.78488 0.43667 0.0
C663 C 0.25747 0.73789 0.36362 0.0
C664 C 0.22535 0.7173 0.31872 0.0
N665 N 0.23113 0.73944 0.35813 0.0
N666 N 0.26826 0.71572 0.32899 0.0
C667 C 0.24815 0.70284 0.3005 0.0
H668 H 0.26854 0.75328 0.39152 0.0
H669 H 0.20569 0.71189 0.30415 0.0
C670 C 0.16323 0.71627 0.42481 0.0
N671 N 0.14654 0.80815 0.4713 0.0
C672 C 0.12159 0.81307 0.45436 0.0
C673 C 0.14997 0.83024 0.51168 0.0
N674 N 0.10938 0.83777 0.4819 0.0
C675 C 0.12716 0.84833 0.51846 0.0
C676 C 0.16506 0.78315 0.3216 0.0
O677 O 0.18557 0.7192 0.40123 0.0
O678 O 0.15416 0.74244 0.4477 0.0
O679 O 0.15322 0.7901 0.36563 0.0
O680 O 0.18862 0.77251 0.32626 0.0
O681 O 0.18935 0.8268 0.42731 0.0
H682 H 0.16826 0.83411 0.53315 0.0
H683 H 0.11282 0.79949 0.42131 0.0
O684 O 0.22582 0.80625 0.39449 0.0
O685 O 0.22513 0.75342 0.4632 0.0
O686 O 0.19458 0.78025 0.50699 0.0
C687 C 0.21791 0.76705 0.50708 0.0
H688 H 0.24988 0.68461 0.26847 0.0
H689 H 0.12391 0.86747 0.54857 0.0
Co690 Co 0.56863 0.04119 0.38936 0.0
C691 C 0.56722 0.97143 0.41494 0.0
Co692 Co 0.60101 1.02459 0.43881 0.0
C693 C 0.52771 0.08202 0.34214 0.0
C694 C 0.53963 0.04076 0.2926 0.0
N695 N 0.54399 0.05522 0.34054 0.0
N696 N 0.51326 0.08485 0.29689 0.0
C697 C 0.52094 0.05891 0.26569 0.0
H698 H 0.52585 0.09838 0.37658 0.0
H699 H 0.54895 1.01791 0.2786 0.0
C700 C 0.60537 0.09422 0.42065 0.0
N701 N 0.62508 1.00732 0.48669 0.0
C702 C 0.65084 1.00071 0.4793 0.0
C703 C 0.61861 0.99069 0.5322 0.0
N704 N 0.66051 0.98049 0.51808 0.0
C705 C 0.64036 0.97443 0.55171 0.0
C706 C 0.61617 1.02358 0.32758 0.0
O707 O 0.58451 0.08833 0.3926 0.0
O708 O 0.61476 0.06976 0.44755 0.0
O709 O 0.62625 1.01875 0.37431 0.0
O710 O 0.59186 0.03143 0.32723 0.0
O711 O 0.58947 0.98007 0.43239 0.0
H712 H 0.59899 0.98843 0.54873 0.0
H713 H 0.66218 1.01009 0.44572 0.0
O714 O 0.55361 0.99381 0.39018 0.0
O715 O 0.54393 0.05064 0.44844 0.0
O716 O 0.57407 1.03012 0.50063 0.0
C717 C 0.55006 0.04021 0.49499 0.0
H718 H 0.51208 0.05177 0.22791 0.0
H719 H 0.64111 0.95865 0.58704 0.0
Co720 Co 0.85026 0.55003 0.19507 0.0
C721 C 0.85571 0.48044 0.17861 0.0
Co722 Co 0.81679 0.53152 0.15015 0.0
C723 C 0.90101 0.57509 0.22908 0.0
C724 C 0.86945 0.58893 0.28132 0.0
N725 N 0.87525 0.56957 0.23836 0.0
N726 N 0.91141 0.59726 0.26431 0.0
C727 C 0.89161 0.60582 0.29742 0.0
H728 H 0.91188 0.56313 0.197 0.0
H729 H 0.84998 0.59223 0.29822 0.0
C730 C 0.81396 0.60108 0.17338 0.0
N731 N 0.791 0.51542 0.10542 0.0
C732 C 0.77543 0.48798 0.11004 0.0
C733 C 0.78512 0.5287 1.05723 0.0
N734 N 0.76018 0.4835 1.06623 0.0
C735 C 0.76641 0.50912 1.03304 0.0
C736 C 0.80252 0.53201 0.25854 0.0
O737 O 0.83668 0.59363 0.18942 0.0
O738 O 0.80042 0.57787 0.15053 0.0
O739 O 0.79472 0.5219 0.21283 0.0
O740 O 0.82639 0.54309 0.26085 0.0
O741 O 0.83384 0.4853 0.15347 0.0
H742 H 0.79349 0.55166 1.04111 0.0
H743 H 0.77472 0.47223 0.14543 0.0
O744 O 0.86586 0.50569 0.20256 0.0
O745 O 0.8727 0.55725 0.12746 0.0
O746 O 0.83761 0.5415 1.08485 0.0
C747 C 0.86144 0.55137 1.08224 0.0
H748 H 0.89297 0.62327 0.3306 0.0
H749 H 0.75656 0.51494 0.99569 0.0
Co750 Co 0.43313 0.76748 0.18824 0.0
C751 C 0.43312 0.83539 0.16052 0.0
Co752 Co 0.46619 0.77791 0.13804 0.0
C753 C 0.38758 0.73619 0.23739 0.0
C754 C 0.40527 0.77544 0.28405 0.0
N755 N 0.40703 0.7593 0.23672 0.0
N756 N 0.37381 0.7373 0.28365 0.0
C757 C 0.38492 0.76204 0.3129 0.0
H758 H 0.3836 0.71909 0.20462 0.0
H759 H 0.41787 0.79601 0.29659 0.0
C760 C 0.46301 0.70969 0.17491 0.0
N761 N 0.49226 0.78669 1.09002 0.0
C762 C 0.50406 0.81655 1.081 0.0
C763 C 0.4997 0.76674 1.04918 0.0
N764 N 0.51842 0.81628 1.03561 0.0
C765 C 0.51588 0.78482 1.01574 0.0
C766 C 0.48365 0.78177 0.2456 0.0
O767 O 0.44084 0.7212 0.18889 0.0
O768 O 0.47828 0.72939 0.14807 0.0
O769 O 0.49037 0.78957 0.19795 0.0
O770 O 0.45945 0.7724 0.25137 0.0
O771 O 0.45276 0.82622 0.1315 0.0
H772 H 0.49315 0.74105 1.04332 0.0
H773 H 0.50186 0.83819 0.10693 0.0
O774 O 0.42337 0.81363 0.19146 0.0
O775 O 0.40818 0.76216 0.1214 0.0
O776 O 0.44421 0.7664 1.07533 0.0
C777 C 0.4193 0.76285 1.07462 0.0
H778 H 0.37799 0.77107 0.35129 0.0
H779 H 0.5258 0.7751 0.98061 0.0
Co780 Co 0.85281 0.7828 0.24531 0.0
C781 C 0.85898 0.85272 0.26191 0.0
Co782 Co 0.81967 0.8023 0.28806 0.0
C783 C 0.90571 0.76506 0.22606 0.0
C784 C 0.87919 0.74025 0.172 0.0
N785 N 0.88045 0.76441 0.20993 0.0
N786 N 0.92 0.74136 0.20129 0.0
C787 C 0.90364 0.7259 0.16668 0.0
H788 H 0.91323 0.78134 0.25732 0.0
H789 H 0.86131 0.73206 0.1522 0.0
C790 C 0.81642 0.73216 0.26495 0.0
N791 N 0.79081 0.81933 0.32252 0.0
C792 C 0.78879 0.83936 0.36602 0.0
C793 C 0.76591 0.81525 0.30463 0.0
N794 N 0.7636 0.84875 0.37428 0.0
C795 C 0.74923 0.83346 0.33604 0.0
C796 C 0.80812 0.79849 0.17684 0.0
O797 O 0.83991 0.73867 0.25238 0.0
O798 O 0.80271 0.75616 0.28489 0.0
O799 O 0.80149 0.81194 0.22081 0.0
O800 O 0.83138 0.78562 0.17557 0.0
O801 O 0.83729 0.84825 0.28783 0.0
H802 H 0.76012 0.79967 0.2711 0.0
H803 H 0.80523 0.84654 0.39125 0.0
O804 O 0.86802 0.82751 0.2364 0.0
O805 O 0.87258 0.77877 0.31596 0.0
O806 O 0.83679 0.7925 0.35837 0.0
C807 C 0.86105 0.78391 0.36096 0.0
H808 H 0.909 0.70566 0.13977 0.0
H809 H 0.7279 0.83396 0.33311 0.0
Co810 Co 0.42242 0.53401 0.25016 0.0
C811 C 0.41204 0.46516 0.25683 0.0
Co812 Co 0.45587 0.50966 0.28587 0.0
C813 C 0.37061 0.56177 0.23872 0.0
C814 C 0.3983 0.58378 0.18429 0.0
N815 N 0.39563 0.55918 0.22107 0.0
N816 N 0.35738 0.58717 0.21462 0.0
C817 C 0.37489 0.60088 0.18005 0.0
H818 H 0.36247 0.54537 0.26909 0.0
H819 H 0.41637 0.58964 0.16311 0.0
C820 C 0.46339 0.57906 0.27298 0.0
N821 N 0.48213 0.48362 0.31468 0.0
C822 C 0.4989 0.4886 0.35558 0.0
C823 C 0.48681 0.45178 0.29818 0.0
N824 N 0.51381 0.46099 0.3651 0.0
C825 C 0.50601 0.43777 0.32926 0.0
C826 C 0.46557 0.51881 0.1752 0.0
O827 O 0.4392 0.57519 0.2633 0.0
O828 O 0.47668 0.55304 0.28766 0.0
O829 O 0.47239 0.50245 0.2166 0.0
O830 O 0.44273 0.53315 0.17767 0.0
O831 O 0.43427 0.46757 0.28057 0.0
H832 H 0.47714 0.43951 0.26487 0.0
H833 H 0.50094 0.51245 0.37619 0.0
O834 O 0.40311 0.49192 0.23534 0.0
O835 O 0.40478 0.53577 0.32356 0.0
O836 O 0.44113 0.5172 0.35892 0.0
C837 C 0.41758 0.52765 0.36612 0.0
H838 H 0.37108 0.62126 0.15238 0.0
H839 H 0.51443 0.41293 0.3242 0.0
Co840 Co 0.20805 0.53606 1.0379 0.0
C841 C 0.20528 0.46534 1.01444 0.0
Co842 Co 0.17362 0.5191 0.99513 0.0
C843 C 0.24061 0.56788 0.11878 0.0
C844 C 0.26168 0.53548 1.06474 0.0
N845 N 0.23742 0.54753 1.07596 0.0
N846 N 0.26603 0.56871 0.13415 0.0
C847 C 0.27929 0.5485 0.10046 0.0
H848 H 0.22479 0.58144 0.13829 0.0
H849 H 0.26626 0.51821 1.03257 0.0
C850 C 0.17338 0.59027 1.01176 0.0
N851 N 0.14569 0.50674 0.95283 0.0
C852 C 0.12802 0.48145 0.95774 0.0
C853 C 0.14151 0.51975 0.90376 0.0
N854 N 0.11315 0.47798 0.91313 0.0
C855 C 0.12163 0.50224 0.87937 0.0
C856 C 0.16451 0.52005 0.11047 0.0
O857 O 0.19486 0.58434 1.03751 0.0
O858 O 0.16251 0.56545 0.98849 0.0
O859 O 0.15219 0.5155 1.06562 0.0
O860 O 0.18891 0.5279 0.10647 0.0
O861 O 0.18252 0.47383 0.99969 0.0
H862 H 0.15236 0.54065 0.88666 0.0
H863 H 0.12619 0.46588 0.99316 0.0
O864 O 0.22029 0.48791 1.03484 0.0
O865 O 0.22866 0.54373 0.97277 0.0
O866 O 0.19712 0.52111 0.92699 0.0
C867 C 0.22115 0.53162 0.92834 0.0
H868 H 0.30029 0.54348 0.10203 0.0
H869 H 0.11313 0.50816 0.84074 0.0
Co870 Co 0.56967 0.26955 1.03675 0.0
C871 C 0.56545 0.3388 1.01279 0.0
Co872 Co 0.6018 0.28811 0.98815 0.0
C873 C 0.53029 0.22451 1.07763 0.0
C874 C 0.53959 0.26427 0.13239 0.0
N875 N 0.54525 0.25236 1.08326 0.0
N876 N 0.51525 0.21862 0.12127 0.0
C877 C 0.5213 0.24358 0.15586 0.0
H878 H 0.52962 0.20966 1.04132 0.0
H879 H 0.54763 0.28713 0.14945 0.0
C880 C 0.60929 0.21963 1.00638 0.0
N881 N 0.6255 0.30852 0.94249 0.0
C882 C 0.64955 0.32066 0.9547 0.0
C883 C 0.61864 0.32491 0.89704 0.0
N884 N 0.65769 0.3443 0.91938 0.0
C885 C 0.63837 0.34669 0.88271 0.0
C886 C 0.6152 0.29006 0.10059 0.0
O887 O 0.5878 0.22404 1.03304 0.0
O888 O 0.61814 0.24461 0.97981 0.0
O889 O 0.62555 0.29582 1.05438 0.0
O890 O 0.59131 0.28039 0.1 0.0
O891 O 0.58772 0.3313 0.99441 0.0
H892 H 0.59965 0.32358 0.87757 0.0
H893 H 0.66065 0.31284 0.98949 0.0
O894 O 0.5525 0.31564 1.03736 0.0
O895 O 0.54635 0.25867 0.97605 0.0
O896 O 0.57641 0.28022 0.92456 0.0
C897 C 0.5528 0.26849 0.92936 0.0
H898 H 0.51142 0.2484 0.19354 0.0
H899 H 0.63815 0.36358 0.84868 0.0
Co900 Co 0.20841 0.26677 0.88394 0.0
C901 C 0.20345 0.33326 0.92222 0.0
Co902 Co 0.17471 0.27423 0.93334 0.0
C903 C 0.24858 0.23302 0.82443 0.0
C904 C 0.24109 0.28329 0.79711 0.0
N905 N 0.23472 0.26094 0.83569 0.0
N906 N 0.26323 0.23699 0.77984 0.0
C907 C 0.25865 0.26865 0.76275 0.0
H908 H 0.24783 0.21024 0.84825 0.0
H909 H 0.233 0.30839 0.79356 0.0
C910 C 0.17605 0.20766 0.90194 0.0
N911 N 0.14833 0.28123 0.98112 0.0
C912 C 0.13224 0.30794 0.98514 0.0
C913 C 0.14467 0.26342 1.02651 0.0
N914 N 0.11891 0.30779 1.03173 0.0
C915 C 0.12645 0.27962 1.05764 0.0
C916 C 0.16162 0.28081 0.82123 0.0
O917 O 0.19602 0.21806 0.87466 0.0
O918 O 0.1658 0.22807 0.93434 0.0
O919 O 0.15007 0.27966 0.86734 0.0
O920 O 0.18654 0.27853 0.82232 0.0
O921 O 0.1816 0.32046 0.93523 0.0
H922 H 0.15523 0.2407 1.03702 0.0
H923 H 0.13106 0.32768 0.95531 0.0
O924 O 0.21945 0.31489 0.89553 0.0
O925 O 0.23251 0.25537 0.94376 0.0
O926 O 0.20048 0.26951 0.99682 0.0
C927 C 0.22508 0.26216 0.99139 0.0
H928 H 0.26821 0.28087 0.72913 0.0
H929 H 0.11899 0.27099 0.0959 0.0
Co930 Co 0.56852 0.54321 0.90178 0.0
C931 C 0.56802 0.47301 0.92996 0.0
Co932 Co 0.60125 0.52675 0.9499 0.0
C933 C 0.52593 0.58193 0.8579 0.0
C934 C 0.53835 0.54194 0.80627 0.0
N935 N 0.54301 0.55608 0.85434 0.0
N936 N 0.51066 0.58446 0.81384 0.0
C937 C 0.51866 0.55939 0.78123 0.0
H938 H 0.52391 0.59763 0.89308 0.0
H939 H 0.54802 0.51964 0.79108 0.0
C940 C 0.60514 0.59677 0.9284 0.0
N941 N 0.62656 0.51344 0.99752 0.0
C942 C 0.64394 0.48788 0.99432 0.0
C943 C 0.62931 0.52589 1.04731 0.0
N944 N 0.65754 0.48382 1.04042 0.0
C945 C 0.64828 0.50786 1.07367 0.0
C946 C 0.61475 0.52499 0.83817 0.0
O947 O 0.58385 0.59092 0.90184 0.0
O948 O 0.6144 0.57245 0.95546 0.0
O949 O 0.62573 0.52041 0.88424 0.0
O950 O 0.59058 0.53315 0.83941 0.0
O951 O 0.59043 0.48176 0.94683 0.0
H952 H 0.61835 0.54698 1.06327 0.0
H953 H 0.64664 0.47279 0.95868 0.0
O954 O 0.55427 0.49523 0.90492 0.0
O955 O 0.54461 0.55293 0.96158 0.0
O956 O 0.57484 0.53188 1.01303 0.0
C957 C 0.55082 0.54212 1.00779 0.0
H958 H 0.50925 0.55213 0.74405 0.0
H959 H 0.65579 0.51352 0.11323 0.0
C960 C 0.42231 0.8935 0.19723 0.0
C961 C 0.41913 0.86907 0.15681 0.0
H962 H 0.40864 0.93957 0.23317 0.0
C963 C 0.39768 0.87355 0.12129 0.0
H964 H 0.43777 0.89045 0.22677 0.0
C965 C 0.38026 0.90148 0.12577 0.0
C966 C 0.38346 0.92598 0.16631 0.0
H967 H 0.39376 0.85468 1.09098 0.0
H968 H 0.36417 0.90374 0.09749 0.0
C969 C 0.40513 0.92153 0.20144 0.0
C970 C 0.85767 0.41518 0.17776 0.0
C971 C 0.87056 0.4468 0.17801 0.0
H972 H 0.86128 0.36087 0.17926 0.0
C973 C 0.89852 0.44612 0.17843 0.0
H974 H 0.83631 0.41417 0.17755 0.0
C975 C 0.91294 0.41544 0.17772 0.0
C976 C 0.90013 0.38382 0.17868 0.0
H977 H 0.90945 0.46961 0.1784 0.0
H978 H 0.9343 0.41655 0.17715 0.0
C979 C 0.87214 0.38441 0.17905 0.0
C980 C 0.41022 0.40081 0.25933 0.0
C981 C 0.39681 0.43183 0.25595 0.0
H982 H 0.408 0.34669 0.26053 0.0
C983 C 0.36884 0.43022 0.25368 0.0
H984 H 0.43157 0.4005 0.26141 0.0
C985 C 0.355 0.39885 0.2551 0.0
C986 C 0.36865 0.36785 0.25715 0.0
H987 H 0.35756 0.45333 0.25157 0.0
H988 H 0.33365 0.39888 0.25318 0.0
C989 C 0.39653 0.36968 0.25897 0.0
C990 C 0.86285 0.91766 0.2667 0.0
C991 C 0.87487 0.8857 0.26322 0.0
H992 H 0.86769 0.97171 0.2668 0.0
C993 C 0.90286 0.88547 0.26014 0.0
H994 H 0.84155 0.91942 0.26911 0.0
C995 C 0.91811 0.91569 0.2607 0.0
C996 C 0.90601 0.94767 0.26242 0.0
H997 H 0.91316 0.86163 0.25768 0.0
H998 H 0.9394 0.91396 0.25822 0.0
C999 C 0.87803 0.94787 0.26529 0.0
C1000 C 0.62913 0.12509 1.01171 0.0
C1001 C 0.65713 0.12606 1.0109 0.0
H1002 H 0.59232 0.15269 1.0127 0.0
C1003 C 0.66892 0.15826 1.00965 0.0
H1004 H 0.61907 0.10099 1.01288 0.0
C1005 C 0.65339 0.18805 1.00763 0.0
C1006 C 0.6254 0.18708 1.00878 0.0
H1007 H 0.69022 0.16048 1.00887 0.0
H1008 H 0.66344 0.21213 1.00573 0.0
C1009 C 0.61363 0.15491 1.01171 0.0
C1010 C 0.1165 0.65521 1.01099 0.0
C1011 C 0.12902 0.68655 1.00274 0.0
H1012 H 0.12025 0.60143 1.01926 0.0
C1013 C 0.15699 0.68607 0.99927 0.0
H1014 H 0.09519 0.65406 1.01431 0.0
C1015 C 0.1717 0.65557 1.00419 0.0
C1016 C 0.15897 0.62416 1.01112 0.0
H1017 H 0.16764 0.70949 0.99359 0.0
H1018 H 0.19301 0.65654 1.00117 0.0
C1019 C 0.13105 0.6248 1.01407 0.0
C1020 C 0.66505 0.65828 0.92179 0.0
C1021 C 0.65374 0.69066 0.92518 0.0
H1022 H 0.65908 0.6044 0.92143 0.0
C1023 C 0.62571 0.69177 0.92773 0.0
H1024 H 0.68631 0.65577 0.91977 0.0
C1025 C 0.60981 0.66205 0.92674 0.0
C1026 C 0.62122 0.62965 0.92511 0.0
H1027 H 0.6159 0.71595 0.93011 0.0
H1028 H 0.58855 0.66449 0.92885 0.0
C1029 C 0.64922 0.62858 0.9228 0.0
C1030 C 0.13932 0.17155 0.86219 0.0
C1031 C 0.16216 0.17413 0.89475 0.0
H1032 H 0.10471 0.14261 0.83973 0.0
C1033 C 0.16674 0.14765 0.93092 0.0
H1034 H 0.13435 0.19207 0.83542 0.0
C1035 C 0.14944 0.11973 0.93433 0.0
C1036 C 0.12639 0.11702 0.90228 0.0
H1037 H 0.18328 0.14912 0.9583 0.0
H1038 H 0.1541 0.10026 0.9632 0.0
C1039 C 0.12191 0.14338 0.86542 0.0
C1040 C 0.41411 0.39058 0.66583 0.0
C1041 C 0.40206 0.35855 0.6679 0.0
H1042 H 0.40943 0.44453 0.66763 0.0
C1043 C 0.37406 0.35811 0.67078 0.0
H1044 H 0.43541 0.39249 0.66357 0.0
C1045 C 0.35886 0.38833 0.67123 0.0
C1046 C 0.37106 0.42035 0.67076 0.0
H1047 H 0.36377 0.33418 0.67215 0.0
H1048 H 0.33755 0.38657 0.67341 0.0
C1049 C 0.39902 0.42066 0.66821 0.0
C1050 C 0.90209 0.94247 0.66404 0.0
C1051 C 0.87409 0.94266 0.66514 0.0
H1052 H 0.93823 0.91351 0.66375 0.0
C1053 C 0.86153 0.91095 0.66755 0.0
H1054 H 0.91274 0.96614 0.66218 0.0
C1055 C 0.87638 0.88057 0.67043 0.0
C1056 C 0.9044 0.88043 0.66915 0.0
H1057 H 0.84019 0.90961 0.66883 0.0
H1058 H 0.86577 0.85691 0.67325 0.0
C1059 C 0.91689 0.9121 0.66495 0.0
C1060 C 0.40818 0.90508 0.76796 0.0
C1061 C 0.3962 0.93644 0.75742 0.0
H1062 H 0.40366 0.85154 0.77834 0.0
C1063 C 0.36825 0.93626 0.75266 0.0
H1064 H 0.42941 0.90361 0.77231 0.0
C1065 C 0.35308 0.90602 0.75797 0.0
C1066 C 0.36533 0.87457 0.76713 0.0
H1067 H 0.35797 0.95968 0.74509 0.0
H1068 H 0.33187 0.90714 0.75312 0.0
C1069 C 0.3932 0.87497 0.77181 0.0
C1070 C 0.86132 0.4165 0.73191 0.0
C1071 C 0.86125 0.39334 0.77478 0.0
H1072 H 0.87763 0.46152 0.69678 0.0
C1073 C 0.88003 0.39906 0.81582 0.0
H1074 H 0.84808 0.41258 0.69843 0.0
C1075 C 0.89799 0.42681 0.814 0.0
C1076 C 0.89785 0.45015 0.77111 0.0
H1077 H 0.88157 0.38122 0.84852 0.0
H1078 H 0.91196 0.43 0.84641 0.0
C1079 C 0.87878 0.44449 0.7306 0.0
C1080 C 0.67655 0.66267 0.51606 0.0
C1081 C 0.66367 0.63222 0.52904 0.0
H1082 H 0.67271 0.71586 0.49921 0.0
C1083 C 0.63605 0.63359 0.53692 0.0
H1084 H 0.69761 0.66275 0.50867 0.0
C1085 C 0.62179 0.66399 0.53221 0.0
C1086 C 0.63437 0.69431 0.51762 0.0
H1087 H 0.62527 0.61074 0.54638 0.0
H1088 H 0.60067 0.66354 0.53889 0.0
C1089 C 0.66209 0.69312 0.50992 0.0
C1090 C 0.12968 0.11531 0.49784 0.0
C1091 C 0.15766 0.11484 0.49897 0.0
H1092 H 0.0937 0.14456 0.49677 0.0
C1093 C 0.17029 0.14666 0.49765 0.0
H1094 H 0.11889 0.09173 0.49895 0.0
C1095 C 0.15562 0.17729 0.49433 0.0
C1096 C 0.12761 0.17769 0.49411 0.0
H1097 H 0.19164 0.14794 0.49829 0.0
H1098 H 0.16635 0.20091 0.49312 0.0
C1099 C 0.11505 0.14589 0.49652 0.0
C1100 C 0.62235 0.19018 0.41924 0.0
C1101 C 0.65036 0.19073 0.42137 0.0
H1102 H 0.58639 0.16058 0.41551 0.0
C1103 C 0.663 0.15909 0.4221 0.0
H1104 H 0.61161 0.21374 0.41826 0.0
C1105 C 0.64836 0.12847 0.4223 0.0
C1106 C 0.62039 0.12786 0.41971 0.0
H1107 H 0.68434 0.15794 0.42369 0.0
H1108 H 0.65913 0.10494 0.4239 0.0
C1109 C 0.60772 0.15948 0.41742 0.0
C1110 C 0.15994 0.65203 0.41703 0.0
C1111 C 0.14742 0.68344 0.42346 0.0
H1112 H 0.15612 0.59808 0.41264 0.0
C1113 C 0.11946 0.68298 0.4273 0.0
H1114 H 0.18124 0.65089 0.41364 0.0
C1115 C 0.10474 0.65237 0.42479 0.0
C1116 C 0.11748 0.62093 0.41994 0.0
H1117 H 0.10884 0.70646 0.43178 0.0
H1118 H 0.08345 0.65329 0.42831 0.0
C1119 C 0.14537 0.62154 0.41627 0.0
C1120 C 0.26041 0.99605 0.28572 0.0
C1121 C 0.28623 1.00995 0.29173 0.0
H1122 H 0.22074 0.98946 0.31755 0.0
C1123 C 0.28986 1.0298 0.33821 0.0
H1124 H 0.25605 0.98093 0.25075 0.0
C1125 C 0.26923 0.03523 0.3763 0.0
C1126 C 0.24346 1.02123 0.37081 0.0
H1127 H 0.30881 0.04169 0.34515 0.0
H1128 H 0.27376 0.05057 0.41093 0.0
C1129 C 0.23971 1.00133 0.32423 0.0
C1130 C 1.00827 0.25912 0.37913 0.0
C1131 C 0.03445 0.27206 0.37421 0.0
H1132 H 0.96831 0.25573 0.348 0.0
C1133 C 0.03843 0.29374 0.32978 0.0
H1134 H 1.00356 0.24268 0.41243 0.0
C1135 C 0.01774 0.30163 0.29263 0.0
C1136 C 0.99155 0.28867 0.2975 0.0
H1137 H 0.05767 0.30505 0.32376 0.0
H1138 H 0.02248 0.31803 0.25931 0.0
C1139 C 0.98755 0.26704 0.342 0.0
C1140 C 0.27281 0.25796 1.03058 0.0
C1141 C 0.24549 0.26484 1.03807 0.0
H1142 H 0.31239 0.25618 1.06366 0.0
C1143 C 0.23867 0.27654 1.08992 0.0
H1144 H 0.27957 0.24922 0.99189 0.0
C1145 C 0.25786 0.28092 0.13153 0.0
C1146 C 0.28518 0.27405 0.12406 0.0
H1147 H 0.21829 0.28267 0.09852 0.0
H1148 H 0.25108 0.28971 0.17019 0.0
C1149 C 0.29201 0.2623 1.07223 0.0
C1150 C 0.98589 0.04863 1.06865 0.0
C1151 C 0.99045 0.03329 0.11913 0.0
H1152 H 1.00107 0.06213 0.99016 0.0
C1153 C 0.01636 1.02013 0.12622 0.0
H1154 H 0.96678 0.05964 1.0605 0.0
C1155 C 0.03636 1.02202 1.08594 0.0
C1156 C 0.03193 0.03725 1.03552 0.0
H1157 H 0.02152 1.00826 0.16383 0.0
H1158 H 0.05547 1.01111 0.09447 0.0
C1159 C 1.00599 0.05036 1.02798 0.0
C1160 C 0.7702 0.05095 0.88259 0.0
C1161 C 0.74405 0.03819 0.87676 0.0
H1162 H 0.80936 0.05817 0.84947 0.0
C1163 C 0.73906 1.02159 0.82752 0.0
H1164 H 0.77564 0.06373 0.91925 0.0
C1165 C 0.75889 1.01834 0.78671 0.0
C1166 C 0.78507 0.03103 0.79284 0.0
H1167 H 0.71972 1.01083 0.82039 0.0
H1168 H 0.75357 1.0057 0.74986 0.0
C1169 C 0.79002 0.04747 0.84212 0.0
C1170 C 1.0086 0.76143 0.88726 0.0
C1171 C 0.03442 0.77523 0.88077 0.0
H1172 H 0.96858 0.75584 0.85737 0.0
C1173 C 0.03774 0.79597 0.83516 0.0
H1174 H 1.00446 0.74566 0.92167 0.0
C1175 C 0.01672 0.80221 0.79824 0.0
C1176 C 0.99093 0.78827 0.80446 0.0
H1177 H 0.05668 0.80787 0.82808 0.0
H1178 H 0.0209 0.81812 0.76404 0.0
C1179 C 0.98754 0.76765 0.85024 0.0
C1180 C 0.76964 0.7669 1.04986 0.0
C1181 C 0.74394 0.78095 1.0556 0.0
H1182 H 0.8094 0.76123 1.08066 0.0
C1183 C 0.7404 0.80178 0.10094 0.0
H1184 H 0.77386 0.75089 1.01586 0.0
C1185 C 0.76122 0.80803 0.13827 0.0
C1186 C 0.78693 0.79402 0.13251 0.0
H1187 H 0.72147 0.81369 0.10751 0.0
H1188 H 0.75696 0.82396 0.17235 0.0
C1189 C 0.79048 0.77319 1.08716 0.0
C1190 C 0.23588 0.51011 0.83361 0.0
C1191 C 0.24164 0.52658 0.88257 0.0
H1192 H 0.24987 0.49167 0.75707 0.0
C1193 C 0.26853 0.53615 0.88943 0.0
H1194 H 0.21591 0.50169 0.82588 0.0
C1195 C 0.28835 0.52988 0.84994 0.0
C1196 C 0.28264 0.51356 0.80091 0.0
H1197 H 0.2745 0.54854 0.9261 0.0
H1198 H 0.30832 0.53831 0.85781 0.0
C1199 C 0.25575 0.50398 0.79387 0.0
C1200 C 0.23267 0.78662 0.60361 0.0
C1201 C 0.23826 0.77057 0.55409 0.0
H1202 H 0.24649 0.80324 0.6815 0.0
C1203 C 0.26494 0.75987 0.54814 0.0
H1204 H 0.21291 0.7959 0.61096 0.0
C1205 C 0.28463 0.7647 0.5887 0.0
C1206 C 0.27906 0.78053 0.63833 0.0
H1207 H 0.27091 0.74776 0.51125 0.0
H1208 H 0.3044 0.75555 0.58112 0.0
C1209 C 0.25236 0.79117 0.64451 0.0
C1210 C 0.03841 0.51861 0.60564 0.0
C1211 C 0.03264 0.53291 0.55492 0.0
H1212 H 0.02507 0.50551 0.68543 0.0
C1213 C 1.00637 0.54498 0.549 0.0
H1214 H 0.05794 0.50856 0.61295 0.0
C1215 C 0.98718 0.54313 0.59107 0.0
C1216 C 0.9929 0.52871 0.64171 0.0
H1217 H 1.00043 0.55605 0.51125 0.0
H1218 H 0.96769 0.55327 0.58375 0.0
C1219 C 0.01916 0.51657 0.64766 0.0
C1220 C 0.7898 0.54827 0.35625 0.0
C1221 C 0.78295 0.53391 0.30626 0.0
H1222 H 0.77778 0.56263 0.43608 0.0
C1223 C 0.7562 0.52344 0.30125 0.0
H1224 H 0.80976 0.55718 0.36266 0.0
C1225 C 0.73746 0.52695 0.34373 0.0
C1226 C 0.74434 0.54126 0.39376 0.0
H1227 H 0.74952 0.51252 0.26391 0.0
H1228 H 0.71749 0.51809 0.33733 0.0
C1229 C 0.77109 0.5517 0.39875 0.0
C1230 C 0.75953 0.27222 0.55621 0.0
C1231 C 0.73347 0.28543 0.55987 0.0
H1232 H 0.79878 0.26748 0.58942 0.0
C1233 C 0.72868 0.30534 0.60609 0.0
H1234 H 0.76482 0.25665 0.52236 0.0
C1235 C 0.74869 0.31132 0.64595 0.0
C1236 C 0.77487 0.29846 0.64138 0.0
H1237 H 0.70944 0.31665 0.61145 0.0
H1238 H 0.74357 0.32636 0.68056 0.0
C1239 C 0.77952 0.27869 0.59523 0.0
C1240 C 0.50674 0.25366 0.88827 0.0
C1241 C 0.532 0.26927 0.88348 0.0
H1242 H 0.46834 0.24296 0.85324 0.0
C1243 C 0.536 0.28778 0.83573 0.0
H1244 H 0.50218 0.23934 0.92403 0.0
C1245 C 0.51614 0.29048 0.79536 0.0
C1246 C 0.49096 0.27467 0.79963 0.0
H1247 H 0.55456 0.30081 0.82963 0.0
H1248 H 0.52078 0.30515 0.76005 0.0
C1249 C 0.4869 0.25602 0.84739 0.0
C1250 C 0.482 0.04292 0.57243 0.0
C1251 C 0.48667 1.02445 0.62015 0.0
H1252 H 0.49723 0.06238 0.49728 0.0
C1253 C 0.51294 1.01223 0.626 0.0
H1254 H 0.46261 0.05345 0.56547 0.0
C1255 C 0.53318 1.018 0.58712 0.0
C1256 C 0.52859 0.03631 0.53939 0.0
H1257 H 0.51819 0.9982 0.66162 0.0
H1258 H 0.55258 1.0076 0.59447 0.0
C1259 C 0.50229 0.04843 0.53309 0.0
C1260 C 0.49897 0.76647 0.34269 0.0
C1261 C 0.50444 0.7809 0.29194 0.0
H1262 H 0.51262 0.75282 0.42176 0.0
C1263 C 0.53087 0.79264 0.28536 0.0
H1264 H 0.4794 0.75664 0.35064 0.0
C1265 C 0.55041 0.79041 0.32697 0.0
C1266 C 0.5449 0.7758 0.37768 0.0
H1267 H 0.53661 0.80379 0.24752 0.0
H1268 H 0.56995 0.80037 0.31927 0.0
C1269 C 0.5185 0.76399 0.38401 0.0
C1270 C 0.51252 0.51124 0.13569 0.0
C1271 C 0.48647 0.52426 0.13004 0.0
H1272 H 0.55233 0.50658 0.1049 0.0
C1273 C 0.48245 0.54442 1.08387 0.0
H1274 H 0.51728 0.49592 0.17024 0.0
C1275 C 0.5031 0.55063 1.04562 0.0
C1276 C 0.52917 0.53765 1.05166 0.0
H1277 H 0.46327 0.55566 1.07722 0.0
H1278 H 0.4985 0.56581 1.01082 0.0
C1279 C 0.53315 0.51774 0.09795 0.0
C1280 C 0.41094 1.03022 1.01351 0.0
C1281 C 0.38338 0.03255 1.02194 0.0
H1282 H 0.44335 1.02834 0.95695 0.0
C1283 C 0.36789 0.03675 0.97493 0.0
H1284 H 0.42388 1.02663 1.04752 0.0
C1285 C 0.37911 0.03826 0.92263 0.0
C1286 C 0.40654 0.03499 0.91389 0.0
H1287 H 0.34664 0.03858 0.97839 0.0
H1288 H 0.36602 0.04111 0.88866 0.0
C1289 C 0.42218 0.0311 0.96085 0.0
C1290 C 0.87492 0.27739 1.00677 0.0
C1291 C 0.90202 0.28463 1.01373 0.0
H1292 H 0.84176 0.27236 0.95332 0.0
C1293 C 0.91629 0.29143 0.96568 0.0
H1294 H 0.86282 0.27207 1.04152 0.0
C1295 C 0.90409 0.29126 0.91385 0.0
C1296 C 0.87683 0.28459 0.90717 0.0
H1297 H 0.93714 0.29726 0.96806 0.0
H1298 H 0.91601 0.29717 0.87908 0.0
C1299 C 0.86273 0.27756 0.95526 0.0
C1300 C 0.36883 0.25405 0.44615 0.0
C1301 C 0.3836 0.25801 0.39794 0.0
H1302 H 0.368 0.25074 0.53283 0.0
C1303 C 0.41125 0.26142 0.40549 0.0
H1304 H 0.34758 0.25144 0.44384 0.0
C1305 C 0.42312 0.26154 0.45787 0.0
C1306 C 0.40823 0.25769 0.50603 0.0
H1307 H 0.42382 0.26486 0.37084 0.0
H1308 H 0.44429 0.26493 0.46055 0.0
C1309 C 0.38071 0.25361 0.49824 0.0
C1310 C 0.9232 0.05119 0.46057 0.0
C1311 C 0.90801 0.05277 0.41254 0.0
H1312 H 0.92424 0.04926 0.54766 0.0
C1313 C 0.88037 0.05426 0.42038 0.0
H1314 H 0.9445 0.04982 0.45774 0.0
C1315 C 0.86867 0.05348 0.47254 0.0
C1316 C 0.88374 0.05169 0.52065 0.0
H1317 H 0.86749 0.05529 0.38582 0.0
H1318 H 0.84734 0.05402 0.47501 0.0
C1319 C 0.91147 0.05094 0.51302 0.0
C1320 C 0.63032 1.02031 0.17266 0.0
C1321 C 0.65808 1.02309 0.16734 0.0
H1322 H 0.5961 1.01845 0.22424 0.0
C1323 C 0.67215 1.02474 0.21673 0.0
H1324 H 0.61824 1.0191 0.13695 0.0
C1325 C 0.65924 1.02375 0.26804 0.0
C1326 C 0.63138 1.02166 0.27315 0.0
H1327 H 0.69344 1.02699 0.21587 0.0
H1328 H 0.67119 1.02549 0.30385 0.0
C1329 C 0.61744 1.01993 0.2237 0.0
C1330 C 0.11237 0.78801 0.20656 0.0
C1331 C 0.12741 0.78739 0.15845 0.0
H1332 H 0.11154 0.78801 0.29334 0.0
C1333 C 0.15514 0.78648 0.16546 0.0
H1334 H 0.09103 0.78857 0.20421 0.0
C1335 C 0.16702 0.78542 0.21747 0.0
C1336 C 0.15194 0.78598 0.26555 0.0
H1337 H 0.1678 0.78566 0.13055 0.0
H1338 H 0.18833 0.78399 0.21992 0.0
C1339 C 0.12426 0.78772 0.25848 0.0
C1340 C 0.67031 0.79611 0.72519 0.0
C1341 C 0.65526 0.79553 0.7733 0.0
H1342 H 0.67108 0.79718 0.63837 0.0
C1343 C 0.62753 0.79619 0.76629 0.0
H1344 H 0.69165 0.79554 0.72753 0.0
C1345 C 0.6156 0.79657 0.71435 0.0
C1346 C 0.63066 0.79704 0.66625 0.0
H1347 H 0.61483 0.79558 0.80118 0.0
H1348 H 0.59427 0.79626 0.71197 0.0
C1349 C 0.65839 0.79716 0.67327 0.0
C1350 C 0.11866 1.00615 0.72002 0.0
C1351 C 0.13292 1.00999 0.76881 0.0
H1352 H 0.1187 1.00373 0.63336 0.0
C1353 C 0.16057 1.01416 0.7625 0.0
H1354 H 0.09743 1.00307 0.72142 0.0
C1355 C 0.17295 1.01505 0.71063 0.0
C1356 C 0.15853 1.01142 0.66192 0.0
H1357 H 0.17272 1.01768 0.79772 0.0
H1358 H 0.19409 1.01893 0.7088 0.0
C1359 C 0.13102 1.00658 0.66849 0.0
C1360 C 0.40903 0.5252 0.52312 0.0
C1361 C 0.38148 0.52884 0.53104 0.0
H1362 H 0.44168 0.5215 0.46723 0.0
C1363 C 0.36639 0.53311 0.48348 0.0
H1364 H 0.42171 0.52149 0.55749 0.0
C1365 C 0.37791 0.53355 0.43135 0.0
C1366 C 0.40529 0.52912 0.42312 0.0
H1367 H 0.34519 0.53594 0.48637 0.0
H1368 H 0.36505 0.53669 0.39708 0.0
C1369 C 0.42056 0.52506 0.4706 0.0
C1370 C 0.91677 0.77921 0.47014 0.0
C1371 C 0.90295 0.77885 0.51965 0.0
H1372 H 0.91527 0.78037 0.38343 0.0
C1373 C 0.87504 0.77942 0.51554 0.0
H1374 H 0.93814 0.77897 0.4703 0.0
C1375 C 0.86177 0.78086 0.46504 0.0
C1376 C 0.87558 0.78118 0.41554 0.0
H1377 H 0.86325 0.77944 0.55172 0.0
H1378 H 0.84042 0.7818 0.46493 0.0
C1379 C 0.90348 0.78001 0.41961 0.0
C1380 C 0.40759 0.76156 0.91737 0.0
C1381 C 0.37992 0.7644 0.91018 0.0
H1382 H 0.44092 0.75881 0.97146 0.0
C1383 C 0.36526 0.7655 0.95917 0.0
H1384 H 0.42021 0.76074 0.88242 0.0
C1385 C 0.37726 0.76413 1.0114 0.0
C1386 C 0.40495 0.76175 1.01861 0.0
H1387 H 0.34398 0.76775 0.95737 0.0
H1388 H 0.36467 0.76559 1.04635 0.0
C1389 C 0.41961 0.76042 0.96962 0.0
C1390 C 0.91457 0.55566 0.9674 0.0
C1391 C 0.89957 0.55497 0.91914 0.0
H1392 H 0.91537 0.55581 1.05429 0.0
C1393 C 0.87186 0.55459 0.92617 0.0
H1394 H 0.93591 0.55581 0.96511 0.0
C1395 C 0.85997 0.55401 0.97823 0.0
C1396 C 0.875 0.55439 1.02648 0.0
H1397 H 0.85919 0.55372 0.89129 0.0
H1398 H 0.83865 0.55292 0.98055 0.0
C1399 C 0.90268 0.55569 1.01942 0.0
C1400 C 0.6133 0.52324 0.7344 0.0
C1401 C 0.6285 0.52261 0.78247 0.0
H1402 H 0.612 0.52431 0.64759 0.0
C1403 C 0.65617 0.52185 0.77484 0.0
H1404 H 0.59198 0.52395 0.73697 0.0
C1405 C 0.66779 0.5224 0.72246 0.0
C1406 C 0.65251 0.52336 0.67447 0.0
H1407 H 0.66902 0.52161 0.80947 0.0
H1408 H 0.68912 0.52241 0.71967 0.0
C1409 C 0.62488 0.52342 0.68215 0.0
C1410 C 0.12086 0.27536 0.75646 0.0
C1411 C 0.14788 0.28253 0.76541 0.0
H1412 H 0.08908 0.26787 0.69975 0.0
C1413 C 0.16295 0.2888 0.71815 0.0
H1414 H 0.10821 0.26991 0.79035 0.0
C1415 C 0.1519 0.28778 0.66544 0.0
C1416 C 0.12503 0.27999 0.65635 0.0
H1417 H 0.18383 0.29425 0.72171 0.0
H1418 H 0.1647 0.29257 0.63155 0.0
C1419 C 0.10983 0.274 0.70357 0.0
C1420 C 0.65741 0.29126 0.16213 0.0
C1421 C 0.62963 0.29288 0.15548 0.0
H1422 H 0.69082 0.28879 0.21645 0.0
C1423 C 0.6149 0.29465 0.20388 0.0
H1424 H 0.66989 0.28947 0.12704 0.0
C1425 C 0.62696 0.29473 0.25553 0.0
C1426 C 0.65462 0.29236 0.26248 0.0
H1427 H 0.59357 0.29579 0.20203 0.0
H1428 H 0.61432 0.29597 0.29045 0.0
C1429 C 0.66953 0.29071 0.21416 0.0
C1430 C 0.12401 0.51401 0.1759 0.0
C1431 C 0.15156 0.51702 0.1674 0.0
H1432 H 0.09133 0.51116 0.2315 0.0
C1433 C 0.16693 0.51805 0.21534 0.0
H1434 H 0.11096 0.51317 0.14161 0.0
C1435 C 0.15554 0.5164 0.26809 0.0
C1436 C 0.12792 0.51401 0.27652 0.0
H1437 H 0.18817 0.52038 0.21224 0.0
H1438 H 0.16852 0.51779 0.30244 0.0
C1439 C 0.11262 0.5128 0.22853 0.0
C1440 C 0.30529 0.14779 0.25376 0.0
C1441 C 0.31541 0.17458 0.22312 0.0
H1442 H 0.2978 0.09435 0.25736 0.0
C1443 C 0.32058 0.16845 0.16833 0.0
H1444 H 0.30137 0.15131 0.29601 0.0
C1445 C 0.31806 0.13611 0.14593 0.0
C1446 C 0.31013 0.1086 0.17736 0.0
H1447 H 0.32834 0.18847 0.14327 0.0
H1448 H 0.32483 0.13205 0.10529 0.0
C1449 C 0.30289 0.11516 0.23119 0.0
C1450 C 0.96778 0.13911 0.16943 0.0
C1451 C 0.97222 0.13473 0.22498 0.0
H1452 H 0.96212 0.17351 0.10369 0.0
C1453 C 0.9795 0.16351 0.25439 0.0
H1454 H 0.96159 0.11779 0.1454 0.0
C1455 C 0.98041 0.19574 0.22961 0.0
C1456 C 0.97392 0.20039 0.17484 0.0
H1457 H 0.98227 0.16166 0.29728 0.0
H1458 H 0.98361 0.21756 0.25472 0.0
C1459 C 0.96838 0.17123 0.145 0.0
C1460 C 0.72815 0.9043 0.91535 0.0
C1461 C 0.72505 0.87534 0.94713 0.0
H1462 H 0.72926 0.95847 0.91298 0.0
C1463 C 0.72496 0.8797 1.00336 0.0
H1464 H 0.72729 0.90229 0.87214 0.0
C1465 C 0.7258 0.912 1.02698 0.0
C1466 C 0.7271 0.94113 0.99514 0.0
H1467 H 0.72167 0.85816 1.02914 0.0
H1468 H 0.72291 0.91424 1.06981 0.0
C1469 C 0.72931 0.93664 0.93906 0.0
C1470 C 0.0598 0.89732 1.02688 0.0
C1471 C 0.05346 0.86815 0.99775 0.0
H1472 H 0.06884 0.95015 1.02504 0.0
C1473 C 0.04763 0.87247 0.94257 0.0
H1474 H 0.06559 0.89519 1.0685 0.0
C1475 C 0.05009 0.90424 0.91676 0.0
C1476 C 0.05847 0.93279 0.9455 0.0
H1477 H 0.04388 0.8505 0.91802 0.0
H1478 H 0.04771 0.90573 0.87374 0.0
C1479 C 0.06208 0.92893 1.00139 0.0
C1480 C 0.31538 0.67356 0.68222 0.0
C1481 C 0.31339 0.67973 0.73796 0.0
H1482 H 0.31871 0.63703 0.61865 0.0
C1483 C 0.30923 0.65179 0.77152 0.0
H1484 H 0.31905 0.69438 0.65507 0.0
C1485 C 0.30898 0.61871 0.75022 0.0
C1486 C 0.31256 0.61251 0.69479 0.0
H1487 H 0.30831 0.65522 0.81449 0.0
H1488 H 0.30793 0.59766 0.77781 0.0
C1489 C 0.31497 0.6406 0.66098 0.0
C1490 C 0.97013 0.69221 0.755 0.0
C1491 C 0.97183 0.6951 0.69862 0.0
H1492 H 0.96708 0.6595 0.82361 0.0
C1493 C 0.97695 0.66551 0.66957 0.0
H1494 H 0.96539 0.71417 0.77872 0.0
C1495 C 0.97847 0.63392 0.69589 0.0
C1496 C 0.97464 0.63078 0.75193 0.0
H1497 H 0.97749 0.66631 0.62623 0.0
H1498 H 0.97987 0.6114 0.67153 0.0
C1499 C 0.97134 0.66069 0.78114 0.0
C1500 C 0.72632 0.3808 0.49187 0.0
C1501 C 0.71887 0.37722 0.43747 0.0
H1502 H 0.72898 0.41368 0.56085 0.0
C1503 C 0.71197 0.40655 0.40947 0.0
H1504 H 0.7307 0.35858 0.51539 0.0
C1505 C 0.71093 0.43792 0.43549 0.0
C1506 C 0.71635 0.44123 0.49078 0.0
H1507 H 0.70515 0.4048 0.36845 0.0
H1508 H 0.70394 0.45947 0.4129 0.0
C1509 C 0.72513 0.41242 0.51826 0.0
C1510 C 0.06314 0.38991 0.53082 0.0
C1511 C 0.05468 0.36253 0.49959 0.0
H1512 H 0.07385 0.44216 0.53375 0.0
C1513 C 0.04714 0.36962 0.44604 0.0
H1514 H 0.07025 0.38558 0.57115 0.0
C1515 C 0.04962 0.40245 0.4237 0.0
C1516 C 0.0601 0.42911 0.45422 0.0
H1517 H 0.04175 0.34903 0.41974 0.0
H1518 H 0.04544 0.4062 0.38161 0.0
C1519 C 0.0657 0.42243 0.50871 0.0
C1520 C 0.81761 0.16207 0.65462 0.0
C1521 C 0.8129 0.13332 0.68588 0.0
H1522 H 0.8225 0.21577 0.65269 0.0
C1523 C 0.80631 0.1383 0.74048 0.0
H1524 H 0.82368 0.15939 0.61324 0.0
C1525 C 0.80577 0.17089 0.76367 0.0
C1526 C 0.8122 0.19943 0.73293 0.0
H1527 H 0.8035 0.11664 0.76632 0.0
H1528 H 0.80239 0.17341 0.8063 0.0
C1529 C 0.81719 0.19448 0.67769 0.0
C1530 C 0.48116 0.17584 0.73891 0.0
C1531 C 0.47941 0.1786 0.68244 0.0
H1532 H 0.47828 0.14373 0.80857 0.0
C1533 C 0.47863 0.14835 0.65326 0.0
H1534 H 0.48061 0.19844 0.76315 0.0
C1535 C 0.4779 0.11679 0.67959 0.0
C1536 C 0.47732 0.11413 0.73611 0.0
H1537 H 0.476 0.1491 0.61023 0.0
H1538 H 0.4749 0.09451 0.65547 0.0
C1539 C 0.47981 0.14426 0.76532 0.0
C1540 C 0.22552 0.89285 0.40425 0.0
C1541 C 0.22536 0.86322 0.43504 0.0
H1542 H 0.22377 0.94692 0.40391 0.0
C1543 C 0.22752 0.86688 0.49131 0.0
H1544 H 0.2227 0.8914 0.36132 0.0
C1545 C 0.22756 0.89892 0.51614 0.0
C1546 C 0.22593 0.92851 0.48542 0.0
H1547 H 0.22636 0.84477 0.51667 0.0
H1548 H 0.22642 0.90035 0.55938 0.0
C1549 C 0.22603 0.92487 0.42902 0.0
C1550 C 0.55514 0.90338 0.51885 0.0
C1551 C 0.55806 0.87362 0.48903 0.0
H1552 H 0.55434 0.95756 0.51795 0.0
C1553 C 0.55838 0.87682 0.43247 0.0
H1554 H 0.5559 0.90241 0.56216 0.0
C1555 C 0.55793 0.90865 0.4068 0.0
C1556 C 0.55677 0.93854 0.43681 0.0
H1557 H 0.56155 0.85467 0.40799 0.0
H1558 H 0.56092 0.90988 0.3639 0.0
C1559 C 0.55433 0.93518 0.49314 0.0
C1560 C 0.80496 0.6634 0.16193 0.0
C1561 C 0.80339 0.63416 0.19351 0.0
H1562 H 0.80916 0.71727 0.16026 0.0
C1563 C 0.80088 0.6386 0.2496 0.0
H1564 H 0.80807 0.66126 0.11916 0.0
C1565 C 0.80193 0.6709 0.27358 0.0
C1566 C 0.80526 0.69997 0.24214 0.0
H1567 H 0.80066 0.6167 0.27556 0.0
H1568 H 0.80248 0.67279 0.31683 0.0
C1569 C 0.80573 0.69567 0.18585 0.0
C1570 C 0.46679 0.64164 0.28287 0.0
C1571 C 0.47458 0.6125 0.25519 0.0
H1572 H 0.45781 0.69437 0.27969 0.0
C1573 C 0.48259 0.61683 0.20111 0.0
H1574 H 0.45939 0.63953 0.32345 0.0
C1575 C 0.48121 0.6487 0.17497 0.0
C1576 C 0.4715 0.67722 0.20211 0.0
H1577 H 0.48757 0.59491 0.17743 0.0
H1578 H 0.48571 0.65032 0.13266 0.0
C1579 C 0.46543 0.67321 0.25708 0.0
C1580 C 0.22526 0.42484 0.94838 0.0
C1581 C 0.21388 0.43068 0.99934 0.0
H1582 H 0.2314 0.38958 0.88336 0.0
C1583 C 0.2024 0.40325 1.02593 0.0
H1584 H 0.23332 0.44579 0.92579 0.0
C1585 C 0.20092 0.37152 1.00145 0.0
C1586 C 0.21057 0.36598 0.94905 0.0
H1587 H 0.19267 0.40694 1.06412 0.0
H1588 H 0.1908 0.35152 1.0228 0.0
C1589 C 0.22386 0.39272 0.92362 0.0
C1590 C 0.55163 0.37886 0.9401 0.0
C1591 C 0.55505 0.3727 0.99566 0.0
H1592 H 0.5524 0.41496 0.87514 0.0
C1593 C 0.55801 0.40097 1.02891 0.0
H1594 H 0.55041 0.35773 0.91274 0.0
C1595 C 0.55921 0.43384 1.00712 0.0
C1596 C 0.55768 0.43982 0.95124 0.0
H1597 H 0.56186 0.39753 1.07122 0.0
H1598 H 0.56349 0.45459 1.03394 0.0
C1599 C 0.55288 0.41182 0.9182 0.0
C1600 C 0.22868 0.95337 1.00077 0.0
C1601 C 0.23846 0.95401 1.05328 0.0
H1602 H 0.19516 0.96085 0.95086 0.0
C1603 C 0.2208 0.95326 0.09647 0.0
H1604 H 0.24195 0.95341 0.96679 0.0
C1605 C 0.19393 0.95715 1.0874 0.0
C1606 C 0.1846 0.96233 1.03514 0.0
H1607 H 0.22797 0.95245 0.13729 0.0
H1608 H 0.18082 0.95938 0.12145 0.0
C1609 C 0.2018 0.95753 0.99168 0.0
C1610 C 0.0908 0.33216 0.10148 0.0
C1611 C 0.09813 0.33001 1.04742 0.0
H1612 H 0.0594 0.3419 0.15637 0.0
C1613 C 0.08214 0.34507 1.00827 0.0
H1614 H 0.10339 0.32216 0.13267 0.0
C1615 C 0.05718 0.35664 1.02192 0.0
C1616 C 0.04809 0.35299 1.07467 0.0
H1617 H 0.0875 0.34443 0.96635 0.0
H1618 H 0.04402 0.36439 0.99011 0.0
C1619 C 0.06581 0.34362 0.11508 0.0
C1620 C 0.22742 0.34179 0.35241 0.0
C1621 C 0.24434 0.33025 0.39283 0.0
H1622 H 0.1876 0.35176 0.33072 0.0
C1623 C 0.23568 0.33049 0.44622 0.0
H1624 H 0.23371 0.34235 0.311 0.0
C1625 C 0.20913 0.33559 0.45757 0.0
C1626 C 0.19126 0.34082 0.41559 0.0
H1627 H 0.24877 0.32282 0.47825 0.0
H1628 H 0.20221 0.33215 0.49824 0.0
C1629 C 0.20089 0.34705 0.36377 0.0
C1630 C 0.04422 0.94409 0.39423 0.0
C1631 C 0.03113 0.97388 0.40783 0.0
H1632 H 0.0807 0.9176 0.39693 0.0
C1633 C 0.04045 0.99294 0.45097 0.0
H1634 H 0.03689 0.92862 0.36175 0.0
C1635 C 0.06597 0.98767 0.46982 0.0
C1636 C 0.08189 0.96282 0.44593 0.0
H1637 H 0.03022 1.01574 0.4626 0.0
H1638 H 0.07405 1.00604 0.49721 0.0
C1639 C 0.06967 0.93851 0.41324 0.0
C1640 C 0.82254 0.13374 0.17241 0.0
C1641 C 0.83227 0.1058 0.2007 0.0
H1642 H 0.79007 0.15281 0.12754 0.0
C1643 C 0.81415 0.08355 0.22465 0.0
H1644 H 0.83586 0.15252 0.15618 0.0
C1645 C 0.7877 0.08457 0.20921 0.0
C1646 C 0.78014 0.10653 0.16803 0.0
H1647 H 0.8208 0.06239 0.24836 0.0
H1648 H 0.77516 0.06341 0.21958 0.0
C1649 C 0.79609 0.1346 0.15745 0.0
C1650 C 0.99089 0.75933 0.19214 0.0
C1651 C 0.99979 0.72739 0.17578 0.0
H1652 H 0.95727 0.78882 0.21295 0.0
C1653 C 0.9841 0.69899 0.18718 0.0
H1654 H 1.00272 0.78174 0.18665 0.0
C1655 C 0.95779 0.70328 0.20126 0.0
C1656 C 0.94762 0.73585 0.20648 0.0
H1657 H 0.991 0.67377 0.17878 0.0
H1658 H 0.94489 0.68152 0.20312 0.0
C1659 C 0.96475 0.76352 0.20735 0.0
C1660 C 0.8119 0.74859 0.70911 0.0
C1661 C 0.83 0.72422 0.72677 0.0
H1662 H 0.77298 0.76796 0.71959 0.0
C1663 C 0.8203 0.69399 0.74843 0.0
H1664 H 0.81859 0.77174 0.69061 0.0
C1665 C 0.79391 0.6917 0.76368 0.0
C1666 C 0.77787 0.7203 0.75981 0.0
H1667 H 0.83369 0.67411 0.76011 0.0
H1668 H 0.78797 0.6709 0.78913 0.0
C1669 C 0.78549 0.74608 0.72457 0.0
C1670 C 0.95645 0.10323 0.72675 0.0
C1671 C 0.9405 0.10361 0.77285 0.0
H1672 H 0.99532 0.09466 0.69662 0.0
C1673 C 0.95244 0.10943 0.82271 0.0
H1674 H 0.948 0.10025 0.68728 0.0
C1675 C 0.97964 0.10586 0.82798 0.0
C1676 C 0.99481 0.09686 0.78315 0.0
H1677 H 0.94056 0.11167 0.85858 0.0
H1678 H 0.98785 0.105 0.86795 0.0
C1679 C 0.98366 0.09991 0.732 0.0
C1680 C 0.2211 0.45013 0.59846 0.0
C1681 C 0.23782 0.4523 0.55375 0.0
H1682 H 0.18151 0.45539 0.62645 0.0
C1683 C 0.22695 0.44839 0.50243 0.0
H1684 H 0.22888 0.4519 0.63871 0.0
C1685 C 0.19978 0.45115 0.49536 0.0
C1686 C 0.18354 0.45737 0.53986 0.0
H1687 H 0.23958 0.44849 0.46743 0.0
H1688 H 0.1923 0.45336 0.45496 0.0
C1689 C 0.19391 0.45256 0.59144 0.0
C1690 C 0.06302 0.82441 0.45987 0.0
C1691 C 0.08202 0.84734 0.47903 0.0
H1692 H 0.02381 0.80576 0.47025 0.0
C1693 C 0.07328 0.87667 0.50504 0.0
H1694 H 0.06872 0.80211 0.43794 0.0
C1695 C 0.04722 0.87881 0.52259 0.0
C1696 C 0.03028 0.85124 0.5155 0.0
H1697 H 0.08711 0.89594 0.51746 0.0
H1698 H 0.04207 0.89852 0.55068 0.0
C1699 C 0.03694 0.82687 0.47729 0.0
C1700 C 0.22668 0.85364 0.86414 0.0
C1701 C 0.2427 0.84081 0.90514 0.0
H1702 H 0.1874 0.86491 0.84034 0.0
C1703 C 0.23349 0.84143 0.9581 0.0
H1704 H 0.23346 0.85428 0.82305 0.0
C1705 C 0.20693 0.84751 0.96808 0.0
C1706 C 0.18967 0.85298 0.92505 0.0
H1707 H 0.24596 0.83305 0.99068 0.0
H1708 H 0.19941 0.84395 1.00828 0.0
C1709 C 0.20013 0.85971 0.87409 0.0
C1710 C 0.07221 0.45483 0.95102 0.0
C1711 C 0.08894 0.45948 0.9068 0.0
H1712 H 0.03221 0.45572 0.97804 0.0
C1713 C 0.07856 0.45481 0.85511 0.0
H1714 H 0.07965 0.45689 0.99149 0.0
C1715 C 0.05133 0.45485 0.84744 0.0
C1716 C 0.03458 0.45912 0.89166 0.0
H1717 H 0.09128 0.45633 0.82033 0.0
H1718 H 0.04388 0.45718 0.80699 0.0
C1719 C 0.04496 0.4542 0.9433 0.0
C1720 C 0.80318 0.6145 0.61729 0.0
C1721 C 0.78699 0.60237 0.65859 0.0
H1722 H 0.84269 0.62417 0.59307 0.0
C1723 C 0.79612 0.60345 0.71151 0.0
H1724 H 0.79636 0.61478 0.57623 0.0
C1725 C 0.82281 0.60849 0.72124 0.0
C1726 C 0.8402 0.61282 0.67804 0.0
H1727 H 0.78347 0.59562 0.74423 0.0
H1728 H 0.83015 0.60515 0.76159 0.0
C1729 C 0.82988 0.61968 0.62701 0.0
C1730 C 0.97075 0.21342 0.66413 0.0
C1731 C 0.99026 0.23718 0.65043 0.0
H1732 H 0.92939 0.20525 0.67789 0.0
C1733 C 0.98411 0.27175 0.6525 0.0
H1734 H 0.97512 0.18674 0.66479 0.0
C1735 C 0.95827 0.28191 0.65898 0.0
C1736 C 0.93844 0.25786 0.66501 0.0
H1737 H 0.99844 0.29113 0.64362 0.0
H1738 H 0.95348 0.30845 0.65635 0.0
C1739 C 0.94476 0.22381 0.67134 0.0
C1740 C 0.78732 0.24492 0.23754 0.0
C1741 C 0.78041 0.21948 0.27391 0.0
H1742 H 0.81905 0.26927 0.19691 0.0
C1743 C 0.79705 0.19159 0.27947 0.0
H1744 H 0.77454 0.26653 0.23243 0.0
C1745 C 0.82281 0.19328 0.26025 0.0
C1746 C 0.83177 0.22256 0.23423 0.0
H1747 H 0.79179 0.17142 0.30672 0.0
H1748 H 0.83635 0.17331 0.27087 0.0
C1749 C 0.81312 0.24675 0.21817 0.0
C1750 C 0.94904 0.60946 0.32285 0.0
C1751 C 0.93884 0.60482 0.27108 0.0
H1752 H 0.98218 0.60228 0.37393 0.0
C1753 C 0.95633 0.60073 0.22802 0.0
H1754 H 0.93616 0.61351 0.35678 0.0
C1755 C 0.98284 0.59436 0.23798 0.0
C1756 C 0.99183 0.59207 0.29096 0.0
H1757 H 0.94908 0.59881 0.18737 0.0
H1758 H 0.9955 0.58713 0.205 0.0
C1759 C 0.97556 0.60317 0.33275 0.0
C1760 C 0.73154 0.97026 0.48827 0.0
C1761 C 0.74183 0.97373 0.54011 0.0
H1762 H 0.69666 0.9698 0.44033 0.0
C1763 C 0.72511 0.9692 0.58435 0.0
H1764 H 0.74428 0.97256 0.45363 0.0
C1765 C 0.69795 0.96775 0.57682 0.0
C1766 C 0.68743 0.97067 0.52505 0.0
H1767 H 0.73255 0.97133 0.62482 0.0
H1768 H 0.68532 0.96833 0.61176 0.0
C1769 C 0.70438 0.96907 0.48072 0.0
C1770 C 0.5323 0.3182 0.46714 0.0
C1771 C 0.52386 0.34365 0.502 0.0
H1772 H 0.56594 0.29621 0.42989 0.0
C1773 C 0.53777 0.37419 0.50279 0.0
H1774 H 0.52137 0.29476 0.46478 0.0
C1775 C 0.56347 0.37524 0.483 0.0
C1776 C 0.57483 0.34577 0.46207 0.0
H1777 H 0.53106 0.39463 0.52805 0.0
H1778 H 0.57549 0.39722 0.49127 0.0
C1779 C 0.55815 0.31887 0.44796 0.0
C1780 C 0.72153 0.366 0.85965 0.0
C1781 C 0.73763 0.35634 0.90268 0.0
H1782 H 0.68217 0.36949 0.83127 0.0
C1783 C 0.72721 0.35687 0.95469 0.0
H1784 H 0.72918 0.36702 0.81922 0.0
C1785 C 0.70002 0.35835 0.96176 0.0
C1786 C 0.68345 0.35916 0.9167 0.0
H1787 H 0.73961 0.35116 0.98881 0.0
H1788 H 0.69204 0.35448 1.00151 0.0
C1789 C 0.69436 0.36723 0.86661 0.0
C1790 C 0.54797 0.94336 0.91801 0.0
C1791 C 0.53346 0.97267 0.90667 0.0
H1792 H 0.5857 0.92362 0.93992 0.0
C1793 C 0.543 1.00394 0.92488 0.0
H1794 H 0.54058 0.91868 0.90726 0.0
C1795 C 0.5685 1.00648 0.94486 0.0
C1796 C 0.58458 0.97789 0.94645 0.0
H1797 H 0.5322 1.02702 0.91833 0.0
H1798 H 0.57658 0.03126 0.95282 0.0
C1799 C 0.57364 0.94604 0.93706 0.0
C1800 C 0.29535 0.12204 0.65046 0.0
C1801 C 0.28034 0.09288 0.65888 0.0
H1802 H 0.33335 0.14442 0.65854 0.0
C1803 C 0.28753 0.07097 0.7003 0.0
H1804 H 0.28968 0.13975 0.61954 0.0
C1805 C 0.31296 0.07274 0.72144 0.0
C1806 C 0.33078 0.09709 0.70189 0.0
H1807 H 0.27579 0.04867 0.70815 0.0
H1808 H 0.31946 0.05225 0.74666 0.0
C1809 C 0.32068 0.12412 0.67183 0.0
C1810 C 0.443 0.72308 0.57945 0.0
C1811 C 0.43388 0.72423 0.63254 0.0
H1812 H 0.47683 0.72236 0.52827 0.0
C1813 C 0.45132 0.71663 0.67445 0.0
H1814 H 0.4297 0.72749 0.54627 0.0
C1815 C 0.47813 0.71343 0.66407 0.0
C1816 C 0.48769 0.71784 0.61177 0.0
H1817 H 0.44489 0.71688 0.71575 0.0
H1818 H 0.49147 0.71112 0.69768 0.0
C1819 C 0.46985 0.72022 0.56912 0.0
C1820 C 0.34058 0.71923 0.34907 0.0
C1821 C 0.34914 0.72131 0.29565 0.0
H1822 H 0.30738 0.7158 0.40171 0.0
C1823 C 0.33144 0.71348 0.25426 0.0
H1824 H 0.35409 0.72388 0.38182 0.0
C1825 C 0.30485 0.70843 0.26577 0.0
C1826 C 0.29577 0.71134 0.31869 0.0
H1827 H 0.33749 0.71452 0.21274 0.0
H1828 H 0.29115 0.70555 0.23285 0.0
C1829 C 0.31397 0.71461 0.3605 0.0
C1830 C 0.4778 0.10533 0.23883 0.0
C1831 C 0.48871 0.10244 0.29034 0.0
H1832 H 0.44303 0.0996 0.19193 0.0
C1833 C 0.47209 0.1068 0.33481 0.0
H1834 H 0.49034 0.10405 0.20376 0.0
C1835 C 0.44484 0.10498 0.32806 0.0
C1836 C 0.43431 0.09819 0.27712 0.0
H1837 H 0.47985 0.10627 0.37515 0.0
H1838 H 0.43247 0.10383 0.36337 0.0
C1839 C 0.45057 0.10287 0.2321 0.0
C1840 C 0.69229 0.46245 0.09995 0.0
C1841 C 0.68175 0.46555 1.0481 0.0
H1842 H 0.72724 0.46558 0.14718 0.0
C1843 C 0.69826 0.45901 1.00409 0.0
H1844 H 0.67979 0.46518 0.13483 0.0
C1845 C 0.72551 0.45816 1.01136 0.0
C1846 C 0.73618 0.46444 1.0623 0.0
H1847 H 0.69077 0.45954 0.96356 0.0
H1848 H 0.73813 0.45813 0.97635 0.0
C1849 C 0.71956 0.46217 0.10711 0.0
C1850 C 0.57464 0.84726 0.9589 0.0
C1851 C 0.59014 0.85726 1.00276 0.0
H1852 H 0.53762 0.82621 0.93542 0.0
C1853 C 0.57735 0.86856 1.04924 0.0
H1854 H 0.5836 0.84014 0.92126 0.0
C1855 C 0.55106 0.85984 1.05779 0.0
C1856 C 0.53767 0.84072 1.019 0.0
H1857 H 0.58873 0.87827 1.08255 0.0
H1858 H 0.543 0.86328 0.09751 0.0
C1859 C 0.54827 0.83888 0.96716 0.0
C1860 C 0.71903 0.83738 0.47748 0.0
C1861 C 0.69994 0.85886 0.45499 0.0
H1862 H 0.75863 0.81975 0.47075 0.0
C1863 C 0.70856 0.88782 0.42767 0.0
H1864 H 0.71343 0.81558 0.50087 0.0
C1865 C 0.73482 0.8903 0.41149 0.0
C1866 C 0.75181 0.86309 0.42068 0.0
H1867 H 0.69457 0.90612 0.41273 0.0
H1868 H 0.73999 0.90923 0.38201 0.0
C1869 C 0.7453 0.84023 0.46136 0.0
C1870 C 0.55982 0.44311 0.3738 0.0
C1871 C 0.53791 0.46032 0.39485 0.0
H1872 H 0.60196 0.44119 0.36962 0.0
C1873 C 0.54136 0.48199 0.43868 0.0
H1874 H 0.55788 0.42605 0.34029 0.0
C1875 C 0.56673 0.49016 0.45572 0.0
C1876 C 0.58851 0.47676 0.42874 0.0
H1877 H 0.52467 0.49489 0.45629 0.0
H1878 H 0.5694 0.50961 0.48564 0.0
C1879 C 0.58507 0.45166 0.39034 0.0
C1880 C 0.31219 0.56954 0.23977 0.0
C1881 C 0.3293 0.59335 0.21628 0.0
H1882 H 0.2753 0.54394 0.23179 0.0
C1883 C 0.31816 0.61889 0.18434 0.0
H1884 H 0.3193 0.55059 0.26722 0.0
C1885 C 0.29253 0.61509 0.16486 0.0
C1886 C 0.2782 0.58598 0.1775 0.0
H1887 H 0.33005 0.63926 0.16861 0.0
H1888 H 0.286 0.63131 0.1326 0.0
C1889 C 0.28652 0.56612 0.22058 0.0
C1890 C 0.44771 0.20103 1.08262 0.0
C1891 C 0.43658 0.20403 0.13389 0.0
H1892 H 0.48332 0.20255 1.03755 0.0
C1893 C 0.45211 0.19566 0.1786 0.0
H1894 H 0.43585 0.20512 1.04716 0.0
C1895 C 0.47939 0.19331 0.17295 0.0
C1896 C 0.49099 0.19997 0.12299 0.0
H1897 H 0.44404 0.19597 0.21868 0.0
H1898 H 0.49145 0.19206 0.20869 0.0
C1899 C 0.47499 0.19905 1.07708 0.0
C1900 C 0.32594 0.19132 0.78701 0.0
C1901 C 0.33646 0.20073 0.73712 0.0
H1902 H 0.29327 0.19561 0.84013 0.0
C1903 C 0.31934 0.21159 0.69652 0.0
H1904 H 0.33845 0.18205 0.81884 0.0
C1905 C 0.29327 0.21913 0.70876 0.0
C1906 C 0.28431 0.21604 0.76168 0.0
H1907 H 0.32669 0.21733 0.65684 0.0
H1908 H 0.28106 0.23092 0.67852 0.0
C1909 C 0.29989 0.19897 0.79926 0.0
C1910 C 0.47382 0.60445 0.75974 0.0
C1911 C 0.4851 0.59968 0.81048 0.0
H1912 H 0.43954 0.59721 0.71205 0.0
C1913 C 0.46847 0.59852 0.85544 0.0
H1914 H 0.48631 0.60691 0.72472 0.0
C1915 C 0.44153 0.59318 0.84838 0.0
C1916 C 0.43137 0.58893 0.79651 0.0
H1917 H 0.4765 0.59614 0.89541 0.0
H1918 H 0.42951 0.58778 0.8832 0.0
C1919 C 0.44694 0.59875 0.75257 0.0
loop_
_geom_bond_atom_site_label_1
_geom_bond_atom_site_label_2
_geom_bond_distance
_geom_bond_site_symmetry_2
_ccdc_geom_bond_type
Co0 N5 2.055 1_545 S
Co0 O17 2.021 . S
Co0 O20 2.062 . S
Co0 O24 2.117 1_545 S
Co0 O25 2.020 . S
C1 O21 1.259 . S
C1 O24 1.258 . S
Co2 N11 2.057 1_565 S
Co2 O18 2.117 1_565 S
Co2 O19 2.020 . S
Co2 O21 2.021 . S
Co2 O26 2.044 1_564 S
C3 N5 1.308 1_545 S
C3 N6 1.347 . S
C3 H8 0.931 . S
C4 N5 1.386 . S
C4 C7 1.350 . S
C4 H9 0.930 . S
N5 Co0 2.055 1_565 S
N5 C3 1.308 1_565 S
N5 C4 1.386 . S
N6 C3 1.347 . S
N6 C7 1.373 1_545 S
C7 C4 1.350 . S
C7 N6 1.373 1_565 S
C7 H28 0.931 . S
H8 C3 0.931 . S
H9 C4 0.930 . S
C10 O17 1.259 . S
C10 O18 1.258 . S
N11 Co2 2.057 1_545 S
N11 C12 1.316 1_544 S
N11 C13 1.375 . S
C12 N11 1.316 1_566 S
C12 N14 1.363 . S
C12 H23 0.931 . S
C13 N11 1.375 . S
C13 C15 1.350 1_554 S
C13 H22 0.930 . S
N14 C12 1.363 . S
N14 C15 1.338 1_565 S
C15 C13 1.350 1_556 S
C15 N14 1.338 1_545 S
C15 H29 0.931 . S
C16 O19 1.256 . S
C16 O20 1.255 1_565 S
O17 Co0 2.021 . S
O17 C10 1.259 . S
O18 Co2 2.117 1_545 S
O18 C10 1.258 . S
O19 Co2 2.020 . S
O19 C16 1.256 . S
O20 Co0 2.062 . S
O20 C16 1.255 1_545 S
O21 C1 1.259 . S
O21 Co2 2.021 . S
H22 C13 0.930 . S
H23 C12 0.931 . S
O24 Co0 2.117 1_565 S
O24 C1 1.258 . S
O25 Co0 2.020 . S
O25 C27 1.256 1_554 S
O26 Co2 2.044 1_546 S
O26 C27 1.256 . S
C27 O25 1.256 1_556 S
C27 O26 1.256 . S
H28 C7 0.931 . S
H29 C15 0.931 . S
Co30 N35 2.057 . S
Co30 O47 2.021 . S
Co30 O50 2.062 . S
Co30 O54 2.117 . S
Co30 O55 2.020 . S
C31 O51 1.259 . S
C31 O54 1.258 . S
Co32 N41 2.057 . S
Co32 O48 2.117 . S
Co32 O49 2.020 . S
Co32 O51 2.021 . S
Co32 O56 2.044 1_554 S
C33 N35 1.316 . S
C33 N36 1.347 . S
C33 H38 0.931 . S
C34 N35 1.375 . S
C34 C37 1.350 . S
C34 H39 0.930 . S
N35 Co30 2.057 . S
N35 C33 1.316 . S
N35 C34 1.375 . S
N36 C33 1.347 . S
N36 C37 1.373 . S
C37 C34 1.350 . S
C37 N36 1.373 . S
C37 H58 0.931 . S
H38 C33 0.931 . S
H39 C34 0.930 . S
C40 O47 1.259 . S
C40 O48 1.258 . S
N41 Co32 2.057 . S
N41 C42 1.316 1_554 S
N41 C43 1.375 . S
C42 N41 1.316 1_556 S
C42 N44 1.347 1_655 S
C42 H53 0.931 . S
C43 N41 1.375 . S
C43 C45 1.350 1_654 S
C43 H52 0.930 . S
N44 C42 1.347 1_455 S
N44 C45 1.373 . S
C45 C43 1.350 1_456 S
C45 N44 1.373 . S
C45 H59 0.931 . S
C46 O49 1.256 . S
C46 O50 1.255 . S
O47 Co30 2.021 . S
O47 C40 1.259 . S
O48 Co32 2.117 . S
O48 C40 1.258 . S
O49 Co32 2.020 . S
O49 C46 1.256 . S
O50 Co30 2.062 . S
O50 C46 1.255 . S
O51 C31 1.259 . S
O51 Co32 2.021 . S
H52 C43 0.930 . S
H53 C42 0.931 . S
O54 Co30 2.117 . S
O54 C31 1.258 . S
O55 Co30 2.020 . S
O55 C57 1.256 1_554 S
O56 Co32 2.044 1_556 S
O56 C57 1.256 . S
C57 O55 1.256 1_556 S
C57 O56 1.256 . S
H58 C37 0.931 . S
H59 C45 0.931 . S
Co60 N65 2.057 . S
Co60 O77 2.021 . S
Co60 O80 2.062 . S
Co60 O84 2.117 . S
Co60 O85 2.020 . S
C61 O81 1.259 . S
C61 O84 1.258 . S
Co62 N71 2.057 . S
Co62 O78 2.117 . S
Co62 O79 2.020 . S
Co62 O81 2.021 . S
Co62 O86 2.062 . S
C63 N65 1.316 . S
C63 N66 1.347 . S
C63 H68 0.931 . S
C64 N65 1.375 . S
C64 C67 1.350 . S
C64 H69 0.930 . S
N65 Co60 2.057 . S
N65 C63 1.316 . S
N65 C64 1.375 . S
N66 C63 1.347 . S
N66 C67 1.373 . S
C67 C64 1.350 . S
C67 N66 1.373 . S
C67 H88 0.931 . S
H68 C63 0.931 . S
H69 C64 0.930 . S
C70 O77 1.259 . S
C70 O78 1.258 . S
N71 Co62 2.057 . S
N71 C72 1.316 . S
N71 C73 1.375 . S
C72 N71 1.316 . S
C72 N74 1.347 . S
C72 H83 0.931 . S
C73 N71 1.375 . S
C73 C75 1.350 . S
C73 H82 0.930 . S
N74 C72 1.347 . S
N74 C75 1.373 . S
C75 C73 1.350 . S
C75 N74 1.373 . S
C75 H89 0.931 . S
C76 O79 1.256 . S
C76 O80 1.255 . S
O77 Co60 2.021 . S
O77 C70 1.259 . S
O78 Co62 2.117 . S
O78 C70 1.258 . S
O79 Co62 2.020 . S
O79 C76 1.256 . S
O80 Co60 2.062 . S
O80 C76 1.255 . S
O81 C61 1.259 . S
O81 Co62 2.021 . S
H82 C73 0.930 . S
H83 C72 0.931 . S
O84 Co60 2.117 . S
O84 C61 1.258 . S
O85 Co60 2.020 . S
O85 C87 1.256 . S
O86 Co62 2.062 . S
O86 C87 1.255 . S
C87 O85 1.256 . S
C87 O86 1.255 . S
H88 C67 0.931 . S
H89 C75 0.931 . S
Co90 N95 2.055 1_545 S
Co90 O107 2.021 . S
Co90 O110 2.062 . S
Co90 O114 2.117 1_545 S
Co90 O115 2.020 . S
C91 O111 1.259 . S
C91 O114 1.258 . S
Co92 N101 2.057 1_565 S
Co92 O108 2.117 1_565 S
Co92 O109 2.020 . S
Co92 O111 2.021 . S
Co92 O116 2.062 1_565 S
C93 N95 1.308 1_545 S
C93 N96 1.347 . S
C93 H98 0.931 . S
C94 N95 1.385 . S
C94 C97 1.350 . S
C94 H99 0.930 . S
N95 Co90 2.055 1_565 S
N95 C93 1.308 1_565 S
N95 C94 1.385 . S
N96 C93 1.347 . S
N96 C97 1.373 1_545 S
C97 C94 1.350 . S
C97 N96 1.373 1_565 S
C97 H118 0.931 . S
H98 C93 0.931 . S
H99 C94 0.930 . S
C100 O107 1.259 . S
C100 O108 1.258 . S
N101 Co92 2.057 1_545 S
N101 C102 1.316 1_545 S
N101 C103 1.375 . S
C102 N101 1.316 1_565 S
C102 N104 1.363 1_655 S
C102 H113 0.931 . S
C103 N101 1.375 . S
C103 C105 1.350 1_655 S
C103 H112 0.930 . S
N104 C102 1.363 1_455 S
N104 C105 1.338 1_565 S
C105 C103 1.350 1_455 S
C105 N104 1.338 1_545 S
C105 H119 0.931 . S
C106 O109 1.256 . S
C106 O110 1.255 1_565 S
O107 Co90 2.021 . S
O107 C100 1.259 . S
O108 Co92 2.117 1_545 S
O108 C100 1.258 . S
O109 Co92 2.020 . S
O109 C106 1.256 . S
O110 Co90 2.062 . S
O110 C106 1.255 1_545 S
O111 C91 1.259 . S
O111 Co92 2.021 . S
H112 C103 0.930 . S
H113 C102 0.931 . S
O114 Co90 2.117 1_565 S
O114 C91 1.258 . S
O115 Co90 2.020 . S
O115 C117 1.256 . S
O116 Co92 2.062 1_545 S
O116 C117 1.255 . S
C117 O115 1.256 . S
C117 O116 1.255 . S
H118 C97 0.931 . S
H119 C105 0.931 . S
Co120 N125 2.057 1_545 S
Co120 O137 2.021 . S
Co120 O140 2.044 1_546 S
Co120 O144 2.117 1_545 S
Co120 O145 2.020 . S
C121 O141 1.259 . S
C121 O144 1.258 . S
Co122 N131 2.055 1_565 S
Co122 O138 2.117 1_565 S
Co122 O139 2.020 . S
Co122 O141 2.021 . S
Co122 O146 2.062 . S
C123 N125 1.316 1_544 S
C123 N126 1.363 . S
C123 H128 0.931 . S
C124 N125 1.375 . S
C124 C127 1.350 1_556 S
C124 H129 0.930 . S
N125 Co120 2.057 1_565 S
N125 C123 1.316 1_566 S
N125 C124 1.375 . S
N126 C123 1.363 . S
N126 C127 1.338 1_545 S
C127 C124 1.350 1_554 S
C127 N126 1.338 1_565 S
C127 H148 0.931 . S
H128 C123 0.931 . S
H129 C124 0.930 . S
C130 O137 1.259 . S
C130 O138 1.258 . S
N131 Co122 2.055 1_545 S
N131 C132 1.308 1_545 S
N131 C133 1.386 . S
C132 N131 1.308 1_565 S
C132 N134 1.347 . S
C132 H143 0.931 . S
C133 N131 1.386 . S
C133 C135 1.350 . S
C133 H142 0.930 . S
N134 C132 1.347 . S
N134 C135 1.373 1_565 S
C135 C133 1.350 . S
C135 N134 1.373 1_545 S
C135 H149 0.931 . S
C136 O139 1.256 1_554 S
C136 O140 1.256 . S
O137 Co120 2.021 . S
O137 C130 1.259 . S
O138 Co122 2.117 1_545 S
O138 C130 1.258 . S
O139 Co122 2.020 . S
O139 C136 1.256 1_556 S
O140 Co120 2.044 1_564 S
O140 C136 1.256 . S
O141 C121 1.259 . S
O141 Co122 2.021 . S
H142 C133 0.930 . S
H143 C132 0.931 . S
O144 Co120 2.117 1_565 S
O144 C121 1.258 . S
O145 Co120 2.020 . S
O145 C147 1.256 . S
O146 Co122 2.062 . S
O146 C147 1.255 1_565 S
C147 O145 1.256 . S
C147 O146 1.255 1_545 S
H148 C127 0.931 . S
H149 C135 0.931 . S
Co150 N155 2.057 . S
Co150 O167 2.021 . S
Co150 O170 2.044 1_556 S
Co150 O174 2.117 . S
Co150 O175 2.020 . S
C151 O171 1.259 . S
C151 O174 1.258 . S
Co152 N161 2.057 . S
Co152 O168 2.117 . S
Co152 O169 2.020 . S
Co152 O171 2.021 . S
Co152 O176 2.062 . S
C153 N155 1.316 1_554 S
C153 N156 1.347 1_455 S
C153 H158 0.931 . S
C154 N155 1.375 . S
C154 C157 1.350 1_456 S
C154 H159 0.930 . S
N155 Co150 2.057 . S
N155 C153 1.316 1_556 S
N155 C154 1.375 . S
N156 C153 1.347 1_655 S
N156 C157 1.373 . S
C157 C154 1.350 1_654 S
C157 N156 1.373 . S
C157 H178 0.931 . S
H158 C153 0.931 . S
H159 C154 0.930 . S
C160 O167 1.259 . S
C160 O168 1.258 . S
N161 Co152 2.057 . S
N161 C162 1.316 . S
N161 C163 1.375 . S
C162 N161 1.316 . S
C162 N164 1.347 . S
C162 H173 0.931 . S
C163 N161 1.375 . S
C163 C165 1.350 . S
C163 H172 0.930 . S
N164 C162 1.347 . S
N164 C165 1.373 . S
C165 C163 1.350 . S
C165 N164 1.373 . S
C165 H179 0.931 . S
C166 O169 1.256 1_554 S
C166 O170 1.256 . S
O167 Co150 2.021 . S
O167 C160 1.259 . S
O168 Co152 2.117 . S
O168 C160 1.258 . S
O169 Co152 2.020 . S
O169 C166 1.256 1_556 S
O170 Co150 2.044 1_554 S
O170 C166 1.256 . S
O171 C151 1.259 . S
O171 Co152 2.021 . S
H172 C163 0.930 . S
H173 C162 0.931 . S
O174 Co150 2.117 . S
O174 C151 1.258 . S
O175 Co150 2.020 . S
O175 C177 1.256 . S
O176 Co152 2.062 . S
O176 C177 1.255 . S
C177 O175 1.256 . S
C177 O176 1.255 . S
H178 C157 0.931 . S
H179 C165 0.931 . S
Co180 N185 2.057 . S
Co180 O197 2.021 . S
Co180 O200 2.062 . S
Co180 O204 2.117 . S
Co180 O205 2.020 . S
C181 O201 1.259 . S
C181 O204 1.258 . S
Co182 N191 2.057 . S
Co182 O198 2.117 . S
Co182 O199 2.020 . S
Co182 O201 2.021 . S
Co182 O206 2.062 . S
C183 N185 1.316 . S
C183 N186 1.347 . S
C183 H188 0.931 . S
C184 N185 1.375 . S
C184 C187 1.350 . S
C184 H189 0.930 . S
N185 Co180 2.057 . S
N185 C183 1.316 . S
N185 C184 1.375 . S
N186 C183 1.347 . S
N186 C187 1.373 . S
C187 C184 1.350 . S
C187 N186 1.373 . S
C187 H208 0.931 . S
H188 C183 0.931 . S
H189 C184 0.930 . S
C190 O197 1.259 . S
C190 O198 1.258 . S
N191 Co182 2.057 . S
N191 C192 1.316 . S
N191 C193 1.375 . S
C192 N191 1.316 . S
C192 N194 1.347 . S
C192 H203 0.931 . S
C193 N191 1.375 . S
C193 C195 1.350 . S
C193 H202 0.930 . S
N194 C192 1.347 . S
N194 C195 1.373 . S
C195 C193 1.350 . S
C195 N194 1.373 . S
C195 H209 0.931 . S
C196 O199 1.256 . S
C196 O200 1.255 . S
O197 Co180 2.021 . S
O197 C190 1.259 . S
O198 Co182 2.117 . S
O198 C190 1.258 . S
O199 Co182 2.020 . S
O199 C196 1.256 . S
O200 Co180 2.062 . S
O200 C196 1.255 . S
O201 C181 1.259 . S
O201 Co182 2.021 . S
H202 C193 0.930 . S
H203 C192 0.931 . S
O204 Co180 2.117 . S
O204 C181 1.258 . S
O205 Co180 2.020 . S
O205 C207 1.256 . S
O206 Co182 2.062 . S
O206 C207 1.255 . S
C207 O205 1.256 . S
C207 O206 1.255 . S
H208 C187 0.931 . S
H209 C195 0.931 . S
Co210 N215 2.057 1_545 S
Co210 O227 2.021 . S
Co210 O230 2.062 1_545 S
Co210 O234 2.117 1_545 S
Co210 O235 2.020 . S
C211 O231 1.259 . S
C211 O234 1.258 . S
Co212 N221 2.055 1_565 S
Co212 O228 2.117 1_565 S
Co212 O229 2.020 . S
Co212 O231 2.021 . S
Co212 O236 2.062 . S
C213 N215 1.316 1_545 S
C213 N216 1.363 1_455 S
C213 H218 0.931 . S
C214 N215 1.375 . S
C214 C217 1.350 1_455 S
C214 H219 0.930 . S
N215 Co210 2.057 1_565 S
N215 C213 1.316 1_565 S
N215 C214 1.375 . S
N216 C213 1.363 1_655 S
N216 C217 1.338 1_545 S
C217 C214 1.350 1_655 S
C217 N216 1.338 1_565 S
C217 H238 0.931 . S
H218 C213 0.931 . S
H219 C214 0.930 . S
C220 O227 1.259 . S
C220 O228 1.258 . S
N221 Co212 2.055 1_545 S
N221 C222 1.308 1_545 S
N221 C223 1.385 . S
C222 N221 1.308 1_565 S
C222 N224 1.347 . S
C222 H233 0.931 . S
C223 N221 1.385 . S
C223 C225 1.350 . S
C223 H232 0.930 . S
N224 C222 1.347 . S
N224 C225 1.373 1_565 S
C225 C223 1.350 . S
C225 N224 1.373 1_545 S
C225 H239 0.931 . S
C226 O229 1.256 . S
C226 O230 1.255 . S
O227 Co210 2.021 . S
O227 C220 1.259 . S
O228 Co212 2.117 1_545 S
O228 C220 1.258 . S
O229 Co212 2.020 . S
O229 C226 1.256 . S
O230 Co210 2.062 1_565 S
O230 C226 1.255 . S
O231 C211 1.259 . S
O231 Co212 2.021 . S
H232 C223 0.930 . S
H233 C222 0.931 . S
O234 Co210 2.117 1_565 S
O234 C211 1.258 . S
O235 Co210 2.020 . S
O235 C237 1.256 . S
O236 Co212 2.062 . S
O236 C237 1.255 1_565 S
C237 O235 1.256 . S
C237 O236 1.255 1_545 S
H238 C217 0.931 . S
H239 C225 0.931 . S
Co240 N245 2.057 . S
Co240 O257 2.021 . S
Co240 O260 2.062 . S
Co240 O264 2.117 . S
Co240 O265 2.020 . S
C241 O261 1.259 . S
C241 O264 1.258 . S
Co242 N251 2.057 . S
Co242 O258 2.117 . S
Co242 O259 2.020 . S
Co242 O261 2.021 . S
Co242 O266 2.062 . S
C243 N245 1.316 . S
C243 N246 1.347 . S
C243 H248 0.931 . S
C244 N245 1.375 . S
C244 C247 1.350 . S
C244 H249 0.930 . S
N245 Co240 2.057 . S
N245 C243 1.316 . S
N245 C244 1.375 . S
N246 C243 1.347 . S
N246 C247 1.373 . S
C247 C244 1.350 . S
C247 N246 1.373 . S
C247 H268 0.931 . S
H248 C243 0.931 . S
H249 C244 0.930 . S
C250 O257 1.259 . S
C250 O258 1.258 . S
N251 Co242 2.057 . S
N251 C252 1.316 . S
N251 C253 1.375 . S
C252 N251 1.316 . S
C252 N254 1.347 . S
C252 H263 0.931 . S
C253 N251 1.375 . S
C253 C255 1.350 . S
C253 H262 0.930 . S
N254 C252 1.347 . S
N254 C255 1.373 . S
C255 C253 1.350 . S
C255 N254 1.373 . S
C255 H269 0.931 . S
C256 O259 1.256 . S
C256 O260 1.255 . S
O257 Co240 2.021 . S
O257 C250 1.259 . S
O258 Co242 2.117 . S
O258 C250 1.258 . S
O259 Co242 2.020 . S
O259 C256 1.256 . S
O260 Co240 2.062 . S
O260 C256 1.255 . S
O261 C241 1.259 . S
O261 Co242 2.021 . S
H262 C253 0.930 . S
H263 C252 0.931 . S
O264 Co240 2.117 . S
O264 C241 1.258 . S
O265 Co240 2.020 . S
O265 C267 1.256 . S
O266 Co242 2.062 . S
O266 C267 1.255 . S
C267 O265 1.256 . S
C267 O266 1.255 . S
H268 C247 0.931 . S
H269 C255 0.931 . S
Co270 N275 2.057 . S
Co270 O287 2.021 . S
Co270 O290 2.062 . S
Co270 O294 2.117 . S
Co270 O295 2.020 . S
C271 O291 1.259 . S
C271 O294 1.258 . S
Co272 N281 2.057 . S
Co272 O288 2.117 . S
Co272 O289 2.020 . S
Co272 O291 2.021 . S
Co272 O296 2.062 . S
C273 N275 1.316 . S
C273 N276 1.347 . S
C273 H278 0.931 . S
C274 N275 1.375 . S
C274 C277 1.350 . S
C274 H279 0.930 . S
N275 Co270 2.057 . S
N275 C273 1.316 . S
N275 C274 1.375 . S
N276 C273 1.347 . S
N276 C277 1.373 . S
C277 C274 1.350 . S
C277 N276 1.373 . S
C277 H298 0.931 . S
H278 C273 0.931 . S
H279 C274 0.930 . S
C280 O287 1.259 . S
C280 O288 1.258 . S
N281 Co272 2.057 . S
N281 C282 1.316 . S
N281 C283 1.375 . S
C282 N281 1.316 . S
C282 N284 1.347 1_655 S
C282 H293 0.931 . S
C283 N281 1.375 . S
C283 C285 1.350 1_655 S
C283 H292 0.930 . S
N284 C282 1.347 1_455 S
N284 C285 1.373 . S
C285 C283 1.350 1_455 S
C285 N284 1.373 . S
C285 H299 0.931 . S
C286 O289 1.256 . S
C286 O290 1.255 . S
O287 Co270 2.021 . S
O287 C280 1.259 . S
O288 Co272 2.117 . S
O288 C280 1.258 . S
O289 Co272 2.020 . S
O289 C286 1.256 . S
O290 Co270 2.062 . S
O290 C286 1.255 . S
O291 C271 1.259 . S
O291 Co272 2.021 . S
H292 C283 0.930 . S
H293 C282 0.931 . S
O294 Co270 2.117 . S
O294 C271 1.258 . S
O295 Co270 2.020 . S
O295 C297 1.256 . S
O296 Co272 2.062 . S
O296 C297 1.255 . S
C297 O295 1.256 . S
C297 O296 1.255 . S
H298 C277 0.931 . S
H299 C285 0.931 . S
Co300 N305 2.057 . S
Co300 O317 2.021 . S
Co300 O320 2.062 . S
Co300 O324 2.117 . S
Co300 O325 2.020 . S
C301 O321 1.259 . S
C301 O324 1.258 . S
Co302 N311 2.057 . S
Co302 O318 2.117 . S
Co302 O319 2.020 . S
Co302 O321 2.021 . S
Co302 O326 2.062 . S
C303 N305 1.316 . S
C303 N306 1.347 . S
C303 H308 0.931 . S
C304 N305 1.375 . S
C304 C307 1.350 . S
C304 H309 0.930 . S
N305 Co300 2.057 . S
N305 C303 1.316 . S
N305 C304 1.375 . S
N306 C303 1.347 . S
N306 C307 1.373 . S
C307 C304 1.350 . S
C307 N306 1.373 . S
C307 H328 0.931 . S
H308 C303 0.931 . S
H309 C304 0.930 . S
C310 O317 1.259 . S
C310 O318 1.258 . S
N311 Co302 2.057 . S
N311 C312 1.316 . S
N311 C313 1.375 . S
C312 N311 1.316 . S
C312 N314 1.347 . S
C312 H323 0.931 . S
C313 N311 1.375 . S
C313 C315 1.350 . S
C313 H322 0.930 . S
N314 C312 1.347 . S
N314 C315 1.373 . S
C315 C313 1.350 . S
C315 N314 1.373 . S
C315 H329 0.931 . S
C316 O319 1.256 . S
C316 O320 1.255 . S
O317 Co300 2.021 . S
O317 C310 1.259 . S
O318 Co302 2.117 . S
O318 C310 1.258 . S
O319 Co302 2.020 . S
O319 C316 1.256 . S
O320 Co300 2.062 . S
O320 C316 1.255 . S
O321 C301 1.259 . S
O321 Co302 2.021 . S
H322 C313 0.930 . S
H323 C312 0.931 . S
O324 Co300 2.117 . S
O324 C301 1.258 . S
O325 Co300 2.020 . S
O325 C327 1.256 . S
O326 Co302 2.062 . S
O326 C327 1.255 . S
C327 O325 1.256 . S
C327 O326 1.255 . S
H328 C307 0.931 . S
H329 C315 0.931 . S
Co330 N335 2.057 . S
Co330 O347 2.021 . S
Co330 O350 2.062 . S
Co330 O354 2.117 . S
Co330 O355 2.020 . S
C331 O351 1.259 . S
C331 O354 1.258 . S
Co332 N341 2.057 . S
Co332 O348 2.117 . S
Co332 O349 2.020 . S
Co332 O351 2.021 . S
Co332 O356 2.062 . S
C333 N335 1.316 . S
C333 N336 1.347 . S
C333 H338 0.931 . S
C334 N335 1.375 . S
C334 C337 1.350 . S
C334 H339 0.930 . S
N335 Co330 2.057 . S
N335 C333 1.316 . S
N335 C334 1.375 . S
N336 C333 1.347 . S
N336 C337 1.373 . S
C337 C334 1.350 . S
C337 N336 1.373 . S
C337 H358 0.931 . S
H338 C333 0.931 . S
H339 C334 0.930 . S
C340 O347 1.259 . S
C340 O348 1.258 . S
N341 Co332 2.057 . S
N341 C342 1.316 . S
N341 C343 1.375 . S
C342 N341 1.316 . S
C342 N344 1.347 1_655 S
C342 H353 0.931 . S
C343 N341 1.375 . S
C343 C345 1.350 1_655 S
C343 H352 0.930 . S
N344 C342 1.347 1_455 S
N344 C345 1.373 . S
C345 C343 1.350 1_455 S
C345 N344 1.373 . S
C345 H359 0.931 . S
C346 O349 1.256 . S
C346 O350 1.255 . S
O347 Co330 2.021 . S
O347 C340 1.259 . S
O348 Co332 2.117 . S
O348 C340 1.258 . S
O349 Co332 2.020 . S
O349 C346 1.256 . S
O350 Co330 2.062 . S
O350 C346 1.255 . S
O351 C331 1.259 . S
O351 Co332 2.021 . S
H352 C343 0.930 . S
H353 C342 0.931 . S
O354 Co330 2.117 . S
O354 C331 1.258 . S
O355 Co330 2.020 . S
O355 C357 1.256 . S
O356 Co332 2.062 . S
O356 C357 1.255 . S
C357 O355 1.256 . S
C357 O356 1.255 . S
H358 C337 0.931 . S
H359 C345 0.931 . S
Co360 N365 2.057 . S
Co360 O377 2.021 . S
Co360 O380 2.062 . S
Co360 O384 2.117 . S
Co360 O385 2.020 . S
C361 O381 1.259 . S
C361 O384 1.258 . S
Co362 N371 2.057 . S
Co362 O378 2.117 . S
Co362 O379 2.020 . S
Co362 O381 2.021 . S
Co362 O386 2.062 . S
C363 N365 1.316 . S
C363 N366 1.347 . S
C363 H368 0.931 . S
C364 N365 1.375 . S
C364 C367 1.350 . S
C364 H369 0.930 . S
N365 Co360 2.057 . S
N365 C363 1.316 . S
N365 C364 1.375 . S
N366 C363 1.347 . S
N366 C367 1.373 . S
C367 C364 1.350 . S
C367 N366 1.373 . S
C367 H388 0.931 . S
H368 C363 0.931 . S
H369 C364 0.930 . S
C370 O377 1.259 . S
C370 O378 1.258 . S
N371 Co362 2.057 . S
N371 C372 1.316 . S
N371 C373 1.375 . S
C372 N371 1.316 . S
C372 N374 1.347 . S
C372 H383 0.931 . S
C373 N371 1.375 . S
C373 C375 1.350 . S
C373 H382 0.930 . S
N374 C372 1.347 . S
N374 C375 1.373 . S
C375 C373 1.350 . S
C375 N374 1.373 . S
C375 H389 0.931 . S
C376 O379 1.256 . S
C376 O380 1.255 . S
O377 Co360 2.021 . S
O377 C370 1.259 . S
O378 Co362 2.117 . S
O378 C370 1.258 . S
O379 Co362 2.020 . S
O379 C376 1.256 . S
O380 Co360 2.062 . S
O380 C376 1.255 . S
O381 C361 1.259 . S
O381 Co362 2.021 . S
H382 C373 0.930 . S
H383 C372 0.931 . S
O384 Co360 2.117 . S
O384 C361 1.258 . S
O385 Co360 2.020 . S
O385 C387 1.256 . S
O386 Co362 2.062 . S
O386 C387 1.255 . S
C387 O385 1.256 . S
C387 O386 1.255 . S
H388 C367 0.931 . S
H389 C375 0.931 . S
Co390 N395 2.057 . S
Co390 O407 2.021 . S
Co390 O410 2.062 . S
Co390 O414 2.117 . S
Co390 O415 2.020 . S
C391 O411 1.259 . S
C391 O414 1.258 . S
Co392 N401 2.057 . S
Co392 O408 2.117 . S
Co392 O409 2.020 . S
Co392 O411 2.021 . S
Co392 O416 2.062 . S
C393 N395 1.316 . S
C393 N396 1.347 1_455 S
C393 H398 0.931 . S
C394 N395 1.375 . S
C394 C397 1.350 1_455 S
C394 H399 0.930 . S
N395 Co390 2.057 . S
N395 C393 1.316 . S
N395 C394 1.375 . S
N396 C393 1.347 1_655 S
N396 C397 1.373 . S
C397 C394 1.350 1_655 S
C397 N396 1.373 . S
C397 H418 0.931 . S
H398 C393 0.931 . S
H399 C394 0.930 . S
C400 O407 1.259 . S
C400 O408 1.258 . S
N401 Co392 2.057 . S
N401 C402 1.316 . S
N401 C403 1.375 . S
C402 N401 1.316 . S
C402 N404 1.347 . S
C402 H413 0.931 . S
C403 N401 1.375 . S
C403 C405 1.350 . S
C403 H412 0.930 . S
N404 C402 1.347 . S
N404 C405 1.373 . S
C405 C403 1.350 . S
C405 N404 1.373 . S
C405 H419 0.931 . S
C406 O409 1.256 . S
C406 O410 1.255 . S
O407 Co390 2.021 . S
O407 C400 1.259 . S
O408 Co392 2.117 . S
O408 C400 1.258 . S
O409 Co392 2.020 . S
O409 C406 1.256 . S
O410 Co390 2.062 . S
O410 C406 1.255 . S
O411 C391 1.259 . S
O411 Co392 2.021 . S
H412 C403 0.930 . S
H413 C402 0.931 . S
O414 Co390 2.117 . S
O414 C391 1.258 . S
O415 Co390 2.020 . S
O415 C417 1.256 . S
O416 Co392 2.062 . S
O416 C417 1.255 . S
C417 O415 1.256 . S
C417 O416 1.255 . S
H418 C397 0.931 . S
H419 C405 0.931 . S
Co420 N425 2.057 . S
Co420 O437 2.021 . S
Co420 O440 2.062 . S
Co420 O444 2.117 . S
Co420 O445 2.020 . S
C421 O441 1.259 . S
C421 O444 1.258 . S
Co422 N431 2.057 . S
Co422 O438 2.117 . S
Co422 O439 2.020 . S
Co422 O441 2.021 . S
Co422 O446 2.062 . S
C423 N425 1.316 . S
C423 N426 1.347 . S
C423 H428 0.931 . S
C424 N425 1.375 . S
C424 C427 1.350 . S
C424 H429 0.930 . S
N425 Co420 2.057 . S
N425 C423 1.316 . S
N425 C424 1.375 . S
N426 C423 1.347 . S
N426 C427 1.373 . S
C427 C424 1.350 . S
C427 N426 1.373 . S
C427 H448 0.931 . S
H428 C423 0.931 . S
H429 C424 0.930 . S
C430 O437 1.259 . S
C430 O438 1.258 . S
N431 Co422 2.057 . S
N431 C432 1.316 . S
N431 C433 1.375 . S
C432 N431 1.316 . S
C432 N434 1.347 . S
C432 H443 0.931 . S
C433 N431 1.375 . S
C433 C435 1.350 . S
C433 H442 0.930 . S
N434 C432 1.347 . S
N434 C435 1.373 . S
C435 C433 1.350 . S
C435 N434 1.373 . S
C435 H449 0.931 . S
C436 O439 1.256 . S
C436 O440 1.255 . S
O437 Co420 2.021 . S
O437 C430 1.259 . S
O438 Co422 2.117 . S
O438 C430 1.258 . S
O439 Co422 2.020 . S
O439 C436 1.256 . S
O440 Co420 2.062 . S
O440 C436 1.255 . S
O441 C421 1.259 . S
O441 Co422 2.021 . S
H442 C433 0.930 . S
H443 C432 0.931 . S
O444 Co420 2.117 . S
O444 C421 1.258 . S
O445 Co420 2.020 . S
O445 C447 1.256 . S
O446 Co422 2.062 . S
O446 C447 1.255 . S
C447 O445 1.256 . S
C447 O446 1.255 . S
H448 C427 0.931 . S
H449 C435 0.931 . S
Co450 N455 2.057 . S
Co450 O467 2.021 . S
Co450 O470 2.062 . S
Co450 O474 2.117 . S
Co450 O475 2.020 . S
C451 O471 1.259 . S
C451 O474 1.258 . S
Co452 N461 2.057 . S
Co452 O468 2.117 . S
Co452 O469 2.020 . S
Co452 O471 2.021 . S
Co452 O476 2.062 . S
C453 N455 1.316 . S
C453 N456 1.347 1_455 S
C453 H458 0.931 . S
C454 N455 1.375 . S
C454 C457 1.350 1_455 S
C454 H459 0.930 . S
N455 Co450 2.057 . S
N455 C453 1.316 . S
N455 C454 1.375 . S
N456 C453 1.347 1_655 S
N456 C457 1.373 . S
C457 C454 1.350 1_655 S
C457 N456 1.373 . S
C457 H478 0.931 . S
H458 C453 0.931 . S
H459 C454 0.930 . S
C460 O467 1.259 . S
C460 O468 1.258 . S
N461 Co452 2.057 . S
N461 C462 1.316 . S
N461 C463 1.375 . S
C462 N461 1.316 . S
C462 N464 1.347 . S
C462 H473 0.931 . S
C463 N461 1.375 . S
C463 C465 1.350 . S
C463 H472 0.930 . S
N464 C462 1.347 . S
N464 C465 1.373 . S
C465 C463 1.350 . S
C465 N464 1.373 . S
C465 H479 0.931 . S
C466 O469 1.256 . S
C466 O470 1.255 . S
O467 Co450 2.021 . S
O467 C460 1.259 . S
O468 Co452 2.117 . S
O468 C460 1.258 . S
O469 Co452 2.020 . S
O469 C466 1.256 . S
O470 Co450 2.062 . S
O470 C466 1.255 . S
O471 C451 1.259 . S
O471 Co452 2.021 . S
H472 C463 0.930 . S
H473 C462 0.931 . S
O474 Co450 2.117 . S
O474 C451 1.258 . S
O475 Co450 2.020 . S
O475 C477 1.256 . S
O476 Co452 2.062 . S
O476 C477 1.255 . S
C477 O475 1.256 . S
C477 O476 1.255 . S
H478 C457 0.931 . S
H479 C465 0.931 . S
Co480 N485 2.055 1_545 S
Co480 O497 2.021 . S
Co480 O500 2.062 . S
Co480 O504 2.117 1_545 S
Co480 O505 2.020 . S
C481 O501 1.259 . S
C481 O504 1.258 . S
Co482 N491 2.057 1_565 S
Co482 O498 2.117 1_565 S
Co482 O499 2.020 . S
Co482 O501 2.021 . S
Co482 O506 2.062 1_565 S
C483 N485 1.308 1_545 S
C483 N486 1.347 . S
C483 H488 0.931 . S
C484 N485 1.385 . S
C484 C487 1.350 . S
C484 H489 0.930 . S
N485 Co480 2.055 1_565 S
N485 C483 1.308 1_565 S
N485 C484 1.385 . S
N486 C483 1.347 . S
N486 C487 1.373 1_545 S
C487 C484 1.350 . S
C487 N486 1.373 1_565 S
C487 H508 0.931 . S
H488 C483 0.931 . S
H489 C484 0.930 . S
C490 O497 1.259 . S
C490 O498 1.258 . S
N491 Co482 2.057 1_545 S
N491 C492 1.316 1_545 S
N491 C493 1.375 . S
C492 N491 1.316 1_565 S
C492 N494 1.363 . S
C492 H503 0.931 . S
C493 N491 1.375 . S
C493 C495 1.350 . S
C493 H502 0.930 . S
N494 C492 1.363 . S
N494 C495 1.339 1_565 S
C495 C493 1.350 . S
C495 N494 1.339 1_545 S
C495 H509 0.931 . S
C496 O499 1.256 . S
C496 O500 1.255 1_565 S
O497 Co480 2.021 . S
O497 C490 1.259 . S
O498 Co482 2.117 1_545 S
O498 C490 1.258 . S
O499 Co482 2.020 . S
O499 C496 1.256 . S
O500 Co480 2.062 . S
O500 C496 1.255 1_545 S
O501 C481 1.259 . S
O501 Co482 2.021 . S
H502 C493 0.930 . S
H503 C492 0.931 . S
O504 Co480 2.117 1_565 S
O504 C481 1.258 . S
O505 Co480 2.020 . S
O505 C507 1.256 . S
O506 Co482 2.062 1_545 S
O506 C507 1.255 . S
C507 O505 1.256 . S
C507 O506 1.255 . S
H508 C487 0.931 . S
H509 C495 0.931 . S
Co510 N515 2.057 . S
Co510 O527 2.021 . S
Co510 O530 2.062 . S
Co510 O534 2.117 . S
Co510 O535 2.020 . S
C511 O531 1.259 . S
C511 O534 1.258 . S
Co512 N521 2.057 . S
Co512 O528 2.117 . S
Co512 O529 2.020 . S
Co512 O531 2.021 . S
Co512 O536 2.062 . S
C513 N515 1.316 . S
C513 N516 1.347 . S
C513 H518 0.931 . S
C514 N515 1.375 . S
C514 C517 1.350 . S
C514 H519 0.930 . S
N515 Co510 2.057 . S
N515 C513 1.316 . S
N515 C514 1.375 . S
N516 C513 1.347 . S
N516 C517 1.373 . S
C517 C514 1.350 . S
C517 N516 1.373 . S
C517 H538 0.931 . S
H518 C513 0.931 . S
H519 C514 0.930 . S
C520 O527 1.259 . S
C520 O528 1.258 . S
N521 Co512 2.057 . S
N521 C522 1.316 . S
N521 C523 1.375 . S
C522 N521 1.316 . S
C522 N524 1.347 . S
C522 H533 0.931 . S
C523 N521 1.375 . S
C523 C525 1.350 . S
C523 H532 0.930 . S
N524 C522 1.347 . S
N524 C525 1.373 . S
C525 C523 1.350 . S
C525 N524 1.373 . S
C525 H539 0.931 . S
C526 O529 1.256 . S
C526 O530 1.255 . S
O527 Co510 2.021 . S
O527 C520 1.259 . S
O528 Co512 2.117 . S
O528 C520 1.258 . S
O529 Co512 2.020 . S
O529 C526 1.256 . S
O530 Co510 2.062 . S
O530 C526 1.255 . S
O531 C511 1.259 . S
O531 Co512 2.021 . S
H532 C523 0.930 . S
H533 C522 0.931 . S
O534 Co510 2.117 . S
O534 C511 1.258 . S
O535 Co510 2.020 . S
O535 C537 1.256 . S
O536 Co512 2.062 . S
O536 C537 1.255 . S
C537 O535 1.256 . S
C537 O536 1.255 . S
H538 C517 0.931 . S
H539 C525 0.931 . S
Co540 N545 2.057 . S
Co540 O557 2.021 . S
Co540 O560 2.062 . S
Co540 O564 2.117 . S
Co540 O565 2.020 . S
C541 O561 1.259 . S
C541 O564 1.258 . S
Co542 N551 2.057 . S
Co542 O558 2.117 . S
Co542 O559 2.020 . S
Co542 O561 2.021 . S
Co542 O566 2.062 . S
C543 N545 1.316 . S
C543 N546 1.347 . S
C543 H548 0.931 . S
C544 N545 1.375 . S
C544 C547 1.350 . S
C544 H549 0.930 . S
N545 Co540 2.057 . S
N545 C543 1.316 . S
N545 C544 1.375 . S
N546 C543 1.347 . S
N546 C547 1.373 . S
C547 C544 1.350 . S
C547 N546 1.373 . S
C547 H568 0.931 . S
H548 C543 0.931 . S
H549 C544 0.930 . S
C550 O557 1.259 . S
C550 O558 1.258 . S
N551 Co542 2.057 . S
N551 C552 1.316 . S
N551 C553 1.375 . S
C552 N551 1.316 . S
C552 N554 1.347 . S
C552 H563 0.931 . S
C553 N551 1.375 . S
C553 C555 1.350 . S
C553 H562 0.930 . S
N554 C552 1.347 . S
N554 C555 1.373 . S
C555 C553 1.350 . S
C555 N554 1.373 . S
C555 H569 0.931 . S
C556 O559 1.256 . S
C556 O560 1.255 . S
O557 Co540 2.021 . S
O557 C550 1.259 . S
O558 Co542 2.117 . S
O558 C550 1.258 . S
O559 Co542 2.020 . S
O559 C556 1.256 . S
O560 Co540 2.062 . S
O560 C556 1.255 . S
O561 C541 1.259 . S
O561 Co542 2.021 . S
H562 C553 0.930 . S
H563 C552 0.931 . S
O564 Co540 2.117 . S
O564 C541 1.258 . S
O565 Co540 2.020 . S
O565 C567 1.256 . S
O566 Co542 2.062 . S
O566 C567 1.255 . S
C567 O565 1.256 . S
C567 O566 1.255 . S
H568 C547 0.931 . S
H569 C555 0.931 . S
Co570 N575 2.055 1_545 S
Co570 O587 2.021 . S
Co570 O590 2.062 . S
Co570 O594 2.117 1_545 S
Co570 O595 2.020 . S
C571 O591 1.259 . S
C571 O594 1.258 . S
Co572 N581 2.057 1_565 S
Co572 O588 2.117 1_565 S
Co572 O589 2.020 . S
Co572 O591 2.021 . S
Co572 O596 2.062 1_565 S
C573 N575 1.308 1_545 S
C573 N576 1.347 . S
C573 H578 0.931 . S
C574 N575 1.386 . S
C574 C577 1.350 . S
C574 H579 0.930 . S
N575 Co570 2.055 1_565 S
N575 C573 1.308 1_565 S
N575 C574 1.386 . S
N576 C573 1.347 . S
N576 C577 1.373 1_545 S
C577 C574 1.350 . S
C577 N576 1.373 1_565 S
C577 H598 0.931 . S
H578 C573 0.931 . S
H579 C574 0.930 . S
C580 O587 1.259 . S
C580 O588 1.258 . S
N581 Co572 2.057 1_545 S
N581 C582 1.316 1_545 S
N581 C583 1.375 . S
C582 N581 1.316 1_565 S
C582 N584 1.363 . S
C582 H593 0.931 . S
C583 N581 1.375 . S
C583 C585 1.350 . S
C583 H592 0.930 . S
N584 C582 1.363 . S
N584 C585 1.338 1_565 S
C585 C583 1.350 . S
C585 N584 1.338 1_545 S
C585 H599 0.931 . S
C586 O589 1.256 . S
C586 O590 1.255 1_565 S
O587 Co570 2.021 . S
O587 C580 1.259 . S
O588 Co572 2.117 1_545 S
O588 C580 1.258 . S
O589 Co572 2.020 . S
O589 C586 1.256 . S
O590 Co570 2.062 . S
O590 C586 1.255 1_545 S
O591 C571 1.259 . S
O591 Co572 2.021 . S
H592 C583 0.930 . S
H593 C582 0.931 . S
O594 Co570 2.117 1_565 S
O594 C571 1.258 . S
O595 Co570 2.020 . S
O595 C597 1.256 . S
O596 Co572 2.062 1_545 S
O596 C597 1.255 . S
C597 O595 1.256 . S
C597 O596 1.255 . S
H598 C577 0.931 . S
H599 C585 0.931 . S
Co600 N605 2.057 1_545 S
Co600 O617 2.021 . S
Co600 O620 2.062 1_545 S
Co600 O624 2.117 1_545 S
Co600 O625 2.020 . S
C601 O621 1.259 . S
C601 O624 1.258 . S
Co602 N611 2.055 1_565 S
Co602 O618 2.117 1_565 S
Co602 O619 2.020 . S
Co602 O621 2.021 . S
Co602 O626 2.062 . S
C603 N605 1.316 1_545 S
C603 N606 1.363 . S
C603 H608 0.931 . S
C604 N605 1.375 . S
C604 C607 1.350 . S
C604 H609 0.930 . S
N605 Co600 2.057 1_565 S
N605 C603 1.316 1_565 S
N605 C604 1.375 . S
N606 C603 1.363 . S
N606 C607 1.339 1_545 S
C607 C604 1.350 . S
C607 N606 1.339 1_565 S
C607 H628 0.931 . S
H608 C603 0.931 . S
H609 C604 0.930 . S
C610 O617 1.259 . S
C610 O618 1.258 . S
N611 Co602 2.055 1_545 S
N611 C612 1.308 1_545 S
N611 C613 1.385 . S
C612 N611 1.308 1_565 S
C612 N614 1.347 . S
C612 H623 0.931 . S
C613 N611 1.385 . S
C613 C615 1.350 . S
C613 H622 0.930 . S
N614 C612 1.347 . S
N614 C615 1.373 1_565 S
C615 C613 1.350 . S
C615 N614 1.373 1_545 S
C615 H629 0.931 . S
C616 O619 1.256 . S
C616 O620 1.255 . S
O617 Co600 2.021 . S
O617 C610 1.259 . S
O618 Co602 2.117 1_545 S
O618 C610 1.258 . S
O619 Co602 2.020 . S
O619 C616 1.256 . S
O620 Co600 2.062 1_565 S
O620 C616 1.255 . S
O621 C601 1.259 . S
O621 Co602 2.021 . S
H622 C613 0.930 . S
H623 C612 0.931 . S
O624 Co600 2.117 1_565 S
O624 C601 1.258 . S
O625 Co600 2.020 . S
O625 C627 1.256 . S
O626 Co602 2.062 . S
O626 C627 1.255 1_565 S
C627 O625 1.256 . S
C627 O626 1.255 1_545 S
H628 C607 0.931 . S
H629 C615 0.931 . S
Co630 N635 2.057 . S
Co630 O647 2.021 . S
Co630 O650 2.062 . S
Co630 O654 2.117 . S
Co630 O655 2.020 . S
C631 O651 1.259 . S
C631 O654 1.258 . S
Co632 N641 2.057 . S
Co632 O648 2.117 . S
Co632 O649 2.020 . S
Co632 O651 2.021 . S
Co632 O656 2.062 . S
C633 N635 1.316 . S
C633 N636 1.347 . S
C633 H638 0.931 . S
C634 N635 1.375 . S
C634 C637 1.350 . S
C634 H639 0.930 . S
N635 Co630 2.057 . S
N635 C633 1.316 . S
N635 C634 1.375 . S
N636 C633 1.347 . S
N636 C637 1.373 . S
C637 C634 1.350 . S
C637 N636 1.373 . S
C637 H658 0.931 . S
H638 C633 0.931 . S
H639 C634 0.930 . S
C640 O647 1.259 . S
C640 O648 1.258 . S
N641 Co632 2.057 . S
N641 C642 1.316 . S
N641 C643 1.375 . S
C642 N641 1.316 . S
C642 N644 1.347 . S
C642 H653 0.931 . S
C643 N641 1.375 . S
C643 C645 1.350 . S
C643 H652 0.930 . S
N644 C642 1.347 . S
N644 C645 1.373 . S
C645 C643 1.350 . S
C645 N644 1.373 . S
C645 H659 0.931 . S
C646 O649 1.256 . S
C646 O650 1.255 . S
O647 Co630 2.021 . S
O647 C640 1.259 . S
O648 Co632 2.117 . S
O648 C640 1.258 . S
O649 Co632 2.020 . S
O649 C646 1.256 . S
O650 Co630 2.062 . S
O650 C646 1.255 . S
O651 C631 1.259 . S
O651 Co632 2.021 . S
H652 C643 0.930 . S
H653 C642 0.931 . S
O654 Co630 2.117 . S
O654 C631 1.258 . S
O655 Co630 2.020 . S
O655 C657 1.256 . S
O656 Co632 2.062 . S
O656 C657 1.255 . S
C657 O655 1.256 . S
C657 O656 1.255 . S
H658 C637 0.931 . S
H659 C645 0.931 . S
Co660 N665 2.057 . S
Co660 O677 2.021 . S
Co660 O680 2.062 . S
Co660 O684 2.117 . S
Co660 O685 2.020 . S
C661 O681 1.259 . S
C661 O684 1.258 . S
Co662 N671 2.057 . S
Co662 O678 2.117 . S
Co662 O679 2.020 . S
Co662 O681 2.021 . S
Co662 O686 2.062 . S
C663 N665 1.316 . S
C663 N666 1.347 . S
C663 H668 0.931 . S
C664 N665 1.375 . S
C664 C667 1.350 . S
C664 H669 0.930 . S
N665 Co660 2.057 . S
N665 C663 1.316 . S
N665 C664 1.375 . S
N666 C663 1.347 . S
N666 C667 1.373 . S
C667 C664 1.350 . S
C667 N666 1.373 . S
C667 H688 0.931 . S
H668 C663 0.931 . S
H669 C664 0.930 . S
C670 O677 1.259 . S
C670 O678 1.258 . S
N671 Co662 2.057 . S
N671 C672 1.316 . S
N671 C673 1.375 . S
C672 N671 1.316 . S
C672 N674 1.347 . S
C672 H683 0.931 . S
C673 N671 1.375 . S
C673 C675 1.350 . S
C673 H682 0.930 . S
N674 C672 1.347 . S
N674 C675 1.373 . S
C675 C673 1.350 . S
C675 N674 1.373 . S
C675 H689 0.931 . S
C676 O679 1.256 . S
C676 O680 1.255 . S
O677 Co660 2.021 . S
O677 C670 1.259 . S
O678 Co662 2.117 . S
O678 C670 1.258 . S
O679 Co662 2.020 . S
O679 C676 1.256 . S
O680 Co660 2.062 . S
O680 C676 1.255 . S
O681 C661 1.259 . S
O681 Co662 2.021 . S
H682 C673 0.930 . S
H683 C672 0.931 . S
O684 Co660 2.117 . S
O684 C661 1.258 . S
O685 Co660 2.020 . S
O685 C687 1.256 . S
O686 Co662 2.062 . S
O686 C687 1.255 . S
C687 O685 1.256 . S
C687 O686 1.255 . S
H688 C667 0.931 . S
H689 C675 0.931 . S
Co690 N695 2.057 1_545 S
Co690 O707 2.021 . S
Co690 O710 2.062 1_545 S
Co690 O714 2.117 1_545 S
Co690 O715 2.020 . S
C691 O711 1.259 . S
C691 O714 1.258 . S
Co692 N701 2.055 1_565 S
Co692 O708 2.117 1_565 S
Co692 O709 2.020 . S
Co692 O711 2.021 . S
Co692 O716 2.062 . S
C693 N695 1.316 1_545 S
C693 N696 1.363 . S
C693 H698 0.931 . S
C694 N695 1.375 . S
C694 C697 1.350 . S
C694 H699 0.930 . S
N695 Co690 2.057 1_565 S
N695 C693 1.316 1_565 S
N695 C694 1.375 . S
N696 C693 1.363 . S
N696 C697 1.338 1_545 S
C697 C694 1.350 . S
C697 N696 1.338 1_565 S
C697 H718 0.931 . S
H698 C693 0.931 . S
H699 C694 0.930 . S
C700 O707 1.259 . S
C700 O708 1.258 . S
N701 Co692 2.055 1_545 S
N701 C702 1.308 1_545 S
N701 C703 1.386 . S
C702 N701 1.308 1_565 S
C702 N704 1.347 . S
C702 H713 0.931 . S
C703 N701 1.386 . S
C703 C705 1.350 . S
C703 H712 0.930 . S
N704 C702 1.347 . S
N704 C705 1.373 1_565 S
C705 C703 1.350 . S
C705 N704 1.373 1_545 S
C705 H719 0.931 . S
C706 O709 1.256 . S
C706 O710 1.255 . S
O707 Co690 2.021 . S
O707 C700 1.259 . S
O708 Co692 2.117 1_545 S
O708 C700 1.258 . S
O709 Co692 2.020 . S
O709 C706 1.256 . S
O710 Co690 2.062 1_565 S
O710 C706 1.255 . S
O711 C691 1.259 . S
O711 Co692 2.021 . S
H712 C703 0.930 . S
H713 C702 0.931 . S
O714 Co690 2.117 1_565 S
O714 C691 1.258 . S
O715 Co690 2.020 . S
O715 C717 1.256 . S
O716 Co692 2.062 . S
O716 C717 1.255 1_565 S
C717 O715 1.256 . S
C717 O716 1.255 1_545 S
H718 C697 0.931 . S
H719 C705 0.931 . S
Co720 N725 2.057 . S
Co720 O737 2.021 . S
Co720 O740 2.062 . S
Co720 O744 2.117 . S
Co720 O745 2.020 . S
C721 O741 1.259 . S
C721 O744 1.258 . S
Co722 N731 2.057 . S
Co722 O738 2.117 . S
Co722 O739 2.020 . S
Co722 O741 2.021 . S
Co722 O746 2.044 1_554 S
C723 N725 1.316 . S
C723 N726 1.347 . S
C723 H728 0.931 . S
C724 N725 1.375 . S
C724 C727 1.350 . S
C724 H729 0.930 . S
N725 Co720 2.057 . S
N725 C723 1.316 . S
N725 C724 1.375 . S
N726 C723 1.347 . S
N726 C727 1.373 . S
C727 C724 1.350 . S
C727 N726 1.373 . S
C727 H748 0.931 . S
H728 C723 0.931 . S
H729 C724 0.930 . S
C730 O737 1.259 . S
C730 O738 1.258 . S
N731 Co722 2.057 . S
N731 C732 1.316 1_554 S
N731 C733 1.375 . S
C732 N731 1.316 1_556 S
C732 N734 1.347 . S
C732 H743 0.931 . S
C733 N731 1.375 . S
C733 C735 1.350 1_554 S
C733 H742 0.930 . S
N734 C732 1.347 . S
N734 C735 1.373 . S
C735 C733 1.350 1_556 S
C735 N734 1.373 . S
C735 H749 0.931 . S
C736 O739 1.256 . S
C736 O740 1.255 . S
O737 Co720 2.021 . S
O737 C730 1.259 . S
O738 Co722 2.117 . S
O738 C730 1.258 . S
O739 Co722 2.020 . S
O739 C736 1.256 . S
O740 Co720 2.062 . S
O740 C736 1.255 . S
O741 C721 1.259 . S
O741 Co722 2.021 . S
H742 C733 0.930 . S
H743 C732 0.931 . S
O744 Co720 2.117 . S
O744 C721 1.258 . S
O745 Co720 2.020 . S
O745 C747 1.256 1_554 S
O746 Co722 2.044 1_556 S
O746 C747 1.256 . S
C747 O745 1.256 1_556 S
C747 O746 1.256 . S
H748 C727 0.931 . S
H749 C735 0.931 . S
Co750 N755 2.057 . S
Co750 O767 2.021 . S
Co750 O770 2.062 . S
Co750 O774 2.117 . S
Co750 O775 2.020 . S
C751 O771 1.259 . S
C751 O774 1.258 . S
Co752 N761 2.057 . S
Co752 O768 2.117 . S
Co752 O769 2.020 . S
Co752 O771 2.021 . S
Co752 O776 2.044 1_554 S
C753 N755 1.316 . S
C753 N756 1.347 . S
C753 H758 0.931 . S
C754 N755 1.375 . S
C754 C757 1.350 . S
C754 H759 0.930 . S
N755 Co750 2.057 . S
N755 C753 1.316 . S
N755 C754 1.375 . S
N756 C753 1.347 . S
N756 C757 1.373 . S
C757 C754 1.350 . S
C757 N756 1.373 . S
C757 H778 0.931 . S
H758 C753 0.931 . S
H759 C754 0.930 . S
C760 O767 1.259 . S
C760 O768 1.258 . S
N761 Co752 2.057 . S
N761 C762 1.316 1_554 S
N761 C763 1.375 . S
C762 N761 1.316 1_556 S
C762 N764 1.347 . S
C762 H773 0.931 . S
C763 N761 1.375 . S
C763 C765 1.350 1_554 S
C763 H772 0.930 . S
N764 C762 1.347 . S
N764 C765 1.373 . S
C765 C763 1.350 1_556 S
C765 N764 1.373 . S
C765 H779 0.931 . S
C766 O769 1.256 . S
C766 O770 1.255 . S
O767 Co750 2.021 . S
O767 C760 1.259 . S
O768 Co752 2.117 . S
O768 C760 1.258 . S
O769 Co752 2.020 . S
O769 C766 1.256 . S
O770 Co750 2.062 . S
O770 C766 1.255 . S
O771 C751 1.259 . S
O771 Co752 2.021 . S
H772 C763 0.930 . S
H773 C762 0.931 . S
O774 Co750 2.117 . S
O774 C751 1.258 . S
O775 Co750 2.020 . S
O775 C777 1.256 1_554 S
O776 Co752 2.044 1_556 S
O776 C777 1.256 . S
C777 O775 1.256 1_556 S
C777 O776 1.256 . S
H778 C757 0.931 . S
H779 C765 0.931 . S
Co780 N785 2.057 . S
Co780 O797 2.021 . S
Co780 O800 2.062 . S
Co780 O804 2.117 . S
Co780 O805 2.020 . S
C781 O801 1.259 . S
C781 O804 1.258 . S
Co782 N791 2.057 . S
Co782 O798 2.117 . S
Co782 O799 2.020 . S
Co782 O801 2.021 . S
Co782 O806 2.062 . S
C783 N785 1.316 . S
C783 N786 1.347 . S
C783 H788 0.931 . S
C784 N785 1.375 . S
C784 C787 1.350 . S
C784 H789 0.930 . S
N785 Co780 2.057 . S
N785 C783 1.316 . S
N785 C784 1.375 . S
N786 C783 1.347 . S
N786 C787 1.373 . S
C787 C784 1.350 . S
C787 N786 1.373 . S
C787 H808 0.931 . S
H788 C783 0.931 . S
H789 C784 0.930 . S
C790 O797 1.259 . S
C790 O798 1.258 . S
N791 Co782 2.057 . S
N791 C792 1.316 . S
N791 C793 1.375 . S
C792 N791 1.316 . S
C792 N794 1.347 . S
C792 H803 0.931 . S
C793 N791 1.375 . S
C793 C795 1.350 . S
C793 H802 0.930 . S
N794 C792 1.347 . S
N794 C795 1.373 . S
C795 C793 1.350 . S
C795 N794 1.373 . S
C795 H809 0.931 . S
C796 O799 1.256 . S
C796 O800 1.255 . S
O797 Co780 2.021 . S
O797 C790 1.259 . S
O798 Co782 2.117 . S
O798 C790 1.258 . S
O799 Co782 2.020 . S
O799 C796 1.256 . S
O800 Co780 2.062 . S
O800 C796 1.255 . S
O801 C781 1.259 . S
O801 Co782 2.021 . S
H802 C793 0.930 . S
H803 C792 0.931 . S
O804 Co780 2.117 . S
O804 C781 1.258 . S
O805 Co780 2.020 . S
O805 C807 1.256 . S
O806 Co782 2.062 . S
O806 C807 1.255 . S
C807 O805 1.256 . S
C807 O806 1.255 . S
H808 C787 0.931 . S
H809 C795 0.931 . S
Co810 N815 2.057 . S
Co810 O827 2.021 . S
Co810 O830 2.062 . S
Co810 O834 2.117 . S
Co810 O835 2.020 . S
C811 O831 1.259 . S
C811 O834 1.258 . S
Co812 N821 2.057 . S
Co812 O828 2.117 . S
Co812 O829 2.020 . S
Co812 O831 2.021 . S
Co812 O836 2.062 . S
C813 N815 1.316 . S
C813 N816 1.347 . S
C813 H818 0.931 . S
C814 N815 1.375 . S
C814 C817 1.350 . S
C814 H819 0.930 . S
N815 Co810 2.057 . S
N815 C813 1.316 . S
N815 C814 1.375 . S
N816 C813 1.347 . S
N816 C817 1.373 . S
C817 C814 1.350 . S
C817 N816 1.373 . S
C817 H838 0.931 . S
H818 C813 0.931 . S
H819 C814 0.930 . S
C820 O827 1.259 . S
C820 O828 1.258 . S
N821 Co812 2.057 . S
N821 C822 1.316 . S
N821 C823 1.375 . S
C822 N821 1.316 . S
C822 N824 1.347 . S
C822 H833 0.931 . S
C823 N821 1.375 . S
C823 C825 1.350 . S
C823 H832 0.930 . S
N824 C822 1.347 . S
N824 C825 1.373 . S
C825 C823 1.350 . S
C825 N824 1.373 . S
C825 H839 0.931 . S
C826 O829 1.256 . S
C826 O830 1.255 . S
O827 Co810 2.021 . S
O827 C820 1.259 . S
O828 Co812 2.117 . S
O828 C820 1.258 . S
O829 Co812 2.020 . S
O829 C826 1.256 . S
O830 Co810 2.062 . S
O830 C826 1.255 . S
O831 C811 1.259 . S
O831 Co812 2.021 . S
H832 C823 0.930 . S
H833 C822 0.931 . S
O834 Co810 2.117 . S
O834 C811 1.258 . S
O835 Co810 2.020 . S
O835 C837 1.256 . S
O836 Co812 2.062 . S
O836 C837 1.255 . S
C837 O835 1.256 . S
C837 O836 1.255 . S
H838 C817 0.931 . S
H839 C825 0.931 . S
Co840 N845 2.057 . S
Co840 O857 2.021 . S
Co840 O860 2.044 1_556 S
Co840 O864 2.117 . S
Co840 O865 2.020 . S
C841 O861 1.259 . S
C841 O864 1.258 . S
Co842 N851 2.057 . S
Co842 O858 2.117 . S
Co842 O859 2.020 . S
Co842 O861 2.021 . S
Co842 O866 2.062 . S
C843 N845 1.316 1_554 S
C843 N846 1.347 . S
C843 H848 0.931 . S
C844 N845 1.375 . S
C844 C847 1.350 1_556 S
C844 H849 0.930 . S
N845 Co840 2.057 . S
N845 C843 1.316 1_556 S
N845 C844 1.375 . S
N846 C843 1.347 . S
N846 C847 1.373 . S
C847 C844 1.350 1_554 S
C847 N846 1.373 . S
C847 H868 0.931 . S
H848 C843 0.931 . S
H849 C844 0.930 . S
C850 O857 1.259 . S
C850 O858 1.258 . S
N851 Co842 2.057 . S
N851 C852 1.316 . S
N851 C853 1.375 . S
C852 N851 1.316 . S
C852 N854 1.347 . S
C852 H863 0.931 . S
C853 N851 1.375 . S
C853 C855 1.350 . S
C853 H862 0.930 . S
N854 C852 1.347 . S
N854 C855 1.373 . S
C855 C853 1.350 . S
C855 N854 1.373 . S
C855 H869 0.931 . S
C856 O859 1.256 1_554 S
C856 O860 1.256 . S
O857 Co840 2.021 . S
O857 C850 1.259 . S
O858 Co842 2.117 . S
O858 C850 1.258 . S
O859 Co842 2.020 . S
O859 C856 1.256 1_556 S
O860 Co840 2.044 1_554 S
O860 C856 1.256 . S
O861 C841 1.259 . S
O861 Co842 2.021 . S
H862 C853 0.930 . S
H863 C852 0.931 . S
O864 Co840 2.117 . S
O864 C841 1.258 . S
O865 Co840 2.020 . S
O865 C867 1.256 . S
O866 Co842 2.062 . S
O866 C867 1.255 . S
C867 O865 1.256 . S
C867 O866 1.255 . S
H868 C847 0.931 . S
H869 C855 0.931 . S
Co870 N875 2.057 . S
Co870 O887 2.021 . S
Co870 O890 2.044 1_556 S
Co870 O894 2.117 . S
Co870 O895 2.020 . S
C871 O891 1.259 . S
C871 O894 1.258 . S
Co872 N881 2.057 . S
Co872 O888 2.117 . S
Co872 O889 2.020 . S
Co872 O891 2.021 . S
Co872 O896 2.062 . S
C873 N875 1.316 1_554 S
C873 N876 1.347 . S
C873 H878 0.931 . S
C874 N875 1.375 . S
C874 C877 1.350 1_556 S
C874 H879 0.930 . S
N875 Co870 2.057 . S
N875 C873 1.316 1_556 S
N875 C874 1.375 . S
N876 C873 1.347 . S
N876 C877 1.373 . S
C877 C874 1.350 1_554 S
C877 N876 1.373 . S
C877 H898 0.931 . S
H878 C873 0.931 . S
H879 C874 0.930 . S
C880 O887 1.259 . S
C880 O888 1.258 . S
N881 Co872 2.057 . S
N881 C882 1.316 . S
N881 C883 1.375 . S
C882 N881 1.316 . S
C882 N884 1.347 . S
C882 H893 0.931 . S
C883 N881 1.375 . S
C883 C885 1.350 . S
C883 H892 0.930 . S
N884 C882 1.347 . S
N884 C885 1.373 . S
C885 C883 1.350 . S
C885 N884 1.373 . S
C885 H899 0.931 . S
C886 O889 1.256 1_554 S
C886 O890 1.256 . S
O887 Co870 2.021 . S
O887 C880 1.259 . S
O888 Co872 2.117 . S
O888 C880 1.258 . S
O889 Co872 2.020 . S
O889 C886 1.256 1_556 S
O890 Co870 2.044 1_554 S
O890 C886 1.256 . S
O891 C871 1.259 . S
O891 Co872 2.021 . S
H892 C883 0.930 . S
H893 C882 0.931 . S
O894 Co870 2.117 . S
O894 C871 1.258 . S
O895 Co870 2.020 . S
O895 C897 1.256 . S
O896 Co872 2.062 . S
O896 C897 1.255 . S
C897 O895 1.256 . S
C897 O896 1.255 . S
H898 C877 0.931 . S
H899 C885 0.931 . S
Co900 N905 2.057 . S
Co900 O917 2.021 . S
Co900 O920 2.062 . S
Co900 O924 2.117 . S
Co900 O925 2.020 . S
C901 O921 1.259 . S
C901 O924 1.258 . S
Co902 N911 2.057 . S
Co902 O918 2.117 . S
Co902 O919 2.020 . S
Co902 O921 2.021 . S
Co902 O926 2.062 . S
C903 N905 1.316 . S
C903 N906 1.347 . S
C903 H908 0.931 . S
C904 N905 1.375 . S
C904 C907 1.350 . S
C904 H909 0.930 . S
N905 Co900 2.057 . S
N905 C903 1.316 . S
N905 C904 1.375 . S
N906 C903 1.347 . S
N906 C907 1.373 . S
C907 C904 1.350 . S
C907 N906 1.373 . S
C907 H928 0.931 . S
H908 C903 0.931 . S
H909 C904 0.930 . S
C910 O917 1.259 . S
C910 O918 1.258 . S
N911 Co902 2.057 . S
N911 C912 1.316 . S
N911 C913 1.375 . S
C912 N911 1.316 . S
C912 N914 1.347 . S
C912 H923 0.931 . S
C913 N911 1.375 . S
C913 C915 1.350 . S
C913 H922 0.930 . S
N914 C912 1.347 . S
N914 C915 1.373 . S
C915 C913 1.350 . S
C915 N914 1.373 . S
C915 H929 0.931 . S
C916 O919 1.256 . S
C916 O920 1.255 . S
O917 Co900 2.021 . S
O917 C910 1.259 . S
O918 Co902 2.117 . S
O918 C910 1.258 . S
O919 Co902 2.020 . S
O919 C916 1.256 . S
O920 Co900 2.062 . S
O920 C916 1.255 . S
O921 C901 1.259 . S
O921 Co902 2.021 . S
H922 C913 0.930 . S
H923 C912 0.931 . S
O924 Co900 2.117 . S
O924 C901 1.258 . S
O925 Co900 2.020 . S
O925 C927 1.256 . S
O926 Co902 2.062 . S
O926 C927 1.255 . S
C927 O925 1.256 . S
C927 O926 1.255 . S
H928 C907 0.931 . S
H929 C915 0.931 . S
Co930 N935 2.057 . S
Co930 O947 2.021 . S
Co930 O950 2.062 . S
Co930 O954 2.117 . S
Co930 O955 2.020 . S
C931 O951 1.259 . S
C931 O954 1.258 . S
Co932 N941 2.057 . S
Co932 O948 2.117 . S
Co932 O949 2.020 . S
Co932 O951 2.021 . S
Co932 O956 2.062 . S
C933 N935 1.316 . S
C933 N936 1.347 . S
C933 H938 0.931 . S
C934 N935 1.375 . S
C934 C937 1.350 . S
C934 H939 0.930 . S
N935 Co930 2.057 . S
N935 C933 1.316 . S
N935 C934 1.375 . S
N936 C933 1.347 . S
N936 C937 1.373 . S
C937 C934 1.350 . S
C937 N936 1.373 . S
C937 H958 0.931 . S
H938 C933 0.931 . S
H939 C934 0.930 . S
C940 O947 1.259 . S
C940 O948 1.258 . S
N941 Co932 2.057 . S
N941 C942 1.316 . S
N941 C943 1.375 . S
C942 N941 1.316 . S
C942 N944 1.347 . S
C942 H953 0.931 . S
C943 N941 1.375 . S
C943 C945 1.350 . S
C943 H952 0.930 . S
N944 C942 1.347 . S
N944 C945 1.373 . S
C945 C943 1.350 . S
C945 N944 1.373 . S
C945 H959 0.931 . S
C946 O949 1.256 . S
C946 O950 1.255 . S
O947 Co930 2.021 . S
O947 C940 1.259 . S
O948 Co932 2.117 . S
O948 C940 1.258 . S
O949 Co932 2.020 . S
O949 C946 1.256 . S
O950 Co930 2.062 . S
O950 C946 1.255 . S
O951 C931 1.259 . S
O951 Co932 2.021 . S
H952 C943 0.930 . S
H953 C942 0.931 . S
O954 Co930 2.117 . S
O954 C931 1.258 . S
O955 Co930 2.020 . S
O955 C957 1.256 . S
O956 Co932 2.062 . S
O956 C957 1.255 . S
C957 O955 1.256 . S
C957 O956 1.255 . S
H958 C937 0.931 . S
H959 C945 0.931 . S
C960 C961 1.387 . S
C960 H964 0.950 1_554 S
C960 C969 1.390 . S
C961 C960 1.387 . S
C961 C963 1.387 . S
H962 C969 0.950 1_556 S
C963 C961 1.387 . S
C963 C965 1.390 . S
C963 H967 0.950 . S
H964 C960 0.950 1_556 S
C965 C963 1.390 . S
C965 C966 1.387 . S
C965 H968 0.950 . S
C966 C965 1.387 . S
C966 C969 1.387 . S
H967 C963 0.950 . S
H968 C965 0.950 . S
C969 C960 1.390 . S
C969 H962 0.950 1_554 S
C969 C966 1.387 . S
C970 C971 1.387 . S
C970 H974 0.950 . S
C970 C979 1.390 . S
C971 C970 1.387 . S
C971 C973 1.387 . S
H972 C979 0.950 . S
C973 C971 1.387 . S
C973 C975 1.390 . S
C973 H977 0.950 1_554 S
H974 C970 0.950 . S
C975 C973 1.390 . S
C975 C976 1.387 . S
C975 H978 0.950 1_554 S
C976 C975 1.387 . S
C976 C979 1.387 . S
H977 C973 0.950 1_556 S
H978 C975 0.950 1_556 S
C979 C970 1.390 . S
C979 H972 0.950 . S
C979 C976 1.387 . S
C980 C981 1.387 . S
C980 H984 0.950 . S
C980 C989 1.390 . S
C981 C980 1.387 . S
C981 C983 1.387 . S
H982 C989 0.950 . S
C983 C981 1.387 . S
C983 C985 1.390 . S
C983 H987 0.950 . S
H984 C980 0.950 . S
C985 C983 1.390 . S
C985 C986 1.387 . S
C985 H988 0.950 . S
C986 C985 1.387 . S
C986 C989 1.387 . S
H987 C983 0.950 . S
H988 C985 0.950 . S
C989 C980 1.390 . S
C989 H982 0.950 . S
C989 C986 1.387 . S
C990 C991 1.387 . S
C990 H994 0.950 . S
C990 C999 1.390 . S
C991 C990 1.387 . S
C991 C993 1.387 . S
H992 C999 0.950 . S
C993 C991 1.387 . S
C993 C995 1.390 . S
C993 H997 0.950 . S
H994 C990 0.950 . S
C995 C993 1.390 . S
C995 C996 1.387 . S
C995 H998 0.950 . S
C996 C995 1.387 . S
C996 C999 1.387 . S
H997 C993 0.950 . S
H998 C995 0.950 . S
C999 C990 1.390 . S
C999 H992 0.950 . S
C999 C996 1.387 . S
C1000 C1001 1.387 . S
C1000 H1004 0.950 1_556 S
C1000 C1009 1.390 . S
C1001 C1000 1.387 . S
C1001 C1003 1.387 . S
H1002 C1009 0.950 1_554 S
C1003 C1001 1.387 . S
C1003 C1005 1.390 . S
C1003 H1007 0.950 . S
H1004 C1000 0.950 1_554 S
C1005 C1003 1.390 . S
C1005 C1006 1.387 . S
C1005 H1008 0.950 . S
C1006 C1005 1.387 . S
C1006 C1009 1.387 . S
H1007 C1003 0.950 . S
H1008 C1005 0.950 . S
C1009 C1000 1.390 . S
C1009 H1002 0.950 1_556 S
C1009 C1006 1.387 . S
C1010 C1011 1.387 . S
C1010 H1014 0.950 1_556 S
C1010 C1019 1.390 . S
C1011 C1010 1.387 . S
C1011 C1013 1.387 . S
H1012 C1019 0.950 1_554 S
C1013 C1011 1.387 . S
C1013 C1015 1.390 . S
C1013 H1017 0.950 . S
H1014 C1010 0.950 1_554 S
C1015 C1013 1.390 . S
C1015 C1016 1.387 . S
C1015 H1018 0.950 . S
C1016 C1015 1.387 . S
C1016 C1019 1.387 . S
H1017 C1013 0.950 . S
H1018 C1015 0.950 . S
C1019 C1010 1.390 . S
C1019 H1012 0.950 1_556 S
C1019 C1016 1.387 . S
C1020 C1021 1.387 . S
C1020 H1024 0.950 . S
C1020 C1029 1.390 . S
C1021 C1020 1.387 . S
C1021 C1023 1.387 . S
H1022 C1029 0.950 . S
C1023 C1021 1.387 . S
C1023 C1025 1.390 . S
C1023 H1027 0.950 . S
H1024 C1020 0.950 . S
C1025 C1023 1.390 . S
C1025 C1026 1.387 . S
C1025 H1028 0.950 . S
C1026 C1025 1.387 . S
C1026 C1029 1.387 . S
H1027 C1023 0.950 . S
H1028 C1025 0.950 . S
C1029 C1020 1.390 . S
C1029 H1022 0.950 . S
C1029 C1026 1.387 . S
C1030 C1031 1.387 . S
C1030 H1034 0.950 . S
C1030 C1039 1.390 . S
C1031 C1030 1.387 . S
C1031 C1033 1.387 . S
H1032 C1039 0.950 . S
C1033 C1031 1.387 . S
C1033 C1035 1.390 . S
C1033 H1037 0.950 . S
H1034 C1030 0.950 . S
C1035 C1033 1.390 . S
C1035 C1036 1.387 . S
C1035 H1038 0.950 . S
C1036 C1035 1.387 . S
C1036 C1039 1.387 . S
H1037 C1033 0.950 . S
H1038 C1035 0.950 . S
C1039 C1030 1.390 . S
C1039 H1032 0.950 . S
C1039 C1036 1.387 . S
C1040 C1041 1.387 . S
C1040 H1044 0.950 . S
C1040 C1049 1.390 . S
C1041 C1040 1.387 . S
C1041 C1043 1.387 . S
H1042 C1049 0.950 . S
C1043 C1041 1.387 . S
C1043 C1045 1.390 . S
C1043 H1047 0.950 . S
H1044 C1040 0.950 . S
C1045 C1043 1.390 . S
C1045 C1046 1.387 . S
C1045 H1048 0.950 . S
C1046 C1045 1.387 . S
C1046 C1049 1.387 . S
H1047 C1043 0.950 . S
H1048 C1045 0.950 . S
C1049 C1040 1.390 . S
C1049 H1042 0.950 . S
C1049 C1046 1.387 . S
C1050 C1051 1.387 . S
C1050 H1054 0.950 . S
C1050 C1059 1.390 . S
C1051 C1050 1.387 . S
C1051 C1053 1.387 . S
H1052 C1059 0.950 . S
C1053 C1051 1.387 . S
C1053 C1055 1.390 . S
C1053 H1057 0.950 . S
H1054 C1050 0.950 . S
C1055 C1053 1.390 . S
C1055 C1056 1.387 . S
C1055 H1058 0.950 . S
C1056 C1055 1.387 . S
C1056 C1059 1.387 . S
H1057 C1053 0.950 . S
H1058 C1055 0.950 . S
C1059 C1050 1.390 . S
C1059 H1052 0.950 . S
C1059 C1056 1.387 . S
C1060 C1061 1.387 . S
C1060 H1064 0.950 . S
C1060 C1069 1.390 . S
C1061 C1060 1.387 . S
C1061 C1063 1.387 . S
H1062 C1069 0.950 . S
C1063 C1061 1.387 . S
C1063 C1065 1.390 . S
C1063 H1067 0.950 . S
H1064 C1060 0.950 . S
C1065 C1063 1.390 . S
C1065 C1066 1.387 . S
C1065 H1068 0.950 . S
C1066 C1065 1.387 . S
C1066 C1069 1.387 . S
H1067 C1063 0.950 . S
H1068 C1065 0.950 . S
C1069 C1060 1.390 . S
C1069 H1062 0.950 . S
C1069 C1066 1.387 . S
C1070 C1071 1.387 . S
C1070 H1074 0.950 . S
C1070 C1079 1.390 . S
C1071 C1070 1.387 . S
C1071 C1073 1.387 . S
H1072 C1079 0.950 . S
C1073 C1071 1.387 . S
C1073 C1075 1.390 . S
C1073 H1077 0.950 . S
H1074 C1070 0.950 . S
C1075 C1073 1.390 . S
C1075 C1076 1.387 . S
C1075 H1078 0.950 . S
C1076 C1075 1.387 . S
C1076 C1079 1.387 . S
H1077 C1073 0.950 . S
H1078 C1075 0.950 . S
C1079 C1070 1.390 . S
C1079 H1072 0.950 . S
C1079 C1076 1.387 . S
C1080 C1081 1.387 . S
C1080 H1084 0.950 . S
C1080 C1089 1.390 . S
C1081 C1080 1.387 . S
C1081 C1083 1.387 . S
H1082 C1089 0.950 . S
C1083 C1081 1.387 . S
C1083 C1085 1.390 . S
C1083 H1087 0.950 . S
H1084 C1080 0.950 . S
C1085 C1083 1.390 . S
C1085 C1086 1.387 . S
C1085 H1088 0.950 . S
C1086 C1085 1.387 . S
C1086 C1089 1.387 . S
H1087 C1083 0.950 . S
H1088 C1085 0.950 . S
C1089 C1080 1.390 . S
C1089 H1082 0.950 . S
C1089 C1086 1.387 . S
C1090 C1091 1.387 . S
C1090 H1094 0.950 . S
C1090 C1099 1.390 . S
C1091 C1090 1.387 . S
C1091 C1093 1.387 . S
H1092 C1099 0.950 . S
C1093 C1091 1.387 . S
C1093 C1095 1.390 . S
C1093 H1097 0.950 . S
H1094 C1090 0.950 . S
C1095 C1093 1.390 . S
C1095 C1096 1.387 . S
C1095 H1098 0.950 . S
C1096 C1095 1.387 . S
C1096 C1099 1.387 . S
H1097 C1093 0.950 . S
H1098 C1095 0.950 . S
C1099 C1090 1.390 . S
C1099 H1092 0.950 . S
C1099 C1096 1.387 . S
C1100 C1101 1.387 . S
C1100 H1104 0.950 . S
C1100 C1109 1.390 . S
C1101 C1100 1.387 . S
C1101 C1103 1.387 . S
H1102 C1109 0.950 . S
C1103 C1101 1.387 . S
C1103 C1105 1.390 . S
C1103 H1107 0.950 . S
H1104 C1100 0.950 . S
C1105 C1103 1.390 . S
C1105 C1106 1.387 . S
C1105 H1108 0.950 . S
C1106 C1105 1.387 . S
C1106 C1109 1.387 . S
H1107 C1103 0.950 . S
H1108 C1105 0.950 . S
C1109 C1100 1.390 . S
C1109 H1102 0.950 . S
C1109 C1106 1.387 . S
C1110 C1111 1.387 . S
C1110 H1114 0.950 . S
C1110 C1119 1.390 . S
C1111 C1110 1.387 . S
C1111 C1113 1.387 . S
H1112 C1119 0.950 . S
C1113 C1111 1.387 . S
C1113 C1115 1.390 . S
C1113 H1117 0.950 . S
H1114 C1110 0.950 . S
C1115 C1113 1.390 . S
C1115 C1116 1.387 . S
C1115 H1118 0.950 . S
C1116 C1115 1.387 . S
C1116 C1119 1.387 . S
H1117 C1113 0.950 . S
H1118 C1115 0.950 . S
C1119 C1110 1.390 . S
C1119 H1112 0.950 . S
C1119 C1116 1.387 . S
C1120 C1121 1.387 . S
C1120 H1124 0.950 . S
C1120 C1129 1.390 . S
C1121 C1120 1.387 . S
C1121 C1123 1.387 1_565 S
H1122 C1129 0.950 . S
C1123 C1121 1.387 1_545 S
C1123 C1125 1.390 . S
C1123 H1127 0.950 . S
H1124 C1120 0.950 . S
C1125 C1123 1.390 . S
C1125 C1126 1.387 . S
C1125 H1128 0.950 . S
C1126 C1125 1.387 . S
C1126 C1129 1.387 1_545 S
H1127 C1123 0.950 . S
H1128 C1125 0.950 . S
C1129 C1120 1.390 . S
C1129 H1122 0.950 . S
C1129 C1126 1.387 1_565 S
C1130 C1131 1.387 . S
C1130 H1134 0.950 . S
C1130 C1139 1.390 1_455 S
C1131 C1130 1.387 . S
C1131 C1133 1.387 . S
H1132 C1139 0.950 . S
C1133 C1131 1.387 . S
C1133 C1135 1.390 1_455 S
C1133 H1137 0.950 . S
H1134 C1130 0.950 . S
C1135 C1133 1.390 1_655 S
C1135 C1136 1.387 . S
C1135 H1138 0.950 . S
C1136 C1135 1.387 . S
C1136 C1139 1.387 . S
H1137 C1133 0.950 . S
H1138 C1135 0.950 . S
C1139 C1130 1.390 1_655 S
C1139 H1132 0.950 . S
C1139 C1136 1.387 . S
C1140 C1141 1.387 . S
C1140 H1144 0.950 . S
C1140 C1149 1.390 1_556 S
C1141 C1140 1.387 . S
C1141 C1143 1.387 . S
H1142 C1149 0.950 . S
C1143 C1141 1.387 . S
C1143 C1145 1.390 1_556 S
C1143 H1147 0.950 . S
H1144 C1140 0.950 . S
C1145 C1143 1.390 1_554 S
C1145 C1146 1.387 . S
C1145 H1148 0.950 . S
C1146 C1145 1.387 . S
C1146 C1149 1.387 . S
H1147 C1143 0.950 . S
H1148 C1145 0.950 . S
C1149 C1140 1.390 1_554 S
C1149 H1142 0.950 . S
C1149 C1146 1.387 . S
C1150 C1151 1.387 1_545 S
C1150 H1154 0.950 . S
C1150 C1159 1.390 1_654 S
C1151 C1150 1.387 1_565 S
C1151 C1153 1.387 . S
H1152 C1159 0.950 . S
C1153 C1151 1.387 . S
C1153 C1155 1.390 1_654 S
C1153 H1157 0.950 . S
H1154 C1150 0.950 . S
C1155 C1153 1.390 1_456 S
C1155 C1156 1.387 1_565 S
C1155 H1158 0.950 . S
C1156 C1155 1.387 1_545 S
C1156 C1159 1.387 . S
H1157 C1153 0.950 . S
H1158 C1155 0.950 . S
C1159 C1150 1.390 1_456 S
C1159 H1152 0.950 . S
C1159 C1156 1.387 . S
C1160 C1161 1.387 . S
C1160 H1164 0.950 . S
C1160 C1169 1.390 . S
C1161 C1160 1.387 . S
C1161 C1163 1.387 1_545 S
H1162 C1169 0.950 . S
C1163 C1161 1.387 1_565 S
C1163 C1165 1.390 . S
C1163 H1167 0.950 . S
H1164 C1160 0.950 . S
C1165 C1163 1.390 . S
C1165 C1166 1.387 . S
C1165 H1168 0.950 . S
C1166 C1165 1.387 . S
C1166 C1169 1.387 1_565 S
H1167 C1163 0.950 . S
H1168 C1165 0.950 . S
C1169 C1160 1.390 . S
C1169 H1162 0.950 . S
C1169 C1166 1.387 1_545 S
C1170 C1171 1.387 . S
C1170 H1174 0.950 . S
C1170 C1179 1.390 1_455 S
C1171 C1170 1.387 . S
C1171 C1173 1.387 . S
H1172 C1179 0.950 . S
C1173 C1171 1.387 . S
C1173 C1175 1.390 1_455 S
C1173 H1177 0.950 . S
H1174 C1170 0.950 . S
C1175 C1173 1.390 1_655 S
C1175 C1176 1.387 . S
C1175 H1178 0.950 . S
C1176 C1175 1.387 . S
C1176 C1179 1.387 . S
H1177 C1173 0.950 . S
H1178 C1175 0.950 . S
C1179 C1170 1.390 1_655 S
C1179 H1172 0.950 . S
C1179 C1176 1.387 . S
C1180 C1181 1.387 . S
C1180 H1184 0.950 . S
C1180 C1189 1.390 1_556 S
C1181 C1180 1.387 . S
C1181 C1183 1.387 . S
H1182 C1189 0.950 . S
C1183 C1181 1.387 . S
C1183 C1185 1.390 1_556 S
C1183 H1187 0.950 . S
H1184 C1180 0.950 . S
C1185 C1183 1.390 1_554 S
C1185 C1186 1.387 . S
C1185 H1188 0.950 . S
C1186 C1185 1.387 . S
C1186 C1189 1.387 . S
H1187 C1183 0.950 . S
H1188 C1185 0.950 . S
C1189 C1180 1.390 1_554 S
C1189 H1182 0.950 . S
C1189 C1186 1.387 . S
C1190 C1191 1.387 . S
C1190 H1194 0.950 . S
C1190 C1199 1.390 . S
C1191 C1190 1.387 . S
C1191 C1193 1.387 . S
H1192 C1199 0.950 . S
C1193 C1191 1.387 . S
C1193 C1195 1.390 . S
C1193 H1197 0.950 . S
H1194 C1190 0.950 . S
C1195 C1193 1.390 . S
C1195 C1196 1.387 . S
C1195 H1198 0.950 . S
C1196 C1195 1.387 . S
C1196 C1199 1.387 . S
H1197 C1193 0.950 . S
H1198 C1195 0.950 . S
C1199 C1190 1.390 . S
C1199 H1192 0.950 . S
C1199 C1196 1.387 . S
C1200 C1201 1.387 . S
C1200 H1204 0.950 . S
C1200 C1209 1.390 . S
C1201 C1200 1.387 . S
C1201 C1203 1.387 . S
H1202 C1209 0.950 . S
C1203 C1201 1.387 . S
C1203 C1205 1.390 . S
C1203 H1207 0.950 . S
H1204 C1200 0.950 . S
C1205 C1203 1.390 . S
C1205 C1206 1.387 . S
C1205 H1208 0.950 . S
C1206 C1205 1.387 . S
C1206 C1209 1.387 . S
H1207 C1203 0.950 . S
H1208 C1205 0.950 . S
C1209 C1200 1.390 . S
C1209 H1202 0.950 . S
C1209 C1206 1.387 . S
C1210 C1211 1.387 . S
C1210 H1214 0.950 . S
C1210 C1219 1.390 1_455 S
C1211 C1210 1.387 . S
C1211 C1213 1.387 . S
H1212 C1219 0.950 . S
C1213 C1211 1.387 . S
C1213 C1215 1.390 1_455 S
C1213 H1217 0.950 . S
H1214 C1210 0.950 . S
C1215 C1213 1.390 1_655 S
C1215 C1216 1.387 . S
C1215 H1218 0.950 . S
C1216 C1215 1.387 . S
C1216 C1219 1.387 . S
H1217 C1213 0.950 . S
H1218 C1215 0.950 . S
C1219 C1210 1.390 1_655 S
C1219 H1212 0.950 . S
C1219 C1216 1.387 . S
C1220 C1221 1.387 . S
C1220 H1224 0.950 . S
C1220 C1229 1.390 . S
C1221 C1220 1.387 . S
C1221 C1223 1.387 . S
H1222 C1229 0.950 . S
C1223 C1221 1.387 . S
C1223 C1225 1.390 . S
C1223 H1227 0.950 . S
H1224 C1220 0.950 . S
C1225 C1223 1.390 . S
C1225 C1226 1.387 . S
C1225 H1228 0.950 . S
C1226 C1225 1.387 . S
C1226 C1229 1.387 . S
H1227 C1223 0.950 . S
H1228 C1225 0.950 . S
C1229 C1220 1.390 . S
C1229 H1222 0.950 . S
C1229 C1226 1.387 . S
C1230 C1231 1.387 . S
C1230 H1234 0.950 . S
C1230 C1239 1.390 . S
C1231 C1230 1.387 . S
C1231 C1233 1.387 . S
H1232 C1239 0.950 . S
C1233 C1231 1.387 . S
C1233 C1235 1.390 . S
C1233 H1237 0.950 . S
H1234 C1230 0.950 . S
C1235 C1233 1.390 . S
C1235 C1236 1.387 . S
C1235 H1238 0.950 . S
C1236 C1235 1.387 . S
C1236 C1239 1.387 . S
H1237 C1233 0.950 . S
H1238 C1235 0.950 . S
C1239 C1230 1.390 . S
C1239 H1232 0.950 . S
C1239 C1236 1.387 . S
C1240 C1241 1.387 . S
C1240 H1244 0.950 . S
C1240 C1249 1.390 . S
C1241 C1240 1.387 . S
C1241 C1243 1.387 . S
H1242 C1249 0.950 . S
C1243 C1241 1.387 . S
C1243 C1245 1.390 . S
C1243 H1247 0.950 . S
H1244 C1240 0.950 . S
C1245 C1243 1.390 . S
C1245 C1246 1.387 . S
C1245 H1248 0.950 . S
C1246 C1245 1.387 . S
C1246 C1249 1.387 . S
H1247 C1243 0.950 . S
H1248 C1245 0.950 . S
C1249 C1240 1.390 . S
C1249 H1242 0.950 . S
C1249 C1246 1.387 . S
C1250 C1251 1.387 1_545 S
C1250 H1254 0.950 . S
C1250 C1259 1.390 . S
C1251 C1250 1.387 1_565 S
C1251 C1253 1.387 . S
H1252 C1259 0.950 . S
C1253 C1251 1.387 . S
C1253 C1255 1.390 . S
C1253 H1257 0.950 . S
H1254 C1250 0.950 . S
C1255 C1253 1.390 . S
C1255 C1256 1.387 1_565 S
C1255 H1258 0.950 . S
C1256 C1255 1.387 1_545 S
C1256 C1259 1.387 . S
H1257 C1253 0.950 . S
H1258 C1255 0.950 . S
C1259 C1250 1.390 . S
C1259 H1252 0.950 . S
C1259 C1256 1.387 . S
C1260 C1261 1.387 . S
C1260 H1264 0.950 . S
C1260 C1269 1.390 . S
C1261 C1260 1.387 . S
C1261 C1263 1.387 . S
H1262 C1269 0.950 . S
C1263 C1261 1.387 . S
C1263 C1265 1.390 . S
C1263 H1267 0.950 . S
H1264 C1260 0.950 . S
C1265 C1263 1.390 . S
C1265 C1266 1.387 . S
C1265 H1268 0.950 . S
C1266 C1265 1.387 . S
C1266 C1269 1.387 . S
H1267 C1263 0.950 . S
H1268 C1265 0.950 . S
C1269 C1260 1.390 . S
C1269 H1262 0.950 . S
C1269 C1266 1.387 . S
C1270 C1271 1.387 . S
C1270 H1274 0.950 . S
C1270 C1279 1.390 1_554 S
C1271 C1270 1.387 . S
C1271 C1273 1.387 . S
H1272 C1279 0.950 . S
C1273 C1271 1.387 . S
C1273 C1275 1.390 1_554 S
C1273 H1277 0.950 . S
H1274 C1270 0.950 . S
C1275 C1273 1.390 1_556 S
C1275 C1276 1.387 . S
C1275 H1278 0.950 . S
C1276 C1275 1.387 . S
C1276 C1279 1.387 . S
H1277 C1273 0.950 . S
H1278 C1275 0.950 . S
C1279 C1270 1.390 1_556 S
C1279 H1272 0.950 . S
C1279 C1276 1.387 . S
C1280 C1281 1.387 1_565 S
C1280 H1284 0.950 . S
C1280 C1289 1.390 . S
C1281 C1280 1.387 1_545 S
C1281 C1283 1.387 . S
H1282 C1289 0.950 . S
C1283 C1281 1.387 . S
C1283 C1285 1.390 . S
C1283 H1287 0.950 . S
H1284 C1280 0.950 . S
C1285 C1283 1.390 . S
C1285 C1286 1.387 . S
C1285 H1288 0.950 . S
C1286 C1285 1.387 . S
C1286 C1289 1.387 1_545 S
H1287 C1283 0.950 . S
H1288 C1285 0.950 . S
C1289 C1280 1.390 . S
C1289 H1282 0.950 . S
C1289 C1286 1.387 1_565 S
C1290 C1291 1.387 . S
C1290 H1294 0.950 . S
C1290 C1299 1.390 . S
C1291 C1290 1.387 . S
C1291 C1293 1.387 . S
H1292 C1299 0.950 . S
C1293 C1291 1.387 . S
C1293 C1295 1.390 . S
C1293 H1297 0.950 . S
H1294 C1290 0.950 . S
C1295 C1293 1.390 . S
C1295 C1296 1.387 . S
C1295 H1298 0.950 . S
C1296 C1295 1.387 . S
C1296 C1299 1.387 . S
H1297 C1293 0.950 . S
H1298 C1295 0.950 . S
C1299 C1290 1.390 . S
C1299 H1292 0.950 . S
C1299 C1296 1.387 . S
C1300 C1301 1.387 . S
C1300 H1304 0.950 . S
C1300 C1309 1.390 . S
C1301 C1300 1.387 . S
C1301 C1303 1.387 . S
H1302 C1309 0.950 . S
C1303 C1301 1.387 . S
C1303 C1305 1.390 . S
C1303 H1307 0.950 . S
H1304 C1300 0.950 . S
C1305 C1303 1.390 . S
C1305 C1306 1.387 . S
C1305 H1308 0.950 . S
C1306 C1305 1.387 . S
C1306 C1309 1.387 . S
H1307 C1303 0.950 . S
H1308 C1305 0.950 . S
C1309 C1300 1.390 . S
C1309 H1302 0.950 . S
C1309 C1306 1.387 . S
C1310 C1311 1.387 . S
C1310 H1314 0.950 . S
C1310 C1319 1.390 . S
C1311 C1310 1.387 . S
C1311 C1313 1.387 1_545 S
H1312 C1319 0.950 . S
C1313 C1311 1.387 1_565 S
C1313 C1315 1.390 . S
C1313 H1317 0.950 . S
H1314 C1310 0.950 . S
C1315 C1313 1.390 . S
C1315 C1316 1.387 1_565 S
C1315 H1318 0.950 . S
C1316 C1315 1.387 1_545 S
C1316 C1319 1.387 . S
H1317 C1313 0.950 . S
H1318 C1315 0.950 . S
C1319 C1310 1.390 . S
C1319 H1312 0.950 . S
C1319 C1316 1.387 . S
C1320 C1321 1.387 1_545 S
C1320 H1324 0.950 . S
C1320 C1329 1.390 . S
C1321 C1320 1.387 1_565 S
C1321 C1323 1.387 . S
H1322 C1329 0.950 . S
C1323 C1321 1.387 . S
C1323 C1325 1.390 . S
C1323 H1327 0.950 . S
H1324 C1320 0.950 . S
C1325 C1323 1.390 . S
C1325 C1326 1.387 . S
C1325 H1328 0.950 . S
C1326 C1325 1.387 . S
C1326 C1329 1.387 1_565 S
H1327 C1323 0.950 . S
H1328 C1325 0.950 . S
C1329 C1320 1.390 . S
C1329 H1322 0.950 . S
C1329 C1326 1.387 1_545 S
C1330 C1331 1.387 . S
C1330 H1334 0.950 . S
C1330 C1339 1.390 . S
C1331 C1330 1.387 . S
C1331 C1333 1.387 . S
H1332 C1339 0.950 . S
C1333 C1331 1.387 . S
C1333 C1335 1.390 . S
C1333 H1337 0.950 . S
H1334 C1330 0.950 . S
C1335 C1333 1.390 . S
C1335 C1336 1.387 . S
C1335 H1338 0.950 . S
C1336 C1335 1.387 . S
C1336 C1339 1.387 . S
H1337 C1333 0.950 . S
H1338 C1335 0.950 . S
C1339 C1330 1.390 . S
C1339 H1332 0.950 . S
C1339 C1336 1.387 . S
C1340 C1341 1.387 . S
C1340 H1344 0.950 . S
C1340 C1349 1.390 . S
C1341 C1340 1.387 . S
C1341 C1343 1.387 . S
H1342 C1349 0.950 . S
C1343 C1341 1.387 . S
C1343 C1345 1.390 . S
C1343 H1347 0.950 . S
H1344 C1340 0.950 . S
C1345 C1343 1.390 . S
C1345 C1346 1.387 . S
C1345 H1348 0.950 . S
C1346 C1345 1.387 . S
C1346 C1349 1.387 . S
H1347 C1343 0.950 . S
H1348 C1345 0.950 . S
C1349 C1340 1.390 . S
C1349 H1342 0.950 . S
C1349 C1346 1.387 . S
C1350 C1351 1.387 . S
C1350 H1354 0.950 . S
C1350 C1359 1.390 . S
C1351 C1350 1.387 . S
C1351 C1353 1.387 1_565 S
H1352 C1359 0.950 . S
C1353 C1351 1.387 1_545 S
C1353 C1355 1.390 . S
C1353 H1357 0.950 . S
H1354 C1350 0.950 . S
C1355 C1353 1.390 . S
C1355 C1356 1.387 1_545 S
C1355 H1358 0.950 . S
C1356 C1355 1.387 1_565 S
C1356 C1359 1.387 . S
H1357 C1353 0.950 . S
H1358 C1355 0.950 . S
C1359 C1350 1.390 . S
C1359 H1352 0.950 . S
C1359 C1356 1.387 . S
C1360 C1361 1.387 . S
C1360 H1364 0.950 . S
C1360 C1369 1.390 . S
C1361 C1360 1.387 . S
C1361 C1363 1.387 . S
H1362 C1369 0.950 . S
C1363 C1361 1.387 . S
C1363 C1365 1.390 . S
C1363 H1367 0.950 . S
H1364 C1360 0.950 . S
C1365 C1363 1.390 . S
C1365 C1366 1.387 . S
C1365 H1368 0.950 . S
C1366 C1365 1.387 . S
C1366 C1369 1.387 . S
H1367 C1363 0.950 . S
H1368 C1365 0.950 . S
C1369 C1360 1.390 . S
C1369 H1362 0.950 . S
C1369 C1366 1.387 . S
C1370 C1371 1.387 . S
C1370 H1374 0.950 . S
C1370 C1379 1.390 . S
C1371 C1370 1.387 . S
C1371 C1373 1.387 . S
H1372 C1379 0.950 . S
C1373 C1371 1.387 . S
C1373 C1375 1.390 . S
C1373 H1377 0.950 . S
H1374 C1370 0.950 . S
C1375 C1373 1.390 . S
C1375 C1376 1.387 . S
C1375 H1378 0.950 . S
C1376 C1375 1.387 . S
C1376 C1379 1.387 . S
H1377 C1373 0.950 . S
H1378 C1375 0.950 . S
C1379 C1370 1.390 . S
C1379 H1372 0.950 . S
C1379 C1376 1.387 . S
C1380 C1381 1.387 . S
C1380 H1384 0.950 . S
C1380 C1389 1.390 . S
C1381 C1380 1.387 . S
C1381 C1383 1.387 . S
H1382 C1389 0.950 . S
C1383 C1381 1.387 . S
C1383 C1385 1.390 . S
C1383 H1387 0.950 . S
H1384 C1380 0.950 . S
C1385 C1383 1.390 . S
C1385 C1386 1.387 . S
C1385 H1388 0.950 . S
C1386 C1385 1.387 . S
C1386 C1389 1.387 . S
H1387 C1383 0.950 . S
H1388 C1385 0.950 . S
C1389 C1380 1.390 . S
C1389 H1382 0.950 . S
C1389 C1386 1.387 . S
C1390 C1391 1.387 . S
C1390 H1394 0.950 . S
C1390 C1399 1.390 . S
C1391 C1390 1.387 . S
C1391 C1393 1.387 . S
H1392 C1399 0.950 . S
C1393 C1391 1.387 . S
C1393 C1395 1.390 . S
C1393 H1397 0.950 . S
H1394 C1390 0.950 . S
C1395 C1393 1.390 . S
C1395 C1396 1.387 . S
C1395 H1398 0.950 . S
C1396 C1395 1.387 . S
C1396 C1399 1.387 . S
H1397 C1393 0.950 . S
H1398 C1395 0.950 . S
C1399 C1390 1.390 . S
C1399 H1392 0.950 . S
C1399 C1396 1.387 . S
C1400 C1401 1.387 . S
C1400 H1404 0.950 . S
C1400 C1409 1.390 . S
C1401 C1400 1.387 . S
C1401 C1403 1.387 . S
H1402 C1409 0.950 . S
C1403 C1401 1.387 . S
C1403 C1405 1.390 . S
C1403 H1407 0.950 . S
H1404 C1400 0.950 . S
C1405 C1403 1.390 . S
C1405 C1406 1.387 . S
C1405 H1408 0.950 . S
C1406 C1405 1.387 . S
C1406 C1409 1.387 . S
H1407 C1403 0.950 . S
H1408 C1405 0.950 . S
C1409 C1400 1.390 . S
C1409 H1402 0.950 . S
C1409 C1406 1.387 . S
C1410 C1411 1.387 . S
C1410 H1414 0.950 . S
C1410 C1419 1.390 . S
C1411 C1410 1.387 . S
C1411 C1413 1.387 . S
H1412 C1419 0.950 . S
C1413 C1411 1.387 . S
C1413 C1415 1.390 . S
C1413 H1417 0.950 . S
H1414 C1410 0.950 . S
C1415 C1413 1.390 . S
C1415 C1416 1.387 . S
C1415 H1418 0.950 . S
C1416 C1415 1.387 . S
C1416 C1419 1.387 . S
H1417 C1413 0.950 . S
H1418 C1415 0.950 . S
C1419 C1410 1.390 . S
C1419 H1412 0.950 . S
C1419 C1416 1.387 . S
C1420 C1421 1.387 . S
C1420 H1424 0.950 . S
C1420 C1429 1.390 . S
C1421 C1420 1.387 . S
C1421 C1423 1.387 . S
H1422 C1429 0.950 . S
C1423 C1421 1.387 . S
C1423 C1425 1.390 . S
C1423 H1427 0.950 . S
H1424 C1420 0.950 . S
C1425 C1423 1.390 . S
C1425 C1426 1.387 . S
C1425 H1428 0.950 . S
C1426 C1425 1.387 . S
C1426 C1429 1.387 . S
H1427 C1423 0.950 . S
H1428 C1425 0.950 . S
C1429 C1420 1.390 . S
C1429 H1422 0.950 . S
C1429 C1426 1.387 . S
C1430 C1431 1.387 . S
C1430 H1434 0.950 . S
C1430 C1439 1.390 . S
C1431 C1430 1.387 . S
C1431 C1433 1.387 . S
H1432 C1439 0.950 . S
C1433 C1431 1.387 . S
C1433 C1435 1.390 . S
C1433 H1437 0.950 . S
H1434 C1430 0.950 . S
C1435 C1433 1.390 . S
C1435 C1436 1.387 . S
C1435 H1438 0.950 . S
C1436 C1435 1.387 . S
C1436 C1439 1.387 . S
H1437 C1433 0.950 . S
H1438 C1435 0.950 . S
C1439 C1430 1.390 . S
C1439 H1432 0.950 . S
C1439 C1436 1.387 . S
C1440 C1441 1.387 . S
C1440 H1444 0.950 . S
C1440 C1449 1.390 . S
C1441 C1440 1.387 . S
C1441 C1443 1.387 . S
H1442 C1449 0.950 . S
C1443 C1441 1.387 . S
C1443 C1445 1.390 . S
C1443 H1447 0.950 . S
H1444 C1440 0.950 . S
C1445 C1443 1.390 . S
C1445 C1446 1.387 . S
C1445 H1448 0.950 . S
C1446 C1445 1.387 . S
C1446 C1449 1.387 . S
H1447 C1443 0.950 . S
H1448 C1445 0.950 . S
C1449 C1440 1.390 . S
C1449 H1442 0.950 . S
C1449 C1446 1.387 . S
C1450 C1451 1.387 . S
C1450 H1454 0.950 . S
C1450 C1459 1.390 . S
C1451 C1450 1.387 . S
C1451 C1453 1.387 . S
H1452 C1459 0.950 . S
C1453 C1451 1.387 . S
C1453 C1455 1.390 . S
C1453 H1457 0.950 . S
H1454 C1450 0.950 . S
C1455 C1453 1.390 . S
C1455 C1456 1.387 . S
C1455 H1458 0.950 . S
C1456 C1455 1.387 . S
C1456 C1459 1.387 . S
H1457 C1453 0.950 . S
H1458 C1455 0.950 . S
C1459 C1450 1.390 . S
C1459 H1452 0.950 . S
C1459 C1456 1.387 . S
C1460 C1461 1.387 . S
C1460 H1464 0.950 . S
C1460 C1469 1.390 . S
C1461 C1460 1.387 . S
C1461 C1463 1.387 . S
H1462 C1469 0.950 . S
C1463 C1461 1.387 . S
C1463 C1465 1.390 . S
C1463 H1467 0.950 . S
H1464 C1460 0.950 . S
C1465 C1463 1.390 . S
C1465 C1466 1.387 . S
C1465 H1468 0.950 . S
C1466 C1465 1.387 . S
C1466 C1469 1.387 . S
H1467 C1463 0.950 . S
H1468 C1465 0.950 . S
C1469 C1460 1.390 . S
C1469 H1462 0.950 . S
C1469 C1466 1.387 . S
C1470 C1471 1.387 . S
C1470 H1474 0.950 . S
C1470 C1479 1.390 . S
C1471 C1470 1.387 . S
C1471 C1473 1.387 . S
H1472 C1479 0.950 . S
C1473 C1471 1.387 . S
C1473 C1475 1.390 . S
C1473 H1477 0.950 . S
H1474 C1470 0.950 . S
C1475 C1473 1.390 . S
C1475 C1476 1.387 . S
C1475 H1478 0.950 . S
C1476 C1475 1.387 . S
C1476 C1479 1.387 . S
H1477 C1473 0.950 . S
H1478 C1475 0.950 . S
C1479 C1470 1.390 . S
C1479 H1472 0.950 . S
C1479 C1476 1.387 . S
C1480 C1481 1.387 . S
C1480 H1484 0.950 . S
C1480 C1489 1.390 . S
C1481 C1480 1.387 . S
C1481 C1483 1.387 . S
H1482 C1489 0.950 . S
C1483 C1481 1.387 . S
C1483 C1485 1.390 . S
C1483 H1487 0.950 . S
H1484 C1480 0.950 . S
C1485 C1483 1.390 . S
C1485 C1486 1.387 . S
C1485 H1488 0.950 . S
C1486 C1485 1.387 . S
C1486 C1489 1.387 . S
H1487 C1483 0.950 . S
H1488 C1485 0.950 . S
C1489 C1480 1.390 . S
C1489 H1482 0.950 . S
C1489 C1486 1.387 . S
C1490 C1491 1.387 . S
C1490 H1494 0.950 . S
C1490 C1499 1.390 . S
C1491 C1490 1.387 . S
C1491 C1493 1.387 . S
H1492 C1499 0.950 . S
C1493 C1491 1.387 . S
C1493 C1495 1.390 . S
C1493 H1497 0.950 . S
H1494 C1490 0.950 . S
C1495 C1493 1.390 . S
C1495 C1496 1.387 . S
C1495 H1498 0.950 . S
C1496 C1495 1.387 . S
C1496 C1499 1.387 . S
H1497 C1493 0.950 . S
H1498 C1495 0.950 . S
C1499 C1490 1.390 . S
C1499 H1492 0.950 . S
C1499 C1496 1.387 . S
C1500 C1501 1.387 . S
C1500 H1504 0.950 . S
C1500 C1509 1.390 . S
C1501 C1500 1.387 . S
C1501 C1503 1.387 . S
H1502 C1509 0.950 . S
C1503 C1501 1.387 . S
C1503 C1505 1.390 . S
C1503 H1507 0.950 . S
H1504 C1500 0.950 . S
C1505 C1503 1.390 . S
C1505 C1506 1.387 . S
C1505 H1508 0.950 . S
C1506 C1505 1.387 . S
C1506 C1509 1.387 . S
H1507 C1503 0.950 . S
H1508 C1505 0.950 . S
C1509 C1500 1.390 . S
C1509 H1502 0.950 . S
C1509 C1506 1.387 . S
C1510 C1511 1.387 . S
C1510 H1514 0.950 . S
C1510 C1519 1.390 . S
C1511 C1510 1.387 . S
C1511 C1513 1.387 . S
H1512 C1519 0.950 . S
C1513 C1511 1.387 . S
C1513 C1515 1.390 . S
C1513 H1517 0.950 . S
H1514 C1510 0.950 . S
C1515 C1513 1.390 . S
C1515 C1516 1.387 . S
C1515 H1518 0.950 . S
C1516 C1515 1.387 . S
C1516 C1519 1.387 . S
H1517 C1513 0.950 . S
H1518 C1515 0.950 . S
C1519 C1510 1.390 . S
C1519 H1512 0.950 . S
C1519 C1516 1.387 . S
C1520 C1521 1.387 . S
C1520 H1524 0.950 . S
C1520 C1529 1.390 . S
C1521 C1520 1.387 . S
C1521 C1523 1.387 . S
H1522 C1529 0.950 . S
C1523 C1521 1.387 . S
C1523 C1525 1.390 . S
C1523 H1527 0.950 . S
H1524 C1520 0.950 . S
C1525 C1523 1.390 . S
C1525 C1526 1.387 . S
C1525 H1528 0.950 . S
C1526 C1525 1.387 . S
C1526 C1529 1.387 . S
H1527 C1523 0.950 . S
H1528 C1525 0.950 . S
C1529 C1520 1.390 . S
C1529 H1522 0.950 . S
C1529 C1526 1.387 . S
C1530 C1531 1.387 . S
C1530 H1534 0.950 . S
C1530 C1539 1.390 . S
C1531 C1530 1.387 . S
C1531 C1533 1.387 . S
H1532 C1539 0.950 . S
C1533 C1531 1.387 . S
C1533 C1535 1.390 . S
C1533 H1537 0.950 . S
H1534 C1530 0.950 . S
C1535 C1533 1.390 . S
C1535 C1536 1.387 . S
C1535 H1538 0.950 . S
C1536 C1535 1.387 . S
C1536 C1539 1.387 . S
H1537 C1533 0.950 . S
H1538 C1535 0.950 . S
C1539 C1530 1.390 . S
C1539 H1532 0.950 . S
C1539 C1536 1.387 . S
C1540 C1541 1.387 . S
C1540 H1544 0.950 . S
C1540 C1549 1.390 . S
C1541 C1540 1.387 . S
C1541 C1543 1.387 . S
H1542 C1549 0.950 . S
C1543 C1541 1.387 . S
C1543 C1545 1.390 . S
C1543 H1547 0.950 . S
H1544 C1540 0.950 . S
C1545 C1543 1.390 . S
C1545 C1546 1.387 . S
C1545 H1548 0.950 . S
C1546 C1545 1.387 . S
C1546 C1549 1.387 . S
H1547 C1543 0.950 . S
H1548 C1545 0.950 . S
C1549 C1540 1.390 . S
C1549 H1542 0.950 . S
C1549 C1546 1.387 . S
C1550 C1551 1.387 . S
C1550 H1554 0.950 . S
C1550 C1559 1.390 . S
C1551 C1550 1.387 . S
C1551 C1553 1.387 . S
H1552 C1559 0.950 . S
C1553 C1551 1.387 . S
C1553 C1555 1.390 . S
C1553 H1557 0.950 . S
H1554 C1550 0.950 . S
C1555 C1553 1.390 . S
C1555 C1556 1.387 . S
C1555 H1558 0.950 . S
C1556 C1555 1.387 . S
C1556 C1559 1.387 . S
H1557 C1553 0.950 . S
H1558 C1555 0.950 . S
C1559 C1550 1.390 . S
C1559 H1552 0.950 . S
C1559 C1556 1.387 . S
C1560 C1561 1.387 . S
C1560 H1564 0.950 . S
C1560 C1569 1.390 . S
C1561 C1560 1.387 . S
C1561 C1563 1.387 . S
H1562 C1569 0.950 . S
C1563 C1561 1.387 . S
C1563 C1565 1.390 . S
C1563 H1567 0.950 . S
H1564 C1560 0.950 . S
C1565 C1563 1.390 . S
C1565 C1566 1.387 . S
C1565 H1568 0.950 . S
C1566 C1565 1.387 . S
C1566 C1569 1.387 . S
H1567 C1563 0.950 . S
H1568 C1565 0.950 . S
C1569 C1560 1.390 . S
C1569 H1562 0.950 . S
C1569 C1566 1.387 . S
C1570 C1571 1.387 . S
C1570 H1574 0.950 . S
C1570 C1579 1.390 . S
C1571 C1570 1.387 . S
C1571 C1573 1.387 . S
H1572 C1579 0.950 . S
C1573 C1571 1.387 . S
C1573 C1575 1.390 . S
C1573 H1577 0.950 . S
H1574 C1570 0.950 . S
C1575 C1573 1.390 . S
C1575 C1576 1.387 . S
C1575 H1578 0.950 . S
C1576 C1575 1.387 . S
C1576 C1579 1.387 . S
H1577 C1573 0.950 . S
H1578 C1575 0.950 . S
C1579 C1570 1.390 . S
C1579 H1572 0.950 . S
C1579 C1576 1.387 . S
C1580 C1581 1.387 . S
C1580 H1584 0.950 . S
C1580 C1589 1.390 . S
C1581 C1580 1.387 . S
C1581 C1583 1.387 . S
H1582 C1589 0.950 . S
C1583 C1581 1.387 . S
C1583 C1585 1.390 . S
C1583 H1587 0.950 . S
H1584 C1580 0.950 . S
C1585 C1583 1.390 . S
C1585 C1586 1.387 . S
C1585 H1588 0.950 . S
C1586 C1585 1.387 . S
C1586 C1589 1.387 . S
H1587 C1583 0.950 . S
H1588 C1585 0.950 . S
C1589 C1580 1.390 . S
C1589 H1582 0.950 . S
C1589 C1586 1.387 . S
C1590 C1591 1.387 . S
C1590 H1594 0.950 . S
C1590 C1599 1.390 . S
C1591 C1590 1.387 . S
C1591 C1593 1.387 . S
H1592 C1599 0.950 . S
C1593 C1591 1.387 . S
C1593 C1595 1.390 . S
C1593 H1597 0.950 . S
H1594 C1590 0.950 . S
C1595 C1593 1.390 . S
C1595 C1596 1.387 . S
C1595 H1598 0.950 . S
C1596 C1595 1.387 . S
C1596 C1599 1.387 . S
H1597 C1593 0.950 . S
H1598 C1595 0.950 . S
C1599 C1590 1.390 . S
C1599 H1592 0.950 . S
C1599 C1596 1.387 . S
C1600 C1601 1.387 . S
C1600 H1604 0.950 . S
C1600 C1609 1.390 . S
C1601 C1600 1.387 . S
C1601 C1603 1.387 1_565 S
H1602 C1609 0.950 . S
C1603 C1601 1.387 1_545 S
C1603 C1605 1.390 . S
C1603 H1607 0.950 1_556 S
H1604 C1600 0.950 . S
C1605 C1603 1.390 . S
C1605 C1606 1.387 1_545 S
C1605 H1608 0.954 . S
C1606 C1605 1.387 1_565 S
C1606 C1609 1.387 . S
H1607 C1603 0.950 1_554 S
H1608 C1605 0.954 . S
C1609 C1600 1.390 . S
C1609 H1602 0.950 . S
C1609 C1606 1.387 . S
C1610 C1611 1.387 . S
C1610 H1614 0.950 . S
C1610 C1619 1.390 . S
C1611 C1610 1.387 . S
C1611 C1613 1.387 . S
H1612 C1619 0.950 1_554 S
C1613 C1611 1.387 . S
C1613 C1615 1.390 . S
C1613 H1617 0.950 . S
H1614 C1610 0.950 . S
C1615 C1613 1.390 . S
C1615 C1616 1.387 . S
C1615 H1618 0.950 . S
C1616 C1615 1.387 . S
C1616 C1619 1.387 . S
H1617 C1613 0.950 . S
H1618 C1615 0.950 . S
C1619 C1610 1.390 . S
C1619 H1612 0.950 1_556 S
C1619 C1616 1.387 . S
C1620 C1621 1.387 . S
C1620 H1624 0.950 . S
C1620 C1629 1.390 . S
C1621 C1620 1.387 . S
C1621 C1623 1.387 . S
H1622 C1629 0.950 . S
C1623 C1621 1.387 . S
C1623 C1625 1.390 . S
C1623 H1627 0.950 . S
H1624 C1620 0.950 . S
C1625 C1623 1.390 . S
C1625 C1626 1.387 . S
C1625 H1628 0.950 . S
C1626 C1625 1.387 . S
C1626 C1629 1.387 . S
H1627 C1623 0.950 . S
H1628 C1625 0.950 . S
C1629 C1620 1.390 . S
C1629 H1622 0.950 . S
C1629 C1626 1.387 . S
C1630 C1631 1.387 . S
C1630 H1634 0.950 . S
C1630 C1639 1.390 . S
C1631 C1630 1.387 . S
C1631 C1633 1.387 1_565 S
H1632 C1639 0.950 . S
C1633 C1631 1.387 1_545 S
C1633 C1635 1.390 . S
C1633 H1637 0.950 . S
H1634 C1630 0.950 . S
C1635 C1633 1.390 . S
C1635 C1636 1.387 1_545 S
C1635 H1638 0.950 . S
C1636 C1635 1.387 1_565 S
C1636 C1639 1.387 . S
H1637 C1633 0.950 . S
H1638 C1635 0.950 . S
C1639 C1630 1.390 . S
C1639 H1632 0.950 . S
C1639 C1636 1.387 . S
C1640 C1641 1.387 . S
C1640 H1644 0.950 . S
C1640 C1649 1.390 . S
C1641 C1640 1.387 . S
C1641 C1643 1.387 1_545 S
H1642 C1649 0.950 . S
C1643 C1641 1.387 1_565 S
C1643 C1645 1.390 . S
C1643 H1647 0.950 . S
H1644 C1640 0.950 . S
C1645 C1643 1.390 . S
C1645 C1646 1.387 1_565 S
C1645 H1648 0.950 . S
C1646 C1645 1.387 1_545 S
C1646 C1649 1.387 . S
H1647 C1643 0.950 . S
H1648 C1645 0.950 . S
C1649 C1640 1.390 . S
C1649 H1642 0.950 . S
C1649 C1646 1.387 . S
C1650 C1651 1.387 . S
C1650 H1654 0.950 . S
C1650 C1659 1.390 . S
C1651 C1650 1.387 . S
C1651 C1653 1.387 . S
H1652 C1659 0.950 . S
C1653 C1651 1.387 . S
C1653 C1655 1.390 . S
C1653 H1657 0.950 . S
H1654 C1650 0.950 . S
C1655 C1653 1.390 . S
C1655 C1656 1.387 . S
C1655 H1658 0.950 . S
C1656 C1655 1.387 . S
C1656 C1659 1.387 . S
H1657 C1653 0.950 . S
H1658 C1655 0.950 . S
C1659 C1650 1.390 . S
C1659 H1652 0.950 . S
C1659 C1656 1.387 . S
C1660 C1661 1.387 . S
C1660 H1664 0.950 . S
C1660 C1669 1.390 . S
C1661 C1660 1.387 . S
C1661 C1663 1.387 . S
H1662 C1669 0.950 . S
C1663 C1661 1.387 . S
C1663 C1665 1.390 . S
C1663 H1667 0.950 . S
H1664 C1660 0.950 . S
C1665 C1663 1.390 . S
C1665 C1666 1.387 . S
C1665 H1668 0.950 . S
C1666 C1665 1.387 . S
C1666 C1669 1.387 . S
H1667 C1663 0.950 . S
H1668 C1665 0.950 . S
C1669 C1660 1.390 . S
C1669 H1662 0.950 . S
C1669 C1666 1.387 . S
C1670 C1671 1.387 1_565 S
C1670 H1674 0.950 . S
C1670 C1679 1.390 . S
C1671 C1670 1.387 1_545 S
C1671 C1673 1.387 . S
H1672 C1679 0.950 . S
C1673 C1671 1.387 . S
C1673 C1675 1.390 . S
C1673 H1677 0.950 . S
H1674 C1670 0.950 . S
C1675 C1673 1.390 . S
C1675 C1676 1.387 . S
C1675 H1678 0.950 . S
C1676 C1675 1.387 . S
C1676 C1679 1.387 1_545 S
H1677 C1673 0.950 . S
H1678 C1675 0.950 . S
C1679 C1670 1.390 . S
C1679 H1672 0.950 . S
C1679 C1676 1.387 1_565 S
C1680 C1681 1.387 . S
C1680 H1684 0.950 . S
C1680 C1689 1.390 . S
C1681 C1680 1.387 . S
C1681 C1683 1.387 . S
H1682 C1689 0.950 . S
C1683 C1681 1.387 . S
C1683 C1685 1.390 . S
C1683 H1687 0.950 . S
H1684 C1680 0.950 . S
C1685 C1683 1.390 . S
C1685 C1686 1.387 . S
C1685 H1688 0.950 . S
C1686 C1685 1.387 . S
C1686 C1689 1.387 . S
H1687 C1683 0.950 . S
H1688 C1685 0.950 . S
C1689 C1680 1.390 . S
C1689 H1682 0.950 . S
C1689 C1686 1.387 . S
C1690 C1691 1.387 . S
C1690 H1694 0.950 . S
C1690 C1699 1.390 . S
C1691 C1690 1.387 . S
C1691 C1693 1.387 . S
H1692 C1699 0.950 . S
C1693 C1691 1.387 . S
C1693 C1695 1.390 . S
C1693 H1697 0.950 . S
H1694 C1690 0.950 . S
C1695 C1693 1.390 . S
C1695 C1696 1.387 . S
C1695 H1698 0.950 . S
C1696 C1695 1.387 . S
C1696 C1699 1.387 . S
H1697 C1693 0.950 . S
H1698 C1695 0.950 . S
C1699 C1690 1.390 . S
C1699 H1692 0.950 . S
C1699 C1696 1.387 . S
C1700 C1701 1.387 . S
C1700 H1704 0.950 . S
C1700 C1709 1.390 . S
C1701 C1700 1.387 . S
C1701 C1703 1.387 . S
H1702 C1709 0.950 . S
C1703 C1701 1.387 . S
C1703 C1705 1.390 . S
C1703 H1707 0.950 . S
H1704 C1700 0.950 . S
C1705 C1703 1.390 . S
C1705 C1706 1.387 . S
C1705 H1708 0.950 . S
C1706 C1705 1.387 . S
C1706 C1709 1.387 . S
H1707 C1703 0.950 . S
H1708 C1705 0.950 . S
C1709 C1700 1.390 . S
C1709 H1702 0.950 . S
C1709 C1706 1.387 . S
C1710 C1711 1.387 . S
C1710 H1714 0.950 . S
C1710 C1719 1.390 . S
C1711 C1710 1.387 . S
C1711 C1713 1.387 . S
H1712 C1719 0.950 . S
C1713 C1711 1.387 . S
C1713 C1715 1.390 . S
C1713 H1717 0.950 . S
H1714 C1710 0.950 . S
C1715 C1713 1.390 . S
C1715 C1716 1.387 . S
C1715 H1718 0.950 . S
C1716 C1715 1.387 . S
C1716 C1719 1.387 . S
H1717 C1713 0.950 . S
H1718 C1715 0.950 . S
C1719 C1710 1.390 . S
C1719 H1712 0.950 . S
C1719 C1716 1.387 . S
C1720 C1721 1.387 . S
C1720 H1724 0.950 . S
C1720 C1729 1.390 . S
C1721 C1720 1.387 . S
C1721 C1723 1.387 . S
H1722 C1729 0.950 . S
C1723 C1721 1.387 . S
C1723 C1725 1.390 . S
C1723 H1727 0.950 . S
H1724 C1720 0.950 . S
C1725 C1723 1.390 . S
C1725 C1726 1.387 . S
C1725 H1728 0.950 . S
C1726 C1725 1.387 . S
C1726 C1729 1.387 . S
H1727 C1723 0.950 . S
H1728 C1725 0.950 . S
C1729 C1720 1.390 . S
C1729 H1722 0.950 . S
C1729 C1726 1.387 . S
C1730 C1731 1.387 . S
C1730 H1734 0.950 . S
C1730 C1739 1.390 . S
C1731 C1730 1.387 . S
C1731 C1733 1.387 . S
H1732 C1739 0.950 . S
C1733 C1731 1.387 . S
C1733 C1735 1.390 . S
C1733 H1737 0.950 . S
H1734 C1730 0.950 . S
C1735 C1733 1.390 . S
C1735 C1736 1.387 . S
C1735 H1738 0.950 . S
C1736 C1735 1.387 . S
C1736 C1739 1.387 . S
H1737 C1733 0.950 . S
H1738 C1735 0.950 . S
C1739 C1730 1.390 . S
C1739 H1732 0.950 . S
C1739 C1736 1.387 . S
C1740 C1741 1.387 . S
C1740 H1744 0.950 . S
C1740 C1749 1.390 . S
C1741 C1740 1.387 . S
C1741 C1743 1.387 . S
H1742 C1749 0.950 . S
C1743 C1741 1.387 . S
C1743 C1745 1.390 . S
C1743 H1747 0.950 . S
H1744 C1740 0.950 . S
C1745 C1743 1.390 . S
C1745 C1746 1.387 . S
C1745 H1748 0.950 . S
C1746 C1745 1.387 . S
C1746 C1749 1.387 . S
H1747 C1743 0.950 . S
H1748 C1745 0.950 . S
C1749 C1740 1.390 . S
C1749 H1742 0.950 . S
C1749 C1746 1.387 . S
C1750 C1751 1.387 . S
C1750 H1754 0.950 . S
C1750 C1759 1.390 . S
C1751 C1750 1.387 . S
C1751 C1753 1.387 . S
H1752 C1759 0.950 . S
C1753 C1751 1.387 . S
C1753 C1755 1.390 . S
C1753 H1757 0.950 . S
H1754 C1750 0.950 . S
C1755 C1753 1.390 . S
C1755 C1756 1.387 . S
C1755 H1758 0.950 . S
C1756 C1755 1.387 . S
C1756 C1759 1.387 . S
H1757 C1753 0.950 . S
H1758 C1755 0.950 . S
C1759 C1750 1.390 . S
C1759 H1752 0.950 . S
C1759 C1756 1.387 . S
C1760 C1761 1.387 1_545 S
C1760 H1764 0.950 . S
C1760 C1769 1.390 . S
C1761 C1760 1.387 1_565 S
C1761 C1763 1.387 . S
H1762 C1769 0.950 . S
C1763 C1761 1.387 . S
C1763 C1765 1.390 . S
C1763 H1767 0.950 . S
H1764 C1760 0.950 . S
C1765 C1763 1.390 . S
C1765 C1766 1.387 . S
C1765 H1768 0.950 . S
C1766 C1765 1.387 . S
C1766 C1769 1.387 1_565 S
H1767 C1763 0.950 . S
H1768 C1765 0.950 . S
C1769 C1760 1.390 . S
C1769 H1762 0.950 . S
C1769 C1766 1.387 1_545 S
C1770 C1771 1.387 . S
C1770 H1774 0.950 . S
C1770 C1779 1.390 . S
C1771 C1770 1.387 . S
C1771 C1773 1.387 . S
H1772 C1779 0.950 . S
C1773 C1771 1.387 . S
C1773 C1775 1.390 . S
C1773 H1777 0.950 . S
H1774 C1770 0.950 . S
C1775 C1773 1.390 . S
C1775 C1776 1.387 . S
C1775 H1778 0.950 . S
C1776 C1775 1.387 . S
C1776 C1779 1.387 . S
H1777 C1773 0.950 . S
H1778 C1775 0.950 . S
C1779 C1770 1.390 . S
C1779 H1772 0.950 . S
C1779 C1776 1.387 . S
C1780 C1781 1.387 . S
C1780 H1784 0.950 . S
C1780 C1789 1.390 . S
C1781 C1780 1.387 . S
C1781 C1783 1.387 . S
H1782 C1789 0.950 . S
C1783 C1781 1.387 . S
C1783 C1785 1.390 . S
C1783 H1787 0.950 . S
H1784 C1780 0.950 . S
C1785 C1783 1.390 . S
C1785 C1786 1.387 . S
C1785 H1788 0.950 . S
C1786 C1785 1.387 . S
C1786 C1789 1.387 . S
H1787 C1783 0.950 . S
H1788 C1785 0.950 . S
C1789 C1780 1.390 . S
C1789 H1782 0.950 . S
C1789 C1786 1.387 . S
C1790 C1791 1.387 . S
C1790 H1794 0.950 . S
C1790 C1799 1.390 . S
C1791 C1790 1.387 . S
C1791 C1793 1.387 1_565 S
H1792 C1799 0.950 . S
C1793 C1791 1.387 1_545 S
C1793 C1795 1.390 . S
C1793 H1797 0.950 . S
H1794 C1790 0.950 . S
C1795 C1793 1.390 . S
C1795 C1796 1.387 1_545 S
C1795 H1798 0.950 . S
C1796 C1795 1.387 1_565 S
C1796 C1799 1.387 . S
H1797 C1793 0.950 . S
H1798 C1795 0.950 . S
C1799 C1790 1.390 . S
C1799 H1792 0.950 . S
C1799 C1796 1.387 . S
C1800 C1801 1.387 . S
C1800 H1804 0.950 . S
C1800 C1809 1.390 . S
C1801 C1800 1.387 . S
C1801 C1803 1.387 1_545 S
H1802 C1809 0.950 . S
C1803 C1801 1.387 1_565 S
C1803 C1805 1.390 . S
C1803 H1807 0.950 . S
H1804 C1800 0.950 . S
C1805 C1803 1.390 . S
C1805 C1806 1.387 1_565 S
C1805 H1808 0.950 . S
C1806 C1805 1.387 1_545 S
C1806 C1809 1.387 . S
H1807 C1803 0.950 . S
H1808 C1805 0.950 . S
C1809 C1800 1.390 . S
C1809 H1802 0.950 . S
C1809 C1806 1.387 . S
C1810 C1811 1.387 . S
C1810 H1814 0.950 . S
C1810 C1819 1.390 . S
C1811 C1810 1.387 . S
C1811 C1813 1.387 . S
H1812 C1819 0.950 . S
C1813 C1811 1.387 . S
C1813 C1815 1.390 . S
C1813 H1817 0.950 . S
H1814 C1810 0.950 . S
C1815 C1813 1.390 . S
C1815 C1816 1.387 . S
C1815 H1818 0.950 . S
C1816 C1815 1.387 . S
C1816 C1819 1.387 . S
H1817 C1813 0.950 . S
H1818 C1815 0.950 . S
C1819 C1810 1.390 . S
C1819 H1812 0.950 . S
C1819 C1816 1.387 . S
C1820 C1821 1.387 . S
C1820 H1824 0.950 . S
C1820 C1829 1.390 . S
C1821 C1820 1.387 . S
C1821 C1823 1.387 . S
H1822 C1829 0.950 . S
C1823 C1821 1.387 . S
C1823 C1825 1.390 . S
C1823 H1827 0.950 . S
H1824 C1820 0.950 . S
C1825 C1823 1.390 . S
C1825 C1826 1.387 . S
C1825 H1828 0.950 . S
C1826 C1825 1.387 . S
C1826 C1829 1.387 . S
H1827 C1823 0.950 . S
H1828 C1825 0.950 . S
C1829 C1820 1.390 . S
C1829 H1822 0.950 . S
C1829 C1826 1.387 . S
C1830 C1831 1.387 1_565 S
C1830 H1834 0.950 . S
C1830 C1839 1.390 . S
C1831 C1830 1.387 1_545 S
C1831 C1833 1.387 . S
H1832 C1839 0.950 . S
C1833 C1831 1.387 . S
C1833 C1835 1.390 . S
C1833 H1837 0.950 . S
H1834 C1830 0.950 . S
C1835 C1833 1.390 . S
C1835 C1836 1.387 . S
C1835 H1838 0.950 . S
C1836 C1835 1.387 . S
C1836 C1839 1.387 1_545 S
H1837 C1833 0.950 . S
H1838 C1835 0.950 . S
C1839 C1830 1.390 . S
C1839 H1832 0.950 . S
C1839 C1836 1.387 1_565 S
C1840 C1841 1.387 . S
C1840 H1844 0.950 1_556 S
C1840 C1849 1.390 . S
C1841 C1840 1.387 . S
C1841 C1843 1.387 . S
H1842 C1849 0.950 1_554 S
C1843 C1841 1.387 . S
C1843 C1845 1.390 . S
C1843 H1847 0.950 . S
H1844 C1840 0.950 1_554 S
C1845 C1843 1.390 . S
C1845 C1846 1.387 . S
C1845 H1848 0.950 . S
C1846 C1845 1.387 . S
C1846 C1849 1.387 . S
H1847 C1843 0.950 . S
H1848 C1845 0.950 . S
C1849 C1840 1.390 . S
C1849 H1842 0.950 1_556 S
C1849 C1846 1.387 . S
C1850 C1851 1.387 . S
C1850 H1854 0.950 . S
C1850 C1859 1.390 . S
C1851 C1850 1.387 . S
C1851 C1853 1.387 . S
H1852 C1859 0.950 . S
C1853 C1851 1.387 . S
C1853 C1855 1.390 . S
C1853 H1857 0.950 1_556 S
H1854 C1850 0.950 . S
C1855 C1853 1.390 . S
C1855 C1856 1.387 . S
C1855 H1858 0.950 1_556 S
C1856 C1855 1.387 . S
C1856 C1859 1.387 . S
H1857 C1853 0.950 1_554 S
H1858 C1855 0.950 1_554 S
C1859 C1850 1.390 . S
C1859 H1852 0.950 . S
C1859 C1856 1.387 . S
C1860 C1861 1.387 . S
C1860 H1864 0.950 . S
C1860 C1869 1.390 . S
C1861 C1860 1.387 . S
C1861 C1863 1.387 . S
H1862 C1869 0.950 . S
C1863 C1861 1.387 . S
C1863 C1865 1.390 . S
C1863 H1867 0.950 . S
H1864 C1860 0.950 . S
C1865 C1863 1.390 . S
C1865 C1866 1.387 . S
C1865 H1868 0.950 . S
C1866 C1865 1.387 . S
C1866 C1869 1.387 . S
H1867 C1863 0.950 . S
H1868 C1865 0.950 . S
C1869 C1860 1.390 . S
C1869 H1862 0.950 . S
C1869 C1866 1.387 . S
C1870 C1871 1.387 . S
C1870 H1874 0.950 . S
C1870 C1879 1.390 . S
C1871 C1870 1.387 . S
C1871 C1873 1.387 . S
H1872 C1879 0.950 . S
C1873 C1871 1.387 . S
C1873 C1875 1.390 . S
C1873 H1877 0.950 . S
H1874 C1870 0.950 . S
C1875 C1873 1.390 . S
C1875 C1876 1.387 . S
C1875 H1878 0.950 . S
C1876 C1875 1.387 . S
C1876 C1879 1.387 . S
H1877 C1873 0.950 . S
H1878 C1875 0.950 . S
C1879 C1870 1.390 . S
C1879 H1872 0.950 . S
C1879 C1876 1.387 . S
C1880 C1881 1.387 . S
C1880 H1884 0.950 . S
C1880 C1889 1.390 . S
C1881 C1880 1.387 . S
C1881 C1883 1.387 . S
H1882 C1889 0.950 . S
C1883 C1881 1.387 . S
C1883 C1885 1.390 . S
C1883 H1887 0.950 1_554 S
H1884 C1880 0.950 . S
C1885 C1883 1.390 . S
C1885 C1886 1.387 . S
C1885 H1888 0.950 1_554 S
C1886 C1885 1.387 . S
C1886 C1889 1.387 . S
H1887 C1883 0.950 1_556 S
H1888 C1885 0.950 1_556 S
C1889 C1880 1.390 . S
C1889 H1882 0.950 . S
C1889 C1886 1.387 . S
C1890 C1891 1.387 . S
C1890 H1894 0.950 1_554 S
C1890 C1899 1.390 . S
C1891 C1890 1.387 . S
C1891 C1893 1.387 . S
H1892 C1899 0.950 1_556 S
C1893 C1891 1.387 . S
C1893 C1895 1.390 . S
C1893 H1897 0.950 . S
H1894 C1890 0.950 1_556 S
C1895 C1893 1.390 . S
C1895 C1896 1.387 . S
C1895 H1898 0.950 . S
C1896 C1895 1.387 . S
C1896 C1899 1.387 . S
H1897 C1893 0.950 . S
H1898 C1895 0.950 . S
C1899 C1890 1.390 . S
C1899 H1892 0.950 1_554 S
C1899 C1896 1.387 . S
C1900 C1901 1.387 . S
C1900 H1904 0.950 . S
C1900 C1909 1.390 . S
C1901 C1900 1.387 . S
C1901 C1903 1.387 . S
H1902 C1909 0.950 . S
C1903 C1901 1.387 . S
C1903 C1905 1.390 . S
C1903 H1907 0.950 . S
H1904 C1900 0.950 . S
C1905 C1903 1.390 . S
C1905 C1906 1.387 . S
C1905 H1908 0.950 . S
C1906 C1905 1.387 . S
C1906 C1909 1.387 . S
H1907 C1903 0.950 . S
H1908 C1905 0.950 . S
C1909 C1900 1.390 . S
C1909 H1902 0.950 . S
C1909 C1906 1.387 . S
C1910 C1911 1.387 . S
C1910 H1914 0.950 . S
C1910 C1919 1.390 . S
C1911 C1910 1.387 . S
C1911 C1913 1.387 . S
H1912 C1919 0.950 . S
C1913 C1911 1.387 . S
C1913 C1915 1.390 . S
C1913 H1917 0.950 . S
H1914 C1910 0.950 . S
C1915 C1913 1.390 . S
C1915 C1916 1.387 . S
C1915 H1918 0.950 . S
C1916 C1915 1.387 . S
C1916 C1919 1.387 . S
H1917 C1913 0.950 . S
H1918 C1915 0.950 . S
C1919 C1910 1.390 . S
C1919 H1912 0.950 . S
C1919 C1916 1.387 . S
C961 C751 2.112 . S
C966 C1 2.112 . S
C971 C721 2.110 . S
C976 C31 2.110 . S
C981 C811 2.112 . S
C986 C61 2.112 . S
C991 C781 2.112 . S
C996 C91 2.112 . S
C1001 C130 2.110 . S
C1006 C880 2.110 . S
C1011 C160 2.110 . S
C1016 C850 2.110 . S
C1021 C190 2.112 . S
C1026 C940 2.112 . S
C1031 C910 2.112 . S
C1036 C220 2.112 . S
C1041 C511 2.112 . S
C1046 C241 2.112 . S
C1051 C481 2.112 . S
C1056 C271 2.112 . S
C1061 C571 2.112 . S
C1066 C301 2.112 . S
C1071 C541 2.112 . S
C1076 C331 2.112 . S
C1081 C370 2.112 . S
C1086 C640 2.112 . S
C1091 C610 2.110 . S
C1096 C400 2.110 . S
C1101 C430 2.110 . S
C1106 C700 2.110 . S
C1111 C670 2.110 . S
C1116 C460 2.110 . S
C1121 C16 2.841 . S
C1126 C627 2.841 . S
C1131 C417 2.842 . S
C1136 C46 2.842 . S
C1141 C927 2.842 . S
C1146 C76 2.842 . S
C1151 C106 2.842 . S
C1156 C237 2.842 . S
C1161 C147 2.842 . S
C1166 C496 2.842 . S
C1171 C177 2.842 . S
C1176 C286 2.842 . S
C1181 C207 2.842 . S
C1186 C796 2.842 . S
C1191 C867 2.841 . S
C1196 C256 2.841 . S
C1201 C687 2.841 . S
C1206 C316 2.841 . S
C1211 C477 2.842 . S
C1216 C346 2.842 . S
C1221 C736 2.842 . S
C1226 C387 2.842 . S
C1231 C447 2.842 . S
C1236 C556 2.842 . S
C1241 C897 2.842 . S
C1246 C526 2.842 . S
C1251 C586 2.842 . S
C1256 C717 2.842 . S
C1261 C766 2.842 . S
C1266 C657 2.842 . S
C1271 C826 2.841 . S
C1276 C957 2.841 . S
C1281 C27 2.410 . S
C1286 C597 2.409 . S
C1291 C57 2.409 . S
C1296 C567 2.409 . S
C1301 C87 2.409 . S
C1306 C537 2.409 . S
C1311 C117 2.409 . S
C1316 C507 2.409 . S
C1321 C136 2.409 . S
C1326 C706 2.409 . S
C1331 C166 2.409 . S
C1336 C676 2.409 . S
C1341 C196 2.409 . S
C1346 C646 2.409 . S
C1351 C226 2.410 . S
C1356 C616 2.410 . S
C1361 C267 2.410 . S
C1366 C837 2.409 . S
C1371 C297 2.409 . S
C1376 C807 2.409 . S
C1381 C327 2.409 . S
C1386 C777 2.409 . S
C1391 C357 2.410 . S
C1396 C747 2.410 . S
C1401 C946 2.409 . S
C1406 C376 2.409 . S
C1411 C916 2.409 . S
C1416 C406 2.409 . S
C1421 C886 2.409 . S
C1426 C436 2.409 . S
C1431 C856 2.409 . S
C1436 C466 2.409 . S
C1441 C70 1.458 . S
C1446 C10 1.458 . S
C1451 C100 1.456 . S
C1456 C40 1.456 . S
C1461 C181 1.458 . S
C1466 C121 1.458 . S
C1471 C151 1.458 . S
C1476 C211 1.458 . S
C1481 C310 1.455 . S
C1486 C250 1.455 . S
C1491 C280 1.458 . S
C1496 C340 1.458 . S
C1501 C421 1.455 . S
C1506 C361 1.455 . S
C1511 C391 1.458 . S
C1516 C451 1.458 . S
C1521 C490 1.455 . S
C1526 C550 1.455 . S
C1531 C520 1.456 . S
C1536 C580 1.456 . S
C1541 C661 1.455 . S
C1546 C601 1.455 . S
C1551 C631 1.458 . S
C1556 C691 1.458 . S
C1561 C730 1.458 . S
C1566 C790 1.458 . S
C1571 C820 1.456 . S
C1576 C760 1.456 . S
C1581 C841 1.458 . S
C1586 C901 1.458 . S
C1591 C871 1.458 . S
C1596 C931 1.458 . S
C1601 N14 0.754 . S
C1606 N224 0.744 . S
C1611 N914 0.734 . S
C1616 N44 0.737 . S
C1621 N74 0.742 . S
C1626 N404 0.741 . S
C1631 N104 0.757 . S
C1636 N614 0.739 . S
C1641 N96 0.737 . S
C1646 N126 0.749 . S
C1651 N156 0.742 . S
C1656 N786 0.741 . S
C1661 N276 0.740 . S
C1666 N186 0.742 . S
C1671 N486 0.739 . S
C1676 N216 0.757 . S
C1681 N254 0.741 . S
C1686 N464 0.738 . S
C1691 N674 0.737 . S
C1696 N284 0.733 . S
C1701 N314 0.742 . S
C1706 N164 0.742 . S
C1711 N854 0.740 . S
C1716 N344 0.734 . S
C1721 N366 0.733 . S
C1726 N336 0.738 . S
C1731 N396 0.733 . S
C1736 N546 0.738 . S
C1741 N426 0.742 . S
C1746 N36 0.740 . S
C1751 N726 0.738 . S
C1756 N456 0.733 . S
C1761 N494 0.749 . S
C1766 N704 0.737 . S
C1771 N524 0.733 . S
C1776 N434 0.737 . S
C1781 N554 0.742 . S
C1786 N884 0.740 . S
C1791 N584 0.758 . S
C1796 N134 0.742 . S
C1801 N606 0.749 . S
C1806 N576 0.737 . S
C1811 N306 0.742 . S
C1816 N636 0.736 . S
C1821 N756 0.744 . S
C1826 N666 0.739 . S
C1831 N696 0.758 . S
C1836 N6 0.742 . S
C1841 N944 0.739 . S
C1846 N734 0.742 . S
C1851 N194 0.739 . S
C1856 N764 0.734 . S
C1861 N644 0.738 . S
C1866 N794 0.734 . S
C1871 N824 0.742 . S
C1876 N374 0.740 . S
C1881 N816 0.739 . S
C1886 N846 0.742 . S
C1891 N66 0.739 . S
C1896 N876 0.734 . S
C1901 N516 0.738 . S
C1906 N906 0.734 . S
C1911 N936 0.742 . S
C1916 N246 0.742 . S
