# Generated by pormake.
# Topology umd, (4)-cn, num edge types: 1
# Building blocks:
#     Node 0, Type 0, BuildingBlock: MUDLON_clean_sbu_0, # of connection points: 4
#     Node 1, Type 0, BuildingBlock: MUDLON_clean_sbu_0, # of connection points: 4
#     Node 2, Type 0, BuildingBlock: MUDLON_clean_sbu_0, # of connection points: 4
#     Node 3, Type 0, BuildingBlock: MUDLON_clean_sbu_0, # of connection points: 4
#     Node 4, Type 0, BuildingBlock: MUDLON_clean_sbu_0, # of connection points: 4
#     Node 5, Type 0, BuildingBlock: MUDLON_clean_sbu_0, # of connection points: 4
#     Node 6, Type 0, BuildingBlock: MUDLON_clean_sbu_0, # of connection points: 4
#     Node 7, Type 0, BuildingBlock: MUDLON_clean_sbu_0, # of connection points: 4
#     Node 8, Type 0, BuildingBlock: MUDLON_clean_sbu_0, # of connection points: 4
#     Node 9, Type 0, BuildingBlock: MUDLON_clean_sbu_0, # of connection points: 4
#     Node 10, Type 0, BuildingBlock: MUDLON_clean_sbu_0, # of connection points: 4
#     Node 11, Type 0, BuildingBlock: MUDLON_clean_sbu_0, # of connection points: 4
#     Node 12, Type 0, BuildingBlock: MUDLON_clean_sbu_0, # of connection points: 4
#     Node 13, Type 0, BuildingBlock: MUDLON_clean_sbu_0, # of connection points: 4
#     Node 14, Type 0, BuildingBlock: MUDLON_clean_sbu_0, # of connection points: 4
#     Node 15, Type 0, BuildingBlock: MUDLON_clean_sbu_0, # of connection points: 4
#     Edge 16, Type (0, 0), BuildingBlock: KIFKEQ_clean_linker_1, # of connection points: 2
#     Edge 17, Type (0, 0), BuildingBlock: KIFKEQ_clean_linker_1, # of connection points: 2
#     Edge 18, Type (0, 0), BuildingBlock: KIFKEQ_clean_linker_1, # of connection points: 2
#     Edge 19, Type (0, 0), BuildingBlock: KIFKEQ_clean_linker_1, # of connection points: 2
#     Edge 20, Type (0, 0), BuildingBlock: KIFKEQ_clean_linker_1, # of connection points: 2
#     Edge 21, Type (0, 0), BuildingBlock: KIFKEQ_clean_linker_1, # of connection points: 2
#     Edge 22, Type (0, 0), BuildingBlock: KIFKEQ_clean_linker_1, # of connection points: 2
#     Edge 23, Type (0, 0), BuildingBlock: KIFKEQ_clean_linker_1, # of connection points: 2
#     Edge 24, Type (0, 0), BuildingBlock: KIFKEQ_clean_linker_1, # of connection points: 2
#     Edge 25, Type (0, 0), BuildingBlock: KIFKEQ_clean_linker_1, # of connection points: 2
#     Edge 26, Type (0, 0), BuildingBlock: KIFKEQ_clean_linker_1, # of connection points: 2
#     Edge 27, Type (0, 0), BuildingBlock: KIFKEQ_clean_linker_1, # of connection points: 2
#     Edge 28, Type (0, 0), BuildingBlock: KIFKEQ_clean_linker_1, # of connection points: 2
#     Edge 29, Type (0, 0), BuildingBlock: KIFKEQ_clean_linker_1, # of connection points: 2
#     Edge 30, Type (0, 0), BuildingBlock: KIFKEQ_clean_linker_1, # of connection points: 2
#     Edge 31, Type (0, 0), BuildingBlock: KIFKEQ_clean_linker_1, # of connection points: 2
#     Edge 32, Type (0, 0), BuildingBlock: KIFKEQ_clean_linker_1, # of connection points: 2
#     Edge 33, Type (0, 0), BuildingBlock: KIFKEQ_clean_linker_1, # of connection points: 2
#     Edge 34, Type (0, 0), BuildingBlock: KIFKEQ_clean_linker_1, # of connection points: 2
#     Edge 35, Type (0, 0), BuildingBlock: KIFKEQ_clean_linker_1, # of connection points: 2
#     Edge 36, Type (0, 0), BuildingBlock: KIFKEQ_clean_linker_1, # of connection points: 2
#     Edge 37, Type (0, 0), BuildingBlock: KIFKEQ_clean_linker_1, # of connection points: 2
#     Edge 38, Type (0, 0), BuildingBlock: KIFKEQ_clean_linker_1, # of connection points: 2
#     Edge 39, Type (0, 0), BuildingBlock: KIFKEQ_clean_linker_1, # of connection points: 2
#     Edge 40, Type (0, 0), BuildingBlock: KIFKEQ_clean_linker_1, # of connection points: 2
#     Edge 41, Type (0, 0), BuildingBlock: KIFKEQ_clean_linker_1, # of connection points: 2
#     Edge 42, Type (0, 0), BuildingBlock: KIFKEQ_clean_linker_1, # of connection points: 2
#     Edge 43, Type (0, 0), BuildingBlock: KIFKEQ_clean_linker_1, # of connection points: 2
#     Edge 44, Type (0, 0), BuildingBlock: KIFKEQ_clean_linker_1, # of connection points: 2
#     Edge 45, Type (0, 0), BuildingBlock: KIFKEQ_clean_linker_1, # of connection points: 2
#     Edge 46, Type (0, 0), BuildingBlock: KIFKEQ_clean_linker_1, # of connection points: 2
#     Edge 47, Type (0, 0), BuildingBlock: KIFKEQ_clean_linker_1, # of connection points: 2
# Relax obj value: 0.014
# Max RMSD: 0.192
# Mean RMSD: 0.192
data_MOF--net-umd--node1-MUDLON_clean_sbu_0--edge1-KIFKEQ_clean_linker_1
_symmetry_space_group_name_H-M    P1
_symmetry_Int_Tables_number       1
_symmetry_cell_setting            triclinic
loop_
_symmetry_equiv_pos_as_xyz
'x, y, z'
_cell_length_a     41.505474
_cell_length_b     41.549825
_cell_length_c     60.27977
_cell_angle_alpha  89.791853
_cell_angle_beta   90.203808
_cell_angle_gamma 90.086988
loop_
_atom_site_label
_atom_site_type_symbol
_atom_site_fract_x
_atom_site_fract_y
_atom_site_fract_z
_atom_type_partial_charge
Mg0 Mg 0.18797 0.45739 0.14849 0.0
C1 C 0.19428 0.49411 0.10436 0.0
O2 O 0.16563 0.50489 0.1097 0.0
C3 C 0.21351 0.50299 0.18595 0.0
O4 O 0.21158 0.52622 0.17117 0.0
C5 C 0.20955 0.39085 0.16381 0.0
O6 O 0.20642 0.40388 0.18351 0.0
O7 O 0.20107 0.40689 0.14677 0.0
O8 O 0.20966 0.47669 0.1182 0.0
O9 O 0.13595 0.46466 0.14793 0.0
C10 C 0.12518 0.49252 0.1525 0.0
O11 O 0.14572 0.51552 0.15737 0.0
O12 O 0.20651 0.47435 0.18033 0.0
Mg13 Mg 0.56338 0.19782 0.65302 0.0
C14 C 0.54136 0.1945 0.60613 0.0
O15 O 0.55303 0.16555 0.60961 0.0
C16 C 0.55433 0.20399 0.70096 0.0
O17 O 0.58045 0.18641 0.69895 0.0
C18 C 0.61932 0.24088 0.66302 0.0
O19 O 0.59631 0.25464 0.67448 0.0
O20 O 0.61297 0.21518 0.65245 0.0
O21 O 0.5413 0.21447 0.62209 0.0
O22 O 0.55944 0.14562 0.65426 0.0
C23 C 0.53089 0.13442 0.65358 0.0
O24 O 0.50666 0.15466 0.65222 0.0
O25 O 0.54044 0.21404 0.6834 0.0
Mg26 Mg 0.82154 0.56824 0.15265 0.0
C27 C 0.78608 0.55643 0.10905 0.0
O28 O 0.77071 0.58258 0.11509 0.0
C29 C 0.81566 0.52163 0.19113 0.0
O30 O 0.83751 0.50644 0.17946 0.0
C31 C 0.78874 0.63026 0.16577 0.0
O32 O 0.78435 0.6136 0.18408 0.0
O33 O 0.80502 0.61785 0.15016 0.0
O34 O 0.80638 0.54392 0.12237 0.0
O35 O 0.87391 0.5644 0.15385 0.0
C36 C 0.88674 0.54104 0.14352 0.0
O37 O 0.8681 0.52132 0.13232 0.0
O38 O 0.80333 0.54726 0.1833 0.0
Mg39 Mg 0.46265 0.8297 0.64907 0.0
C40 C 0.48176 0.83486 0.60212 0.0
O41 O 0.46418 0.86066 0.60537 0.0
C42 C 0.47813 0.79327 0.69273 0.0
O43 O 0.45619 0.77268 0.68598 0.0
C44 C 0.39444 0.80446 0.6618 0.0
O45 O 0.3995 0.81821 0.6811 0.0
O46 O 0.41547 0.8072 0.64662 0.0
O47 O 0.487 0.81602 0.61844 0.0
O48 O 0.46245 0.88205 0.6502 0.0
C49 C 0.49036 0.89448 0.64827 0.0
O50 O 0.51515 0.87526 0.64558 0.0
O51 O 0.48641 0.81632 0.68 0.0
Mg52 Mg 0.19307 0.56419 0.39354 0.0
C53 C 0.19117 0.53094 0.43891 0.0
O54 O 0.16064 0.52781 0.43358 0.0
C55 C 0.22446 0.55896 0.34833 0.0
O56 O 0.23277 0.58852 0.35345 0.0
C57 C 0.23961 0.61614 0.40192 0.0
O58 O 0.25415 0.58996 0.40901 0.0
O59 O 0.21116 0.61361 0.39414 0.0
O60 O 0.21054 0.54276 0.42468 0.0
O61 O 0.1407 0.56005 0.39306 0.0
C62 C 0.12983 0.53233 0.38802 0.0
O63 O 0.15045 0.50952 0.38304 0.0
O64 O 0.20944 0.54204 0.36263 0.0
Mg65 Mg 0.45113 0.18872 0.90047 0.0
C66 C 0.48542 0.19098 0.94539 0.0
O67 O 0.4928 0.16132 0.94003 0.0
C68 C 0.45663 0.20553 0.85294 0.0
O69 O 0.42739 0.19354 0.85434 0.0
C70 C 0.38689 0.21272 0.91718 0.0
O71 O 0.40267 0.2103 0.93604 0.0
O72 O 0.40039 0.20302 0.8995 0.0
O73 O 0.47039 0.20843 0.93138 0.0
O74 O 0.46051 0.13696 0.89965 0.0
C75 C 0.48967 0.12952 0.89563 0.0
O76 O 0.51049 0.15279 0.89198 0.0
O77 O 0.47333 0.20803 0.87059 0.0
Mg78 Mg 0.82796 0.45081 0.39746 0.0
C79 C 0.81679 0.4548 0.44537 0.0
O80 O 0.82765 0.42549 0.44222 0.0
C81 C 0.80481 0.45354 0.35094 0.0
O82 O 0.80757 0.42253 0.35474 0.0
C83 C 0.77998 0.39931 0.40522 0.0
O84 O 0.76494 0.42547 0.41163 0.0
O85 O 0.8088 0.40178 0.39828 0.0
O86 O 0.81353 0.4733 0.42863 0.0
O87 O 0.88032 0.45385 0.3959 0.0
C88 C 0.89328 0.47839 0.40486 0.0
O89 O 0.87478 0.4991 0.41519 0.0
O90 O 0.81056 0.473 0.36676 0.0
Mg91 Mg 0.56984 0.82856 0.89469 0.0
C92 C 0.56894 0.81485 0.94329 0.0
O93 O 0.59964 0.82038 0.93963 0.0
C94 C 0.52636 0.82627 0.85473 0.0
O95 O 0.51968 0.85506 0.86236 0.0
C96 C 0.62206 0.78065 0.89935 0.0
O97 O 0.59643 0.76506 0.90631 0.0
O98 O 0.61895 0.80977 0.89308 0.0
O99 O 0.54937 0.81596 0.92699 0.0
O100 O 0.56581 0.8807 0.89115 0.0
C101 C 0.56927 0.90033 0.90712 0.0
O102 O 0.57896 0.88953 0.92652 0.0
O103 O 0.54497 0.80816 0.866 0.0
Mg104 Mg 0.83373 0.56521 0.90075 0.0
C105 C 0.83039 0.552 0.9483 0.0
O106 O 0.8571 0.56855 0.94561 0.0
C107 C 0.83825 0.54694 0.85415 0.0
O108 O 0.86526 0.56224 0.85848 0.0
C109 C 0.80722 0.62978 0.88445 0.0
O110 O 0.80782 0.61512 0.86519 0.0
O111 O 0.819 0.61559 0.90137 0.0
O112 O 0.81345 0.54535 0.93127 0.0
O113 O 0.88558 0.55562 0.90205 0.0
C114 C 0.89373 0.52793 0.90924 0.0
O115 O 0.87123 0.50815 0.91628 0.0
O116 O 0.8176 0.54382 0.86959 0.0
Mg117 Mg 0.46036 0.8267 0.39727 0.0
C118 C 0.47897 0.79436 0.4407 0.0
O119 O 0.45566 0.77481 0.43465 0.0
C120 C 0.47213 0.7913 0.35325 0.0
O121 O 0.44541 0.77613 0.35845 0.0
C122 C 0.39001 0.80409 0.3876 0.0
O123 O 0.39243 0.82074 0.36911 0.0
O124 O 0.41343 0.80386 0.40127 0.0
O125 O 0.48771 0.81655 0.42741 0.0
O126 O 0.45876 0.87891 0.39529 0.0
C127 C 0.45927 0.89567 0.4129 0.0
O128 O 0.45717 0.88103 0.4322 0.0
O129 O 0.48409 0.81145 0.36685 0.0
Mg130 Mg 0.19421 0.44888 0.89631 0.0
C131 C 0.22774 0.4659 0.94097 0.0
O132 O 0.25116 0.44737 0.93393 0.0
C133 C 0.20947 0.45669 0.84926 0.0
O134 O 0.19679 0.42777 0.85088 0.0
C135 C 0.21354 0.38071 0.91227 0.0
O136 O 0.19889 0.38908 0.93065 0.0
O137 O 0.21351 0.40004 0.89586 0.0
O138 O 0.20375 0.4714 0.92833 0.0
O139 O 0.1424 0.45419 0.8924 0.0
C140 C 0.12062 0.43947 0.90319 0.0
O141 O 0.12868 0.41608 0.91682 0.0
O142 O 0.21327 0.47298 0.86694 0.0
Mg143 Mg 0.55856 0.19121 0.40273 0.0
C144 C 0.54634 0.23006 0.44448 0.0
O145 O 0.57268 0.24472 0.43784 0.0
C146 C 0.54521 0.18984 0.35474 0.0
O147 O 0.56315 0.16422 0.35804 0.0
C148 C 0.62452 0.21792 0.38912 0.0
O149 O 0.61222 0.21541 0.3691 0.0
O150 O 0.60833 0.20774 0.40561 0.0
O151 O 0.53373 0.20876 0.43206 0.0
O152 O 0.5521 0.13916 0.40376 0.0
C153 C 0.52399 0.13009 0.40944 0.0
O154 O 0.5025 0.15211 0.41436 0.0
O155 O 0.53828 0.20741 0.37129 0.0
Mg156 Mg 0.82881 0.45843 0.65045 0.0
C157 C 0.82372 0.49563 0.60699 0.0
O158 O 0.85197 0.50637 0.6135 0.0
C159 C 0.82562 0.46369 0.69805 0.0
O160 O 0.84212 0.4375 0.69369 0.0
C161 C 0.80021 0.39381 0.63689 0.0
O162 O 0.80025 0.40753 0.61722 0.0
O163 O 0.81263 0.40874 0.6532 0.0
O164 O 0.8076 0.47772 0.62005 0.0
O165 O 0.88102 0.46332 0.64868 0.0
C166 C 0.89302 0.48914 0.6565 0.0
O167 O 0.87357 0.51061 0.66512 0.0
O168 O 0.81463 0.48004 0.68181 0.0
Mg169 Mg 0.55977 0.82759 0.15034 0.0
C170 C 0.52644 0.82772 0.10524 0.0
O171 O 0.51857 0.85688 0.11154 0.0
C172 C 0.55584 0.80571 0.19709 0.0
O173 O 0.5864 0.81322 0.1948 0.0
C174 C 0.62363 0.79888 0.13585 0.0
O175 O 0.60764 0.79564 0.11715 0.0
O176 O 0.61026 0.81326 0.15196 0.0
O177 O 0.54113 0.80939 0.11886 0.0
O178 O 0.5535 0.87955 0.15112 0.0
C179 C 0.52719 0.89018 0.159 0.0
O180 O 0.50583 0.86951 0.16652 0.0
O181 O 0.53728 0.80827 0.1803 0.0
Mg182 Mg 0.19614 0.56477 0.649 0.0
C183 C 0.21451 0.56384 0.60119 0.0
O184 O 0.21219 0.59478 0.60525 0.0
C185 C 0.20672 0.55501 0.69654 0.0
O186 O 0.1934 0.58359 0.69487 0.0
C187 C 0.24702 0.61382 0.64923 0.0
O188 O 0.26236 0.58666 0.64576 0.0
O189 O 0.21656 0.613 0.65138 0.0
O190 O 0.21002 0.54402 0.61706 0.0
O191 O 0.14383 0.56287 0.64984 0.0
C192 C 0.13246 0.53452 0.65169 0.0
O193 O 0.15269 0.51029 0.65304 0.0
O194 O 0.21222 0.53944 0.67879 0.0
Mg195 Mg 0.44515 0.19109 0.15455 0.0
C196 C 0.44661 0.20548 0.10659 0.0
O197 O 0.41642 0.19751 0.11013 0.0
C198 C 0.45433 0.21301 0.20113 0.0
O199 O 0.42281 0.21101 0.19971 0.0
C200 C 0.39373 0.23958 0.15002 0.0
O201 O 0.41965 0.25503 0.14343 0.0
O202 O 0.39639 0.21034 0.15606 0.0
O203 O 0.46611 0.20564 0.12293 0.0
O204 O 0.44798 0.13892 0.15542 0.0
C205 C 0.47649 0.1282 0.1578 0.0
O206 O 0.50028 0.14894 0.15966 0.0
O207 O 0.47103 0.20747 0.18389 0.0
H208 H 0.07523 0.44989 0.14757 0.0
H209 H 0.09601 0.55112 0.15549 0.0
H210 H 0.01776 0.46189 0.14605 0.0
H211 H 0.03878 0.56325 0.15324 0.0
H212 H 0.93171 0.57072 0.16998 0.0
H213 H 0.98909 0.55856 0.17286 0.0
H214 H 0.97853 0.48585 0.12224 0.0
H215 H 0.92123 0.49731 0.11988 0.0
C216 C 0.06755 0.47471 0.14888 0.0
C217 C 0.09021 0.49952 0.15165 0.0
C218 C 0.03459 0.48165 0.14788 0.0
C219 C 0.02354 0.51359 0.14946 0.0
C220 C 0.04629 0.53835 0.15231 0.0
C221 C 0.07919 0.53139 0.15346 0.0
C222 C 0.94169 0.55221 0.15944 0.0
C223 C 0.92187 0.53496 0.14474 0.0
C224 C 0.97463 0.54529 0.16102 0.0
C225 C 0.98851 0.5211 0.14784 0.0
C226 C 0.96864 0.50418 0.13296 0.0
C227 C 0.93576 0.51095 0.13148 0.0
H228 H 0.54416 0.92753 0.63622 0.0
H229 H 0.44813 0.94112 0.66188 0.0
H230 H 0.55353 0.98517 0.63763 0.0
H231 H 0.45791 0.99899 0.66417 0.0
H232 H 0.47452 0.10372 0.64384 0.0
H233 H 0.46435 0.04611 0.64247 0.0
H234 H 0.56287 0.02798 0.66238 0.0
H235 H 0.57332 0.08573 0.66285 0.0
C236 C 0.52508 0.94285 0.64233 0.0
C237 C 0.49539 0.92974 0.64895 0.0
C238 C 0.53056 0.97597 0.64331 0.0
C239 C 0.50661 0.99689 0.65117 0.0
C240 C 0.4768 0.98373 0.65774 0.0
C241 C 0.4712 0.95053 0.65653 0.0
C242 C 0.49402 0.08743 0.64795 0.0
C243 C 0.52478 0.0993 0.65338 0.0
C244 C 0.48812 0.05433 0.64731 0.0
C245 C 0.51274 0.03223 0.6523 0.0
C246 C 0.54344 0.0442 0.65803 0.0
C247 C 0.54943 0.07734 0.65844 0.0
H248 H 0.07947 0.57393 0.39461 0.0
H249 H 0.10136 0.47334 0.385 0.0
H250 H 0.02242 0.5606 0.39806 0.0
H251 H 0.04476 0.45987 0.38927 0.0
H252 H 0.93672 0.44915 0.37733 0.0
H253 H 0.9934 0.46283 0.37224 0.0
H254 H 0.98556 0.53589 0.42281 0.0
H255 H 0.9288 0.52298 0.42726 0.0
C256 C 0.07213 0.54899 0.39329 0.0
C257 C 0.09499 0.52474 0.38951 0.0
C258 C 0.03942 0.54126 0.39543 0.0
C259 C 0.02885 0.50908 0.39404 0.0
C260 C 0.05181 0.48494 0.3901 0.0
C261 C 0.08439 0.49268 0.38777 0.0
C262 C 0.94718 0.46802 0.38741 0.0
C263 C 0.92822 0.485 0.40266 0.0
C264 C 0.97974 0.47585 0.38455 0.0
C265 C 0.99417 0.50063 0.39703 0.0
C266 C 0.97522 0.51716 0.41255 0.0
C267 C 0.94266 0.50955 0.41526 0.0
H268 H 0.53103 0.92615 0.87458 0.0
H269 H 0.58369 0.95124 0.93403 0.0
H270 H 0.5111 0.98138 0.87172 0.0
H271 H 0.56409 1.00658 0.9309 0.0
H272 H 0.55141 0.10878 0.90051 0.0
H273 H 0.57091 0.05356 0.90295 0.0
H274 H 0.47361 0.01834 0.89555 0.0
H275 H 0.45381 0.07392 0.89343 0.0
C276 C 0.53862 0.9435 0.88691 0.0
C277 C 0.55903 0.93432 0.90451 0.0
C278 C 0.52697 0.97503 0.88536 0.0
C279 C 0.53595 0.99819 0.90113 0.0
C280 C 0.55687 0.98921 0.91847 0.0
C281 C 0.56806 0.95755 0.92026 0.0
C282 C 0.5341 0.08932 0.89936 0.0
C283 C 0.50102 0.09574 0.89676 0.0
C284 C 0.5453 0.0577 0.90088 0.0
C285 C 0.52379 0.0317 0.89946 0.0
C286 C 0.49073 0.03799 0.89658 0.0
C287 C 0.4794 0.06974 0.89546 0.0
H288 H 0.94105 0.54573 0.8802 0.0
H289 H 0.92238 0.48468 0.93675 0.0
H290 H 0.9951 0.52326 0.87723 0.0
H291 H 0.97691 0.46364 0.93489 0.0
H292 H 0.06529 0.40816 0.91542 0.0
H293 H 0.0107 0.42962 0.91602 0.0
H294 H 0.04636 0.521 0.89162 0.0
H295 H 0.10026 0.49875 0.88972 0.0
C296 C 0.94882 0.52797 0.89228 0.0
C297 C 0.92757 0.51692 0.90868 0.0
C298 C 0.97989 0.51506 0.89066 0.0
C299 C 0.99067 0.49131 0.90574 0.0
C300 C 0.96946 0.48112 0.92255 0.0
C301 C 0.93823 0.49347 0.92382 0.0
C302 C 0.0613 0.4327 0.90997 0.0
C303 C 0.08708 0.45167 0.90247 0.0
C304 C 0.03 0.44524 0.91052 0.0
C305 C 0.02381 0.47733 0.90407 0.0
C306 C 0.04976 0.49609 0.89637 0.0
C307 C 0.08086 0.48334 0.89538 0.0
H308 H 0.47027 0.10387 0.42795 0.0
H309 H 0.55672 0.0784 0.3924 0.0
H310 H 0.45369 0.04763 0.42835 0.0
H311 H 0.53996 0.02182 0.39282 0.0
H312 H 0.47933 0.93092 0.37702 0.0
H313 H 0.49538 0.98752 0.37622 0.0
H314 H 0.47198 0.99591 0.44569 0.0
H315 H 0.45597 0.93938 0.44656 0.0
C316 C 0.4858 0.08625 0.42025 0.0
C317 C 0.51485 0.09562 0.41014 0.0
C318 C 0.47632 0.05399 0.42057 0.0
C319 C 0.49548 0.03033 0.4106 0.0
C320 C 0.52456 0.03961 0.40047 0.0
C321 C 0.53426 0.07193 0.40036 0.0
C322 C 0.47732 0.9449 0.39208 0.0
C323 C 0.46632 0.93063 0.41185 0.0
C324 C 0.48681 0.97723 0.39165 0.0
C325 C 0.48512 0.99609 0.41092 0.0
C326 C 0.47339 0.98203 0.43055 0.0
C327 C 0.46426 0.94963 0.43104 0.0
H328 H 0.94003 0.45276 0.63688 0.0
H329 H 0.92545 0.54041 0.67385 0.0
H330 H 0.99763 0.46435 0.63497 0.0
H331 H 0.98295 0.55157 0.67241 0.0
H332 H 0.08316 0.57805 0.64685 0.0
H333 H 0.02531 0.56711 0.64724 0.0
H334 H 0.04455 0.46617 0.6585 0.0
H335 H 0.10209 0.47694 0.65758 0.0
C336 C 0.94912 0.47439 0.6447 0.0
C337 C 0.92812 0.49562 0.65552 0.0
C338 C 0.98216 0.481 0.64369 0.0
C339 C 0.99498 0.50893 0.65354 0.0
C340 C 0.9739 0.53011 0.66435 0.0
C341 C 0.94091 0.52356 0.6653 0.0
C342 C 0.075 0.55354 0.64939 0.0
C343 C 0.09727 0.5284 0.65216 0.0
C344 C 0.04184 0.54727 0.64971 0.0
C345 C 0.03022 0.51572 0.65287 0.0
C346 C 0.05257 0.49065 0.65567 0.0
C347 C 0.08564 0.4969 0.65529 0.0
H348 H 0.43425 0.07809 0.15148 0.0
H349 H 0.53439 0.09911 0.16499 0.0
H350 H 0.4465 0.02059 0.15141 0.0
H351 H 0.54642 0.04189 0.16545 0.0
H352 H 0.56331 0.93933 0.14154 0.0
H353 H 0.55043 0.99657 0.14087 0.0
H354 H 0.46197 0.97727 0.17612 0.0
H355 H 0.47446 0.92004 0.17633 0.0
C356 C 0.45881 0.07046 0.15455 0.0
C357 C 0.48333 0.0932 0.15819 0.0
C358 C 0.46582 0.03749 0.15462 0.0
C359 C 0.49749 0.02658 0.15836 0.0
C360 C 0.5219 0.04941 0.16213 0.0
C361 C 0.51492 0.08227 0.16202 0.0
C362 C 0.54115 0.94731 0.14917 0.0
C363 C 0.51995 0.9251 0.159 0.0
C364 C 0.5338 0.98016 0.14887 0.0
C365 C 0.50514 0.99157 0.15845 0.0
C366 C 0.48401 0.96931 0.16831 0.0
C367 C 0.49131 0.93648 0.16856 0.0
H368 H 0.25912 0.58739 0.3152 0.0
H369 H 0.19851 0.50514 0.32891 0.0
H370 H 0.26078 0.57265 0.27618 0.0
H371 H 0.19941 0.49085 0.28973 0.0
H372 H 0.22353 0.46019 0.21989 0.0
H373 H 0.23062 0.47177 0.25919 0.0
H374 H 0.22509 0.57365 0.24505 0.0
H375 H 0.21892 0.56207 0.20568 0.0
C376 C 0.24632 0.566 0.30992 0.0
C377 C 0.22855 0.54754 0.3252 0.0
C378 C 0.24707 0.55768 0.28747 0.0
C379 C 0.22993 0.53076 0.27966 0.0
C380 C 0.21317 0.51157 0.29511 0.0
C381 C 0.21256 0.51981 0.31762 0.0
C382 C 0.22415 0.4851 0.22513 0.0
C383 C 0.22054 0.51021 0.2096 0.0
C384 C 0.22801 0.49173 0.24773 0.0
C385 C 0.22823 0.52364 0.25541 0.0
C386 C 0.22548 0.54877 0.23977 0.0
C387 C 0.22178 0.54214 0.21715 0.0
H388 H 0.58025 0.18691 0.74083 0.0
H389 H 0.49821 0.23527 0.71169 0.0
H390 H 0.5569 0.19294 0.77743 0.0
H391 H 0.475 0.24196 0.74863 0.0
H392 H 0.42668 0.20207 0.81268 0.0
H393 H 0.45083 0.20695 0.77616 0.0
H394 H 0.54245 0.23016 0.8064 0.0
H395 H 0.51837 0.22451 0.84313 0.0
C396 C 0.55737 0.19922 0.74225 0.0
C397 C 0.54096 0.21036 0.72328 0.0
C398 C 0.54409 0.20294 0.76333 0.0
C399 C 0.51404 0.21792 0.76603 0.0
C400 C 0.49804 0.22997 0.74711 0.0
C401 C 0.51138 0.22627 0.72595 0.0
C402 C 0.45191 0.20857 0.81159 0.0
C403 C 0.47068 0.21255 0.83086 0.0
C404 C 0.46571 0.21162 0.79058 0.0
C405 C 0.49865 0.21874 0.7883 0.0
C406 C 0.51711 0.22415 0.80758 0.0
C407 C 0.50328 0.2211 0.82863 0.0
H408 H 0.83446 0.46604 0.21154 0.0
H409 H 0.78085 0.55349 0.22284 0.0
H410 H 0.82702 0.45065 0.25016 0.0
H411 H 0.77315 0.53784 0.26163 0.0
H412 H 0.80939 0.51525 0.33445 0.0
H413 H 0.80745 0.53177 0.29544 0.0
H414 H 0.78544 0.43402 0.2765 0.0
H415 H 0.78772 0.41749 0.3152 0.0
C416 C 0.82073 0.48181 0.22219 0.0
C417 C 0.8083 0.51101 0.21408 0.0
C418 C 0.81632 0.47291 0.24434 0.0
C419 C 0.79947 0.49302 0.25899 0.0
C420 C 0.78647 0.52196 0.2508 0.0
C421 C 0.79069 0.53079 0.22855 0.0
C422 C 0.80364 0.49743 0.32198 0.0
C423 C 0.79912 0.46499 0.32793 0.0
C424 C 0.80244 0.5069 0.29963 0.0
C425 C 0.79673 0.48409 0.28284 0.0
C426 C 0.79054 0.45204 0.28898 0.0
C427 C 0.79171 0.44262 0.31121 0.0
H428 H 0.53508 0.76868 0.83308 0.0
H429 H 0.49634 0.86441 0.82424 0.0
H430 H 0.52476 0.75741 0.79373 0.0
H431 H 0.48652 0.85319 0.78523 0.0
H432 H 0.51516 0.83846 0.7135 0.0
H433 H 0.52599 0.84341 0.75303 0.0
H434 H 0.47607 0.75396 0.76524 0.0
H435 H 0.46478 0.74895 0.72544 0.0
C436 C 0.52406 0.78715 0.82286 0.0
C437 C 0.51673 0.81752 0.8318 0.0
C438 C 0.51818 0.78067 0.80037 0.0
C439 C 0.50532 0.80461 0.78641 0.0
C440 C 0.49696 0.83448 0.79554 0.0
C441 C 0.50241 0.8408 0.81796 0.0
C442 C 0.5068 0.81955 0.72448 0.0
C443 C 0.48883 0.79343 0.71626 0.0
C444 C 0.51286 0.82253 0.74716 0.0
C445 C 0.50145 0.79931 0.76221 0.0
C446 C 0.48508 0.77222 0.75398 0.0
C447 C 0.47864 0.7694 0.73121 0.0
H448 H 0.88401 0.53239 0.82405 0.0
H449 H 0.78086 0.53181 0.83345 0.0
H450 H 0.87689 0.51161 0.78669 0.0
H451 H 0.77376 0.51125 0.79543 0.0
H452 H 0.79101 0.51498 0.71453 0.0
H453 H 0.79019 0.5341 0.75311 0.0
H454 H 0.85271 0.45597 0.77242 0.0
H455 H 0.85335 0.43668 0.73444 0.0
C456 C 0.85976 0.52789 0.81811 0.0
C457 C 0.83298 0.53363 0.83171 0.0
C458 C 0.85573 0.51592 0.79673 0.0
C459 C 0.82481 0.50985 0.78825 0.0
C460 C 0.79784 0.51589 0.80164 0.0
C461 C 0.80192 0.52738 0.82336 0.0
C462 C 0.80423 0.50172 0.72709 0.0
C463 C 0.82249 0.4745 0.72135 0.0
C464 C 0.80359 0.51254 0.74913 0.0
C465 C 0.82152 0.49653 0.76561 0.0
C466 C 0.83884 0.46882 0.75997 0.0
C467 C 0.83918 0.45783 0.73817 0.0
H468 H 0.44828 0.75684 0.3181 0.0
H469 H 0.52707 0.81908 0.3372 0.0
H470 H 0.46858 0.75584 0.28011 0.0
H471 H 0.54694 0.81848 0.29931 0.0
H472 H 0.59082 0.79224 0.23421 0.0
H473 H 0.57138 0.78419 0.27181 0.0
H474 H 0.47325 0.79312 0.2485 0.0
H475 H 0.49278 0.80062 0.21058 0.0
C476 C 0.47008 0.77006 0.31427 0.0
C477 C 0.48602 0.78807 0.33072 0.0
C478 C 0.48155 0.76968 0.29245 0.0
C479 C 0.50933 0.78713 0.28663 0.0
C480 C 0.52571 0.80441 0.30324 0.0
C481 C 0.51421 0.80488 0.32499 0.0
C482 C 0.56505 0.79219 0.23701 0.0
C483 C 0.54335 0.79738 0.2194 0.0
C484 C 0.55393 0.78772 0.25863 0.0
C485 C 0.52079 0.78842 0.26325 0.0
C486 C 0.49894 0.79224 0.2455 0.0
C487 C 0.51012 0.79665 0.22378 0.0
H488 H 0.23153 0.51734 0.83875 0.0
H489 H 0.20157 0.42751 0.80921 0.0
H490 H 0.23676 0.54108 0.80177 0.0
H491 H 0.20579 0.45133 0.77254 0.0
H492 H 0.19493 0.58248 0.73663 0.0
H493 H 0.20084 0.55876 0.77323 0.0
H494 H 0.23958 0.47235 0.74395 0.0
H495 H 0.2327 0.49592 0.707 0.0
C496 C 0.2263 0.50259 0.8244 0.0
C497 C 0.21588 0.47061 0.82699 0.0
C498 C 0.22909 0.51624 0.80318 0.0
C499 C 0.22145 0.49823 0.78409 0.0
C500 C 0.21227 0.46588 0.78675 0.0
C501 C 0.20959 0.45226 0.80788 0.0
C502 C 0.20494 0.55848 0.73793 0.0
C503 C 0.21308 0.541 0.71881 0.0
C504 C 0.20861 0.54495 0.75903 0.0
C505 C 0.22066 0.51357 0.76166 0.0
C506 C 0.22979 0.49641 0.74255 0.0
C507 C 0.226 0.50996 0.72137 0.0
H508 H 0.50496 0.23888 0.34161 0.0
H509 H 0.56001 0.15882 0.31642 0.0
H510 H 0.48541 0.25032 0.30404 0.0
H511 H 0.54022 0.16989 0.27923 0.0
H512 H 0.51856 0.20885 0.21161 0.0
H513 H 0.54262 0.20823 0.24864 0.0
H514 H 0.44895 0.22471 0.27743 0.0
H515 H 0.42505 0.22596 0.24053 0.0
C516 C 0.51297 0.22382 0.32808 0.0
C517 C 0.53389 0.19784 0.33204 0.0
C518 C 0.50172 0.23031 0.30659 0.0
C519 C 0.51132 0.21107 0.28862 0.0
C520 C 0.53274 0.18553 0.29259 0.0
C521 C 0.54386 0.17899 0.31401 0.0
C522 C 0.50321 0.21291 0.22582 0.0
C523 C 0.46984 0.21711 0.22312 0.0
C524 C 0.51696 0.21234 0.24705 0.0
C525 C 0.49765 0.21605 0.26602 0.0
C526 C 0.46457 0.222 0.2632 0.0
C527 C 0.45083 0.2225 0.24201 0.0
H528 H 0.17676 0.49135 0.96334 0.0
H529 H 0.27642 0.46417 0.97192 0.0
H530 H 0.17276 0.50259 1.00264 0.0
H531 H 0.27297 0.47695 1.01134 0.0
H532 H 0.24009 0.45796 0.0835 0.0
H533 H 0.25116 0.45573 0.04398 0.0
H534 H 0.18549 0.5349 0.03284 0.0
H535 H 0.17325 0.53591 0.07232 0.0
C536 C 0.1981 0.48846 0.97355 0.0
C537 C 0.22687 0.47663 0.96445 0.0
C538 C 0.19588 0.49515 0.9962 0.0
C539 C 0.22251 0.49066 1.01042 0.0
C540 C 0.25173 0.48014 1.00109 0.0
C541 C 0.25382 0.47303 0.97842 0.0
C542 C 0.22842 0.47526 0.07267 0.0
C543 C 0.20551 0.49689 0.08107 0.0
C544 C 0.23487 0.47409 0.0499 0.0
C545 C 0.21893 0.49483 0.03496 0.0
C546 C 0.19761 0.51791 0.04365 0.0
C547 C 0.19079 0.51873 0.06637 0.0
H548 H 0.57256 0.26766 0.47708 0.0
H549 H 0.49653 0.19867 0.46502 0.0
H550 H 0.56313 0.26342 0.51681 0.0
H551 H 0.48672 0.19492 0.5048 0.0
H552 H 0.5268 0.15492 0.57185 0.0
H553 H 0.51997 0.16915 0.53305 0.0
H554 H 0.52823 0.26994 0.54955 0.0
H555 H 0.53543 0.2555 0.58873 0.0
C556 C 0.55324 0.25224 0.48284 0.0
C557 C 0.53574 0.23303 0.46787 0.0
C558 C 0.5477 0.24996 0.50567 0.0
C559 C 0.52451 0.22843 0.51402 0.0
C560 C 0.50519 0.21127 0.49891 0.0
C561 C 0.51072 0.21354 0.47609 0.0
C562 C 0.52662 0.18017 0.56731 0.0
C563 C 0.53199 0.20407 0.58333 0.0
C564 C 0.52241 0.18837 0.54503 0.0
C565 C 0.52364 0.22071 0.53814 0.0
C566 C 0.52742 0.2448 0.55432 0.0
C567 C 0.53136 0.23655 0.57675 0.0
H568 H 0.82163 0.50899 0.08943 0.0
H569 H 0.74868 0.58038 0.07531 0.0
H570 H 0.82818 0.49969 0.0498 0.0
H571 H 0.75552 0.57119 0.03567 0.0
H572 H 0.76913 0.54068 0.96384 0.0
H573 H 0.75307 0.53367 1.00278 0.0
H574 H 0.85314 0.5369 1.02259 0.0
H575 H 0.86895 0.54393 0.98413 0.0
C576 C 0.80646 0.5222 0.07794 0.0
C577 C 0.78503 0.54586 0.08556 0.0
C578 C 0.81032 0.51693 0.05521 0.0
C579 C 0.79272 0.53505 0.0396 0.0
C580 C 0.76935 0.55675 0.04726 0.0
C581 C 0.76558 0.56214 0.07001 0.0
C582 C 0.78762 0.53922 0.97654 0.0
C583 C 0.82026 0.54308 0.97101 0.0
C584 C 0.77844 0.53538 0.99879 0.0
C585 C 0.80184 0.53472 1.01576 0.0
C586 C 0.83452 0.53688 1.00995 0.0
C587 C 0.84359 0.54119 0.98789 0.0
H588 H 0.48637 0.87573 0.56712 0.0
H589 H 0.49935 0.77596 0.58533 0.0
H590 H 0.49424 0.86235 0.52838 0.0
H591 H 0.50761 0.76243 0.54618 0.0
H592 H 0.46148 0.75358 0.47433 0.0
H593 H 0.47082 0.76092 0.51389 0.0
H594 H 0.53098 0.84337 0.4999 0.0
H595 H 0.5212 0.83642 0.46029 0.0
C596 C 0.49153 0.85096 0.56287 0.0
C597 C 0.49193 0.82686 0.57927 0.0
C598 C 0.49633 0.84331 0.54062 0.0
C599 C 0.50147 0.81128 0.53412 0.0
C600 C 0.50344 0.7873 0.55064 0.0
C601 C 0.49892 0.79506 0.57305 0.0
C602 C 0.47727 0.77288 0.47962 0.0
C603 C 0.49012 0.79474 0.46413 0.0
C604 C 0.48279 0.77697 0.50236 0.0
C605 C 0.50128 0.80302 0.5101 0.0
C606 C 0.51615 0.82339 0.49449 0.0
C607 C 0.51066 0.8193 0.47176 0.0
H608 H 0.24812 0.54914 0.45853 0.0
H609 H 0.15672 0.50371 0.47264 0.0
H610 H 0.26 0.55118 0.49821 0.0
H611 H 0.16843 0.50614 0.5122 0.0
H612 H 0.20191 0.50418 0.58344 0.0
H613 H 0.20215 0.48951 0.54408 0.0
H614 H 0.23653 0.58469 0.52735 0.0
H615 H 0.23651 0.59913 0.56636 0.0
C616 C 0.23085 0.53897 0.47003 0.0
C617 C 0.20128 0.52663 0.46239 0.0
C618 C 0.23758 0.54033 0.4928 0.0
C619 C 0.21499 0.5292 0.50842 0.0
C620 C 0.18646 0.51476 0.50067 0.0
C621 C 0.17966 0.51355 0.47794 0.0
C622 C 0.21012 0.5217 0.57136 0.0
C623 C 0.21892 0.55291 0.578 0.0
C624 C 0.21009 0.51337 0.54882 0.0
C625 C 0.21924 0.53596 0.53253 0.0
C626 C 0.22969 0.56655 0.5394 0.0
C627 C 0.22942 0.57493 0.56181 0.0
H628 H 0.46011 0.2448 0.96485 0.0
H629 H 0.51742 0.1604 0.97903 0.0
H630 H 0.45617 0.25567 1.00451 0.0
H631 H 0.51315 0.1711 1.0186 0.0
H632 H 0.50816 0.20318 0.08999 0.0
H633 H 0.52406 0.20693 0.05091 0.0
H634 H 0.4251 0.22551 0.03257 0.0
H635 H 0.40938 0.22188 0.07128 0.0
C636 C 0.47249 0.22897 0.97636 0.0
C637 C 0.48865 0.20143 0.96878 0.0
C638 C 0.47009 0.23512 0.9991 0.0
C639 C 0.48396 0.214 1.0147 0.0
C640 C 0.50231 0.18794 1.00703 0.0
C641 C 0.50458 0.18169 0.98431 0.0
C642 C 0.48999 0.20867 0.07761 0.0
C643 C 0.45748 0.21191 0.08365 0.0
C644 C 0.49905 0.21068 0.05525 0.0
C645 C 0.47583 0.21646 0.03864 0.0
C646 C 0.44366 0.22142 0.04493 0.0
C647 C 0.43459 0.21903 0.06714 0.0
H648 H 0.80307 0.41712 0.48083 0.0
H649 H 0.81525 0.51661 0.46163 0.0
H650 H 0.79779 0.433 0.51936 0.0
H651 H 0.80995 0.5327 0.50063 0.0
H652 H 0.85391 0.52965 0.57409 0.0
H653 H 0.84539 0.52456 0.53421 0.0
H654 H 0.76382 0.46235 0.54616 0.0
H655 H 0.77245 0.46712 0.58605 0.0
C656 C 0.80419 0.4425 0.48483 0.0
C657 C 0.80981 0.4656 0.46822 0.0
C658 C 0.80086 0.45164 0.50694 0.0
C659 C 0.8034 0.48413 0.51308 0.0
C660 C 0.80799 0.50747 0.49639 0.0
C661 C 0.81087 0.4983 0.47409 0.0
C662 C 0.83369 0.51548 0.56825 0.0
C663 C 0.81422 0.49835 0.58329 0.0
C664 C 0.8287 0.51272 0.54536 0.0
C665 C 0.80422 0.49267 0.53703 0.0
C666 C 0.78321 0.47758 0.55209 0.0
C667 C 0.78809 0.48045 0.57497 0.0
H668 H 0.49738 0.86144 0.07165 0.0
H669 H 0.55107 0.77437 0.0848 0.0
H670 H 0.50291 0.85254 0.0319 0.0
H671 H 0.5563 0.76537 0.045 0.0
H672 H 0.6052 0.79761 0.97895 0.0
H673 H 0.58904 0.79501 1.01762 0.0
H674 H 0.49124 0.81819 0.99887 0.0
H675 H 0.50757 0.8209 0.95983 0.0
C676 C 0.50972 0.84 0.06608 0.0
C677 C 0.52418 0.81888 0.08144 0.0
C678 C 0.51274 0.83482 0.04326 0.0
C679 C 0.5304 0.80847 0.03528 0.0
C680 C 0.54296 0.78617 0.05064 0.0
C681 C 0.53981 0.79125 0.07346 0.0
C682 C 0.58014 0.80176 0.98299 0.0
C683 C 0.55772 0.80969 0.96634 0.0
C684 C 0.57081 0.8 1.00518 0.0
C685 C 0.53884 0.80639 1.01135 0.0
C686 C 0.51609 0.81331 0.99463 0.0
C687 C 0.5254 0.81471 0.9723 0.0
H688 H 0.23506 0.35222 0.19635 0.0
H689 H 0.22832 0.36249 0.12509 0.0
H690 H 0.27564 0.31028 0.19177 0.0
H691 H 0.26877 0.32059 0.12064 0.0
H692 H 0.37751 0.29397 0.12768 0.0
H693 H 0.32776 0.32457 0.13008 0.0
H694 H 0.28926 0.25463 0.17609 0.0
H695 H 0.33942 0.22359 0.17357 0.0
C696 C 0.24164 0.34504 0.17971 0.0
C697 C 0.22882 0.36111 0.1611 0.0
C698 C 0.2648 0.32091 0.17711 0.0
C699 C 0.27568 0.31253 0.15586 0.0
C700 C 0.26116 0.32693 0.13723 0.0
C701 C 0.23788 0.35086 0.13981 0.0
C702 C 0.35837 0.28489 0.13816 0.0
C703 C 0.36242 0.25646 0.15051 0.0
C704 C 0.32974 0.3023 0.13939 0.0
C705 C 0.30457 0.29191 0.1532 0.0
C706 C 0.30832 0.26318 0.16533 0.0
C707 C 0.33692 0.24541 0.16383 0.0
H708 H 0.76671 0.35818 0.60641 0.0
H709 H 0.78956 0.36278 0.67634 0.0
H710 H 0.72749 0.31582 0.61384 0.0
H711 H 0.7506 0.32011 0.68367 0.0
H712 H 0.64271 0.28983 0.68823 0.0
H713 H 0.6915 0.32108 0.6824 0.0
H714 H 0.71667 0.26025 0.62716 0.0
H715 H 0.66737 0.22889 0.63293 0.0
C716 C 0.76391 0.34969 0.6233 0.0
C717 C 0.78095 0.36424 0.64081 0.0
C718 C 0.74151 0.32525 0.62754 0.0
C719 C 0.73563 0.31488 0.64939 0.0
C720 C 0.7542 0.32796 0.66671 0.0
C721 C 0.77665 0.35232 0.66247 0.0
C722 C 0.65881 0.2828 0.67501 0.0
C723 C 0.65101 0.25703 0.66094 0.0
C724 C 0.68696 0.30059 0.67177 0.0
C725 C 0.70798 0.2932 0.65429 0.0
C726 C 0.70082 0.26668 0.64067 0.0
C727 C 0.67269 0.24864 0.64405 0.0
H728 H 0.74769 0.66013 0.19433 0.0
H729 H 0.78974 0.66964 0.12916 0.0
H730 H 0.71301 0.7059 0.18675 0.0
H731 H 0.75558 0.71625 0.12178 0.0
H732 H 0.65461 0.75969 0.10659 0.0
H733 H 0.69949 0.72382 0.11419 0.0
H734 H 0.70758 0.76246 0.18045 0.0
H735 H 0.66186 0.79776 0.17304 0.0
C736 C 0.75003 0.6724 0.17853 0.0
C737 C 0.77125 0.66095 0.16226 0.0
C738 C 0.73024 0.69888 0.17423 0.0
C739 C 0.73127 0.71472 0.15357 0.0
C740 C 0.75374 0.7043 0.13772 0.0
C741 C 0.77348 0.67768 0.142 0.0
C742 C 0.66625 0.76095 0.12268 0.0
C743 C 0.65432 0.78131 0.1393 0.0
C744 C 0.69221 0.74046 0.127 0.0
C745 C 0.70702 0.73994 0.14803 0.0
C746 C 0.69634 0.76176 0.16421 0.0
C747 C 0.67025 0.78217 0.15992 0.0
H748 H 0.22698 0.67271 0.66473 0.0
H749 H 0.30854 0.62404 0.63584 0.0
H750 H 0.2588 0.72254 0.66689 0.0
H751 H 0.33989 0.67336 0.63793 0.0
H752 H 0.37868 0.77147 0.62425 0.0
H753 H 0.33956 0.7282 0.62035 0.0
H754 H 0.30942 0.74198 0.6881 0.0
H755 H 0.34872 0.78562 0.69213 0.0
C756 C 0.25155 0.6727 0.65874 0.0
C757 C 0.26526 0.64445 0.65013 0.0
C758 C 0.26975 0.70112 0.66006 0.0
C759 C 0.30173 0.70187 0.65244 0.0
C760 C 0.31517 0.67368 0.64364 0.0
C761 C 0.29724 0.64533 0.64259 0.0
C762 C 0.36346 0.76568 0.63827 0.0
C763 C 0.36719 0.78175 0.65862 0.0
C764 C 0.3411 0.74079 0.63603 0.0
C765 C 0.32177 0.73142 0.65401 0.0
C766 C 0.32397 0.74875 0.67394 0.0
C767 C 0.34655 0.77366 0.67625 0.0
H768 H 0.3436 0.78521 0.35779 0.0
H769 H 0.37403 0.77294 0.42591 0.0
H770 H 0.30342 0.74275 0.36273 0.0
H771 H 0.33345 0.7313 0.431 0.0
H772 H 0.29807 0.62825 0.42042 0.0
H773 H 0.33003 0.67691 0.4181 0.0
H774 H 0.25403 0.72345 0.38085 0.0
H775 H 0.22191 0.67391 0.38281 0.0
C776 C 0.34126 0.77396 0.37394 0.0
C777 C 0.36235 0.78212 0.39135 0.0
C778 C 0.31812 0.7497 0.3768 0.0
C779 C 0.31553 0.73324 0.39717 0.0
C780 C 0.33528 0.74293 0.41494 0.0
C781 C 0.35847 0.76695 0.41205 0.0
C782 C 0.28793 0.64886 0.41185 0.0
C783 C 0.25742 0.64711 0.40174 0.0
C784 C 0.30623 0.67696 0.41068 0.0
C785 C 0.29459 0.70424 0.39938 0.0
C786 C 0.26379 0.70279 0.38955 0.0
C787 C 0.24532 0.67451 0.39079 0.0
H788 H 0.34839 0.22491 0.88092 0.0
H789 H 0.3562 0.24274 0.95129 0.0
H790 H 0.30189 0.26075 0.87892 0.0
H791 H 0.31075 0.27926 0.94919 0.0
H792 H 0.21789 0.33274 0.94349 0.0
H793 H 0.25489 0.2872 0.94398 0.0
H794 H 0.29238 0.31698 0.88032 0.0
H795 H 0.25467 0.36164 0.8795 0.0
C796 C 0.34002 0.23621 0.896 0.0
C797 C 0.35621 0.23107 0.91623 0.0
C798 C 0.31349 0.25699 0.89483 0.0
C799 C 0.30261 0.27327 0.91384 0.0
C800 C 0.31803 0.26695 0.93422 0.0
C801 C 0.34436 0.24607 0.93541 0.0
C802 C 0.23371 0.32928 0.92946 0.0
C803 C 0.23344 0.35103 0.91155 0.0
C804 C 0.25512 0.30325 0.92979 0.0
C805 C 0.27699 0.29845 0.9123 0.0
C806 C 0.27573 0.31952 0.89398 0.0
C807 C 0.25417 0.34537 0.89357 0.0
H808 H 0.65047 0.23747 0.42868 0.0
H809 H 0.66506 0.24305 0.35781 0.0
H810 H 0.69323 0.27698 0.43427 0.0
H811 H 0.70765 0.28273 0.36347 0.0
H812 H 0.79469 0.3443 0.38222 0.0
H813 H 0.76222 0.29504 0.3797 0.0
H814 H 0.69355 0.33537 0.42549 0.0
H815 H 0.72572 0.38416 0.428 0.0
C816 C 0.66318 0.24663 0.41431 0.0
C817 C 0.65403 0.23739 0.39276 0.0
C818 C 0.68758 0.2694 0.41752 0.0
C819 C 0.70355 0.28325 0.3993 0.0
C820 C 0.69593 0.27239 0.37786 0.0
C821 C 0.67137 0.24976 0.37462 0.0
C822 C 0.7729 0.34236 0.39198 0.0
C823 C 0.76264 0.36816 0.4052 0.0
C824 C 0.75427 0.31426 0.39046 0.0
C825 C 0.72534 0.31131 0.40241 0.0
C826 C 0.71589 0.33667 0.41629 0.0
C827 C 0.73422 0.36478 0.41758 0.0
H828 H 0.7795 0.66699 0.85203 0.0
H829 H 0.7893 0.65875 0.92322 0.0
H830 H 0.73872 0.70867 0.85683 0.0
H831 H 0.74854 0.70039 0.92793 0.0
H832 H 0.63944 0.72733 0.92255 0.0
H833 H 0.68912 0.69666 0.91983 0.0
H834 H 0.72573 0.76476 0.87184 0.0
H835 H 0.67566 0.79591 0.87471 0.0
C836 C 0.77349 0.67453 0.86869 0.0
C837 C 0.78738 0.65919 0.88724 0.0
C838 C 0.75021 0.69854 0.87142 0.0
C839 C 0.74016 0.70751 0.89276 0.0
C840 C 0.75553 0.69365 0.91128 0.0
C841 C 0.779 0.66989 0.90856 0.0
C842 C 0.65817 0.73602 0.91157 0.0
C843 C 0.65356 0.76396 0.89876 0.0
C844 C 0.68677 0.71856 0.91015 0.0
C845 C 0.71139 0.72833 0.89567 0.0
C846 C 0.70712 0.75664 0.88311 0.0
C847 C 0.67856 0.7745 0.88482 0.0
loop_
_geom_bond_atom_site_label_1
_geom_bond_atom_site_label_2
_geom_bond_distance
_geom_bond_site_symmetry_2
_ccdc_geom_bond_type
Mg0 O7 2.141 . S
Mg0 O8 2.048 . S
Mg0 O9 2.048 . S
Mg0 O12 2.141 . S
C1 O2 1.313 . S
C1 O8 1.195 . S
O2 C1 1.313 . S
C3 O4 1.245 . S
C3 O12 1.289 . S
O4 C3 1.245 . S
C5 O6 1.245 . S
C5 O7 1.289 . S
O6 C5 1.245 . S
O7 Mg0 2.141 . S
O7 C5 1.289 . S
O8 Mg0 2.048 . S
O8 C1 1.195 . S
O9 Mg0 2.048 . S
O9 C10 1.195 . S
C10 O9 1.195 . S
C10 O11 1.313 . S
O11 C10 1.313 . S
O12 Mg0 2.141 . S
O12 C3 1.289 . S
Mg13 O20 2.141 . S
Mg13 O21 2.048 . S
Mg13 O22 2.048 . S
Mg13 O25 2.141 . S
C14 O15 1.313 . S
C14 O21 1.195 . S
O15 C14 1.313 . S
C16 O17 1.245 . S
C16 O25 1.289 . S
O17 C16 1.245 . S
C18 O19 1.245 . S
C18 O20 1.289 . S
O19 C18 1.245 . S
O20 Mg13 2.141 . S
O20 C18 1.289 . S
O21 Mg13 2.048 . S
O21 C14 1.195 . S
O22 Mg13 2.048 . S
O22 C23 1.195 . S
C23 O22 1.195 . S
C23 O24 1.313 . S
O24 C23 1.313 . S
O25 Mg13 2.141 . S
O25 C16 1.289 . S
Mg26 O33 2.141 . S
Mg26 O34 2.048 . S
Mg26 O35 2.048 . S
Mg26 O38 2.141 . S
C27 O28 1.313 . S
C27 O34 1.195 . S
O28 C27 1.313 . S
C29 O30 1.245 . S
C29 O38 1.289 . S
O30 C29 1.245 . S
C31 O32 1.245 . S
C31 O33 1.289 . S
O32 C31 1.245 . S
O33 Mg26 2.141 . S
O33 C31 1.289 . S
O34 Mg26 2.048 . S
O34 C27 1.195 . S
O35 Mg26 2.048 . S
O35 C36 1.195 . S
C36 O35 1.195 . S
C36 O37 1.313 . S
O37 C36 1.313 . S
O38 Mg26 2.141 . S
O38 C29 1.289 . S
Mg39 O46 2.141 . S
Mg39 O47 2.048 . S
Mg39 O48 2.048 . S
Mg39 O51 2.141 . S
C40 O41 1.313 . S
C40 O47 1.195 . S
O41 C40 1.313 . S
C42 O43 1.245 . S
C42 O51 1.289 . S
O43 C42 1.245 . S
C44 O45 1.245 . S
C44 O46 1.289 . S
O45 C44 1.245 . S
O46 Mg39 2.141 . S
O46 C44 1.289 . S
O47 Mg39 2.048 . S
O47 C40 1.195 . S
O48 Mg39 2.048 . S
O48 C49 1.195 . S
C49 O48 1.195 . S
C49 O50 1.313 . S
O50 C49 1.313 . S
O51 Mg39 2.141 . S
O51 C42 1.289 . S
Mg52 O59 2.141 . S
Mg52 O60 2.048 . S
Mg52 O61 2.048 . S
Mg52 O64 2.141 . S
C53 O54 1.313 . S
C53 O60 1.195 . S
O54 C53 1.313 . S
C55 O56 1.245 . S
C55 O64 1.289 . S
O56 C55 1.245 . S
C57 O58 1.245 . S
C57 O59 1.289 . S
O58 C57 1.245 . S
O59 Mg52 2.141 . S
O59 C57 1.289 . S
O60 Mg52 2.048 . S
O60 C53 1.195 . S
O61 Mg52 2.048 . S
O61 C62 1.195 . S
C62 O61 1.195 . S
C62 O63 1.313 . S
O63 C62 1.313 . S
O64 Mg52 2.141 . S
O64 C55 1.289 . S
Mg65 O72 2.141 . S
Mg65 O73 2.048 . S
Mg65 O74 2.048 . S
Mg65 O77 2.141 . S
C66 O67 1.313 . S
C66 O73 1.195 . S
O67 C66 1.313 . S
C68 O69 1.245 . S
C68 O77 1.289 . S
O69 C68 1.245 . S
C70 O71 1.245 . S
C70 O72 1.289 . S
O71 C70 1.245 . S
O72 Mg65 2.141 . S
O72 C70 1.289 . S
O73 Mg65 2.048 . S
O73 C66 1.195 . S
O74 Mg65 2.048 . S
O74 C75 1.195 . S
C75 O74 1.195 . S
C75 O76 1.313 . S
O76 C75 1.313 . S
O77 Mg65 2.141 . S
O77 C68 1.289 . S
Mg78 O85 2.141 . S
Mg78 O86 2.048 . S
Mg78 O87 2.048 . S
Mg78 O90 2.141 . S
C79 O80 1.313 . S
C79 O86 1.195 . S
O80 C79 1.313 . S
C81 O82 1.245 . S
C81 O90 1.289 . S
O82 C81 1.245 . S
C83 O84 1.245 . S
C83 O85 1.289 . S
O84 C83 1.245 . S
O85 Mg78 2.141 . S
O85 C83 1.289 . S
O86 Mg78 2.048 . S
O86 C79 1.195 . S
O87 Mg78 2.048 . S
O87 C88 1.195 . S
C88 O87 1.195 . S
C88 O89 1.313 . S
O89 C88 1.313 . S
O90 Mg78 2.141 . S
O90 C81 1.289 . S
Mg91 O98 2.141 . S
Mg91 O99 2.048 . S
Mg91 O100 2.048 . S
Mg91 O103 2.141 . S
C92 O93 1.313 . S
C92 O99 1.195 . S
O93 C92 1.313 . S
C94 O95 1.245 . S
C94 O103 1.289 . S
O95 C94 1.245 . S
C96 O97 1.245 . S
C96 O98 1.289 . S
O97 C96 1.245 . S
O98 Mg91 2.141 . S
O98 C96 1.289 . S
O99 Mg91 2.048 . S
O99 C92 1.195 . S
O100 Mg91 2.048 . S
O100 C101 1.195 . S
C101 O100 1.195 . S
C101 O102 1.313 . S
O102 C101 1.313 . S
O103 Mg91 2.141 . S
O103 C94 1.289 . S
Mg104 O111 2.141 . S
Mg104 O112 2.048 . S
Mg104 O113 2.048 . S
Mg104 O116 2.141 . S
C105 O106 1.313 . S
C105 O112 1.195 . S
O106 C105 1.313 . S
C107 O108 1.245 . S
C107 O116 1.289 . S
O108 C107 1.245 . S
C109 O110 1.245 . S
C109 O111 1.289 . S
O110 C109 1.245 . S
O111 Mg104 2.141 . S
O111 C109 1.289 . S
O112 Mg104 2.048 . S
O112 C105 1.195 . S
O113 Mg104 2.048 . S
O113 C114 1.195 . S
C114 O113 1.195 . S
C114 O115 1.313 . S
O115 C114 1.313 . S
O116 Mg104 2.141 . S
O116 C107 1.289 . S
Mg117 O124 2.141 . S
Mg117 O125 2.048 . S
Mg117 O126 2.048 . S
Mg117 O129 2.141 . S
C118 O119 1.313 . S
C118 O125 1.195 . S
O119 C118 1.313 . S
C120 O121 1.245 . S
C120 O129 1.289 . S
O121 C120 1.245 . S
C122 O123 1.245 . S
C122 O124 1.289 . S
O123 C122 1.245 . S
O124 Mg117 2.141 . S
O124 C122 1.289 . S
O125 Mg117 2.048 . S
O125 C118 1.195 . S
O126 Mg117 2.048 . S
O126 C127 1.195 . S
C127 O126 1.195 . S
C127 O128 1.313 . S
O128 C127 1.313 . S
O129 Mg117 2.141 . S
O129 C120 1.289 . S
Mg130 O137 2.141 . S
Mg130 O138 2.048 . S
Mg130 O139 2.048 . S
Mg130 O142 2.141 . S
C131 O132 1.313 . S
C131 O138 1.195 . S
O132 C131 1.313 . S
C133 O134 1.245 . S
C133 O142 1.289 . S
O134 C133 1.245 . S
C135 O136 1.245 . S
C135 O137 1.289 . S
O136 C135 1.245 . S
O137 Mg130 2.141 . S
O137 C135 1.289 . S
O138 Mg130 2.048 . S
O138 C131 1.195 . S
O139 Mg130 2.048 . S
O139 C140 1.195 . S
C140 O139 1.195 . S
C140 O141 1.313 . S
O141 C140 1.313 . S
O142 Mg130 2.141 . S
O142 C133 1.289 . S
Mg143 O150 2.141 . S
Mg143 O151 2.048 . S
Mg143 O152 2.048 . S
Mg143 O155 2.141 . S
C144 O145 1.313 . S
C144 O151 1.195 . S
O145 C144 1.313 . S
C146 O147 1.245 . S
C146 O155 1.289 . S
O147 C146 1.245 . S
C148 O149 1.245 . S
C148 O150 1.289 . S
O149 C148 1.245 . S
O150 Mg143 2.141 . S
O150 C148 1.289 . S
O151 Mg143 2.048 . S
O151 C144 1.195 . S
O152 Mg143 2.048 . S
O152 C153 1.195 . S
C153 O152 1.195 . S
C153 O154 1.313 . S
O154 C153 1.313 . S
O155 Mg143 2.141 . S
O155 C146 1.289 . S
Mg156 O163 2.141 . S
Mg156 O164 2.048 . S
Mg156 O165 2.048 . S
Mg156 O168 2.141 . S
C157 O158 1.313 . S
C157 O164 1.195 . S
O158 C157 1.313 . S
C159 O160 1.245 . S
C159 O168 1.289 . S
O160 C159 1.245 . S
C161 O162 1.245 . S
C161 O163 1.289 . S
O162 C161 1.245 . S
O163 Mg156 2.141 . S
O163 C161 1.289 . S
O164 Mg156 2.048 . S
O164 C157 1.195 . S
O165 Mg156 2.048 . S
O165 C166 1.195 . S
C166 O165 1.195 . S
C166 O167 1.313 . S
O167 C166 1.313 . S
O168 Mg156 2.141 . S
O168 C159 1.289 . S
Mg169 O176 2.141 . S
Mg169 O177 2.048 . S
Mg169 O178 2.048 . S
Mg169 O181 2.141 . S
C170 O171 1.313 . S
C170 O177 1.195 . S
O171 C170 1.313 . S
C172 O173 1.245 . S
C172 O181 1.289 . S
O173 C172 1.245 . S
C174 O175 1.245 . S
C174 O176 1.289 . S
O175 C174 1.245 . S
O176 Mg169 2.141 . S
O176 C174 1.289 . S
O177 Mg169 2.048 . S
O177 C170 1.195 . S
O178 Mg169 2.048 . S
O178 C179 1.195 . S
C179 O178 1.195 . S
C179 O180 1.313 . S
O180 C179 1.313 . S
O181 Mg169 2.141 . S
O181 C172 1.289 . S
Mg182 O189 2.141 . S
Mg182 O190 2.048 . S
Mg182 O191 2.048 . S
Mg182 O194 2.141 . S
C183 O184 1.313 . S
C183 O190 1.195 . S
O184 C183 1.313 . S
C185 O186 1.245 . S
C185 O194 1.289 . S
O186 C185 1.245 . S
C187 O188 1.245 . S
C187 O189 1.289 . S
O188 C187 1.245 . S
O189 Mg182 2.141 . S
O189 C187 1.289 . S
O190 Mg182 2.048 . S
O190 C183 1.195 . S
O191 Mg182 2.048 . S
O191 C192 1.195 . S
C192 O191 1.195 . S
C192 O193 1.313 . S
O193 C192 1.313 . S
O194 Mg182 2.141 . S
O194 C185 1.289 . S
Mg195 O202 2.141 . S
Mg195 O203 2.048 . S
Mg195 O204 2.048 . S
Mg195 O207 2.141 . S
C196 O197 1.313 . S
C196 O203 1.195 . S
O197 C196 1.313 . S
C198 O199 1.245 . S
C198 O207 1.289 . S
O199 C198 1.245 . S
C200 O201 1.245 . S
C200 O202 1.289 . S
O201 C200 1.245 . S
O202 Mg195 2.141 . S
O202 C200 1.289 . S
O203 Mg195 2.048 . S
O203 C196 1.195 . S
O204 Mg195 2.048 . S
O204 C205 1.195 . S
C205 O204 1.195 . S
C205 O206 1.313 . S
O206 C205 1.313 . S
O207 Mg195 2.141 . S
O207 C198 1.289 . S
H208 C216 0.950 . S
H209 C221 0.950 . S
H210 C218 0.950 . S
H211 C220 0.950 . S
H212 C222 0.950 . S
H213 C224 0.950 . S
H214 C226 0.950 . S
H215 C227 0.950 . S
C216 H208 0.950 . S
C216 C217 1.386 . S
C216 C218 1.391 . S
C217 C216 1.386 . S
C217 C221 1.393 . S
C218 H210 0.950 . S
C218 C216 1.391 . S
C218 C219 1.400 . S
C219 C218 1.400 . S
C219 C220 1.398 . S
C219 C225 1.491 1_455 S
C220 H211 0.950 . S
C220 C219 1.398 . S
C220 C221 1.391 . S
C221 H209 0.950 . S
C221 C217 1.393 . S
C221 C220 1.391 . S
C222 H212 0.950 . S
C222 C223 1.386 . S
C222 C224 1.391 . S
C223 C222 1.386 . S
C223 C227 1.393 . S
C224 H213 0.950 . S
C224 C222 1.391 . S
C224 C225 1.400 . S
C225 C219 1.491 1_655 S
C225 C224 1.400 . S
C225 C226 1.398 . S
C226 H214 0.950 . S
C226 C225 1.398 . S
C226 C227 1.391 . S
C227 H215 0.950 . S
C227 C223 1.393 . S
C227 C226 1.391 . S
H228 C236 0.950 . S
H229 C241 0.950 . S
H230 C238 0.950 . S
H231 C240 0.950 . S
H232 C242 0.950 . S
H233 C244 0.950 . S
H234 C246 0.950 . S
H235 C247 0.950 . S
C236 H228 0.950 . S
C236 C237 1.386 . S
C236 C238 1.391 . S
C237 C236 1.386 . S
C237 C241 1.393 . S
C238 H230 0.950 . S
C238 C236 1.391 . S
C238 C239 1.400 . S
C239 C238 1.400 . S
C239 C240 1.398 . S
C239 C245 1.491 1_565 S
C240 H231 0.950 . S
C240 C239 1.398 . S
C240 C241 1.391 . S
C241 H229 0.950 . S
C241 C237 1.393 . S
C241 C240 1.391 . S
C242 H232 0.950 . S
C242 C243 1.386 . S
C242 C244 1.391 . S
C243 C242 1.386 . S
C243 C247 1.393 . S
C244 H233 0.950 . S
C244 C242 1.391 . S
C244 C245 1.400 . S
C245 C239 1.491 1_545 S
C245 C244 1.400 . S
C245 C246 1.398 . S
C246 H234 0.950 . S
C246 C245 1.398 . S
C246 C247 1.391 . S
C247 H235 0.950 . S
C247 C243 1.393 . S
C247 C246 1.391 . S
H248 C256 0.950 . S
H249 C261 0.950 . S
H250 C258 0.950 . S
H251 C260 0.950 . S
H252 C262 0.950 . S
H253 C264 0.950 . S
H254 C266 0.950 . S
H255 C267 0.950 . S
C256 H248 0.950 . S
C256 C257 1.386 . S
C256 C258 1.391 . S
C257 C256 1.386 . S
C257 C261 1.393 . S
C258 H250 0.950 . S
C258 C256 1.391 . S
C258 C259 1.400 . S
C259 C258 1.400 . S
C259 C260 1.398 . S
C259 C265 1.491 1_455 S
C260 H251 0.950 . S
C260 C259 1.398 . S
C260 C261 1.391 . S
C261 H249 0.950 . S
C261 C257 1.393 . S
C261 C260 1.391 . S
C262 H252 0.950 . S
C262 C263 1.386 . S
C262 C264 1.391 . S
C263 C262 1.386 . S
C263 C267 1.393 . S
C264 H253 0.950 . S
C264 C262 1.391 . S
C264 C265 1.400 . S
C265 C259 1.491 1_655 S
C265 C264 1.400 . S
C265 C266 1.398 . S
C266 H254 0.950 . S
C266 C265 1.398 . S
C266 C267 1.391 . S
C267 H255 0.950 . S
C267 C263 1.393 . S
C267 C266 1.391 . S
H268 C276 0.950 . S
H269 C281 0.950 . S
H270 C278 0.950 . S
H271 C280 0.950 . S
H272 C282 0.950 . S
H273 C284 0.950 . S
H274 C286 0.950 . S
H275 C287 0.950 . S
C276 H268 0.950 . S
C276 C277 1.386 . S
C276 C278 1.391 . S
C277 C276 1.386 . S
C277 C281 1.393 . S
C278 H270 0.950 . S
C278 C276 1.391 . S
C278 C279 1.400 . S
C279 C278 1.400 . S
C279 C280 1.398 . S
C279 C285 1.491 1_565 S
C280 H271 0.950 . S
C280 C279 1.398 . S
C280 C281 1.391 . S
C281 H269 0.950 . S
C281 C277 1.393 . S
C281 C280 1.391 . S
C282 H272 0.950 . S
C282 C283 1.386 . S
C282 C284 1.391 . S
C283 C282 1.386 . S
C283 C287 1.393 . S
C284 H273 0.950 . S
C284 C282 1.391 . S
C284 C285 1.400 . S
C285 C279 1.491 1_545 S
C285 C284 1.400 . S
C285 C286 1.398 . S
C286 H274 0.950 . S
C286 C285 1.398 . S
C286 C287 1.391 . S
C287 H275 0.950 . S
C287 C283 1.393 . S
C287 C286 1.391 . S
H288 C296 0.950 . S
H289 C301 0.950 . S
H290 C298 0.950 . S
H291 C300 0.950 . S
H292 C302 0.950 . S
H293 C304 0.950 . S
H294 C306 0.950 . S
H295 C307 0.950 . S
C296 H288 0.950 . S
C296 C297 1.386 . S
C296 C298 1.391 . S
C297 C296 1.386 . S
C297 C301 1.393 . S
C298 H290 0.950 . S
C298 C296 1.391 . S
C298 C299 1.400 . S
C299 C298 1.400 . S
C299 C300 1.398 . S
C299 C305 1.491 1_655 S
C300 H291 0.950 . S
C300 C299 1.398 . S
C300 C301 1.391 . S
C301 H289 0.950 . S
C301 C297 1.393 . S
C301 C300 1.391 . S
C302 H292 0.950 . S
C302 C303 1.386 . S
C302 C304 1.391 . S
C303 C302 1.386 . S
C303 C307 1.393 . S
C304 H293 0.950 . S
C304 C302 1.391 . S
C304 C305 1.400 . S
C305 C299 1.491 1_455 S
C305 C304 1.400 . S
C305 C306 1.398 . S
C306 H294 0.950 . S
C306 C305 1.398 . S
C306 C307 1.391 . S
C307 H295 0.950 . S
C307 C303 1.393 . S
C307 C306 1.391 . S
H308 C316 0.950 . S
H309 C321 0.950 . S
H310 C318 0.950 . S
H311 C320 0.950 . S
H312 C322 0.950 . S
H313 C324 0.950 . S
H314 C326 0.950 . S
H315 C327 0.950 . S
C316 H308 0.950 . S
C316 C317 1.386 . S
C316 C318 1.391 . S
C317 C316 1.386 . S
C317 C321 1.393 . S
C318 H310 0.950 . S
C318 C316 1.391 . S
C318 C319 1.400 . S
C319 C318 1.400 . S
C319 C320 1.398 . S
C319 C325 1.491 1_545 S
C320 H311 0.950 . S
C320 C319 1.398 . S
C320 C321 1.391 . S
C321 H309 0.950 . S
C321 C317 1.393 . S
C321 C320 1.391 . S
C322 H312 0.950 . S
C322 C323 1.386 . S
C322 C324 1.391 . S
C323 C322 1.386 . S
C323 C327 1.393 . S
C324 H313 0.950 . S
C324 C322 1.391 . S
C324 C325 1.400 . S
C325 C319 1.491 1_565 S
C325 C324 1.400 . S
C325 C326 1.398 . S
C326 H314 0.950 . S
C326 C325 1.398 . S
C326 C327 1.391 . S
C327 H315 0.950 . S
C327 C323 1.393 . S
C327 C326 1.391 . S
H328 C336 0.950 . S
H329 C341 0.950 . S
H330 C338 0.950 . S
H331 C340 0.950 . S
H332 C342 0.950 . S
H333 C344 0.950 . S
H334 C346 0.950 . S
H335 C347 0.950 . S
C336 H328 0.950 . S
C336 C337 1.386 . S
C336 C338 1.391 . S
C337 C336 1.386 . S
C337 C341 1.393 . S
C338 H330 0.950 . S
C338 C336 1.391 . S
C338 C339 1.400 . S
C339 C338 1.400 . S
C339 C340 1.398 . S
C339 C345 1.491 1_655 S
C340 H331 0.950 . S
C340 C339 1.398 . S
C340 C341 1.391 . S
C341 H329 0.950 . S
C341 C337 1.393 . S
C341 C340 1.391 . S
C342 H332 0.950 . S
C342 C343 1.386 . S
C342 C344 1.391 . S
C343 C342 1.386 . S
C343 C347 1.393 . S
C344 H333 0.950 . S
C344 C342 1.391 . S
C344 C345 1.400 . S
C345 C339 1.491 1_455 S
C345 C344 1.400 . S
C345 C346 1.398 . S
C346 H334 0.950 . S
C346 C345 1.398 . S
C346 C347 1.391 . S
C347 H335 0.950 . S
C347 C343 1.393 . S
C347 C346 1.391 . S
H348 C356 0.950 . S
H349 C361 0.950 . S
H350 C358 0.950 . S
H351 C360 0.950 . S
H352 C362 0.950 . S
H353 C364 0.950 . S
H354 C366 0.950 . S
H355 C367 0.950 . S
C356 H348 0.950 . S
C356 C357 1.386 . S
C356 C358 1.391 . S
C357 C356 1.386 . S
C357 C361 1.393 . S
C358 H350 0.950 . S
C358 C356 1.391 . S
C358 C359 1.400 . S
C359 C358 1.400 . S
C359 C360 1.398 . S
C359 C365 1.491 1_545 S
C360 H351 0.950 . S
C360 C359 1.398 . S
C360 C361 1.391 . S
C361 H349 0.950 . S
C361 C357 1.393 . S
C361 C360 1.391 . S
C362 H352 0.950 . S
C362 C363 1.386 . S
C362 C364 1.391 . S
C363 C362 1.386 . S
C363 C367 1.393 . S
C364 H353 0.950 . S
C364 C362 1.391 . S
C364 C365 1.400 . S
C365 C359 1.491 1_565 S
C365 C364 1.400 . S
C365 C366 1.398 . S
C366 H354 0.950 . S
C366 C365 1.398 . S
C366 C367 1.391 . S
C367 H355 0.950 . S
C367 C363 1.393 . S
C367 C366 1.391 . S
H368 C376 0.950 . S
H369 C381 0.950 . S
H370 C378 0.950 . S
H371 C380 0.950 . S
H372 C382 0.950 . S
H373 C384 0.950 . S
H374 C386 0.950 . S
H375 C387 0.950 . S
C376 H368 0.950 . S
C376 C377 1.386 . S
C376 C378 1.391 . S
C377 C376 1.386 . S
C377 C381 1.393 . S
C378 H370 0.950 . S
C378 C376 1.391 . S
C378 C379 1.400 . S
C379 C378 1.400 . S
C379 C380 1.398 . S
C379 C385 1.491 . S
C380 H371 0.950 . S
C380 C379 1.398 . S
C380 C381 1.391 . S
C381 H369 0.950 . S
C381 C377 1.393 . S
C381 C380 1.391 . S
C382 H372 0.950 . S
C382 C383 1.386 . S
C382 C384 1.391 . S
C383 C382 1.386 . S
C383 C387 1.393 . S
C384 H373 0.950 . S
C384 C382 1.391 . S
C384 C385 1.400 . S
C385 C379 1.491 . S
C385 C384 1.400 . S
C385 C386 1.398 . S
C386 H374 0.950 . S
C386 C385 1.398 . S
C386 C387 1.391 . S
C387 H375 0.950 . S
C387 C383 1.393 . S
C387 C386 1.391 . S
H388 C396 0.950 . S
H389 C401 0.950 . S
H390 C398 0.950 . S
H391 C400 0.950 . S
H392 C402 0.950 . S
H393 C404 0.950 . S
H394 C406 0.950 . S
H395 C407 0.950 . S
C396 H388 0.950 . S
C396 C397 1.386 . S
C396 C398 1.391 . S
C397 C396 1.386 . S
C397 C401 1.393 . S
C398 H390 0.950 . S
C398 C396 1.391 . S
C398 C399 1.400 . S
C399 C398 1.400 . S
C399 C400 1.398 . S
C399 C405 1.491 . S
C400 H391 0.950 . S
C400 C399 1.398 . S
C400 C401 1.391 . S
C401 H389 0.950 . S
C401 C397 1.393 . S
C401 C400 1.391 . S
C402 H392 0.950 . S
C402 C403 1.386 . S
C402 C404 1.391 . S
C403 C402 1.386 . S
C403 C407 1.393 . S
C404 H393 0.950 . S
C404 C402 1.391 . S
C404 C405 1.400 . S
C405 C399 1.491 . S
C405 C404 1.400 . S
C405 C406 1.398 . S
C406 H394 0.950 . S
C406 C405 1.398 . S
C406 C407 1.391 . S
C407 H395 0.950 . S
C407 C403 1.393 . S
C407 C406 1.391 . S
H408 C416 0.950 . S
H409 C421 0.950 . S
H410 C418 0.950 . S
H411 C420 0.950 . S
H412 C422 0.950 . S
H413 C424 0.950 . S
H414 C426 0.950 . S
H415 C427 0.950 . S
C416 H408 0.950 . S
C416 C417 1.386 . S
C416 C418 1.391 . S
C417 C416 1.386 . S
C417 C421 1.393 . S
C418 H410 0.950 . S
C418 C416 1.391 . S
C418 C419 1.400 . S
C419 C418 1.400 . S
C419 C420 1.398 . S
C419 C425 1.491 . S
C420 H411 0.950 . S
C420 C419 1.398 . S
C420 C421 1.391 . S
C421 H409 0.950 . S
C421 C417 1.393 . S
C421 C420 1.391 . S
C422 H412 0.950 . S
C422 C423 1.386 . S
C422 C424 1.391 . S
C423 C422 1.386 . S
C423 C427 1.393 . S
C424 H413 0.950 . S
C424 C422 1.391 . S
C424 C425 1.400 . S
C425 C419 1.491 . S
C425 C424 1.400 . S
C425 C426 1.398 . S
C426 H414 0.950 . S
C426 C425 1.398 . S
C426 C427 1.391 . S
C427 H415 0.950 . S
C427 C423 1.393 . S
C427 C426 1.391 . S
H428 C436 0.950 . S
H429 C441 0.950 . S
H430 C438 0.950 . S
H431 C440 0.950 . S
H432 C442 0.950 . S
H433 C444 0.950 . S
H434 C446 0.950 . S
H435 C447 0.950 . S
C436 H428 0.950 . S
C436 C437 1.386 . S
C436 C438 1.391 . S
C437 C436 1.386 . S
C437 C441 1.393 . S
C438 H430 0.950 . S
C438 C436 1.391 . S
C438 C439 1.400 . S
C439 C438 1.400 . S
C439 C440 1.398 . S
C439 C445 1.491 . S
C440 H431 0.950 . S
C440 C439 1.398 . S
C440 C441 1.391 . S
C441 H429 0.950 . S
C441 C437 1.393 . S
C441 C440 1.391 . S
C442 H432 0.950 . S
C442 C443 1.386 . S
C442 C444 1.391 . S
C443 C442 1.386 . S
C443 C447 1.393 . S
C444 H433 0.950 . S
C444 C442 1.391 . S
C444 C445 1.400 . S
C445 C439 1.491 . S
C445 C444 1.400 . S
C445 C446 1.398 . S
C446 H434 0.950 . S
C446 C445 1.398 . S
C446 C447 1.391 . S
C447 H435 0.950 . S
C447 C443 1.393 . S
C447 C446 1.391 . S
H448 C456 0.950 . S
H449 C461 0.950 . S
H450 C458 0.950 . S
H451 C460 0.950 . S
H452 C462 0.950 . S
H453 C464 0.950 . S
H454 C466 0.950 . S
H455 C467 0.950 . S
C456 H448 0.950 . S
C456 C457 1.386 . S
C456 C458 1.391 . S
C457 C456 1.386 . S
C457 C461 1.393 . S
C458 H450 0.950 . S
C458 C456 1.391 . S
C458 C459 1.400 . S
C459 C458 1.400 . S
C459 C460 1.398 . S
C459 C465 1.491 . S
C460 H451 0.950 . S
C460 C459 1.398 . S
C460 C461 1.391 . S
C461 H449 0.950 . S
C461 C457 1.393 . S
C461 C460 1.391 . S
C462 H452 0.950 . S
C462 C463 1.386 . S
C462 C464 1.391 . S
C463 C462 1.386 . S
C463 C467 1.393 . S
C464 H453 0.950 . S
C464 C462 1.391 . S
C464 C465 1.400 . S
C465 C459 1.491 . S
C465 C464 1.400 . S
C465 C466 1.398 . S
C466 H454 0.950 . S
C466 C465 1.398 . S
C466 C467 1.391 . S
C467 H455 0.950 . S
C467 C463 1.393 . S
C467 C466 1.391 . S
H468 C476 0.950 . S
H469 C481 0.950 . S
H470 C478 0.950 . S
H471 C480 0.950 . S
H472 C482 0.950 . S
H473 C484 0.950 . S
H474 C486 0.950 . S
H475 C487 0.950 . S
C476 H468 0.950 . S
C476 C477 1.386 . S
C476 C478 1.391 . S
C477 C476 1.386 . S
C477 C481 1.393 . S
C478 H470 0.950 . S
C478 C476 1.391 . S
C478 C479 1.400 . S
C479 C478 1.400 . S
C479 C480 1.398 . S
C479 C485 1.491 . S
C480 H471 0.950 . S
C480 C479 1.398 . S
C480 C481 1.391 . S
C481 H469 0.950 . S
C481 C477 1.393 . S
C481 C480 1.391 . S
C482 H472 0.950 . S
C482 C483 1.386 . S
C482 C484 1.391 . S
C483 C482 1.386 . S
C483 C487 1.393 . S
C484 H473 0.950 . S
C484 C482 1.391 . S
C484 C485 1.400 . S
C485 C479 1.491 . S
C485 C484 1.400 . S
C485 C486 1.398 . S
C486 H474 0.950 . S
C486 C485 1.398 . S
C486 C487 1.391 . S
C487 H475 0.950 . S
C487 C483 1.393 . S
C487 C486 1.391 . S
H488 C496 0.950 . S
H489 C501 0.950 . S
H490 C498 0.950 . S
H491 C500 0.950 . S
H492 C502 0.950 . S
H493 C504 0.950 . S
H494 C506 0.950 . S
H495 C507 0.950 . S
C496 H488 0.950 . S
C496 C497 1.386 . S
C496 C498 1.391 . S
C497 C496 1.386 . S
C497 C501 1.393 . S
C498 H490 0.950 . S
C498 C496 1.391 . S
C498 C499 1.400 . S
C499 C498 1.400 . S
C499 C500 1.398 . S
C499 C505 1.491 . S
C500 H491 0.950 . S
C500 C499 1.398 . S
C500 C501 1.391 . S
C501 H489 0.950 . S
C501 C497 1.393 . S
C501 C500 1.391 . S
C502 H492 0.950 . S
C502 C503 1.386 . S
C502 C504 1.391 . S
C503 C502 1.386 . S
C503 C507 1.393 . S
C504 H493 0.950 . S
C504 C502 1.391 . S
C504 C505 1.400 . S
C505 C499 1.491 . S
C505 C504 1.400 . S
C505 C506 1.398 . S
C506 H494 0.950 . S
C506 C505 1.398 . S
C506 C507 1.391 . S
C507 H495 0.950 . S
C507 C503 1.393 . S
C507 C506 1.391 . S
H508 C516 0.950 . S
H509 C521 0.950 . S
H510 C518 0.950 . S
H511 C520 0.950 . S
H512 C522 0.950 . S
H513 C524 0.950 . S
H514 C526 0.950 . S
H515 C527 0.950 . S
C516 H508 0.950 . S
C516 C517 1.386 . S
C516 C518 1.391 . S
C517 C516 1.386 . S
C517 C521 1.393 . S
C518 H510 0.950 . S
C518 C516 1.391 . S
C518 C519 1.400 . S
C519 C518 1.400 . S
C519 C520 1.398 . S
C519 C525 1.491 . S
C520 H511 0.950 . S
C520 C519 1.398 . S
C520 C521 1.391 . S
C521 H509 0.950 . S
C521 C517 1.393 . S
C521 C520 1.391 . S
C522 H512 0.950 . S
C522 C523 1.386 . S
C522 C524 1.391 . S
C523 C522 1.386 . S
C523 C527 1.393 . S
C524 H513 0.950 . S
C524 C522 1.391 . S
C524 C525 1.400 . S
C525 C519 1.491 . S
C525 C524 1.400 . S
C525 C526 1.398 . S
C526 H514 0.950 . S
C526 C525 1.398 . S
C526 C527 1.391 . S
C527 H515 0.950 . S
C527 C523 1.393 . S
C527 C526 1.391 . S
H528 C536 0.950 . S
H529 C541 0.950 . S
H530 C538 0.950 . S
H531 C540 0.950 . S
H532 C542 0.950 . S
H533 C544 0.950 . S
H534 C546 0.950 . S
H535 C547 0.950 . S
C536 H528 0.950 . S
C536 C537 1.386 . S
C536 C538 1.391 . S
C537 C536 1.386 . S
C537 C541 1.393 . S
C538 H530 0.950 . S
C538 C536 1.391 . S
C538 C539 1.400 . S
C539 C538 1.400 . S
C539 C540 1.398 . S
C539 C545 1.491 1_556 S
C540 H531 0.950 . S
C540 C539 1.398 . S
C540 C541 1.391 . S
C541 H529 0.950 . S
C541 C537 1.393 . S
C541 C540 1.391 . S
C542 H532 0.950 . S
C542 C543 1.386 . S
C542 C544 1.391 . S
C543 C542 1.386 . S
C543 C547 1.393 . S
C544 H533 0.950 . S
C544 C542 1.391 . S
C544 C545 1.400 . S
C545 C539 1.491 1_554 S
C545 C544 1.400 . S
C545 C546 1.398 . S
C546 H534 0.950 . S
C546 C545 1.398 . S
C546 C547 1.391 . S
C547 H535 0.950 . S
C547 C543 1.393 . S
C547 C546 1.391 . S
H548 C556 0.950 . S
H549 C561 0.950 . S
H550 C558 0.950 . S
H551 C560 0.950 . S
H552 C562 0.950 . S
H553 C564 0.950 . S
H554 C566 0.950 . S
H555 C567 0.950 . S
C556 H548 0.950 . S
C556 C557 1.386 . S
C556 C558 1.391 . S
C557 C556 1.386 . S
C557 C561 1.393 . S
C558 H550 0.950 . S
C558 C556 1.391 . S
C558 C559 1.400 . S
C559 C558 1.400 . S
C559 C560 1.398 . S
C559 C565 1.491 . S
C560 H551 0.950 . S
C560 C559 1.398 . S
C560 C561 1.391 . S
C561 H549 0.950 . S
C561 C557 1.393 . S
C561 C560 1.391 . S
C562 H552 0.950 . S
C562 C563 1.386 . S
C562 C564 1.391 . S
C563 C562 1.386 . S
C563 C567 1.393 . S
C564 H553 0.950 . S
C564 C562 1.391 . S
C564 C565 1.400 . S
C565 C559 1.491 . S
C565 C564 1.400 . S
C565 C566 1.398 . S
C566 H554 0.950 . S
C566 C565 1.398 . S
C566 C567 1.391 . S
C567 H555 0.950 . S
C567 C563 1.393 . S
C567 C566 1.391 . S
H568 C576 0.950 . S
H569 C581 0.950 . S
H570 C578 0.950 . S
H571 C580 0.950 . S
H572 C582 0.950 . S
H573 C584 0.950 . S
H574 C586 0.950 . S
H575 C587 0.950 . S
C576 H568 0.950 . S
C576 C577 1.386 . S
C576 C578 1.391 . S
C577 C576 1.386 . S
C577 C581 1.393 . S
C578 H570 0.950 . S
C578 C576 1.391 . S
C578 C579 1.400 . S
C579 C578 1.400 . S
C579 C580 1.398 . S
C579 C585 1.491 1_554 S
C580 H571 0.950 . S
C580 C579 1.398 . S
C580 C581 1.391 . S
C581 H569 0.950 . S
C581 C577 1.393 . S
C581 C580 1.391 . S
C582 H572 0.950 . S
C582 C583 1.386 . S
C582 C584 1.391 . S
C583 C582 1.386 . S
C583 C587 1.393 . S
C584 H573 0.950 . S
C584 C582 1.391 . S
C584 C585 1.400 . S
C585 C579 1.491 1_556 S
C585 C584 1.400 . S
C585 C586 1.398 . S
C586 H574 0.950 . S
C586 C585 1.398 . S
C586 C587 1.391 . S
C587 H575 0.950 . S
C587 C583 1.393 . S
C587 C586 1.391 . S
H588 C596 0.950 . S
H589 C601 0.950 . S
H590 C598 0.950 . S
H591 C600 0.950 . S
H592 C602 0.950 . S
H593 C604 0.950 . S
H594 C606 0.950 . S
H595 C607 0.950 . S
C596 H588 0.950 . S
C596 C597 1.386 . S
C596 C598 1.391 . S
C597 C596 1.386 . S
C597 C601 1.393 . S
C598 H590 0.950 . S
C598 C596 1.391 . S
C598 C599 1.400 . S
C599 C598 1.400 . S
C599 C600 1.398 . S
C599 C605 1.491 . S
C600 H591 0.950 . S
C600 C599 1.398 . S
C600 C601 1.391 . S
C601 H589 0.950 . S
C601 C597 1.393 . S
C601 C600 1.391 . S
C602 H592 0.950 . S
C602 C603 1.386 . S
C602 C604 1.391 . S
C603 C602 1.386 . S
C603 C607 1.393 . S
C604 H593 0.950 . S
C604 C602 1.391 . S
C604 C605 1.400 . S
C605 C599 1.491 . S
C605 C604 1.400 . S
C605 C606 1.398 . S
C606 H594 0.950 . S
C606 C605 1.398 . S
C606 C607 1.391 . S
C607 H595 0.950 . S
C607 C603 1.393 . S
C607 C606 1.391 . S
H608 C616 0.950 . S
H609 C621 0.950 . S
H610 C618 0.950 . S
H611 C620 0.950 . S
H612 C622 0.950 . S
H613 C624 0.950 . S
H614 C626 0.950 . S
H615 C627 0.950 . S
C616 H608 0.950 . S
C616 C617 1.386 . S
C616 C618 1.391 . S
C617 C616 1.386 . S
C617 C621 1.393 . S
C618 H610 0.950 . S
C618 C616 1.391 . S
C618 C619 1.400 . S
C619 C618 1.400 . S
C619 C620 1.398 . S
C619 C625 1.491 . S
C620 H611 0.950 . S
C620 C619 1.398 . S
C620 C621 1.391 . S
C621 H609 0.950 . S
C621 C617 1.393 . S
C621 C620 1.391 . S
C622 H612 0.950 . S
C622 C623 1.386 . S
C622 C624 1.391 . S
C623 C622 1.386 . S
C623 C627 1.393 . S
C624 H613 0.950 . S
C624 C622 1.391 . S
C624 C625 1.400 . S
C625 C619 1.491 . S
C625 C624 1.400 . S
C625 C626 1.398 . S
C626 H614 0.950 . S
C626 C625 1.398 . S
C626 C627 1.391 . S
C627 H615 0.950 . S
C627 C623 1.393 . S
C627 C626 1.391 . S
H628 C636 0.950 . S
H629 C641 0.950 . S
H630 C638 0.950 . S
H631 C640 0.950 . S
H632 C642 0.950 . S
H633 C644 0.950 . S
H634 C646 0.950 . S
H635 C647 0.950 . S
C636 H628 0.950 . S
C636 C637 1.386 . S
C636 C638 1.391 . S
C637 C636 1.386 . S
C637 C641 1.393 . S
C638 H630 0.950 . S
C638 C636 1.391 . S
C638 C639 1.400 . S
C639 C638 1.400 . S
C639 C640 1.398 . S
C639 C645 1.491 1_556 S
C640 H631 0.950 . S
C640 C639 1.398 . S
C640 C641 1.391 . S
C641 H629 0.950 . S
C641 C637 1.393 . S
C641 C640 1.391 . S
C642 H632 0.950 . S
C642 C643 1.386 . S
C642 C644 1.391 . S
C643 C642 1.386 . S
C643 C647 1.393 . S
C644 H633 0.950 . S
C644 C642 1.391 . S
C644 C645 1.400 . S
C645 C639 1.491 1_554 S
C645 C644 1.400 . S
C645 C646 1.398 . S
C646 H634 0.950 . S
C646 C645 1.398 . S
C646 C647 1.391 . S
C647 H635 0.950 . S
C647 C643 1.393 . S
C647 C646 1.391 . S
H648 C656 0.950 . S
H649 C661 0.950 . S
H650 C658 0.950 . S
H651 C660 0.950 . S
H652 C662 0.950 . S
H653 C664 0.950 . S
H654 C666 0.950 . S
H655 C667 0.950 . S
C656 H648 0.950 . S
C656 C657 1.386 . S
C656 C658 1.391 . S
C657 C656 1.386 . S
C657 C661 1.393 . S
C658 H650 0.950 . S
C658 C656 1.391 . S
C658 C659 1.400 . S
C659 C658 1.400 . S
C659 C660 1.398 . S
C659 C665 1.491 . S
C660 H651 0.950 . S
C660 C659 1.398 . S
C660 C661 1.391 . S
C661 H649 0.950 . S
C661 C657 1.393 . S
C661 C660 1.391 . S
C662 H652 0.950 . S
C662 C663 1.386 . S
C662 C664 1.391 . S
C663 C662 1.386 . S
C663 C667 1.393 . S
C664 H653 0.950 . S
C664 C662 1.391 . S
C664 C665 1.400 . S
C665 C659 1.491 . S
C665 C664 1.400 . S
C665 C666 1.398 . S
C666 H654 0.950 . S
C666 C665 1.398 . S
C666 C667 1.391 . S
C667 H655 0.950 . S
C667 C663 1.393 . S
C667 C666 1.391 . S
H668 C676 0.950 . S
H669 C681 0.950 . S
H670 C678 0.950 . S
H671 C680 0.950 . S
H672 C682 0.950 . S
H673 C684 0.950 . S
H674 C686 0.950 . S
H675 C687 0.950 . S
C676 H668 0.950 . S
C676 C677 1.386 . S
C676 C678 1.391 . S
C677 C676 1.386 . S
C677 C681 1.393 . S
C678 H670 0.950 . S
C678 C676 1.391 . S
C678 C679 1.400 . S
C679 C678 1.400 . S
C679 C680 1.398 . S
C679 C685 1.491 1_554 S
C680 H671 0.950 . S
C680 C679 1.398 . S
C680 C681 1.391 . S
C681 H669 0.950 . S
C681 C677 1.393 . S
C681 C680 1.391 . S
C682 H672 0.950 . S
C682 C683 1.386 . S
C682 C684 1.391 . S
C683 C682 1.386 . S
C683 C687 1.393 . S
C684 H673 0.950 . S
C684 C682 1.391 . S
C684 C685 1.400 . S
C685 C679 1.491 1_556 S
C685 C684 1.400 . S
C685 C686 1.398 . S
C686 H674 0.950 . S
C686 C685 1.398 . S
C686 C687 1.391 . S
C687 H675 0.950 . S
C687 C683 1.393 . S
C687 C686 1.391 . S
H688 C696 0.950 . S
H689 C701 0.950 . S
H690 C698 0.950 . S
H691 C700 0.950 . S
H692 C702 0.950 . S
H693 C704 0.950 . S
H694 C706 0.950 . S
H695 C707 0.950 . S
C696 H688 0.950 . S
C696 C697 1.386 . S
C696 C698 1.391 . S
C697 C696 1.386 . S
C697 C701 1.393 . S
C698 H690 0.950 . S
C698 C696 1.391 . S
C698 C699 1.400 . S
C699 C698 1.400 . S
C699 C700 1.398 . S
C699 C705 1.491 . S
C700 H691 0.950 . S
C700 C699 1.398 . S
C700 C701 1.391 . S
C701 H689 0.950 . S
C701 C697 1.393 . S
C701 C700 1.391 . S
C702 H692 0.950 . S
C702 C703 1.386 . S
C702 C704 1.391 . S
C703 C702 1.386 . S
C703 C707 1.393 . S
C704 H693 0.950 . S
C704 C702 1.391 . S
C704 C705 1.400 . S
C705 C699 1.491 . S
C705 C704 1.400 . S
C705 C706 1.398 . S
C706 H694 0.950 . S
C706 C705 1.398 . S
C706 C707 1.391 . S
C707 H695 0.950 . S
C707 C703 1.393 . S
C707 C706 1.391 . S
H708 C716 0.950 . S
H709 C721 0.950 . S
H710 C718 0.950 . S
H711 C720 0.950 . S
H712 C722 0.950 . S
H713 C724 0.950 . S
H714 C726 0.950 . S
H715 C727 0.950 . S
C716 H708 0.950 . S
C716 C717 1.386 . S
C716 C718 1.391 . S
C717 C716 1.386 . S
C717 C721 1.393 . S
C718 H710 0.950 . S
C718 C716 1.391 . S
C718 C719 1.400 . S
C719 C718 1.400 . S
C719 C720 1.398 . S
C719 C725 1.491 . S
C720 H711 0.950 . S
C720 C719 1.398 . S
C720 C721 1.391 . S
C721 H709 0.950 . S
C721 C717 1.393 . S
C721 C720 1.391 . S
C722 H712 0.950 . S
C722 C723 1.386 . S
C722 C724 1.391 . S
C723 C722 1.386 . S
C723 C727 1.393 . S
C724 H713 0.950 . S
C724 C722 1.391 . S
C724 C725 1.400 . S
C725 C719 1.491 . S
C725 C724 1.400 . S
C725 C726 1.398 . S
C726 H714 0.950 . S
C726 C725 1.398 . S
C726 C727 1.391 . S
C727 H715 0.950 . S
C727 C723 1.393 . S
C727 C726 1.391 . S
H728 C736 0.950 . S
H729 C741 0.950 . S
H730 C738 0.950 . S
H731 C740 0.950 . S
H732 C742 0.950 . S
H733 C744 0.950 . S
H734 C746 0.950 . S
H735 C747 0.950 . S
C736 H728 0.950 . S
C736 C737 1.386 . S
C736 C738 1.391 . S
C737 C736 1.386 . S
C737 C741 1.393 . S
C738 H730 0.950 . S
C738 C736 1.391 . S
C738 C739 1.400 . S
C739 C738 1.400 . S
C739 C740 1.398 . S
C739 C745 1.491 . S
C740 H731 0.950 . S
C740 C739 1.398 . S
C740 C741 1.391 . S
C741 H729 0.950 . S
C741 C737 1.393 . S
C741 C740 1.391 . S
C742 H732 0.950 . S
C742 C743 1.386 . S
C742 C744 1.391 . S
C743 C742 1.386 . S
C743 C747 1.393 . S
C744 H733 0.950 . S
C744 C742 1.391 . S
C744 C745 1.400 . S
C745 C739 1.491 . S
C745 C744 1.400 . S
C745 C746 1.398 . S
C746 H734 0.950 . S
C746 C745 1.398 . S
C746 C747 1.391 . S
C747 H735 0.950 . S
C747 C743 1.393 . S
C747 C746 1.391 . S
H748 C756 0.950 . S
H749 C761 0.950 . S
H750 C758 0.950 . S
H751 C760 0.950 . S
H752 C762 0.950 . S
H753 C764 0.950 . S
H754 C766 0.950 . S
H755 C767 0.950 . S
C756 H748 0.950 . S
C756 C757 1.386 . S
C756 C758 1.391 . S
C757 C756 1.386 . S
C757 C761 1.393 . S
C758 H750 0.950 . S
C758 C756 1.391 . S
C758 C759 1.400 . S
C759 C758 1.400 . S
C759 C760 1.398 . S
C759 C765 1.491 . S
C760 H751 0.950 . S
C760 C759 1.398 . S
C760 C761 1.391 . S
C761 H749 0.950 . S
C761 C757 1.393 . S
C761 C760 1.391 . S
C762 H752 0.950 . S
C762 C763 1.386 . S
C762 C764 1.391 . S
C763 C762 1.386 . S
C763 C767 1.393 . S
C764 H753 0.950 . S
C764 C762 1.391 . S
C764 C765 1.400 . S
C765 C759 1.491 . S
C765 C764 1.400 . S
C765 C766 1.398 . S
C766 H754 0.950 . S
C766 C765 1.398 . S
C766 C767 1.391 . S
C767 H755 0.950 . S
C767 C763 1.393 . S
C767 C766 1.391 . S
H768 C776 0.950 . S
H769 C781 0.950 . S
H770 C778 0.950 . S
H771 C780 0.950 . S
H772 C782 0.950 . S
H773 C784 0.950 . S
H774 C786 0.950 . S
H775 C787 0.950 . S
C776 H768 0.950 . S
C776 C777 1.386 . S
C776 C778 1.391 . S
C777 C776 1.386 . S
C777 C781 1.393 . S
C778 H770 0.950 . S
C778 C776 1.391 . S
C778 C779 1.400 . S
C779 C778 1.400 . S
C779 C780 1.398 . S
C779 C785 1.491 . S
C780 H771 0.950 . S
C780 C779 1.398 . S
C780 C781 1.391 . S
C781 H769 0.950 . S
C781 C777 1.393 . S
C781 C780 1.391 . S
C782 H772 0.950 . S
C782 C783 1.386 . S
C782 C784 1.391 . S
C783 C782 1.386 . S
C783 C787 1.393 . S
C784 H773 0.950 . S
C784 C782 1.391 . S
C784 C785 1.400 . S
C785 C779 1.491 . S
C785 C784 1.400 . S
C785 C786 1.398 . S
C786 H774 0.950 . S
C786 C785 1.398 . S
C786 C787 1.391 . S
C787 H775 0.950 . S
C787 C783 1.393 . S
C787 C786 1.391 . S
H788 C796 0.950 . S
H789 C801 0.950 . S
H790 C798 0.950 . S
H791 C800 0.950 . S
H792 C802 0.950 . S
H793 C804 0.950 . S
H794 C806 0.950 . S
H795 C807 0.950 . S
C796 H788 0.950 . S
C796 C797 1.386 . S
C796 C798 1.391 . S
C797 C796 1.386 . S
C797 C801 1.393 . S
C798 H790 0.950 . S
C798 C796 1.391 . S
C798 C799 1.400 . S
C799 C798 1.400 . S
C799 C800 1.398 . S
C799 C805 1.491 . S
C800 H791 0.950 . S
C800 C799 1.398 . S
C800 C801 1.391 . S
C801 H789 0.950 . S
C801 C797 1.393 . S
C801 C800 1.391 . S
C802 H792 0.950 . S
C802 C803 1.386 . S
C802 C804 1.391 . S
C803 C802 1.386 . S
C803 C807 1.393 . S
C804 H793 0.950 . S
C804 C802 1.391 . S
C804 C805 1.400 . S
C805 C799 1.491 . S
C805 C804 1.400 . S
C805 C806 1.398 . S
C806 H794 0.950 . S
C806 C805 1.398 . S
C806 C807 1.391 . S
C807 H795 0.950 . S
C807 C803 1.393 . S
C807 C806 1.391 . S
H808 C816 0.950 . S
H809 C821 0.950 . S
H810 C818 0.950 . S
H811 C820 0.950 . S
H812 C822 0.950 . S
H813 C824 0.950 . S
H814 C826 0.950 . S
H815 C827 0.950 . S
C816 H808 0.950 . S
C816 C817 1.386 . S
C816 C818 1.391 . S
C817 C816 1.386 . S
C817 C821 1.393 . S
C818 H810 0.950 . S
C818 C816 1.391 . S
C818 C819 1.400 . S
C819 C818 1.400 . S
C819 C820 1.398 . S
C819 C825 1.491 . S
C820 H811 0.950 . S
C820 C819 1.398 . S
C820 C821 1.391 . S
C821 H809 0.950 . S
C821 C817 1.393 . S
C821 C820 1.391 . S
C822 H812 0.950 . S
C822 C823 1.386 . S
C822 C824 1.391 . S
C823 C822 1.386 . S
C823 C827 1.393 . S
C824 H813 0.950 . S
C824 C822 1.391 . S
C824 C825 1.400 . S
C825 C819 1.491 . S
C825 C824 1.400 . S
C825 C826 1.398 . S
C826 H814 0.950 . S
C826 C825 1.398 . S
C826 C827 1.391 . S
C827 H815 0.950 . S
C827 C823 1.393 . S
C827 C826 1.391 . S
H828 C836 0.950 . S
H829 C841 0.950 . S
H830 C838 0.950 . S
H831 C840 0.950 . S
H832 C842 0.950 . S
H833 C844 0.950 . S
H834 C846 0.950 . S
H835 C847 0.950 . S
C836 H828 0.950 . S
C836 C837 1.386 . S
C836 C838 1.391 . S
C837 C836 1.386 . S
C837 C841 1.393 . S
C838 H830 0.950 . S
C838 C836 1.391 . S
C838 C839 1.400 . S
C839 C838 1.400 . S
C839 C840 1.398 . S
C839 C845 1.491 . S
C840 H831 0.950 . S
C840 C839 1.398 . S
C840 C841 1.391 . S
C841 H829 0.950 . S
C841 C837 1.393 . S
C841 C840 1.391 . S
C842 H832 0.950 . S
C842 C843 1.386 . S
C842 C844 1.391 . S
C843 C842 1.386 . S
C843 C847 1.393 . S
C844 H833 0.950 . S
C844 C842 1.391 . S
C844 C845 1.400 . S
C845 C839 1.491 . S
C845 C844 1.400 . S
C845 C846 1.398 . S
C846 H834 0.950 . S
C846 C845 1.398 . S
C846 C847 1.391 . S
C847 H835 0.950 . S
C847 C843 1.393 . S
C847 C846 1.391 . S
C217 C10 1.932 . S
C223 C36 1.931 . S
C237 C49 1.922 . S
C243 C23 1.924 . S
C257 C62 1.931 . S
C263 C88 1.930 . S
C277 C101 1.930 . S
C283 C75 1.931 . S
C297 C114 1.830 . S
C303 C140 1.830 . S
C317 C153 1.850 . S
C323 C127 1.849 . S
C337 C166 1.835 . S
C343 C192 1.834 . S
C357 C205 1.831 . S
C363 C179 1.831 . S
C377 C55 1.517 . S
C383 C3 1.517 . S
C397 C16 1.534 . S
C403 C68 1.530 . S
C417 C29 1.517 . S
C423 C81 1.516 . S
C437 C94 1.517 . S
C443 C42 1.523 . S
C457 C107 1.556 . S
C463 C159 1.556 . S
C477 C120 1.553 . S
C483 C172 1.555 . S
C497 C133 1.553 . S
C503 C185 1.554 . S
C517 C146 1.557 . S
C523 C198 1.554 . S
C537 C131 1.534 . S
C543 C1 1.517 . S
C557 C144 1.539 . S
C563 C14 1.528 . S
C577 C27 1.519 . S
C583 C105 1.537 . S
C597 C40 1.519 . S
C603 C118 1.533 . S
C617 C53 1.521 . S
C623 C183 1.538 . S
C637 C66 1.524 . S
C643 C196 1.539 . S
C657 C79 1.530 . S
C663 C157 1.537 . S
C677 C170 1.537 . S
C683 C92 1.520 . S
C697 C5 1.839 . S
C703 C200 1.787 . S
C717 C161 1.777 . S
C723 C18 1.840 . S
C737 C31 1.839 . S
C743 C174 1.788 . S
C757 C187 1.788 . S
C763 C44 1.839 . S
C777 C122 1.781 . S
C783 C57 1.840 . S
C797 C70 1.839 . S
C803 C135 1.787 . S
C817 C148 1.775 . S
C823 C83 1.840 . S
C837 C109 1.786 . S
C843 C96 1.839 . S
