# Generated by pormake.
# Topology umc, (4)-cn, num edge types: 1
# Building blocks:
#     Node 0, Type 0, BuildingBlock: QUQFOY_clean_sbu_1, # of connection points: 4
#     Node 1, Type 0, BuildingBlock: QUQFOY_clean_sbu_1, # of connection points: 4
#     Node 2, Type 0, BuildingBlock: QUQFOY_clean_sbu_1, # of connection points: 4
#     Node 3, Type 0, BuildingBlock: QUQFOY_clean_sbu_1, # of connection points: 4
#     Node 4, Type 0, BuildingBlock: QUQFOY_clean_sbu_1, # of connection points: 4
#     Node 5, Type 0, BuildingBlock: QUQFOY_clean_sbu_1, # of connection points: 4
#     Node 6, Type 0, BuildingBlock: QUQFOY_clean_sbu_1, # of connection points: 4
#     Node 7, Type 0, BuildingBlock: QUQFOY_clean_sbu_1, # of connection points: 4
#     Node 8, Type 0, BuildingBlock: QUQFOY_clean_sbu_1, # of connection points: 4
#     Node 9, Type 0, BuildingBlock: QUQFOY_clean_sbu_1, # of connection points: 4
#     Node 10, Type 0, BuildingBlock: QUQFOY_clean_sbu_1, # of connection points: 4
#     Node 11, Type 0, BuildingBlock: QUQFOY_clean_sbu_1, # of connection points: 4
#     Node 12, Type 0, BuildingBlock: QUQFOY_clean_sbu_1, # of connection points: 4
#     Node 13, Type 0, BuildingBlock: QUQFOY_clean_sbu_1, # of connection points: 4
#     Node 14, Type 0, BuildingBlock: QUQFOY_clean_sbu_1, # of connection points: 4
#     Node 15, Type 0, BuildingBlock: QUQFOY_clean_sbu_1, # of connection points: 4
#     Edge 16, Type (0, 0), BuildingBlock: XIVTED_clean_linker_0, # of connection points: 2
#     Edge 17, Type (0, 0), BuildingBlock: XIVTED_clean_linker_0, # of connection points: 2
#     Edge 18, Type (0, 0), BuildingBlock: XIVTED_clean_linker_0, # of connection points: 2
#     Edge 19, Type (0, 0), BuildingBlock: XIVTED_clean_linker_0, # of connection points: 2
#     Edge 20, Type (0, 0), BuildingBlock: XIVTED_clean_linker_0, # of connection points: 2
#     Edge 21, Type (0, 0), BuildingBlock: XIVTED_clean_linker_0, # of connection points: 2
#     Edge 22, Type (0, 0), BuildingBlock: XIVTED_clean_linker_0, # of connection points: 2
#     Edge 23, Type (0, 0), BuildingBlock: XIVTED_clean_linker_0, # of connection points: 2
#     Edge 24, Type (0, 0), BuildingBlock: XIVTED_clean_linker_0, # of connection points: 2
#     Edge 25, Type (0, 0), BuildingBlock: XIVTED_clean_linker_0, # of connection points: 2
#     Edge 26, Type (0, 0), BuildingBlock: XIVTED_clean_linker_0, # of connection points: 2
#     Edge 27, Type (0, 0), BuildingBlock: XIVTED_clean_linker_0, # of connection points: 2
#     Edge 28, Type (0, 0), BuildingBlock: XIVTED_clean_linker_0, # of connection points: 2
#     Edge 29, Type (0, 0), BuildingBlock: XIVTED_clean_linker_0, # of connection points: 2
#     Edge 30, Type (0, 0), BuildingBlock: XIVTED_clean_linker_0, # of connection points: 2
#     Edge 31, Type (0, 0), BuildingBlock: XIVTED_clean_linker_0, # of connection points: 2
#     Edge 32, Type (0, 0), BuildingBlock: XIVTED_clean_linker_0, # of connection points: 2
#     Edge 33, Type (0, 0), BuildingBlock: XIVTED_clean_linker_0, # of connection points: 2
#     Edge 34, Type (0, 0), BuildingBlock: XIVTED_clean_linker_0, # of connection points: 2
#     Edge 35, Type (0, 0), BuildingBlock: XIVTED_clean_linker_0, # of connection points: 2
#     Edge 36, Type (0, 0), BuildingBlock: XIVTED_clean_linker_0, # of connection points: 2
#     Edge 37, Type (0, 0), BuildingBlock: XIVTED_clean_linker_0, # of connection points: 2
#     Edge 38, Type (0, 0), BuildingBlock: XIVTED_clean_linker_0, # of connection points: 2
#     Edge 39, Type (0, 0), BuildingBlock: XIVTED_clean_linker_0, # of connection points: 2
#     Edge 40, Type (0, 0), BuildingBlock: XIVTED_clean_linker_0, # of connection points: 2
#     Edge 41, Type (0, 0), BuildingBlock: XIVTED_clean_linker_0, # of connection points: 2
#     Edge 42, Type (0, 0), BuildingBlock: XIVTED_clean_linker_0, # of connection points: 2
#     Edge 43, Type (0, 0), BuildingBlock: XIVTED_clean_linker_0, # of connection points: 2
#     Edge 44, Type (0, 0), BuildingBlock: XIVTED_clean_linker_0, # of connection points: 2
#     Edge 45, Type (0, 0), BuildingBlock: XIVTED_clean_linker_0, # of connection points: 2
#     Edge 46, Type (0, 0), BuildingBlock: XIVTED_clean_linker_0, # of connection points: 2
#     Edge 47, Type (0, 0), BuildingBlock: XIVTED_clean_linker_0, # of connection points: 2
# Relax obj value: 0.042
# Max RMSD: 0.114
# Mean RMSD: 0.114
data_MOF--net-umc--node1-QUQFOY_clean_sbu_1--edge1-XIVTED_clean_linker_0
_symmetry_space_group_name_H-M    P1
_symmetry_Int_Tables_number       1
_symmetry_cell_setting            triclinic
loop_
_symmetry_equiv_pos_as_xyz
'x, y, z'
_cell_length_a     40.350731
_cell_length_b     40.789349
_cell_length_c     57.672368
_cell_angle_alpha  89.987873
_cell_angle_beta   90.060103
_cell_angle_gamma 90.066198
loop_
_atom_site_label
_atom_site_type_symbol
_atom_site_fract_x
_atom_site_fract_y
_atom_site_fract_z
_atom_type_partial_charge
O0 O 0.3141 0.0981 0.41866 0.0
Cd1 Cd 0.33327 0.10996 0.38652 0.0
Cd2 Cd 0.3122 0.04812 0.37944 0.0
O3 O 0.29052 0.05026 0.4119 0.0
O4 O 0.33894 0.15843 0.38978 0.0
O5 O 0.30412 0.13625 0.36473 0.0
C6 C 0.3158 0.16222 0.3746 0.0
C7 C 0.28461 0.04047 0.34447 0.0
C8 C 0.29682 0.07391 0.42556 0.0
C9 C 0.38556 0.0595 0.37679 0.0
O10 O 0.36224 0.03865 0.37846 0.0
O11 O 0.37925 0.09009 0.37781 0.0
O12 O 0.29004 1.01616 0.35834 0.0
O13 O 0.29296 0.06953 0.35131 0.0
O14 O 0.69048 0.9338 0.41709 0.0
Cd15 Cd 0.67155 0.92325 0.38465 0.0
Cd16 Cd 0.69262 0.98543 0.3789 0.0
O17 O 0.71396 0.98198 0.41146 0.0
O18 O 0.66647 0.87455 0.38672 0.0
O19 O 0.70109 0.89844 0.36236 0.0
C20 C 0.68977 0.87185 0.37157 0.0
C21 C 0.72055 0.99379 0.34417 0.0
C22 C 0.70762 0.95772 0.42459 0.0
C23 C 0.61924 0.97398 0.37572 0.0
O24 O 0.64254 0.99478 0.37781 0.0
O25 O 0.62555 0.94336 0.37622 0.0
O26 O 0.71505 0.01783 0.35824 0.0
O27 O 0.71204 0.96463 0.35066 0.0
O28 O 0.31664 0.93461 0.10437 0.0
Cd29 Cd 0.33536 0.92434 0.1369 0.0
Cd30 Cd 0.31362 0.98629 0.14245 0.0
O31 O 0.29255 0.98249 0.10983 0.0
O32 O 0.34063 0.87565 0.13504 0.0
O33 O 0.3057 0.89953 0.15914 0.0
C34 C 0.31719 0.87294 0.15008 0.0
C35 C 0.28552 0.99449 0.17711 0.0
C36 C 0.29929 0.95829 0.09676 0.0
C37 C 0.3871 0.97568 0.14593 0.0
O38 O 0.36359 0.99617 0.1437 0.0
O39 O 0.38113 0.94498 0.14547 0.0
O40 O 0.29086 0.01855 0.163 0.0
O41 O 0.29423 0.96539 0.17066 0.0
O42 O 0.69178 0.09971 0.10337 0.0
Cd43 Cd 0.67326 0.11055 0.13584 0.0
Cd44 Cd 0.6951 0.04887 0.14201 0.0
O45 O 0.71639 0.05224 0.10944 0.0
O46 O 0.66807 0.15922 0.13365 0.0
O47 O 0.70305 0.13559 0.15791 0.0
C48 C 0.69155 0.16209 0.14869 0.0
C49 C 0.72283 0.04082 0.17688 0.0
C50 C 0.70937 0.07603 0.09606 0.0
C51 C 0.62161 0.05937 0.14525 0.0
O52 O 0.64514 0.03889 0.14309 0.0
O53 O 0.62756 0.09007 0.14465 0.0
O54 O 0.71766 1.01672 0.16278 0.0
O55 O 0.71424 0.0699 0.1703 0.0
O56 O 0.68825 0.93339 0.60325 0.0
Cd57 Cd 0.67133 0.92314 0.63626 0.0
Cd58 Cd 0.69383 0.9849 0.64242 0.0
O59 O 0.71427 0.9802 0.60965 0.0
O60 O 0.66736 0.874 0.63768 0.0
O61 O 0.70462 0.90203 0.65759 0.0
C62 C 0.69273 0.87402 0.65132 0.0
C63 C 0.72248 0.99363 0.67694 0.0
C64 C 0.70634 0.95687 0.59607 0.0
C65 C 0.62044 0.97489 0.64645 0.0
O66 O 0.64401 0.99526 0.64385 0.0
O67 O 0.62623 0.94416 0.64603 0.0
O68 O 0.71727 1.01747 0.66262 0.0
O69 O 0.71331 0.96456 0.67079 0.0
O70 O 0.31515 0.09898 0.60364 0.0
Cd71 Cd 0.33455 0.11032 0.63583 0.0
Cd72 Cd 0.3127 0.04867 0.64276 0.0
O73 O 0.29117 0.05129 0.61024 0.0
O74 O 0.33981 0.15895 0.63313 0.0
O75 O 0.30526 0.13582 0.6579 0.0
C76 C 0.31661 0.16213 0.6483 0.0
C77 C 0.28474 0.04072 0.67753 0.0
C78 C 0.29762 0.07501 0.59667 0.0
C79 C 0.38627 0.05921 0.64559 0.0
O80 O 0.36264 0.0387 0.64393 0.0
O81 O 0.38041 0.0899 0.64449 0.0
O82 O 0.29003 1.01659 0.6635 0.0
O83 O 0.29349 0.06979 0.67099 0.0
O84 O 0.68973 0.10197 0.91705 0.0
Cd85 Cd 0.67275 0.11175 0.88396 0.0
Cd86 Cd 0.69511 0.04981 0.87836 0.0
O87 O 0.71548 0.05494 0.91116 0.0
O88 O 0.66859 0.16084 0.88236 0.0
O89 O 0.70598 0.13293 0.86262 0.0
C90 C 0.69399 0.1609 0.86879 0.0
C91 C 0.72367 0.04108 0.84388 0.0
C92 C 0.7077 0.07858 0.92448 0.0
C93 C 0.62181 0.05974 0.87391 0.0
O94 O 0.6453 0.03941 0.8768 0.0
O95 O 0.62768 0.09048 0.87415 0.0
O96 O 0.71858 1.01727 0.85824 0.0
O97 O 0.71451 0.07014 0.84999 0.0
O98 O 0.32013 0.93364 0.91798 0.0
Cd99 Cd 0.33665 0.92347 0.88486 0.0
Cd100 Cd 0.31443 0.98524 0.8789 0.0
O101 O 0.29419 0.98045 0.9117 0.0
O102 O 0.34042 0.87437 0.88337 0.0
O103 O 0.30303 0.90246 0.86368 0.0
C104 C 0.3149 0.87442 0.86986 0.0
C105 C 0.28553 0.99516 0.84468 0.0
C106 C 0.30213 0.95709 0.92524 0.0
C107 C 0.38771 0.97505 0.87439 0.0
O108 O 0.36428 0.99546 0.8772 0.0
O109 O 0.38177 0.94433 0.87482 0.0
O110 O 0.29121 0.01854 0.85928 0.0
O111 O 0.29434 0.96581 0.85039 0.0
O112 O 0.81663 0.59989 0.41677 0.0
Cd113 Cd 0.83505 0.61086 0.38429 0.0
Cd114 Cd 0.81403 0.54885 0.37829 0.0
O115 O 0.79267 0.55202 0.41084 0.0
O116 O 0.84046 0.65946 0.38677 0.0
O117 O 0.80524 0.63629 0.36246 0.0
C118 C 0.81691 0.66262 0.37183 0.0
C119 C 0.78621 0.54061 0.34346 0.0
C120 C 0.79936 0.57599 0.42415 0.0
C121 C 0.88735 0.56032 0.37509 0.0
O122 O 0.86411 0.53947 0.37727 0.0
O123 O 0.88096 0.59092 0.37556 0.0
O124 O 0.79167 0.51653 0.35752 0.0
O125 O 0.79465 0.56976 0.35003 0.0
O126 O 0.1932 0.43692 0.41833 0.0
Cd127 Cd 0.17403 0.42557 0.38607 0.0
Cd128 Cd 0.19465 0.4878 0.37961 0.0
O129 O 0.21613 0.48522 0.41215 0.0
O130 O 0.16887 0.37698 0.38888 0.0
O131 O 0.20335 0.40002 0.36403 0.0
C132 C 0.192 0.37374 0.37367 0.0
C133 C 0.22241 0.49655 0.34487 0.0
C134 C 0.21014 0.46117 0.42553 0.0
C135 C 0.12138 0.47584 0.3766 0.0
O136 O 0.14454 0.49683 0.37846 0.0
O137 O 0.1279 0.44527 0.37747 0.0
O138 O 0.21668 0.52046 0.359 0.0
O139 O 0.21427 0.46725 0.35131 0.0
O140 O 0.8167 0.43459 0.10315 0.0
Cd141 Cd 0.8352 0.4242 0.13572 0.0
Cd142 Cd 0.81312 0.48593 0.14136 0.0
O143 O 0.79205 0.48215 0.10872 0.0
O144 O 0.84125 0.37566 0.1335 0.0
O145 O 0.80557 0.39855 0.15753 0.0
C146 C 0.81761 0.3723 0.14832 0.0
C147 C 0.78518 0.49378 0.17613 0.0
C148 C 0.79912 0.45813 0.09558 0.0
C149 C 0.88658 0.4758 0.14505 0.0
O150 O 0.86301 0.49619 0.14263 0.0
O151 O 0.88072 0.44508 0.14464 0.0
O152 O 0.7902 0.51791 0.16203 0.0
O153 O 0.79405 0.46476 0.16961 0.0
O154 O 0.19085 0.60139 0.10445 0.0
Cd155 Cd 0.17234 0.61166 0.13699 0.0
Cd156 Cd 0.1943 0.54991 0.14265 0.0
O157 O 0.21544 0.5538 0.11007 0.0
O158 O 0.16649 0.66023 0.1349 0.0
O159 O 0.20206 0.63705 0.15893 0.0
C160 C 0.19015 0.6634 0.14976 0.0
C161 C 0.22232 0.54142 0.17735 0.0
C162 C 0.20843 0.57785 0.09693 0.0
C163 C 0.12083 0.56015 0.14608 0.0
O164 O 0.14439 0.53975 0.14377 0.0
O165 O 0.12672 0.59088 0.1457 0.0
O166 O 0.21716 0.51754 0.16307 0.0
O167 O 0.2135 0.57057 0.17107 0.0
O168 O 0.19131 0.43662 0.60347 0.0
Cd169 Cd 0.17232 0.42449 0.63561 0.0
Cd170 Cd 0.19362 0.48612 0.64306 0.0
O171 O 0.21511 0.48427 0.61053 0.0
O172 O 0.1671 0.37594 0.63237 0.0
O173 O 0.20186 0.39847 0.6573 0.0
C174 C 0.19041 0.37239 0.64745 0.0
C175 C 0.22163 0.49355 0.67791 0.0
C176 C 0.20866 0.46084 0.5967 0.0
C177 C 0.12018 0.47495 0.6458 0.0
O178 O 0.1436 0.49572 0.64427 0.0
O179 O 0.12636 0.44434 0.64451 0.0
O180 O 0.21608 0.51793 0.66413 0.0
O181 O 0.21309 0.46455 0.67107 0.0
O182 O 0.81854 0.60316 0.60309 0.0
Cd183 Cd 0.83546 0.61317 0.63616 0.0
Cd184 Cd 0.81381 0.55101 0.64182 0.0
O185 O 0.79329 0.55584 0.60906 0.0
O186 O 0.83924 0.6623 0.6377 0.0
O187 O 0.8021 0.63407 0.65752 0.0
C188 C 0.81388 0.66214 0.65131 0.0
C189 C 0.78537 0.54185 0.67631 0.0
C190 C 0.80081 0.57954 0.5957 0.0
C191 C 0.887 0.56183 0.64611 0.0
O192 O 0.86372 0.5412 0.64326 0.0
O193 O 0.88078 0.59249 0.64592 0.0
O194 O 0.79072 0.51814 0.66193 0.0
O195 O 0.79424 0.57105 0.67023 0.0
O196 O 0.18848 0.60268 0.91804 0.0
Cd197 Cd 0.17199 0.61299 0.88489 0.0
Cd198 Cd 0.19365 0.55096 0.87907 0.0
O199 O 0.21396 0.55559 0.9119 0.0
O200 O 0.16835 0.66212 0.88348 0.0
O201 O 0.20563 0.63402 0.86376 0.0
C202 C 0.19382 0.66206 0.86998 0.0
C203 C 0.22235 0.54131 0.8448 0.0
C204 C 0.20623 0.57907 0.92537 0.0
C205 C 0.1205 0.56176 0.87442 0.0
O206 O 0.14372 0.54115 0.87735 0.0
O207 O 0.12674 0.59242 0.87478 0.0
O208 O 0.21659 0.51776 0.85925 0.0
O209 O 0.21377 0.57064 0.8507 0.0
O210 O 0.81953 0.43289 0.91684 0.0
Cd211 Cd 0.83625 0.42251 0.8838 0.0
Cd212 Cd 0.81438 0.48438 0.87764 0.0
O213 O 0.79391 0.47985 0.91042 0.0
O214 O 0.84001 0.37337 0.88247 0.0
O215 O 0.80278 0.40137 0.86256 0.0
C216 C 0.81462 0.37337 0.86886 0.0
C217 C 0.7858 0.4933 0.84313 0.0
C218 C 0.80166 0.45648 0.92402 0.0
C219 C 0.8876 0.47389 0.87343 0.0
O220 O 0.86428 0.49446 0.87613 0.0
O221 O 0.88147 0.44321 0.87387 0.0
O222 O 0.7912 0.51708 0.85746 0.0
O223 O 0.79471 0.46416 0.84928 0.0
H224 H 0.27996 0.0204 0.4524 0.0
H225 H 0.28898 0.12735 0.56822 0.0
H226 H 0.29038 0.12563 0.45489 0.0
H227 H 0.28228 0.0218 0.56913 0.0
H228 H 0.27988 0.12681 0.52656 0.0
H229 H 0.27156 0.02001 0.49464 0.0
C230 C 0.27986 0.04343 0.46174 0.0
C231 C 0.28633 0.07306 0.45016 0.0
C232 C 0.28005 0.10369 0.53579 0.0
C233 C 0.27689 0.07278 0.4983 0.0
C234 C 0.28524 0.104 0.55965 0.0
C235 C 0.28684 0.07455 0.57213 0.0
C236 C 0.27691 0.07364 0.52408 0.0
C237 C 0.28136 0.04506 0.56013 0.0
C238 C 0.27522 0.04318 0.48584 0.0
C239 C 0.28599 0.10216 0.46311 0.0
N240 N 0.27716 0.0453 0.53666 0.0
N241 N 0.28166 0.10123 0.48642 0.0
H242 H 0.72675 1.00946 0.56958 0.0
H243 H 0.71444 0.90472 0.4527 0.0
H244 H 0.70791 0.90541 0.56608 0.0
H245 H 0.72352 1.01012 0.45279 0.0
H246 H 0.72237 0.90438 0.49448 0.0
H247 H 0.7353 1.00999 0.52737 0.0
C248 C 0.72495 0.98667 0.56002 0.0
C249 C 0.71619 0.95741 0.57133 0.0
C250 C 0.72295 0.92764 0.48544 0.0
C251 C 0.7259 0.95785 0.52321 0.0
C252 C 0.71846 0.92784 0.46151 0.0
C253 C 0.71785 0.95754 0.44926 0.0
C254 C 0.72648 0.9574 0.49743 0.0
C255 C 0.72367 0.98669 0.46159 0.0
C256 C 0.7297 0.98702 0.53594 0.0
C257 C 0.71415 0.92863 0.55809 0.0
N258 N 0.72726 0.98596 0.4851 0.0
N259 N 0.71873 0.92964 0.5348 0.0
H260 H 0.29328 0.90514 0.06871 0.0
H261 H 0.2811 1.00948 0.95162 0.0
H262 H 0.2832 1.01044 0.06841 0.0
H263 H 0.30122 0.90571 0.95535 0.0
H264 H 0.27221 1.00998 0.99379 0.0
H265 H 0.28588 0.90462 0.02688 0.0
C266 C 0.28915 0.9282 0.05983 0.0
C267 C 0.28933 0.95793 0.07205 0.0
C268 C 0.27818 0.98708 0.98528 0.0
C269 C 0.28131 0.95759 0.02383 0.0
C270 C 0.28314 0.98674 0.96122 0.0
C271 C 0.29232 0.95758 0.94999 0.0
C272 C 0.28221 0.958 0.99806 0.0
C273 C 0.29464 0.92886 0.96328 0.0
C274 C 0.28496 0.9279 0.03588 0.0
C275 C 0.28338 0.98698 0.05964 0.0
N276 N 0.28984 0.92987 0.98654 0.0
N277 N 0.2801 0.98616 0.03611 0.0
H278 H 0.71141 0.13102 0.95347 0.0
H279 H 0.72781 0.02358 0.06871 0.0
H280 H 0.72611 0.02628 0.95194 0.0
H281 H 0.71302 0.12831 0.06695 0.0
H282 H 0.73532 0.02406 0.0264 0.0
H283 H 0.72017 0.13057 0.99517 0.0
C284 C 0.71678 0.10789 0.96191 0.0
C285 C 0.71761 0.07859 0.94922 0.0
C286 C 0.73089 0.04695 0.03537 0.0
C287 C 0.72727 0.07777 0.99732 0.0
C288 C 0.72674 0.04671 0.05951 0.0
C289 C 0.71932 0.07589 0.07134 0.0
C290 C 0.72771 0.0766 0.0231 0.0
C291 C 0.71818 0.10514 0.05855 0.0
C292 C 0.72181 0.10764 0.9858 0.0
C293 C 0.72513 0.04943 0.96109 0.0
N294 N 0.72202 0.10467 0.0352 0.0
N295 N 0.72919 0.04966 0.98457 0.0
H296 H 0.7967 0.63178 0.56654 0.0
H297 H 0.78154 0.52345 0.45167 0.0
H298 H 0.78284 0.5269 0.56841 0.0
H299 H 0.79501 0.6284 0.45306 0.0
H300 H 0.77397 0.52409 0.49398 0.0
H301 H 0.78799 0.63099 0.52484 0.0
C302 C 0.79152 0.60855 0.55817 0.0
C303 C 0.79091 0.57931 0.57096 0.0
C304 C 0.77812 0.54699 0.48493 0.0
C305 C 0.78132 0.5781 0.52287 0.0
C306 C 0.7823 0.54665 0.46079 0.0
C307 C 0.78938 0.57586 0.44886 0.0
C308 C 0.78092 0.57676 0.49709 0.0
C309 C 0.79013 0.60521 0.46154 0.0
C310 C 0.78652 0.60809 0.53429 0.0
C311 C 0.78364 0.55 0.55918 0.0
N312 N 0.78626 0.60484 0.48489 0.0
N313 N 0.77961 0.55006 0.53571 0.0
H314 H 0.22591 0.51459 0.57023 0.0
H315 H 0.2193 0.40867 0.45377 0.0
H316 H 0.21493 0.40944 0.56707 0.0
H317 H 0.22429 0.51433 0.45344 0.0
H318 H 0.22769 0.40894 0.49551 0.0
H319 H 0.23481 0.51541 0.52804 0.0
C320 C 0.22597 0.49166 0.56075 0.0
C321 C 0.21922 0.46194 0.57213 0.0
C322 C 0.2273 0.43214 0.48639 0.0
C323 C 0.22929 0.46271 0.52405 0.0
C324 C 0.22253 0.43199 0.46249 0.0
C325 C 0.22065 0.46154 0.45013 0.0
C326 C 0.22975 0.46211 0.49827 0.0
C327 C 0.22546 0.49098 0.46233 0.0
C328 C 0.23091 0.49217 0.53668 0.0
C329 C 0.21954 0.43299 0.55901 0.0
N330 N 0.22927 0.49057 0.48583 0.0
N331 N 0.22419 0.43415 0.53574 0.0
H332 H 0.78108 0.50911 0.95037 0.0
H333 H 0.79324 0.40497 0.06754 0.0
H334 H 0.80022 0.40517 0.95417 0.0
H335 H 0.78294 0.51024 0.06721 0.0
H336 H 0.78577 0.40439 0.02572 0.0
H337 H 0.77232 0.50977 0.99255 0.0
C338 C 0.78292 0.48637 0.95998 0.0
C339 C 0.79181 0.4571 0.94876 0.0
C340 C 0.78482 0.42768 0.03471 0.0
C341 C 0.78186 0.45771 0.99686 0.0
C342 C 0.78905 0.42801 0.05866 0.0
C343 C 0.78917 0.45775 0.07086 0.0
C344 C 0.78107 0.45735 0.02264 0.0
C345 C 0.78315 0.48678 0.05844 0.0
C346 C 0.77804 0.4868 0.98405 0.0
C347 C 0.79388 0.4284 0.96208 0.0
N348 N 0.77983 0.48593 0.03491 0.0
N349 N 0.78918 0.42949 0.98535 0.0
H350 H 0.21423 0.63098 0.06884 0.0
H351 H 0.22686 0.52659 0.95187 0.0
H352 H 0.22481 0.52574 0.06866 0.0
H353 H 0.2074 0.63048 0.95544 0.0
H354 H 0.23556 0.52607 0.99407 0.0
H355 H 0.22178 0.6315 0.02703 0.0
C356 C 0.2185 0.60794 0.05999 0.0
C357 C 0.21843 0.57822 0.07223 0.0
C358 C 0.22978 0.549 0.98552 0.0
C359 C 0.22662 0.57855 0.02404 0.0
C360 C 0.22493 0.54935 0.96144 0.0
C361 C 0.21598 0.57855 0.95015 0.0
C362 C 0.22586 0.57812 0.99826 0.0
C363 C 0.21379 0.6073 0.96341 0.0
C364 C 0.22277 0.60823 0.03606 0.0
C365 C 0.22455 0.54918 0.05987 0.0
N366 N 0.21847 0.60629 0.98669 0.0
N367 N 0.22791 0.55 0.03635 0.0
H368 H 0.56167 0.93781 0.37302 0.0
H369 H 0.44312 0.09574 0.3746 0.0
H370 H 0.59765 0.03754 0.3737 0.0
H371 H 0.40713 0.99602 0.37371 0.0
H372 H 0.49992 0.07494 0.37256 0.0
H373 H 0.50484 0.95867 0.37153 0.0
C374 C 0.55768 0.96406 0.37273 0.0
C375 C 0.58458 0.9859 0.37357 0.0
C376 C 0.47957 0.05762 0.37272 0.0
C377 C 0.51949 1.01 0.37196 0.0
C378 C 0.4471 0.06951 0.37386 0.0
C379 C 0.4202 0.04765 0.37442 0.0
C380 C 0.48527 0.02361 0.37215 0.0
C381 C 0.427 1.01386 0.37341 0.0
C382 C 0.5252 0.97598 0.37191 0.0
C383 C 0.57778 0.01971 0.37315 0.0
N384 N 0.45877 1.00293 0.37241 0.0
N385 N 0.54599 0.03067 0.37246 0.0
H386 H 0.40776 0.03951 0.14871 0.0
H387 H 0.601 0.99553 0.14816 0.0
H388 H 0.44524 0.94041 0.14818 0.0
H389 H 0.56349 0.09463 0.14768 0.0
H390 H 0.5443 0.97504 0.15014 0.0
H391 H 0.46449 0.06 0.15033 0.0
C392 C 0.4279 0.02198 0.14903 0.0
C393 C 0.42159 0.98809 0.14821 0.0
C394 C 0.54842 1.00127 0.14969 0.0
C395 C 0.48693 1.01161 0.15001 0.0
C396 C 0.58086 1.01306 0.14857 0.0
C397 C 0.58715 0.04695 0.14766 0.0
C398 C 0.52185 0.02343 0.14988 0.0
C399 C 0.55992 0.06834 0.14831 0.0
C400 C 0.46036 0.03377 0.14995 0.0
C401 C 0.44882 0.9667 0.14875 0.0
N402 N 0.5285 0.05622 0.1493 0.0
N403 N 0.48027 0.97882 0.14952 0.0
H404 H 0.60016 0.03884 0.64898 0.0
H405 H 0.40665 0.99543 0.64938 0.0
H406 H 0.56211 0.93986 0.64934 0.0
H407 H 0.44462 0.0944 0.64731 0.0
H408 H 0.46326 0.97486 0.65153 0.0
H409 H 0.54356 0.05955 0.65059 0.0
C410 C 0.57993 0.02138 0.64952 0.0
C411 C 0.58605 0.98745 0.64892 0.0
C412 C 0.45927 1.00108 0.65069 0.0
C413 C 0.52083 1.01123 0.6507 0.0
C414 C 0.42687 1.01293 0.64947 0.0
C415 C 0.42072 0.0468 0.64806 0.0
C416 C 0.48596 0.02316 0.65049 0.0
C417 C 0.44807 0.06812 0.64832 0.0
C418 C 0.54754 0.0333 0.65042 0.0
C419 C 0.55869 0.96617 0.64973 0.0
N420 N 0.47946 0.05595 0.64942 0.0
N421 N 0.52731 0.97841 0.65048 0.0
H422 H 0.60149 0.99579 0.87112 0.0
H423 H 0.40806 0.03891 0.87091 0.0
H424 H 0.56355 0.09472 0.87078 0.0
H425 H 0.44594 0.93997 0.8716 0.0
H426 H 0.46466 0.05961 0.86868 0.0
H427 H 0.54489 0.97501 0.86912 0.0
C428 C 0.58128 1.01322 0.87051 0.0
C429 C 0.58743 0.04715 0.87123 0.0
C430 C 0.46065 0.03337 0.86921 0.0
C431 C 0.52221 0.0233 0.869 0.0
C432 C 0.42825 0.02145 0.87048 0.0
C433 C 0.42209 0.98755 0.87156 0.0
C434 C 0.48732 1.01132 0.86906 0.0
C435 C 0.44941 0.96626 0.87084 0.0
C436 C 0.54889 1.00127 0.86937 0.0
C437 C 0.5601 0.06841 0.8703 0.0
N438 N 0.48079 0.9785 0.86976 0.0
N439 N 0.52872 0.05613 0.86935 0.0
H440 H 0.94476 0.59668 0.37231 0.0
H441 H 0.06402 0.43928 0.37419 0.0
H442 H 0.90916 0.49681 0.37312 0.0
H443 H 0.09947 0.53919 0.37353 0.0
H444 H 0.0071 0.45979 0.37198 0.0
H445 H 1.00165 0.57604 0.3709 0.0
C446 C 0.94884 0.57044 0.37207 0.0
C447 C 0.92203 0.54851 0.37293 0.0
C448 C 0.02737 0.47721 0.37223 0.0
C449 C 0.98721 0.52465 0.3714 0.0
C450 C 0.0599 0.46549 0.37347 0.0
C451 C 0.08667 0.48749 0.37414 0.0
C452 C 0.02149 0.51119 0.37168 0.0
C453 C 0.0797 0.52124 0.37315 0.0
C454 C 0.98137 0.55865 0.37129 0.0
C455 C 0.92896 0.51472 0.37256 0.0
N456 N 0.04788 0.53201 0.37205 0.0
N457 N 0.96079 0.50387 0.37191 0.0
H458 H 0.10035 0.49627 0.1489 0.0
H459 H 0.907 0.53972 0.1478 0.0
H460 H 0.0626 0.59527 0.14828 0.0
H461 H 0.94477 0.44073 0.14787 0.0
H462 H 0.96363 0.56038 0.14991 0.0
H463 H 0.04368 0.47563 0.15048 0.0
C464 C 0.08017 0.51375 0.1492 0.0
C465 C 0.08638 0.54765 0.14835 0.0
C466 C 0.95958 0.53414 0.14956 0.0
C467 C 0.02111 0.52396 0.15011 0.0
C468 C 0.92718 0.52225 0.14836 0.0
C469 C 0.92098 0.48834 0.14756 0.0
C470 C 0.98622 0.51205 0.14993 0.0
C471 C 0.94827 0.46703 0.14841 0.0
C472 C 0.04774 0.50187 0.1501 0.0
C473 C 0.05909 0.56897 0.14887 0.0
N474 N 0.97966 0.47924 0.14945 0.0
N475 N 0.02768 0.55677 0.14961 0.0
H476 H 0.94472 0.59763 0.64994 0.0
H477 H 0.06237 0.43901 0.64751 0.0
H478 H 0.90819 0.49813 0.6479 0.0
H479 H 0.09896 0.53848 0.64955 0.0
H480 H 0.00567 0.46012 0.64957 0.0
H481 H 1.0014 0.5764 0.65178 0.0
C482 C 0.94855 0.57135 0.65002 0.0
C483 C 0.92154 0.5497 0.64866 0.0
C484 C 0.02613 0.47731 0.64967 0.0
C485 C 0.98647 0.52517 0.65067 0.0
C486 C 0.05855 0.46525 0.64852 0.0
C487 C 0.08558 0.48694 0.64826 0.0
C488 C 0.02062 0.51135 0.65055 0.0
C489 C 0.07898 0.52075 0.64961 0.0
C490 C 0.98095 0.55922 0.65103 0.0
C491 C 0.92815 0.51584 0.64883 0.0
N492 N 0.04726 0.53186 0.65061 0.0
N493 N 0.95985 0.50467 0.64971 0.0
H494 H 0.06276 0.59745 0.87083 0.0
H495 H 0.94542 0.43829 0.87028 0.0
H496 H 0.09943 0.49805 0.87162 0.0
H497 H 0.90863 0.53765 0.87076 0.0
H498 H 1.00205 0.45973 0.86838 0.0
H499 H 0.00612 0.57606 0.86843 0.0
C500 C 0.05897 0.57117 0.87035 0.0
C501 C 0.086 0.54958 0.87154 0.0
C502 C 0.98156 0.47683 0.86879 0.0
C503 C 0.02113 0.52487 0.86887 0.0
C504 C 0.94918 0.46458 0.86984 0.0
C505 C 0.92212 0.48614 0.87079 0.0
C506 C 0.987 0.51091 0.86871 0.0
C507 C 0.92864 0.52002 0.87016 0.0
C508 C 0.02659 0.55894 0.86902 0.0
C509 C 0.07945 0.51571 0.87085 0.0
N510 N 0.96033 0.53131 0.86926 0.0
N511 N 0.04777 0.50445 0.86965 0.0
H512 H 0.22924 0.35269 0.33637 0.0
H513 H 0.31833 0.21453 0.40368 0.0
H514 H 0.19173 0.32158 0.4029 0.0
H515 H 0.27749 0.18392 0.33793 0.0
H516 H 0.28697 0.26563 0.40079 0.0
H517 H 0.26033 0.30064 0.33357 0.0
C518 C 0.22722 0.33482 0.3502 0.0
C519 C 0.20776 0.34139 0.36986 0.0
C520 C 0.28534 0.24786 0.38687 0.0
C521 C 0.24381 0.28297 0.36705 0.0
C522 C 0.30333 0.2188 0.38839 0.0
C523 C 0.30047 0.19485 0.37102 0.0
C524 C 0.26498 0.25349 0.36762 0.0
C525 C 0.2803 0.20173 0.35172 0.0
C526 C 0.24488 0.30529 0.34856 0.0
C527 C 0.20617 0.31749 0.38736 0.0
N528 N 0.26328 0.23058 0.35046 0.0
N529 N 0.22444 0.28966 0.38574 0.0
H530 H 0.72806 0.85241 0.3344 0.0
H531 H 0.82012 0.71593 0.39998 0.0
H532 H 0.6891 0.81862 0.39986 0.0
H533 H 0.77679 0.68268 0.33567 0.0
H534 H 0.78777 0.76644 0.39704 0.0
H535 H 0.75996 0.8009 0.33119 0.0
C536 C 0.72586 0.83405 0.34788 0.0
C537 C 0.7058 0.83973 0.36739 0.0
C538 C 0.78585 0.74823 0.38343 0.0
C539 C 0.74271 0.78191 0.36411 0.0
C540 C 0.80438 0.71951 0.38497 0.0
C541 C 0.8011 0.69498 0.36805 0.0
C542 C 0.7645 0.75292 0.36458 0.0
C543 C 0.77996 0.70095 0.34911 0.0
C544 C 0.74399 0.80484 0.34601 0.0
C545 C 0.70401 0.81522 0.38445 0.0
N546 N 0.76239 0.72947 0.34781 0.0
N547 N 0.72273 0.7877 0.38264 0.0
H548 H 0.18644 0.71701 0.12191 0.0
H549 H 0.27867 0.85356 0.18718 0.0
H550 H 0.2306 0.68329 0.1858 0.0
H551 H 0.31808 0.81956 0.12195 0.0
H552 H 0.24674 0.80201 0.19041 0.0
H553 H 0.21875 0.76762 0.12489 0.0
C554 C 0.20234 0.72051 0.13685 0.0
C555 C 0.20586 0.69582 0.15363 0.0
C556 C 0.26282 0.80591 0.17564 0.0
C557 C 0.24243 0.75386 0.15715 0.0
C558 C 0.28096 0.83515 0.17375 0.0
C559 C 0.30116 0.84078 0.1543 0.0
C560 C 0.26423 0.78289 0.15761 0.0
C561 C 0.30307 0.81619 0.13731 0.0
C562 C 0.22086 0.74928 0.13841 0.0
C563 C 0.22723 0.70169 0.17248 0.0
N564 N 0.28434 0.78863 0.13914 0.0
N565 N 0.24478 0.73025 0.17379 0.0
H566 H 0.72963 0.18202 0.18592 0.0
H567 H 0.82135 0.31893 0.12027 0.0
H568 H 0.69099 0.21503 0.12014 0.0
H569 H 0.77755 0.35195 0.18439 0.0
H570 H 0.78933 0.26813 0.12317 0.0
H571 H 0.76133 0.23372 0.18906 0.0
C572 C 0.72747 0.20024 0.17234 0.0
C573 C 0.70754 0.1943 0.15278 0.0
C574 C 0.78724 0.28636 0.13675 0.0
C575 C 0.74424 0.25235 0.15598 0.0
C576 C 0.80558 0.31524 0.13524 0.0
C577 C 0.80208 0.33978 0.15211 0.0
C578 C 0.76585 0.28152 0.15554 0.0
C579 C 0.7809 0.33367 0.171 0.0
C580 C 0.74548 0.22957 0.17417 0.0
C581 C 0.70579 0.21865 0.1356 0.0
N582 N 0.76353 0.30499 0.17227 0.0
N583 N 0.72441 0.24629 0.13738 0.0
H584 H 0.75637 0.86599 0.66668 0.0
H585 H 0.75008 0.66999 0.66632 0.0
H586 H 0.66813 0.81135 0.64937 0.0
H587 H 0.83845 0.72482 0.64974 0.0
H588 H 0.71987 0.72173 0.67082 0.0
H589 H 0.78651 0.81421 0.6712 0.0
C590 C 0.74315 0.84311 0.66427 0.0
C591 C 0.7097 0.843 0.6575 0.0
C592 C 0.74598 0.72237 0.6665 0.0
C593 C 0.74403 0.78377 0.66277 0.0
C594 C 0.76331 0.6929 0.66407 0.0
C595 C 0.79682 0.69309 0.65751 0.0
C596 C 0.7624 0.75226 0.66277 0.0
C597 C 0.8126 0.72353 0.65468 0.0
C598 C 0.76044 0.81362 0.66671 0.0
C599 C 0.69393 0.81258 0.65447 0.0
N600 N 0.79525 0.7519 0.65729 0.0
N601 N 0.71124 0.78419 0.65709 0.0
H602 H 0.18893 0.32035 0.6181 0.0
H603 H 0.27944 0.18312 0.68564 0.0
H604 H 0.22876 0.35089 0.68415 0.0
H605 H 0.31634 0.21416 0.61894 0.0
H606 H 0.24787 0.23489 0.68836 0.0
H607 H 0.22102 0.26966 0.62087 0.0
C608 C 0.20387 0.31613 0.63343 0.0
C609 C 0.2062 0.33995 0.65092 0.0
C610 C 0.26329 0.23029 0.67335 0.0
C611 C 0.24256 0.28178 0.6542 0.0
C612 C 0.28123 0.20092 0.67176 0.0
C613 C 0.30066 0.19442 0.65208 0.0
C614 C 0.26403 0.25251 0.65479 0.0
C615 C 0.30194 0.21822 0.63451 0.0
C616 C 0.22229 0.28733 0.63487 0.0
C617 C 0.22634 0.33318 0.67027 0.0
N618 N 0.28339 0.24589 0.63608 0.0
N619 N 0.24375 0.30455 0.67147 0.0
H620 H 0.75765 0.16921 0.85359 0.0
H621 H 0.75084 0.36518 0.85376 0.0
H622 H 0.6692 0.22344 0.87055 0.0
H623 H 0.83931 0.3108 0.87059 0.0
H624 H 0.72076 0.31328 0.84923 0.0
H625 H 0.78766 0.22113 0.84912 0.0
C626 C 0.74436 0.19202 0.85593 0.0
C627 C 0.71089 0.19199 0.86259 0.0
C628 C 0.74686 0.31278 0.85362 0.0
C629 C 0.74507 0.25137 0.85738 0.0
C630 C 0.76411 0.34234 0.85607 0.0
C631 C 0.79761 0.34232 0.8627 0.0
C632 C 0.76336 0.28298 0.85741 0.0
C633 C 0.81346 0.31196 0.8656 0.0
C634 C 0.76158 0.2216 0.85352 0.0
C635 C 0.69502 0.22233 0.86553 0.0
N636 N 0.79619 0.28351 0.86297 0.0
N637 N 0.71226 0.2508 0.86295 0.0
H638 H 0.25765 0.6702 0.85502 0.0
H639 H 0.25102 0.86625 0.85494 0.0
H640 H 0.16921 0.72466 0.87165 0.0
H641 H 0.33956 0.81184 0.87151 0.0
H642 H 0.22089 0.81437 0.85052 0.0
H643 H 0.28778 0.72207 0.85053 0.0
C644 C 0.24439 0.69305 0.85729 0.0
C645 C 0.21088 0.6931 0.86385 0.0
C646 C 0.24701 0.81385 0.85483 0.0
C647 C 0.2452 0.75243 0.85862 0.0
C648 C 0.2643 0.84341 0.85721 0.0
C649 C 0.29784 0.84338 0.86373 0.0
C650 C 0.26351 0.78404 0.85859 0.0
C651 C 0.31369 0.813 0.8666 0.0
C652 C 0.26167 0.7226 0.85487 0.0
C653 C 0.19506 0.72348 0.86671 0.0
N654 N 0.29638 0.78456 0.86404 0.0
N655 N 0.21236 0.75192 0.86411 0.0
H656 H 0.27347 0.08579 0.31019 0.0
H657 H 0.27287 0.94952 0.21132 0.0
H658 H 0.27002 0.98178 0.32377 0.0
H659 H 0.27177 0.05354 0.19758 0.0
H660 H 0.26316 0.96088 0.25234 0.0
H661 H 0.2642 0.07469 0.26904 0.0
C662 C 0.27017 0.06064 0.3046 0.0
C663 C 0.27294 0.03465 0.32044 0.0
C664 C 0.26454 0.98123 0.24032 0.0
C665 C 0.26275 0.02172 0.27326 0.0
C666 C 0.27001 0.97474 0.21685 0.0
C667 C 0.27356 1.00063 0.201 0.0
C668 C 0.26287 1.01386 0.24807 0.0
C669 C 0.26947 0.0328 0.20919 0.0
C670 C 0.26496 0.0543 0.28106 0.0
C671 C 0.26835 1.00258 0.31217 0.0
N672 N 0.26482 0.03851 0.23218 0.0
N673 N 0.26395 0.99701 0.28913 0.0
H674 H 0.73422 0.08579 0.21133 0.0
H675 H 0.73299 0.94893 0.30986 0.0
H676 H 0.73684 0.98186 0.19742 0.0
H677 H 0.73464 0.05288 0.32381 0.0
H678 H 0.74303 0.96045 0.26888 0.0
H679 H 0.74306 0.07435 0.25247 0.0
C680 C 0.73724 0.06058 0.21685 0.0
C681 C 0.73437 0.03473 0.20091 0.0
C682 C 0.74169 0.98074 0.28094 0.0
C683 C 0.74405 0.02141 0.2481 0.0
C684 C 0.73603 0.97417 0.30439 0.0
C685 C 0.73256 0.99999 0.32028 0.0
C686 C 0.74364 1.0134 0.27327 0.0
C687 C 0.73687 0.03219 0.31217 0.0
C688 C 0.7422 0.05405 0.24038 0.0
C689 C 0.73862 1.00257 0.20909 0.0
N690 N 0.74172 0.03798 0.2892 0.0
N691 N 0.74277 0.99681 0.23214 0.0
H692 H 0.7365 0.0858 0.80958 0.0
H693 H 0.73546 0.94888 0.71119 0.0
H694 H 0.73737 0.98185 0.82357 0.0
H695 H 0.73661 0.05283 0.69721 0.0
H696 H 0.74552 0.96039 0.75215 0.0
H697 H 0.74594 0.07425 0.76857 0.0
C698 C 0.73927 0.06055 0.80411 0.0
C699 C 0.73571 0.03473 0.82003 0.0
C700 C 0.74408 0.98069 0.74009 0.0
C701 C 0.74609 0.02131 0.77295 0.0
C702 C 0.73841 0.97412 0.71665 0.0
C703 C 0.73475 0.99995 0.70075 0.0
C704 C 0.74587 1.01334 0.74777 0.0
C705 C 0.73898 0.03214 0.70886 0.0
C706 C 0.74458 0.05396 0.78064 0.0
C707 C 0.73969 1.00253 0.81191 0.0
N708 N 0.74384 0.03794 0.73184 0.0
N709 N 0.74419 0.99672 0.7889 0.0
H710 H 0.27149 0.05507 0.82549 0.0
H711 H 0.26709 0.98209 0.69713 0.0
H712 H 0.27238 0.95166 0.80966 0.0
H713 H 0.27589 0.08526 0.71262 0.0
H714 H 0.25746 0.97116 0.73821 0.0
H715 H 0.26157 0.06689 0.78452 0.0
C716 C 0.26898 0.0348 0.81349 0.0
C717 C 0.27322 1.00233 0.821 0.0
C718 C 0.26102 0.99625 0.73259 0.0
C719 C 0.2622 1.01573 0.77398 0.0
C720 C 0.26642 1.00254 0.7091 0.0
C721 C 0.27276 0.03461 0.70143 0.0
C722 C 0.26209 0.02218 0.74861 0.0
C723 C 0.27141 0.06012 0.71775 0.0
C724 C 0.26344 0.04159 0.79006 0.0
C725 C 0.2696 0.97709 0.80464 0.0
N726 N 0.26666 0.05331 0.7406 0.0
N727 N 0.26471 0.98434 0.78188 0.0
H728 H 0.77383 0.44876 0.21055 0.0
H729 H 0.77406 0.58552 0.30909 0.0
H730 H 0.7708 0.55268 0.19661 0.0
H731 H 0.77221 0.48156 0.32302 0.0
H732 H 0.76436 0.57404 0.26805 0.0
H733 H 0.7647 0.46014 0.25164 0.0
C734 C 0.77066 0.47395 0.21605 0.0
C735 C 0.7735 0.49982 0.20011 0.0
C736 C 0.76558 0.55374 0.28012 0.0
C737 C 0.76348 0.51309 0.24726 0.0
C738 C 0.77104 0.56029 0.3036 0.0
C739 C 0.77436 0.53445 0.31952 0.0
C740 C 0.76368 0.52108 0.27243 0.0
C741 C 0.77009 0.50227 0.31137 0.0
C742 C 0.76552 0.48045 0.23956 0.0
C743 C 0.76905 0.53195 0.20828 0.0
N744 N 0.76544 0.49649 0.28838 0.0
N745 N 0.76473 0.53769 0.2313 0.0
H746 H 0.2379 0.55577 0.32525 0.0
H747 H 0.23827 0.48229 0.19694 0.0
H748 H 0.23299 0.45235 0.3098 0.0
H749 H 0.23258 0.58565 0.21245 0.0
H750 H 0.24774 0.4711 0.23804 0.0
H751 H 0.24735 0.56701 0.28419 0.0
C752 C 0.23938 0.53535 0.3133 0.0
C753 C 0.23421 0.50307 0.32098 0.0
C754 C 0.24489 0.49627 0.23242 0.0
C755 C 0.24471 0.51585 0.27381 0.0
C756 C 0.2396 0.50272 0.20891 0.0
C757 C 0.2342 0.53495 0.20125 0.0
C758 C 0.24471 0.52222 0.24842 0.0
C759 C 0.23633 0.56039 0.21758 0.0
C760 C 0.24467 0.54182 0.28981 0.0
C761 C 0.23656 0.47763 0.30466 0.0
N762 N 0.24102 0.55345 0.24042 0.0
N763 N 0.24123 0.48459 0.28183 0.0
H764 H 0.2372 0.58534 0.81047 0.0
H765 H 0.23208 0.4482 0.71228 0.0
H766 H 0.23422 0.48151 0.82477 0.0
H767 H 0.23785 0.55201 0.69833 0.0
H768 H 0.24203 0.45936 0.75335 0.0
H769 H 0.24674 0.57321 0.76956 0.0
C770 C 0.23914 0.55997 0.80509 0.0
C771 C 0.23447 0.53441 0.82105 0.0
C772 C 0.24163 0.47967 0.74126 0.0
C773 C 0.24493 0.52031 0.77409 0.0
C774 C 0.23603 0.4733 0.71777 0.0
C775 C 0.23369 0.49925 0.70185 0.0
C776 C 0.2447 0.51224 0.74894 0.0
C777 C 0.23914 0.53125 0.70999 0.0
C778 C 0.24451 0.55305 0.78168 0.0
C779 C 0.23742 0.50202 0.81306 0.0
N780 N 0.24393 0.53686 0.73298 0.0
N781 N 0.24196 0.4959 0.7901 0.0
H782 H 0.77229 0.58629 0.71072 0.0
H783 H 0.7729 0.44872 0.80874 0.0
H784 H 0.77186 0.48243 0.69645 0.0
H785 H 0.77185 0.55259 0.82299 0.0
H786 H 0.76307 0.46048 0.76778 0.0
H787 H 0.76267 0.57444 0.75168 0.0
C788 C 0.76959 0.56099 0.71611 0.0
C789 C 0.77331 0.5353 0.70013 0.0
C790 C 0.76449 0.4807 0.7799 0.0
C791 C 0.76272 0.52152 0.74715 0.0
C792 C 0.77001 0.474 0.80334 0.0
C793 C 0.77363 0.49973 0.81931 0.0
C794 C 0.76279 0.5134 0.7723 0.0
C795 C 0.7695 0.53197 0.81128 0.0
C796 C 0.76418 0.55423 0.73955 0.0
C797 C 0.76941 0.50302 0.70816 0.0
N798 N 0.76477 0.5379 0.78831 0.0
N799 N 0.7648 0.49704 0.73113 0.0
loop_
_geom_bond_atom_site_label_1
_geom_bond_atom_site_label_2
_geom_bond_distance
_geom_bond_site_symmetry_2
_ccdc_geom_bond_type
O0 Cd1 2.223 . S
O0 C8 1.315 . S
Cd1 O0 2.223 . S
Cd1 O4 2.297 . S
Cd1 O5 2.439 . S
Cd1 O11 2.240 . S
Cd2 O3 2.240 . S
Cd2 O10 2.223 . S
Cd2 O12 2.297 1_545 S
Cd2 O13 2.439 . S
O3 Cd2 2.240 . S
O3 C8 1.279 . S
O4 Cd1 2.297 . S
O4 C6 1.247 . S
O5 Cd1 2.439 . S
O5 C6 1.208 . S
C6 O4 1.247 . S
C6 O5 1.208 . S
C7 O12 1.247 1_545 S
C7 O13 1.208 . S
C8 O0 1.315 . S
C8 O3 1.279 . S
C9 O10 1.315 . S
C9 O11 1.279 . S
O10 Cd2 2.223 . S
O10 C9 1.315 . S
O11 Cd1 2.240 . S
O11 C9 1.279 . S
O12 Cd2 2.297 1_565 S
O12 C7 1.247 1_565 S
O13 Cd2 2.439 . S
O13 C7 1.208 . S
O14 Cd15 2.223 . S
O14 C22 1.315 . S
Cd15 O14 2.223 . S
Cd15 O18 2.297 . S
Cd15 O19 2.439 . S
Cd15 O25 2.240 . S
Cd16 O17 2.240 . S
Cd16 O24 2.223 . S
Cd16 O26 2.297 1_565 S
Cd16 O27 2.439 . S
O17 Cd16 2.240 . S
O17 C22 1.279 . S
O18 Cd15 2.297 . S
O18 C20 1.247 . S
O19 Cd15 2.439 . S
O19 C20 1.208 . S
C20 O18 1.247 . S
C20 O19 1.208 . S
C21 O26 1.247 1_565 S
C21 O27 1.208 . S
C22 O14 1.315 . S
C22 O17 1.279 . S
C23 O24 1.315 . S
C23 O25 1.279 . S
O24 Cd16 2.223 . S
O24 C23 1.315 . S
O25 Cd15 2.240 . S
O25 C23 1.279 . S
O26 Cd16 2.297 1_545 S
O26 C21 1.247 1_545 S
O27 Cd16 2.439 . S
O27 C21 1.208 . S
O28 Cd29 2.223 . S
O28 C36 1.315 . S
Cd29 O28 2.223 . S
Cd29 O32 2.297 . S
Cd29 O33 2.439 . S
Cd29 O39 2.240 . S
Cd30 O31 2.240 . S
Cd30 O38 2.223 . S
Cd30 O40 2.297 1_565 S
Cd30 O41 2.439 . S
O31 Cd30 2.240 . S
O31 C36 1.279 . S
O32 Cd29 2.297 . S
O32 C34 1.247 . S
O33 Cd29 2.439 . S
O33 C34 1.208 . S
C34 O32 1.247 . S
C34 O33 1.208 . S
C35 O40 1.247 1_565 S
C35 O41 1.208 . S
C36 O28 1.315 . S
C36 O31 1.279 . S
C37 O38 1.315 . S
C37 O39 1.279 . S
O38 Cd30 2.223 . S
O38 C37 1.315 . S
O39 Cd29 2.240 . S
O39 C37 1.279 . S
O40 Cd30 2.297 1_545 S
O40 C35 1.247 1_545 S
O41 Cd30 2.439 . S
O41 C35 1.208 . S
O42 Cd43 2.223 . S
O42 C50 1.315 . S
Cd43 O42 2.223 . S
Cd43 O46 2.297 . S
Cd43 O47 2.439 . S
Cd43 O53 2.240 . S
Cd44 O45 2.240 . S
Cd44 O52 2.223 . S
Cd44 O54 2.297 1_545 S
Cd44 O55 2.439 . S
O45 Cd44 2.240 . S
O45 C50 1.279 . S
O46 Cd43 2.297 . S
O46 C48 1.247 . S
O47 Cd43 2.439 . S
O47 C48 1.208 . S
C48 O46 1.247 . S
C48 O47 1.208 . S
C49 O54 1.247 1_545 S
C49 O55 1.208 . S
C50 O42 1.315 . S
C50 O45 1.279 . S
C51 O52 1.315 . S
C51 O53 1.279 . S
O52 Cd44 2.223 . S
O52 C51 1.315 . S
O53 Cd43 2.240 . S
O53 C51 1.279 . S
O54 Cd44 2.297 1_565 S
O54 C49 1.247 1_565 S
O55 Cd44 2.439 . S
O55 C49 1.208 . S
O56 Cd57 2.223 . S
O56 C64 1.315 . S
Cd57 O56 2.223 . S
Cd57 O60 2.297 . S
Cd57 O61 2.439 . S
Cd57 O67 2.240 . S
Cd58 O59 2.240 . S
Cd58 O66 2.223 . S
Cd58 O68 2.297 1_565 S
Cd58 O69 2.439 . S
O59 Cd58 2.240 . S
O59 C64 1.279 . S
O60 Cd57 2.297 . S
O60 C62 1.247 . S
O61 Cd57 2.439 . S
O61 C62 1.208 . S
C62 O60 1.247 . S
C62 O61 1.208 . S
C63 O68 1.247 1_565 S
C63 O69 1.208 . S
C64 O56 1.315 . S
C64 O59 1.279 . S
C65 O66 1.315 . S
C65 O67 1.279 . S
O66 Cd58 2.223 . S
O66 C65 1.315 . S
O67 Cd57 2.240 . S
O67 C65 1.279 . S
O68 Cd58 2.297 1_545 S
O68 C63 1.247 1_545 S
O69 Cd58 2.439 . S
O69 C63 1.208 . S
O70 Cd71 2.223 . S
O70 C78 1.315 . S
Cd71 O70 2.223 . S
Cd71 O74 2.297 . S
Cd71 O75 2.439 . S
Cd71 O81 2.240 . S
Cd72 O73 2.240 . S
Cd72 O80 2.223 . S
Cd72 O82 2.297 1_545 S
Cd72 O83 2.439 . S
O73 Cd72 2.240 . S
O73 C78 1.279 . S
O74 Cd71 2.297 . S
O74 C76 1.247 . S
O75 Cd71 2.439 . S
O75 C76 1.208 . S
C76 O74 1.247 . S
C76 O75 1.208 . S
C77 O82 1.247 1_545 S
C77 O83 1.208 . S
C78 O70 1.315 . S
C78 O73 1.279 . S
C79 O80 1.315 . S
C79 O81 1.279 . S
O80 Cd72 2.223 . S
O80 C79 1.315 . S
O81 Cd71 2.240 . S
O81 C79 1.279 . S
O82 Cd72 2.297 1_565 S
O82 C77 1.247 1_565 S
O83 Cd72 2.439 . S
O83 C77 1.208 . S
O84 Cd85 2.223 . S
O84 C92 1.315 . S
Cd85 O84 2.223 . S
Cd85 O88 2.297 . S
Cd85 O89 2.439 . S
Cd85 O95 2.240 . S
Cd86 O87 2.240 . S
Cd86 O94 2.223 . S
Cd86 O96 2.297 1_545 S
Cd86 O97 2.439 . S
O87 Cd86 2.240 . S
O87 C92 1.279 . S
O88 Cd85 2.297 . S
O88 C90 1.247 . S
O89 Cd85 2.439 . S
O89 C90 1.208 . S
C90 O88 1.247 . S
C90 O89 1.208 . S
C91 O96 1.247 1_545 S
C91 O97 1.208 . S
C92 O84 1.315 . S
C92 O87 1.279 . S
C93 O94 1.315 . S
C93 O95 1.279 . S
O94 Cd86 2.223 . S
O94 C93 1.315 . S
O95 Cd85 2.240 . S
O95 C93 1.279 . S
O96 Cd86 2.297 1_565 S
O96 C91 1.247 1_565 S
O97 Cd86 2.439 . S
O97 C91 1.208 . S
O98 Cd99 2.223 . S
O98 C106 1.315 . S
Cd99 O98 2.223 . S
Cd99 O102 2.297 . S
Cd99 O103 2.439 . S
Cd99 O109 2.240 . S
Cd100 O101 2.240 . S
Cd100 O108 2.223 . S
Cd100 O110 2.297 1_565 S
Cd100 O111 2.439 . S
O101 Cd100 2.240 . S
O101 C106 1.279 . S
O102 Cd99 2.297 . S
O102 C104 1.247 . S
O103 Cd99 2.439 . S
O103 C104 1.208 . S
C104 O102 1.247 . S
C104 O103 1.208 . S
C105 O110 1.247 1_565 S
C105 O111 1.208 . S
C106 O98 1.315 . S
C106 O101 1.279 . S
C107 O108 1.315 . S
C107 O109 1.279 . S
O108 Cd100 2.223 . S
O108 C107 1.315 . S
O109 Cd99 2.240 . S
O109 C107 1.279 . S
O110 Cd100 2.297 1_545 S
O110 C105 1.247 1_545 S
O111 Cd100 2.439 . S
O111 C105 1.208 . S
O112 Cd113 2.223 . S
O112 C120 1.315 . S
Cd113 O112 2.223 . S
Cd113 O116 2.297 . S
Cd113 O117 2.439 . S
Cd113 O123 2.240 . S
Cd114 O115 2.240 . S
Cd114 O122 2.223 . S
Cd114 O124 2.297 . S
Cd114 O125 2.439 . S
O115 Cd114 2.240 . S
O115 C120 1.279 . S
O116 Cd113 2.297 . S
O116 C118 1.247 . S
O117 Cd113 2.439 . S
O117 C118 1.208 . S
C118 O116 1.247 . S
C118 O117 1.208 . S
C119 O124 1.247 . S
C119 O125 1.208 . S
C120 O112 1.315 . S
C120 O115 1.279 . S
C121 O122 1.315 . S
C121 O123 1.279 . S
O122 Cd114 2.223 . S
O122 C121 1.315 . S
O123 Cd113 2.240 . S
O123 C121 1.279 . S
O124 Cd114 2.297 . S
O124 C119 1.247 . S
O125 Cd114 2.439 . S
O125 C119 1.208 . S
O126 Cd127 2.223 . S
O126 C134 1.315 . S
Cd127 O126 2.223 . S
Cd127 O130 2.297 . S
Cd127 O131 2.439 . S
Cd127 O137 2.240 . S
Cd128 O129 2.240 . S
Cd128 O136 2.223 . S
Cd128 O138 2.297 . S
Cd128 O139 2.439 . S
O129 Cd128 2.240 . S
O129 C134 1.279 . S
O130 Cd127 2.297 . S
O130 C132 1.247 . S
O131 Cd127 2.439 . S
O131 C132 1.208 . S
C132 O130 1.247 . S
C132 O131 1.208 . S
C133 O138 1.247 . S
C133 O139 1.208 . S
C134 O126 1.315 . S
C134 O129 1.279 . S
C135 O136 1.315 . S
C135 O137 1.279 . S
O136 Cd128 2.223 . S
O136 C135 1.315 . S
O137 Cd127 2.240 . S
O137 C135 1.279 . S
O138 Cd128 2.297 . S
O138 C133 1.247 . S
O139 Cd128 2.439 . S
O139 C133 1.208 . S
O140 Cd141 2.223 . S
O140 C148 1.315 . S
Cd141 O140 2.223 . S
Cd141 O144 2.297 . S
Cd141 O145 2.439 . S
Cd141 O151 2.240 . S
Cd142 O143 2.240 . S
Cd142 O150 2.223 . S
Cd142 O152 2.297 . S
Cd142 O153 2.439 . S
O143 Cd142 2.240 . S
O143 C148 1.279 . S
O144 Cd141 2.297 . S
O144 C146 1.247 . S
O145 Cd141 2.439 . S
O145 C146 1.208 . S
C146 O144 1.247 . S
C146 O145 1.208 . S
C147 O152 1.247 . S
C147 O153 1.208 . S
C148 O140 1.315 . S
C148 O143 1.279 . S
C149 O150 1.315 . S
C149 O151 1.279 . S
O150 Cd142 2.223 . S
O150 C149 1.315 . S
O151 Cd141 2.240 . S
O151 C149 1.279 . S
O152 Cd142 2.297 . S
O152 C147 1.247 . S
O153 Cd142 2.439 . S
O153 C147 1.208 . S
O154 Cd155 2.223 . S
O154 C162 1.315 . S
Cd155 O154 2.223 . S
Cd155 O158 2.297 . S
Cd155 O159 2.439 . S
Cd155 O165 2.240 . S
Cd156 O157 2.240 . S
Cd156 O164 2.223 . S
Cd156 O166 2.297 . S
Cd156 O167 2.439 . S
O157 Cd156 2.240 . S
O157 C162 1.279 . S
O158 Cd155 2.297 . S
O158 C160 1.247 . S
O159 Cd155 2.439 . S
O159 C160 1.208 . S
C160 O158 1.247 . S
C160 O159 1.208 . S
C161 O166 1.247 . S
C161 O167 1.208 . S
C162 O154 1.315 . S
C162 O157 1.279 . S
C163 O164 1.315 . S
C163 O165 1.279 . S
O164 Cd156 2.223 . S
O164 C163 1.315 . S
O165 Cd155 2.240 . S
O165 C163 1.279 . S
O166 Cd156 2.297 . S
O166 C161 1.247 . S
O167 Cd156 2.439 . S
O167 C161 1.208 . S
O168 Cd169 2.223 . S
O168 C176 1.315 . S
Cd169 O168 2.223 . S
Cd169 O172 2.297 . S
Cd169 O173 2.439 . S
Cd169 O179 2.240 . S
Cd170 O171 2.240 . S
Cd170 O178 2.223 . S
Cd170 O180 2.297 . S
Cd170 O181 2.439 . S
O171 Cd170 2.240 . S
O171 C176 1.279 . S
O172 Cd169 2.297 . S
O172 C174 1.247 . S
O173 Cd169 2.439 . S
O173 C174 1.208 . S
C174 O172 1.247 . S
C174 O173 1.208 . S
C175 O180 1.247 . S
C175 O181 1.208 . S
C176 O168 1.315 . S
C176 O171 1.279 . S
C177 O178 1.315 . S
C177 O179 1.279 . S
O178 Cd170 2.223 . S
O178 C177 1.315 . S
O179 Cd169 2.240 . S
O179 C177 1.279 . S
O180 Cd170 2.297 . S
O180 C175 1.247 . S
O181 Cd170 2.439 . S
O181 C175 1.208 . S
O182 Cd183 2.223 . S
O182 C190 1.315 . S
Cd183 O182 2.223 . S
Cd183 O186 2.297 . S
Cd183 O187 2.439 . S
Cd183 O193 2.240 . S
Cd184 O185 2.240 . S
Cd184 O192 2.223 . S
Cd184 O194 2.297 . S
Cd184 O195 2.439 . S
O185 Cd184 2.240 . S
O185 C190 1.279 . S
O186 Cd183 2.297 . S
O186 C188 1.247 . S
O187 Cd183 2.439 . S
O187 C188 1.208 . S
C188 O186 1.247 . S
C188 O187 1.208 . S
C189 O194 1.247 . S
C189 O195 1.208 . S
C190 O182 1.315 . S
C190 O185 1.279 . S
C191 O192 1.315 . S
C191 O193 1.279 . S
O192 Cd184 2.223 . S
O192 C191 1.315 . S
O193 Cd183 2.240 . S
O193 C191 1.279 . S
O194 Cd184 2.297 . S
O194 C189 1.247 . S
O195 Cd184 2.439 . S
O195 C189 1.208 . S
O196 Cd197 2.223 . S
O196 C204 1.315 . S
Cd197 O196 2.223 . S
Cd197 O200 2.297 . S
Cd197 O201 2.439 . S
Cd197 O207 2.240 . S
Cd198 O199 2.240 . S
Cd198 O206 2.223 . S
Cd198 O208 2.297 . S
Cd198 O209 2.439 . S
O199 Cd198 2.240 . S
O199 C204 1.279 . S
O200 Cd197 2.297 . S
O200 C202 1.247 . S
O201 Cd197 2.439 . S
O201 C202 1.208 . S
C202 O200 1.247 . S
C202 O201 1.208 . S
C203 O208 1.247 . S
C203 O209 1.208 . S
C204 O196 1.315 . S
C204 O199 1.279 . S
C205 O206 1.315 . S
C205 O207 1.279 . S
O206 Cd198 2.223 . S
O206 C205 1.315 . S
O207 Cd197 2.240 . S
O207 C205 1.279 . S
O208 Cd198 2.297 . S
O208 C203 1.247 . S
O209 Cd198 2.439 . S
O209 C203 1.208 . S
O210 Cd211 2.223 . S
O210 C218 1.315 . S
Cd211 O210 2.223 . S
Cd211 O214 2.297 . S
Cd211 O215 2.439 . S
Cd211 O221 2.240 . S
Cd212 O213 2.240 . S
Cd212 O220 2.223 . S
Cd212 O222 2.297 . S
Cd212 O223 2.439 . S
O213 Cd212 2.240 . S
O213 C218 1.279 . S
O214 Cd211 2.297 . S
O214 C216 1.247 . S
O215 Cd211 2.439 . S
O215 C216 1.208 . S
C216 O214 1.247 . S
C216 O215 1.208 . S
C217 O222 1.247 . S
C217 O223 1.208 . S
C218 O210 1.315 . S
C218 O213 1.279 . S
C219 O220 1.315 . S
C219 O221 1.279 . S
O220 Cd212 2.223 . S
O220 C219 1.315 . S
O221 Cd211 2.240 . S
O221 C219 1.279 . S
O222 Cd212 2.297 . S
O222 C217 1.247 . S
O223 Cd212 2.439 . S
O223 C217 1.208 . S
H224 C230 0.930 . S
H225 C234 0.930 . S
H226 C239 0.929 . S
H227 C237 0.929 . S
H228 C232 0.929 . S
H229 C238 0.929 . S
C230 H224 0.930 . S
C230 C231 1.367 . S
C230 C238 1.378 . S
C231 C230 1.367 . S
C231 C239 1.433 . S
C232 H228 0.929 . S
C232 C234 1.378 . S
C232 C236 1.350 . S
C233 C236 1.463 . S
C233 C238 1.350 . S
C233 N241 1.427 . S
C234 H225 0.930 . S
C234 C232 1.378 . S
C234 C235 1.367 . S
C235 C234 1.367 . S
C235 C237 1.433 . S
C236 C232 1.350 . S
C236 C233 1.463 . S
C236 N240 1.427 . S
C237 H227 0.929 . S
C237 C235 1.433 . S
C237 N240 1.384 . S
C238 H229 0.929 . S
C238 C230 1.378 . S
C238 C233 1.350 . S
C239 H226 0.929 . S
C239 C231 1.433 . S
C239 N241 1.384 . S
N240 C236 1.427 . S
N240 C237 1.384 . S
N241 C233 1.427 . S
N241 C239 1.384 . S
H242 C248 0.930 . S
H243 C252 0.930 . S
H244 C257 0.929 . S
H245 C255 0.929 . S
H246 C250 0.929 . S
H247 C256 0.929 . S
C248 H242 0.930 . S
C248 C249 1.367 . S
C248 C256 1.378 . S
C249 C248 1.367 . S
C249 C257 1.433 . S
C250 H246 0.929 . S
C250 C252 1.378 . S
C250 C254 1.350 . S
C251 C254 1.463 . S
C251 C256 1.350 . S
C251 N259 1.427 . S
C252 H243 0.930 . S
C252 C250 1.378 . S
C252 C253 1.367 . S
C253 C252 1.367 . S
C253 C255 1.433 . S
C254 C250 1.350 . S
C254 C251 1.463 . S
C254 N258 1.427 . S
C255 H245 0.929 . S
C255 C253 1.433 . S
C255 N258 1.384 . S
C256 H247 0.929 . S
C256 C248 1.378 . S
C256 C251 1.350 . S
C257 H244 0.929 . S
C257 C249 1.433 . S
C257 N259 1.384 . S
N258 C254 1.427 . S
N258 C255 1.384 . S
N259 C251 1.427 . S
N259 C257 1.384 . S
H260 C266 0.930 . S
H261 C270 0.930 . S
H262 C275 0.929 . S
H263 C273 0.929 . S
H264 C268 0.929 . S
H265 C274 0.929 . S
C266 H260 0.930 . S
C266 C267 1.367 . S
C266 C274 1.378 . S
C267 C266 1.367 . S
C267 C275 1.433 . S
C268 H264 0.929 . S
C268 C270 1.378 . S
C268 C272 1.350 . S
C269 C272 1.463 1_554 S
C269 C274 1.350 . S
C269 N277 1.427 . S
C270 H261 0.930 . S
C270 C268 1.378 . S
C270 C271 1.367 . S
C271 C270 1.367 . S
C271 C273 1.433 . S
C272 C268 1.350 . S
C272 C269 1.463 1_556 S
C272 N276 1.427 . S
C273 H263 0.929 . S
C273 C271 1.433 . S
C273 N276 1.384 . S
C274 H265 0.929 . S
C274 C266 1.378 . S
C274 C269 1.350 . S
C275 H262 0.929 . S
C275 C267 1.433 . S
C275 N277 1.384 . S
N276 C272 1.427 . S
N276 C273 1.384 . S
N277 C269 1.427 . S
N277 C275 1.384 . S
H278 C284 0.930 . S
H279 C288 0.930 . S
H280 C293 0.929 . S
H281 C291 0.929 . S
H282 C286 0.929 . S
H283 C292 0.929 . S
C284 H278 0.930 . S
C284 C285 1.367 . S
C284 C292 1.378 . S
C285 C284 1.367 . S
C285 C293 1.433 . S
C286 H282 0.929 . S
C286 C288 1.378 . S
C286 C290 1.350 . S
C287 C290 1.463 1_556 S
C287 C292 1.350 . S
C287 N295 1.427 . S
C288 H279 0.930 . S
C288 C286 1.378 . S
C288 C289 1.367 . S
C289 C288 1.367 . S
C289 C291 1.433 . S
C290 C286 1.350 . S
C290 C287 1.463 1_554 S
C290 N294 1.427 . S
C291 H281 0.929 . S
C291 C289 1.433 . S
C291 N294 1.384 . S
C292 H283 0.929 . S
C292 C284 1.378 . S
C292 C287 1.350 . S
C293 H280 0.929 . S
C293 C285 1.433 . S
C293 N295 1.384 . S
N294 C290 1.427 . S
N294 C291 1.384 . S
N295 C287 1.427 . S
N295 C293 1.384 . S
H296 C302 0.930 . S
H297 C306 0.930 . S
H298 C311 0.929 . S
H299 C309 0.929 . S
H300 C304 0.929 . S
H301 C310 0.929 . S
C302 H296 0.930 . S
C302 C303 1.367 . S
C302 C310 1.378 . S
C303 C302 1.367 . S
C303 C311 1.433 . S
C304 H300 0.929 . S
C304 C306 1.378 . S
C304 C308 1.350 . S
C305 C308 1.463 . S
C305 C310 1.350 . S
C305 N313 1.427 . S
C306 H297 0.930 . S
C306 C304 1.378 . S
C306 C307 1.367 . S
C307 C306 1.367 . S
C307 C309 1.433 . S
C308 C304 1.350 . S
C308 C305 1.463 . S
C308 N312 1.427 . S
C309 H299 0.929 . S
C309 C307 1.433 . S
C309 N312 1.384 . S
C310 H301 0.929 . S
C310 C302 1.378 . S
C310 C305 1.350 . S
C311 H298 0.929 . S
C311 C303 1.433 . S
C311 N313 1.384 . S
N312 C308 1.427 . S
N312 C309 1.384 . S
N313 C305 1.427 . S
N313 C311 1.384 . S
H314 C320 0.930 . S
H315 C324 0.930 . S
H316 C329 0.929 . S
H317 C327 0.929 . S
H318 C322 0.929 . S
H319 C328 0.929 . S
C320 H314 0.930 . S
C320 C321 1.367 . S
C320 C328 1.378 . S
C321 C320 1.367 . S
C321 C329 1.433 . S
C322 H318 0.929 . S
C322 C324 1.378 . S
C322 C326 1.350 . S
C323 C326 1.463 . S
C323 C328 1.350 . S
C323 N331 1.427 . S
C324 H315 0.930 . S
C324 C322 1.378 . S
C324 C325 1.367 . S
C325 C324 1.367 . S
C325 C327 1.433 . S
C326 C322 1.350 . S
C326 C323 1.463 . S
C326 N330 1.427 . S
C327 H317 0.929 . S
C327 C325 1.433 . S
C327 N330 1.384 . S
C328 H319 0.929 . S
C328 C320 1.378 . S
C328 C323 1.350 . S
C329 H316 0.929 . S
C329 C321 1.433 . S
C329 N331 1.384 . S
N330 C326 1.427 . S
N330 C327 1.384 . S
N331 C323 1.427 . S
N331 C329 1.384 . S
H332 C338 0.930 . S
H333 C342 0.930 . S
H334 C347 0.929 . S
H335 C345 0.929 . S
H336 C340 0.929 . S
H337 C346 0.929 . S
C338 H332 0.930 . S
C338 C339 1.367 . S
C338 C346 1.378 . S
C339 C338 1.367 . S
C339 C347 1.433 . S
C340 H336 0.929 . S
C340 C342 1.378 . S
C340 C344 1.350 . S
C341 C344 1.463 1_556 S
C341 C346 1.350 . S
C341 N349 1.427 . S
C342 H333 0.930 . S
C342 C340 1.378 . S
C342 C343 1.367 . S
C343 C342 1.367 . S
C343 C345 1.433 . S
C344 C340 1.350 . S
C344 C341 1.463 1_554 S
C344 N348 1.427 . S
C345 H335 0.929 . S
C345 C343 1.433 . S
C345 N348 1.384 . S
C346 H337 0.929 . S
C346 C338 1.378 . S
C346 C341 1.350 . S
C347 H334 0.929 . S
C347 C339 1.433 . S
C347 N349 1.384 . S
N348 C344 1.427 . S
N348 C345 1.384 . S
N349 C341 1.427 . S
N349 C347 1.384 . S
H350 C356 0.930 . S
H351 C360 0.930 . S
H352 C365 0.929 . S
H353 C363 0.929 . S
H354 C358 0.929 . S
H355 C364 0.929 . S
C356 H350 0.930 . S
C356 C357 1.367 . S
C356 C364 1.378 . S
C357 C356 1.367 . S
C357 C365 1.433 . S
C358 H354 0.929 . S
C358 C360 1.378 . S
C358 C362 1.350 . S
C359 C362 1.463 1_554 S
C359 C364 1.350 . S
C359 N367 1.427 . S
C360 H351 0.930 . S
C360 C358 1.378 . S
C360 C361 1.367 . S
C361 C360 1.367 . S
C361 C363 1.433 . S
C362 C358 1.350 . S
C362 C359 1.463 1_556 S
C362 N366 1.427 . S
C363 H353 0.929 . S
C363 C361 1.433 . S
C363 N366 1.384 . S
C364 H355 0.929 . S
C364 C356 1.378 . S
C364 C359 1.350 . S
C365 H352 0.929 . S
C365 C357 1.433 . S
C365 N367 1.384 . S
N366 C362 1.427 . S
N366 C363 1.384 . S
N367 C359 1.427 . S
N367 C365 1.384 . S
H368 C374 0.930 . S
H369 C378 0.930 . S
H370 C383 0.929 1_545 S
H371 C381 0.929 1_565 S
H372 C376 0.929 . S
H373 C382 0.929 . S
C374 H368 0.930 . S
C374 C375 1.367 . S
C374 C382 1.378 . S
C375 C374 1.367 . S
C375 C383 1.433 . S
C376 H372 0.929 . S
C376 C378 1.378 . S
C376 C380 1.350 . S
C377 C380 1.463 1_565 S
C377 C382 1.350 . S
C377 N385 1.427 1_565 S
C378 H369 0.930 . S
C378 C376 1.378 . S
C378 C379 1.367 . S
C379 C378 1.367 . S
C379 C381 1.433 . S
C380 C376 1.350 . S
C380 C377 1.463 1_545 S
C380 N384 1.427 1_545 S
C381 H371 0.929 1_545 S
C381 C379 1.433 . S
C381 N384 1.384 1_545 S
C382 H373 0.929 . S
C382 C374 1.378 . S
C382 C377 1.350 . S
C383 H370 0.929 1_565 S
C383 C375 1.433 . S
C383 N385 1.384 1_565 S
N384 C380 1.427 1_565 S
N384 C381 1.384 1_565 S
N385 C377 1.427 1_545 S
N385 C383 1.384 1_545 S
H386 C392 0.930 . S
H387 C396 0.930 . S
H388 C401 0.929 . S
H389 C399 0.929 . S
H390 C394 0.936 . S
H391 C400 0.936 . S
C392 H386 0.930 . S
C392 C393 1.367 . S
C392 C400 1.378 . S
C393 C392 1.367 . S
C393 C401 1.433 . S
C394 H390 0.936 . S
C394 C396 1.378 . S
C394 C398 1.350 . S
C395 C398 1.463 1_565 S
C395 C400 1.350 . S
C395 N403 1.427 . S
C396 H387 0.930 . S
C396 C394 1.378 . S
C396 C397 1.367 . S
C397 C396 1.367 . S
C397 C399 1.433 . S
C398 C394 1.350 . S
C398 C395 1.463 1_545 S
C398 N402 1.427 . S
C399 H389 0.929 . S
C399 C397 1.433 . S
C399 N402 1.384 . S
C400 H391 0.936 . S
C400 C392 1.378 . S
C400 C395 1.350 . S
C401 H388 0.929 . S
C401 C393 1.433 . S
C401 N403 1.384 . S
N402 C398 1.427 . S
N402 C399 1.384 . S
N403 C395 1.427 . S
N403 C401 1.384 . S
H404 C410 0.930 . S
H405 C414 0.930 . S
H406 C419 0.929 . S
H407 C417 0.929 . S
H408 C412 0.929 . S
H409 C418 0.929 . S
C410 H404 0.930 . S
C410 C411 1.367 . S
C410 C418 1.378 . S
C411 C410 1.367 . S
C411 C419 1.433 . S
C412 H408 0.929 . S
C412 C414 1.378 . S
C412 C416 1.350 . S
C413 C416 1.463 1_565 S
C413 C418 1.350 . S
C413 N421 1.427 . S
C414 H405 0.930 . S
C414 C412 1.378 . S
C414 C415 1.367 . S
C415 C414 1.367 . S
C415 C417 1.433 . S
C416 C412 1.350 . S
C416 C413 1.463 1_545 S
C416 N420 1.427 . S
C417 H407 0.929 . S
C417 C415 1.433 . S
C417 N420 1.384 . S
C418 H409 0.929 . S
C418 C410 1.378 . S
C418 C413 1.350 . S
C419 H406 0.929 . S
C419 C411 1.433 . S
C419 N421 1.384 . S
N420 C416 1.427 . S
N420 C417 1.384 . S
N421 C413 1.427 . S
N421 C419 1.384 . S
H422 C428 0.930 . S
H423 C432 0.930 . S
H424 C437 0.929 . S
H425 C435 0.929 . S
H426 C430 0.929 1_545 S
H427 C436 0.929 1_565 S
C428 H422 0.930 . S
C428 C429 1.367 . S
C428 C436 1.378 . S
C429 C428 1.367 . S
C429 C437 1.433 . S
C430 H426 0.929 1_565 S
C430 C432 1.378 . S
C430 C434 1.350 . S
C431 C434 1.463 1_545 S
C431 C436 1.350 . S
C431 N439 1.427 . S
C432 H423 0.930 . S
C432 C430 1.378 . S
C432 C433 1.367 . S
C433 C432 1.367 . S
C433 C435 1.433 . S
C434 C430 1.350 . S
C434 C431 1.463 1_565 S
C434 N438 1.427 . S
C435 H425 0.929 . S
C435 C433 1.433 . S
C435 N438 1.384 . S
C436 H427 0.929 1_545 S
C436 C428 1.378 . S
C436 C431 1.350 . S
C437 H424 0.929 . S
C437 C429 1.433 . S
C437 N439 1.384 . S
N438 C434 1.427 . S
N438 C435 1.384 . S
N439 C431 1.427 . S
N439 C437 1.384 . S
H440 C446 0.930 . S
H441 C450 0.930 . S
H442 C455 0.929 . S
H443 C453 0.929 . S
H444 C448 0.929 . S
H445 C454 0.929 . S
C446 H440 0.930 . S
C446 C447 1.367 . S
C446 C454 1.378 . S
C447 C446 1.367 . S
C447 C455 1.433 . S
C448 H444 0.929 . S
C448 C450 1.378 . S
C448 C452 1.350 . S
C449 C452 1.463 1_655 S
C449 C454 1.350 . S
C449 N457 1.427 . S
C450 H441 0.930 . S
C450 C448 1.378 . S
C450 C451 1.367 . S
C451 C450 1.367 . S
C451 C453 1.433 . S
C452 C448 1.350 . S
C452 C449 1.463 1_455 S
C452 N456 1.427 . S
C453 H443 0.929 . S
C453 C451 1.433 . S
C453 N456 1.384 . S
C454 H445 0.929 . S
C454 C446 1.378 . S
C454 C449 1.350 . S
C455 H442 0.929 . S
C455 C447 1.433 . S
C455 N457 1.384 . S
N456 C452 1.427 . S
N456 C453 1.384 . S
N457 C449 1.427 . S
N457 C455 1.384 . S
H458 C464 0.930 . S
H459 C468 0.930 . S
H460 C473 0.929 . S
H461 C471 0.929 . S
H462 C466 0.929 . S
H463 C472 0.929 . S
C464 H458 0.930 . S
C464 C465 1.367 . S
C464 C472 1.378 . S
C465 C464 1.367 . S
C465 C473 1.433 . S
C466 H462 0.929 . S
C466 C468 1.378 . S
C466 C470 1.350 . S
C467 C470 1.463 1_455 S
C467 C472 1.350 . S
C467 N475 1.427 . S
C468 H459 0.930 . S
C468 C466 1.378 . S
C468 C469 1.367 . S
C469 C468 1.367 . S
C469 C471 1.433 . S
C470 C466 1.350 . S
C470 C467 1.463 1_655 S
C470 N474 1.427 . S
C471 H461 0.929 . S
C471 C469 1.433 . S
C471 N474 1.384 . S
C472 H463 0.929 . S
C472 C464 1.378 . S
C472 C467 1.350 . S
C473 H460 0.929 . S
C473 C465 1.433 . S
C473 N475 1.384 . S
N474 C470 1.427 . S
N474 C471 1.384 . S
N475 C467 1.427 . S
N475 C473 1.384 . S
H476 C482 0.930 . S
H477 C486 0.930 . S
H478 C491 0.929 . S
H479 C489 0.929 . S
H480 C484 0.929 . S
H481 C490 0.929 . S
C482 H476 0.930 . S
C482 C483 1.367 . S
C482 C490 1.378 . S
C483 C482 1.367 . S
C483 C491 1.433 . S
C484 H480 0.929 . S
C484 C486 1.378 . S
C484 C488 1.350 . S
C485 C488 1.463 1_655 S
C485 C490 1.350 . S
C485 N493 1.427 . S
C486 H477 0.930 . S
C486 C484 1.378 . S
C486 C487 1.367 . S
C487 C486 1.367 . S
C487 C489 1.433 . S
C488 C484 1.350 . S
C488 C485 1.463 1_455 S
C488 N492 1.427 . S
C489 H479 0.929 . S
C489 C487 1.433 . S
C489 N492 1.384 . S
C490 H481 0.929 . S
C490 C482 1.378 . S
C490 C485 1.350 . S
C491 H478 0.929 . S
C491 C483 1.433 . S
C491 N493 1.384 . S
N492 C488 1.427 . S
N492 C489 1.384 . S
N493 C485 1.427 . S
N493 C491 1.384 . S
H494 C500 0.930 . S
H495 C504 0.930 . S
H496 C509 0.929 . S
H497 C507 0.929 . S
H498 C502 0.929 . S
H499 C508 0.929 . S
C500 H494 0.930 . S
C500 C501 1.367 . S
C500 C508 1.378 . S
C501 C500 1.367 . S
C501 C509 1.433 . S
C502 H498 0.929 . S
C502 C504 1.378 . S
C502 C506 1.350 . S
C503 C506 1.463 1_455 S
C503 C508 1.350 . S
C503 N511 1.427 . S
C504 H495 0.930 . S
C504 C502 1.378 . S
C504 C505 1.367 . S
C505 C504 1.367 . S
C505 C507 1.433 . S
C506 C502 1.350 . S
C506 C503 1.463 1_655 S
C506 N510 1.427 . S
C507 H497 0.929 . S
C507 C505 1.433 . S
C507 N510 1.384 . S
C508 H499 0.929 . S
C508 C500 1.378 . S
C508 C503 1.350 . S
C509 H496 0.929 . S
C509 C501 1.433 . S
C509 N511 1.384 . S
N510 C506 1.427 . S
N510 C507 1.384 . S
N511 C503 1.427 . S
N511 C509 1.384 . S
H512 C518 0.930 . S
H513 C522 0.930 . S
H514 C527 0.929 . S
H515 C525 0.929 . S
H516 C520 0.929 . S
H517 C526 0.929 . S
C518 H512 0.930 . S
C518 C519 1.367 . S
C518 C526 1.378 . S
C519 C518 1.367 . S
C519 C527 1.433 . S
C520 H516 0.929 . S
C520 C522 1.378 . S
C520 C524 1.350 . S
C521 C524 1.463 . S
C521 C526 1.350 . S
C521 N529 1.427 . S
C522 H513 0.930 . S
C522 C520 1.378 . S
C522 C523 1.367 . S
C523 C522 1.367 . S
C523 C525 1.433 . S
C524 C520 1.350 . S
C524 C521 1.463 . S
C524 N528 1.427 . S
C525 H515 0.929 . S
C525 C523 1.433 . S
C525 N528 1.384 . S
C526 H517 0.929 . S
C526 C518 1.378 . S
C526 C521 1.350 . S
C527 H514 0.929 . S
C527 C519 1.433 . S
C527 N529 1.384 . S
N528 C524 1.427 . S
N528 C525 1.384 . S
N529 C521 1.427 . S
N529 C527 1.384 . S
H530 C536 0.930 . S
H531 C540 0.930 . S
H532 C545 0.929 . S
H533 C543 0.929 . S
H534 C538 0.929 . S
H535 C544 0.929 . S
C536 H530 0.930 . S
C536 C537 1.367 . S
C536 C544 1.378 . S
C537 C536 1.367 . S
C537 C545 1.433 . S
C538 H534 0.929 . S
C538 C540 1.378 . S
C538 C542 1.350 . S
C539 C542 1.463 . S
C539 C544 1.350 . S
C539 N547 1.427 . S
C540 H531 0.930 . S
C540 C538 1.378 . S
C540 C541 1.367 . S
C541 C540 1.367 . S
C541 C543 1.433 . S
C542 C538 1.350 . S
C542 C539 1.463 . S
C542 N546 1.427 . S
C543 H533 0.929 . S
C543 C541 1.433 . S
C543 N546 1.384 . S
C544 H535 0.929 . S
C544 C536 1.378 . S
C544 C539 1.350 . S
C545 H532 0.929 . S
C545 C537 1.433 . S
C545 N547 1.384 . S
N546 C542 1.427 . S
N546 C543 1.384 . S
N547 C539 1.427 . S
N547 C545 1.384 . S
H548 C554 0.930 . S
H549 C558 0.930 . S
H550 C563 0.929 . S
H551 C561 0.929 . S
H552 C556 0.929 . S
H553 C562 0.929 . S
C554 H548 0.930 . S
C554 C555 1.367 . S
C554 C562 1.378 . S
C555 C554 1.367 . S
C555 C563 1.433 . S
C556 H552 0.929 . S
C556 C558 1.378 . S
C556 C560 1.350 . S
C557 C560 1.463 . S
C557 C562 1.350 . S
C557 N565 1.427 . S
C558 H549 0.930 . S
C558 C556 1.378 . S
C558 C559 1.367 . S
C559 C558 1.367 . S
C559 C561 1.433 . S
C560 C556 1.350 . S
C560 C557 1.463 . S
C560 N564 1.427 . S
C561 H551 0.929 . S
C561 C559 1.433 . S
C561 N564 1.384 . S
C562 H553 0.929 . S
C562 C554 1.378 . S
C562 C557 1.350 . S
C563 H550 0.929 . S
C563 C555 1.433 . S
C563 N565 1.384 . S
N564 C560 1.427 . S
N564 C561 1.384 . S
N565 C557 1.427 . S
N565 C563 1.384 . S
H566 C572 0.930 . S
H567 C576 0.930 . S
H568 C581 0.929 . S
H569 C579 0.929 . S
H570 C574 0.929 . S
H571 C580 0.929 . S
C572 H566 0.930 . S
C572 C573 1.367 . S
C572 C580 1.378 . S
C573 C572 1.367 . S
C573 C581 1.433 . S
C574 H570 0.929 . S
C574 C576 1.378 . S
C574 C578 1.350 . S
C575 C578 1.463 . S
C575 C580 1.350 . S
C575 N583 1.427 . S
C576 H567 0.930 . S
C576 C574 1.378 . S
C576 C577 1.367 . S
C577 C576 1.367 . S
C577 C579 1.433 . S
C578 C574 1.350 . S
C578 C575 1.463 . S
C578 N582 1.427 . S
C579 H569 0.929 . S
C579 C577 1.433 . S
C579 N582 1.384 . S
C580 H571 0.929 . S
C580 C572 1.378 . S
C580 C575 1.350 . S
C581 H568 0.929 . S
C581 C573 1.433 . S
C581 N583 1.384 . S
N582 C578 1.427 . S
N582 C579 1.384 . S
N583 C575 1.427 . S
N583 C581 1.384 . S
H584 C590 0.930 . S
H585 C594 0.930 . S
H586 C599 0.929 . S
H587 C597 0.929 . S
H588 C592 0.929 . S
H589 C598 0.929 . S
C590 H584 0.930 . S
C590 C591 1.367 . S
C590 C598 1.378 . S
C591 C590 1.367 . S
C591 C599 1.433 . S
C592 H588 0.929 . S
C592 C594 1.378 . S
C592 C596 1.350 . S
C593 C596 1.463 . S
C593 C598 1.350 . S
C593 N601 1.427 . S
C594 H585 0.930 . S
C594 C592 1.378 . S
C594 C595 1.367 . S
C595 C594 1.367 . S
C595 C597 1.433 . S
C596 C592 1.350 . S
C596 C593 1.463 . S
C596 N600 1.427 . S
C597 H587 0.929 . S
C597 C595 1.433 . S
C597 N600 1.384 . S
C598 H589 0.929 . S
C598 C590 1.378 . S
C598 C593 1.350 . S
C599 H586 0.929 . S
C599 C591 1.433 . S
C599 N601 1.384 . S
N600 C596 1.427 . S
N600 C597 1.384 . S
N601 C593 1.427 . S
N601 C599 1.384 . S
H602 C608 0.930 . S
H603 C612 0.930 . S
H604 C617 0.929 . S
H605 C615 0.929 . S
H606 C610 0.929 . S
H607 C616 0.929 . S
C608 H602 0.930 . S
C608 C609 1.367 . S
C608 C616 1.378 . S
C609 C608 1.367 . S
C609 C617 1.433 . S
C610 H606 0.929 . S
C610 C612 1.378 . S
C610 C614 1.350 . S
C611 C614 1.463 . S
C611 C616 1.350 . S
C611 N619 1.427 . S
C612 H603 0.930 . S
C612 C610 1.378 . S
C612 C613 1.367 . S
C613 C612 1.367 . S
C613 C615 1.433 . S
C614 C610 1.350 . S
C614 C611 1.463 . S
C614 N618 1.427 . S
C615 H605 0.929 . S
C615 C613 1.433 . S
C615 N618 1.384 . S
C616 H607 0.929 . S
C616 C608 1.378 . S
C616 C611 1.350 . S
C617 H604 0.929 . S
C617 C609 1.433 . S
C617 N619 1.384 . S
N618 C614 1.427 . S
N618 C615 1.384 . S
N619 C611 1.427 . S
N619 C617 1.384 . S
H620 C626 0.930 . S
H621 C630 0.930 . S
H622 C635 0.929 . S
H623 C633 0.929 . S
H624 C628 0.929 . S
H625 C634 0.929 . S
C626 H620 0.930 . S
C626 C627 1.367 . S
C626 C634 1.378 . S
C627 C626 1.367 . S
C627 C635 1.433 . S
C628 H624 0.929 . S
C628 C630 1.378 . S
C628 C632 1.350 . S
C629 C632 1.463 . S
C629 C634 1.350 . S
C629 N637 1.427 . S
C630 H621 0.930 . S
C630 C628 1.378 . S
C630 C631 1.367 . S
C631 C630 1.367 . S
C631 C633 1.433 . S
C632 C628 1.350 . S
C632 C629 1.463 . S
C632 N636 1.427 . S
C633 H623 0.929 . S
C633 C631 1.433 . S
C633 N636 1.384 . S
C634 H625 0.929 . S
C634 C626 1.378 . S
C634 C629 1.350 . S
C635 H622 0.929 . S
C635 C627 1.433 . S
C635 N637 1.384 . S
N636 C632 1.427 . S
N636 C633 1.384 . S
N637 C629 1.427 . S
N637 C635 1.384 . S
H638 C644 0.930 . S
H639 C648 0.930 . S
H640 C653 0.929 . S
H641 C651 0.929 . S
H642 C646 0.929 . S
H643 C652 0.929 . S
C644 H638 0.930 . S
C644 C645 1.367 . S
C644 C652 1.378 . S
C645 C644 1.367 . S
C645 C653 1.433 . S
C646 H642 0.929 . S
C646 C648 1.378 . S
C646 C650 1.350 . S
C647 C650 1.463 . S
C647 C652 1.350 . S
C647 N655 1.427 . S
C648 H639 0.930 . S
C648 C646 1.378 . S
C648 C649 1.367 . S
C649 C648 1.367 . S
C649 C651 1.433 . S
C650 C646 1.350 . S
C650 C647 1.463 . S
C650 N654 1.427 . S
C651 H641 0.929 . S
C651 C649 1.433 . S
C651 N654 1.384 . S
C652 H643 0.929 . S
C652 C644 1.378 . S
C652 C647 1.350 . S
C653 H640 0.929 . S
C653 C645 1.433 . S
C653 N655 1.384 . S
N654 C650 1.427 . S
N654 C651 1.384 . S
N655 C647 1.427 . S
N655 C653 1.384 . S
H656 C662 0.930 . S
H657 C666 0.930 . S
H658 C671 0.929 . S
H659 C669 0.929 . S
H660 C664 0.929 . S
H661 C670 0.929 . S
C662 H656 0.930 . S
C662 C663 1.367 . S
C662 C670 1.378 . S
C663 C662 1.367 . S
C663 C671 1.433 1_545 S
C664 H660 0.929 . S
C664 C666 1.378 . S
C664 C668 1.350 . S
C665 C668 1.463 1_545 S
C665 C670 1.350 . S
C665 N673 1.427 1_545 S
C666 H657 0.930 . S
C666 C664 1.378 . S
C666 C667 1.367 . S
C667 C666 1.367 . S
C667 C669 1.433 1_565 S
C668 C664 1.350 . S
C668 C665 1.463 1_565 S
C668 N672 1.427 1_565 S
C669 H659 0.929 . S
C669 C667 1.433 1_545 S
C669 N672 1.384 . S
C670 H661 0.929 . S
C670 C662 1.378 . S
C670 C665 1.350 . S
C671 H658 0.929 . S
C671 C663 1.433 1_565 S
C671 N673 1.384 . S
N672 C668 1.427 1_545 S
N672 C669 1.384 . S
N673 C665 1.427 1_565 S
N673 C671 1.384 . S
H674 C680 0.930 . S
H675 C684 0.930 . S
H676 C689 0.929 . S
H677 C687 0.929 . S
H678 C682 0.929 . S
H679 C688 0.929 . S
C680 H674 0.930 . S
C680 C681 1.367 . S
C680 C688 1.378 . S
C681 C680 1.367 . S
C681 C689 1.433 1_545 S
C682 H678 0.929 . S
C682 C684 1.378 . S
C682 C686 1.350 . S
C683 C686 1.463 1_545 S
C683 C688 1.350 . S
C683 N691 1.427 1_545 S
C684 H675 0.930 . S
C684 C682 1.378 . S
C684 C685 1.367 . S
C685 C684 1.367 . S
C685 C687 1.433 1_565 S
C686 C682 1.350 . S
C686 C683 1.463 1_565 S
C686 N690 1.427 1_565 S
C687 H677 0.929 . S
C687 C685 1.433 1_545 S
C687 N690 1.384 . S
C688 H679 0.929 . S
C688 C680 1.378 . S
C688 C683 1.350 . S
C689 H676 0.929 . S
C689 C681 1.433 1_565 S
C689 N691 1.384 . S
N690 C686 1.427 1_545 S
N690 C687 1.384 . S
N691 C683 1.427 1_565 S
N691 C689 1.384 . S
H692 C698 0.930 . S
H693 C702 0.930 . S
H694 C707 0.929 . S
H695 C705 0.929 . S
H696 C700 0.929 . S
H697 C706 0.929 . S
C698 H692 0.930 . S
C698 C699 1.367 . S
C698 C706 1.378 . S
C699 C698 1.367 . S
C699 C707 1.433 1_545 S
C700 H696 0.929 . S
C700 C702 1.378 . S
C700 C704 1.350 . S
C701 C704 1.463 1_545 S
C701 C706 1.350 . S
C701 N709 1.427 1_545 S
C702 H693 0.930 . S
C702 C700 1.378 . S
C702 C703 1.367 . S
C703 C702 1.367 . S
C703 C705 1.433 1_565 S
C704 C700 1.350 . S
C704 C701 1.463 1_565 S
C704 N708 1.427 1_565 S
C705 H695 0.929 . S
C705 C703 1.433 1_545 S
C705 N708 1.384 . S
C706 H697 0.929 . S
C706 C698 1.378 . S
C706 C701 1.350 . S
C707 H694 0.929 . S
C707 C699 1.433 1_565 S
C707 N709 1.384 . S
N708 C704 1.427 1_545 S
N708 C705 1.384 . S
N709 C701 1.427 1_565 S
N709 C707 1.384 . S
H710 C716 0.930 1_545 S
H711 C720 0.930 1_565 S
H712 C725 0.929 . S
H713 C723 0.929 . S
H714 C718 0.929 . S
H715 C724 0.929 . S
C716 H710 0.930 1_565 S
C716 C717 1.367 . S
C716 C724 1.378 1_565 S
C717 C716 1.367 . S
C717 C725 1.433 . S
C718 H714 0.929 . S
C718 C720 1.378 1_565 S
C718 C722 1.350 1_565 S
C719 C722 1.463 1_565 S
C719 C724 1.350 1_565 S
C719 N727 1.427 . S
C720 H711 0.930 1_545 S
C720 C718 1.378 1_545 S
C720 C721 1.367 . S
C721 C720 1.367 . S
C721 C723 1.433 . S
C722 C718 1.350 1_545 S
C722 C719 1.463 1_545 S
C722 N726 1.427 . S
C723 H713 0.929 . S
C723 C721 1.433 . S
C723 N726 1.384 . S
C724 H715 0.929 . S
C724 C716 1.378 1_545 S
C724 C719 1.350 1_545 S
C725 H712 0.929 . S
C725 C717 1.433 . S
C725 N727 1.384 . S
N726 C722 1.427 . S
N726 C723 1.384 . S
N727 C719 1.427 . S
N727 C725 1.384 . S
H728 C734 0.930 . S
H729 C738 0.930 . S
H730 C743 0.929 . S
H731 C741 0.929 . S
H732 C736 0.929 . S
H733 C742 0.929 . S
C734 H728 0.930 . S
C734 C735 1.367 . S
C734 C742 1.378 . S
C735 C734 1.367 . S
C735 C743 1.433 . S
C736 H732 0.929 . S
C736 C738 1.378 . S
C736 C740 1.350 . S
C737 C740 1.463 . S
C737 C742 1.350 . S
C737 N745 1.427 . S
C738 H729 0.930 . S
C738 C736 1.378 . S
C738 C739 1.367 . S
C739 C738 1.367 . S
C739 C741 1.433 . S
C740 C736 1.350 . S
C740 C737 1.463 . S
C740 N744 1.427 . S
C741 H731 0.929 . S
C741 C739 1.433 . S
C741 N744 1.384 . S
C742 H733 0.929 . S
C742 C734 1.378 . S
C742 C737 1.350 . S
C743 H730 0.929 . S
C743 C735 1.433 . S
C743 N745 1.384 . S
N744 C740 1.427 . S
N744 C741 1.384 . S
N745 C737 1.427 . S
N745 C743 1.384 . S
H746 C752 0.930 . S
H747 C756 0.930 . S
H748 C761 0.929 . S
H749 C759 0.929 . S
H750 C754 0.929 . S
H751 C760 0.929 . S
C752 H746 0.930 . S
C752 C753 1.367 . S
C752 C760 1.378 . S
C753 C752 1.367 . S
C753 C761 1.433 . S
C754 H750 0.929 . S
C754 C756 1.378 . S
C754 C758 1.350 . S
C755 C758 1.463 . S
C755 C760 1.350 . S
C755 N763 1.427 . S
C756 H747 0.930 . S
C756 C754 1.378 . S
C756 C757 1.367 . S
C757 C756 1.367 . S
C757 C759 1.433 . S
C758 C754 1.350 . S
C758 C755 1.463 . S
C758 N762 1.427 . S
C759 H749 0.929 . S
C759 C757 1.433 . S
C759 N762 1.384 . S
C760 H751 0.929 . S
C760 C752 1.378 . S
C760 C755 1.350 . S
C761 H748 0.929 . S
C761 C753 1.433 . S
C761 N763 1.384 . S
N762 C758 1.427 . S
N762 C759 1.384 . S
N763 C755 1.427 . S
N763 C761 1.384 . S
H764 C770 0.930 . S
H765 C774 0.930 . S
H766 C779 0.929 . S
H767 C777 0.929 . S
H768 C772 0.929 . S
H769 C778 0.929 . S
C770 H764 0.930 . S
C770 C771 1.367 . S
C770 C778 1.378 . S
C771 C770 1.367 . S
C771 C779 1.433 . S
C772 H768 0.929 . S
C772 C774 1.378 . S
C772 C776 1.350 . S
C773 C776 1.463 . S
C773 C778 1.350 . S
C773 N781 1.427 . S
C774 H765 0.930 . S
C774 C772 1.378 . S
C774 C775 1.367 . S
C775 C774 1.367 . S
C775 C777 1.433 . S
C776 C772 1.350 . S
C776 C773 1.463 . S
C776 N780 1.427 . S
C777 H767 0.929 . S
C777 C775 1.433 . S
C777 N780 1.384 . S
C778 H769 0.929 . S
C778 C770 1.378 . S
C778 C773 1.350 . S
C779 H766 0.929 . S
C779 C771 1.433 . S
C779 N781 1.384 . S
N780 C776 1.427 . S
N780 C777 1.384 . S
N781 C773 1.427 . S
N781 C779 1.384 . S
H782 C788 0.930 . S
H783 C792 0.930 . S
H784 C797 0.929 . S
H785 C795 0.929 . S
H786 C790 0.929 . S
H787 C796 0.929 . S
C788 H782 0.930 . S
C788 C789 1.367 . S
C788 C796 1.378 . S
C789 C788 1.367 . S
C789 C797 1.433 . S
C790 H786 0.929 . S
C790 C792 1.378 . S
C790 C794 1.350 . S
C791 C794 1.463 . S
C791 C796 1.350 . S
C791 N799 1.427 . S
C792 H783 0.930 . S
C792 C790 1.378 . S
C792 C793 1.367 . S
C793 C792 1.367 . S
C793 C795 1.433 . S
C794 C790 1.350 . S
C794 C791 1.463 . S
C794 N798 1.427 . S
C795 H785 0.929 . S
C795 C793 1.433 . S
C795 N798 1.384 . S
C796 H787 0.929 . S
C796 C788 1.378 . S
C796 C791 1.350 . S
C797 H784 0.929 . S
C797 C789 1.433 . S
C797 N799 1.384 . S
N798 C794 1.427 . S
N798 C795 1.384 . S
N799 C791 1.427 . S
N799 C797 1.384 . S
C231 C8 1.206 . S
C235 C78 1.198 . S
C249 C64 1.212 . S
C253 C22 1.193 . S
C267 C36 1.200 . S
C271 C106 1.204 . S
C285 C92 1.197 . S
C289 C50 1.208 . S
C303 C190 1.193 . S
C307 C120 1.212 . S
C321 C176 1.212 . S
C325 C134 1.193 . S
C339 C218 1.212 . S
C343 C148 1.193 . S
C357 C162 1.196 . S
C361 C204 1.209 . S
C375 C23 1.515 . S
C379 C9 1.511 . S
C393 C37 1.506 . S
C397 C51 1.512 . S
C411 C65 1.506 . S
C415 C79 1.512 . S
C429 C93 1.511 . S
C433 C107 1.506 . S
C447 C121 1.514 . S
C451 C135 1.514 . S
C465 C163 1.506 . S
C469 C149 1.511 . S
C483 C191 1.513 . S
C487 C177 1.508 . S
C501 C205 1.508 . S
C505 C219 1.513 . S
C519 C132 1.539 . S
C523 C6 1.535 . S
C537 C20 1.543 . S
C541 C118 1.540 . S
C555 C160 1.538 . S
C559 C34 1.542 . S
C573 C48 1.542 . S
C577 C146 1.538 . S
C591 C62 1.541 . S
C595 C188 1.544 . S
C609 C174 1.534 . S
C613 C76 1.538 . S
C627 C90 1.543 . S
C631 C216 1.543 . S
C645 C202 1.543 . S
C649 C104 1.544 . S
C663 C7 1.414 . S
C667 C35 1.417 . S
C681 C49 1.416 . S
C685 C21 1.415 . S
C699 C91 1.417 . S
C703 C63 1.414 . S
C717 C105 1.412 . S
C721 C77 1.416 . S
C735 C147 1.414 . S
C739 C119 1.417 . S
C753 C133 1.413 . S
C757 C161 1.414 . S
C771 C203 1.417 . S
C775 C175 1.414 . S
C789 C189 1.417 . S
C793 C217 1.414 . S
