# Generated by pormake.
# Topology ukr, (4)-cn, num edge types: 1
# Building blocks:
#     Node 0, Type 0, BuildingBlock: NAHDIM_clean_sbu_0, # of connection points: 4
#     Node 1, Type 0, BuildingBlock: NAHDIM_clean_sbu_0, # of connection points: 4
#     Node 2, Type 0, BuildingBlock: NAHDIM_clean_sbu_0, # of connection points: 4
#     Node 3, Type 0, BuildingBlock: NAHDIM_clean_sbu_0, # of connection points: 4
#     Node 4, Type 0, BuildingBlock: NAHDIM_clean_sbu_0, # of connection points: 4
#     Node 5, Type 0, BuildingBlock: NAHDIM_clean_sbu_0, # of connection points: 4
#     Node 6, Type 0, BuildingBlock: NAHDIM_clean_sbu_0, # of connection points: 4
#     Node 7, Type 0, BuildingBlock: NAHDIM_clean_sbu_0, # of connection points: 4
#     Node 8, Type 0, BuildingBlock: NAHDIM_clean_sbu_0, # of connection points: 4
#     Node 9, Type 0, BuildingBlock: NAHDIM_clean_sbu_0, # of connection points: 4
#     Node 10, Type 0, BuildingBlock: NAHDIM_clean_sbu_0, # of connection points: 4
#     Node 11, Type 0, BuildingBlock: NAHDIM_clean_sbu_0, # of connection points: 4
#     Node 12, Type 0, BuildingBlock: NAHDIM_clean_sbu_0, # of connection points: 4
#     Node 13, Type 0, BuildingBlock: NAHDIM_clean_sbu_0, # of connection points: 4
#     Node 14, Type 0, BuildingBlock: NAHDIM_clean_sbu_0, # of connection points: 4
#     Node 15, Type 0, BuildingBlock: NAHDIM_clean_sbu_0, # of connection points: 4
#     Node 16, Type 0, BuildingBlock: NAHDIM_clean_sbu_0, # of connection points: 4
#     Node 17, Type 0, BuildingBlock: NAHDIM_clean_sbu_0, # of connection points: 4
#     Node 18, Type 0, BuildingBlock: NAHDIM_clean_sbu_0, # of connection points: 4
#     Node 19, Type 0, BuildingBlock: NAHDIM_clean_sbu_0, # of connection points: 4
#     Node 20, Type 0, BuildingBlock: NAHDIM_clean_sbu_0, # of connection points: 4
#     Node 21, Type 0, BuildingBlock: NAHDIM_clean_sbu_0, # of connection points: 4
#     Node 22, Type 0, BuildingBlock: NAHDIM_clean_sbu_0, # of connection points: 4
#     Node 23, Type 0, BuildingBlock: NAHDIM_clean_sbu_0, # of connection points: 4
#     Node 24, Type 0, BuildingBlock: NAHDIM_clean_sbu_0, # of connection points: 4
#     Node 25, Type 0, BuildingBlock: NAHDIM_clean_sbu_0, # of connection points: 4
#     Node 26, Type 0, BuildingBlock: NAHDIM_clean_sbu_0, # of connection points: 4
#     Node 27, Type 0, BuildingBlock: NAHDIM_clean_sbu_0, # of connection points: 4
#     Node 28, Type 0, BuildingBlock: NAHDIM_clean_sbu_0, # of connection points: 4
#     Node 29, Type 0, BuildingBlock: NAHDIM_clean_sbu_0, # of connection points: 4
#     Node 30, Type 0, BuildingBlock: NAHDIM_clean_sbu_0, # of connection points: 4
#     Node 31, Type 0, BuildingBlock: NAHDIM_clean_sbu_0, # of connection points: 4
#     Node 32, Type 0, BuildingBlock: NAHDIM_clean_sbu_0, # of connection points: 4
#     Node 33, Type 0, BuildingBlock: NAHDIM_clean_sbu_0, # of connection points: 4
#     Node 34, Type 0, BuildingBlock: NAHDIM_clean_sbu_0, # of connection points: 4
#     Node 35, Type 0, BuildingBlock: NAHDIM_clean_sbu_0, # of connection points: 4
#     Node 36, Type 0, BuildingBlock: NAHDIM_clean_sbu_0, # of connection points: 4
#     Node 37, Type 0, BuildingBlock: NAHDIM_clean_sbu_0, # of connection points: 4
#     Node 38, Type 0, BuildingBlock: NAHDIM_clean_sbu_0, # of connection points: 4
#     Node 39, Type 0, BuildingBlock: NAHDIM_clean_sbu_0, # of connection points: 4
#     Node 40, Type 0, BuildingBlock: NAHDIM_clean_sbu_0, # of connection points: 4
#     Node 41, Type 0, BuildingBlock: NAHDIM_clean_sbu_0, # of connection points: 4
#     Node 42, Type 0, BuildingBlock: NAHDIM_clean_sbu_0, # of connection points: 4
#     Node 43, Type 0, BuildingBlock: NAHDIM_clean_sbu_0, # of connection points: 4
#     Node 44, Type 0, BuildingBlock: NAHDIM_clean_sbu_0, # of connection points: 4
#     Node 45, Type 0, BuildingBlock: NAHDIM_clean_sbu_0, # of connection points: 4
#     Node 46, Type 0, BuildingBlock: NAHDIM_clean_sbu_0, # of connection points: 4
#     Node 47, Type 0, BuildingBlock: NAHDIM_clean_sbu_0, # of connection points: 4
#     Edge 48, Type (0, 0), BuildingBlock: OJICUG_clean_linker_0, # of connection points: 2
#     Edge 49, Type (0, 0), BuildingBlock: OJICUG_clean_linker_0, # of connection points: 2
#     Edge 50, Type (0, 0), BuildingBlock: OJICUG_clean_linker_0, # of connection points: 2
#     Edge 51, Type (0, 0), BuildingBlock: OJICUG_clean_linker_0, # of connection points: 2
#     Edge 52, Type (0, 0), BuildingBlock: OJICUG_clean_linker_0, # of connection points: 2
#     Edge 53, Type (0, 0), BuildingBlock: OJICUG_clean_linker_0, # of connection points: 2
#     Edge 54, Type (0, 0), BuildingBlock: OJICUG_clean_linker_0, # of connection points: 2
#     Edge 55, Type (0, 0), BuildingBlock: OJICUG_clean_linker_0, # of connection points: 2
#     Edge 56, Type (0, 0), BuildingBlock: OJICUG_clean_linker_0, # of connection points: 2
#     Edge 57, Type (0, 0), BuildingBlock: OJICUG_clean_linker_0, # of connection points: 2
#     Edge 58, Type (0, 0), BuildingBlock: OJICUG_clean_linker_0, # of connection points: 2
#     Edge 59, Type (0, 0), BuildingBlock: OJICUG_clean_linker_0, # of connection points: 2
#     Edge 60, Type (0, 0), BuildingBlock: OJICUG_clean_linker_0, # of connection points: 2
#     Edge 61, Type (0, 0), BuildingBlock: OJICUG_clean_linker_0, # of connection points: 2
#     Edge 62, Type (0, 0), BuildingBlock: OJICUG_clean_linker_0, # of connection points: 2
#     Edge 63, Type (0, 0), BuildingBlock: OJICUG_clean_linker_0, # of connection points: 2
#     Edge 64, Type (0, 0), BuildingBlock: OJICUG_clean_linker_0, # of connection points: 2
#     Edge 65, Type (0, 0), BuildingBlock: OJICUG_clean_linker_0, # of connection points: 2
#     Edge 66, Type (0, 0), BuildingBlock: OJICUG_clean_linker_0, # of connection points: 2
#     Edge 67, Type (0, 0), BuildingBlock: OJICUG_clean_linker_0, # of connection points: 2
#     Edge 68, Type (0, 0), BuildingBlock: OJICUG_clean_linker_0, # of connection points: 2
#     Edge 69, Type (0, 0), BuildingBlock: OJICUG_clean_linker_0, # of connection points: 2
#     Edge 70, Type (0, 0), BuildingBlock: OJICUG_clean_linker_0, # of connection points: 2
#     Edge 71, Type (0, 0), BuildingBlock: OJICUG_clean_linker_0, # of connection points: 2
#     Edge 72, Type (0, 0), BuildingBlock: OJICUG_clean_linker_0, # of connection points: 2
#     Edge 73, Type (0, 0), BuildingBlock: OJICUG_clean_linker_0, # of connection points: 2
#     Edge 74, Type (0, 0), BuildingBlock: OJICUG_clean_linker_0, # of connection points: 2
#     Edge 75, Type (0, 0), BuildingBlock: OJICUG_clean_linker_0, # of connection points: 2
#     Edge 76, Type (0, 0), BuildingBlock: OJICUG_clean_linker_0, # of connection points: 2
#     Edge 77, Type (0, 0), BuildingBlock: OJICUG_clean_linker_0, # of connection points: 2
#     Edge 78, Type (0, 0), BuildingBlock: OJICUG_clean_linker_0, # of connection points: 2
#     Edge 79, Type (0, 0), BuildingBlock: OJICUG_clean_linker_0, # of connection points: 2
#     Edge 80, Type (0, 0), BuildingBlock: OJICUG_clean_linker_0, # of connection points: 2
#     Edge 81, Type (0, 0), BuildingBlock: OJICUG_clean_linker_0, # of connection points: 2
#     Edge 82, Type (0, 0), BuildingBlock: OJICUG_clean_linker_0, # of connection points: 2
#     Edge 83, Type (0, 0), BuildingBlock: OJICUG_clean_linker_0, # of connection points: 2
#     Edge 84, Type (0, 0), BuildingBlock: OJICUG_clean_linker_0, # of connection points: 2
#     Edge 85, Type (0, 0), BuildingBlock: OJICUG_clean_linker_0, # of connection points: 2
#     Edge 86, Type (0, 0), BuildingBlock: OJICUG_clean_linker_0, # of connection points: 2
#     Edge 87, Type (0, 0), BuildingBlock: OJICUG_clean_linker_0, # of connection points: 2
#     Edge 88, Type (0, 0), BuildingBlock: OJICUG_clean_linker_0, # of connection points: 2
#     Edge 89, Type (0, 0), BuildingBlock: OJICUG_clean_linker_0, # of connection points: 2
#     Edge 90, Type (0, 0), BuildingBlock: OJICUG_clean_linker_0, # of connection points: 2
#     Edge 91, Type (0, 0), BuildingBlock: OJICUG_clean_linker_0, # of connection points: 2
#     Edge 92, Type (0, 0), BuildingBlock: OJICUG_clean_linker_0, # of connection points: 2
#     Edge 93, Type (0, 0), BuildingBlock: OJICUG_clean_linker_0, # of connection points: 2
#     Edge 94, Type (0, 0), BuildingBlock: OJICUG_clean_linker_0, # of connection points: 2
#     Edge 95, Type (0, 0), BuildingBlock: OJICUG_clean_linker_0, # of connection points: 2
#     Edge 96, Type (0, 0), BuildingBlock: OJICUG_clean_linker_0, # of connection points: 2
#     Edge 97, Type (0, 0), BuildingBlock: OJICUG_clean_linker_0, # of connection points: 2
#     Edge 98, Type (0, 0), BuildingBlock: OJICUG_clean_linker_0, # of connection points: 2
#     Edge 99, Type (0, 0), BuildingBlock: OJICUG_clean_linker_0, # of connection points: 2
#     Edge 100, Type (0, 0), BuildingBlock: OJICUG_clean_linker_0, # of connection points: 2
#     Edge 101, Type (0, 0), BuildingBlock: OJICUG_clean_linker_0, # of connection points: 2
#     Edge 102, Type (0, 0), BuildingBlock: OJICUG_clean_linker_0, # of connection points: 2
#     Edge 103, Type (0, 0), BuildingBlock: OJICUG_clean_linker_0, # of connection points: 2
#     Edge 104, Type (0, 0), BuildingBlock: OJICUG_clean_linker_0, # of connection points: 2
#     Edge 105, Type (0, 0), BuildingBlock: OJICUG_clean_linker_0, # of connection points: 2
#     Edge 106, Type (0, 0), BuildingBlock: OJICUG_clean_linker_0, # of connection points: 2
#     Edge 107, Type (0, 0), BuildingBlock: OJICUG_clean_linker_0, # of connection points: 2
#     Edge 108, Type (0, 0), BuildingBlock: OJICUG_clean_linker_0, # of connection points: 2
#     Edge 109, Type (0, 0), BuildingBlock: OJICUG_clean_linker_0, # of connection points: 2
#     Edge 110, Type (0, 0), BuildingBlock: OJICUG_clean_linker_0, # of connection points: 2
#     Edge 111, Type (0, 0), BuildingBlock: OJICUG_clean_linker_0, # of connection points: 2
#     Edge 112, Type (0, 0), BuildingBlock: OJICUG_clean_linker_0, # of connection points: 2
#     Edge 113, Type (0, 0), BuildingBlock: OJICUG_clean_linker_0, # of connection points: 2
#     Edge 114, Type (0, 0), BuildingBlock: OJICUG_clean_linker_0, # of connection points: 2
#     Edge 115, Type (0, 0), BuildingBlock: OJICUG_clean_linker_0, # of connection points: 2
#     Edge 116, Type (0, 0), BuildingBlock: OJICUG_clean_linker_0, # of connection points: 2
#     Edge 117, Type (0, 0), BuildingBlock: OJICUG_clean_linker_0, # of connection points: 2
#     Edge 118, Type (0, 0), BuildingBlock: OJICUG_clean_linker_0, # of connection points: 2
#     Edge 119, Type (0, 0), BuildingBlock: OJICUG_clean_linker_0, # of connection points: 2
#     Edge 120, Type (0, 0), BuildingBlock: OJICUG_clean_linker_0, # of connection points: 2
#     Edge 121, Type (0, 0), BuildingBlock: OJICUG_clean_linker_0, # of connection points: 2
#     Edge 122, Type (0, 0), BuildingBlock: OJICUG_clean_linker_0, # of connection points: 2
#     Edge 123, Type (0, 0), BuildingBlock: OJICUG_clean_linker_0, # of connection points: 2
#     Edge 124, Type (0, 0), BuildingBlock: OJICUG_clean_linker_0, # of connection points: 2
#     Edge 125, Type (0, 0), BuildingBlock: OJICUG_clean_linker_0, # of connection points: 2
#     Edge 126, Type (0, 0), BuildingBlock: OJICUG_clean_linker_0, # of connection points: 2
#     Edge 127, Type (0, 0), BuildingBlock: OJICUG_clean_linker_0, # of connection points: 2
#     Edge 128, Type (0, 0), BuildingBlock: OJICUG_clean_linker_0, # of connection points: 2
#     Edge 129, Type (0, 0), BuildingBlock: OJICUG_clean_linker_0, # of connection points: 2
#     Edge 130, Type (0, 0), BuildingBlock: OJICUG_clean_linker_0, # of connection points: 2
#     Edge 131, Type (0, 0), BuildingBlock: OJICUG_clean_linker_0, # of connection points: 2
#     Edge 132, Type (0, 0), BuildingBlock: OJICUG_clean_linker_0, # of connection points: 2
#     Edge 133, Type (0, 0), BuildingBlock: OJICUG_clean_linker_0, # of connection points: 2
#     Edge 134, Type (0, 0), BuildingBlock: OJICUG_clean_linker_0, # of connection points: 2
#     Edge 135, Type (0, 0), BuildingBlock: OJICUG_clean_linker_0, # of connection points: 2
#     Edge 136, Type (0, 0), BuildingBlock: OJICUG_clean_linker_0, # of connection points: 2
#     Edge 137, Type (0, 0), BuildingBlock: OJICUG_clean_linker_0, # of connection points: 2
#     Edge 138, Type (0, 0), BuildingBlock: OJICUG_clean_linker_0, # of connection points: 2
#     Edge 139, Type (0, 0), BuildingBlock: OJICUG_clean_linker_0, # of connection points: 2
#     Edge 140, Type (0, 0), BuildingBlock: OJICUG_clean_linker_0, # of connection points: 2
#     Edge 141, Type (0, 0), BuildingBlock: OJICUG_clean_linker_0, # of connection points: 2
#     Edge 142, Type (0, 0), BuildingBlock: OJICUG_clean_linker_0, # of connection points: 2
#     Edge 143, Type (0, 0), BuildingBlock: OJICUG_clean_linker_0, # of connection points: 2
# Relax obj value: 0.398
# Max RMSD: 0.188
# Mean RMSD: 0.188
data_MOF--net-ukr--node1-NAHDIM_clean_sbu_0--edge1-OJICUG_clean_linker_0
_symmetry_space_group_name_H-M    P1
_symmetry_Int_Tables_number       1
_symmetry_cell_setting            triclinic
loop_
_symmetry_equiv_pos_as_xyz
'x, y, z'
_cell_length_a     50.275243
_cell_length_b     50.130905
_cell_length_c     50.170834
_cell_angle_alpha  90.00903
_cell_angle_beta   90.053354
_cell_angle_gamma 90.006816
loop_
_atom_site_label
_atom_site_type_symbol
_atom_site_fract_x
_atom_site_fract_y
_atom_site_fract_z
_atom_type_partial_charge
C0 C 0.05014 0.3146 0.16262 0.0
O1 O 0.06098 0.3356 0.17392 0.0
O2 O 0.09847 0.24933 0.19361 0.0
Zn3 Zn 0.09838 0.28641 0.17834 0.0
O4 O 0.10648 0.31195 0.20799 0.0
C5 C 0.12721 0.26935 0.13312 0.0
O6 O 0.1068 0.25304 0.13171 0.0
O7 O 0.0629 0.29278 0.16193 0.0
C8 C 0.12046 0.33275 0.20458 0.0
O9 O 0.12847 0.33891 0.18043 0.0
C10 C 0.09564 0.24416 0.21825 0.0
O11 O 0.0915 0.26377 0.23511 0.0
O12 O 0.12741 0.28719 0.15109 0.0
C13 C 0.18292 0.55978 0.66575 0.0
O14 O 0.16772 0.57443 0.68121 0.0
O15 O 0.25096 0.59986 0.68897 0.0
Zn16 Zn 0.21747 0.60566 0.66782 0.0
O17 O 0.19235 0.62469 0.69245 0.0
C18 C 0.2499 0.63012 0.62803 0.0
O19 O 0.26609 0.6108 0.63509 0.0
O20 O 0.20411 0.56982 0.65631 0.0
C21 C 0.20122 0.64675 0.70121 0.0
O22 O 0.22439 0.6553 0.6926 0.0
C23 C 0.25056 0.59375 0.71356 0.0
O24 O 0.2276 0.58974 0.72537 0.0
O25 O 0.22653 0.63052 0.63768 0.0
C26 C 0.93855 0.69994 0.14506 0.0
O27 O 0.93021 0.67717 0.15496 0.0
O28 O 0.88348 0.7454 0.18875 0.0
Zn29 Zn 0.88622 0.71792 0.15994 0.0
O30 O 0.87907 0.68328 0.17867 0.0
C31 C 0.83454 0.73029 0.14509 0.0
O32 O 0.83229 0.72483 0.17061 0.0
O33 O 0.92266 0.7196 0.14404 0.0
C34 C 0.86174 0.66624 0.1717 0.0
O35 O 0.84898 0.66943 0.14906 0.0
C36 C 0.89084 0.7695 0.18632 0.0
O37 O 0.90306 0.77698 0.16442 0.0
O38 O 0.85712 0.7275 0.13403 0.0
C39 C 0.79276 0.4348 0.66107 0.0
O40 O 0.81395 0.41959 0.66301 0.0
O41 O 0.7295 0.38667 0.69961 0.0
Zn42 Zn 0.76478 0.38848 0.68123 0.0
O43 O 0.79253 0.37864 0.70829 0.0
C44 C 0.74185 0.36109 0.63793 0.0
O45 O 0.72532 0.38127 0.64016 0.0
O46 O 0.77015 0.42531 0.66714 0.0
C47 C 0.81235 0.36395 0.70281 0.0
O48 O 0.81591 0.35598 0.67812 0.0
C49 C 0.72425 0.39474 0.72303 0.0
O50 O 0.74284 0.40667 0.73708 0.0
O51 O 0.76262 0.36081 0.65237 0.0
C52 C 0.06831 0.68258 0.83341 0.0
O53 O 0.08304 0.66549 0.82016 0.0
O54 O 0.10933 0.75486 0.81195 0.0
Zn55 Zn 0.11341 0.71778 0.82678 0.0
O56 O 0.12799 0.6948 0.79742 0.0
C57 C 0.14205 0.74098 0.86978 0.0
O58 O 0.12299 0.75877 0.8675 0.0
O59 O 0.07791 0.70524 0.83942 0.0
C60 C 0.1493 0.70337 0.78685 0.0
O61 O 0.15993 0.7255 0.79603 0.0
C62 C 0.1029 0.75966 0.78792 0.0
O63 O 0.09712 0.7397 0.77196 0.0
O64 O 0.14086 0.71991 0.85575 0.0
C65 C 0.78204 0.54548 0.28386 0.0
O66 O 0.77937 0.55437 0.25937 0.0
O67 O 0.73036 0.59921 0.28249 0.0
Zn68 Zn 0.7691 0.59863 0.29225 0.0
O69 O 0.79015 0.60978 0.26021 0.0
C70 C 0.75685 0.62731 0.33966 0.0
O71 O 0.73818 0.60901 0.3409 0.0
O72 O 0.77895 0.56158 0.30315 0.0
C73 C 0.81537 0.60984 0.2593 0.0
O74 O 0.82903 0.60264 0.28044 0.0
C75 C 0.72202 0.60005 0.25859 0.0
O76 O 0.73921 0.59938 0.23891 0.0
O77 O 0.77412 0.62582 0.32125 0.0
C78 C 0.93573 0.28968 0.82927 0.0
O79 O 0.92332 0.31163 0.8222 0.0
O80 O 0.88644 0.22583 0.79525 0.0
Zn81 Zn 0.88756 0.26224 0.81206 0.0
O82 O 0.87886 0.28945 0.78396 0.0
C83 C 0.85748 0.24158 0.85491 0.0
O84 O 0.87612 0.22327 0.85334 0.0
O85 O 0.92384 0.26743 0.82731 0.0
C86 C 0.86568 0.31043 0.78908 0.0
O87 O 0.85887 0.31548 0.81385 0.0
C88 C 0.88533 0.22143 0.77033 0.0
O89 O 0.8859 0.24164 0.75367 0.0
O90 O 0.85914 0.26205 0.84008 0.0
C91 C 0.19193 0.44643 0.34043 0.0
O92 O 0.17185 0.42968 0.33958 0.0
O93 O 0.25566 0.39567 0.30398 0.0
Zn94 Zn 0.21977 0.40119 0.32033 0.0
O95 O 0.19297 0.39285 0.29195 0.0
C96 C 0.2396 0.37313 0.36404 0.0
O97 O 0.2571 0.39247 0.36179 0.0
O98 O 0.21492 0.4384 0.33368 0.0
C99 C 0.17249 0.37857 0.29583 0.0
O100 O 0.16758 0.36948 0.31989 0.0
C101 C 0.26227 0.39891 0.27977 0.0
O102 O 0.24548 0.41015 0.26312 0.0
O103 O 0.21882 0.37391 0.3496 0.0
C104 C 0.15993 0.06078 0.2864 0.0
O105 O 0.16192 0.06836 0.31139 0.0
O106 O 0.20035 0.12687 0.2455 0.0
Zn107 Zn 0.17644 0.11479 0.27502 0.0
O108 O 0.1988 0.11778 0.308 0.0
C109 C 0.13391 0.14199 0.25204 0.0
O110 O 0.1394 0.12415 0.23366 0.0
O111 O 0.16465 0.07746 0.26799 0.0
C112 C 0.19513 0.13585 0.32534 0.0
O113 O 0.17392 0.15105 0.32355 0.0
C114 C 0.20696 0.11409 0.22468 0.0
O115 O 0.19808 0.08972 0.22101 0.0
O116 O 0.14608 0.14071 0.2742 0.0
C117 C 0.43728 0.66125 0.79925 0.0
O118 O 0.42737 0.68488 0.80464 0.0
O119 O 0.39936 0.67541 0.73354 0.0
Zn120 Zn 0.38989 0.65794 0.76825 0.0
O121 O 0.37035 0.68571 0.78968 0.0
C122 C 0.34422 0.62237 0.77168 0.0
O123 O 0.34109 0.63272 0.79552 0.0
O124 O 0.42387 0.6452 0.78498 0.0
C125 C 0.3673 0.68749 0.81474 0.0
O126 O 0.37775 0.66933 0.83046 0.0
C127 C 0.40504 0.70004 0.73162 0.0
O128 O 0.40631 0.71463 0.75333 0.0
O129 O 0.36465 0.6286 0.75815 0.0
C130 C 0.81015 0.95002 0.27662 0.0
O131 O 0.78634 0.9416 0.28338 0.0
O132 O 0.79103 0.90093 0.21955 0.0
Zn133 Zn 0.81146 0.89851 0.25393 0.0
O134 O 0.78682 0.88458 0.28229 0.0
C135 C 0.83642 0.84793 0.24866 0.0
O136 O 0.81318 0.84023 0.2578 0.0
O137 O 0.82542 0.93451 0.26377 0.0
C138 C 0.79401 0.87564 0.30485 0.0
O139 O 0.8194 0.8753 0.31106 0.0
C140 C 0.76578 0.90149 0.2182 0.0
O141 O 0.75184 0.90239 0.24031 0.0
O142 O 0.84119 0.87272 0.24655 0.0
C143 C 0.54622 0.33772 0.8036 0.0
O144 O 0.55951 0.32905 0.82442 0.0
O145 O 0.58016 0.29067 0.73857 0.0
Zn146 Zn 0.58751 0.31216 0.77154 0.0
O147 O 0.59804 0.28612 0.80019 0.0
C148 C 0.62779 0.35652 0.77173 0.0
O149 O 0.61801 0.36572 0.79419 0.0
O150 O 0.55502 0.33312 0.78035 0.0
C151 C 0.61569 0.29016 0.81785 0.0
O152 O 0.62713 0.31365 0.81941 0.0
C153 C 0.57522 0.2658 0.73853 0.0
O154 O 0.57254 0.25321 0.76132 0.0
O155 O 0.61788 0.33579 0.76106 0.0
C156 C 0.18346 0.92987 0.68734 0.0
O157 O 0.19912 0.91504 0.67253 0.0
O158 O 0.20095 0.88741 0.75783 0.0
Zn159 Zn 0.18339 0.88373 0.7219 0.0
O160 O 0.2092 0.86511 0.69772 0.0
C161 C 0.13946 0.86031 0.74904 0.0
O162 O 0.14497 0.87947 0.76605 0.0
O163 O 0.17361 0.92009 0.70851 0.0
C164 C 0.21688 0.84216 0.70521 0.0
O165 O 0.20718 0.83214 0.72737 0.0
C166 C 0.22592 0.88953 0.76122 0.0
O167 O 0.24159 0.89087 0.74032 0.0
O168 O 0.15192 0.85957 0.72702 0.0
C169 C 0.53859 0.65805 0.20639 0.0
O170 O 0.55254 0.65961 0.18433 0.0
O171 O 0.58952 0.69893 0.26759 0.0
Zn172 Zn 0.58405 0.68398 0.23064 0.0
O173 O 0.58841 0.71362 0.20405 0.0
C174 C 0.61634 0.64024 0.24436 0.0
O175 O 0.59943 0.63993 0.26432 0.0
O176 O 0.54827 0.66702 0.228 0.0
C177 C 0.59799 0.70998 0.18093 0.0
O178 O 0.60393 0.68564 0.17325 0.0
C179 C 0.59389 0.72349 0.27216 0.0
O180 O 0.59291 0.74058 0.25234 0.0
O181 O 0.61288 0.65695 0.22566 0.0
C182 C 0.812 0.04208 0.68643 0.0
O183 O 0.7981 0.05399 0.66772 0.0
O184 O 0.78607 0.08969 0.75372 0.0
Zn185 Zn 0.80218 0.09033 0.71696 0.0
O186 O 0.77431 0.10261 0.69104 0.0
C187 C 0.84588 0.11884 0.73878 0.0
O188 O 0.84373 0.09992 0.75677 0.0
O189 O 0.8164 0.05415 0.70825 0.0
C190 C 0.76681 0.12659 0.69423 0.0
O191 O 0.77783 0.14087 0.71324 0.0
C192 C 0.76126 0.08927 0.75854 0.0
O193 O 0.74433 0.08755 0.73866 0.0
O194 O 0.83119 0.11783 0.71819 0.0
C195 C 0.44035 0.33019 0.18516 0.0
O196 O 0.42723 0.31885 0.16555 0.0
O197 O 0.39966 0.2966 0.25358 0.0
Zn198 Zn 0.39492 0.31508 0.21804 0.0
O199 O 0.38272 0.28823 0.1909 0.0
C200 C 0.34748 0.33468 0.23827 0.0
O201 O 0.34706 0.30953 0.24558 0.0
O202 O 0.42982 0.33144 0.20813 0.0
C203 C 0.36811 0.29445 0.17121 0.0
O204 O 0.36147 0.31954 0.16764 0.0
C205 C 0.39493 0.27198 0.25745 0.0
O206 O 0.38899 0.25673 0.237 0.0
O207 O 0.36658 0.34301 0.22395 0.0
C208 C 0.29463 0.1676 0.045 0.0
O209 O 0.3154 0.1696 0.06079 0.0
O210 O 0.23042 0.21126 0.08734 0.0
Zn211 Zn 0.2653 0.19167 0.08876 0.0
O212 O 0.29409 0.21757 0.09917 0.0
C213 C 0.25634 0.17388 0.14027 0.0
O214 O 0.25766 0.19989 0.14327 0.0
O215 O 0.27202 0.17528 0.05321 0.0
C216 C 0.31392 0.21124 0.11353 0.0
O217 O 0.31724 0.18619 0.12045 0.0
C218 C 0.22804 0.23603 0.0922 0.0
O219 O 0.24947 0.25039 0.09652 0.0
O220 O 0.26039 0.16406 0.11728 0.0
C221 C 0.32008 0.8225 0.94011 0.0
O222 O 0.33742 0.80759 0.92741 0.0
O223 O 0.25125 0.7993 0.89639 0.0
Zn224 Zn 0.28792 0.81487 0.89278 0.0
O225 O 0.31222 0.78561 0.88024 0.0
C226 C 0.26429 0.85736 0.86392 0.0
O227 O 0.24742 0.85561 0.88383 0.0
O228 O 0.29863 0.82911 0.92845 0.0
C229 C 0.30866 0.77728 0.8566 0.0
O230 O 0.29034 0.78868 0.84177 0.0
C231 C 0.2464 0.77475 0.90039 0.0
O232 O 0.26625 0.75797 0.90339 0.0
O233 O 0.28521 0.84315 0.86446 0.0
C234 C 0.68858 0.80162 0.44236 0.0
O235 O 0.70155 0.82068 0.42996 0.0
O236 O 0.71255 0.73515 0.39189 0.0
Zn237 Zn 0.69617 0.77185 0.39317 0.0
O238 O 0.72276 0.79882 0.37999 0.0
C239 C 0.64989 0.75031 0.36834 0.0
O240 O 0.65342 0.73214 0.38689 0.0
O241 O 0.68399 0.77978 0.43035 0.0
C242 C 0.71544 0.81843 0.36574 0.0
O243 O 0.68998 0.82183 0.3609 0.0
C244 C 0.73623 0.73052 0.38431 0.0
O245 O 0.75199 0.75065 0.37872 0.0
O246 O 0.66519 0.77049 0.36787 0.0
C247 C 0.68034 0.15885 0.93799 0.0
O248 O 0.66007 0.16884 0.92482 0.0
O249 O 0.7482 0.1878 0.89161 0.0
Zn250 Zn 0.71103 0.17288 0.89087 0.0
O251 O 0.68617 0.20276 0.88128 0.0
C252 C 0.73075 0.12927 0.86117 0.0
O253 O 0.74835 0.13004 0.88054 0.0
O254 O 0.703 0.15783 0.92688 0.0
C255 C 0.66486 0.19942 0.86811 0.0
O256 O 0.65769 0.17515 0.86129 0.0
C257 C 0.7536 0.21256 0.89194 0.0
O258 O 0.73414 0.23 0.89308 0.0
O259 O 0.71096 0.145 0.8621 0.0
C260 C 0.33443 0.19895 0.44092 0.0
O261 O 0.3259 0.1774 0.42871 0.0
O262 O 0.29954 0.26484 0.39458 0.0
Zn263 Zn 0.31485 0.22767 0.39427 0.0
O264 O 0.2846 0.2023 0.38798 0.0
C265 C 0.35816 0.24428 0.36193 0.0
O266 O 0.36029 0.26179 0.38131 0.0
O267 O 0.33237 0.22143 0.42944 0.0
C268 C 0.28686 0.17963 0.37694 0.0
O269 O 0.31059 0.17101 0.37018 0.0
C270 C 0.27489 0.26967 0.39758 0.0
O271 O 0.25831 0.24981 0.40148 0.0
O272 O 0.34064 0.22611 0.36374 0.0
C273 C 0.67745 0.82492 0.04625 0.0
O274 O 0.65369 0.82095 0.0564 0.0
O275 O 0.72682 0.79044 0.10901 0.0
Zn276 Zn 0.69598 0.81424 0.09998 0.0
O277 O 0.66368 0.79237 0.10856 0.0
C278 C 0.72117 0.85932 0.12215 0.0
O279 O 0.73742 0.85405 0.10234 0.0
O280 O 0.69768 0.82386 0.06137 0.0
C281 C 0.64812 0.79771 0.12775 0.0
O282 O 0.65134 0.82011 0.14096 0.0
C283 C 0.74756 0.78625 0.09516 0.0
O284 O 0.75017 0.79798 0.07189 0.0
O285 O 0.6998 0.84595 0.12412 0.0
C286 C 0.66894 0.19619 0.55877 0.0
O287 O 0.69178 0.19221 0.57086 0.0
O288 O 0.67572 0.25763 0.60428 0.0
Zn289 Zn 0.65752 0.22205 0.60785 0.0
O290 O 0.68209 0.19883 0.62928 0.0
C291 C 0.61509 0.21356 0.64638 0.0
O292 O 0.62547 0.18965 0.64896 0.0
O293 O 0.65031 0.20785 0.57128 0.0
C294 C 0.68419 0.17359 0.62944 0.0
O295 O 0.66855 0.15911 0.61423 0.0
C296 C 0.7009 0.26006 0.60393 0.0
O297 O 0.71579 0.23853 0.60435 0.0
O298 O 0.62436 0.22925 0.62882 0.0
C299 C 0.33517 0.80689 0.56255 0.0
O300 O 0.32157 0.82246 0.5786 0.0
O301 O 0.31837 0.73439 0.60305 0.0
Zn302 Zn 0.33462 0.77084 0.60739 0.0
O303 O 0.30747 0.7938 0.62563 0.0
C304 C 0.37924 0.7452 0.63078 0.0
O305 O 0.37549 0.72911 0.61044 0.0
O306 O 0.34404 0.78483 0.57129 0.0
C307 C 0.29796 0.78475 0.64727 0.0
O308 O 0.30667 0.76175 0.65633 0.0
C309 C 0.29411 0.73073 0.59693 0.0
O310 O 0.27896 0.75148 0.59186 0.0
O311 O 0.36568 0.76653 0.6321 0.0
C312 C 0.95537 0.6799 0.82408 0.0
O313 O 0.94336 0.66131 0.81009 0.0
O314 O 0.91102 0.7506 0.79877 0.0
Zn315 Zn 0.90916 0.71243 0.81106 0.0
O316 O 0.90025 0.69011 0.77906 0.0
C317 C 0.8759 0.72932 0.85372 0.0
O318 O 0.89463 0.7475 0.8557 0.0
O319 O 0.944 0.70227 0.8275 0.0
C320 C 0.8884 0.66783 0.78089 0.0
O321 O 0.88316 0.65808 0.80462 0.0
C322 C 0.91546 0.75714 0.7747 0.0
O323 O 0.92077 0.73846 0.75713 0.0
O324 O 0.87873 0.71059 0.8369 0.0
C325 C 0.7914 0.43212 0.29937 0.0
O326 O 0.79635 0.41678 0.27872 0.0
O327 O 0.75392 0.37012 0.29541 0.0
Zn328 Zn 0.78403 0.38147 0.31926 0.0
O329 O 0.81666 0.36861 0.30052 0.0
C330 C 0.7551 0.36642 0.36457 0.0
O331 O 0.73919 0.38444 0.35418 0.0
O332 O 0.78524 0.42127 0.3214 0.0
C333 C 0.82065 0.34387 0.29712 0.0
O334 O 0.80543 0.32662 0.3096 0.0
C335 C 0.73448 0.38407 0.28715 0.0
O336 O 0.73246 0.40915 0.29444 0.0
O337 O 0.77794 0.3631 0.35426 0.0
C338 C 0.04919 0.28391 0.82941 0.0
O339 O 0.06383 0.30482 0.82367 0.0
O340 O 0.09438 0.21831 0.79139 0.0
Zn341 Zn 0.09455 0.25398 0.80995 0.0
O342 O 0.1035 0.28241 0.78306 0.0
C343 C 0.14651 0.24752 0.82673 0.0
O344 O 0.14858 0.24872 0.80064 0.0
O345 O 0.05875 0.26068 0.82609 0.0
C346 C 0.11564 0.30381 0.78901 0.0
O347 O 0.12195 0.30843 0.81401 0.0
C348 C 0.09775 0.21554 0.76643 0.0
O349 O 0.09911 0.23685 0.75128 0.0
O350 O 0.12374 0.25081 0.83722 0.0
C351 C 0.17489 0.5596 0.34718 0.0
O352 O 0.15083 0.56969 0.34547 0.0
O353 O 0.22303 0.62189 0.30945 0.0
Zn354 Zn 0.19289 0.61322 0.33415 0.0
O355 O 0.16028 0.62273 0.31312 0.0
C356 C 0.22051 0.63789 0.37621 0.0
O357 O 0.23782 0.61961 0.36903 0.0
O358 O 0.19488 0.57468 0.34387 0.0
C359 C 0.16017 0.64722 0.30663 0.0
O360 O 0.17866 0.66288 0.31658 0.0
C361 C 0.24087 0.60641 0.3004 0.0
O362 O 0.24105 0.58118 0.30748 0.0
O363 O 0.1976 0.63766 0.36551 0.0
C364 C 0.93789 0.30161 0.15593 0.0
O365 O 0.92144 0.31984 0.16491 0.0
O366 O 0.89846 0.22592 0.17939 0.0
Zn367 Zn 0.89546 0.26438 0.16876 0.0
O368 O 0.8848 0.28351 0.20224 0.0
C369 C 0.86364 0.24881 0.12455 0.0
O370 O 0.88269 0.231 0.12236 0.0
O371 O 0.93045 0.2774 0.155 0.0
C372 C 0.87266 0.30568 0.20274 0.0
O373 O 0.8672 0.31794 0.18025 0.0
C374 C 0.90829 0.21961 0.20187 0.0
O375 O 0.91894 0.23834 0.21678 0.0
O376 O 0.86581 0.26694 0.14212 0.0
C377 C 0.17943 0.44633 0.67762 0.0
O378 O 0.16041 0.43452 0.69113 0.0
O379 O 0.24269 0.4002 0.71151 0.0
Zn380 Zn 0.20944 0.39809 0.6889 0.0
O381 O 0.18037 0.38447 0.71272 0.0
C382 C 0.23701 0.37245 0.64564 0.0
O383 O 0.25349 0.39253 0.649 0.0
O384 O 0.20131 0.43422 0.67391 0.0
C385 C 0.16404 0.36635 0.70604 0.0
O386 O 0.16424 0.3573 0.68147 0.0
C387 C 0.24152 0.40115 0.73684 0.0
O388 O 0.21819 0.40229 0.74854 0.0
O389 O 0.21614 0.37128 0.65985 0.0
C390 C 0.04952 0.72527 0.14426 0.0
O391 O 0.05745 0.74915 0.13699 0.0
O392 O 0.09524 0.76401 0.18311 0.0
Zn393 Zn 0.09942 0.72583 0.17135 0.0
O394 O 0.11254 0.70616 0.20351 0.0
C395 C 0.1311 0.74537 0.12837 0.0
O396 O 0.11319 0.76443 0.12907 0.0
O397 O 0.06478 0.71101 0.15852 0.0
C398 C 0.10383 0.68482 0.21399 0.0
O399 O 0.08425 0.67173 0.2026 0.0
C400 C 0.09086 0.77013 0.2073 0.0
O401 O 0.08619 0.75108 0.22466 0.0
O402 O 0.12828 0.72528 0.14357 0.0
C403 C 0.80152 0.54885 0.65594 0.0
O404 O 0.82483 0.56067 0.65668 0.0
O405 O 0.75266 0.60867 0.69787 0.0
Zn406 Zn 0.78271 0.60026 0.673 0.0
O407 O 0.81562 0.60696 0.69455 0.0
C408 C 0.75571 0.62659 0.63187 0.0
O409 O 0.73861 0.60774 0.63802 0.0
O410 O 0.78076 0.56223 0.66131 0.0
C411 C 0.83086 0.62682 0.69095 0.0
O412 O 0.82667 0.64264 0.6705 0.0
C413 C 0.73217 0.59493 0.70344 0.0
O414 O 0.72901 0.5713 0.69258 0.0
O415 O 0.77849 0.62626 0.64286 0.0
C416 C 0.82566 0.92859 0.68792 0.0
O417 O 0.8131 0.91347 0.67062 0.0
O418 O 0.81003 0.8808 0.75692 0.0
Zn419 Zn 0.82616 0.88075 0.7202 0.0
O420 O 0.79999 0.86315 0.69554 0.0
C421 C 0.87228 0.85793 0.74378 0.0
O422 O 0.86675 0.87583 0.76209 0.0
O423 O 0.83389 0.91841 0.7096 0.0
C424 C 0.79263 0.83985 0.70221 0.0
O425 O 0.80293 0.829 0.72372 0.0
C426 C 0.78521 0.88212 0.76146 0.0
O427 O 0.76864 0.88511 0.74141 0.0
O428 O 0.85879 0.85777 0.72235 0.0
C429 C 0.55345 0.33163 0.18688 0.0
O430 O 0.56712 0.31989 0.16792 0.0
O431 O 0.59229 0.29976 0.25743 0.0
Zn432 Zn 0.59746 0.31574 0.221 0.0
O433 O 0.60786 0.28668 0.19533 0.0
C434 C 0.64919 0.32986 0.23273 0.0
O435 O 0.64971 0.30365 0.23305 0.0
O436 O 0.56334 0.33326 0.21015 0.0
C437 C 0.62226 0.29106 0.17501 0.0
O438 O 0.62978 0.3156 0.16974 0.0
C439 C 0.59485 0.27511 0.26272 0.0
O440 O 0.5991 0.25818 0.24319 0.0
O441 O 0.62771 0.34149 0.22608 0.0
C442 C 0.18936 0.0438 0.68111 0.0
O443 O 0.20603 0.05544 0.66464 0.0
O444 O 0.20848 0.09234 0.74772 0.0
Zn445 Zn 0.19266 0.09347 0.71091 0.0
O446 O 0.22063 0.10811 0.68633 0.0
C447 C 0.14613 0.11789 0.73236 0.0
O448 O 0.14848 0.09805 0.74932 0.0
O449 O 0.18075 0.05666 0.70113 0.0
C450 C 0.21509 0.12421 0.66759 0.0
O451 O 0.19006 0.12994 0.66268 0.0
C452 C 0.23334 0.09088 0.75218 0.0
O453 O 0.24983 0.08873 0.732 0.0
O454 O 0.16211 0.11921 0.7128 0.0
C455 C 0.42585 0.64825 0.20866 0.0
O456 O 0.4119 0.65408 0.18729 0.0
O457 O 0.38254 0.68832 0.27274 0.0
Zn458 Zn 0.3806 0.66941 0.23745 0.0
O459 O 0.37348 0.69677 0.20901 0.0
C460 C 0.32811 0.65599 0.24529 0.0
O461 O 0.32767 0.68215 0.24367 0.0
O462 O 0.41554 0.65163 0.2315 0.0
C463 C 0.36025 0.69253 0.18787 0.0
O464 O 0.35108 0.66845 0.18307 0.0
C465 C 0.38227 0.71353 0.27537 0.0
O466 O 0.38223 0.72869 0.25402 0.0
O467 O 0.35001 0.64397 0.24133 0.0
C468 C 0.83478 0.06171 0.28456 0.0
O469 O 0.8577 0.07134 0.27651 0.0
O470 O 0.79106 0.12596 0.25267 0.0
Zn471 Zn 0.81597 0.11678 0.28257 0.0
O472 O 0.80098 0.13648 0.31375 0.0
C473 C 0.85918 0.12873 0.24836 0.0
O474 O 0.84572 0.11248 0.23285 0.0
O475 O 0.81547 0.07745 0.28876 0.0
C476 C 0.79858 0.16142 0.31001 0.0
O477 O 0.80873 0.17192 0.28827 0.0
C478 C 0.78162 0.11113 0.23444 0.0
O479 O 0.78805 0.08574 0.23367 0.0
O480 O 0.85158 0.13183 0.27232 0.0
C481 C 0.43462 0.35661 0.80681 0.0
O482 O 0.42063 0.35303 0.8286 0.0
O483 O 0.38114 0.3282 0.7422 0.0
Zn484 Zn 0.38603 0.34132 0.77943 0.0
O485 O 0.37866 0.3085 0.80117 0.0
C486 C 0.33494 0.36444 0.7904 0.0
O487 O 0.33085 0.34149 0.80232 0.0
O488 O 0.42345 0.35394 0.78424 0.0
C489 C 0.37427 0.30431 0.82572 0.0
O490 O 0.37396 0.3244 0.84253 0.0
C491 C 0.38984 0.30606 0.73349 0.0
O492 O 0.40613 0.29189 0.7483 0.0
O493 O 0.35817 0.37002 0.78215 0.0
C494 C 0.15958 0.94997 0.25752 0.0
O495 O 0.15983 0.94308 0.23226 0.0
O496 O 0.19686 0.89733 0.22886 0.0
Zn497 Zn 0.17845 0.89648 0.26456 0.0
O498 O 0.20468 0.88348 0.29172 0.0
C499 C 0.13499 0.87022 0.23952 0.0
O500 O 0.13978 0.88869 0.22159 0.0
O501 O 0.16606 0.93289 0.27503 0.0
C502 C 0.19834 0.87228 0.3135 0.0
O503 O 0.17308 0.86886 0.31927 0.0
C504 C 0.22193 0.89572 0.22603 0.0
O505 O 0.2372 0.89526 0.24729 0.0
O506 O 0.14827 0.87036 0.26111 0.0
C507 C 0.55032 0.6594 0.80154 0.0
O508 O 0.56365 0.67518 0.81761 0.0
O509 O 0.59087 0.6843 0.73152 0.0
Zn510 Zn 0.59585 0.66718 0.76747 0.0
O511 O 0.60968 0.69524 0.79271 0.0
C512 C 0.64636 0.65005 0.75542 0.0
O513 O 0.64822 0.6762 0.75542 0.0
O514 O 0.56088 0.65218 0.77968 0.0
C515 C 0.62411 0.68978 0.81277 0.0
O516 O 0.62933 0.66471 0.81834 0.0
C517 C 0.58963 0.70937 0.72791 0.0
O518 O 0.58942 0.72531 0.74869 0.0
O519 O 0.62419 0.63944 0.76145 0.0
C520 C 0.69556 0.81557 0.93363 0.0
O521 O 0.67592 0.81103 0.91695 0.0
O522 O 0.76505 0.77986 0.89214 0.0
Zn523 Zn 0.72866 0.79669 0.89031 0.0
O524 O 0.70204 0.76903 0.87883 0.0
C525 C 0.75173 0.84008 0.86229 0.0
O526 O 0.76898 0.83786 0.88186 0.0
O527 O 0.71934 0.81145 0.92615 0.0
C528 C 0.68282 0.77466 0.86338 0.0
O529 O 0.67954 0.79945 0.85554 0.0
C530 C 0.76975 0.75562 0.88636 0.0
O531 O 0.74984 0.73975 0.88033 0.0
O532 O 0.73118 0.82534 0.86244 0.0
C533 C 0.68397 0.16163 0.05147 0.0
O534 O 0.66473 0.17287 0.06516 0.0
O535 O 0.75345 0.19594 0.09019 0.0
Zn536 Zn 0.71766 0.17863 0.09545 0.0
O537 O 0.69133 0.20691 0.10616 0.0
C538 C 0.72938 0.16449 0.14731 0.0
O539 O 0.72937 0.1907 0.1479 0.0
O540 O 0.70727 0.16085 0.06127 0.0
C541 C 0.67174 0.20236 0.12146 0.0
O542 O 0.66717 0.17782 0.12944 0.0
C543 C 0.75779 0.22071 0.09351 0.0
O544 O 0.73776 0.23666 0.09884 0.0
O545 O 0.7233 0.15282 0.12565 0.0
C546 C 0.33735 0.20552 0.5541 0.0
O547 O 0.32992 0.1854 0.56911 0.0
O548 O 0.29875 0.27313 0.59436 0.0
Zn549 Zn 0.31825 0.23803 0.5979 0.0
O550 O 0.29218 0.20961 0.6088 0.0
C551 C 0.33382 0.25568 0.64699 0.0
O552 O 0.3078 0.25812 0.6471 0.0
O553 O 0.33517 0.22916 0.56297 0.0
C554 C 0.29829 0.19009 0.62373 0.0
O555 O 0.32293 0.18763 0.63212 0.0
C556 C 0.27375 0.27553 0.59731 0.0
O557 O 0.25909 0.25394 0.59939 0.0
O558 O 0.34495 0.24469 0.62709 0.0
C559 C 0.31519 0.81934 0.05371 0.0
O560 O 0.33277 0.80604 0.06781 0.0
O561 O 0.24278 0.79556 0.09486 0.0
Zn562 Zn 0.2801 0.80968 0.0987 0.0
O563 O 0.303 0.77958 0.11183 0.0
C564 C 0.25856 0.85434 0.12605 0.0
O565 O 0.24222 0.85347 0.10561 0.0
O566 O 0.29228 0.82371 0.06343 0.0
C567 C 0.32174 0.78296 0.12846 0.0
O568 O 0.32771 0.80726 0.13623 0.0
C569 C 0.23695 0.77089 0.09488 0.0
O570 O 0.25613 0.75312 0.09579 0.0
O571 O 0.27813 0.83831 0.12668 0.0
C572 C 0.67676 0.80087 0.55609 0.0
O573 O 0.69163 0.81674 0.57067 0.0
O574 O 0.6909 0.73187 0.60199 0.0
Zn575 Zn 0.67507 0.76867 0.60392 0.0
O576 O 0.7021 0.79229 0.62164 0.0
C577 C 0.6289 0.7454 0.62739 0.0
O578 O 0.633 0.72773 0.60848 0.0
O579 O 0.66655 0.78028 0.56671 0.0
C580 C 0.71057 0.78392 0.644 0.0
O581 O 0.70083 0.7616 0.65366 0.0
C582 C 0.71535 0.72767 0.59711 0.0
O583 O 0.73104 0.74799 0.59201 0.0
O584 O 0.6432 0.76629 0.62793 0.0
C585 C 0.30532 0.15743 0.93188 0.0
O586 O 0.32879 0.15822 0.9204 0.0
O587 O 0.25564 0.19597 0.86984 0.0
Zn588 Zn 0.28759 0.17442 0.88038 0.0
O589 O 0.31836 0.19937 0.87601 0.0
C590 C 0.26712 0.13004 0.85388 0.0
O591 O 0.24887 0.13427 0.87214 0.0
O592 O 0.28473 0.16268 0.9182 0.0
C593 C 0.32771 0.20335 0.85287 0.0
O594 O 0.31903 0.18867 0.83298 0.0
C595 C 0.23504 0.20155 0.88337 0.0
O596 O 0.23294 0.19285 0.90798 0.0
O597 O 0.28834 0.14379 0.85466 0.0
C598 C 0.31592 0.8104 0.45055 0.0
O599 O 0.30028 0.82838 0.43972 0.0
O600 O 0.28581 0.74203 0.40812 0.0
Zn601 Zn 0.30307 0.778 0.404 0.0
O602 O 0.27529 0.80393 0.39145 0.0
C603 C 0.34533 0.75309 0.37584 0.0
O604 O 0.34415 0.73705 0.39652 0.0
O605 O 0.31993 0.78848 0.43851 0.0
C606 C 0.2813 0.82248 0.37531 0.0
O607 O 0.30633 0.82582 0.36855 0.0
C608 C 0.26102 0.7385 0.41155 0.0
O609 O 0.24539 0.75934 0.41413 0.0
O610 O 0.3304 0.77352 0.37529 0.0
C611 C 0.67282 0.19729 0.44514 0.0
O612 O 0.69164 0.1846 0.43216 0.0
O613 O 0.68642 0.26876 0.40293 0.0
Zn614 Zn 0.67361 0.23094 0.39887 0.0
O615 O 0.70439 0.20978 0.38458 0.0
C616 C 0.62926 0.25014 0.3685 0.0
O617 O 0.6298 0.26917 0.38651 0.0
O618 O 0.66141 0.21707 0.43421 0.0
C619 C 0.71759 0.22019 0.36567 0.0
O620 O 0.71023 0.24355 0.35634 0.0
C621 C 0.70947 0.27393 0.41201 0.0
O622 O 0.72418 0.25433 0.42124 0.0
O623 O 0.64506 0.23053 0.37091 0.0
C624 C 0.98334 0.28861 0.14124 0.0
C625 C 0.96625 0.30795 0.15198 0.0
H626 H 0.02343 0.27586 0.13571 0.0
C627 C 0.9771 0.33177 0.16205 0.0
H628 H 0.97555 0.27025 0.13292 0.0
C629 C 0.00467 0.33498 0.16373 0.0
C630 C 0.02171 0.31443 0.15532 0.0
H631 H 0.96439 0.34714 0.17028 0.0
H632 H 0.01253 0.35273 0.17321 0.0
C633 C 0.0108 0.29184 0.14285 0.0
C634 C 0.19769 0.51442 0.65144 0.0
C635 C 0.17872 0.53063 0.6641 0.0
H636 H 0.21269 0.47496 0.64568 0.0
C637 C 0.1577 0.51848 0.67801 0.0
H638 H 0.214 0.52311 0.64033 0.0
C639 C 0.15691 0.49076 0.68101 0.0
C640 C 0.1772 0.47478 0.67026 0.0
H641 H 0.14263 0.5304 0.6878 0.0
H642 H 0.14126 0.48206 0.69302 0.0
C643 C 0.19699 0.48678 0.65457 0.0
C644 C 0.00307 0.73499 0.12946 0.0
C645 C 0.02173 0.71686 0.13974 0.0
H646 H 0.96198 0.74374 0.12285 0.0
C647 C 0.01304 0.69159 0.14817 0.0
H648 H 0.00916 0.75454 0.12257 0.0
C649 C 0.98597 0.68533 0.14819 0.0
C650 C 0.96713 0.70431 0.13994 0.0
H651 H 0.02699 0.67706 0.15592 0.0
H652 H 0.97979 0.6662 0.15606 0.0
C653 C 0.97601 0.72881 0.12963 0.0
C654 C 0.77237 0.47958 0.65377 0.0
C655 C 0.79529 0.46362 0.65546 0.0
H656 H 0.75639 0.519 0.65229 0.0
C657 C 0.8204 0.47583 0.65406 0.0
H658 H 0.7527 0.47078 0.65448 0.0
C659 C 0.82253 0.50362 0.65277 0.0
C660 C 0.79956 0.51961 0.65287 0.0
H661 H 0.83843 0.46405 0.65514 0.0
H662 H 0.84214 0.51255 0.6529 0.0
C663 C 0.77449 0.50726 0.6525 0.0
C664 C -0.00087 0.6563 0.82075 0.0
C665 C 0.98363 0.67698 0.83153 0.0
H666 H 0.03838 0.64167 0.8131 0.0
C667 C -0.0039 0.69682 0.84686 0.0
H668 H 0.99006 0.64058 0.80904 0.0
C669 C 0.02371 0.69741 0.84925 0.0
C670 C 0.03941 0.6782 0.83628 0.0
H671 H 0.98466 0.71279 0.85582 0.0
H672 H 0.03277 0.71384 0.85994 0.0
C673 C 0.02683 0.65691 0.82309 0.0
C674 C 0.79289 0.50004 0.26714 0.0
C675 C 0.78661 0.51683 0.28861 0.0
H676 H 0.79955 0.46021 0.25378 0.0
C677 C 0.78344 0.50576 0.31414 0.0
H678 H 0.79565 0.508 0.24726 0.0
C679 C 0.78553 0.4782 0.31789 0.0
C680 C 0.79102 0.46136 0.29619 0.0
H681 H 0.7786 0.51825 0.33108 0.0
H682 H 0.78237 0.47009 0.33764 0.0
C683 C 0.79515 0.47261 0.2709 0.0
C684 C 0.00765 0.31145 0.83034 0.0
C685 C 0.02052 0.28697 0.83489 0.0
H686 H 0.97046 0.33164 0.82513 0.0
C687 C 0.00521 0.26455 0.84167 0.0
H688 H 0.01893 0.32914 0.82525 0.0
C689 C 0.97754 0.266 0.84168 0.0
C690 C 0.96459 0.28987 0.8348 0.0
H691 H 0.01455 0.24549 0.84569 0.0
H692 H 0.96633 0.24799 0.8457 0.0
C693 C 0.97988 0.31289 0.83026 0.0
C694 C 0.20909 0.4926 0.3475 0.0
C695 C 0.18742 0.47501 0.34594 0.0
H696 H 0.22212 0.53305 0.34948 0.0
C697 C 0.16146 0.48531 0.34764 0.0
H698 H 0.22934 0.48527 0.34652 0.0
C699 C 0.15728 0.51284 0.34927 0.0
C700 C 0.17899 0.53049 0.34931 0.0
H701 H 0.14434 0.47223 0.34663 0.0
H702 H 0.13706 0.52029 0.34948 0.0
C703 C 0.20493 0.52002 0.34922 0.0
C704 C 0.15662 0.98572 0.29221 0.0
C705 C 0.15557 0.9781 0.26525 0.0
H706 H 0.15856 0.01795 0.32013 0.0
C707 C 0.15295 -0.00212 0.24563 0.0
H708 H 0.15842 0.97092 0.30784 0.0
C709 C 0.1531 0.02479 0.25267 0.0
C710 C 0.15577 0.03246 0.2795 0.0
H711 H 0.15189 0.99266 0.2247 0.0
H712 H 0.15209 0.03959 0.23696 0.0
C713 C 0.15666 0.01267 0.29928 0.0
C714 C 0.50742 0.67169 0.82325 0.0
C715 C 0.52158 0.65513 0.80568 0.0
H716 H 0.4693 0.68653 0.83502 0.0
C717 C 0.50748 0.63718 0.78945 0.0
H718 H 0.51771 0.68561 0.83616 0.0
C719 C 0.47971 0.63749 0.78906 0.0
C720 C 0.46564 0.65603 0.80461 0.0
H721 H 0.51789 0.62395 0.77593 0.0
H722 H 0.46942 0.62459 0.77512 0.0
C723 C 0.47967 0.67228 0.82257 0.0
C724 C 0.84882 0.01476 0.275 0.0
C725 C 0.83015 0.03266 0.28563 0.0
H726 H 0.85716 0.97442 0.26381 0.0
C727 C 0.80592 0.02274 0.29545 0.0
H728 H 0.8677 0.02179 0.26735 0.0
C729 C 0.7999 0.99568 0.29346 0.0
C730 C 0.81794 0.97797 0.28154 0.0
H731 H 0.7912 0.036 0.30398 0.0
H732 H 0.78072 0.98884 0.30051 0.0
C733 C 0.84275 0.98763 0.27292 0.0
C734 C 0.50571 0.35844 0.78393 0.0
C735 C 0.51903 0.34844 0.80645 0.0
H736 H 0.46849 0.36931 0.76655 0.0
C737 C 0.50501 0.34577 0.83052 0.0
H738 H 0.51606 0.3612 0.7652 0.0
C739 C 0.47761 0.35054 0.83131 0.0
C740 C 0.46391 0.35799 0.80802 0.0
H741 H 0.5148 0.33833 0.84826 0.0
H742 H 0.46696 0.3466 0.84964 0.0
C743 C 0.47843 0.36313 0.7847 0.0
C744 C 0.19811 -0.00107 0.66093 0.0
C745 C 0.18407 0.01487 0.67917 0.0
H746 H 0.20874 0.95934 0.64903 0.0
C747 C 0.16693 0.00252 0.69753 0.0
H748 H 0.21131 0.00784 0.64639 0.0
C749 C 0.16546 0.97479 0.69904 0.0
C750 C 0.1811 0.9588 0.68222 0.0
H751 H 0.15555 0.01424 0.71163 0.0
H752 H 0.15302 0.96593 0.71427 0.0
C753 C 0.19663 0.97112 0.66244 0.0
C754 C 0.46822 0.6476 0.18244 0.0
C755 C 0.45487 0.6442 0.20682 0.0
H756 H 0.50558 0.65449 0.16312 0.0
C757 C 0.46986 0.64089 0.23024 0.0
H758 H 0.45723 0.65 0.16402 0.0
C759 C 0.49741 0.6437 0.22974 0.0
C760 C 0.51054 0.64959 0.20579 0.0
H761 H 0.46023 0.63782 0.2493 0.0
H762 H 0.50827 0.64259 0.24838 0.0
C763 C 0.49591 0.6502 0.18192 0.0
C764 C 0.8349 0.0015 0.70379 0.0
C765 C 0.81931 0.01365 0.68396 0.0
H766 H 0.84949 0.96511 0.72034 0.0
C767 C 0.80883 -0.00214 0.66333 0.0
H768 H 0.84357 0.01316 0.71977 0.0
C769 C 0.81222 0.97017 0.66366 0.0
C770 C 0.82618 0.95787 0.68461 0.0
H771 H 0.79689 0.00668 0.64766 0.0
H772 H 0.80279 0.95836 0.64824 0.0
C773 C 0.83832 0.97392 0.7041 0.0
C774 C 0.51122 0.32763 0.1607 0.0
C775 C 0.52487 0.33734 0.18316 0.0
H776 H 0.47342 0.31793 0.14355 0.0
C777 C 0.51029 0.34914 0.20392 0.0
H778 H 0.52192 0.31864 0.14426 0.0
C779 C 0.48258 0.34872 0.20351 0.0
C780 C 0.4689 0.3365 0.18235 0.0
H781 H 0.52023 0.35723 0.2213 0.0
H782 H 0.47194 0.35652 0.22059 0.0
C783 C 0.48341 0.32721 0.16029 0.0
C784 C 0.27517 0.15717 0.00053 0.0
C785 C 0.29778 0.16014 0.01673 0.0
H786 H 0.25985 0.15358 0.96101 0.0
C787 C 0.32312 0.15845 0.00507 0.0
H788 H 0.25535 0.15797 0.00895 0.0
C789 C 0.32572 0.1559 0.97744 0.0
C790 C 0.30301 0.15499 0.9611 0.0
H791 H 0.34093 0.16047 0.01708 0.0
H792 H 0.34547 0.15604 0.96883 0.0
C793 C 0.27775 0.15462 0.97302 0.0
C794 C 0.30131 0.83991 0.01063 0.0
C795 C 0.31996 0.825 0.02522 0.0
H796 H 0.28704 0.85128 0.97219 0.0
C797 C 0.3413 0.81301 0.01169 0.0
H798 H 0.28486 0.84975 0.02052 0.0
C799 C 0.34254 0.81384 0.98386 0.0
C800 C 0.32248 0.82673 0.96917 0.0
H801 H 0.35613 0.80157 0.02241 0.0
H802 H 0.35829 0.80301 0.97387 0.0
C803 C 0.30258 0.84081 0.98289 0.0
C804 C 0.66325 0.78456 0.51104 0.0
C805 C 0.67595 0.80394 0.5268 0.0
H806 H 0.65722 0.76872 0.47197 0.0
C807 C 0.69022 0.82448 0.51419 0.0
H808 H 0.6519 0.76859 0.52008 0.0
C809 C 0.6932 0.82459 0.48648 0.0
C810 C 0.68208 0.80408 0.47096 0.0
H811 H 0.70009 0.83981 0.52577 0.0
H812 H 0.70528 0.84001 0.47741 0.0
C813 C 0.66636 0.78459 0.48343 0.0
C814 C 0.65719 0.16338 0.00938 0.0
C815 C 0.68021 0.15511 0.023 0.0
H816 H 0.63903 0.17084 0.9715 0.0
C817 C 0.70121 0.14378 0.00844 0.0
H818 H 0.64057 0.17198 0.02007 0.0
C819 C 0.70033 0.14314 0.98068 0.0
C820 C 0.67843 0.1538 0.96693 0.0
H821 H 0.71905 0.13681 0.01837 0.0
H822 H 0.71751 0.13568 0.97 0.0
C823 C 0.65631 0.16273 0.98153 0.0
C824 C 0.33623 0.17734 0.51292 0.0
C825 C 0.34282 0.20152 0.52548 0.0
H826 H 0.32857 0.15741 0.47594 0.0
C827 C 0.35124 0.22315 0.50983 0.0
H828 H 0.32988 0.16023 0.52447 0.0
C829 C 0.35051 0.22152 0.48212 0.0
C830 C 0.34133 0.19825 0.46951 0.0
H831 H 0.35689 0.24191 0.51894 0.0
H832 H 0.35565 0.23908 0.47064 0.0
C833 C 0.33547 0.17571 0.4851 0.0
C834 C 0.65978 0.82301 -0.00047 0.0
C835 C 0.68125 0.82669 0.01711 0.0
H836 H 0.64742 0.81677 0.95914 0.0
C837 C 0.70698 0.8297 0.0066 0.0
H838 H 0.6397 0.82077 0.00701 0.0
C839 C 0.71139 0.82736 0.97928 0.0
C840 C 0.69017 0.82202 0.96184 0.0
H841 H 0.72394 0.83283 0.01956 0.0
H842 H 0.73161 0.82879 0.97197 0.0
C843 C 0.6642 0.82072 0.97211 0.0
C844 C 0.64647 0.20417 0.51509 0.0
C845 C 0.66675 0.1917 0.52981 0.0
H846 H 0.63245 0.21563 0.47649 0.0
C847 C 0.68668 0.17757 0.51623 0.0
H848 H 0.63072 0.21507 0.52499 0.0
C849 C 0.68753 0.17767 0.48843 0.0
C850 C 0.66862 0.19219 0.47378 0.0
H851 H 0.70239 0.1675 0.52708 0.0
H852 H 0.70395 0.16779 0.47856 0.0
C853 C 0.64749 0.20454 0.4873 0.0
C854 C 0.31442 0.83293 0.49508 0.0
C855 C 0.32531 0.81336 0.47828 0.0
H856 H 0.30926 0.84645 0.53522 0.0
C857 C 0.34307 0.79458 0.48901 0.0
H858 H 0.30085 0.84782 0.48734 0.0
C859 C 0.34795 0.79383 0.51634 0.0
C860 C 0.33509 0.8118 0.53352 0.0
H861 H 0.35216 0.77951 0.47649 0.0
H862 H 0.36059 0.77816 0.52413 0.0
C863 C 0.31926 0.83215 0.52252 0.0
C864 C 0.1625 0.37866 0.24697 0.0
C865 C 0.15641 0.36966 0.27281 0.0
H866 H 0.15569 0.37426 0.20511 0.0
C867 C 0.13627 0.35054 0.2761 0.0
H868 H 0.17777 0.39355 0.24376 0.0
C869 C 0.12361 0.33947 0.25391 0.0
C870 C 0.13082 0.34734 0.22799 0.0
H871 H 0.13099 0.34332 0.29574 0.0
H872 H 0.1089 0.32401 0.25708 0.0
C873 C 0.1498 0.36763 0.22479 0.0
C874 C 0.18512 0.6993 0.7527 0.0
C875 C 0.16191 0.68905 0.76443 0.0
H876 H 0.21553 0.69412 0.72349 0.0
C877 C 0.1511 0.66514 0.75457 0.0
H878 H 0.1939 0.71774 0.75972 0.0
C879 C 0.16353 0.65155 0.73365 0.0
C880 C 0.18699 0.66164 0.72223 0.0
H881 H 0.13317 0.65679 0.76314 0.0
H882 H 0.15497 0.63298 0.72668 0.0
C883 C 0.19751 0.68576 0.73185 0.0
C884 C 0.81463 0.6235 0.21143 0.0
C885 C 0.82888 0.62022 0.23534 0.0
H886 H 0.81415 0.64008 0.17217 0.0
C887 C 0.85542 0.6288 0.23661 0.0
H888 H 0.79423 0.61674 0.20974 0.0
C889 C 0.8668 0.64231 0.2151 0.0
C890 C 0.85193 0.64717 0.19184 0.0
H891 H 0.86695 0.62638 0.2547 0.0
H892 H 0.88683 0.65 0.21715 0.0
C893 C 0.82611 0.63669 0.18981 0.0
C894 C 0.86096 0.3203 0.74037 0.0
C895 C 0.85504 0.32681 0.76698 0.0
H896 H 0.8523 0.32712 0.69917 0.0
C897 C 0.8371 0.34765 0.77215 0.0
H898 H 0.87485 0.30447 0.73569 0.0
C899 C 0.82414 0.36061 0.75119 0.0
C900 C 0.8289 0.35303 0.72463 0.0
H901 H 0.83222 0.35327 0.79241 0.0
H902 H 0.80966 0.3759 0.7559 0.0
C903 C 0.84804 0.33331 0.7194 0.0
C904 C 0.2374 0.17663 0.37226 0.0
C905 C 0.26267 0.16533 0.36812 0.0
H906 H 0.19605 0.17593 0.36224 0.0
C907 C 0.26468 0.14172 0.35319 0.0
H908 H 0.23508 0.19465 0.38395 0.0
C909 C 0.24221 0.13089 0.34085 0.0
C910 C 0.21733 0.14354 0.34312 0.0
H911 H 0.2838 0.13234 0.34989 0.0
H912 H 0.2447 0.11349 0.3283 0.0
C913 C 0.21496 0.16587 0.35985 0.0
C914 C 0.32321 0.74843 0.81882 0.0
C915 C 0.32406 0.75449 0.84612 0.0
H916 H 0.33622 0.72266 0.78757 0.0
C917 C 0.33923 0.73826 0.86322 0.0
H918 H 0.31172 0.76055 0.80513 0.0
C919 C 0.35311 0.71626 0.85316 0.0
C920 C 0.35233 0.71032 0.8258 0.0
H921 H 0.34015 0.74237 0.88439 0.0
H922 H 0.36461 0.70406 0.86677 0.0
C923 C 0.33729 0.7267 0.80876 0.0
C924 C 0.72769 0.85323 0.33228 0.0
C925 C 0.73548 0.83533 0.35235 0.0
H926 H 0.74011 0.88002 0.30157 0.0
C927 C 0.76271 0.83245 0.35817 0.0
H928 H 0.70689 0.85598 0.32736 0.0
C929 C 0.78179 0.84641 0.34347 0.0
C930 C 0.77401 0.86329 0.32253 0.0
H931 H 0.76933 0.8189 0.37362 0.0
H932 H 0.80264 0.84321 0.34788 0.0
C933 C 0.74675 0.86696 0.31745 0.0
C934 C 0.62768 0.21956 0.84166 0.0
C935 C 0.65006 0.22287 0.85809 0.0
H936 H 0.59904 0.23825 0.81629 0.0
C937 C 0.65933 0.24883 0.86333 0.0
H938 H 0.61993 0.19985 0.83737 0.0
C939 C 0.64737 0.27088 0.85122 0.0
C940 C 0.62588 0.26743 0.83366 0.0
H941 H 0.67644 0.25211 0.87605 0.0
H942 H 0.6556 0.29051 0.85491 0.0
C943 C 0.61569 0.24161 0.82959 0.0
C944 C 0.26608 0.78874 0.68522 0.0
C945 C 0.2771 0.79949 0.66185 0.0
H946 H 0.23839 0.7937 0.71713 0.0
C947 C 0.26789 0.82429 0.65258 0.0
H948 H 0.27267 0.76964 0.69286 0.0
C949 C 0.24817 0.83812 0.66653 0.0
C950 C 0.23726 0.82739 0.68998 0.0
H951 H 0.27596 0.83308 0.6346 0.0
H952 H 0.24158 0.85725 0.65898 0.0
C953 C 0.24637 0.80253 0.69912 0.0
C954 C 0.61636 0.78062 0.16213 0.0
C955 C 0.6307 0.77649 0.13848 0.0
H956 H 0.59447 0.76283 0.19402 0.0
C957 C 0.6309 0.75087 0.12702 0.0
H958 H 0.61562 0.80014 0.17136 0.0
C959 C 0.61889 0.72943 0.14008 0.0
C960 C 0.60634 0.73319 0.16478 0.0
H961 H 0.64156 0.74704 0.10866 0.0
H962 H 0.62056 0.70971 0.1314 0.0
C963 C 0.60426 0.75919 0.17514 0.0
C964 C 0.73107 0.12244 0.65946 0.0
C965 C 0.74559 0.13823 0.67751 0.0
H966 H 0.7 0.12117 0.63016 0.0
C967 C 0.7395 0.16545 0.67978 0.0
H968 H 0.73527 0.10135 0.65735 0.0
C969 C 0.71947 0.17674 0.66426 0.0
C970 C 0.70491 0.16106 0.64618 0.0
H971 H 0.75029 0.17817 0.6935 0.0
H972 H 0.71543 0.19785 0.66649 0.0
C973 C 0.71082 0.13375 0.64398 0.0
C974 C 0.32534 0.25944 0.1199 0.0
C975 C 0.33042 0.23245 0.12566 0.0
H976 H 0.33335 0.3002 0.12968 0.0
C977 C 0.34979 0.22611 0.14483 0.0
H978 H 0.31062 0.26502 0.10514 0.0
C979 C 0.36279 0.24631 0.15893 0.0
C980 C 0.35671 0.27327 0.15413 0.0
H981 H 0.35425 0.20554 0.14966 0.0
H982 H 0.37699 0.24073 0.17419 0.0
C983 C 0.33836 0.27964 0.13399 0.0
C984 C 0.85012 0.62055 0.73652 0.0
C985 C 0.8495 0.63477 0.71235 0.0
H986 H 0.86298 0.61983 0.77717 0.0
C987 C 0.86457 0.65824 0.71004 0.0
H988 H 0.83888 0.60227 0.73892 0.0
C989 C 0.87849 0.66824 0.73199 0.0
C990 C 0.87748 0.65503 0.7567 0.0
H991 H 0.86468 0.66956 0.69165 0.0
H992 H 0.88897 0.687 0.72987 0.0
C993 C 0.8639 0.63063 0.7585 0.0
C994 C 0.85569 0.34319 0.23068 0.0
C995 C 0.86255 0.31619 0.22824 0.0
H996 H 0.83776 0.37333 0.25483 0.0
C997 C 0.85815 0.29892 0.24988 0.0
H998 H 0.85907 0.35696 0.21439 0.0
C999 C 0.84558 0.30817 0.27292 0.0
C1000 C 0.83773 0.33495 0.27494 0.0
H1001 H 0.86329 0.27797 0.24855 0.0
H1002 H 0.84128 0.29418 0.28881 0.0
C1003 C 0.84366 0.35256 0.25393 0.0
C1004 C 0.13938 0.34498 0.77392 0.0
C1005 C 0.12497 0.32182 0.76765 0.0
H1006 H 0.16271 0.37748 0.75934 0.0
C1007 C 0.1211 0.31508 0.7407 0.0
H1008 H 0.14254 0.35085 0.79446 0.0
C1009 C 0.1327 0.33035 0.72052 0.0
C1010 C 0.14834 0.35267 0.72687 0.0
H1011 H 0.10994 0.29745 0.73518 0.0
H1012 H 0.13022 0.32403 0.70002 0.0
C1013 C 0.15091 0.36028 0.75375 0.0
C1014 C 0.14517 0.68383 0.27673 0.0
C1015 C 0.14284 0.65718 0.28501 0.0
H1016 H 0.13477 0.7133 0.24792 0.0
C1017 C 0.12585 0.63996 0.27082 0.0
H1018 H 0.15792 0.6977 0.28728 0.0
C1019 C 0.11239 0.64902 0.24807 0.0
C1020 C 0.11593 0.67534 0.23911 0.0
H1021 H 0.12363 0.61931 0.27674 0.0
H1022 H 0.1 0.63521 0.23705 0.0
C1023 C 0.13198 0.69276 0.25403 0.0
C1024 C 0.76126 0.8365 0.66341 0.0
C1025 C 0.77191 0.82558 0.68692 0.0
H1026 H 0.73349 0.83189 0.63131 0.0
C1027 C 0.76223 0.80095 0.69608 0.0
H1028 H 0.7683 0.85547 0.65585 0.0
C1029 C 0.74226 0.78756 0.68215 0.0
C1030 C 0.73157 0.79843 0.65866 0.0
H1031 H 0.76995 0.792 0.71415 0.0
H1032 H 0.73527 0.76863 0.68982 0.0
C1033 C 0.74131 0.82301 0.64937 0.0
C1034 C 0.62555 0.24208 0.16577 0.0
C1035 C 0.63255 0.26843 0.15918 0.0
H1036 H 0.63226 0.20051 0.15884 0.0
C1037 C 0.65077 0.27282 0.13843 0.0
H1038 H 0.61145 0.23802 0.18157 0.0
C1039 C 0.66269 0.2513 0.12541 0.0
C1040 C 0.65662 0.22494 0.13284 0.0
H1041 H 0.65648 0.29286 0.13277 0.0
H1042 H 0.67728 0.25537 0.11007 0.0
C1043 C 0.63745 0.22056 0.15271 0.0
C1044 C 0.28354 0.15079 0.65078 0.0
C1045 C 0.2774 0.17147 0.63292 0.0
H1046 H 0.2687 0.11944 0.67556 0.0
C1047 C 0.25083 0.17499 0.62486 0.0
H1048 H 0.30382 0.14744 0.65726 0.0
C1049 C 0.23068 0.15891 0.63531 0.0
C1050 C 0.23667 0.13897 0.65404 0.0
H1051 H 0.24543 0.19064 0.61099 0.0
H1052 H 0.21033 0.16266 0.62928 0.0
C1053 C 0.26339 0.1347 0.66123 0.0
C1054 C 0.32616 0.73356 0.13455 0.0
C1055 C 0.33421 0.75957 0.14137 0.0
H1056 H 0.32819 0.69193 0.14378 0.0
C1057 C 0.35273 0.76303 0.16204 0.0
H1058 H 0.312 0.73019 0.11861 0.0
C1059 C 0.36199 0.74109 0.17647 0.0
C1060 C 0.35292 0.71521 0.17052 0.0
H1061 H 0.35944 0.78276 0.16771 0.0
H1062 H 0.37563 0.74455 0.19283 0.0
C1063 C 0.33544 0.71161 0.14897 0.0
C1064 C 0.75546 0.21828 0.33361 0.0
C1065 C 0.74024 0.20593 0.35356 0.0
H1066 H 0.78618 0.21404 0.30455 0.0
C1067 C 0.74629 0.1796 0.36103 0.0
H1068 H 0.75152 0.23866 0.32763 0.0
C1069 C 0.76625 0.16544 0.34779 0.0
C1070 C 0.78055 0.1774 0.32689 0.0
H1071 H 0.73505 0.16962 0.3765 0.0
H1072 H 0.76978 0.14485 0.35327 0.0
C1073 C 0.77543 0.20418 0.32045 0.0
C1074 C 0.35406 0.23186 0.82189 0.0
C1075 C 0.34384 0.2274 0.8475 0.0
H1076 H 0.37197 0.2595 0.79505 0.0
C1077 C 0.34655 0.24748 0.86694 0.0
H1078 H 0.3525 0.21673 0.80655 0.0
C1079 C 0.35757 0.27222 0.86029 0.0
C1080 C 0.3662 0.27723 0.83416 0.0
H1081 H 0.33893 0.24461 0.88692 0.0
H1082 H 0.3583 0.28772 0.87532 0.0
C1083 C 0.36518 0.25646 0.8153 0.0
C1084 C 0.23317 0.83326 0.36794 0.0
C1085 C 0.26007 0.83762 0.36161 0.0
H1086 H 0.19249 0.8409 0.35777 0.0
C1087 C 0.26641 0.85503 0.34064 0.0
H1088 H 0.22762 0.82001 0.38406 0.0
C1089 C 0.24631 0.86686 0.32552 0.0
C1090 C 0.21941 0.86165 0.33112 0.0
H1091 H 0.28693 0.85889 0.33529 0.0
H1092 H 0.25191 0.87962 0.30903 0.0
C1093 C 0.21302 0.84521 0.35287 0.0
C1094 C 0.65598 0.70585 0.84765 0.0
C1095 C 0.6371 0.71156 0.82779 0.0
H1096 H 0.68519 0.72131 0.87456 0.0
C1097 C 0.63199 0.73834 0.82121 0.0
H1098 H 0.66033 0.68544 0.85324 0.0
C1099 C 0.64621 0.75891 0.83344 0.0
C1100 C 0.66589 0.75314 0.85247 0.0
H1101 H 0.61747 0.74344 0.80608 0.0
H1102 H 0.64227 0.77927 0.8274 0.0
C1103 C 0.67025 0.72643 0.85985 0.0
C1104 C 0.10226 0.19551 0.20986 0.0
C1105 C 0.10065 0.2168 0.22799 0.0
H1106 H 0.1134 0.15492 0.20342 0.0
C1107 C 0.10633 0.21209 0.25502 0.0
H1108 H 0.09767 0.19843 0.18896 0.0
C1109 C 0.11553 0.1871 0.26333 0.0
C1110 C 0.11898 0.16636 0.24478 0.0
H1111 H 0.10511 0.22806 0.26951 0.0
H1112 H 0.12119 0.18448 0.284 0.0
C1113 C 0.11119 0.17052 0.2182 0.0
C1114 C 0.32293 0.60379 0.73064 0.0
C1115 C 0.32158 0.60923 0.75811 0.0
H1116 H 0.30146 0.59458 0.695 0.0
C1117 C 0.29727 0.60552 0.77143 0.0
H1118 H 0.34138 0.60621 0.71976 0.0
C1119 C 0.27434 0.59865 0.75717 0.0
C1120 C 0.27532 0.59558 0.72934 0.0
H1121 H 0.29559 0.60936 0.7926 0.0
H1122 H 0.25561 0.59736 0.76774 0.0
C1123 C 0.30002 0.59719 0.71639 0.0
C1124 C 0.85041 0.80084 0.24131 0.0
C1125 C 0.85441 0.82811 0.23649 0.0
H1126 H 0.85921 0.76089 0.22961 0.0
C1127 C 0.87347 0.83593 0.21754 0.0
H1128 H 0.83607 0.79421 0.256 0.0
C1129 C 0.88664 0.81677 0.20215 0.0
C1130 C 0.88113 0.78952 0.20566 0.0
H1131 H 0.87705 0.85683 0.21344 0.0
H1132 H 0.90012 0.82339 0.18668 0.0
C1133 C 0.86373 0.78173 0.22616 0.0
C1134 C 0.65672 0.36334 0.73217 0.0
C1135 C 0.6511 0.36907 0.75898 0.0
H1136 H 0.68382 0.36727 0.69979 0.0
C1137 C 0.66871 0.38535 0.77344 0.0
H1138 H 0.64338 0.35112 0.72037 0.0
C1139 C 0.69223 0.39456 0.76159 0.0
C1140 C 0.6983 0.38782 0.73506 0.0
H1141 H 0.66484 0.39011 0.79413 0.0
H1142 H 0.70595 0.4063 0.77342 0.0
C1143 C 0.67993 0.37268 0.72033 0.0
C1144 C 0.11033 0.79086 0.74972 0.0
C1145 C 0.10668 0.78683 0.77718 0.0
H1146 H 0.12347 0.81752 0.71911 0.0
C1147 C 0.1098 0.80854 0.79463 0.0
H1148 H 0.10797 0.77454 0.73575 0.0
C1149 C 0.11838 0.83323 0.78507 0.0
C1150 C 0.12437 0.8366 0.75792 0.0
H1151 H 0.10683 0.80612 0.81588 0.0
H1152 H 0.12195 0.84911 0.79927 0.0
C1153 C 0.11924 0.81549 0.74018 0.0
C1154 C 0.6598 0.62557 0.22499 0.0
C1155 C 0.64164 0.62539 0.24627 0.0
H1156 H 0.69951 0.61728 0.21208 0.0
C1157 C 0.64916 0.61354 0.27051 0.0
H1158 H 0.6545 0.63438 0.206 0.0
C1159 C 0.67499 0.60399 0.27407 0.0
C1160 C 0.6937 0.60583 0.25337 0.0
H1161 H 0.63559 0.61295 0.28726 0.0
H1162 H 0.68059 0.59617 0.29341 0.0
C1163 C 0.68557 0.61574 0.22847 0.0
C1164 C 0.88076 0.17244 0.77836 0.0
C1165 C 0.87968 0.19415 0.76067 0.0
H1166 H 0.87143 0.13142 0.78511 0.0
C1167 C 0.8708 0.18987 0.73445 0.0
H1168 H 0.88779 0.17503 0.79861 0.0
C1169 C 0.86128 0.16482 0.72672 0.0
C1170 C 0.86066 0.14358 0.74502 0.0
H1171 H 0.86988 0.20615 0.7203 0.0
H1172 H 0.85327 0.16248 0.70681 0.0
C1173 C 0.87145 0.14739 0.77058 0.0
C1174 C 0.3175 0.34845 0.27479 0.0
C1175 C 0.32737 0.35303 0.24908 0.0
H1176 H 0.28991 0.35983 0.30487 0.0
C1177 C 0.31727 0.37439 0.23406 0.0
H1178 H 0.32521 0.3323 0.2869 0.0
C1179 C 0.29648 0.39005 0.2442 0.0
C1180 C 0.28614 0.38494 0.26975 0.0
H1181 H 0.32469 0.37827 0.21417 0.0
H1182 H 0.28819 0.40576 0.23192 0.0
C1183 C 0.29738 0.3644 0.28514 0.0
C1184 C 0.23908 0.1305 0.15833 0.0
C1185 C 0.24701 0.15707 0.16254 0.0
H1186 H 0.22012 0.0959 0.17476 0.0
C1187 C 0.24384 0.16836 0.18794 0.0
H1188 H 0.24132 0.12124 0.13895 0.0
C1189 C 0.23177 0.15393 0.20834 0.0
C1190 C 0.22252 0.12786 0.20382 0.0
H1191 H 0.24996 0.18869 0.19192 0.0
H1192 H 0.229 0.16359 0.22745 0.0
C1193 C 0.2269 0.11601 0.17881 0.0
C1194 C 0.39955 0.70816 0.65712 0.0
C1195 C 0.39269 0.73526 0.65506 0.0
H1196 H 0.40896 0.67571 0.68314 0.0
C1197 C 0.39469 0.75153 0.67781 0.0
H1198 H 0.39845 0.6951 0.63996 0.0
C1199 C 0.40088 0.7404 0.7026 0.0
C1200 C 0.40495 0.71278 0.70506 0.0
H1201 H 0.38979 0.77255 0.67683 0.0
H1202 H 0.40059 0.75314 0.72003 0.0
C1203 C 0.40548 0.697 0.68192 0.0
C1204 C 0.76758 0.89565 0.16874 0.0
C1205 C 0.75259 0.89617 0.19237 0.0
H1206 H 0.76918 0.8841 0.12778 0.0
C1207 C 0.72572 0.8885 0.19146 0.0
H1208 H 0.78825 0.90177 0.16869 0.0
C1209 C 0.71477 0.87825 0.16796 0.0
C1210 C 0.73047 0.87562 0.14492 0.0
H1211 H 0.71356 0.88885 0.20927 0.0
H1212 H 0.69448 0.87099 0.16831 0.0
C1213 C 0.7566 0.88557 0.14524 0.0
C1214 C 0.58029 0.26437 0.68909 0.0
C1215 C 0.57851 0.25069 0.71345 0.0
H1216 H 0.59266 0.2631 0.64842 0.0
C1217 C 0.58384 0.22317 0.71401 0.0
H1218 H 0.57587 0.28549 0.68791 0.0
C1219 C 0.59361 0.21028 0.69131 0.0
C1220 C 0.59809 0.22471 0.66771 0.0
H1221 H 0.58242 0.212 0.73244 0.0
H1222 H 0.59944 0.18954 0.69288 0.0
C1223 C 0.5899 0.25149 0.66642 0.0
C1224 C 0.26399 0.87902 0.79171 0.0
C1225 C 0.23718 0.88618 0.78825 0.0
H1226 H 0.29375 0.86439 0.81854 0.0
C1227 C 0.22053 0.88741 0.81069 0.0
H1228 H 0.27735 0.87798 0.77482 0.0
C1229 C 0.22998 0.87989 0.83576 0.0
C1230 C 0.2562 0.87068 0.83886 0.0
H1231 H 0.19983 0.89312 0.80871 0.0
H1232 H 0.21623 0.87988 0.85237 0.0
C1233 C 0.27339 0.87122 0.81677 0.0
C1234 C 0.61482 0.75758 0.30202 0.0
C1235 C 0.60417 0.7319 0.2985 0.0
H1236 H 0.63754 0.78366 0.32699 0.0
C1237 C 0.60585 0.71351 0.31958 0.0
H1238 H 0.61374 0.77228 0.28624 0.0
C1239 C 0.61938 0.72008 0.34301 0.0
C1240 C 0.63166 0.74513 0.34577 0.0
H1241 H 0.59767 0.69361 0.31759 0.0
H1242 H 0.6213 0.70505 0.35839 0.0
C1243 C 0.6285 0.76411 0.32539 0.0
C1244 C 0.72577 0.10418 0.79022 0.0
C1245 C 0.7518 0.09497 0.78584 0.0
H1246 H 0.69856 0.12225 0.81764 0.0
C1247 C 0.76959 0.09387 0.80743 0.0
H1248 H 0.71157 0.1052 0.774 0.0
C1249 C 0.76207 0.10338 0.83246 0.0
C1250 C 0.7367 0.11449 0.83636 0.0
H1251 H 0.78972 0.08664 0.80474 0.0
H1252 H 0.77668 0.10333 0.84835 0.0
C1253 C 0.71832 0.11399 0.81522 0.0
C1254 C 0.39586 0.27895 0.30684 0.0
C1255 C 0.39045 0.2623 0.28496 0.0
H1256 H 0.39026 0.28611 0.34846 0.0
C1257 C 0.37769 0.23775 0.28944 0.0
H1258 H 0.40588 0.29789 0.30411 0.0
C1259 C 0.36858 0.23105 0.31489 0.0
C1260 C 0.3722 0.24869 0.33638 0.0
H1261 H 0.37335 0.22437 0.27305 0.0
H1262 H 0.35756 0.21266 0.31743 0.0
C1263 C 0.38691 0.27218 0.3323 0.0
C1264 C 0.17851 0.23176 0.09321 0.0
C1265 C 0.20142 0.24716 0.09782 0.0
H1266 H 0.13688 0.22696 0.10038 0.0
C1267 C 0.19883 0.27194 0.11065 0.0
H1268 H 0.17979 0.21271 0.0831 0.0
C1269 C 0.17422 0.28007 0.12068 0.0
C1270 C 0.15172 0.26364 0.11791 0.0
H1271 H 0.21606 0.28438 0.11434 0.0
H1272 H 0.17314 0.29857 0.13178 0.0
C1273 C 0.15388 0.23996 0.10308 0.0
C1274 C 0.21379 0.73794 0.89205 0.0
C1275 C 0.21883 0.76492 0.89768 0.0
H1276 H 0.18528 0.70904 0.87892 0.0
C1277 C 0.19748 0.783 0.89799 0.0
H1278 H 0.22982 0.72351 0.89178 0.0
C1279 C 0.17193 0.77467 0.89094 0.0
C1280 C 0.1673 0.74816 0.88308 0.0
H1281 H 0.2007 0.80387 0.90257 0.0
H1282 H 0.15622 0.78942 0.89008 0.0
C1283 C 0.18826 0.72965 0.88467 0.0
C1284 C 0.72681 0.68152 0.38236 0.0
C1285 C 0.74416 0.70294 0.3774 0.0
H1286 H 0.71746 0.64063 0.3747 0.0
C1287 C 0.76778 0.69812 0.36321 0.0
H1288 H 0.70858 0.68448 0.39346 0.0
C1289 C 0.77284 0.67294 0.35236 0.0
C1290 C 0.75445 0.65206 0.35559 0.0
H1291 H 0.78169 0.71413 0.35922 0.0
H1292 H 0.79051 0.67025 0.34032 0.0
C1293 C 0.73194 0.65633 0.37162 0.0
C1294 C 0.78653 0.24773 0.879 0.0
C1295 C 0.78122 0.22142 0.88707 0.0
H1296 H 0.81502 0.27488 0.86259 0.0
C1297 C 0.80222 0.20295 0.88796 0.0
H1298 H 0.7708 0.26248 0.87824 0.0
C1299 C 0.82759 0.21011 0.87923 0.0
C1300 C 0.83241 0.23582 0.86918 0.0
H1301 H 0.79883 0.18259 0.89437 0.0
H1302 H 0.843 0.19502 0.87902 0.0
C1303 C 0.81187 0.25484 0.87002 0.0
C1304 C 0.23781 0.30143 0.38734 0.0
C1305 C 0.26475 0.29703 0.39344 0.0
H1306 H 0.20855 0.32917 0.37333 0.0
C1307 C 0.28237 0.31876 0.39336 0.0
H1308 H 0.22371 0.28509 0.38735 0.0
C1309 C 0.27361 0.34405 0.38572 0.0
C1310 C 0.24713 0.34805 0.37761 0.0
H1311 H 0.30318 0.31605 0.39827 0.0
H1312 H 0.28803 0.36007 0.38472 0.0
C1313 C 0.2291 0.32669 0.37933 0.0
C1314 C 0.7938 0.76721 0.09319 0.0
C1315 C 0.76925 0.76973 0.10636 0.0
H1316 H 0.83385 0.75253 0.09503 0.0
C1317 C 0.76588 0.75728 0.13122 0.0
H1318 H 0.79699 0.77648 0.07396 0.0
C1319 C 0.78686 0.74363 0.1432 0.0
C1320 C 0.81175 0.74203 0.13062 0.0
H1321 H 0.74717 0.75859 0.14184 0.0
H1322 H 0.78369 0.73488 0.16268 0.0
C1323 C 0.81489 0.75345 0.10522 0.0
C1324 C 0.70732 0.33446 0.61389 0.0
C1325 C 0.73336 0.33654 0.62391 0.0
H1326 H 0.67663 0.30859 0.5996 0.0
C1327 C 0.74981 0.31386 0.62357 0.0
H1328 H 0.69417 0.35157 0.61367 0.0
C1329 C 0.73975 0.28919 0.61535 0.0
C1330 C 0.71301 0.28671 0.60752 0.0
H1331 H 0.77004 0.31485 0.63097 0.0
H1332 H 0.75251 0.27183 0.61663 0.0
C1333 C 0.69722 0.30978 0.60589 0.0
C1334 C 0.28805 0.6569 0.61062 0.0
C1335 C 0.26052 0.65415 0.61461 0.0
H1336 H 0.32028 0.68331 0.60183 0.0
C1337 C 0.24384 0.67598 0.60903 0.0
H1338 H 0.30148 0.64047 0.61457 0.0
C1339 C 0.25466 0.70057 0.60156 0.0
C1340 C 0.28236 0.70384 0.59975 0.0
H1341 H 0.22252 0.67448 0.61174 0.0
H1342 H 0.24138 0.71734 0.59872 0.0
C1343 C 0.29887 0.68151 0.60339 0.0
C1344 C 0.89617 0.82984 0.77723 0.0
C1345 C 0.88892 0.83457 0.75058 0.0
H1346 H 0.91034 0.80151 0.80579 0.0
C1347 C 0.8944 0.81494 0.73134 0.0
H1348 H 0.89237 0.84458 0.79254 0.0
C1349 C 0.90493 0.79028 0.73894 0.0
C1350 C 0.90988 0.78472 0.76594 0.0
H1351 H 0.88923 0.81808 0.71061 0.0
H1352 H 0.90757 0.77505 0.72386 0.0
C1353 C 0.9064 0.80509 0.78486 0.0
C1354 C 0.69572 0.33148 0.24969 0.0
C1355 C 0.67203 0.34497 0.24351 0.0
H1356 H 0.73393 0.33322 0.26812 0.0
C1357 C 0.66978 0.37217 0.24995 0.0
H1358 H 0.69819 0.31057 0.24483 0.0
C1359 C 0.69038 0.38524 0.26349 0.0
C1360 C 0.71357 0.37132 0.27074 0.0
H1361 H 0.65174 0.3831 0.24544 0.0
H1362 H 0.6878 0.40599 0.26894 0.0
C1363 C 0.71623 0.34449 0.26312 0.0
C1364 C 0.1163 0.14257 0.7637 0.0
C1365 C 0.12902 0.14101 0.73882 0.0
H1366 H 0.0962 0.16737 0.79192 0.0
C1367 C 0.12781 0.16308 0.72158 0.0
H1368 H 0.11667 0.12587 0.77739 0.0
C1369 C 0.11594 0.18689 0.72988 0.0
C1370 C 0.1052 0.18911 0.75564 0.0
H1371 H 0.13719 0.16245 0.70216 0.0
H1372 H 0.11657 0.20394 0.71664 0.0
C1373 C 0.10458 0.1664 0.77206 0.0
C1374 C 0.30632 0.61486 0.26382 0.0
C1375 C 0.30465 0.64169 0.25579 0.0
H1376 H 0.28734 0.5825 0.28432 0.0
C1377 C 0.28096 0.65579 0.26036 0.0
H1378 H 0.32432 0.60347 0.26054 0.0
C1379 C 0.25997 0.64391 0.27402 0.0
C1380 C 0.26211 0.61758 0.28338 0.0
H1381 H 0.27891 0.67641 0.25423 0.0
H1382 H 0.24232 0.65568 0.27787 0.0
C1383 C 0.28518 0.60289 0.2775 0.0
C1384 C 0.87966 0.15052 0.20862 0.0
C1385 C 0.8779 0.14811 0.23648 0.0
H1386 H 0.89091 0.17516 0.1757 0.0
C1387 C 0.8908 0.16708 0.25259 0.0
H1388 H 0.87018 0.13613 0.19562 0.0
C1389 C 0.90291 0.18938 0.24111 0.0
C1390 C 0.90208 0.19321 0.21337 0.0
H1391 H 0.89006 0.16562 0.27411 0.0
H1392 H 0.91111 0.20453 0.25414 0.0
C1393 C 0.89151 0.17294 0.19718 0.0
C1394 C 0.29103 0.40108 0.74179 0.0
C1395 C 0.26577 0.39664 0.75285 0.0
H1396 H 0.33299 0.39517 0.74556 0.0
C1397 C 0.26391 0.38527 0.7784 0.0
H1398 H 0.29306 0.41 0.72223 0.0
C1399 C 0.28674 0.3764 0.79161 0.0
C1400 C 0.31187 0.3793 0.77979 0.0
H1401 H 0.2447 0.38164 0.78746 0.0
H1402 H 0.28461 0.36611 0.81048 0.0
C1403 C 0.31391 0.39277 0.75528 0.0
C1404 C 0.11338 0.82679 0.2514 0.0
C1405 C 0.11857 0.84678 0.23247 0.0
H1406 H 0.09995 0.7869 0.25833 0.0
C1407 C 0.11067 0.84268 0.2059 0.0
H1408 H 0.11902 0.82945 0.27208 0.0
C1409 C 0.09998 0.81823 0.19797 0.0
C1410 C 0.09667 0.79752 0.21653 0.0
H1411 H 0.11421 0.85774 0.19084 0.0
H1412 H 0.09552 0.81512 0.17707 0.0
C1413 C 0.10237 0.80243 0.24352 0.0
C1414 C 0.68624 0.59448 0.7234 0.0
C1415 C 0.71097 0.60712 0.71986 0.0
H1416 H 0.6462 0.59811 0.7378 0.0
C1417 C 0.71484 0.63268 0.73069 0.0
H1418 H 0.68269 0.57474 0.71539 0.0
C1419 C 0.69409 0.64597 0.74336 0.0
C1420 C 0.66896 0.63401 0.74565 0.0
H1421 H 0.73371 0.64292 0.72864 0.0
H1422 H 0.69756 0.66602 0.75064 0.0
C1423 C 0.66539 0.60782 0.73628 0.0
C1424 C 0.74056 0.85747 0.81679 0.0
C1425 C 0.75866 0.8554 0.83808 0.0
H1426 H 0.73468 0.86796 0.77584 0.0
C1427 C 0.78454 0.86548 0.83484 0.0
H1428 H 0.72042 0.85004 0.81873 0.0
C1429 C 0.79276 0.87551 0.81023 0.0
C1430 C 0.77518 0.87595 0.78844 0.0
H1431 H 0.79894 0.86433 0.85086 0.0
H1432 H 0.81322 0.88192 0.80801 0.0
C1433 C 0.74872 0.86778 0.79223 0.0
C1434 C 0.60819 0.24114 0.29678 0.0
C1435 C 0.59825 0.26664 0.29077 0.0
H1436 H 0.62557 0.21575 0.32629 0.0
C1437 C 0.59466 0.28506 0.31159 0.0
H1438 H 0.61099 0.22641 0.28124 0.0
C1439 C 0.60293 0.27891 0.33746 0.0
C1440 C 0.61507 0.25428 0.34298 0.0
H1441 H 0.58675 0.30477 0.30769 0.0
H1442 H 0.60124 0.2941 0.35272 0.0
C1443 C 0.61657 0.23504 0.32263 0.0
C1444 C 0.27014 0.10324 0.78352 0.0
C1445 C 0.24349 0.09583 0.77939 0.0
H1446 H 0.29871 0.11977 0.81057 0.0
C1447 C 0.22593 0.09589 0.80115 0.0
H1448 H 0.28421 0.10325 0.76718 0.0
C1449 C 0.23429 0.10509 0.82604 0.0
C1450 C 0.26032 0.1147 0.82962 0.0
H1451 H 0.20535 0.08995 0.79869 0.0
H1452 H 0.21985 0.10613 0.84201 0.0
C1453 C 0.27846 0.1127 0.8084 0.0
C1454 C 0.36016 0.76153 0.32898 0.0
C1455 C 0.35959 0.7448 0.35146 0.0
H1456 H 0.36817 0.76484 0.28723 0.0
C1457 C 0.37 0.71888 0.3494 0.0
H1458 H 0.35248 0.78169 0.32998 0.0
C1459 C 0.37881 0.70917 0.32487 0.0
C1460 C 0.37759 0.72527 0.30197 0.0
H1461 H 0.37001 0.70554 0.36638 0.0
H1462 H 0.38549 0.68866 0.32365 0.0
C1463 C 0.36918 0.75188 0.30447 0.0
C1464 C 0.74602 0.12225 0.16863 0.0
C1465 C 0.73946 0.14945 0.17055 0.0
H1466 H 0.76457 0.0886 0.18744 0.0
C1467 C 0.74474 0.16305 0.19444 0.0
H1468 H 0.74215 0.11124 0.15045 0.0
C1469 C 0.75752 0.15019 0.21545 0.0
C1470 C 0.76537 0.12339 0.21313 0.0
H1471 H 0.73972 0.18394 0.19669 0.0
H1472 H 0.76189 0.16158 0.23329 0.0
C1473 C 0.75888 0.10931 0.18977 0.0
C1474 C 0.35293 0.30446 0.70055 0.0
C1475 C 0.37734 0.29425 0.7096 0.0
H1476 H 0.32005 0.2999 0.67406 0.0
C1477 C 0.38812 0.2716 0.69704 0.0
H1478 H 0.34397 0.32179 0.70981 0.0
C1479 C 0.37442 0.25919 0.67607 0.0
C1480 C 0.34948 0.26889 0.66797 0.0
H1481 H 0.4069 0.26331 0.70365 0.0
H1482 H 0.38287 0.24162 0.66679 0.0
C1483 C 0.33906 0.29176 0.6802 0.0
C1484 C 0.25919 0.87992 0.19695 0.0
C1485 C 0.23316 0.88983 0.19944 0.0
H1486 H 0.28778 0.86099 0.17163 0.0
C1487 C 0.21702 0.89137 0.1766 0.0
H1488 H 0.27219 0.8786 0.21413 0.0
C1489 C 0.22603 0.88147 0.15221 0.0
C1490 C 0.25128 0.86961 0.1502 0.0
H1491 H 0.19695 0.89915 0.17781 0.0
H1492 H 0.21261 0.88181 0.13532 0.0
C1493 C 0.26813 0.86979 0.17259 0.0
C1494 C 0.60321 0.71203 0.65398 0.0
C1495 C 0.61298 0.73814 0.65111 0.0
H1496 H 0.58794 0.68246 0.6806 0.0
C1497 C 0.61076 0.75591 0.67269 0.0
H1498 H 0.60439 0.69789 0.6377 0.0
C1499 C 0.60119 0.74707 0.6973 0.0
C1500 C 0.59383 0.72025 0.70083 0.0
H1501 H 0.61787 0.77624 0.67105 0.0
H1502 H 0.60121 0.76082 0.71395 0.0
C1503 C 0.59382 0.70315 0.67862 0.0
C1504 C 0.84468 0.75746 0.88043 0.0
C1505 C 0.84979 0.73363 0.8666 0.0
H1506 H 0.81535 0.78307 0.89767 0.0
C1507 C 0.82882 0.71551 0.86252 0.0
H1508 H 0.8604 0.77178 0.88407 0.0
C1509 C 0.80294 0.72197 0.87041 0.0
C1510 C 0.79753 0.74671 0.88241 0.0
H1511 H 0.83213 0.69688 0.85211 0.0
H1512 H 0.78703 0.70813 0.86585 0.0
C1513 C 0.81881 0.76397 0.88819 0.0
C1514 C 0.83277 0.22026 0.09784 0.0
C1515 C 0.83769 0.24431 0.11137 0.0
H1516 H 0.80355 0.19396 0.0814 0.0
C1517 C 0.81658 0.26229 0.11521 0.0
H1518 H 0.84862 0.20604 0.09436 0.0
C1519 C 0.79072 0.25539 0.10766 0.0
C1520 C 0.78547 0.23032 0.09628 0.0
H1521 H 0.81976 0.2811 0.12536 0.0
H1522 H 0.77468 0.26907 0.11221 0.0
C1523 C 0.8069 0.21329 0.09046 0.0
C1524 C 0.27011 0.34811 0.61739 0.0
C1525 C 0.24464 0.34943 0.62882 0.0
H1526 H 0.29923 0.32376 0.5981 0.0
C1527 C 0.22752 0.32739 0.62621 0.0
H1528 H 0.28372 0.36479 0.61884 0.0
C1529 C 0.23637 0.30387 0.61419 0.0
C1530 C 0.26257 0.30186 0.60463 0.0
H1531 H 0.20766 0.32785 0.63456 0.0
H1532 H 0.22313 0.28683 0.61373 0.0
C1533 C 0.279 0.32455 0.60545 0.0
C1534 C 0.20272 0.73675 0.10716 0.0
C1535 C 0.20894 0.76266 0.09844 0.0
H1536 H 0.17301 0.71082 0.12336 0.0
C1537 C 0.18839 0.78148 0.09595 0.0
H1538 H 0.21808 0.72174 0.10914 0.0
C1539 C 0.16254 0.77516 0.10388 0.0
C1540 C 0.15676 0.74996 0.11472 0.0
H1541 H 0.19248 0.80153 0.08901 0.0
H1542 H 0.14747 0.79057 0.10293 0.0
C1543 C 0.17688 0.73049 0.11533 0.0
C1544 C 0.71933 0.65393 0.61181 0.0
C1545 C 0.74647 0.6508 0.61777 0.0
H1546 H 0.6882 0.68074 0.60058 0.0
C1547 C 0.76384 0.67234 0.61335 0.0
H1548 H 0.70541 0.63772 0.61483 0.0
C1549 C 0.75394 0.69704 0.60499 0.0
C1550 C 0.72649 0.70068 0.60113 0.0
H1551 H 0.78489 0.67053 0.61762 0.0
H1552 H 0.76762 0.71362 0.60301 0.0
C1553 C 0.70942 0.67865 0.60373 0.0
C1554 C 0.19473 0.23699 0.83064 0.0
C1555 C 0.16967 0.23905 0.84278 0.0
H1556 H 0.23491 0.2238 0.83394 0.0
C1557 C 0.16675 0.23074 0.8694 0.0
H1558 H 0.19773 0.24341 0.81024 0.0
C1559 C 0.18823 0.21932 0.88309 0.0
C1560 C 0.21294 0.21608 0.87038 0.0
H1561 H 0.14767 0.23209 0.8793 0.0
H1562 H 0.18521 0.21226 0.90326 0.0
C1563 C 0.21609 0.22568 0.84425 0.0
C1564 C 0.26654 0.68925 0.406 0.0
C1565 C 0.24965 0.7115 0.40801 0.0
H1566 H 0.27042 0.64828 0.39495 0.0
C1567 C 0.22225 0.70807 0.40365 0.0
H1568 H 0.28771 0.69114 0.40958 0.0
C1569 C 0.21231 0.68344 0.39514 0.0
C1570 C 0.22958 0.66177 0.39099 0.0
H1571 H 0.20868 0.72477 0.40523 0.0
H1572 H 0.19135 0.68185 0.39038 0.0
C1573 C 0.25659 0.66462 0.39767 0.0
C1574 C 0.71662 0.34445 0.38709 0.0
C1575 C 0.74421 0.34594 0.38278 0.0
H1576 H 0.68392 0.32035 0.39991 0.0
C1577 C 0.76055 0.32543 0.39263 0.0
H1578 H 0.70346 0.35999 0.37995 0.0
C1579 C 0.74931 0.30278 0.40436 0.0
C1580 C 0.72153 0.30015 0.40615 0.0
H1581 H 0.7819 0.3261 0.38982 0.0
H1582 H 0.76231 0.28657 0.41019 0.0
C1583 C 0.70538 0.32169 0.3985 0.0
loop_
_geom_bond_atom_site_label_1
_geom_bond_atom_site_label_2
_geom_bond_distance
_geom_bond_site_symmetry_2
_ccdc_geom_bond_type
C0 O1 1.160 . S
C0 O7 1.185 . S
O1 C0 1.160 . S
O2 Zn3 1.899 . S
O2 C10 1.284 . S
Zn3 O2 1.899 . S
Zn3 O4 2.032 . S
Zn3 O7 2.086 . S
Zn3 O12 1.977 . S
O4 Zn3 2.032 . S
O4 C8 1.278 . S
C5 O6 1.203 . S
C5 O12 1.267 . S
O6 C5 1.203 . S
O7 C0 1.185 . S
O7 Zn3 2.086 . S
C8 O4 1.278 . S
C8 O9 1.211 . S
O9 C8 1.211 . S
C10 O2 1.284 . S
C10 O11 1.273 . S
O11 C10 1.273 . S
O12 Zn3 1.977 . S
O12 C5 1.267 . S
C13 O14 1.160 . S
C13 O20 1.185 . S
O14 C13 1.160 . S
O15 Zn16 1.899 . S
O15 C23 1.284 . S
Zn16 O15 1.899 . S
Zn16 O17 2.032 . S
Zn16 O20 2.086 . S
Zn16 O25 1.977 . S
O17 Zn16 2.032 . S
O17 C21 1.278 . S
C18 O19 1.203 . S
C18 O25 1.267 . S
O19 C18 1.203 . S
O20 C13 1.185 . S
O20 Zn16 2.086 . S
C21 O17 1.278 . S
C21 O22 1.211 . S
O22 C21 1.211 . S
C23 O15 1.284 . S
C23 O24 1.273 . S
O24 C23 1.273 . S
O25 Zn16 1.977 . S
O25 C18 1.267 . S
C26 O27 1.160 . S
C26 O33 1.185 . S
O27 C26 1.160 . S
O28 Zn29 1.899 . S
O28 C36 1.284 . S
Zn29 O28 1.899 . S
Zn29 O30 2.032 . S
Zn29 O33 2.086 . S
Zn29 O38 1.977 . S
O30 Zn29 2.032 . S
O30 C34 1.278 . S
C31 O32 1.203 . S
C31 O38 1.267 . S
O32 C31 1.203 . S
O33 C26 1.185 . S
O33 Zn29 2.086 . S
C34 O30 1.278 . S
C34 O35 1.211 . S
O35 C34 1.211 . S
C36 O28 1.284 . S
C36 O37 1.273 . S
O37 C36 1.273 . S
O38 Zn29 1.977 . S
O38 C31 1.267 . S
C39 O40 1.160 . S
C39 O46 1.185 . S
O40 C39 1.160 . S
O41 Zn42 1.899 . S
O41 C49 1.284 . S
Zn42 O41 1.899 . S
Zn42 O43 2.032 . S
Zn42 O46 2.086 . S
Zn42 O51 1.977 . S
O43 Zn42 2.032 . S
O43 C47 1.278 . S
C44 O45 1.203 . S
C44 O51 1.267 . S
O45 C44 1.203 . S
O46 C39 1.185 . S
O46 Zn42 2.086 . S
C47 O43 1.278 . S
C47 O48 1.211 . S
O48 C47 1.211 . S
C49 O41 1.284 . S
C49 O50 1.273 . S
O50 C49 1.273 . S
O51 Zn42 1.977 . S
O51 C44 1.267 . S
C52 O53 1.160 . S
C52 O59 1.185 . S
O53 C52 1.160 . S
O54 Zn55 1.899 . S
O54 C62 1.284 . S
Zn55 O54 1.899 . S
Zn55 O56 2.032 . S
Zn55 O59 2.086 . S
Zn55 O64 1.977 . S
O56 Zn55 2.032 . S
O56 C60 1.278 . S
C57 O58 1.203 . S
C57 O64 1.267 . S
O58 C57 1.203 . S
O59 C52 1.185 . S
O59 Zn55 2.086 . S
C60 O56 1.278 . S
C60 O61 1.211 . S
O61 C60 1.211 . S
C62 O54 1.284 . S
C62 O63 1.273 . S
O63 C62 1.273 . S
O64 Zn55 1.977 . S
O64 C57 1.267 . S
C65 O66 1.160 . S
C65 O72 1.185 . S
O66 C65 1.160 . S
O67 Zn68 1.899 . S
O67 C75 1.284 . S
Zn68 O67 1.899 . S
Zn68 O69 2.032 . S
Zn68 O72 2.086 . S
Zn68 O77 1.977 . S
O69 Zn68 2.032 . S
O69 C73 1.278 . S
C70 O71 1.203 . S
C70 O77 1.267 . S
O71 C70 1.203 . S
O72 C65 1.185 . S
O72 Zn68 2.086 . S
C73 O69 1.278 . S
C73 O74 1.211 . S
O74 C73 1.211 . S
C75 O67 1.284 . S
C75 O76 1.273 . S
O76 C75 1.273 . S
O77 Zn68 1.977 . S
O77 C70 1.267 . S
C78 O79 1.160 . S
C78 O85 1.185 . S
O79 C78 1.160 . S
O80 Zn81 1.899 . S
O80 C88 1.284 . S
Zn81 O80 1.899 . S
Zn81 O82 2.032 . S
Zn81 O85 2.086 . S
Zn81 O90 1.977 . S
O82 Zn81 2.032 . S
O82 C86 1.278 . S
C83 O84 1.203 . S
C83 O90 1.267 . S
O84 C83 1.203 . S
O85 C78 1.185 . S
O85 Zn81 2.086 . S
C86 O82 1.278 . S
C86 O87 1.211 . S
O87 C86 1.211 . S
C88 O80 1.284 . S
C88 O89 1.273 . S
O89 C88 1.273 . S
O90 Zn81 1.977 . S
O90 C83 1.267 . S
C91 O92 1.160 . S
C91 O98 1.185 . S
O92 C91 1.160 . S
O93 Zn94 1.899 . S
O93 C101 1.284 . S
Zn94 O93 1.899 . S
Zn94 O95 2.032 . S
Zn94 O98 2.086 . S
Zn94 O103 1.977 . S
O95 Zn94 2.032 . S
O95 C99 1.278 . S
C96 O97 1.203 . S
C96 O103 1.267 . S
O97 C96 1.203 . S
O98 C91 1.185 . S
O98 Zn94 2.086 . S
C99 O95 1.278 . S
C99 O100 1.211 . S
O100 C99 1.211 . S
C101 O93 1.284 . S
C101 O102 1.273 . S
O102 C101 1.273 . S
O103 Zn94 1.977 . S
O103 C96 1.267 . S
C104 O105 1.160 . S
C104 O111 1.185 . S
O105 C104 1.160 . S
O106 Zn107 1.899 . S
O106 C114 1.284 . S
Zn107 O106 1.899 . S
Zn107 O108 2.032 . S
Zn107 O111 2.086 . S
Zn107 O116 1.977 . S
O108 Zn107 2.032 . S
O108 C112 1.278 . S
C109 O110 1.203 . S
C109 O116 1.267 . S
O110 C109 1.203 . S
O111 C104 1.185 . S
O111 Zn107 2.086 . S
C112 O108 1.278 . S
C112 O113 1.211 . S
O113 C112 1.211 . S
C114 O106 1.284 . S
C114 O115 1.273 . S
O115 C114 1.273 . S
O116 Zn107 1.977 . S
O116 C109 1.267 . S
C117 O118 1.160 . S
C117 O124 1.185 . S
O118 C117 1.160 . S
O119 Zn120 1.899 . S
O119 C127 1.284 . S
Zn120 O119 1.899 . S
Zn120 O121 2.032 . S
Zn120 O124 2.086 . S
Zn120 O129 1.977 . S
O121 Zn120 2.032 . S
O121 C125 1.278 . S
C122 O123 1.203 . S
C122 O129 1.267 . S
O123 C122 1.203 . S
O124 C117 1.185 . S
O124 Zn120 2.086 . S
C125 O121 1.278 . S
C125 O126 1.211 . S
O126 C125 1.211 . S
C127 O119 1.284 . S
C127 O128 1.273 . S
O128 C127 1.273 . S
O129 Zn120 1.977 . S
O129 C122 1.267 . S
C130 O131 1.160 . S
C130 O137 1.185 . S
O131 C130 1.160 . S
O132 Zn133 1.899 . S
O132 C140 1.284 . S
Zn133 O132 1.899 . S
Zn133 O134 2.032 . S
Zn133 O137 2.086 . S
Zn133 O142 1.977 . S
O134 Zn133 2.032 . S
O134 C138 1.278 . S
C135 O136 1.203 . S
C135 O142 1.267 . S
O136 C135 1.203 . S
O137 C130 1.185 . S
O137 Zn133 2.086 . S
C138 O134 1.278 . S
C138 O139 1.211 . S
O139 C138 1.211 . S
C140 O132 1.284 . S
C140 O141 1.273 . S
O141 C140 1.273 . S
O142 Zn133 1.977 . S
O142 C135 1.267 . S
C143 O144 1.160 . S
C143 O150 1.185 . S
O144 C143 1.160 . S
O145 Zn146 1.899 . S
O145 C153 1.284 . S
Zn146 O145 1.899 . S
Zn146 O147 2.032 . S
Zn146 O150 2.086 . S
Zn146 O155 1.977 . S
O147 Zn146 2.032 . S
O147 C151 1.278 . S
C148 O149 1.203 . S
C148 O155 1.267 . S
O149 C148 1.203 . S
O150 C143 1.185 . S
O150 Zn146 2.086 . S
C151 O147 1.278 . S
C151 O152 1.211 . S
O152 C151 1.211 . S
C153 O145 1.284 . S
C153 O154 1.273 . S
O154 C153 1.273 . S
O155 Zn146 1.977 . S
O155 C148 1.267 . S
C156 O157 1.160 . S
C156 O163 1.185 . S
O157 C156 1.160 . S
O158 Zn159 1.899 . S
O158 C166 1.284 . S
Zn159 O158 1.899 . S
Zn159 O160 2.032 . S
Zn159 O163 2.086 . S
Zn159 O168 1.977 . S
O160 Zn159 2.032 . S
O160 C164 1.278 . S
C161 O162 1.203 . S
C161 O168 1.267 . S
O162 C161 1.203 . S
O163 C156 1.185 . S
O163 Zn159 2.086 . S
C164 O160 1.278 . S
C164 O165 1.211 . S
O165 C164 1.211 . S
C166 O158 1.284 . S
C166 O167 1.273 . S
O167 C166 1.273 . S
O168 Zn159 1.977 . S
O168 C161 1.267 . S
C169 O170 1.160 . S
C169 O176 1.185 . S
O170 C169 1.160 . S
O171 Zn172 1.899 . S
O171 C179 1.284 . S
Zn172 O171 1.899 . S
Zn172 O173 2.032 . S
Zn172 O176 2.086 . S
Zn172 O181 1.977 . S
O173 Zn172 2.032 . S
O173 C177 1.278 . S
C174 O175 1.203 . S
C174 O181 1.267 . S
O175 C174 1.203 . S
O176 C169 1.185 . S
O176 Zn172 2.086 . S
C177 O173 1.278 . S
C177 O178 1.211 . S
O178 C177 1.211 . S
C179 O171 1.284 . S
C179 O180 1.273 . S
O180 C179 1.273 . S
O181 Zn172 1.977 . S
O181 C174 1.267 . S
C182 O183 1.160 . S
C182 O189 1.185 . S
O183 C182 1.160 . S
O184 Zn185 1.899 . S
O184 C192 1.284 . S
Zn185 O184 1.899 . S
Zn185 O186 2.032 . S
Zn185 O189 2.086 . S
Zn185 O194 1.977 . S
O186 Zn185 2.032 . S
O186 C190 1.278 . S
C187 O188 1.203 . S
C187 O194 1.267 . S
O188 C187 1.203 . S
O189 C182 1.185 . S
O189 Zn185 2.086 . S
C190 O186 1.278 . S
C190 O191 1.211 . S
O191 C190 1.211 . S
C192 O184 1.284 . S
C192 O193 1.273 . S
O193 C192 1.273 . S
O194 Zn185 1.977 . S
O194 C187 1.267 . S
C195 O196 1.160 . S
C195 O202 1.185 . S
O196 C195 1.160 . S
O197 Zn198 1.899 . S
O197 C205 1.284 . S
Zn198 O197 1.899 . S
Zn198 O199 2.032 . S
Zn198 O202 2.086 . S
Zn198 O207 1.977 . S
O199 Zn198 2.032 . S
O199 C203 1.278 . S
C200 O201 1.203 . S
C200 O207 1.267 . S
O201 C200 1.203 . S
O202 C195 1.185 . S
O202 Zn198 2.086 . S
C203 O199 1.278 . S
C203 O204 1.211 . S
O204 C203 1.211 . S
C205 O197 1.284 . S
C205 O206 1.273 . S
O206 C205 1.273 . S
O207 Zn198 1.977 . S
O207 C200 1.267 . S
C208 O209 1.160 . S
C208 O215 1.185 . S
O209 C208 1.160 . S
O210 Zn211 1.899 . S
O210 C218 1.284 . S
Zn211 O210 1.899 . S
Zn211 O212 2.032 . S
Zn211 O215 2.086 . S
Zn211 O220 1.977 . S
O212 Zn211 2.032 . S
O212 C216 1.278 . S
C213 O214 1.203 . S
C213 O220 1.267 . S
O214 C213 1.203 . S
O215 C208 1.185 . S
O215 Zn211 2.086 . S
C216 O212 1.278 . S
C216 O217 1.211 . S
O217 C216 1.211 . S
C218 O210 1.284 . S
C218 O219 1.273 . S
O219 C218 1.273 . S
O220 Zn211 1.977 . S
O220 C213 1.267 . S
C221 O222 1.160 . S
C221 O228 1.185 . S
O222 C221 1.160 . S
O223 Zn224 1.899 . S
O223 C231 1.284 . S
Zn224 O223 1.899 . S
Zn224 O225 2.032 . S
Zn224 O228 2.086 . S
Zn224 O233 1.977 . S
O225 Zn224 2.032 . S
O225 C229 1.278 . S
C226 O227 1.203 . S
C226 O233 1.267 . S
O227 C226 1.203 . S
O228 C221 1.185 . S
O228 Zn224 2.086 . S
C229 O225 1.278 . S
C229 O230 1.211 . S
O230 C229 1.211 . S
C231 O223 1.284 . S
C231 O232 1.273 . S
O232 C231 1.273 . S
O233 Zn224 1.977 . S
O233 C226 1.267 . S
C234 O235 1.160 . S
C234 O241 1.185 . S
O235 C234 1.160 . S
O236 Zn237 1.899 . S
O236 C244 1.284 . S
Zn237 O236 1.899 . S
Zn237 O238 2.032 . S
Zn237 O241 2.086 . S
Zn237 O246 1.977 . S
O238 Zn237 2.032 . S
O238 C242 1.278 . S
C239 O240 1.203 . S
C239 O246 1.267 . S
O240 C239 1.203 . S
O241 C234 1.185 . S
O241 Zn237 2.086 . S
C242 O238 1.278 . S
C242 O243 1.211 . S
O243 C242 1.211 . S
C244 O236 1.284 . S
C244 O245 1.273 . S
O245 C244 1.273 . S
O246 Zn237 1.977 . S
O246 C239 1.267 . S
C247 O248 1.160 . S
C247 O254 1.185 . S
O248 C247 1.160 . S
O249 Zn250 1.899 . S
O249 C257 1.284 . S
Zn250 O249 1.899 . S
Zn250 O251 2.032 . S
Zn250 O254 2.086 . S
Zn250 O259 1.977 . S
O251 Zn250 2.032 . S
O251 C255 1.278 . S
C252 O253 1.203 . S
C252 O259 1.267 . S
O253 C252 1.203 . S
O254 C247 1.185 . S
O254 Zn250 2.086 . S
C255 O251 1.278 . S
C255 O256 1.211 . S
O256 C255 1.211 . S
C257 O249 1.284 . S
C257 O258 1.273 . S
O258 C257 1.273 . S
O259 Zn250 1.977 . S
O259 C252 1.267 . S
C260 O261 1.160 . S
C260 O267 1.185 . S
O261 C260 1.160 . S
O262 Zn263 1.899 . S
O262 C270 1.284 . S
Zn263 O262 1.899 . S
Zn263 O264 2.032 . S
Zn263 O267 2.086 . S
Zn263 O272 1.977 . S
O264 Zn263 2.032 . S
O264 C268 1.278 . S
C265 O266 1.203 . S
C265 O272 1.267 . S
O266 C265 1.203 . S
O267 C260 1.185 . S
O267 Zn263 2.086 . S
C268 O264 1.278 . S
C268 O269 1.211 . S
O269 C268 1.211 . S
C270 O262 1.284 . S
C270 O271 1.273 . S
O271 C270 1.273 . S
O272 Zn263 1.977 . S
O272 C265 1.267 . S
C273 O274 1.160 . S
C273 O280 1.185 . S
O274 C273 1.160 . S
O275 Zn276 1.899 . S
O275 C283 1.284 . S
Zn276 O275 1.899 . S
Zn276 O277 2.032 . S
Zn276 O280 2.086 . S
Zn276 O285 1.977 . S
O277 Zn276 2.032 . S
O277 C281 1.278 . S
C278 O279 1.203 . S
C278 O285 1.267 . S
O279 C278 1.203 . S
O280 C273 1.185 . S
O280 Zn276 2.086 . S
C281 O277 1.278 . S
C281 O282 1.211 . S
O282 C281 1.211 . S
C283 O275 1.284 . S
C283 O284 1.273 . S
O284 C283 1.273 . S
O285 Zn276 1.977 . S
O285 C278 1.267 . S
C286 O287 1.160 . S
C286 O293 1.185 . S
O287 C286 1.160 . S
O288 Zn289 1.899 . S
O288 C296 1.284 . S
Zn289 O288 1.899 . S
Zn289 O290 2.032 . S
Zn289 O293 2.086 . S
Zn289 O298 1.977 . S
O290 Zn289 2.032 . S
O290 C294 1.278 . S
C291 O292 1.203 . S
C291 O298 1.267 . S
O292 C291 1.203 . S
O293 C286 1.185 . S
O293 Zn289 2.086 . S
C294 O290 1.278 . S
C294 O295 1.211 . S
O295 C294 1.211 . S
C296 O288 1.284 . S
C296 O297 1.273 . S
O297 C296 1.273 . S
O298 Zn289 1.977 . S
O298 C291 1.267 . S
C299 O300 1.160 . S
C299 O306 1.185 . S
O300 C299 1.160 . S
O301 Zn302 1.899 . S
O301 C309 1.284 . S
Zn302 O301 1.899 . S
Zn302 O303 2.032 . S
Zn302 O306 2.086 . S
Zn302 O311 1.977 . S
O303 Zn302 2.032 . S
O303 C307 1.278 . S
C304 O305 1.203 . S
C304 O311 1.267 . S
O305 C304 1.203 . S
O306 C299 1.185 . S
O306 Zn302 2.086 . S
C307 O303 1.278 . S
C307 O308 1.211 . S
O308 C307 1.211 . S
C309 O301 1.284 . S
C309 O310 1.273 . S
O310 C309 1.273 . S
O311 Zn302 1.977 . S
O311 C304 1.267 . S
C312 O313 1.160 . S
C312 O319 1.185 . S
O313 C312 1.160 . S
O314 Zn315 1.899 . S
O314 C322 1.284 . S
Zn315 O314 1.899 . S
Zn315 O316 2.032 . S
Zn315 O319 2.086 . S
Zn315 O324 1.977 . S
O316 Zn315 2.032 . S
O316 C320 1.278 . S
C317 O318 1.203 . S
C317 O324 1.267 . S
O318 C317 1.203 . S
O319 C312 1.185 . S
O319 Zn315 2.086 . S
C320 O316 1.278 . S
C320 O321 1.211 . S
O321 C320 1.211 . S
C322 O314 1.284 . S
C322 O323 1.273 . S
O323 C322 1.273 . S
O324 Zn315 1.977 . S
O324 C317 1.267 . S
C325 O326 1.160 . S
C325 O332 1.185 . S
O326 C325 1.160 . S
O327 Zn328 1.899 . S
O327 C335 1.284 . S
Zn328 O327 1.899 . S
Zn328 O329 2.032 . S
Zn328 O332 2.086 . S
Zn328 O337 1.977 . S
O329 Zn328 2.032 . S
O329 C333 1.278 . S
C330 O331 1.203 . S
C330 O337 1.267 . S
O331 C330 1.203 . S
O332 C325 1.185 . S
O332 Zn328 2.086 . S
C333 O329 1.278 . S
C333 O334 1.211 . S
O334 C333 1.211 . S
C335 O327 1.284 . S
C335 O336 1.273 . S
O336 C335 1.273 . S
O337 Zn328 1.977 . S
O337 C330 1.267 . S
C338 O339 1.160 . S
C338 O345 1.185 . S
O339 C338 1.160 . S
O340 Zn341 1.899 . S
O340 C348 1.284 . S
Zn341 O340 1.899 . S
Zn341 O342 2.032 . S
Zn341 O345 2.086 . S
Zn341 O350 1.977 . S
O342 Zn341 2.032 . S
O342 C346 1.278 . S
C343 O344 1.203 . S
C343 O350 1.267 . S
O344 C343 1.203 . S
O345 C338 1.185 . S
O345 Zn341 2.086 . S
C346 O342 1.278 . S
C346 O347 1.211 . S
O347 C346 1.211 . S
C348 O340 1.284 . S
C348 O349 1.273 . S
O349 C348 1.273 . S
O350 Zn341 1.977 . S
O350 C343 1.267 . S
C351 O352 1.160 . S
C351 O358 1.185 . S
O352 C351 1.160 . S
O353 Zn354 1.899 . S
O353 C361 1.284 . S
Zn354 O353 1.899 . S
Zn354 O355 2.032 . S
Zn354 O358 2.086 . S
Zn354 O363 1.977 . S
O355 Zn354 2.032 . S
O355 C359 1.278 . S
C356 O357 1.203 . S
C356 O363 1.267 . S
O357 C356 1.203 . S
O358 C351 1.185 . S
O358 Zn354 2.086 . S
C359 O355 1.278 . S
C359 O360 1.211 . S
O360 C359 1.211 . S
C361 O353 1.284 . S
C361 O362 1.273 . S
O362 C361 1.273 . S
O363 Zn354 1.977 . S
O363 C356 1.267 . S
C364 O365 1.160 . S
C364 O371 1.185 . S
O365 C364 1.160 . S
O366 Zn367 1.899 . S
O366 C374 1.284 . S
Zn367 O366 1.899 . S
Zn367 O368 2.032 . S
Zn367 O371 2.086 . S
Zn367 O376 1.977 . S
O368 Zn367 2.032 . S
O368 C372 1.278 . S
C369 O370 1.203 . S
C369 O376 1.267 . S
O370 C369 1.203 . S
O371 C364 1.185 . S
O371 Zn367 2.086 . S
C372 O368 1.278 . S
C372 O373 1.211 . S
O373 C372 1.211 . S
C374 O366 1.284 . S
C374 O375 1.273 . S
O375 C374 1.273 . S
O376 Zn367 1.977 . S
O376 C369 1.267 . S
C377 O378 1.160 . S
C377 O384 1.185 . S
O378 C377 1.160 . S
O379 Zn380 1.899 . S
O379 C387 1.284 . S
Zn380 O379 1.899 . S
Zn380 O381 2.032 . S
Zn380 O384 2.086 . S
Zn380 O389 1.977 . S
O381 Zn380 2.032 . S
O381 C385 1.278 . S
C382 O383 1.203 . S
C382 O389 1.267 . S
O383 C382 1.203 . S
O384 C377 1.185 . S
O384 Zn380 2.086 . S
C385 O381 1.278 . S
C385 O386 1.211 . S
O386 C385 1.211 . S
C387 O379 1.284 . S
C387 O388 1.273 . S
O388 C387 1.273 . S
O389 Zn380 1.977 . S
O389 C382 1.267 . S
C390 O391 1.160 . S
C390 O397 1.185 . S
O391 C390 1.160 . S
O392 Zn393 1.899 . S
O392 C400 1.284 . S
Zn393 O392 1.899 . S
Zn393 O394 2.032 . S
Zn393 O397 2.086 . S
Zn393 O402 1.977 . S
O394 Zn393 2.032 . S
O394 C398 1.278 . S
C395 O396 1.203 . S
C395 O402 1.267 . S
O396 C395 1.203 . S
O397 C390 1.185 . S
O397 Zn393 2.086 . S
C398 O394 1.278 . S
C398 O399 1.211 . S
O399 C398 1.211 . S
C400 O392 1.284 . S
C400 O401 1.273 . S
O401 C400 1.273 . S
O402 Zn393 1.977 . S
O402 C395 1.267 . S
C403 O404 1.160 . S
C403 O410 1.185 . S
O404 C403 1.160 . S
O405 Zn406 1.899 . S
O405 C413 1.284 . S
Zn406 O405 1.899 . S
Zn406 O407 2.032 . S
Zn406 O410 2.086 . S
Zn406 O415 1.977 . S
O407 Zn406 2.032 . S
O407 C411 1.278 . S
C408 O409 1.203 . S
C408 O415 1.267 . S
O409 C408 1.203 . S
O410 C403 1.185 . S
O410 Zn406 2.086 . S
C411 O407 1.278 . S
C411 O412 1.211 . S
O412 C411 1.211 . S
C413 O405 1.284 . S
C413 O414 1.273 . S
O414 C413 1.273 . S
O415 Zn406 1.977 . S
O415 C408 1.267 . S
C416 O417 1.160 . S
C416 O423 1.185 . S
O417 C416 1.160 . S
O418 Zn419 1.899 . S
O418 C426 1.284 . S
Zn419 O418 1.899 . S
Zn419 O420 2.032 . S
Zn419 O423 2.086 . S
Zn419 O428 1.977 . S
O420 Zn419 2.032 . S
O420 C424 1.278 . S
C421 O422 1.203 . S
C421 O428 1.267 . S
O422 C421 1.203 . S
O423 C416 1.185 . S
O423 Zn419 2.086 . S
C424 O420 1.278 . S
C424 O425 1.211 . S
O425 C424 1.211 . S
C426 O418 1.284 . S
C426 O427 1.273 . S
O427 C426 1.273 . S
O428 Zn419 1.977 . S
O428 C421 1.267 . S
C429 O430 1.160 . S
C429 O436 1.185 . S
O430 C429 1.160 . S
O431 Zn432 1.899 . S
O431 C439 1.284 . S
Zn432 O431 1.899 . S
Zn432 O433 2.032 . S
Zn432 O436 2.086 . S
Zn432 O441 1.977 . S
O433 Zn432 2.032 . S
O433 C437 1.278 . S
C434 O435 1.203 . S
C434 O441 1.267 . S
O435 C434 1.203 . S
O436 C429 1.185 . S
O436 Zn432 2.086 . S
C437 O433 1.278 . S
C437 O438 1.211 . S
O438 C437 1.211 . S
C439 O431 1.284 . S
C439 O440 1.273 . S
O440 C439 1.273 . S
O441 Zn432 1.977 . S
O441 C434 1.267 . S
C442 O443 1.160 . S
C442 O449 1.185 . S
O443 C442 1.160 . S
O444 Zn445 1.899 . S
O444 C452 1.284 . S
Zn445 O444 1.899 . S
Zn445 O446 2.032 . S
Zn445 O449 2.086 . S
Zn445 O454 1.977 . S
O446 Zn445 2.032 . S
O446 C450 1.278 . S
C447 O448 1.203 . S
C447 O454 1.267 . S
O448 C447 1.203 . S
O449 C442 1.185 . S
O449 Zn445 2.086 . S
C450 O446 1.278 . S
C450 O451 1.211 . S
O451 C450 1.211 . S
C452 O444 1.284 . S
C452 O453 1.273 . S
O453 C452 1.273 . S
O454 Zn445 1.977 . S
O454 C447 1.267 . S
C455 O456 1.160 . S
C455 O462 1.185 . S
O456 C455 1.160 . S
O457 Zn458 1.899 . S
O457 C465 1.284 . S
Zn458 O457 1.899 . S
Zn458 O459 2.032 . S
Zn458 O462 2.086 . S
Zn458 O467 1.977 . S
O459 Zn458 2.032 . S
O459 C463 1.278 . S
C460 O461 1.203 . S
C460 O467 1.267 . S
O461 C460 1.203 . S
O462 C455 1.185 . S
O462 Zn458 2.086 . S
C463 O459 1.278 . S
C463 O464 1.211 . S
O464 C463 1.211 . S
C465 O457 1.284 . S
C465 O466 1.273 . S
O466 C465 1.273 . S
O467 Zn458 1.977 . S
O467 C460 1.267 . S
C468 O469 1.160 . S
C468 O475 1.185 . S
O469 C468 1.160 . S
O470 Zn471 1.899 . S
O470 C478 1.284 . S
Zn471 O470 1.899 . S
Zn471 O472 2.032 . S
Zn471 O475 2.086 . S
Zn471 O480 1.977 . S
O472 Zn471 2.032 . S
O472 C476 1.278 . S
C473 O474 1.203 . S
C473 O480 1.267 . S
O474 C473 1.203 . S
O475 C468 1.185 . S
O475 Zn471 2.086 . S
C476 O472 1.278 . S
C476 O477 1.211 . S
O477 C476 1.211 . S
C478 O470 1.284 . S
C478 O479 1.273 . S
O479 C478 1.273 . S
O480 Zn471 1.977 . S
O480 C473 1.267 . S
C481 O482 1.160 . S
C481 O488 1.185 . S
O482 C481 1.160 . S
O483 Zn484 1.899 . S
O483 C491 1.284 . S
Zn484 O483 1.899 . S
Zn484 O485 2.032 . S
Zn484 O488 2.086 . S
Zn484 O493 1.977 . S
O485 Zn484 2.032 . S
O485 C489 1.278 . S
C486 O487 1.203 . S
C486 O493 1.267 . S
O487 C486 1.203 . S
O488 C481 1.185 . S
O488 Zn484 2.086 . S
C489 O485 1.278 . S
C489 O490 1.211 . S
O490 C489 1.211 . S
C491 O483 1.284 . S
C491 O492 1.273 . S
O492 C491 1.273 . S
O493 Zn484 1.977 . S
O493 C486 1.267 . S
C494 O495 1.160 . S
C494 O501 1.185 . S
O495 C494 1.160 . S
O496 Zn497 1.899 . S
O496 C504 1.284 . S
Zn497 O496 1.899 . S
Zn497 O498 2.032 . S
Zn497 O501 2.086 . S
Zn497 O506 1.977 . S
O498 Zn497 2.032 . S
O498 C502 1.278 . S
C499 O500 1.203 . S
C499 O506 1.267 . S
O500 C499 1.203 . S
O501 C494 1.185 . S
O501 Zn497 2.086 . S
C502 O498 1.278 . S
C502 O503 1.211 . S
O503 C502 1.211 . S
C504 O496 1.284 . S
C504 O505 1.273 . S
O505 C504 1.273 . S
O506 Zn497 1.977 . S
O506 C499 1.267 . S
C507 O508 1.160 . S
C507 O514 1.185 . S
O508 C507 1.160 . S
O509 Zn510 1.899 . S
O509 C517 1.284 . S
Zn510 O509 1.899 . S
Zn510 O511 2.032 . S
Zn510 O514 2.086 . S
Zn510 O519 1.977 . S
O511 Zn510 2.032 . S
O511 C515 1.278 . S
C512 O513 1.203 . S
C512 O519 1.267 . S
O513 C512 1.203 . S
O514 C507 1.185 . S
O514 Zn510 2.086 . S
C515 O511 1.278 . S
C515 O516 1.211 . S
O516 C515 1.211 . S
C517 O509 1.284 . S
C517 O518 1.273 . S
O518 C517 1.273 . S
O519 Zn510 1.977 . S
O519 C512 1.267 . S
C520 O521 1.160 . S
C520 O527 1.185 . S
O521 C520 1.160 . S
O522 Zn523 1.899 . S
O522 C530 1.284 . S
Zn523 O522 1.899 . S
Zn523 O524 2.032 . S
Zn523 O527 2.086 . S
Zn523 O532 1.977 . S
O524 Zn523 2.032 . S
O524 C528 1.278 . S
C525 O526 1.203 . S
C525 O532 1.267 . S
O526 C525 1.203 . S
O527 C520 1.185 . S
O527 Zn523 2.086 . S
C528 O524 1.278 . S
C528 O529 1.211 . S
O529 C528 1.211 . S
C530 O522 1.284 . S
C530 O531 1.273 . S
O531 C530 1.273 . S
O532 Zn523 1.977 . S
O532 C525 1.267 . S
C533 O534 1.160 . S
C533 O540 1.185 . S
O534 C533 1.160 . S
O535 Zn536 1.899 . S
O535 C543 1.284 . S
Zn536 O535 1.899 . S
Zn536 O537 2.032 . S
Zn536 O540 2.086 . S
Zn536 O545 1.977 . S
O537 Zn536 2.032 . S
O537 C541 1.278 . S
C538 O539 1.203 . S
C538 O545 1.267 . S
O539 C538 1.203 . S
O540 C533 1.185 . S
O540 Zn536 2.086 . S
C541 O537 1.278 . S
C541 O542 1.211 . S
O542 C541 1.211 . S
C543 O535 1.284 . S
C543 O544 1.273 . S
O544 C543 1.273 . S
O545 Zn536 1.977 . S
O545 C538 1.267 . S
C546 O547 1.160 . S
C546 O553 1.185 . S
O547 C546 1.160 . S
O548 Zn549 1.899 . S
O548 C556 1.284 . S
Zn549 O548 1.899 . S
Zn549 O550 2.032 . S
Zn549 O553 2.086 . S
Zn549 O558 1.977 . S
O550 Zn549 2.032 . S
O550 C554 1.278 . S
C551 O552 1.203 . S
C551 O558 1.267 . S
O552 C551 1.203 . S
O553 C546 1.185 . S
O553 Zn549 2.086 . S
C554 O550 1.278 . S
C554 O555 1.211 . S
O555 C554 1.211 . S
C556 O548 1.284 . S
C556 O557 1.273 . S
O557 C556 1.273 . S
O558 Zn549 1.977 . S
O558 C551 1.267 . S
C559 O560 1.160 . S
C559 O566 1.185 . S
O560 C559 1.160 . S
O561 Zn562 1.899 . S
O561 C569 1.284 . S
Zn562 O561 1.899 . S
Zn562 O563 2.032 . S
Zn562 O566 2.086 . S
Zn562 O571 1.977 . S
O563 Zn562 2.032 . S
O563 C567 1.278 . S
C564 O565 1.203 . S
C564 O571 1.267 . S
O565 C564 1.203 . S
O566 C559 1.185 . S
O566 Zn562 2.086 . S
C567 O563 1.278 . S
C567 O568 1.211 . S
O568 C567 1.211 . S
C569 O561 1.284 . S
C569 O570 1.273 . S
O570 C569 1.273 . S
O571 Zn562 1.977 . S
O571 C564 1.267 . S
C572 O573 1.160 . S
C572 O579 1.185 . S
O573 C572 1.160 . S
O574 Zn575 1.899 . S
O574 C582 1.284 . S
Zn575 O574 1.899 . S
Zn575 O576 2.032 . S
Zn575 O579 2.086 . S
Zn575 O584 1.977 . S
O576 Zn575 2.032 . S
O576 C580 1.278 . S
C577 O578 1.203 . S
C577 O584 1.267 . S
O578 C577 1.203 . S
O579 C572 1.185 . S
O579 Zn575 2.086 . S
C580 O576 1.278 . S
C580 O581 1.211 . S
O581 C580 1.211 . S
C582 O574 1.284 . S
C582 O583 1.273 . S
O583 C582 1.273 . S
O584 Zn575 1.977 . S
O584 C577 1.267 . S
C585 O586 1.160 . S
C585 O592 1.185 . S
O586 C585 1.160 . S
O587 Zn588 1.899 . S
O587 C595 1.284 . S
Zn588 O587 1.899 . S
Zn588 O589 2.032 . S
Zn588 O592 2.086 . S
Zn588 O597 1.977 . S
O589 Zn588 2.032 . S
O589 C593 1.278 . S
C590 O591 1.203 . S
C590 O597 1.267 . S
O591 C590 1.203 . S
O592 C585 1.185 . S
O592 Zn588 2.086 . S
C593 O589 1.278 . S
C593 O594 1.211 . S
O594 C593 1.211 . S
C595 O587 1.284 . S
C595 O596 1.273 . S
O596 C595 1.273 . S
O597 Zn588 1.977 . S
O597 C590 1.267 . S
C598 O599 1.160 . S
C598 O605 1.185 . S
O599 C598 1.160 . S
O600 Zn601 1.899 . S
O600 C608 1.284 . S
Zn601 O600 1.899 . S
Zn601 O602 2.032 . S
Zn601 O605 2.086 . S
Zn601 O610 1.977 . S
O602 Zn601 2.032 . S
O602 C606 1.278 . S
C603 O604 1.203 . S
C603 O610 1.267 . S
O604 C603 1.203 . S
O605 C598 1.185 . S
O605 Zn601 2.086 . S
C606 O602 1.278 . S
C606 O607 1.211 . S
O607 C606 1.211 . S
C608 O600 1.284 . S
C608 O609 1.273 . S
O609 C608 1.273 . S
O610 Zn601 1.977 . S
O610 C603 1.267 . S
C611 O612 1.160 . S
C611 O618 1.185 . S
O612 C611 1.160 . S
O613 Zn614 1.899 . S
O613 C621 1.284 . S
Zn614 O613 1.899 . S
Zn614 O615 2.032 . S
Zn614 O618 2.086 . S
Zn614 O623 1.977 . S
O615 Zn614 2.032 . S
O615 C619 1.278 . S
C616 O617 1.203 . S
C616 O623 1.267 . S
O617 C616 1.203 . S
O618 C611 1.185 . S
O618 Zn614 2.086 . S
C619 O615 1.278 . S
C619 O620 1.211 . S
O620 C619 1.211 . S
C621 O613 1.284 . S
C621 O622 1.273 . S
O622 C621 1.273 . S
O623 Zn614 1.977 . S
O623 C616 1.267 . S
C624 C625 1.387 . S
C624 H628 0.950 . S
C624 C633 1.390 1_655 S
C625 C624 1.387 . S
C625 C627 1.387 . S
H626 C633 0.950 . S
C627 C625 1.387 . S
C627 C629 1.390 1_655 S
C627 H631 0.950 . S
H628 C624 0.950 . S
C629 C627 1.390 1_455 S
C629 C630 1.387 . S
C629 H632 0.950 . S
C630 C629 1.387 . S
C630 C633 1.387 . S
H631 C627 0.950 . S
H632 C629 0.950 . S
C633 C624 1.390 1_455 S
C633 H626 0.950 . S
C633 C630 1.387 . S
C634 C635 1.387 . S
C634 H638 0.950 . S
C634 C643 1.390 . S
C635 C634 1.387 . S
C635 C637 1.387 . S
H636 C643 0.950 . S
C637 C635 1.387 . S
C637 C639 1.390 . S
C637 H641 0.950 . S
H638 C634 0.950 . S
C639 C637 1.390 . S
C639 C640 1.387 . S
C639 H642 0.950 . S
C640 C639 1.387 . S
C640 C643 1.387 . S
H641 C637 0.950 . S
H642 C639 0.950 . S
C643 C634 1.390 . S
C643 H636 0.950 . S
C643 C640 1.387 . S
C644 C645 1.387 . S
C644 H648 0.950 . S
C644 C653 1.390 1_455 S
C645 C644 1.387 . S
C645 C647 1.387 . S
H646 C653 0.950 . S
C647 C645 1.387 . S
C647 C649 1.390 1_455 S
C647 H651 0.950 . S
H648 C644 0.950 . S
C649 C647 1.390 1_655 S
C649 C650 1.387 . S
C649 H652 0.950 . S
C650 C649 1.387 . S
C650 C653 1.387 . S
H651 C647 0.950 . S
H652 C649 0.950 . S
C653 C644 1.390 1_655 S
C653 H646 0.950 . S
C653 C650 1.387 . S
C654 C655 1.387 . S
C654 H658 0.950 . S
C654 C663 1.390 . S
C655 C654 1.387 . S
C655 C657 1.387 . S
H656 C663 0.950 . S
C657 C655 1.387 . S
C657 C659 1.390 . S
C657 H661 0.950 . S
H658 C654 0.950 . S
C659 C657 1.390 . S
C659 C660 1.387 . S
C659 H662 0.950 . S
C660 C659 1.387 . S
C660 C663 1.387 . S
H661 C657 0.950 . S
H662 C659 0.950 . S
C663 C654 1.390 . S
C663 H656 0.950 . S
C663 C660 1.387 . S
C664 C665 1.387 . S
C664 H668 0.950 . S
C664 C673 1.390 1_655 S
C665 C664 1.387 . S
C665 C667 1.387 . S
H666 C673 0.950 . S
C667 C665 1.387 . S
C667 C669 1.390 1_655 S
C667 H671 0.950 . S
H668 C664 0.950 . S
C669 C667 1.390 1_455 S
C669 C670 1.387 . S
C669 H672 0.950 . S
C670 C669 1.387 . S
C670 C673 1.387 . S
H671 C667 0.950 . S
H672 C669 0.950 . S
C673 C664 1.390 1_455 S
C673 H666 0.950 . S
C673 C670 1.387 . S
C674 C675 1.387 . S
C674 H678 0.950 . S
C674 C683 1.390 . S
C675 C674 1.387 . S
C675 C677 1.387 . S
H676 C683 0.950 . S
C677 C675 1.387 . S
C677 C679 1.390 . S
C677 H681 0.950 . S
H678 C674 0.950 . S
C679 C677 1.390 . S
C679 C680 1.387 . S
C679 H682 0.950 . S
C680 C679 1.387 . S
C680 C683 1.387 . S
H681 C677 0.950 . S
H682 C679 0.950 . S
C683 C674 1.390 . S
C683 H676 0.950 . S
C683 C680 1.387 . S
C684 C685 1.387 . S
C684 H688 0.950 . S
C684 C693 1.390 1_455 S
C685 C684 1.387 . S
C685 C687 1.387 . S
H686 C693 0.950 . S
C687 C685 1.387 . S
C687 C689 1.390 1_455 S
C687 H691 0.950 . S
H688 C684 0.950 . S
C689 C687 1.390 1_655 S
C689 C690 1.387 . S
C689 H692 0.950 . S
C690 C689 1.387 . S
C690 C693 1.387 . S
H691 C687 0.950 . S
H692 C689 0.950 . S
C693 C684 1.390 1_655 S
C693 H686 0.950 . S
C693 C690 1.387 . S
C694 C695 1.387 . S
C694 H698 0.950 . S
C694 C703 1.390 . S
C695 C694 1.387 . S
C695 C697 1.387 . S
H696 C703 0.950 . S
C697 C695 1.387 . S
C697 C699 1.390 . S
C697 H701 0.950 . S
H698 C694 0.950 . S
C699 C697 1.390 . S
C699 C700 1.387 . S
C699 H702 0.950 . S
C700 C699 1.387 . S
C700 C703 1.387 . S
H701 C697 0.950 . S
H702 C699 0.950 . S
C703 C694 1.390 . S
C703 H696 0.950 . S
C703 C700 1.387 . S
C704 C705 1.387 . S
C704 H708 0.950 . S
C704 C713 1.390 1_565 S
C705 C704 1.387 . S
C705 C707 1.387 . S
H706 C713 0.950 . S
C707 C705 1.387 . S
C707 C709 1.390 1_565 S
C707 H711 0.950 . S
H708 C704 0.950 . S
C709 C707 1.390 1_545 S
C709 C710 1.387 . S
C709 H712 0.950 . S
C710 C709 1.387 . S
C710 C713 1.387 . S
H711 C707 0.950 . S
H712 C709 0.950 . S
C713 C704 1.390 1_545 S
C713 H706 0.950 . S
C713 C710 1.387 . S
C714 C715 1.387 . S
C714 H718 0.950 . S
C714 C723 1.390 . S
C715 C714 1.387 . S
C715 C717 1.387 . S
H716 C723 0.950 . S
C717 C715 1.387 . S
C717 C719 1.390 . S
C717 H721 0.950 . S
H718 C714 0.950 . S
C719 C717 1.390 . S
C719 C720 1.387 . S
C719 H722 0.950 . S
C720 C719 1.387 . S
C720 C723 1.387 . S
H721 C717 0.950 . S
H722 C719 0.950 . S
C723 C714 1.390 . S
C723 H716 0.950 . S
C723 C720 1.387 . S
C724 C725 1.387 . S
C724 H728 0.950 . S
C724 C733 1.390 1_545 S
C725 C724 1.387 . S
C725 C727 1.387 . S
H726 C733 0.950 . S
C727 C725 1.387 . S
C727 C729 1.390 1_545 S
C727 H731 0.950 . S
H728 C724 0.950 . S
C729 C727 1.390 1_565 S
C729 C730 1.387 . S
C729 H732 0.950 . S
C730 C729 1.387 . S
C730 C733 1.387 . S
H731 C727 0.950 . S
H732 C729 0.950 . S
C733 C724 1.390 1_565 S
C733 H726 0.950 . S
C733 C730 1.387 . S
C734 C735 1.387 . S
C734 H738 0.950 . S
C734 C743 1.390 . S
C735 C734 1.387 . S
C735 C737 1.387 . S
H736 C743 0.950 . S
C737 C735 1.387 . S
C737 C739 1.390 . S
C737 H741 0.950 . S
H738 C734 0.950 . S
C739 C737 1.390 . S
C739 C740 1.387 . S
C739 H742 0.950 . S
C740 C739 1.387 . S
C740 C743 1.387 . S
H741 C737 0.950 . S
H742 C739 0.950 . S
C743 C734 1.390 . S
C743 H736 0.950 . S
C743 C740 1.387 . S
C744 C745 1.387 . S
C744 H748 0.950 . S
C744 C753 1.390 1_545 S
C745 C744 1.387 . S
C745 C747 1.387 . S
H746 C753 0.950 . S
C747 C745 1.387 . S
C747 C749 1.390 1_545 S
C747 H751 0.950 . S
H748 C744 0.950 . S
C749 C747 1.390 1_565 S
C749 C750 1.387 . S
C749 H752 0.950 . S
C750 C749 1.387 . S
C750 C753 1.387 . S
H751 C747 0.950 . S
H752 C749 0.950 . S
C753 C744 1.390 1_565 S
C753 H746 0.950 . S
C753 C750 1.387 . S
C754 C755 1.387 . S
C754 H758 0.950 . S
C754 C763 1.390 . S
C755 C754 1.387 . S
C755 C757 1.387 . S
H756 C763 0.950 . S
C757 C755 1.387 . S
C757 C759 1.390 . S
C757 H761 0.950 . S
H758 C754 0.950 . S
C759 C757 1.390 . S
C759 C760 1.387 . S
C759 H762 0.950 . S
C760 C759 1.387 . S
C760 C763 1.387 . S
H761 C757 0.950 . S
H762 C759 0.950 . S
C763 C754 1.390 . S
C763 H756 0.950 . S
C763 C760 1.387 . S
C764 C765 1.387 . S
C764 H768 0.950 . S
C764 C773 1.390 1_545 S
C765 C764 1.387 . S
C765 C767 1.387 . S
H766 C773 0.950 . S
C767 C765 1.387 . S
C767 C769 1.390 1_545 S
C767 H771 0.950 . S
H768 C764 0.950 . S
C769 C767 1.390 1_565 S
C769 C770 1.387 . S
C769 H772 0.950 . S
C770 C769 1.387 . S
C770 C773 1.387 . S
H771 C767 0.950 . S
H772 C769 0.950 . S
C773 C764 1.390 1_565 S
C773 H766 0.950 . S
C773 C770 1.387 . S
C774 C775 1.387 . S
C774 H778 0.950 . S
C774 C783 1.390 . S
C775 C774 1.387 . S
C775 C777 1.387 . S
H776 C783 0.950 . S
C777 C775 1.387 . S
C777 C779 1.390 . S
C777 H781 0.950 . S
H778 C774 0.950 . S
C779 C777 1.390 . S
C779 C780 1.387 . S
C779 H782 0.950 . S
C780 C779 1.387 . S
C780 C783 1.387 . S
H781 C777 0.950 . S
H782 C779 0.950 . S
C783 C774 1.390 . S
C783 H776 0.950 . S
C783 C780 1.387 . S
C784 C785 1.387 . S
C784 H788 0.950 . S
C784 C793 1.390 1_554 S
C785 C784 1.387 . S
C785 C787 1.387 . S
H786 C793 0.950 . S
C787 C785 1.387 . S
C787 C789 1.390 1_554 S
C787 H791 0.950 . S
H788 C784 0.950 . S
C789 C787 1.390 1_556 S
C789 C790 1.387 . S
C789 H792 0.950 . S
C790 C789 1.387 . S
C790 C793 1.387 . S
H791 C787 0.950 . S
H792 C789 0.950 . S
C793 C784 1.390 1_556 S
C793 H786 0.950 . S
C793 C790 1.387 . S
C794 C795 1.387 . S
C794 H798 0.950 . S
C794 C803 1.390 1_554 S
C795 C794 1.387 . S
C795 C797 1.387 . S
H796 C803 0.950 . S
C797 C795 1.387 . S
C797 C799 1.390 1_554 S
C797 H801 0.950 . S
H798 C794 0.950 . S
C799 C797 1.390 1_556 S
C799 C800 1.387 . S
C799 H802 0.950 . S
C800 C799 1.387 . S
C800 C803 1.387 . S
H801 C797 0.950 . S
H802 C799 0.950 . S
C803 C794 1.390 1_556 S
C803 H796 0.950 . S
C803 C800 1.387 . S
C804 C805 1.387 . S
C804 H808 0.950 . S
C804 C813 1.390 . S
C805 C804 1.387 . S
C805 C807 1.387 . S
H806 C813 0.950 . S
C807 C805 1.387 . S
C807 C809 1.390 . S
C807 H811 0.950 . S
H808 C804 0.950 . S
C809 C807 1.390 . S
C809 C810 1.387 . S
C809 H812 0.950 . S
C810 C809 1.387 . S
C810 C813 1.387 . S
H811 C807 0.950 . S
H812 C809 0.950 . S
C813 C804 1.390 . S
C813 H806 0.950 . S
C813 C810 1.387 . S
C814 C815 1.387 . S
C814 H818 0.950 . S
C814 C823 1.390 1_554 S
C815 C814 1.387 . S
C815 C817 1.387 . S
H816 C823 0.950 . S
C817 C815 1.387 . S
C817 C819 1.390 1_554 S
C817 H821 0.950 . S
H818 C814 0.950 . S
C819 C817 1.390 1_556 S
C819 C820 1.387 . S
C819 H822 0.950 . S
C820 C819 1.387 . S
C820 C823 1.387 . S
H821 C817 0.950 . S
H822 C819 0.950 . S
C823 C814 1.390 1_556 S
C823 H816 0.950 . S
C823 C820 1.387 . S
C824 C825 1.387 . S
C824 H828 0.950 . S
C824 C833 1.390 . S
C825 C824 1.387 . S
C825 C827 1.387 . S
H826 C833 0.950 . S
C827 C825 1.387 . S
C827 C829 1.390 . S
C827 H831 0.950 . S
H828 C824 0.950 . S
C829 C827 1.390 . S
C829 C830 1.387 . S
C829 H832 0.950 . S
C830 C829 1.387 . S
C830 C833 1.387 . S
H831 C827 0.950 . S
H832 C829 0.950 . S
C833 C824 1.390 . S
C833 H826 0.950 . S
C833 C830 1.387 . S
C834 C835 1.387 . S
C834 H838 0.950 . S
C834 C843 1.390 1_554 S
C835 C834 1.387 . S
C835 C837 1.387 . S
H836 C843 0.950 . S
C837 C835 1.387 . S
C837 C839 1.390 1_554 S
C837 H841 0.950 . S
H838 C834 0.950 . S
C839 C837 1.390 1_556 S
C839 C840 1.387 . S
C839 H842 0.950 . S
C840 C839 1.387 . S
C840 C843 1.387 . S
H841 C837 0.950 . S
H842 C839 0.950 . S
C843 C834 1.390 1_556 S
C843 H836 0.950 . S
C843 C840 1.387 . S
C844 C845 1.387 . S
C844 H848 0.950 . S
C844 C853 1.390 . S
C845 C844 1.387 . S
C845 C847 1.387 . S
H846 C853 0.950 . S
C847 C845 1.387 . S
C847 C849 1.390 . S
C847 H851 0.950 . S
H848 C844 0.950 . S
C849 C847 1.390 . S
C849 C850 1.387 . S
C849 H852 0.950 . S
C850 C849 1.387 . S
C850 C853 1.387 . S
H851 C847 0.950 . S
H852 C849 0.950 . S
C853 C844 1.390 . S
C853 H846 0.950 . S
C853 C850 1.387 . S
C854 C855 1.387 . S
C854 H858 0.950 . S
C854 C863 1.390 . S
C855 C854 1.387 . S
C855 C857 1.387 . S
H856 C863 0.950 . S
C857 C855 1.387 . S
C857 C859 1.390 . S
C857 H861 0.950 . S
H858 C854 0.950 . S
C859 C857 1.390 . S
C859 C860 1.387 . S
C859 H862 0.950 . S
C860 C859 1.387 . S
C860 C863 1.387 . S
H861 C857 0.950 . S
H862 C859 0.950 . S
C863 C854 1.390 . S
C863 H856 0.950 . S
C863 C860 1.387 . S
C864 C865 1.387 . S
C864 H868 0.950 . S
C864 C873 1.390 . S
C865 C864 1.387 . S
C865 C867 1.387 . S
H866 C873 0.950 . S
C867 C865 1.387 . S
C867 C869 1.390 . S
C867 H871 0.950 . S
H868 C864 0.950 . S
C869 C867 1.390 . S
C869 C870 1.387 . S
C869 H872 0.950 . S
C870 C869 1.387 . S
C870 C873 1.387 . S
H871 C867 0.950 . S
H872 C869 0.950 . S
C873 C864 1.390 . S
C873 H866 0.950 . S
C873 C870 1.387 . S
C874 C875 1.387 . S
C874 H878 0.950 . S
C874 C883 1.390 . S
C875 C874 1.387 . S
C875 C877 1.387 . S
H876 C883 0.950 . S
C877 C875 1.387 . S
C877 C879 1.390 . S
C877 H881 0.950 . S
H878 C874 0.950 . S
C879 C877 1.390 . S
C879 C880 1.387 . S
C879 H882 0.950 . S
C880 C879 1.387 . S
C880 C883 1.387 . S
H881 C877 0.950 . S
H882 C879 0.950 . S
C883 C874 1.390 . S
C883 H876 0.950 . S
C883 C880 1.387 . S
C884 C885 1.387 . S
C884 H888 0.950 . S
C884 C893 1.390 . S
C885 C884 1.387 . S
C885 C887 1.387 . S
H886 C893 0.950 . S
C887 C885 1.387 . S
C887 C889 1.390 . S
C887 H891 0.950 . S
H888 C884 0.950 . S
C889 C887 1.390 . S
C889 C890 1.387 . S
C889 H892 0.950 . S
C890 C889 1.387 . S
C890 C893 1.387 . S
H891 C887 0.950 . S
H892 C889 0.950 . S
C893 C884 1.390 . S
C893 H886 0.950 . S
C893 C890 1.387 . S
C894 C895 1.387 . S
C894 H898 0.950 . S
C894 C903 1.390 . S
C895 C894 1.387 . S
C895 C897 1.387 . S
H896 C903 0.950 . S
C897 C895 1.387 . S
C897 C899 1.390 . S
C897 H901 0.950 . S
H898 C894 0.950 . S
C899 C897 1.390 . S
C899 C900 1.387 . S
C899 H902 0.950 . S
C900 C899 1.387 . S
C900 C903 1.387 . S
H901 C897 0.950 . S
H902 C899 0.950 . S
C903 C894 1.390 . S
C903 H896 0.950 . S
C903 C900 1.387 . S
C904 C905 1.387 . S
C904 H908 0.950 . S
C904 C913 1.390 . S
C905 C904 1.387 . S
C905 C907 1.387 . S
H906 C913 0.950 . S
C907 C905 1.387 . S
C907 C909 1.390 . S
C907 H911 0.950 . S
H908 C904 0.950 . S
C909 C907 1.390 . S
C909 C910 1.387 . S
C909 H912 0.950 . S
C910 C909 1.387 . S
C910 C913 1.387 . S
H911 C907 0.950 . S
H912 C909 0.950 . S
C913 C904 1.390 . S
C913 H906 0.950 . S
C913 C910 1.387 . S
C914 C915 1.387 . S
C914 H918 0.950 . S
C914 C923 1.390 . S
C915 C914 1.387 . S
C915 C917 1.387 . S
H916 C923 0.950 . S
C917 C915 1.387 . S
C917 C919 1.390 . S
C917 H921 0.950 . S
H918 C914 0.950 . S
C919 C917 1.390 . S
C919 C920 1.387 . S
C919 H922 0.950 . S
C920 C919 1.387 . S
C920 C923 1.387 . S
H921 C917 0.950 . S
H922 C919 0.950 . S
C923 C914 1.390 . S
C923 H916 0.950 . S
C923 C920 1.387 . S
C924 C925 1.387 . S
C924 H928 0.950 . S
C924 C933 1.390 . S
C925 C924 1.387 . S
C925 C927 1.387 . S
H926 C933 0.950 . S
C927 C925 1.387 . S
C927 C929 1.390 . S
C927 H931 0.950 . S
H928 C924 0.950 . S
C929 C927 1.390 . S
C929 C930 1.387 . S
C929 H932 0.950 . S
C930 C929 1.387 . S
C930 C933 1.387 . S
H931 C927 0.950 . S
H932 C929 0.950 . S
C933 C924 1.390 . S
C933 H926 0.950 . S
C933 C930 1.387 . S
C934 C935 1.387 . S
C934 H938 0.950 . S
C934 C943 1.390 . S
C935 C934 1.387 . S
C935 C937 1.387 . S
H936 C943 0.950 . S
C937 C935 1.387 . S
C937 C939 1.390 . S
C937 H941 0.950 . S
H938 C934 0.950 . S
C939 C937 1.390 . S
C939 C940 1.387 . S
C939 H942 0.950 . S
C940 C939 1.387 . S
C940 C943 1.387 . S
H941 C937 0.950 . S
H942 C939 0.950 . S
C943 C934 1.390 . S
C943 H936 0.950 . S
C943 C940 1.387 . S
C944 C945 1.387 . S
C944 H948 0.950 . S
C944 C953 1.390 . S
C945 C944 1.387 . S
C945 C947 1.387 . S
H946 C953 0.950 . S
C947 C945 1.387 . S
C947 C949 1.390 . S
C947 H951 0.950 . S
H948 C944 0.950 . S
C949 C947 1.390 . S
C949 C950 1.387 . S
C949 H952 0.950 . S
C950 C949 1.387 . S
C950 C953 1.387 . S
H951 C947 0.950 . S
H952 C949 0.950 . S
C953 C944 1.390 . S
C953 H946 0.950 . S
C953 C950 1.387 . S
C954 C955 1.387 . S
C954 H958 0.950 . S
C954 C963 1.390 . S
C955 C954 1.387 . S
C955 C957 1.387 . S
H956 C963 0.950 . S
C957 C955 1.387 . S
C957 C959 1.390 . S
C957 H961 0.950 . S
H958 C954 0.950 . S
C959 C957 1.390 . S
C959 C960 1.387 . S
C959 H962 0.950 . S
C960 C959 1.387 . S
C960 C963 1.387 . S
H961 C957 0.950 . S
H962 C959 0.950 . S
C963 C954 1.390 . S
C963 H956 0.950 . S
C963 C960 1.387 . S
C964 C965 1.387 . S
C964 H968 0.950 . S
C964 C973 1.390 . S
C965 C964 1.387 . S
C965 C967 1.387 . S
H966 C973 0.950 . S
C967 C965 1.387 . S
C967 C969 1.390 . S
C967 H971 0.950 . S
H968 C964 0.950 . S
C969 C967 1.390 . S
C969 C970 1.387 . S
C969 H972 0.950 . S
C970 C969 1.387 . S
C970 C973 1.387 . S
H971 C967 0.950 . S
H972 C969 0.950 . S
C973 C964 1.390 . S
C973 H966 0.950 . S
C973 C970 1.387 . S
C974 C975 1.387 . S
C974 H978 0.950 . S
C974 C983 1.390 . S
C975 C974 1.387 . S
C975 C977 1.387 . S
H976 C983 0.950 . S
C977 C975 1.387 . S
C977 C979 1.390 . S
C977 H981 0.950 . S
H978 C974 0.950 . S
C979 C977 1.390 . S
C979 C980 1.387 . S
C979 H982 0.950 . S
C980 C979 1.387 . S
C980 C983 1.387 . S
H981 C977 0.950 . S
H982 C979 0.950 . S
C983 C974 1.390 . S
C983 H976 0.950 . S
C983 C980 1.387 . S
C984 C985 1.387 . S
C984 H988 0.950 . S
C984 C993 1.390 . S
C985 C984 1.387 . S
C985 C987 1.387 . S
H986 C993 0.950 . S
C987 C985 1.387 . S
C987 C989 1.390 . S
C987 H991 0.950 . S
H988 C984 0.950 . S
C989 C987 1.390 . S
C989 C990 1.387 . S
C989 H992 0.950 . S
C990 C989 1.387 . S
C990 C993 1.387 . S
H991 C987 0.950 . S
H992 C989 0.950 . S
C993 C984 1.390 . S
C993 H986 0.950 . S
C993 C990 1.387 . S
C994 C995 1.387 . S
C994 H998 0.950 . S
C994 C1003 1.390 . S
C995 C994 1.387 . S
C995 C997 1.387 . S
H996 C1003 0.950 . S
C997 C995 1.387 . S
C997 C999 1.390 . S
C997 H1001 0.950 . S
H998 C994 0.950 . S
C999 C997 1.390 . S
C999 C1000 1.387 . S
C999 H1002 0.950 . S
C1000 C999 1.387 . S
C1000 C1003 1.387 . S
H1001 C997 0.950 . S
H1002 C999 0.950 . S
C1003 C994 1.390 . S
C1003 H996 0.950 . S
C1003 C1000 1.387 . S
C1004 C1005 1.387 . S
C1004 H1008 0.950 . S
C1004 C1013 1.390 . S
C1005 C1004 1.387 . S
C1005 C1007 1.387 . S
H1006 C1013 0.950 . S
C1007 C1005 1.387 . S
C1007 C1009 1.390 . S
C1007 H1011 0.950 . S
H1008 C1004 0.950 . S
C1009 C1007 1.390 . S
C1009 C1010 1.387 . S
C1009 H1012 0.950 . S
C1010 C1009 1.387 . S
C1010 C1013 1.387 . S
H1011 C1007 0.950 . S
H1012 C1009 0.950 . S
C1013 C1004 1.390 . S
C1013 H1006 0.950 . S
C1013 C1010 1.387 . S
C1014 C1015 1.387 . S
C1014 H1018 0.950 . S
C1014 C1023 1.390 . S
C1015 C1014 1.387 . S
C1015 C1017 1.387 . S
H1016 C1023 0.950 . S
C1017 C1015 1.387 . S
C1017 C1019 1.390 . S
C1017 H1021 0.950 . S
H1018 C1014 0.950 . S
C1019 C1017 1.390 . S
C1019 C1020 1.387 . S
C1019 H1022 0.950 . S
C1020 C1019 1.387 . S
C1020 C1023 1.387 . S
H1021 C1017 0.950 . S
H1022 C1019 0.950 . S
C1023 C1014 1.390 . S
C1023 H1016 0.950 . S
C1023 C1020 1.387 . S
C1024 C1025 1.387 . S
C1024 H1028 0.950 . S
C1024 C1033 1.390 . S
C1025 C1024 1.387 . S
C1025 C1027 1.387 . S
H1026 C1033 0.950 . S
C1027 C1025 1.387 . S
C1027 C1029 1.390 . S
C1027 H1031 0.950 . S
H1028 C1024 0.950 . S
C1029 C1027 1.390 . S
C1029 C1030 1.387 . S
C1029 H1032 0.950 . S
C1030 C1029 1.387 . S
C1030 C1033 1.387 . S
H1031 C1027 0.950 . S
H1032 C1029 0.950 . S
C1033 C1024 1.390 . S
C1033 H1026 0.950 . S
C1033 C1030 1.387 . S
C1034 C1035 1.387 . S
C1034 H1038 0.950 . S
C1034 C1043 1.390 . S
C1035 C1034 1.387 . S
C1035 C1037 1.387 . S
H1036 C1043 0.950 . S
C1037 C1035 1.387 . S
C1037 C1039 1.390 . S
C1037 H1041 0.950 . S
H1038 C1034 0.950 . S
C1039 C1037 1.390 . S
C1039 C1040 1.387 . S
C1039 H1042 0.950 . S
C1040 C1039 1.387 . S
C1040 C1043 1.387 . S
H1041 C1037 0.950 . S
H1042 C1039 0.950 . S
C1043 C1034 1.390 . S
C1043 H1036 0.950 . S
C1043 C1040 1.387 . S
C1044 C1045 1.387 . S
C1044 H1048 0.950 . S
C1044 C1053 1.390 . S
C1045 C1044 1.387 . S
C1045 C1047 1.387 . S
H1046 C1053 0.950 . S
C1047 C1045 1.387 . S
C1047 C1049 1.390 . S
C1047 H1051 0.950 . S
H1048 C1044 0.950 . S
C1049 C1047 1.390 . S
C1049 C1050 1.387 . S
C1049 H1052 0.950 . S
C1050 C1049 1.387 . S
C1050 C1053 1.387 . S
H1051 C1047 0.950 . S
H1052 C1049 0.950 . S
C1053 C1044 1.390 . S
C1053 H1046 0.950 . S
C1053 C1050 1.387 . S
C1054 C1055 1.387 . S
C1054 H1058 0.950 . S
C1054 C1063 1.390 . S
C1055 C1054 1.387 . S
C1055 C1057 1.387 . S
H1056 C1063 0.950 . S
C1057 C1055 1.387 . S
C1057 C1059 1.390 . S
C1057 H1061 0.950 . S
H1058 C1054 0.950 . S
C1059 C1057 1.390 . S
C1059 C1060 1.387 . S
C1059 H1062 0.950 . S
C1060 C1059 1.387 . S
C1060 C1063 1.387 . S
H1061 C1057 0.950 . S
H1062 C1059 0.950 . S
C1063 C1054 1.390 . S
C1063 H1056 0.950 . S
C1063 C1060 1.387 . S
C1064 C1065 1.387 . S
C1064 H1068 0.950 . S
C1064 C1073 1.390 . S
C1065 C1064 1.387 . S
C1065 C1067 1.387 . S
H1066 C1073 0.950 . S
C1067 C1065 1.387 . S
C1067 C1069 1.390 . S
C1067 H1071 0.950 . S
H1068 C1064 0.950 . S
C1069 C1067 1.390 . S
C1069 C1070 1.387 . S
C1069 H1072 0.950 . S
C1070 C1069 1.387 . S
C1070 C1073 1.387 . S
H1071 C1067 0.950 . S
H1072 C1069 0.950 . S
C1073 C1064 1.390 . S
C1073 H1066 0.950 . S
C1073 C1070 1.387 . S
C1074 C1075 1.387 . S
C1074 H1078 0.950 . S
C1074 C1083 1.390 . S
C1075 C1074 1.387 . S
C1075 C1077 1.387 . S
H1076 C1083 0.950 . S
C1077 C1075 1.387 . S
C1077 C1079 1.390 . S
C1077 H1081 0.950 . S
H1078 C1074 0.950 . S
C1079 C1077 1.390 . S
C1079 C1080 1.387 . S
C1079 H1082 0.950 . S
C1080 C1079 1.387 . S
C1080 C1083 1.387 . S
H1081 C1077 0.950 . S
H1082 C1079 0.950 . S
C1083 C1074 1.390 . S
C1083 H1076 0.950 . S
C1083 C1080 1.387 . S
C1084 C1085 1.387 . S
C1084 H1088 0.950 . S
C1084 C1093 1.390 . S
C1085 C1084 1.387 . S
C1085 C1087 1.387 . S
H1086 C1093 0.950 . S
C1087 C1085 1.387 . S
C1087 C1089 1.390 . S
C1087 H1091 0.950 . S
H1088 C1084 0.950 . S
C1089 C1087 1.390 . S
C1089 C1090 1.387 . S
C1089 H1092 0.950 . S
C1090 C1089 1.387 . S
C1090 C1093 1.387 . S
H1091 C1087 0.950 . S
H1092 C1089 0.950 . S
C1093 C1084 1.390 . S
C1093 H1086 0.950 . S
C1093 C1090 1.387 . S
C1094 C1095 1.387 . S
C1094 H1098 0.950 . S
C1094 C1103 1.390 . S
C1095 C1094 1.387 . S
C1095 C1097 1.387 . S
H1096 C1103 0.950 . S
C1097 C1095 1.387 . S
C1097 C1099 1.390 . S
C1097 H1101 0.950 . S
H1098 C1094 0.950 . S
C1099 C1097 1.390 . S
C1099 C1100 1.387 . S
C1099 H1102 0.950 . S
C1100 C1099 1.387 . S
C1100 C1103 1.387 . S
H1101 C1097 0.950 . S
H1102 C1099 0.950 . S
C1103 C1094 1.390 . S
C1103 H1096 0.950 . S
C1103 C1100 1.387 . S
C1104 C1105 1.387 . S
C1104 H1108 0.950 . S
C1104 C1113 1.390 . S
C1105 C1104 1.387 . S
C1105 C1107 1.387 . S
H1106 C1113 0.950 . S
C1107 C1105 1.387 . S
C1107 C1109 1.390 . S
C1107 H1111 0.950 . S
H1108 C1104 0.950 . S
C1109 C1107 1.390 . S
C1109 C1110 1.387 . S
C1109 H1112 0.950 . S
C1110 C1109 1.387 . S
C1110 C1113 1.387 . S
H1111 C1107 0.950 . S
H1112 C1109 0.950 . S
C1113 C1104 1.390 . S
C1113 H1106 0.950 . S
C1113 C1110 1.387 . S
C1114 C1115 1.387 . S
C1114 H1118 0.950 . S
C1114 C1123 1.390 . S
C1115 C1114 1.387 . S
C1115 C1117 1.387 . S
H1116 C1123 0.950 . S
C1117 C1115 1.387 . S
C1117 C1119 1.390 . S
C1117 H1121 0.950 . S
H1118 C1114 0.950 . S
C1119 C1117 1.390 . S
C1119 C1120 1.387 . S
C1119 H1122 0.950 . S
C1120 C1119 1.387 . S
C1120 C1123 1.387 . S
H1121 C1117 0.950 . S
H1122 C1119 0.950 . S
C1123 C1114 1.390 . S
C1123 H1116 0.950 . S
C1123 C1120 1.387 . S
C1124 C1125 1.387 . S
C1124 H1128 0.950 . S
C1124 C1133 1.390 . S
C1125 C1124 1.387 . S
C1125 C1127 1.387 . S
H1126 C1133 0.950 . S
C1127 C1125 1.387 . S
C1127 C1129 1.390 . S
C1127 H1131 0.950 . S
H1128 C1124 0.950 . S
C1129 C1127 1.390 . S
C1129 C1130 1.387 . S
C1129 H1132 0.950 . S
C1130 C1129 1.387 . S
C1130 C1133 1.387 . S
H1131 C1127 0.950 . S
H1132 C1129 0.950 . S
C1133 C1124 1.390 . S
C1133 H1126 0.950 . S
C1133 C1130 1.387 . S
C1134 C1135 1.387 . S
C1134 H1138 0.950 . S
C1134 C1143 1.390 . S
C1135 C1134 1.387 . S
C1135 C1137 1.387 . S
H1136 C1143 0.950 . S
C1137 C1135 1.387 . S
C1137 C1139 1.390 . S
C1137 H1141 0.950 . S
H1138 C1134 0.950 . S
C1139 C1137 1.390 . S
C1139 C1140 1.387 . S
C1139 H1142 0.950 . S
C1140 C1139 1.387 . S
C1140 C1143 1.387 . S
H1141 C1137 0.950 . S
H1142 C1139 0.950 . S
C1143 C1134 1.390 . S
C1143 H1136 0.950 . S
C1143 C1140 1.387 . S
C1144 C1145 1.387 . S
C1144 H1148 0.950 . S
C1144 C1153 1.390 . S
C1145 C1144 1.387 . S
C1145 C1147 1.387 . S
H1146 C1153 0.950 . S
C1147 C1145 1.387 . S
C1147 C1149 1.390 . S
C1147 H1151 0.950 . S
H1148 C1144 0.950 . S
C1149 C1147 1.390 . S
C1149 C1150 1.387 . S
C1149 H1152 0.950 . S
C1150 C1149 1.387 . S
C1150 C1153 1.387 . S
H1151 C1147 0.950 . S
H1152 C1149 0.950 . S
C1153 C1144 1.390 . S
C1153 H1146 0.950 . S
C1153 C1150 1.387 . S
C1154 C1155 1.387 . S
C1154 H1158 0.950 . S
C1154 C1163 1.390 . S
C1155 C1154 1.387 . S
C1155 C1157 1.387 . S
H1156 C1163 0.950 . S
C1157 C1155 1.387 . S
C1157 C1159 1.390 . S
C1157 H1161 0.950 . S
H1158 C1154 0.950 . S
C1159 C1157 1.390 . S
C1159 C1160 1.387 . S
C1159 H1162 0.950 . S
C1160 C1159 1.387 . S
C1160 C1163 1.387 . S
H1161 C1157 0.950 . S
H1162 C1159 0.950 . S
C1163 C1154 1.390 . S
C1163 H1156 0.950 . S
C1163 C1160 1.387 . S
C1164 C1165 1.387 . S
C1164 H1168 0.950 . S
C1164 C1173 1.390 . S
C1165 C1164 1.387 . S
C1165 C1167 1.387 . S
H1166 C1173 0.950 . S
C1167 C1165 1.387 . S
C1167 C1169 1.390 . S
C1167 H1171 0.950 . S
H1168 C1164 0.950 . S
C1169 C1167 1.390 . S
C1169 C1170 1.387 . S
C1169 H1172 0.950 . S
C1170 C1169 1.387 . S
C1170 C1173 1.387 . S
H1171 C1167 0.950 . S
H1172 C1169 0.950 . S
C1173 C1164 1.390 . S
C1173 H1166 0.950 . S
C1173 C1170 1.387 . S
C1174 C1175 1.387 . S
C1174 H1178 0.950 . S
C1174 C1183 1.390 . S
C1175 C1174 1.387 . S
C1175 C1177 1.387 . S
H1176 C1183 0.950 . S
C1177 C1175 1.387 . S
C1177 C1179 1.390 . S
C1177 H1181 0.950 . S
H1178 C1174 0.950 . S
C1179 C1177 1.390 . S
C1179 C1180 1.387 . S
C1179 H1182 0.950 . S
C1180 C1179 1.387 . S
C1180 C1183 1.387 . S
H1181 C1177 0.950 . S
H1182 C1179 0.950 . S
C1183 C1174 1.390 . S
C1183 H1176 0.950 . S
C1183 C1180 1.387 . S
C1184 C1185 1.387 . S
C1184 H1188 0.950 . S
C1184 C1193 1.390 . S
C1185 C1184 1.387 . S
C1185 C1187 1.387 . S
H1186 C1193 0.950 . S
C1187 C1185 1.387 . S
C1187 C1189 1.390 . S
C1187 H1191 0.950 . S
H1188 C1184 0.950 . S
C1189 C1187 1.390 . S
C1189 C1190 1.387 . S
C1189 H1192 0.950 . S
C1190 C1189 1.387 . S
C1190 C1193 1.387 . S
H1191 C1187 0.950 . S
H1192 C1189 0.950 . S
C1193 C1184 1.390 . S
C1193 H1186 0.950 . S
C1193 C1190 1.387 . S
C1194 C1195 1.387 . S
C1194 H1198 0.950 . S
C1194 C1203 1.390 . S
C1195 C1194 1.387 . S
C1195 C1197 1.387 . S
H1196 C1203 0.950 . S
C1197 C1195 1.387 . S
C1197 C1199 1.390 . S
C1197 H1201 0.950 . S
H1198 C1194 0.950 . S
C1199 C1197 1.390 . S
C1199 C1200 1.387 . S
C1199 H1202 0.950 . S
C1200 C1199 1.387 . S
C1200 C1203 1.387 . S
H1201 C1197 0.950 . S
H1202 C1199 0.950 . S
C1203 C1194 1.390 . S
C1203 H1196 0.950 . S
C1203 C1200 1.387 . S
C1204 C1205 1.387 . S
C1204 H1208 0.950 . S
C1204 C1213 1.390 . S
C1205 C1204 1.387 . S
C1205 C1207 1.387 . S
H1206 C1213 0.950 . S
C1207 C1205 1.387 . S
C1207 C1209 1.390 . S
C1207 H1211 0.950 . S
H1208 C1204 0.950 . S
C1209 C1207 1.390 . S
C1209 C1210 1.387 . S
C1209 H1212 0.950 . S
C1210 C1209 1.387 . S
C1210 C1213 1.387 . S
H1211 C1207 0.950 . S
H1212 C1209 0.950 . S
C1213 C1204 1.390 . S
C1213 H1206 0.950 . S
C1213 C1210 1.387 . S
C1214 C1215 1.387 . S
C1214 H1218 0.950 . S
C1214 C1223 1.390 . S
C1215 C1214 1.387 . S
C1215 C1217 1.387 . S
H1216 C1223 0.950 . S
C1217 C1215 1.387 . S
C1217 C1219 1.390 . S
C1217 H1221 0.950 . S
H1218 C1214 0.950 . S
C1219 C1217 1.390 . S
C1219 C1220 1.387 . S
C1219 H1222 0.950 . S
C1220 C1219 1.387 . S
C1220 C1223 1.387 . S
H1221 C1217 0.950 . S
H1222 C1219 0.950 . S
C1223 C1214 1.390 . S
C1223 H1216 0.950 . S
C1223 C1220 1.387 . S
C1224 C1225 1.387 . S
C1224 H1228 0.950 . S
C1224 C1233 1.390 . S
C1225 C1224 1.387 . S
C1225 C1227 1.387 . S
H1226 C1233 0.950 . S
C1227 C1225 1.387 . S
C1227 C1229 1.390 . S
C1227 H1231 0.950 . S
H1228 C1224 0.950 . S
C1229 C1227 1.390 . S
C1229 C1230 1.387 . S
C1229 H1232 0.950 . S
C1230 C1229 1.387 . S
C1230 C1233 1.387 . S
H1231 C1227 0.950 . S
H1232 C1229 0.950 . S
C1233 C1224 1.390 . S
C1233 H1226 0.950 . S
C1233 C1230 1.387 . S
C1234 C1235 1.387 . S
C1234 H1238 0.950 . S
C1234 C1243 1.390 . S
C1235 C1234 1.387 . S
C1235 C1237 1.387 . S
H1236 C1243 0.950 . S
C1237 C1235 1.387 . S
C1237 C1239 1.390 . S
C1237 H1241 0.950 . S
H1238 C1234 0.950 . S
C1239 C1237 1.390 . S
C1239 C1240 1.387 . S
C1239 H1242 0.950 . S
C1240 C1239 1.387 . S
C1240 C1243 1.387 . S
H1241 C1237 0.950 . S
H1242 C1239 0.950 . S
C1243 C1234 1.390 . S
C1243 H1236 0.950 . S
C1243 C1240 1.387 . S
C1244 C1245 1.387 . S
C1244 H1248 0.950 . S
C1244 C1253 1.390 . S
C1245 C1244 1.387 . S
C1245 C1247 1.387 . S
H1246 C1253 0.950 . S
C1247 C1245 1.387 . S
C1247 C1249 1.390 . S
C1247 H1251 0.950 . S
H1248 C1244 0.950 . S
C1249 C1247 1.390 . S
C1249 C1250 1.387 . S
C1249 H1252 0.950 . S
C1250 C1249 1.387 . S
C1250 C1253 1.387 . S
H1251 C1247 0.950 . S
H1252 C1249 0.950 . S
C1253 C1244 1.390 . S
C1253 H1246 0.950 . S
C1253 C1250 1.387 . S
C1254 C1255 1.387 . S
C1254 H1258 0.950 . S
C1254 C1263 1.390 . S
C1255 C1254 1.387 . S
C1255 C1257 1.387 . S
H1256 C1263 0.950 . S
C1257 C1255 1.387 . S
C1257 C1259 1.390 . S
C1257 H1261 0.950 . S
H1258 C1254 0.950 . S
C1259 C1257 1.390 . S
C1259 C1260 1.387 . S
C1259 H1262 0.950 . S
C1260 C1259 1.387 . S
C1260 C1263 1.387 . S
H1261 C1257 0.950 . S
H1262 C1259 0.950 . S
C1263 C1254 1.390 . S
C1263 H1256 0.950 . S
C1263 C1260 1.387 . S
C1264 C1265 1.387 . S
C1264 H1268 0.950 . S
C1264 C1273 1.390 . S
C1265 C1264 1.387 . S
C1265 C1267 1.387 . S
H1266 C1273 0.950 . S
C1267 C1265 1.387 . S
C1267 C1269 1.390 . S
C1267 H1271 0.950 . S
H1268 C1264 0.950 . S
C1269 C1267 1.390 . S
C1269 C1270 1.387 . S
C1269 H1272 0.950 . S
C1270 C1269 1.387 . S
C1270 C1273 1.387 . S
H1271 C1267 0.950 . S
H1272 C1269 0.950 . S
C1273 C1264 1.390 . S
C1273 H1266 0.950 . S
C1273 C1270 1.387 . S
C1274 C1275 1.387 . S
C1274 H1278 0.950 . S
C1274 C1283 1.390 . S
C1275 C1274 1.387 . S
C1275 C1277 1.387 . S
H1276 C1283 0.950 . S
C1277 C1275 1.387 . S
C1277 C1279 1.390 . S
C1277 H1281 0.950 . S
H1278 C1274 0.950 . S
C1279 C1277 1.390 . S
C1279 C1280 1.387 . S
C1279 H1282 0.950 . S
C1280 C1279 1.387 . S
C1280 C1283 1.387 . S
H1281 C1277 0.950 . S
H1282 C1279 0.950 . S
C1283 C1274 1.390 . S
C1283 H1276 0.950 . S
C1283 C1280 1.387 . S
C1284 C1285 1.387 . S
C1284 H1288 0.950 . S
C1284 C1293 1.390 . S
C1285 C1284 1.387 . S
C1285 C1287 1.387 . S
H1286 C1293 0.950 . S
C1287 C1285 1.387 . S
C1287 C1289 1.390 . S
C1287 H1291 0.950 . S
H1288 C1284 0.950 . S
C1289 C1287 1.390 . S
C1289 C1290 1.387 . S
C1289 H1292 0.950 . S
C1290 C1289 1.387 . S
C1290 C1293 1.387 . S
H1291 C1287 0.950 . S
H1292 C1289 0.950 . S
C1293 C1284 1.390 . S
C1293 H1286 0.950 . S
C1293 C1290 1.387 . S
C1294 C1295 1.387 . S
C1294 H1298 0.950 . S
C1294 C1303 1.390 . S
C1295 C1294 1.387 . S
C1295 C1297 1.387 . S
H1296 C1303 0.950 . S
C1297 C1295 1.387 . S
C1297 C1299 1.390 . S
C1297 H1301 0.950 . S
H1298 C1294 0.950 . S
C1299 C1297 1.390 . S
C1299 C1300 1.387 . S
C1299 H1302 0.950 . S
C1300 C1299 1.387 . S
C1300 C1303 1.387 . S
H1301 C1297 0.950 . S
H1302 C1299 0.950 . S
C1303 C1294 1.390 . S
C1303 H1296 0.950 . S
C1303 C1300 1.387 . S
C1304 C1305 1.387 . S
C1304 H1308 0.950 . S
C1304 C1313 1.390 . S
C1305 C1304 1.387 . S
C1305 C1307 1.387 . S
H1306 C1313 0.950 . S
C1307 C1305 1.387 . S
C1307 C1309 1.390 . S
C1307 H1311 0.950 . S
H1308 C1304 0.950 . S
C1309 C1307 1.390 . S
C1309 C1310 1.387 . S
C1309 H1312 0.950 . S
C1310 C1309 1.387 . S
C1310 C1313 1.387 . S
H1311 C1307 0.950 . S
H1312 C1309 0.950 . S
C1313 C1304 1.390 . S
C1313 H1306 0.950 . S
C1313 C1310 1.387 . S
C1314 C1315 1.387 . S
C1314 H1318 0.950 . S
C1314 C1323 1.390 . S
C1315 C1314 1.387 . S
C1315 C1317 1.387 . S
H1316 C1323 0.950 . S
C1317 C1315 1.387 . S
C1317 C1319 1.390 . S
C1317 H1321 0.950 . S
H1318 C1314 0.950 . S
C1319 C1317 1.390 . S
C1319 C1320 1.387 . S
C1319 H1322 0.950 . S
C1320 C1319 1.387 . S
C1320 C1323 1.387 . S
H1321 C1317 0.950 . S
H1322 C1319 0.950 . S
C1323 C1314 1.390 . S
C1323 H1316 0.950 . S
C1323 C1320 1.387 . S
C1324 C1325 1.387 . S
C1324 H1328 0.950 . S
C1324 C1333 1.390 . S
C1325 C1324 1.387 . S
C1325 C1327 1.387 . S
H1326 C1333 0.950 . S
C1327 C1325 1.387 . S
C1327 C1329 1.390 . S
C1327 H1331 0.950 . S
H1328 C1324 0.950 . S
C1329 C1327 1.390 . S
C1329 C1330 1.387 . S
C1329 H1332 0.950 . S
C1330 C1329 1.387 . S
C1330 C1333 1.387 . S
H1331 C1327 0.950 . S
H1332 C1329 0.950 . S
C1333 C1324 1.390 . S
C1333 H1326 0.950 . S
C1333 C1330 1.387 . S
C1334 C1335 1.387 . S
C1334 H1338 0.950 . S
C1334 C1343 1.390 . S
C1335 C1334 1.387 . S
C1335 C1337 1.387 . S
H1336 C1343 0.950 . S
C1337 C1335 1.387 . S
C1337 C1339 1.390 . S
C1337 H1341 0.950 . S
H1338 C1334 0.950 . S
C1339 C1337 1.390 . S
C1339 C1340 1.387 . S
C1339 H1342 0.950 . S
C1340 C1339 1.387 . S
C1340 C1343 1.387 . S
H1341 C1337 0.950 . S
H1342 C1339 0.950 . S
C1343 C1334 1.390 . S
C1343 H1336 0.950 . S
C1343 C1340 1.387 . S
C1344 C1345 1.387 . S
C1344 H1348 0.950 . S
C1344 C1353 1.390 . S
C1345 C1344 1.387 . S
C1345 C1347 1.387 . S
H1346 C1353 0.950 . S
C1347 C1345 1.387 . S
C1347 C1349 1.390 . S
C1347 H1351 0.950 . S
H1348 C1344 0.950 . S
C1349 C1347 1.390 . S
C1349 C1350 1.387 . S
C1349 H1352 0.950 . S
C1350 C1349 1.387 . S
C1350 C1353 1.387 . S
H1351 C1347 0.950 . S
H1352 C1349 0.950 . S
C1353 C1344 1.390 . S
C1353 H1346 0.950 . S
C1353 C1350 1.387 . S
C1354 C1355 1.387 . S
C1354 H1358 0.950 . S
C1354 C1363 1.390 . S
C1355 C1354 1.387 . S
C1355 C1357 1.387 . S
H1356 C1363 0.950 . S
C1357 C1355 1.387 . S
C1357 C1359 1.390 . S
C1357 H1361 0.950 . S
H1358 C1354 0.950 . S
C1359 C1357 1.390 . S
C1359 C1360 1.387 . S
C1359 H1362 0.950 . S
C1360 C1359 1.387 . S
C1360 C1363 1.387 . S
H1361 C1357 0.950 . S
H1362 C1359 0.950 . S
C1363 C1354 1.390 . S
C1363 H1356 0.950 . S
C1363 C1360 1.387 . S
C1364 C1365 1.387 . S
C1364 H1368 0.950 . S
C1364 C1373 1.390 . S
C1365 C1364 1.387 . S
C1365 C1367 1.387 . S
H1366 C1373 0.950 . S
C1367 C1365 1.387 . S
C1367 C1369 1.390 . S
C1367 H1371 0.950 . S
H1368 C1364 0.950 . S
C1369 C1367 1.390 . S
C1369 C1370 1.387 . S
C1369 H1372 0.950 . S
C1370 C1369 1.387 . S
C1370 C1373 1.387 . S
H1371 C1367 0.950 . S
H1372 C1369 0.950 . S
C1373 C1364 1.390 . S
C1373 H1366 0.950 . S
C1373 C1370 1.387 . S
C1374 C1375 1.387 . S
C1374 H1378 0.950 . S
C1374 C1383 1.390 . S
C1375 C1374 1.387 . S
C1375 C1377 1.387 . S
H1376 C1383 0.950 . S
C1377 C1375 1.387 . S
C1377 C1379 1.390 . S
C1377 H1381 0.950 . S
H1378 C1374 0.950 . S
C1379 C1377 1.390 . S
C1379 C1380 1.387 . S
C1379 H1382 0.950 . S
C1380 C1379 1.387 . S
C1380 C1383 1.387 . S
H1381 C1377 0.950 . S
H1382 C1379 0.950 . S
C1383 C1374 1.390 . S
C1383 H1376 0.950 . S
C1383 C1380 1.387 . S
C1384 C1385 1.387 . S
C1384 H1388 0.950 . S
C1384 C1393 1.390 . S
C1385 C1384 1.387 . S
C1385 C1387 1.387 . S
H1386 C1393 0.950 . S
C1387 C1385 1.387 . S
C1387 C1389 1.390 . S
C1387 H1391 0.950 . S
H1388 C1384 0.950 . S
C1389 C1387 1.390 . S
C1389 C1390 1.387 . S
C1389 H1392 0.950 . S
C1390 C1389 1.387 . S
C1390 C1393 1.387 . S
H1391 C1387 0.950 . S
H1392 C1389 0.950 . S
C1393 C1384 1.390 . S
C1393 H1386 0.950 . S
C1393 C1390 1.387 . S
C1394 C1395 1.387 . S
C1394 H1398 0.950 . S
C1394 C1403 1.390 . S
C1395 C1394 1.387 . S
C1395 C1397 1.387 . S
H1396 C1403 0.950 . S
C1397 C1395 1.387 . S
C1397 C1399 1.390 . S
C1397 H1401 0.950 . S
H1398 C1394 0.950 . S
C1399 C1397 1.390 . S
C1399 C1400 1.387 . S
C1399 H1402 0.950 . S
C1400 C1399 1.387 . S
C1400 C1403 1.387 . S
H1401 C1397 0.950 . S
H1402 C1399 0.950 . S
C1403 C1394 1.390 . S
C1403 H1396 0.950 . S
C1403 C1400 1.387 . S
C1404 C1405 1.387 . S
C1404 H1408 0.950 . S
C1404 C1413 1.390 . S
C1405 C1404 1.387 . S
C1405 C1407 1.387 . S
H1406 C1413 0.950 . S
C1407 C1405 1.387 . S
C1407 C1409 1.390 . S
C1407 H1411 0.950 . S
H1408 C1404 0.950 . S
C1409 C1407 1.390 . S
C1409 C1410 1.387 . S
C1409 H1412 0.950 . S
C1410 C1409 1.387 . S
C1410 C1413 1.387 . S
H1411 C1407 0.950 . S
H1412 C1409 0.950 . S
C1413 C1404 1.390 . S
C1413 H1406 0.950 . S
C1413 C1410 1.387 . S
C1414 C1415 1.387 . S
C1414 H1418 0.950 . S
C1414 C1423 1.390 . S
C1415 C1414 1.387 . S
C1415 C1417 1.387 . S
H1416 C1423 0.950 . S
C1417 C1415 1.387 . S
C1417 C1419 1.390 . S
C1417 H1421 0.950 . S
H1418 C1414 0.950 . S
C1419 C1417 1.390 . S
C1419 C1420 1.387 . S
C1419 H1422 0.950 . S
C1420 C1419 1.387 . S
C1420 C1423 1.387 . S
H1421 C1417 0.950 . S
H1422 C1419 0.950 . S
C1423 C1414 1.390 . S
C1423 H1416 0.950 . S
C1423 C1420 1.387 . S
C1424 C1425 1.387 . S
C1424 H1428 0.950 . S
C1424 C1433 1.390 . S
C1425 C1424 1.387 . S
C1425 C1427 1.387 . S
H1426 C1433 0.950 . S
C1427 C1425 1.387 . S
C1427 C1429 1.390 . S
C1427 H1431 0.950 . S
H1428 C1424 0.950 . S
C1429 C1427 1.390 . S
C1429 C1430 1.387 . S
C1429 H1432 0.950 . S
C1430 C1429 1.387 . S
C1430 C1433 1.387 . S
H1431 C1427 0.950 . S
H1432 C1429 0.950 . S
C1433 C1424 1.390 . S
C1433 H1426 0.950 . S
C1433 C1430 1.387 . S
C1434 C1435 1.387 . S
C1434 H1438 0.950 . S
C1434 C1443 1.390 . S
C1435 C1434 1.387 . S
C1435 C1437 1.387 . S
H1436 C1443 0.950 . S
C1437 C1435 1.387 . S
C1437 C1439 1.390 . S
C1437 H1441 0.950 . S
H1438 C1434 0.950 . S
C1439 C1437 1.390 . S
C1439 C1440 1.387 . S
C1439 H1442 0.950 . S
C1440 C1439 1.387 . S
C1440 C1443 1.387 . S
H1441 C1437 0.950 . S
H1442 C1439 0.950 . S
C1443 C1434 1.390 . S
C1443 H1436 0.950 . S
C1443 C1440 1.387 . S
C1444 C1445 1.387 . S
C1444 H1448 0.950 . S
C1444 C1453 1.390 . S
C1445 C1444 1.387 . S
C1445 C1447 1.387 . S
H1446 C1453 0.950 . S
C1447 C1445 1.387 . S
C1447 C1449 1.390 . S
C1447 H1451 0.950 . S
H1448 C1444 0.950 . S
C1449 C1447 1.390 . S
C1449 C1450 1.387 . S
C1449 H1452 0.950 . S
C1450 C1449 1.387 . S
C1450 C1453 1.387 . S
H1451 C1447 0.950 . S
H1452 C1449 0.950 . S
C1453 C1444 1.390 . S
C1453 H1446 0.950 . S
C1453 C1450 1.387 . S
C1454 C1455 1.387 . S
C1454 H1458 0.950 . S
C1454 C1463 1.390 . S
C1455 C1454 1.387 . S
C1455 C1457 1.387 . S
H1456 C1463 0.950 . S
C1457 C1455 1.387 . S
C1457 C1459 1.390 . S
C1457 H1461 0.950 . S
H1458 C1454 0.950 . S
C1459 C1457 1.390 . S
C1459 C1460 1.387 . S
C1459 H1462 0.950 . S
C1460 C1459 1.387 . S
C1460 C1463 1.387 . S
H1461 C1457 0.950 . S
H1462 C1459 0.950 . S
C1463 C1454 1.390 . S
C1463 H1456 0.950 . S
C1463 C1460 1.387 . S
C1464 C1465 1.387 . S
C1464 H1468 0.950 . S
C1464 C1473 1.390 . S
C1465 C1464 1.387 . S
C1465 C1467 1.387 . S
H1466 C1473 0.950 . S
C1467 C1465 1.387 . S
C1467 C1469 1.390 . S
C1467 H1471 0.950 . S
H1468 C1464 0.950 . S
C1469 C1467 1.390 . S
C1469 C1470 1.387 . S
C1469 H1472 0.950 . S
C1470 C1469 1.387 . S
C1470 C1473 1.387 . S
H1471 C1467 0.950 . S
H1472 C1469 0.950 . S
C1473 C1464 1.390 . S
C1473 H1466 0.950 . S
C1473 C1470 1.387 . S
C1474 C1475 1.387 . S
C1474 H1478 0.950 . S
C1474 C1483 1.390 . S
C1475 C1474 1.387 . S
C1475 C1477 1.387 . S
H1476 C1483 0.950 . S
C1477 C1475 1.387 . S
C1477 C1479 1.390 . S
C1477 H1481 0.950 . S
H1478 C1474 0.950 . S
C1479 C1477 1.390 . S
C1479 C1480 1.387 . S
C1479 H1482 0.950 . S
C1480 C1479 1.387 . S
C1480 C1483 1.387 . S
H1481 C1477 0.950 . S
H1482 C1479 0.950 . S
C1483 C1474 1.390 . S
C1483 H1476 0.950 . S
C1483 C1480 1.387 . S
C1484 C1485 1.387 . S
C1484 H1488 0.950 . S
C1484 C1493 1.390 . S
C1485 C1484 1.387 . S
C1485 C1487 1.387 . S
H1486 C1493 0.950 . S
C1487 C1485 1.387 . S
C1487 C1489 1.390 . S
C1487 H1491 0.950 . S
H1488 C1484 0.950 . S
C1489 C1487 1.390 . S
C1489 C1490 1.387 . S
C1489 H1492 0.950 . S
C1490 C1489 1.387 . S
C1490 C1493 1.387 . S
H1491 C1487 0.950 . S
H1492 C1489 0.950 . S
C1493 C1484 1.390 . S
C1493 H1486 0.950 . S
C1493 C1490 1.387 . S
C1494 C1495 1.387 . S
C1494 H1498 0.950 . S
C1494 C1503 1.390 . S
C1495 C1494 1.387 . S
C1495 C1497 1.387 . S
H1496 C1503 0.950 . S
C1497 C1495 1.387 . S
C1497 C1499 1.390 . S
C1497 H1501 0.950 . S
H1498 C1494 0.950 . S
C1499 C1497 1.390 . S
C1499 C1500 1.387 . S
C1499 H1502 0.950 . S
C1500 C1499 1.387 . S
C1500 C1503 1.387 . S
H1501 C1497 0.950 . S
H1502 C1499 0.950 . S
C1503 C1494 1.390 . S
C1503 H1496 0.950 . S
C1503 C1500 1.387 . S
C1504 C1505 1.387 . S
C1504 H1508 0.950 . S
C1504 C1513 1.390 . S
C1505 C1504 1.387 . S
C1505 C1507 1.387 . S
H1506 C1513 0.950 . S
C1507 C1505 1.387 . S
C1507 C1509 1.390 . S
C1507 H1511 0.950 . S
H1508 C1504 0.950 . S
C1509 C1507 1.390 . S
C1509 C1510 1.387 . S
C1509 H1512 0.950 . S
C1510 C1509 1.387 . S
C1510 C1513 1.387 . S
H1511 C1507 0.950 . S
H1512 C1509 0.950 . S
C1513 C1504 1.390 . S
C1513 H1506 0.950 . S
C1513 C1510 1.387 . S
C1514 C1515 1.387 . S
C1514 H1518 0.950 . S
C1514 C1523 1.390 . S
C1515 C1514 1.387 . S
C1515 C1517 1.387 . S
H1516 C1523 0.950 . S
C1517 C1515 1.387 . S
C1517 C1519 1.390 . S
C1517 H1521 0.950 . S
H1518 C1514 0.950 . S
C1519 C1517 1.390 . S
C1519 C1520 1.387 . S
C1519 H1522 0.950 . S
C1520 C1519 1.387 . S
C1520 C1523 1.387 . S
H1521 C1517 0.950 . S
H1522 C1519 0.950 . S
C1523 C1514 1.390 . S
C1523 H1516 0.950 . S
C1523 C1520 1.387 . S
C1524 C1525 1.387 . S
C1524 H1528 0.950 . S
C1524 C1533 1.390 . S
C1525 C1524 1.387 . S
C1525 C1527 1.387 . S
H1526 C1533 0.950 . S
C1527 C1525 1.387 . S
C1527 C1529 1.390 . S
C1527 H1531 0.950 . S
H1528 C1524 0.950 . S
C1529 C1527 1.390 . S
C1529 C1530 1.387 . S
C1529 H1532 0.950 . S
C1530 C1529 1.387 . S
C1530 C1533 1.387 . S
H1531 C1527 0.950 . S
H1532 C1529 0.950 . S
C1533 C1524 1.390 . S
C1533 H1526 0.950 . S
C1533 C1530 1.387 . S
C1534 C1535 1.387 . S
C1534 H1538 0.950 . S
C1534 C1543 1.390 . S
C1535 C1534 1.387 . S
C1535 C1537 1.387 . S
H1536 C1543 0.950 . S
C1537 C1535 1.387 . S
C1537 C1539 1.390 . S
C1537 H1541 0.950 . S
H1538 C1534 0.950 . S
C1539 C1537 1.390 . S
C1539 C1540 1.387 . S
C1539 H1542 0.950 . S
C1540 C1539 1.387 . S
C1540 C1543 1.387 . S
H1541 C1537 0.950 . S
H1542 C1539 0.950 . S
C1543 C1534 1.390 . S
C1543 H1536 0.950 . S
C1543 C1540 1.387 . S
C1544 C1545 1.387 . S
C1544 H1548 0.950 . S
C1544 C1553 1.390 . S
C1545 C1544 1.387 . S
C1545 C1547 1.387 . S
H1546 C1553 0.950 . S
C1547 C1545 1.387 . S
C1547 C1549 1.390 . S
C1547 H1551 0.950 . S
H1548 C1544 0.950 . S
C1549 C1547 1.390 . S
C1549 C1550 1.387 . S
C1549 H1552 0.950 . S
C1550 C1549 1.387 . S
C1550 C1553 1.387 . S
H1551 C1547 0.950 . S
H1552 C1549 0.950 . S
C1553 C1544 1.390 . S
C1553 H1546 0.950 . S
C1553 C1550 1.387 . S
C1554 C1555 1.387 . S
C1554 H1558 0.950 . S
C1554 C1563 1.390 . S
C1555 C1554 1.387 . S
C1555 C1557 1.387 . S
H1556 C1563 0.950 . S
C1557 C1555 1.387 . S
C1557 C1559 1.390 . S
C1557 H1561 0.950 . S
H1558 C1554 0.950 . S
C1559 C1557 1.390 . S
C1559 C1560 1.387 . S
C1559 H1562 0.950 . S
C1560 C1559 1.387 . S
C1560 C1563 1.387 . S
H1561 C1557 0.950 . S
H1562 C1559 0.950 . S
C1563 C1554 1.390 . S
C1563 H1556 0.950 . S
C1563 C1560 1.387 . S
C1564 C1565 1.387 . S
C1564 H1568 0.950 . S
C1564 C1573 1.390 . S
C1565 C1564 1.387 . S
C1565 C1567 1.387 . S
H1566 C1573 0.950 . S
C1567 C1565 1.387 . S
C1567 C1569 1.390 . S
C1567 H1571 0.950 . S
H1568 C1564 0.950 . S
C1569 C1567 1.390 . S
C1569 C1570 1.387 . S
C1569 H1572 0.950 . S
C1570 C1569 1.387 . S
C1570 C1573 1.387 . S
H1571 C1567 0.950 . S
H1572 C1569 0.950 . S
C1573 C1564 1.390 . S
C1573 H1566 0.950 . S
C1573 C1570 1.387 . S
C1574 C1575 1.387 . S
C1574 H1578 0.950 . S
C1574 C1583 1.390 . S
C1575 C1574 1.387 . S
C1575 C1577 1.387 . S
H1576 C1583 0.950 . S
C1577 C1575 1.387 . S
C1577 C1579 1.390 . S
C1577 H1581 0.950 . S
H1578 C1574 0.950 . S
C1579 C1577 1.390 . S
C1579 C1580 1.387 . S
C1579 H1582 0.950 . S
C1580 C1579 1.387 . S
C1580 C1583 1.387 . S
H1581 C1577 0.950 . S
H1582 C1579 0.950 . S
C1583 C1574 1.390 . S
C1583 H1576 0.950 . S
C1583 C1580 1.387 . S
C625 C364 1.185 . S
C630 C0 1.186 . S
C635 C13 1.188 . S
C640 C377 1.183 . S
C645 C390 1.185 . S
C650 C26 1.186 . S
C655 C39 1.187 . S
C660 C403 1.184 . S
C665 C312 1.186 . S
C670 C52 1.185 . S
C675 C65 1.185 . S
C680 C325 1.186 . S
C685 C338 1.187 . S
C690 C78 1.184 . S
C695 C91 1.188 . S
C700 C351 1.183 . S
C705 C494 1.187 . S
C710 C104 1.184 . S
C715 C507 1.187 . S
C720 C117 1.184 . S
C725 C468 1.187 . S
C730 C130 1.184 . S
C735 C143 1.187 . S
C740 C481 1.184 . S
C745 C442 1.185 . S
C750 C156 1.186 . S
C755 C455 1.187 . S
C760 C169 1.184 . S
C765 C182 1.187 . S
C770 C416 1.184 . S
C775 C429 1.187 . S
C780 C195 1.184 . S
C785 C208 1.187 . S
C790 C585 1.184 . S
C795 C559 1.186 . S
C800 C221 1.185 . S
C805 C572 1.185 . S
C810 C234 1.186 . S
C815 C533 1.187 . S
C820 C247 1.184 . S
C825 C546 1.187 . S
C830 C260 1.184 . S
C835 C273 1.185 . S
C840 C520 1.186 . S
C845 C286 1.187 . S
C850 C611 1.184 . S
C855 C598 1.187 . S
C860 C299 1.184 . S
C865 C99 1.440 . S
C870 C8 1.437 . S
C875 C60 1.439 . S
C880 C21 1.439 . S
C885 C73 1.440 . S
C890 C34 1.437 . S
C895 C86 1.440 . S
C900 C47 1.437 . S
C905 C268 1.440 . S
C910 C112 1.437 . S
C915 C229 1.437 . S
C920 C125 1.440 . S
C925 C242 1.437 . S
C930 C138 1.440 . S
C935 C255 1.437 . S
C940 C151 1.440 . S
C945 C307 1.439 . S
C950 C164 1.438 . S
C955 C281 1.438 . S
C960 C177 1.440 . S
C965 C190 1.439 . S
C970 C294 1.437 . S
C975 C216 1.439 . S
C980 C203 1.437 . S
C985 C411 1.438 . S
C990 C320 1.440 . S
C995 C372 1.440 . S
C1000 C333 1.438 . S
C1005 C346 1.439 . S
C1010 C385 1.437 . S
C1015 C359 1.440 . S
C1020 C398 1.437 . S
C1025 C424 1.439 . S
C1030 C580 1.438 . S
C1035 C437 1.437 . S
C1040 C541 1.439 . S
C1045 C554 1.439 . S
C1050 C450 1.438 . S
C1055 C567 1.438 . S
C1060 C463 1.439 . S
C1065 C619 1.438 . S
C1070 C476 1.438 . S
C1075 C593 1.439 . S
C1080 C489 1.437 . S
C1085 C606 1.437 . S
C1090 C502 1.440 . S
C1095 C515 1.440 . S
C1100 C528 1.437 . S
C1105 C10 1.292 . S
C1110 C109 1.085 . S
C1115 C122 1.083 . S
C1120 C23 1.294 . S
C1125 C135 1.086 . S
C1130 C36 1.294 . S
C1135 C148 1.082 . S
C1140 C49 1.293 . S
C1145 C62 1.293 . S
C1150 C161 1.090 . S
C1155 C174 1.087 . S
C1160 C75 1.294 . S
C1165 C88 1.294 . S
C1170 C187 1.083 . S
C1175 C200 1.086 . S
C1180 C101 1.294 . S
C1185 C213 1.089 . S
C1190 C114 1.292 . S
C1195 C304 1.083 . S
C1200 C127 1.293 . S
C1205 C140 1.292 . S
C1210 C278 1.085 . S
C1215 C153 1.294 . S
C1220 C291 1.085 . S
C1225 C166 1.294 . S
C1230 C226 1.087 . S
C1235 C179 1.293 . S
C1240 C239 1.090 . S
C1245 C192 1.294 . S
C1250 C252 1.089 . S
C1255 C205 1.293 . S
C1260 C265 1.083 . S
C1265 C218 1.294 . S
C1270 C5 1.087 . S
C1275 C231 1.294 . S
C1280 C57 1.087 . S
C1285 C244 1.292 . S
C1290 C70 1.085 . S
C1295 C257 1.294 . S
C1300 C83 1.087 . S
C1305 C270 1.294 . S
C1310 C96 1.088 . S
C1315 C283 1.292 . S
C1320 C31 1.086 . S
C1325 C44 1.086 . S
C1330 C296 1.294 . S
C1335 C18 1.085 . S
C1340 C309 1.292 . S
C1345 C421 1.088 . S
C1350 C322 1.292 . S
C1355 C434 1.088 . S
C1360 C335 1.292 . S
C1365 C447 1.089 . S
C1370 C348 1.294 . S
C1375 C460 1.086 . S
C1380 C361 1.294 . S
C1385 C473 1.088 . S
C1390 C374 1.294 . S
C1395 C387 1.292 . S
C1400 C486 1.087 . S
C1405 C499 1.085 . S
C1410 C400 1.294 . S
C1415 C413 1.294 . S
C1420 C512 1.086 . S
C1425 C525 1.083 . S
C1430 C426 1.293 . S
C1435 C439 1.294 . S
C1440 C616 1.087 . S
C1445 C452 1.292 . S
C1450 C590 1.085 . S
C1455 C603 1.082 . S
C1460 C465 1.293 . S
C1465 C538 1.086 . S
C1470 C478 1.294 . S
C1475 C491 1.292 . S
C1480 C551 1.087 . S
C1485 C504 1.292 . S
C1490 C564 1.084 . S
C1495 C577 1.090 . S
C1500 C517 1.293 . S
C1505 C317 1.087 . S
C1510 C530 1.294 . S
C1515 C369 1.087 . S
C1520 C543 1.294 . S
C1525 C382 1.087 . S
C1530 C556 1.292 . S
C1535 C569 1.292 . S
C1540 C395 1.085 . S
C1545 C408 1.087 . S
C1550 C582 1.294 . S
C1555 C343 1.086 . S
C1560 C595 1.292 . S
C1565 C608 1.294 . S
C1570 C356 1.088 . S
C1575 C330 1.088 . S
C1580 C621 1.294 . S
