# Generated by pormake.
# Topology cbo, (4)-cn, num edge types: 1
# Building blocks:
#     Node 0, Type 0, BuildingBlock: GALJAG_clean_sbu_0, # of connection points: 4
#     Node 1, Type 0, BuildingBlock: GALJAG_clean_sbu_0, # of connection points: 4
#     Node 2, Type 0, BuildingBlock: GALJAG_clean_sbu_0, # of connection points: 4
#     Node 3, Type 0, BuildingBlock: GALJAG_clean_sbu_0, # of connection points: 4
#     Node 4, Type 0, BuildingBlock: GALJAG_clean_sbu_0, # of connection points: 4
#     Node 5, Type 0, BuildingBlock: GALJAG_clean_sbu_0, # of connection points: 4
#     Node 6, Type 0, BuildingBlock: GALJAG_clean_sbu_0, # of connection points: 4
#     Node 7, Type 0, BuildingBlock: GALJAG_clean_sbu_0, # of connection points: 4
#     Node 8, Type 0, BuildingBlock: GALJAG_clean_sbu_0, # of connection points: 4
#     Node 9, Type 0, BuildingBlock: GALJAG_clean_sbu_0, # of connection points: 4
#     Node 10, Type 0, BuildingBlock: GALJAG_clean_sbu_0, # of connection points: 4
#     Node 11, Type 0, BuildingBlock: GALJAG_clean_sbu_0, # of connection points: 4
#     Node 12, Type 0, BuildingBlock: GALJAG_clean_sbu_0, # of connection points: 4
#     Node 13, Type 0, BuildingBlock: GALJAG_clean_sbu_0, # of connection points: 4
#     Node 14, Type 0, BuildingBlock: GALJAG_clean_sbu_0, # of connection points: 4
#     Node 15, Type 0, BuildingBlock: GALJAG_clean_sbu_0, # of connection points: 4
#     Node 16, Type 0, BuildingBlock: GALJAG_clean_sbu_0, # of connection points: 4
#     Node 17, Type 0, BuildingBlock: GALJAG_clean_sbu_0, # of connection points: 4
#     Node 18, Type 0, BuildingBlock: GALJAG_clean_sbu_0, # of connection points: 4
#     Node 19, Type 0, BuildingBlock: GALJAG_clean_sbu_0, # of connection points: 4
#     Node 20, Type 0, BuildingBlock: GALJAG_clean_sbu_0, # of connection points: 4
#     Node 21, Type 0, BuildingBlock: GALJAG_clean_sbu_0, # of connection points: 4
#     Node 22, Type 0, BuildingBlock: GALJAG_clean_sbu_0, # of connection points: 4
#     Node 23, Type 0, BuildingBlock: GALJAG_clean_sbu_0, # of connection points: 4
#     Edge 24, Type (0, 0), BuildingBlock: XUDNAN_clean_linker_2, # of connection points: 2
#     Edge 25, Type (0, 0), BuildingBlock: XUDNAN_clean_linker_2, # of connection points: 2
#     Edge 26, Type (0, 0), BuildingBlock: XUDNAN_clean_linker_2, # of connection points: 2
#     Edge 27, Type (0, 0), BuildingBlock: XUDNAN_clean_linker_2, # of connection points: 2
#     Edge 28, Type (0, 0), BuildingBlock: XUDNAN_clean_linker_2, # of connection points: 2
#     Edge 29, Type (0, 0), BuildingBlock: XUDNAN_clean_linker_2, # of connection points: 2
#     Edge 30, Type (0, 0), BuildingBlock: XUDNAN_clean_linker_2, # of connection points: 2
#     Edge 31, Type (0, 0), BuildingBlock: XUDNAN_clean_linker_2, # of connection points: 2
#     Edge 32, Type (0, 0), BuildingBlock: XUDNAN_clean_linker_2, # of connection points: 2
#     Edge 33, Type (0, 0), BuildingBlock: XUDNAN_clean_linker_2, # of connection points: 2
#     Edge 34, Type (0, 0), BuildingBlock: XUDNAN_clean_linker_2, # of connection points: 2
#     Edge 35, Type (0, 0), BuildingBlock: XUDNAN_clean_linker_2, # of connection points: 2
#     Edge 36, Type (0, 0), BuildingBlock: XUDNAN_clean_linker_2, # of connection points: 2
#     Edge 37, Type (0, 0), BuildingBlock: XUDNAN_clean_linker_2, # of connection points: 2
#     Edge 38, Type (0, 0), BuildingBlock: XUDNAN_clean_linker_2, # of connection points: 2
#     Edge 39, Type (0, 0), BuildingBlock: XUDNAN_clean_linker_2, # of connection points: 2
#     Edge 40, Type (0, 0), BuildingBlock: XUDNAN_clean_linker_2, # of connection points: 2
#     Edge 41, Type (0, 0), BuildingBlock: XUDNAN_clean_linker_2, # of connection points: 2
#     Edge 42, Type (0, 0), BuildingBlock: XUDNAN_clean_linker_2, # of connection points: 2
#     Edge 43, Type (0, 0), BuildingBlock: XUDNAN_clean_linker_2, # of connection points: 2
#     Edge 44, Type (0, 0), BuildingBlock: XUDNAN_clean_linker_2, # of connection points: 2
#     Edge 45, Type (0, 0), BuildingBlock: XUDNAN_clean_linker_2, # of connection points: 2
#     Edge 46, Type (0, 0), BuildingBlock: XUDNAN_clean_linker_2, # of connection points: 2
#     Edge 47, Type (0, 0), BuildingBlock: XUDNAN_clean_linker_2, # of connection points: 2
#     Edge 48, Type (0, 0), BuildingBlock: XUDNAN_clean_linker_2, # of connection points: 2
#     Edge 49, Type (0, 0), BuildingBlock: XUDNAN_clean_linker_2, # of connection points: 2
#     Edge 50, Type (0, 0), BuildingBlock: XUDNAN_clean_linker_2, # of connection points: 2
#     Edge 51, Type (0, 0), BuildingBlock: XUDNAN_clean_linker_2, # of connection points: 2
#     Edge 52, Type (0, 0), BuildingBlock: XUDNAN_clean_linker_2, # of connection points: 2
#     Edge 53, Type (0, 0), BuildingBlock: XUDNAN_clean_linker_2, # of connection points: 2
#     Edge 54, Type (0, 0), BuildingBlock: XUDNAN_clean_linker_2, # of connection points: 2
#     Edge 55, Type (0, 0), BuildingBlock: XUDNAN_clean_linker_2, # of connection points: 2
#     Edge 56, Type (0, 0), BuildingBlock: XUDNAN_clean_linker_2, # of connection points: 2
#     Edge 57, Type (0, 0), BuildingBlock: XUDNAN_clean_linker_2, # of connection points: 2
#     Edge 58, Type (0, 0), BuildingBlock: XUDNAN_clean_linker_2, # of connection points: 2
#     Edge 59, Type (0, 0), BuildingBlock: XUDNAN_clean_linker_2, # of connection points: 2
#     Edge 60, Type (0, 0), BuildingBlock: XUDNAN_clean_linker_2, # of connection points: 2
#     Edge 61, Type (0, 0), BuildingBlock: XUDNAN_clean_linker_2, # of connection points: 2
#     Edge 62, Type (0, 0), BuildingBlock: XUDNAN_clean_linker_2, # of connection points: 2
#     Edge 63, Type (0, 0), BuildingBlock: XUDNAN_clean_linker_2, # of connection points: 2
#     Edge 64, Type (0, 0), BuildingBlock: XUDNAN_clean_linker_2, # of connection points: 2
#     Edge 65, Type (0, 0), BuildingBlock: XUDNAN_clean_linker_2, # of connection points: 2
#     Edge 66, Type (0, 0), BuildingBlock: XUDNAN_clean_linker_2, # of connection points: 2
#     Edge 67, Type (0, 0), BuildingBlock: XUDNAN_clean_linker_2, # of connection points: 2
#     Edge 68, Type (0, 0), BuildingBlock: XUDNAN_clean_linker_2, # of connection points: 2
#     Edge 69, Type (0, 0), BuildingBlock: XUDNAN_clean_linker_2, # of connection points: 2
#     Edge 70, Type (0, 0), BuildingBlock: XUDNAN_clean_linker_2, # of connection points: 2
#     Edge 71, Type (0, 0), BuildingBlock: XUDNAN_clean_linker_2, # of connection points: 2
# Relax obj value: 0.104
# Max RMSD: 0.140
# Mean RMSD: 0.140
data_MOF--net-cbo--node1-GALJAG_clean_sbu_0--edge1-XUDNAN_clean_linker_2
_symmetry_space_group_name_H-M    P1
_symmetry_Int_Tables_number       1
_symmetry_cell_setting            triclinic
loop_
_symmetry_equiv_pos_as_xyz
'x, y, z'
_cell_length_a     52.159927
_cell_length_b     52.187254
_cell_length_c     52.149361
_cell_angle_alpha  89.96713
_cell_angle_beta   89.95002
_cell_angle_gamma 89.945761
loop_
_atom_site_label
_atom_site_type_symbol
_atom_site_fract_x
_atom_site_fract_y
_atom_site_fract_z
_atom_type_partial_charge
In0 In 0.07249 0.15317 0.30867 0.0
O1 O 0.04112 0.12293 0.30272 0.0
O2 O 0.0336 0.15476 0.32738 0.0
C3 C 0.11522 0.13081 0.29022 0.0
C4 C 0.0856 0.15309 0.35842 0.0
C5 C 0.06623 0.19133 0.2742 0.0
O6 O 0.09322 0.12182 0.28535 0.0
O7 O 0.11528 0.1508 0.30374 0.0
O8 O 0.07923 0.1943 0.29441 0.0
O9 O 0.05583 0.16968 0.27202 0.0
C10 C 0.02566 0.13402 0.31783 0.0
O11 O 0.07915 0.17362 0.34708 0.0
O12 O 0.08528 0.13321 0.34462 0.0
In13 In 0.43259 0.84128 0.79322 0.0
O14 O 0.43045 0.82329 0.83338 0.0
O15 O 0.41146 0.85876 0.8269 0.0
C16 C 0.43447 0.79929 0.76266 0.0
C17 C 0.4794 0.86317 0.79504 0.0
C18 C 0.39365 0.86687 0.77126 0.0
O19 O 0.42605 0.79853 0.78531 0.0
O20 O 0.44296 0.82083 0.75594 0.0
O21 O 0.41568 0.87653 0.77382 0.0
O22 O 0.39128 0.84439 0.77989 0.0
C23 C 0.41654 0.84095 0.8424 0.0
O24 O 0.46207 0.87031 0.77984 0.0
O25 O 0.4733 0.84465 0.80935 0.0
In26 In 0.57727 0.34091 0.70696 0.0
O27 O 0.54226 0.36694 0.70101 0.0
O28 O 0.53691 0.32651 0.70089 0.0
C29 C 0.61523 0.37454 0.71735 0.0
C30 C 0.59061 0.32327 0.6603 0.0
C31 C 0.57653 0.31431 0.75137 0.0
O32 O 0.59187 0.38085 0.71848 0.0
O33 O 0.61918 0.35169 0.71068 0.0
O34 O 0.58533 0.30503 0.73082 0.0
O35 O 0.56817 0.33691 0.74949 0.0
C36 C 0.5268 0.34839 0.69905 0.0
O37 O 0.59211 0.30972 0.68032 0.0
O38 O 0.58221 0.3457 0.6638 0.0
In39 In 0.92071 0.66213 0.19193 0.0
O40 O 0.95567 0.63507 0.197 0.0
O41 O 0.95661 0.66291 0.16753 0.0
C42 C 0.88833 0.6269 0.21192 0.0
C43 C 0.90099 0.681 0.14809 0.0
C44 C 0.91969 0.69896 0.22823 0.0
O45 O 0.90079 0.6426 0.22532 0.0
O46 O 0.89325 0.62783 0.18823 0.0
O47 O 0.90122 0.69488 0.21317 0.0
O48 O 0.93925 0.68529 0.22415 0.0
C49 C 0.96801 0.64487 0.17866 0.0
O50 O 0.91572 0.6939 0.1623 0.0
O51 O 0.89551 0.65897 0.15647 0.0
In52 In 0.29723 0.07557 0.15124 0.0
O53 O 0.33183 0.09961 0.16249 0.0
O54 O 0.33309 0.05971 0.17077 0.0
C55 C 0.26363 0.0776 0.19076 0.0
C56 C 0.30319 0.03211 0.1237 0.0
C57 C 0.28091 0.11486 0.12145 0.0
O58 O 0.28658 0.08486 0.19271 0.0
O59 O 0.25777 0.06873 0.16909 0.0
O60 O 0.26647 0.09669 0.12813 0.0
O61 O 0.3038 0.11262 0.12882 0.0
C62 C 0.34455 0.08101 0.17134 0.0
O63 O 0.31061 0.05368 0.11571 0.0
O64 O 0.29192 0.03263 0.14507 0.0
In65 In 0.19588 0.90841 0.65115 0.0
O66 O 0.16996 0.89136 0.68154 0.0
O67 O 0.15354 0.8995 0.64497 0.0
C68 C 0.23803 0.91408 0.68041 0.0
C69 C 0.18301 0.9576 0.64231 0.0
C70 C 0.21123 0.87046 0.61922 0.0
O71 O 0.21845 0.90211 0.68794 0.0
O72 O 0.2362 0.92366 0.65832 0.0
O73 O 0.20784 0.89312 0.61135 0.0
O74 O 0.20625 0.86715 0.64258 0.0
C75 C 0.15028 0.89108 0.66748 0.0
O76 O 0.19354 0.94393 0.62525 0.0
O77 O 0.17904 0.94643 0.66339 0.0
In78 In 0.80579 0.41718 0.8366 0.0
O79 O 0.79746 0.44057 0.87237 0.0
O80 O 0.81762 0.45876 0.84172 0.0
C81 C 0.7916 0.37528 0.86373 0.0
C82 C 0.85257 0.40481 0.8176 0.0
C83 C 0.76888 0.42891 0.80198 0.0
O84 O 0.80914 0.39002 0.87136 0.0
O85 O 0.78134 0.38188 0.84295 0.0
O86 O 0.78917 0.41726 0.79585 0.0
O87 O 0.76772 0.43544 0.82516 0.0
C88 C 0.80799 0.46069 0.86391 0.0
O89 O 0.84932 0.42254 0.83366 0.0
O90 O 0.83228 0.39365 0.81087 0.0
In91 In 0.70033 0.56866 0.34524 0.0
O92 O 0.68489 0.53943 0.37399 0.0
O93 O 0.72029 0.53121 0.35554 0.0
C94 C 0.70539 0.60649 0.38032 0.0
C95 C 0.65402 0.57236 0.32246 0.0
C96 C 0.73741 0.57421 0.30913 0.0
O97 O 0.7202 0.58741 0.37946 0.0
O98 O 0.68737 0.6059 0.36427 0.0
O99 O 0.71805 0.56023 0.30547 0.0
O100 O 0.73761 0.58546 0.33043 0.0
C101 C 0.70332 0.52402 0.37117 0.0
O102 O 0.66872 0.59134 0.32537 0.0
O103 O 0.66313 0.55128 0.33009 0.0
In104 In 0.14533 0.30497 0.0838 0.0
O105 O 0.11356 0.32241 0.05909 0.0
O106 O 0.13998 0.29751 0.04087 0.0
C107 C 0.11714 0.28823 0.12394 0.0
C108 C 0.16402 0.3525 0.09231 0.0
C109 C 0.18109 0.26749 0.08218 0.0
O110 O 0.10869 0.2884 0.10124 0.0
O111 O 0.13962 0.29678 0.12637 0.0
O112 O 0.18677 0.29081 0.08505 0.0
O113 O 0.15743 0.2631 0.07985 0.0
C114 C 0.12083 0.31204 0.03851 0.0
O115 O 0.17318 0.33767 0.07554 0.0
O116 O 0.14569 0.34323 0.10505 0.0
In117 In 0.65691 0.19728 0.93733 0.0
O118 O 0.64654 0.21933 0.97358 0.0
O119 O 0.6324 0.18133 0.96996 0.0
C120 C 0.62324 0.21614 0.90273 0.0
C121 C 0.67113 0.14785 0.93173 0.0
C122 C 0.69828 0.22718 0.92841 0.0
O123 O 0.62287 0.22259 0.92604 0.0
O124 O 0.63983 0.19947 0.8972 0.0
O125 O 0.68345 0.21941 0.91109 0.0
O126 O 0.69291 0.21914 0.95059 0.0
C127 C 0.63366 0.20139 0.98341 0.0
O128 O 0.68459 0.16377 0.94398 0.0
O129 O 0.65055 0.1568 0.92277 0.0
In130 In 0.83173 0.79551 0.42695 0.0
O131 O 0.82999 0.83203 0.40307 0.0
O132 O 0.80893 0.83151 0.43782 0.0
C133 C 0.79522 0.75903 0.43008 0.0
C134 C 0.85873 0.79955 0.47095 0.0
C135 C 0.85889 0.7783 0.38638 0.0
O136 O 0.79002 0.78225 0.42578 0.0
O137 O 0.81875 0.75432 0.43312 0.0
O138 O 0.86877 0.78129 0.40827 0.0
O139 O 0.83538 0.78383 0.38506 0.0
C140 C 0.8155 0.84401 0.4182 0.0
O141 O 0.86695 0.80777 0.44974 0.0
O142 O 0.83696 0.78912 0.46996 0.0
In143 In 0.35406 0.69042 0.57031 0.0
O144 O 0.38743 0.69894 0.5433 0.0
O145 O 0.3534 0.68263 0.52755 0.0
C146 C 0.37887 0.70255 0.61438 0.0
C147 C 0.3472 0.63927 0.57267 0.0
C148 C 0.31645 0.72636 0.56729 0.0
O149 O 0.3848 0.71239 0.5931 0.0
O150 O 0.36082 0.68663 0.61329 0.0
O151 O 0.314 0.70625 0.58048 0.0
O152 O 0.3374 0.72802 0.5555 0.0
C153 C 0.37584 0.69087 0.52359 0.0
O154 O 0.32865 0.6548 0.57447 0.0
O155 O 0.36889 0.64956 0.56968 0.0
In156 In 0.92101 0.83612 0.69766 0.0
O157 O 0.95536 0.86279 0.69379 0.0
O158 O 0.96193 0.82518 0.70821 0.0
C159 C 0.88619 0.87306 0.70866 0.0
C160 C 0.91698 0.82466 0.64741 0.0
C161 C 0.91048 0.79847 0.73158 0.0
O162 O 0.90629 0.86983 0.72162 0.0
O163 O 0.88406 0.85829 0.68973 0.0
O164 O 0.91239 0.79422 0.70782 0.0
O165 O 0.91403 0.82146 0.73802 0.0
C166 C 0.97135 0.84653 0.70191 0.0
O167 O 0.90207 0.81524 0.66404 0.0
O168 O 0.93387 0.83951 0.65621 0.0
In169 In 0.56817 0.15622 0.20591 0.0
O170 O 0.57091 0.1897 0.17778 0.0
O171 O 0.57067 0.15179 0.16272 0.0
C172 C 0.56749 0.18949 0.24579 0.0
C173 C 0.52244 0.13239 0.20238 0.0
C174 C 0.61107 0.12824 0.21511 0.0
O175 O 0.58279 0.19175 0.2272 0.0
O176 O 0.55239 0.17076 0.24407 0.0
O177 O 0.59138 0.12675 0.22908 0.0
O178 O 0.60891 0.14339 0.19647 0.0
C179 C 0.57208 0.17551 0.15817 0.0
O180 O 0.54305 0.12031 0.20645 0.0
O181 O 0.52502 0.15631 0.2 0.0
In182 In 0.43138 0.65223 0.2943 0.0
O183 O 0.47475 0.65123 0.29905 0.0
O184 O 0.45568 0.61574 0.29322 0.0
C185 C 0.38792 0.62766 0.28081 0.0
C186 C 0.42511 0.66729 0.34362 0.0
C187 C 0.43505 0.68428 0.25373 0.0
O188 O 0.40895 0.61609 0.28407 0.0
O189 O 0.38885 0.65156 0.28436 0.0
O190 O 0.42406 0.69062 0.27434 0.0
O191 O 0.44434 0.66199 0.25371 0.0
C192 C 0.47668 0.62725 0.29661 0.0
O193 O 0.43796 0.68014 0.32768 0.0
O194 O 0.41548 0.64706 0.33471 0.0
In195 In 0.08441 0.35342 0.80617 0.0
O196 O 0.04977 0.38039 0.80357 0.0
O197 O 0.04378 0.34046 0.79791 0.0
C198 C 0.12364 0.38525 0.79406 0.0
C199 C 0.08451 0.34683 0.85751 0.0
C200 C 0.09409 0.31472 0.77331 0.0
O201 O 0.10238 0.38592 0.7826 0.0
O202 O 0.1247 0.36937 0.8122 0.0
O203 O 0.09552 0.31194 0.79734 0.0
O204 O 0.08782 0.33689 0.76602 0.0
C205 C 0.03407 0.36256 0.79888 0.0
O206 O 0.09416 0.3306 0.84233 0.0
O207 O 0.07496 0.36631 0.84679 0.0
In208 In 0.70299 0.93029 0.84 0.0
O209 O 0.66986 0.93465 0.81219 0.0
O210 O 0.66177 0.91944 0.84929 0.0
C211 C 0.74114 0.93416 0.80492 0.0
C212 C 0.70227 0.9744 0.86725 0.0
C213 C 0.70997 0.88243 0.85821 0.0
O214 O 0.71778 0.93386 0.79892 0.0
O215 O 0.74533 0.93307 0.82868 0.0
O216 O 0.7145 0.90205 0.87165 0.0
O217 O 0.70221 0.88704 0.8358 0.0
C218 C 0.65333 0.92563 0.82743 0.0
O219 O 0.69183 0.97197 0.84565 0.0
O220 O 0.71345 0.95453 0.87531 0.0
In221 In 0.79845 0.06844 0.34025 0.0
O222 O 0.83779 0.07028 0.32041 0.0
O223 O 0.83585 0.07394 0.36106 0.0
C224 C 0.76401 0.06816 0.3017 0.0
C225 C 0.79438 0.02168 0.36158 0.0
C226 C 0.78535 0.1142 0.36008 0.0
O227 O 0.78773 0.07103 0.29755 0.0
O228 O 0.75818 0.06459 0.32486 0.0
O229 O 0.7781 0.09334 0.37001 0.0
O230 O 0.79921 0.11189 0.3404 0.0
C231 C 0.84974 0.07377 0.34124 0.0
O232 O 0.78749 0.04184 0.37305 0.0
O233 O 0.80321 0.0251 0.33927 0.0
In234 In 0.19786 0.58034 0.15566 0.0
O235 O 0.20891 0.54978 0.1267 0.0
O236 O 0.18343 0.53914 0.15687 0.0
C237 C 0.22134 0.61758 0.12846 0.0
C238 C 0.14772 0.59346 0.15559 0.0
C239 C 0.2302 0.57776 0.19617 0.0
O240 O 0.21899 0.59499 0.12014 0.0
O241 O 0.21183 0.62131 0.15037 0.0
O242 O 0.21329 0.59494 0.19425 0.0
O243 O 0.22993 0.56143 0.17844 0.0
C244 C 0.19568 0.53234 0.13707 0.0
O245 O 0.15871 0.5855 0.17567 0.0
O246 O 0.16196 0.59465 0.13612 0.0
In247 In 0.3032 0.41848 0.64944 0.0
O248 O 0.32405 0.4406 0.61783 0.0
O249 O 0.29713 0.46094 0.64062 0.0
C250 C 0.28187 0.38078 0.6211 0.0
C251 C 0.34868 0.39908 0.66523 0.0
C252 C 0.26963 0.42632 0.68827 0.0
O253 O 0.28545 0.40296 0.612 0.0
O254 O 0.28858 0.37813 0.64412 0.0
O255 O 0.29344 0.42418 0.69198 0.0
O256 O 0.26298 0.42521 0.66508 0.0
C257 C 0.31328 0.46173 0.62263 0.0
O258 O 0.34345 0.4226 0.66763 0.0
O259 O 0.33116 0.38592 0.65528 0.0
In260 In 0.8235 0.68964 0.92282 0.0
O261 O 0.82246 0.68478 0.96616 0.0
O262 O 0.85597 0.70128 0.9498 0.0
C263 C 0.84931 0.70186 0.87964 0.0
C264 C 0.81815 0.63846 0.9215 0.0
C265 C 0.78398 0.72286 0.91736 0.0
O266 O 0.85424 0.71211 0.901 0.0
O267 O 0.83187 0.68519 0.88023 0.0
O268 O 0.80395 0.72806 0.9298 0.0
O269 O 0.78337 0.70043 0.90845 0.0
C270 C 0.84436 0.69429 0.96986 0.0
O271 O 0.80039 0.65313 0.92907 0.0
O272 O 0.83864 0.6496 0.91499 0.0
In273 In 0.35386 0.80488 0.07052 0.0
O274 O 0.37896 0.8036 0.03458 0.0
O275 O 0.34034 0.81678 0.03118 0.0
C276 C 0.38648 0.78746 0.10676 0.0
C277 C 0.34715 0.85498 0.08056 0.0
C278 C 0.31966 0.76611 0.07097 0.0
O279 O 0.39149 0.78589 0.08311 0.0
O280 O 0.36566 0.79857 0.11192 0.0
O281 O 0.31644 0.7862 0.08408 0.0
O282 O 0.3396 0.76599 0.05735 0.0
C283 C 0.36152 0.81248 0.02022 0.0
O284 O 0.32937 0.83882 0.08371 0.0
O285 O 0.36831 0.84569 0.07336 0.0
In286 In 0.15891 0.18816 0.58295 0.0
O287 O 0.12785 0.19046 0.55181 0.0
O288 O 0.16176 0.16844 0.54483 0.0
C289 C 0.13975 0.20803 0.6264 0.0
C290 C 0.16098 0.13952 0.59929 0.0
C291 C 0.19354 0.2251 0.57297 0.0
O292 O 0.12788 0.21028 0.6053 0.0
O293 O 0.16078 0.19618 0.6252 0.0
O294 O 0.19947 0.20496 0.58514 0.0
O295 O 0.17069 0.22595 0.56523 0.0
C296 C 0.1403 0.17607 0.53667 0.0
O297 O 0.18067 0.15074 0.59041 0.0
O298 O 0.14072 0.15283 0.59967 0.0
In299 In 0.65662 0.29992 0.43175 0.0
O300 O 0.68738 0.33059 0.43519 0.0
O301 O 0.65028 0.34233 0.42303 0.0
C302 C 0.69332 0.26534 0.42079 0.0
C303 C 0.64257 0.29682 0.4816 0.0
C304 C 0.62309 0.28645 0.3945 0.0
O305 O 0.67205 0.25913 0.43055 0.0
O306 O 0.69621 0.28905 0.41697 0.0
O307 O 0.61837 0.28313 0.41799 0.0
O308 O 0.64411 0.29738 0.38998 0.0
C309 C 0.67308 0.34872 0.42801 0.0
O310 O 0.63179 0.31183 0.46602 0.0
O311 O 0.66023 0.28341 0.47204 0.0
H312 H 0.13295 0.28317 0.17373 0.0
H313 H 0.06868 0.26827 0.12314 0.0
H314 H 0.0459 0.24663 0.15859 0.0
H315 H 0.1326 0.22429 0.20422 0.0
H316 H 0.14105 0.23619 0.23553 0.0
H317 H 0.1507 0.25353 0.20734 0.0
H318 H 0.12819 0.29433 0.22461 0.0
H319 H 0.11842 0.27705 0.25292 0.0
H320 H 0.09478 0.29298 0.23339 0.0
H321 H 0.03275 0.22184 0.19741 0.0
H322 H 0.03009 0.1958 0.23689 0.0
H323 H 0.10218 0.22776 0.26295 0.0
C324 C 0.11384 0.27587 0.17028 0.0
C325 C 0.10251 0.27749 0.14572 0.0
C326 C 0.07766 0.26734 0.14183 0.0
C327 C 0.06455 0.2551 0.16188 0.0
C328 C 0.07645 0.25338 0.18575 0.0
C329 C 0.10048 0.26364 0.19009 0.0
C330 C 0.10989 0.25739 0.21687 0.0
C331 C 0.13504 0.24193 0.21592 0.0
C332 C 0.11299 0.2819 0.23289 0.0
C333 C 0.08781 0.24125 0.2266 0.0
C334 C 0.06859 0.2394 0.20843 0.0
C335 C 0.04738 0.22359 0.21201 0.0
C336 C 0.04603 0.20886 0.23445 0.0
C337 C 0.06571 0.21014 0.25308 0.0
C338 C 0.08651 0.22702 0.24936 0.0
H339 H 0.44344 0.80009 0.71109 0.0
H340 H 0.41681 0.75094 0.77268 0.0
H341 H 0.40461 0.718 0.74095 0.0
H342 H 0.3936 0.78849 0.67027 0.0
H343 H 0.41199 0.78894 0.641 0.0
H344 H 0.42299 0.80657 0.66846 0.0
H345 H 0.46639 0.78242 0.66703 0.0
H346 H 0.45562 0.76482 0.63932 0.0
H347 H 0.46672 0.74788 0.66733 0.0
H348 H 0.38956 0.69352 0.70263 0.0
H349 H 0.37363 0.67875 0.66062 0.0
H350 H 0.41003 0.74378 0.62375 0.0
C351 C 0.43584 0.78205 0.71796 0.0
C352 C 0.43127 0.77794 0.74435 0.0
C353 C 0.42068 0.75436 0.75256 0.0
C354 C 0.41372 0.73555 0.73467 0.0
C355 C 0.41765 0.74057 0.7087 0.0
C356 C 0.4287 0.76315 0.70035 0.0
C357 C 0.42849 0.76496 0.67135 0.0
C358 C 0.41336 0.78863 0.66225 0.0
C359 C 0.45594 0.76502 0.66063 0.0
C360 C 0.41469 0.74035 0.66469 0.0
C361 C 0.40891 0.72639 0.68649 0.0
C362 C 0.39442 0.70401 0.6854 0.0
C363 C 0.38538 0.69583 0.66146 0.0
C364 C 0.39078 0.71002 0.63895 0.0
C365 C 0.40601 0.73231 0.64059 0.0
H366 H 0.60106 0.26921 0.76222 0.0
H367 H 0.55285 0.32799 0.79602 0.0
H368 H 0.55523 0.3059 0.83786 0.0
H369 H 0.57674 0.21465 0.80046 0.0
H370 H 0.60811 0.20042 0.80325 0.0
H371 H 0.60004 0.21908 0.7753 0.0
H372 H 0.63943 0.2483 0.78328 0.0
H373 H 0.64763 0.22969 0.81112 0.0
H374 H 0.64301 0.2638 0.81396 0.0
H375 H 0.56616 0.27981 0.87672 0.0
H376 H 0.58623 0.25262 0.90996 0.0
H377 H 0.62732 0.21094 0.85081 0.0
C378 C 0.59059 0.27714 0.77832 0.0
C379 C 0.57664 0.3002 0.7759 0.0
C380 C 0.56359 0.31028 0.79748 0.0
C381 C 0.56473 0.29781 0.82128 0.0
C382 C 0.57894 0.27527 0.82313 0.0
C383 C 0.59165 0.26502 0.80223 0.0
C384 C 0.60738 0.24183 0.8098 0.0
C385 C 0.59747 0.21756 0.79641 0.0
C386 C 0.63605 0.24618 0.80422 0.0
C387 C 0.60206 0.24104 0.83832 0.0
C388 C 0.58535 0.26027 0.8456 0.0
C389 C 0.57897 0.26444 0.87122 0.0
C390 C 0.59043 0.24891 0.88996 0.0
C391 C 0.60814 0.22957 0.88293 0.0
C392 C 0.61351 0.22528 0.85673 0.0
H393 H 0.87623 0.72217 0.24577 0.0
H394 H 0.95692 0.71169 0.26296 0.0
H395 H 0.95077 0.73365 0.30454 0.0
H396 H 0.86811 0.78505 0.2774 0.0
H397 H 0.83657 0.77689 0.28895 0.0
H398 H 0.84819 0.76337 0.25935 0.0
H399 H 0.83949 0.71774 0.277 0.0
H400 H 0.82817 0.73105 0.30674 0.0
H401 H 0.85395 0.70803 0.30685 0.0
H402 H 0.93477 0.75274 0.34603 0.0
H403 H 0.91049 0.769 0.38343 0.0
H404 H 0.84031 0.76643 0.33889 0.0
C405 C 0.89277 0.72513 0.25795 0.0
C406 C 0.91711 0.71547 0.25107 0.0
C407 C 0.93815 0.71916 0.26779 0.0
C408 C 0.93483 0.73157 0.29144 0.0
C409 C 0.91037 0.74016 0.298 0.0
C410 C 0.88974 0.73728 0.28163 0.0
C411 C 0.8651 0.74649 0.29389 0.0
C412 C 0.85384 0.76931 0.27901 0.0
C413 C 0.84554 0.72452 0.29626 0.0
C414 C 0.87498 0.75465 0.31988 0.0
C415 C 0.90115 0.75096 0.32188 0.0
C416 C 0.91433 0.75601 0.34457 0.0
C417 C 0.90039 0.76514 0.36572 0.0
C418 C 0.87358 0.76906 0.364 0.0
C419 C 0.86084 0.76383 0.34071 0.0
H420 H 0.21154 0.07158 0.18792 0.0
H421 H 0.27286 0.0931 0.23981 0.0
H422 H 0.24088 0.1044 0.27282 0.0
H423 H 0.17107 0.12198 0.20286 0.0
H424 H 0.14157 0.10415 0.20078 0.0
H425 H 0.16907 0.09413 0.18252 0.0
H426 H 0.16671 0.04904 0.20321 0.0
H427 H 0.13904 0.05887 0.22147 0.0
H428 H 0.16675 0.04604 0.23765 0.0
H429 H 0.20305 0.11864 0.29766 0.0
H430 H 0.16129 0.13396 0.31365 0.0
H431 H 0.12377 0.1026 0.24646 0.0
C432 C 0.21823 0.07802 0.20649 0.0
C433 C 0.24466 0.08132 0.21142 0.0
C434 C 0.2527 0.09031 0.23571 0.0
C435 C 0.23469 0.09672 0.25458 0.0
C436 C 0.20875 0.09387 0.2489 0.0
C437 C 0.20047 0.08455 0.22554 0.0
C438 C 0.17146 0.08537 0.22361 0.0
C439 C 0.1628 0.10242 0.20112 0.0
C440 C 0.16034 0.05821 0.22136 0.0
C441 C 0.16478 0.09737 0.24922 0.0
C442 C 0.18663 0.10189 0.26354 0.0
C443 C 0.18576 0.11475 0.28689 0.0
C444 C 0.16199 0.12347 0.29574 0.0
C445 C 0.13939 0.1192 0.28136 0.0
C446 C 0.14073 0.10558 0.25804 0.0
H447 H 0.34324 0.85323 0.77087 0.0
H448 H 0.39618 0.91113 0.74331 0.0
H449 H 0.36078 0.93232 0.71993 0.0
H450 H 0.30806 0.84661 0.71462 0.0
H451 H 0.27749 0.84247 0.73021 0.0
H452 H 0.30646 0.83339 0.74653 0.0
H453 H 0.29442 0.86299 0.78461 0.0
H454 H 0.26534 0.87219 0.76836 0.0
H455 H 0.28769 0.89637 0.77873 0.0
H456 H 0.32077 0.94404 0.69573 0.0
H457 H 0.27871 0.94641 0.67391 0.0
H458 H 0.25173 0.88216 0.71927 0.0
C459 C 0.34731 0.87057 0.7602 0.0
C460 C 0.37237 0.88057 0.7588 0.0
C461 C 0.37703 0.90324 0.74464 0.0
C462 C 0.35707 0.91541 0.73136 0.0
C463 C 0.33258 0.90484 0.73284 0.0
C464 C 0.3276 0.88309 0.74713 0.0
C465 C 0.29992 0.87489 0.7447 0.0
C466 C 0.29788 0.84774 0.73333 0.0
C467 C 0.28602 0.87673 0.77065 0.0
C468 C 0.29027 0.89495 0.72615 0.0
C469 C 0.30935 0.91213 0.71959 0.0
C470 C 0.30553 0.93105 0.7011 0.0
C471 C 0.28166 0.93221 0.68879 0.0
C472 C 0.262 0.91468 0.69521 0.0
C473 C 0.26627 0.89617 0.71443 0.0
H474 H 0.75766 0.39854 0.76113 0.0
H475 H 0.72886 0.4624 0.80575 0.0
H476 H 0.68753 0.45995 0.78272 0.0
H477 H 0.72036 0.41148 0.70013 0.0
H478 H 0.71493 0.37771 0.69539 0.0
H479 H 0.74398 0.38852 0.71064 0.0
H480 H 0.7342 0.35938 0.74968 0.0
H481 H 0.7051 0.3487 0.73475 0.0
H482 H 0.70405 0.36284 0.76627 0.0
H483 H 0.64744 0.44614 0.76014 0.0
H484 H 0.61183 0.42134 0.74105 0.0
H485 H 0.66642 0.36536 0.7127 0.0
C486 C 0.74303 0.41272 0.7652 0.0
C487 C 0.74651 0.43096 0.78483 0.0
C488 C 0.72661 0.44852 0.79049 0.0
C489 C 0.70312 0.44729 0.77746 0.0
C490 C 0.69985 0.42834 0.75891 0.0
C491 C 0.71934 0.41142 0.75271 0.0
C492 C 0.70986 0.39048 0.73503 0.0
C493 C 0.72307 0.39216 0.70873 0.0
C494 C 0.71351 0.36379 0.74717 0.0
C495 C 0.6818 0.39759 0.73317 0.0
C496 C 0.67647 0.41982 0.74654 0.0
C497 C 0.65146 0.42898 0.7492 0.0
C498 C 0.63135 0.41478 0.73833 0.0
C499 C 0.63641 0.39151 0.72537 0.0
C500 C 0.66201 0.38322 0.7223 0.0
H501 H 0.87117 0.62791 0.26109 0.0
H502 H 0.8566 0.5929 0.18712 0.0
H503 H 0.81709 0.57306 0.20454 0.0
H504 H 0.84572 0.57586 0.30141 0.0
H505 H 0.83224 0.59814 0.32414 0.0
H506 H 0.86077 0.60652 0.30654 0.0
H507 H 0.83839 0.64783 0.29028 0.0
H508 H 0.80972 0.63943 0.30751 0.0
H509 H 0.8083 0.64533 0.27348 0.0
H510 H 0.77701 0.5601 0.22965 0.0
H511 H 0.74087 0.55475 0.26017 0.0
H512 H 0.78209 0.59986 0.31649 0.0
C513 C 0.86007 0.61553 0.24869 0.0
C514 C 0.86706 0.61171 0.22283 0.0
C515 C 0.85171 0.59583 0.20709 0.0
C516 C 0.82922 0.58455 0.21681 0.0
C517 C 0.82246 0.5894 0.24225 0.0
C518 C 0.8376 0.6044 0.25797 0.0
C519 C 0.82541 0.60832 0.28398 0.0
C520 C 0.84202 0.5965 0.30527 0.0
C521 C 0.82014 0.63692 0.28909 0.0
C522 C 0.80079 0.59354 0.28038 0.0
C523 C 0.79943 0.58253 0.25632 0.0
C524 C 0.77801 0.56849 0.2486 0.0
C525 C 0.75757 0.56561 0.26599 0.0
C526 C 0.75869 0.57692 0.29063 0.0
C527 C 0.78064 0.59098 0.29778 0.0
H528 H 0.23118 0.12634 0.10934 0.0
H529 H 0.30848 0.15685 0.10665 0.0
H530 H 0.29144 0.19855 0.09207 0.0
H531 H 0.20565 0.16298 0.0534 0.0
H532 H 0.17495 0.1675 0.06865 0.0
H533 H 0.19356 0.13915 0.07532 0.0
H534 H 0.19145 0.14931 0.12391 0.0
H535 H 0.17309 0.17776 0.11742 0.0
H536 H 0.20257 0.17996 0.13528 0.0
H537 H 0.2657 0.23827 0.08347 0.0
H538 H 0.23318 0.27254 0.07947 0.0
H539 H 0.17272 0.21601 0.08706 0.0
C540 C 0.24458 0.14157 0.10497 0.0
C541 C 0.27116 0.13834 0.10896 0.0
C542 C 0.28805 0.15887 0.10354 0.0
C543 C 0.27855 0.18263 0.09525 0.0
C544 C 0.25215 0.18544 0.09229 0.0
C545 C 0.23541 0.16539 0.09669 0.0
C546 C 0.20779 0.17393 0.09395 0.0
C547 C 0.19472 0.16007 0.07149 0.0
C548 C 0.19286 0.17001 0.11914 0.0
C549 C 0.21157 0.20209 0.08812 0.0
C550 C 0.2373 0.20833 0.08706 0.0
C551 C 0.2455 0.23353 0.08378 0.0
C552 C 0.22692 0.25287 0.08162 0.0
C553 C 0.20048 0.24687 0.08273 0.0
C554 C 0.1928 0.2211 0.08571 0.0
H555 H 0.76034 0.3378 0.84599 0.0
H556 H 0.80409 0.3606 0.91286 0.0
H557 H 0.78783 0.32255 0.93634 0.0
H558 H 0.70556 0.3171 0.87832 0.0
H559 H 0.69934 0.29062 0.85705 0.0
H560 H 0.71607 0.31839 0.8454 0.0
H561 H 0.75389 0.28961 0.83073 0.0
H562 H 0.73726 0.2617 0.84241 0.0
H563 H 0.7692 0.26866 0.85357 0.0
H564 H 0.76322 0.28374 0.9534 0.0
H565 H 0.73332 0.24781 0.96204 0.0
H566 H 0.70769 0.25066 0.88298 0.0
C567 C 0.76674 0.33469 0.8655 0.0
C568 C 0.78339 0.3521 0.87769 0.0
C569 C 0.79134 0.34738 0.9032 0.0
C570 C 0.78224 0.32584 0.91663 0.0
C571 C 0.76554 0.30916 0.90407 0.0
C572 C 0.75809 0.31331 0.87897 0.0
C573 C 0.73927 0.29329 0.86994 0.0
C574 C 0.71355 0.30559 0.86224 0.0
C575 C 0.75059 0.27737 0.84786 0.0
C576 C 0.7367 0.27751 0.89408 0.0
C577 C 0.75204 0.28677 0.91358 0.0
C578 C 0.75145 0.27611 0.93813 0.0
C579 C 0.73445 0.25573 0.94288 0.0
C580 C 0.71839 0.24635 0.92313 0.0
C581 C 0.71999 0.25715 0.89839 0.0
H582 H 0.80314 0.70747 0.43352 0.0
H583 H 0.74337 0.76455 0.42424 0.0
H584 H 0.71155 0.7301 0.41776 0.0
H585 H 0.78386 0.66863 0.3848 0.0
H586 H 0.7917 0.63869 0.40017 0.0
H587 H 0.80856 0.66735 0.40894 0.0
H588 H 0.79576 0.66051 0.45651 0.0
H589 H 0.77878 0.63171 0.44784 0.0
H590 H 0.76241 0.65693 0.46488 0.0
H591 H 0.68798 0.69025 0.40547 0.0
H592 H 0.6748 0.6484 0.38773 0.0
H593 H 0.74978 0.61723 0.40562 0.0
C594 C 0.78322 0.7127 0.43089 0.0
C595 C 0.77565 0.73863 0.42953 0.0
C596 C 0.74952 0.74476 0.4255 0.0
C597 C 0.73131 0.72532 0.42192 0.0
C598 C 0.73953 0.6999 0.42266 0.0
C599 C 0.76486 0.69355 0.42724 0.0
C600 C 0.76937 0.66506 0.4242 0.0
C601 C 0.78955 0.65963 0.40328 0.0
C602 C 0.77703 0.65283 0.44989 0.0
C603 C 0.74291 0.65651 0.41601 0.0
C604 C 0.72583 0.6768 0.41568 0.0
C605 C 0.70099 0.6741 0.40622 0.0
C606 C 0.69367 0.65028 0.39616 0.0
C607 C 0.71119 0.62955 0.39558 0.0
C608 C 0.73579 0.63256 0.40639 0.0
H609 H 0.21683 0.82032 0.63252 0.0
H610 H 0.23219 0.87416 0.57103 0.0
H611 H 0.2568 0.84069 0.54805 0.0
H612 H 0.27665 0.79334 0.6347 0.0
H613 H 0.26623 0.76108 0.64132 0.0
H614 H 0.24657 0.78775 0.6508 0.0
H615 H 0.20835 0.76916 0.62514 0.0
H616 H 0.22787 0.74225 0.61568 0.0
H617 H 0.21237 0.76165 0.59164 0.0
H618 H 0.28492 0.80361 0.53529 0.0
H619 H 0.3129 0.76546 0.53279 0.0
H620 H 0.27822 0.73543 0.60216 0.0
C621 C 0.22479 0.82489 0.61389 0.0
C622 C 0.22254 0.84979 0.60346 0.0
C623 C 0.23351 0.85513 0.57922 0.0
C624 C 0.24751 0.83624 0.56607 0.0
C625 C 0.25002 0.81207 0.57729 0.0
C626 C 0.23866 0.80627 0.60052 0.0
C627 C 0.24589 0.77961 0.60952 0.0
C628 C 0.25965 0.78052 0.63562 0.0
C629 C 0.22221 0.76213 0.61055 0.0
C630 C 0.26394 0.77164 0.58824 0.0
C631 C 0.26588 0.79052 0.5697 0.0
C632 C 0.28312 0.78848 0.54937 0.0
C633 C 0.29898 0.76679 0.54817 0.0
C634 C 0.29748 0.7474 0.56712 0.0
C635 C 0.27935 0.74968 0.58709 0.0
H636 H 0.87492 0.74653 0.87039 0.0
H637 H 0.84996 0.6761 0.83412 0.0
H638 H 0.86639 0.6917 0.79245 0.0
H639 H 0.85539 0.78695 0.82078 0.0
H640 H 0.8817 0.8091 0.82378 0.0
H641 H 0.87117 0.79107 0.85124 0.0
H642 H 0.91715 0.77321 0.85746 0.0
H643 H 0.92788 0.79133 0.83006 0.0
H644 H 0.93291 0.75717 0.83119 0.0
H645 H 0.8827 0.71638 0.7542 0.0
H646 H 0.89647 0.74871 0.72228 0.0
H647 H 0.90918 0.80339 0.78362 0.0
C648 C 0.8735 0.73415 0.8538 0.0
C649 C 0.86147 0.71002 0.85544 0.0
C650 C 0.85929 0.69461 0.83322 0.0
C651 C 0.86861 0.70328 0.80951 0.0
C652 C 0.87992 0.72743 0.80839 0.0
C653 C 0.88238 0.74266 0.82996 0.0
C654 C 0.89324 0.76869 0.82326 0.0
C655 C 0.87424 0.79021 0.83017 0.0
C656 C 0.91935 0.77283 0.83627 0.0
C657 C 0.89611 0.7659 0.79453 0.0
C658 C 0.88864 0.74187 0.78632 0.0
C659 C 0.8888 0.73518 0.76043 0.0
C660 C 0.89662 0.75364 0.74245 0.0
C661 C 0.90389 0.77849 0.7505 0.0
C662 C 0.90382 0.7845 0.7769 0.0
H663 H 0.6021 0.22745 0.25636 0.0
H664 H 0.53514 0.18879 0.28701 0.0
H665 H 0.53897 0.21377 0.32704 0.0
H666 H 0.63754 0.22649 0.31232 0.0
H667 H 0.6521 0.2575 0.308 0.0
H668 H 0.64194 0.23937 0.28054 0.0
H669 H 0.61373 0.27748 0.2656 0.0
H670 H 0.62385 0.29578 0.29309 0.0
H671 H 0.59019 0.29074 0.28718 0.0
H672 H 0.55307 0.23907 0.36545 0.0
H673 H 0.57662 0.26248 0.39925 0.0
H674 H 0.63405 0.28489 0.34336 0.0
C675 C 0.58789 0.22469 0.27126 0.0
C676 C 0.56824 0.2063 0.26856 0.0
C677 C 0.55028 0.20289 0.28865 0.0
C678 C 0.55225 0.21704 0.31142 0.0
C679 C 0.57217 0.23466 0.31371 0.0
C680 C 0.5896 0.23863 0.2941 0.0
C681 C 0.61047 0.25708 0.30217 0.0
C682 C 0.63707 0.24434 0.30068 0.0
C683 C 0.60949 0.28173 0.28605 0.0
C684 C 0.60258 0.26214 0.32964 0.0
C685 C 0.58026 0.24932 0.33586 0.0
C686 C 0.57031 0.24957 0.36069 0.0
C687 C 0.58381 0.26289 0.37976 0.0
C688 C 0.60701 0.27565 0.37387 0.0
C689 C 0.61613 0.27567 0.34836 0.0
H690 H 0.40594 0.72686 0.24451 0.0
H691 H 0.46465 0.67846 0.21091 0.0
H692 H 0.46262 0.70375 0.17088 0.0
H693 H 0.36801 0.73031 0.19021 0.0
H694 H 0.35793 0.76303 0.19482 0.0
H695 H 0.36688 0.74382 0.222 0.0
H696 H 0.40058 0.77785 0.23514 0.0
H697 H 0.3917 0.79721 0.20792 0.0
H698 H 0.42463 0.7877 0.21234 0.0
H699 H 0.45101 0.73136 0.13313 0.0
H700 H 0.42937 0.75778 0.10022 0.0
H701 H 0.37774 0.78749 0.15833 0.0
C702 C 0.41884 0.72203 0.22895 0.0
C703 C 0.43563 0.7009 0.23083 0.0
C704 C 0.45174 0.6947 0.20987 0.0
C705 C 0.4508 0.70901 0.18711 0.0
C706 C 0.43365 0.72945 0.18566 0.0
C707 C 0.41795 0.73595 0.20604 0.0
C708 C 0.39937 0.75701 0.19873 0.0
C709 C 0.37141 0.74799 0.2016 0.0
C710 C 0.40438 0.78139 0.21447 0.0
C711 C 0.40655 0.76082 0.17086 0.0
C712 C 0.42665 0.74507 0.16377 0.0
C713 C 0.43551 0.74405 0.13854 0.0
C714 C 0.42313 0.75912 0.11998 0.0
C715 C 0.40199 0.77475 0.12676 0.0
C716 C 0.39405 0.77596 0.15263 0.0
H717 H 0.11204 0.25204 0.63484 0.0
H718 H 0.14767 0.18754 0.67333 0.0
H719 H 0.1366 0.20627 0.71534 0.0
H720 H 0.13592 0.29848 0.677 0.0
H721 H 0.10791 0.31872 0.67645 0.0
H722 H 0.11524 0.29872 0.64931 0.0
H723 H 0.0703 0.27779 0.65235 0.0
H724 H 0.06275 0.29788 0.67943 0.0
H725 H 0.06012 0.26355 0.68217 0.0
H726 H 0.12456 0.2331 0.753 0.0
H727 H 0.11341 0.26719 0.78396 0.0
H728 H 0.08747 0.31538 0.72126 0.0
C729 C 0.11683 0.24162 0.65215 0.0
C730 C 0.13037 0.21824 0.65098 0.0
C731 C 0.13713 0.20544 0.67394 0.0
C732 C 0.13088 0.21587 0.69785 0.0
C733 C 0.11806 0.23925 0.69848 0.0
C734 C 0.11114 0.25205 0.67628 0.0
C735 C 0.09959 0.27799 0.6824 0.0
C736 C 0.11563 0.29975 0.67059 0.0
C737 C 0.07152 0.27937 0.67356 0.0
C738 C 0.10152 0.27788 0.7114 0.0
C739 C 0.1119 0.25521 0.72029 0.0
C740 C 0.11623 0.25088 0.74631 0.0
C741 C 0.10988 0.27034 0.76374 0.0
C742 C 0.09961 0.29387 0.755 0.0
C743 C 0.09525 0.29755 0.7285 0.0
H744 H 0.79248 0.92801 0.81343 0.0
H745 H 0.73621 0.93683 0.75286 0.0
H746 H 0.76981 0.92874 0.72049 0.0
H747 H 0.84865 0.95539 0.77708 0.0
H748 H 0.87029 0.93231 0.79099 0.0
H749 H 0.84298 0.94347 0.80904 0.0
H750 H 0.82803 0.89654 0.81542 0.0
H751 H 0.85514 0.88528 0.79739 0.0
H752 H 0.82317 0.87646 0.78772 0.0
H753 H 0.80723 0.91252 0.69555 0.0
H754 H 0.84596 0.89014 0.67989 0.0
H755 H 0.87839 0.89289 0.75637 0.0
C756 C 0.78742 0.92906 0.79332 0.0
C757 C 0.76182 0.93319 0.78561 0.0
C758 C 0.75577 0.93385 0.75916 0.0
C759 C 0.77474 0.92936 0.74064 0.0
C760 C 0.79969 0.92452 0.74889 0.0
C761 C 0.80614 0.92461 0.77461 0.0
C762 C 0.83364 0.91618 0.77859 0.0
C763 C 0.84985 0.93815 0.78957 0.0
C764 C 0.83505 0.89219 0.79578 0.0
C765 C 0.84127 0.91018 0.75123 0.0
C766 C 0.82154 0.91547 0.73433 0.0
C767 C 0.82306 0.90892 0.70846 0.0
C768 C 0.84507 0.89617 0.69975 0.0
C769 C 0.86524 0.89017 0.71687 0.0
C770 C 0.86355 0.89789 0.74274 0.0
H771 H 0.62269 0.10032 0.25797 0.0
H772 H 0.65463 0.12718 0.18601 0.0
H773 H 0.69681 0.10931 0.19802 0.0
H774 H 0.67427 0.11694 0.2956 0.0
H775 H 0.67246 0.08971 0.3168 0.0
H776 H 0.64408 0.10097 0.30084 0.0
H777 H 0.63685 0.05579 0.28151 0.0
H778 H 0.66529 0.04435 0.29748 0.0
H779 H 0.6621 0.04081 0.26325 0.0
H780 H 0.73663 0.09328 0.22019 0.0
H781 H 0.77059 0.08101 0.25101 0.0
H782 H 0.71239 0.06455 0.30815 0.0
C783 C 0.63839 0.10183 0.24446 0.0
C784 C 0.63538 0.11497 0.22101 0.0
C785 C 0.65651 0.11705 0.20404 0.0
C786 C 0.68052 0.10689 0.21065 0.0
C787 C 0.68304 0.09455 0.23422 0.0
C788 C 0.66248 0.09186 0.2508 0.0
C789 C 0.6707 0.07994 0.27593 0.0
C790 C 0.66505 0.09797 0.29861 0.0
C791 C 0.65798 0.05365 0.27976 0.0
C792 C 0.69921 0.07721 0.27127 0.0
C793 C 0.70596 0.08537 0.24698 0.0
C794 C 0.73152 0.0864 0.2391 0.0
C795 C 0.75068 0.0794 0.25669 0.0
C796 C 0.74411 0.07168 0.28187 0.0
C797 C 0.71801 0.07005 0.28892 0.0
H798 H 0.34133 0.64926 0.26998 0.0
H799 H 0.38118 0.5763 0.27301 0.0
H800 H 0.34233 0.55454 0.25696 0.0
H801 H 0.277 0.62473 0.28793 0.0
H802 H 0.26093 0.64616 0.26609 0.0
H803 H 0.29078 0.65557 0.28071 0.0
H804 H 0.31039 0.66378 0.23576 0.0
H805 H 0.28064 0.65454 0.22106 0.0
H806 H 0.30995 0.63849 0.21222 0.0
H807 H 0.30128 0.54156 0.23598 0.0
H808 H 0.26127 0.53844 0.21087 0.0
H809 H 0.24751 0.61956 0.22246 0.0
C810 C 0.34172 0.62864 0.26772 0.0
C811 C 0.36421 0.61442 0.27282 0.0
C812 C 0.36411 0.58753 0.26929 0.0
C813 C 0.34211 0.575 0.2603 0.0
C814 C 0.32033 0.58961 0.25513 0.0
C815 C 0.31992 0.61584 0.25879 0.0
C816 C 0.29478 0.62737 0.24989 0.0
C817 C 0.28 0.63915 0.27251 0.0
C818 C 0.29922 0.6472 0.22846 0.0
C819 C 0.28143 0.60365 0.23986 0.0
C820 C 0.29638 0.58203 0.24334 0.0
C821 C 0.28917 0.55824 0.23361 0.0
C822 C 0.26643 0.55665 0.21939 0.0
C823 C 0.25117 0.57867 0.21511 0.0
C824 C 0.25845 0.60229 0.22607 0.0
H825 H 0.21753 0.42873 0.68406 0.0
H826 H 0.27897 0.42521 0.73995 0.0
H827 H 0.24699 0.42084 0.7747 0.0
H828 H 0.16981 0.46305 0.72564 0.0
H829 H 0.1436 0.44465 0.71274 0.0
H830 H 0.17102 0.45187 0.69296 0.0
H831 H 0.17726 0.40345 0.68384 0.0
H832 H 0.14999 0.39609 0.70357 0.0
H833 H 0.18059 0.38152 0.71037 0.0
H834 H 0.20905 0.40986 0.80213 0.0
H835 H 0.1682 0.39391 0.82009 0.0
H836 H 0.13133 0.40576 0.74655 0.0
C837 C 0.22424 0.4278 0.70368 0.0
C838 C 0.25071 0.42745 0.70936 0.0
C839 C 0.25876 0.42571 0.73521 0.0
C840 C 0.24073 0.42328 0.75507 0.0
C841 C 0.21475 0.42293 0.74875 0.0
C842 C 0.20651 0.42541 0.72368 0.0
C843 C 0.17776 0.42196 0.72163 0.0
C844 C 0.16478 0.44687 0.71272 0.0
C845 C 0.17103 0.39942 0.70381 0.0
C846 C 0.17121 0.41603 0.74928 0.0
C847 C 0.19275 0.417 0.7647 0.0
C848 C 0.19195 0.40966 0.7904 0.0
C849 C 0.16869 0.40059 0.80042 0.0
C850 C 0.14658 0.39898 0.78479 0.0
C851 C 0.14777 0.40746 0.75911 0.0
H852 H 0.78284 0.77257 0.9335 0.0
H853 H 0.74272 0.71796 0.8854 0.0
H854 H 0.71554 0.75289 0.86853 0.0
H855 H 0.72638 0.81554 0.94638 0.0
H856 H 0.74621 0.84378 0.94508 0.0
H857 H 0.75939 0.81392 0.95646 0.0
H858 H 0.79558 0.81714 0.92253 0.0
H859 H 0.7824 0.84675 0.91084 0.0
H860 H 0.78727 0.82033 0.88913 0.0
H861 H 0.69805 0.79422 0.85182 0.0
H862 H 0.68932 0.8388 0.83851 0.0
H863 H 0.73991 0.86658 0.89829 0.0
C864 C 0.76779 0.76783 0.92002 0.0
C865 C 0.76477 0.74257 0.91082 0.0
C866 C 0.74519 0.73716 0.89285 0.0
C867 C 0.72968 0.75688 0.88317 0.0
C868 C 0.73381 0.78177 0.89192 0.0
C869 C 0.75211 0.78725 0.91026 0.0
C870 C 0.75423 0.81583 0.91484 0.0
C871 C 0.74606 0.82267 0.94232 0.0
C872 C 0.78148 0.82557 0.90897 0.0
C873 C 0.73505 0.82566 0.89543 0.0
C874 C 0.72332 0.80569 0.88256 0.0
C875 C 0.70665 0.81 0.86216 0.0
C876 C 0.70193 0.83535 0.85464 0.0
C877 C 0.71378 0.85604 0.86756 0.0
C878 C 0.73022 0.85111 0.88845 0.0
H879 H 0.22915 0.6672 0.14334 0.0
H880 H 0.2438 0.61388 0.08119 0.0
H881 H 0.26764 0.64757 0.05792 0.0
H882 H 0.2214 0.72461 0.1035 0.0
H883 H 0.2373 0.74501 0.12637 0.0
H884 H 0.21984 0.71728 0.13726 0.0
H885 H 0.26046 0.70066 0.16058 0.0
H886 H 0.278 0.72833 0.14983 0.0
H887 H 0.28981 0.69665 0.14272 0.0
H888 H 0.29261 0.6858 0.04313 0.0
H889 H 0.31703 0.72597 0.03775 0.0
H890 H 0.28527 0.7548 0.10904 0.0
C891 C 0.2371 0.66271 0.12469 0.0
C892 C 0.2346 0.63797 0.114 0.0
C893 C 0.24546 0.63274 0.08967 0.0
C894 C 0.25896 0.65176 0.0763 0.0
C895 C 0.26126 0.6759 0.08748 0.0
C896 C 0.25057 0.68146 0.11108 0.0
C897 C 0.25686 0.70854 0.11941 0.0
C898 C 0.23239 0.72482 0.12177 0.0
C899 C 0.2722 0.70853 0.14462 0.0
C900 C 0.27318 0.7172 0.09702 0.0
C901 C 0.27537 0.69812 0.07875 0.0
C902 C 0.29075 0.70101 0.05711 0.0
C903 C 0.30456 0.72386 0.05423 0.0
C904 C 0.30279 0.74353 0.07284 0.0
C905 C 0.28656 0.74027 0.09427 0.0
H906 H 0.28159 0.33059 0.63487 0.0
H907 H 0.25717 0.38237 0.57455 0.0
H908 H 0.23632 0.34608 0.5521 0.0
H909 H 0.29352 0.27433 0.59327 0.0
H910 H 0.28182 0.25233 0.61722 0.0
H911 H 0.29706 0.2818 0.62682 0.0
H912 H 0.25696 0.29396 0.65363 0.0
H913 H 0.24171 0.26457 0.64422 0.0
H914 H 0.22598 0.29478 0.63833 0.0
H915 H 0.2135 0.30533 0.53962 0.0
H916 H 0.19108 0.26365 0.5378 0.0
H917 H 0.23245 0.23825 0.60523 0.0
C918 C 0.27218 0.33426 0.61673 0.0
C919 C 0.2709 0.35926 0.60641 0.0
C920 C 0.2584 0.36332 0.58269 0.0
C921 C 0.2466 0.34282 0.56982 0.0
C922 C 0.24792 0.31842 0.58075 0.0
C923 C 0.26063 0.31406 0.60357 0.0
C924 C 0.25798 0.2865 0.61222 0.0
C925 C 0.28416 0.27294 0.61238 0.0
C926 C 0.24487 0.28488 0.63865 0.0
C927 C 0.24094 0.27614 0.59121 0.0
C928 C 0.23551 0.29477 0.5731 0.0
C929 C 0.2181 0.29044 0.55333 0.0
C930 C 0.20547 0.26674 0.55244 0.0
C931 C 0.21043 0.24765 0.57111 0.0
C932 C 0.22891 0.25221 0.59027 0.0
H933 H 0.69135 0.2134 0.42754 0.0
H934 H 0.73858 0.27417 0.39596 0.0
H935 H 0.76919 0.2419 0.37966 0.0
H936 H 0.74449 0.17068 0.44626 0.0
H937 H 0.72699 0.1422 0.43762 0.0
H938 H 0.71001 0.17018 0.44868 0.0
H939 H 0.68261 0.16998 0.40724 0.0
H940 H 0.69954 0.14211 0.39601 0.0
H941 H 0.69839 0.17058 0.37647 0.0
H942 H 0.79218 0.20315 0.36321 0.0
H943 H 0.80697 0.16043 0.34913 0.0
H944 H 0.74554 0.1249 0.39254 0.0
C945 C 0.70836 0.21993 0.41757 0.0
C946 C 0.71267 0.24625 0.41303 0.0
C947 C 0.735 0.25407 0.39972 0.0
C948 C 0.75248 0.23591 0.39041 0.0
C949 C 0.74745 0.21007 0.39482 0.0
C950 C 0.72606 0.20208 0.40828 0.0
C951 C 0.72448 0.17313 0.40936 0.0
C952 C 0.72663 0.16348 0.43714 0.0
C953 C 0.6998 0.16339 0.3965 0.0
C954 C 0.74801 0.16608 0.39389 0.0
C955 C 0.76103 0.18767 0.38575 0.0
C956 C 0.7824 0.18609 0.3698 0.0
C957 C 0.7906 0.16178 0.36185 0.0
C958 C 0.77751 0.13945 0.36997 0.0
C959 C 0.75615 0.14166 0.38643 0.0
H960 H 0.11224 0.20365 0.50134 0.0
H961 H 0.14765 0.12971 0.5153 0.0
H962 H 0.13502 0.11535 0.47212 0.0
H963 H 0.0587 0.18077 0.46105 0.0
H964 H 0.06057 0.20765 0.4394 0.0
H965 H 0.06978 0.21142 0.47249 0.0
H966 H 0.11426 0.22818 0.45812 0.0
H967 H 0.10525 0.22433 0.42502 0.0
H968 H 0.13372 0.20887 0.43706 0.0
H969 H 0.12067 0.10936 0.42767 0.0
H970 H 0.10663 0.11233 0.3828 0.0
H971 H 0.08228 0.19095 0.39541 0.0
C972 C 0.11678 0.1843 0.49537 0.0
C973 C 0.13063 0.1676 0.51159 0.0
C974 C 0.13695 0.14267 0.50307 0.0
C975 C 0.12981 0.13433 0.47866 0.0
C976 C 0.11662 0.1513 0.46287 0.0
C977 C 0.11022 0.17579 0.47069 0.0
C978 C 0.09774 0.19068 0.44899 0.0
C979 C 0.07005 0.19806 0.4559 0.0
C980 C 0.1137 0.21442 0.44188 0.0
C981 C 0.09842 0.17076 0.42779 0.0
C982 C 0.10911 0.14813 0.43646 0.0
C983 C 0.11218 0.12692 0.42062 0.0
C984 C 0.10414 0.12884 0.39514 0.0
C985 C 0.0934 0.15188 0.38561 0.0
C986 C 0.09047 0.17312 0.40219 0.0
H987 H 0.40004 0.79566 0.98827 0.0
H988 H 0.33255 0.84432 0.99102 0.0
H989 H 0.34004 0.85732 0.9462 0.0
H990 H 0.43889 0.83649 0.9487 0.0
H991 H 0.45278 0.81065 0.93043 0.0
H992 H 0.44249 0.80521 0.96296 0.0
H993 H 0.41337 0.76801 0.94778 0.0
H994 H 0.42367 0.77324 0.91522 0.0
H995 H 0.39 0.77379 0.92299 0.0
H996 H 0.35555 0.86656 0.90222 0.0
H997 H 0.37592 0.86848 0.85961 0.0
H998 H 0.43201 0.81189 0.88372 0.0
C999 C 0.38687 0.809 0.97936 0.0
C1000 C 0.36577 0.81907 0.99306 0.0
C1001 C 0.34878 0.83633 0.9808 0.0
C1002 C 0.35293 0.84391 0.9554 0.0
C1003 C 0.37395 0.8338 0.94244 0.0
C1004 C 0.39048 0.81647 0.95379 0.0
C1005 C 0.41115 0.80799 0.93515 0.0
C1006 C 0.43791 0.81554 0.9449 0.0
C1007 C 0.40943 0.77904 0.92998 0.0
C1008 C 0.40371 0.82343 0.91166 0.0
C1009 C 0.38235 0.83837 0.91647 0.0
C1010 C 0.37216 0.85482 0.89811 0.0
C1011 C 0.38393 0.85585 0.87402 0.0
C1012 C 0.40545 0.84028 0.8684 0.0
C1013 C 0.41548 0.82388 0.88749 0.0
H1014 H 0.61385 0.33098 0.50926 0.0
H1015 H 0.65591 0.25949 0.51567 0.0
H1016 H 0.64541 0.25745 0.56184 0.0
H1017 H 0.63468 0.35676 0.56878 0.0
H1018 H 0.60461 0.3722 0.57605 0.0
H1019 H 0.61388 0.36712 0.54318 0.0
H1020 H 0.57144 0.34271 0.53488 0.0
H1021 H 0.56202 0.34773 0.56775 0.0
H1022 H 0.56319 0.31572 0.55483 0.0
H1023 H 0.63109 0.2636 0.60734 0.0
H1024 H 0.61562 0.27855 0.64956 0.0
H1025 H 0.58431 0.34686 0.6138 0.0
C1026 C 0.62058 0.31476 0.52035 0.0
C1027 C 0.63552 0.29529 0.50894 0.0
C1028 C 0.64438 0.27457 0.52409 0.0
C1029 C 0.63846 0.27322 0.55028 0.0
C1030 C 0.62384 0.29282 0.56101 0.0
C1031 C 0.61511 0.31327 0.54657 0.0
C1032 C 0.60086 0.33246 0.56305 0.0
C1033 C 0.61432 0.35868 0.56275 0.0
C1034 C 0.57271 0.33478 0.55462 0.0
C1035 C 0.60308 0.31969 0.58903 0.0
C1036 C 0.61618 0.29672 0.58738 0.0
C1037 C 0.62078 0.28154 0.60888 0.0
C1038 C 0.6119 0.29017 0.63275 0.0
C1039 C 0.59882 0.31385 0.63491 0.0
C1040 C 0.59428 0.32868 0.61271 0.0
H1041 H 0.86404 0.66024 0.11733 0.0
H1042 H 0.92077 0.7209 0.12057 0.0
H1043 H 0.91155 0.73194 0.0754 0.0
H1044 H 0.87741 0.63923 0.05509 0.0
H1045 H 0.84456 0.63309 0.04635 0.0
H1046 H 0.8542 0.63113 0.07942 0.0
H1047 H 0.81937 0.6643 0.09194 0.0
H1048 H 0.80939 0.66615 0.05891 0.0
H1049 H 0.81843 0.69486 0.07582 0.0
H1050 H 0.89953 0.73306 0.0286 0.0
H1051 H 0.88196 0.72745 0.98487 0.0
H1052 H 0.8314 0.66779 0.01305 0.0
C1053 C 0.87419 0.67614 0.10865 0.0
C1054 C 0.8931 0.68974 0.12237 0.0
C1055 C 0.90607 0.71036 0.1104 0.0
C1056 C 0.90104 0.71669 0.08475 0.0
C1057 C 0.88272 0.70248 0.07153 0.0
C1058 C 0.86915 0.68294 0.08321 0.0
C1059 C 0.85075 0.67035 0.06467 0.0
C1060 C 0.85713 0.64176 0.06118 0.0
C1061 C 0.82283 0.67415 0.07336 0.0
C1062 C 0.8565 0.68547 0.04058 0.0
C1063 C 0.8751 0.70381 0.04488 0.0
C1064 C 0.88465 0.71907 0.0251 0.0
C1065 C 0.8747 0.71565 0.00035 0.0
C1066 C 0.85523 0.69736 0.99574 0.0
C1067 C 0.84603 0.68217 0.01615 0.0
H1068 H 0.37264 0.12508 0.17437 0.0
H1069 H 0.37714 0.04305 0.18724 0.0
H1070 H 0.42307 0.04731 0.19821 0.0
H1071 H 0.43268 0.13194 0.14447 0.0
H1072 H 0.43991 0.16249 0.15884 0.0
H1073 H 0.40708 0.15322 0.15382 0.0
H1074 H 0.39743 0.16006 0.2021 0.0
H1075 H 0.43023 0.16953 0.20725 0.0
H1076 H 0.41662 0.14372 0.22575 0.0
H1077 H 0.46925 0.06036 0.20508 0.0
H1078 H 0.5116 0.08139 0.20873 0.0
H1079 H 0.47635 0.15478 0.19159 0.0
C1080 C 0.38319 0.10805 0.17984 0.0
C1081 C 0.37135 0.08374 0.18004 0.0
C1082 C 0.38584 0.06188 0.18711 0.0
C1083 C 0.41192 0.06411 0.19333 0.0
C1084 C 0.42312 0.08834 0.19252 0.0
C1085 C 0.40915 0.10995 0.18616 0.0
C1086 C 0.42584 0.13365 0.18596 0.0
C1087 C 0.42641 0.14604 0.15918 0.0
C1088 C 0.417 0.15287 0.20649 0.0
C1089 C 0.45149 0.12196 0.19276 0.0
C1090 C 0.44956 0.09583 0.19658 0.0
C1091 C 0.47094 0.08084 0.20234 0.0
C1092 C 0.4949 0.09293 0.20432 0.0
C1093 C 0.49722 0.11969 0.20051 0.0
C1094 C 0.47517 0.1343 0.19473 0.0
H1095 H 0.99799 0.87951 0.67142 0.0
H1096 H 0.00714 0.82374 0.73241 0.0
H1097 H 0.05414 0.8302 0.73126 0.0
H1098 H 0.05208 0.85893 0.63555 0.0
H1099 H 0.06082 0.89058 0.62483 0.0
H1100 H 0.02786 0.88334 0.63204 0.0
H1101 H 0.02634 0.92104 0.66436 0.0
H1102 H 0.05928 0.92849 0.65714 0.0
H1103 H 0.04966 0.92252 0.68981 0.0
H1104 H 0.09995 0.84279 0.72333 0.0
H1105 H 0.14174 0.85841 0.7073 0.0
H1106 H 0.10273 0.90327 0.64912 0.0
C1107 C 0.0099 0.86901 0.68481 0.0
C1108 C -0.0009 0.85141 0.70227 0.0
C1109 C 0.01519 0.83744 0.71904 0.0
C1110 C 0.04182 0.84101 0.71853 0.0
C1111 C 0.05195 0.85832 0.70087 0.0
C1112 C 0.03652 0.87193 0.68416 0.0
C1113 C 0.0523 0.88804 0.66589 0.0
C1114 C 0.04801 0.87971 0.63793 0.0
C1115 C 0.04655 0.91672 0.66953 0.0
C1116 C 0.07904 0.88136 0.67492 0.0
C1117 C 0.0784 0.86446 0.69533 0.0
C1118 C 0.1007 0.85592 0.70728 0.0
C1119 C 0.1243 0.86489 0.69808 0.0
C1120 C 0.12535 0.88182 0.67689 0.0
C1121 C 0.10243 0.89008 0.66516 0.0
H1122 H 0.00542 0.40336 0.81561 0.0
H1123 H 0.00014 0.33076 0.7755 0.0
H1124 H 0.95318 0.33585 0.77245 0.0
H1125 H 0.95096 0.39402 0.85388 0.0
H1126 H 0.94059 0.42698 0.8534 0.0
H1127 H 0.97402 0.41938 0.84959 0.0
H1128 H 0.97503 0.44443 0.80668 0.0
H1129 H 0.94154 0.45217 0.81039 0.0
H1130 H 0.95257 0.43634 0.78171 0.0
H1131 H 0.90691 0.34729 0.77605 0.0
H1132 H 0.86398 0.36326 0.78801 0.0
H1133 H 0.89891 0.42759 0.82744 0.0
C1134 C 0.99438 0.38884 0.80572 0.0
C1135 C 0.00633 0.36679 0.79555 0.0
C1136 C 0.99129 0.34784 0.78331 0.0
C1137 C 0.96465 0.35061 0.7814 0.0
C1138 C 0.95336 0.37237 0.79196 0.0
C1139 C 0.96768 0.39114 0.80397 0.0
C1140 C 0.95056 0.41153 0.81561 0.0
C1141 C 0.95426 0.41305 0.84485 0.0
C1142 C 0.95521 0.43767 0.80283 0.0
C1143 C 0.9244 0.40098 0.80876 0.0
C1144 C 0.92649 0.37861 0.79474 0.0
C1145 C 0.905 0.36489 0.78685 0.0
C1146 C 0.88072 0.37411 0.79373 0.0
C1147 C 0.87815 0.39665 0.80862 0.0
C1148 C 0.9003 0.41036 0.81595 0.0
H1149 H 0.5242 0.64882 0.30077 0.0
H1150 H 0.48547 0.57553 0.29466 0.0
H1151 H 0.52732 0.55329 0.29717 0.0
H1152 H 0.58064 0.63141 0.2631 0.0
H1153 H 0.6021 0.64962 0.2831 0.0
H1154 H 0.56926 0.65968 0.2794 0.0
H1155 H 0.56318 0.65872 0.32873 0.0
H1156 H 0.59599 0.64879 0.33259 0.0
H1157 H 0.57052 0.62979 0.34616 0.0
H1158 H 0.57325 0.53912 0.30313 0.0
H1159 H 0.61946 0.53417 0.3126 0.0
H1160 H 0.62787 0.61687 0.31373 0.0
C1161 C 0.52452 0.62809 0.29977 0.0
C1162 C 0.50163 0.61386 0.29753 0.0
C1163 C 0.50282 0.58678 0.29634 0.0
C1164 C 0.52649 0.57401 0.29768 0.0
C1165 C 0.54873 0.58863 0.29998 0.0
C1166 C 0.54793 0.61508 0.30094 0.0
C1167 C 0.57443 0.62633 0.3044 0.0
C1168 C 0.58205 0.64273 0.28111 0.0
C1169 C 0.57612 0.64181 0.32946 0.0
C1170 C 0.59024 0.60206 0.3058 0.0
C1171 C 0.57512 0.5805 0.30304 0.0
C1172 C 0.58532 0.55587 0.30501 0.0
C1173 C 0.61156 0.55325 0.31036 0.0
C1174 C 0.62725 0.57513 0.31367 0.0
C1175 C 0.61645 0.59979 0.3109 0.0
H1176 H 0.14772 0.38747 0.12792 0.0
H1177 H 0.20119 0.37727 0.06492 0.0
H1178 H 0.21551 0.42211 0.06986 0.0
H1179 H 0.12911 0.45135 0.11262 0.0
H1180 H 0.12705 0.46174 0.14551 0.0
H1181 H 0.12155 0.42863 0.13755 0.0
H1182 H 0.15697 0.4148 0.16954 0.0
H1183 H 0.16251 0.44788 0.17768 0.0
H1184 H 0.18868 0.42821 0.16659 0.0
H1185 H 0.22287 0.46842 0.08066 0.0
H1186 H 0.22378 0.51265 0.09749 0.0
H1187 H 0.16591 0.49243 0.15383 0.0
C1188 C 0.16256 0.39462 0.11528 0.0
C1189 C 0.17338 0.37892 0.09604 0.0
C1190 C 0.1927 0.38898 0.07982 0.0
C1191 C 0.20093 0.41441 0.08246 0.0
C1192 C 0.18971 0.42946 0.10148 0.0
C1193 C 0.17106 0.41992 0.1177 0.0
C1194 C 0.16194 0.44016 0.13641 0.0
C1195 C 0.13321 0.4458 0.13279 0.0
C1196 C 0.16789 0.43229 0.1642 0.0
C1197 C 0.17825 0.46264 0.12804 0.0
C1198 C 0.19413 0.45607 0.10786 0.0
C1199 C 0.21062 0.47376 0.09655 0.0
C1200 C 0.21097 0.49883 0.1062 0.0
C1201 C 0.19496 0.50592 0.12698 0.0
C1202 C 0.17844 0.48753 0.13799 0.0
H1203 H 0.66972 0.01423 0.85907 0.0
H1204 H 0.73205 0.98915 0.90805 0.0
H1205 H 0.73054 0.03075 0.931 0.0
H1206 H 0.6885 0.0791 0.85277 0.0
H1207 H 0.65623 0.09145 0.85375 0.0
H1208 H 0.66215 0.05966 0.84177 0.0
H1209 H 0.63004 0.04108 0.87488 0.0
H1210 H 0.62398 0.07285 0.88696 0.0
H1211 H 0.63438 0.04789 0.90849 0.0
H1212 H 0.72342 0.07648 0.94677 0.0
H1213 H 0.70974 0.12113 0.95556 0.0
H1214 H 0.65079 0.11441 0.89734 0.0
C1215 C 0.68304 0.01745 0.87466 0.0
C1216 C 0.70112 -0.00137 0.88174 0.0
C1217 C 0.71806 0.00341 0.90238 0.0
C1218 C 0.71734 0.02694 0.91547 0.0
C1219 C 0.69934 0.04521 0.90785 0.0
C1220 C 0.68233 0.04056 0.88808 0.0
C1221 C 0.6647 0.06312 0.88359 0.0
C1222 C 0.66812 0.07397 0.85636 0.0
C1223 C 0.63662 0.05579 0.8888 0.0
C1224 C 0.67467 0.08145 0.90364 0.0
C1225 C 0.6947 0.0709 0.91742 0.0
C1226 C 0.70758 0.0848 0.93627 0.0
C1227 C 0.69973 0.11012 0.9411 0.0
C1228 C 0.6791 0.12108 0.92727 0.0
C1229 C 0.66641 0.10643 0.90845 0.0
H1230 H 0.81352 0.97662 0.34296 0.0
H1231 H 0.77224 0.00918 0.40747 0.0
H1232 H 0.7712 0.9666 0.42828 0.0
H1233 H 0.78116 0.91486 0.34232 0.0
H1234 H 0.80994 0.89751 0.3342 0.0
H1235 H 0.806 0.93021 0.32382 0.0
H1236 H 0.84884 0.94238 0.34582 0.0
H1237 H 0.85289 0.90977 0.35628 0.0
H1238 H 0.85323 0.93543 0.3794 0.0
H1239 H 0.77609 0.92065 0.44264 0.0
H1240 H 0.78742 0.87515 0.44985 0.0
H1241 H 0.82605 0.87328 0.37614 0.0
C1242 C 0.80402 0.97474 0.36133 0.0
C1243 C 0.79286 0.99612 0.37359 0.0
C1244 C 0.78086 0.99298 0.39775 0.0
C1245 C 0.78013 0.96889 0.40968 0.0
C1246 C 0.79152 0.94821 0.39717 0.0
C1247 C 0.80325 0.95091 0.37354 0.0
C1248 C 0.81501 0.92596 0.36463 0.0
C1249 C 0.80226 0.91659 0.33977 0.0
C1250 C 0.84422 0.92855 0.36135 0.0
C1251 C 0.80833 0.90884 0.38706 0.0
C1252 C 0.7946 0.92194 0.40556 0.0
C1253 C 0.78673 0.91017 0.42824 0.0
C1254 C 0.79324 0.88436 0.43216 0.0
C1255 C 0.80758 0.87075 0.41355 0.0
C1256 C 0.81502 0.88318 0.39069 0.0
H1257 H 0.28964 0.50851 0.6267 0.0
H1258 H 0.35282 0.46943 0.58915 0.0
H1259 H 0.3667 0.51041 0.56992 0.0
H1260 H 0.27631 0.55393 0.57408 0.0
H1261 H 0.26871 0.57971 0.59579 0.0
H1262 H 0.2627 0.547 0.60511 0.0
H1263 H 0.29026 0.55348 0.64591 0.0
H1264 H 0.29643 0.58613 0.63669 0.0
H1265 H 0.32281 0.56464 0.64275 0.0
H1266 H 0.37626 0.55603 0.55854 0.0
H1267 H 0.37939 0.603 0.55354 0.0
H1268 H 0.30881 0.6124 0.59657 0.0
C1269 C 0.30617 0.50852 0.61412 0.0
C1270 C 0.32017 0.48581 0.60938 0.0
C1271 C 0.34176 0.4866 0.59293 0.0
C1272 C 0.34979 0.50978 0.58194 0.0
C1273 C 0.33582 0.53191 0.58733 0.0
C1274 C 0.31429 0.53145 0.60277 0.0
C1275 C 0.30317 0.55809 0.60614 0.0
C1276 C 0.27612 0.55978 0.59459 0.0
C1277 C 0.30318 0.56605 0.63456 0.0
C1278 C 0.3222 0.5737 0.59072 0.0
C1279 C 0.34088 0.55819 0.58003 0.0
C1280 C 0.36152 0.56832 0.56643 0.0
C1281 C 0.36318 0.59499 0.56377 0.0
C1282 C 0.3442 0.61121 0.57444 0.0
C1283 C 0.3233 0.60037 0.58781 0.0
H1284 H 0.84315 0.78646 0.51937 0.0
H1285 H 0.90646 0.82009 0.4771 0.0
H1286 H 0.92958 0.82743 0.51774 0.0
H1287 H 0.84443 0.82981 0.57112 0.0
H1288 H 0.83663 0.80634 0.59526 0.0
H1289 H 0.82596 0.80185 0.56276 0.0
H1290 H 0.84822 0.75746 0.56143 0.0
H1291 H 0.85897 0.76179 0.59398 0.0
H1292 H 0.88187 0.75503 0.56897 0.0
H1293 H 0.94447 0.83371 0.56285 0.0
H1294 H 0.95019 0.83863 0.60956 0.0
H1295 H 0.87735 0.80064 0.62262 0.0
C1296 C 0.86203 0.79506 0.51865 0.0
C1297 C 0.87309 0.80265 0.49511 0.0
C1298 C 0.89768 0.81409 0.49494 0.0
C1299 C 0.91098 0.81827 0.51791 0.0
C1300 C 0.89942 0.81082 0.54082 0.0
C1301 C 0.87554 0.7994 0.54139 0.0
C1302 C 0.8669 0.79432 0.56867 0.0
C1303 C 0.84201 0.80896 0.5748 0.0
C1304 C 0.86382 0.76543 0.57354 0.0
C1305 C 0.88946 0.80511 0.58336 0.0
C1306 C 0.90807 0.81438 0.56691 0.0
C1307 C 0.93017 0.82629 0.57593 0.0
C1308 C 0.93322 0.82903 0.60247 0.0
C1309 C 0.91427 0.8199 0.61966 0.0
C1310 C 0.89228 0.80752 0.60993 0.0
H1311 H 0.61221 0.16298 0.01187 0.0
H1312 H 0.62856 0.24447 0.01274 0.0
H1313 H 0.61052 0.24758 0.05648 0.0
H1314 H 0.55238 0.16551 0.04923 0.0
H1315 H 0.55953 0.13618 0.06605 0.0
H1316 H 0.57124 0.14093 0.03388 0.0
H1317 H 0.61768 0.13238 0.0494 0.0
H1318 H 0.60612 0.12758 0.08155 0.0
H1319 H 0.63056 0.15119 0.07535 0.0
H1320 H 0.59345 0.24117 0.10121 0.0
H1321 H 0.58032 0.22538 0.14398 0.0
H1322 H 0.57585 0.14803 0.11382 0.0
C1323 C 0.61159 0.18155 0.0211 0.0
C1324 C 0.62161 0.20352 0.00892 0.0
C1325 C 0.62089 0.22742 0.02176 0.0
C1326 C 0.6106 0.22939 0.04654 0.0
C1327 C 0.60113 0.20728 0.05816 0.0
C1328 C 0.60156 0.18382 0.04587 0.0
C1329 C 0.59193 0.16265 0.06322 0.0
C1330 C 0.5673 0.15061 0.05245 0.0
C1331 C 0.61282 0.14226 0.06764 0.0
C1332 C 0.58654 0.17777 0.08737 0.0
C1333 C 0.59163 0.20354 0.084 0.0
C1334 C 0.58915 0.22108 0.10401 0.0
C1335 C 0.58168 0.21195 0.12821 0.0
C1336 C 0.57701 0.18553 0.13216 0.0
C1337 C 0.57909 0.16838 0.11133 0.0
H1338 H 0.38917 0.64969 0.37724 0.0
H1339 H 0.45319 0.7023 0.3708 0.0
H1340 H 0.44798 0.71402 0.41655 0.0
H1341 H 0.35082 0.68986 0.4185 0.0
H1342 H 0.33813 0.66326 0.43654 0.0
H1343 H 0.34731 0.65893 0.40353 0.0
H1344 H 0.37759 0.62179 0.41678 0.0
H1345 H 0.36856 0.62607 0.44984 0.0
H1346 H 0.40187 0.62739 0.44071 0.0
H1347 H 0.43658 0.71848 0.46369 0.0
H1348 H 0.41788 0.71783 0.50737 0.0
H1349 H 0.36003 0.66401 0.48169 0.0
C1350 C 0.40211 0.66368 0.38547 0.0
C1351 C 0.42168 0.67501 0.37062 0.0
C1352 C 0.43806 0.69342 0.38192 0.0
C1353 C 0.43529 0.70013 0.40786 0.0
C1354 C 0.41584 0.68846 0.42204 0.0
C1355 C 0.39936 0.67085 0.41113 0.0
C1356 C 0.37962 0.66152 0.43024 0.0
C1357 C 0.35236 0.66884 0.42169 0.0
C1358 C 0.38208 0.63247 0.43465 0.0
C1359 C 0.38768 0.67646 0.45372 0.0
C1360 C 0.40872 0.69175 0.44872 0.0
C1361 C 0.41998 0.70674 0.46776 0.0
C1362 C 0.4093 0.70619 0.49249 0.0
C1363 C 0.38746 0.69101 0.49779 0.0
C1364 C 0.3766 0.67599 0.47811 0.0
H1365 H 0.13348 0.29194 0.99161 0.0
H1366 H 0.08252 0.34637 0.02859 0.0
H1367 H 0.06605 0.35966 0.98622 0.0
H1368 H 0.15043 0.33078 0.93936 0.0
H1369 H 0.15114 0.30523 0.91613 0.0
H1370 H 0.15746 0.29846 0.94937 0.0
H1371 H 0.12111 0.26465 0.94971 0.0
H1372 H 0.11478 0.27119 0.91638 0.0
H1373 H 0.08932 0.27374 0.93964 0.0
H1374 H 0.05797 0.36971 0.93986 0.0
H1375 H 0.05711 0.37418 0.8927 0.0
H1376 H 0.11244 0.31242 0.88583 0.0
C1377 C 0.11855 0.30635 0.99081 0.0
C1378 C 0.10921 0.31809 0.01338 0.0
C1379 C 0.08984 0.33704 0.01154 0.0
C1380 C 0.0804 0.34473 0.98757 0.0
C1381 C 0.09036 0.33313 0.96565 0.0
C1382 C 0.10881 0.31416 0.96705 0.0
C1383 C 0.11694 0.3054 0.94056 0.0
C1384 C 0.14569 0.31027 0.9361 0.0
C1385 C 0.11012 0.27706 0.93633 0.0
C1386 C 0.10056 0.32279 0.92404 0.0
C1387 C 0.08535 0.33861 0.9389 0.0
C1388 C 0.06954 0.35719 0.92802 0.0
C1389 C 0.06925 0.35965 0.90124 0.0
C1390 C 0.08458 0.34354 0.88565 0.0
C1391 C 0.10029 0.32478 0.89726 0.0
H1392 H 0.61799 0.89503 0.85105 0.0
H1393 H 0.62871 0.94566 0.78589 0.0
H1394 H 0.58472 0.93605 0.7712 0.0
H1395 H 0.5839 0.84706 0.81727 0.0
H1396 H 0.5626 0.83941 0.8434 0.0
H1397 H 0.59414 0.85174 0.84994 0.0
H1398 H 0.57436 0.88869 0.87664 0.0
H1399 H 0.54274 0.87637 0.87032 0.0
H1400 H 0.5504 0.90908 0.86232 0.0
H1401 H 0.54027 0.92015 0.76306 0.0
H1402 H 0.4983 0.8984 0.76145 0.0
H1403 H 0.51717 0.85674 0.831 0.0
C1404 C 0.61091 0.90439 0.83392 0.0
C1405 C 0.62657 0.92125 0.81968 0.0
C1406 C 0.6169 0.93276 0.79709 0.0
C1407 C 0.59198 0.92744 0.78863 0.0
C1408 C 0.57713 0.91045 0.80291 0.0
C1409 C 0.58621 0.89905 0.82504 0.0
C1410 C 0.5668 0.88054 0.83614 0.0
C1411 C 0.57751 0.85306 0.83671 0.0
C1412 C 0.55806 0.8892 0.86294 0.0
C1413 C 0.54545 0.88321 0.81669 0.0
C1414 C 0.55174 0.9007 0.7978 0.0
C1415 C 0.5351 0.90643 0.77774 0.0
C1416 C 0.51135 0.89397 0.77699 0.0
C1417 C 0.50459 0.87586 0.79605 0.0
C1418 C 0.52191 0.87042 0.81611 0.0
H1419 H 0.88521 0.07494 0.30181 0.0
H1420 H 0.87677 0.08578 0.38396 0.0
H1421 H 0.92172 0.0995 0.38681 0.0
H1422 H 0.95256 0.05129 0.30459 0.0
H1423 H 0.96147 0.06747 0.27537 0.0
H1424 H 0.92903 0.0564 0.27979 0.0
H1425 H 0.91217 0.10228 0.27111 0.0
H1426 H 0.94451 0.11352 0.26682 0.0
H1427 H 0.92394 0.12854 0.2902 0.0
H1428 H 0.96497 0.11709 0.3805 0.0
H1429 H 0.00654 0.13407 0.36573 0.0
H1430 H 0.98948 0.1095 0.28818 0.0
C1431 C 0.89302 0.07976 0.32043 0.0
C1432 C 0.87747 0.07931 0.34267 0.0
C1433 C 0.88828 0.08593 0.36667 0.0
C1434 C 0.91383 0.09375 0.36852 0.0
C1435 C 0.92848 0.09453 0.34625 0.0
C1436 C 0.91872 0.08737 0.32269 0.0
C1437 C 0.93863 0.09085 0.3017 0.0
C1438 C 0.94585 0.06496 0.28966 0.0
C1439 C 0.92924 0.10994 0.28126 0.0
C1440 C 0.96073 0.10181 0.31711 0.0
C1441 C 0.9543 0.10377 0.34276 0.0
C1442 C 0.97049 0.11519 0.36059 0.0
C1443 C 0.99395 0.12489 0.35202 0.0
C1444 C 0.00115 0.12278 0.32596 0.0
C1445 C 0.98451 0.11082 0.3083 0.0
H1446 H 0.11071 0.58949 0.19343 0.0
H1447 H 0.12325 0.61504 0.11513 0.0
H1448 H 0.07829 0.62892 0.11238 0.0
H1449 H 0.04553 0.56574 0.18311 0.0
H1450 H 0.03406 0.5763 0.21396 0.0
H1451 H 0.06725 0.56755 0.20992 0.0
H1452 H 0.08116 0.61198 0.22707 0.0
H1453 H 0.04804 0.62085 0.2312 0.0
H1454 H 0.06892 0.64058 0.21199 0.0
H1455 H 0.03339 0.64206 0.11827 0.0
H1456 H 0.98975 0.65322 0.13235 0.0
H1457 H 0.00443 0.6182 0.20644 0.0
C1458 C 0.1039 0.5979 0.17571 0.0
C1459 C 0.12049 0.60119 0.15449 0.0
C1460 C 0.11091 0.61228 0.13162 0.0
C1461 C 0.08538 0.62022 0.12984 0.0
C1462 C 0.06955 0.61678 0.15102 0.0
C1463 C 0.07826 0.60582 0.17351 0.0
C1464 C 0.05704 0.6048 0.19345 0.0
C1465 C 0.05059 0.57694 0.20052 0.0
C1466 C 0.06422 0.62049 0.21734 0.0
C1467 C 0.03526 0.61727 0.17871 0.0
C1468 C 0.04304 0.62397 0.15427 0.0
C1469 C 0.02694 0.63671 0.13726 0.0
C1470 C 0.00222 0.64301 0.14546 0.0
C1471 C 0.99372 0.63643 0.1704 0.0
C1472 C 0.01036 0.62312 0.18715 0.0
H1473 H 0.39431 0.4233 0.67681 0.0
H1474 H 0.35885 0.34839 0.66972 0.0
H1475 H 0.40024 0.32777 0.67902 0.0
H1476 H 0.45285 0.4066 0.64609 0.0
H1477 H 0.47302 0.4256 0.66669 0.0
H1478 H 0.44022 0.43494 0.66131 0.0
H1479 H 0.43182 0.43467 0.71028 0.0
H1480 H 0.46466 0.42545 0.71583 0.0
H1481 H 0.43895 0.40623 0.72859 0.0
H1482 H 0.44502 0.31498 0.68703 0.0
H1483 H 0.4915 0.31055 0.6938 0.0
H1484 H 0.4992 0.3934 0.69529 0.0
C1485 C 0.39526 0.40259 0.67761 0.0
C1486 C 0.37338 0.38742 0.67265 0.0
C1487 C 0.37538 0.36037 0.67347 0.0
C1488 C 0.39879 0.34846 0.67878 0.0
C1489 C 0.42007 0.36385 0.68318 0.0
C1490 C 0.41864 0.39029 0.68273 0.0
C1491 C 0.44484 0.40213 0.68715 0.0
C1492 C 0.45322 0.41827 0.66392 0.0
C1493 C 0.44507 0.41806 0.71194 0.0
C1494 C 0.46114 0.37817 0.68983 0.0
C1495 C 0.44633 0.35636 0.6876 0.0
C1496 C 0.45685 0.3319 0.68896 0.0
C1497 C 0.48329 0.32959 0.69276 0.0
C1498 C 0.49895 0.35162 0.69508 0.0
C1499 C 0.48768 0.37623 0.69362 0.0
H1500 H 0.84471 0.60623 0.89018 0.0
H1501 H 0.78342 0.60813 0.9464 0.0
H1502 H 0.77641 0.56161 0.94023 0.0
H1503 H 0.81308 0.56513 0.84724 0.0
H1504 H 0.84162 0.54839 0.83722 0.0
H1505 H 0.84376 0.58097 0.84827 0.0
H1506 H 0.8771 0.5673 0.8825 0.0
H1507 H 0.87508 0.53463 0.87151 0.0
H1508 H 0.86927 0.54204 0.90477 0.0
H1509 H 0.77529 0.51525 0.92678 0.0
H1510 H 0.77772 0.47338 0.90472 0.0
H1511 H 0.83784 0.50283 0.85532 0.0
C1512 C 0.83015 0.59673 0.90154 0.0
C1513 C 0.81479 0.61056 0.919 0.0
C1514 C 0.79546 0.59773 0.93304 0.0
C1515 C 0.79142 0.57135 0.92973 0.0
C1516 C 0.80672 0.55828 0.91211 0.0
C1517 C 0.82556 0.57058 0.89811 0.0
C1518 C 0.8379 0.55271 0.87886 0.0
C1519 C 0.83383 0.56238 0.85127 0.0
C1520 C 0.86653 0.54895 0.88477 0.0
C1521 C 0.82284 0.52849 0.88397 0.0
C1522 C 0.80526 0.53195 0.90352 0.0
C1523 C 0.78901 0.51231 0.91148 0.0
C1524 C 0.79055 0.48862 0.89888 0.0
C1525 C 0.8079 0.48498 0.87831 0.0
C1526 C 0.82435 0.50514 0.87096 0.0
H1527 H 0.311 0.88014 0.10948 0.0
H1528 H 0.37444 0.89253 0.05707 0.0
H1529 H 0.36739 0.93925 0.05951 0.0
H1530 H 0.27036 0.93239 0.08764 0.0
H1531 H 0.25987 0.94087 0.11947 0.0
H1532 H 0.26859 0.90823 0.1123 0.0
H1533 H 0.30167 0.9086 0.14936 0.0
H1534 H 0.29287 0.94113 0.15677 0.0
H1535 H 0.32587 0.93324 0.15018 0.0
H1536 H 0.35363 0.98442 0.06753 0.0
H1537 H 0.3376 0.02545 0.08487 0.0
H1538 H 0.28483 0.98405 0.13413 0.0
C1539 C 0.32327 0.89274 0.09844 0.0
C1540 C 0.34317 0.88283 0.08298 0.0
C1541 C 0.35913 0.89982 0.06908 0.0
C1542 C 0.35516 0.92634 0.07019 0.0
C1543 C 0.33534 0.93556 0.08553 0.0
C1544 C 0.31989 0.91934 0.09972 0.0
C1545 C 0.3012 0.93436 0.11614 0.0
C1546 C 0.27335 0.92862 0.10841 0.0
C1547 C 0.30569 0.92902 0.14481 0.0
C1548 C 0.30869 0.96151 0.10905 0.0
C1549 C 0.32809 0.96174 0.09101 0.0
C1550 C 0.33842 0.98452 0.08167 0.0
C1551 C 0.32913 0.00771 0.09153 0.0
C1552 C 0.31 0.00789 0.1108 0.0
C1553 C 0.29941 0.98447 0.11933 0.0
H1554 H 0.20402 0.99232 0.60857 0.0
H1555 H 0.14594 0.98381 0.66758 0.0
H1556 H 0.13406 0.0293 0.66259 0.0
H1557 H 0.22446 0.05508 0.62841 0.0
H1558 H 0.23012 0.06663 0.59632 0.0
H1559 H 0.23332 0.03298 0.60336 0.0
H1560 H 0.20057 0.02225 0.56763 0.0
H1561 H 0.19735 0.05586 0.56041 0.0
H1562 H 0.16937 0.03714 0.56816 0.0
H1563 H 0.12779 0.07493 0.65091 0.0
H1564 H 0.12896 0.11934 0.63478 0.0
H1565 H 0.19312 0.09993 0.58542 0.0
C1566 C 0.18865 6e-05 0.62021 0.0
C1567 C 0.17571 0.9846 0.63831 0.0
C1568 C 0.15603 0.99538 0.65358 0.0
C1569 C 0.14913 0.02115 0.65087 0.0
C1570 C 0.16236 0.03598 0.63305 0.0
C1571 C 0.18183 0.02598 0.6181 0.0
C1572 C 0.19361 0.04652 0.60119 0.0
C1573 C 0.22207 0.05054 0.60772 0.0
C1574 C 0.19 0.04005 0.57265 0.0
C1575 C 0.1776 0.06954 0.60893 0.0
C1576 C 0.15954 0.06287 0.62715 0.0
C1577 C 0.14194 0.08047 0.63677 0.0
C1578 C 0.14273 0.1056 0.62747 0.0
C1579 C 0.16123 0.11301 0.60904 0.0
C1580 C 0.17901 0.09479 0.59978 0.0
H1581 H 0.64496 0.3923 0.41991 0.0
H1582 H 0.72298 0.36422 0.4269 0.0
H1583 H 0.73942 0.40735 0.41644 0.0
H1584 H 0.65482 0.43214 0.36722 0.0
H1585 H 0.63386 0.45747 0.37788 0.0
H1586 H 0.62821 0.42505 0.38814 0.0
H1587 H 0.62999 0.43949 0.43565 0.0
H1588 H 0.63556 0.47204 0.42552 0.0
H1589 H 0.65767 0.45665 0.44716 0.0
H1590 H 0.7472 0.45175 0.39998 0.0
H1591 H 0.74579 0.49547 0.38169 0.0
H1592 H 0.6629 0.49555 0.38815 0.0
C1593 C 0.6655 0.39536 0.41964 0.0
C1594 C 0.68273 0.37499 0.42417 0.0
C1595 C 0.70946 0.37964 0.42359 0.0
C1596 C 0.71897 0.40405 0.41767 0.0
C1597 C 0.70148 0.42364 0.41284 0.0
C1598 C 0.6753 0.41969 0.41414 0.0
C1599 C 0.66063 0.44377 0.40724 0.0
C1600 C 0.64338 0.43933 0.38372 0.0
C1601 C 0.64505 0.45357 0.43027 0.0
C1602 C 0.68263 0.46162 0.40102 0.0
C1603 C 0.70604 0.44964 0.40439 0.0
C1604 C 0.72904 0.46153 0.39779 0.0
C1605 C 0.72806 0.48627 0.38735 0.0
C1606 C 0.70429 0.49888 0.38391 0.0
C1607 C 0.68136 0.48652 0.39118 0.0
loop_
_geom_bond_atom_site_label_1
_geom_bond_atom_site_label_2
_geom_bond_distance
_geom_bond_site_symmetry_2
_ccdc_geom_bond_type
In0 O1 2.294 . S
In0 O2 2.326 . S
In0 O6 2.266 . S
In0 O7 2.326 . S
In0 O8 2.266 . S
In0 O9 2.326 . S
In0 O11 2.294 . S
In0 O12 2.326 . S
O1 In0 2.294 . S
O1 C10 1.240 . S
O2 In0 2.326 . S
O2 C10 1.252 . S
C3 O6 1.252 . S
C3 O7 1.260 . S
C4 O11 1.240 . S
C4 O12 1.252 . S
C5 O8 1.252 . S
C5 O9 1.260 . S
O6 In0 2.266 . S
O6 C3 1.252 . S
O7 In0 2.326 . S
O7 C3 1.260 . S
O8 In0 2.266 . S
O8 C5 1.252 . S
O9 In0 2.326 . S
O9 C5 1.260 . S
C10 O1 1.240 . S
C10 O2 1.252 . S
O11 In0 2.294 . S
O11 C4 1.240 . S
O12 In0 2.326 . S
O12 C4 1.252 . S
In13 O14 2.294 . S
In13 O15 2.326 . S
In13 O19 2.266 . S
In13 O20 2.326 . S
In13 O21 2.266 . S
In13 O22 2.326 . S
In13 O24 2.294 . S
In13 O25 2.326 . S
O14 In13 2.294 . S
O14 C23 1.240 . S
O15 In13 2.326 . S
O15 C23 1.252 . S
C16 O19 1.252 . S
C16 O20 1.260 . S
C17 O24 1.240 . S
C17 O25 1.252 . S
C18 O21 1.252 . S
C18 O22 1.260 . S
O19 In13 2.266 . S
O19 C16 1.252 . S
O20 In13 2.326 . S
O20 C16 1.260 . S
O21 In13 2.266 . S
O21 C18 1.252 . S
O22 In13 2.326 . S
O22 C18 1.260 . S
C23 O14 1.240 . S
C23 O15 1.252 . S
O24 In13 2.294 . S
O24 C17 1.240 . S
O25 In13 2.326 . S
O25 C17 1.252 . S
In26 O27 2.294 . S
In26 O28 2.326 . S
In26 O32 2.266 . S
In26 O33 2.326 . S
In26 O34 2.266 . S
In26 O35 2.326 . S
In26 O37 2.294 . S
In26 O38 2.326 . S
O27 In26 2.294 . S
O27 C36 1.240 . S
O28 In26 2.326 . S
O28 C36 1.252 . S
C29 O32 1.252 . S
C29 O33 1.260 . S
C30 O37 1.240 . S
C30 O38 1.252 . S
C31 O34 1.252 . S
C31 O35 1.260 . S
O32 In26 2.266 . S
O32 C29 1.252 . S
O33 In26 2.326 . S
O33 C29 1.260 . S
O34 In26 2.266 . S
O34 C31 1.252 . S
O35 In26 2.326 . S
O35 C31 1.260 . S
C36 O27 1.240 . S
C36 O28 1.252 . S
O37 In26 2.294 . S
O37 C30 1.240 . S
O38 In26 2.326 . S
O38 C30 1.252 . S
In39 O40 2.294 . S
In39 O41 2.326 . S
In39 O45 2.266 . S
In39 O46 2.326 . S
In39 O47 2.266 . S
In39 O48 2.326 . S
In39 O50 2.294 . S
In39 O51 2.326 . S
O40 In39 2.294 . S
O40 C49 1.240 . S
O41 In39 2.326 . S
O41 C49 1.252 . S
C42 O45 1.252 . S
C42 O46 1.260 . S
C43 O50 1.240 . S
C43 O51 1.252 . S
C44 O47 1.252 . S
C44 O48 1.260 . S
O45 In39 2.266 . S
O45 C42 1.252 . S
O46 In39 2.326 . S
O46 C42 1.260 . S
O47 In39 2.266 . S
O47 C44 1.252 . S
O48 In39 2.326 . S
O48 C44 1.260 . S
C49 O40 1.240 . S
C49 O41 1.252 . S
O50 In39 2.294 . S
O50 C43 1.240 . S
O51 In39 2.326 . S
O51 C43 1.252 . S
In52 O53 2.294 . S
In52 O54 2.326 . S
In52 O58 2.266 . S
In52 O59 2.326 . S
In52 O60 2.266 . S
In52 O61 2.326 . S
In52 O63 2.294 . S
In52 O64 2.326 . S
O53 In52 2.294 . S
O53 C62 1.240 . S
O54 In52 2.326 . S
O54 C62 1.252 . S
C55 O58 1.252 . S
C55 O59 1.260 . S
C56 O63 1.240 . S
C56 O64 1.252 . S
C57 O60 1.252 . S
C57 O61 1.260 . S
O58 In52 2.266 . S
O58 C55 1.252 . S
O59 In52 2.326 . S
O59 C55 1.260 . S
O60 In52 2.266 . S
O60 C57 1.252 . S
O61 In52 2.326 . S
O61 C57 1.260 . S
C62 O53 1.240 . S
C62 O54 1.252 . S
O63 In52 2.294 . S
O63 C56 1.240 . S
O64 In52 2.326 . S
O64 C56 1.252 . S
In65 O66 2.294 . S
In65 O67 2.326 . S
In65 O71 2.266 . S
In65 O72 2.326 . S
In65 O73 2.266 . S
In65 O74 2.326 . S
In65 O76 2.294 . S
In65 O77 2.326 . S
O66 In65 2.294 . S
O66 C75 1.240 . S
O67 In65 2.326 . S
O67 C75 1.252 . S
C68 O71 1.252 . S
C68 O72 1.260 . S
C69 O76 1.240 . S
C69 O77 1.252 . S
C70 O73 1.252 . S
C70 O74 1.260 . S
O71 In65 2.266 . S
O71 C68 1.252 . S
O72 In65 2.326 . S
O72 C68 1.260 . S
O73 In65 2.266 . S
O73 C70 1.252 . S
O74 In65 2.326 . S
O74 C70 1.260 . S
C75 O66 1.240 . S
C75 O67 1.252 . S
O76 In65 2.294 . S
O76 C69 1.240 . S
O77 In65 2.326 . S
O77 C69 1.252 . S
In78 O79 2.294 . S
In78 O80 2.326 . S
In78 O84 2.266 . S
In78 O85 2.326 . S
In78 O86 2.266 . S
In78 O87 2.326 . S
In78 O89 2.294 . S
In78 O90 2.326 . S
O79 In78 2.294 . S
O79 C88 1.240 . S
O80 In78 2.326 . S
O80 C88 1.252 . S
C81 O84 1.252 . S
C81 O85 1.260 . S
C82 O89 1.240 . S
C82 O90 1.252 . S
C83 O86 1.252 . S
C83 O87 1.260 . S
O84 In78 2.266 . S
O84 C81 1.252 . S
O85 In78 2.326 . S
O85 C81 1.260 . S
O86 In78 2.266 . S
O86 C83 1.252 . S
O87 In78 2.326 . S
O87 C83 1.260 . S
C88 O79 1.240 . S
C88 O80 1.252 . S
O89 In78 2.294 . S
O89 C82 1.240 . S
O90 In78 2.326 . S
O90 C82 1.252 . S
In91 O92 2.294 . S
In91 O93 2.326 . S
In91 O97 2.266 . S
In91 O98 2.326 . S
In91 O99 2.266 . S
In91 O100 2.326 . S
In91 O102 2.294 . S
In91 O103 2.326 . S
O92 In91 2.294 . S
O92 C101 1.240 . S
O93 In91 2.326 . S
O93 C101 1.252 . S
C94 O97 1.252 . S
C94 O98 1.260 . S
C95 O102 1.240 . S
C95 O103 1.252 . S
C96 O99 1.252 . S
C96 O100 1.260 . S
O97 In91 2.266 . S
O97 C94 1.252 . S
O98 In91 2.326 . S
O98 C94 1.260 . S
O99 In91 2.266 . S
O99 C96 1.252 . S
O100 In91 2.326 . S
O100 C96 1.260 . S
C101 O92 1.240 . S
C101 O93 1.252 . S
O102 In91 2.294 . S
O102 C95 1.240 . S
O103 In91 2.326 . S
O103 C95 1.252 . S
In104 O105 2.294 . S
In104 O106 2.326 . S
In104 O110 2.266 . S
In104 O111 2.326 . S
In104 O112 2.266 . S
In104 O113 2.326 . S
In104 O115 2.294 . S
In104 O116 2.326 . S
O105 In104 2.294 . S
O105 C114 1.240 . S
O106 In104 2.326 . S
O106 C114 1.252 . S
C107 O110 1.252 . S
C107 O111 1.260 . S
C108 O115 1.240 . S
C108 O116 1.252 . S
C109 O112 1.252 . S
C109 O113 1.260 . S
O110 In104 2.266 . S
O110 C107 1.252 . S
O111 In104 2.326 . S
O111 C107 1.260 . S
O112 In104 2.266 . S
O112 C109 1.252 . S
O113 In104 2.326 . S
O113 C109 1.260 . S
C114 O105 1.240 . S
C114 O106 1.252 . S
O115 In104 2.294 . S
O115 C108 1.240 . S
O116 In104 2.326 . S
O116 C108 1.252 . S
In117 O118 2.294 . S
In117 O119 2.326 . S
In117 O123 2.266 . S
In117 O124 2.326 . S
In117 O125 2.266 . S
In117 O126 2.326 . S
In117 O128 2.294 . S
In117 O129 2.326 . S
O118 In117 2.294 . S
O118 C127 1.240 . S
O119 In117 2.326 . S
O119 C127 1.252 . S
C120 O123 1.252 . S
C120 O124 1.260 . S
C121 O128 1.240 . S
C121 O129 1.252 . S
C122 O125 1.252 . S
C122 O126 1.260 . S
O123 In117 2.266 . S
O123 C120 1.252 . S
O124 In117 2.326 . S
O124 C120 1.260 . S
O125 In117 2.266 . S
O125 C122 1.252 . S
O126 In117 2.326 . S
O126 C122 1.260 . S
C127 O118 1.240 . S
C127 O119 1.252 . S
O128 In117 2.294 . S
O128 C121 1.240 . S
O129 In117 2.326 . S
O129 C121 1.252 . S
In130 O131 2.294 . S
In130 O132 2.326 . S
In130 O136 2.266 . S
In130 O137 2.326 . S
In130 O138 2.266 . S
In130 O139 2.326 . S
In130 O141 2.294 . S
In130 O142 2.326 . S
O131 In130 2.294 . S
O131 C140 1.240 . S
O132 In130 2.326 . S
O132 C140 1.252 . S
C133 O136 1.252 . S
C133 O137 1.260 . S
C134 O141 1.240 . S
C134 O142 1.252 . S
C135 O138 1.252 . S
C135 O139 1.260 . S
O136 In130 2.266 . S
O136 C133 1.252 . S
O137 In130 2.326 . S
O137 C133 1.260 . S
O138 In130 2.266 . S
O138 C135 1.252 . S
O139 In130 2.326 . S
O139 C135 1.260 . S
C140 O131 1.240 . S
C140 O132 1.252 . S
O141 In130 2.294 . S
O141 C134 1.240 . S
O142 In130 2.326 . S
O142 C134 1.252 . S
In143 O144 2.294 . S
In143 O145 2.326 . S
In143 O149 2.266 . S
In143 O150 2.326 . S
In143 O151 2.266 . S
In143 O152 2.326 . S
In143 O154 2.294 . S
In143 O155 2.326 . S
O144 In143 2.294 . S
O144 C153 1.240 . S
O145 In143 2.326 . S
O145 C153 1.252 . S
C146 O149 1.252 . S
C146 O150 1.260 . S
C147 O154 1.240 . S
C147 O155 1.252 . S
C148 O151 1.252 . S
C148 O152 1.260 . S
O149 In143 2.266 . S
O149 C146 1.252 . S
O150 In143 2.326 . S
O150 C146 1.260 . S
O151 In143 2.266 . S
O151 C148 1.252 . S
O152 In143 2.326 . S
O152 C148 1.260 . S
C153 O144 1.240 . S
C153 O145 1.252 . S
O154 In143 2.294 . S
O154 C147 1.240 . S
O155 In143 2.326 . S
O155 C147 1.252 . S
In156 O157 2.294 . S
In156 O158 2.326 . S
In156 O162 2.266 . S
In156 O163 2.326 . S
In156 O164 2.266 . S
In156 O165 2.326 . S
In156 O167 2.294 . S
In156 O168 2.326 . S
O157 In156 2.294 . S
O157 C166 1.240 . S
O158 In156 2.326 . S
O158 C166 1.252 . S
C159 O162 1.252 . S
C159 O163 1.260 . S
C160 O167 1.240 . S
C160 O168 1.252 . S
C161 O164 1.252 . S
C161 O165 1.260 . S
O162 In156 2.266 . S
O162 C159 1.252 . S
O163 In156 2.326 . S
O163 C159 1.260 . S
O164 In156 2.266 . S
O164 C161 1.252 . S
O165 In156 2.326 . S
O165 C161 1.260 . S
C166 O157 1.240 . S
C166 O158 1.252 . S
O167 In156 2.294 . S
O167 C160 1.240 . S
O168 In156 2.326 . S
O168 C160 1.252 . S
In169 O170 2.294 . S
In169 O171 2.326 . S
In169 O175 2.266 . S
In169 O176 2.326 . S
In169 O177 2.266 . S
In169 O178 2.326 . S
In169 O180 2.294 . S
In169 O181 2.326 . S
O170 In169 2.294 . S
O170 C179 1.240 . S
O171 In169 2.326 . S
O171 C179 1.252 . S
C172 O175 1.252 . S
C172 O176 1.260 . S
C173 O180 1.240 . S
C173 O181 1.252 . S
C174 O177 1.252 . S
C174 O178 1.260 . S
O175 In169 2.266 . S
O175 C172 1.252 . S
O176 In169 2.326 . S
O176 C172 1.260 . S
O177 In169 2.266 . S
O177 C174 1.252 . S
O178 In169 2.326 . S
O178 C174 1.260 . S
C179 O170 1.240 . S
C179 O171 1.252 . S
O180 In169 2.294 . S
O180 C173 1.240 . S
O181 In169 2.326 . S
O181 C173 1.252 . S
In182 O183 2.294 . S
In182 O184 2.326 . S
In182 O188 2.266 . S
In182 O189 2.326 . S
In182 O190 2.266 . S
In182 O191 2.326 . S
In182 O193 2.294 . S
In182 O194 2.326 . S
O183 In182 2.294 . S
O183 C192 1.240 . S
O184 In182 2.326 . S
O184 C192 1.252 . S
C185 O188 1.252 . S
C185 O189 1.260 . S
C186 O193 1.240 . S
C186 O194 1.252 . S
C187 O190 1.252 . S
C187 O191 1.260 . S
O188 In182 2.266 . S
O188 C185 1.252 . S
O189 In182 2.326 . S
O189 C185 1.260 . S
O190 In182 2.266 . S
O190 C187 1.252 . S
O191 In182 2.326 . S
O191 C187 1.260 . S
C192 O183 1.240 . S
C192 O184 1.252 . S
O193 In182 2.294 . S
O193 C186 1.240 . S
O194 In182 2.326 . S
O194 C186 1.252 . S
In195 O196 2.294 . S
In195 O197 2.326 . S
In195 O201 2.266 . S
In195 O202 2.326 . S
In195 O203 2.266 . S
In195 O204 2.326 . S
In195 O206 2.294 . S
In195 O207 2.326 . S
O196 In195 2.294 . S
O196 C205 1.240 . S
O197 In195 2.326 . S
O197 C205 1.252 . S
C198 O201 1.252 . S
C198 O202 1.260 . S
C199 O206 1.240 . S
C199 O207 1.252 . S
C200 O203 1.252 . S
C200 O204 1.260 . S
O201 In195 2.266 . S
O201 C198 1.252 . S
O202 In195 2.326 . S
O202 C198 1.260 . S
O203 In195 2.266 . S
O203 C200 1.252 . S
O204 In195 2.326 . S
O204 C200 1.260 . S
C205 O196 1.240 . S
C205 O197 1.252 . S
O206 In195 2.294 . S
O206 C199 1.240 . S
O207 In195 2.326 . S
O207 C199 1.252 . S
In208 O209 2.294 . S
In208 O210 2.326 . S
In208 O214 2.266 . S
In208 O215 2.326 . S
In208 O216 2.266 . S
In208 O217 2.326 . S
In208 O219 2.294 . S
In208 O220 2.326 . S
O209 In208 2.294 . S
O209 C218 1.240 . S
O210 In208 2.326 . S
O210 C218 1.252 . S
C211 O214 1.252 . S
C211 O215 1.260 . S
C212 O219 1.240 . S
C212 O220 1.252 . S
C213 O216 1.252 . S
C213 O217 1.260 . S
O214 In208 2.266 . S
O214 C211 1.252 . S
O215 In208 2.326 . S
O215 C211 1.260 . S
O216 In208 2.266 . S
O216 C213 1.252 . S
O217 In208 2.326 . S
O217 C213 1.260 . S
C218 O209 1.240 . S
C218 O210 1.252 . S
O219 In208 2.294 . S
O219 C212 1.240 . S
O220 In208 2.326 . S
O220 C212 1.252 . S
In221 O222 2.294 . S
In221 O223 2.326 . S
In221 O227 2.266 . S
In221 O228 2.326 . S
In221 O229 2.266 . S
In221 O230 2.326 . S
In221 O232 2.294 . S
In221 O233 2.326 . S
O222 In221 2.294 . S
O222 C231 1.240 . S
O223 In221 2.326 . S
O223 C231 1.252 . S
C224 O227 1.252 . S
C224 O228 1.260 . S
C225 O232 1.240 . S
C225 O233 1.252 . S
C226 O229 1.252 . S
C226 O230 1.260 . S
O227 In221 2.266 . S
O227 C224 1.252 . S
O228 In221 2.326 . S
O228 C224 1.260 . S
O229 In221 2.266 . S
O229 C226 1.252 . S
O230 In221 2.326 . S
O230 C226 1.260 . S
C231 O222 1.240 . S
C231 O223 1.252 . S
O232 In221 2.294 . S
O232 C225 1.240 . S
O233 In221 2.326 . S
O233 C225 1.252 . S
In234 O235 2.294 . S
In234 O236 2.326 . S
In234 O240 2.266 . S
In234 O241 2.326 . S
In234 O242 2.266 . S
In234 O243 2.326 . S
In234 O245 2.294 . S
In234 O246 2.326 . S
O235 In234 2.294 . S
O235 C244 1.240 . S
O236 In234 2.326 . S
O236 C244 1.252 . S
C237 O240 1.252 . S
C237 O241 1.260 . S
C238 O245 1.240 . S
C238 O246 1.252 . S
C239 O242 1.252 . S
C239 O243 1.260 . S
O240 In234 2.266 . S
O240 C237 1.252 . S
O241 In234 2.326 . S
O241 C237 1.260 . S
O242 In234 2.266 . S
O242 C239 1.252 . S
O243 In234 2.326 . S
O243 C239 1.260 . S
C244 O235 1.240 . S
C244 O236 1.252 . S
O245 In234 2.294 . S
O245 C238 1.240 . S
O246 In234 2.326 . S
O246 C238 1.252 . S
In247 O248 2.294 . S
In247 O249 2.326 . S
In247 O253 2.266 . S
In247 O254 2.326 . S
In247 O255 2.266 . S
In247 O256 2.326 . S
In247 O258 2.294 . S
In247 O259 2.326 . S
O248 In247 2.294 . S
O248 C257 1.240 . S
O249 In247 2.326 . S
O249 C257 1.252 . S
C250 O253 1.252 . S
C250 O254 1.260 . S
C251 O258 1.240 . S
C251 O259 1.252 . S
C252 O255 1.252 . S
C252 O256 1.260 . S
O253 In247 2.266 . S
O253 C250 1.252 . S
O254 In247 2.326 . S
O254 C250 1.260 . S
O255 In247 2.266 . S
O255 C252 1.252 . S
O256 In247 2.326 . S
O256 C252 1.260 . S
C257 O248 1.240 . S
C257 O249 1.252 . S
O258 In247 2.294 . S
O258 C251 1.240 . S
O259 In247 2.326 . S
O259 C251 1.252 . S
In260 O261 2.294 . S
In260 O262 2.326 . S
In260 O266 2.266 . S
In260 O267 2.326 . S
In260 O268 2.266 . S
In260 O269 2.326 . S
In260 O271 2.294 . S
In260 O272 2.326 . S
O261 In260 2.294 . S
O261 C270 1.240 . S
O262 In260 2.326 . S
O262 C270 1.252 . S
C263 O266 1.252 . S
C263 O267 1.260 . S
C264 O271 1.240 . S
C264 O272 1.252 . S
C265 O268 1.252 . S
C265 O269 1.260 . S
O266 In260 2.266 . S
O266 C263 1.252 . S
O267 In260 2.326 . S
O267 C263 1.260 . S
O268 In260 2.266 . S
O268 C265 1.252 . S
O269 In260 2.326 . S
O269 C265 1.260 . S
C270 O261 1.240 . S
C270 O262 1.252 . S
O271 In260 2.294 . S
O271 C264 1.240 . S
O272 In260 2.326 . S
O272 C264 1.252 . S
In273 O274 2.294 . S
In273 O275 2.326 . S
In273 O279 2.266 . S
In273 O280 2.326 . S
In273 O281 2.266 . S
In273 O282 2.326 . S
In273 O284 2.294 . S
In273 O285 2.326 . S
O274 In273 2.294 . S
O274 C283 1.240 . S
O275 In273 2.326 . S
O275 C283 1.252 . S
C276 O279 1.252 . S
C276 O280 1.260 . S
C277 O284 1.240 . S
C277 O285 1.252 . S
C278 O281 1.252 . S
C278 O282 1.260 . S
O279 In273 2.266 . S
O279 C276 1.252 . S
O280 In273 2.326 . S
O280 C276 1.260 . S
O281 In273 2.266 . S
O281 C278 1.252 . S
O282 In273 2.326 . S
O282 C278 1.260 . S
C283 O274 1.240 . S
C283 O275 1.252 . S
O284 In273 2.294 . S
O284 C277 1.240 . S
O285 In273 2.326 . S
O285 C277 1.252 . S
In286 O287 2.294 . S
In286 O288 2.326 . S
In286 O292 2.266 . S
In286 O293 2.326 . S
In286 O294 2.266 . S
In286 O295 2.326 . S
In286 O297 2.294 . S
In286 O298 2.326 . S
O287 In286 2.294 . S
O287 C296 1.240 . S
O288 In286 2.326 . S
O288 C296 1.252 . S
C289 O292 1.252 . S
C289 O293 1.260 . S
C290 O297 1.240 . S
C290 O298 1.252 . S
C291 O294 1.252 . S
C291 O295 1.260 . S
O292 In286 2.266 . S
O292 C289 1.252 . S
O293 In286 2.326 . S
O293 C289 1.260 . S
O294 In286 2.266 . S
O294 C291 1.252 . S
O295 In286 2.326 . S
O295 C291 1.260 . S
C296 O287 1.240 . S
C296 O288 1.252 . S
O297 In286 2.294 . S
O297 C290 1.240 . S
O298 In286 2.326 . S
O298 C290 1.252 . S
In299 O300 2.294 . S
In299 O301 2.326 . S
In299 O305 2.266 . S
In299 O306 2.326 . S
In299 O307 2.266 . S
In299 O308 2.326 . S
In299 O310 2.294 . S
In299 O311 2.326 . S
O300 In299 2.294 . S
O300 C309 1.240 . S
O301 In299 2.326 . S
O301 C309 1.252 . S
C302 O305 1.252 . S
C302 O306 1.260 . S
C303 O310 1.240 . S
C303 O311 1.252 . S
C304 O307 1.252 . S
C304 O308 1.260 . S
O305 In299 2.266 . S
O305 C302 1.252 . S
O306 In299 2.326 . S
O306 C302 1.260 . S
O307 In299 2.266 . S
O307 C304 1.252 . S
O308 In299 2.326 . S
O308 C304 1.260 . S
C309 O300 1.240 . S
C309 O301 1.252 . S
O310 In299 2.294 . S
O310 C303 1.240 . S
O311 In299 2.326 . S
O311 C303 1.252 . S
H312 C324 0.930 . S
H313 C326 0.930 . S
H314 C327 0.930 . S
H315 C331 0.959 . S
H316 C331 0.959 . S
H317 C331 0.961 . S
H318 C332 0.960 . S
H319 C332 0.961 . S
H320 C332 0.959 . S
H321 C335 0.929 . S
H322 C336 0.931 . S
H323 C338 0.930 . S
C324 H312 0.930 . S
C324 C325 1.399 . S
C324 C329 1.399 . S
C325 C324 1.399 . S
C325 C326 1.376 . S
C326 H313 0.930 . S
C326 C325 1.376 . S
C326 C327 1.388 . S
C327 H314 0.930 . S
C327 C326 1.388 . S
C327 C328 1.390 . S
C328 C327 1.390 . S
C328 C329 1.394 . S
C328 C334 1.465 . S
C329 C324 1.399 . S
C329 C328 1.394 . S
C329 C330 1.516 . S
C330 C329 1.516 . S
C330 C331 1.502 . S
C330 C332 1.561 . S
C330 C333 1.526 . S
C331 H315 0.959 . S
C331 H316 0.959 . S
C331 H317 0.961 . S
C331 C330 1.502 . S
C332 H318 0.960 . S
C332 H319 0.961 . S
C332 H320 0.959 . S
C332 C330 1.561 . S
C333 C330 1.526 . S
C333 C334 1.396 . S
C333 C338 1.390 . S
C334 C328 1.465 . S
C334 C333 1.396 . S
C334 C335 1.399 . S
C335 H321 0.929 . S
C335 C334 1.399 . S
C335 C336 1.385 . S
C336 H322 0.931 . S
C336 C335 1.385 . S
C336 C337 1.389 . S
C337 C336 1.389 . S
C337 C338 1.387 . S
C338 H323 0.930 . S
C338 C333 1.390 . S
C338 C337 1.387 . S
H339 C351 0.930 . S
H340 C353 0.930 . S
H341 C354 0.930 . S
H342 C358 0.959 . S
H343 C358 0.959 . S
H344 C358 0.961 . S
H345 C359 0.960 . S
H346 C359 0.961 . S
H347 C359 0.959 . S
H348 C362 0.929 . S
H349 C363 0.931 . S
H350 C365 0.930 . S
C351 H339 0.930 . S
C351 C352 1.399 . S
C351 C356 1.399 . S
C352 C351 1.399 . S
C352 C353 1.376 . S
C353 H340 0.930 . S
C353 C352 1.376 . S
C353 C354 1.388 . S
C354 H341 0.930 . S
C354 C353 1.388 . S
C354 C355 1.390 . S
C355 C354 1.390 . S
C355 C356 1.394 . S
C355 C361 1.465 . S
C356 C351 1.399 . S
C356 C355 1.394 . S
C356 C357 1.516 . S
C357 C356 1.516 . S
C357 C358 1.502 . S
C357 C359 1.561 . S
C357 C360 1.526 . S
C358 H342 0.959 . S
C358 H343 0.959 . S
C358 H344 0.961 . S
C358 C357 1.502 . S
C359 H345 0.960 . S
C359 H346 0.961 . S
C359 H347 0.959 . S
C359 C357 1.561 . S
C360 C357 1.526 . S
C360 C361 1.396 . S
C360 C365 1.390 . S
C361 C355 1.465 . S
C361 C360 1.396 . S
C361 C362 1.399 . S
C362 H348 0.929 . S
C362 C361 1.399 . S
C362 C363 1.385 . S
C363 H349 0.931 . S
C363 C362 1.385 . S
C363 C364 1.389 . S
C364 C363 1.389 . S
C364 C365 1.387 . S
C365 H350 0.930 . S
C365 C360 1.390 . S
C365 C364 1.387 . S
H366 C378 0.930 . S
H367 C380 0.930 . S
H368 C381 0.930 . S
H369 C385 0.959 . S
H370 C385 0.959 . S
H371 C385 0.961 . S
H372 C386 0.960 . S
H373 C386 0.961 . S
H374 C386 0.959 . S
H375 C389 0.929 . S
H376 C390 0.931 . S
H377 C392 0.930 . S
C378 H366 0.930 . S
C378 C379 1.399 . S
C378 C383 1.399 . S
C379 C378 1.399 . S
C379 C380 1.376 . S
C380 H367 0.930 . S
C380 C379 1.376 . S
C380 C381 1.388 . S
C381 H368 0.930 . S
C381 C380 1.388 . S
C381 C382 1.390 . S
C382 C381 1.390 . S
C382 C383 1.394 . S
C382 C388 1.465 . S
C383 C378 1.399 . S
C383 C382 1.394 . S
C383 C384 1.516 . S
C384 C383 1.516 . S
C384 C385 1.502 . S
C384 C386 1.561 . S
C384 C387 1.526 . S
C385 H369 0.959 . S
C385 H370 0.959 . S
C385 H371 0.961 . S
C385 C384 1.502 . S
C386 H372 0.960 . S
C386 H373 0.961 . S
C386 H374 0.959 . S
C386 C384 1.561 . S
C387 C384 1.526 . S
C387 C388 1.396 . S
C387 C392 1.390 . S
C388 C382 1.465 . S
C388 C387 1.396 . S
C388 C389 1.399 . S
C389 H375 0.929 . S
C389 C388 1.399 . S
C389 C390 1.385 . S
C390 H376 0.931 . S
C390 C389 1.385 . S
C390 C391 1.389 . S
C391 C390 1.389 . S
C391 C392 1.387 . S
C392 H377 0.930 . S
C392 C387 1.390 . S
C392 C391 1.387 . S
H393 C405 0.930 . S
H394 C407 0.930 . S
H395 C408 0.930 . S
H396 C412 0.959 . S
H397 C412 0.959 . S
H398 C412 0.961 . S
H399 C413 0.960 . S
H400 C413 0.961 . S
H401 C413 0.959 . S
H402 C416 0.929 . S
H403 C417 0.931 . S
H404 C419 0.930 . S
C405 H393 0.930 . S
C405 C406 1.399 . S
C405 C410 1.399 . S
C406 C405 1.399 . S
C406 C407 1.376 . S
C407 H394 0.930 . S
C407 C406 1.376 . S
C407 C408 1.388 . S
C408 H395 0.930 . S
C408 C407 1.388 . S
C408 C409 1.390 . S
C409 C408 1.390 . S
C409 C410 1.394 . S
C409 C415 1.465 . S
C410 C405 1.399 . S
C410 C409 1.394 . S
C410 C411 1.516 . S
C411 C410 1.516 . S
C411 C412 1.502 . S
C411 C413 1.561 . S
C411 C414 1.526 . S
C412 H396 0.959 . S
C412 H397 0.959 . S
C412 H398 0.961 . S
C412 C411 1.502 . S
C413 H399 0.960 . S
C413 H400 0.961 . S
C413 H401 0.959 . S
C413 C411 1.561 . S
C414 C411 1.526 . S
C414 C415 1.396 . S
C414 C419 1.390 . S
C415 C409 1.465 . S
C415 C414 1.396 . S
C415 C416 1.399 . S
C416 H402 0.929 . S
C416 C415 1.399 . S
C416 C417 1.385 . S
C417 H403 0.931 . S
C417 C416 1.385 . S
C417 C418 1.389 . S
C418 C417 1.389 . S
C418 C419 1.387 . S
C419 H404 0.930 . S
C419 C414 1.390 . S
C419 C418 1.387 . S
H420 C432 0.930 . S
H421 C434 0.930 . S
H422 C435 0.930 . S
H423 C439 0.959 . S
H424 C439 0.959 . S
H425 C439 0.961 . S
H426 C440 0.960 . S
H427 C440 0.961 . S
H428 C440 0.959 . S
H429 C443 0.929 . S
H430 C444 0.931 . S
H431 C446 0.930 . S
C432 H420 0.930 . S
C432 C433 1.399 . S
C432 C437 1.399 . S
C433 C432 1.399 . S
C433 C434 1.376 . S
C434 H421 0.930 . S
C434 C433 1.376 . S
C434 C435 1.388 . S
C435 H422 0.930 . S
C435 C434 1.388 . S
C435 C436 1.390 . S
C436 C435 1.390 . S
C436 C437 1.394 . S
C436 C442 1.465 . S
C437 C432 1.399 . S
C437 C436 1.394 . S
C437 C438 1.516 . S
C438 C437 1.516 . S
C438 C439 1.502 . S
C438 C440 1.561 . S
C438 C441 1.526 . S
C439 H423 0.959 . S
C439 H424 0.959 . S
C439 H425 0.961 . S
C439 C438 1.502 . S
C440 H426 0.960 . S
C440 H427 0.961 . S
C440 H428 0.959 . S
C440 C438 1.561 . S
C441 C438 1.526 . S
C441 C442 1.396 . S
C441 C446 1.390 . S
C442 C436 1.465 . S
C442 C441 1.396 . S
C442 C443 1.399 . S
C443 H429 0.929 . S
C443 C442 1.399 . S
C443 C444 1.385 . S
C444 H430 0.931 . S
C444 C443 1.385 . S
C444 C445 1.389 . S
C445 C444 1.389 . S
C445 C446 1.387 . S
C446 H431 0.930 . S
C446 C441 1.390 . S
C446 C445 1.387 . S
H447 C459 0.930 . S
H448 C461 0.930 . S
H449 C462 0.930 . S
H450 C466 0.959 . S
H451 C466 0.959 . S
H452 C466 0.961 . S
H453 C467 0.960 . S
H454 C467 0.961 . S
H455 C467 0.959 . S
H456 C470 0.929 . S
H457 C471 0.931 . S
H458 C473 0.930 . S
C459 H447 0.930 . S
C459 C460 1.399 . S
C459 C464 1.399 . S
C460 C459 1.399 . S
C460 C461 1.376 . S
C461 H448 0.930 . S
C461 C460 1.376 . S
C461 C462 1.388 . S
C462 H449 0.930 . S
C462 C461 1.388 . S
C462 C463 1.390 . S
C463 C462 1.390 . S
C463 C464 1.394 . S
C463 C469 1.465 . S
C464 C459 1.399 . S
C464 C463 1.394 . S
C464 C465 1.516 . S
C465 C464 1.516 . S
C465 C466 1.502 . S
C465 C467 1.561 . S
C465 C468 1.526 . S
C466 H450 0.959 . S
C466 H451 0.959 . S
C466 H452 0.961 . S
C466 C465 1.502 . S
C467 H453 0.960 . S
C467 H454 0.961 . S
C467 H455 0.959 . S
C467 C465 1.561 . S
C468 C465 1.526 . S
C468 C469 1.396 . S
C468 C473 1.390 . S
C469 C463 1.465 . S
C469 C468 1.396 . S
C469 C470 1.399 . S
C470 H456 0.929 . S
C470 C469 1.399 . S
C470 C471 1.385 . S
C471 H457 0.931 . S
C471 C470 1.385 . S
C471 C472 1.389 . S
C472 C471 1.389 . S
C472 C473 1.387 . S
C473 H458 0.930 . S
C473 C468 1.390 . S
C473 C472 1.387 . S
H474 C486 0.930 . S
H475 C488 0.930 . S
H476 C489 0.930 . S
H477 C493 0.959 . S
H478 C493 0.959 . S
H479 C493 0.961 . S
H480 C494 0.960 . S
H481 C494 0.961 . S
H482 C494 0.959 . S
H483 C497 0.929 . S
H484 C498 0.931 . S
H485 C500 0.930 . S
C486 H474 0.930 . S
C486 C487 1.399 . S
C486 C491 1.399 . S
C487 C486 1.399 . S
C487 C488 1.376 . S
C488 H475 0.930 . S
C488 C487 1.376 . S
C488 C489 1.388 . S
C489 H476 0.930 . S
C489 C488 1.388 . S
C489 C490 1.390 . S
C490 C489 1.390 . S
C490 C491 1.394 . S
C490 C496 1.465 . S
C491 C486 1.399 . S
C491 C490 1.394 . S
C491 C492 1.516 . S
C492 C491 1.516 . S
C492 C493 1.502 . S
C492 C494 1.561 . S
C492 C495 1.526 . S
C493 H477 0.959 . S
C493 H478 0.959 . S
C493 H479 0.961 . S
C493 C492 1.502 . S
C494 H480 0.960 . S
C494 H481 0.961 . S
C494 H482 0.959 . S
C494 C492 1.561 . S
C495 C492 1.526 . S
C495 C496 1.396 . S
C495 C500 1.390 . S
C496 C490 1.465 . S
C496 C495 1.396 . S
C496 C497 1.399 . S
C497 H483 0.929 . S
C497 C496 1.399 . S
C497 C498 1.385 . S
C498 H484 0.931 . S
C498 C497 1.385 . S
C498 C499 1.389 . S
C499 C498 1.389 . S
C499 C500 1.387 . S
C500 H485 0.930 . S
C500 C495 1.390 . S
C500 C499 1.387 . S
H501 C513 0.930 . S
H502 C515 0.930 . S
H503 C516 0.930 . S
H504 C520 0.959 . S
H505 C520 0.959 . S
H506 C520 0.961 . S
H507 C521 0.960 . S
H508 C521 0.961 . S
H509 C521 0.959 . S
H510 C524 0.929 . S
H511 C525 0.931 . S
H512 C527 0.930 . S
C513 H501 0.930 . S
C513 C514 1.399 . S
C513 C518 1.399 . S
C514 C513 1.399 . S
C514 C515 1.376 . S
C515 H502 0.930 . S
C515 C514 1.376 . S
C515 C516 1.388 . S
C516 H503 0.930 . S
C516 C515 1.388 . S
C516 C517 1.390 . S
C517 C516 1.390 . S
C517 C518 1.394 . S
C517 C523 1.465 . S
C518 C513 1.399 . S
C518 C517 1.394 . S
C518 C519 1.516 . S
C519 C518 1.516 . S
C519 C520 1.502 . S
C519 C521 1.561 . S
C519 C522 1.526 . S
C520 H504 0.959 . S
C520 H505 0.959 . S
C520 H506 0.961 . S
C520 C519 1.502 . S
C521 H507 0.960 . S
C521 H508 0.961 . S
C521 H509 0.959 . S
C521 C519 1.561 . S
C522 C519 1.526 . S
C522 C523 1.396 . S
C522 C527 1.390 . S
C523 C517 1.465 . S
C523 C522 1.396 . S
C523 C524 1.399 . S
C524 H510 0.929 . S
C524 C523 1.399 . S
C524 C525 1.385 . S
C525 H511 0.931 . S
C525 C524 1.385 . S
C525 C526 1.389 . S
C526 C525 1.389 . S
C526 C527 1.387 . S
C527 H512 0.930 . S
C527 C522 1.390 . S
C527 C526 1.387 . S
H528 C540 0.930 . S
H529 C542 0.930 . S
H530 C543 0.930 . S
H531 C547 0.959 . S
H532 C547 0.959 . S
H533 C547 0.961 . S
H534 C548 0.960 . S
H535 C548 0.961 . S
H536 C548 0.959 . S
H537 C551 0.929 . S
H538 C552 0.931 . S
H539 C554 0.930 . S
C540 H528 0.930 . S
C540 C541 1.399 . S
C540 C545 1.399 . S
C541 C540 1.399 . S
C541 C542 1.376 . S
C542 H529 0.930 . S
C542 C541 1.376 . S
C542 C543 1.388 . S
C543 H530 0.930 . S
C543 C542 1.388 . S
C543 C544 1.390 . S
C544 C543 1.390 . S
C544 C545 1.394 . S
C544 C550 1.465 . S
C545 C540 1.399 . S
C545 C544 1.394 . S
C545 C546 1.516 . S
C546 C545 1.516 . S
C546 C547 1.502 . S
C546 C548 1.561 . S
C546 C549 1.526 . S
C547 H531 0.959 . S
C547 H532 0.959 . S
C547 H533 0.961 . S
C547 C546 1.502 . S
C548 H534 0.960 . S
C548 H535 0.961 . S
C548 H536 0.959 . S
C548 C546 1.561 . S
C549 C546 1.526 . S
C549 C550 1.396 . S
C549 C554 1.390 . S
C550 C544 1.465 . S
C550 C549 1.396 . S
C550 C551 1.399 . S
C551 H537 0.929 . S
C551 C550 1.399 . S
C551 C552 1.385 . S
C552 H538 0.931 . S
C552 C551 1.385 . S
C552 C553 1.389 . S
C553 C552 1.389 . S
C553 C554 1.387 . S
C554 H539 0.930 . S
C554 C549 1.390 . S
C554 C553 1.387 . S
H555 C567 0.930 . S
H556 C569 0.930 . S
H557 C570 0.930 . S
H558 C574 0.959 . S
H559 C574 0.959 . S
H560 C574 0.961 . S
H561 C575 0.960 . S
H562 C575 0.961 . S
H563 C575 0.959 . S
H564 C578 0.929 . S
H565 C579 0.931 . S
H566 C581 0.930 . S
C567 H555 0.930 . S
C567 C568 1.399 . S
C567 C572 1.399 . S
C568 C567 1.399 . S
C568 C569 1.376 . S
C569 H556 0.930 . S
C569 C568 1.376 . S
C569 C570 1.388 . S
C570 H557 0.930 . S
C570 C569 1.388 . S
C570 C571 1.390 . S
C571 C570 1.390 . S
C571 C572 1.394 . S
C571 C577 1.465 . S
C572 C567 1.399 . S
C572 C571 1.394 . S
C572 C573 1.516 . S
C573 C572 1.516 . S
C573 C574 1.502 . S
C573 C575 1.561 . S
C573 C576 1.526 . S
C574 H558 0.959 . S
C574 H559 0.959 . S
C574 H560 0.961 . S
C574 C573 1.502 . S
C575 H561 0.960 . S
C575 H562 0.961 . S
C575 H563 0.959 . S
C575 C573 1.561 . S
C576 C573 1.526 . S
C576 C577 1.396 . S
C576 C581 1.390 . S
C577 C571 1.465 . S
C577 C576 1.396 . S
C577 C578 1.399 . S
C578 H564 0.929 . S
C578 C577 1.399 . S
C578 C579 1.385 . S
C579 H565 0.931 . S
C579 C578 1.385 . S
C579 C580 1.389 . S
C580 C579 1.389 . S
C580 C581 1.387 . S
C581 H566 0.930 . S
C581 C576 1.390 . S
C581 C580 1.387 . S
H582 C594 0.930 . S
H583 C596 0.930 . S
H584 C597 0.930 . S
H585 C601 0.959 . S
H586 C601 0.959 . S
H587 C601 0.961 . S
H588 C602 0.960 . S
H589 C602 0.961 . S
H590 C602 0.959 . S
H591 C605 0.929 . S
H592 C606 0.931 . S
H593 C608 0.930 . S
C594 H582 0.930 . S
C594 C595 1.399 . S
C594 C599 1.399 . S
C595 C594 1.399 . S
C595 C596 1.376 . S
C596 H583 0.930 . S
C596 C595 1.376 . S
C596 C597 1.388 . S
C597 H584 0.930 . S
C597 C596 1.388 . S
C597 C598 1.390 . S
C598 C597 1.390 . S
C598 C599 1.394 . S
C598 C604 1.465 . S
C599 C594 1.399 . S
C599 C598 1.394 . S
C599 C600 1.516 . S
C600 C599 1.516 . S
C600 C601 1.502 . S
C600 C602 1.561 . S
C600 C603 1.526 . S
C601 H585 0.959 . S
C601 H586 0.959 . S
C601 H587 0.961 . S
C601 C600 1.502 . S
C602 H588 0.960 . S
C602 H589 0.961 . S
C602 H590 0.959 . S
C602 C600 1.561 . S
C603 C600 1.526 . S
C603 C604 1.396 . S
C603 C608 1.390 . S
C604 C598 1.465 . S
C604 C603 1.396 . S
C604 C605 1.399 . S
C605 H591 0.929 . S
C605 C604 1.399 . S
C605 C606 1.385 . S
C606 H592 0.931 . S
C606 C605 1.385 . S
C606 C607 1.389 . S
C607 C606 1.389 . S
C607 C608 1.387 . S
C608 H593 0.930 . S
C608 C603 1.390 . S
C608 C607 1.387 . S
H609 C621 0.930 . S
H610 C623 0.930 . S
H611 C624 0.930 . S
H612 C628 0.959 . S
H613 C628 0.959 . S
H614 C628 0.961 . S
H615 C629 0.960 . S
H616 C629 0.961 . S
H617 C629 0.959 . S
H618 C632 0.929 . S
H619 C633 0.931 . S
H620 C635 0.930 . S
C621 H609 0.930 . S
C621 C622 1.399 . S
C621 C626 1.399 . S
C622 C621 1.399 . S
C622 C623 1.376 . S
C623 H610 0.930 . S
C623 C622 1.376 . S
C623 C624 1.388 . S
C624 H611 0.930 . S
C624 C623 1.388 . S
C624 C625 1.390 . S
C625 C624 1.390 . S
C625 C626 1.394 . S
C625 C631 1.465 . S
C626 C621 1.399 . S
C626 C625 1.394 . S
C626 C627 1.516 . S
C627 C626 1.516 . S
C627 C628 1.502 . S
C627 C629 1.561 . S
C627 C630 1.526 . S
C628 H612 0.959 . S
C628 H613 0.959 . S
C628 H614 0.961 . S
C628 C627 1.502 . S
C629 H615 0.960 . S
C629 H616 0.961 . S
C629 H617 0.959 . S
C629 C627 1.561 . S
C630 C627 1.526 . S
C630 C631 1.396 . S
C630 C635 1.390 . S
C631 C625 1.465 . S
C631 C630 1.396 . S
C631 C632 1.399 . S
C632 H618 0.929 . S
C632 C631 1.399 . S
C632 C633 1.385 . S
C633 H619 0.931 . S
C633 C632 1.385 . S
C633 C634 1.389 . S
C634 C633 1.389 . S
C634 C635 1.387 . S
C635 H620 0.930 . S
C635 C630 1.390 . S
C635 C634 1.387 . S
H636 C648 0.930 . S
H637 C650 0.930 . S
H638 C651 0.930 . S
H639 C655 0.959 . S
H640 C655 0.959 . S
H641 C655 0.961 . S
H642 C656 0.960 . S
H643 C656 0.961 . S
H644 C656 0.959 . S
H645 C659 0.929 . S
H646 C660 0.931 . S
H647 C662 0.930 . S
C648 H636 0.930 . S
C648 C649 1.399 . S
C648 C653 1.399 . S
C649 C648 1.399 . S
C649 C650 1.376 . S
C650 H637 0.930 . S
C650 C649 1.376 . S
C650 C651 1.388 . S
C651 H638 0.930 . S
C651 C650 1.388 . S
C651 C652 1.390 . S
C652 C651 1.390 . S
C652 C653 1.394 . S
C652 C658 1.465 . S
C653 C648 1.399 . S
C653 C652 1.394 . S
C653 C654 1.516 . S
C654 C653 1.516 . S
C654 C655 1.502 . S
C654 C656 1.561 . S
C654 C657 1.526 . S
C655 H639 0.959 . S
C655 H640 0.959 . S
C655 H641 0.961 . S
C655 C654 1.502 . S
C656 H642 0.960 . S
C656 H643 0.961 . S
C656 H644 0.959 . S
C656 C654 1.561 . S
C657 C654 1.526 . S
C657 C658 1.396 . S
C657 C662 1.390 . S
C658 C652 1.465 . S
C658 C657 1.396 . S
C658 C659 1.399 . S
C659 H645 0.929 . S
C659 C658 1.399 . S
C659 C660 1.385 . S
C660 H646 0.931 . S
C660 C659 1.385 . S
C660 C661 1.389 . S
C661 C660 1.389 . S
C661 C662 1.387 . S
C662 H647 0.930 . S
C662 C657 1.390 . S
C662 C661 1.387 . S
H663 C675 0.930 . S
H664 C677 0.930 . S
H665 C678 0.930 . S
H666 C682 0.959 . S
H667 C682 0.959 . S
H668 C682 0.961 . S
H669 C683 0.960 . S
H670 C683 0.961 . S
H671 C683 0.959 . S
H672 C686 0.929 . S
H673 C687 0.931 . S
H674 C689 0.930 . S
C675 H663 0.930 . S
C675 C676 1.399 . S
C675 C680 1.399 . S
C676 C675 1.399 . S
C676 C677 1.376 . S
C677 H664 0.930 . S
C677 C676 1.376 . S
C677 C678 1.388 . S
C678 H665 0.930 . S
C678 C677 1.388 . S
C678 C679 1.390 . S
C679 C678 1.390 . S
C679 C680 1.394 . S
C679 C685 1.465 . S
C680 C675 1.399 . S
C680 C679 1.394 . S
C680 C681 1.516 . S
C681 C680 1.516 . S
C681 C682 1.502 . S
C681 C683 1.561 . S
C681 C684 1.526 . S
C682 H666 0.959 . S
C682 H667 0.959 . S
C682 H668 0.961 . S
C682 C681 1.502 . S
C683 H669 0.960 . S
C683 H670 0.961 . S
C683 H671 0.959 . S
C683 C681 1.561 . S
C684 C681 1.526 . S
C684 C685 1.396 . S
C684 C689 1.390 . S
C685 C679 1.465 . S
C685 C684 1.396 . S
C685 C686 1.399 . S
C686 H672 0.929 . S
C686 C685 1.399 . S
C686 C687 1.385 . S
C687 H673 0.931 . S
C687 C686 1.385 . S
C687 C688 1.389 . S
C688 C687 1.389 . S
C688 C689 1.387 . S
C689 H674 0.930 . S
C689 C684 1.390 . S
C689 C688 1.387 . S
H690 C702 0.930 . S
H691 C704 0.930 . S
H692 C705 0.930 . S
H693 C709 0.959 . S
H694 C709 0.959 . S
H695 C709 0.961 . S
H696 C710 0.960 . S
H697 C710 0.961 . S
H698 C710 0.959 . S
H699 C713 0.929 . S
H700 C714 0.931 . S
H701 C716 0.930 . S
C702 H690 0.930 . S
C702 C703 1.399 . S
C702 C707 1.399 . S
C703 C702 1.399 . S
C703 C704 1.376 . S
C704 H691 0.930 . S
C704 C703 1.376 . S
C704 C705 1.388 . S
C705 H692 0.930 . S
C705 C704 1.388 . S
C705 C706 1.390 . S
C706 C705 1.390 . S
C706 C707 1.394 . S
C706 C712 1.465 . S
C707 C702 1.399 . S
C707 C706 1.394 . S
C707 C708 1.516 . S
C708 C707 1.516 . S
C708 C709 1.502 . S
C708 C710 1.561 . S
C708 C711 1.526 . S
C709 H693 0.959 . S
C709 H694 0.959 . S
C709 H695 0.961 . S
C709 C708 1.502 . S
C710 H696 0.960 . S
C710 H697 0.961 . S
C710 H698 0.959 . S
C710 C708 1.561 . S
C711 C708 1.526 . S
C711 C712 1.396 . S
C711 C716 1.390 . S
C712 C706 1.465 . S
C712 C711 1.396 . S
C712 C713 1.399 . S
C713 H699 0.929 . S
C713 C712 1.399 . S
C713 C714 1.385 . S
C714 H700 0.931 . S
C714 C713 1.385 . S
C714 C715 1.389 . S
C715 C714 1.389 . S
C715 C716 1.387 . S
C716 H701 0.930 . S
C716 C711 1.390 . S
C716 C715 1.387 . S
H717 C729 0.930 . S
H718 C731 0.930 . S
H719 C732 0.930 . S
H720 C736 0.959 . S
H721 C736 0.959 . S
H722 C736 0.961 . S
H723 C737 0.960 . S
H724 C737 0.961 . S
H725 C737 0.959 . S
H726 C740 0.929 . S
H727 C741 0.931 . S
H728 C743 0.930 . S
C729 H717 0.930 . S
C729 C730 1.399 . S
C729 C734 1.399 . S
C730 C729 1.399 . S
C730 C731 1.376 . S
C731 H718 0.930 . S
C731 C730 1.376 . S
C731 C732 1.388 . S
C732 H719 0.930 . S
C732 C731 1.388 . S
C732 C733 1.390 . S
C733 C732 1.390 . S
C733 C734 1.394 . S
C733 C739 1.465 . S
C734 C729 1.399 . S
C734 C733 1.394 . S
C734 C735 1.516 . S
C735 C734 1.516 . S
C735 C736 1.502 . S
C735 C737 1.561 . S
C735 C738 1.526 . S
C736 H720 0.959 . S
C736 H721 0.959 . S
C736 H722 0.961 . S
C736 C735 1.502 . S
C737 H723 0.960 . S
C737 H724 0.961 . S
C737 H725 0.959 . S
C737 C735 1.561 . S
C738 C735 1.526 . S
C738 C739 1.396 . S
C738 C743 1.390 . S
C739 C733 1.465 . S
C739 C738 1.396 . S
C739 C740 1.399 . S
C740 H726 0.929 . S
C740 C739 1.399 . S
C740 C741 1.385 . S
C741 H727 0.931 . S
C741 C740 1.385 . S
C741 C742 1.389 . S
C742 C741 1.389 . S
C742 C743 1.387 . S
C743 H728 0.930 . S
C743 C738 1.390 . S
C743 C742 1.387 . S
H744 C756 0.930 . S
H745 C758 0.930 . S
H746 C759 0.930 . S
H747 C763 0.959 . S
H748 C763 0.959 . S
H749 C763 0.961 . S
H750 C764 0.960 . S
H751 C764 0.961 . S
H752 C764 0.959 . S
H753 C767 0.929 . S
H754 C768 0.931 . S
H755 C770 0.930 . S
C756 H744 0.930 . S
C756 C757 1.399 . S
C756 C761 1.399 . S
C757 C756 1.399 . S
C757 C758 1.376 . S
C758 H745 0.930 . S
C758 C757 1.376 . S
C758 C759 1.388 . S
C759 H746 0.930 . S
C759 C758 1.388 . S
C759 C760 1.390 . S
C760 C759 1.390 . S
C760 C761 1.394 . S
C760 C766 1.465 . S
C761 C756 1.399 . S
C761 C760 1.394 . S
C761 C762 1.516 . S
C762 C761 1.516 . S
C762 C763 1.502 . S
C762 C764 1.561 . S
C762 C765 1.526 . S
C763 H747 0.959 . S
C763 H748 0.959 . S
C763 H749 0.961 . S
C763 C762 1.502 . S
C764 H750 0.960 . S
C764 H751 0.961 . S
C764 H752 0.959 . S
C764 C762 1.561 . S
C765 C762 1.526 . S
C765 C766 1.396 . S
C765 C770 1.390 . S
C766 C760 1.465 . S
C766 C765 1.396 . S
C766 C767 1.399 . S
C767 H753 0.929 . S
C767 C766 1.399 . S
C767 C768 1.385 . S
C768 H754 0.931 . S
C768 C767 1.385 . S
C768 C769 1.389 . S
C769 C768 1.389 . S
C769 C770 1.387 . S
C770 H755 0.930 . S
C770 C765 1.390 . S
C770 C769 1.387 . S
H771 C783 0.930 . S
H772 C785 0.930 . S
H773 C786 0.930 . S
H774 C790 0.959 . S
H775 C790 0.959 . S
H776 C790 0.961 . S
H777 C791 0.960 . S
H778 C791 0.961 . S
H779 C791 0.959 . S
H780 C794 0.929 . S
H781 C795 0.931 . S
H782 C797 0.930 . S
C783 H771 0.930 . S
C783 C784 1.399 . S
C783 C788 1.399 . S
C784 C783 1.399 . S
C784 C785 1.376 . S
C785 H772 0.930 . S
C785 C784 1.376 . S
C785 C786 1.388 . S
C786 H773 0.930 . S
C786 C785 1.388 . S
C786 C787 1.390 . S
C787 C786 1.390 . S
C787 C788 1.394 . S
C787 C793 1.465 . S
C788 C783 1.399 . S
C788 C787 1.394 . S
C788 C789 1.516 . S
C789 C788 1.516 . S
C789 C790 1.502 . S
C789 C791 1.561 . S
C789 C792 1.526 . S
C790 H774 0.959 . S
C790 H775 0.959 . S
C790 H776 0.961 . S
C790 C789 1.502 . S
C791 H777 0.960 . S
C791 H778 0.961 . S
C791 H779 0.959 . S
C791 C789 1.561 . S
C792 C789 1.526 . S
C792 C793 1.396 . S
C792 C797 1.390 . S
C793 C787 1.465 . S
C793 C792 1.396 . S
C793 C794 1.399 . S
C794 H780 0.929 . S
C794 C793 1.399 . S
C794 C795 1.385 . S
C795 H781 0.931 . S
C795 C794 1.385 . S
C795 C796 1.389 . S
C796 C795 1.389 . S
C796 C797 1.387 . S
C797 H782 0.930 . S
C797 C792 1.390 . S
C797 C796 1.387 . S
H798 C810 0.930 . S
H799 C812 0.930 . S
H800 C813 0.930 . S
H801 C817 0.959 . S
H802 C817 0.959 . S
H803 C817 0.961 . S
H804 C818 0.960 . S
H805 C818 0.961 . S
H806 C818 0.959 . S
H807 C821 0.929 . S
H808 C822 0.931 . S
H809 C824 0.930 . S
C810 H798 0.930 . S
C810 C811 1.399 . S
C810 C815 1.399 . S
C811 C810 1.399 . S
C811 C812 1.376 . S
C812 H799 0.930 . S
C812 C811 1.376 . S
C812 C813 1.388 . S
C813 H800 0.930 . S
C813 C812 1.388 . S
C813 C814 1.390 . S
C814 C813 1.390 . S
C814 C815 1.394 . S
C814 C820 1.465 . S
C815 C810 1.399 . S
C815 C814 1.394 . S
C815 C816 1.516 . S
C816 C815 1.516 . S
C816 C817 1.502 . S
C816 C818 1.561 . S
C816 C819 1.526 . S
C817 H801 0.959 . S
C817 H802 0.959 . S
C817 H803 0.961 . S
C817 C816 1.502 . S
C818 H804 0.960 . S
C818 H805 0.961 . S
C818 H806 0.959 . S
C818 C816 1.561 . S
C819 C816 1.526 . S
C819 C820 1.396 . S
C819 C824 1.390 . S
C820 C814 1.465 . S
C820 C819 1.396 . S
C820 C821 1.399 . S
C821 H807 0.929 . S
C821 C820 1.399 . S
C821 C822 1.385 . S
C822 H808 0.931 . S
C822 C821 1.385 . S
C822 C823 1.389 . S
C823 C822 1.389 . S
C823 C824 1.387 . S
C824 H809 0.930 . S
C824 C819 1.390 . S
C824 C823 1.387 . S
H825 C837 0.930 . S
H826 C839 0.930 . S
H827 C840 0.930 . S
H828 C844 0.959 . S
H829 C844 0.959 . S
H830 C844 0.961 . S
H831 C845 0.960 . S
H832 C845 0.961 . S
H833 C845 0.959 . S
H834 C848 0.929 . S
H835 C849 0.931 . S
H836 C851 0.930 . S
C837 H825 0.930 . S
C837 C838 1.399 . S
C837 C842 1.399 . S
C838 C837 1.399 . S
C838 C839 1.376 . S
C839 H826 0.930 . S
C839 C838 1.376 . S
C839 C840 1.388 . S
C840 H827 0.930 . S
C840 C839 1.388 . S
C840 C841 1.390 . S
C841 C840 1.390 . S
C841 C842 1.394 . S
C841 C847 1.465 . S
C842 C837 1.399 . S
C842 C841 1.394 . S
C842 C843 1.516 . S
C843 C842 1.516 . S
C843 C844 1.502 . S
C843 C845 1.561 . S
C843 C846 1.526 . S
C844 H828 0.959 . S
C844 H829 0.959 . S
C844 H830 0.961 . S
C844 C843 1.502 . S
C845 H831 0.960 . S
C845 H832 0.961 . S
C845 H833 0.959 . S
C845 C843 1.561 . S
C846 C843 1.526 . S
C846 C847 1.396 . S
C846 C851 1.390 . S
C847 C841 1.465 . S
C847 C846 1.396 . S
C847 C848 1.399 . S
C848 H834 0.929 . S
C848 C847 1.399 . S
C848 C849 1.385 . S
C849 H835 0.931 . S
C849 C848 1.385 . S
C849 C850 1.389 . S
C850 C849 1.389 . S
C850 C851 1.387 . S
C851 H836 0.930 . S
C851 C846 1.390 . S
C851 C850 1.387 . S
H852 C864 0.930 . S
H853 C866 0.930 . S
H854 C867 0.930 . S
H855 C871 0.959 . S
H856 C871 0.959 . S
H857 C871 0.961 . S
H858 C872 0.960 . S
H859 C872 0.961 . S
H860 C872 0.959 . S
H861 C875 0.929 . S
H862 C876 0.931 . S
H863 C878 0.930 . S
C864 H852 0.930 . S
C864 C865 1.399 . S
C864 C869 1.399 . S
C865 C864 1.399 . S
C865 C866 1.376 . S
C866 H853 0.930 . S
C866 C865 1.376 . S
C866 C867 1.388 . S
C867 H854 0.930 . S
C867 C866 1.388 . S
C867 C868 1.390 . S
C868 C867 1.390 . S
C868 C869 1.394 . S
C868 C874 1.465 . S
C869 C864 1.399 . S
C869 C868 1.394 . S
C869 C870 1.516 . S
C870 C869 1.516 . S
C870 C871 1.502 . S
C870 C872 1.561 . S
C870 C873 1.526 . S
C871 H855 0.959 . S
C871 H856 0.959 . S
C871 H857 0.961 . S
C871 C870 1.502 . S
C872 H858 0.960 . S
C872 H859 0.961 . S
C872 H860 0.959 . S
C872 C870 1.561 . S
C873 C870 1.526 . S
C873 C874 1.396 . S
C873 C878 1.390 . S
C874 C868 1.465 . S
C874 C873 1.396 . S
C874 C875 1.399 . S
C875 H861 0.929 . S
C875 C874 1.399 . S
C875 C876 1.385 . S
C876 H862 0.931 . S
C876 C875 1.385 . S
C876 C877 1.389 . S
C877 C876 1.389 . S
C877 C878 1.387 . S
C878 H863 0.930 . S
C878 C873 1.390 . S
C878 C877 1.387 . S
H879 C891 0.930 . S
H880 C893 0.930 . S
H881 C894 0.930 . S
H882 C898 0.959 . S
H883 C898 0.959 . S
H884 C898 0.961 . S
H885 C899 0.960 . S
H886 C899 0.961 . S
H887 C899 0.959 . S
H888 C902 0.929 . S
H889 C903 0.931 . S
H890 C905 0.930 . S
C891 H879 0.930 . S
C891 C892 1.399 . S
C891 C896 1.399 . S
C892 C891 1.399 . S
C892 C893 1.376 . S
C893 H880 0.930 . S
C893 C892 1.376 . S
C893 C894 1.388 . S
C894 H881 0.930 . S
C894 C893 1.388 . S
C894 C895 1.390 . S
C895 C894 1.390 . S
C895 C896 1.394 . S
C895 C901 1.465 . S
C896 C891 1.399 . S
C896 C895 1.394 . S
C896 C897 1.516 . S
C897 C896 1.516 . S
C897 C898 1.502 . S
C897 C899 1.561 . S
C897 C900 1.526 . S
C898 H882 0.959 . S
C898 H883 0.959 . S
C898 H884 0.961 . S
C898 C897 1.502 . S
C899 H885 0.960 . S
C899 H886 0.961 . S
C899 H887 0.959 . S
C899 C897 1.561 . S
C900 C897 1.526 . S
C900 C901 1.396 . S
C900 C905 1.390 . S
C901 C895 1.465 . S
C901 C900 1.396 . S
C901 C902 1.399 . S
C902 H888 0.929 . S
C902 C901 1.399 . S
C902 C903 1.385 . S
C903 H889 0.931 . S
C903 C902 1.385 . S
C903 C904 1.389 . S
C904 C903 1.389 . S
C904 C905 1.387 . S
C905 H890 0.930 . S
C905 C900 1.390 . S
C905 C904 1.387 . S
H906 C918 0.930 . S
H907 C920 0.930 . S
H908 C921 0.930 . S
H909 C925 0.959 . S
H910 C925 0.959 . S
H911 C925 0.961 . S
H912 C926 0.960 . S
H913 C926 0.961 . S
H914 C926 0.959 . S
H915 C929 0.929 . S
H916 C930 0.931 . S
H917 C932 0.930 . S
C918 H906 0.930 . S
C918 C919 1.399 . S
C918 C923 1.399 . S
C919 C918 1.399 . S
C919 C920 1.376 . S
C920 H907 0.930 . S
C920 C919 1.376 . S
C920 C921 1.388 . S
C921 H908 0.930 . S
C921 C920 1.388 . S
C921 C922 1.390 . S
C922 C921 1.390 . S
C922 C923 1.394 . S
C922 C928 1.465 . S
C923 C918 1.399 . S
C923 C922 1.394 . S
C923 C924 1.516 . S
C924 C923 1.516 . S
C924 C925 1.502 . S
C924 C926 1.561 . S
C924 C927 1.526 . S
C925 H909 0.959 . S
C925 H910 0.959 . S
C925 H911 0.961 . S
C925 C924 1.502 . S
C926 H912 0.960 . S
C926 H913 0.961 . S
C926 H914 0.959 . S
C926 C924 1.561 . S
C927 C924 1.526 . S
C927 C928 1.396 . S
C927 C932 1.390 . S
C928 C922 1.465 . S
C928 C927 1.396 . S
C928 C929 1.399 . S
C929 H915 0.929 . S
C929 C928 1.399 . S
C929 C930 1.385 . S
C930 H916 0.931 . S
C930 C929 1.385 . S
C930 C931 1.389 . S
C931 C930 1.389 . S
C931 C932 1.387 . S
C932 H917 0.930 . S
C932 C927 1.390 . S
C932 C931 1.387 . S
H933 C945 0.930 . S
H934 C947 0.930 . S
H935 C948 0.930 . S
H936 C952 0.959 . S
H937 C952 0.959 . S
H938 C952 0.961 . S
H939 C953 0.960 . S
H940 C953 0.961 . S
H941 C953 0.959 . S
H942 C956 0.929 . S
H943 C957 0.931 . S
H944 C959 0.930 . S
C945 H933 0.930 . S
C945 C946 1.399 . S
C945 C950 1.399 . S
C946 C945 1.399 . S
C946 C947 1.376 . S
C947 H934 0.930 . S
C947 C946 1.376 . S
C947 C948 1.388 . S
C948 H935 0.930 . S
C948 C947 1.388 . S
C948 C949 1.390 . S
C949 C948 1.390 . S
C949 C950 1.394 . S
C949 C955 1.465 . S
C950 C945 1.399 . S
C950 C949 1.394 . S
C950 C951 1.516 . S
C951 C950 1.516 . S
C951 C952 1.502 . S
C951 C953 1.561 . S
C951 C954 1.526 . S
C952 H936 0.959 . S
C952 H937 0.959 . S
C952 H938 0.961 . S
C952 C951 1.502 . S
C953 H939 0.960 . S
C953 H940 0.961 . S
C953 H941 0.959 . S
C953 C951 1.561 . S
C954 C951 1.526 . S
C954 C955 1.396 . S
C954 C959 1.390 . S
C955 C949 1.465 . S
C955 C954 1.396 . S
C955 C956 1.399 . S
C956 H942 0.929 . S
C956 C955 1.399 . S
C956 C957 1.385 . S
C957 H943 0.931 . S
C957 C956 1.385 . S
C957 C958 1.389 . S
C958 C957 1.389 . S
C958 C959 1.387 . S
C959 H944 0.930 . S
C959 C954 1.390 . S
C959 C958 1.387 . S
H960 C972 0.930 . S
H961 C974 0.930 . S
H962 C975 0.930 . S
H963 C979 0.959 . S
H964 C979 0.959 . S
H965 C979 0.961 . S
H966 C980 0.960 . S
H967 C980 0.961 . S
H968 C980 0.959 . S
H969 C983 0.929 . S
H970 C984 0.931 . S
H971 C986 0.930 . S
C972 H960 0.930 . S
C972 C973 1.399 . S
C972 C977 1.399 . S
C973 C972 1.399 . S
C973 C974 1.376 . S
C974 H961 0.930 . S
C974 C973 1.376 . S
C974 C975 1.388 . S
C975 H962 0.930 . S
C975 C974 1.388 . S
C975 C976 1.390 . S
C976 C975 1.390 . S
C976 C977 1.394 . S
C976 C982 1.465 . S
C977 C972 1.399 . S
C977 C976 1.394 . S
C977 C978 1.516 . S
C978 C977 1.516 . S
C978 C979 1.502 . S
C978 C980 1.561 . S
C978 C981 1.526 . S
C979 H963 0.959 . S
C979 H964 0.959 . S
C979 H965 0.961 . S
C979 C978 1.502 . S
C980 H966 0.960 . S
C980 H967 0.961 . S
C980 H968 0.959 . S
C980 C978 1.561 . S
C981 C978 1.526 . S
C981 C982 1.396 . S
C981 C986 1.390 . S
C982 C976 1.465 . S
C982 C981 1.396 . S
C982 C983 1.399 . S
C983 H969 0.929 . S
C983 C982 1.399 . S
C983 C984 1.385 . S
C984 H970 0.931 . S
C984 C983 1.385 . S
C984 C985 1.389 . S
C985 C984 1.389 . S
C985 C986 1.387 . S
C986 H971 0.930 . S
C986 C981 1.390 . S
C986 C985 1.387 . S
H987 C999 0.930 . S
H988 C1001 0.930 . S
H989 C1002 0.930 . S
H990 C1006 0.959 . S
H991 C1006 0.959 . S
H992 C1006 0.961 . S
H993 C1007 0.960 . S
H994 C1007 0.961 . S
H995 C1007 0.959 . S
H996 C1010 0.929 . S
H997 C1011 0.931 . S
H998 C1013 0.930 . S
C999 H987 0.930 . S
C999 C1000 1.399 . S
C999 C1004 1.399 1_554 S
C1000 C999 1.399 . S
C1000 C1001 1.376 . S
C1001 H988 0.930 . S
C1001 C1000 1.376 . S
C1001 C1002 1.388 1_554 S
C1002 H989 0.930 . S
C1002 C1001 1.388 1_556 S
C1002 C1003 1.390 . S
C1003 C1002 1.390 . S
C1003 C1004 1.394 . S
C1003 C1009 1.465 . S
C1004 C999 1.399 1_556 S
C1004 C1003 1.394 . S
C1004 C1005 1.516 . S
C1005 C1004 1.516 . S
C1005 C1006 1.502 . S
C1005 C1007 1.561 . S
C1005 C1008 1.526 . S
C1006 H990 0.959 . S
C1006 H991 0.959 . S
C1006 H992 0.961 . S
C1006 C1005 1.502 . S
C1007 H993 0.960 . S
C1007 H994 0.961 . S
C1007 H995 0.959 . S
C1007 C1005 1.561 . S
C1008 C1005 1.526 . S
C1008 C1009 1.396 . S
C1008 C1013 1.390 . S
C1009 C1003 1.465 . S
C1009 C1008 1.396 . S
C1009 C1010 1.399 . S
C1010 H996 0.929 . S
C1010 C1009 1.399 . S
C1010 C1011 1.385 . S
C1011 H997 0.931 . S
C1011 C1010 1.385 . S
C1011 C1012 1.389 . S
C1012 C1011 1.389 . S
C1012 C1013 1.387 . S
C1013 H998 0.930 . S
C1013 C1008 1.390 . S
C1013 C1012 1.387 . S
H1014 C1026 0.930 . S
H1015 C1028 0.930 . S
H1016 C1029 0.930 . S
H1017 C1033 0.959 . S
H1018 C1033 0.959 . S
H1019 C1033 0.961 . S
H1020 C1034 0.960 . S
H1021 C1034 0.961 . S
H1022 C1034 0.959 . S
H1023 C1037 0.929 . S
H1024 C1038 0.931 . S
H1025 C1040 0.930 . S
C1026 H1014 0.930 . S
C1026 C1027 1.399 . S
C1026 C1031 1.399 . S
C1027 C1026 1.399 . S
C1027 C1028 1.376 . S
C1028 H1015 0.930 . S
C1028 C1027 1.376 . S
C1028 C1029 1.388 . S
C1029 H1016 0.930 . S
C1029 C1028 1.388 . S
C1029 C1030 1.390 . S
C1030 C1029 1.390 . S
C1030 C1031 1.394 . S
C1030 C1036 1.465 . S
C1031 C1026 1.399 . S
C1031 C1030 1.394 . S
C1031 C1032 1.516 . S
C1032 C1031 1.516 . S
C1032 C1033 1.502 . S
C1032 C1034 1.561 . S
C1032 C1035 1.526 . S
C1033 H1017 0.959 . S
C1033 H1018 0.959 . S
C1033 H1019 0.961 . S
C1033 C1032 1.502 . S
C1034 H1020 0.960 . S
C1034 H1021 0.961 . S
C1034 H1022 0.959 . S
C1034 C1032 1.561 . S
C1035 C1032 1.526 . S
C1035 C1036 1.396 . S
C1035 C1040 1.390 . S
C1036 C1030 1.465 . S
C1036 C1035 1.396 . S
C1036 C1037 1.399 . S
C1037 H1023 0.929 . S
C1037 C1036 1.399 . S
C1037 C1038 1.385 . S
C1038 H1024 0.931 . S
C1038 C1037 1.385 . S
C1038 C1039 1.389 . S
C1039 C1038 1.389 . S
C1039 C1040 1.387 . S
C1040 H1025 0.930 . S
C1040 C1035 1.390 . S
C1040 C1039 1.387 . S
H1041 C1053 0.930 . S
H1042 C1055 0.930 . S
H1043 C1056 0.930 . S
H1044 C1060 0.959 . S
H1045 C1060 0.959 . S
H1046 C1060 0.961 . S
H1047 C1061 0.960 . S
H1048 C1061 0.961 . S
H1049 C1061 0.959 . S
H1050 C1064 0.929 . S
H1051 C1065 0.931 . S
H1052 C1067 0.930 . S
C1053 H1041 0.930 . S
C1053 C1054 1.399 . S
C1053 C1058 1.399 . S
C1054 C1053 1.399 . S
C1054 C1055 1.376 . S
C1055 H1042 0.930 . S
C1055 C1054 1.376 . S
C1055 C1056 1.388 . S
C1056 H1043 0.930 . S
C1056 C1055 1.388 . S
C1056 C1057 1.390 . S
C1057 C1056 1.390 . S
C1057 C1058 1.394 . S
C1057 C1063 1.465 . S
C1058 C1053 1.399 . S
C1058 C1057 1.394 . S
C1058 C1059 1.516 . S
C1059 C1058 1.516 . S
C1059 C1060 1.502 . S
C1059 C1061 1.561 . S
C1059 C1062 1.526 . S
C1060 H1044 0.959 . S
C1060 H1045 0.959 . S
C1060 H1046 0.961 . S
C1060 C1059 1.502 . S
C1061 H1047 0.960 . S
C1061 H1048 0.961 . S
C1061 H1049 0.959 . S
C1061 C1059 1.561 . S
C1062 C1059 1.526 . S
C1062 C1063 1.396 . S
C1062 C1067 1.390 1_554 S
C1063 C1057 1.465 . S
C1063 C1062 1.396 . S
C1063 C1064 1.399 . S
C1064 H1050 0.929 . S
C1064 C1063 1.399 . S
C1064 C1065 1.385 1_554 S
C1065 H1051 0.931 . S
C1065 C1064 1.385 1_556 S
C1065 C1066 1.389 . S
C1066 C1065 1.389 . S
C1066 C1067 1.387 . S
C1067 H1052 0.930 . S
C1067 C1062 1.390 1_556 S
C1067 C1066 1.387 . S
H1068 C1080 0.930 . S
H1069 C1082 0.930 . S
H1070 C1083 0.930 . S
H1071 C1087 0.959 . S
H1072 C1087 0.959 . S
H1073 C1087 0.961 . S
H1074 C1088 0.960 . S
H1075 C1088 0.961 . S
H1076 C1088 0.959 . S
H1077 C1091 0.929 . S
H1078 C1092 0.931 . S
H1079 C1094 0.930 . S
C1080 H1068 0.930 . S
C1080 C1081 1.399 . S
C1080 C1085 1.399 . S
C1081 C1080 1.399 . S
C1081 C1082 1.376 . S
C1082 H1069 0.930 . S
C1082 C1081 1.376 . S
C1082 C1083 1.388 . S
C1083 H1070 0.930 . S
C1083 C1082 1.388 . S
C1083 C1084 1.390 . S
C1084 C1083 1.390 . S
C1084 C1085 1.394 . S
C1084 C1090 1.465 . S
C1085 C1080 1.399 . S
C1085 C1084 1.394 . S
C1085 C1086 1.516 . S
C1086 C1085 1.516 . S
C1086 C1087 1.502 . S
C1086 C1088 1.561 . S
C1086 C1089 1.526 . S
C1087 H1071 0.959 . S
C1087 H1072 0.959 . S
C1087 H1073 0.961 . S
C1087 C1086 1.502 . S
C1088 H1074 0.960 . S
C1088 H1075 0.961 . S
C1088 H1076 0.959 . S
C1088 C1086 1.561 . S
C1089 C1086 1.526 . S
C1089 C1090 1.396 . S
C1089 C1094 1.390 . S
C1090 C1084 1.465 . S
C1090 C1089 1.396 . S
C1090 C1091 1.399 . S
C1091 H1077 0.929 . S
C1091 C1090 1.399 . S
C1091 C1092 1.385 . S
C1092 H1078 0.931 . S
C1092 C1091 1.385 . S
C1092 C1093 1.389 . S
C1093 C1092 1.389 . S
C1093 C1094 1.387 . S
C1094 H1079 0.930 . S
C1094 C1089 1.390 . S
C1094 C1093 1.387 . S
H1095 C1107 0.930 . S
H1096 C1109 0.930 . S
H1097 C1110 0.930 . S
H1098 C1114 0.959 . S
H1099 C1114 0.959 . S
H1100 C1114 0.961 . S
H1101 C1115 0.960 . S
H1102 C1115 0.961 . S
H1103 C1115 0.959 . S
H1104 C1118 0.929 . S
H1105 C1119 0.931 . S
H1106 C1121 0.930 . S
C1107 H1095 0.930 . S
C1107 C1108 1.399 . S
C1107 C1112 1.399 1_655 S
C1108 C1107 1.399 . S
C1108 C1109 1.376 . S
C1109 H1096 0.930 . S
C1109 C1108 1.376 . S
C1109 C1110 1.388 1_655 S
C1110 H1097 0.930 . S
C1110 C1109 1.388 1_455 S
C1110 C1111 1.390 . S
C1111 C1110 1.390 . S
C1111 C1112 1.394 . S
C1111 C1117 1.465 . S
C1112 C1107 1.399 1_455 S
C1112 C1111 1.394 . S
C1112 C1113 1.516 . S
C1113 C1112 1.516 . S
C1113 C1114 1.502 . S
C1113 C1115 1.561 . S
C1113 C1116 1.526 . S
C1114 H1098 0.959 . S
C1114 H1099 0.959 . S
C1114 H1100 0.961 . S
C1114 C1113 1.502 . S
C1115 H1101 0.960 . S
C1115 H1102 0.961 . S
C1115 H1103 0.959 . S
C1115 C1113 1.561 . S
C1116 C1113 1.526 . S
C1116 C1117 1.396 . S
C1116 C1121 1.390 . S
C1117 C1111 1.465 . S
C1117 C1116 1.396 . S
C1117 C1118 1.399 . S
C1118 H1104 0.929 . S
C1118 C1117 1.399 . S
C1118 C1119 1.385 . S
C1119 H1105 0.931 . S
C1119 C1118 1.385 . S
C1119 C1120 1.389 . S
C1120 C1119 1.389 . S
C1120 C1121 1.387 . S
C1121 H1106 0.930 . S
C1121 C1116 1.390 . S
C1121 C1120 1.387 . S
H1122 C1134 0.930 . S
H1123 C1136 0.930 . S
H1124 C1137 0.930 . S
H1125 C1141 0.959 . S
H1126 C1141 0.959 . S
H1127 C1141 0.961 . S
H1128 C1142 0.960 . S
H1129 C1142 0.961 . S
H1130 C1142 0.959 . S
H1131 C1145 0.929 . S
H1132 C1146 0.931 . S
H1133 C1148 0.930 . S
C1134 H1122 0.930 . S
C1134 C1135 1.399 . S
C1134 C1139 1.399 1_455 S
C1135 C1134 1.399 . S
C1135 C1136 1.376 . S
C1136 H1123 0.930 . S
C1136 C1135 1.376 . S
C1136 C1137 1.388 1_455 S
C1137 H1124 0.930 . S
C1137 C1136 1.388 1_655 S
C1137 C1138 1.390 . S
C1138 C1137 1.390 . S
C1138 C1139 1.394 . S
C1138 C1144 1.465 . S
C1139 C1134 1.399 1_655 S
C1139 C1138 1.394 . S
C1139 C1140 1.516 . S
C1140 C1139 1.516 . S
C1140 C1141 1.502 . S
C1140 C1142 1.561 . S
C1140 C1143 1.526 . S
C1141 H1125 0.959 . S
C1141 H1126 0.959 . S
C1141 H1127 0.961 . S
C1141 C1140 1.502 . S
C1142 H1128 0.960 . S
C1142 H1129 0.961 . S
C1142 H1130 0.959 . S
C1142 C1140 1.561 . S
C1143 C1140 1.526 . S
C1143 C1144 1.396 . S
C1143 C1148 1.390 . S
C1144 C1138 1.465 . S
C1144 C1143 1.396 . S
C1144 C1145 1.399 . S
C1145 H1131 0.929 . S
C1145 C1144 1.399 . S
C1145 C1146 1.385 . S
C1146 H1132 0.931 . S
C1146 C1145 1.385 . S
C1146 C1147 1.389 . S
C1147 C1146 1.389 . S
C1147 C1148 1.387 . S
C1148 H1133 0.930 . S
C1148 C1143 1.390 . S
C1148 C1147 1.387 . S
H1149 C1161 0.930 . S
H1150 C1163 0.930 . S
H1151 C1164 0.930 . S
H1152 C1168 0.959 . S
H1153 C1168 0.959 . S
H1154 C1168 0.961 . S
H1155 C1169 0.960 . S
H1156 C1169 0.961 . S
H1157 C1169 0.959 . S
H1158 C1172 0.929 . S
H1159 C1173 0.931 . S
H1160 C1175 0.930 . S
C1161 H1149 0.930 . S
C1161 C1162 1.399 . S
C1161 C1166 1.399 . S
C1162 C1161 1.399 . S
C1162 C1163 1.376 . S
C1163 H1150 0.930 . S
C1163 C1162 1.376 . S
C1163 C1164 1.388 . S
C1164 H1151 0.930 . S
C1164 C1163 1.388 . S
C1164 C1165 1.390 . S
C1165 C1164 1.390 . S
C1165 C1166 1.394 . S
C1165 C1171 1.465 . S
C1166 C1161 1.399 . S
C1166 C1165 1.394 . S
C1166 C1167 1.516 . S
C1167 C1166 1.516 . S
C1167 C1168 1.502 . S
C1167 C1169 1.561 . S
C1167 C1170 1.526 . S
C1168 H1152 0.959 . S
C1168 H1153 0.959 . S
C1168 H1154 0.961 . S
C1168 C1167 1.502 . S
C1169 H1155 0.960 . S
C1169 H1156 0.961 . S
C1169 H1157 0.959 . S
C1169 C1167 1.561 . S
C1170 C1167 1.526 . S
C1170 C1171 1.396 . S
C1170 C1175 1.390 . S
C1171 C1165 1.465 . S
C1171 C1170 1.396 . S
C1171 C1172 1.399 . S
C1172 H1158 0.929 . S
C1172 C1171 1.399 . S
C1172 C1173 1.385 . S
C1173 H1159 0.931 . S
C1173 C1172 1.385 . S
C1173 C1174 1.389 . S
C1174 C1173 1.389 . S
C1174 C1175 1.387 . S
C1175 H1160 0.930 . S
C1175 C1170 1.390 . S
C1175 C1174 1.387 . S
H1176 C1188 0.930 . S
H1177 C1190 0.930 . S
H1178 C1191 0.930 . S
H1179 C1195 0.959 . S
H1180 C1195 0.959 . S
H1181 C1195 0.961 . S
H1182 C1196 0.960 . S
H1183 C1196 0.961 . S
H1184 C1196 0.959 . S
H1185 C1199 0.929 . S
H1186 C1200 0.931 . S
H1187 C1202 0.930 . S
C1188 H1176 0.930 . S
C1188 C1189 1.399 . S
C1188 C1193 1.399 . S
C1189 C1188 1.399 . S
C1189 C1190 1.376 . S
C1190 H1177 0.930 . S
C1190 C1189 1.376 . S
C1190 C1191 1.388 . S
C1191 H1178 0.930 . S
C1191 C1190 1.388 . S
C1191 C1192 1.390 . S
C1192 C1191 1.390 . S
C1192 C1193 1.394 . S
C1192 C1198 1.465 . S
C1193 C1188 1.399 . S
C1193 C1192 1.394 . S
C1193 C1194 1.516 . S
C1194 C1193 1.516 . S
C1194 C1195 1.502 . S
C1194 C1196 1.561 . S
C1194 C1197 1.526 . S
C1195 H1179 0.959 . S
C1195 H1180 0.959 . S
C1195 H1181 0.961 . S
C1195 C1194 1.502 . S
C1196 H1182 0.960 . S
C1196 H1183 0.961 . S
C1196 H1184 0.959 . S
C1196 C1194 1.561 . S
C1197 C1194 1.526 . S
C1197 C1198 1.396 . S
C1197 C1202 1.390 . S
C1198 C1192 1.465 . S
C1198 C1197 1.396 . S
C1198 C1199 1.399 . S
C1199 H1185 0.929 . S
C1199 C1198 1.399 . S
C1199 C1200 1.385 . S
C1200 H1186 0.931 . S
C1200 C1199 1.385 . S
C1200 C1201 1.389 . S
C1201 C1200 1.389 . S
C1201 C1202 1.387 . S
C1202 H1187 0.930 . S
C1202 C1197 1.390 . S
C1202 C1201 1.387 . S
H1203 C1215 0.930 . S
H1204 C1217 0.930 . S
H1205 C1218 0.930 . S
H1206 C1222 0.959 . S
H1207 C1222 0.959 . S
H1208 C1222 0.961 . S
H1209 C1223 0.960 . S
H1210 C1223 0.961 . S
H1211 C1223 0.959 . S
H1212 C1226 0.929 . S
H1213 C1227 0.931 . S
H1214 C1229 0.930 . S
C1215 H1203 0.930 . S
C1215 C1216 1.399 . S
C1215 C1220 1.399 1_565 S
C1216 C1215 1.399 . S
C1216 C1217 1.376 . S
C1217 H1204 0.930 . S
C1217 C1216 1.376 . S
C1217 C1218 1.388 1_565 S
C1218 H1205 0.930 . S
C1218 C1217 1.388 1_545 S
C1218 C1219 1.390 . S
C1219 C1218 1.390 . S
C1219 C1220 1.394 . S
C1219 C1225 1.465 . S
C1220 C1215 1.399 1_545 S
C1220 C1219 1.394 . S
C1220 C1221 1.516 . S
C1221 C1220 1.516 . S
C1221 C1222 1.502 . S
C1221 C1223 1.561 . S
C1221 C1224 1.526 . S
C1222 H1206 0.959 . S
C1222 H1207 0.959 . S
C1222 H1208 0.961 . S
C1222 C1221 1.502 . S
C1223 H1209 0.960 . S
C1223 H1210 0.961 . S
C1223 H1211 0.959 . S
C1223 C1221 1.561 . S
C1224 C1221 1.526 . S
C1224 C1225 1.396 . S
C1224 C1229 1.390 . S
C1225 C1219 1.465 . S
C1225 C1224 1.396 . S
C1225 C1226 1.399 . S
C1226 H1212 0.929 . S
C1226 C1225 1.399 . S
C1226 C1227 1.385 . S
C1227 H1213 0.931 . S
C1227 C1226 1.385 . S
C1227 C1228 1.389 . S
C1228 C1227 1.389 . S
C1228 C1229 1.387 . S
C1229 H1214 0.930 . S
C1229 C1224 1.390 . S
C1229 C1228 1.387 . S
H1230 C1242 0.930 . S
H1231 C1244 0.930 . S
H1232 C1245 0.930 . S
H1233 C1249 0.959 . S
H1234 C1249 0.959 . S
H1235 C1249 0.961 . S
H1236 C1250 0.960 . S
H1237 C1250 0.961 . S
H1238 C1250 0.959 . S
H1239 C1253 0.929 . S
H1240 C1254 0.931 . S
H1241 C1256 0.930 . S
C1242 H1230 0.930 . S
C1242 C1243 1.399 . S
C1242 C1247 1.399 1_545 S
C1243 C1242 1.399 . S
C1243 C1244 1.376 . S
C1244 H1231 0.930 . S
C1244 C1243 1.376 . S
C1244 C1245 1.388 1_545 S
C1245 H1232 0.930 . S
C1245 C1244 1.388 1_565 S
C1245 C1246 1.390 . S
C1246 C1245 1.390 . S
C1246 C1247 1.394 . S
C1246 C1252 1.465 . S
C1247 C1242 1.399 1_565 S
C1247 C1246 1.394 . S
C1247 C1248 1.516 . S
C1248 C1247 1.516 . S
C1248 C1249 1.502 . S
C1248 C1250 1.561 . S
C1248 C1251 1.526 . S
C1249 H1233 0.959 . S
C1249 H1234 0.959 . S
C1249 H1235 0.961 . S
C1249 C1248 1.502 . S
C1250 H1236 0.960 . S
C1250 H1237 0.961 . S
C1250 H1238 0.959 . S
C1250 C1248 1.561 . S
C1251 C1248 1.526 . S
C1251 C1252 1.396 . S
C1251 C1256 1.390 . S
C1252 C1246 1.465 . S
C1252 C1251 1.396 . S
C1252 C1253 1.399 . S
C1253 H1239 0.929 . S
C1253 C1252 1.399 . S
C1253 C1254 1.385 . S
C1254 H1240 0.931 . S
C1254 C1253 1.385 . S
C1254 C1255 1.389 . S
C1255 C1254 1.389 . S
C1255 C1256 1.387 . S
C1256 H1241 0.930 . S
C1256 C1251 1.390 . S
C1256 C1255 1.387 . S
H1257 C1269 0.930 . S
H1258 C1271 0.930 . S
H1259 C1272 0.930 . S
H1260 C1276 0.959 . S
H1261 C1276 0.959 . S
H1262 C1276 0.961 . S
H1263 C1277 0.960 . S
H1264 C1277 0.961 . S
H1265 C1277 0.959 . S
H1266 C1280 0.929 . S
H1267 C1281 0.931 . S
H1268 C1283 0.930 . S
C1269 H1257 0.930 . S
C1269 C1270 1.399 . S
C1269 C1274 1.399 . S
C1270 C1269 1.399 . S
C1270 C1271 1.376 . S
C1271 H1258 0.930 . S
C1271 C1270 1.376 . S
C1271 C1272 1.388 . S
C1272 H1259 0.930 . S
C1272 C1271 1.388 . S
C1272 C1273 1.390 . S
C1273 C1272 1.390 . S
C1273 C1274 1.394 . S
C1273 C1279 1.465 . S
C1274 C1269 1.399 . S
C1274 C1273 1.394 . S
C1274 C1275 1.516 . S
C1275 C1274 1.516 . S
C1275 C1276 1.502 . S
C1275 C1277 1.561 . S
C1275 C1278 1.526 . S
C1276 H1260 0.959 . S
C1276 H1261 0.959 . S
C1276 H1262 0.961 . S
C1276 C1275 1.502 . S
C1277 H1263 0.960 . S
C1277 H1264 0.961 . S
C1277 H1265 0.959 . S
C1277 C1275 1.561 . S
C1278 C1275 1.526 . S
C1278 C1279 1.396 . S
C1278 C1283 1.390 . S
C1279 C1273 1.465 . S
C1279 C1278 1.396 . S
C1279 C1280 1.399 . S
C1280 H1266 0.929 . S
C1280 C1279 1.399 . S
C1280 C1281 1.385 . S
C1281 H1267 0.931 . S
C1281 C1280 1.385 . S
C1281 C1282 1.389 . S
C1282 C1281 1.389 . S
C1282 C1283 1.387 . S
C1283 H1268 0.930 . S
C1283 C1278 1.390 . S
C1283 C1282 1.387 . S
H1284 C1296 0.930 . S
H1285 C1298 0.930 . S
H1286 C1299 0.930 . S
H1287 C1303 0.959 . S
H1288 C1303 0.959 . S
H1289 C1303 0.961 . S
H1290 C1304 0.960 . S
H1291 C1304 0.961 . S
H1292 C1304 0.959 . S
H1293 C1307 0.929 . S
H1294 C1308 0.931 . S
H1295 C1310 0.930 . S
C1296 H1284 0.930 . S
C1296 C1297 1.399 . S
C1296 C1301 1.399 . S
C1297 C1296 1.399 . S
C1297 C1298 1.376 . S
C1298 H1285 0.930 . S
C1298 C1297 1.376 . S
C1298 C1299 1.388 . S
C1299 H1286 0.930 . S
C1299 C1298 1.388 . S
C1299 C1300 1.390 . S
C1300 C1299 1.390 . S
C1300 C1301 1.394 . S
C1300 C1306 1.465 . S
C1301 C1296 1.399 . S
C1301 C1300 1.394 . S
C1301 C1302 1.516 . S
C1302 C1301 1.516 . S
C1302 C1303 1.502 . S
C1302 C1304 1.561 . S
C1302 C1305 1.526 . S
C1303 H1287 0.959 . S
C1303 H1288 0.959 . S
C1303 H1289 0.961 . S
C1303 C1302 1.502 . S
C1304 H1290 0.960 . S
C1304 H1291 0.961 . S
C1304 H1292 0.959 . S
C1304 C1302 1.561 . S
C1305 C1302 1.526 . S
C1305 C1306 1.396 . S
C1305 C1310 1.390 . S
C1306 C1300 1.465 . S
C1306 C1305 1.396 . S
C1306 C1307 1.399 . S
C1307 H1293 0.929 . S
C1307 C1306 1.399 . S
C1307 C1308 1.385 . S
C1308 H1294 0.931 . S
C1308 C1307 1.385 . S
C1308 C1309 1.389 . S
C1309 C1308 1.389 . S
C1309 C1310 1.387 . S
C1310 H1295 0.930 . S
C1310 C1305 1.390 . S
C1310 C1309 1.387 . S
H1311 C1323 0.930 . S
H1312 C1325 0.930 . S
H1313 C1326 0.930 . S
H1314 C1330 0.959 . S
H1315 C1330 0.959 . S
H1316 C1330 0.961 . S
H1317 C1331 0.960 . S
H1318 C1331 0.961 . S
H1319 C1331 0.959 . S
H1320 C1334 0.929 . S
H1321 C1335 0.931 . S
H1322 C1337 0.930 . S
C1323 H1311 0.930 . S
C1323 C1324 1.399 . S
C1323 C1328 1.399 1_556 S
C1324 C1323 1.399 . S
C1324 C1325 1.376 . S
C1325 H1312 0.930 . S
C1325 C1324 1.376 . S
C1325 C1326 1.388 1_556 S
C1326 H1313 0.930 . S
C1326 C1325 1.388 1_554 S
C1326 C1327 1.390 . S
C1327 C1326 1.390 . S
C1327 C1328 1.394 . S
C1327 C1333 1.465 . S
C1328 C1323 1.399 1_554 S
C1328 C1327 1.394 . S
C1328 C1329 1.516 . S
C1329 C1328 1.516 . S
C1329 C1330 1.502 . S
C1329 C1331 1.561 . S
C1329 C1332 1.526 . S
C1330 H1314 0.959 . S
C1330 H1315 0.959 . S
C1330 H1316 0.961 . S
C1330 C1329 1.502 . S
C1331 H1317 0.960 . S
C1331 H1318 0.961 . S
C1331 H1319 0.959 . S
C1331 C1329 1.561 . S
C1332 C1329 1.526 . S
C1332 C1333 1.396 . S
C1332 C1337 1.390 . S
C1333 C1327 1.465 . S
C1333 C1332 1.396 . S
C1333 C1334 1.399 . S
C1334 H1320 0.929 . S
C1334 C1333 1.399 . S
C1334 C1335 1.385 . S
C1335 H1321 0.931 . S
C1335 C1334 1.385 . S
C1335 C1336 1.389 . S
C1336 C1335 1.389 . S
C1336 C1337 1.387 . S
C1337 H1322 0.930 . S
C1337 C1332 1.390 . S
C1337 C1336 1.387 . S
H1338 C1350 0.930 . S
H1339 C1352 0.930 . S
H1340 C1353 0.930 . S
H1341 C1357 0.959 . S
H1342 C1357 0.959 . S
H1343 C1357 0.961 . S
H1344 C1358 0.960 . S
H1345 C1358 0.961 . S
H1346 C1358 0.959 . S
H1347 C1361 0.929 . S
H1348 C1362 0.931 . S
H1349 C1364 0.930 . S
C1350 H1338 0.930 . S
C1350 C1351 1.399 . S
C1350 C1355 1.399 . S
C1351 C1350 1.399 . S
C1351 C1352 1.376 . S
C1352 H1339 0.930 . S
C1352 C1351 1.376 . S
C1352 C1353 1.388 . S
C1353 H1340 0.930 . S
C1353 C1352 1.388 . S
C1353 C1354 1.390 . S
C1354 C1353 1.390 . S
C1354 C1355 1.394 . S
C1354 C1360 1.465 . S
C1355 C1350 1.399 . S
C1355 C1354 1.394 . S
C1355 C1356 1.516 . S
C1356 C1355 1.516 . S
C1356 C1357 1.502 . S
C1356 C1358 1.561 . S
C1356 C1359 1.526 . S
C1357 H1341 0.959 . S
C1357 H1342 0.959 . S
C1357 H1343 0.961 . S
C1357 C1356 1.502 . S
C1358 H1344 0.960 . S
C1358 H1345 0.961 . S
C1358 H1346 0.959 . S
C1358 C1356 1.561 . S
C1359 C1356 1.526 . S
C1359 C1360 1.396 . S
C1359 C1364 1.390 . S
C1360 C1354 1.465 . S
C1360 C1359 1.396 . S
C1360 C1361 1.399 . S
C1361 H1347 0.929 . S
C1361 C1360 1.399 . S
C1361 C1362 1.385 . S
C1362 H1348 0.931 . S
C1362 C1361 1.385 . S
C1362 C1363 1.389 . S
C1363 C1362 1.389 . S
C1363 C1364 1.387 . S
C1364 H1349 0.930 . S
C1364 C1359 1.390 . S
C1364 C1363 1.387 . S
H1365 C1377 0.930 . S
H1366 C1379 0.930 . S
H1367 C1380 0.930 . S
H1368 C1384 0.959 . S
H1369 C1384 0.959 . S
H1370 C1384 0.961 . S
H1371 C1385 0.960 . S
H1372 C1385 0.961 . S
H1373 C1385 0.959 . S
H1374 C1388 0.929 . S
H1375 C1389 0.931 . S
H1376 C1391 0.930 . S
C1377 H1365 0.930 . S
C1377 C1378 1.399 . S
C1377 C1382 1.399 1_554 S
C1378 C1377 1.399 . S
C1378 C1379 1.376 . S
C1379 H1366 0.930 . S
C1379 C1378 1.376 . S
C1379 C1380 1.388 1_554 S
C1380 H1367 0.930 . S
C1380 C1379 1.388 1_556 S
C1380 C1381 1.390 . S
C1381 C1380 1.390 . S
C1381 C1382 1.394 . S
C1381 C1387 1.465 . S
C1382 C1377 1.399 1_556 S
C1382 C1381 1.394 . S
C1382 C1383 1.516 . S
C1383 C1382 1.516 . S
C1383 C1384 1.502 . S
C1383 C1385 1.561 . S
C1383 C1386 1.526 . S
C1384 H1368 0.959 . S
C1384 H1369 0.959 . S
C1384 H1370 0.961 . S
C1384 C1383 1.502 . S
C1385 H1371 0.960 . S
C1385 H1372 0.961 . S
C1385 H1373 0.959 . S
C1385 C1383 1.561 . S
C1386 C1383 1.526 . S
C1386 C1387 1.396 . S
C1386 C1391 1.390 . S
C1387 C1381 1.465 . S
C1387 C1386 1.396 . S
C1387 C1388 1.399 . S
C1388 H1374 0.929 . S
C1388 C1387 1.399 . S
C1388 C1389 1.385 . S
C1389 H1375 0.931 . S
C1389 C1388 1.385 . S
C1389 C1390 1.389 . S
C1390 C1389 1.389 . S
C1390 C1391 1.387 . S
C1391 H1376 0.930 . S
C1391 C1386 1.390 . S
C1391 C1390 1.387 . S
H1392 C1404 0.930 . S
H1393 C1406 0.930 . S
H1394 C1407 0.930 . S
H1395 C1411 0.959 . S
H1396 C1411 0.959 . S
H1397 C1411 0.961 . S
H1398 C1412 0.960 . S
H1399 C1412 0.961 . S
H1400 C1412 0.959 . S
H1401 C1415 0.929 . S
H1402 C1416 0.931 . S
H1403 C1418 0.930 . S
C1404 H1392 0.930 . S
C1404 C1405 1.399 . S
C1404 C1409 1.399 . S
C1405 C1404 1.399 . S
C1405 C1406 1.376 . S
C1406 H1393 0.930 . S
C1406 C1405 1.376 . S
C1406 C1407 1.388 . S
C1407 H1394 0.930 . S
C1407 C1406 1.388 . S
C1407 C1408 1.390 . S
C1408 C1407 1.390 . S
C1408 C1409 1.394 . S
C1408 C1414 1.465 . S
C1409 C1404 1.399 . S
C1409 C1408 1.394 . S
C1409 C1410 1.516 . S
C1410 C1409 1.516 . S
C1410 C1411 1.502 . S
C1410 C1412 1.561 . S
C1410 C1413 1.526 . S
C1411 H1395 0.959 . S
C1411 H1396 0.959 . S
C1411 H1397 0.961 . S
C1411 C1410 1.502 . S
C1412 H1398 0.960 . S
C1412 H1399 0.961 . S
C1412 H1400 0.959 . S
C1412 C1410 1.561 . S
C1413 C1410 1.526 . S
C1413 C1414 1.396 . S
C1413 C1418 1.390 . S
C1414 C1408 1.465 . S
C1414 C1413 1.396 . S
C1414 C1415 1.399 . S
C1415 H1401 0.929 . S
C1415 C1414 1.399 . S
C1415 C1416 1.385 . S
C1416 H1402 0.931 . S
C1416 C1415 1.385 . S
C1416 C1417 1.389 . S
C1417 C1416 1.389 . S
C1417 C1418 1.387 . S
C1418 H1403 0.930 . S
C1418 C1413 1.390 . S
C1418 C1417 1.387 . S
H1419 C1431 0.930 . S
H1420 C1433 0.930 . S
H1421 C1434 0.930 . S
H1422 C1438 0.959 . S
H1423 C1438 0.959 . S
H1424 C1438 0.961 . S
H1425 C1439 0.960 . S
H1426 C1439 0.961 . S
H1427 C1439 0.959 . S
H1428 C1442 0.929 . S
H1429 C1443 0.931 . S
H1430 C1445 0.930 . S
C1431 H1419 0.930 . S
C1431 C1432 1.399 . S
C1431 C1436 1.399 . S
C1432 C1431 1.399 . S
C1432 C1433 1.376 . S
C1433 H1420 0.930 . S
C1433 C1432 1.376 . S
C1433 C1434 1.388 . S
C1434 H1421 0.930 . S
C1434 C1433 1.388 . S
C1434 C1435 1.390 . S
C1435 C1434 1.390 . S
C1435 C1436 1.394 . S
C1435 C1441 1.465 . S
C1436 C1431 1.399 . S
C1436 C1435 1.394 . S
C1436 C1437 1.516 . S
C1437 C1436 1.516 . S
C1437 C1438 1.502 . S
C1437 C1439 1.561 . S
C1437 C1440 1.526 . S
C1438 H1422 0.959 . S
C1438 H1423 0.959 . S
C1438 H1424 0.961 . S
C1438 C1437 1.502 . S
C1439 H1425 0.960 . S
C1439 H1426 0.961 . S
C1439 H1427 0.959 . S
C1439 C1437 1.561 . S
C1440 C1437 1.526 . S
C1440 C1441 1.396 . S
C1440 C1445 1.390 1_655 S
C1441 C1435 1.465 . S
C1441 C1440 1.396 . S
C1441 C1442 1.399 . S
C1442 H1428 0.929 . S
C1442 C1441 1.399 . S
C1442 C1443 1.385 1_655 S
C1443 H1429 0.931 . S
C1443 C1442 1.385 1_455 S
C1443 C1444 1.389 . S
C1444 C1443 1.389 . S
C1444 C1445 1.387 . S
C1445 H1430 0.930 . S
C1445 C1440 1.390 1_455 S
C1445 C1444 1.387 . S
H1446 C1458 0.930 . S
H1447 C1460 0.930 . S
H1448 C1461 0.930 . S
H1449 C1465 0.959 . S
H1450 C1465 0.959 . S
H1451 C1465 0.961 . S
H1452 C1466 0.960 . S
H1453 C1466 0.961 . S
H1454 C1466 0.959 . S
H1455 C1469 0.929 . S
H1456 C1470 0.931 . S
H1457 C1472 0.930 . S
C1458 H1446 0.930 . S
C1458 C1459 1.399 . S
C1458 C1463 1.399 . S
C1459 C1458 1.399 . S
C1459 C1460 1.376 . S
C1460 H1447 0.930 . S
C1460 C1459 1.376 . S
C1460 C1461 1.388 . S
C1461 H1448 0.930 . S
C1461 C1460 1.388 . S
C1461 C1462 1.390 . S
C1462 C1461 1.390 . S
C1462 C1463 1.394 . S
C1462 C1468 1.465 . S
C1463 C1458 1.399 . S
C1463 C1462 1.394 . S
C1463 C1464 1.516 . S
C1464 C1463 1.516 . S
C1464 C1465 1.502 . S
C1464 C1466 1.561 . S
C1464 C1467 1.526 . S
C1465 H1449 0.959 . S
C1465 H1450 0.959 . S
C1465 H1451 0.961 . S
C1465 C1464 1.502 . S
C1466 H1452 0.960 . S
C1466 H1453 0.961 . S
C1466 H1454 0.959 . S
C1466 C1464 1.561 . S
C1467 C1464 1.526 . S
C1467 C1468 1.396 . S
C1467 C1472 1.390 1_455 S
C1468 C1462 1.465 . S
C1468 C1467 1.396 . S
C1468 C1469 1.399 . S
C1469 H1455 0.929 . S
C1469 C1468 1.399 . S
C1469 C1470 1.385 1_455 S
C1470 H1456 0.931 . S
C1470 C1469 1.385 1_655 S
C1470 C1471 1.389 . S
C1471 C1470 1.389 . S
C1471 C1472 1.387 . S
C1472 H1457 0.930 . S
C1472 C1467 1.390 1_655 S
C1472 C1471 1.387 . S
H1473 C1485 0.930 . S
H1474 C1487 0.930 . S
H1475 C1488 0.930 . S
H1476 C1492 0.959 . S
H1477 C1492 0.959 . S
H1478 C1492 0.961 . S
H1479 C1493 0.960 . S
H1480 C1493 0.961 . S
H1481 C1493 0.959 . S
H1482 C1496 0.929 . S
H1483 C1497 0.931 . S
H1484 C1499 0.930 . S
C1485 H1473 0.930 . S
C1485 C1486 1.399 . S
C1485 C1490 1.399 . S
C1486 C1485 1.399 . S
C1486 C1487 1.376 . S
C1487 H1474 0.930 . S
C1487 C1486 1.376 . S
C1487 C1488 1.388 . S
C1488 H1475 0.930 . S
C1488 C1487 1.388 . S
C1488 C1489 1.390 . S
C1489 C1488 1.390 . S
C1489 C1490 1.394 . S
C1489 C1495 1.465 . S
C1490 C1485 1.399 . S
C1490 C1489 1.394 . S
C1490 C1491 1.516 . S
C1491 C1490 1.516 . S
C1491 C1492 1.502 . S
C1491 C1493 1.561 . S
C1491 C1494 1.526 . S
C1492 H1476 0.959 . S
C1492 H1477 0.959 . S
C1492 H1478 0.961 . S
C1492 C1491 1.502 . S
C1493 H1479 0.960 . S
C1493 H1480 0.961 . S
C1493 H1481 0.959 . S
C1493 C1491 1.561 . S
C1494 C1491 1.526 . S
C1494 C1495 1.396 . S
C1494 C1499 1.390 . S
C1495 C1489 1.465 . S
C1495 C1494 1.396 . S
C1495 C1496 1.399 . S
C1496 H1482 0.929 . S
C1496 C1495 1.399 . S
C1496 C1497 1.385 . S
C1497 H1483 0.931 . S
C1497 C1496 1.385 . S
C1497 C1498 1.389 . S
C1498 C1497 1.389 . S
C1498 C1499 1.387 . S
C1499 H1484 0.930 . S
C1499 C1494 1.390 . S
C1499 C1498 1.387 . S
H1500 C1512 0.930 . S
H1501 C1514 0.930 . S
H1502 C1515 0.930 . S
H1503 C1519 0.959 . S
H1504 C1519 0.959 . S
H1505 C1519 0.961 . S
H1506 C1520 0.960 . S
H1507 C1520 0.961 . S
H1508 C1520 0.959 . S
H1509 C1523 0.929 . S
H1510 C1524 0.931 . S
H1511 C1526 0.930 . S
C1512 H1500 0.930 . S
C1512 C1513 1.399 . S
C1512 C1517 1.399 . S
C1513 C1512 1.399 . S
C1513 C1514 1.376 . S
C1514 H1501 0.930 . S
C1514 C1513 1.376 . S
C1514 C1515 1.388 . S
C1515 H1502 0.930 . S
C1515 C1514 1.388 . S
C1515 C1516 1.390 . S
C1516 C1515 1.390 . S
C1516 C1517 1.394 . S
C1516 C1522 1.465 . S
C1517 C1512 1.399 . S
C1517 C1516 1.394 . S
C1517 C1518 1.516 . S
C1518 C1517 1.516 . S
C1518 C1519 1.502 . S
C1518 C1520 1.561 . S
C1518 C1521 1.526 . S
C1519 H1503 0.959 . S
C1519 H1504 0.959 . S
C1519 H1505 0.961 . S
C1519 C1518 1.502 . S
C1520 H1506 0.960 . S
C1520 H1507 0.961 . S
C1520 H1508 0.959 . S
C1520 C1518 1.561 . S
C1521 C1518 1.526 . S
C1521 C1522 1.396 . S
C1521 C1526 1.390 . S
C1522 C1516 1.465 . S
C1522 C1521 1.396 . S
C1522 C1523 1.399 . S
C1523 H1509 0.929 . S
C1523 C1522 1.399 . S
C1523 C1524 1.385 . S
C1524 H1510 0.931 . S
C1524 C1523 1.385 . S
C1524 C1525 1.389 . S
C1525 C1524 1.389 . S
C1525 C1526 1.387 . S
C1526 H1511 0.930 . S
C1526 C1521 1.390 . S
C1526 C1525 1.387 . S
H1527 C1539 0.930 . S
H1528 C1541 0.930 . S
H1529 C1542 0.930 . S
H1530 C1546 0.959 . S
H1531 C1546 0.959 . S
H1532 C1546 0.961 . S
H1533 C1547 0.960 . S
H1534 C1547 0.961 . S
H1535 C1547 0.959 . S
H1536 C1550 0.929 . S
H1537 C1551 0.931 . S
H1538 C1553 0.930 . S
C1539 H1527 0.930 . S
C1539 C1540 1.399 . S
C1539 C1544 1.399 . S
C1540 C1539 1.399 . S
C1540 C1541 1.376 . S
C1541 H1528 0.930 . S
C1541 C1540 1.376 . S
C1541 C1542 1.388 . S
C1542 H1529 0.930 . S
C1542 C1541 1.388 . S
C1542 C1543 1.390 . S
C1543 C1542 1.390 . S
C1543 C1544 1.394 . S
C1543 C1549 1.465 . S
C1544 C1539 1.399 . S
C1544 C1543 1.394 . S
C1544 C1545 1.516 . S
C1545 C1544 1.516 . S
C1545 C1546 1.502 . S
C1545 C1547 1.561 . S
C1545 C1548 1.526 . S
C1546 H1530 0.959 . S
C1546 H1531 0.959 . S
C1546 H1532 0.961 . S
C1546 C1545 1.502 . S
C1547 H1533 0.960 . S
C1547 H1534 0.961 . S
C1547 H1535 0.959 . S
C1547 C1545 1.561 . S
C1548 C1545 1.526 . S
C1548 C1549 1.396 . S
C1548 C1553 1.390 1_565 S
C1549 C1543 1.465 . S
C1549 C1548 1.396 . S
C1549 C1550 1.399 . S
C1550 H1536 0.929 . S
C1550 C1549 1.399 . S
C1550 C1551 1.385 1_565 S
C1551 H1537 0.931 . S
C1551 C1550 1.385 1_545 S
C1551 C1552 1.389 . S
C1552 C1551 1.389 . S
C1552 C1553 1.387 . S
C1553 H1538 0.930 . S
C1553 C1548 1.390 1_545 S
C1553 C1552 1.387 . S
H1554 C1566 0.930 . S
H1555 C1568 0.930 . S
H1556 C1569 0.930 . S
H1557 C1573 0.959 . S
H1558 C1573 0.959 . S
H1559 C1573 0.961 . S
H1560 C1574 0.960 . S
H1561 C1574 0.961 . S
H1562 C1574 0.959 . S
H1563 C1577 0.929 . S
H1564 C1578 0.931 . S
H1565 C1580 0.930 . S
C1566 H1554 0.930 . S
C1566 C1567 1.399 . S
C1566 C1571 1.399 1_565 S
C1567 C1566 1.399 . S
C1567 C1568 1.376 . S
C1568 H1555 0.930 . S
C1568 C1567 1.376 . S
C1568 C1569 1.388 1_565 S
C1569 H1556 0.930 . S
C1569 C1568 1.388 1_545 S
C1569 C1570 1.390 . S
C1570 C1569 1.390 . S
C1570 C1571 1.394 . S
C1570 C1576 1.465 . S
C1571 C1566 1.399 1_545 S
C1571 C1570 1.394 . S
C1571 C1572 1.516 . S
C1572 C1571 1.516 . S
C1572 C1573 1.502 . S
C1572 C1574 1.561 . S
C1572 C1575 1.526 . S
C1573 H1557 0.959 . S
C1573 H1558 0.959 . S
C1573 H1559 0.961 . S
C1573 C1572 1.502 . S
C1574 H1560 0.960 . S
C1574 H1561 0.961 . S
C1574 H1562 0.959 . S
C1574 C1572 1.561 . S
C1575 C1572 1.526 . S
C1575 C1576 1.396 . S
C1575 C1580 1.390 . S
C1576 C1570 1.465 . S
C1576 C1575 1.396 . S
C1576 C1577 1.399 . S
C1577 H1563 0.929 . S
C1577 C1576 1.399 . S
C1577 C1578 1.385 . S
C1578 H1564 0.931 . S
C1578 C1577 1.385 . S
C1578 C1579 1.389 . S
C1579 C1578 1.389 . S
C1579 C1580 1.387 . S
C1580 H1565 0.930 . S
C1580 C1575 1.390 . S
C1580 C1579 1.387 . S
H1581 C1593 0.930 . S
H1582 C1595 0.930 . S
H1583 C1596 0.930 . S
H1584 C1600 0.959 . S
H1585 C1600 0.959 . S
H1586 C1600 0.961 . S
H1587 C1601 0.960 . S
H1588 C1601 0.961 . S
H1589 C1601 0.959 . S
H1590 C1604 0.929 . S
H1591 C1605 0.931 . S
H1592 C1607 0.930 . S
C1593 H1581 0.930 . S
C1593 C1594 1.399 . S
C1593 C1598 1.399 . S
C1594 C1593 1.399 . S
C1594 C1595 1.376 . S
C1595 H1582 0.930 . S
C1595 C1594 1.376 . S
C1595 C1596 1.388 . S
C1596 H1583 0.930 . S
C1596 C1595 1.388 . S
C1596 C1597 1.390 . S
C1597 C1596 1.390 . S
C1597 C1598 1.394 . S
C1597 C1603 1.465 . S
C1598 C1593 1.399 . S
C1598 C1597 1.394 . S
C1598 C1599 1.516 . S
C1599 C1598 1.516 . S
C1599 C1600 1.502 . S
C1599 C1601 1.561 . S
C1599 C1602 1.526 . S
C1600 H1584 0.959 . S
C1600 H1585 0.959 . S
C1600 H1586 0.961 . S
C1600 C1599 1.502 . S
C1601 H1587 0.960 . S
C1601 H1588 0.961 . S
C1601 H1589 0.959 . S
C1601 C1599 1.561 . S
C1602 C1599 1.526 . S
C1602 C1603 1.396 . S
C1602 C1607 1.390 . S
C1603 C1597 1.465 . S
C1603 C1602 1.396 . S
C1603 C1604 1.399 . S
C1604 H1590 0.929 . S
C1604 C1603 1.399 . S
C1604 C1605 1.385 . S
C1605 H1591 0.931 . S
C1605 C1604 1.385 . S
C1605 C1606 1.389 . S
C1606 C1605 1.389 . S
C1606 C1607 1.387 . S
C1607 H1592 0.930 . S
C1607 C1602 1.390 . S
C1607 C1606 1.387 . S
C325 C107 1.126 . S
C337 C5 1.156 . S
C352 C16 1.163 . S
C364 C146 1.123 . S
C379 C31 1.175 . S
C391 C120 1.180 . S
C406 C44 1.157 . S
C418 C135 1.134 . S
C433 C55 1.163 . S
C445 C3 1.123 . S
C460 C18 1.128 . S
C472 C68 1.156 . S
C487 C83 1.171 . S
C499 C29 1.173 . S
C514 C42 1.118 . S
C526 C96 1.159 . S
C541 C57 1.119 . S
C553 C109 1.157 . S
C568 C81 1.187 . S
C580 C122 1.179 . S
C595 C133 1.164 . S
C607 C94 1.125 . S
C622 C70 1.190 . S
C634 C148 1.185 . S
C649 C263 1.135 . S
C661 C161 1.162 . S
C676 C172 1.178 . S
C688 C304 1.167 . S
C703 C187 1.186 . S
C715 C276 1.189 . S
C730 C289 1.120 . S
C742 C200 1.157 . S
C757 C211 1.181 . S
C769 C159 1.180 . S
C784 C174 1.184 . S
C796 C224 1.183 . S
C811 C185 1.121 . S
C823 C239 1.158 . S
C838 C252 1.184 . S
C850 C198 1.187 . S
C865 C265 1.156 . S
C877 C213 1.120 . S
C892 C237 1.180 . S
C904 C278 1.183 . S
C919 C250 1.121 . S
C931 C291 1.158 . S
C946 C302 1.156 . S
C958 C226 1.119 . S
C973 C296 1.471 . S
C985 C4 1.483 . S
C1000 C283 1.471 . S
C1012 C23 1.483 . S
C1027 C303 1.476 . S
C1039 C30 1.472 . S
C1054 C43 1.474 . S
C1066 C270 1.474 . S
C1081 C62 1.482 . S
C1093 C173 1.477 . S
C1108 C166 1.472 . S
C1120 C75 1.476 . S
C1135 C205 1.474 . S
C1147 C82 1.483 . S
C1162 C192 1.470 . S
C1174 C95 1.482 . S
C1189 C108 1.470 . S
C1201 C244 1.481 . S
C1216 C212 1.472 . S
C1228 C121 1.476 . S
C1243 C225 1.482 . S
C1255 C140 1.477 . S
C1270 C257 1.481 . S
C1282 C147 1.478 . S
C1297 C134 1.481 . S
C1309 C160 1.482 . S
C1324 C127 1.473 . S
C1336 C179 1.472 . S
C1351 C186 1.471 . S
C1363 C153 1.481 . S
C1378 C114 1.481 . S
C1390 C199 1.481 . S
C1405 C218 1.470 . S
C1417 C17 1.477 . S
C1432 C231 1.481 . S
C1444 C10 1.472 . S
C1459 C238 1.482 . S
C1471 C49 1.473 . S
C1486 C251 1.482 . S
C1498 C36 1.473 . S
C1513 C264 1.475 . S
C1525 C88 1.471 . S
C1540 C277 1.479 . S
C1552 C56 1.483 . S
C1567 C69 1.472 . S
C1579 C290 1.482 . S
C1594 C309 1.474 . S
C1606 C101 1.471 . S
