# Generated by pormake.
# Topology snz, (6)-cn, num edge types: 1
# Building blocks:
#     Node 0, Type 0, BuildingBlock: BETDIP_clean_sbu_0, # of connection points: 6
#     Node 1, Type 0, BuildingBlock: BETDIP_clean_sbu_0, # of connection points: 6
#     Node 2, Type 0, BuildingBlock: BETDIP_clean_sbu_0, # of connection points: 6
#     Node 3, Type 0, BuildingBlock: BETDIP_clean_sbu_0, # of connection points: 6
#     Node 4, Type 0, BuildingBlock: BETDIP_clean_sbu_0, # of connection points: 6
#     Node 5, Type 0, BuildingBlock: BETDIP_clean_sbu_0, # of connection points: 6
#     Node 6, Type 0, BuildingBlock: BETDIP_clean_sbu_0, # of connection points: 6
#     Node 7, Type 0, BuildingBlock: BETDIP_clean_sbu_0, # of connection points: 6
#     Node 8, Type 0, BuildingBlock: BETDIP_clean_sbu_0, # of connection points: 6
#     Edge 9, Type (0, 0), BuildingBlock: KIFKEQ_clean_linker_1, # of connection points: 2
#     Edge 10, Type (0, 0), BuildingBlock: KIFKEQ_clean_linker_1, # of connection points: 2
#     Edge 11, Type (0, 0), BuildingBlock: KIFKEQ_clean_linker_1, # of connection points: 2
#     Edge 12, Type (0, 0), BuildingBlock: KIFKEQ_clean_linker_1, # of connection points: 2
#     Edge 13, Type (0, 0), BuildingBlock: KIFKEQ_clean_linker_1, # of connection points: 2
#     Edge 14, Type (0, 0), BuildingBlock: KIFKEQ_clean_linker_1, # of connection points: 2
#     Edge 15, Type (0, 0), BuildingBlock: KIFKEQ_clean_linker_1, # of connection points: 2
#     Edge 16, Type (0, 0), BuildingBlock: KIFKEQ_clean_linker_1, # of connection points: 2
#     Edge 17, Type (0, 0), BuildingBlock: KIFKEQ_clean_linker_1, # of connection points: 2
#     Edge 18, Type (0, 0), BuildingBlock: KIFKEQ_clean_linker_1, # of connection points: 2
#     Edge 19, Type (0, 0), BuildingBlock: KIFKEQ_clean_linker_1, # of connection points: 2
#     Edge 20, Type (0, 0), BuildingBlock: KIFKEQ_clean_linker_1, # of connection points: 2
#     Edge 21, Type (0, 0), BuildingBlock: KIFKEQ_clean_linker_1, # of connection points: 2
#     Edge 22, Type (0, 0), BuildingBlock: KIFKEQ_clean_linker_1, # of connection points: 2
#     Edge 23, Type (0, 0), BuildingBlock: KIFKEQ_clean_linker_1, # of connection points: 2
#     Edge 24, Type (0, 0), BuildingBlock: KIFKEQ_clean_linker_1, # of connection points: 2
#     Edge 25, Type (0, 0), BuildingBlock: KIFKEQ_clean_linker_1, # of connection points: 2
#     Edge 26, Type (0, 0), BuildingBlock: KIFKEQ_clean_linker_1, # of connection points: 2
#     Edge 27, Type (0, 0), BuildingBlock: KIFKEQ_clean_linker_1, # of connection points: 2
#     Edge 28, Type (0, 0), BuildingBlock: KIFKEQ_clean_linker_1, # of connection points: 2
#     Edge 29, Type (0, 0), BuildingBlock: KIFKEQ_clean_linker_1, # of connection points: 2
#     Edge 30, Type (0, 0), BuildingBlock: KIFKEQ_clean_linker_1, # of connection points: 2
#     Edge 31, Type (0, 0), BuildingBlock: KIFKEQ_clean_linker_1, # of connection points: 2
#     Edge 32, Type (0, 0), BuildingBlock: KIFKEQ_clean_linker_1, # of connection points: 2
#     Edge 33, Type (0, 0), BuildingBlock: KIFKEQ_clean_linker_1, # of connection points: 2
#     Edge 34, Type (0, 0), BuildingBlock: KIFKEQ_clean_linker_1, # of connection points: 2
#     Edge 35, Type (0, 0), BuildingBlock: KIFKEQ_clean_linker_1, # of connection points: 2
# Relax obj value: 0.163
# Max RMSD: 0.232
# Mean RMSD: 0.207
data_MOF--net-snz--node1-BETDIP_clean_sbu_0--edge1-KIFKEQ_clean_linker_1
_symmetry_space_group_name_H-M    P1
_symmetry_Int_Tables_number       1
_symmetry_cell_setting            triclinic
loop_
_symmetry_equiv_pos_as_xyz
'x, y, z'
_cell_length_a     67.475877
_cell_length_b     67.476725
_cell_length_c     14.733863
_cell_angle_alpha  89.930296
_cell_angle_beta   90.030794
_cell_angle_gamma 119.97133
loop_
_atom_site_label
_atom_site_type_symbol
_atom_site_fract_x
_atom_site_fract_y
_atom_site_fract_z
_atom_type_partial_charge
Tb0 Tb 0.2284 0.50293 0.00933 0.0
Tb1 Tb 0.18512 0.50383 0.98991 0.0
C2 C 0.2608 0.49675 0.0571 0.0
C3 C 0.28027 0.49318 0.08249 0.0
C4 C 0.28375 0.48882 0.17283 0.0
C5 C 0.30241 0.48594 0.1961 0.0
C6 C 0.3179 0.487 0.12941 0.0
C7 C 0.3143 0.49132 0.03908 0.0
C8 C 0.29588 0.49451 0.01612 0.0
C9 C 0.21941 0.51045 0.84158 0.0
C10 C 0.18007 0.45592 0.96789 0.0
C11 C 0.15424 0.51237 0.94356 0.0
C12 C 0.1505 0.53221 0.94041 0.0
C13 C 0.15795 0.54727 0.8659 0.0
C14 C 0.15257 0.56474 0.85986 0.0
C15 C 0.13953 0.56747 0.92794 0.0
C16 C 0.13261 0.55277 0.00352 0.0
C17 C 0.13793 0.53529 0.00945 0.0
C18 C 0.19409 0.49618 0.15795 0.0
C19 C 0.23062 0.55068 0.02426 0.0
O20 O 0.24226 0.48976 0.10615 0.0
O21 O 0.26078 0.50695 0.98164 0.0
O22 O 0.20538 0.49677 0.89879 0.0
O23 O 0.23967 0.51996 0.87703 0.0
O24 O 0.20202 0.46542 0.99375 0.0
O25 O 0.1706 0.46858 0.95301 0.0
O26 O 0.1692 0.51236 0.88702 0.0
O27 O 0.15546 0.50481 0.02394 0.0
O28 O 0.20828 0.50993 0.10112 0.0
O29 O 0.1739 0.48703 0.12204 0.0
O30 O 0.21029 0.54022 0.98566 0.0
O31 O 0.24025 0.5387 0.05245 0.0
H32 H 0.27212 0.48778 0.22571 0.0
H33 H 0.30447 0.48245 0.26617 0.0
H34 H 0.32591 0.49246 0.98594 0.0
H35 H 0.29379 0.4979 0.94592 0.0
H36 H 0.16747 0.54525 0.81101 0.0
H37 H 0.15793 0.57556 0.80016 0.0
H38 H 0.12281 0.55459 0.05778 0.0
H39 H 0.1318 0.52389 0.06744 0.0
Tb40 Tb 0.79939 0.70794 0.01908 0.0
Tb41 Tb 0.80158 0.66515 0.00203 0.0
C42 C 0.80418 0.74604 0.06657 0.0
C43 C 0.80688 0.76876 0.09183 0.0
C44 C 0.81221 0.77719 0.18118 0.0
C45 C 0.8148 0.79865 0.20387 0.0
C46 C 0.81243 0.81244 0.13758 0.0
C47 C 0.80703 0.80388 0.04835 0.0
C48 C 0.80418 0.78237 0.02599 0.0
C49 C 0.79211 0.69111 0.85229 0.0
C50 C 0.84784 0.70959 0.97534 0.0
C51 C 0.79644 0.62692 0.95638 0.0
C52 C 0.7791 0.60244 0.95823 0.0
C53 C 0.75584 0.59469 0.94207 0.0
C54 C 0.74006 0.5712 0.93881 0.0
C55 C 0.74736 0.55514 0.95077 0.0
C56 C 0.77059 0.56305 0.96891 0.0
C57 C 0.78627 0.58646 0.97266 0.0
C58 C 0.80854 0.6825 0.16878 0.0
C59 C 0.75313 0.66052 0.04044 0.0
O60 O 0.81125 0.73471 0.11673 0.0
O61 O 0.79447 0.73575 0.99065 0.0
O62 O 0.80638 0.69152 0.90884 0.0
O63 O 0.78216 0.70143 0.88786 0.0
O64 O 0.83732 0.72102 0.00183 0.0
O65 O 0.83619 0.68743 0.96089 0.0
O66 O 0.7926 0.64003 0.90222 0.0
O67 O 0.80484 0.63659 0.03464 0.0
O68 O 0.79424 0.68153 0.11151 0.0
O69 O 0.81899 0.67259 0.13409 0.0
O70 O 0.76471 0.6513 0.00611 0.0
O71 O 0.7637 0.68276 0.06073 0.0
H72 H 0.81439 0.76719 0.23368 0.0
H73 H 0.81915 0.80468 0.27308 0.0
H74 H 0.80483 0.8138 0.99553 0.0
H75 H 0.80004 0.77647 0.95653 0.0
H76 H 0.74994 0.60672 0.93005 0.0
H77 H 0.72232 0.56564 0.92401 0.0
H78 H 0.77668 0.55111 0.97966 0.0
H79 H 0.80414 0.59212 0.98532 0.0
Tb80 Tb 0.5939 0.07469 0.01171 0.0
Tb81 Tb 0.63795 0.11825 0.99383 0.0
C82 C 0.55541 0.04218 0.05974 0.0
C83 C 0.53244 1.02259 0.085 0.0
C84 C 0.52413 1.01957 0.17452 0.0
C85 C 0.50266 1.00077 0.19766 0.0
C86 C 0.48877 0.98466 0.13163 0.0
C87 C 0.49717 0.98781 0.04213 0.0
C88 C 0.51869 1.00638 0.01933 0.0
C89 C 0.6108 0.08325 0.84443 0.0
C90 C 0.59471 0.12235 0.96191 0.0
C91 C 0.67764 0.14979 0.95412 0.0
C92 C 0.70113 0.15352 0.95196 0.0
C93 C 0.70611 0.13746 0.91328 0.0
C94 C 0.72875 0.14211 0.90764 0.0
C95 C 0.74681 0.16286 0.94081 0.0
C96 C 0.74165 0.17863 0.98122 0.0
C97 C 0.71906 0.174 0.98657 0.0
C98 C 0.62034 0.10854 0.16052 0.0
C99 C 0.63953 0.07281 0.02753 0.0
O100 O 0.56674 0.06088 0.10804 0.0
O101 O 0.56581 0.0421 0.98502 0.0
O102 O 0.61126 0.09753 0.90067 0.0
O103 O 0.59946 0.06308 0.88047 0.0
O104 O 0.58255 0.10087 0.99329 0.0
O105 O 0.6169 0.13189 0.9482 0.0
O106 O 0.66312 0.13546 0.89487 0.0
O107 O 0.66843 0.14746 0.03423 0.0
O108 O 0.6208 0.09487 0.10378 0.0
O109 O 0.63049 0.12879 0.12471 0.0
O110 O 0.6493 0.09311 0.98851 0.0
O111 O 0.61795 0.06313 0.05597 0.0
H112 H 0.53428 0.03166 0.22689 0.0
H113 H 0.49674 0.99909 0.26707 0.0
H114 H 0.48716 0.97572 0.98951 0.0
H115 H 0.52452 1.00809 0.94978 0.0
H116 H 0.69257 0.12149 0.88617 0.0
H117 H 0.73214 0.12953 0.87693 0.0
H118 H 0.75515 0.1949 0.00627 0.0
H119 H 0.71561 0.18665 0.01635 0.0
Tb120 Tb 0.89783 1.02232 0.35277 0.0
Tb121 Tb 0.85361 1.02175 0.3373 0.0
C122 C 0.93 1.01545 0.39583 0.0
C123 C 0.93625 0.99749 0.38898 0.0
C124 C 0.91999 0.97423 0.40014 0.0
C125 C 0.9269 0.95783 0.4026 0.0
C126 C 0.95017 0.96441 0.39369 0.0
C127 C 0.96621 0.98762 0.37887 0.0
C128 C 0.9593 1.00398 0.37668 0.0
C129 C 0.88795 0.03045 0.18682 0.0
C130 C 0.85329 0.97481 0.31081 0.0
C131 C 0.8211 1.02772 0.28904 0.0
C132 C 0.80152 0.03099 0.26204 0.0
C133 C 0.80253 0.04323 0.18319 0.0
C134 C 0.78394 0.04597 0.15754 0.0
C135 C 0.76375 0.03657 0.21001 0.0
C136 C 0.76287 1.02441 0.28921 0.0
C137 C 0.78143 1.02165 0.3147 0.0
C138 C 0.86257 1.01305 0.50346 0.0
C139 C 0.90058 0.06891 0.39104 0.0
O140 O 0.91288 1.01127 0.44953 0.0
O141 O 0.92958 1.0254 0.32019 0.0
O142 O 0.87432 1.01622 0.24351 0.0
O143 O 0.90827 0.04032 0.22192 0.0
O144 O 0.87417 0.9856 0.34478 0.0
O145 O 0.84228 0.98614 0.29219 0.0
O146 O 0.84048 0.03641 0.24436 0.0
O147 O 0.82029 1.01584 0.36059 0.0
O148 O 0.87659 1.02719 0.44725 0.0
O149 O 0.84232 1.00424 0.46819 0.0
O150 O 0.87905 0.05938 0.35997 0.0
O151 O 0.91044 0.05646 0.40209 0.0
H152 H 0.90206 0.96878 0.40931 0.0
H153 H 0.9141 0.94005 0.41299 0.0
H154 H 0.98427 0.99332 0.37285 0.0
H155 H 0.9721 1.02185 0.36815 0.0
H156 H 0.81771 0.05072 0.14103 0.0
H157 H 0.78556 0.05575 0.0969 0.0
H158 H 0.74765 1.01664 0.33104 0.0
H159 H 0.77997 1.01205 0.37576 0.0
Tb160 Tb 0.27943 0.85857 0.35268 0.0
Tb161 Tb 0.28073 0.8152 0.33603 0.0
C162 C 0.28621 0.89746 0.39774 0.0
C163 C 0.30388 0.92174 0.38844 0.0
C164 C 0.32731 0.92879 0.38754 0.0
C165 C 0.34371 0.95211 0.38578 0.0
C166 C 0.33698 0.96879 0.38517 0.0
C167 C 0.31347 0.96154 0.38369 0.0
C168 C 0.29712 0.93826 0.38526 0.0
C169 C 0.27156 0.84085 0.18625 0.0
C170 C 0.32721 0.86208 0.30854 0.0
C171 C 0.27519 0.77694 0.28707 0.0
C172 C 0.27218 0.75424 0.25956 0.0
C173 C 0.25937 0.7427 0.18226 0.0
C174 C 0.25678 0.72147 0.15631 0.0
C175 C 0.26692 0.71106 0.20687 0.0
C176 C 0.27967 0.72266 0.28446 0.0
C177 C 0.28227 0.74388 0.31029 0.0
C178 C 0.28914 0.83265 0.5026 0.0
C179 C 0.23326 0.81421 0.39076 0.0
O180 O 0.29135 0.8848 0.44899 0.0
O181 O 0.27537 0.88687 0.32381 0.0
O182 O 0.2858 0.84149 0.24302 0.0
O183 O 0.26163 0.85125 0.22137 0.0
O184 O 0.31621 0.87196 0.34249 0.0
O185 O 0.31616 0.83975 0.29037 0.0
O186 O 0.26614 0.78744 0.24325 0.0
O187 O 0.2872 0.78809 0.35815 0.0
O188 O 0.27497 0.83242 0.44626 0.0
O189 O 0.29811 0.82136 0.46732 0.0
O190 O 0.24305 0.80257 0.35858 0.0
O191 O 0.24541 0.83648 0.4033 0.0
H192 H 0.33296 0.91635 0.3901 0.0
H193 H 0.36165 0.95706 0.38582 0.0
H194 H 0.30763 0.97385 0.38457 0.0
H195 H 0.27914 0.93317 0.38634 0.0
H196 H 0.2513 0.75008 0.14162 0.0
H197 H 0.24654 0.71307 0.09699 0.0
H198 H 0.28802 0.71552 0.32477 0.0
H199 H 0.29232 0.75225 0.37009 0.0
Tb200 Tb 0.44225 0.40112 0.34886 0.0
Tb201 Tb 0.48564 0.44561 0.32865 0.0
C202 C 0.40418 0.36919 0.40253 0.0
C203 C 0.37964 0.36185 0.40048 0.0
C204 C 0.37172 0.37753 0.40532 0.0
C205 C 0.3482 0.36969 0.41026 0.0
C206 C 0.33228 0.34607 0.41089 0.0
C207 C 0.34036 0.33056 0.40305 0.0
C208 C 0.36378 0.33838 0.39799 0.0
C209 C 0.45845 0.41026 0.18039 0.0
C210 C 0.43871 0.44547 0.30652 0.0
C211 C 0.52377 0.4787 0.2802 0.0
C212 C 0.54646 0.4985 0.25298 0.0
C213 C 0.55486 0.50042 0.16418 0.0
C214 C 0.57613 0.5191 0.13872 0.0
C215 C 0.58982 0.53643 0.20143 0.0
C216 C 0.58124 0.53445 0.29029 0.0
C217 C 0.5599 0.51585 0.3155 0.0
C218 C 0.46907 0.43593 0.49637 0.0
C219 C 0.48642 0.39828 0.36879 0.0
O220 O 0.41746 0.38728 0.45125 0.0
O221 O 0.41355 0.36877 0.32543 0.0
O222 O 0.45882 0.42439 0.23733 0.0
O223 O 0.4474 0.39001 0.21598 0.0
O224 O 0.42889 0.42455 0.34027 0.0
O225 O 0.46099 0.45674 0.28715 0.0
O226 O 0.51224 0.46027 0.23071 0.0
O227 O 0.51379 0.47824 0.35684 0.0
O228 O 0.46945 0.42232 0.43895 0.0
O229 O 0.47926 0.45625 0.46117 0.0
O230 O 0.49805 0.42018 0.34179 0.0
O231 O 0.4644 0.38819 0.38647 0.0
H232 H 0.38368 0.39575 0.40737 0.0
H233 H 0.34254 0.38208 0.41667 0.0
H234 H 0.32856 0.31229 0.40165 0.0
H235 H 0.36955 0.32603 0.39386 0.0
H236 H 0.54492 0.48753 0.11393 0.0
H237 H 0.58169 0.51999 0.06921 0.0
H238 H 0.59119 0.54706 0.3414 0.0
H239 H 0.55402 0.51496 0.38458 0.0
Tb240 Tb 0.56274 0.28447 0.69021 0.0
Tb241 Tb 0.51595 0.23789 0.66287 0.0
C242 C 0.59215 0.3263 0.68463 0.0
C243 C 0.60828 0.34593 0.7406 0.0
C244 C 0.60055 0.35466 0.81022 0.0
C245 C 0.61553 0.37563 0.85095 0.0
C246 C 0.63851 0.38822 0.82317 0.0
C247 C 0.64644 0.37887 0.75693 0.0
C248 C 0.63145 0.35799 0.71586 0.0
C249 C 0.5651 0.2479 0.7483 0.0
C250 C 0.52844 0.26541 0.85102 0.0
C251 C 0.48353 0.19743 0.67464 0.0
C252 C 0.46834 0.17749 0.61838 0.0
C253 C 0.47662 0.17113 0.54287 0.0
C254 C 0.46279 0.15017 0.49959 0.0
C255 C 0.44043 0.1353 0.53069 0.0
C256 C 0.4319 0.1423 0.60352 0.0
C257 C 0.44575 0.16316 0.647 0.0
C258 C 0.51821 0.27502 0.59001 0.0
C259 C 0.54971 0.25721 0.50446 0.0
O260 O 0.57027 0.31838 0.69781 0.0
O261 O 0.59699 0.31005 0.66887 0.0
O262 O 0.54909 0.24916 0.71055 0.0
O263 O 0.58175 0.26892 0.75422 0.0
O264 O 0.54746 0.28281 0.81867 0.0
O265 O 0.51485 0.24659 0.80451 0.0
O266 O 0.5052 0.20323 0.67576 0.0
O267 O 0.48045 0.21517 0.67267 0.0
O268 O 0.52748 0.27382 0.66296 0.0
O269 O 0.50559 0.25436 0.55891 0.0
O270 O 0.53473 0.23795 0.54449 0.0
O271 O 0.56097 0.27694 0.54764 0.0
H272 H 0.58277 0.34577 0.83086 0.0
H273 H 0.609 0.38229 0.90257 0.0
H274 H 0.66398 0.38825 0.73331 0.0
H275 H 0.63776 0.35177 0.66168 0.0
H276 H 0.494 0.18196 0.5193 0.0
H277 H 0.46975 0.14539 0.44294 0.0
H278 H 0.41486 0.13117 0.62983 0.0
H279 H 0.4391 0.16767 0.7055 0.0
Tb280 Tb 1.0193 0.26829 0.67582 0.0
Tb281 Tb 0.06145 0.26108 0.66843 0.0
C282 C 0.98203 0.26785 0.6934 0.0
C283 C 0.95893 0.25449 0.73169 0.0
C284 C 0.94991 0.23173 0.76024 0.0
C285 C 0.92747 0.21947 0.79381 0.0
C286 C 0.91388 0.22989 0.79968 0.0
C287 C 0.92321 0.25273 0.77119 0.0
C288 C 0.94548 0.26487 0.73766 0.0
C289 C 0.06036 0.30493 0.70453 0.0
C290 C 1.02963 0.24416 0.83787 0.0
C291 C 0.10286 0.27224 0.67765 0.0
C292 C 0.12252 0.27498 0.62365 0.0
C293 C 0.13057 0.28968 0.54802 0.0
C294 C 0.15168 0.29551 0.50878 0.0
C295 C 0.16507 0.28668 0.54396 0.0
C296 C 0.15636 0.27099 0.61632 0.0
C297 C 0.13534 0.26529 0.65595 0.0
C298 C 1.02402 0.22392 0.60638 0.0
C299 C 0.04321 0.27202 0.49032 0.0
O300 O 0.98692 0.25898 0.62381 0.0
O301 O 0.99895 0.2777 0.75129 0.0
O302 O 0.05335 0.28475 0.73113 0.0
O303 O 0.04369 0.30512 0.66178 0.0
O304 O 1.0138 0.24622 0.7924 0.0
O305 O 0.05045 0.25146 0.80608 0.0
O306 O 0.0956 0.28665 0.66058 0.0
O307 O 0.08615 0.25142 0.69513 0.0
O308 O 1.02608 0.24224 0.63759 0.0
O309 O 0.04438 0.22628 0.60927 0.0
O310 O 0.06129 0.27406 0.53387 0.0
O311 O 1.02427 0.26833 0.53135 0.0
H312 H 0.96013 0.22347 0.75614 0.0
H313 H 0.92082 0.20195 0.81569 0.0
H314 H 0.91312 0.26116 0.77305 0.0
H315 H 0.95215 0.28239 0.7154 0.0
H316 H 0.12106 0.29742 0.52143 0.0
H317 H 0.1578 0.3074 0.45234 0.0
H318 H 0.16633 0.26405 0.64557 0.0
H319 H 0.12963 0.25413 0.71472 0.0
Tb320 Tb 1.03453 0.73616 0.67941 0.0
Tb321 Tb 1.04225 0.78549 0.67152 0.0
C322 C 1.03496 0.69945 0.7017 0.0
C323 C 0.04927 0.69071 0.7401 0.0
C324 C 0.07302 0.70176 0.72562 0.0
C325 C 0.08568 0.6918 0.75656 0.0
C326 C 0.07483 0.67075 0.80302 0.0
C327 C 0.05118 0.66017 0.81956 0.0
C328 C 1.03856 0.67004 0.78827 0.0
C329 C 0.99808 0.74094 0.70826 0.0
C330 C 0.05893 0.77049 0.84064 0.0
C331 C 1.0314 0.81594 0.68006 0.0
C332 C 1.02915 0.83329 0.62712 0.0
C333 C 1.01505 0.82729 0.54991 0.0
C334 C 1.00909 0.8427 0.51284 0.0
C335 C 1.01712 0.86436 0.55223 0.0
C336 C 1.03254 0.87086 0.62534 0.0
C337 C 1.0384 0.85543 0.66259 0.0
C338 C 0.07959 0.78529 0.61166 0.0
C339 C 1.03148 0.75638 0.49329 0.0
O340 O 1.04244 0.71203 0.62815 0.0
O341 O 1.0257 0.70717 0.75955 0.0
O342 O 1.01829 0.75393 0.73473 0.0
O343 O 0.99772 0.724 0.6656 0.0
O344 O 0.05715 0.75288 0.79426 0.0
O345 O 0.0513 0.78379 0.80964 0.0
O346 O 1.01698 0.79443 0.66086 0.0
O347 O 0.05204 0.8198 0.69942 0.0
O348 O 0.06104 0.76882 0.6406 0.0
O349 O 0.07738 0.80336 0.616 0.0
O350 O 1.02966 0.77259 0.53641 0.0
O351 O 1.03483 0.74095 0.53482 0.0
H352 H 0.0817 0.71782 0.68909 0.0
H353 H 0.10391 0.70047 0.74358 0.0
H354 H 1.04223 0.64381 0.85395 0.0
H355 H 1.02025 0.66121 0.79982 0.0
H356 H 1.00763 0.8103 0.52102 0.0
H357 H 0.99711 0.8371 0.45679 0.0
H358 H 1.03941 0.88759 0.65607 0.0
H359 H 0.04927 0.86043 0.72217 0.0
H360 H 0.24682 0.53985 0.70961 0.0
H361 H 0.18257 0.47756 0.74872 0.0
H362 H 0.24079 0.5366 0.54571 0.0
H363 H 0.17701 0.47333 0.58527 0.0
H364 H 0.16198 0.4807 0.29192 0.0
H365 H 0.16778 0.4851 0.45486 0.0
H366 H 0.24097 0.51831 0.41384 0.0
H367 H 0.23493 0.51511 0.24975 0.0
C368 C 0.23141 0.5254 0.68293 0.0
C369 C 0.21514 0.50904 0.74214 0.0
C370 C 0.22802 0.52334 0.58858 0.0
C371 C 0.20841 0.50459 0.55057 0.0
C372 C 0.19213 0.48828 0.61069 0.0
C373 C 0.19534 0.49061 0.70498 0.0
C374 C 0.17932 0.48889 0.31772 0.0
C375 C 0.19799 0.49753 0.25773 0.0
C376 C 0.18271 0.49131 0.41181 0.0
C377 C 0.20491 0.50205 0.44926 0.0
C378 C 0.22361 0.51034 0.38866 0.0
C379 C 0.22019 0.50828 0.29422 0.0
H380 H 0.81376 0.67192 0.76035 0.0
H381 H 0.77435 0.70547 0.71831 0.0
H382 H 0.8174 0.66961 0.59635 0.0
H383 H 0.77917 0.70469 0.55539 0.0
H384 H 0.77386 0.68338 0.26109 0.0
H385 H 0.76908 0.68401 0.42444 0.0
H386 H 0.83493 0.68895 0.46502 0.0
H387 H 0.83879 0.68682 0.30118 0.0
C388 C 0.80589 0.67882 0.71595 0.0
C389 C 0.79363 0.68871 0.75249 0.0
C390 C 0.80821 0.67779 0.62153 0.0
C391 C 0.79869 0.68704 0.56095 0.0
C392 C 0.7864 0.6969 0.59841 0.0
C393 C 0.78373 0.69752 0.6925 0.0
C394 C 0.78735 0.68471 0.30502 0.0
C395 C 0.80671 0.68506 0.26816 0.0
C396 C 0.78471 0.6852 0.39927 0.0
C397 C 0.80158 0.68652 0.45967 0.0
C398 C 0.82123 0.6874 0.42195 0.0
C399 C 0.82364 0.68647 0.32763 0.0
H400 H 0.5954 0.05111 0.71045 0.0
H401 H 0.63138 0.12409 0.75238 0.0
H402 H 0.59646 0.05689 0.54746 0.0
H403 H 0.63392 0.13016 0.58844 0.0
H404 H 0.61734 0.13531 0.29294 0.0
H405 H 0.615 0.12925 0.45689 0.0
H406 H 0.61725 0.0669 0.4166 0.0
H407 H 0.6181 0.0724 0.25331 0.0
C408 C 0.60394 0.06846 0.68461 0.0
C409 C 0.61336 0.08713 0.74459 0.0
C410 C 0.60471 0.07185 0.5905 0.0
C411 C 0.61533 0.09406 0.55301 0.0
C412 C 0.62517 0.11276 0.6136 0.0
C413 C 0.62401 0.10934 0.70801 0.0
C414 C 0.61706 0.12019 0.31948 0.0
C415 C 0.61777 0.10429 0.26008 0.0
C416 C 0.616 0.1168 0.41386 0.0
C417 C 0.61603 0.09757 0.4517 0.0
C418 C 0.6167 0.08168 0.39138 0.0
C419 C 0.61732 0.08488 0.29713 0.0
H420 H 0.90348 0.03342 0.59502 0.0
H421 H 0.83051 0.99653 0.63778 0.0
H422 H 0.90959 0.03737 0.75895 0.0
H423 H 0.83633 1.00168 0.80049 0.0
H424 H 0.85182 0.99639 0.09517 0.0
H425 H 0.84636 0.99128 0.93211 0.0
H426 H 0.90867 0.05575 0.88938 0.0
H427 H 0.9147 0.05992 0.0533 0.0
C428 C 0.88874 1.02615 0.63957 0.0
C429 C 0.86652 1.01451 0.60325 0.0
C430 C 0.89219 0.02866 0.73392 0.0
C431 C 0.8735 1.01996 0.79463 0.0
C432 C 0.85128 1.00826 0.75739 0.0
C433 C 0.84787 1.0054 0.66341 0.0
C434 C 0.86429 1.00953 0.05089 0.0
C435 C 0.88368 0.02859 0.08728 0.0
C436 C 0.86112 1.00668 0.95674 0.0
C437 C 0.87702 1.02307 0.89582 0.0
C438 C 0.89622 0.04242 0.93295 0.0
C439 C 0.89959 0.04503 0.02727 0.0
H440 H 0.30579 0.81731 0.63746 0.0
H441 H 0.26845 0.85293 0.59373 0.0
H442 H 0.3006 0.81803 0.80016 0.0
H443 H 0.26442 0.85513 0.75756 0.0
H444 H 0.24207 0.83804 0.05248 0.0
H445 H 0.24624 0.83609 0.88862 0.0
H446 H 0.3108 0.8384 0.9316 0.0
H447 H 0.3057 0.83885 0.09462 0.0
C448 C 0.29681 0.82571 0.66287 0.0
C449 C 0.28759 0.83511 0.60241 0.0
C450 C 0.29391 0.82628 0.75686 0.0
C451 C 0.28207 0.83669 0.79385 0.0
C452 C 0.27325 0.84653 0.73282 0.0
C453 C 0.2758 0.84556 0.63848 0.0
C454 C 0.25699 0.83785 0.02654 0.0
C455 C 0.27345 0.83845 0.08666 0.0
C456 C 0.25959 0.83701 0.93221 0.0
C457 C 0.27896 0.83717 0.89511 0.0
C458 C 0.29538 0.83774 0.95615 0.0
C459 C 0.29254 0.83813 0.05031 0.0
H460 H 0.46596 0.39935 0.5892 0.0
H461 H 0.46636 0.46284 0.62857 0.0
H462 H 0.46473 0.39372 0.75269 0.0
H463 H 0.46372 0.45673 0.79244 0.0
H464 H 0.47967 0.45118 0.08852 0.0
H465 H 0.48241 0.45729 0.92443 0.0
H466 H 0.44372 0.38406 0.88323 0.0
H467 H 0.44241 0.37822 0.04619 0.0
C468 C 0.46537 0.41193 0.63298 0.0
C469 C 0.46626 0.43155 0.59585 0.0
C470 C 0.46454 0.40868 0.7273 0.0
C471 C 0.46412 0.42474 0.78752 0.0
C472 C 0.46452 0.44415 0.74953 0.0
C473 C 0.46577 0.44758 0.65517 0.0
C474 C 0.47202 0.43645 0.04405 0.0
C475 C 0.46096 0.41423 0.08055 0.0
C476 C 0.47332 0.4399 0.94958 0.0
C477 C 0.46323 0.42121 0.88889 0.0
C478 C 0.45217 0.39899 0.92633 0.0
C479 C 0.45126 0.39558 0.02045 0.0
H480 H 0.53694 0.22374 0.37544 0.0
H481 H 0.55516 0.29437 0.41607 0.0
H482 H 0.52651 0.2262 0.21847 0.0
H483 H 0.54213 0.29586 0.26718 0.0
H484 H 0.55025 0.30161 0.96363 0.0
H485 H 0.55417 0.29931 0.12382 0.0
H486 H 0.50002 0.22837 0.12205 0.0
H487 H 0.49762 0.23019 0.95762 0.0
C488 C 0.53887 0.23973 0.35056 0.0
C489 C 0.54738 0.25895 0.4069 0.0
C490 C 0.53233 0.241 0.26192 0.0
C491 C 0.53341 0.26125 0.23033 0.0
C492 C 0.54171 0.28024 0.28777 0.0
C493 C 0.54929 0.27935 0.37371 0.0
C494 C 0.53885 0.28558 0.99726 0.0
C495 C 0.52433 0.26583 0.94798 0.0
C496 C 0.54093 0.28428 0.08996 0.0
C497 C 0.52782 0.26341 0.13568 0.0
C498 C 0.51098 0.24443 0.08794 0.0
C499 C 0.50933 0.24559 0.99414 0.0
H500 H 1.02371 0.2849 0.3586 0.0
H501 H 0.05645 0.24501 0.40977 0.0
H502 H 1.0156 0.27056 0.20311 0.0
H503 H 0.0468 0.22916 0.25815 0.0
H504 H 0.05719 0.23663 0.94932 0.0
H505 H 0.05847 0.24019 0.11176 0.0
H506 H 0.99366 0.23887 0.10876 0.0
H507 H 0.9932 0.23687 0.94371 0.0
C508 C 1.02931 0.27323 0.33582 0.0
C509 C 1.04138 0.26666 0.39404 0.0
C510 C 1.02419 0.26453 0.24791 0.0
C511 C 1.0304 0.24854 0.21828 0.0
C512 C 1.04218 0.24177 0.27787 0.0
C513 C 0.04793 0.25103 0.3644 0.0
C514 C 1.04291 0.23658 0.98319 0.0
C515 C 1.02561 0.23749 0.93376 0.0
C516 C 0.04355 0.23845 0.07696 0.0
C517 C 1.02656 0.24068 0.12308 0.0
C518 C 1.00749 0.23815 0.07453 0.0
C519 C 1.00705 0.23668 0.98014 0.0
H520 H 0.05886 0.79647 0.41231 0.0
H521 H 1.01835 0.72389 0.36207 0.0
H522 H 0.07462 0.80247 0.26056 0.0
H523 H 1.0326 0.72995 0.20636 0.0
H524 H 0.0659 0.74102 0.94584 0.0
H525 H 0.06406 0.73941 0.11094 0.0
H526 H 0.06342 0.80325 0.11471 0.0
H527 H 0.06684 0.80558 0.95221 0.0
C528 C 0.0527 0.7819 0.36713 0.0
C529 C 1.03691 0.75981 0.39704 0.0
C530 C 0.0619 0.7853 0.28052 0.0
C531 C 0.05491 0.76673 0.22108 0.0
C532 C 1.03879 0.74459 0.25103 0.0
C533 C 1.03015 0.74112 0.33906 0.0
C534 C 0.0663 0.75512 0.98247 0.0
C535 C 0.06565 0.773 0.93636 0.0
C536 C 0.0649 0.75404 0.07688 0.0
C537 C 0.06263 0.77069 0.12569 0.0
C538 C 0.06499 0.79 0.07973 0.0
C539 C 0.06678 0.79127 0.98595 0.0
H540 H 0.44678 0.49019 0.29216 0.0
H541 H 0.39451 0.41964 0.25485 0.0
H542 H 0.41888 0.50214 0.24872 0.0
H543 H 0.36731 0.43144 0.21089 0.0
H544 H 0.33206 0.46089 0.03811 0.0
H545 H 0.3628 0.45328 0.07746 0.0
H546 H 0.37893 0.49644 0.31329 0.0
H547 H 0.34791 0.50402 0.27413 0.0
C548 C 0.4295 0.47729 0.27437 0.0
C549 C 0.42295 0.45395 0.27771 0.0
C550 C 0.41349 0.48409 0.24996 0.0
C551 C 0.39083 0.46773 0.22599 0.0
C552 C 0.38457 0.44453 0.22815 0.0
C553 C 0.40025 0.43777 0.25413 0.0
C554 C 0.34225 0.46898 0.09792 0.0
C555 C 0.33734 0.48303 0.15297 0.0
C556 C 0.35987 0.46454 0.1207 0.0
C557 C 0.37341 0.47426 0.19854 0.0
C558 C 0.36898 0.48882 0.25251 0.0
C559 C 0.35103 0.49297 0.23051 0.0
H560 H 0.79759 0.8261 0.28747 0.0
H561 H 0.83596 0.85211 0.0392 0.0
H562 H 0.80493 0.86468 0.32492 0.0
H563 H 0.84328 0.89042 0.07673 0.0
H564 H 0.87874 0.95744 0.24448 0.0
H565 H 0.86709 0.91843 0.20109 0.0
H566 H 0.79702 0.89761 0.26589 0.0
H567 H 0.80881 0.93745 0.30849 0.0
C568 C 0.80754 0.83998 0.24076 0.0
C569 C 0.81621 0.83585 0.16026 0.0
C570 C 0.81154 0.86207 0.26185 0.0
C571 C 0.82469 0.88073 0.2039 0.0
C572 C 0.83314 0.87652 0.12315 0.0
C573 C 0.82884 0.85446 0.1014 0.0
C574 C 0.86077 0.94467 0.24933 0.0
C575 C 0.84473 0.95071 0.28031 0.0
C576 C 0.85408 0.92222 0.22384 0.0
C577 C 0.83112 0.90477 0.22975 0.0
C578 C 0.81489 0.91063 0.26076 0.0
C579 C 0.82158 0.93345 0.28459 0.0
H580 H 0.44891 0.96849 0.03477 0.0
H581 H 0.47557 0.95608 0.28131 0.0
H582 H 0.41079 0.93725 0.07292 0.0
H583 H 0.43717 0.92464 0.31957 0.0
H584 H 0.36502 0.85569 0.30708 0.0
H585 H 0.40465 0.88407 0.26338 0.0
H586 H 0.38264 0.93228 0.19542 0.0
H587 H 0.34379 0.90452 0.23915 0.0
C588 C 0.44673 0.95897 0.09677 0.0
C589 C 0.46546 0.96499 0.15493 0.0
C590 C 0.42478 0.94107 0.11891 0.0
C591 C 0.42081 0.92834 0.19942 0.0
C592 C 0.4396 0.93392 0.25671 0.0
C593 C 0.46157 0.95212 0.23519 0.0
C594 C 0.36871 0.8723 0.2822 0.0
C595 C 0.35119 0.87781 0.27726 0.0
C596 C 0.39142 0.88862 0.25778 0.0
C597 C 0.39689 0.91052 0.22565 0.0
C598 C 0.37916 0.91563 0.21903 0.0
C599 C 0.35681 0.89966 0.24486 0.0
H600 H 0.56166 0.13061 0.03977 0.0
H601 H 0.6044 0.14495 0.80342 0.0
H602 H 0.55164 0.15946 0.98844 0.0
H603 H 0.59456 0.17318 0.7529 0.0
H604 H 0.60282 0.24404 0.76462 0.0
H605 H 0.60619 0.21155 0.81572 0.0
H606 H 0.53328 0.17259 0.85977 0.0
H607 H 0.53002 0.20574 0.80932 0.0
C608 C 0.5684 0.1394 0.97596 0.0
C609 C 0.58398 0.13556 0.92615 0.0
C610 C 0.56277 0.15601 0.94664 0.0
C611 C 0.57269 0.16908 0.86731 0.0
C612 C 0.587 0.16396 0.81526 0.0
C613 C 0.59254 0.14759 0.84416 0.0
C614 C 0.58743 0.22855 0.78474 0.0
C615 C 0.56606 0.22733 0.78007 0.0
C616 C 0.58935 0.2098 0.81388 0.0
C617 C 0.56997 0.18917 0.8407 0.0
C618 C 0.54855 0.1881 0.83904 0.0
C619 C 0.54661 0.20695 0.8086 0.0
H620 H 0.07232 0.34933 0.67416 0.0
H621 H 0.09448 0.3082 0.81892 0.0
H622 H 0.10313 0.38379 0.74394 0.0
H623 H 0.12593 0.3431 0.88742 0.0
H624 H 0.19154 0.42448 0.89642 0.0
H625 H 0.16445 0.38645 0.83242 0.0
H626 H 0.10786 0.39406 0.92254 0.0
H627 H 0.13431 0.43108 0.98727 0.0
C628 C 0.08397 0.34763 0.71983 0.0
C629 C 0.0808 0.3259 0.74086 0.0
C630 C 0.10167 0.36743 0.7599 0.0
C631 C 0.11702 0.36624 0.82139 0.0
C632 C 0.11453 0.34464 0.83985 0.0
C633 C 0.09649 0.32465 0.80063 0.0
C634 C 0.17333 0.41766 0.90495 0.0
C635 C 0.16519 0.43101 0.94661 0.0
C636 C 0.15781 0.39596 0.86775 0.0
C637 C 0.13397 0.38742 0.87094 0.0
C638 C 0.12605 0.40023 0.91748 0.0
C639 C 0.14133 0.42151 0.95497 0.0
H640 H 0.99526 0.77243 0.81987 0.0
H641 H 0.95352 0.70833 0.68196 0.0
H642 H 0.96064 0.76951 0.88914 0.0
H643 H 0.91933 0.70518 0.75291 0.0
H644 H 0.87504 0.69195 0.00936 0.0
H645 H 0.91206 0.70275 0.94299 0.0
H646 H 0.9149 0.76242 0.82335 0.0
H647 H 0.8769 0.75116 0.88888 0.0
C648 C 0.97873 0.75792 0.80319 0.0
C649 C 0.97723 0.74062 0.74504 0.0
C650 C 0.95891 0.75629 0.84282 0.0
C651 C 0.93723 0.73713 0.82639 0.0
C652 C 0.93576 0.72017 0.76679 0.0
C653 C 0.9554 0.72197 0.72619 0.0
C654 C 0.88366 0.7077 0.97061 0.0
C655 C 0.87284 0.72063 0.95448 0.0
C656 C 0.90489 0.7138 0.93219 0.0
C657 C 0.91631 0.73325 0.877 0.0
C658 C 0.90648 0.74731 0.86573 0.0
C659 C 0.88483 0.74099 0.90388 0.0
H660 H 0.10666 0.66625 0.70407 0.0
H661 H 0.07176 0.64857 0.96246 0.0
H662 H 0.12424 0.64324 0.74094 0.0
H663 H 0.08939 0.62562 -0.00049 0.0
H664 H 0.09764 0.56223 0.9676 0.0
H665 H 0.0845 0.58946 0.9448 0.0
H666 H 0.15099 0.63889 0.84043 0.0
H667 H 0.16427 0.61153 0.86376 0.0
C668 C 0.10313 0.65785 0.76955 0.0
C669 C 0.08766 0.65907 0.83001 0.0
C670 C 0.1132 0.64465 0.79069 0.0
C671 C 0.10804 0.6324 0.87279 0.0
C672 C 0.09336 0.63447 0.93491 0.0
C673 C 0.08329 0.64763 0.91375 0.0
C674 C 0.10963 0.57904 0.94136 0.0
C675 C 0.13204 0.5847 0.91777 0.0
C676 C 0.10208 0.59468 0.92826 0.0
C677 C 0.11671 0.6164 0.89106 0.0
C678 C 0.13922 0.62221 0.86834 0.0
C679 C 0.14681 0.60653 0.88163 0.0
H680 H 0.70375 0.53005 0.0182 0.0
H681 H 0.75418 0.52402 0.85889 0.0
H682 H 0.67714 0.48912 0.99902 0.0
H683 H 0.72765 0.4834 0.83855 0.0
H684 H 0.68327 0.40761 0.87628 0.0
H685 H 0.70926 0.44748 0.91643 0.0
H686 H 0.65424 0.46218 0.88351 0.0
H687 H 0.62825 0.42228 0.84493 0.0
C688 C 0.7091 0.52 0.97884 0.0
C689 C 0.7311 0.53024 0.94048 0.0
C690 C 0.69387 0.49656 0.96778 0.0
C691 C 0.70027 0.48289 0.91766 0.0
C692 C 0.72229 0.49323 0.87935 0.0
C693 C 0.73751 0.51657 0.89078 0.0
C694 C 0.67672 0.41935 0.87834 0.0
C695 C 0.65374 0.41181 0.85716 0.0
C696 C 0.69162 0.44222 0.90099 0.0
C697 C 0.68392 0.45814 0.90233 0.0
C698 C 0.66072 0.45038 0.88424 0.0
C699 C 0.64579 0.42748 0.8621 0.0
H700 H 0.89255 0.24529 0.91333 0.0
H701 H 0.88082 0.18571 0.76123 0.0
H702 H 0.85227 0.22643 0.95362 0.0
H703 H 0.84046 0.16635 0.80476 0.0
H704 H 0.76684 0.15624 0.79126 0.0
H705 H 0.80731 0.16972 0.76651 0.0
H706 H 0.82217 0.19625 0.04002 0.0
H707 H 0.78168 0.18295 0.06431 0.0
C708 C 0.88138 0.22804 0.88926 0.0
C709 C 0.88987 0.21712 0.83315 0.0
C710 C 0.85829 0.21708 0.91332 0.0
C711 C 0.84304 0.19486 0.88224 0.0
C712 C 0.85168 0.18357 0.82896 0.0
C713 C 0.87485 0.19457 0.80483 0.0
C714 C 0.77868 0.16456 0.84669 0.0
C715 C 0.77106 0.16872 0.92947 0.0
C716 C 0.80192 0.17227 0.83256 0.0
C717 C 0.81808 0.18426 0.90099 0.0
C718 C 0.81028 0.18748 0.9852 0.0
C719 C 0.78706 0.17985 0.99919 0.0
H720 H 0.67831 0.08135 0.93887 0.0
H721 H 0.63572 0.04289 0.16472 0.0
H722 H 0.70668 0.07112 0.9827 0.0
H723 H 0.6642 0.032 0.20819 0.0
H724 H 0.73423 0.04334 0.31874 0.0
H725 H 0.70251 0.04881 0.27286 0.0
H726 H 0.71585 0.04146 0.99204 0.0
H727 H 0.74748 0.03601 0.03774 0.0
C728 C 0.67479 0.07034 0.99732 0.0
C729 C 0.65462 0.06298 0.0481 0.0
C730 C 0.69112 0.06432 0.02232 0.0
C731 C 0.68797 0.0507 0.09935 0.0
C732 C 0.66743 0.04272 0.14899 0.0
C733 C 0.65091 0.04869 0.12343 0.0
C734 C 0.73028 0.04261 0.24718 0.0
C735 C 0.74376 0.03938 0.18218 0.0
C736 C 0.71195 0.04571 0.22078 0.0
C737 C 0.70648 0.04571 0.12846 0.0
C738 C 0.71968 0.04204 0.06368 0.0
C739 C 0.73797 0.03894 0.09002 0.0
H740 H 0.26184 0.6753 0.31542 0.0
H741 H 0.26606 0.69498 0.03407 0.0
H742 H 0.25646 0.63819 0.26918 0.0
H743 H 0.26065 0.65797 0.98804 0.0
H744 H 0.22065 0.58043 0.93964 0.0
H745 H 0.23109 0.61905 0.98316 0.0
H746 H 0.27292 0.61672 0.20018 0.0
H747 H 0.26194 0.57734 0.15689 0.0
C748 C 0.26191 0.67191 0.24366 0.0
C749 C 0.26423 0.68834 0.17875 0.0
C750 C 0.25885 0.65052 0.21705 0.0
C751 C 0.25797 0.64479 0.12461 0.0
C752 C 0.26077 0.66141 0.05985 0.0
C753 C 0.26383 0.68276 0.08639 0.0
C754 C 0.23236 0.58816 0.99599 0.0
C755 C 0.24047 0.57562 0.04448 0.0
C756 C 0.23847 0.61052 0.02085 0.0
C757 C 0.2529 0.62128 0.0955 0.0
C758 C 0.26159 0.60901 0.14284 0.0
C759 C 0.25554 0.5865 0.11737 0.0
H760 H 0.73397 0.61487 0.0674 0.0
H761 H 0.71689 0.66854 0.07589 0.0
H762 H 0.69516 0.58683 0.10444 0.0
H763 H 0.67696 0.63974 0.11222 0.0
H764 H 0.61196 0.58161 0.26045 0.0
H765 H 0.65048 0.61238 0.22304 0.0
H766 H 0.65868 0.56695 0.04077 0.0
H767 H 0.62107 0.53607 0.08183 0.0
C768 C 0.72182 0.62076 0.07563 0.0
C769 C 0.72873 0.64414 0.06632 0.0
C770 C 0.69928 0.60445 0.09694 0.0
C771 C 0.68244 0.61065 0.10956 0.0
C772 C 0.68934 0.63416 0.10292 0.0
C773 C 0.71224 0.65073 0.08177 0.0
C774 C 0.62203 0.57806 0.21305 0.0
C775 C 0.6131 0.556 0.17503 0.0
C776 C 0.64413 0.59592 0.19056 0.0
C777 C 0.65808 0.59234 0.12935 0.0
C778 C 0.64886 0.57048 0.0896 0.0
C779 C 0.62692 0.55267 0.11231 0.0
H780 H 1.0082 0.87311 0.37891 0.0
H781 H 1.00427 0.88875 0.66036 0.0
H782 H 0.99041 0.89558 0.33419 0.0
H783 H 0.98734 0.91169 0.61564 0.0
H784 H 0.93573 0.93067 0.52149 0.0
H785 H 0.9512 0.90562 0.55359 0.0
H786 H 0.99868 0.9357 0.3308 0.0
H787 H 0.98267 0.96033 0.29674 0.0
C788 C 1.00366 0.88142 0.43111 0.0
C789 C 1.00777 0.8792 0.52318 0.0
C790 C 0.99361 0.8944 0.40547 0.0
C791 C 0.98731 0.90528 0.47142 0.0
C792 C 0.99166 0.90324 0.56322 0.0
C793 C 1.00172 0.89037 0.58875 0.0
C794 C 0.94913 0.93162 0.47807 0.0
C795 C 0.95803 0.94758 0.40677 0.0
C796 C 0.9582 0.91747 0.49722 0.0
C797 C 0.97638 0.91889 0.4455 0.0
C798 C 0.98465 0.93416 0.3718 0.0
C799 C 0.97561 0.94839 0.35278 0.0
H800 H 0.45465 0.10498 0.48704 0.0
H801 H 0.39476 0.11255 0.48906 0.0
H802 H 0.43121 0.0653 0.43838 0.0
H803 H 0.37123 0.07271 0.44293 0.0
H804 H 0.33704 1.00464 0.29664 0.0
H805 H 0.36319 0.04547 0.31908 0.0
H806 H 0.40201 0.02994 0.51066 0.0
H807 H 0.37584 0.98921 0.48887 0.0
C808 C 0.43654 0.09829 0.47575 0.0
C809 C 0.42655 0.11192 0.49218 0.0
C810 C 0.42307 0.07547 0.44885 0.0
C811 C 0.39933 0.06578 0.43731 0.0
C812 C 0.38949 0.07967 0.45046 0.0
C813 C 0.40293 0.10245 0.47775 0.0
C814 C 0.35118 1.00994 0.34345 0.0
C815 C 0.35422 0.9936 0.3914 0.0
C816 C 0.36617 0.03334 0.35623 0.0
C817 C 0.38462 0.04098 0.41703 0.0
C818 C 0.38815 1.02466 0.46244 0.0
C819 C 0.37313 1.00127 0.44985 0.0
H820 H 0.18586 0.26162 0.50705 0.0
H821 H 0.1979 0.33077 0.50686 0.0
H822 H 0.2258 0.27587 0.46685 0.0
H823 H 0.23791 0.3451 0.46805 0.0
H824 H 0.30573 0.36182 0.33269 0.0
H825 H 0.26478 0.34716 0.35464 0.0
H826 H 0.26204 0.29652 0.54196 0.0
H827 H 0.30264 0.31097 0.51943 0.0
C828 C 0.19704 0.27986 0.49816 0.0
C829 C 0.18873 0.29506 0.51048 0.0
C830 C 0.21995 0.28806 0.47543 0.0
C831 C 0.23518 0.31168 0.46514 0.0
C832 C 0.22666 0.3268 0.47443 0.0
C833 C 0.2037 0.31858 0.49669 0.0
C834 C 0.29634 0.3476 0.37867 0.0
C835 C 0.30741 0.33745 0.4237 0.0
C836 C 0.27288 0.33919 0.39128 0.0
C837 C 0.26002 0.3205 0.44947 0.0
C838 C 0.27122 0.31054 0.4949 0.0
C839 C 0.29456 0.31887 0.48212 0.0
H840 H 0.50612 0.28021 0.4198 0.0
H841 H 0.53025 0.31639 0.67289 0.0
H842 H 0.50374 0.31217 0.35595 0.0
H843 H 0.52691 0.34834 0.61047 0.0
H844 H 0.52678 0.40826 0.45885 0.0
H845 H 0.53814 0.38034 0.50773 0.0
H846 H 0.4795 0.32695 0.36744 0.0
H847 H 0.46894 0.35456 0.3178 0.0
C848 C 0.51106 0.29512 0.46184 0.0
C849 C 0.51853 0.29571 0.55133 0.0
C850 C 0.5095 0.31351 0.42541 0.0
C851 C 0.51476 0.33301 0.47794 0.0
C852 C 0.52291 0.33389 0.56706 0.0
C853 C 0.52481 0.3155 0.60316 0.0
C854 C 0.51689 0.39069 0.43615 0.0
C855 C 0.49711 0.38374 0.38332 0.0
C856 C 0.52313 0.37454 0.46541 0.0
C857 C 0.50981 0.35112 0.44196 0.0
C858 C 0.49061 0.34467 0.38604 0.0
C859 C 0.48444 0.36062 0.35746 0.0
H860 H 0.89972 0.10881 0.34038 0.0
H861 H 0.93251 0.0839 0.52291 0.0
H862 H 0.92738 0.1485 0.38833 0.0
H863 H 0.95957 0.12257 0.568 0.0
H864 H 1.02355 0.1897 0.51061 0.0
H865 H 0.99103 0.15439 0.45641 0.0
H866 H 0.94488 0.17608 0.55668 0.0
H867 H 0.97799 0.21209 0.6118 0.0
C868 C 0.91242 0.11165 0.3914 0.0
C869 C 0.91402 0.09301 0.42614 0.0
C870 C 0.92827 0.13436 0.41883 0.0
C871 C 0.94593 0.13872 0.48113 0.0
C872 C 0.94648 0.11994 0.51909 0.0
C873 C 0.93085 0.09763 0.49257 0.0
C874 C 1.00654 0.1872 0.52064 0.0
C875 C 1.00345 0.20369 0.5667 0.0
C876 C 0.98785 0.16691 0.48912 0.0
C877 C 0.9653 0.16228 0.50235 0.0
C878 C 0.96203 0.17918 0.54472 0.0
C879 C 0.98097 0.19974 0.57668 0.0
H880 H 0.0872 0.74878 0.58054 0.0
H881 H 0.11926 0.82219 0.56099 0.0
H882 H 0.12302 0.75103 0.52633 0.0
H883 H 0.1544 0.82441 0.50808 0.0
H884 H 0.22032 0.82502 0.54661 0.0
H885 H 0.18211 0.81448 0.59738 0.0
H886 H 0.15313 0.76786 0.37235 0.0
H887 H 0.19218 0.77876 0.31986 0.0
C888 C 0.10179 0.76531 0.56468 0.0
C889 C 0.10041 0.78533 0.57639 0.0
C890 C 0.12222 0.7666 0.53296 0.0
C891 C 0.14169 0.78795 0.51336 0.0
C892 C 0.1399 0.80772 0.52328 0.0
C893 C 0.11966 0.80642 0.5538 0.0
C894 C 0.20589 0.81219 0.50829 0.0
C895 C 0.20946 0.80294 0.42842 0.0
C896 C 0.1839 0.80617 0.5376 0.0
C897 C 0.16449 0.79058 0.48846 0.0
C898 C 0.16774 0.77993 0.41188 0.0
C899 C 0.19008 0.78609 0.38193 0.0
loop_
_geom_bond_atom_site_label_1
_geom_bond_atom_site_label_2
_geom_bond_distance
_geom_bond_site_symmetry_2
_ccdc_geom_bond_type
Tb0 C2 2.809 . S
Tb0 O20 2.484 . S
Tb0 O21 2.440 . S
Tb0 O22 2.658 . S
Tb0 O23 2.409 1_554 S
Tb0 O24 2.378 . S
Tb0 O28 2.325 . S
Tb0 O31 2.341 . S
Tb1 C11 2.809 . S
Tb1 O22 2.325 . S
Tb1 O25 2.341 . S
Tb1 O26 2.484 . S
Tb1 O27 2.440 . S
Tb1 O28 2.658 . S
Tb1 O29 2.409 . S
Tb1 O30 2.378 . S
C2 Tb0 2.809 . S
C2 C3 1.514 . S
C2 O20 1.248 . S
C2 O21 1.266 . S
C3 C2 1.514 . S
C3 C4 1.359 . S
C3 C8 1.348 . S
C4 C3 1.359 . S
C4 C5 1.380 . S
C4 H32 0.929 . S
C5 C4 1.380 . S
C5 C6 1.347 . S
C5 H33 0.931 . S
C6 C5 1.347 . S
C6 C7 1.369 . S
C7 C6 1.369 . S
C7 C8 1.408 . S
C7 H34 0.930 . S
C8 C3 1.348 . S
C8 C7 1.408 . S
C8 H35 0.930 . S
C9 O22 1.281 1_556 S
C9 O23 1.254 . S
C10 O24 1.236 . S
C10 O25 1.266 . S
C11 Tb1 2.809 . S
C11 C12 1.514 . S
C11 O26 1.248 . S
C11 O27 1.266 . S
C12 C11 1.514 . S
C12 C13 1.359 . S
C12 C17 1.348 . S
C13 C12 1.359 . S
C13 C14 1.380 . S
C13 H36 0.929 1_554 S
C14 C13 1.380 . S
C14 C15 1.347 . S
C14 H37 0.931 1_554 S
C15 C14 1.347 . S
C15 C16 1.369 . S
C16 C15 1.369 . S
C16 C17 1.408 . S
C16 H38 0.930 . S
C17 C12 1.348 . S
C17 C16 1.408 . S
C17 H39 0.930 . S
C18 O28 1.281 . S
C18 O29 1.254 . S
C19 O30 1.236 . S
C19 O31 1.266 . S
O20 Tb0 2.484 . S
O20 C2 1.248 . S
O21 Tb0 2.440 . S
O21 C2 1.266 . S
O22 Tb0 2.658 . S
O22 Tb1 2.325 . S
O22 C9 1.281 1_554 S
O23 Tb0 2.409 1_556 S
O23 C9 1.254 . S
O24 Tb0 2.378 . S
O24 C10 1.236 . S
O25 Tb1 2.341 . S
O25 C10 1.266 . S
O26 Tb1 2.484 . S
O26 C11 1.248 . S
O27 Tb1 2.440 . S
O27 C11 1.266 . S
O28 Tb0 2.325 . S
O28 Tb1 2.658 . S
O28 C18 1.281 . S
O29 Tb1 2.409 . S
O29 C18 1.254 . S
O30 Tb1 2.378 . S
O30 C19 1.236 . S
O31 Tb0 2.341 . S
O31 C19 1.266 . S
H32 C4 0.929 . S
H33 C5 0.931 . S
H34 C7 0.930 . S
H35 C8 0.930 . S
H36 C13 0.929 1_556 S
H37 C14 0.931 1_556 S
H38 C16 0.930 . S
H39 C17 0.930 . S
Tb40 C42 2.809 . S
Tb40 O60 2.484 . S
Tb40 O61 2.440 . S
Tb40 O62 2.658 . S
Tb40 O63 2.409 1_554 S
Tb40 O64 2.378 . S
Tb40 O68 2.325 . S
Tb40 O71 2.341 . S
Tb41 C51 2.809 . S
Tb41 O62 2.325 . S
Tb41 O65 2.341 . S
Tb41 O66 2.484 . S
Tb41 O67 2.440 . S
Tb41 O68 2.658 . S
Tb41 O69 2.409 . S
Tb41 O70 2.378 . S
C42 Tb40 2.809 . S
C42 C43 1.514 . S
C42 O60 1.248 . S
C42 O61 1.266 . S
C43 C42 1.514 . S
C43 C44 1.359 . S
C43 C48 1.348 . S
C44 C43 1.359 . S
C44 C45 1.380 . S
C44 H72 0.929 . S
C45 C44 1.380 . S
C45 C46 1.347 . S
C45 H73 0.931 . S
C46 C45 1.347 . S
C46 C47 1.369 . S
C47 C46 1.369 . S
C47 C48 1.408 . S
C47 H74 0.930 . S
C48 C43 1.348 . S
C48 C47 1.408 . S
C48 H75 0.930 . S
C49 O62 1.281 1_556 S
C49 O63 1.254 . S
C50 O64 1.236 . S
C50 O65 1.266 . S
C51 Tb41 2.809 . S
C51 C52 1.514 . S
C51 O66 1.248 . S
C51 O67 1.266 . S
C52 C51 1.514 . S
C52 C53 1.359 . S
C52 C57 1.348 . S
C53 C52 1.359 . S
C53 C54 1.380 . S
C53 H76 0.929 1_554 S
C54 C53 1.380 . S
C54 C55 1.347 . S
C54 H77 0.931 1_554 S
C55 C54 1.347 . S
C55 C56 1.369 . S
C56 C55 1.369 . S
C56 C57 1.408 . S
C56 H78 0.930 . S
C57 C52 1.348 . S
C57 C56 1.408 . S
C57 H79 0.930 . S
C58 O68 1.281 . S
C58 O69 1.254 . S
C59 O70 1.236 . S
C59 O71 1.266 . S
O60 Tb40 2.484 . S
O60 C42 1.248 . S
O61 Tb40 2.440 . S
O61 C42 1.266 . S
O62 Tb40 2.658 . S
O62 Tb41 2.325 . S
O62 C49 1.281 1_554 S
O63 Tb40 2.409 1_556 S
O63 C49 1.254 . S
O64 Tb40 2.378 . S
O64 C50 1.236 . S
O65 Tb41 2.341 . S
O65 C50 1.266 . S
O66 Tb41 2.484 . S
O66 C51 1.248 . S
O67 Tb41 2.440 . S
O67 C51 1.266 . S
O68 Tb40 2.325 . S
O68 Tb41 2.658 . S
O68 C58 1.281 . S
O69 Tb41 2.409 . S
O69 C58 1.254 . S
O70 Tb41 2.378 . S
O70 C59 1.236 . S
O71 Tb40 2.341 . S
O71 C59 1.266 . S
H72 C44 0.929 . S
H73 C45 0.931 . S
H74 C47 0.930 . S
H75 C48 0.930 . S
H76 C53 0.929 1_556 S
H77 C54 0.931 1_556 S
H78 C56 0.930 . S
H79 C57 0.930 . S
Tb80 C82 2.809 . S
Tb80 O100 2.484 . S
Tb80 O101 2.440 . S
Tb80 O102 2.658 . S
Tb80 O103 2.409 1_554 S
Tb80 O104 2.378 . S
Tb80 O108 2.325 . S
Tb80 O111 2.341 . S
Tb81 C91 2.809 . S
Tb81 O102 2.325 . S
Tb81 O105 2.341 . S
Tb81 O106 2.484 . S
Tb81 O107 2.440 . S
Tb81 O108 2.658 . S
Tb81 O109 2.409 . S
Tb81 O110 2.378 . S
C82 Tb80 2.809 . S
C82 C83 1.514 . S
C82 O100 1.248 . S
C82 O101 1.266 . S
C83 C82 1.514 . S
C83 C84 1.359 . S
C83 C88 1.348 . S
C84 C83 1.359 . S
C84 C85 1.380 . S
C84 H112 0.929 . S
C85 C84 1.380 . S
C85 C86 1.347 . S
C85 H113 0.931 . S
C86 C85 1.347 . S
C86 C87 1.369 . S
C87 C86 1.369 . S
C87 C88 1.408 . S
C87 H114 0.930 . S
C88 C83 1.348 . S
C88 C87 1.408 . S
C88 H115 0.930 . S
C89 O102 1.281 1_556 S
C89 O103 1.254 . S
C90 O104 1.236 . S
C90 O105 1.266 . S
C91 Tb81 2.809 . S
C91 C92 1.514 . S
C91 O106 1.248 . S
C91 O107 1.266 . S
C92 C91 1.514 . S
C92 C93 1.359 . S
C92 C97 1.348 . S
C93 C92 1.359 . S
C93 C94 1.380 . S
C93 H116 0.929 1_554 S
C94 C93 1.380 . S
C94 C95 1.347 . S
C94 H117 0.931 1_554 S
C95 C94 1.347 . S
C95 C96 1.369 . S
C96 C95 1.369 . S
C96 C97 1.408 . S
C96 H118 0.930 . S
C97 C92 1.348 . S
C97 C96 1.408 . S
C97 H119 0.930 . S
C98 O108 1.281 . S
C98 O109 1.254 . S
C99 O110 1.236 . S
C99 O111 1.266 . S
O100 Tb80 2.484 . S
O100 C82 1.248 . S
O101 Tb80 2.440 . S
O101 C82 1.266 . S
O102 Tb80 2.658 . S
O102 Tb81 2.325 . S
O102 C89 1.281 1_554 S
O103 Tb80 2.409 1_556 S
O103 C89 1.254 . S
O104 Tb80 2.378 . S
O104 C90 1.236 . S
O105 Tb81 2.341 . S
O105 C90 1.266 . S
O106 Tb81 2.484 . S
O106 C91 1.248 . S
O107 Tb81 2.440 . S
O107 C91 1.266 . S
O108 Tb80 2.325 . S
O108 Tb81 2.658 . S
O108 C98 1.281 . S
O109 Tb81 2.409 . S
O109 C98 1.254 . S
O110 Tb81 2.378 . S
O110 C99 1.236 . S
O111 Tb80 2.341 . S
O111 C99 1.266 . S
H112 C84 0.929 . S
H113 C85 0.931 . S
H114 C87 0.930 . S
H115 C88 0.930 . S
H116 C93 0.929 1_556 S
H117 C94 0.931 1_556 S
H118 C96 0.930 . S
H119 C97 0.930 . S
Tb120 C122 2.809 . S
Tb120 O140 2.484 . S
Tb120 O141 2.440 . S
Tb120 O142 2.658 . S
Tb120 O143 2.409 . S
Tb120 O144 2.378 . S
Tb120 O148 2.325 . S
Tb120 O151 2.341 1_565 S
Tb121 C131 2.809 1_565 S
Tb121 O142 2.325 . S
Tb121 O145 2.341 . S
Tb121 O146 2.484 1_565 S
Tb121 O147 2.440 1_565 S
Tb121 O148 2.658 . S
Tb121 O149 2.409 . S
Tb121 O150 2.378 1_565 S
C122 Tb120 2.809 . S
C122 C123 1.514 . S
C122 O140 1.248 . S
C122 O141 1.266 . S
C123 C122 1.514 . S
C123 C124 1.359 . S
C123 C128 1.348 . S
C124 C123 1.359 . S
C124 C125 1.380 . S
C124 H152 0.929 . S
C125 C124 1.380 . S
C125 C126 1.347 . S
C125 H153 0.931 . S
C126 C125 1.347 . S
C126 C127 1.369 . S
C127 C126 1.369 . S
C127 C128 1.408 . S
C127 H154 0.930 . S
C128 C123 1.348 . S
C128 C127 1.408 . S
C128 H155 0.930 . S
C129 O142 1.281 . S
C129 O143 1.254 . S
C130 O144 1.236 . S
C130 O145 1.266 . S
C131 Tb121 2.809 1_545 S
C131 C132 1.514 . S
C131 O146 1.248 . S
C131 O147 1.266 . S
C132 C131 1.514 . S
C132 C133 1.359 . S
C132 C137 1.348 . S
C133 C132 1.359 . S
C133 C134 1.380 . S
C133 H156 0.929 . S
C134 C133 1.380 . S
C134 C135 1.347 . S
C134 H157 0.931 . S
C135 C134 1.347 . S
C135 C136 1.369 . S
C136 C135 1.369 . S
C136 C137 1.408 . S
C136 H158 0.930 . S
C137 C132 1.348 . S
C137 C136 1.408 . S
C137 H159 0.930 . S
C138 O148 1.281 . S
C138 O149 1.254 . S
C139 O150 1.236 . S
C139 O151 1.266 . S
O140 Tb120 2.484 . S
O140 C122 1.248 . S
O141 Tb120 2.440 . S
O141 C122 1.266 . S
O142 Tb120 2.658 . S
O142 Tb121 2.325 . S
O142 C129 1.281 . S
O143 Tb120 2.409 . S
O143 C129 1.254 . S
O144 Tb120 2.378 . S
O144 C130 1.236 . S
O145 Tb121 2.341 . S
O145 C130 1.266 . S
O146 Tb121 2.484 1_545 S
O146 C131 1.248 . S
O147 Tb121 2.440 1_545 S
O147 C131 1.266 . S
O148 Tb120 2.325 . S
O148 Tb121 2.658 . S
O148 C138 1.281 . S
O149 Tb121 2.409 . S
O149 C138 1.254 . S
O150 Tb121 2.378 1_545 S
O150 C139 1.236 . S
O151 Tb120 2.341 1_545 S
O151 C139 1.266 . S
H152 C124 0.929 . S
H153 C125 0.931 . S
H154 C127 0.930 . S
H155 C128 0.930 . S
H156 C133 0.929 . S
H157 C134 0.931 . S
H158 C136 0.930 . S
H159 C137 0.930 . S
Tb160 C162 2.809 . S
Tb160 O180 2.484 . S
Tb160 O181 2.440 . S
Tb160 O182 2.658 . S
Tb160 O183 2.409 . S
Tb160 O184 2.378 . S
Tb160 O188 2.325 . S
Tb160 O191 2.341 . S
Tb161 C171 2.809 . S
Tb161 O182 2.325 . S
Tb161 O185 2.341 . S
Tb161 O186 2.484 . S
Tb161 O187 2.440 . S
Tb161 O188 2.658 . S
Tb161 O189 2.409 . S
Tb161 O190 2.378 . S
C162 Tb160 2.809 . S
C162 C163 1.514 . S
C162 O180 1.248 . S
C162 O181 1.266 . S
C163 C162 1.514 . S
C163 C164 1.359 . S
C163 C168 1.348 . S
C164 C163 1.359 . S
C164 C165 1.380 . S
C164 H192 0.929 . S
C165 C164 1.380 . S
C165 C166 1.347 . S
C165 H193 0.931 . S
C166 C165 1.347 . S
C166 C167 1.369 . S
C167 C166 1.369 . S
C167 C168 1.408 . S
C167 H194 0.930 . S
C168 C163 1.348 . S
C168 C167 1.408 . S
C168 H195 0.930 . S
C169 O182 1.281 . S
C169 O183 1.254 . S
C170 O184 1.236 . S
C170 O185 1.266 . S
C171 Tb161 2.809 . S
C171 C172 1.514 . S
C171 O186 1.248 . S
C171 O187 1.266 . S
C172 C171 1.514 . S
C172 C173 1.359 . S
C172 C177 1.348 . S
C173 C172 1.359 . S
C173 C174 1.380 . S
C173 H196 0.929 . S
C174 C173 1.380 . S
C174 C175 1.347 . S
C174 H197 0.931 . S
C175 C174 1.347 . S
C175 C176 1.369 . S
C176 C175 1.369 . S
C176 C177 1.408 . S
C176 H198 0.930 . S
C177 C172 1.348 . S
C177 C176 1.408 . S
C177 H199 0.930 . S
C178 O188 1.281 . S
C178 O189 1.254 . S
C179 O190 1.236 . S
C179 O191 1.266 . S
O180 Tb160 2.484 . S
O180 C162 1.248 . S
O181 Tb160 2.440 . S
O181 C162 1.266 . S
O182 Tb160 2.658 . S
O182 Tb161 2.325 . S
O182 C169 1.281 . S
O183 Tb160 2.409 . S
O183 C169 1.254 . S
O184 Tb160 2.378 . S
O184 C170 1.236 . S
O185 Tb161 2.341 . S
O185 C170 1.266 . S
O186 Tb161 2.484 . S
O186 C171 1.248 . S
O187 Tb161 2.440 . S
O187 C171 1.266 . S
O188 Tb160 2.325 . S
O188 Tb161 2.658 . S
O188 C178 1.281 . S
O189 Tb161 2.409 . S
O189 C178 1.254 . S
O190 Tb161 2.378 . S
O190 C179 1.236 . S
O191 Tb160 2.341 . S
O191 C179 1.266 . S
H192 C164 0.929 . S
H193 C165 0.931 . S
H194 C167 0.930 . S
H195 C168 0.930 . S
H196 C173 0.929 . S
H197 C174 0.931 . S
H198 C176 0.930 . S
H199 C177 0.930 . S
Tb200 C202 2.809 . S
Tb200 O220 2.484 . S
Tb200 O221 2.440 . S
Tb200 O222 2.658 . S
Tb200 O223 2.409 . S
Tb200 O224 2.378 . S
Tb200 O228 2.325 . S
Tb200 O231 2.341 . S
Tb201 C211 2.809 . S
Tb201 O222 2.325 . S
Tb201 O225 2.341 . S
Tb201 O226 2.484 . S
Tb201 O227 2.440 . S
Tb201 O228 2.658 . S
Tb201 O229 2.409 . S
Tb201 O230 2.378 . S
C202 Tb200 2.809 . S
C202 C203 1.514 . S
C202 O220 1.248 . S
C202 O221 1.266 . S
C203 C202 1.514 . S
C203 C204 1.359 . S
C203 C208 1.348 . S
C204 C203 1.359 . S
C204 C205 1.380 . S
C204 H232 0.929 . S
C205 C204 1.380 . S
C205 C206 1.347 . S
C205 H233 0.931 . S
C206 C205 1.347 . S
C206 C207 1.369 . S
C207 C206 1.369 . S
C207 C208 1.408 . S
C207 H234 0.930 . S
C208 C203 1.348 . S
C208 C207 1.408 . S
C208 H235 0.930 . S
C209 O222 1.281 . S
C209 O223 1.254 . S
C210 O224 1.236 . S
C210 O225 1.266 . S
C211 Tb201 2.809 . S
C211 C212 1.514 . S
C211 O226 1.248 . S
C211 O227 1.266 . S
C212 C211 1.514 . S
C212 C213 1.359 . S
C212 C217 1.348 . S
C213 C212 1.359 . S
C213 C214 1.380 . S
C213 H236 0.929 . S
C214 C213 1.380 . S
C214 C215 1.347 . S
C214 H237 0.931 . S
C215 C214 1.347 . S
C215 C216 1.369 . S
C216 C215 1.369 . S
C216 C217 1.408 . S
C216 H238 0.930 . S
C217 C212 1.348 . S
C217 C216 1.408 . S
C217 H239 0.930 . S
C218 O228 1.281 . S
C218 O229 1.254 . S
C219 O230 1.236 . S
C219 O231 1.266 . S
O220 Tb200 2.484 . S
O220 C202 1.248 . S
O221 Tb200 2.440 . S
O221 C202 1.266 . S
O222 Tb200 2.658 . S
O222 Tb201 2.325 . S
O222 C209 1.281 . S
O223 Tb200 2.409 . S
O223 C209 1.254 . S
O224 Tb200 2.378 . S
O224 C210 1.236 . S
O225 Tb201 2.341 . S
O225 C210 1.266 . S
O226 Tb201 2.484 . S
O226 C211 1.248 . S
O227 Tb201 2.440 . S
O227 C211 1.266 . S
O228 Tb200 2.325 . S
O228 Tb201 2.658 . S
O228 C218 1.281 . S
O229 Tb201 2.409 . S
O229 C218 1.254 . S
O230 Tb201 2.378 . S
O230 C219 1.236 . S
O231 Tb200 2.341 . S
O231 C219 1.266 . S
H232 C204 0.929 . S
H233 C205 0.931 . S
H234 C207 0.930 . S
H235 C208 0.930 . S
H236 C213 0.929 . S
H237 C214 0.931 . S
H238 C216 0.930 . S
H239 C217 0.930 . S
Tb240 C242 2.809 . S
Tb240 O260 2.484 . S
Tb240 O261 2.440 . S
Tb240 O262 2.658 . S
Tb240 O263 2.409 . S
Tb240 O264 2.378 . S
Tb240 O268 2.325 . S
Tb240 O271 2.341 . S
Tb241 C251 2.809 . S
Tb241 O262 2.325 . S
Tb241 O265 2.341 . S
Tb241 O266 2.484 . S
Tb241 O267 2.440 . S
Tb241 O268 2.658 . S
Tb241 O269 2.409 . S
Tb241 O270 2.378 . S
C242 Tb240 2.809 . S
C242 C243 1.514 . S
C242 O260 1.248 . S
C242 O261 1.266 . S
C243 C242 1.514 . S
C243 C244 1.359 . S
C243 C248 1.348 . S
C244 C243 1.359 . S
C244 C245 1.380 . S
C244 H272 0.929 . S
C245 C244 1.380 . S
C245 C246 1.347 . S
C245 H273 0.931 . S
C246 C245 1.347 . S
C246 C247 1.369 . S
C247 C246 1.369 . S
C247 C248 1.408 . S
C247 H274 0.930 . S
C248 C243 1.348 . S
C248 C247 1.408 . S
C248 H275 0.930 . S
C249 O262 1.281 . S
C249 O263 1.254 . S
C250 O264 1.236 . S
C250 O265 1.266 . S
C251 Tb241 2.809 . S
C251 C252 1.514 . S
C251 O266 1.248 . S
C251 O267 1.266 . S
C252 C251 1.514 . S
C252 C253 1.359 . S
C252 C257 1.348 . S
C253 C252 1.359 . S
C253 C254 1.380 . S
C253 H276 0.929 . S
C254 C253 1.380 . S
C254 C255 1.347 . S
C254 H277 0.931 . S
C255 C254 1.347 . S
C255 C256 1.369 . S
C256 C255 1.369 . S
C256 C257 1.408 . S
C256 H278 0.930 . S
C257 C252 1.348 . S
C257 C256 1.408 . S
C257 H279 0.930 . S
C258 O268 1.281 . S
C258 O269 1.254 . S
C259 O270 1.236 . S
C259 O271 1.266 . S
O260 Tb240 2.484 . S
O260 C242 1.248 . S
O261 Tb240 2.440 . S
O261 C242 1.266 . S
O262 Tb240 2.658 . S
O262 Tb241 2.325 . S
O262 C249 1.281 . S
O263 Tb240 2.409 . S
O263 C249 1.254 . S
O264 Tb240 2.378 . S
O264 C250 1.236 . S
O265 Tb241 2.341 . S
O265 C250 1.266 . S
O266 Tb241 2.484 . S
O266 C251 1.248 . S
O267 Tb241 2.440 . S
O267 C251 1.266 . S
O268 Tb240 2.325 . S
O268 Tb241 2.658 . S
O268 C258 1.281 . S
O269 Tb241 2.409 . S
O269 C258 1.254 . S
O270 Tb241 2.378 . S
O270 C259 1.236 . S
O271 Tb240 2.341 . S
O271 C259 1.266 . S
H272 C244 0.929 . S
H273 C245 0.931 . S
H274 C247 0.930 . S
H275 C248 0.930 . S
H276 C253 0.929 . S
H277 C254 0.931 . S
H278 C256 0.930 . S
H279 C257 0.930 . S
Tb280 C282 2.809 . S
Tb280 O300 2.484 . S
Tb280 O301 2.440 . S
Tb280 O302 2.658 1_655 S
Tb280 O303 2.409 . S
Tb280 O304 2.378 . S
Tb280 O308 2.325 . S
Tb280 O311 2.341 . S
Tb281 C291 2.809 . S
Tb281 O302 2.325 . S
Tb281 O305 2.341 . S
Tb281 O306 2.484 . S
Tb281 O307 2.440 . S
Tb281 O308 2.658 1_455 S
Tb281 O309 2.416 . S
Tb281 O310 2.378 . S
C282 Tb280 2.809 . S
C282 C283 1.514 . S
C282 O300 1.248 . S
C282 O301 1.266 . S
C283 C282 1.514 . S
C283 C284 1.359 . S
C283 C288 1.348 . S
C284 C283 1.359 . S
C284 C285 1.380 . S
C284 H312 0.929 . S
C285 C284 1.380 . S
C285 C286 1.347 . S
C285 H313 0.931 . S
C286 C285 1.347 . S
C286 C287 1.369 . S
C287 C286 1.369 . S
C287 C288 1.408 . S
C287 H314 0.930 . S
C288 C283 1.348 . S
C288 C287 1.408 . S
C288 H315 0.930 . S
C289 O302 1.281 . S
C289 O303 1.254 1_455 S
C290 O304 1.236 . S
C290 O305 1.266 1_655 S
C291 Tb281 2.809 . S
C291 C292 1.514 . S
C291 O306 1.248 . S
C291 O307 1.266 . S
C292 C291 1.514 . S
C292 C293 1.359 . S
C292 C297 1.348 . S
C293 C292 1.359 . S
C293 C294 1.380 . S
C293 H316 0.929 . S
C294 C293 1.380 . S
C294 C295 1.347 . S
C294 H317 0.931 . S
C295 C294 1.347 . S
C295 C296 1.369 . S
C296 C295 1.369 . S
C296 C297 1.408 . S
C296 H318 0.930 . S
C297 C292 1.348 . S
C297 C296 1.408 . S
C297 H319 0.930 . S
C298 O308 1.281 . S
C298 O309 1.207 1_655 S
C299 O310 1.236 . S
C299 O311 1.266 1_455 S
O300 Tb280 2.484 . S
O300 C282 1.248 . S
O301 Tb280 2.440 . S
O301 C282 1.266 . S
O302 Tb280 2.658 1_455 S
O302 Tb281 2.325 . S
O302 C289 1.281 . S
O303 Tb280 2.409 . S
O303 C289 1.254 1_655 S
O304 Tb280 2.378 . S
O304 C290 1.236 . S
O305 Tb281 2.341 . S
O305 C290 1.266 1_455 S
O306 Tb281 2.484 . S
O306 C291 1.248 . S
O307 Tb281 2.440 . S
O307 C291 1.266 . S
O308 Tb280 2.325 . S
O308 Tb281 2.658 1_655 S
O308 C298 1.281 . S
O309 Tb281 2.416 . S
O309 C298 1.207 1_455 S
O310 Tb281 2.378 . S
O310 C299 1.236 . S
O311 Tb280 2.341 . S
O311 C299 1.266 1_655 S
H312 C284 0.929 . S
H313 C285 0.931 . S
H314 C287 0.930 . S
H315 C288 0.930 . S
H316 C293 0.929 . S
H317 C294 0.931 . S
H318 C296 0.930 . S
H319 C297 0.930 . S
Tb320 C322 2.809 1_655 S
Tb320 O340 2.484 1_655 S
Tb320 O341 2.440 . S
Tb320 O342 2.658 . S
Tb320 O343 2.409 . S
Tb320 O344 2.378 . S
Tb320 O348 2.325 1_655 S
Tb320 O351 2.341 . S
Tb321 C331 2.800 1_455 S
Tb321 O342 2.321 1_455 S
Tb321 O345 2.347 . S
Tb321 O346 2.473 1_455 S
Tb321 O347 2.437 . S
Tb321 O348 2.670 . S
Tb321 O349 2.421 . S
Tb321 O350 2.379 1_455 S
C322 Tb320 2.809 1_455 S
C322 C323 1.514 . S
C322 O340 1.248 . S
C322 O341 1.266 1_455 S
C323 C322 1.514 . S
C323 C324 1.359 . S
C323 C328 1.348 . S
C324 C323 1.359 . S
C324 C325 1.380 . S
C324 H352 0.929 . S
C325 C324 1.380 . S
C325 C326 1.347 . S
C325 H353 0.931 . S
C326 C325 1.347 . S
C326 C327 1.369 . S
C327 C326 1.369 . S
C327 C328 1.408 . S
C327 H354 0.930 1_455 S
C328 C323 1.348 . S
C328 C327 1.408 . S
C328 H355 0.930 1_455 S
C329 O342 1.281 . S
C329 O343 1.254 . S
C330 O344 1.236 1_455 S
C330 O345 1.266 . S
C331 Tb321 2.800 1_655 S
C331 C332 1.514 . S
C331 O346 1.248 . S
C331 O347 1.266 1_655 S
C332 C331 1.514 . S
C332 C333 1.359 . S
C332 C337 1.348 . S
C333 C332 1.359 . S
C333 C334 1.380 . S
C333 H356 0.929 . S
C334 C333 1.380 . S
C334 C335 1.347 . S
C334 H357 0.931 . S
C335 C334 1.347 . S
C335 C336 1.369 . S
C336 C335 1.369 . S
C336 C337 1.408 . S
C336 H358 0.930 . S
C337 C332 1.348 . S
C337 C336 1.408 . S
C337 H359 0.930 1_655 S
C338 O348 1.281 . S
C338 O349 1.254 . S
C339 O350 1.236 . S
C339 O351 1.266 . S
O340 Tb320 2.484 1_455 S
O340 C322 1.248 . S
O341 Tb320 2.440 . S
O341 C322 1.266 1_655 S
O342 Tb320 2.658 . S
O342 Tb321 2.321 1_655 S
O342 C329 1.281 . S
O343 Tb320 2.409 . S
O343 C329 1.254 . S
O344 Tb320 2.378 . S
O344 C330 1.236 1_655 S
O345 Tb321 2.347 . S
O345 C330 1.266 . S
O346 Tb321 2.473 1_655 S
O346 C331 1.248 . S
O347 Tb321 2.437 . S
O347 C331 1.266 1_455 S
O348 Tb320 2.325 1_455 S
O348 Tb321 2.670 . S
O348 C338 1.281 . S
O349 Tb321 2.421 . S
O349 C338 1.254 . S
O350 Tb321 2.379 1_655 S
O350 C339 1.236 . S
O351 Tb320 2.341 . S
O351 C339 1.266 . S
H352 C324 0.929 . S
H353 C325 0.931 . S
H354 C327 0.930 1_655 S
H355 C328 0.930 1_655 S
H356 C333 0.929 . S
H357 C334 0.931 . S
H358 C336 0.930 . S
H359 C337 0.930 1_455 S
H360 C368 0.950 . S
H361 C373 0.950 . S
H362 C370 0.950 . S
H363 C372 0.950 . S
H364 C374 0.950 . S
H365 C376 0.950 . S
H366 C378 0.950 . S
H367 C379 0.950 . S
C368 H360 0.950 . S
C368 C369 1.386 . S
C368 C370 1.391 . S
C369 C368 1.386 . S
C369 C373 1.393 . S
C370 H362 0.950 . S
C370 C368 1.391 . S
C370 C371 1.400 . S
C371 C370 1.400 . S
C371 C372 1.398 . S
C371 C377 1.491 . S
C372 H363 0.950 . S
C372 C371 1.398 . S
C372 C373 1.391 . S
C373 H361 0.950 . S
C373 C369 1.393 . S
C373 C372 1.391 . S
C374 H364 0.950 . S
C374 C375 1.386 . S
C374 C376 1.391 . S
C375 C374 1.386 . S
C375 C379 1.393 . S
C376 H365 0.950 . S
C376 C374 1.391 . S
C376 C377 1.400 . S
C377 C371 1.491 . S
C377 C376 1.400 . S
C377 C378 1.398 . S
C378 H366 0.950 . S
C378 C377 1.398 . S
C378 C379 1.391 . S
C379 H367 0.950 . S
C379 C375 1.393 . S
C379 C378 1.391 . S
H380 C388 0.950 . S
H381 C393 0.950 . S
H382 C390 0.950 . S
H383 C392 0.950 . S
H384 C394 0.950 . S
H385 C396 0.950 . S
H386 C398 0.950 . S
H387 C399 0.950 . S
C388 H380 0.950 . S
C388 C389 1.386 . S
C388 C390 1.391 . S
C389 C388 1.386 . S
C389 C393 1.393 . S
C390 H382 0.950 . S
C390 C388 1.391 . S
C390 C391 1.400 . S
C391 C390 1.400 . S
C391 C392 1.398 . S
C391 C397 1.491 . S
C392 H383 0.950 . S
C392 C391 1.398 . S
C392 C393 1.391 . S
C393 H381 0.950 . S
C393 C389 1.393 . S
C393 C392 1.391 . S
C394 H384 0.950 . S
C394 C395 1.386 . S
C394 C396 1.391 . S
C395 C394 1.386 . S
C395 C399 1.393 . S
C396 H385 0.950 . S
C396 C394 1.391 . S
C396 C397 1.400 . S
C397 C391 1.491 . S
C397 C396 1.400 . S
C397 C398 1.398 . S
C398 H386 0.950 . S
C398 C397 1.398 . S
C398 C399 1.391 . S
C399 H387 0.950 . S
C399 C395 1.393 . S
C399 C398 1.391 . S
H400 C408 0.950 . S
H401 C413 0.950 . S
H402 C410 0.950 . S
H403 C412 0.950 . S
H404 C414 0.950 . S
H405 C416 0.950 . S
H406 C418 0.950 . S
H407 C419 0.950 . S
C408 H400 0.950 . S
C408 C409 1.386 . S
C408 C410 1.391 . S
C409 C408 1.386 . S
C409 C413 1.393 . S
C410 H402 0.950 . S
C410 C408 1.391 . S
C410 C411 1.400 . S
C411 C410 1.400 . S
C411 C412 1.398 . S
C411 C417 1.491 . S
C412 H403 0.950 . S
C412 C411 1.398 . S
C412 C413 1.391 . S
C413 H401 0.950 . S
C413 C409 1.393 . S
C413 C412 1.391 . S
C414 H404 0.950 . S
C414 C415 1.386 . S
C414 C416 1.391 . S
C415 C414 1.386 . S
C415 C419 1.393 . S
C416 H405 0.950 . S
C416 C414 1.391 . S
C416 C417 1.400 . S
C417 C411 1.491 . S
C417 C416 1.400 . S
C417 C418 1.398 . S
C418 H406 0.950 . S
C418 C417 1.398 . S
C418 C419 1.391 . S
C419 H407 0.950 . S
C419 C415 1.393 . S
C419 C418 1.391 . S
H420 C428 0.950 . S
H421 C433 0.950 . S
H422 C430 0.950 . S
H423 C432 0.950 . S
H424 C434 0.950 . S
H425 C436 0.950 . S
H426 C438 0.950 . S
H427 C439 0.950 . S
C428 H420 0.950 . S
C428 C429 1.386 . S
C428 C430 1.391 . S
C429 C428 1.386 . S
C429 C433 1.393 . S
C430 H422 0.950 . S
C430 C428 1.391 . S
C430 C431 1.400 . S
C431 C430 1.400 . S
C431 C432 1.398 . S
C431 C437 1.491 . S
C432 H423 0.950 . S
C432 C431 1.398 . S
C432 C433 1.391 . S
C433 H421 0.950 . S
C433 C429 1.393 . S
C433 C432 1.391 . S
C434 H424 0.950 . S
C434 C435 1.386 . S
C434 C436 1.391 . S
C435 C434 1.386 . S
C435 C439 1.393 . S
C436 H425 0.950 . S
C436 C434 1.391 . S
C436 C437 1.400 . S
C437 C431 1.491 . S
C437 C436 1.400 . S
C437 C438 1.398 . S
C438 H426 0.950 . S
C438 C437 1.398 . S
C438 C439 1.391 . S
C439 H427 0.950 . S
C439 C435 1.393 . S
C439 C438 1.391 . S
H440 C448 0.950 . S
H441 C453 0.950 . S
H442 C450 0.950 . S
H443 C452 0.950 . S
H444 C454 0.950 . S
H445 C456 0.950 . S
H446 C458 0.950 . S
H447 C459 0.950 . S
C448 H440 0.950 . S
C448 C449 1.386 . S
C448 C450 1.391 . S
C449 C448 1.386 . S
C449 C453 1.393 . S
C450 H442 0.950 . S
C450 C448 1.391 . S
C450 C451 1.400 . S
C451 C450 1.400 . S
C451 C452 1.398 . S
C451 C457 1.491 . S
C452 H443 0.950 . S
C452 C451 1.398 . S
C452 C453 1.391 . S
C453 H441 0.950 . S
C453 C449 1.393 . S
C453 C452 1.391 . S
C454 H444 0.950 . S
C454 C455 1.386 . S
C454 C456 1.391 . S
C455 C454 1.386 . S
C455 C459 1.393 . S
C456 H445 0.950 . S
C456 C454 1.391 . S
C456 C457 1.400 . S
C457 C451 1.491 . S
C457 C456 1.400 . S
C457 C458 1.398 . S
C458 H446 0.950 . S
C458 C457 1.398 . S
C458 C459 1.391 . S
C459 H447 0.950 . S
C459 C455 1.393 . S
C459 C458 1.391 . S
H460 C468 0.950 . S
H461 C473 0.950 . S
H462 C470 0.950 . S
H463 C472 0.950 . S
H464 C474 0.950 . S
H465 C476 0.950 . S
H466 C478 0.950 . S
H467 C479 0.950 . S
C468 H460 0.950 . S
C468 C469 1.386 . S
C468 C470 1.391 . S
C469 C468 1.386 . S
C469 C473 1.393 . S
C470 H462 0.950 . S
C470 C468 1.391 . S
C470 C471 1.400 . S
C471 C470 1.400 . S
C471 C472 1.398 . S
C471 C477 1.491 . S
C472 H463 0.950 . S
C472 C471 1.398 . S
C472 C473 1.391 . S
C473 H461 0.950 . S
C473 C469 1.393 . S
C473 C472 1.391 . S
C474 H464 0.950 . S
C474 C475 1.386 . S
C474 C476 1.391 . S
C475 C474 1.386 . S
C475 C479 1.393 . S
C476 H465 0.950 . S
C476 C474 1.391 . S
C476 C477 1.400 . S
C477 C471 1.491 . S
C477 C476 1.400 . S
C477 C478 1.398 . S
C478 H466 0.950 . S
C478 C477 1.398 . S
C478 C479 1.391 . S
C479 H467 0.950 . S
C479 C475 1.393 . S
C479 C478 1.391 . S
H480 C488 0.950 . S
H481 C493 0.950 . S
H482 C490 0.950 . S
H483 C492 0.950 . S
H484 C494 0.950 . S
H485 C496 0.950 . S
H486 C498 0.950 . S
H487 C499 0.950 . S
C488 H480 0.950 . S
C488 C489 1.386 . S
C488 C490 1.391 . S
C489 C488 1.386 . S
C489 C493 1.393 . S
C490 H482 0.950 . S
C490 C488 1.391 . S
C490 C491 1.400 . S
C491 C490 1.400 . S
C491 C492 1.398 . S
C491 C497 1.491 . S
C492 H483 0.950 . S
C492 C491 1.398 . S
C492 C493 1.391 . S
C493 H481 0.950 . S
C493 C489 1.393 . S
C493 C492 1.391 . S
C494 H484 0.950 . S
C494 C495 1.386 . S
C494 C496 1.391 1_556 S
C495 C494 1.386 . S
C495 C499 1.393 . S
C496 H485 0.950 . S
C496 C494 1.391 1_554 S
C496 C497 1.400 . S
C497 C491 1.491 . S
C497 C496 1.400 . S
C497 C498 1.398 . S
C498 H486 0.950 . S
C498 C497 1.398 . S
C498 C499 1.391 1_554 S
C499 H487 0.950 . S
C499 C495 1.393 . S
C499 C498 1.391 1_556 S
H500 C508 0.950 . S
H501 C513 0.950 . S
H502 C510 0.922 1_655 S
H503 C512 0.950 . S
H504 C514 0.950 . S
H505 C516 0.950 . S
H506 C518 0.950 . S
H507 C519 0.950 . S
C508 H500 0.950 . S
C508 C509 1.386 . S
C508 C510 1.398 . S
C509 C508 1.386 . S
C509 C513 1.393 . S
C510 H502 0.922 1_455 S
C510 C508 1.398 . S
C510 C511 1.409 . S
C511 C510 1.409 . S
C511 C512 1.416 . S
C511 C517 1.487 1_455 S
C512 H503 0.950 . S
C512 C511 1.416 . S
C512 C513 1.391 . S
C513 H501 0.950 . S
C513 C509 1.393 . S
C513 C512 1.391 . S
C514 H504 0.950 . S
C514 C515 1.386 . S
C514 C516 1.391 1_556 S
C515 C514 1.386 . S
C515 C519 1.393 . S
C516 H505 0.950 . S
C516 C514 1.391 1_554 S
C516 C517 1.400 . S
C517 C511 1.487 1_655 S
C517 C516 1.400 . S
C517 C518 1.398 . S
C518 H506 0.950 . S
C518 C517 1.398 . S
C518 C519 1.391 1_554 S
C519 H507 0.950 . S
C519 C515 1.393 . S
C519 C518 1.391 1_556 S
H520 C528 0.950 . S
H521 C533 0.950 . S
H522 C530 0.950 1_455 S
H523 C532 0.950 . S
H524 C534 0.939 . S
H525 C536 0.950 . S
H526 C538 0.950 . S
H527 C539 0.950 . S
C528 H520 0.950 . S
C528 C529 1.386 . S
C528 C530 1.391 . S
C529 C528 1.386 . S
C529 C533 1.393 . S
C530 H522 0.950 1_655 S
C530 C528 1.391 . S
C530 C531 1.400 . S
C531 C530 1.400 . S
C531 C532 1.398 . S
C531 C537 1.493 . S
C532 H523 0.950 . S
C532 C531 1.398 . S
C532 C533 1.391 . S
C533 H521 0.950 . S
C533 C529 1.393 . S
C533 C532 1.391 . S
C534 H524 0.939 . S
C534 C535 1.386 . S
C534 C536 1.391 1_456 S
C535 C534 1.386 . S
C535 C539 1.393 . S
C536 H525 0.950 . S
C536 C534 1.391 1_654 S
C536 C537 1.396 . S
C537 C531 1.493 . S
C537 C536 1.396 . S
C537 C538 1.400 1_655 S
C538 H526 0.950 . S
C538 C537 1.400 1_455 S
C538 C539 1.391 1_554 S
C539 H527 0.950 . S
C539 C535 1.393 . S
C539 C538 1.391 1_556 S
H540 C548 0.950 . S
H541 C553 0.950 . S
H542 C550 0.950 . S
H543 C552 0.950 . S
H544 C554 0.950 . S
H545 C556 0.950 . S
H546 C558 0.950 . S
H547 C559 0.950 . S
C548 H540 0.950 . S
C548 C549 1.386 . S
C548 C550 1.391 . S
C549 C548 1.386 . S
C549 C553 1.393 . S
C550 H542 0.950 . S
C550 C548 1.391 . S
C550 C551 1.400 . S
C551 C550 1.400 . S
C551 C552 1.398 . S
C551 C557 1.491 . S
C552 H543 0.950 . S
C552 C551 1.398 . S
C552 C553 1.391 . S
C553 H541 0.950 . S
C553 C549 1.393 . S
C553 C552 1.391 . S
C554 H544 0.950 . S
C554 C555 1.386 . S
C554 C556 1.391 . S
C555 C554 1.386 . S
C555 C559 1.393 . S
C556 H545 0.950 . S
C556 C554 1.391 . S
C556 C557 1.400 . S
C557 C551 1.491 . S
C557 C556 1.400 . S
C557 C558 1.398 . S
C558 H546 0.950 . S
C558 C557 1.398 . S
C558 C559 1.391 . S
C559 H547 0.950 . S
C559 C555 1.393 . S
C559 C558 1.391 . S
H560 C568 0.950 . S
H561 C573 0.950 . S
H562 C570 0.950 . S
H563 C572 0.950 . S
H564 C574 0.950 . S
H565 C576 0.950 . S
H566 C578 0.950 . S
H567 C579 0.950 . S
C568 H560 0.950 . S
C568 C569 1.386 . S
C568 C570 1.391 . S
C569 C568 1.386 . S
C569 C573 1.393 . S
C570 H562 0.950 . S
C570 C568 1.391 . S
C570 C571 1.400 . S
C571 C570 1.400 . S
C571 C572 1.398 . S
C571 C577 1.491 . S
C572 H563 0.950 . S
C572 C571 1.398 . S
C572 C573 1.391 . S
C573 H561 0.950 . S
C573 C569 1.393 . S
C573 C572 1.391 . S
C574 H564 0.950 . S
C574 C575 1.386 . S
C574 C576 1.391 . S
C575 C574 1.386 . S
C575 C579 1.393 . S
C576 H565 0.950 . S
C576 C574 1.391 . S
C576 C577 1.400 . S
C577 C571 1.491 . S
C577 C576 1.400 . S
C577 C578 1.398 . S
C578 H566 0.950 . S
C578 C577 1.398 . S
C578 C579 1.391 . S
C579 H567 0.950 . S
C579 C575 1.393 . S
C579 C578 1.391 . S
H580 C588 0.950 . S
H581 C593 0.950 . S
H582 C590 0.950 . S
H583 C592 0.950 . S
H584 C594 0.950 . S
H585 C596 0.950 . S
H586 C598 0.950 . S
H587 C599 0.950 . S
C588 H580 0.950 . S
C588 C589 1.386 . S
C588 C590 1.391 . S
C589 C588 1.386 . S
C589 C593 1.393 . S
C590 H582 0.950 . S
C590 C588 1.391 . S
C590 C591 1.400 . S
C591 C590 1.400 . S
C591 C592 1.398 . S
C591 C597 1.491 . S
C592 H583 0.950 . S
C592 C591 1.398 . S
C592 C593 1.391 . S
C593 H581 0.950 . S
C593 C589 1.393 . S
C593 C592 1.391 . S
C594 H584 0.950 . S
C594 C595 1.386 . S
C594 C596 1.391 . S
C595 C594 1.386 . S
C595 C599 1.393 . S
C596 H585 0.950 . S
C596 C594 1.391 . S
C596 C597 1.400 . S
C597 C591 1.491 . S
C597 C596 1.400 . S
C597 C598 1.398 . S
C598 H586 0.950 . S
C598 C597 1.398 . S
C598 C599 1.391 . S
C599 H587 0.950 . S
C599 C595 1.393 . S
C599 C598 1.391 . S
H600 C608 0.950 . S
H601 C613 0.950 . S
H602 C610 0.950 . S
H603 C612 0.950 . S
H604 C614 0.950 . S
H605 C616 0.950 . S
H606 C618 0.950 . S
H607 C619 0.950 . S
C608 H600 0.950 . S
C608 C609 1.386 . S
C608 C610 1.391 . S
C609 C608 1.386 . S
C609 C613 1.393 1_554 S
C610 H602 0.950 . S
C610 C608 1.391 . S
C610 C611 1.400 1_554 S
C611 C610 1.400 1_556 S
C611 C612 1.398 . S
C611 C617 1.491 . S
C612 H603 0.950 . S
C612 C611 1.398 . S
C612 C613 1.391 . S
C613 H601 0.950 . S
C613 C609 1.393 1_556 S
C613 C612 1.391 . S
C614 H604 0.950 . S
C614 C615 1.386 . S
C614 C616 1.391 . S
C615 C614 1.386 . S
C615 C619 1.393 . S
C616 H605 0.950 . S
C616 C614 1.391 . S
C616 C617 1.400 . S
C617 C611 1.491 . S
C617 C616 1.400 . S
C617 C618 1.398 . S
C618 H606 0.950 . S
C618 C617 1.398 . S
C618 C619 1.391 . S
C619 H607 0.950 . S
C619 C615 1.393 . S
C619 C618 1.391 . S
H620 C628 0.950 . S
H621 C633 0.950 . S
H622 C630 0.950 . S
H623 C632 0.950 . S
H624 C634 0.950 . S
H625 C636 0.950 . S
H626 C638 0.950 . S
H627 C639 0.950 . S
C628 H620 0.950 . S
C628 C629 1.386 . S
C628 C630 1.391 . S
C629 C628 1.386 . S
C629 C633 1.393 . S
C630 H622 0.950 . S
C630 C628 1.391 . S
C630 C631 1.400 . S
C631 C630 1.400 . S
C631 C632 1.398 . S
C631 C637 1.491 . S
C632 H623 0.950 . S
C632 C631 1.398 . S
C632 C633 1.391 . S
C633 H621 0.950 . S
C633 C629 1.393 . S
C633 C632 1.391 . S
C634 H624 0.950 . S
C634 C635 1.386 1_556 S
C634 C636 1.391 . S
C635 C634 1.386 1_554 S
C635 C639 1.393 . S
C636 H625 0.950 . S
C636 C634 1.391 . S
C636 C637 1.400 . S
C637 C631 1.491 . S
C637 C636 1.400 . S
C637 C638 1.398 1_556 S
C638 H626 0.950 . S
C638 C637 1.398 1_554 S
C638 C639 1.391 . S
C639 H627 0.950 . S
C639 C635 1.393 . S
C639 C638 1.391 . S
H640 C648 0.950 . S
H641 C653 0.950 . S
H642 C650 0.950 . S
H643 C652 0.950 . S
H644 C654 0.950 . S
H645 C656 0.950 . S
H646 C658 0.950 . S
H647 C659 0.950 . S
C648 H640 0.950 . S
C648 C649 1.386 . S
C648 C650 1.391 . S
C649 C648 1.386 . S
C649 C653 1.393 . S
C650 H642 0.950 . S
C650 C648 1.391 . S
C650 C651 1.400 . S
C651 C650 1.400 . S
C651 C652 1.398 . S
C651 C657 1.491 . S
C652 H643 0.950 . S
C652 C651 1.398 . S
C652 C653 1.391 . S
C653 H641 0.950 . S
C653 C649 1.393 . S
C653 C652 1.391 . S
C654 H644 0.950 . S
C654 C655 1.386 1_556 S
C654 C656 1.391 . S
C655 C654 1.386 1_554 S
C655 C659 1.393 . S
C656 H645 0.950 . S
C656 C654 1.391 . S
C656 C657 1.400 . S
C657 C651 1.491 . S
C657 C656 1.400 . S
C657 C658 1.398 1_556 S
C658 H646 0.950 . S
C658 C657 1.398 1_554 S
C658 C659 1.391 . S
C659 H647 0.950 . S
C659 C655 1.393 . S
C659 C658 1.391 . S
H660 C668 0.950 . S
H661 C673 0.950 . S
H662 C670 0.950 . S
H663 C672 0.949 1_554 S
H664 C674 0.950 . S
H665 C676 0.950 . S
H666 C678 0.950 1_556 S
H667 C679 0.950 . S
C668 H660 0.950 . S
C668 C669 1.386 . S
C668 C670 1.391 . S
C669 C668 1.386 . S
C669 C673 1.393 . S
C670 H662 0.950 . S
C670 C668 1.391 . S
C670 C671 1.400 . S
C671 C670 1.400 . S
C671 C672 1.399 . S
C671 C677 1.491 1_556 S
C672 H663 0.949 1_556 S
C672 C671 1.399 . S
C672 C673 1.392 . S
C673 H661 0.950 . S
C673 C669 1.393 . S
C673 C672 1.392 . S
C674 H664 0.950 . S
C674 C675 1.386 . S
C674 C676 1.391 . S
C675 C674 1.386 . S
C675 C679 1.393 . S
C676 H665 0.950 . S
C676 C674 1.391 . S
C676 C677 1.400 . S
C677 C671 1.491 1_554 S
C677 C676 1.400 . S
C677 C678 1.398 . S
C678 H666 0.950 1_554 S
C678 C677 1.398 . S
C678 C679 1.391 . S
C679 H667 0.950 . S
C679 C675 1.393 . S
C679 C678 1.391 . S
H680 C688 0.950 1_556 S
H681 C693 0.950 . S
H682 C690 0.950 . S
H683 C692 0.950 . S
H684 C694 0.950 1_554 S
H685 C696 0.950 . S
H686 C698 0.950 . S
H687 C699 0.950 . S
C688 H680 0.950 1_554 S
C688 C689 1.386 . S
C688 C690 1.391 1_554 S
C689 C688 1.386 . S
C689 C693 1.393 . S
C690 H682 0.950 . S
C690 C688 1.391 1_556 S
C690 C691 1.400 1_556 S
C691 C690 1.400 1_554 S
C691 C692 1.398 . S
C691 C697 1.491 1_554 S
C692 H683 0.950 . S
C692 C691 1.398 . S
C692 C693 1.391 . S
C693 H681 0.950 . S
C693 C689 1.393 . S
C693 C692 1.391 . S
C694 H684 0.950 1_556 S
C694 C695 1.386 . S
C694 C696 1.391 1_556 S
C695 C694 1.386 . S
C695 C699 1.393 . S
C696 H685 0.950 . S
C696 C694 1.391 1_554 S
C696 C697 1.400 1_554 S
C697 C691 1.491 1_556 S
C697 C696 1.400 1_556 S
C697 C698 1.398 . S
C698 H686 0.950 . S
C698 C697 1.398 . S
C698 C699 1.391 . S
C699 H687 0.950 . S
C699 C695 1.393 . S
C699 C698 1.391 . S
H700 C708 0.950 . S
H701 C713 0.950 . S
H702 C710 0.950 . S
H703 C712 0.950 . S
H704 C714 0.950 . S
H705 C716 0.950 . S
H706 C718 0.950 . S
H707 C719 0.950 . S
C708 H700 0.950 . S
C708 C709 1.386 1_554 S
C708 C710 1.391 . S
C709 C708 1.386 1_556 S
C709 C713 1.393 . S
C710 H702 0.950 . S
C710 C708 1.391 . S
C710 C711 1.400 1_554 S
C711 C710 1.400 1_556 S
C711 C712 1.398 . S
C711 C717 1.491 1_556 S
C712 H703 0.950 . S
C712 C711 1.398 . S
C712 C713 1.391 . S
C713 H701 0.950 . S
C713 C709 1.393 . S
C713 C712 1.391 . S
C714 H704 0.950 . S
C714 C715 1.386 1_556 S
C714 C716 1.391 . S
C715 C714 1.386 1_554 S
C715 C719 1.393 . S
C716 H705 0.950 . S
C716 C714 1.391 . S
C716 C717 1.400 1_556 S
C717 C711 1.491 1_554 S
C717 C716 1.400 1_554 S
C717 C718 1.398 . S
C718 H706 0.950 . S
C718 C717 1.398 . S
C718 C719 1.391 . S
C719 H707 0.950 . S
C719 C715 1.393 . S
C719 C718 1.391 . S
H720 C728 0.950 . S
H721 C733 0.950 . S
H722 C730 0.950 . S
H723 C732 0.950 . S
H724 C734 0.950 . S
H725 C736 0.950 . S
H726 C738 0.950 . S
H727 C739 0.950 . S
C728 H720 0.950 . S
C728 C729 1.386 . S
C728 C730 1.391 . S
C729 C728 1.386 . S
C729 C733 1.393 . S
C730 H722 0.950 . S
C730 C728 1.391 . S
C730 C731 1.400 . S
C731 C730 1.400 . S
C731 C732 1.398 . S
C731 C737 1.491 . S
C732 H723 0.950 . S
C732 C731 1.398 . S
C732 C733 1.391 . S
C733 H721 0.950 . S
C733 C729 1.393 . S
C733 C732 1.391 . S
C734 H724 0.950 . S
C734 C735 1.386 . S
C734 C736 1.391 . S
C735 C734 1.386 . S
C735 C739 1.393 . S
C736 H725 0.950 . S
C736 C734 1.391 . S
C736 C737 1.400 . S
C737 C731 1.491 . S
C737 C736 1.400 . S
C737 C738 1.398 . S
C738 H726 0.950 . S
C738 C737 1.398 . S
C738 C739 1.391 . S
C739 H727 0.950 . S
C739 C735 1.393 . S
C739 C738 1.391 . S
H740 C748 0.950 . S
H741 C753 0.950 . S
H742 C750 0.950 . S
H743 C752 0.950 . S
H744 C754 0.950 . S
H745 C756 0.950 . S
H746 C758 0.950 . S
H747 C759 0.950 . S
C748 H740 0.950 . S
C748 C749 1.386 . S
C748 C750 1.391 . S
C749 C748 1.386 . S
C749 C753 1.393 . S
C750 H742 0.950 . S
C750 C748 1.391 . S
C750 C751 1.400 . S
C751 C750 1.400 . S
C751 C752 1.398 . S
C751 C757 1.491 . S
C752 H743 0.950 . S
C752 C751 1.398 . S
C752 C753 1.391 . S
C753 H741 0.950 . S
C753 C749 1.393 . S
C753 C752 1.391 . S
C754 H744 0.950 . S
C754 C755 1.386 . S
C754 C756 1.391 . S
C755 C754 1.386 . S
C755 C759 1.393 . S
C756 H745 0.950 . S
C756 C754 1.391 . S
C756 C757 1.400 . S
C757 C751 1.491 . S
C757 C756 1.400 . S
C757 C758 1.398 . S
C758 H746 0.950 . S
C758 C757 1.398 . S
C758 C759 1.391 . S
C759 H747 0.950 . S
C759 C755 1.393 . S
C759 C758 1.391 . S
H760 C768 0.950 . S
H761 C773 0.950 . S
H762 C770 0.950 . S
H763 C772 0.950 . S
H764 C774 0.950 . S
H765 C776 0.950 . S
H766 C778 0.950 . S
H767 C779 0.950 . S
C768 H760 0.950 . S
C768 C769 1.386 . S
C768 C770 1.391 . S
C769 C768 1.386 . S
C769 C773 1.393 . S
C770 H762 0.950 . S
C770 C768 1.391 . S
C770 C771 1.400 . S
C771 C770 1.400 . S
C771 C772 1.398 . S
C771 C777 1.491 . S
C772 H763 0.950 . S
C772 C771 1.398 . S
C772 C773 1.391 . S
C773 H761 0.950 . S
C773 C769 1.393 . S
C773 C772 1.391 . S
C774 H764 0.950 . S
C774 C775 1.386 . S
C774 C776 1.391 . S
C775 C774 1.386 . S
C775 C779 1.393 . S
C776 H765 0.950 . S
C776 C774 1.391 . S
C776 C777 1.400 . S
C777 C771 1.491 . S
C777 C776 1.400 . S
C777 C778 1.398 . S
C778 H766 0.950 . S
C778 C777 1.398 . S
C778 C779 1.391 . S
C779 H767 0.950 . S
C779 C775 1.393 . S
C779 C778 1.391 . S
H780 C788 0.950 . S
H781 C793 0.950 . S
H782 C790 0.950 . S
H783 C792 0.950 . S
H784 C794 0.950 . S
H785 C796 0.950 . S
H786 C798 0.950 . S
H787 C799 0.950 . S
C788 H780 0.950 . S
C788 C789 1.386 . S
C788 C790 1.391 . S
C789 C788 1.386 . S
C789 C793 1.393 . S
C790 H782 0.950 . S
C790 C788 1.391 . S
C790 C791 1.400 . S
C791 C790 1.400 . S
C791 C792 1.398 . S
C791 C797 1.491 . S
C792 H783 0.950 . S
C792 C791 1.398 . S
C792 C793 1.391 . S
C793 H781 0.950 . S
C793 C789 1.393 . S
C793 C792 1.391 . S
C794 H784 0.950 . S
C794 C795 1.386 . S
C794 C796 1.391 . S
C795 C794 1.386 . S
C795 C799 1.393 . S
C796 H785 0.950 . S
C796 C794 1.391 . S
C796 C797 1.400 . S
C797 C791 1.491 . S
C797 C796 1.400 . S
C797 C798 1.398 . S
C798 H786 0.950 . S
C798 C797 1.398 . S
C798 C799 1.391 . S
C799 H787 0.950 . S
C799 C795 1.393 . S
C799 C798 1.391 . S
H800 C808 0.950 . S
H801 C813 0.950 . S
H802 C810 0.950 . S
H803 C812 0.950 . S
H804 C814 0.950 1_565 S
H805 C816 0.950 . S
H806 C818 0.950 . S
H807 C819 0.950 . S
C808 H800 0.950 . S
C808 C809 1.386 . S
C808 C810 1.391 . S
C809 C808 1.386 . S
C809 C813 1.393 . S
C810 H802 0.950 . S
C810 C808 1.391 . S
C810 C811 1.400 . S
C811 C810 1.400 . S
C811 C812 1.398 . S
C811 C817 1.491 . S
C812 H803 0.950 . S
C812 C811 1.398 . S
C812 C813 1.391 . S
C813 H801 0.950 . S
C813 C809 1.393 . S
C813 C812 1.391 . S
C814 H804 0.950 1_545 S
C814 C815 1.386 1_545 S
C814 C816 1.391 . S
C815 C814 1.386 1_565 S
C815 C819 1.393 . S
C816 H805 0.950 . S
C816 C814 1.391 . S
C816 C817 1.400 . S
C817 C811 1.491 . S
C817 C816 1.400 . S
C817 C818 1.398 . S
C818 H806 0.950 . S
C818 C817 1.398 . S
C818 C819 1.391 1_545 S
C819 H807 0.950 . S
C819 C815 1.393 . S
C819 C818 1.391 1_565 S
H820 C828 0.950 . S
H821 C833 0.950 . S
H822 C830 0.950 . S
H823 C832 0.950 . S
H824 C834 0.950 . S
H825 C836 0.950 . S
H826 C838 0.950 . S
H827 C839 0.950 . S
C828 H820 0.950 . S
C828 C829 1.386 . S
C828 C830 1.391 . S
C829 C828 1.386 . S
C829 C833 1.393 . S
C830 H822 0.950 . S
C830 C828 1.391 . S
C830 C831 1.400 . S
C831 C830 1.400 . S
C831 C832 1.398 . S
C831 C837 1.491 . S
C832 H823 0.950 . S
C832 C831 1.398 . S
C832 C833 1.391 . S
C833 H821 0.950 . S
C833 C829 1.393 . S
C833 C832 1.391 . S
C834 H824 0.950 . S
C834 C835 1.386 . S
C834 C836 1.391 . S
C835 C834 1.386 . S
C835 C839 1.393 . S
C836 H825 0.950 . S
C836 C834 1.391 . S
C836 C837 1.400 . S
C837 C831 1.491 . S
C837 C836 1.400 . S
C837 C838 1.398 . S
C838 H826 0.950 . S
C838 C837 1.398 . S
C838 C839 1.391 . S
C839 H827 0.950 . S
C839 C835 1.393 . S
C839 C838 1.391 . S
H840 C848 0.950 . S
H841 C853 0.950 . S
H842 C850 0.950 . S
H843 C852 0.950 . S
H844 C854 0.950 . S
H845 C856 0.950 . S
H846 C858 0.950 . S
H847 C859 0.950 . S
C848 H840 0.950 . S
C848 C849 1.386 . S
C848 C850 1.391 . S
C849 C848 1.386 . S
C849 C853 1.393 . S
C850 H842 0.950 . S
C850 C848 1.391 . S
C850 C851 1.400 . S
C851 C850 1.400 . S
C851 C852 1.398 . S
C851 C857 1.491 . S
C852 H843 0.950 . S
C852 C851 1.398 . S
C852 C853 1.391 . S
C853 H841 0.950 . S
C853 C849 1.393 . S
C853 C852 1.391 . S
C854 H844 0.950 . S
C854 C855 1.386 . S
C854 C856 1.391 . S
C855 C854 1.386 . S
C855 C859 1.393 . S
C856 H845 0.950 . S
C856 C854 1.391 . S
C856 C857 1.400 . S
C857 C851 1.491 . S
C857 C856 1.400 . S
C857 C858 1.398 . S
C858 H846 0.950 . S
C858 C857 1.398 . S
C858 C859 1.391 . S
C859 H847 0.950 . S
C859 C855 1.393 . S
C859 C858 1.391 . S
H860 C868 0.950 . S
H861 C873 0.950 . S
H862 C870 0.950 . S
H863 C872 0.950 . S
H864 C874 0.950 . S
H865 C876 0.950 . S
H866 C878 0.950 . S
H867 C879 0.950 . S
C868 H860 0.950 . S
C868 C869 1.386 . S
C868 C870 1.391 . S
C869 C868 1.386 . S
C869 C873 1.393 . S
C870 H862 0.950 . S
C870 C868 1.391 . S
C870 C871 1.400 . S
C871 C870 1.400 . S
C871 C872 1.398 . S
C871 C877 1.491 . S
C872 H863 0.950 . S
C872 C871 1.398 . S
C872 C873 1.391 . S
C873 H861 0.950 . S
C873 C869 1.393 . S
C873 C872 1.391 . S
C874 H864 0.950 . S
C874 C875 1.386 . S
C874 C876 1.391 . S
C875 C874 1.386 . S
C875 C879 1.393 . S
C876 H865 0.950 . S
C876 C874 1.391 . S
C876 C877 1.400 . S
C877 C871 1.491 . S
C877 C876 1.400 . S
C877 C878 1.398 . S
C878 H866 0.950 . S
C878 C877 1.398 . S
C878 C879 1.391 . S
C879 H867 0.950 . S
C879 C875 1.393 . S
C879 C878 1.391 . S
H880 C888 0.950 . S
H881 C893 0.950 . S
H882 C890 0.950 . S
H883 C892 0.950 . S
H884 C894 0.950 . S
H885 C896 0.950 . S
H886 C898 0.950 . S
H887 C899 0.950 . S
C888 H880 0.950 . S
C888 C889 1.386 . S
C888 C890 1.391 . S
C889 C888 1.386 . S
C889 C893 1.393 . S
C890 H882 0.950 . S
C890 C888 1.391 . S
C890 C891 1.400 . S
C891 C890 1.400 . S
C891 C892 1.398 . S
C891 C897 1.491 . S
C892 H883 0.950 . S
C892 C891 1.398 . S
C892 C893 1.391 . S
C893 H881 0.950 . S
C893 C889 1.393 . S
C893 C892 1.391 . S
C894 H884 0.950 . S
C894 C895 1.386 . S
C894 C896 1.391 . S
C895 C894 1.386 . S
C895 C899 1.393 . S
C896 H885 0.950 . S
C896 C894 1.391 . S
C896 C897 1.400 . S
C897 C891 1.491 . S
C897 C896 1.400 . S
C897 C898 1.398 . S
C898 H886 0.950 . S
C898 C897 1.398 . S
C898 C899 1.391 . S
C899 H887 0.950 . S
C899 C895 1.393 . S
C899 C898 1.391 . S
C369 C9 1.348 . S
C375 C18 1.348 . S
C389 C49 1.366 . S
C395 C58 1.366 . S
C409 C89 1.362 . S
C415 C98 1.362 . S
C429 C138 1.355 . S
C435 C129 1.355 1_556 S
C449 C178 1.362 . S
C455 C169 1.362 1_556 S
C469 C218 1.347 . S
C475 C209 1.347 1_556 S
C489 C259 1.260 . S
C495 C250 1.260 . S
C509 C299 1.295 . S
C515 C290 1.295 . S
C529 C339 1.259 . S
C535 C330 1.259 . S
C549 C210 2.610 . S
C555 C6 2.562 . S
C569 C46 2.566 . S
C575 C130 2.613 . S
C589 C86 2.550 1_565 S
C595 C170 2.607 . S
C609 C90 2.176 . S
C615 C249 2.313 . S
C629 C289 2.312 . S
C635 C10 2.168 . S
C649 C329 2.313 . S
C655 C50 2.171 . S
C669 C326 1.037 . S
C675 C15 1.026 . S
C689 C55 1.030 . S
C695 C246 1.036 . S
C709 C286 1.022 . S
C715 C95 1.024 . S
C729 C99 2.606 . S
C735 C135 2.551 . S
C749 C175 2.566 . S
C755 C19 2.614 . S
C769 C59 2.609 . S
C775 C215 2.561 . S
C789 C335 1.023 . S
C795 C126 1.038 . S
C809 C255 1.027 . S
C815 C166 1.021 . S
C829 C295 1.033 . S
C835 C206 1.033 . S
C849 C258 2.305 . S
C855 C219 2.184 . S
C869 C139 2.161 . S
C875 C298 2.308 . S
C889 C338 2.304 . S
C895 C179 2.162 . S
