# Generated by pormake.
# Topology qtz-e, (6)-cn, num edge types: 1
# Building blocks:
#     Node 0, Type 0, BuildingBlock: KUMBUR_clean_sbu_1, # of connection points: 6
#     Node 1, Type 0, BuildingBlock: KUMBUR_clean_sbu_1, # of connection points: 6
#     Node 2, Type 0, BuildingBlock: KUMBUR_clean_sbu_1, # of connection points: 6
#     Node 3, Type 0, BuildingBlock: KUMBUR_clean_sbu_1, # of connection points: 6
#     Node 4, Type 0, BuildingBlock: KUMBUR_clean_sbu_1, # of connection points: 6
#     Node 5, Type 0, BuildingBlock: KUMBUR_clean_sbu_1, # of connection points: 6
#     Edge 6, Type (0, 0), BuildingBlock: XIVTED_clean_linker_0, # of connection points: 2
#     Edge 7, Type (0, 0), BuildingBlock: XIVTED_clean_linker_0, # of connection points: 2
#     Edge 8, Type (0, 0), BuildingBlock: XIVTED_clean_linker_0, # of connection points: 2
#     Edge 9, Type (0, 0), BuildingBlock: XIVTED_clean_linker_0, # of connection points: 2
#     Edge 10, Type (0, 0), BuildingBlock: XIVTED_clean_linker_0, # of connection points: 2
#     Edge 11, Type (0, 0), BuildingBlock: XIVTED_clean_linker_0, # of connection points: 2
#     Edge 12, Type (0, 0), BuildingBlock: XIVTED_clean_linker_0, # of connection points: 2
#     Edge 13, Type (0, 0), BuildingBlock: XIVTED_clean_linker_0, # of connection points: 2
#     Edge 14, Type (0, 0), BuildingBlock: XIVTED_clean_linker_0, # of connection points: 2
#     Edge 15, Type (0, 0), BuildingBlock: XIVTED_clean_linker_0, # of connection points: 2
#     Edge 16, Type (0, 0), BuildingBlock: XIVTED_clean_linker_0, # of connection points: 2
#     Edge 17, Type (0, 0), BuildingBlock: XIVTED_clean_linker_0, # of connection points: 2
#     Edge 18, Type (0, 0), BuildingBlock: XIVTED_clean_linker_0, # of connection points: 2
#     Edge 19, Type (0, 0), BuildingBlock: XIVTED_clean_linker_0, # of connection points: 2
#     Edge 20, Type (0, 0), BuildingBlock: XIVTED_clean_linker_0, # of connection points: 2
#     Edge 21, Type (0, 0), BuildingBlock: XIVTED_clean_linker_0, # of connection points: 2
#     Edge 22, Type (0, 0), BuildingBlock: XIVTED_clean_linker_0, # of connection points: 2
#     Edge 23, Type (0, 0), BuildingBlock: XIVTED_clean_linker_0, # of connection points: 2
# Relax obj value: 0.149
# Max RMSD: 0.212
# Mean RMSD: 0.212
data_MOF--net-qtz-e--node1-KUMBUR_clean_sbu_1--edge1-XIVTED_clean_linker_0
_symmetry_space_group_name_H-M    P1
_symmetry_Int_Tables_number       1
_symmetry_cell_setting            triclinic
loop_
_symmetry_equiv_pos_as_xyz
'x, y, z'
_cell_length_a     27.932307
_cell_length_b     27.962845
_cell_length_c     49.230339
_cell_angle_alpha  90.01043
_cell_angle_beta   90.540921
_cell_angle_gamma 120.0338
loop_
_atom_site_label
_atom_site_type_symbol
_atom_site_fract_x
_atom_site_fract_y
_atom_site_fract_z
_atom_type_partial_charge
Tb0 Tb 0.17689 0.35172 0.98506 0.0
C1 C 0.36147 0.59532 0.01426 0.0
N2 N 0.34935 0.55008 0.02943 0.0
C3 C 0.44611 0.58469 0.03748 0.0
C4 C 0.4167 0.63608 0.00923 0.0
C5 C 0.3907 0.54488 0.04151 0.0
C6 C 0.45923 0.63001 0.02089 0.0
C7 C 0.32897 0.64681 0.98777 0.0
C8 C 0.31809 0.60052 0.00364 0.0
C9 C 0.38392 0.68701 0.98228 0.0
C10 C 0.42766 0.68166 0.99299 0.0
Tb11 Tb 0.25736 0.48738 0.03415 0.0
N12 N 0.26527 0.55985 0.00873 0.0
C13 C 0.2843 0.65162 0.97818 0.0
C14 C 0.22202 0.56674 0.0011 0.0
C15 C 0.23065 0.61187 0.98529 0.0
H16 H 0.38059 0.51104 0.05517 0.0
H17 H 0.19592 0.61642 0.97897 0.0
H18 H 0.05318 0.33202 0.96828 0.0
H19 H 0.24197 0.22522 0.03974 0.0
H20 H 0.18101 0.53907 0.0078 0.0
H21 H 0.29085 0.6866 0.96598 0.0
H22 H 0.25627 0.30489 0.01292 0.0
H23 H 0.47867 0.5806 0.04731 0.0
H24 H 0.39303 0.72269 0.97001 0.0
H25 H 0.46984 0.71327 0.98878 0.0
H26 H 0.95577 0.26119 0.97595 0.0
H27 H 0.50222 0.66057 0.01766 0.0
H28 H 0.14723 0.15095 0.0503 0.0
N29 N 0.08562 0.28838 0.98987 0.0
C30 C 0.07421 0.24227 0.00405 0.0
C31 C 0.98871 0.25541 0.984 0.0
C32 C 0.01924 0.20069 0.00881 0.0
C33 C 0.04394 0.29561 0.97984 0.0
C34 C 0.97626 0.20774 -0.00145 0.0
N35 N 0.17057 0.27939 0.00981 0.0
C36 C 0.21473 0.27449 0.01809 0.0
C37 C 0.10798 0.19033 0.02916 0.0
C38 C 0.11808 0.23743 0.01424 0.0
C39 C 0.1532 0.1865 0.03878 0.0
C40 C 0.20674 0.22851 0.03298 0.0
H41 H 0.93342 0.17672 0.00177 0.0
H42 H 0.96701 0.12135 0.02765 0.0
H43 H 0.04469 0.11213 0.04535 0.0
O44 O 0.21853 0.3319 0.9556 0.0
O45 O 0.14833 0.34481 0.02709 0.0
O46 O 0.22717 0.40431 0.05104 0.0
O47 O 0.13633 0.31641 0.9479 0.0
O48 O 0.26728 0.38847 0.9919 0.0
O49 O 0.28353 0.42566 0.03507 0.0
O50 O 0.21703 0.50945 0.0634 0.0
O51 O 0.28504 0.49392 0.99199 0.0
O52 O 0.20405 0.43461 0.97093 0.0
O53 O 0.30137 0.52954 0.06915 0.0
O54 O 0.16798 0.45253 0.0273 0.0
O55 O 0.14362 0.40888 0.985 0.0
C56 C 0.17544 0.36378 0.05013 0.0
C57 C 0.16232 0.25692 0.92652 0.0
C58 C 0.17409 0.20397 0.89 0.0
C59 C 0.13577 0.15493 0.90307 0.0
C60 C 0.12452 0.20739 0.93908 0.0
C61 C 0.11139 0.15678 0.92739 0.0
C62 C 0.18706 0.25506 0.902 0.0
C63 C 0.29997 0.41079 0.01332 0.0
C64 C 0.17671 0.31076 0.93876 0.0
C65 C 0.00899 0.1538 0.02377 0.0
C66 C 0.05324 0.1486 0.03389 0.0
C67 C 0.25608 0.47218 0.96975 0.0
C68 C 0.2473 0.50697 0.10789 0.0
C69 C 0.22803 0.51808 0.15478 0.0
C70 C 0.23192 0.47136 0.16188 0.0
C71 C 0.25271 0.4615 0.1154 0.0
C72 C 0.23425 0.53458 0.12748 0.0
C73 C 0.24397 0.44316 0.1422 0.0
C74 C 0.1337 0.43162 0.00633 0.0
C75 C 0.25897 0.52841 0.08017 0.0
H76 H 0.12387 0.11494 0.89431 0.0
H77 H 0.10497 0.20773 0.95783 0.0
H78 H 0.08192 0.11873 0.93716 0.0
H79 H 0.21685 0.29343 0.89253 0.0
H80 H 0.22801 0.45794 0.18278 0.0
H81 H 0.26491 0.44109 0.10066 0.0
H82 H 0.23056 0.56993 0.1215 0.0
H83 H 0.24821 0.40807 0.1479 0.0
Tb84 Tb 0.83498 0.18007 0.31833 0.0
C85 C 0.76798 0.35594 0.34669 0.0
N86 N 0.80343 0.34697 0.36203 0.0
C87 C 0.86407 0.44476 0.36685 0.0
C88 C 0.78039 0.40988 0.33989 0.0
C89 C 0.85008 0.39042 0.37285 0.0
C90 C 0.82945 0.45456 0.34998 0.0
C91 C 0.68167 0.31791 0.32145 0.0
C92 C 0.71968 0.31045 0.33734 0.0
C93 C 0.69426 0.37151 0.31411 0.0
C94 C 0.74353 0.41738 0.32329 0.0
Tb95 Tb 0.77854 0.25666 0.36936 0.0
N96 N 0.70954 0.25905 0.34439 0.0
C97 C 0.63153 0.27139 0.31403 0.0
C98 C 0.65815 0.2146 0.33971 0.0
C99 C 0.61919 0.21967 0.32379 0.0
H100 H 0.87543 0.38299 0.38685 0.0
H101 H 0.57909 0.18385 0.31965 0.0
H102 H 0.72883 0.05922 0.29997 0.0
H103 H 0.02566 0.23601 0.37312 0.0
H104 H 0.64546 0.17564 0.34919 0.0
H105 H 0.60111 0.27528 0.30189 0.0
H106 H 0.96217 0.25471 0.34694 0.0
H107 H 0.90127 0.47902 0.37543 0.0
H108 H 0.66575 0.37797 0.30172 0.0
H109 H 0.75246 0.45849 0.31769 0.0
H110 H 0.6995 0.96068 0.30608 0.0
H111 H 0.84048 0.49667 0.34528 0.0
H112 H 1.00228 0.13982 0.38216 0.0
N113 N 0.80462 0.0881 0.32171 0.0
C114 C 0.83842 0.07443 0.33547 0.0
C115 C 0.73863 0.99228 0.31448 0.0
C116 C 0.82347 0.01877 0.33933 0.0
C117 C 0.75521 0.04812 0.31121 0.0
C118 C 0.77288 0.97751 0.3286 0.0
N119 N 0.89977 0.16992 0.34269 0.0
C120 C 0.94955 0.21249 0.35144 0.0
C121 C 0.92371 0.10414 0.36077 0.0
C122 C 0.88769 0.11667 0.34623 0.0
C123 C 0.97341 0.14769 0.37092 0.0
C124 C 0.98659 0.20204 0.36598 0.0
H125 H 0.75986 0.93421 0.33115 0.0
H126 H 0.84839 0.96358 0.35712 0.0
H127 H 0.93629 0.0383 0.37574 0.0
O128 O 0.89665 0.22354 0.28936 0.0
O129 O 0.81055 0.14655 0.35934 0.0
O130 O 0.82863 0.22212 0.38558 0.0
O131 O 0.82972 0.14205 0.28056 0.0
O132 O 0.89087 0.26828 0.32816 0.0
O133 O 0.86691 0.28271 0.37101 0.0
O134 O 0.71517 0.22302 0.39835 0.0
O135 O 0.80684 0.29187 0.32896 0.0
O136 O 0.78298 0.21326 0.30551 0.0
O137 O 0.78901 0.30038 0.40568 0.0
O138 O 0.72512 0.1676 0.36059 0.0
O139 O 0.74543 0.15088 0.31703 0.0
C140 C 0.81772 0.17077 0.38304 0.0
C141 C 0.91586 0.16918 0.25986 0.0
C142 C 0.98316 0.18495 0.22442 0.0
C143 C 0.99412 0.14634 0.23718 0.0
C144 C 0.92748 0.13082 0.27212 0.0
C145 C 0.96639 0.11953 0.2608 0.0
C146 C 0.94366 0.19605 0.23599 0.0
C147 C 0.90015 0.29954 0.34992 0.0
C148 C 0.87611 0.18285 0.27202 0.0
C149 C 0.85913 0.00613 0.35393 0.0
C150 C 0.90915 0.0487 0.36458 0.0
C151 C 0.80068 0.26609 0.30591 0.0
C152 C 0.74614 0.24543 0.44356 0.0
C153 C 0.7125 0.22856 0.48988 0.0
C154 C 0.75013 0.21083 0.49653 0.0
C155 C 0.78491 0.22962 0.45069 0.0
C156 C 0.71039 0.24543 0.46326 0.0
C157 C 0.78647 0.21178 0.47699 0.0
C158 C 0.71228 0.13707 0.33824 0.0
C159 C 0.74287 0.26258 0.4158 0.0
H160 H 0.02359 0.13621 0.22868 0.0
H161 H 0.90659 0.1096 0.29038 0.0
H162 H 0.97504 0.08977 0.27037 0.0
H163 H 0.93513 0.22621 0.22672 0.0
H164 H 0.75238 0.1977 0.51698 0.0
H165 H 0.81422 0.23179 0.43599 0.0
H166 H 0.68089 0.25843 0.45789 0.0
H167 H 0.8163 0.19933 0.48235 0.0
Tb168 Tb 0.67083 0.83662 0.65038 0.0
C169 C 0.42919 0.78571 0.70649 0.0
N170 N 0.48306 0.82218 0.7123 0.0
C171 C 0.46002 0.89196 0.72284 0.0
C172 C 0.38853 0.80132 0.70809 0.0
C173 C 0.4989 0.87455 0.72083 0.0
C174 C 0.40462 0.85526 0.71633 0.0
C175 C 0.35954 0.69338 0.6924 0.0
C176 C 0.41481 0.73237 0.69903 0.0
C177 C 0.31882 0.70876 0.69374 0.0
C178 C 0.33326 0.76257 0.70164 0.0
Tb179 Tb 0.54153 0.78772 0.71047 0.0
N180 N 0.45545 0.7192 0.69772 0.0
C181 C 0.34696 0.64018 0.68456 0.0
C182 C 0.44328 0.66714 0.69049 0.0
C183 C 0.38902 0.62704 0.68364 0.0
H184 H 0.54139 0.90278 0.72657 0.0
H185 H 0.37965 0.58592 0.67775 0.0
H186 H 0.69885 0.7353 0.64477 0.0
H187 H 0.79634 0.05065 0.68273 0.0
H188 H 0.47494 0.65603 0.68991 0.0
H189 H 0.30498 0.609 0.67926 0.0
H190 H 0.7099 0.96734 0.67085 0.0
H191 H 0.47279 0.93358 0.7295 0.0
H192 H 0.27606 0.67936 0.68876 0.0
H193 H 0.30139 0.77379 0.7027 0.0
H194 H 0.78209 0.72567 0.64626 0.0
H195 H 0.37457 0.8688 0.71794 0.0
H196 H 0.88446 0.04997 0.68274 0.0
N197 N 0.74334 0.82148 0.65338 0.0
C198 C 0.79338 0.86692 0.65852 0.0
C199 C 0.78577 0.76558 0.64979 0.0
C200 C 0.84194 0.86341 0.65938 0.0
C201 C 0.73867 0.77107 0.64919 0.0
C202 C 0.83767 0.81198 0.65475 0.0
N203 N 0.7467 0.91715 0.6649 0.0
C204 C 0.747 0.96493 0.67116 0.0
C205 C 0.84605 0.9639 0.67092 0.0
C206 C 0.79519 0.91645 0.66435 0.0
C207 C 0.84625 0.0126 0.67759 0.0
C208 C 0.79653 0.01304 0.67773 0.0
H209 H 0.87404 0.80755 0.65522 0.0
H210 H 0.93071 0.9092 0.66585 0.0
H211 H 0.93437 0.99719 0.67586 0.0
O212 O 0.68212 0.88423 0.61535 0.0
O213 O 0.70442 0.83633 0.69102 0.0
O214 O 0.62477 0.82393 0.69902 0.0
O215 O 0.68247 0.80796 0.61277 0.0
O216 O 0.62985 0.88718 0.65519 0.0
O217 O 0.60058 0.87416 0.69991 0.0
O218 O 0.5289 0.73709 0.74437 0.0
O219 O 0.51112 0.78275 0.66896 0.0
O220 O 0.58167 0.77793 0.64951 0.0
O221 O 0.551 0.82228 0.74933 0.0
O222 O 0.56789 0.72657 0.70204 0.0
O223 O 0.62021 0.74635 0.66115 0.0
C224 C 0.66893 0.82722 0.70958 0.0
C225 C 0.74162 0.88016 0.58298 0.0
C226 C 0.79271 0.94497 0.54652 0.0
C227 C 0.83789 0.93723 0.55191 0.0
C228 C 0.78686 0.87212 0.58742 0.0
C229 C 0.83476 0.90087 0.57214 0.0
C230 C 0.74464 0.9163 0.56228 0.0
C231 C 0.60412 0.89574 0.67555 0.0
C232 C 0.69152 0.85223 0.5999 0.0
C233 C 0.89282 0.91094 0.66527 0.0
C234 C 0.89488 0.96105 0.67099 0.0
C235 C 0.54019 0.78707 0.64734 0.0
C236 C 0.48333 0.75716 0.77863 0.0
C237 C 0.41411 0.68837 0.80838 0.0
C238 C 0.38528 0.7176 0.80804 0.0
C239 C 0.45502 0.78697 0.77943 0.0
C240 C 0.46301 0.70821 0.79352 0.0
C241 C 0.40594 0.76684 0.79374 0.0
C242 C 0.5917 0.71364 0.68212 0.0
C243 C 0.53174 0.77458 0.7611 0.0
H244 H 0.87519 0.95825 0.54 0.0
H245 H 0.7854 0.84357 0.60258 0.0
H246 H 0.86947 0.89458 0.57585 0.0
H247 H 0.70977 0.92247 0.55862 0.0
H248 H 0.34785 0.70344 0.81966 0.0
H249 H 0.47038 0.82571 0.76898 0.0
H250 H 0.48496 0.68536 0.7934 0.0
H251 H 0.38418 0.78978 0.79399 0.0
Tb252 Tb 0.82966 0.65978 0.98801 0.0
C253 C 0.68583 0.41748 0.00758 0.0
N254 N 0.67932 0.45742 0.01977 0.0
C255 C 0.58286 0.40892 0.00767 0.0
C256 C 0.64156 0.37302 0.99369 0.0
C257 C 0.62805 0.45206 0.02122 0.0
C258 C 0.58985 0.3697 0.99341 0.0
C259 C 0.74456 0.37879 -0.00146 0.0
C260 C 0.73696 0.42104 0.00958 0.0
C261 C 0.70144 0.33565 0.98359 0.0
C262 C 0.65005 0.33285 0.98112 0.0
Tb263 Tb 0.75725 0.52895 0.03927 0.0
N264 N 0.77762 0.46332 0.02429 0.0
C265 C 0.7942 0.37968 0.00404 0.0
C266 C 0.82262 0.4599 0.03261 0.0
C267 C 0.83272 0.41952 0.02183 0.0
H268 H 0.62215 0.48092 0.0329 0.0
H269 H 0.86966 0.41852 0.02768 0.0
H270 H 0.95218 0.67649 0.97158 0.0
H271 H 0.76861 0.79657 0.03438 0.0
H272 H 0.85068 0.48792 0.04782 0.0
H273 H 0.80173 0.348 -0.00402 0.0
H274 H 0.75235 0.71007 0.01385 0.0
H275 H 0.54264 0.40574 0.00841 0.0
H276 H 0.7068 0.30327 0.97464 0.0
H277 H 0.61673 0.29864 0.97011 0.0
H278 H 0.04977 0.75046 0.97511 0.0
H279 H 0.55476 0.33617 0.98298 0.0
H280 H 0.8638 0.87543 0.03927 0.0
N281 N 0.92117 0.72427 0.99003 0.0
C282 C 0.93342 0.77383 0.00091 0.0
C283 C 0.01743 0.75749 0.98252 0.0
C284 C 0.98851 0.8175 0.00291 0.0
C285 C 0.96209 0.71546 0.9808 0.0
C286 C 0.03072 0.80874 0.99359 0.0
N287 N 0.83788 0.73666 0.00891 0.0
C288 C 0.79433 0.74259 0.01674 0.0
C289 C 0.90141 0.83153 0.02148 0.0
C290 C 0.89036 0.78051 0.01032 0.0
C291 C 0.85707 0.83692 0.03057 0.0
C292 C 0.80331 0.79237 0.028 0.0
H293 H 0.07362 0.84125 -0.0052 0.0
H294 H 0.04176 0.90237 0.01583 0.0
H295 H 0.96552 0.91477 0.03192 0.0
O296 O 0.78117 0.67015 0.95814 0.0
O297 O 0.86133 0.67669 0.03041 0.0
O298 O 0.79481 0.61038 0.05857 0.0
O299 O 0.86605 0.69519 0.95054 0.0
O300 O 0.74088 0.62415 -0.0033 0.0
O301 O 0.73114 0.59075 0.04002 0.0
O302 O 0.77448 0.49852 0.07501 0.0
O303 O 0.72723 0.52569 -0.00227 0.0
O304 O 0.805 0.57715 0.97285 0.0
O305 O 0.69622 0.49702 0.06944 0.0
O306 O 0.84756 0.56978 0.03338 0.0
O307 O 0.86336 0.60332 0.98924 0.0
C308 C 0.84174 0.6565 0.05466 0.0
C309 C 0.82898 0.74502 0.92824 0.0
C310 C 0.80354 0.78879 0.89213 0.0
C311 C 0.84055 0.84073 0.90357 0.0
C312 C 0.86605 0.79737 0.93897 0.0
C313 C 0.87152 0.84484 0.92677 0.0
C314 C 0.79793 0.74093 0.90474 0.0
C315 C 0.71173 0.60472 0.01902 0.0
C316 C 0.8219 0.69428 0.94122 0.0
C317 C 0.99967 0.86828 0.01415 0.0
C318 C 0.95624 0.87533 0.02333 0.0
C319 C 0.75533 0.53451 0.97541 0.0
C320 C 0.70906 0.46132 0.11208 0.0
C321 C 0.7291 0.43011 0.15433 0.0
C322 C 0.6799 0.42324 0.16531 0.0
C323 C 0.65952 0.45379 0.1231 0.0
C324 C 0.74345 0.4487 0.12772 0.0
C325 C 0.64505 0.43469 0.14962 0.0
C326 C 0.87645 0.58368 0.01076 0.0
C327 C 0.72698 0.48625 0.08523 0.0
H328 H 0.84662 0.87839 0.89422 0.0
H329 H 0.8911 0.80179 0.9566 0.0
H330 H 0.90031 0.88506 0.9352 0.0
H331 H 0.76924 0.7005 0.89642 0.0
H332 H 0.66842 0.40872 0.18593 0.0
H333 H 0.63251 0.4636 0.11143 0.0
H334 H 0.78191 0.45448 0.11954 0.0
H335 H 0.60706 0.42929 0.15812 0.0
Tb336 Tb 0.1805 0.83335 0.32416 0.0
C337 C 0.20975 0.63266 0.37205 0.0
N338 N 0.18727 0.66028 0.38426 0.0
C339 C 0.11931 0.57653 0.40526 0.0
C340 C 0.18634 0.57517 0.37503 0.0
C341 C 0.14359 0.63355 0.40134 0.0
C342 C 0.14007 0.54701 0.39162 0.0
C343 C 0.28387 0.63618 0.34524 0.0
C344 C 0.25803 0.66269 0.35757 0.0
C345 C 0.25941 0.57851 0.34712 0.0
C346 C 0.21078 0.54807 0.36202 0.0
Tb347 Tb 0.23048 0.75288 0.37641 0.0
N348 N 0.27969 0.71825 0.35564 0.0
C349 C 0.33379 0.66857 0.33172 0.0
C350 C 0.33045 0.75047 0.34427 0.0
C351 C 0.35759 0.72603 0.3316 0.0
H352 H 0.12781 0.65652 0.412 0.0
H353 H 0.39689 0.75152 0.32184 0.0
H354 H 0.28523 0.96113 0.32571 0.0
H355 H 0.97113 0.73984 0.36287 0.0
H356 H 0.3493 0.79479 0.34435 0.0
H357 H 0.35491 0.64977 0.32189 0.0
H358 H 0.04526 0.74153 0.33614 0.0
H359 H 0.08438 0.55534 0.41865 0.0
H360 H 0.2783 0.55721 0.33756 0.0
H361 H 0.19305 0.50377 0.36381 0.0
H362 H 0.30505 0.05111 0.34497 0.0
H363 H 0.12096 0.50282 0.39456 0.0
H364 H 0.98588 0.82417 0.38655 0.0
N365 N 0.20349 0.91779 0.3411 0.0
C366 C 0.163 0.9207 0.35479 0.0
C367 C 0.26503 0.0147 0.34794 0.0
C368 C 0.17267 0.97087 0.36636 0.0
C369 C 0.25377 0.96384 0.3371 0.0
C370 C 0.22441 0.01821 0.36274 0.0
N371 N 0.10533 0.82444 0.34715 0.0
C372 C 0.05424 0.77792 0.3476 0.0
C373 C 0.07036 0.87366 0.37308 0.0
C374 C 0.11269 0.87239 0.35827 0.0
C375 C 0.01948 0.82492 0.37537 0.0
C376 C 0.01114 0.77713 0.3622 0.0
H377 H 0.23345 0.05758 0.37133 0.0
H378 H 0.13754 0.01009 0.39066 0.0
H379 H 0.04789 0.92513 0.39639 0.0
O380 O 0.12011 0.82155 0.29399 0.0
O381 O 0.21476 0.86244 0.36534 0.0
O382 O 0.17802 0.78474 0.39113 0.0
O383 O 0.20591 0.88666 0.29066 0.0
O384 O 0.12926 0.74273 0.32714 0.0
O385 O 0.14379 0.72995 0.37173 0.0
O386 O 0.29769 0.80864 0.40064 0.0
O387 O 0.22684 0.73028 0.33366 0.0
O388 O 0.20956 0.78444 0.30311 0.0
O389 O 0.24271 0.72591 0.41434 0.0
O390 O 0.29076 0.83604 0.36291 0.0
O391 O 0.26929 0.8607 0.32105 0.0
C392 C 0.19191 0.83674 0.38798 0.0
C393 C 0.14488 0.88207 0.25403 0.0
C394 C 0.09108 0.86637 0.21182 0.0
C395 C 0.12847 0.92134 0.20437 0.0
C396 C 0.18069 0.93669 0.24598 0.0
C397 C 0.1724 0.95608 0.22139 0.0
C398 C 0.09969 0.84693 0.23695 0.0
C399 C 0.11749 0.71055 0.34853 0.0
C400 C 0.15675 0.86258 0.27983 0.0
C401 C 0.13085 0.97199 0.38147 0.0
C402 C 0.07986 0.92353 0.38481 0.0
C403 C 0.222 0.74598 0.30908 0.0
C404 C 0.28725 0.79421 0.44776 0.0
C405 C 0.32835 0.81462 0.49289 0.0
C406 C 0.29417 0.83589 0.50026 0.0
C407 C 0.2516 0.81314 0.45559 0.0
C408 C 0.32512 0.79438 0.46651 0.0
C409 C 0.25557 0.83474 0.48164 0.0
C410 C 0.30495 0.86345 0.3398 0.0
C411 C 0.28541 0.77341 0.42033 0.0
H412 H 0.12467 0.93757 0.18501 0.0
H413 H 0.21548 0.96456 0.25871 0.0
H414 H 0.20063 0.99816 0.2153 0.0
H415 H 0.07181 0.8048 0.24313 0.0
H416 H 0.29611 0.8516 0.5206 0.0
H417 H 0.22061 0.81047 0.44165 0.0
H418 H 0.35193 0.77851 0.46065 0.0
H419 H 0.22819 0.84977 0.48752 0.0
Tb420 Tb 0.35368 0.18073 0.65236 0.0
C421 C 0.5815 0.21365 0.70227 0.0
N422 N 0.52957 0.18483 0.71242 0.0
C423 C 0.54765 0.11417 0.7282 0.0
C424 C 0.61853 0.19345 0.70444 0.0
C425 C 0.51229 0.13583 0.72552 0.0
C426 C 0.60102 0.14314 0.71766 0.0
C427 C 0.65201 0.29643 0.68023 0.0
C428 C 0.59811 0.2645 0.69038 0.0
C429 C 0.68865 0.27582 0.68166 0.0
C430 C 0.67198 0.2245 0.69377 0.0
Tb431 Tb 0.47712 0.22584 0.70755 0.0
N432 N 0.5613 0.28282 0.68901 0.0
C433 C 0.66771 0.34853 0.66945 0.0
C434 C 0.57738 0.33491 0.68008 0.0
C435 C 0.63048 0.36816 0.66975 0.0
H436 H 0.47143 0.11388 0.73418 0.0
H437 H 0.64269 0.40892 0.66209 0.0
H438 H 0.32325 0.28041 0.65018 0.0
H439 H 0.23879 0.9685 0.68725 0.0
H440 H 0.54922 0.35062 0.68066 0.0
H441 H 0.7088 0.3744 0.66143 0.0
H442 H 0.31397 0.04655 0.6637 0.0
H443 H 0.53388 0.07533 0.73852 0.0
H444 H 0.73022 0.2996 0.67385 0.0
H445 H 0.70096 0.2095 0.69509 0.0
H446 H 0.2468 0.2945 0.66502 0.0
H447 H 0.62859 0.12668 0.72014 0.0
H448 H 0.16197 0.97702 0.7065 0.0
N449 N 0.28527 0.19776 0.66444 0.0
C450 C 0.24085 0.15553 0.6767 0.0
C451 C 0.24468 0.25526 0.66845 0.0
C452 C 0.19652 0.1618 0.6856 0.0
C453 C 0.2879 0.24723 0.66012 0.0
C454 C 0.19881 0.2124 0.68126 0.0
N455 N 0.28547 0.10273 0.67274 0.0
C456 C 0.2834 0.05287 0.67356 0.0
C457 C 0.19582 0.06196 0.6939 0.0
C458 C 0.24112 0.10661 0.68115 0.0
C459 C 0.19603 0.01235 0.69687 0.0
C460 C 0.23955 0.00753 0.68622 0.0
H461 H 0.16553 0.21886 0.6878 0.0
H462 H 0.11731 0.12169 0.70575 0.0
H463 H 0.11639 0.0341 0.71277 0.0
O464 O 0.33262 0.12709 0.61882 0.0
O465 O 0.34629 0.2033 0.69437 0.0
O466 O 0.39149 0.16928 0.71954 0.0
O467 O 0.31599 0.19402 0.61802 0.0
O468 O 0.3973 0.13332 0.65525 0.0
O469 O 0.41746 0.13913 0.70052 0.0
O470 O 0.48833 0.28778 0.73537 0.0
O471 O 0.49873 0.22721 0.66451 0.0
O472 O 0.4357 0.2359 0.6365 0.0
O473 O 0.5124 0.22793 0.74565 0.0
O474 O 0.44923 0.2848 0.69826 0.0
O475 O 0.40958 0.27123 0.65479 0.0
C476 C 0.35273 0.18256 0.71707 0.0
C477 C 0.25581 0.11285 0.59261 0.0
C478 C 0.2027 0.04674 0.55629 0.0
C479 C 0.15364 0.03797 0.56855 0.0
C480 C 0.20631 0.10341 0.60438 0.0
C481 C 0.15558 0.06612 0.59238 0.0
C482 C 0.25377 0.08446 0.5686 0.0
C483 C 0.41427 0.11737 0.67656 0.0
C484 C 0.31002 0.15063 0.60528 0.0
C485 C 0.15182 0.11772 0.69873 0.0
C486 C 0.15142 0.06791 0.70283 0.0
C487 C 0.48224 0.2361 0.64084 0.0
C488 C 0.48688 0.26504 0.78149 0.0
C489 C 0.50246 0.29852 0.82798 0.0
C490 C 0.44847 0.25753 0.83453 0.0
C491 C 0.43414 0.22253 0.78843 0.0
C492 C 0.52107 0.30263 0.8013 0.0
C493 C 0.41456 0.21937 0.81478 0.0
C494 C 0.43656 0.30283 0.67609 0.0
C495 C 0.50841 0.26967 0.75411 0.0
H496 H 0.11367 0.00993 0.55954 0.0
H497 H 0.20675 0.1247 0.62279 0.0
H498 H 0.11754 0.05909 0.60155 0.0
H499 H 0.29207 0.09117 0.55981 0.0
H500 H 0.43343 0.2538 0.85506 0.0
H501 H 0.40905 0.1915 0.77361 0.0
H502 H 0.56255 0.33465 0.79607 0.0
H503 H 0.37368 0.18664 0.8201 0.0
H504 H 0.1957 0.63826 0.30954 0.0
H505 H 0.27899 0.63088 0.15727 0.0
H506 H 0.25119 0.77886 0.25659 0.0
H507 H 0.16551 0.48381 0.20103 0.0
H508 H 0.27547 0.6871 0.19407 0.0
H509 H 0.19361 0.58258 0.27112 0.0
C510 C 0.20857 0.65774 0.28993 0.0
C511 C 0.22453 0.71348 0.28629 0.0
C512 C 0.25098 0.64253 0.19546 0.0
C513 C 0.22094 0.64963 0.24214 0.0
C514 C 0.25255 0.61029 0.17438 0.0
C515 C 0.22248 0.55237 0.17604 0.0
C516 C 0.21991 0.61675 0.21858 0.0
C517 C 0.19012 0.52824 0.19908 0.0
C518 C 0.2064 0.62564 0.26791 0.0
C519 C 0.23879 0.73602 0.26021 0.0
N520 N 0.19007 0.5606 0.2196 0.0
N521 N 0.23696 0.704 0.23905 0.0
H522 H 0.46057 0.14917 0.60933 0.0
H523 H 0.70038 0.31624 0.50361 0.0
H524 H 0.57204 0.3242 0.61816 0.0
H525 H 0.64309 0.14597 0.52359 0.0
H526 H 0.64164 0.31978 0.53945 0.0
H527 H 0.5151 0.14724 0.57115 0.0
C528 C 0.49663 0.1872 0.60307 0.0
C529 C 0.51293 0.23673 0.61694 0.0
C530 C 0.64201 0.28173 0.53591 0.0
C531 C 0.57446 0.23514 0.57336 0.0
C532 C 0.6751 0.27959 0.51547 0.0
C533 C 0.67639 0.23076 0.51085 0.0
C534 C 0.60939 0.2344 0.55134 0.0
C535 C 0.64335 0.18443 0.52675 0.0
C536 C 0.52763 0.18607 0.58142 0.0
C537 C 0.55914 0.28518 0.60806 0.0
N538 N 0.61086 0.18727 0.54626 0.0
N539 N 0.58856 0.28328 0.58665 0.0
H540 H 0.20782 0.43863 0.91959 0.0
H541 H 0.47586 0.66835 0.84475 0.0
H542 H 0.36402 0.54762 0.95929 0.0
H543 H 0.30985 0.59963 0.81278 0.0
H544 H 0.44053 0.60043 0.8813 0.0
H545 H 0.25046 0.47561 0.87572 0.0
C546 C 0.25113 0.47009 0.91909 0.0
C547 C 0.28213 0.49117 0.94314 0.0
C548 C 0.41205 0.59951 0.86594 0.0
C549 C 0.33101 0.53276 0.89315 0.0
C550 C 0.43218 0.63792 0.84502 0.0
C551 C 0.39536 0.64011 0.82621 0.0
C552 C 0.35488 0.56332 0.86791 0.0
C553 C 0.33923 0.5999 0.82738 0.0
C554 C 0.27542 0.49086 0.89406 0.0
C555 C 0.3383 0.53105 0.94128 0.0
N556 N 0.32045 0.56353 0.84822 0.0
N557 N 0.36086 0.55097 0.91668 0.0
H558 H 0.79035 0.22625 0.25413 0.0
H559 H 0.79642 0.49085 0.19588 0.0
H560 H 0.84122 0.37665 0.2995 0.0
H561 H 0.74232 0.34075 0.15017 0.0
H562 H 0.84026 0.4597 0.22924 0.0
H563 H 0.7989 0.27617 0.21212 0.0
C564 C 0.80371 0.26986 0.25524 0.0
C565 C 0.81278 0.29689 0.28035 0.0
C566 C 0.81979 0.43392 0.21166 0.0
C567 C 0.82271 0.35405 0.23255 0.0
C568 C 0.79489 0.45174 0.19273 0.0
C569 C 0.76506 0.41748 0.1709 0.0
C570 C 0.81309 0.38085 0.20897 0.0
C571 C 0.76449 0.36764 0.16716 0.0
C572 C 0.80892 0.29841 0.23125 0.0
C573 C 0.83169 0.35371 0.28062 0.0
N574 N 0.78709 0.35007 0.18644 0.0
N575 N 0.83505 0.38021 0.25708 0.0
H576 H 0.44344 0.70552 0.62678 0.0
H577 H 0.40996 0.89768 0.52307 0.0
H578 H 0.58087 0.8666 0.60873 0.0
H579 H 0.32987 0.72225 0.50809 0.0
H580 H 0.46885 0.88852 0.55766 0.0
H581 H 0.39605 0.71041 0.58549 0.0
C582 C 0.46396 0.74129 0.61373 0.0
C583 C 0.51609 0.78547 0.62073 0.0
C584 C 0.43874 0.85223 0.54654 0.0
C585 C 0.46204 0.79226 0.57461 0.0
C586 C 0.40508 0.85739 0.52709 0.0
C587 C 0.3653 0.81059 0.513 0.0
C588 C 0.4313 0.79975 0.55224 0.0
C589 C 0.36035 0.75919 0.51864 0.0
C590 C 0.4371 0.74413 0.59034 0.0
C591 C 0.54107 0.83143 0.60368 0.0
N592 N 0.39254 0.75492 0.53817 0.0
N593 N 0.51331 0.83416 0.58153 0.0
H594 H 0.76439 0.45566 0.94756 0.0
H595 H 0.48726 0.36496 0.86319 0.0
H596 H 0.6776 0.54648 0.94891 0.0
H597 H 0.60436 0.31473 0.84037 0.0
H598 H 0.55298 0.4264 0.89784 0.0
H599 H 0.70321 0.39812 0.91034 0.0
C600 C 0.73293 0.46386 0.9396 0.0
C601 C 0.72518 0.50519 0.95103 0.0
C602 C 0.56431 0.40203 0.88517 0.0
C603 C 0.65549 0.44023 0.9093 0.0
C604 C 0.52679 0.3669 0.86562 0.0
C605 C 0.54081 0.33518 0.84909 0.0
C606 C 0.61557 0.40451 0.88837 0.0
C607 C 0.59249 0.33906 0.85273 0.0
C608 C 0.69805 0.43115 0.91857 0.0
C609 C 0.6838 0.51431 0.94063 0.0
N610 N 0.62803 0.37295 0.87215 0.0
N611 N 0.6501 0.48182 0.92037 0.0
H612 H 0.36692 0.45603 0.96955 0.0
H613 H 0.64054 0.57764 0.06182 0.0
H614 H 0.36839 0.40901 0.05273 0.0
H615 H 0.64575 0.5913 0.97455 0.0
H616 H 0.53943 0.5251 0.05914 0.0
H617 H 0.46835 0.50824 0.97041 0.0
C618 C 0.3887 0.45567 0.98778 0.0
C619 C 0.35946 0.42921 0.01129 0.0
C620 C 0.56274 0.53945 0.04055 0.0
C621 C 0.47513 0.48937 0.01261 0.0
C622 C 0.62047 0.5702 0.04209 0.0
C623 C 0.6518 0.58649 0.01825 0.0
C624 C 0.53612 0.52587 0.01502 0.0
C625 C 0.62342 0.57702 0.99333 0.0
C626 C 0.44654 0.48586 0.98836 0.0
C627 C 0.38956 0.4295 0.0343 0.0
N628 N 0.56722 0.5466 0.9923 0.0
N629 N 0.44575 0.45992 0.03455 0.0
H630 H 0.10454 0.64526 0.3045 0.0
H631 H 0.96033 0.3699 0.39145 0.0
H632 H 0.0436 0.639 0.38518 0.0
H633 H 0.93586 0.36428 0.30465 0.0
H634 H 0.01109 0.47111 0.38952 0.0
H635 H 0.05727 0.54379 0.30365 0.0
C636 C 0.08098 0.62247 0.32196 0.0
C637 C 0.08001 0.65034 0.34546 0.0
C638 C 0.99524 0.44764 0.37087 0.0
C639 C 0.02606 0.535 0.34463 0.0
C640 C 0.96678 0.38998 0.37192 0.0
C641 C 0.94247 0.35883 0.34832 0.0
C642 C 1.00092 0.47416 0.3459 0.0
C643 C 0.95295 0.38682 0.32344 0.0
C644 C 0.05416 0.56472 0.32148 0.0
C645 C 0.04702 0.61895 0.36709 0.0
N646 N 0.98098 0.44303 0.32288 0.0
N647 N 0.02212 0.56291 0.36638 0.0
H648 H 0.37442 0.01031 0.69186 0.0
H649 H 0.64846 0.00531 0.6877 0.0
H650 H 0.51297 0.14642 0.65281 0.0
H651 H 0.50303 0.86591 0.65335 0.0
H652 H 0.60184 0.06012 0.68385 0.0
H653 H 0.42137 0.95589 0.68752 0.0
C654 C 0.41443 0.02849 0.68223 0.0
C655 C 0.43972 0.08267 0.67247 0.0
C656 C 0.58039 0.01749 0.67724 0.0
C657 C 0.49418 0.02203 0.66856 0.0
C658 C 0.60698 0.98644 0.67924 0.0
C659 C 0.57946 0.93105 0.67092 0.0
C660 C 0.52534 0.99216 0.66796 0.0
C661 C 0.52574 0.90841 0.66002 0.0
C662 C 0.44111 0.99763 0.67982 0.0
C663 C 0.49174 0.10462 0.66026 0.0
N664 N 0.49985 0.93864 0.65944 0.0
N665 N 0.51784 0.07464 0.65912 0.0
H666 H 0.58677 0.65257 0.6371 0.0
H667 H 0.45257 0.36856 0.71981 0.0
H668 H 0.5578 0.63892 0.72345 0.0
H669 H 0.46296 0.37345 0.63238 0.0
H670 H 0.49344 0.46829 0.72087 0.0
H671 H 0.54688 0.55199 0.63452 0.0
C672 C 0.5729 0.62865 0.65558 0.0
C673 C 0.5756 0.65438 0.68055 0.0
C674 C 0.48663 0.44784 0.70137 0.0
C675 C 0.52913 0.53921 0.67762 0.0
C676 C 0.46309 0.39066 0.70073 0.0
C677 C 0.45435 0.36249 0.67594 0.0
C678 C 0.50216 0.47778 0.67704 0.0
C679 C 0.46857 0.39348 0.65191 0.0
C680 C 0.54958 0.57115 0.65402 0.0
C681 C 0.55637 0.62105 0.70374 0.0
N682 N 0.4922 0.44962 0.65306 0.0
N683 N 0.53389 0.56543 0.70167 0.0
H684 H 0.08011 0.4431 0.96135 0.0
H685 H 0.94599 0.58544 0.05035 0.0
H686 H 0.08611 0.45323 0.04889 0.0
H687 H 0.90438 0.54537 0.96569 0.0
H688 H 0.00539 0.54465 0.04836 0.0
H689 H 0.01925 0.48331 0.96092 0.0
C690 C 0.06776 0.45264 0.98045 0.0
C691 C 0.0885 0.44502 0.00519 0.0
C692 C 0.98363 0.54499 0.03011 0.0
C693 C 0.0204 0.49229 0.0048 0.0
C694 C 0.95012 0.56877 0.03122 0.0
C695 C 0.91989 0.56832 0.00825 0.0
C696 C 0.98751 0.52087 0.00577 0.0
C697 C 0.92704 0.54653 0.98388 0.0
C698 C 0.03355 0.47615 0.98018 0.0
C699 C 0.07161 0.45878 0.02931 0.0
N700 N 0.9598 0.52322 0.98331 0.0
N701 N 0.03916 0.48212 0.02848 0.0
H702 H 0.36492 0.9168 0.29366 0.0
H703 H 0.64902 0.07347 0.37942 0.0
H704 H 0.38265 0.90377 0.38015 0.0
H705 H 0.6445 0.09467 0.29287 0.0
H706 H 0.55078 0.00653 0.37828 0.0
H707 H 0.46593 0.97983 0.29122 0.0
C708 C 0.38973 0.92724 0.31208 0.0
C709 C 0.36494 0.90443 0.3371 0.0
C710 C 0.57095 0.02526 0.35937 0.0
C711 C 0.48005 0.97573 0.33442 0.0
C712 C 0.62732 0.06339 0.36005 0.0
C713 C 0.65496 0.08976 0.33624 0.0
C714 C 0.54124 0.01333 0.33471 0.0
C715 C 0.62471 0.07492 0.31167 0.0
C716 C 0.44734 0.96288 0.31064 0.0
C717 C 0.39933 0.91936 0.36028 0.0
N718 N 0.56919 0.03804 0.31155 0.0
N719 N 0.45458 0.95369 0.35832 0.0
H720 H 0.3114 0.10546 0.75755 0.0
H721 H 0.19843 0.27053 0.84492 0.0
H722 H 0.32052 0.25657 0.73095 0.0
H723 H 0.20836 0.1309 0.87528 0.0
H724 H 0.23792 0.26313 0.80203 0.0
H725 H 0.2656 0.10925 0.79916 0.0
C726 C 0.3035 0.13928 0.76048 0.0
C727 C 0.3208 0.18139 0.74115 0.0
C728 C 0.23139 0.23408 0.81808 0.0
C729 C 0.26848 0.18616 0.7886 0.0
C730 C 0.2092 0.23854 0.84271 0.0
C731 C 0.19976 0.20124 0.8639 0.0
C732 C 0.2443 0.19193 0.81445 0.0
C733 C 0.21389 0.1601 0.85949 0.0
C734 C 0.27747 0.14154 0.78421 0.0
C735 C 0.30855 0.2237 0.74558 0.0
N736 N 0.23532 0.15657 0.83535 0.0
N737 N 0.28368 0.22532 0.76894 0.0
H738 H 0.09287 0.22684 0.21246 0.0
H739 H 0.06635 0.31972 0.06147 0.0
H740 H 0.94101 0.20703 0.17844 0.0
H741 H 0.21908 0.34311 0.09587 0.0
H742 H 0.01943 0.27682 0.10387 0.0
H743 H 0.13977 0.26927 0.17007 0.0
C744 C 0.06928 0.23122 0.19605 0.0
C745 C 0.01273 0.21303 0.19906 0.0
C746 C 0.06328 0.29157 0.10227 0.0
C747 C 0.06644 0.26192 0.15032 0.0
C748 C 0.09002 0.31588 0.07803 0.0
C749 C 0.14696 0.33622 0.07546 0.0
C750 C 0.09355 0.28697 0.12407 0.0
C751 C 0.17551 0.32963 0.09738 0.0
C752 C 0.0962 0.25568 0.17185 0.0
C753 C 0.98469 0.2208 0.1772 0.0
N754 N 0.14858 0.30574 0.12079 0.0
N755 N 0.01174 0.24441 0.15377 0.0
H756 H 0.8778 0.04833 0.53401 0.0
H757 H 0.74144 0.06428 0.39316 0.0
H758 H 0.71445 0.92454 0.5073 0.0
H759 H 0.88668 0.20358 0.42766 0.0
H760 H 0.73389 0.01059 0.4338 0.0
H761 H 0.88426 0.10467 0.4946 0.0
C762 C 0.84323 0.03308 0.51987 0.0
C763 C 0.79555 0.98154 0.52391 0.0
C764 C 0.76729 0.05296 0.43261 0.0
C765 C 0.80283 0.04565 0.47866 0.0
C766 C 0.77172 0.08347 0.40939 0.0
C767 C 0.81417 0.13856 0.4074 0.0
C768 C 0.80627 0.07741 0.45381 0.0
C769 C 0.85276 0.16144 0.42875 0.0
C770 C 0.84689 0.06533 0.49744 0.0
C771 C 0.75179 0.96414 0.50511 0.0
N772 N 0.84796 0.13072 0.4511 0.0
N773 N 0.75667 0.99589 0.48322 0.0
H774 H 0.65683 0.87042 0.75699 0.0
H775 H 0.78427 0.72194 0.84762 0.0
H776 H 0.70036 0.75395 0.72524 0.0
H777 H 0.75293 0.8482 0.87822 0.0
H778 H 0.74153 0.72352 0.80428 0.0
H779 H 0.67928 0.85322 0.80299 0.0
C780 C 0.66945 0.83992 0.75989 0.0
C781 C 0.67541 0.81244 0.73756 0.0
C782 C 0.74362 0.75061 0.82054 0.0
C783 C 0.70357 0.79424 0.78976 0.0
C784 C 0.76771 0.74945 0.84539 0.0
C785 C 0.77275 0.78535 0.86659 0.0
C786 C 0.72424 0.7879 0.81677 0.0
C787 C 0.75094 0.8205 0.86232 0.0
C788 C 0.68307 0.83067 0.78605 0.0
C789 C 0.69471 0.77548 0.7421 0.0
N790 N 0.728 0.82112 0.8379 0.0
N791 N 0.70823 0.76752 0.76765 0.0
H792 H 0.04652 0.75459 0.20072 0.0
H793 H 0.91798 0.76714 0.06058 0.0
H794 H 0.03007 0.89517 0.17852 0.0
H795 H 0.84086 0.61427 0.10503 0.0
H796 H 0.97157 0.8149 0.1011 0.0
H797 H 0.98043 0.70094 0.16423 0.0
C798 C 0.02868 0.7741 0.18854 0.0
C799 C 0.04519 0.83016 0.1925 0.0
C800 C 0.9426 0.77093 0.102 0.0
C801 C 0.97096 0.76933 0.15026 0.0
C802 C 0.91196 0.74359 0.07878 0.0
C803 C 0.87412 0.68673 0.07929 0.0
C804 C 0.93689 0.74099 0.12581 0.0
C805 C 0.86899 0.65836 0.10373 0.0
C806 C 0.99121 0.74346 0.16762 0.0
C807 C 0.0205 0.85289 0.17579 0.0
N808 N 0.90048 0.68562 0.12593 0.0
N809 N 0.98561 0.82283 0.15519 0.0
H810 H 0.27072 0.08617 0.51193 0.0
H811 H 0.11512 0.80059 0.42835 0.0
H812 H 0.12938 0.93864 0.54217 0.0
H813 H 0.26271 0.94496 0.40085 0.0
H814 H 0.11592 0.85209 0.4689 0.0
H815 H 0.2659 0.03636 0.47026 0.0
C816 C 0.23884 0.04323 0.50993 0.0
C817 C 0.20045 0.01671 0.53075 0.0
C818 C 0.14798 0.87265 0.45394 0.0
C819 C 0.19422 0.95941 0.48269 0.0
C820 C 0.14744 0.84328 0.43081 0.0
C821 C 0.18916 0.86848 0.4114 0.0
C822 C 0.1905 0.92769 0.45764 0.0
C823 C 0.22983 0.92398 0.41537 0.0
C824 C 0.23587 0.01487 0.48599 0.0
C825 C 0.15947 0.96116 0.52663 0.0
N826 N 0.22968 0.9516 0.43809 0.0
N827 N 0.15751 0.93443 0.50316 0.0
loop_
_geom_bond_atom_site_label_1
_geom_bond_atom_site_label_2
_geom_bond_distance
_geom_bond_site_symmetry_2
_ccdc_geom_bond_type
Tb0 N29 2.618 . S
Tb0 N35 2.572 1_556 S
Tb0 O44 2.465 . S
Tb0 O45 2.387 1_556 S
Tb0 O47 2.428 . S
Tb0 O48 2.308 1_556 S
Tb0 O52 2.349 . S
Tb0 O55 2.393 . S
Tb0 C64 2.802 . S
C1 N2 1.379 . S
C1 C4 1.416 . S
C1 C8 1.424 . S
N2 C1 1.379 . S
N2 C5 1.334 . S
N2 Tb11 2.617 . S
C3 C5 1.390 . S
C3 C6 1.339 . S
C3 H23 0.930 . S
C4 C1 1.416 . S
C4 C6 1.416 . S
C4 C10 1.448 . S
C5 N2 1.334 . S
C5 C3 1.390 . S
C5 H16 0.930 . S
C6 C3 1.339 . S
C6 C4 1.416 . S
C6 H27 0.930 . S
C7 C8 1.413 . S
C7 C9 1.427 . S
C7 C13 1.415 1_554 S
C8 C1 1.424 . S
C8 C7 1.413 . S
C8 N12 1.361 . S
C9 C7 1.427 . S
C9 C10 1.328 . S
C9 H24 0.929 1_554 S
C10 C4 1.448 . S
C10 C9 1.328 . S
C10 H25 0.930 . S
Tb11 N2 2.617 . S
Tb11 N12 2.572 . S
Tb11 O46 2.349 . S
Tb11 O49 2.393 . S
Tb11 O50 2.465 . S
Tb11 O51 2.387 1_554 S
Tb11 O53 2.428 . S
Tb11 O54 2.308 . S
Tb11 C75 2.802 . S
N12 C8 1.361 . S
N12 Tb11 2.572 . S
N12 C14 1.340 . S
C13 C7 1.415 1_556 S
C13 C15 1.331 1_556 S
C13 H21 0.934 . S
C14 N12 1.340 . S
C14 C15 1.407 . S
C14 H20 0.930 . S
C15 C13 1.331 1_554 S
C15 C14 1.407 . S
C15 H17 0.923 1_554 S
H16 C5 0.930 . S
H17 C15 0.923 1_556 S
H18 C33 0.930 . S
H19 C40 0.929 . S
H20 C14 0.930 . S
H21 C13 0.934 . S
H22 C36 0.930 . S
H23 C3 0.930 . S
H24 C9 0.929 1_556 S
H25 C10 0.930 . S
H26 C31 0.930 . S
H27 C6 0.930 . S
H28 C39 0.931 . S
N29 Tb0 2.618 . S
N29 C30 1.373 1_556 S
N29 C33 1.338 . S
C30 N29 1.373 1_554 S
C30 C32 1.416 . S
C30 C38 1.424 . S
C31 H26 0.930 . S
C31 C33 1.390 1_655 S
C31 C34 1.339 1_556 S
C32 C30 1.416 . S
C32 C34 1.416 1_455 S
C32 C65 1.448 1_455 S
C33 H18 0.930 . S
C33 N29 1.338 . S
C33 C31 1.390 1_455 S
C34 C31 1.339 1_554 S
C34 C32 1.416 1_655 S
C34 H41 0.930 . S
N35 Tb0 2.572 1_554 S
N35 C36 1.340 . S
N35 C38 1.361 . S
C36 H22 0.930 . S
C36 N35 1.340 . S
C36 C40 1.407 . S
C37 C38 1.413 . S
C37 C39 1.416 . S
C37 C66 1.427 . S
C38 C30 1.424 . S
C38 N35 1.361 . S
C38 C37 1.413 . S
C39 H28 0.931 . S
C39 C37 1.416 . S
C39 C40 1.332 . S
C40 H19 0.929 . S
C40 C36 1.407 . S
C40 C39 1.332 . S
H41 C34 0.930 . S
H42 C65 0.930 . S
H43 C66 0.929 . S
O44 Tb0 2.465 . S
O44 C64 1.264 . S
O45 Tb0 2.387 1_554 S
O45 C56 1.264 . S
O46 Tb11 2.349 . S
O46 C56 1.243 . S
O47 Tb0 2.428 . S
O47 C64 1.256 . S
O48 Tb0 2.308 1_554 S
O48 C63 1.266 . S
O49 Tb11 2.393 . S
O49 C63 1.248 . S
O50 Tb11 2.465 . S
O50 C75 1.264 . S
O51 Tb11 2.387 1_556 S
O51 C67 1.264 . S
O52 Tb0 2.349 . S
O52 C67 1.243 . S
O53 Tb11 2.428 . S
O53 C75 1.256 . S
O54 Tb11 2.308 . S
O54 C74 1.266 . S
O55 Tb0 2.393 . S
O55 C74 1.248 1_556 S
C56 O45 1.264 . S
C56 O46 1.243 . S
C57 C60 1.399 . S
C57 C62 1.383 . S
C57 C64 1.496 . S
C58 C59 1.399 . S
C58 C62 1.389 . S
C59 C58 1.399 . S
C59 C61 1.380 . S
C59 H76 0.929 . S
C60 C57 1.399 . S
C60 C61 1.392 . S
C60 H77 0.929 . S
C61 C59 1.380 . S
C61 C60 1.392 . S
C61 H78 0.929 . S
C62 C57 1.383 . S
C62 C58 1.389 . S
C62 H79 0.931 . S
C63 O48 1.266 . S
C63 O49 1.248 . S
C64 Tb0 2.802 . S
C64 O44 1.264 . S
C64 O47 1.256 . S
C64 C57 1.496 . S
C65 C32 1.448 1_655 S
C65 H42 0.930 . S
C65 C66 1.328 1_655 S
C66 C37 1.427 . S
C66 H43 0.929 . S
C66 C65 1.328 1_455 S
C67 O51 1.264 . S
C67 O52 1.243 . S
C68 C71 1.399 . S
C68 C72 1.383 . S
C68 C75 1.496 . S
C69 C70 1.399 . S
C69 C72 1.389 . S
C70 C69 1.399 . S
C70 C73 1.380 . S
C70 H80 0.929 . S
C71 C68 1.399 . S
C71 C73 1.392 . S
C71 H81 0.929 . S
C72 C68 1.383 . S
C72 C69 1.389 . S
C72 H82 0.931 . S
C73 C70 1.380 . S
C73 C71 1.392 . S
C73 H83 0.929 . S
C74 O54 1.266 . S
C74 O55 1.248 1_554 S
C75 Tb11 2.802 . S
C75 O50 1.264 . S
C75 O53 1.256 . S
C75 C68 1.496 . S
H76 C59 0.929 . S
H77 C60 0.929 . S
H78 C61 0.929 . S
H79 C62 0.931 . S
H80 C70 0.929 . S
H81 C71 0.929 . S
H82 C72 0.931 . S
H83 C73 0.929 . S
Tb84 N113 2.617 . S
Tb84 N119 2.572 . S
Tb84 O128 2.465 . S
Tb84 O129 2.387 . S
Tb84 O131 2.428 . S
Tb84 O132 2.308 . S
Tb84 O136 2.349 . S
Tb84 O139 2.393 . S
Tb84 C148 2.802 . S
C85 N86 1.379 . S
C85 C88 1.416 . S
C85 C92 1.424 . S
N86 C85 1.379 . S
N86 C89 1.334 . S
N86 Tb95 2.617 . S
C87 C89 1.390 . S
C87 C90 1.339 . S
C87 H107 0.930 . S
C88 C85 1.416 . S
C88 C90 1.416 . S
C88 C94 1.448 . S
C89 N86 1.334 . S
C89 C87 1.390 . S
C89 H100 0.930 . S
C90 C87 1.339 . S
C90 C88 1.416 . S
C90 H111 0.930 . S
C91 C92 1.413 . S
C91 C93 1.427 . S
C91 C97 1.416 . S
C92 C85 1.424 . S
C92 C91 1.413 . S
C92 N96 1.361 . S
C93 C91 1.427 . S
C93 C94 1.328 . S
C93 H108 0.929 . S
C94 C88 1.448 . S
C94 C93 1.328 . S
C94 H109 0.930 . S
Tb95 N86 2.617 . S
Tb95 N96 2.572 . S
Tb95 O130 2.349 . S
Tb95 O133 2.393 . S
Tb95 O134 2.465 . S
Tb95 O135 2.387 . S
Tb95 O137 2.428 . S
Tb95 O138 2.308 . S
Tb95 C159 2.802 . S
N96 C92 1.361 . S
N96 Tb95 2.572 . S
N96 C98 1.340 . S
C97 C91 1.416 . S
C97 C99 1.332 . S
C97 H105 0.931 . S
C98 N96 1.340 . S
C98 C99 1.407 . S
C98 H104 0.930 . S
C99 C97 1.332 . S
C99 C98 1.407 . S
C99 H101 0.929 . S
H100 C89 0.930 . S
H101 C99 0.929 . S
H102 C117 0.930 . S
H103 C124 0.929 1_455 S
H104 C98 0.930 . S
H105 C97 0.931 . S
H106 C120 0.930 . S
H107 C87 0.930 . S
H108 C93 0.929 . S
H109 C94 0.930 . S
H110 C115 0.930 . S
H111 C90 0.930 . S
H112 C123 0.931 1_455 S
N113 Tb84 2.617 . S
N113 C114 1.379 . S
N113 C117 1.334 . S
C114 N113 1.379 . S
C114 C116 1.416 . S
C114 C122 1.424 . S
C115 H110 0.930 . S
C115 C117 1.390 1_565 S
C115 C118 1.339 . S
C116 C114 1.416 . S
C116 C118 1.416 1_545 S
C116 C149 1.448 1_545 S
C117 H102 0.930 . S
C117 N113 1.334 . S
C117 C115 1.390 1_545 S
C118 C115 1.339 . S
C118 C116 1.416 1_565 S
C118 H125 0.930 . S
N119 Tb84 2.572 . S
N119 C120 1.340 . S
N119 C122 1.361 . S
C120 H106 0.930 . S
C120 N119 1.340 . S
C120 C124 1.407 . S
C121 C122 1.413 . S
C121 C123 1.416 . S
C121 C150 1.427 . S
C122 C114 1.424 . S
C122 N119 1.361 . S
C122 C121 1.413 . S
C123 H112 0.931 1_655 S
C123 C121 1.416 . S
C123 C124 1.332 . S
C124 H103 0.929 1_655 S
C124 C120 1.407 . S
C124 C123 1.332 . S
H125 C118 0.930 . S
H126 C149 0.930 . S
H127 C150 0.929 . S
O128 Tb84 2.465 . S
O128 C148 1.264 . S
O129 Tb84 2.387 . S
O129 C140 1.264 . S
O130 Tb95 2.349 . S
O130 C140 1.243 . S
O131 Tb84 2.428 . S
O131 C148 1.256 . S
O132 Tb84 2.308 . S
O132 C147 1.266 . S
O133 Tb95 2.393 . S
O133 C147 1.248 . S
O134 Tb95 2.465 . S
O134 C159 1.264 . S
O135 Tb95 2.387 . S
O135 C151 1.264 . S
O136 Tb84 2.349 . S
O136 C151 1.243 . S
O137 Tb95 2.428 . S
O137 C159 1.256 . S
O138 Tb95 2.308 . S
O138 C158 1.266 . S
O139 Tb84 2.393 . S
O139 C158 1.248 . S
C140 O129 1.264 . S
C140 O130 1.243 . S
C141 C144 1.399 . S
C141 C146 1.383 . S
C141 C148 1.496 . S
C142 C143 1.399 . S
C142 C146 1.389 . S
C143 C142 1.399 . S
C143 C145 1.380 . S
C143 H160 0.929 . S
C144 C141 1.399 . S
C144 C145 1.392 . S
C144 H161 0.929 . S
C145 C143 1.380 . S
C145 C144 1.392 . S
C145 H162 0.929 . S
C146 C141 1.383 . S
C146 C142 1.389 . S
C146 H163 0.931 . S
C147 O132 1.266 . S
C147 O133 1.248 . S
C148 Tb84 2.802 . S
C148 O128 1.264 . S
C148 O131 1.256 . S
C148 C141 1.496 . S
C149 C116 1.448 1_565 S
C149 H126 0.930 . S
C149 C150 1.328 1_565 S
C150 C121 1.427 . S
C150 H127 0.929 . S
C150 C149 1.328 1_545 S
C151 O135 1.264 . S
C151 O136 1.243 . S
C152 C155 1.399 . S
C152 C156 1.383 . S
C152 C159 1.496 . S
C153 C154 1.399 . S
C153 C156 1.389 . S
C154 C153 1.399 . S
C154 C157 1.380 . S
C154 H164 0.929 . S
C155 C152 1.399 . S
C155 C157 1.392 . S
C155 H165 0.929 . S
C156 C152 1.383 . S
C156 C153 1.389 . S
C156 H166 0.931 . S
C157 C154 1.380 . S
C157 C155 1.392 . S
C157 H167 0.929 . S
C158 O138 1.266 . S
C158 O139 1.248 . S
C159 Tb95 2.802 . S
C159 O134 1.264 . S
C159 O137 1.256 . S
C159 C152 1.496 . S
H160 C143 0.929 . S
H161 C144 0.929 . S
H162 C145 0.929 . S
H163 C146 0.931 . S
H164 C154 0.929 . S
H165 C155 0.929 . S
H166 C156 0.931 . S
H167 C157 0.929 . S
Tb168 N197 2.617 . S
Tb168 N203 2.572 . S
Tb168 O212 2.465 . S
Tb168 O213 2.387 . S
Tb168 O215 2.428 . S
Tb168 O216 2.308 . S
Tb168 O220 2.349 . S
Tb168 O223 2.393 . S
Tb168 C232 2.802 . S
C169 N170 1.379 . S
C169 C172 1.416 . S
C169 C176 1.424 . S
N170 C169 1.379 . S
N170 C173 1.334 . S
N170 Tb179 2.617 . S
C171 C173 1.390 . S
C171 C174 1.339 . S
C171 H191 0.930 . S
C172 C169 1.416 . S
C172 C174 1.416 . S
C172 C178 1.448 . S
C173 N170 1.334 . S
C173 C171 1.390 . S
C173 H184 0.930 . S
C174 C171 1.339 . S
C174 C172 1.416 . S
C174 H195 0.930 . S
C175 C176 1.413 . S
C175 C177 1.427 . S
C175 C181 1.416 . S
C176 C169 1.424 . S
C176 C175 1.413 . S
C176 N180 1.361 . S
C177 C175 1.427 . S
C177 C178 1.328 . S
C177 H192 0.929 . S
C178 C172 1.448 . S
C178 C177 1.328 . S
C178 H193 0.930 . S
Tb179 N170 2.617 . S
Tb179 N180 2.572 . S
Tb179 O214 2.349 . S
Tb179 O217 2.393 . S
Tb179 O218 2.465 . S
Tb179 O219 2.387 . S
Tb179 O221 2.428 . S
Tb179 O222 2.308 . S
Tb179 C243 2.802 . S
N180 C176 1.361 . S
N180 Tb179 2.572 . S
N180 C182 1.340 . S
C181 C175 1.416 . S
C181 C183 1.332 . S
C181 H189 0.931 . S
C182 N180 1.340 . S
C182 C183 1.407 . S
C182 H188 0.930 . S
C183 C181 1.332 . S
C183 C182 1.407 . S
C183 H185 0.929 . S
H184 C173 0.930 . S
H185 C183 0.929 . S
H186 C201 0.930 . S
H187 C208 0.929 1_545 S
H188 C182 0.930 . S
H189 C181 0.931 . S
H190 C204 0.930 . S
H191 C171 0.930 . S
H192 C177 0.929 . S
H193 C178 0.930 . S
H194 C199 0.930 . S
H195 C174 0.930 . S
H196 C207 0.931 1_545 S
N197 Tb168 2.617 . S
N197 C198 1.379 . S
N197 C201 1.334 . S
C198 N197 1.379 . S
C198 C200 1.416 . S
C198 C206 1.424 . S
C199 H194 0.930 . S
C199 C201 1.390 . S
C199 C202 1.339 . S
C200 C198 1.416 . S
C200 C202 1.416 . S
C200 C233 1.448 . S
C201 H186 0.930 . S
C201 N197 1.334 . S
C201 C199 1.390 . S
C202 C199 1.339 . S
C202 C200 1.416 . S
C202 H209 0.930 . S
N203 Tb168 2.572 . S
N203 C204 1.340 . S
N203 C206 1.361 . S
C204 H190 0.930 . S
C204 N203 1.340 . S
C204 C208 1.407 . S
C205 C206 1.413 . S
C205 C207 1.416 . S
C205 C234 1.427 . S
C206 C198 1.424 . S
C206 N203 1.361 . S
C206 C205 1.413 . S
C207 H196 0.931 1_565 S
C207 C205 1.416 . S
C207 C208 1.332 . S
C208 H187 0.929 1_565 S
C208 C204 1.407 . S
C208 C207 1.332 . S
H209 C202 0.930 . S
H210 C233 0.930 . S
H211 C234 0.929 . S
O212 Tb168 2.465 . S
O212 C232 1.264 . S
O213 Tb168 2.387 . S
O213 C224 1.264 . S
O214 Tb179 2.349 . S
O214 C224 1.243 . S
O215 Tb168 2.428 . S
O215 C232 1.256 . S
O216 Tb168 2.308 . S
O216 C231 1.266 . S
O217 Tb179 2.393 . S
O217 C231 1.248 . S
O218 Tb179 2.465 . S
O218 C243 1.264 . S
O219 Tb179 2.387 . S
O219 C235 1.264 . S
O220 Tb168 2.349 . S
O220 C235 1.243 . S
O221 Tb179 2.428 . S
O221 C243 1.256 . S
O222 Tb179 2.308 . S
O222 C242 1.266 . S
O223 Tb168 2.393 . S
O223 C242 1.248 . S
C224 O213 1.264 . S
C224 O214 1.243 . S
C225 C228 1.399 . S
C225 C230 1.383 . S
C225 C232 1.496 . S
C226 C227 1.399 . S
C226 C230 1.389 . S
C227 C226 1.399 . S
C227 C229 1.380 . S
C227 H244 0.929 . S
C228 C225 1.399 . S
C228 C229 1.392 . S
C228 H245 0.929 . S
C229 C227 1.380 . S
C229 C228 1.392 . S
C229 H246 0.929 . S
C230 C225 1.383 . S
C230 C226 1.389 . S
C230 H247 0.931 . S
C231 O216 1.266 . S
C231 O217 1.248 . S
C232 Tb168 2.802 . S
C232 O212 1.264 . S
C232 O215 1.256 . S
C232 C225 1.496 . S
C233 C200 1.448 . S
C233 H210 0.930 . S
C233 C234 1.328 . S
C234 C205 1.427 . S
C234 H211 0.929 . S
C234 C233 1.328 . S
C235 O219 1.264 . S
C235 O220 1.243 . S
C236 C239 1.399 . S
C236 C240 1.383 . S
C236 C243 1.496 . S
C237 C238 1.399 . S
C237 C240 1.389 . S
C238 C237 1.399 . S
C238 C241 1.380 . S
C238 H248 0.929 . S
C239 C236 1.399 . S
C239 C241 1.392 . S
C239 H249 0.929 . S
C240 C236 1.383 . S
C240 C237 1.389 . S
C240 H250 0.931 . S
C241 C238 1.380 . S
C241 C239 1.392 . S
C241 H251 0.929 . S
C242 O222 1.266 . S
C242 O223 1.248 . S
C243 Tb179 2.802 . S
C243 O218 1.264 . S
C243 O221 1.256 . S
C243 C236 1.496 . S
H244 C227 0.929 . S
H245 C228 0.929 . S
H246 C229 0.929 . S
H247 C230 0.931 . S
H248 C238 0.929 . S
H249 C239 0.929 . S
H250 C240 0.931 . S
H251 C241 0.929 . S
Tb252 N281 2.618 . S
Tb252 N287 2.572 1_556 S
Tb252 O296 2.465 . S
Tb252 O297 2.387 1_556 S
Tb252 O299 2.428 . S
Tb252 O300 2.308 1_556 S
Tb252 O304 2.349 . S
Tb252 O307 2.393 . S
Tb252 C316 2.802 . S
C253 N254 1.379 . S
C253 C256 1.416 . S
C253 C260 1.424 . S
N254 C253 1.379 . S
N254 C257 1.334 . S
N254 Tb263 2.617 . S
C255 C257 1.390 . S
C255 C258 1.339 . S
C255 H275 0.930 . S
C256 C253 1.416 . S
C256 C258 1.416 . S
C256 C262 1.448 . S
C257 N254 1.334 . S
C257 C255 1.390 . S
C257 H268 0.930 . S
C258 C255 1.339 . S
C258 C256 1.416 . S
C258 H279 0.930 . S
C259 C260 1.413 . S
C259 C261 1.427 . S
C259 C265 1.415 1_554 S
C260 C253 1.424 . S
C260 C259 1.413 . S
C260 N264 1.361 . S
C261 C259 1.427 . S
C261 C262 1.328 . S
C261 H276 0.929 1_554 S
C262 C256 1.448 . S
C262 C261 1.328 . S
C262 H277 0.930 . S
Tb263 N254 2.617 . S
Tb263 N264 2.572 . S
Tb263 O298 2.349 . S
Tb263 O301 2.393 . S
Tb263 O302 2.465 . S
Tb263 O303 2.387 1_554 S
Tb263 O305 2.428 . S
Tb263 O306 2.308 . S
Tb263 C327 2.802 . S
N264 C260 1.361 . S
N264 Tb263 2.572 . S
N264 C266 1.340 . S
C265 C259 1.415 1_556 S
C265 C267 1.331 1_556 S
C265 H273 0.934 . S
C266 N264 1.340 . S
C266 C267 1.407 . S
C266 H272 0.930 . S
C267 C265 1.331 1_554 S
C267 C266 1.407 . S
C267 H269 0.923 1_554 S
H268 C257 0.930 . S
H269 C267 0.923 1_556 S
H270 C285 0.930 . S
H271 C292 0.929 . S
H272 C266 0.930 . S
H273 C265 0.934 . S
H274 C288 0.930 . S
H275 C255 0.930 . S
H276 C261 0.929 1_556 S
H277 C262 0.930 . S
H278 C283 0.930 . S
H279 C258 0.930 . S
H280 C291 0.931 . S
N281 Tb252 2.618 . S
N281 C282 1.373 1_556 S
N281 C285 1.338 . S
C282 N281 1.373 1_554 S
C282 C284 1.416 . S
C282 C290 1.424 . S
C283 H278 0.930 . S
C283 C285 1.390 1_455 S
C283 C286 1.339 1_556 S
C284 C282 1.416 . S
C284 C286 1.416 1_655 S
C284 C317 1.448 1_655 S
C285 H270 0.930 . S
C285 N281 1.338 . S
C285 C283 1.390 1_655 S
C286 C283 1.339 1_554 S
C286 C284 1.416 1_455 S
C286 H293 0.930 . S
N287 Tb252 2.572 1_554 S
N287 C288 1.340 . S
N287 C290 1.361 . S
C288 H274 0.930 . S
C288 N287 1.340 . S
C288 C292 1.407 . S
C289 C290 1.413 . S
C289 C291 1.416 . S
C289 C318 1.427 . S
C290 C282 1.424 . S
C290 N287 1.361 . S
C290 C289 1.413 . S
C291 H280 0.931 . S
C291 C289 1.416 . S
C291 C292 1.332 . S
C292 H271 0.929 . S
C292 C288 1.407 . S
C292 C291 1.332 . S
H293 C286 0.930 . S
H294 C317 0.930 . S
H295 C318 0.929 . S
O296 Tb252 2.465 . S
O296 C316 1.264 . S
O297 Tb252 2.387 1_554 S
O297 C308 1.264 . S
O298 Tb263 2.349 . S
O298 C308 1.243 . S
O299 Tb252 2.428 . S
O299 C316 1.256 . S
O300 Tb252 2.308 1_554 S
O300 C315 1.266 . S
O301 Tb263 2.393 . S
O301 C315 1.248 . S
O302 Tb263 2.465 . S
O302 C327 1.264 . S
O303 Tb263 2.387 1_556 S
O303 C319 1.264 . S
O304 Tb252 2.349 . S
O304 C319 1.243 . S
O305 Tb263 2.428 . S
O305 C327 1.256 . S
O306 Tb263 2.308 . S
O306 C326 1.266 . S
O307 Tb252 2.393 . S
O307 C326 1.248 1_556 S
C308 O297 1.264 . S
C308 O298 1.243 . S
C309 C312 1.399 . S
C309 C314 1.383 . S
C309 C316 1.496 . S
C310 C311 1.399 . S
C310 C314 1.389 . S
C311 C310 1.399 . S
C311 C313 1.380 . S
C311 H328 0.929 . S
C312 C309 1.399 . S
C312 C313 1.392 . S
C312 H329 0.929 . S
C313 C311 1.380 . S
C313 C312 1.392 . S
C313 H330 0.929 . S
C314 C309 1.383 . S
C314 C310 1.389 . S
C314 H331 0.931 . S
C315 O300 1.266 . S
C315 O301 1.248 . S
C316 Tb252 2.802 . S
C316 O296 1.264 . S
C316 O299 1.256 . S
C316 C309 1.496 . S
C317 C284 1.448 1_455 S
C317 H294 0.930 . S
C317 C318 1.328 1_455 S
C318 C289 1.427 . S
C318 H295 0.929 . S
C318 C317 1.328 1_655 S
C319 O303 1.264 . S
C319 O304 1.243 . S
C320 C323 1.399 . S
C320 C324 1.383 . S
C320 C327 1.496 . S
C321 C322 1.399 . S
C321 C324 1.389 . S
C322 C321 1.399 . S
C322 C325 1.380 . S
C322 H332 0.929 . S
C323 C320 1.399 . S
C323 C325 1.392 . S
C323 H333 0.929 . S
C324 C320 1.383 . S
C324 C321 1.389 . S
C324 H334 0.931 . S
C325 C322 1.380 . S
C325 C323 1.392 . S
C325 H335 0.929 . S
C326 O306 1.266 . S
C326 O307 1.248 1_554 S
C327 Tb263 2.802 . S
C327 O302 1.264 . S
C327 O305 1.256 . S
C327 C320 1.496 . S
H328 C311 0.929 . S
H329 C312 0.929 . S
H330 C313 0.929 . S
H331 C314 0.931 . S
H332 C322 0.929 . S
H333 C323 0.929 . S
H334 C324 0.931 . S
H335 C325 0.929 . S
Tb336 N365 2.617 . S
Tb336 N371 2.572 . S
Tb336 O380 2.465 . S
Tb336 O381 2.387 . S
Tb336 O383 2.428 . S
Tb336 O384 2.308 . S
Tb336 O388 2.349 . S
Tb336 O391 2.393 . S
Tb336 C400 2.802 . S
C337 N338 1.379 . S
C337 C340 1.416 . S
C337 C344 1.424 . S
N338 C337 1.379 . S
N338 C341 1.334 . S
N338 Tb347 2.617 . S
C339 C341 1.390 . S
C339 C342 1.339 . S
C339 H359 0.930 . S
C340 C337 1.416 . S
C340 C342 1.416 . S
C340 C346 1.448 . S
C341 N338 1.334 . S
C341 C339 1.390 . S
C341 H352 0.930 . S
C342 C339 1.339 . S
C342 C340 1.416 . S
C342 H363 0.930 . S
C343 C344 1.413 . S
C343 C345 1.427 . S
C343 C349 1.416 . S
C344 C337 1.424 . S
C344 C343 1.413 . S
C344 N348 1.361 . S
C345 C343 1.427 . S
C345 C346 1.328 . S
C345 H360 0.929 . S
C346 C340 1.448 . S
C346 C345 1.328 . S
C346 H361 0.930 . S
Tb347 N338 2.617 . S
Tb347 N348 2.572 . S
Tb347 O382 2.349 . S
Tb347 O385 2.393 . S
Tb347 O386 2.465 . S
Tb347 O387 2.387 . S
Tb347 O389 2.428 . S
Tb347 O390 2.308 . S
Tb347 C411 2.802 . S
N348 C344 1.361 . S
N348 Tb347 2.572 . S
N348 C350 1.340 . S
C349 C343 1.416 . S
C349 C351 1.332 . S
C349 H357 0.931 . S
C350 N348 1.340 . S
C350 C351 1.407 . S
C350 H356 0.930 . S
C351 C349 1.332 . S
C351 C350 1.407 . S
C351 H353 0.929 . S
H352 C341 0.930 . S
H353 C351 0.929 . S
H354 C369 0.930 . S
H355 C376 0.929 1_655 S
H356 C350 0.930 . S
H357 C349 0.931 . S
H358 C372 0.930 . S
H359 C339 0.930 . S
H360 C345 0.929 . S
H361 C346 0.930 . S
H362 C367 0.930 . S
H363 C342 0.930 . S
H364 C375 0.931 1_655 S
N365 Tb336 2.617 . S
N365 C366 1.379 . S
N365 C369 1.334 . S
C366 N365 1.379 . S
C366 C368 1.416 . S
C366 C374 1.424 . S
C367 H362 0.930 . S
C367 C369 1.390 1_545 S
C367 C370 1.339 . S
C368 C366 1.416 . S
C368 C370 1.416 1_565 S
C368 C401 1.448 1_565 S
C369 H354 0.930 . S
C369 N365 1.334 . S
C369 C367 1.390 1_565 S
C370 C367 1.339 . S
C370 C368 1.416 1_545 S
C370 H377 0.930 . S
N371 Tb336 2.572 . S
N371 C372 1.340 . S
N371 C374 1.361 . S
C372 H358 0.930 . S
C372 N371 1.340 . S
C372 C376 1.407 . S
C373 C374 1.413 . S
C373 C375 1.416 . S
C373 C402 1.427 . S
C374 C366 1.424 . S
C374 N371 1.361 . S
C374 C373 1.413 . S
C375 H364 0.931 1_455 S
C375 C373 1.416 . S
C375 C376 1.332 . S
C376 H355 0.929 1_455 S
C376 C372 1.407 . S
C376 C375 1.332 . S
H377 C370 0.930 . S
H378 C401 0.930 . S
H379 C402 0.929 . S
O380 Tb336 2.465 . S
O380 C400 1.264 . S
O381 Tb336 2.387 . S
O381 C392 1.264 . S
O382 Tb347 2.349 . S
O382 C392 1.243 . S
O383 Tb336 2.428 . S
O383 C400 1.256 . S
O384 Tb336 2.308 . S
O384 C399 1.266 . S
O385 Tb347 2.393 . S
O385 C399 1.248 . S
O386 Tb347 2.465 . S
O386 C411 1.264 . S
O387 Tb347 2.387 . S
O387 C403 1.264 . S
O388 Tb336 2.349 . S
O388 C403 1.243 . S
O389 Tb347 2.428 . S
O389 C411 1.256 . S
O390 Tb347 2.308 . S
O390 C410 1.266 . S
O391 Tb336 2.393 . S
O391 C410 1.248 . S
C392 O381 1.264 . S
C392 O382 1.243 . S
C393 C396 1.399 . S
C393 C398 1.383 . S
C393 C400 1.496 . S
C394 C395 1.399 . S
C394 C398 1.389 . S
C395 C394 1.399 . S
C395 C397 1.380 . S
C395 H412 0.929 . S
C396 C393 1.399 . S
C396 C397 1.392 . S
C396 H413 0.929 . S
C397 C395 1.380 . S
C397 C396 1.392 . S
C397 H414 0.929 . S
C398 C393 1.383 . S
C398 C394 1.389 . S
C398 H415 0.931 . S
C399 O384 1.266 . S
C399 O385 1.248 . S
C400 Tb336 2.802 . S
C400 O380 1.264 . S
C400 O383 1.256 . S
C400 C393 1.496 . S
C401 C368 1.448 1_545 S
C401 H378 0.930 . S
C401 C402 1.328 1_545 S
C402 C373 1.427 . S
C402 H379 0.929 . S
C402 C401 1.328 1_565 S
C403 O387 1.264 . S
C403 O388 1.243 . S
C404 C407 1.399 . S
C404 C408 1.383 . S
C404 C411 1.496 . S
C405 C406 1.399 . S
C405 C408 1.389 . S
C406 C405 1.399 . S
C406 C409 1.380 . S
C406 H416 0.929 . S
C407 C404 1.399 . S
C407 C409 1.392 . S
C407 H417 0.929 . S
C408 C404 1.383 . S
C408 C405 1.389 . S
C408 H418 0.931 . S
C409 C406 1.380 . S
C409 C407 1.392 . S
C409 H419 0.929 . S
C410 O390 1.266 . S
C410 O391 1.248 . S
C411 Tb347 2.802 . S
C411 O386 1.264 . S
C411 O389 1.256 . S
C411 C404 1.496 . S
H412 C395 0.929 . S
H413 C396 0.929 . S
H414 C397 0.929 . S
H415 C398 0.931 . S
H416 C406 0.929 . S
H417 C407 0.929 . S
H418 C408 0.931 . S
H419 C409 0.929 . S
Tb420 N449 2.617 . S
Tb420 N455 2.572 . S
Tb420 O464 2.465 . S
Tb420 O465 2.387 . S
Tb420 O467 2.428 . S
Tb420 O468 2.308 . S
Tb420 O472 2.349 . S
Tb420 O475 2.393 . S
Tb420 C484 2.802 . S
C421 N422 1.379 . S
C421 C424 1.416 . S
C421 C428 1.424 . S
N422 C421 1.379 . S
N422 C425 1.334 . S
N422 Tb431 2.617 . S
C423 C425 1.390 . S
C423 C426 1.339 . S
C423 H443 0.930 . S
C424 C421 1.416 . S
C424 C426 1.416 . S
C424 C430 1.448 . S
C425 N422 1.334 . S
C425 C423 1.390 . S
C425 H436 0.930 . S
C426 C423 1.339 . S
C426 C424 1.416 . S
C426 H447 0.930 . S
C427 C428 1.413 . S
C427 C429 1.427 . S
C427 C433 1.416 . S
C428 C421 1.424 . S
C428 C427 1.413 . S
C428 N432 1.361 . S
C429 C427 1.427 . S
C429 C430 1.328 . S
C429 H444 0.929 . S
C430 C424 1.448 . S
C430 C429 1.328 . S
C430 H445 0.930 . S
Tb431 N422 2.617 . S
Tb431 N432 2.572 . S
Tb431 O466 2.349 . S
Tb431 O469 2.393 . S
Tb431 O470 2.465 . S
Tb431 O471 2.387 . S
Tb431 O473 2.428 . S
Tb431 O474 2.308 . S
Tb431 C495 2.802 . S
N432 C428 1.361 . S
N432 Tb431 2.572 . S
N432 C434 1.340 . S
C433 C427 1.416 . S
C433 C435 1.332 . S
C433 H441 0.931 . S
C434 N432 1.340 . S
C434 C435 1.407 . S
C434 H440 0.930 . S
C435 C433 1.332 . S
C435 C434 1.407 . S
C435 H437 0.929 . S
H436 C425 0.930 . S
H437 C435 0.929 . S
H438 C453 0.930 . S
H439 C460 0.929 1_565 S
H440 C434 0.930 . S
H441 C433 0.931 . S
H442 C456 0.930 . S
H443 C423 0.930 . S
H444 C429 0.929 . S
H445 C430 0.930 . S
H446 C451 0.930 . S
H447 C426 0.930 . S
H448 C459 0.931 1_565 S
N449 Tb420 2.617 . S
N449 C450 1.379 . S
N449 C453 1.334 . S
C450 N449 1.379 . S
C450 C452 1.416 . S
C450 C458 1.424 . S
C451 H446 0.930 . S
C451 C453 1.390 . S
C451 C454 1.339 . S
C452 C450 1.416 . S
C452 C454 1.416 . S
C452 C485 1.448 . S
C453 H438 0.930 . S
C453 N449 1.334 . S
C453 C451 1.390 . S
C454 C451 1.339 . S
C454 C452 1.416 . S
C454 H461 0.930 . S
N455 Tb420 2.572 . S
N455 C456 1.340 . S
N455 C458 1.361 . S
C456 H442 0.930 . S
C456 N455 1.340 . S
C456 C460 1.407 . S
C457 C458 1.413 . S
C457 C459 1.416 . S
C457 C486 1.427 . S
C458 C450 1.424 . S
C458 N455 1.361 . S
C458 C457 1.413 . S
C459 H448 0.931 1_545 S
C459 C457 1.416 . S
C459 C460 1.332 . S
C460 H439 0.929 1_545 S
C460 C456 1.407 . S
C460 C459 1.332 . S
H461 C454 0.930 . S
H462 C485 0.930 . S
H463 C486 0.929 . S
O464 Tb420 2.465 . S
O464 C484 1.264 . S
O465 Tb420 2.387 . S
O465 C476 1.264 . S
O466 Tb431 2.349 . S
O466 C476 1.243 . S
O467 Tb420 2.428 . S
O467 C484 1.256 . S
O468 Tb420 2.308 . S
O468 C483 1.266 . S
O469 Tb431 2.393 . S
O469 C483 1.248 . S
O470 Tb431 2.465 . S
O470 C495 1.264 . S
O471 Tb431 2.387 . S
O471 C487 1.264 . S
O472 Tb420 2.349 . S
O472 C487 1.243 . S
O473 Tb431 2.428 . S
O473 C495 1.256 . S
O474 Tb431 2.308 . S
O474 C494 1.266 . S
O475 Tb420 2.393 . S
O475 C494 1.248 . S
C476 O465 1.264 . S
C476 O466 1.243 . S
C477 C480 1.399 . S
C477 C482 1.383 . S
C477 C484 1.496 . S
C478 C479 1.399 . S
C478 C482 1.389 . S
C479 C478 1.399 . S
C479 C481 1.380 . S
C479 H496 0.929 . S
C480 C477 1.399 . S
C480 C481 1.392 . S
C480 H497 0.929 . S
C481 C479 1.380 . S
C481 C480 1.392 . S
C481 H498 0.929 . S
C482 C477 1.383 . S
C482 C478 1.389 . S
C482 H499 0.931 . S
C483 O468 1.266 . S
C483 O469 1.248 . S
C484 Tb420 2.802 . S
C484 O464 1.264 . S
C484 O467 1.256 . S
C484 C477 1.496 . S
C485 C452 1.448 . S
C485 H462 0.930 . S
C485 C486 1.328 . S
C486 C457 1.427 . S
C486 H463 0.929 . S
C486 C485 1.328 . S
C487 O471 1.264 . S
C487 O472 1.243 . S
C488 C491 1.399 . S
C488 C492 1.383 . S
C488 C495 1.496 . S
C489 C490 1.399 . S
C489 C492 1.389 . S
C490 C489 1.399 . S
C490 C493 1.380 . S
C490 H500 0.929 . S
C491 C488 1.399 . S
C491 C493 1.392 . S
C491 H501 0.929 . S
C492 C488 1.383 . S
C492 C489 1.389 . S
C492 H502 0.931 . S
C493 C490 1.380 . S
C493 C491 1.392 . S
C493 H503 0.929 . S
C494 O474 1.266 . S
C494 O475 1.248 . S
C495 Tb431 2.802 . S
C495 O470 1.264 . S
C495 O473 1.256 . S
C495 C488 1.496 . S
H496 C479 0.929 . S
H497 C480 0.929 . S
H498 C481 0.929 . S
H499 C482 0.931 . S
H500 C490 0.929 . S
H501 C491 0.929 . S
H502 C492 0.931 . S
H503 C493 0.929 . S
H504 C510 0.930 . S
H505 C514 0.930 . S
H506 C519 0.929 . S
H507 C517 0.929 . S
H508 C512 0.929 . S
H509 C518 0.929 . S
C510 H504 0.930 . S
C510 C511 1.367 . S
C510 C518 1.378 . S
C511 C510 1.367 . S
C511 C519 1.433 . S
C512 H508 0.929 . S
C512 C514 1.378 . S
C512 C516 1.350 . S
C513 C516 1.463 . S
C513 C518 1.350 . S
C513 N521 1.427 . S
C514 H505 0.930 . S
C514 C512 1.378 . S
C514 C515 1.367 . S
C515 C514 1.367 . S
C515 C517 1.433 . S
C516 C512 1.350 . S
C516 C513 1.463 . S
C516 N520 1.427 . S
C517 H507 0.929 . S
C517 C515 1.433 . S
C517 N520 1.384 . S
C518 H509 0.929 . S
C518 C510 1.378 . S
C518 C513 1.350 . S
C519 H506 0.929 . S
C519 C511 1.433 . S
C519 N521 1.384 . S
N520 C516 1.427 . S
N520 C517 1.384 . S
N521 C513 1.427 . S
N521 C519 1.384 . S
H522 C528 0.930 . S
H523 C532 0.930 . S
H524 C537 0.929 . S
H525 C535 0.929 . S
H526 C530 0.929 . S
H527 C536 0.929 . S
C528 H522 0.930 . S
C528 C529 1.367 . S
C528 C536 1.378 . S
C529 C528 1.367 . S
C529 C537 1.433 . S
C530 H526 0.929 . S
C530 C532 1.378 . S
C530 C534 1.350 . S
C531 C534 1.463 . S
C531 C536 1.350 . S
C531 N539 1.427 . S
C532 H523 0.930 . S
C532 C530 1.378 . S
C532 C533 1.367 . S
C533 C532 1.367 . S
C533 C535 1.433 . S
C534 C530 1.350 . S
C534 C531 1.463 . S
C534 N538 1.427 . S
C535 H525 0.929 . S
C535 C533 1.433 . S
C535 N538 1.384 . S
C536 H527 0.929 . S
C536 C528 1.378 . S
C536 C531 1.350 . S
C537 H524 0.929 . S
C537 C529 1.433 . S
C537 N539 1.384 . S
N538 C534 1.427 . S
N538 C535 1.384 . S
N539 C531 1.427 . S
N539 C537 1.384 . S
H540 C546 0.930 . S
H541 C550 0.930 . S
H542 C555 0.929 . S
H543 C553 0.929 . S
H544 C548 0.929 . S
H545 C554 0.929 . S
C546 H540 0.930 . S
C546 C547 1.367 . S
C546 C554 1.378 . S
C547 C546 1.367 . S
C547 C555 1.433 . S
C548 H544 0.929 . S
C548 C550 1.378 . S
C548 C552 1.350 . S
C549 C552 1.463 . S
C549 C554 1.350 . S
C549 N557 1.427 . S
C550 H541 0.930 . S
C550 C548 1.378 . S
C550 C551 1.367 . S
C551 C550 1.367 . S
C551 C553 1.433 . S
C552 C548 1.350 . S
C552 C549 1.463 . S
C552 N556 1.427 . S
C553 H543 0.929 . S
C553 C551 1.433 . S
C553 N556 1.384 . S
C554 H545 0.929 . S
C554 C546 1.378 . S
C554 C549 1.350 . S
C555 H542 0.929 . S
C555 C547 1.433 . S
C555 N557 1.384 . S
N556 C552 1.427 . S
N556 C553 1.384 . S
N557 C549 1.427 . S
N557 C555 1.384 . S
H558 C564 0.930 . S
H559 C568 0.930 . S
H560 C573 0.929 . S
H561 C571 0.929 . S
H562 C566 0.929 . S
H563 C572 0.929 . S
C564 H558 0.930 . S
C564 C565 1.367 . S
C564 C572 1.378 . S
C565 C564 1.367 . S
C565 C573 1.433 . S
C566 H562 0.929 . S
C566 C568 1.378 . S
C566 C570 1.350 . S
C567 C570 1.463 . S
C567 C572 1.350 . S
C567 N575 1.427 . S
C568 H559 0.930 . S
C568 C566 1.378 . S
C568 C569 1.367 . S
C569 C568 1.367 . S
C569 C571 1.433 . S
C570 C566 1.350 . S
C570 C567 1.463 . S
C570 N574 1.427 . S
C571 H561 0.929 . S
C571 C569 1.433 . S
C571 N574 1.384 . S
C572 H563 0.929 . S
C572 C564 1.378 . S
C572 C567 1.350 . S
C573 H560 0.929 . S
C573 C565 1.433 . S
C573 N575 1.384 . S
N574 C570 1.427 . S
N574 C571 1.384 . S
N575 C567 1.427 . S
N575 C573 1.384 . S
H576 C582 0.930 . S
H577 C586 0.930 . S
H578 C591 0.929 . S
H579 C589 0.929 . S
H580 C584 0.929 . S
H581 C590 0.929 . S
C582 H576 0.930 . S
C582 C583 1.367 . S
C582 C590 1.378 . S
C583 C582 1.367 . S
C583 C591 1.433 . S
C584 H580 0.929 . S
C584 C586 1.378 . S
C584 C588 1.350 . S
C585 C588 1.463 . S
C585 C590 1.350 . S
C585 N593 1.427 . S
C586 H577 0.930 . S
C586 C584 1.378 . S
C586 C587 1.367 . S
C587 C586 1.367 . S
C587 C589 1.433 . S
C588 C584 1.350 . S
C588 C585 1.463 . S
C588 N592 1.427 . S
C589 H579 0.929 . S
C589 C587 1.433 . S
C589 N592 1.384 . S
C590 H581 0.929 . S
C590 C582 1.378 . S
C590 C585 1.350 . S
C591 H578 0.929 . S
C591 C583 1.433 . S
C591 N593 1.384 . S
N592 C588 1.427 . S
N592 C589 1.384 . S
N593 C585 1.427 . S
N593 C591 1.384 . S
H594 C600 0.930 . S
H595 C604 0.930 . S
H596 C609 0.929 . S
H597 C607 0.929 . S
H598 C602 0.929 . S
H599 C608 0.929 . S
C600 H594 0.930 . S
C600 C601 1.367 . S
C600 C608 1.378 . S
C601 C600 1.367 . S
C601 C609 1.433 . S
C602 H598 0.929 . S
C602 C604 1.378 . S
C602 C606 1.350 . S
C603 C606 1.463 . S
C603 C608 1.350 . S
C603 N611 1.427 . S
C604 H595 0.930 . S
C604 C602 1.378 . S
C604 C605 1.367 . S
C605 C604 1.367 . S
C605 C607 1.433 . S
C606 C602 1.350 . S
C606 C603 1.463 . S
C606 N610 1.427 . S
C607 H597 0.929 . S
C607 C605 1.433 . S
C607 N610 1.384 . S
C608 H599 0.929 . S
C608 C600 1.378 . S
C608 C603 1.350 . S
C609 H596 0.929 . S
C609 C601 1.433 . S
C609 N611 1.384 . S
N610 C606 1.427 . S
N610 C607 1.384 . S
N611 C603 1.427 . S
N611 C609 1.384 . S
H612 C618 0.930 1_556 S
H613 C622 0.930 . S
H614 C627 0.929 . S
H615 C625 0.929 1_556 S
H616 C620 0.929 . S
H617 C626 0.929 1_556 S
C618 H612 0.930 1_554 S
C618 C619 1.367 . S
C618 C626 1.378 . S
C619 C618 1.367 . S
C619 C627 1.433 . S
C620 H616 0.929 . S
C620 C622 1.378 . S
C620 C624 1.350 . S
C621 C624 1.463 . S
C621 C626 1.350 . S
C621 N629 1.427 . S
C622 H613 0.930 . S
C622 C620 1.378 . S
C622 C623 1.367 . S
C623 C622 1.367 . S
C623 C625 1.433 . S
C624 C620 1.350 . S
C624 C621 1.463 . S
C624 N628 1.427 . S
C625 H615 0.929 1_554 S
C625 C623 1.433 . S
C625 N628 1.384 . S
C626 H617 0.929 1_554 S
C626 C618 1.378 . S
C626 C621 1.350 . S
C627 H614 0.929 . S
C627 C619 1.433 . S
C627 N629 1.384 . S
N628 C624 1.427 . S
N628 C625 1.384 . S
N629 C621 1.427 . S
N629 C627 1.384 . S
H630 C636 0.930 . S
H631 C640 0.930 . S
H632 C645 0.929 . S
H633 C643 0.929 . S
H634 C638 0.929 . S
H635 C644 0.929 . S
C636 H630 0.930 . S
C636 C637 1.367 . S
C636 C644 1.378 . S
C637 C636 1.367 . S
C637 C645 1.433 . S
C638 H634 0.929 . S
C638 C640 1.378 . S
C638 C642 1.350 . S
C639 C642 1.463 1_455 S
C639 C644 1.350 . S
C639 N647 1.427 1_455 S
C640 H631 0.930 . S
C640 C638 1.378 . S
C640 C641 1.367 . S
C641 C640 1.367 . S
C641 C643 1.433 . S
C642 C638 1.350 . S
C642 C639 1.463 1_655 S
C642 N646 1.427 1_655 S
C643 H633 0.929 . S
C643 C641 1.433 . S
C643 N646 1.384 1_655 S
C644 H635 0.929 . S
C644 C636 1.378 . S
C644 C639 1.350 . S
C645 H632 0.929 . S
C645 C637 1.433 . S
C645 N647 1.384 1_455 S
N646 C642 1.427 1_455 S
N646 C643 1.384 1_455 S
N647 C639 1.427 1_655 S
N647 C645 1.384 1_655 S
H648 C654 0.930 1_565 S
H649 C658 0.930 1_545 S
H650 C663 0.929 . S
H651 C661 0.929 . S
H652 C656 0.929 . S
H653 C662 0.929 . S
C654 H648 0.930 1_545 S
C654 C655 1.367 . S
C654 C662 1.378 1_545 S
C655 C654 1.367 . S
C655 C663 1.433 . S
C656 H652 0.929 . S
C656 C658 1.378 1_545 S
C656 C660 1.350 1_545 S
C657 C660 1.463 1_545 S
C657 C662 1.350 1_545 S
C657 N665 1.427 . S
C658 H649 0.930 1_565 S
C658 C656 1.378 1_565 S
C658 C659 1.367 . S
C659 C658 1.367 . S
C659 C661 1.433 . S
C660 C656 1.350 1_565 S
C660 C657 1.463 1_565 S
C660 N664 1.427 . S
C661 H651 0.929 . S
C661 C659 1.433 . S
C661 N664 1.384 . S
C662 H653 0.929 . S
C662 C654 1.378 1_565 S
C662 C657 1.350 1_565 S
C663 H650 0.929 . S
C663 C655 1.433 . S
C663 N665 1.384 . S
N664 C660 1.427 . S
N664 C661 1.384 . S
N665 C657 1.427 . S
N665 C663 1.384 . S
H666 C672 0.930 . S
H667 C676 0.930 . S
H668 C681 0.929 . S
H669 C679 0.929 . S
H670 C674 0.929 . S
H671 C680 0.929 . S
C672 H666 0.930 . S
C672 C673 1.367 . S
C672 C680 1.378 . S
C673 C672 1.367 . S
C673 C681 1.433 . S
C674 H670 0.929 . S
C674 C676 1.378 . S
C674 C678 1.350 . S
C675 C678 1.463 . S
C675 C680 1.350 . S
C675 N683 1.427 . S
C676 H667 0.930 . S
C676 C674 1.378 . S
C676 C677 1.367 . S
C677 C676 1.367 . S
C677 C679 1.433 . S
C678 C674 1.350 . S
C678 C675 1.463 . S
C678 N682 1.427 . S
C679 H669 0.929 . S
C679 C677 1.433 . S
C679 N682 1.384 . S
C680 H671 0.929 . S
C680 C672 1.378 . S
C680 C675 1.350 . S
C681 H668 0.929 . S
C681 C673 1.433 . S
C681 N683 1.384 . S
N682 C678 1.427 . S
N682 C679 1.384 . S
N683 C675 1.427 . S
N683 C681 1.384 . S
H684 C690 0.955 . S
H685 C694 0.930 . S
H686 C699 0.929 . S
H687 C697 0.929 . S
H688 C692 0.929 1_455 S
H689 C698 0.954 1_655 S
C690 H684 0.955 . S
C690 C691 1.343 1_556 S
C690 C698 1.378 . S
C691 C690 1.343 1_554 S
C691 C699 1.433 . S
C692 H688 0.929 1_655 S
C692 C694 1.378 . S
C692 C696 1.350 . S
C693 C696 1.463 1_455 S
C693 C698 1.326 1_554 S
C693 N701 1.427 . S
C694 H685 0.930 . S
C694 C692 1.378 . S
C694 C695 1.367 . S
C695 C694 1.367 . S
C695 C697 1.433 1_554 S
C696 C692 1.350 . S
C696 C693 1.463 1_655 S
C696 N700 1.427 1_554 S
C697 H687 0.929 . S
C697 C695 1.433 1_556 S
C697 N700 1.384 . S
C698 H689 0.954 1_455 S
C698 C690 1.378 . S
C698 C693 1.326 1_556 S
C699 H686 0.929 . S
C699 C691 1.433 . S
C699 N701 1.384 . S
N700 C696 1.427 1_556 S
N700 C697 1.384 . S
N701 C693 1.427 . S
N701 C699 1.384 . S
H702 C708 0.930 . S
H703 C712 0.930 . S
H704 C717 0.929 . S
H705 C715 0.929 . S
H706 C710 0.929 . S
H707 C716 0.929 . S
C708 H702 0.930 . S
C708 C709 1.367 . S
C708 C716 1.378 . S
C709 C708 1.367 . S
C709 C717 1.433 . S
C710 H706 0.929 . S
C710 C712 1.378 . S
C710 C714 1.350 . S
C711 C714 1.463 1_565 S
C711 C716 1.350 . S
C711 N719 1.427 . S
C712 H703 0.930 . S
C712 C710 1.378 . S
C712 C713 1.367 . S
C713 C712 1.367 . S
C713 C715 1.433 . S
C714 C710 1.350 . S
C714 C711 1.463 1_545 S
C714 N718 1.427 . S
C715 H705 0.929 . S
C715 C713 1.433 . S
C715 N718 1.384 . S
C716 H707 0.929 . S
C716 C708 1.378 . S
C716 C711 1.350 . S
C717 H704 0.929 . S
C717 C709 1.433 . S
C717 N719 1.384 . S
N718 C714 1.427 . S
N718 C715 1.384 . S
N719 C711 1.427 . S
N719 C717 1.384 . S
H720 C726 0.930 . S
H721 C730 0.930 . S
H722 C735 0.929 . S
H723 C733 0.929 . S
H724 C728 0.929 . S
H725 C734 0.929 . S
C726 H720 0.930 . S
C726 C727 1.367 . S
C726 C734 1.378 . S
C727 C726 1.367 . S
C727 C735 1.433 . S
C728 H724 0.929 . S
C728 C730 1.378 . S
C728 C732 1.350 . S
C729 C732 1.463 . S
C729 C734 1.350 . S
C729 N737 1.427 . S
C730 H721 0.930 . S
C730 C728 1.378 . S
C730 C731 1.367 . S
C731 C730 1.367 . S
C731 C733 1.433 . S
C732 C728 1.350 . S
C732 C729 1.463 . S
C732 N736 1.427 . S
C733 H723 0.929 . S
C733 C731 1.433 . S
C733 N736 1.384 . S
C734 H725 0.929 . S
C734 C726 1.378 . S
C734 C729 1.350 . S
C735 H722 0.929 . S
C735 C727 1.433 . S
C735 N737 1.384 . S
N736 C732 1.427 . S
N736 C733 1.384 . S
N737 C729 1.427 . S
N737 C735 1.384 . S
H738 C744 0.930 . S
H739 C748 0.930 . S
H740 C753 0.929 . S
H741 C751 0.929 . S
H742 C746 0.929 . S
H743 C752 0.929 . S
C744 H738 0.930 . S
C744 C745 1.367 . S
C744 C752 1.378 . S
C745 C744 1.367 . S
C745 C753 1.433 1_455 S
C746 H742 0.929 . S
C746 C748 1.378 . S
C746 C750 1.350 . S
C747 C750 1.463 . S
C747 C752 1.350 . S
C747 N755 1.427 . S
C748 H739 0.930 . S
C748 C746 1.378 . S
C748 C749 1.367 . S
C749 C748 1.367 . S
C749 C751 1.433 . S
C750 C746 1.350 . S
C750 C747 1.463 . S
C750 N754 1.427 . S
C751 H741 0.929 . S
C751 C749 1.433 . S
C751 N754 1.384 . S
C752 H743 0.929 . S
C752 C744 1.378 . S
C752 C747 1.350 . S
C753 H740 0.929 . S
C753 C745 1.433 1_655 S
C753 N755 1.384 1_655 S
N754 C750 1.427 . S
N754 C751 1.384 . S
N755 C747 1.427 . S
N755 C753 1.384 1_455 S
H756 C762 0.930 . S
H757 C766 0.930 . S
H758 C771 0.929 1_565 S
H759 C769 0.929 . S
H760 C764 0.929 . S
H761 C770 0.929 . S
C762 H756 0.930 . S
C762 C763 1.367 . S
C762 C770 1.378 . S
C763 C762 1.367 . S
C763 C771 1.433 . S
C764 H760 0.929 . S
C764 C766 1.378 . S
C764 C768 1.350 . S
C765 C768 1.463 . S
C765 C770 1.350 . S
C765 N773 1.427 . S
C766 H757 0.930 . S
C766 C764 1.378 . S
C766 C767 1.367 . S
C767 C766 1.367 . S
C767 C769 1.433 . S
C768 C764 1.350 . S
C768 C765 1.463 . S
C768 N772 1.427 . S
C769 H759 0.929 . S
C769 C767 1.433 . S
C769 N772 1.384 . S
C770 H761 0.929 . S
C770 C762 1.378 . S
C770 C765 1.350 . S
C771 H758 0.929 1_545 S
C771 C763 1.433 . S
C771 N773 1.384 . S
N772 C768 1.427 . S
N772 C769 1.384 . S
N773 C765 1.427 . S
N773 C771 1.384 . S
H774 C780 0.930 . S
H775 C784 0.930 . S
H776 C789 0.929 . S
H777 C787 0.929 . S
H778 C782 0.929 . S
H779 C788 0.929 . S
C780 H774 0.930 . S
C780 C781 1.367 . S
C780 C788 1.378 . S
C781 C780 1.367 . S
C781 C789 1.433 . S
C782 H778 0.929 . S
C782 C784 1.378 . S
C782 C786 1.350 . S
C783 C786 1.463 . S
C783 C788 1.350 . S
C783 N791 1.427 . S
C784 H775 0.930 . S
C784 C782 1.378 . S
C784 C785 1.367 . S
C785 C784 1.367 . S
C785 C787 1.433 . S
C786 C782 1.350 . S
C786 C783 1.463 . S
C786 N790 1.427 . S
C787 H777 0.929 . S
C787 C785 1.433 . S
C787 N790 1.384 . S
C788 H779 0.929 . S
C788 C780 1.378 . S
C788 C783 1.350 . S
C789 H776 0.929 . S
C789 C781 1.433 . S
C789 N791 1.384 . S
N790 C786 1.427 . S
N790 C787 1.384 . S
N791 C783 1.427 . S
N791 C789 1.384 . S
H792 C798 0.930 . S
H793 C802 0.930 . S
H794 C807 0.929 . S
H795 C805 0.929 . S
H796 C800 0.929 . S
H797 C806 0.929 . S
C798 H792 0.930 . S
C798 C799 1.367 . S
C798 C806 1.378 . S
C799 C798 1.367 . S
C799 C807 1.433 . S
C800 H796 0.929 . S
C800 C802 1.378 . S
C800 C804 1.350 . S
C801 C804 1.463 . S
C801 C806 1.350 . S
C801 N809 1.427 . S
C802 H793 0.930 . S
C802 C800 1.378 . S
C802 C803 1.367 . S
C803 C802 1.367 . S
C803 C805 1.433 . S
C804 C800 1.350 . S
C804 C801 1.463 . S
C804 N808 1.427 . S
C805 H795 0.929 . S
C805 C803 1.433 . S
C805 N808 1.384 . S
C806 H797 0.929 . S
C806 C798 1.378 . S
C806 C801 1.350 . S
C807 H794 0.929 . S
C807 C799 1.433 . S
C807 N809 1.384 . S
N808 C804 1.427 . S
N808 C805 1.384 . S
N809 C801 1.427 . S
N809 C807 1.384 . S
H810 C816 0.930 1_545 S
H811 C820 0.930 . S
H812 C825 0.929 . S
H813 C823 0.929 . S
H814 C818 0.929 . S
H815 C824 0.929 . S
C816 H810 0.930 1_565 S
C816 C817 1.367 . S
C816 C824 1.378 . S
C817 C816 1.367 . S
C817 C825 1.433 . S
C818 H814 0.929 . S
C818 C820 1.378 . S
C818 C822 1.350 . S
C819 C822 1.463 . S
C819 C824 1.350 . S
C819 N827 1.427 . S
C820 H811 0.930 . S
C820 C818 1.378 . S
C820 C821 1.367 . S
C821 C820 1.367 . S
C821 C823 1.433 . S
C822 C818 1.350 . S
C822 C819 1.463 . S
C822 N826 1.427 . S
C823 H813 0.929 . S
C823 C821 1.433 . S
C823 N826 1.384 . S
C824 H815 0.929 . S
C824 C816 1.378 . S
C824 C819 1.350 . S
C825 H812 0.929 . S
C825 C817 1.433 . S
C825 N827 1.384 . S
N826 C822 1.427 . S
N826 C823 1.384 . S
N827 C819 1.427 . S
N827 C825 1.384 . S
C511 C403 1.146 . S
C515 C69 0.971 . S
C529 C487 1.144 . S
C533 C153 0.959 . S
C547 C67 1.150 . S
C551 C237 0.968 . S
C565 C151 1.157 . S
C569 C321 0.988 . S
C583 C235 1.158 . S
C587 C405 1.000 . S
C601 C319 1.159 . S
C605 C489 0.998 . S
C619 C63 1.473 . S
C623 C315 1.466 . S
C637 C399 1.465 . S
C641 C147 1.460 . S
C655 C483 1.478 . S
C659 C231 1.480 . S
C673 C242 1.670 . S
C677 C494 1.675 . S
C691 C74 1.671 . S
C695 C326 1.675 . S
C709 C410 1.669 . S
C713 C158 1.674 . S
C727 C476 1.089 . S
C731 C58 0.998 . S
C745 C142 1.025 1_455 S
C749 C56 1.083 . S
C763 C226 1.017 1_545 S
C767 C140 1.077 . S
C781 C224 1.083 . S
C785 C310 0.992 . S
C799 C394 1.015 1_655 S
C803 C308 1.093 . S
C817 C478 1.000 1_565 S
C821 C392 1.090 . S
