# Generated by pormake.
# Topology nov, (5)-cn, num edge types: 1
# Building blocks:
#     Node 0, Type 0, BuildingBlock: XOMCOT_clean_sbu_1, # of connection points: 5
#     Node 1, Type 0, BuildingBlock: XOMCOT_clean_sbu_1, # of connection points: 5
#     Node 2, Type 0, BuildingBlock: XOMCOT_clean_sbu_1, # of connection points: 5
#     Node 3, Type 0, BuildingBlock: XOMCOT_clean_sbu_1, # of connection points: 5
#     Node 4, Type 0, BuildingBlock: XOMCOT_clean_sbu_1, # of connection points: 5
#     Node 5, Type 0, BuildingBlock: XOMCOT_clean_sbu_1, # of connection points: 5
#     Node 6, Type 0, BuildingBlock: XOMCOT_clean_sbu_1, # of connection points: 5
#     Node 7, Type 0, BuildingBlock: XOMCOT_clean_sbu_1, # of connection points: 5
#     Edge 8, Type (0, 0), BuildingBlock: KIFKEQ_clean_linker_1, # of connection points: 2
#     Edge 9, Type (0, 0), BuildingBlock: KIFKEQ_clean_linker_1, # of connection points: 2
#     Edge 10, Type (0, 0), BuildingBlock: KIFKEQ_clean_linker_1, # of connection points: 2
#     Edge 11, Type (0, 0), BuildingBlock: KIFKEQ_clean_linker_1, # of connection points: 2
#     Edge 12, Type (0, 0), BuildingBlock: KIFKEQ_clean_linker_1, # of connection points: 2
#     Edge 13, Type (0, 0), BuildingBlock: KIFKEQ_clean_linker_1, # of connection points: 2
#     Edge 14, Type (0, 0), BuildingBlock: KIFKEQ_clean_linker_1, # of connection points: 2
#     Edge 15, Type (0, 0), BuildingBlock: KIFKEQ_clean_linker_1, # of connection points: 2
#     Edge 16, Type (0, 0), BuildingBlock: KIFKEQ_clean_linker_1, # of connection points: 2
#     Edge 17, Type (0, 0), BuildingBlock: KIFKEQ_clean_linker_1, # of connection points: 2
#     Edge 18, Type (0, 0), BuildingBlock: KIFKEQ_clean_linker_1, # of connection points: 2
#     Edge 19, Type (0, 0), BuildingBlock: KIFKEQ_clean_linker_1, # of connection points: 2
#     Edge 20, Type (0, 0), BuildingBlock: KIFKEQ_clean_linker_1, # of connection points: 2
#     Edge 21, Type (0, 0), BuildingBlock: KIFKEQ_clean_linker_1, # of connection points: 2
#     Edge 22, Type (0, 0), BuildingBlock: KIFKEQ_clean_linker_1, # of connection points: 2
#     Edge 23, Type (0, 0), BuildingBlock: KIFKEQ_clean_linker_1, # of connection points: 2
#     Edge 24, Type (0, 0), BuildingBlock: KIFKEQ_clean_linker_1, # of connection points: 2
#     Edge 25, Type (0, 0), BuildingBlock: KIFKEQ_clean_linker_1, # of connection points: 2
#     Edge 26, Type (0, 0), BuildingBlock: KIFKEQ_clean_linker_1, # of connection points: 2
#     Edge 27, Type (0, 0), BuildingBlock: KIFKEQ_clean_linker_1, # of connection points: 2
# Relax obj value: 0.130
# Max RMSD: 0.163
# Mean RMSD: 0.163
data_MOF--net-nov--node1-XOMCOT_clean_sbu_1--edge1-KIFKEQ_clean_linker_1
_symmetry_space_group_name_H-M    P1
_symmetry_Int_Tables_number       1
_symmetry_cell_setting            triclinic
loop_
_symmetry_equiv_pos_as_xyz
'x, y, z'
_cell_length_a     26.775231
_cell_length_b     54.074036
_cell_length_c     28.678051
_cell_angle_alpha  90.188367
_cell_angle_beta   89.965797
_cell_angle_gamma 89.677975
loop_
_atom_site_label
_atom_site_type_symbol
_atom_site_fract_x
_atom_site_fract_y
_atom_site_fract_z
_atom_type_partial_charge
C0 C 0.11214 0.14191 0.05997 0.0
C1 C 0.11219 0.12047 0.03404 0.0
N2 N 0.08742 0.10311 0.05815 0.0
N3 N 0.08646 0.13825 0.09986 0.0
C4 C 0.0726 0.11424 0.09815 0.0
H5 H 0.129 0.15926 0.0501 0.0
Co6 Co 0.07499 0.16238 0.14598 0.0
C7 C 0.96589 0.14775 0.15823 0.0
O8 O 0.9509 0.16381 0.12711 0.0
N9 N 0.06399 0.18602 0.19358 0.0
C10 C 1.02772 0.21424 0.23918 0.0
C11 C 1.02034 0.19749 0.20391 0.0
C12 C 0.09728 0.19598 0.22375 0.0
N13 N 0.07607 0.21328 0.25161 0.0
O14 O 0.11589 0.14333 0.18855 0.0
H15 H 0.98551 0.19472 0.18589 0.0
H16 H 0.13656 0.19123 0.22451 0.0
O17 O 1.01262 0.14539 0.16759 0.0
C18 C 0.16102 0.14814 0.17702 0.0
O19 O 0.16827 0.16366 0.1425 0.0
N20 N 0.04222 0.18315 0.10063 0.0
C21 C 1.01882 0.21544 0.02665 0.0
C22 C 1.00581 0.1903 0.0247 0.0
C23 C 1.01798 0.17453 0.06176 0.0
C24 C 0.05574 0.20749 0.10229 0.0
C25 C 0.04257 0.22396 0.06714 0.0
H26 H 1.00921 0.15511 0.05835 0.0
H27 H 0.07931 0.21439 0.12983 0.0
H28 H 0.05153 0.10517 0.12533 0.0
H29 H 0.1296 0.11773 1.00032 0.0
H30 H 0.99967 0.22627 0.2545 0.0
H31 H 0.98864 0.18244 0.99395 0.0
H32 H 0.05312 0.24313 0.07122 0.0
C33 C 0.54076 0.88924 0.54396 0.0
C34 C 0.53754 0.91101 0.51963 0.0
N35 N 0.54354 0.92989 0.54977 0.0
N36 N 0.5495 0.89418 0.58939 0.0
C37 C 0.54992 0.91919 0.59196 0.0
H38 H 0.53648 0.871 0.52913 0.0
Co39 Co 0.55606 0.87087 0.63778 0.0
C40 C 0.65251 0.9005 0.64738 0.0
O41 O 0.65433 0.90699 0.60331 0.0
N42 N 0.56294 0.84768 0.68582 0.0
C43 C 0.59962 0.81995 0.73164 0.0
C44 C 0.60697 0.83694 0.69706 0.0
C45 C 0.52926 0.83713 0.7148 0.0
N46 N 0.55087 0.82006 0.74279 0.0
O47 O 0.51242 0.89077 0.67654 0.0
H48 H 0.64241 0.84104 0.68085 0.0
H49 H 0.48976 0.84147 0.71485 0.0
O50 O 0.61639 0.88728 0.66234 0.0
C51 C 0.4682 0.88627 0.66196 0.0
O52 O 0.46334 0.87095 0.62658 0.0
N53 N 0.59175 0.84939 0.59796 0.0
C54 C 0.62056 0.81439 0.53103 0.0
C55 C 0.65495 0.83174 0.54832 0.0
C56 C 0.63989 0.84907 0.58213 0.0
C57 C 0.55885 0.83193 0.58319 0.0
C58 C 0.5722 0.81446 0.54969 0.0
H59 H 0.66704 0.86192 0.59502 0.0
H60 H 0.521 0.83224 0.59636 0.0
H61 H 0.55602 0.9293 0.62407 0.0
H62 H 0.53055 0.91276 0.48261 0.0
H63 H 0.62804 0.80855 0.74785 0.0
H64 H 0.69307 0.83202 0.53569 0.0
H65 H 0.544 0.80177 0.53727 0.0
C66 C 0.09981 0.88738 0.94946 0.0
C67 C 0.10027 0.90871 0.97567 0.0
N68 N 0.07626 0.92648 0.95162 0.0
N69 N 0.07445 0.89148 0.90951 0.0
C70 C 0.06135 0.91567 0.91143 0.0
H71 H 0.11682 0.8699 0.95886 0.0
Co72 Co 0.06513 0.86814 0.86152 0.0
C73 C 0.95418 0.87913 0.85027 0.0
O74 O 0.94335 0.86054 0.87755 0.0
N75 N 0.05687 0.84528 0.81178 0.0
C76 C 1.02336 0.8199 0.75923 0.0
C77 C 1.01446 0.83376 0.79847 0.0
C78 C 0.0914 0.83756 0.7802 0.0
N79 N 0.07169 0.82233 0.74773 0.0
O80 O 0.10379 0.88903 0.82062 0.0
H81 H 0.97913 0.83479 0.81617 0.0
H82 H 0.12996 0.84338 0.78016 0.0
O83 O 1.00019 0.88439 0.84201 0.0
C84 C 0.14914 0.88465 0.83235 0.0
O85 O 0.1572 0.86817 0.86516 0.0
N86 N 1.03483 0.84578 0.90523 0.0
C87 C 1.01612 0.81227 0.97815 0.0
C88 C 1.00038 0.83706 0.98125 0.0
C89 C 1.01003 0.85342 0.94463 0.0
C90 C 0.05018 0.82168 0.90192 0.0
C91 C 1.03951 0.80459 0.93673 0.0
H92 H 0.99889 0.87256 0.94878 0.0
H93 H 0.07347 0.81553 0.8734 0.0
H94 H 0.04154 0.9252 0.88387 0.0
H95 H 0.11809 0.91121 0.00922 0.0
H96 H 0.99643 0.80872 0.74066 0.0
H97 H 0.98309 0.84431 0.01258 0.0
H98 H 0.05184 0.78569 0.93172 0.0
C99 C 0.5536 0.15079 0.46874 0.0
C100 C 0.54746 0.12959 0.49437 0.0
N101 N 0.55046 0.11005 0.46524 0.0
N102 N 0.56146 0.14474 0.42362 0.0
C103 C 0.55799 0.1198 0.42244 0.0
H104 H 0.55204 0.16946 0.48227 0.0
Co105 Co 0.5703 0.16699 0.37409 0.0
C106 C 0.66225 0.13258 0.35948 0.0
O107 O 0.66095 0.12099 0.39963 0.0
N108 N 0.57916 0.18909 0.32447 0.0
C109 C 0.61877 0.21181 0.27185 0.0
C110 C 0.62402 0.19815 0.3117 0.0
C111 C 0.5469 0.19787 0.29203 0.0
N112 N 0.57036 0.21157 0.25938 0.0
O113 O 0.52445 0.14783 0.33663 0.0
H114 H 0.65882 0.19448 0.32959 0.0
H115 H 0.50753 0.19351 0.29113 0.0
O116 O 0.62912 0.14894 0.34983 0.0
C117 C 0.48045 0.1537 0.35036 0.0
O118 O 0.47635 0.16994 0.3844 0.0
N119 N 0.60945 0.18745 0.41255 0.0
C120 C 0.64448 0.21924 0.48211 0.0
C121 C 0.67032 0.19727 0.47119 0.0
C122 C 0.65221 0.18158 0.43609 0.0
C123 C 0.58523 0.20919 0.42141 0.0
C124 C 0.60223 0.2254 0.45564 0.0
H125 H 0.67092 0.16422 0.43019 0.0
H126 H 0.55065 0.21332 0.40347 0.0
H127 H 0.56206 0.109 0.39082 0.0
H128 H 0.54063 0.1287 0.53152 0.0
H129 H 0.64843 0.22095 0.25301 0.0
H130 H 0.70309 0.19178 0.49081 0.0
H131 H 0.58034 0.24182 0.46334 0.0
C132 C 0.61215 0.64604 0.04131 0.0
C133 C 0.60753 0.62396 0.01833 0.0
N134 N 0.59662 0.60637 0.04975 0.0
N135 N 0.60326 0.64278 0.08719 0.0
C136 C 0.5939 0.61826 0.09141 0.0
H137 H 0.62394 0.66323 0.02577 0.0
Co138 Co 0.61774 0.6678 0.1305 0.0
C139 C 0.52266 0.67495 0.18179 0.0
O140 O 0.52825 0.69867 0.17344 0.0
N141 N 0.63737 0.69259 0.17306 0.0
C142 C 0.69182 0.71899 0.20389 0.0
C143 C 0.6805 0.70478 0.1658 0.0
C144 C 0.62497 0.6986 0.21761 0.0
N145 N 0.65684 0.71515 0.23673 0.0
O146 O 0.65861 0.64531 0.16605 0.0
H147 H 0.70391 0.7025 0.13534 0.0
H148 H 0.59538 0.68986 0.237 0.0
O149 O 0.55657 0.65968 0.16784 0.0
C150 C 0.70164 0.64146 0.14805 0.0
O151 O 0.71008 0.64956 0.10564 0.0
N152 N 0.58085 0.69084 0.09286 0.0
C153 C 0.53668 0.72171 0.02583 0.0
C154 C 0.51135 0.70091 0.04261 0.0
C155 C 0.53413 0.68567 0.07596 0.0
C156 C 0.60589 0.71087 0.07616 0.0
C157 C 0.58426 0.72671 0.04359 0.0
H158 H 0.51511 0.66904 0.08663 0.0
H159 H 0.64411 0.71404 0.0854 0.0
H160 H 0.58899 0.60907 0.12456 0.0
H161 H 0.61374 0.62091 0.98145 0.0
H162 H 0.72399 0.73088 0.20722 0.0
H163 H 0.47489 0.69609 0.02915 0.0
H164 H 0.60614 0.74191 0.03021 0.0
C165 C 0.04917 0.38694 0.54944 0.0
C166 C 0.04617 0.40851 0.52447 0.0
N167 N 0.05554 0.4275 0.55355 0.0
N168 N 0.06111 0.3921 0.59415 0.0
C169 C 0.06352 0.4171 0.59579 0.0
H170 H 0.04274 0.3686 0.53571 0.0
Co171 Co 0.06625 0.3681 0.64143 0.0
C172 C 0.16367 0.39729 0.65752 0.0
O173 O 0.16377 0.40882 0.6173 0.0
N174 N 0.07087 0.34407 0.68802 0.0
C175 C 0.10237 0.31411 0.73219 0.0
C176 C 0.11263 0.33094 0.69789 0.0
C177 C 1.03582 0.33518 0.71746 0.0
N178 N 0.05421 0.31683 0.74436 0.0
O179 O 1.0241 0.38804 0.68172 0.0
H180 H 0.14835 0.33335 0.68091 0.0
H181 H 0.99761 0.34176 0.71889 0.0
O182 O 0.12809 0.3825 0.66768 0.0
C183 C 0.97885 0.38734 0.66743 0.0
O184 O 0.96911 0.37534 0.6286 0.0
N185 N 0.10158 0.347 0.60049 0.0
C186 C 0.13299 0.31401 0.53118 0.0
C187 C 0.16233 0.3345 0.54326 0.0
C188 C 0.14604 0.35079 0.57831 0.0
C189 C 0.07331 0.32689 0.58972 0.0
C190 C 0.08849 0.31007 0.55567 0.0
H191 H 0.16823 0.36677 0.58573 0.0
H192 H 1.03752 0.32445 0.60658 0.0
H193 H 0.07099 0.42746 0.62736 0.0
H194 H 1.03864 0.41005 0.48751 0.0
H195 H 0.12841 0.30114 0.74771 0.0
H196 H 0.19684 0.33825 0.52494 0.0
H197 H 0.06406 0.29487 0.54682 0.0
C198 C 0.59057 0.38565 0.96397 0.0
C199 C 0.59334 0.40705 0.98965 0.0
N200 N 0.58477 0.42637 0.96114 0.0
N201 N 0.57958 0.39114 0.91928 0.0
C202 C 0.57759 0.41618 0.91841 0.0
H203 H 0.59706 0.3672 0.97712 0.0
Co204 Co 0.57458 0.36762 0.87074 0.0
C205 C 0.47604 0.39673 0.85795 0.0
O206 O 0.47602 0.40763 0.89893 0.0
N207 N 0.56978 0.34418 0.82275 0.0
C208 C 0.53675 0.31568 0.77636 0.0
C209 C 0.52716 0.33243 0.81121 0.0
C210 C 0.60487 0.33443 0.79392 0.0
N211 N 0.58557 0.31691 0.7655 0.0
O212 O 0.61553 0.38804 0.83099 0.0
H213 H 0.49129 0.33561 0.82761 0.0
H214 H 0.64383 0.33965 0.79441 0.0
O215 O 0.51207 0.3823 0.84636 0.0
C216 C 0.66097 0.38713 0.84473 0.0
O217 O 0.67141 0.37477 0.8829 0.0
N218 N 0.5406 0.3459 0.91094 0.0
C219 C 0.5122 0.31148 0.97825 0.0
C220 C 0.4818 0.33207 0.96853 0.0
C221 C 0.49654 0.34908 0.93436 0.0
C222 C 0.57004 0.32583 0.91972 0.0
C223 C 0.55638 0.30832 0.9527 0.0
H224 H 0.47352 0.36509 0.92855 0.0
H225 H 0.60556 0.32389 0.90205 0.0
H226 H 0.57026 0.42662 0.88701 0.0
H227 H 0.60219 0.40818 0.02639 0.0
H228 H 0.50978 0.30363 0.75991 0.0
H229 H 0.44753 0.33524 0.98778 0.0
H230 H 0.58163 0.29306 0.95975 0.0
C231 C 0.07989 0.64549 0.4564 0.0
C232 C 0.0763 0.62423 0.48192 0.0
N233 N 0.08651 0.60485 0.45382 0.0
N234 N 0.09317 0.63993 0.41218 0.0
C235 C 0.09577 0.61488 0.41139 0.0
H236 H 0.07148 0.66387 0.46918 0.0
Co237 Co 0.09623 0.66389 0.36457 0.0
C238 C 0.19795 0.63739 0.34905 0.0
O239 O 0.19778 0.62359 0.38663 0.0
N240 N 0.09852 0.68789 0.31781 0.0
C241 C 0.12578 0.71898 0.27437 0.0
C242 C 0.13819 0.70244 0.30865 0.0
C243 C 0.06259 0.69568 0.28805 0.0
N244 N 0.07836 0.71467 0.26152 0.0
O245 O 0.05887 0.64258 0.3232 0.0
H246 H 0.17381 0.70131 0.32632 0.0
H247 H 1.02543 0.68799 0.28639 0.0
O248 O 0.16102 0.65182 0.34059 0.0
C249 C 1.01305 0.64191 0.33584 0.0
O250 O 1.00012 0.65328 0.37462 0.0
N251 N 0.12696 0.68614 0.40603 0.0
C252 C 0.15258 0.72092 0.47389 0.0
C253 C 0.18382 0.70048 0.46493 0.0
C254 C 0.17044 0.68326 0.4304 0.0
C255 C 0.0964 0.70586 0.41455 0.0
C256 C 0.10875 0.72358 0.44771 0.0
H257 H 0.19376 0.66722 0.42498 0.0
H258 H 0.06118 0.70743 0.3963 0.0
H259 H 0.10382 0.60428 0.38019 0.0
H260 H 0.06498 0.62318 0.51808 0.0
H261 H 0.14986 0.73291 0.25947 0.0
H262 H 0.21764 0.69763 0.48494 0.0
H263 H 0.08283 0.73864 0.45433 0.0
H264 H 0.09235 0.96688 0.89888 0.0
H265 H 0.04889 0.94338 0.03621 0.0
H266 H 0.09221 1.00985 0.925 0.0
H267 H 0.04498 0.9863 0.06223 0.0
H268 H 0.09797 0.06209 0.1106 0.0
H269 H 0.09216 0.01928 0.08426 0.0
H270 H 0.05003 0.04476 0.94672 0.0
H271 H 0.05955 0.08738 0.97298 0.0
C272 C 0.08156 0.97109 0.93443 0.0
C273 C 0.0708 0.95194 0.96561 0.0
C274 C 0.08119 0.99576 0.94959 0.0
C275 C 0.06881 1.00191 0.9961 0.0
C276 C 0.0561 0.98255 0.02661 0.0
C277 C 0.05777 0.95789 0.0117 0.0
C278 C 0.08717 0.05835 0.07489 0.0
C279 C 0.07945 0.07791 0.04374 0.0
C280 C 0.08349 0.03379 0.05963 0.0
C281 C 0.07072 0.02819 0.01301 0.0
C282 C 0.06126 0.04803 0.98244 0.0
C283 C 0.06623 0.07253 0.99748 0.0
H284 H 0.52014 0.0718 0.41084 0.0
H285 H 0.57563 0.08957 0.54816 0.0
H286 H 0.51712 0.02818 0.43199 0.0
H287 H 0.57314 0.04605 0.56922 0.0
H288 H 0.51769 0.96849 0.60586 0.0
H289 H 0.51763 1.01234 0.58565 0.0
H290 H 0.57192 0.99402 0.44782 0.0
H291 H 0.57143 0.9504 0.4679 0.0
C292 C 0.53201 0.06639 0.44542 0.0
C293 C 0.54806 0.08423 0.47776 0.0
C294 C 0.53034 0.04136 0.4576 0.0
C295 C 0.54494 0.03352 0.50237 0.0
C296 C 0.56079 0.0514 0.53473 0.0
C297 C 0.56227 0.07641 0.52261 0.0
C298 C 0.52986 0.97387 0.57138 0.0
C299 C 0.54426 0.95589 0.53845 0.0
C300 C 0.52987 0.99902 0.55974 0.0
C301 C 0.54452 1.00678 0.51496 0.0
C302 C 0.55935 0.98875 0.48227 0.0
C303 C 0.55915 0.96368 0.49383 0.0
H304 H 0.53739 0.57193 0.09033 0.0
H305 H 0.65326 0.58139 0.98753 0.0
H306 H 0.53134 0.52806 0.06883 0.0
H307 H 0.64828 0.53797 0.96672 0.0
H308 H 0.5958 0.46633 0.90443 0.0
H309 H 0.59584 0.50968 0.92718 0.0
H310 H 0.57351 0.48892 0.07098 0.0
H311 H 0.57067 0.44572 0.04798 0.0
C312 C 0.56186 0.56455 0.06356 0.0
C313 C 0.59523 0.58016 0.04019 0.0
C314 C 0.5585 0.53946 0.05116 0.0
C315 C 0.58881 0.52945 0.01541 0.0
C316 C 0.62324 0.54505 0.99332 0.0
C317 C 0.62627 0.57 0.00542 0.0
C318 C 0.59025 0.47093 0.9408 0.0
C319 C 0.58375 0.45227 0.97426 0.0
C320 C 0.59086 0.49588 0.95402 0.0
C321 C 0.58524 0.50291 1.00111 0.0
C322 C 0.57767 0.48431 0.03441 0.0
C323 C 0.5768 0.45938 0.02117 0.0
H324 H 0.11717 0.4618 0.59085 0.0
H325 H 1.00337 0.45129 0.48639 0.0
H326 H 0.12805 0.5044 0.56513 0.0
H327 H 1.01302 0.49399 0.46127 0.0
H328 H 0.07282 0.56467 0.39751 0.0
H329 H 0.06729 0.52152 0.42156 0.0
H330 H 0.08955 0.54355 0.565 0.0
H331 H 0.09804 0.58612 0.54078 0.0
C332 C 0.09391 0.46875 0.56289 0.0
C333 C 0.05942 0.45319 0.54069 0.0
C334 C 0.10012 0.49317 0.54801 0.0
C335 C 0.07156 0.50275 0.51086 0.0
C336 C 1.03649 0.48721 0.48923 0.0
C337 C 1.03067 0.46274 0.50383 0.0
C338 C 0.07729 0.56026 0.43405 0.0
C339 C 0.0854 0.57906 0.46714 0.0
C340 C 0.07347 0.5355 0.448 0.0
C341 C 0.07757 0.52893 0.49539 0.0
C342 C 0.08666 0.54772 0.5282 0.0
C343 C 0.09079 0.57234 0.51427 0.0
H344 H 0.38548 0.16065 0.38067 0.0
H345 H 0.46958 0.12632 0.26918 0.0
H346 H 0.30834 0.15196 0.34051 0.0
H347 H 0.3912 0.11651 0.22919 0.0
H348 H 0.25502 0.14452 0.14371 0.0
H349 H 0.3316 0.13913 0.18709 0.0
H350 H 0.2461 0.12544 0.31224 0.0
H351 H 0.16853 0.13198 0.26833 0.0
C352 C 0.38753 0.15077 0.3478 0.0
C353 C 0.43401 0.14459 0.32777 0.0
C354 C 0.34285 0.14547 0.32491 0.0
C355 C 0.34299 0.13364 0.28123 0.0
C356 C 0.38946 0.12606 0.26239 0.0
C357 C 0.4345 0.13152 0.28538 0.0
C358 C 0.25236 0.13996 0.18039 0.0
C359 C 0.2056 0.13909 0.20274 0.0
C360 C 0.2966 0.13659 0.20532 0.0
C361 C 0.29559 0.13214 0.25354 0.0
C362 C 0.24854 0.12935 0.27532 0.0
C363 C 0.20394 0.13281 0.25015 0.0
H364 H 0.37386 0.88346 0.62864 0.0
H365 H 0.45742 0.91012 0.74713 0.0
H366 H 0.29651 0.89106 0.66934 0.0
H367 H 0.3788 0.91911 0.78778 0.0
H368 H 0.24271 0.88724 0.86667 0.0
H369 H 0.31911 0.89527 0.82501 0.0
H370 H 0.23367 0.91515 0.70265 0.0
H371 H 0.15624 0.90569 0.74457 0.0
C372 C 0.37574 0.89151 0.66324 0.0
C373 C 0.42207 0.89567 0.68501 0.0
C374 C 0.33092 0.89622 0.68651 0.0
C375 C 0.33079 0.90547 0.73233 0.0
C376 C 0.37722 0.91143 0.75291 0.0
C377 C 0.42242 0.90649 0.72955 0.0
C378 C 0.23997 0.89366 0.831 0.0
C379 C 0.19333 0.8953 0.80861 0.0
C380 C 0.28415 0.8986 0.80711 0.0
C381 C 0.28321 0.90556 0.75998 0.0
C382 C 0.23613 0.90925 0.73861 0.0
C383 C 0.19159 0.90411 0.76268 0.0
H384 H 0.85618 0.87573 0.87158 0.0
H385 H 0.95507 0.90713 0.76894 0.0
H386 H 0.78536 0.88495 0.82351 0.0
H387 H 0.88251 0.91834 0.7211 0.0
H388 H 0.75054 0.90156 0.62111 0.0
H389 H 0.82391 0.90185 0.67119 0.0
H390 H 0.72801 0.91005 0.79188 0.0
H391 H 0.65499 0.90758 0.74167 0.0
C392 C 0.8628 0.88528 0.83902 0.0
C393 C 0.91171 0.89035 0.82401 0.0
C394 C 0.82156 0.89092 0.81132 0.0
C395 C 0.82729 0.90242 0.76772 0.0
C396 C 0.87619 0.90901 0.75387 0.0
C397 C 0.91797 0.90294 0.78162 0.0
C398 C 0.74531 0.90364 0.65839 0.0
C399 C 0.69695 0.90427 0.67752 0.0
C400 C 0.78759 0.90399 0.6873 0.0
C401 C 0.78269 0.90555 0.73619 0.0
C402 C 0.73396 0.90787 0.75478 0.0
C403 C 0.69177 0.90675 0.72596 0.0
H404 H 0.74908 0.10664 0.37617 0.0
H405 H 0.67668 0.1523 0.27272 0.0
H406 H 0.82432 0.10484 0.32784 0.0
H407 H 0.75174 0.15086 0.22508 0.0
H408 H 0.87544 0.132 0.12954 0.0
H409 H 0.80238 0.12395 0.17755 0.0
H410 H 0.89225 0.13205 0.30164 0.0
H411 H 0.96603 0.1396 0.25298 0.0
C412 C 0.74896 0.11612 0.34298 0.0
C413 C 0.70662 0.12965 0.32845 0.0
C414 C 0.79232 0.11523 0.31541 0.0
C415 C 0.79432 0.12764 0.27242 0.0
C416 C 0.75153 0.14071 0.25757 0.0
C417 C 0.70839 0.14169 0.28512 0.0
C418 C 0.87992 0.13136 0.16707 0.0
C419 C 0.92647 0.13645 0.18747 0.0
C420 C 0.83786 0.12704 0.19467 0.0
C421 C 0.84096 0.12794 0.24357 0.0
C422 C 0.8884 0.13118 0.26409 0.0
C423 C 0.93082 0.13537 0.23626 0.0
H424 H 1.00501 0.64478 0.24061 0.0
H425 H 0.92837 0.61925 0.36346 0.0
H426 H 0.92866 0.63944 0.19512 0.0
H427 H 0.85273 0.61277 0.31805 0.0
H428 H 0.71307 0.64367 0.24298 0.0
H429 H 0.79034 0.63823 0.28667 0.0
H430 H 0.866 0.6151 0.1605 0.0
H431 H 0.78902 0.62148 0.11676 0.0
C432 C 0.97239 0.63708 0.25743 0.0
C433 C 0.9726 0.63247 0.30555 0.0
C434 C 0.92837 0.63405 0.23143 0.0
C435 C 0.88381 0.62605 0.25294 0.0
C436 C 0.8856 0.61962 0.3004 0.0
C437 C 0.92922 0.62301 0.32638 0.0
C438 C 0.74587 0.63682 0.22485 0.0
C439 C 0.74487 0.63305 0.17641 0.0
C440 C 0.79044 0.63367 0.24989 0.0
C441 C 0.83504 0.62642 0.2272 0.0
C442 C 0.83299 0.62122 0.17914 0.0
C443 C 0.78861 0.62463 0.15409 0.0
H444 H 0.89369 0.40807 0.63478 0.0
H445 H 0.9661 0.38592 0.76231 0.0
H446 H 0.81566 0.41478 0.6767 0.0
H447 H 0.88746 0.39137 0.80435 0.0
H448 H 0.74512 0.40853 0.87723 0.0
H449 H 0.82291 0.41531 0.83524 0.0
H450 H 0.75207 0.39078 0.70784 0.0
H451 H 0.67366 0.38527 0.74994 0.0
C452 C 0.89302 0.40505 0.67211 0.0
C453 C 0.936 0.39656 0.69533 0.0
C454 C 0.84802 0.40857 0.69612 0.0
C455 C 0.84443 0.40321 0.74396 0.0
C456 C 0.88844 0.39601 0.76768 0.0
C457 C 0.9338 0.3929 0.74367 0.0
C458 C 0.74593 0.40531 0.83992 0.0
C459 C 0.70329 0.39651 0.81678 0.0
C460 C 0.7908 0.40886 0.81588 0.0
C461 C 0.79462 0.40319 0.7681 0.0
C462 C 0.75089 0.39567 0.74444 0.0
C463 C 0.70565 0.39254 0.76848 0.0
H464 H 0.46589 0.38283 0.76622 0.0
H465 H 0.38309 0.41395 0.88187 0.0
H466 H 0.39014 0.38385 0.71843 0.0
H467 H 0.30746 0.41458 0.83428 0.0
H468 H 0.17422 0.38147 0.74808 0.0
H469 H 0.24971 0.38229 0.79634 0.0
H470 H 0.33074 0.41643 0.68377 0.0
H471 H 0.25548 0.41601 0.63583 0.0
C472 C 0.43168 0.38999 0.78141 0.0
C473 C 0.43078 0.39841 0.82788 0.0
C474 C 0.38829 0.39061 0.75399 0.0
C475 C 0.34272 0.39923 0.77262 0.0
C476 C 0.34183 0.40765 0.81903 0.0
C477 C 0.38536 0.40745 0.84617 0.0
C478 C 0.20801 0.38934 0.73375 0.0
C479 C 0.20858 0.39875 0.68807 0.0
C480 C 0.25124 0.38984 0.76143 0.0
C481 C 0.29629 0.39934 0.74381 0.0
C482 C 0.29679 0.4088 0.69823 0.0
C483 C 0.25345 0.40869 0.67088 0.0
H484 H 0.28825 0.61375 0.36212 0.0
H485 H 0.21317 0.66509 0.27041 0.0
H486 H 0.36648 0.62042 0.31999 0.0
H487 H 0.29095 0.67151 0.22828 0.0
H488 H 0.44565 0.70416 0.21047 0.0
H489 H 0.36816 0.69255 0.24737 0.0
H490 H 0.41373 0.61586 0.24462 0.0
H491 H 0.49291 0.62764 0.20722 0.0
C492 C 0.28815 0.62621 0.33263 0.0
C493 C 0.24429 0.63913 0.32019 0.0
C494 C 0.33309 0.62994 0.30832 0.0
C495 C 0.33537 0.64676 0.27106 0.0
C496 C 0.29095 0.65879 0.25738 0.0
C497 C 0.24614 0.65503 0.28151 0.0
C498 C 0.4396 0.68474 0.21751 0.0
C499 C 0.47589 0.66684 0.20558 0.0
C500 C 0.39462 0.67806 0.23849 0.0
C501 C 0.38411 0.65323 0.24853 0.0
C502 C 0.42058 0.63519 0.23741 0.0
C503 C 0.46591 0.64192 0.21591 0.0
H504 H 1.03972 0.26794 0.74835 0.0
H505 H 1.0179 0.33603 0.824 0.0
H506 H 1.01714 0.24427 0.8181 0.0
H507 H 0.99696 0.31245 0.89456 0.0
H508 H 0.07779 0.25455 1.00042 0.0
H509 H 0.06974 0.28081 0.93284 0.0
H510 H 0.941 0.23978 0.88759 0.0
H511 H 0.94597 0.21424 0.95786 0.0
C512 C 1.0284 0.27773 0.77965 0.0
C513 C 1.03004 0.30364 0.78116 0.0
C514 C 1.01547 0.26429 0.81936 0.0
C515 C 1.00528 0.27661 0.86147 0.0
C516 C 1.00429 0.30261 0.86229 0.0
C517 C 1.01602 0.31605 0.82216 0.0
C518 C 0.04632 0.25148 0.97754 0.0
C519 C 1.01215 0.23218 0.98557 0.0
C520 C 0.04208 0.26657 0.93843 0.0
C521 C 1.00449 0.26245 0.90546 0.0
C522 C 0.97013 0.24336 0.91289 0.0
C523 C 0.97347 0.22858 0.9529 0.0
H524 H 0.6777 0.82379 0.45375 0.0
H525 H 0.5916 0.76612 0.51927 0.0
H526 H 0.68953 0.79748 0.38536 0.0
H527 H 0.60244 0.74014 0.45028 0.0
H528 H 0.57554 0.72047 0.29282 0.0
H529 H 0.5713 0.74231 0.36735 0.0
H530 H 0.72909 0.75759 0.35911 0.0
H531 H 0.7338 0.73536 0.28543 0.0
C532 C 0.6621 0.80536 0.45403 0.0
C533 C 0.63331 0.79722 0.49197 0.0
C534 C 0.6687 0.79031 0.4147 0.0
C535 C 0.64643 0.76685 0.41227 0.0
C536 C 0.61928 0.75831 0.45082 0.0
C537 C 0.61308 0.77324 0.49031 0.0
C538 C 0.60953 0.72807 0.30721 0.0
C539 C 0.65487 0.72632 0.28259 0.0
C540 C 0.60708 0.74063 0.34994 0.0
C541 C 0.64982 0.75184 0.36887 0.0
C542 C 0.69537 0.7495 0.34501 0.0
C543 C 0.69794 0.73679 0.30258 0.0
H544 H 0.08002 0.77417 1.00143 0.0
H545 H 0.9462 0.8118 0.04965 0.0
H546 H 0.07902 0.74847 0.07023 0.0
H547 H 0.94851 0.78699 0.12088 0.0
H548 H 0.0666 0.7637 0.25315 0.0
H549 H 1.03726 0.78582 0.18371 0.0
H550 H 1.00597 0.71613 0.1165 0.0
H551 H 1.03367 0.69405 0.18698 0.0
C552 C 0.04957 0.77673 0.02578 0.0
C553 C 1.01292 0.79524 0.01913 0.0
C554 C 0.0494 0.76198 0.06555 0.0
C555 C 1.01351 0.76569 0.10039 0.0
C556 C 0.97639 0.78377 0.09411 0.0
C557 C 0.97561 0.79816 0.05353 0.0
C558 C 0.05175 0.75326 0.22405 0.0
C559 C 0.05217 0.72731 0.22503 0.0
C560 C 1.03487 0.76583 0.18459 0.0
C561 C 1.01928 0.75259 0.14512 0.0
C562 C 1.01738 0.72665 0.14685 0.0
C563 C 1.03306 0.71408 0.18692 0.0
H564 H 0.65573 0.33197 0.70364 0.0
H565 H 0.57021 0.26884 0.74733 0.0
H566 H 0.68678 0.30832 0.63606 0.0
H567 H 0.60037 0.24538 0.68047 0.0
H568 H 0.67015 0.20246 0.56875 0.0
H569 H 0.6716 0.22614 0.6412 0.0
H570 H 0.64487 0.29336 0.56402 0.0
H571 H 0.64507 0.26977 0.49138 0.0
C572 C 0.64456 0.31289 0.6993 0.0
C573 C 0.61026 0.30225 0.7303 0.0
C574 C 0.66198 0.29941 0.66057 0.0
C575 C 0.64598 0.27496 0.65277 0.0
C576 C 0.61402 0.26401 0.68556 0.0
C577 C 0.59628 0.27751 0.72367 0.0
C578 C 0.66639 0.22239 0.567 0.0
C579 C 0.65678 0.23417 0.52428 0.0
C580 C 0.6667 0.23594 0.60863 0.0
C581 C 0.65745 0.26159 0.60851 0.0
C582 C 0.65221 0.27366 0.56543 0.0
C583 C 0.65184 0.26009 0.52379 0.0
H584 H 0.48883 0.83501 0.81203 0.0
H585 H 0.56512 0.77148 0.75483 0.0
H586 H 0.46731 0.811 0.88191 0.0
H587 H 0.54403 0.7475 0.82374 0.0
H588 H 0.49442 0.70508 0.94485 0.0
H589 H 0.47984 0.72878 0.87372 0.0
H590 H 0.52279 0.79566 0.94559 0.0
H591 H 0.53634 0.77205 0.01683 0.0
C592 C 0.49951 0.8157 0.81388 0.0
C593 C 0.52875 0.80503 0.77842 0.0
C594 C 0.48763 0.80202 0.85386 0.0
C595 C 0.50416 0.77735 0.85851 0.0
C596 C 0.53017 0.76631 0.82122 0.0
C597 C 0.54255 0.78004 0.78184 0.0
C598 C 0.49908 0.72495 0.9459 0.0
C599 C 0.51715 0.73665 0.98629 0.0
C600 C 0.49111 0.73851 0.90503 0.0
C601 C 0.50079 0.76406 0.90379 0.0
C602 C 0.51472 0.77605 0.94532 0.0
C603 C 0.52294 0.76249 0.98607 0.0
H604 H 0.12937 0.26358 0.52452 0.0
H605 H 0.16166 0.32908 0.44453 0.0
H606 H 0.12944 0.23894 0.45302 0.0
H607 H 0.1625 0.30437 0.37308 0.0
H608 H 0.05835 0.26136 0.269 0.0
H609 H 0.08798 0.28543 0.33523 0.0
H610 H 0.17542 0.22284 0.38176 0.0
H611 H 0.14536 0.19866 0.31472 0.0
C612 C 0.1378 0.27257 0.49177 0.0
C613 C 0.14488 0.2983 0.49004 0.0
C614 C 0.13823 0.25843 0.45086 0.0
C615 C 0.14539 0.26978 0.40738 0.0
C616 C 0.15637 0.29517 0.40608 0.0
C617 C 0.15629 0.30929 0.44703 0.0
C618 C 0.08446 0.25289 0.29303 0.0
C619 C 0.09923 0.22814 0.28713 0.0
C620 C 0.10187 0.26672 0.3307 0.0
C621 C 0.13407 0.25604 0.36374 0.0
C622 C 0.15053 0.23152 0.35688 0.0
C623 C 0.1336 0.21775 0.31854 0.0
H624 H 0.48466 0.32329 0.06759 0.0
H625 H 0.51689 0.26107 0.97761 0.0
H626 H 0.48694 0.29597 0.1354 0.0
H627 H 0.51896 0.23379 0.04518 0.0
H628 H 0.6128 0.21099 0.17467 0.0
H629 H 0.58488 0.23285 0.10541 0.0
H630 H 0.45408 0.25869 0.17964 0.0
H631 H 0.48272 0.23648 0.24971 0.0
C632 C 0.49052 0.30366 0.06214 0.0
C633 C 0.5014 0.29437 0.01739 0.0
C634 C 0.49183 0.288 0.10099 0.0
C635 C 0.50402 0.2628 0.0957 0.0
C636 C 0.51044 0.25321 0.05046 0.0
C637 C 0.50919 0.26881 0.01177 0.0
C638 C 0.57782 0.22112 0.17603 0.0
C639 C 0.5501 0.22225 0.21752 0.0
C640 C 0.5615 0.23346 0.13624 0.0
C641 C 0.51715 0.24747 0.13694 0.0
C642 C 0.48847 0.24807 0.17812 0.0
C643 C 0.50459 0.23531 0.218 0.0
H644 H 0.17632 0.71015 0.56445 0.0
H645 H 0.14791 0.77123 0.47148 0.0
H646 H 0.16893 0.73816 0.63143 0.0
H647 H 0.14048 0.79913 0.53819 0.0
H648 H 0.16266 0.80011 0.74335 0.0
H649 H 0.1978 0.77761 0.67584 0.0
H650 H 0.06834 0.79804 0.59453 0.0
H651 H 1.03372 0.82 0.66148 0.0
C652 C 0.17037 0.7297 0.55827 0.0
C653 C 0.16189 0.73846 0.51284 0.0
C654 C 0.16609 0.74573 0.5966 0.0
C655 C 0.15323 0.77073 0.59001 0.0
C656 C 0.14958 0.77987 0.54433 0.0
C657 C 0.15389 0.76391 0.50617 0.0
C658 C 0.14245 0.80003 0.71066 0.0
C659 C 0.09546 0.8116 0.70744 0.0
C660 C 0.16231 0.78712 0.67226 0.0
C661 C 0.13592 0.78618 0.62986 0.0
C662 C 0.08994 0.79869 0.62644 0.0
C663 C 0.06986 0.81109 0.66481 0.0
loop_
_geom_bond_atom_site_label_1
_geom_bond_atom_site_label_2
_geom_bond_distance
_geom_bond_site_symmetry_2
_ccdc_geom_bond_type
C0 C1 1.351 . S
C0 N3 1.368 . S
C0 H5 0.931 . S
C1 C0 1.351 . S
C1 N2 1.373 . S
C1 H29 0.930 . S
N2 C1 1.373 . S
N2 C4 1.340 . S
N3 C0 1.368 . S
N3 C4 1.321 . S
N3 Co6 2.135 . S
C4 N2 1.340 . S
C4 N3 1.321 . S
C4 H28 0.930 1_455 S
H5 C0 0.931 . S
Co6 N3 2.135 . S
Co6 N9 2.121 . S
Co6 O14 2.055 . S
Co6 O17 2.039 1_455 S
Co6 N20 2.140 . S
C7 O8 1.227 . S
C7 O17 1.265 . S
O8 C7 1.227 . S
N9 Co6 2.121 . S
N9 C11 1.375 1_455 S
N9 C12 1.313 . S
C10 C11 1.338 . S
C10 N13 1.377 1_655 S
C10 H30 0.930 . S
C11 N9 1.375 1_655 S
C11 C10 1.338 . S
C11 H15 0.931 . S
C12 N9 1.313 . S
C12 N13 1.344 . S
C12 H16 0.930 . S
N13 C10 1.377 1_455 S
N13 C12 1.344 . S
O14 Co6 2.055 . S
O14 C18 1.253 . S
H15 C11 0.931 . S
H16 C12 0.930 . S
O17 Co6 2.039 1_655 S
O17 C7 1.265 . S
C18 O14 1.253 . S
C18 O19 1.227 . S
O19 C18 1.227 . S
N20 Co6 2.140 . S
N20 C23 1.346 . S
N20 C24 1.345 . S
C21 C22 1.396 . S
C21 C25 1.391 . S
C22 C21 1.396 . S
C22 C23 1.370 . S
C22 H31 0.920 1_455 S
C23 N20 1.346 . S
C23 C22 1.370 . S
C23 H26 0.928 1_455 S
C24 N20 1.345 . S
C24 C25 1.371 . S
C24 H27 0.931 . S
C25 C21 1.391 . S
C25 C24 1.371 . S
C25 H32 0.930 . S
H26 C23 0.928 1_655 S
H27 C24 0.931 . S
H28 C4 0.930 1_655 S
H29 C1 0.930 . S
H30 C10 0.930 . S
H31 C22 0.920 1_655 S
H32 C25 0.930 . S
C33 C34 1.351 . S
C33 N36 1.368 . S
C33 H38 0.931 . S
C34 C33 1.351 . S
C34 N35 1.373 . S
C34 H62 0.930 . S
N35 C34 1.373 . S
N35 C37 1.340 . S
N36 C33 1.368 . S
N36 C37 1.321 . S
N36 Co39 2.135 . S
C37 N35 1.340 . S
C37 N36 1.321 . S
C37 H61 0.930 . S
H38 C33 0.931 . S
Co39 N36 2.135 . S
Co39 N42 2.121 . S
Co39 O47 2.055 . S
Co39 O50 2.039 . S
Co39 N53 2.140 . S
C40 O41 1.227 . S
C40 O50 1.265 . S
O41 C40 1.227 . S
N42 Co39 2.121 . S
N42 C44 1.375 . S
N42 C45 1.313 . S
C43 C44 1.338 . S
C43 N46 1.377 . S
C43 H63 0.930 . S
C44 N42 1.375 . S
C44 C43 1.338 . S
C44 H48 0.931 . S
C45 N42 1.313 . S
C45 N46 1.344 . S
C45 H49 0.930 . S
N46 C43 1.377 . S
N46 C45 1.344 . S
O47 Co39 2.055 . S
O47 C51 1.253 . S
H48 C44 0.931 . S
H49 C45 0.930 . S
O50 Co39 2.039 . S
O50 C40 1.265 . S
C51 O47 1.253 . S
C51 O52 1.227 . S
O52 C51 1.227 . S
N53 Co39 2.140 . S
N53 C56 1.346 . S
N53 C57 1.345 . S
C54 C55 1.387 . S
C54 C58 1.391 . S
C55 C54 1.387 . S
C55 C56 1.369 . S
C55 H64 0.929 . S
C56 N53 1.346 . S
C56 C55 1.369 . S
C56 H59 0.928 . S
C57 N53 1.345 . S
C57 C58 1.371 . S
C57 H60 0.931 . S
C58 C54 1.391 . S
C58 C57 1.371 . S
C58 H65 0.930 . S
H59 C56 0.928 . S
H60 C57 0.931 . S
H61 C37 0.930 . S
H62 C34 0.930 . S
H63 C43 0.930 . S
H64 C55 0.929 . S
H65 C58 0.930 . S
C66 C67 1.351 . S
C66 N69 1.368 . S
C66 H71 0.931 . S
C67 C66 1.351 . S
C67 N68 1.373 . S
C67 H95 0.930 . S
N68 C67 1.373 . S
N68 C70 1.340 . S
N69 C66 1.368 . S
N69 C70 1.321 . S
N69 Co72 2.135 . S
C70 N68 1.340 . S
C70 N69 1.321 . S
C70 H94 0.930 1_455 S
H71 C66 0.931 . S
Co72 N69 2.135 . S
Co72 N75 2.121 . S
Co72 O80 2.055 . S
Co72 O83 2.039 1_455 S
Co72 N86 2.140 . S
C73 O74 1.227 . S
C73 O83 1.265 . S
O74 C73 1.227 . S
N75 Co72 2.121 . S
N75 C77 1.375 1_455 S
N75 C78 1.313 . S
C76 C77 1.338 . S
C76 N79 1.377 1_655 S
C76 H96 0.930 . S
C77 N75 1.375 1_655 S
C77 C76 1.338 . S
C77 H81 0.931 . S
C78 N75 1.313 . S
C78 N79 1.344 . S
C78 H82 0.930 . S
N79 C76 1.377 1_455 S
N79 C78 1.344 . S
O80 Co72 2.055 . S
O80 C84 1.253 . S
H81 C77 0.931 . S
H82 C78 0.930 . S
O83 Co72 2.039 1_655 S
O83 C73 1.265 . S
C84 O80 1.253 . S
C84 O85 1.227 . S
O85 C84 1.227 . S
N86 Co72 2.140 . S
N86 C89 1.346 . S
N86 C90 1.345 . S
C87 C88 1.396 . S
C87 C91 1.391 . S
C88 C87 1.396 . S
C88 C89 1.370 . S
C88 H97 0.920 1_455 S
C89 N86 1.346 . S
C89 C88 1.370 . S
C89 H92 0.928 1_455 S
C90 N86 1.345 . S
C90 C91 1.371 . S
C90 H93 0.931 . S
C91 C87 1.391 . S
C91 C90 1.371 . S
C91 H98 0.930 . S
H92 C89 0.928 1_655 S
H93 C90 0.931 . S
H94 C70 0.930 1_655 S
H95 C67 0.930 . S
H96 C76 0.930 . S
H97 C88 0.920 1_655 S
H98 C91 0.930 . S
C99 C100 1.351 . S
C99 N102 1.368 . S
C99 H104 0.931 . S
C100 C99 1.351 . S
C100 N101 1.373 . S
C100 H128 0.930 . S
N101 C100 1.373 . S
N101 C103 1.340 . S
N102 C99 1.368 . S
N102 C103 1.321 . S
N102 Co105 2.135 . S
C103 N101 1.340 . S
C103 N102 1.321 . S
C103 H127 0.930 . S
H104 C99 0.931 . S
Co105 N102 2.135 . S
Co105 N108 2.121 . S
Co105 O113 2.055 . S
Co105 O116 2.039 . S
Co105 N119 2.140 . S
C106 O107 1.227 . S
C106 O116 1.265 . S
O107 C106 1.227 . S
N108 Co105 2.121 . S
N108 C110 1.375 . S
N108 C111 1.313 . S
C109 C110 1.338 . S
C109 N112 1.377 . S
C109 H129 0.930 . S
C110 N108 1.375 . S
C110 C109 1.338 . S
C110 H114 0.931 . S
C111 N108 1.313 . S
C111 N112 1.344 . S
C111 H115 0.930 . S
N112 C109 1.377 . S
N112 C111 1.344 . S
O113 Co105 2.055 . S
O113 C117 1.253 . S
H114 C110 0.931 . S
H115 C111 0.930 . S
O116 Co105 2.039 . S
O116 C106 1.265 . S
C117 O113 1.253 . S
C117 O118 1.227 . S
O118 C117 1.227 . S
N119 Co105 2.140 . S
N119 C122 1.346 . S
N119 C123 1.345 . S
C120 C121 1.387 . S
C120 C124 1.391 . S
C121 C120 1.387 . S
C121 C122 1.369 . S
C121 H130 0.929 . S
C122 N119 1.346 . S
C122 C121 1.369 . S
C122 H125 0.928 . S
C123 N119 1.345 . S
C123 C124 1.371 . S
C123 H126 0.931 . S
C124 C120 1.391 . S
C124 C123 1.371 . S
C124 H131 0.930 . S
H125 C122 0.928 . S
H126 C123 0.931 . S
H127 C103 0.930 . S
H128 C100 0.930 . S
H129 C109 0.930 . S
H130 C121 0.929 . S
H131 C124 0.930 . S
C132 C133 1.351 . S
C132 N135 1.368 . S
C132 H137 0.931 . S
C133 C132 1.351 . S
C133 N134 1.373 . S
C133 H161 0.930 . S
N134 C133 1.373 . S
N134 C136 1.340 . S
N135 C132 1.368 . S
N135 C136 1.321 . S
N135 Co138 2.135 . S
C136 N134 1.340 . S
C136 N135 1.321 . S
C136 H160 0.930 . S
H137 C132 0.931 . S
Co138 N135 2.135 . S
Co138 N141 2.121 . S
Co138 O146 2.055 . S
Co138 O149 2.039 . S
Co138 N152 2.140 . S
C139 O140 1.227 . S
C139 O149 1.265 . S
O140 C139 1.227 . S
N141 Co138 2.121 . S
N141 C143 1.375 . S
N141 C144 1.313 . S
C142 C143 1.338 . S
C142 N145 1.377 . S
C142 H162 0.930 . S
C143 N141 1.375 . S
C143 C142 1.338 . S
C143 H147 0.931 . S
C144 N141 1.313 . S
C144 N145 1.344 . S
C144 H148 0.930 . S
N145 C142 1.377 . S
N145 C144 1.344 . S
O146 Co138 2.055 . S
O146 C150 1.253 . S
H147 C143 0.931 . S
H148 C144 0.930 . S
O149 Co138 2.039 . S
O149 C139 1.265 . S
C150 O146 1.253 . S
C150 O151 1.227 . S
O151 C150 1.227 . S
N152 Co138 2.140 . S
N152 C155 1.346 . S
N152 C156 1.345 . S
C153 C154 1.387 . S
C153 C157 1.391 . S
C154 C153 1.387 . S
C154 C155 1.369 . S
C154 H163 0.929 . S
C155 N152 1.346 . S
C155 C154 1.369 . S
C155 H158 0.928 . S
C156 N152 1.345 . S
C156 C157 1.371 . S
C156 H159 0.931 . S
C157 C153 1.391 . S
C157 C156 1.371 . S
C157 H164 0.930 . S
H158 C155 0.928 . S
H159 C156 0.931 . S
H160 C136 0.930 . S
H161 C133 0.930 . S
H162 C142 0.930 . S
H163 C154 0.929 . S
H164 C157 0.930 . S
C165 C166 1.351 . S
C165 N168 1.368 1_655 S
C165 H170 0.931 . S
C166 C165 1.351 . S
C166 N167 1.373 1_655 S
C166 H194 0.930 . S
N167 C166 1.373 1_455 S
N167 C169 1.340 . S
N168 C165 1.368 1_455 S
N168 C169 1.321 . S
N168 Co171 2.135 . S
C169 N167 1.340 . S
C169 N168 1.321 . S
C169 H193 0.930 . S
H170 C165 0.931 . S
Co171 N168 2.135 . S
Co171 N174 2.121 . S
Co171 O179 2.055 1_455 S
Co171 O182 2.039 . S
Co171 N185 2.140 . S
C172 O173 1.227 . S
C172 O182 1.265 . S
O173 C172 1.227 . S
N174 Co171 2.121 . S
N174 C176 1.375 . S
N174 C177 1.313 . S
C175 C176 1.338 . S
C175 N178 1.377 . S
C175 H195 0.930 . S
C176 N174 1.375 . S
C176 C175 1.338 . S
C176 H180 0.931 . S
C177 N174 1.313 . S
C177 N178 1.344 . S
C177 H181 0.930 1_455 S
N178 C175 1.377 . S
N178 C177 1.344 . S
O179 Co171 2.055 1_655 S
O179 C183 1.253 . S
H180 C176 0.931 . S
H181 C177 0.930 1_655 S
O182 Co171 2.039 . S
O182 C172 1.265 . S
C183 O179 1.253 . S
C183 O184 1.227 . S
O184 C183 1.227 . S
N185 Co171 2.140 . S
N185 C188 1.346 . S
N185 C189 1.345 . S
C186 C187 1.387 . S
C186 C190 1.391 . S
C187 C186 1.387 . S
C187 C188 1.369 . S
C187 H196 0.929 . S
C188 N185 1.346 . S
C188 C187 1.369 . S
C188 H191 0.928 . S
C189 N185 1.345 . S
C189 C190 1.371 . S
C189 H192 0.931 . S
C190 C186 1.391 . S
C190 C189 1.371 . S
C190 H197 0.930 . S
H191 C188 0.928 . S
H192 C189 0.931 . S
H193 C169 0.930 . S
H194 C166 0.930 . S
H195 C175 0.930 . S
H196 C187 0.929 . S
H197 C190 0.930 . S
C198 C199 1.351 . S
C198 N201 1.368 . S
C198 H203 0.931 . S
C199 C198 1.351 . S
C199 N200 1.373 . S
C199 H227 0.930 . S
N200 C199 1.373 . S
N200 C202 1.340 . S
N201 C198 1.368 . S
N201 C202 1.321 . S
N201 Co204 2.135 . S
C202 N200 1.340 . S
C202 N201 1.321 . S
C202 H226 0.930 . S
H203 C198 0.931 . S
Co204 N201 2.135 . S
Co204 N207 2.121 . S
Co204 O212 2.055 . S
Co204 O215 2.039 . S
Co204 N218 2.140 . S
C205 O206 1.227 . S
C205 O215 1.265 . S
O206 C205 1.227 . S
N207 Co204 2.121 . S
N207 C209 1.375 . S
N207 C210 1.313 . S
C208 C209 1.338 . S
C208 N211 1.377 . S
C208 H228 0.930 . S
C209 N207 1.375 . S
C209 C208 1.338 . S
C209 H213 0.931 . S
C210 N207 1.313 . S
C210 N211 1.344 . S
C210 H214 0.930 . S
N211 C208 1.377 . S
N211 C210 1.344 . S
O212 Co204 2.055 . S
O212 C216 1.253 . S
H213 C209 0.931 . S
H214 C210 0.930 . S
O215 Co204 2.039 . S
O215 C205 1.265 . S
C216 O212 1.253 . S
C216 O217 1.227 . S
O217 C216 1.227 . S
N218 Co204 2.140 . S
N218 C221 1.346 . S
N218 C222 1.345 . S
C219 C220 1.387 . S
C219 C223 1.391 . S
C220 C219 1.387 . S
C220 C221 1.369 . S
C220 H229 0.929 . S
C221 N218 1.346 . S
C221 C220 1.369 . S
C221 H224 0.928 . S
C222 N218 1.345 . S
C222 C223 1.371 . S
C222 H225 0.931 . S
C223 C219 1.391 . S
C223 C222 1.371 . S
C223 H230 0.930 . S
H224 C221 0.928 . S
H225 C222 0.931 . S
H226 C202 0.930 . S
H227 C199 0.930 . S
H228 C208 0.930 . S
H229 C220 0.929 . S
H230 C223 0.930 . S
C231 C232 1.351 . S
C231 N234 1.368 1_655 S
C231 H236 0.931 . S
C232 C231 1.351 . S
C232 N233 1.373 1_655 S
C232 H260 0.930 . S
N233 C232 1.373 1_455 S
N233 C235 1.340 . S
N234 C231 1.368 1_455 S
N234 C235 1.321 . S
N234 Co237 2.135 . S
C235 N233 1.340 . S
C235 N234 1.321 . S
C235 H259 0.930 . S
H236 C231 0.931 . S
Co237 N234 2.135 . S
Co237 N240 2.121 . S
Co237 O245 2.055 1_455 S
Co237 O248 2.039 . S
Co237 N251 2.140 . S
C238 O239 1.227 . S
C238 O248 1.265 . S
O239 C238 1.227 . S
N240 Co237 2.121 . S
N240 C242 1.375 . S
N240 C243 1.313 . S
C241 C242 1.338 . S
C241 N244 1.377 . S
C241 H261 0.930 . S
C242 N240 1.375 . S
C242 C241 1.338 . S
C242 H246 0.931 . S
C243 N240 1.313 . S
C243 N244 1.344 . S
C243 H247 0.930 1_455 S
N244 C241 1.377 . S
N244 C243 1.344 . S
O245 Co237 2.055 1_655 S
O245 C249 1.253 . S
H246 C242 0.931 . S
H247 C243 0.930 1_655 S
O248 Co237 2.039 . S
O248 C238 1.265 . S
C249 O245 1.253 . S
C249 O250 1.227 . S
O250 C249 1.227 . S
N251 Co237 2.140 . S
N251 C254 1.346 . S
N251 C255 1.345 . S
C252 C253 1.387 . S
C252 C256 1.391 . S
C253 C252 1.387 . S
C253 C254 1.369 . S
C253 H262 0.929 . S
C254 N251 1.346 . S
C254 C253 1.369 . S
C254 H257 0.928 . S
C255 N251 1.345 . S
C255 C256 1.371 . S
C255 H258 0.931 . S
C256 C252 1.391 . S
C256 C255 1.371 . S
C256 H263 0.930 . S
H257 C254 0.928 . S
H258 C255 0.931 . S
H259 C235 0.930 . S
H260 C232 0.930 . S
H261 C241 0.930 . S
H262 C253 0.929 . S
H263 C256 0.930 . S
H264 C272 0.950 . S
H265 C277 0.950 . S
H266 C274 0.950 . S
H267 C276 0.950 1_554 S
H268 C278 0.950 . S
H269 C280 0.950 . S
H270 C282 0.950 1_556 S
H271 C283 0.950 . S
C272 H264 0.950 . S
C272 C273 1.386 1_655 S
C272 C274 1.391 . S
C273 C272 1.386 1_455 S
C273 C277 1.393 . S
C274 H266 0.950 . S
C274 C272 1.391 . S
C274 C275 1.400 1_655 S
C275 C274 1.400 1_455 S
C275 C276 1.398 . S
C275 C281 1.491 1_566 S
C276 H267 0.950 1_556 S
C276 C275 1.398 . S
C276 C277 1.391 . S
C277 H265 0.950 . S
C277 C273 1.393 . S
C277 C276 1.391 . S
C278 H268 0.950 . S
C278 C279 1.386 . S
C278 C280 1.391 . S
C279 C278 1.386 . S
C279 C283 1.393 1_455 S
C280 H269 0.950 . S
C280 C278 1.391 . S
C280 C281 1.400 . S
C281 C275 1.491 1_544 S
C281 C280 1.400 . S
C281 C282 1.398 1_455 S
C282 H270 0.950 1_554 S
C282 C281 1.398 1_655 S
C282 C283 1.391 . S
C283 H271 0.950 . S
C283 C279 1.393 1_655 S
C283 C282 1.391 . S
H284 C292 0.950 . S
H285 C297 0.950 . S
H286 C294 0.950 . S
H287 C296 0.950 . S
H288 C298 0.950 . S
H289 C300 0.950 . S
H290 C302 0.950 . S
H291 C303 0.950 . S
C292 H284 0.950 . S
C292 C293 1.386 . S
C292 C294 1.391 . S
C293 C292 1.386 . S
C293 C297 1.393 . S
C294 H286 0.950 . S
C294 C292 1.391 . S
C294 C295 1.400 . S
C295 C294 1.400 . S
C295 C296 1.398 . S
C295 C301 1.491 1_545 S
C296 H287 0.950 . S
C296 C295 1.398 . S
C296 C297 1.391 . S
C297 H285 0.950 . S
C297 C293 1.393 . S
C297 C296 1.391 . S
C298 H288 0.950 . S
C298 C299 1.386 . S
C298 C300 1.391 . S
C299 C298 1.386 . S
C299 C303 1.393 . S
C300 H289 0.950 . S
C300 C298 1.391 . S
C300 C301 1.400 . S
C301 C295 1.491 1_565 S
C301 C300 1.400 . S
C301 C302 1.398 . S
C302 H290 0.950 . S
C302 C301 1.398 . S
C302 C303 1.391 . S
C303 H291 0.950 . S
C303 C299 1.393 . S
C303 C302 1.391 . S
H304 C312 0.950 . S
H305 C317 0.950 . S
H306 C314 0.950 . S
H307 C316 0.950 . S
H308 C318 0.950 . S
H309 C320 0.950 . S
H310 C322 0.950 . S
H311 C323 0.950 . S
C312 H304 0.950 . S
C312 C313 1.386 . S
C312 C314 1.391 . S
C313 C312 1.386 . S
C313 C317 1.393 . S
C314 H306 0.950 . S
C314 C312 1.391 . S
C314 C315 1.400 . S
C315 C314 1.400 . S
C315 C316 1.398 . S
C315 C321 1.491 1_554 S
C316 H307 0.950 . S
C316 C315 1.398 . S
C316 C317 1.391 . S
C317 H305 0.950 . S
C317 C313 1.393 . S
C317 C316 1.391 . S
C318 H308 0.950 . S
C318 C319 1.386 . S
C318 C320 1.391 . S
C319 C318 1.386 . S
C319 C323 1.393 . S
C320 H309 0.950 . S
C320 C318 1.391 . S
C320 C321 1.400 . S
C321 C315 1.491 1_556 S
C321 C320 1.400 . S
C321 C322 1.398 . S
C322 H310 0.950 . S
C322 C321 1.398 . S
C322 C323 1.391 . S
C323 H311 0.950 . S
C323 C319 1.393 . S
C323 C322 1.391 . S
H324 C332 0.950 . S
H325 C337 0.950 1_655 S
H326 C334 0.950 . S
H327 C336 0.950 1_655 S
H328 C338 0.950 1_655 S
H329 C340 0.950 1_655 S
H330 C342 0.950 . S
H331 C343 0.950 . S
C332 H324 0.950 . S
C332 C333 1.386 . S
C332 C334 1.391 . S
C333 C332 1.386 . S
C333 C337 1.393 . S
C334 H326 0.950 . S
C334 C332 1.391 . S
C334 C335 1.400 . S
C335 C334 1.400 . S
C335 C336 1.398 . S
C335 C341 1.491 . S
C336 H327 0.950 1_455 S
C336 C335 1.398 . S
C336 C337 1.391 . S
C337 H325 0.950 1_455 S
C337 C333 1.393 . S
C337 C336 1.391 . S
C338 H328 0.950 1_455 S
C338 C339 1.386 . S
C338 C340 1.391 . S
C339 C338 1.386 . S
C339 C343 1.393 . S
C340 H329 0.950 1_455 S
C340 C338 1.391 . S
C340 C341 1.400 . S
C341 C335 1.491 . S
C341 C340 1.400 . S
C341 C342 1.398 . S
C342 H330 0.950 . S
C342 C341 1.398 . S
C342 C343 1.391 . S
C343 H331 0.950 . S
C343 C339 1.393 . S
C343 C342 1.391 . S
H344 C352 0.950 . S
H345 C357 0.950 . S
H346 C354 0.950 . S
H347 C356 0.950 . S
H348 C358 0.950 . S
H349 C360 0.950 . S
H350 C362 0.950 . S
H351 C363 0.950 . S
C352 H344 0.950 . S
C352 C353 1.386 . S
C352 C354 1.391 . S
C353 C352 1.386 . S
C353 C357 1.393 . S
C354 H346 0.950 . S
C354 C352 1.391 . S
C354 C355 1.400 . S
C355 C354 1.400 . S
C355 C356 1.398 . S
C355 C361 1.491 . S
C356 H347 0.950 . S
C356 C355 1.398 . S
C356 C357 1.391 . S
C357 H345 0.950 . S
C357 C353 1.393 . S
C357 C356 1.391 . S
C358 H348 0.950 . S
C358 C359 1.386 . S
C358 C360 1.391 . S
C359 C358 1.386 . S
C359 C363 1.393 . S
C360 H349 0.950 . S
C360 C358 1.391 . S
C360 C361 1.400 . S
C361 C355 1.491 . S
C361 C360 1.400 . S
C361 C362 1.398 . S
C362 H350 0.950 . S
C362 C361 1.398 . S
C362 C363 1.391 . S
C363 H351 0.950 . S
C363 C359 1.393 . S
C363 C362 1.391 . S
H364 C372 0.950 . S
H365 C377 0.950 . S
H366 C374 0.950 . S
H367 C376 0.950 . S
H368 C378 0.950 . S
H369 C380 0.950 . S
H370 C382 0.950 . S
H371 C383 0.950 . S
C372 H364 0.950 . S
C372 C373 1.386 . S
C372 C374 1.391 . S
C373 C372 1.386 . S
C373 C377 1.393 . S
C374 H366 0.950 . S
C374 C372 1.391 . S
C374 C375 1.400 . S
C375 C374 1.400 . S
C375 C376 1.398 . S
C375 C381 1.491 . S
C376 H367 0.950 . S
C376 C375 1.398 . S
C376 C377 1.391 . S
C377 H365 0.950 . S
C377 C373 1.393 . S
C377 C376 1.391 . S
C378 H368 0.950 . S
C378 C379 1.386 . S
C378 C380 1.391 . S
C379 C378 1.386 . S
C379 C383 1.393 . S
C380 H369 0.950 . S
C380 C378 1.391 . S
C380 C381 1.400 . S
C381 C375 1.491 . S
C381 C380 1.400 . S
C381 C382 1.398 . S
C382 H370 0.950 . S
C382 C381 1.398 . S
C382 C383 1.391 . S
C383 H371 0.950 . S
C383 C379 1.393 . S
C383 C382 1.391 . S
H384 C392 0.950 . S
H385 C397 0.950 . S
H386 C394 0.950 . S
H387 C396 0.950 . S
H388 C398 0.950 . S
H389 C400 0.950 . S
H390 C402 0.950 . S
H391 C403 0.950 . S
C392 H384 0.950 . S
C392 C393 1.386 . S
C392 C394 1.391 . S
C393 C392 1.386 . S
C393 C397 1.393 . S
C394 H386 0.950 . S
C394 C392 1.391 . S
C394 C395 1.400 . S
C395 C394 1.400 . S
C395 C396 1.398 . S
C395 C401 1.491 . S
C396 H387 0.950 . S
C396 C395 1.398 . S
C396 C397 1.391 . S
C397 H385 0.950 . S
C397 C393 1.393 . S
C397 C396 1.391 . S
C398 H388 0.950 . S
C398 C399 1.386 . S
C398 C400 1.391 . S
C399 C398 1.386 . S
C399 C403 1.393 . S
C400 H389 0.950 . S
C400 C398 1.391 . S
C400 C401 1.400 . S
C401 C395 1.491 . S
C401 C400 1.400 . S
C401 C402 1.398 . S
C402 H390 0.950 . S
C402 C401 1.398 . S
C402 C403 1.391 . S
C403 H391 0.950 . S
C403 C399 1.393 . S
C403 C402 1.391 . S
H404 C412 0.950 . S
H405 C417 0.950 . S
H406 C414 0.950 . S
H407 C416 0.950 . S
H408 C418 0.950 . S
H409 C420 0.950 . S
H410 C422 0.950 . S
H411 C423 0.950 . S
C412 H404 0.950 . S
C412 C413 1.386 . S
C412 C414 1.391 . S
C413 C412 1.386 . S
C413 C417 1.393 . S
C414 H406 0.950 . S
C414 C412 1.391 . S
C414 C415 1.400 . S
C415 C414 1.400 . S
C415 C416 1.398 . S
C415 C421 1.491 . S
C416 H407 0.950 . S
C416 C415 1.398 . S
C416 C417 1.391 . S
C417 H405 0.950 . S
C417 C413 1.393 . S
C417 C416 1.391 . S
C418 H408 0.950 . S
C418 C419 1.386 . S
C418 C420 1.391 . S
C419 C418 1.386 . S
C419 C423 1.393 . S
C420 H409 0.950 . S
C420 C418 1.391 . S
C420 C421 1.400 . S
C421 C415 1.491 . S
C421 C420 1.400 . S
C421 C422 1.398 . S
C422 H410 0.950 . S
C422 C421 1.398 . S
C422 C423 1.391 . S
C423 H411 0.950 . S
C423 C419 1.393 . S
C423 C422 1.391 . S
H424 C432 0.950 . S
H425 C437 0.950 . S
H426 C434 0.950 . S
H427 C436 0.950 . S
H428 C438 0.950 . S
H429 C440 0.950 . S
H430 C442 0.950 . S
H431 C443 0.950 . S
C432 H424 0.950 . S
C432 C433 1.386 . S
C432 C434 1.391 . S
C433 C432 1.386 . S
C433 C437 1.393 . S
C434 H426 0.950 . S
C434 C432 1.391 . S
C434 C435 1.400 . S
C435 C434 1.400 . S
C435 C436 1.398 . S
C435 C441 1.491 . S
C436 H427 0.950 . S
C436 C435 1.398 . S
C436 C437 1.391 . S
C437 H425 0.950 . S
C437 C433 1.393 . S
C437 C436 1.391 . S
C438 H428 0.950 . S
C438 C439 1.386 . S
C438 C440 1.391 . S
C439 C438 1.386 . S
C439 C443 1.393 . S
C440 H429 0.950 . S
C440 C438 1.391 . S
C440 C441 1.400 . S
C441 C435 1.491 . S
C441 C440 1.400 . S
C441 C442 1.398 . S
C442 H430 0.950 . S
C442 C441 1.398 . S
C442 C443 1.391 . S
C443 H431 0.950 . S
C443 C439 1.393 . S
C443 C442 1.391 . S
H444 C452 0.950 . S
H445 C457 0.950 . S
H446 C454 0.950 . S
H447 C456 0.950 . S
H448 C458 0.950 . S
H449 C460 0.950 . S
H450 C462 0.950 . S
H451 C463 0.950 . S
C452 H444 0.950 . S
C452 C453 1.386 . S
C452 C454 1.391 . S
C453 C452 1.386 . S
C453 C457 1.393 . S
C454 H446 0.950 . S
C454 C452 1.391 . S
C454 C455 1.400 . S
C455 C454 1.400 . S
C455 C456 1.398 . S
C455 C461 1.491 . S
C456 H447 0.950 . S
C456 C455 1.398 . S
C456 C457 1.391 . S
C457 H445 0.950 . S
C457 C453 1.393 . S
C457 C456 1.391 . S
C458 H448 0.950 . S
C458 C459 1.386 . S
C458 C460 1.391 . S
C459 C458 1.386 . S
C459 C463 1.393 . S
C460 H449 0.950 . S
C460 C458 1.391 . S
C460 C461 1.400 . S
C461 C455 1.491 . S
C461 C460 1.400 . S
C461 C462 1.398 . S
C462 H450 0.950 . S
C462 C461 1.398 . S
C462 C463 1.391 . S
C463 H451 0.950 . S
C463 C459 1.393 . S
C463 C462 1.391 . S
H464 C472 0.950 . S
H465 C477 0.950 . S
H466 C474 0.950 . S
H467 C476 0.950 . S
H468 C478 0.950 . S
H469 C480 0.950 . S
H470 C482 0.950 . S
H471 C483 0.950 . S
C472 H464 0.950 . S
C472 C473 1.386 . S
C472 C474 1.391 . S
C473 C472 1.386 . S
C473 C477 1.393 . S
C474 H466 0.950 . S
C474 C472 1.391 . S
C474 C475 1.400 . S
C475 C474 1.400 . S
C475 C476 1.398 . S
C475 C481 1.491 . S
C476 H467 0.950 . S
C476 C475 1.398 . S
C476 C477 1.391 . S
C477 H465 0.950 . S
C477 C473 1.393 . S
C477 C476 1.391 . S
C478 H468 0.950 . S
C478 C479 1.386 . S
C478 C480 1.391 . S
C479 C478 1.386 . S
C479 C483 1.393 . S
C480 H469 0.950 . S
C480 C478 1.391 . S
C480 C481 1.400 . S
C481 C475 1.491 . S
C481 C480 1.400 . S
C481 C482 1.398 . S
C482 H470 0.950 . S
C482 C481 1.398 . S
C482 C483 1.391 . S
C483 H471 0.950 . S
C483 C479 1.393 . S
C483 C482 1.391 . S
H484 C492 0.950 . S
H485 C497 0.950 . S
H486 C494 0.950 . S
H487 C496 0.950 . S
H488 C498 0.950 . S
H489 C500 0.950 . S
H490 C502 0.950 . S
H491 C503 0.950 . S
C492 H484 0.950 . S
C492 C493 1.386 . S
C492 C494 1.391 . S
C493 C492 1.386 . S
C493 C497 1.393 . S
C494 H486 0.950 . S
C494 C492 1.391 . S
C494 C495 1.400 . S
C495 C494 1.400 . S
C495 C496 1.398 . S
C495 C501 1.491 . S
C496 H487 0.950 . S
C496 C495 1.398 . S
C496 C497 1.391 . S
C497 H485 0.950 . S
C497 C493 1.393 . S
C497 C496 1.391 . S
C498 H488 0.950 . S
C498 C499 1.386 . S
C498 C500 1.391 . S
C499 C498 1.386 . S
C499 C503 1.393 . S
C500 H489 0.950 . S
C500 C498 1.391 . S
C500 C501 1.400 . S
C501 C495 1.491 . S
C501 C500 1.400 . S
C501 C502 1.398 . S
C502 H490 0.950 . S
C502 C501 1.398 . S
C502 C503 1.391 . S
C503 H491 0.950 . S
C503 C499 1.393 . S
C503 C502 1.391 . S
H504 C512 0.950 . S
H505 C517 0.950 . S
H506 C514 0.950 . S
H507 C516 0.950 . S
H508 C518 0.950 . S
H509 C520 0.950 . S
H510 C522 0.950 . S
H511 C523 0.950 . S
C512 H504 0.950 . S
C512 C513 1.386 1_655 S
C512 C514 1.391 . S
C513 C512 1.386 1_455 S
C513 C517 1.393 . S
C514 H506 0.950 . S
C514 C512 1.391 . S
C514 C515 1.400 1_655 S
C515 C514 1.400 1_455 S
C515 C516 1.398 . S
C515 C521 1.491 . S
C516 H507 0.950 . S
C516 C515 1.398 . S
C516 C517 1.391 . S
C517 H505 0.950 . S
C517 C513 1.393 . S
C517 C516 1.391 . S
C518 H508 0.950 . S
C518 C519 1.386 . S
C518 C520 1.391 . S
C519 C518 1.386 . S
C519 C523 1.393 1_455 S
C520 H509 0.950 . S
C520 C518 1.391 . S
C520 C521 1.400 . S
C521 C515 1.491 . S
C521 C520 1.400 . S
C521 C522 1.398 1_455 S
C522 H510 0.950 . S
C522 C521 1.398 1_655 S
C522 C523 1.391 . S
C523 H511 0.950 . S
C523 C519 1.393 1_655 S
C523 C522 1.391 . S
H524 C532 0.950 . S
H525 C537 0.950 . S
H526 C534 0.950 . S
H527 C536 0.950 . S
H528 C538 0.950 . S
H529 C540 0.950 . S
H530 C542 0.950 . S
H531 C543 0.950 . S
C532 H524 0.950 . S
C532 C533 1.386 . S
C532 C534 1.391 . S
C533 C532 1.386 . S
C533 C537 1.393 . S
C534 H526 0.950 . S
C534 C532 1.391 . S
C534 C535 1.400 . S
C535 C534 1.400 . S
C535 C536 1.398 . S
C535 C541 1.491 . S
C536 H527 0.950 . S
C536 C535 1.398 . S
C536 C537 1.391 . S
C537 H525 0.950 . S
C537 C533 1.393 . S
C537 C536 1.391 . S
C538 H528 0.950 . S
C538 C539 1.386 . S
C538 C540 1.391 . S
C539 C538 1.386 . S
C539 C543 1.393 . S
C540 H529 0.950 . S
C540 C538 1.391 . S
C540 C541 1.400 . S
C541 C535 1.491 . S
C541 C540 1.400 . S
C541 C542 1.398 . S
C542 H530 0.950 . S
C542 C541 1.398 . S
C542 C543 1.391 . S
C543 H531 0.950 . S
C543 C539 1.393 . S
C543 C542 1.391 . S
H544 C552 0.950 1_556 S
H545 C557 0.950 . S
H546 C554 0.950 . S
H547 C556 0.950 . S
H548 C558 0.950 . S
H549 C560 0.950 . S
H550 C562 0.950 . S
H551 C563 0.950 . S
C552 H544 0.950 1_554 S
C552 C553 1.386 . S
C552 C554 1.391 . S
C553 C552 1.386 . S
C553 C557 1.393 1_455 S
C554 H546 0.950 . S
C554 C552 1.391 . S
C554 C555 1.400 . S
C555 C554 1.400 . S
C555 C556 1.398 1_455 S
C555 C561 1.491 . S
C556 H547 0.950 . S
C556 C555 1.398 1_655 S
C556 C557 1.391 . S
C557 H545 0.950 . S
C557 C553 1.393 1_655 S
C557 C556 1.391 . S
C558 H548 0.950 . S
C558 C559 1.386 1_655 S
C558 C560 1.391 . S
C559 C558 1.386 1_455 S
C559 C563 1.393 . S
C560 H549 0.950 . S
C560 C558 1.391 . S
C560 C561 1.400 1_655 S
C561 C555 1.491 . S
C561 C560 1.400 1_455 S
C561 C562 1.398 . S
C562 H550 0.950 . S
C562 C561 1.398 . S
C562 C563 1.391 . S
C563 H551 0.950 . S
C563 C559 1.393 . S
C563 C562 1.391 . S
H564 C572 0.950 . S
H565 C577 0.950 . S
H566 C574 0.950 . S
H567 C576 0.950 . S
H568 C578 0.950 . S
H569 C580 0.950 . S
H570 C582 0.950 . S
H571 C583 0.950 . S
C572 H564 0.950 . S
C572 C573 1.386 . S
C572 C574 1.391 . S
C573 C572 1.386 . S
C573 C577 1.393 . S
C574 H566 0.950 . S
C574 C572 1.391 . S
C574 C575 1.400 . S
C575 C574 1.400 . S
C575 C576 1.398 . S
C575 C581 1.491 . S
C576 H567 0.950 . S
C576 C575 1.398 . S
C576 C577 1.391 . S
C577 H565 0.950 . S
C577 C573 1.393 . S
C577 C576 1.391 . S
C578 H568 0.950 . S
C578 C579 1.386 . S
C578 C580 1.391 . S
C579 C578 1.386 . S
C579 C583 1.393 . S
C580 H569 0.950 . S
C580 C578 1.391 . S
C580 C581 1.400 . S
C581 C575 1.491 . S
C581 C580 1.400 . S
C581 C582 1.398 . S
C582 H570 0.950 . S
C582 C581 1.398 . S
C582 C583 1.391 . S
C583 H571 0.950 . S
C583 C579 1.393 . S
C583 C582 1.391 . S
H584 C592 0.950 . S
H585 C597 0.950 . S
H586 C594 0.950 . S
H587 C596 0.950 . S
H588 C598 0.950 . S
H589 C600 0.950 . S
H590 C602 0.950 . S
H591 C603 0.950 1_554 S
C592 H584 0.950 . S
C592 C593 1.386 . S
C592 C594 1.391 . S
C593 C592 1.386 . S
C593 C597 1.393 . S
C594 H586 0.950 . S
C594 C592 1.391 . S
C594 C595 1.400 . S
C595 C594 1.400 . S
C595 C596 1.398 . S
C595 C601 1.491 . S
C596 H587 0.950 . S
C596 C595 1.398 . S
C596 C597 1.391 . S
C597 H585 0.950 . S
C597 C593 1.393 . S
C597 C596 1.391 . S
C598 H588 0.950 . S
C598 C599 1.386 . S
C598 C600 1.391 . S
C599 C598 1.386 . S
C599 C603 1.393 . S
C600 H589 0.950 . S
C600 C598 1.391 . S
C600 C601 1.400 . S
C601 C595 1.491 . S
C601 C600 1.400 . S
C601 C602 1.398 . S
C602 H590 0.950 . S
C602 C601 1.398 . S
C602 C603 1.391 . S
C603 H591 0.950 1_556 S
C603 C599 1.393 . S
C603 C602 1.391 . S
H604 C612 0.950 . S
H605 C617 0.950 . S
H606 C614 0.950 . S
H607 C616 0.950 . S
H608 C618 0.950 . S
H609 C620 0.950 . S
H610 C622 0.950 . S
H611 C623 0.950 . S
C612 H604 0.950 . S
C612 C613 1.386 . S
C612 C614 1.391 . S
C613 C612 1.386 . S
C613 C617 1.393 . S
C614 H606 0.950 . S
C614 C612 1.391 . S
C614 C615 1.400 . S
C615 C614 1.400 . S
C615 C616 1.398 . S
C615 C621 1.491 . S
C616 H607 0.950 . S
C616 C615 1.398 . S
C616 C617 1.391 . S
C617 H605 0.950 . S
C617 C613 1.393 . S
C617 C616 1.391 . S
C618 H608 0.950 . S
C618 C619 1.386 . S
C618 C620 1.391 . S
C619 C618 1.386 . S
C619 C623 1.393 . S
C620 H609 0.950 . S
C620 C618 1.391 . S
C620 C621 1.400 . S
C621 C615 1.491 . S
C621 C620 1.400 . S
C621 C622 1.398 . S
C622 H610 0.950 . S
C622 C621 1.398 . S
C622 C623 1.391 . S
C623 H611 0.950 . S
C623 C619 1.393 . S
C623 C622 1.391 . S
H624 C632 0.950 . S
H625 C637 0.950 1_556 S
H626 C634 0.950 . S
H627 C636 0.950 . S
H628 C638 0.950 . S
H629 C640 0.950 . S
H630 C642 0.950 . S
H631 C643 0.950 . S
C632 H624 0.950 . S
C632 C633 1.386 . S
C632 C634 1.391 . S
C633 C632 1.386 . S
C633 C637 1.393 . S
C634 H626 0.950 . S
C634 C632 1.391 . S
C634 C635 1.400 . S
C635 C634 1.400 . S
C635 C636 1.398 . S
C635 C641 1.491 . S
C636 H627 0.950 . S
C636 C635 1.398 . S
C636 C637 1.391 . S
C637 H625 0.950 1_554 S
C637 C633 1.393 . S
C637 C636 1.391 . S
C638 H628 0.950 . S
C638 C639 1.386 . S
C638 C640 1.391 . S
C639 C638 1.386 . S
C639 C643 1.393 . S
C640 H629 0.950 . S
C640 C638 1.391 . S
C640 C641 1.400 . S
C641 C635 1.491 . S
C641 C640 1.400 . S
C641 C642 1.398 . S
C642 H630 0.950 . S
C642 C641 1.398 . S
C642 C643 1.391 . S
C643 H631 0.950 . S
C643 C639 1.393 . S
C643 C642 1.391 . S
H644 C652 0.950 1_655 S
H645 C657 0.950 . S
H646 C654 0.950 1_655 S
H647 C656 0.950 . S
H648 C658 0.950 . S
H649 C660 0.950 . S
H650 C662 0.950 . S
H651 C663 0.943 1_655 S
C652 H644 0.950 1_455 S
C652 C653 1.386 . S
C652 C654 1.391 . S
C653 C652 1.386 . S
C653 C657 1.393 . S
C654 H646 0.950 1_455 S
C654 C652 1.391 . S
C654 C655 1.400 . S
C655 C654 1.400 . S
C655 C656 1.398 . S
C655 C661 1.491 . S
C656 H647 0.950 . S
C656 C655 1.398 . S
C656 C657 1.391 . S
C657 H645 0.950 . S
C657 C653 1.393 . S
C657 C656 1.391 . S
C658 H648 0.950 . S
C658 C659 1.386 . S
C658 C660 1.391 . S
C659 C658 1.386 . S
C659 C663 1.393 . S
C660 H649 0.950 . S
C660 C658 1.391 . S
C660 C661 1.400 . S
C661 C655 1.491 . S
C661 C660 1.400 . S
C661 C662 1.398 . S
C662 H650 0.950 . S
C662 C661 1.398 . S
C662 C663 1.391 . S
C663 H651 0.943 1_455 S
C663 C659 1.393 . S
C663 C662 1.391 . S
C273 N68 1.402 . S
C279 N2 1.390 . S
C293 N101 1.400 . S
C299 N35 1.377 . S
C313 N134 1.395 . S
C319 N200 1.398 . S
C333 N167 1.397 . S
C339 N233 1.397 . S
C353 C117 1.477 . S
C359 C18 1.486 . S
C373 C51 1.469 . S
C379 C84 1.476 . S
C393 C73 1.225 . S
C399 C40 1.221 . S
C413 C106 1.234 . S
C419 C7 1.221 . S
C433 C249 1.483 . S
C439 C150 1.470 . S
C453 C183 1.470 . S
C459 C216 1.483 . S
C473 C205 1.219 . S
C479 C172 1.230 . S
C493 C238 1.232 . S
C499 C139 1.228 . S
C513 N178 1.503 . S
C519 C21 1.554 1_556 S
C533 C54 1.555 . S
C539 N145 1.492 . S
C553 C87 1.555 1_554 S
C559 N244 1.504 . S
C573 N211 1.513 . S
C579 C120 1.553 . S
C593 N46 1.513 . S
C599 C153 1.554 1_556 S
C613 C186 1.554 . S
C619 N13 1.512 . S
C633 C219 1.555 1_554 S
C639 N112 1.493 . S
C653 C252 1.555 . S
C659 N79 1.506 . S
