# Generated by pormake.
# Topology vby, (6)-cn, num edge types: 1
# Building blocks:
#     Node 0, Type 0, BuildingBlock: NUHQIS_clean_sbu_0, # of connection points: 6
#     Node 1, Type 0, BuildingBlock: NUHQIS_clean_sbu_0, # of connection points: 6
#     Node 2, Type 0, BuildingBlock: NUHQIS_clean_sbu_0, # of connection points: 6
#     Node 3, Type 0, BuildingBlock: NUHQIS_clean_sbu_0, # of connection points: 6
#     Node 4, Type 0, BuildingBlock: NUHQIS_clean_sbu_0, # of connection points: 6
#     Node 5, Type 0, BuildingBlock: NUHQIS_clean_sbu_0, # of connection points: 6
#     Node 6, Type 0, BuildingBlock: NUHQIS_clean_sbu_0, # of connection points: 6
#     Node 7, Type 0, BuildingBlock: NUHQIS_clean_sbu_0, # of connection points: 6
#     Edge 8, Type (0, 0), BuildingBlock: TEMPAE_clean_linker_10, # of connection points: 2
#     Edge 9, Type (0, 0), BuildingBlock: TEMPAE_clean_linker_10, # of connection points: 2
#     Edge 10, Type (0, 0), BuildingBlock: TEMPAE_clean_linker_10, # of connection points: 2
#     Edge 11, Type (0, 0), BuildingBlock: TEMPAE_clean_linker_10, # of connection points: 2
#     Edge 12, Type (0, 0), BuildingBlock: TEMPAE_clean_linker_10, # of connection points: 2
#     Edge 13, Type (0, 0), BuildingBlock: TEMPAE_clean_linker_10, # of connection points: 2
#     Edge 14, Type (0, 0), BuildingBlock: TEMPAE_clean_linker_10, # of connection points: 2
#     Edge 15, Type (0, 0), BuildingBlock: TEMPAE_clean_linker_10, # of connection points: 2
#     Edge 16, Type (0, 0), BuildingBlock: TEMPAE_clean_linker_10, # of connection points: 2
#     Edge 17, Type (0, 0), BuildingBlock: TEMPAE_clean_linker_10, # of connection points: 2
#     Edge 18, Type (0, 0), BuildingBlock: TEMPAE_clean_linker_10, # of connection points: 2
#     Edge 19, Type (0, 0), BuildingBlock: TEMPAE_clean_linker_10, # of connection points: 2
#     Edge 20, Type (0, 0), BuildingBlock: TEMPAE_clean_linker_10, # of connection points: 2
#     Edge 21, Type (0, 0), BuildingBlock: TEMPAE_clean_linker_10, # of connection points: 2
#     Edge 22, Type (0, 0), BuildingBlock: TEMPAE_clean_linker_10, # of connection points: 2
#     Edge 23, Type (0, 0), BuildingBlock: TEMPAE_clean_linker_10, # of connection points: 2
#     Edge 24, Type (0, 0), BuildingBlock: TEMPAE_clean_linker_10, # of connection points: 2
#     Edge 25, Type (0, 0), BuildingBlock: TEMPAE_clean_linker_10, # of connection points: 2
#     Edge 26, Type (0, 0), BuildingBlock: TEMPAE_clean_linker_10, # of connection points: 2
#     Edge 27, Type (0, 0), BuildingBlock: TEMPAE_clean_linker_10, # of connection points: 2
#     Edge 28, Type (0, 0), BuildingBlock: TEMPAE_clean_linker_10, # of connection points: 2
#     Edge 29, Type (0, 0), BuildingBlock: TEMPAE_clean_linker_10, # of connection points: 2
#     Edge 30, Type (0, 0), BuildingBlock: TEMPAE_clean_linker_10, # of connection points: 2
#     Edge 31, Type (0, 0), BuildingBlock: TEMPAE_clean_linker_10, # of connection points: 2
# Relax obj value: 0.198
# Max RMSD: 0.229
# Mean RMSD: 0.218
data_MOF--net-vby--node1-NUHQIS_clean_sbu_0--edge1-TEMPAE_clean_linker_10
_symmetry_space_group_name_H-M    P1
_symmetry_Int_Tables_number       1
_symmetry_cell_setting            triclinic
loop_
_symmetry_equiv_pos_as_xyz
'x, y, z'
_cell_length_a     15.587847
_cell_length_b     105.76499
_cell_length_c     30.523337
_cell_angle_alpha  86.190851
_cell_angle_beta   89.136567
_cell_angle_gamma 90.080464
loop_
_atom_site_label
_atom_site_type_symbol
_atom_site_fract_x
_atom_site_fract_y
_atom_site_fract_z
_atom_type_partial_charge
Tb0 Tb 0.10642 0.39991 0.01198 0.0
Eu1 Eu 0.09742 0.36783 0.01774 0.0
C2 C 0.08473 0.38396 0.1002 0.0
C3 C 0.2775 0.38348 0.01273 0.0
C4 C 0.08546 0.43666 0.00514 0.0
C5 C 1.04022 0.4566 0.0338 0.0
C6 C 0.05586 0.4436 0.04 0.0
C7 C 0.09577 0.44297 0.96333 0.0
C8 C 0.07982 0.45601 0.95706 0.0
C9 C 0.05395 0.46307 0.99249 0.0
C10 C 0.11963 0.42371 0.01502 0.0
O11 O 0.07319 0.39508 0.94598 0.0
O12 O 0.11896 0.37423 0.94687 0.0
O13 O 0.96063 0.37408 0.01052 0.0
O14 O 0.96849 0.39596 0.0146 0.0
C15 C 0.09228 0.38474 0.92598 0.0
O16 O 0.06214 0.34971 0.99236 0.0
O17 O 0.1222 0.35009 0.05603 0.0
O18 O 0.04642 0.37502 0.08038 0.0
O19 O 0.13524 0.39207 0.07811 0.0
O20 O 0.23792 0.39408 0.0007 0.0
O21 O 0.23691 0.37291 0.02523 0.0
C22 C 0.92507 0.38532 0.01195 0.0
O23 O 0.08081 0.41634 0.0451 0.0
O24 O 0.15087 0.41738 0.98316 0.0
C25 C 0.13812 0.33099 0.0186 0.0
C26 C 0.20237 0.30617 0.01013 0.0
C27 C 0.15861 0.31261 0.97538 0.0
C28 C 0.12665 0.32485 0.97961 0.0
C29 C 0.18416 0.3247 0.0528 0.0
C30 C 0.21613 0.31247 0.04857 0.0
C31 C 0.09271 0.34302 0.02612 0.0
H32 H 1.02169 0.46169 0.06208 0.0
H33 H 0.04905 0.43909 0.07281 0.0
H34 H 0.11948 0.43795 0.93583 0.0
H35 H 0.08989 0.46062 0.92464 0.0
H36 H 0.1478 0.3081 0.94509 0.0
H37 H 0.09066 0.32934 0.95278 0.0
H38 H 0.19282 0.32904 0.0836 0.0
H39 H 0.24852 0.30776 0.07621 0.0
Tb40 Tb 0.98038 0.6212 0.00712 0.0
Eu41 Eu 0.98675 0.65272 -0.00455 0.0
C42 C 0.99756 0.63733 0.08691 0.0
C43 C 0.80956 0.6375 0.00217 0.0
C44 C 0.99925 0.58461 0.01068 0.0
C45 C 1.02505 0.56308 0.04088 0.0
C46 C 1.00852 0.57584 0.04685 0.0
C47 C 1.01025 0.58043 0.96816 0.0
C48 C 1.02707 0.56762 0.96213 0.0
C49 C 1.03278 0.55871 -0.00157 0.0
C50 C 0.96525 0.59735 0.01849 0.0
O51 O 1.02511 0.62611 0.94033 0.0
O52 O 0.95599 0.6452 0.9301 0.0
O53 O 0.12177 0.64631 0.98211 0.0
O54 O 0.11691 0.62569 0.01274 0.0
C55 C 0.99428 0.63537 0.91427 0.0
O56 O 1.0014 0.67078 0.95588 0.0
O57 O 0.9847 0.6706 0.02664 0.0
O58 O 1.03677 0.64597 0.06131 0.0
O59 O 0.94906 0.62883 0.06998 0.0
O60 O 0.85141 0.62753 0.98977 0.0
O61 O 0.84988 0.64761 0.01404 0.0
C62 C 0.15991 0.63579 -0.00324 0.0
O63 O 1.00562 0.60428 0.04537 0.0
O64 O 0.9332 0.60414 0.98551 0.0
C65 C 0.94713 0.68976 0.98561 0.0
C66 C 0.88325 0.71485 0.98543 0.0
C67 C 0.94261 0.71141 0.95313 0.0
C68 C 0.97427 0.69903 0.95332 0.0
C69 C 0.88469 0.69299 0.01668 0.0
C70 C 0.85301 0.70539 0.01654 0.0
C71 C 0.99374 0.67755 0.98995 0.0
H72 H 1.02767 0.55653 0.06965 0.0
H73 H 0.99892 0.57877 0.07994 0.0
H74 H 1.00299 0.58694 0.93956 0.0
H75 H 1.03391 0.56465 0.92899 0.0
H76 H 0.96614 0.71838 0.9282 0.0
H77 H 1.02274 0.69683 0.92919 0.0
H78 H 0.8628 0.68608 0.04222 0.0
H79 H 0.80779 0.70769 0.04207 0.0
Tb80 Tb 0.10065 0.65122 0.49862 0.0
Eu81 Eu 0.10742 0.61983 0.49951 0.0
C82 C 0.09684 0.63716 0.413 0.0
C83 C 0.92738 0.635 0.50075 0.0
C84 C 0.14205 0.68706 0.50259 0.0
C85 C 0.23607 0.70438 0.47522 0.0
C86 C 0.20418 0.69207 0.47229 0.0
C87 C 0.11517 0.69445 0.53681 0.0
C88 C 0.14705 0.70674 0.53976 0.0
C89 C 0.20621 0.71199 0.50833 0.0
C90 C 0.09504 0.67521 0.49499 0.0
O91 O 0.1304 0.644 0.56527 0.0
O92 O 0.0591 0.62502 0.56561 0.0
O93 O 0.23877 0.62639 0.51721 0.0
O94 O 0.2354 0.64674 0.48601 0.0
C95 C 0.08998 0.63445 0.5865 0.0
O96 O 0.14435 0.6014 0.53043 0.0
O97 O 0.09288 0.60269 0.46445 0.0
O98 O 0.14487 0.62847 0.43275 0.0
O99 O 0.0558 0.6453 0.43608 0.0
O100 O 0.96814 0.64525 0.51153 0.0
O101 O 0.9678 0.62475 0.48936 0.0
C102 C 0.27801 0.63681 0.50222 0.0
O103 O 0.12065 0.6686 0.4627 0.0
O104 O 0.06945 0.66799 0.52899 0.0
C105 C 0.089 0.58215 0.50334 0.0
C106 C 0.05625 0.55575 0.5069 0.0
C107 C 0.10271 0.56111 0.54023 0.0
C108 C 0.11919 0.57415 0.53835 0.0
C109 C 1.03881 0.57689 0.47121 0.0
C110 C 1.02249 0.56385 0.47303 0.0
C111 C 0.12275 0.59526 0.49652 0.0
H112 H 0.281 0.70813 0.45024 0.0
H113 H 0.22556 0.68672 0.44513 0.0
H114 H 0.06668 0.69093 0.56036 0.0
H115 H 0.1237 0.71225 0.56611 0.0
H116 H 0.13032 0.55514 0.56656 0.0
H117 H 0.15936 0.57786 0.56318 0.0
H118 H 1.01524 0.58274 0.44352 0.0
H119 H 0.98538 0.56005 0.4472 0.0
Tb120 Tb 0.9748 0.397 0.5154 0.0
Eu121 Eu 0.98421 0.36552 0.51711 0.0
C122 C 0.99055 0.38318 0.42777 0.0
C123 C 0.80514 0.38055 0.51398 0.0
C124 C 0.99141 0.4337 0.50986 0.0
C125 C 0.97227 0.4543 0.47063 0.0
C126 C 0.95694 0.44124 0.47479 0.0
C127 C 0.04504 0.43944 0.53948 0.0
C128 C 0.06052 0.45252 0.53526 0.0
C129 C 1.02205 0.46016 0.50159 0.0
C130 C 0.95793 0.42069 0.52004 0.0
O131 O 0.93987 0.38855 0.58023 0.0
O132 O 1.03399 0.3723 0.58016 0.0
O133 O 0.11875 0.37225 0.50206 0.0
O134 O 0.11225 0.393 0.52172 0.0
C135 C 0.99182 0.38069 0.60146 0.0
O136 O 0.96703 0.3473 0.55467 0.0
O137 O 1.0161 0.34785 0.48755 0.0
O138 O 0.95789 0.37279 0.44765 0.0
O139 O 1.01582 0.39284 0.44946 0.0
O140 O 0.84702 0.39074 0.49885 0.0
O141 O 0.84519 0.37035 0.52984 0.0
C142 C 0.15587 0.38295 0.51073 0.0
O143 O 0.9286 0.41441 0.48809 0.0
O144 O 0.99636 0.41331 0.54952 0.0
C145 C 0.95182 0.32841 0.51661 0.0
C146 C 0.89274 0.30358 0.50455 0.0
C147 C 0.93121 0.30647 0.54404 0.0
C148 C 0.96035 0.31873 0.54994 0.0
C149 C 0.91096 0.3257 0.47753 0.0
C150 C 0.8813 0.31339 0.47165 0.0
C151 C 0.99358 0.34073 0.5224 0.0
H152 H 0.94275 0.45989 0.44393 0.0
H153 H 0.91439 0.43717 0.45174 0.0
H154 H 0.07144 0.43396 0.56732 0.0
H155 H 0.09866 0.45673 0.55986 0.0
H156 H 0.93968 0.29921 0.57032 0.0
H157 H 0.99187 0.32057 0.58028 0.0
H158 H 0.90387 0.33299 0.4512 0.0
H159 H 0.85214 0.31146 0.44081 0.0
Tb160 Tb 0.60449 0.89949 -0.00459 0.0
Eu161 Eu 0.59824 0.86802 0.0089 0.0
C162 C 0.58987 0.8859 0.08901 0.0
C163 C 0.77515 0.88311 0.00044 0.0
C164 C 0.58636 0.93609 0.991 0.0
C165 C 0.56137 0.95313 0.0397 0.0
C166 C 0.57752 0.9403 0.03358 0.0
C167 C 0.57552 0.94483 0.95489 0.0
C168 C 0.5596 0.95761 0.96095 0.0
C169 C 0.55413 0.96201 0.00342 0.0
C170 C 0.61965 0.92333 0.98292 0.0
O171 O 0.63621 0.89173 0.93282 0.0
O172 O 0.55042 0.87436 0.94214 0.0
O173 O 0.4638 0.87454 0.02318 0.0
O174 O 0.46825 0.89479 0.98956 0.0
C175 C 0.589 0.883 0.91625 0.0
O176 O 0.58551 0.8499 0.97988 0.0
O177 O 0.59748 0.8502 0.05042 0.0
O178 O 0.62769 0.87596 0.07375 0.0
O179 O 0.55957 0.89508 0.06248 0.0
O180 O 0.73334 0.89307 0.01296 0.0
O181 O 0.73456 0.873 0.98872 0.0
C182 C 0.42532 0.88485 0.00693 0.0
O183 O 0.65367 0.91661 0.01551 0.0
O184 O 0.57737 0.91633 0.95699 0.0
C185 C 0.63926 0.83112 0.01743 0.0
C186 C 0.70771 0.80644 0.01264 0.0
C187 C 0.7283 0.8161 0.98019 0.0
C188 C 0.69448 0.82832 0.98254 0.0
C189 C 0.62141 0.82164 0.05068 0.0
C190 C 0.65536 0.80945 0.04842 0.0
C191 C 0.59097 0.84318 0.01709 0.0
H192 H 0.55626 0.95612 0.07288 0.0
H193 H 0.586 0.93381 0.06213 0.0
H194 H 0.58339 0.94188 0.92174 0.0
H195 H 0.55569 0.96413 0.93219 0.0
H196 H 0.76948 0.81417 0.95254 0.0
H197 H 0.70942 0.83543 0.95636 0.0
H198 H 0.57827 0.82352 0.07764 0.0
H199 H 0.63745 0.80224 0.07376 0.0
Tb200 Tb 0.48099 0.12081 -0.00399 0.0
Eu201 Eu 0.48689 0.15228 -0.00392 0.0
C202 C 0.49089 0.13439 0.08354 0.0
C203 C 0.30979 0.13691 -0.00356 0.0
C204 C 0.50179 0.08407 0.00056 0.0
C205 C 0.51116 0.06455 0.04755 0.0
C206 C 0.49491 0.0776 0.04226 0.0
C207 C 0.52847 0.07729 0.96474 0.0
C208 C 0.54449 0.06427 0.96998 0.0
C209 C 0.53398 0.05764 0.01125 0.0
C210 C 0.46667 0.09703 0.99216 0.0
O211 O 0.45052 0.12915 0.93092 0.0
O212 O 0.53868 0.1462 0.93192 0.0
O213 O 0.62166 0.14575 0.01021 0.0
O214 O 0.61774 0.12528 0.98769 0.0
C215 C 0.49977 0.13771 0.91009 0.0
O216 O 0.47599 0.17059 0.95956 0.0
O217 O 0.50867 0.16986 0.02852 0.0
O218 O 0.45196 0.14421 0.06412 0.0
O219 O 0.5232 0.12533 0.06082 0.0
O220 O 0.35114 0.12681 0.01205 0.0
O221 O 0.35049 0.14718 0.98089 0.0
C222 C 0.66017 0.13528 -0.00039 0.0
O223 O 0.43936 0.10323 0.02516 0.0
O224 O 0.50206 0.10451 0.96131 0.0
C225 C 0.44396 0.18909 -0.00206 0.0
C226 C 0.37792 0.21397 0.00195 0.0
C227 C 0.37169 0.20751 0.96331 0.0
C228 C 0.40443 0.19525 0.9613 0.0
C229 C 0.44752 0.19537 0.03707 0.0
C230 C 0.41448 0.20764 0.03913 0.0
C231 C 0.49196 0.17711 -0.00664 0.0
H232 H 0.50366 0.05981 0.07994 0.0
H233 H 0.47352 0.08249 0.07051 0.0
H234 H 0.53262 0.08192 0.93203 0.0
H235 H 0.56068 0.0593 0.94111 0.0
H236 H 0.34288 0.21203 0.93426 0.0
H237 H 0.40139 0.19078 0.93044 0.0
H238 H 0.47883 0.19101 0.06567 0.0
H239 H 0.42105 0.21238 0.06929 0.0
Tb240 Tb 0.60163 0.15143 0.48973 0.0
Eu241 Eu 0.60843 0.12007 0.50347 0.0
C242 C 0.58983 0.13431 0.40979 0.0
C243 C 0.42876 0.13541 0.49493 0.0
C244 C 0.64607 0.18734 0.47952 0.0
C245 C 0.67357 0.20812 0.44249 0.0
C246 C 0.63903 0.19588 0.44251 0.0
C247 C 0.69143 0.19112 0.51596 0.0
C248 C 0.7256 0.20337 0.51603 0.0
C249 C 0.71527 0.21212 0.47971 0.0
C250 C 0.59498 0.17546 0.48189 0.0
O251 O 0.55708 0.14544 0.55584 0.0
O252 O 0.64437 0.1284 0.56636 0.0
O253 O 0.73998 0.12704 0.482 0.0
O254 O 0.73503 0.14713 0.50595 0.0
C255 C 0.59772 0.13733 0.58236 0.0
O256 O 0.58225 0.10243 0.54347 0.0
O257 O 0.65738 0.10211 0.48286 0.0
O258 O 0.56068 0.1248 0.43557 0.0
O259 O 0.62896 0.14401 0.42578 0.0
O260 O 0.47049 0.14548 0.47805 0.0
O261 O 0.46855 0.12529 0.51209 0.0
C262 C 0.77868 0.13732 0.49343 0.0
O263 O 0.59806 0.16834 0.44869 0.0
O264 O 0.59209 0.16873 0.51914 0.0
C265 C 0.59461 0.08245 0.51074 0.0
C266 C 0.56875 0.05631 0.50127 0.0
C267 C 0.57719 0.06095 0.5431 0.0
C268 C 0.58999 0.07386 0.54774 0.0
C269 C 0.58229 0.07796 0.46893 0.0
C270 C 0.56902 0.065 0.46428 0.0
C271 C 0.62437 0.09549 0.51663 0.0
H272 H 0.66389 0.21463 0.41411 0.0
H273 H 0.6034 0.19329 0.41423 0.0
H274 H 0.69783 0.1848 0.54513 0.0
H275 H 0.75853 0.2061 0.54496 0.0
H276 H 0.57584 0.05453 0.57229 0.0
H277 H 0.59988 0.07707 0.58028 0.0
H278 H 0.58611 0.08437 0.43977 0.0
H279 H 0.56288 0.06171 0.43161 0.0
Tb280 Tb 0.4774 0.8979 0.50499 0.0
Eu281 Eu 0.48368 0.86655 0.5042 0.0
C282 C 0.49069 0.88468 0.41689 0.0
C283 C 0.30632 0.88176 0.50421 0.0
C284 C 0.49828 0.93455 0.50356 0.0
C285 C 0.51491 0.95431 0.45824 0.0
C286 C 0.49868 0.94123 0.4621 0.0
C287 C 0.51815 0.94111 0.54064 0.0
C288 C 0.53381 0.95415 0.53683 0.0
C289 C 0.52982 0.96097 0.49581 0.0
C290 C 0.46226 0.92158 0.51019 0.0
O291 O 0.44331 0.88934 0.5697 0.0
O292 O 0.53298 0.87256 0.56833 0.0
O293 O 0.61892 0.87319 0.48952 0.0
O294 O 0.61383 0.89354 0.51301 0.0
C295 C 0.49321 0.88104 0.59031 0.0
O296 O 0.47194 0.84819 0.54043 0.0
O297 O 0.50725 0.84903 0.47123 0.0
O298 O 0.45213 0.87469 0.43622 0.0
O299 O 0.52227 0.89366 0.43979 0.0
O300 O 0.34858 0.89189 0.48875 0.0
O301 O 0.3462 0.8715 0.51962 0.0
C302 C 0.65693 0.88362 0.50054 0.0
O303 O 0.43932 0.9156 0.47621 0.0
O304 O 0.49381 0.91394 0.54113 0.0
C305 C 0.44262 0.82969 0.5019 0.0
C306 C 0.37749 0.8047 0.50026 0.0
C307 C 0.35396 0.8124 0.5343 0.0
C308 C 0.38616 0.82474 0.53516 0.0
C309 C 0.46349 0.82218 0.46701 0.0
C310 C 0.43102 0.80985 0.46607 0.0
C311 C 0.48959 0.84174 0.50643 0.0
H312 H 0.51114 0.95932 0.42621 0.0
H313 H 0.48245 0.9365 0.43293 0.0
H314 H 0.51721 0.93628 0.57309 0.0
H315 H 0.54636 0.95898 0.56628 0.0
H316 H 0.31189 0.80879 0.56082 0.0
H317 H 0.36909 0.83022 0.56272 0.0
H318 H 0.50788 0.82564 0.4413 0.0
H319 H 0.45107 0.80415 0.43957 0.0
C320 C 0.42015 0.37386 -0.00381 0.0
C321 C 0.37234 0.38371 0.01292 0.0
C322 C 0.51042 0.37435 -0.00527 0.0
C323 C 0.5537 0.38468 0.01204 0.0
C324 C 0.50533 0.3945 0.02985 0.0
C325 C 0.41528 0.39401 0.02927 0.0
C326 C 0.55945 0.36391 0.97417 0.0
C327 C 0.54865 0.40543 0.05012 0.0
C328 C 0.78492 0.37907 0.0466 0.0
C329 C 0.83063 0.38577 0.0127 0.0
C330 C 0.69481 0.37887 0.04727 0.0
C331 C 0.64949 0.38513 0.01227 0.0
C332 C 0.69582 0.39183 0.97769 0.0
C333 C 0.78604 0.39225 0.97873 0.0
C334 C 0.64818 0.37199 0.0855 0.0
C335 C 0.65021 0.39832 0.93917 0.0
H336 H 0.38687 0.36596 0.98316 0.0
H337 H 0.3782 0.40158 0.04252 0.0
H338 H 0.6026 0.368 0.94763 0.0
H339 H 0.60044 0.35887 -0.00098 0.0
H340 H 0.51627 0.3569 0.96018 0.0
H341 H 0.50179 0.41206 0.06388 0.0
H342 H 0.59144 0.40178 0.0768 0.0
H343 H 0.58933 0.41079 0.0252 0.0
H344 H 0.81991 0.37408 0.07287 0.0
H345 H 0.82188 0.39729 0.95229 0.0
H346 H 0.61084 0.36396 0.07388 0.0
H347 H 0.60189 0.37846 0.10048 0.0
H348 H 0.69277 0.36823 0.11125 0.0
H349 H 0.61018 0.39134 0.92306 0.0
H350 H 0.69562 0.40281 0.91438 0.0
H351 H 0.60647 0.40571 0.95063 0.0
C352 C 0.30204 0.64402 0.96791 0.0
C353 C 0.25518 0.63557 -0.00346 0.0
C354 C 0.39215 0.64433 0.96839 0.0
C355 C 0.43678 0.63617 -0.00117 0.0
C356 C 0.38985 0.62762 0.02783 0.0
C357 C 0.2997 0.62733 0.02604 0.0
C358 C 0.43963 0.6534 0.93625 0.0
C359 C 0.43483 0.6189 0.06121 0.0
C360 C 0.67153 0.62879 0.97572 0.0
C361 C 0.71425 0.63733 0.00125 0.0
C362 C 0.58151 0.62838 0.97444 0.0
C363 C 0.53257 0.63653 -3e-05 0.0
C364 C 0.57523 0.6451 0.0261 0.0
C365 C 0.66553 0.64549 0.02608 0.0
C366 C 0.53877 0.61929 0.94545 0.0
C367 C 0.52544 0.6538 0.05433 0.0
H368 H 0.26819 0.65036 0.94482 0.0
H369 H 0.26397 0.62087 0.04855 0.0
H370 H 0.47793 0.66015 0.95429 0.0
H371 H 0.48516 0.6481 0.91607 0.0
H372 H 0.39558 0.65889 0.91396 0.0
H373 H 0.3891 0.61294 0.08186 0.0
H374 H 0.47943 0.61258 0.04436 0.0
H375 H 0.47388 0.62455 0.08295 0.0
H376 H 0.70856 0.62251 0.95617 0.0
H377 H 0.69797 0.65204 0.04612 0.0
H378 H 0.49714 0.62459 0.92148 0.0
H379 H 0.49698 0.61261 0.96559 0.0
H380 H 0.58596 0.61372 0.92711 0.0
H381 H 0.48432 0.66019 0.03346 0.0
H382 H 0.56807 0.65967 0.07364 0.0
H383 H 0.48234 0.64815 0.07737 0.0
C384 C 0.78785 0.64371 0.52689 0.0
C385 C 0.83215 0.63518 0.50148 0.0
C386 C 0.69779 0.64422 0.52748 0.0
C387 C 0.65063 0.63618 0.50137 0.0
C388 C 0.69499 0.6276 0.47541 0.0
C389 C 0.78516 0.62711 0.47612 0.0
C390 C 0.65308 0.65331 0.55633 0.0
C391 C 0.64717 0.61899 0.44664 0.0
C392 C 0.41765 0.62862 0.5317 0.0
C393 C 0.37322 0.63708 0.50286 0.0
C394 C 0.50771 0.62835 0.5319 0.0
C395 C 0.55486 0.63657 0.50195 0.0
C396 C 0.51045 0.64515 0.47276 0.0
C397 C 0.42015 0.6454 0.47388 0.0
C398 C 0.55242 0.61925 0.56421 0.0
C399 C 0.55834 0.65394 0.4399 0.0
H400 H 0.82362 0.64992 0.54683 0.0
H401 H 0.81894 0.62058 0.45611 0.0
H402 H 0.6132 0.66003 0.53604 0.0
H403 H 0.60931 0.64801 0.57999 0.0
H404 H 0.69901 0.65882 0.57503 0.0
H405 H 0.69113 0.61313 0.42745 0.0
H406 H 0.60408 0.61259 0.4671 0.0
H407 H 0.60623 0.62471 0.42346 0.0
H408 H 0.38191 0.62222 0.55444 0.0
H409 H 0.38629 0.6519 0.45129 0.0
H410 H 0.59645 0.62452 0.58471 0.0
H411 H 0.59201 0.61251 0.54632 0.0
H412 H 0.5065 0.61375 0.58621 0.0
H413 H 0.60177 0.66019 0.45719 0.0
H414 H 0.51443 0.65996 0.41918 0.0
H415 H 0.59896 0.64834 0.4182 0.0
C416 C 0.66789 0.38969 0.4845 0.0
C417 C 0.70987 0.38077 0.51274 0.0
C418 C 0.57793 0.39035 0.48349 0.0
C419 C 0.52831 0.38204 0.51195 0.0
C420 C 0.5702 0.37303 0.54068 0.0
C421 C 0.66044 0.37242 0.54043 0.0
C422 C 0.53599 0.39991 0.4517 0.0
C423 C 0.51965 0.3641 0.57194 0.0
C424 C 0.29651 0.39126 0.53603 0.0
C425 C 0.25104 0.38335 0.50947 0.0
C426 C 0.38674 0.39089 0.53742 0.0
C427 C 0.43257 0.38259 0.51094 0.0
C428 C 0.38688 0.37484 0.48323 0.0
C429 C 0.29684 0.37522 0.48317 0.0
C430 C 0.43296 0.39918 0.56786 0.0
C431 C 0.4331 0.36608 0.45371 0.0
H432 H 0.70545 0.39614 0.46277 0.0
H433 H 0.69231 0.36556 0.56257 0.0
H434 H 0.49335 0.39499 0.42951 0.0
H435 H 0.49534 0.40645 0.46989 0.0
H436 H 0.58366 0.40561 0.4314 0.0
H437 H 0.56175 0.35789 0.59303 0.0
H438 H 0.47761 0.36959 0.59334 0.0
H439 H 0.4774 0.35803 0.55323 0.0
H440 H 0.26148 0.39748 0.55674 0.0
H441 H 0.26213 0.36914 0.46231 0.0
H442 H 0.47844 0.40557 0.54883 0.0
H443 H 0.47121 0.39321 0.59156 0.0
H444 H 0.38807 0.40505 0.5865 0.0
H445 H 0.47923 0.37156 0.43184 0.0
H446 H 0.38829 0.36097 0.43307 0.0
H447 H 0.47059 0.35899 0.4738 0.0
C448 C 0.91333 0.89189 0.02652 0.0
C449 C 0.87055 0.88326 0.00142 0.0
C450 C 1.00337 0.89227 0.02794 0.0
C451 C 0.05236 0.88398 0.003 0.0
C452 C 1.00966 0.8753 0.9773 0.0
C453 C 0.91931 0.87495 0.97716 0.0
C454 C 0.04608 0.9015 0.05644 0.0
C455 C 0.05946 0.86644 0.9497 0.0
C456 C 0.28549 0.89308 0.97681 0.0
C457 C 0.32993 0.88501 0.00691 0.0
C458 C 0.19534 0.89276 0.97484 0.0
C459 C 0.14823 0.88433 0.00423 0.0
C460 C 0.19276 0.87634 0.03522 0.0
C461 C 0.2829 0.87669 0.0359 0.0
C462 C 0.15054 0.90131 0.9409 0.0
C463 C 0.14513 0.86741 0.06775 0.0
H464 H 0.87634 0.89829 0.04565 0.0
H465 H 0.88688 0.86831 0.95746 0.0
H466 H 0.08756 0.8963 0.08073 0.0
H467 H 0.08802 0.90809 0.036 0.0
H468 H 0.99887 0.90717 0.0744 0.0
H469 H 1.01684 0.86047 0.93074 0.0
H470 H 0.10267 0.87197 0.92638 0.0
H471 H 0.10046 0.86014 0.97098 0.0
H472 H 0.32127 0.89946 0.95401 0.0
H473 H 0.31661 0.87047 0.05944 0.0
H474 H 0.10595 0.90773 0.95729 0.0
H475 H 0.1115 0.89555 0.91952 0.0
H476 H 0.19638 0.90716 0.91994 0.0
H477 H 0.0996 0.87281 0.0876 0.0
H478 H 0.18907 0.862 0.09034 0.0
H479 H 0.1068 0.86058 0.05006 0.0
C480 C 0.16749 0.14508 0.96945 0.0
C481 C 0.21448 0.13667 -0.00274 0.0
C482 C 0.07727 0.14465 0.96922 0.0
C483 C 1.03282 0.13577 -0.00188 0.0
C484 C 0.07995 0.12736 0.02661 0.0
C485 C 0.17006 0.12783 0.02553 0.0
C486 C 1.02948 0.15364 0.93786 0.0
C487 C 1.03515 0.11793 0.05855 0.0
C488 C 0.80028 0.14308 0.0265 0.0
C489 C 0.75534 0.13498 0.00033 0.0
C490 C 0.89039 0.1433 0.02654 0.0
C491 C 0.93701 0.1354 -0.00093 0.0
C492 C 0.89202 0.12718 0.9726 0.0
C493 C 0.80173 0.12697 0.97389 0.0
C494 C 0.9357 0.152 0.05597 0.0
C495 C 0.93927 0.11875 0.94238 0.0
H496 H 0.20129 0.15187 0.94728 0.0
H497 H 0.20577 0.12135 0.04735 0.0
H498 H 0.98791 0.14822 0.9166 0.0
H499 H 0.987 0.15984 0.95649 0.0
H500 H 0.07347 0.15972 0.91662 0.0
H501 H 0.08104 0.11216 0.07889 0.0
H502 H 0.99191 0.12298 0.0807 0.0
H503 H 0.99469 0.11146 0.04049 0.0
H504 H 0.7649 0.14923 0.0473 0.0
H505 H 0.76745 0.12076 0.95332 0.0
H506 H 0.97538 0.15897 0.03586 0.0
H507 H 0.97972 0.14645 0.07805 0.0
H508 H 0.89016 0.15725 0.0764 0.0
H509 H 0.97993 0.12461 0.91876 0.0
H510 H 0.89494 0.11298 0.92364 0.0
H511 H 0.98259 0.11226 0.9616 0.0
C512 C 0.28496 0.12761 0.52376 0.0
C513 C 0.33343 0.13561 0.49439 0.0
C514 C 0.1947 0.12811 0.52448 0.0
C515 C 0.15171 0.13666 0.49456 0.0
C516 C 0.20037 0.14465 0.4645 0.0
C517 C 0.29044 0.14411 0.46504 0.0
C518 C 0.14531 0.11955 0.55744 0.0
C519 C 0.15726 0.15371 0.43146 0.0
C520 C 0.92014 0.12909 0.46792 0.0
C521 C 0.87407 0.13757 0.49278 0.0
C522 C 1.01025 0.1288 0.46787 0.0
C523 C 0.05585 0.13704 0.49393 0.0
C524 C 1.00982 0.14564 0.5191 0.0
C525 C 0.91952 0.14589 0.5179 0.0
C526 C 0.05666 0.11966 0.43986 0.0
C527 C 0.05594 0.15445 0.54779 0.0
H528 H 0.3176 0.1211 0.5468 0.0
H529 H 0.32727 0.15028 0.44203 0.0
H530 H 0.10322 0.1253 0.57796 0.0
H531 H 0.10323 0.11311 0.54012 0.0
H532 H 0.18823 0.11372 0.57934 0.0
H533 H 0.20422 0.15922 0.41012 0.0
H534 H 0.11474 0.14839 0.41035 0.0
H535 H 0.11631 0.16044 0.44866 0.0
H536 H 0.88568 0.12268 0.44815 0.0
H537 H 0.88447 0.1524 0.53745 0.0
H538 H 0.09529 0.11296 0.46091 0.0
H539 H 0.10178 0.12491 0.41678 0.0
H540 H 1.0119 0.11412 0.42058 0.0
H541 H 0.09532 0.14887 0.57208 0.0
H542 H 1.01093 0.16048 0.56572 0.0
H543 H 0.10038 0.1607 0.52751 0.0
C544 C 0.79714 0.8918 0.52678 0.0
C545 C 0.75215 0.88391 0.49992 0.0
C546 C 0.88733 0.89152 0.52828 0.0
C547 C 0.93371 0.88335 0.5016 0.0
C548 C 0.88857 0.87558 0.47373 0.0
C549 C 0.79849 0.87586 0.47354 0.0
C550 C 0.93294 0.89983 0.55891 0.0
C551 C 0.93544 0.86693 0.44407 0.0
C552 C 0.16853 0.89091 0.47539 0.0
C553 C 0.21105 0.88199 0.50339 0.0
C554 C 0.07852 0.89141 0.47436 0.0
C555 C 1.02946 0.88295 0.5026 0.0
C556 C 0.07194 0.87398 0.5312 0.0
C557 C 0.16219 0.87352 0.53094 0.0
C558 C 1.0359 0.90095 0.44273 0.0
C559 C 1.02202 0.86492 0.56228 0.0
H560 H 0.76176 0.89796 0.54753 0.0
H561 H 0.76424 0.8698 0.45244 0.0
H562 H 0.9719 0.89388 0.58237 0.0
H563 H 0.97771 0.90635 0.53999 0.0
H564 H 0.88762 0.90555 0.57784 0.0
H565 H 0.89101 0.86175 0.42344 0.0
H566 H 0.98101 0.87252 0.42219 0.0
H567 H 0.97365 0.85991 0.46403 0.0
H568 H 0.20569 0.89744 0.45376 0.0
H569 H 0.19449 0.86667 0.5529 0.0
H570 H 0.99458 0.90737 0.46104 0.0
H571 H 0.99382 0.89598 0.42038 0.0
H572 H 0.08317 0.90676 0.42259 0.0
H573 H 0.97939 0.8703 0.58375 0.0
H574 H 0.06456 0.85877 0.58332 0.0
H575 H 0.98041 0.8588 0.54343 0.0
C576 C 0.9958 0.53916 0.95957 0.0
C577 C 1.04143 0.54484 0.99246 0.0
C578 C 0.99768 0.52596 0.95593 0.0
C579 C 0.0458 0.51819 0.98608 0.0
C580 C 0.09365 0.52389 0.01864 0.0
C581 C 0.09121 0.5371 0.02129 0.0
C582 C 0.9463 0.5203 0.92053 0.0
C583 C 0.14588 0.51598 0.05145 0.0
C584 C 0.98329 0.48357 0.01047 0.0
C585 C 0.04703 0.47721 0.98752 0.0
C586 C 0.9812 0.49688 0.00956 0.0
C587 C 0.04384 0.50409 0.98476 0.0
C588 C 0.1065 0.49777 0.96026 0.0
C589 C 0.10758 0.48444 0.96207 0.0
C590 C 0.91322 0.50321 0.03617 0.0
C591 C 0.17403 0.50508 0.93312 0.0
H592 H 0.95618 0.54497 0.93745 0.0
H593 H 0.12789 0.54138 0.04634 0.0
H594 H 0.98782 0.51419 0.90105 0.0
H595 H 0.89451 0.5142 0.93575 0.0
H596 H 0.9168 0.52766 0.89791 0.0
H597 H 0.18135 0.52186 0.07399 0.0
H598 H 0.10305 0.50938 0.07136 0.0
H599 H 0.19269 0.51012 0.03409 0.0
H600 H 0.93531 0.47813 0.02964 0.0
H601 H 0.15789 0.47968 0.94467 0.0
H602 H 0.87672 0.51011 0.01479 0.0
H603 H 0.94403 0.50859 0.06172 0.0
H604 H 0.86739 0.4963 0.05254 0.0
H605 H 0.14344 0.51232 0.91048 0.0
H606 H 0.2144 0.49883 0.9135 0.0
H607 H 0.2163 0.51019 0.95498 0.0
C608 C 0.10615 0.48023 0.50905 0.0
C609 C 1.02825 0.47424 0.50075 0.0
C610 C 0.11136 0.49349 0.50999 0.0
C611 C 1.03679 0.50094 0.50272 0.0
C612 C 0.95808 0.49495 0.49422 0.0
C613 C 0.9548 0.4817 0.49329 0.0
C614 C 0.19663 0.49953 0.51886 0.0
C615 C 0.87702 0.50253 0.48654 0.0
C616 C 1.03084 0.53411 0.54436 0.0
C617 C 0.04831 0.54173 0.50584 0.0
C618 C 1.0268 0.52084 0.54384 0.0
C619 C 1.04096 0.51502 0.50388 0.0
C620 C 0.05838 0.52265 0.46488 0.0
C621 C 0.06175 0.53589 0.46633 0.0
C622 C 1.00742 0.51304 0.58607 0.0
C623 C 0.07425 0.51682 0.42165 0.0
H624 H 0.16325 0.47455 0.51457 0.0
H625 H 0.89399 0.47715 0.48767 0.0
H626 H 0.21487 0.50637 0.49115 0.0
H627 H 0.19146 0.50492 0.54874 0.0
H628 H 0.2487 0.49243 0.52353 0.0
H629 H 0.82104 0.49644 0.48015 0.0
H630 H 0.86203 0.50794 0.51561 0.0
H631 H 0.88628 0.50952 0.45812 0.0
H632 H 1.01978 0.53855 0.57494 0.0
H633 H 0.07685 0.54167 0.43655 0.0
H634 H 0.06076 0.50635 0.59358 0.0
H635 H 0.9487 0.50729 0.58242 0.0
H636 H 0.99786 0.519 0.61435 0.0
H637 H 0.12996 0.51032 0.42438 0.0
H638 H 0.08697 0.52407 0.3943 0.0
H639 H 1.01783 0.5111 0.41328 0.0
C640 C 0.49486 0.98362 0.98131 0.0
C641 C 0.54617 0.97589 0.00941 0.0
C642 C 0.49266 0.99684 0.98402 0.0
C643 C 0.54241 1.00253 0.01584 0.0
C644 C 0.5923 0.99477 0.04519 0.0
C645 C 0.59381 0.98158 0.04155 0.0
C646 C 0.43845 1.00474 0.9521 0.0
C647 C 0.64583 1.00044 0.07977 0.0
C648 C 0.60304 0.03723 0.99115 0.0
C649 C 0.54093 0.0435 0.01543 0.0
C650 C 0.60521 0.02392 0.99165 0.0
C651 C 0.5442 0.01664 0.01733 0.0
C652 C 0.48308 0.02287 0.04302 0.0
C653 C 0.48197 0.0362 0.04165 0.0
C654 C 0.67157 0.01767 0.9638 0.0
C655 C 0.41723 0.01548 0.07104 0.0
H656 H 0.45671 0.97934 0.95684 0.0
H657 H 0.63462 0.97576 0.06306 0.0
H658 H 0.39257 0.01056 0.97022 0.0
H659 H 0.48004 0.01137 0.93162 0.0
H660 H 0.40175 0.99885 0.93006 0.0
H661 H 0.6771 0.99308 0.10173 0.0
H662 H 0.69639 1.00662 0.06377 0.0
H663 H 0.60537 1.00647 0.10008 0.0
H664 H 0.64973 0.04273 0.97131 0.0
H665 H 0.43287 0.04089 0.06008 0.0
H666 H 0.63922 0.01231 0.9387 0.0
H667 H 0.70954 0.01078 0.98443 0.0
H668 H 0.71623 0.02464 0.94679 0.0
H669 H 0.37398 0.01034 0.04976 0.0
H670 H 0.37769 0.02167 0.09126 0.0
H671 H 0.4493 1.00827 0.09318 0.0
C672 C 0.50451 0.03724 0.46877 0.0
C673 C 0.56433 0.0424 0.4965 0.0
C674 C 0.49858 0.02406 0.46546 0.0
C675 C 0.55437 0.01586 0.49013 0.0
C676 C 0.61635 0.02106 0.51724 0.0
C677 C 0.62039 0.03424 0.52017 0.0
C678 C 0.43118 0.01888 0.43647 0.0
C679 C 0.67757 0.0127 0.5438 0.0
C680 C 0.48769 0.98193 0.52283 0.0
C681 C 0.53501 0.97505 0.49304 0.0
C682 C 0.49185 0.99521 0.52146 0.0
C683 C 0.54519 1.00182 0.4897 0.0
C684 C 0.59227 0.99496 0.45909 0.0
C685 C 0.58621 0.98165 0.46095 0.0
C686 C 0.43987 1.00214 0.55442 0.0
C687 C 0.65043 1.00165 0.42501 0.0
H688 H 0.46086 0.0435 0.45051 0.0
H689 H 0.6679 0.03818 0.54101 0.0
H690 H 0.46121 0.0126 0.4129 0.0
H691 H 0.38454 0.01304 0.45686 0.0
H692 H 0.39567 0.02651 0.41774 0.0
H693 H 0.72493 0.01826 0.56146 0.0
H694 H 0.64108 1.00651 0.56828 0.0
H695 H 0.71282 1.00642 0.52208 0.0
H696 H 0.44669 0.97691 0.54717 0.0
H697 H 0.623 0.97637 0.43792 0.0
H698 H 0.39855 1.00935 0.53719 0.0
H699 H 0.48344 1.00723 0.57568 0.0
H700 H 0.39855 0.99565 0.57566 0.0
H701 H 0.61396 1.00894 0.40525 0.0
H702 H 0.68004 0.99501 0.4025 0.0
H703 H 0.70234 1.00664 0.44147 0.0
C704 C 0.17509 0.28393 0.98918 0.0
C705 C 0.22966 0.29271 0.00731 0.0
C706 C 0.19811 0.27111 0.98792 0.0
C707 C 0.27771 0.26691 0.00521 0.0
C708 C 0.33344 0.27572 0.02323 0.0
C709 C 0.30878 0.2885 0.02408 0.0
C710 C 0.13674 0.26202 0.9685 0.0
C711 C 0.4191 0.27166 0.04175 0.0
C712 C 0.30561 0.2318 0.03893 0.0
C713 C 0.35057 0.22748 0.00267 0.0
C714 C 0.28124 0.24458 0.04014 0.0
C715 C 0.30271 0.25329 0.00435 0.0
C716 C 0.3481 0.24899 0.96769 0.0
C717 C 0.37133 0.23616 0.96727 0.0
C718 C 0.23245 0.24876 0.07974 0.0
C719 C 0.37275 0.25796 0.92898 0.0
H720 H 0.11325 0.28702 0.9768 0.0
H721 H 0.35179 0.29522 0.03771 0.0
H722 H 0.16859 0.25739 0.94104 0.0
H723 H 0.11804 0.25442 -0.00636 0.0
H724 H 0.07769 0.2668 0.95603 0.0
H725 H 0.45525 0.27968 0.05438 0.0
H726 H 0.40954 0.26427 0.06893 0.0
H727 H 0.45873 0.26741 0.01608 0.0
H728 H 0.2887 0.22514 0.06624 0.0
H729 H 0.40734 0.23297 0.93944 0.0
H730 H 0.16997 0.25291 0.0695 0.0
H731 H 0.26895 0.25626 0.09517 0.0
H732 H 0.22031 0.24082 0.10475 0.0
H733 H 0.31448 0.26247 0.91458 0.0
H734 H 0.40769 0.25311 0.90291 0.0
H735 H 0.41402 0.26566 0.93998 0.0
C736 C 0.76494 0.78563 0.04477 0.0
C737 C 0.73679 0.79313 0.00813 0.0
C738 C 0.7889 0.77291 0.04122 0.0
C739 C 0.78449 0.76752 4e-05 0.0
C740 C 0.75669 0.77506 0.96288 0.0
C741 C 0.73331 0.78775 0.96736 0.0
C742 C 0.8187 0.76523 0.08159 0.0
C743 C 0.7508 0.76968 0.91842 0.0
C744 C 0.91784 0.73813 0.98168 0.0
C745 C 0.85689 0.72836 0.98814 0.0
C746 C 0.89513 0.75087 0.98532 0.0
C747 C 0.80928 0.754 -0.00422 0.0
C748 C 0.7473 0.74421 0.00222 0.0
C749 C 0.77181 0.73152 -0.00164 0.0
C750 C 0.96331 0.761 0.97836 0.0
C751 C 0.65502 0.74714 0.01327 0.0
H752 H 0.76869 0.78973 0.0763 0.0
H753 H 0.71034 0.79339 0.939 0.0
H754 H 0.77631 0.75687 0.08833 0.0
H755 H 0.88447 0.76163 0.07596 0.0
H756 H 0.81892 0.77083 0.11113 0.0
H757 H 0.72864 0.77681 0.8927 0.0
H758 H 0.81439 0.76608 0.90829 0.0
H759 H 0.70568 0.76153 0.92023 0.0
H760 H 0.98406 0.73579 0.97459 0.0
H761 H 0.72408 0.72408 0.00303 0.0
H762 H 0.96949 0.76622 0.00849 0.0
H763 H 0.94455 0.76798 0.95148 0.0
H764 H 1.02696 0.75702 0.97 0.0
H765 H 0.65152 0.75206 0.04422 0.0
H766 H 0.61457 0.73847 0.01714 0.0
H767 H 0.62771 0.75363 0.98706 0.0
C768 C 0.17133 0.73489 0.51676 0.0
C769 C 0.23245 0.72556 0.50848 0.0
C770 C 0.19385 0.74778 0.51556 0.0
C771 C 0.27968 0.7515 0.50581 0.0
C772 C 0.34186 0.74215 0.4976 0.0
C773 C 0.31751 0.72931 0.49899 0.0
C774 C 0.12552 0.75743 0.52436 0.0
C775 C 0.43413 0.74571 0.48729 0.0
C776 C 0.3233 0.78567 0.46357 0.0
C777 C 0.35032 0.79115 0.50168 0.0
C778 C 0.30003 0.7728 0.46443 0.0
C779 C 0.3043 0.76517 0.50431 0.0
C780 C 0.33146 0.77065 0.54287 0.0
C781 C 0.35396 0.78355 0.54111 0.0
C782 C 0.27081 0.76736 0.42265 0.0
C783 C 0.33736 0.76285 0.58599 0.0
H784 H 0.10513 0.73214 0.52331 0.0
H785 H 0.36532 0.72218 0.49292 0.0
H786 H 0.14398 0.76291 0.55252 0.0
H787 H 0.1195 0.76428 0.49541 0.0
H788 H 0.06184 0.75299 0.53175 0.0
H789 H 0.47473 0.73732 0.48182 0.0
H790 H 0.43771 0.75229 0.45746 0.0
H791 H 0.46123 0.75076 0.51466 0.0
H792 H 0.31963 0.79149 0.43307 0.0
H793 H 0.37616 0.78763 0.57056 0.0
H794 H 0.20498 0.76345 0.42734 0.0
H795 H 0.3133 0.75942 0.41445 0.0
H796 H 0.27094 0.77454 0.39438 0.0
H797 H 0.27372 0.75872 0.59537 0.0
H798 H 0.35966 0.76852 0.61301 0.0
H799 H 0.38235 0.75485 0.58253 0.0
C800 C 0.78813 0.28748 0.47942 0.0
C801 C 0.86755 0.29026 0.4976 0.0
C802 C 0.76288 0.27486 0.47459 0.0
C803 C 0.81865 0.2648 0.48791 0.0
C804 C 0.89969 0.26758 0.50529 0.0
C805 C 0.923 0.28025 0.50999 0.0
C806 C 0.67575 0.27229 0.45614 0.0
C807 C 0.96145 0.25717 0.51953 0.0
C808 C 0.72587 0.23208 0.51945 0.0
C809 C 0.7431 0.22557 0.48169 0.0
C810 C 0.74918 0.24486 0.52165 0.0
C811 C 0.79128 0.25133 0.48529 0.0
C812 C 0.80894 0.24482 0.44706 0.0
C813 C 0.78436 0.23205 0.44565 0.0
C814 C 0.72858 0.25144 0.56292 0.0
C815 C 0.85439 0.25134 0.40776 0.0
H816 H 0.74477 0.29515 0.47001 0.0
H817 H 0.98513 0.28233 0.52333 0.0
H818 H 0.68238 0.26644 0.42744 0.0
H819 H 0.63597 0.26682 0.48121 0.0
H820 H 0.64125 0.28116 0.44581 0.0
H821 H 1.02336 0.26093 0.53075 0.0
H822 H 0.93239 0.25105 0.54676 0.0
H823 H 0.97457 0.25107 0.492 0.0
H824 H 0.69262 0.22723 0.54714 0.0
H825 H 0.79835 0.22707 0.41647 0.0
H826 H 0.68835 0.25991 0.55494 0.0
H827 H 0.78862 0.25479 0.57745 0.0
H828 H 0.69413 0.24515 0.58797 0.0
H829 H 0.81787 0.25984 0.39578 0.0
H830 H 0.86246 0.24502 0.38034 0.0
H831 H 0.91865 0.25463 0.41733 0.0
C832 C 0.13753 0.38841 0.17461 0.0
C833 C 0.07105 0.38471 0.14788 0.0
C834 C 0.12562 0.38848 0.22035 0.0
C835 C 0.04443 0.3852 0.23939 0.0
C836 C 0.97632 0.38188 0.21217 0.0
C837 C 0.99092 0.38146 0.16683 0.0
C838 C 0.20048 0.39172 0.24839 0.0
C839 C 0.8881 0.3787 0.23092 0.0
C840 C 1.02589 0.37279 0.35888 0.0
C841 C 1.00315 0.38374 0.37965 0.0
C842 C 1.04151 0.37321 0.3134 0.0
C843 C 1.03127 0.38478 0.28791 0.0
C844 C 1.00693 0.39584 0.3087 0.0
C845 C 0.99464 0.39523 0.35451 0.0
C846 C 0.06972 0.36129 0.2927 0.0
C847 C 0.99265 0.40825 0.28251 0.0
H848 H 0.19963 0.39086 0.15991 0.0
H849 H 0.93916 0.37874 0.14602 0.0
H850 H 0.1842 0.39988 0.26791 0.0
H851 H 0.21464 0.38358 0.272 0.0
H852 H 0.25931 0.39408 0.22851 0.0
H853 H 0.84064 0.37724 0.20493 0.0
H854 H 0.89097 0.36995 0.25297 0.0
H855 H 0.86492 0.38643 0.25094 0.0
H856 H 1.03358 0.36393 0.37841 0.0
H857 H 0.97667 0.4037 0.37059 0.0
H858 H 0.13091 0.36303 0.27421 0.0
H859 H 1.02125 0.35851 0.26888 0.0
H860 H 0.07891 0.35323 0.31742 0.0
H861 H 0.05246 0.4113 0.26468 0.0
H862 H 0.97202 0.41591 0.30354 0.0
H863 H 0.94292 0.40703 0.25748 0.0
C864 C 0.07108 0.6452 0.15195 0.0
C865 C 1.01042 0.6371 0.13494 0.0
C866 C 0.08565 0.64506 0.19717 0.0
C867 C 1.03803 0.63666 0.22624 0.0
C868 C 0.97654 0.62847 0.2094 0.0
C869 C 0.96364 0.62875 0.16387 0.0
C870 C 0.15216 0.65389 0.21383 0.0
C871 C 0.92422 0.61944 0.2395 0.0
C872 C 0.12913 0.62885 0.33959 0.0
C873 C 0.08291 0.63712 0.36513 0.0
C874 C 0.1147 0.62852 0.29438 0.0
C875 C 0.05225 0.6366 0.27432 0.0
C876 C 1.00515 0.64493 0.29994 0.0
C877 C 1.02125 0.64512 0.34499 0.0
C878 C 0.16663 0.61958 0.26803 0.0
C879 C 0.93781 0.65367 0.27975 0.0
H880 H 0.10794 0.65165 0.12987 0.0
H881 H 0.91669 0.62246 0.151 0.0
H882 H 0.12164 0.66034 0.23667 0.0
H883 H 0.20155 0.64836 0.23254 0.0
H884 H 0.18455 0.65972 0.18681 0.0
H885 H 0.87903 0.61368 0.22122 0.0
H886 H 0.96737 0.61294 0.25879 0.0
H887 H 0.8869 0.62481 0.26327 0.0
H888 H 0.17683 0.62263 0.35488 0.0
H889 H 0.98484 0.6515 0.36448 0.0
H890 H 0.20388 0.62503 0.24188 0.0
H891 H 0.12327 0.61311 0.25158 0.0
H892 H 0.2119 0.61378 0.28868 0.0
H893 H 0.9677 0.66026 0.25413 0.0
H894 H 0.90521 0.65933 0.30443 0.0
H895 H 0.88873 0.64808 0.26345 0.0
C896 C 0.06652 0.62663 0.84912 0.0
C897 C 1.00687 0.635 0.86618 0.0
C898 C 0.08161 0.62648 0.80371 0.0
C899 C 1.03509 0.63477 0.77459 0.0
C900 C 0.97406 0.64315 0.79155 0.0
C901 C 0.96109 0.64322 0.83716 0.0
C902 C 0.1479 0.61751 0.78691 0.0
C903 C 0.92237 0.65201 0.76149 0.0
C904 C 0.12418 0.6427 0.65935 0.0
C905 C 0.07751 0.6344 0.63471 0.0
C906 C 0.11157 0.64285 0.70498 0.0
C907 C 0.04995 0.63464 0.72634 0.0
C908 C 1.00246 0.62628 0.70163 0.0
C909 C 1.01721 0.6262 0.65619 0.0
C910 C 0.16421 0.65179 0.73033 0.0
C911 C 0.93548 0.61748 0.72313 0.0
H912 H 0.10267 0.62031 0.8713 0.0
H913 H 0.91467 0.64968 0.85007 0.0
H914 H 0.11754 0.61099 0.7647 0.0
H915 H 0.19802 0.62294 0.76748 0.0
H916 H 0.17931 0.61177 0.81392 0.0
H917 H 0.8765 0.6578 0.77986 0.0
H918 H 0.96592 0.65849 0.7416 0.0
H919 H 0.88585 0.64651 0.73827 0.0
H920 H 0.17106 0.64904 0.64302 0.0
H921 H 0.98033 0.61983 0.63737 0.0
H922 H 0.20026 0.64636 0.75639 0.0
H923 H 0.12134 0.65842 0.74683 0.0
H924 H 0.21057 0.65741 0.70895 0.0
H925 H 0.96536 0.61105 0.7487 0.0
H926 H 0.90347 0.61165 0.69919 0.0
H927 H 0.88589 0.62306 0.73974 0.0
C928 C 0.0855 0.37825 0.66692 0.0
C929 C 1.00608 0.38168 0.64884 0.0
C930 C 0.10124 0.37937 0.71165 0.0
C931 C 1.03505 0.38367 0.73922 0.0
C932 C 0.95449 0.38709 0.72113 0.0
C933 C 0.94142 0.38624 0.67595 0.0
C934 C 0.18872 0.37595 0.72938 0.0
C935 C 0.88158 0.39138 0.74964 0.0
C936 C 0.05129 0.37343 0.86043 0.0
C937 C 0.07858 0.38461 0.87821 0.0
C938 C 1.03518 0.37309 0.81544 0.0
C939 C 0.04923 0.3841 0.78727 0.0
C940 C 0.07785 0.39539 0.80497 0.0
C941 C 0.09082 0.39557 0.85043 0.0
C942 C 1.00243 0.36096 0.79812 0.0
C943 C 0.09589 0.40722 0.77582 0.0
H944 H 0.13605 0.37489 0.64586 0.0
H945 H 0.87991 0.38887 0.662 0.0
H946 H 0.21521 0.38395 0.74672 0.0
H947 H 0.18335 0.36769 0.75364 0.0
H948 H 0.23482 0.37357 0.70307 0.0
H949 H 0.82293 0.39369 0.7305 0.0
H950 H 0.86563 0.38383 0.77548 0.0
H951 H 0.901 0.39988 0.76652 0.0
H952 H 1.04061 0.36498 0.88194 0.0
H953 H 0.1122 0.40421 0.86414 0.0
H954 H 0.04925 0.35741 0.77415 0.0
H955 H 0.94142 0.36277 0.78054 0.0
H956 H 0.99119 0.35341 0.82468 0.0
H957 H 0.14467 0.40518 0.7504 0.0
H958 H 0.1195 0.41514 0.79458 0.0
H959 H 1.03686 0.41033 0.75842 0.0
C960 C 0.62305 0.87823 0.16623 0.0
C961 C 0.57747 0.88643 0.13707 0.0
C962 C 0.6095 0.87828 0.21178 0.0
C963 C 0.54805 0.88661 0.22858 0.0
C964 C 0.50221 0.89497 0.19936 0.0
C965 C 0.51788 0.89484 0.15397 0.0
C966 C 0.66051 0.86934 0.24193 0.0
C967 C 0.43553 0.9039 0.21601 0.0
C968 C 0.45628 0.87758 0.34247 0.0
C969 C 0.50269 0.88552 0.36854 0.0
C970 C 0.46931 0.878 0.29677 0.0
C971 C 0.53106 0.88644 0.27674 0.0
C972 C 0.57773 0.89454 0.30284 0.0
C973 C 0.56258 0.89404 0.34837 0.0
C974 C 0.4175 0.86933 0.26996 0.0
C975 C 0.64483 0.90357 0.28276 0.0
H976 H 0.66952 0.87175 0.15346 0.0
H977 H 0.48198 0.90116 0.13166 0.0
H978 H 0.69523 0.87475 0.2661 0.0
H979 H 0.61657 0.86267 0.26075 0.0
H980 H 0.70788 0.86376 0.22373 0.0
H981 H 0.40601 0.90988 0.18901 0.0
H982 H 0.38406 0.8984 0.23416 0.0
H983 H 0.46483 0.91018 0.23936 0.0
H984 H 0.40959 0.87101 0.35776 0.0
H985 H 0.59913 0.90016 0.36829 0.0
H986 H 0.46088 0.86273 0.2536 0.0
H987 H 0.38317 0.87495 0.24375 0.0
H988 H 0.36975 0.86366 0.2903 0.0
H989 H 0.69595 0.89817 0.2666 0.0
H990 H 0.67479 0.90935 0.30752 0.0
H991 H 0.6158 0.91004 0.25704 0.0
C992 C 0.45615 0.14194 0.15777 0.0
C993 C 0.50362 0.13398 0.1316 0.0
C994 C 0.46994 0.14198 0.20311 0.0
C995 C 0.53356 0.134 0.22264 0.0
C996 C 0.58171 0.12594 0.19641 0.0
C997 C 0.56573 0.12596 0.15127 0.0
C998 C 0.41645 0.15057 0.23012 0.0
C999 C 0.65075 0.1174 0.21596 0.0
C1000 C 0.6216 0.14262 0.33236 0.0
C1001 C 0.57729 0.13411 0.36182 0.0
C1002 C 0.60871 0.1426 0.2869 0.0
C1003 C 0.54923 0.13399 0.27062 0.0
C1004 C 0.50422 0.12541 0.30021 0.0
C1005 C 0.51917 0.12552 0.34539 0.0
C1006 C 0.65865 0.15179 0.25629 0.0
C1007 C 0.43953 0.11619 0.28419 0.0
H1008 H 0.40788 0.14813 0.14284 0.0
H1009 H 0.60325 0.11987 0.13122 0.0
H1010 H 0.38198 0.14488 0.25674 0.0
H1011 H 0.45857 0.15733 0.24597 0.0
H1012 H 0.36864 0.15605 0.21006 0.0
H1013 H 0.68314 0.11182 0.19098 0.0
H1014 H 0.69974 0.12315 0.23169 0.0
H1015 H 0.62269 0.11074 0.24193 0.0
H1016 H 0.66678 0.14926 0.34477 0.0
H1017 H 0.4841 0.11898 0.36792 0.0
H1018 H 0.61386 0.15818 0.23761 0.0
H1019 H 0.69562 0.14655 0.23201 0.0
H1020 H 0.70389 0.15767 0.27408 0.0
H1021 H 0.38809 0.12144 0.26606 0.0
H1022 H 0.40963 0.11018 0.3115 0.0
H1023 H 0.47084 0.10994 0.26098 0.0
C1024 C 0.57319 0.14593 0.84056 0.0
C1025 C 0.51267 0.13773 0.8619 0.0
C1026 C 0.58792 0.14591 0.79512 0.0
C1027 C 0.54063 0.13756 0.7703 0.0
C1028 C 0.47911 0.12931 0.79154 0.0
C1029 C 0.46605 0.12946 0.83714 0.0
C1030 C 0.65446 0.1548 0.77371 0.0
C1031 C 0.42711 0.12032 0.76607 0.0
C1032 C 0.5237 0.14572 0.64766 0.0
C1033 C 0.58471 0.13757 0.63048 0.0
C1034 C 0.50832 0.14575 0.69307 0.0
C1035 C 0.55554 0.13751 0.72205 0.0
C1036 C 0.6177 0.12933 0.70498 0.0
C1037 C 0.63136 0.12943 0.65939 0.0
C1038 C 0.44123 0.15456 0.71003 0.0
C1039 C 0.66978 0.12048 0.73491 0.0
H1040 H 0.60986 0.15231 0.85942 0.0
H1041 H 0.41918 0.1231 0.85335 0.0
H1042 H 0.7044 0.14931 0.75705 0.0
H1043 H 0.62422 0.16122 0.74819 0.0
H1044 H 0.6861 0.16066 0.79771 0.0
H1045 H 0.38132 0.11458 0.78742 0.0
H1046 H 0.39048 0.12572 0.74018 0.0
H1047 H 0.47047 0.11379 0.74936 0.0
H1048 H 0.48706 0.152 0.62559 0.0
H1049 H 0.6787 0.12312 0.64642 0.0
H1050 H 0.47103 0.1611 0.73238 0.0
H1051 H 0.39152 0.14902 0.72936 0.0
H1052 H 0.40941 0.16028 0.68312 0.0
H1053 H 0.7062 0.12599 0.75814 0.0
H1054 H 0.71579 0.11475 0.71644 0.0
H1055 H 0.62651 0.11395 0.75479 0.0
C1056 C 0.56941 0.87378 0.65895 0.0
C1057 C 0.50712 0.88151 0.63808 0.0
C1058 C 0.58509 0.87432 0.70393 0.0
C1059 C 0.53693 0.88273 0.72875 0.0
C1060 C 0.47404 0.89057 0.70792 0.0
C1061 C 0.46007 0.8899 0.66278 0.0
C1062 C 0.65299 0.86584 0.72493 0.0
C1063 C 0.42098 0.89959 0.7334 0.0
C1064 C 0.51703 0.87469 0.85147 0.0
C1065 C 0.57676 0.88299 0.86821 0.0
C1066 C 0.50304 0.8746 0.80624 0.0
C1067 C 0.5503 0.88296 0.77686 0.0
C1068 C 0.61081 0.89136 0.79342 0.0
C1069 C 0.62312 0.89131 0.83897 0.0
C1070 C 0.43755 0.86555 0.78989 0.0
C1071 C 0.66275 0.90035 0.76302 0.0
H1072 H 0.60655 0.86734 0.64008 0.0
H1073 H 0.41197 0.89593 0.6469 0.0
H1074 H 0.70111 0.87163 0.7411 0.0
H1075 H 0.62332 0.8593 0.75076 0.0
H1076 H 0.68669 0.86013 0.70076 0.0
H1077 H 0.37577 0.90522 0.71217 0.0
H1078 H 0.38354 0.89421 0.75966 0.0
H1079 H 0.46353 0.90621 0.74965 0.0
H1080 H 0.48047 0.86827 0.87376 0.0
H1081 H 0.66934 0.89776 0.85161 0.0
H1082 H 0.46902 0.85903 0.76766 0.0
H1083 H 0.38809 0.8709 0.77062 0.0
H1084 H 0.40513 0.85981 0.81712 0.0
H1085 H 0.70108 0.89492 0.73979 0.0
H1086 H 0.70698 0.90631 0.7811 0.0
H1087 H 0.61933 0.90665 0.74313 0.0
loop_
_geom_bond_atom_site_label_1
_geom_bond_atom_site_label_2
_geom_bond_distance
_geom_bond_site_symmetry_2
_ccdc_geom_bond_type
Tb0 C10 2.825 . S
Tb0 O11 2.347 1_554 S
Tb0 O14 2.366 1_455 S
Tb0 O19 2.418 . S
Tb0 O20 2.384 . S
Tb0 O23 2.479 . S
Tb0 O24 2.471 1_554 S
Eu1 O12 2.418 1_554 S
Eu1 O13 2.384 1_455 S
Eu1 O16 2.479 1_554 S
Eu1 O17 2.471 . S
Eu1 O18 2.347 . S
Eu1 O21 2.366 1_554 S
Eu1 C31 2.825 . S
C2 O18 1.259 . S
C2 O19 1.265 . S
C3 O20 1.255 . S
C3 O21 1.265 1_554 S
C4 C6 1.380 1_556 S
C4 C7 1.374 . S
C4 C10 1.507 1_656 S
C5 C6 1.384 . S
C5 C9 1.387 1_554 S
C5 H32 0.930 . S
C6 C4 1.380 1_554 S
C6 C5 1.384 . S
C6 H33 0.931 . S
C7 C4 1.374 . S
C7 C8 1.390 . S
C7 H34 0.930 . S
C8 C7 1.390 . S
C8 C9 1.391 . S
C8 H35 0.930 . S
C9 C5 1.387 1_556 S
C9 C8 1.391 . S
C10 Tb0 2.825 . S
C10 C4 1.507 1_454 S
C10 O23 1.238 . S
C10 O24 1.247 1_554 S
O11 Tb0 2.347 1_556 S
O11 C15 1.259 . S
O12 Eu1 2.418 1_556 S
O12 C15 1.265 . S
O13 Eu1 2.384 1_655 S
O13 C22 1.255 . S
O14 Tb0 2.366 1_655 S
O14 C22 1.265 . S
C15 O11 1.259 . S
C15 O12 1.265 . S
O16 Eu1 2.479 1_556 S
O16 C31 1.238 1_556 S
O17 Eu1 2.471 . S
O17 C31 1.247 . S
O18 Eu1 2.347 . S
O18 C2 1.259 . S
O19 Tb0 2.418 . S
O19 C2 1.265 . S
O20 Tb0 2.384 . S
O20 C3 1.255 . S
O21 Eu1 2.366 1_556 S
O21 C3 1.265 1_556 S
C22 O13 1.255 . S
C22 O14 1.265 . S
O23 Tb0 2.479 . S
O23 C10 1.238 . S
O24 Tb0 2.471 1_556 S
O24 C10 1.247 1_556 S
C25 C28 1.380 1_554 S
C25 C29 1.374 . S
C25 C31 1.507 . S
C26 C27 1.404 . S
C26 C30 1.391 . S
C27 C26 1.404 . S
C27 C28 1.382 1_554 S
C27 H36 0.915 1_554 S
C28 C25 1.380 1_556 S
C28 C27 1.382 1_556 S
C28 H37 0.931 . S
C29 C25 1.374 . S
C29 C30 1.390 . S
C29 H38 0.930 . S
C30 C26 1.391 . S
C30 C29 1.390 . S
C30 H39 0.930 . S
C31 Eu1 2.825 . S
C31 O16 1.238 1_554 S
C31 O17 1.247 . S
C31 C25 1.507 . S
H32 C5 0.930 . S
H33 C6 0.931 . S
H34 C7 0.930 . S
H35 C8 0.930 . S
H36 C27 0.915 1_556 S
H37 C28 0.931 . S
H38 C29 0.930 . S
H39 C30 0.930 . S
Tb40 C50 2.825 . S
Tb40 O51 2.347 1_554 S
Tb40 O54 2.366 1_655 S
Tb40 O59 2.418 . S
Tb40 O60 2.384 . S
Tb40 O63 2.479 . S
Tb40 O64 2.471 1_554 S
Eu41 O52 2.418 . S
Eu41 O53 2.384 1_655 S
Eu41 O56 2.479 . S
Eu41 O57 2.471 1_556 S
Eu41 O58 2.347 1_556 S
Eu41 O61 2.366 . S
Eu41 C71 2.825 1_556 S
C42 O58 1.259 . S
C42 O59 1.265 . S
C43 O60 1.255 . S
C43 O61 1.265 1_554 S
C44 C46 1.380 . S
C44 C47 1.374 1_554 S
C44 C50 1.507 1_455 S
C45 C46 1.384 . S
C45 C49 1.387 1_554 S
C45 H72 0.930 . S
C46 C44 1.380 . S
C46 C45 1.384 . S
C46 H73 0.931 . S
C47 C44 1.374 1_556 S
C47 C48 1.390 . S
C47 H74 0.930 . S
C48 C47 1.390 . S
C48 C49 1.391 . S
C48 H75 0.930 . S
C49 C45 1.387 1_556 S
C49 C48 1.391 . S
C50 Tb40 2.825 . S
C50 C44 1.507 1_655 S
C50 O63 1.238 . S
C50 O64 1.247 1_554 S
O51 Tb40 2.347 1_556 S
O51 C55 1.259 . S
O52 Eu41 2.418 . S
O52 C55 1.265 . S
O53 Eu41 2.384 1_455 S
O53 C62 1.255 1_556 S
O54 Tb40 2.366 1_455 S
O54 C62 1.265 . S
C55 O51 1.259 . S
C55 O52 1.265 . S
O56 Eu41 2.479 . S
O56 C71 1.238 1_556 S
O57 Eu41 2.471 1_554 S
O57 C71 1.247 . S
O58 Eu41 2.347 1_554 S
O58 C42 1.259 . S
O59 Tb40 2.418 . S
O59 C42 1.265 . S
O60 Tb40 2.384 . S
O60 C43 1.255 . S
O61 Eu41 2.366 . S
O61 C43 1.265 1_556 S
C62 O53 1.255 1_554 S
C62 O54 1.265 . S
O63 Tb40 2.479 . S
O63 C50 1.238 . S
O64 Tb40 2.471 1_556 S
O64 C50 1.247 1_556 S
C65 C68 1.380 1_554 S
C65 C69 1.374 . S
C65 C71 1.507 . S
C66 C67 1.387 1_554 S
C66 C70 1.391 . S
C67 C66 1.387 1_556 S
C67 C68 1.384 . S
C67 H76 0.930 . S
C68 C65 1.380 1_556 S
C68 C67 1.384 . S
C68 H77 0.931 . S
C69 C65 1.374 . S
C69 C70 1.390 . S
C69 H78 0.930 . S
C70 C66 1.391 . S
C70 C69 1.390 . S
C70 H79 0.930 . S
C71 Eu41 2.825 1_554 S
C71 O56 1.238 1_554 S
C71 O57 1.247 . S
C71 C65 1.507 . S
H72 C45 0.930 . S
H73 C46 0.931 . S
H74 C47 0.930 . S
H75 C48 0.930 . S
H76 C67 0.930 . S
H77 C68 0.931 . S
H78 C69 0.930 . S
H79 C70 0.930 . S
Tb80 C90 2.825 . S
Tb80 O91 2.347 . S
Tb80 O94 2.366 . S
Tb80 O99 2.418 . S
Tb80 O100 2.384 1_455 S
Tb80 O103 2.479 . S
Tb80 O104 2.471 . S
Eu81 O92 2.418 . S
Eu81 O93 2.384 . S
Eu81 O96 2.479 . S
Eu81 O97 2.471 . S
Eu81 O98 2.347 . S
Eu81 O101 2.366 1_455 S
Eu81 C111 2.825 . S
C82 O98 1.259 . S
C82 O99 1.265 . S
C83 O100 1.255 . S
C83 O101 1.265 . S
C84 C86 1.380 . S
C84 C87 1.374 . S
C84 C90 1.507 . S
C85 C86 1.384 . S
C85 C89 1.387 . S
C85 H112 0.930 . S
C86 C84 1.380 . S
C86 C85 1.384 . S
C86 H113 0.931 . S
C87 C84 1.374 . S
C87 C88 1.390 . S
C87 H114 0.930 . S
C88 C87 1.390 . S
C88 C89 1.391 . S
C88 H115 0.930 . S
C89 C85 1.387 . S
C89 C88 1.391 . S
C90 Tb80 2.825 . S
C90 C84 1.507 . S
C90 O103 1.238 . S
C90 O104 1.247 . S
O91 Tb80 2.347 . S
O91 C95 1.259 . S
O92 Eu81 2.418 . S
O92 C95 1.265 . S
O93 Eu81 2.384 . S
O93 C102 1.255 . S
O94 Tb80 2.366 . S
O94 C102 1.265 . S
C95 O91 1.259 . S
C95 O92 1.265 . S
O96 Eu81 2.479 . S
O96 C111 1.238 . S
O97 Eu81 2.471 . S
O97 C111 1.247 . S
O98 Eu81 2.347 . S
O98 C82 1.259 . S
O99 Tb80 2.418 . S
O99 C82 1.265 . S
O100 Tb80 2.384 1_655 S
O100 C83 1.255 . S
O101 Eu81 2.366 1_655 S
O101 C83 1.265 . S
C102 O93 1.255 . S
C102 O94 1.265 . S
O103 Tb80 2.479 . S
O103 C90 1.238 . S
O104 Tb80 2.471 . S
O104 C90 1.247 . S
C105 C108 1.380 . S
C105 C109 1.374 . S
C105 C111 1.507 1_655 S
C106 C107 1.387 . S
C106 C110 1.391 . S
C107 C106 1.387 . S
C107 C108 1.384 . S
C107 H116 0.930 . S
C108 C105 1.380 . S
C108 C107 1.384 . S
C108 H117 0.931 . S
C109 C105 1.374 . S
C109 C110 1.390 . S
C109 H118 0.930 . S
C110 C106 1.391 . S
C110 C109 1.390 . S
C110 H119 0.930 . S
C111 Eu81 2.825 . S
C111 O96 1.238 . S
C111 O97 1.247 . S
C111 C105 1.507 1_455 S
H112 C85 0.930 . S
H113 C86 0.931 . S
H114 C87 0.930 . S
H115 C88 0.930 . S
H116 C107 0.930 . S
H117 C108 0.931 . S
H118 C109 0.930 . S
H119 C110 0.930 . S
Tb120 C130 2.825 . S
Tb120 O131 2.347 . S
Tb120 O134 2.366 1_655 S
Tb120 O139 2.418 . S
Tb120 O140 2.384 . S
Tb120 O143 2.479 . S
Tb120 O144 2.471 . S
Eu121 O132 2.418 . S
Eu121 O133 2.384 1_655 S
Eu121 O136 2.479 . S
Eu121 O137 2.471 . S
Eu121 O138 2.347 . S
Eu121 O141 2.366 . S
Eu121 C151 2.825 . S
C122 O138 1.259 . S
C122 O139 1.265 . S
C123 O140 1.255 . S
C123 O141 1.265 . S
C124 C126 1.380 . S
C124 C127 1.374 . S
C124 C130 1.507 1_455 S
C125 C126 1.384 . S
C125 C129 1.387 . S
C125 H152 0.930 . S
C126 C124 1.380 . S
C126 C125 1.384 . S
C126 H153 0.931 . S
C127 C124 1.374 . S
C127 C128 1.390 . S
C127 H154 0.930 . S
C128 C127 1.390 . S
C128 C129 1.391 . S
C128 H155 0.930 . S
C129 C125 1.387 . S
C129 C128 1.391 . S
C130 Tb120 2.825 . S
C130 C124 1.507 1_655 S
C130 O143 1.238 . S
C130 O144 1.247 . S
O131 Tb120 2.347 . S
O131 C135 1.259 . S
O132 Eu121 2.418 . S
O132 C135 1.265 . S
O133 Eu121 2.384 1_455 S
O133 C142 1.255 . S
O134 Tb120 2.366 1_455 S
O134 C142 1.265 . S
C135 O131 1.259 . S
C135 O132 1.265 . S
O136 Eu121 2.479 . S
O136 C151 1.238 . S
O137 Eu121 2.471 . S
O137 C151 1.247 . S
O138 Eu121 2.347 . S
O138 C122 1.259 . S
O139 Tb120 2.418 . S
O139 C122 1.265 . S
O140 Tb120 2.384 . S
O140 C123 1.255 . S
O141 Eu121 2.366 . S
O141 C123 1.265 . S
C142 O133 1.255 . S
C142 O134 1.265 . S
O143 Tb120 2.479 . S
O143 C130 1.238 . S
O144 Tb120 2.471 . S
O144 C130 1.247 . S
C145 C148 1.380 . S
C145 C149 1.374 . S
C145 C151 1.507 . S
C146 C147 1.387 . S
C146 C150 1.391 . S
C147 C146 1.387 . S
C147 C148 1.384 . S
C147 H156 0.930 . S
C148 C145 1.380 . S
C148 C147 1.384 . S
C148 H157 0.931 . S
C149 C145 1.374 . S
C149 C150 1.390 . S
C149 H158 0.930 . S
C150 C146 1.391 . S
C150 C149 1.390 . S
C150 H159 0.930 . S
C151 Eu121 2.825 . S
C151 O136 1.238 . S
C151 O137 1.247 . S
C151 C145 1.507 . S
H152 C125 0.930 . S
H153 C126 0.931 . S
H154 C127 0.930 . S
H155 C128 0.930 . S
H156 C147 0.930 . S
H157 C148 0.931 . S
H158 C149 0.930 . S
H159 C150 0.930 . S
Tb160 C170 2.825 . S
Tb160 O171 2.347 1_554 S
Tb160 O174 2.366 . S
Tb160 O179 2.418 . S
Tb160 O180 2.384 . S
Tb160 O183 2.479 . S
Tb160 O184 2.471 1_554 S
Eu161 O172 2.418 1_554 S
Eu161 O173 2.384 . S
Eu161 O176 2.479 1_554 S
Eu161 O177 2.471 . S
Eu161 O178 2.347 . S
Eu161 O181 2.366 1_554 S
Eu161 C191 2.825 . S
C162 O178 1.259 . S
C162 O179 1.265 . S
C163 O180 1.255 . S
C163 O181 1.265 1_554 S
C164 C166 1.380 1_556 S
C164 C167 1.374 . S
C164 C170 1.507 1_556 S
C165 C166 1.384 . S
C165 C169 1.387 1_554 S
C165 H192 0.930 . S
C166 C164 1.380 1_554 S
C166 C165 1.384 . S
C166 H193 0.931 . S
C167 C164 1.374 . S
C167 C168 1.390 . S
C167 H194 0.930 . S
C168 C167 1.390 . S
C168 C169 1.391 . S
C168 H195 0.930 . S
C169 C165 1.387 1_556 S
C169 C168 1.391 . S
C170 Tb160 2.825 . S
C170 C164 1.507 1_554 S
C170 O183 1.238 . S
C170 O184 1.247 1_554 S
O171 Tb160 2.347 1_556 S
O171 C175 1.259 . S
O172 Eu161 2.418 1_556 S
O172 C175 1.265 . S
O173 Eu161 2.384 . S
O173 C182 1.255 . S
O174 Tb160 2.366 . S
O174 C182 1.265 . S
C175 O171 1.259 . S
C175 O172 1.265 . S
O176 Eu161 2.479 1_556 S
O176 C191 1.238 1_556 S
O177 Eu161 2.471 . S
O177 C191 1.247 . S
O178 Eu161 2.347 . S
O178 C162 1.259 . S
O179 Tb160 2.418 . S
O179 C162 1.265 . S
O180 Tb160 2.384 . S
O180 C163 1.255 . S
O181 Eu161 2.366 1_556 S
O181 C163 1.265 1_556 S
C182 O173 1.255 . S
C182 O174 1.265 . S
O183 Tb160 2.479 . S
O183 C170 1.238 . S
O184 Tb160 2.471 1_556 S
O184 C170 1.247 1_556 S
C185 C188 1.380 1_554 S
C185 C189 1.374 . S
C185 C191 1.507 . S
C186 C187 1.404 . S
C186 C190 1.391 . S
C187 C186 1.404 . S
C187 C188 1.382 1_554 S
C187 H196 0.915 1_554 S
C188 C185 1.380 1_556 S
C188 C187 1.382 1_556 S
C188 H197 0.931 . S
C189 C185 1.374 . S
C189 C190 1.390 . S
C189 H198 0.930 . S
C190 C186 1.391 . S
C190 C189 1.390 . S
C190 H199 0.930 . S
C191 Eu161 2.825 . S
C191 O176 1.238 1_554 S
C191 O177 1.247 . S
C191 C185 1.507 . S
H192 C165 0.930 . S
H193 C166 0.931 . S
H194 C167 0.930 . S
H195 C168 0.930 . S
H196 C187 0.915 1_556 S
H197 C188 0.931 . S
H198 C189 0.930 . S
H199 C190 0.930 . S
Tb200 C210 2.825 . S
Tb200 O211 2.347 1_554 S
Tb200 O214 2.366 . S
Tb200 O219 2.418 . S
Tb200 O220 2.384 . S
Tb200 O223 2.479 . S
Tb200 O224 2.471 1_554 S
Eu201 O212 2.418 . S
Eu201 O213 2.384 . S
Eu201 O216 2.479 . S
Eu201 O217 2.471 1_556 S
Eu201 O218 2.347 1_556 S
Eu201 O221 2.366 . S
Eu201 C231 2.825 1_556 S
C202 O218 1.259 . S
C202 O219 1.265 . S
C203 O220 1.255 . S
C203 O221 1.265 1_554 S
C204 C206 1.380 . S
C204 C207 1.374 1_554 S
C204 C210 1.507 . S
C205 C206 1.384 . S
C205 C209 1.387 1_554 S
C205 H232 0.930 . S
C206 C204 1.380 . S
C206 C205 1.384 . S
C206 H233 0.931 . S
C207 C204 1.374 1_556 S
C207 C208 1.390 . S
C207 H234 0.930 . S
C208 C207 1.390 . S
C208 C209 1.391 . S
C208 H235 0.930 . S
C209 C205 1.387 1_556 S
C209 C208 1.391 . S
C210 Tb200 2.825 . S
C210 C204 1.507 . S
C210 O223 1.238 . S
C210 O224 1.247 1_554 S
O211 Tb200 2.347 1_556 S
O211 C215 1.259 . S
O212 Eu201 2.418 . S
O212 C215 1.265 . S
O213 Eu201 2.384 . S
O213 C222 1.255 1_556 S
O214 Tb200 2.366 . S
O214 C222 1.265 . S
C215 O211 1.259 . S
C215 O212 1.265 . S
O216 Eu201 2.479 . S
O216 C231 1.238 1_556 S
O217 Eu201 2.471 1_554 S
O217 C231 1.247 . S
O218 Eu201 2.347 1_554 S
O218 C202 1.259 . S
O219 Tb200 2.418 . S
O219 C202 1.265 . S
O220 Tb200 2.384 . S
O220 C203 1.255 . S
O221 Eu201 2.366 . S
O221 C203 1.265 1_556 S
C222 O213 1.255 1_554 S
C222 O214 1.265 . S
O223 Tb200 2.479 . S
O223 C210 1.238 . S
O224 Tb200 2.471 1_556 S
O224 C210 1.247 1_556 S
C225 C228 1.380 1_554 S
C225 C229 1.374 . S
C225 C231 1.507 . S
C226 C227 1.387 1_554 S
C226 C230 1.391 . S
C227 C226 1.387 1_556 S
C227 C228 1.384 . S
C227 H236 0.930 . S
C228 C225 1.380 1_556 S
C228 C227 1.384 . S
C228 H237 0.931 . S
C229 C225 1.374 . S
C229 C230 1.390 . S
C229 H238 0.930 . S
C230 C226 1.391 . S
C230 C229 1.390 . S
C230 H239 0.930 . S
C231 Eu201 2.825 1_554 S
C231 O216 1.238 1_554 S
C231 O217 1.247 . S
C231 C225 1.507 . S
H232 C205 0.930 . S
H233 C206 0.931 . S
H234 C207 0.930 . S
H235 C208 0.930 . S
H236 C227 0.930 . S
H237 C228 0.931 . S
H238 C229 0.930 . S
H239 C230 0.930 . S
Tb240 C250 2.825 . S
Tb240 O251 2.347 . S
Tb240 O254 2.366 . S
Tb240 O259 2.418 . S
Tb240 O260 2.384 . S
Tb240 O263 2.479 . S
Tb240 O264 2.471 . S
Eu241 O252 2.418 . S
Eu241 O253 2.384 . S
Eu241 O256 2.479 . S
Eu241 O257 2.471 . S
Eu241 O258 2.347 . S
Eu241 O261 2.366 . S
Eu241 C271 2.825 . S
C242 O258 1.259 . S
C242 O259 1.265 . S
C243 O260 1.255 . S
C243 O261 1.265 . S
C244 C246 1.380 . S
C244 C247 1.374 . S
C244 C250 1.507 . S
C245 C246 1.384 . S
C245 C249 1.387 . S
C245 H272 0.930 . S
C246 C244 1.380 . S
C246 C245 1.384 . S
C246 H273 0.931 . S
C247 C244 1.374 . S
C247 C248 1.390 . S
C247 H274 0.930 . S
C248 C247 1.390 . S
C248 C249 1.391 . S
C248 H275 0.930 . S
C249 C245 1.387 . S
C249 C248 1.391 . S
C250 Tb240 2.825 . S
C250 C244 1.507 . S
C250 O263 1.238 . S
C250 O264 1.247 . S
O251 Tb240 2.347 . S
O251 C255 1.259 . S
O252 Eu241 2.418 . S
O252 C255 1.265 . S
O253 Eu241 2.384 . S
O253 C262 1.255 . S
O254 Tb240 2.366 . S
O254 C262 1.265 . S
C255 O251 1.259 . S
C255 O252 1.265 . S
O256 Eu241 2.479 . S
O256 C271 1.238 . S
O257 Eu241 2.471 . S
O257 C271 1.247 . S
O258 Eu241 2.347 . S
O258 C242 1.259 . S
O259 Tb240 2.418 . S
O259 C242 1.265 . S
O260 Tb240 2.384 . S
O260 C243 1.255 . S
O261 Eu241 2.366 . S
O261 C243 1.265 . S
C262 O253 1.255 . S
C262 O254 1.265 . S
O263 Tb240 2.479 . S
O263 C250 1.238 . S
O264 Tb240 2.471 . S
O264 C250 1.247 . S
C265 C268 1.380 . S
C265 C269 1.374 . S
C265 C271 1.507 . S
C266 C267 1.387 . S
C266 C270 1.391 . S
C267 C266 1.387 . S
C267 C268 1.384 . S
C267 H276 0.930 . S
C268 C265 1.380 . S
C268 C267 1.384 . S
C268 H277 0.931 . S
C269 C265 1.374 . S
C269 C270 1.390 . S
C269 H278 0.930 . S
C270 C266 1.391 . S
C270 C269 1.390 . S
C270 H279 0.930 . S
C271 Eu241 2.825 . S
C271 O256 1.238 . S
C271 O257 1.247 . S
C271 C265 1.507 . S
H272 C245 0.930 . S
H273 C246 0.931 . S
H274 C247 0.930 . S
H275 C248 0.930 . S
H276 C267 0.930 . S
H277 C268 0.931 . S
H278 C269 0.930 . S
H279 C270 0.930 . S
Tb280 C290 2.825 . S
Tb280 O291 2.347 . S
Tb280 O294 2.366 . S
Tb280 O299 2.418 . S
Tb280 O300 2.384 . S
Tb280 O303 2.479 . S
Tb280 O304 2.471 . S
Eu281 O292 2.418 . S
Eu281 O293 2.384 . S
Eu281 O296 2.479 . S
Eu281 O297 2.471 . S
Eu281 O298 2.347 . S
Eu281 O301 2.366 . S
Eu281 C311 2.825 . S
C282 O298 1.259 . S
C282 O299 1.265 . S
C283 O300 1.255 . S
C283 O301 1.265 . S
C284 C286 1.380 . S
C284 C287 1.374 . S
C284 C290 1.507 . S
C285 C286 1.384 . S
C285 C289 1.387 . S
C285 H312 0.930 . S
C286 C284 1.380 . S
C286 C285 1.384 . S
C286 H313 0.931 . S
C287 C284 1.374 . S
C287 C288 1.390 . S
C287 H314 0.930 . S
C288 C287 1.390 . S
C288 C289 1.391 . S
C288 H315 0.930 . S
C289 C285 1.387 . S
C289 C288 1.391 . S
C290 Tb280 2.825 . S
C290 C284 1.507 . S
C290 O303 1.238 . S
C290 O304 1.247 . S
O291 Tb280 2.347 . S
O291 C295 1.259 . S
O292 Eu281 2.418 . S
O292 C295 1.265 . S
O293 Eu281 2.384 . S
O293 C302 1.255 . S
O294 Tb280 2.366 . S
O294 C302 1.265 . S
C295 O291 1.259 . S
C295 O292 1.265 . S
O296 Eu281 2.479 . S
O296 C311 1.238 . S
O297 Eu281 2.471 . S
O297 C311 1.247 . S
O298 Eu281 2.347 . S
O298 C282 1.259 . S
O299 Tb280 2.418 . S
O299 C282 1.265 . S
O300 Tb280 2.384 . S
O300 C283 1.255 . S
O301 Eu281 2.366 . S
O301 C283 1.265 . S
C302 O293 1.255 . S
C302 O294 1.265 . S
O303 Tb280 2.479 . S
O303 C290 1.238 . S
O304 Tb280 2.471 . S
O304 C290 1.247 . S
C305 C308 1.380 . S
C305 C309 1.374 . S
C305 C311 1.507 . S
C306 C307 1.387 . S
C306 C310 1.391 . S
C307 C306 1.387 . S
C307 C308 1.384 . S
C307 H316 0.930 . S
C308 C305 1.380 . S
C308 C307 1.384 . S
C308 H317 0.931 . S
C309 C305 1.374 . S
C309 C310 1.390 . S
C309 H318 0.930 . S
C310 C306 1.391 . S
C310 C309 1.390 . S
C310 H319 0.930 . S
C311 Eu281 2.825 . S
C311 O296 1.238 . S
C311 O297 1.247 . S
C311 C305 1.507 . S
H312 C285 0.930 . S
H313 C286 0.931 . S
H314 C287 0.930 . S
H315 C288 0.930 . S
H316 C307 0.930 . S
H317 C308 0.931 . S
H318 C309 0.930 . S
H319 C310 0.930 . S
C320 C321 1.391 1_556 S
C320 C322 1.394 . S
C320 H336 0.931 . S
C321 C320 1.391 1_554 S
C321 C325 1.376 . S
C322 C320 1.394 . S
C322 C323 1.370 . S
C322 C326 1.531 . S
C323 C322 1.370 . S
C323 C324 1.408 1_556 S
C323 C331 1.503 1_556 S
C324 C323 1.408 1_554 S
C324 C325 1.392 . S
C324 C327 1.511 . S
C325 C321 1.376 . S
C325 C324 1.392 . S
C325 H337 0.929 . S
C326 C322 1.531 . S
C326 H338 0.960 . S
C326 H339 0.962 . S
C326 H340 0.960 . S
C327 C324 1.511 . S
C327 H341 0.961 . S
C327 H342 0.961 . S
C327 H343 0.961 . S
C328 C329 1.370 . S
C328 C330 1.363 . S
C328 H344 0.931 . S
C329 C328 1.370 . S
C329 C333 1.408 1_554 S
C330 C328 1.363 . S
C330 C331 1.370 . S
C330 C334 1.524 . S
C331 C323 1.503 1_554 S
C331 C330 1.370 . S
C331 C332 1.403 1_554 S
C332 C331 1.403 1_556 S
C332 C333 1.404 . S
C332 C335 1.539 . S
C333 C329 1.408 1_556 S
C333 C332 1.404 . S
C333 H345 0.930 . S
C334 C330 1.524 . S
C334 H346 0.956 . S
C334 H347 0.961 . S
C334 H348 0.961 . S
C335 C332 1.539 . S
C335 H349 0.958 . S
C335 H350 0.961 . S
C335 H351 0.960 . S
H336 C320 0.931 . S
H337 C325 0.929 . S
H338 C326 0.960 . S
H339 C326 0.962 . S
H340 C326 0.960 . S
H341 C327 0.961 . S
H342 C327 0.961 . S
H343 C327 0.961 . S
H344 C328 0.931 . S
H345 C333 0.930 . S
H346 C334 0.956 . S
H347 C334 0.961 . S
H348 C334 0.961 . S
H349 C335 0.958 . S
H350 C335 0.961 . S
H351 C335 0.960 . S
C352 C353 1.391 . S
C352 C354 1.394 . S
C352 H368 0.931 . S
C353 C352 1.391 . S
C353 C357 1.376 . S
C354 C352 1.394 . S
C354 C355 1.369 . S
C354 C358 1.531 . S
C355 C354 1.369 . S
C355 C356 1.410 . S
C355 C363 1.503 . S
C356 C355 1.410 . S
C356 C357 1.392 . S
C356 C359 1.511 . S
C357 C353 1.376 . S
C357 C356 1.392 . S
C357 H369 0.929 . S
C358 C354 1.531 . S
C358 H370 0.960 . S
C358 H371 0.962 . S
C358 H372 0.960 . S
C359 C356 1.511 . S
C359 H373 0.961 1_554 S
C359 H374 0.961 1_554 S
C359 H375 0.961 . S
C360 C361 1.370 1_556 S
C360 C362 1.363 . S
C360 H376 0.931 . S
C361 C360 1.370 1_554 S
C361 C365 1.408 . S
C362 C360 1.363 . S
C362 C363 1.370 1_556 S
C362 C366 1.524 . S
C363 C355 1.503 . S
C363 C362 1.370 1_554 S
C363 C364 1.403 . S
C364 C363 1.403 . S
C364 C365 1.404 . S
C364 C367 1.539 . S
C365 C361 1.408 . S
C365 C364 1.404 . S
C365 H377 0.930 . S
C366 C362 1.524 . S
C366 H378 0.956 . S
C366 H379 0.961 . S
C366 H380 0.961 . S
C367 C364 1.539 . S
C367 H381 0.958 . S
C367 H382 0.961 . S
C367 H383 0.960 . S
H368 C352 0.931 . S
H369 C357 0.929 . S
H370 C358 0.960 . S
H371 C358 0.962 . S
H372 C358 0.960 . S
H373 C359 0.961 1_556 S
H374 C359 0.961 1_556 S
H375 C359 0.961 . S
H376 C360 0.931 . S
H377 C365 0.930 . S
H378 C366 0.956 . S
H379 C366 0.961 . S
H380 C366 0.961 . S
H381 C367 0.958 . S
H382 C367 0.961 . S
H383 C367 0.960 . S
C384 C385 1.391 . S
C384 C386 1.394 . S
C384 H400 0.931 . S
C385 C384 1.391 . S
C385 C389 1.376 . S
C386 C384 1.394 . S
C386 C387 1.369 . S
C386 C390 1.531 . S
C387 C386 1.369 . S
C387 C388 1.410 . S
C387 C395 1.503 . S
C388 C387 1.410 . S
C388 C389 1.392 . S
C388 C391 1.511 . S
C389 C385 1.376 . S
C389 C388 1.392 . S
C389 H401 0.929 . S
C390 C386 1.531 . S
C390 H402 0.960 . S
C390 H403 0.962 . S
C390 H404 0.960 . S
C391 C388 1.511 . S
C391 H405 0.961 . S
C391 H406 0.961 . S
C391 H407 0.961 . S
C392 C393 1.370 . S
C392 C394 1.363 . S
C392 H408 0.931 . S
C393 C392 1.370 . S
C393 C397 1.408 . S
C394 C392 1.363 . S
C394 C395 1.370 . S
C394 C398 1.524 . S
C395 C387 1.503 . S
C395 C394 1.370 . S
C395 C396 1.403 . S
C396 C395 1.403 . S
C396 C397 1.404 . S
C396 C399 1.539 . S
C397 C393 1.408 . S
C397 C396 1.404 . S
C397 H409 0.930 . S
C398 C394 1.524 . S
C398 H410 0.956 . S
C398 H411 0.961 . S
C398 H412 0.961 . S
C399 C396 1.539 . S
C399 H413 0.958 . S
C399 H414 0.961 . S
C399 H415 0.960 . S
H400 C384 0.931 . S
H401 C389 0.929 . S
H402 C390 0.960 . S
H403 C390 0.962 . S
H404 C390 0.960 . S
H405 C391 0.961 . S
H406 C391 0.961 . S
H407 C391 0.961 . S
H408 C392 0.931 . S
H409 C397 0.930 . S
H410 C398 0.956 . S
H411 C398 0.961 . S
H412 C398 0.961 . S
H413 C399 0.958 . S
H414 C399 0.961 . S
H415 C399 0.960 . S
C416 C417 1.391 . S
C416 C418 1.394 . S
C416 H432 0.931 . S
C417 C416 1.391 . S
C417 C421 1.376 . S
C418 C416 1.394 . S
C418 C419 1.369 . S
C418 C422 1.531 . S
C419 C418 1.369 . S
C419 C420 1.410 . S
C419 C427 1.503 . S
C420 C419 1.410 . S
C420 C421 1.392 . S
C420 C423 1.511 . S
C421 C417 1.376 . S
C421 C420 1.392 . S
C421 H433 0.929 . S
C422 C418 1.531 . S
C422 H434 0.960 . S
C422 H435 0.962 . S
C422 H436 0.960 . S
C423 C420 1.511 . S
C423 H437 0.961 . S
C423 H438 0.961 . S
C423 H439 0.961 . S
C424 C425 1.370 . S
C424 C426 1.363 . S
C424 H440 0.931 . S
C425 C424 1.370 . S
C425 C429 1.408 . S
C426 C424 1.363 . S
C426 C427 1.370 . S
C426 C430 1.524 . S
C427 C419 1.503 . S
C427 C426 1.370 . S
C427 C428 1.403 . S
C428 C427 1.403 . S
C428 C429 1.404 . S
C428 C431 1.539 . S
C429 C425 1.408 . S
C429 C428 1.404 . S
C429 H441 0.930 . S
C430 C426 1.524 . S
C430 H442 0.956 . S
C430 H443 0.961 . S
C430 H444 0.961 . S
C431 C428 1.539 . S
C431 H445 0.958 . S
C431 H446 0.961 . S
C431 H447 0.960 . S
H432 C416 0.931 . S
H433 C421 0.929 . S
H434 C422 0.960 . S
H435 C422 0.962 . S
H436 C422 0.960 . S
H437 C423 0.961 . S
H438 C423 0.961 . S
H439 C423 0.961 . S
H440 C424 0.931 . S
H441 C429 0.930 . S
H442 C430 0.956 . S
H443 C430 0.961 . S
H444 C430 0.961 . S
H445 C431 0.958 . S
H446 C431 0.961 . S
H447 C431 0.960 . S
C448 C449 1.391 . S
C448 C450 1.394 . S
C448 H464 0.931 . S
C449 C448 1.391 . S
C449 C453 1.376 1_554 S
C450 C448 1.394 . S
C450 C451 1.369 1_655 S
C450 C454 1.530 1_655 S
C451 C450 1.369 1_455 S
C451 C452 1.410 1_454 S
C451 C459 1.503 . S
C452 C451 1.410 1_656 S
C452 C453 1.392 . S
C452 C455 1.511 1_655 S
C453 C449 1.376 1_556 S
C453 C452 1.392 . S
C453 H465 0.929 . S
C454 C450 1.530 1_455 S
C454 H466 0.961 . S
C454 H467 0.962 . S
C454 H468 0.960 1_455 S
C455 C452 1.511 1_455 S
C455 H469 0.961 . S
C455 H470 0.961 . S
C455 H471 0.961 . S
C456 C457 1.370 1_556 S
C456 C458 1.363 . S
C456 H472 0.931 . S
C457 C456 1.370 1_554 S
C457 C461 1.408 . S
C458 C456 1.363 . S
C458 C459 1.370 1_556 S
C458 C462 1.524 . S
C459 C451 1.503 . S
C459 C458 1.370 1_554 S
C459 C460 1.403 . S
C460 C459 1.403 . S
C460 C461 1.404 . S
C460 C463 1.539 . S
C461 C457 1.408 . S
C461 C460 1.404 . S
C461 H473 0.930 . S
C462 C458 1.524 . S
C462 H474 0.956 . S
C462 H475 0.961 . S
C462 H476 0.961 . S
C463 C460 1.539 . S
C463 H477 0.958 . S
C463 H478 0.961 . S
C463 H479 0.960 . S
H464 C448 0.931 . S
H465 C453 0.929 . S
H466 C454 0.961 . S
H467 C454 0.962 . S
H468 C454 0.960 1_655 S
H469 C455 0.961 . S
H470 C455 0.961 . S
H471 C455 0.961 . S
H472 C456 0.931 . S
H473 C461 0.930 . S
H474 C462 0.956 . S
H475 C462 0.961 . S
H476 C462 0.961 . S
H477 C463 0.958 . S
H478 C463 0.961 . S
H479 C463 0.960 . S
C480 C481 1.391 1_556 S
C480 C482 1.394 . S
C480 H496 0.931 . S
C481 C480 1.391 1_554 S
C481 C485 1.376 . S
C482 C480 1.394 . S
C482 C483 1.372 1_455 S
C482 C486 1.531 1_455 S
C483 C482 1.372 1_655 S
C483 C484 1.406 1_656 S
C483 C491 1.503 1_556 S
C484 C483 1.406 1_454 S
C484 C485 1.392 . S
C484 C487 1.511 . S
C485 C481 1.376 . S
C485 C484 1.392 . S
C485 H497 0.929 . S
C486 C482 1.531 1_655 S
C486 H498 0.960 . S
C486 H499 0.962 1_556 S
C486 H500 0.960 . S
C487 C484 1.511 . S
C487 H501 0.961 . S
C487 H502 0.961 1_455 S
C487 H503 0.961 1_554 S
C488 C489 1.370 . S
C488 C490 1.363 . S
C488 H504 0.931 . S
C489 C488 1.370 . S
C489 C493 1.408 1_554 S
C490 C488 1.363 . S
C490 C491 1.370 . S
C490 C494 1.524 . S
C491 C483 1.503 1_554 S
C491 C490 1.370 . S
C491 C492 1.403 1_554 S
C492 C491 1.403 1_556 S
C492 C493 1.404 . S
C492 C495 1.539 . S
C493 C489 1.408 1_556 S
C493 C492 1.404 . S
C493 H505 0.930 . S
C494 C490 1.524 . S
C494 H506 0.956 . S
C494 H507 0.961 . S
C494 H508 0.961 . S
C495 C492 1.539 . S
C495 H509 0.958 . S
C495 H510 0.961 . S
C495 H511 0.960 . S
H496 C480 0.931 . S
H497 C485 0.929 . S
H498 C486 0.960 . S
H499 C486 0.962 1_554 S
H500 C486 0.960 . S
H501 C487 0.961 . S
H502 C487 0.961 1_655 S
H503 C487 0.961 1_556 S
H504 C488 0.931 . S
H505 C493 0.930 . S
H506 C494 0.956 . S
H507 C494 0.961 . S
H508 C494 0.961 . S
H509 C495 0.958 . S
H510 C495 0.961 . S
H511 C495 0.960 . S
C512 C513 1.391 . S
C512 C514 1.394 . S
C512 H528 0.931 . S
C513 C512 1.391 . S
C513 C517 1.376 . S
C514 C512 1.394 . S
C514 C515 1.369 . S
C514 C518 1.531 . S
C515 C514 1.369 . S
C515 C516 1.410 . S
C515 C523 1.503 . S
C516 C515 1.410 . S
C516 C517 1.392 . S
C516 C519 1.511 . S
C517 C513 1.376 . S
C517 C516 1.392 . S
C517 H529 0.929 . S
C518 C514 1.531 . S
C518 H530 0.960 . S
C518 H531 0.962 . S
C518 H532 0.960 . S
C519 C516 1.511 . S
C519 H533 0.961 . S
C519 H534 0.961 . S
C519 H535 0.961 . S
C520 C521 1.370 . S
C520 C522 1.363 . S
C520 H536 0.931 . S
C521 C520 1.370 . S
C521 C525 1.408 . S
C522 C520 1.363 . S
C522 C523 1.370 1_655 S
C522 C526 1.524 1_655 S
C523 C515 1.503 . S
C523 C522 1.370 1_455 S
C523 C524 1.403 1_455 S
C524 C523 1.403 1_655 S
C524 C525 1.404 . S
C524 C527 1.539 1_655 S
C525 C521 1.408 . S
C525 C524 1.404 . S
C525 H537 0.930 . S
C526 C522 1.524 1_455 S
C526 H538 0.956 . S
C526 H539 0.961 . S
C526 H540 0.961 1_455 S
C527 C524 1.539 1_455 S
C527 H541 0.958 . S
C527 H542 0.961 1_455 S
C527 H543 0.960 . S
H528 C512 0.931 . S
H529 C517 0.929 . S
H530 C518 0.960 . S
H531 C518 0.962 . S
H532 C518 0.960 . S
H533 C519 0.961 . S
H534 C519 0.961 . S
H535 C519 0.961 . S
H536 C520 0.931 . S
H537 C525 0.930 . S
H538 C526 0.956 . S
H539 C526 0.961 . S
H540 C526 0.961 1_655 S
H541 C527 0.958 . S
H542 C527 0.961 1_655 S
H543 C527 0.960 . S
C544 C545 1.391 . S
C544 C546 1.394 . S
C544 H560 0.931 . S
C545 C544 1.391 . S
C545 C549 1.376 . S
C546 C544 1.394 . S
C546 C547 1.369 . S
C546 C550 1.531 . S
C547 C546 1.369 . S
C547 C548 1.410 . S
C547 C555 1.503 . S
C548 C547 1.410 . S
C548 C549 1.392 . S
C548 C551 1.511 . S
C549 C545 1.376 . S
C549 C548 1.392 . S
C549 H561 0.929 . S
C550 C546 1.531 . S
C550 H562 0.960 . S
C550 H563 0.962 . S
C550 H564 0.960 . S
C551 C548 1.511 . S
C551 H565 0.961 . S
C551 H566 0.961 . S
C551 H567 0.961 . S
C552 C553 1.370 . S
C552 C554 1.363 . S
C552 H568 0.931 . S
C553 C552 1.370 . S
C553 C557 1.408 . S
C554 C552 1.363 . S
C554 C555 1.370 1_455 S
C554 C558 1.524 1_455 S
C555 C547 1.503 . S
C555 C554 1.370 1_655 S
C555 C556 1.403 1_655 S
C556 C555 1.403 1_455 S
C556 C557 1.404 . S
C556 C559 1.539 1_455 S
C557 C553 1.408 . S
C557 C556 1.404 . S
C557 H569 0.930 . S
C558 C554 1.524 1_655 S
C558 H570 0.956 . S
C558 H571 0.961 . S
C558 H572 0.961 1_655 S
C559 C556 1.539 1_655 S
C559 H573 0.958 . S
C559 H574 0.961 . S
C559 H575 0.960 . S
H560 C544 0.931 . S
H561 C549 0.929 . S
H562 C550 0.960 . S
H563 C550 0.962 . S
H564 C550 0.960 . S
H565 C551 0.961 . S
H566 C551 0.961 . S
H567 C551 0.961 . S
H568 C552 0.931 . S
H569 C557 0.930 . S
H570 C558 0.956 . S
H571 C558 0.961 . S
H572 C558 0.961 1_455 S
H573 C559 0.958 . S
H574 C559 0.961 . S
H575 C559 0.960 . S
C576 C577 1.391 . S
C576 C578 1.394 1_455 S
C576 H592 0.931 . S
C577 C576 1.391 . S
C577 C581 1.376 1_556 S
C578 C576 1.394 1_655 S
C578 C579 1.369 1_655 S
C578 C582 1.531 . S
C579 C578 1.369 1_455 S
C579 C580 1.410 1_556 S
C579 C587 1.503 1_455 S
C580 C579 1.410 1_554 S
C580 C581 1.392 . S
C580 C583 1.511 . S
C581 C577 1.376 1_554 S
C581 C580 1.392 . S
C581 H593 0.929 . S
C582 C578 1.531 . S
C582 H594 0.960 . S
C582 H595 0.962 . S
C582 H596 0.960 . S
C583 C580 1.511 . S
C583 H597 0.961 . S
C583 H598 0.961 . S
C583 H599 0.961 . S
C584 C585 1.370 1_554 S
C584 C586 1.363 . S
C584 H600 0.931 . S
C585 C584 1.370 1_556 S
C585 C589 1.408 . S
C586 C584 1.363 . S
C586 C587 1.370 1_554 S
C586 C590 1.524 . S
C587 C579 1.503 1_655 S
C587 C586 1.370 1_556 S
C587 C588 1.403 1_655 S
C588 C587 1.403 1_455 S
C588 C589 1.404 1_455 S
C588 C591 1.539 . S
C589 C585 1.408 . S
C589 C588 1.404 1_655 S
C589 H601 0.930 . S
C590 C586 1.524 . S
C590 H602 0.956 . S
C590 H603 0.961 . S
C590 H604 0.961 . S
C591 C588 1.539 . S
C591 H605 0.958 . S
C591 H606 0.961 . S
C591 H607 0.960 . S
H592 C576 0.931 . S
H593 C581 0.929 . S
H594 C582 0.960 . S
H595 C582 0.962 . S
H596 C582 0.960 . S
H597 C583 0.961 . S
H598 C583 0.961 . S
H599 C583 0.961 . S
H600 C584 0.931 . S
H601 C589 0.930 . S
H602 C590 0.956 . S
H603 C590 0.961 . S
H604 C590 0.961 . S
H605 C591 0.958 . S
H606 C591 0.961 . S
H607 C591 0.960 . S
C608 C609 1.391 . S
C608 C610 1.394 . S
C608 H624 0.931 . S
C609 C608 1.391 . S
C609 C613 1.376 . S
C610 C608 1.394 . S
C610 C611 1.369 . S
C610 C614 1.531 . S
C611 C610 1.369 . S
C611 C612 1.410 1_455 S
C611 C619 1.503 1_455 S
C612 C611 1.410 1_655 S
C612 C613 1.392 1_655 S
C612 C615 1.511 . S
C613 C609 1.376 . S
C613 C612 1.392 1_455 S
C613 H625 0.929 1_455 S
C614 C610 1.531 . S
C614 H626 0.960 . S
C614 H627 0.962 . S
C614 H628 0.960 . S
C615 C612 1.511 . S
C615 H629 0.961 . S
C615 H630 0.961 . S
C615 H631 0.961 . S
C616 C617 1.370 . S
C616 C618 1.363 . S
C616 H632 0.931 . S
C617 C616 1.370 . S
C617 C621 1.408 . S
C618 C616 1.363 . S
C618 C619 1.370 . S
C618 C622 1.524 . S
C619 C611 1.503 1_655 S
C619 C618 1.370 . S
C619 C620 1.403 . S
C620 C619 1.403 . S
C620 C621 1.404 . S
C620 C623 1.539 . S
C621 C617 1.408 . S
C621 C620 1.404 . S
C621 H633 0.930 . S
C622 C618 1.524 . S
C622 H634 0.956 1_655 S
C622 H635 0.961 . S
C622 H636 0.961 . S
C623 C620 1.539 . S
C623 H637 0.958 1_655 S
C623 H638 0.961 . S
C623 H639 0.960 . S
H624 C608 0.931 . S
H625 C613 0.929 1_655 S
H626 C614 0.960 . S
H627 C614 0.962 . S
H628 C614 0.960 . S
H629 C615 0.961 . S
H630 C615 0.961 . S
H631 C615 0.961 . S
H632 C616 0.931 . S
H633 C621 0.930 . S
H634 C622 0.956 1_455 S
H635 C622 0.961 . S
H636 C622 0.961 . S
H637 C623 0.958 1_455 S
H638 C623 0.961 . S
H639 C623 0.960 . S
C640 C641 1.391 . S
C640 C642 1.394 . S
C640 H656 0.931 . S
C641 C640 1.391 . S
C641 C645 1.376 1_556 S
C642 C640 1.394 . S
C642 C643 1.369 . S
C642 C646 1.531 1_565 S
C643 C642 1.369 . S
C643 C644 1.410 1_556 S
C643 C651 1.503 1_565 S
C644 C643 1.410 1_554 S
C644 C645 1.392 . S
C644 C647 1.511 . S
C645 C641 1.376 1_554 S
C645 C644 1.392 . S
C645 H657 0.929 . S
C646 C642 1.531 1_545 S
C646 H658 0.960 . S
C646 H659 0.962 . S
C646 H660 0.960 . S
C647 C644 1.511 . S
C647 H661 0.961 . S
C647 H662 0.961 . S
C647 H663 0.961 . S
C648 C649 1.370 . S
C648 C650 1.363 . S
C648 H664 0.931 . S
C649 C648 1.370 . S
C649 C653 1.408 1_556 S
C650 C648 1.363 . S
C650 C651 1.370 . S
C650 C654 1.524 1_545 S
C651 C643 1.503 1_545 S
C651 C650 1.370 . S
C651 C652 1.403 1_556 S
C652 C651 1.403 1_554 S
C652 C653 1.404 . S
C652 C655 1.539 . S
C653 C649 1.408 1_554 S
C653 C652 1.404 . S
C653 H665 0.930 . S
C654 C650 1.524 1_565 S
C654 H666 0.956 . S
C654 H667 0.961 . S
C654 H668 0.962 . S
C655 C652 1.539 . S
C655 H669 0.958 . S
C655 H670 0.961 . S
C655 H671 0.960 . S
H656 C640 0.931 . S
H657 C645 0.929 . S
H658 C646 0.960 . S
H659 C646 0.962 . S
H660 C646 0.960 . S
H661 C647 0.961 . S
H662 C647 0.961 . S
H663 C647 0.961 . S
H664 C648 0.931 . S
H665 C653 0.930 . S
H666 C654 0.956 . S
H667 C654 0.961 . S
H668 C654 0.962 . S
H669 C655 0.958 . S
H670 C655 0.961 . S
H671 C655 0.960 . S
C672 C673 1.391 . S
C672 C674 1.394 . S
C672 H688 0.931 . S
C673 C672 1.391 . S
C673 C677 1.376 . S
C674 C672 1.394 . S
C674 C675 1.369 . S
C674 C678 1.531 . S
C675 C674 1.369 . S
C675 C676 1.410 . S
C675 C683 1.503 1_545 S
C676 C675 1.410 . S
C676 C677 1.392 . S
C676 C679 1.511 . S
C677 C673 1.376 . S
C677 C676 1.392 . S
C677 H689 0.929 . S
C678 C674 1.531 . S
C678 H690 0.960 1_545 S
C678 H691 0.962 1_545 S
C678 H692 0.960 . S
C679 C676 1.511 . S
C679 H693 0.961 . S
C679 H694 0.961 . S
C679 H695 0.961 . S
C680 C681 1.370 . S
C680 C682 1.363 . S
C680 H696 0.931 . S
C681 C680 1.370 . S
C681 C685 1.408 . S
C682 C680 1.363 . S
C682 C683 1.370 . S
C682 C686 1.524 . S
C683 C675 1.503 1_565 S
C683 C682 1.370 . S
C683 C684 1.403 . S
C684 C683 1.403 . S
C684 C685 1.404 . S
C684 C687 1.539 1_565 S
C685 C681 1.408 . S
C685 C684 1.404 . S
C685 H697 0.930 . S
C686 C682 1.524 . S
C686 H698 0.956 . S
C686 H699 0.961 . S
C686 H700 0.961 . S
C687 C684 1.539 1_545 S
C687 H701 0.958 . S
C687 H702 0.961 . S
C687 H703 0.960 . S
H688 C672 0.931 . S
H689 C677 0.929 . S
H690 C678 0.960 1_565 S
H691 C678 0.962 1_565 S
H692 C678 0.960 . S
H693 C679 0.961 . S
H694 C679 0.961 . S
H695 C679 0.961 . S
H696 C680 0.931 . S
H697 C685 0.930 . S
H698 C686 0.956 . S
H699 C686 0.961 . S
H700 C686 0.961 . S
H701 C687 0.958 . S
H702 C687 0.961 . S
H703 C687 0.960 . S
C704 C705 1.391 . S
C704 C706 1.394 1_554 S
C704 H720 0.931 1_554 S
C705 C704 1.391 . S
C705 C709 1.376 . S
C706 C704 1.394 1_556 S
C706 C707 1.369 1_556 S
C706 C710 1.531 . S
C707 C706 1.369 1_554 S
C707 C708 1.410 . S
C707 C715 1.503 . S
C708 C707 1.410 . S
C708 C709 1.392 . S
C708 C711 1.511 . S
C709 C705 1.376 . S
C709 C708 1.392 . S
C709 H721 0.929 . S
C710 C706 1.531 . S
C710 H722 0.960 . S
C710 H723 0.962 . S
C710 H724 0.960 . S
C711 C708 1.511 . S
C711 H725 0.961 . S
C711 H726 0.961 . S
C711 H727 0.961 . S
C712 C713 1.370 . S
C712 C714 1.363 . S
C712 H728 0.931 . S
C713 C712 1.370 . S
C713 C717 1.408 . S
C714 C712 1.363 . S
C714 C715 1.370 . S
C714 C718 1.524 . S
C715 C707 1.503 . S
C715 C714 1.370 . S
C715 C716 1.403 . S
C716 C715 1.403 . S
C716 C717 1.404 . S
C716 C719 1.539 1_554 S
C717 C713 1.408 . S
C717 C716 1.404 . S
C717 H729 0.930 1_554 S
C718 C714 1.524 . S
C718 H730 0.956 . S
C718 H731 0.961 . S
C718 H732 0.961 . S
C719 C716 1.539 1_556 S
C719 H733 0.958 . S
C719 H734 0.961 . S
C719 H735 0.960 1_556 S
H720 C704 0.931 1_556 S
H721 C709 0.929 . S
H722 C710 0.960 . S
H723 C710 0.962 . S
H724 C710 0.960 . S
H725 C711 0.961 . S
H726 C711 0.961 . S
H727 C711 0.961 . S
H728 C712 0.931 . S
H729 C717 0.930 1_556 S
H730 C718 0.956 . S
H731 C718 0.961 . S
H732 C718 0.961 . S
H733 C719 0.958 . S
H734 C719 0.961 . S
H735 C719 0.960 1_554 S
C736 C737 1.391 . S
C736 C738 1.394 . S
C736 H752 0.931 . S
C737 C736 1.391 . S
C737 C741 1.376 . S
C738 C736 1.394 . S
C738 C739 1.369 . S
C738 C742 1.531 . S
C739 C738 1.369 . S
C739 C740 1.410 . S
C739 C747 1.503 . S
C740 C739 1.410 . S
C740 C741 1.392 . S
C740 C743 1.511 1_554 S
C741 C737 1.376 . S
C741 C740 1.392 . S
C741 H753 0.929 . S
C742 C738 1.531 . S
C742 H754 0.960 . S
C742 H755 0.962 . S
C742 H756 0.960 . S
C743 C740 1.511 1_556 S
C743 H757 0.961 . S
C743 H758 0.961 . S
C743 H759 0.961 1_556 S
C744 C745 1.372 . S
C744 C746 1.364 . S
C744 H760 0.928 1_554 S
C745 C744 1.372 . S
C745 C749 1.408 . S
C746 C744 1.364 . S
C746 C747 1.370 . S
C746 C750 1.524 1_554 S
C747 C739 1.503 . S
C747 C746 1.370 . S
C747 C748 1.403 . S
C748 C747 1.403 . S
C748 C749 1.404 . S
C748 C751 1.539 . S
C749 C745 1.408 . S
C749 C748 1.404 . S
C749 H761 0.930 . S
C750 C746 1.524 1_556 S
C750 H762 0.956 . S
C750 H763 0.961 . S
C750 H764 0.961 . S
C751 C748 1.539 . S
C751 H765 0.958 . S
C751 H766 0.961 . S
C751 H767 0.960 . S
H752 C736 0.931 . S
H753 C741 0.929 . S
H754 C742 0.960 . S
H755 C742 0.962 . S
H756 C742 0.960 . S
H757 C743 0.961 . S
H758 C743 0.961 . S
H759 C743 0.961 1_554 S
H760 C744 0.928 1_556 S
H761 C749 0.930 . S
H762 C750 0.956 . S
H763 C750 0.961 . S
H764 C750 0.961 . S
H765 C751 0.958 . S
H766 C751 0.961 . S
H767 C751 0.960 . S
C768 C769 1.391 . S
C768 C770 1.394 . S
C768 H784 0.931 . S
C769 C768 1.391 . S
C769 C773 1.376 . S
C770 C768 1.394 . S
C770 C771 1.369 . S
C770 C774 1.531 . S
C771 C770 1.369 . S
C771 C772 1.410 . S
C771 C779 1.503 . S
C772 C771 1.410 . S
C772 C773 1.392 . S
C772 C775 1.511 . S
C773 C769 1.376 . S
C773 C772 1.392 . S
C773 H785 0.929 . S
C774 C770 1.531 . S
C774 H786 0.960 . S
C774 H787 0.962 . S
C774 H788 0.960 . S
C775 C772 1.511 . S
C775 H789 0.961 . S
C775 H790 0.961 . S
C775 H791 0.961 . S
C776 C777 1.370 . S
C776 C778 1.363 . S
C776 H792 0.931 . S
C777 C776 1.370 . S
C777 C781 1.408 . S
C778 C776 1.363 . S
C778 C779 1.370 . S
C778 C782 1.524 . S
C779 C771 1.503 . S
C779 C778 1.370 . S
C779 C780 1.403 . S
C780 C779 1.403 . S
C780 C781 1.404 . S
C780 C783 1.539 . S
C781 C777 1.408 . S
C781 C780 1.404 . S
C781 H793 0.930 . S
C782 C778 1.524 . S
C782 H794 0.956 . S
C782 H795 0.961 . S
C782 H796 0.961 . S
C783 C780 1.539 . S
C783 H797 0.958 . S
C783 H798 0.961 . S
C783 H799 0.960 . S
H784 C768 0.931 . S
H785 C773 0.929 . S
H786 C774 0.960 . S
H787 C774 0.962 . S
H788 C774 0.960 . S
H789 C775 0.961 . S
H790 C775 0.961 . S
H791 C775 0.961 . S
H792 C776 0.931 . S
H793 C781 0.930 . S
H794 C782 0.956 . S
H795 C782 0.961 . S
H796 C782 0.961 . S
H797 C783 0.958 . S
H798 C783 0.961 . S
H799 C783 0.960 . S
C800 C801 1.391 . S
C800 C802 1.394 . S
C800 H816 0.931 . S
C801 C800 1.391 . S
C801 C805 1.376 . S
C802 C800 1.394 . S
C802 C803 1.369 . S
C802 C806 1.531 . S
C803 C802 1.369 . S
C803 C804 1.410 . S
C803 C811 1.503 . S
C804 C803 1.410 . S
C804 C805 1.392 . S
C804 C807 1.511 . S
C805 C801 1.376 . S
C805 C804 1.392 . S
C805 H817 0.929 . S
C806 C802 1.531 . S
C806 H818 0.960 . S
C806 H819 0.962 . S
C806 H820 0.960 . S
C807 C804 1.511 . S
C807 H821 0.961 . S
C807 H822 0.961 . S
C807 H823 0.961 . S
C808 C809 1.370 . S
C808 C810 1.363 . S
C808 H824 0.931 . S
C809 C808 1.370 . S
C809 C813 1.408 . S
C810 C808 1.363 . S
C810 C811 1.370 . S
C810 C814 1.524 . S
C811 C803 1.503 . S
C811 C810 1.370 . S
C811 C812 1.403 . S
C812 C811 1.403 . S
C812 C813 1.404 . S
C812 C815 1.539 . S
C813 C809 1.408 . S
C813 C812 1.404 . S
C813 H825 0.930 . S
C814 C810 1.524 . S
C814 H826 0.956 . S
C814 H827 0.961 . S
C814 H828 0.961 . S
C815 C812 1.539 . S
C815 H829 0.958 . S
C815 H830 0.961 . S
C815 H831 0.960 . S
H816 C800 0.931 . S
H817 C805 0.929 . S
H818 C806 0.960 . S
H819 C806 0.962 . S
H820 C806 0.960 . S
H821 C807 0.961 . S
H822 C807 0.961 . S
H823 C807 0.961 . S
H824 C808 0.931 . S
H825 C813 0.930 . S
H826 C814 0.956 . S
H827 C814 0.961 . S
H828 C814 0.961 . S
H829 C815 0.958 . S
H830 C815 0.961 . S
H831 C815 0.960 . S
C832 C833 1.391 . S
C832 C834 1.394 . S
C832 H848 0.931 . S
C833 C832 1.391 . S
C833 C837 1.376 1_455 S
C834 C832 1.394 . S
C834 C835 1.369 . S
C834 C838 1.531 . S
C835 C834 1.369 . S
C835 C836 1.410 1_455 S
C835 C843 1.503 1_455 S
C836 C835 1.410 1_655 S
C836 C837 1.392 . S
C836 C839 1.511 . S
C837 C833 1.376 1_655 S
C837 C836 1.392 . S
C837 H849 0.929 . S
C838 C834 1.531 . S
C838 H850 0.960 . S
C838 H851 0.962 . S
C838 H852 0.960 . S
C839 C836 1.511 . S
C839 H853 0.961 . S
C839 H854 0.961 . S
C839 H855 0.961 . S
C840 C841 1.377 . S
C840 C842 1.361 1_655 S
C840 H856 0.926 1_655 S
C841 C840 1.377 . S
C841 C845 1.408 . S
C842 C840 1.361 1_455 S
C842 C843 1.370 1_455 S
C842 C846 1.524 . S
C843 C835 1.503 1_655 S
C843 C842 1.370 1_655 S
C843 C844 1.403 . S
C844 C843 1.403 . S
C844 C845 1.404 . S
C844 C847 1.539 . S
C845 C841 1.408 . S
C845 C844 1.404 . S
C845 H857 0.930 . S
C846 C842 1.524 . S
C846 H858 0.956 . S
C846 H859 0.961 . S
C846 H860 0.961 . S
C847 C844 1.539 . S
C847 H861 0.958 . S
C847 H862 0.961 . S
C847 H863 0.960 . S
H848 C832 0.931 . S
H849 C837 0.929 . S
H850 C838 0.960 . S
H851 C838 0.962 . S
H852 C838 0.960 . S
H853 C839 0.961 . S
H854 C839 0.961 . S
H855 C839 0.961 . S
H856 C840 0.926 1_455 S
H857 C845 0.930 . S
H858 C846 0.956 . S
H859 C846 0.961 . S
H860 C846 0.961 . S
H861 C847 0.958 . S
H862 C847 0.961 . S
H863 C847 0.960 . S
C864 C865 1.391 1_455 S
C864 C866 1.394 . S
C864 H880 0.931 . S
C865 C864 1.391 1_655 S
C865 C869 1.376 . S
C866 C864 1.394 . S
C866 C867 1.369 1_455 S
C866 C870 1.531 . S
C867 C866 1.369 1_655 S
C867 C868 1.410 . S
C867 C875 1.503 1_655 S
C868 C867 1.410 . S
C868 C869 1.392 . S
C868 C871 1.511 . S
C869 C865 1.376 . S
C869 C868 1.392 . S
C869 H881 0.929 . S
C870 C866 1.531 . S
C870 H882 0.960 . S
C870 H883 0.962 . S
C870 H884 0.960 . S
C871 C868 1.511 . S
C871 H885 0.961 . S
C871 H886 0.961 . S
C871 H887 0.961 . S
C872 C873 1.370 . S
C872 C874 1.363 . S
C872 H888 0.931 . S
C873 C872 1.370 . S
C873 C877 1.408 . S
C874 C872 1.363 . S
C874 C875 1.370 . S
C874 C878 1.524 . S
C875 C867 1.503 1_455 S
C875 C874 1.370 . S
C875 C876 1.403 1_455 S
C876 C875 1.403 1_655 S
C876 C877 1.404 1_655 S
C876 C879 1.539 . S
C877 C873 1.408 . S
C877 C876 1.404 1_455 S
C877 H889 0.930 1_455 S
C878 C874 1.524 . S
C878 H890 0.956 . S
C878 H891 0.961 . S
C878 H892 0.961 . S
C879 C876 1.539 . S
C879 H893 0.958 . S
C879 H894 0.961 . S
C879 H895 0.960 . S
H880 C864 0.931 . S
H881 C869 0.929 . S
H882 C870 0.960 . S
H883 C870 0.962 . S
H884 C870 0.960 . S
H885 C871 0.961 . S
H886 C871 0.961 . S
H887 C871 0.961 . S
H888 C872 0.931 . S
H889 C877 0.930 1_655 S
H890 C878 0.956 . S
H891 C878 0.961 . S
H892 C878 0.961 . S
H893 C879 0.958 . S
H894 C879 0.961 . S
H895 C879 0.960 . S
C896 C897 1.391 1_455 S
C896 C898 1.394 . S
C896 H912 0.931 . S
C897 C896 1.391 1_655 S
C897 C901 1.376 . S
C898 C896 1.394 . S
C898 C899 1.369 1_455 S
C898 C902 1.531 . S
C899 C898 1.369 1_655 S
C899 C900 1.410 . S
C899 C907 1.504 . S
C900 C899 1.410 . S
C900 C901 1.392 . S
C900 C903 1.511 . S
C901 C897 1.376 . S
C901 C900 1.392 . S
C901 H913 0.929 . S
C902 C898 1.531 . S
C902 H914 0.960 . S
C902 H915 0.962 . S
C902 H916 0.960 . S
C903 C900 1.511 . S
C903 H917 0.961 . S
C903 H918 0.961 . S
C903 H919 0.961 . S
C904 C905 1.370 . S
C904 C906 1.363 . S
C904 H920 0.931 . S
C905 C904 1.370 . S
C905 C909 1.408 1_455 S
C906 C904 1.363 . S
C906 C907 1.369 1_455 S
C906 C910 1.524 . S
C907 C899 1.504 . S
C907 C906 1.369 1_655 S
C907 C908 1.404 . S
C908 C907 1.404 . S
C908 C909 1.404 . S
C908 C911 1.539 . S
C909 C905 1.408 1_655 S
C909 C908 1.404 . S
C909 H921 0.930 . S
C910 C906 1.524 . S
C910 H922 0.956 . S
C910 H923 0.961 . S
C910 H924 0.961 . S
C911 C908 1.539 . S
C911 H925 0.958 . S
C911 H926 0.961 . S
C911 H927 0.960 . S
H912 C896 0.931 . S
H913 C901 0.929 . S
H914 C902 0.960 . S
H915 C902 0.962 . S
H916 C902 0.960 . S
H917 C903 0.961 . S
H918 C903 0.961 . S
H919 C903 0.961 . S
H920 C904 0.931 . S
H921 C909 0.930 . S
H922 C910 0.956 . S
H923 C910 0.961 . S
H924 C910 0.961 . S
H925 C911 0.958 . S
H926 C911 0.961 . S
H927 C911 0.960 . S
C928 C929 1.391 1_455 S
C928 C930 1.394 . S
C928 H944 0.931 . S
C929 C928 1.391 1_655 S
C929 C933 1.376 . S
C930 C928 1.394 . S
C930 C931 1.369 1_455 S
C930 C934 1.531 . S
C931 C930 1.369 1_655 S
C931 C932 1.410 . S
C931 C939 1.503 1_655 S
C932 C931 1.410 . S
C932 C933 1.392 . S
C932 C935 1.511 . S
C933 C929 1.376 . S
C933 C932 1.392 . S
C933 H945 0.929 . S
C934 C930 1.531 . S
C934 H946 0.960 . S
C934 H947 0.962 . S
C934 H948 0.960 . S
C935 C932 1.511 . S
C935 H949 0.961 . S
C935 H950 0.961 . S
C935 H951 0.961 . S
C936 C937 1.370 . S
C936 C938 1.363 . S
C936 H952 0.931 . S
C937 C936 1.370 . S
C937 C941 1.408 . S
C938 C936 1.363 . S
C938 C939 1.370 . S
C938 C942 1.524 1_455 S
C939 C931 1.503 1_455 S
C939 C938 1.370 . S
C939 C940 1.403 . S
C940 C939 1.403 . S
C940 C941 1.404 . S
C940 C943 1.539 . S
C941 C937 1.408 . S
C941 C940 1.404 . S
C941 H953 0.930 . S
C942 C938 1.524 1_655 S
C942 H954 0.956 1_655 S
C942 H955 0.961 . S
C942 H956 0.961 . S
C943 C940 1.539 . S
C943 H957 0.958 . S
C943 H958 0.961 1_455 S
C943 H959 0.960 1_455 S
H944 C928 0.931 . S
H945 C933 0.929 . S
H946 C934 0.960 . S
H947 C934 0.962 . S
H948 C934 0.960 . S
H949 C935 0.961 . S
H950 C935 0.961 . S
H951 C935 0.961 . S
H952 C936 0.931 . S
H953 C941 0.930 . S
H954 C942 0.956 1_455 S
H955 C942 0.961 . S
H956 C942 0.961 . S
H957 C943 0.958 . S
H958 C943 0.961 1_655 S
H959 C943 0.960 1_655 S
C960 C961 1.391 . S
C960 C962 1.394 . S
C960 H976 0.931 . S
C961 C960 1.391 . S
C961 C965 1.376 . S
C962 C960 1.394 . S
C962 C963 1.369 . S
C962 C966 1.531 . S
C963 C962 1.369 . S
C963 C964 1.410 . S
C963 C971 1.503 . S
C964 C963 1.410 . S
C964 C965 1.392 . S
C964 C967 1.511 . S
C965 C961 1.376 . S
C965 C964 1.392 . S
C965 H977 0.929 . S
C966 C962 1.531 . S
C966 H978 0.960 . S
C966 H979 0.962 . S
C966 H980 0.960 . S
C967 C964 1.511 . S
C967 H981 0.961 . S
C967 H982 0.961 . S
C967 H983 0.961 . S
C968 C969 1.370 . S
C968 C970 1.363 . S
C968 H984 0.931 . S
C969 C968 1.370 . S
C969 C973 1.408 . S
C970 C968 1.363 . S
C970 C971 1.370 . S
C970 C974 1.524 . S
C971 C963 1.503 . S
C971 C970 1.370 . S
C971 C972 1.403 . S
C972 C971 1.403 . S
C972 C973 1.404 . S
C972 C975 1.539 . S
C973 C969 1.408 . S
C973 C972 1.404 . S
C973 H985 0.930 . S
C974 C970 1.524 . S
C974 H986 0.956 . S
C974 H987 0.961 . S
C974 H988 0.961 . S
C975 C972 1.539 . S
C975 H989 0.958 . S
C975 H990 0.961 . S
C975 H991 0.960 . S
H976 C960 0.931 . S
H977 C965 0.929 . S
H978 C966 0.960 . S
H979 C966 0.962 . S
H980 C966 0.960 . S
H981 C967 0.961 . S
H982 C967 0.961 . S
H983 C967 0.961 . S
H984 C968 0.931 . S
H985 C973 0.930 . S
H986 C974 0.956 . S
H987 C974 0.961 . S
H988 C974 0.961 . S
H989 C975 0.958 . S
H990 C975 0.961 . S
H991 C975 0.960 . S
C992 C993 1.391 . S
C992 C994 1.394 . S
C992 H1008 0.931 . S
C993 C992 1.391 . S
C993 C997 1.376 . S
C994 C992 1.394 . S
C994 C995 1.369 . S
C994 C998 1.531 . S
C995 C994 1.369 . S
C995 C996 1.410 . S
C995 C1003 1.503 . S
C996 C995 1.410 . S
C996 C997 1.392 . S
C996 C999 1.511 . S
C997 C993 1.376 . S
C997 C996 1.392 . S
C997 H1009 0.929 . S
C998 C994 1.531 . S
C998 H1010 0.960 . S
C998 H1011 0.962 . S
C998 H1012 0.960 . S
C999 C996 1.511 . S
C999 H1013 0.961 . S
C999 H1014 0.961 . S
C999 H1015 0.961 . S
C1000 C1001 1.370 . S
C1000 C1002 1.363 . S
C1000 H1016 0.931 . S
C1001 C1000 1.370 . S
C1001 C1005 1.408 . S
C1002 C1000 1.363 . S
C1002 C1003 1.370 . S
C1002 C1006 1.524 . S
C1003 C995 1.503 . S
C1003 C1002 1.370 . S
C1003 C1004 1.403 . S
C1004 C1003 1.403 . S
C1004 C1005 1.404 . S
C1004 C1007 1.539 . S
C1005 C1001 1.408 . S
C1005 C1004 1.404 . S
C1005 H1017 0.930 . S
C1006 C1002 1.524 . S
C1006 H1018 0.956 . S
C1006 H1019 0.961 . S
C1006 H1020 0.961 . S
C1007 C1004 1.539 . S
C1007 H1021 0.958 . S
C1007 H1022 0.961 . S
C1007 H1023 0.960 . S
H1008 C992 0.931 . S
H1009 C997 0.929 . S
H1010 C998 0.960 . S
H1011 C998 0.962 . S
H1012 C998 0.960 . S
H1013 C999 0.961 . S
H1014 C999 0.961 . S
H1015 C999 0.961 . S
H1016 C1000 0.931 . S
H1017 C1005 0.930 . S
H1018 C1006 0.956 . S
H1019 C1006 0.961 . S
H1020 C1006 0.961 . S
H1021 C1007 0.958 . S
H1022 C1007 0.961 . S
H1023 C1007 0.960 . S
C1024 C1025 1.391 . S
C1024 C1026 1.394 . S
C1024 H1040 0.931 . S
C1025 C1024 1.391 . S
C1025 C1029 1.376 . S
C1026 C1024 1.394 . S
C1026 C1027 1.369 . S
C1026 C1030 1.531 . S
C1027 C1026 1.369 . S
C1027 C1028 1.410 . S
C1027 C1035 1.503 . S
C1028 C1027 1.410 . S
C1028 C1029 1.392 . S
C1028 C1031 1.511 . S
C1029 C1025 1.376 . S
C1029 C1028 1.392 . S
C1029 H1041 0.929 . S
C1030 C1026 1.531 . S
C1030 H1042 0.960 . S
C1030 H1043 0.962 . S
C1030 H1044 0.960 . S
C1031 C1028 1.511 . S
C1031 H1045 0.961 . S
C1031 H1046 0.961 . S
C1031 H1047 0.961 . S
C1032 C1033 1.370 . S
C1032 C1034 1.363 . S
C1032 H1048 0.931 . S
C1033 C1032 1.370 . S
C1033 C1037 1.408 . S
C1034 C1032 1.363 . S
C1034 C1035 1.370 . S
C1034 C1038 1.524 . S
C1035 C1027 1.503 . S
C1035 C1034 1.370 . S
C1035 C1036 1.403 . S
C1036 C1035 1.403 . S
C1036 C1037 1.404 . S
C1036 C1039 1.539 . S
C1037 C1033 1.408 . S
C1037 C1036 1.404 . S
C1037 H1049 0.930 . S
C1038 C1034 1.524 . S
C1038 H1050 0.956 . S
C1038 H1051 0.961 . S
C1038 H1052 0.961 . S
C1039 C1036 1.539 . S
C1039 H1053 0.958 . S
C1039 H1054 0.961 . S
C1039 H1055 0.960 . S
H1040 C1024 0.931 . S
H1041 C1029 0.929 . S
H1042 C1030 0.960 . S
H1043 C1030 0.962 . S
H1044 C1030 0.960 . S
H1045 C1031 0.961 . S
H1046 C1031 0.961 . S
H1047 C1031 0.961 . S
H1048 C1032 0.931 . S
H1049 C1037 0.930 . S
H1050 C1038 0.956 . S
H1051 C1038 0.961 . S
H1052 C1038 0.961 . S
H1053 C1039 0.958 . S
H1054 C1039 0.961 . S
H1055 C1039 0.960 . S
C1056 C1057 1.391 . S
C1056 C1058 1.394 . S
C1056 H1072 0.931 . S
C1057 C1056 1.391 . S
C1057 C1061 1.376 . S
C1058 C1056 1.394 . S
C1058 C1059 1.369 . S
C1058 C1062 1.531 . S
C1059 C1058 1.369 . S
C1059 C1060 1.410 . S
C1059 C1067 1.503 . S
C1060 C1059 1.410 . S
C1060 C1061 1.392 . S
C1060 C1063 1.511 . S
C1061 C1057 1.376 . S
C1061 C1060 1.392 . S
C1061 H1073 0.929 . S
C1062 C1058 1.531 . S
C1062 H1074 0.960 . S
C1062 H1075 0.962 . S
C1062 H1076 0.960 . S
C1063 C1060 1.511 . S
C1063 H1077 0.961 . S
C1063 H1078 0.961 . S
C1063 H1079 0.961 . S
C1064 C1065 1.370 . S
C1064 C1066 1.363 . S
C1064 H1080 0.931 . S
C1065 C1064 1.370 . S
C1065 C1069 1.408 . S
C1066 C1064 1.363 . S
C1066 C1067 1.370 . S
C1066 C1070 1.524 . S
C1067 C1059 1.503 . S
C1067 C1066 1.370 . S
C1067 C1068 1.403 . S
C1068 C1067 1.403 . S
C1068 C1069 1.404 . S
C1068 C1071 1.539 . S
C1069 C1065 1.408 . S
C1069 C1068 1.404 . S
C1069 H1081 0.930 . S
C1070 C1066 1.524 . S
C1070 H1082 0.956 . S
C1070 H1083 0.961 . S
C1070 H1084 0.961 . S
C1071 C1068 1.539 . S
C1071 H1085 0.958 . S
C1071 H1086 0.961 . S
C1071 H1087 0.960 . S
H1072 C1056 0.931 . S
H1073 C1061 0.929 . S
H1074 C1062 0.960 . S
H1075 C1062 0.962 . S
H1076 C1062 0.960 . S
H1077 C1063 0.961 . S
H1078 C1063 0.961 . S
H1079 C1063 0.961 . S
H1080 C1064 0.931 . S
H1081 C1069 0.930 . S
H1082 C1070 0.956 . S
H1083 C1070 0.961 . S
H1084 C1070 0.961 . S
H1085 C1071 0.958 . S
H1086 C1071 0.961 . S
H1087 C1071 0.960 . S
C321 C3 2.301 . S
C329 C22 2.314 . S
C353 C62 2.305 . S
C361 C43 2.305 . S
C385 C83 2.306 . S
C393 C102 2.306 . S
C417 C123 2.300 . S
C425 C142 2.308 . S
C449 C163 2.315 . S
C457 C182 2.306 . S
C481 C203 2.298 . S
C489 C222 2.310 . S
C513 C243 2.294 . S
C521 C262 2.313 . S
C545 C302 2.287 . S
C553 C283 2.314 . S
C577 C49 2.567 . S
C585 C9 2.530 . S
C609 C129 2.522 . S
C617 C106 2.535 . S
C641 C169 2.554 . S
C649 C209 2.542 . S
C673 C266 2.503 . S
C681 C289 2.542 . S
C705 C26 1.816 . S
C713 C226 1.802 . S
C737 C186 1.786 . S
C745 C66 1.823 . S
C769 C89 1.803 . S
C777 C306 1.779 . S
C801 C146 1.786 . S
C809 C249 1.789 . S
C833 C2 1.492 . S
C841 C122 1.541 . S
C865 C42 1.595 . S
C873 C82 1.546 . S
C897 C55 1.550 . S
C905 C95 1.527 . S
C929 C135 1.600 . S
C937 C15 1.573 . S
C961 C162 1.492 . S
C969 C282 1.536 . S
C993 C202 1.543 . S
C1001 C242 1.571 . S
C1025 C215 1.521 . S
C1033 C255 1.531 . S
C1057 C295 1.597 . S
C1065 C175 1.574 . S
