# Generated by pormake.
# Topology ukd, (4)-cn, num edge types: 1
# Building blocks:
#     Node 0, Type 0, BuildingBlock: QUQFOY_clean_sbu_1, # of connection points: 4
#     Node 1, Type 0, BuildingBlock: QUQFOY_clean_sbu_1, # of connection points: 4
#     Node 2, Type 0, BuildingBlock: QUQFOY_clean_sbu_1, # of connection points: 4
#     Node 3, Type 0, BuildingBlock: QUQFOY_clean_sbu_1, # of connection points: 4
#     Node 4, Type 0, BuildingBlock: QUQFOY_clean_sbu_1, # of connection points: 4
#     Node 5, Type 0, BuildingBlock: QUQFOY_clean_sbu_1, # of connection points: 4
#     Node 6, Type 0, BuildingBlock: QUQFOY_clean_sbu_1, # of connection points: 4
#     Node 7, Type 0, BuildingBlock: QUQFOY_clean_sbu_1, # of connection points: 4
#     Node 8, Type 0, BuildingBlock: QUQFOY_clean_sbu_1, # of connection points: 4
#     Node 9, Type 0, BuildingBlock: QUQFOY_clean_sbu_1, # of connection points: 4
#     Node 10, Type 0, BuildingBlock: QUQFOY_clean_sbu_1, # of connection points: 4
#     Node 11, Type 0, BuildingBlock: QUQFOY_clean_sbu_1, # of connection points: 4
#     Node 12, Type 0, BuildingBlock: QUQFOY_clean_sbu_1, # of connection points: 4
#     Node 13, Type 0, BuildingBlock: QUQFOY_clean_sbu_1, # of connection points: 4
#     Node 14, Type 0, BuildingBlock: QUQFOY_clean_sbu_1, # of connection points: 4
#     Node 15, Type 0, BuildingBlock: QUQFOY_clean_sbu_1, # of connection points: 4
#     Node 16, Type 0, BuildingBlock: QUQFOY_clean_sbu_1, # of connection points: 4
#     Node 17, Type 0, BuildingBlock: QUQFOY_clean_sbu_1, # of connection points: 4
#     Node 18, Type 0, BuildingBlock: QUQFOY_clean_sbu_1, # of connection points: 4
#     Node 19, Type 0, BuildingBlock: QUQFOY_clean_sbu_1, # of connection points: 4
#     Node 20, Type 0, BuildingBlock: QUQFOY_clean_sbu_1, # of connection points: 4
#     Node 21, Type 0, BuildingBlock: QUQFOY_clean_sbu_1, # of connection points: 4
#     Node 22, Type 0, BuildingBlock: QUQFOY_clean_sbu_1, # of connection points: 4
#     Node 23, Type 0, BuildingBlock: QUQFOY_clean_sbu_1, # of connection points: 4
#     Node 24, Type 0, BuildingBlock: QUQFOY_clean_sbu_1, # of connection points: 4
#     Node 25, Type 0, BuildingBlock: QUQFOY_clean_sbu_1, # of connection points: 4
#     Node 26, Type 0, BuildingBlock: QUQFOY_clean_sbu_1, # of connection points: 4
#     Node 27, Type 0, BuildingBlock: QUQFOY_clean_sbu_1, # of connection points: 4
#     Node 28, Type 0, BuildingBlock: QUQFOY_clean_sbu_1, # of connection points: 4
#     Node 29, Type 0, BuildingBlock: QUQFOY_clean_sbu_1, # of connection points: 4
#     Node 30, Type 0, BuildingBlock: QUQFOY_clean_sbu_1, # of connection points: 4
#     Node 31, Type 0, BuildingBlock: QUQFOY_clean_sbu_1, # of connection points: 4
#     Edge 32, Type (0, 0), BuildingBlock: MIFKUJ_clean_linker_0, # of connection points: 2
#     Edge 33, Type (0, 0), BuildingBlock: MIFKUJ_clean_linker_0, # of connection points: 2
#     Edge 34, Type (0, 0), BuildingBlock: MIFKUJ_clean_linker_0, # of connection points: 2
#     Edge 35, Type (0, 0), BuildingBlock: MIFKUJ_clean_linker_0, # of connection points: 2
#     Edge 36, Type (0, 0), BuildingBlock: MIFKUJ_clean_linker_0, # of connection points: 2
#     Edge 37, Type (0, 0), BuildingBlock: MIFKUJ_clean_linker_0, # of connection points: 2
#     Edge 38, Type (0, 0), BuildingBlock: MIFKUJ_clean_linker_0, # of connection points: 2
#     Edge 39, Type (0, 0), BuildingBlock: MIFKUJ_clean_linker_0, # of connection points: 2
#     Edge 40, Type (0, 0), BuildingBlock: MIFKUJ_clean_linker_0, # of connection points: 2
#     Edge 41, Type (0, 0), BuildingBlock: MIFKUJ_clean_linker_0, # of connection points: 2
#     Edge 42, Type (0, 0), BuildingBlock: MIFKUJ_clean_linker_0, # of connection points: 2
#     Edge 43, Type (0, 0), BuildingBlock: MIFKUJ_clean_linker_0, # of connection points: 2
#     Edge 44, Type (0, 0), BuildingBlock: MIFKUJ_clean_linker_0, # of connection points: 2
#     Edge 45, Type (0, 0), BuildingBlock: MIFKUJ_clean_linker_0, # of connection points: 2
#     Edge 46, Type (0, 0), BuildingBlock: MIFKUJ_clean_linker_0, # of connection points: 2
#     Edge 47, Type (0, 0), BuildingBlock: MIFKUJ_clean_linker_0, # of connection points: 2
#     Edge 48, Type (0, 0), BuildingBlock: MIFKUJ_clean_linker_0, # of connection points: 2
#     Edge 49, Type (0, 0), BuildingBlock: MIFKUJ_clean_linker_0, # of connection points: 2
#     Edge 50, Type (0, 0), BuildingBlock: MIFKUJ_clean_linker_0, # of connection points: 2
#     Edge 51, Type (0, 0), BuildingBlock: MIFKUJ_clean_linker_0, # of connection points: 2
#     Edge 52, Type (0, 0), BuildingBlock: MIFKUJ_clean_linker_0, # of connection points: 2
#     Edge 53, Type (0, 0), BuildingBlock: MIFKUJ_clean_linker_0, # of connection points: 2
#     Edge 54, Type (0, 0), BuildingBlock: MIFKUJ_clean_linker_0, # of connection points: 2
#     Edge 55, Type (0, 0), BuildingBlock: MIFKUJ_clean_linker_0, # of connection points: 2
#     Edge 56, Type (0, 0), BuildingBlock: MIFKUJ_clean_linker_0, # of connection points: 2
#     Edge 57, Type (0, 0), BuildingBlock: MIFKUJ_clean_linker_0, # of connection points: 2
#     Edge 58, Type (0, 0), BuildingBlock: MIFKUJ_clean_linker_0, # of connection points: 2
#     Edge 59, Type (0, 0), BuildingBlock: MIFKUJ_clean_linker_0, # of connection points: 2
#     Edge 60, Type (0, 0), BuildingBlock: MIFKUJ_clean_linker_0, # of connection points: 2
#     Edge 61, Type (0, 0), BuildingBlock: MIFKUJ_clean_linker_0, # of connection points: 2
#     Edge 62, Type (0, 0), BuildingBlock: MIFKUJ_clean_linker_0, # of connection points: 2
#     Edge 63, Type (0, 0), BuildingBlock: MIFKUJ_clean_linker_0, # of connection points: 2
#     Edge 64, Type (0, 0), BuildingBlock: MIFKUJ_clean_linker_0, # of connection points: 2
#     Edge 65, Type (0, 0), BuildingBlock: MIFKUJ_clean_linker_0, # of connection points: 2
#     Edge 66, Type (0, 0), BuildingBlock: MIFKUJ_clean_linker_0, # of connection points: 2
#     Edge 67, Type (0, 0), BuildingBlock: MIFKUJ_clean_linker_0, # of connection points: 2
#     Edge 68, Type (0, 0), BuildingBlock: MIFKUJ_clean_linker_0, # of connection points: 2
#     Edge 69, Type (0, 0), BuildingBlock: MIFKUJ_clean_linker_0, # of connection points: 2
#     Edge 70, Type (0, 0), BuildingBlock: MIFKUJ_clean_linker_0, # of connection points: 2
#     Edge 71, Type (0, 0), BuildingBlock: MIFKUJ_clean_linker_0, # of connection points: 2
#     Edge 72, Type (0, 0), BuildingBlock: MIFKUJ_clean_linker_0, # of connection points: 2
#     Edge 73, Type (0, 0), BuildingBlock: MIFKUJ_clean_linker_0, # of connection points: 2
#     Edge 74, Type (0, 0), BuildingBlock: MIFKUJ_clean_linker_0, # of connection points: 2
#     Edge 75, Type (0, 0), BuildingBlock: MIFKUJ_clean_linker_0, # of connection points: 2
#     Edge 76, Type (0, 0), BuildingBlock: MIFKUJ_clean_linker_0, # of connection points: 2
#     Edge 77, Type (0, 0), BuildingBlock: MIFKUJ_clean_linker_0, # of connection points: 2
#     Edge 78, Type (0, 0), BuildingBlock: MIFKUJ_clean_linker_0, # of connection points: 2
#     Edge 79, Type (0, 0), BuildingBlock: MIFKUJ_clean_linker_0, # of connection points: 2
#     Edge 80, Type (0, 0), BuildingBlock: MIFKUJ_clean_linker_0, # of connection points: 2
#     Edge 81, Type (0, 0), BuildingBlock: MIFKUJ_clean_linker_0, # of connection points: 2
#     Edge 82, Type (0, 0), BuildingBlock: MIFKUJ_clean_linker_0, # of connection points: 2
#     Edge 83, Type (0, 0), BuildingBlock: MIFKUJ_clean_linker_0, # of connection points: 2
#     Edge 84, Type (0, 0), BuildingBlock: MIFKUJ_clean_linker_0, # of connection points: 2
#     Edge 85, Type (0, 0), BuildingBlock: MIFKUJ_clean_linker_0, # of connection points: 2
#     Edge 86, Type (0, 0), BuildingBlock: MIFKUJ_clean_linker_0, # of connection points: 2
#     Edge 87, Type (0, 0), BuildingBlock: MIFKUJ_clean_linker_0, # of connection points: 2
#     Edge 88, Type (0, 0), BuildingBlock: MIFKUJ_clean_linker_0, # of connection points: 2
#     Edge 89, Type (0, 0), BuildingBlock: MIFKUJ_clean_linker_0, # of connection points: 2
#     Edge 90, Type (0, 0), BuildingBlock: MIFKUJ_clean_linker_0, # of connection points: 2
#     Edge 91, Type (0, 0), BuildingBlock: MIFKUJ_clean_linker_0, # of connection points: 2
#     Edge 92, Type (0, 0), BuildingBlock: MIFKUJ_clean_linker_0, # of connection points: 2
#     Edge 93, Type (0, 0), BuildingBlock: MIFKUJ_clean_linker_0, # of connection points: 2
#     Edge 94, Type (0, 0), BuildingBlock: MIFKUJ_clean_linker_0, # of connection points: 2
#     Edge 95, Type (0, 0), BuildingBlock: MIFKUJ_clean_linker_0, # of connection points: 2
# Relax obj value: 0.007
# Max RMSD: 0.049
# Mean RMSD: 0.049
data_MOF--net-ukd--node1-QUQFOY_clean_sbu_1--edge1-MIFKUJ_clean_linker_0
_symmetry_space_group_name_H-M    P1
_symmetry_Int_Tables_number       1
_symmetry_cell_setting            triclinic
loop_
_symmetry_equiv_pos_as_xyz
'x, y, z'
_cell_length_a     59.9771
_cell_length_b     60.014151
_cell_length_c     101.97639
_cell_angle_alpha  90.086445
_cell_angle_beta   89.987095
_cell_angle_gamma 89.962355
loop_
_atom_site_label
_atom_site_type_symbol
_atom_site_fract_x
_atom_site_fract_y
_atom_site_fract_z
_atom_type_partial_charge
O0 O 0.18978 0.16708 0.35993 0.0
Cd1 Cd 0.21706 0.18808 0.36012 0.0
Cd2 Cd 0.19672 0.20218 0.3371 0.0
O3 O 0.17641 0.17475 0.34029 0.0
O4 O 0.23737 0.17486 0.37357 0.0
O5 O 0.24613 0.17687 0.35257 0.0
C6 C 0.25128 0.17049 0.36429 0.0
C7 C 0.21039 0.21033 0.31605 0.0
C8 C 0.17569 0.16351 0.35085 0.0
C9 C 0.199 0.23451 0.36004 0.0
O10 O 0.19106 0.22972 0.34882 0.0
O11 O 0.21141 0.22066 0.36603 0.0
O12 O 0.18969 0.21309 0.31904 0.0
O13 O 0.22336 0.20207 0.32493 0.0
O14 O 0.08959 0.94371 0.61144 0.0
Cd15 Cd 0.06959 0.97161 0.61146 0.0
Cd16 Cd 0.05386 0.95055 0.58864 0.0
O17 O 0.07988 0.92856 0.59254 0.0
O18 O 0.08377 0.99164 0.62472 0.0
O19 O 0.08154 1.00019 0.60371 0.0
C20 C 0.08833 0.00529 0.61536 0.0
C21 C 0.04665 0.96283 0.56719 0.0
C22 C 0.09178 0.92844 0.60288 0.0
C23 C 0.02209 0.95624 0.61174 0.0
O24 O 0.02582 0.94828 0.60038 0.0
O25 O 0.03713 0.9671 0.61778 0.0
O26 O 0.04236 0.94272 0.57081 0.0
O27 O 0.05596 0.9759 0.57564 0.0
O28 O 0.31428 0.84121 0.86049 0.0
Cd29 Cd 0.28703 0.82012 0.85998 0.0
Cd30 Cd 0.30857 0.80764 0.83709 0.0
O31 O 0.32811 0.83541 0.84073 0.0
O32 O 0.26645 0.83273 0.87354 0.0
O33 O 0.25811 0.83184 0.85246 0.0
C34 C 0.25277 0.83771 0.86425 0.0
C35 C 0.29521 0.79928 0.81601 0.0
C36 C 0.32848 0.84576 0.85162 0.0
C37 C 0.30632 0.77432 0.85942 0.0
O38 O 0.315 0.78011 0.84858 0.0
O39 O 0.29269 0.78719 0.86528 0.0
O40 O 0.316 0.79726 0.81897 0.0
O41 O 0.28197 0.80704 0.82491 0.0
O42 O 0.41817 0.0636 0.11145 0.0
Cd43 Cd 0.43938 0.03649 0.1118 0.0
Cd44 Cd 0.45373 0.05687 0.08877 0.0
O45 O 0.42626 0.07718 0.09192 0.0
O46 O 0.42609 0.01649 0.12537 0.0
O47 O 0.42837 0.00716 0.10445 0.0
C48 C 0.42185 1.00233 0.11619 0.0
C49 C 0.46218 0.04354 0.06767 0.0
C50 C 0.41478 0.07777 0.10241 0.0
C51 C 0.48569 0.05489 0.1119 0.0
O52 O 0.4811 0.06254 0.10059 0.0
O53 O 0.47178 0.04256 0.11789 0.0
O54 O 0.46489 0.06417 0.0708 0.0
O55 O 0.45384 0.03043 0.07643 0.0
O56 O 0.19584 0.83859 0.14693 0.0
Cd57 Cd 0.22296 0.81756 0.14677 0.0
Cd58 Cd 0.20301 0.80347 0.16999 0.0
O59 O 0.18239 0.83074 0.16654 0.0
O60 O 0.24359 0.83086 0.13353 0.0
O61 O 0.25185 0.82855 0.15461 0.0
C62 C 0.25725 0.83513 0.14297 0.0
C63 C 0.21658 0.79594 0.19114 0.0
C64 C 0.18168 0.84205 0.15599 0.0
C65 C 0.20546 0.77093 0.1471 0.0
O66 O 0.19813 0.77543 0.15851 0.0
O67 O 0.21697 0.78513 0.14081 0.0
O68 O 0.19589 0.79312 0.18816 0.0
O69 O 0.22958 0.80392 0.1822 0.0
O70 O 0.41512 0.94568 0.40004 0.0
Cd71 Cd 0.43611 0.97293 0.39898 0.0
Cd72 Cd 0.45299 0.95201 0.42171 0.0
O73 O 0.42688 0.93016 0.41843 0.0
O74 O 0.42201 0.99186 0.38515 0.0
O75 O 0.42495 1.00264 0.40578 0.0
C76 C 0.41797 0.00661 0.39403 0.0
C77 C 0.46138 0.96473 0.44295 0.0
C78 C 0.41378 0.93038 0.40862 0.0
C79 C 0.48334 0.95581 0.39799 0.0
O80 O 0.48006 0.94834 0.40948 0.0
O81 O 0.46831 0.96712 0.39221 0.0
O82 O 0.46513 0.94444 0.43942 0.0
O83 O 0.45205 0.97779 0.43451 0.0
O84 O 0.31611 0.16825 0.64861 0.0
Cd85 Cd 0.28843 0.18858 0.64828 0.0
Cd86 Cd 0.30858 0.20394 0.6715 0.0
O87 O 0.33013 0.17745 0.66789 0.0
O88 O 0.26881 0.17484 0.63466 0.0
O89 O 0.25942 0.17674 0.65557 0.0
C90 C 0.25474 0.17023 0.6438 0.0
C91 C 0.2959 0.21146 0.69285 0.0
C92 C 0.33074 0.16568 0.6575 0.0
C93 C 0.30429 0.2359 0.64845 0.0
O94 O 0.31183 0.23194 0.65987 0.0
O95 O 0.29345 0.22107 0.64222 0.0
O96 O 0.31623 0.2152 0.68941 0.0
O97 O 0.2828 0.20252 0.68427 0.0
O98 O 0.09148 0.06465 0.89954 0.0
Cd99 Cd 0.07047 0.03734 0.89998 0.0
Cd100 Cd 0.05813 0.05864 0.92305 0.0
O101 O 0.08585 0.07825 0.91939 0.0
O102 O 0.08275 0.01721 0.88609 0.0
O103 O 0.08252 0.00824 0.90708 0.0
C104 C 0.08802 1.00327 0.89517 0.0
C105 C 0.05013 0.04517 0.94415 0.0
C106 C 0.09609 0.07876 0.90846 0.0
C107 C 0.02459 0.05654 0.90078 0.0
O108 O 0.03044 0.06511 0.91165 0.0
O109 O 0.03746 0.04303 0.89483 0.0
O110 O 0.04792 0.06594 0.94123 0.0
O111 O 0.05783 0.03201 0.93519 0.0
O112 O 0.81719 0.78098 0.66233 0.0
Cd113 Cd 0.8093 0.8084 0.67366 0.0
Cd114 Cd 0.78835 0.81982 0.6506 0.0
O115 O 0.79472 0.78691 0.64557 0.0
O116 O 0.81646 0.79868 0.69193 0.0
O117 O 0.78229 0.80693 0.6855 0.0
C118 C 0.7955 0.79991 0.69461 0.0
C119 C 0.75385 0.83662 0.64612 0.0
C120 C 0.80876 0.77465 0.65151 0.0
C121 C 0.82868 0.84673 0.65913 0.0
O122 O 0.8152 0.84139 0.65002 0.0
O123 O 0.82789 0.83685 0.67015 0.0
O124 O 0.76762 0.83149 0.63689 0.0
O125 O 0.75925 0.83134 0.65798 0.0
O126 O 0.91519 0.06489 0.40119 0.0
Cd127 Cd 0.9352 0.03727 0.39856 0.0
Cd128 Cd 0.95432 0.0556 0.42191 0.0
O129 O 0.92904 0.07891 0.41949 0.0
O130 O 0.91856 0.02047 0.38474 0.0
O131 O 0.92473 0.00682 0.40451 0.0
C132 C 0.91571 0.00462 0.39308 0.0
C133 C 0.9632 0.0427 0.44305 0.0
C134 C 0.91511 0.07974 0.41008 0.0
C135 C 0.98313 0.0518 0.39727 0.0
O136 O 0.98108 0.05757 0.40922 0.0
O137 O 0.96691 0.04294 0.39114 0.0
O138 O 0.96798 0.06263 0.43933 0.0
O139 O 0.95265 0.03009 0.43486 0.0
O140 O 0.69886 0.23191 0.15956 0.0
Cd141 Cd 0.70176 0.20492 0.172 0.0
Cd142 Cd 0.72044 0.1864 0.14885 0.0
O143 O 0.71417 0.21804 0.1416 0.0
O144 O 0.69471 0.2178 0.18963 0.0
O145 O 0.72764 0.20366 0.18472 0.0
C146 C 0.7149 0.21354 0.19313 0.0
C147 C 0.75412 0.16827 0.14387 0.0
C148 C 0.70476 0.23404 0.14765 0.0
C149 C 0.67854 0.1652 0.15989 0.0
O150 O 0.69328 0.16569 0.15094 0.0
O151 O 0.67921 0.179 0.16938 0.0
O152 O 0.73897 0.17145 0.13512 0.0
O153 O 0.75048 0.17602 0.15551 0.0
O154 O 0.59269 0.94312 0.90064 0.0
Cd155 Cd 0.57162 0.9702 0.89932 0.0
Cd156 Cd 0.55482 0.95072 0.92262 0.0
O157 O 0.58011 0.92787 0.91894 0.0
O158 O 0.58552 0.98948 0.88561 0.0
O159 O 0.58237 0.99985 0.90632 0.0
C160 C 0.5893 0.00412 0.89459 0.0
C161 C 0.54769 0.96328 0.94405 0.0
C162 C 0.5935 0.92783 0.90924 0.0
C163 C 0.52381 0.95487 0.89917 0.0
O164 O 0.52687 0.94869 0.91094 0.0
O165 O 0.53941 0.96415 0.89273 0.0
O166 O 0.54313 0.94321 0.94044 0.0
O167 O 0.55721 0.97616 0.93559 0.0
O168 O 0.81128 0.23159 0.84956 0.0
Cd169 Cd 0.80911 0.20386 0.83769 0.0
Cd170 Cd 0.78831 0.18699 0.86053 0.0
O171 O 0.79419 0.21914 0.86729 0.0
O172 O 0.81651 0.21556 0.81986 0.0
O173 O 0.78348 0.20172 0.82487 0.0
C174 C 0.79634 0.21117 0.81636 0.0
C175 C 0.7542 0.16936 0.86495 0.0
C176 C 0.80425 0.23465 0.86118 0.0
C177 C 0.83086 0.16465 0.85095 0.0
O178 O 0.81524 0.16564 0.85936 0.0
O179 O 0.83146 0.17816 0.84135 0.0
O180 O 0.76871 0.1729 0.87403 0.0
O181 O 0.75869 0.17658 0.85331 0.0
O182 O 0.59157 0.06306 0.61063 0.0
Cd183 Cd 0.57085 0.03574 0.61142 0.0
Cd184 Cd 0.55487 0.05603 0.58829 0.0
O185 O 0.58124 0.07775 0.59173 0.0
O186 O 0.58493 0.01632 0.62502 0.0
O187 O 0.58182 0.00624 0.60427 0.0
C188 C 0.58884 1.00184 0.61596 0.0
C189 C 0.54704 0.04344 0.56694 0.0
C190 C 0.59362 0.07799 0.60188 0.0
C191 C 0.52362 0.05223 0.61176 0.0
O192 O 0.52713 0.05927 0.60018 0.0
O193 O 0.53867 0.0416 0.61793 0.0
O194 O 0.54323 0.06371 0.57048 0.0
O195 O 0.55617 0.03033 0.57544 0.0
O196 O 0.68922 0.77973 0.34729 0.0
Cd197 Cd 0.69492 0.80607 0.3348 0.0
Cd198 Cd 0.71438 0.82257 0.35808 0.0
O199 O 0.70793 0.79053 0.36484 0.0
O200 O 0.68833 0.79334 0.31709 0.0
O201 O 0.72173 0.80543 0.32275 0.0
C202 C 0.709 0.7962 0.31408 0.0
C203 C 0.74771 0.84078 0.36364 0.0
C204 C 0.69619 0.77607 0.35886 0.0
C205 C 0.67327 0.84599 0.34681 0.0
O206 O 0.6874 0.84384 0.35602 0.0
O207 O 0.67392 0.83317 0.33687 0.0
O208 O 0.73196 0.83796 0.37206 0.0
O209 O 0.74505 0.83237 0.35207 0.0
O210 O 0.92158 0.94465 0.11186 0.0
Cd211 Cd 0.94179 0.97235 0.11152 0.0
Cd212 Cd 0.95626 0.9515 0.08858 0.0
O213 O 0.92973 0.93017 0.09253 0.0
O214 O 0.92815 0.993 0.12467 0.0
O215 O 0.92978 1.00068 0.10351 0.0
C216 C 0.92332 0.00626 0.11515 0.0
C217 C 0.96334 0.9643 0.06722 0.0
C218 C 0.91853 0.92981 0.10314 0.0
C219 C 0.98888 0.95605 0.11132 0.0
O220 O 0.98452 0.94808 0.10004 0.0
O221 O 0.97439 0.96746 0.11749 0.0
O222 O 0.96698 0.94391 0.07054 0.0
O223 O 0.95471 0.97738 0.07593 0.0
O224 O 0.69495 0.66585 0.86063 0.0
Cd225 Cd 0.72177 0.68744 0.85988 0.0
Cd226 Cd 0.70044 0.69853 0.83695 0.0
O227 O 0.68163 0.6703 0.84064 0.0
O228 O 0.74286 0.67552 0.87335 0.0
O229 O 0.75071 0.67612 0.85219 0.0
C230 C 0.75639 0.67055 0.86397 0.0
C231 C 0.71417 0.70679 0.81595 0.0
C232 C 0.68114 0.66051 0.85169 0.0
C233 C 0.70115 0.73249 0.85901 0.0
O234 O 0.69272 0.72604 0.84822 0.0
O235 O 0.7153 0.72034 0.86496 0.0
O236 O 0.69323 0.70814 0.81867 0.0
O237 O 0.72739 0.69976 0.82506 0.0
O238 O 0.59078 0.4417 0.11103 0.0
Cd239 Cd 0.56984 0.46884 0.1121 0.0
Cd240 Cd 0.55367 0.4494 0.08892 0.0
O241 O 0.58039 0.42783 0.09191 0.0
O242 O 0.58384 0.48849 0.12562 0.0
O243 O 0.58036 0.49838 0.10486 0.0
C244 C 0.58744 0.50295 0.11653 0.0
C245 C 0.54549 0.46296 0.06786 0.0
C246 C 0.59287 0.42719 0.10201 0.0
C247 C 0.52278 0.45206 0.11258 0.0
O248 O 0.52611 0.44542 0.10089 0.0
O249 O 0.53787 0.46261 0.11877 0.0
O250 O 0.54193 0.44249 0.07101 0.0
O251 O 0.55456 0.47573 0.07656 0.0
O252 O 0.81658 0.3409 0.36064 0.0
Cd253 Cd 0.78937 0.31986 0.36076 0.0
Cd254 Cd 0.81041 0.3055 0.33793 0.0
O255 O 0.83084 0.33282 0.34125 0.0
O256 O 0.76915 0.33328 0.37423 0.0
O257 O 0.76021 0.33099 0.35327 0.0
C258 C 0.75518 0.33757 0.36497 0.0
C259 C 0.797 0.29733 0.31682 0.0
C260 C 0.8311 0.34426 0.35177 0.0
C261 C 0.80778 0.27354 0.36102 0.0
O262 O 0.81576 0.2781 0.34978 0.0
O263 O 0.79526 0.28746 0.3669 0.0
O264 O 0.81762 0.29438 0.31992 0.0
O265 O 0.78396 0.30574 0.32563 0.0
O266 O 0.91657 0.56448 0.60907 0.0
Cd267 Cd 0.93782 0.53759 0.61045 0.0
Cd268 Cd 0.95519 0.55739 0.58747 0.0
O269 O 0.9297 0.58009 0.59102 0.0
O270 O 0.92345 0.51758 0.62362 0.0
O271 O 0.92782 0.50817 0.60282 0.0
C272 C 0.92028 0.50332 0.61434 0.0
C273 C 0.96297 0.54542 0.566 0.0
C274 C 0.91598 0.57991 0.60055 0.0
C275 C 0.98544 0.55324 0.61129 0.0
O276 O 0.98277 0.55937 0.59947 0.0
O277 O 0.96966 0.54388 0.61754 0.0
O278 O 0.96737 0.5654 0.56984 0.0
O279 O 0.9533 0.53228 0.57425 0.0
O280 O 0.69474 0.34234 0.65035 0.0
Cd281 Cd 0.72124 0.32073 0.64832 0.0
Cd282 Cd 0.7019 0.30335 0.67162 0.0
O283 O 0.67929 0.32903 0.66841 0.0
O284 O 0.74007 0.33486 0.63448 0.0
O285 O 0.75144 0.33066 0.65492 0.0
C286 C 0.75521 0.33807 0.64324 0.0
C287 C 0.71483 0.29552 0.69287 0.0
C288 C 0.67951 0.34296 0.65901 0.0
C289 C 0.70506 0.2732 0.64769 0.0
O290 O 0.69941 0.27584 0.65961 0.0
O291 O 0.71423 0.28895 0.64133 0.0
O292 O 0.69466 0.29119 0.68936 0.0
O293 O 0.72763 0.30516 0.68441 0.0
O294 O 0.91631 0.44308 0.89865 0.0
Cd295 Cd 0.9377 0.47012 0.89877 0.0
Cd296 Cd 0.94968 0.44984 0.92217 0.0
O297 O 0.92148 0.43078 0.91881 0.0
O298 O 0.92554 0.49015 0.88484 0.0
O299 O 0.92621 0.49953 0.90578 0.0
C300 C 0.9206 0.50435 0.89388 0.0
C301 C 0.95824 0.46332 0.94322 0.0
C302 C 0.91135 0.42969 0.90786 0.0
C303 C 0.98321 0.45032 0.89983 0.0
O304 O 0.97714 0.44231 0.9108 0.0
O305 O 0.97063 0.46383 0.89369 0.0
O306 O 0.95977 0.44246 0.94035 0.0
O307 O 0.95091 0.47661 0.93424 0.0
O308 O 0.81179 0.669 0.14617 0.0
Cd309 Cd 0.78451 0.68977 0.14653 0.0
Cd310 Cd 0.8043 0.70253 0.16995 0.0
O311 O 0.8254 0.67587 0.16588 0.0
O312 O 0.76352 0.67676 0.13338 0.0
O313 O 0.75595 0.67843 0.15457 0.0
C314 C 0.75021 0.67213 0.14292 0.0
C315 C 0.79132 0.70907 0.19136 0.0
C316 C 0.82614 0.66523 0.15507 0.0
C317 C 0.80175 0.73627 0.14764 0.0
O318 O 0.80883 0.73117 0.15901 0.0
O319 O 0.79041 0.72238 0.14098 0.0
O320 O 0.81183 0.71239 0.18816 0.0
O321 O 0.77818 0.70107 0.18248 0.0
O322 O 0.5935 0.56477 0.40088 0.0
Cd323 Cd 0.57255 0.53756 0.39946 0.0
Cd324 Cd 0.55467 0.55789 0.4223 0.0
O325 O 0.58007 0.58062 0.41882 0.0
O326 O 0.58684 0.51843 0.38576 0.0
O327 O 0.58348 0.50792 0.4064 0.0
C328 C 0.5906 0.50376 0.39469 0.0
C329 C 0.54718 0.54498 0.44358 0.0
C330 C 0.59389 0.58034 0.40934 0.0
C331 C 0.52457 0.55302 0.39858 0.0
O332 O 0.52716 0.55988 0.41028 0.0
O333 O 0.54042 0.54325 0.39257 0.0
O334 O 0.54266 0.56512 0.44011 0.0
O335 O 0.55682 0.53223 0.43507 0.0
O336 O 0.30904 0.27449 0.15973 0.0
Cd337 Cd 0.30572 0.30238 0.1715 0.0
Cd338 Cd 0.28602 0.31815 0.1483 0.0
O339 O 0.29161 0.28593 0.14187 0.0
O340 O 0.31313 0.29097 0.1894 0.0
O341 O 0.27982 0.30387 0.18419 0.0
C342 C 0.2928 0.29484 0.19279 0.0
C343 C 0.25204 0.33617 0.14413 0.0
C344 C 0.30209 0.2709 0.14813 0.0
C345 C 0.32816 0.34083 0.15787 0.0
O346 O 0.31348 0.33868 0.14897 0.0
O347 O 0.32754 0.32868 0.16809 0.0
O348 O 0.26621 0.33223 0.13491 0.0
O349 O 0.25681 0.32917 0.15577 0.0
O350 O 0.41581 0.56556 0.90135 0.0
Cd351 Cd 0.43741 0.5388 0.90057 0.0
Cd352 Cd 0.45294 0.55942 0.92375 0.0
O353 O 0.42711 0.58149 0.91976 0.0
O354 O 0.42431 0.51889 0.88687 0.0
O355 O 0.42668 0.50929 0.90773 0.0
C356 C 0.42024 0.50456 0.89596 0.0
C357 C 0.45969 0.54642 0.9451 0.0
C358 C 0.41418 0.58098 0.90986 0.0
C359 C 0.48489 0.55527 0.90076 0.0
O360 O 0.48115 0.56215 0.91235 0.0
O361 O 0.46983 0.54502 0.89436 0.0
O362 O 0.4638 0.56672 0.9418 0.0
O363 O 0.45074 0.53358 0.93639 0.0
O364 O 0.1987 0.72989 0.66052 0.0
Cd365 Cd 0.20259 0.70182 0.67204 0.0
Cd366 Cd 0.2223 0.6871 0.64856 0.0
O367 O 0.216 0.71935 0.64241 0.0
O368 O 0.19498 0.7128 0.69003 0.0
O369 O 0.22854 0.7007 0.68472 0.0
C370 C 0.21539 0.70936 0.69338 0.0
C371 C 0.25646 0.66947 0.64423 0.0
C372 C 0.20534 0.73397 0.64893 0.0
C373 C 0.18055 0.6635 0.65804 0.0
O374 O 0.19516 0.66617 0.64915 0.0
O375 O 0.18105 0.67531 0.66842 0.0
O376 O 0.24228 0.67351 0.63504 0.0
O377 O 0.25163 0.67626 0.65593 0.0
O378 O 0.09385 0.44578 0.39816 0.0
Cd379 Cd 0.07339 0.47321 0.39634 0.0
Cd380 Cd 0.05664 0.4557 0.42032 0.0
O381 O 0.08235 0.43301 0.41732 0.0
O382 O 0.08781 0.49152 0.38236 0.0
O383 O 0.08448 0.50306 0.40285 0.0
C384 C 0.09169 0.50658 0.39109 0.0
C385 C 0.04853 0.46822 0.44167 0.0
C386 C 0.09514 0.4316 0.40738 0.0
C387 C 0.02569 0.45813 0.39658 0.0
O388 O 0.02892 0.45264 0.40847 0.0
O389 O 0.04115 0.46719 0.38992 0.0
O390 O 0.04446 0.44809 0.43802 0.0
O391 O 0.05805 0.48126 0.4333 0.0
O392 O 0.32012 0.72769 0.34589 0.0
Cd393 Cd 0.31268 0.70005 0.33463 0.0
Cd394 Cd 0.29152 0.68858 0.35742 0.0
O395 O 0.29729 0.7216 0.36246 0.0
O396 O 0.31954 0.70951 0.31627 0.0
O397 O 0.28553 0.70102 0.32291 0.0
C398 C 0.29856 0.70798 0.31368 0.0
C399 C 0.25694 0.67149 0.3611 0.0
C400 C 0.31131 0.73399 0.35661 0.0
C401 C 0.33226 0.66196 0.34931 0.0
O402 O 0.31856 0.66722 0.35832 0.0
O403 O 0.33155 0.67181 0.33827 0.0
O404 O 0.27006 0.67658 0.37065 0.0
O405 O 0.26303 0.67698 0.34938 0.0
O406 O 0.08911 0.5623 0.11128 0.0
Cd407 Cd 0.06831 0.53502 0.11119 0.0
Cd408 Cd 0.05518 0.55465 0.08757 0.0
O409 O 0.08217 0.5754 0.09148 0.0
O410 O 0.08098 0.51469 0.12477 0.0
O411 O 0.07994 0.50607 0.10371 0.0
C412 C 0.08581 0.50088 0.11551 0.0
C413 C 0.04794 0.54202 0.06616 0.0
C414 C 0.0929 0.57635 0.10224 0.0
C415 C 0.02171 0.55226 0.11005 0.0
O416 O 0.02674 0.55938 0.09869 0.0
O417 O 0.03564 0.54092 0.11666 0.0
O418 O 0.04507 0.56254 0.06946 0.0
O419 O 0.05593 0.52865 0.0749 0.0
O420 O 0.20022 0.27675 0.84968 0.0
Cd421 Cd 0.20257 0.3044 0.83782 0.0
Cd422 Cd 0.22159 0.3215 0.86123 0.0
O423 O 0.21533 0.28944 0.86798 0.0
O424 O 0.19515 0.29228 0.82007 0.0
O425 O 0.22812 0.30637 0.8249 0.0
C426 C 0.21526 0.29669 0.81648 0.0
C427 C 0.25553 0.33925 0.86585 0.0
C428 C 0.20612 0.2738 0.86152 0.0
C429 C 0.1795 0.34334 0.85077 0.0
O430 O 0.1946 0.34262 0.85952 0.0
O431 O 0.1797 0.32978 0.84116 0.0
O432 O 0.24078 0.33592 0.87482 0.0
O433 O 0.25137 0.33175 0.85422 0.0
O434 O 0.41897 0.44334 0.61091 0.0
Cd435 Cd 0.4401 0.47051 0.61047 0.0
Cd436 Cd 0.45257 0.44961 0.58747 0.0
O437 O 0.42464 0.43021 0.59096 0.0
O438 O 0.4277 0.49097 0.62412 0.0
O439 O 0.42829 0.49942 0.60305 0.0
C440 C 0.4226 0.50469 0.61489 0.0
C441 C 0.46059 0.46338 0.56645 0.0
C442 C 0.41431 0.42951 0.60185 0.0
C443 C 0.48595 0.45137 0.60981 0.0
O444 O 0.48022 0.44292 0.59888 0.0
O445 O 0.47299 0.46479 0.61576 0.0
O446 O 0.4627 0.44255 0.56925 0.0
O447 O 0.45302 0.47644 0.5755 0.0
H448 H 0.09674 0.39339 0.42212 0.0
H449 H 0.11874 0.3598 0.41771 0.0
H450 H 0.14961 0.39232 0.38468 0.0
H451 H 0.12789 0.42588 0.38904 0.0
H452 H 0.116 0.33469 0.39605 0.0
H453 H 0.20139 0.37121 0.37959 0.0
H454 H 0.22623 0.40243 0.38539 0.0
H455 H 0.1985 0.40428 0.4242 0.0
H456 H 0.17372 0.37287 0.4187 0.0
H457 H 0.16986 0.26574 0.35082 0.0
H458 H 0.15607 0.29884 0.36207 0.0
H459 H 0.19878 0.28475 0.39503 0.0
H460 H 0.21276 0.25132 0.38383 0.0
H461 H 0.19754 0.33053 0.38809 0.0
H462 H 0.14701 0.27149 0.3982 0.0
H463 H 0.12245 0.23963 0.39327 0.0
H464 H 0.08092 0.2817 0.36956 0.0
H465 H 0.10543 0.31376 0.37419 0.0
C466 C 0.10853 0.39355 0.41407 0.0
C467 C 0.11045 0.41231 0.4059 0.0
C468 C 0.12103 0.3743 0.41154 0.0
C469 C 0.13589 0.37355 0.4009 0.0
C470 C 0.13849 0.39257 0.39306 0.0
C471 C 0.12593 0.41174 0.39553 0.0
C472 C 0.14717 0.35239 0.3972 0.0
C473 C 0.13385 0.33376 0.39443 0.0
C474 C 0.17052 0.35103 0.39524 0.0
C475 C 0.18557 0.36977 0.39869 0.0
C476 C 0.20067 0.37819 0.38938 0.0
C477 C 0.21473 0.39595 0.39261 0.0
C478 C 0.21391 0.40537 0.40514 0.0
C479 C 0.19907 0.39702 0.41448 0.0
C480 C 0.18498 0.37926 0.41131 0.0
C481 C 0.17654 0.2697 0.36041 0.0
C482 C 0.19234 0.25573 0.36645 0.0
C483 C 0.16856 0.28863 0.36685 0.0
C484 C 0.17619 0.29408 0.37945 0.0
C485 C 0.19263 0.28077 0.38532 0.0
C486 C 0.20056 0.26166 0.37891 0.0
C487 C 0.16622 0.31325 0.38656 0.0
C488 C 0.17974 0.33145 0.38991 0.0
C489 C 0.14307 0.31418 0.3892 0.0
C490 C 0.12815 0.29499 0.38648 0.0
C491 C 0.13272 0.27392 0.39186 0.0
C492 C 0.1188 0.25583 0.38913 0.0
C493 C 0.10015 0.25863 0.38109 0.0
C494 C 0.09537 0.27955 0.37578 0.0
C495 C 0.10926 0.29769 0.37847 0.0
H496 H 0.08939 0.24461 0.37898 0.0
H497 H 0.22479 0.41912 0.40762 0.0
H498 H 0.98299 0.94377 0.6002 0.0
H499 H 0.9488 0.93139 0.61101 0.0
H500 H 0.97845 0.9441 0.6488 0.0
H501 H 0.01273 0.95685 0.63804 0.0
H502 H 0.96028 0.90069 0.64577 0.0
H503 H 0.938 0.97643 0.64011 0.0
H504 H 0.93218 0.01146 0.62799 0.0
H505 H 0.88682 0.97831 0.6019 0.0
H506 H 0.89262 0.94297 0.61374 0.0
H507 H 0.86053 0.86303 0.67601 0.0
H508 H 0.89194 0.88742 0.67063 0.0
H509 H 0.86891 0.8916 0.63063 0.0
H510 H 0.83729 0.86788 0.63598 0.0
H511 H 0.88429 0.93048 0.63786 0.0
H512 H 0.91057 0.8546 0.64048 0.0
H513 H 0.91707 0.81828 0.6511 0.0
H514 H 0.95547 0.85026 0.68127 0.0
H515 H 0.94895 0.88683 0.67089 0.0
C516 C 0.98214 0.94426 0.61081 0.0
C517 C 1.00059 0.95126 0.61826 0.0
C518 C 0.96256 0.93725 0.61697 0.0
C519 C 0.96108 0.93689 0.6307 0.0
C520 C 0.97926 0.94432 0.63818 0.0
C521 C 0.99877 0.95169 0.63202 0.0
C522 C 0.94112 0.92719 0.63711 0.0
C523 C 0.94369 0.90747 0.64431 0.0
C524 C 0.91948 0.93576 0.6349 0.0
C525 C 0.91588 0.957 0.62777 0.0
C526 C 0.92692 0.97655 0.63172 0.0
C527 C 0.9236 0.99648 0.62491 0.0
C528 C 0.90917 0.9971 0.61416 0.0
C529 C 0.898 0.9778 0.61022 0.0
C530 C 0.90127 0.95782 0.61699 0.0
C531 C 0.86199 0.86938 0.66611 0.0
C532 C 0.84646 0.86331 0.6564 0.0
C533 C 0.88003 0.88325 0.66303 0.0
C534 C 0.88304 0.89106 0.65016 0.0
C535 C 0.86701 0.88579 0.64063 0.0
C536 C 0.84893 0.87212 0.6437 0.0
C537 C 0.90338 0.90368 0.64633 0.0
C538 C 0.9009 0.92391 0.63956 0.0
C539 C 0.92512 0.89541 0.64876 0.0
C540 C 0.92903 0.87346 0.65501 0.0
C541 C 0.92025 0.8539 0.64944 0.0
C542 C 0.92396 0.83327 0.6554 0.0
C543 C 0.93661 0.83198 0.66688 0.0
C544 C 0.94563 0.8513 0.6724 0.0
C545 C 0.94193 0.87198 0.66648 0.0
H546 H 0.93947 0.81599 0.67148 0.0
H547 H 0.90662 0.01255 0.60891 0.0
H548 H 0.4181 0.62466 0.91704 0.0
H549 H 0.39445 0.6557 0.91021 0.0
H550 H 0.34998 0.60959 0.89089 0.0
H551 H 0.37441 0.57872 0.89702 0.0
H552 H 0.35635 0.64025 0.87532 0.0
H553 H 0.33606 0.6411 0.92022 0.0
H554 H 0.34132 0.64121 0.9442 0.0
H555 H 0.37539 0.70398 0.94178 0.0
H556 H 0.3706 0.7041 0.91776 0.0
H557 H 0.28742 0.75231 0.88034 0.0
H558 H 0.30003 0.71734 0.89035 0.0
H559 H 0.35433 0.714 0.86265 0.0
H560 H 0.34143 0.74814 0.85237 0.0
H561 H 0.3358 0.70545 0.90271 0.0
H562 H 0.36848 0.66279 0.85493 0.0
H563 H 0.3585 0.66099 0.83149 0.0
H564 H 0.29069 0.67764 0.84082 0.0
H565 H 0.30018 0.67921 0.86433 0.0
C566 C 0.40306 0.62115 0.91153 0.0
C567 C 0.39812 0.59929 0.90754 0.0
C568 C 0.38943 0.63892 0.90768 0.0
C569 C 0.37018 0.63512 0.9001 0.0
C570 C 0.36475 0.61309 0.89664 0.0
C571 C 0.37867 0.59542 0.9002 0.0
C572 C 0.35684 0.65415 0.89484 0.0
C573 C 0.35173 0.65437 0.88138 0.0
C574 C 0.35019 0.67249 0.90271 0.0
C575 C 0.35309 0.67252 0.91717 0.0
C576 C 0.3448 0.65485 0.92479 0.0
C577 C 0.34768 0.65489 0.93839 0.0
C578 C 0.35872 0.67257 0.9445 0.0
C579 C 0.36685 0.69028 0.93703 0.0
C580 C 0.36403 0.69033 0.92342 0.0
C581 C 0.30191 0.74396 0.87632 0.0
C582 C 0.31325 0.75292 0.86546 0.0
C583 C 0.30916 0.72403 0.88208 0.0
C584 C 0.32794 0.71276 0.87714 0.0
C585 C 0.33945 0.72195 0.86645 0.0
C586 C 0.33206 0.7416 0.86059 0.0
C587 C 0.33599 0.69166 0.8832 0.0
C588 C 0.34015 0.69111 0.89675 0.0
C589 C 0.34105 0.67263 0.87552 0.0
C590 C 0.3351 0.67127 0.8614 0.0
C591 C 0.35141 0.66592 0.85199 0.0
C592 C 0.34584 0.66498 0.83869 0.0
C593 C 0.32399 0.66926 0.83466 0.0
C594 C 0.30763 0.6744 0.84395 0.0
C595 C 0.3131 0.67534 0.85726 0.0
H596 H 0.31972 0.66857 0.82436 0.0
H597 H 0.36094 0.67256 0.95504 0.0
H598 H 0.50105 0.04361 0.13645 0.0
H599 H 0.53368 0.05891 0.14785 0.0
H600 H 0.55011 0.09764 0.11362 0.0
H601 H 0.51779 0.08257 0.10219 0.0
H602 H 0.57985 0.05975 0.14229 0.0
H603 H 0.56398 0.14958 0.12382 0.0
H604 H 0.53227 0.17317 0.11713 0.0
H605 H 0.48825 0.13465 0.14135 0.0
H606 H 0.51974 0.11104 0.14833 0.0
H607 H 0.67465 0.13014 0.14292 0.0
H608 H 0.64165 0.10759 0.13859 0.0
H609 H 0.60609 0.14226 0.16921 0.0
H610 H 0.63913 0.16507 0.17359 0.0
H611 H 0.58294 0.14207 0.14671 0.0
H612 H 0.61921 0.08783 0.17301 0.0
H613 H 0.65013 0.06405 0.1806 0.0
H614 H 0.65201 0.03122 0.14318 0.0
H615 H 0.6213 0.05503 0.13529 0.0
C616 C 0.51177 0.05518 0.1313 0.0
C617 C 0.50665 0.06199 0.11843 0.0
C618 C 0.53041 0.06387 0.13782 0.0
C619 C 0.5441 0.07964 0.13164 0.0
C620 C 0.53957 0.08572 0.11863 0.0
C621 C 0.52108 0.07701 0.1121 0.0
C622 C 0.5626 0.09064 0.13883 0.0
C623 C 0.58054 0.07773 0.14333 0.0
C624 C 0.56319 0.11405 0.14046 0.0
C625 C 0.54421 0.12844 0.13651 0.0
C626 C 0.54756 0.14622 0.12777 0.0
C627 C 0.52962 0.15958 0.12392 0.0
C628 C 0.50825 0.15538 0.12879 0.0
C629 C 0.50479 0.13785 0.13755 0.0
C630 C 0.52268 0.12445 0.14145 0.0
C631 C 0.65995 0.13277 0.1489 0.0
C632 C 0.65952 0.14954 0.15856 0.0
C633 C 0.6411 0.11974 0.14645 0.0
C634 C 0.6214 0.12315 0.1536 0.0
C635 C 0.62113 0.13933 0.16358 0.0
C636 C 0.64006 0.1523 0.1661 0.0
C637 C 0.60065 0.11128 0.14979 0.0
C638 C 0.58223 0.12406 0.14586 0.0
C639 C 0.59957 0.08775 0.14883 0.0
C640 C 0.61802 0.07334 0.15353 0.0
C641 C 0.62632 0.07566 0.16636 0.0
C642 C 0.64379 0.06215 0.17073 0.0
C643 C 0.65305 0.04616 0.16237 0.0
C644 C 0.64482 0.04362 0.14964 0.0
C645 C 0.62735 0.0571 0.14522 0.0
H646 H 0.66658 0.03571 0.16577 0.0
H647 H 0.49438 0.16572 0.12578 0.0
H648 H 0.19068 0.73317 0.15918 0.0
H649 H 0.17687 0.69908 0.14888 0.0
H650 H 0.19133 0.72616 0.11068 0.0
H651 H 0.2055 0.76035 0.12094 0.0
H652 H 0.14715 0.7092 0.11369 0.0
H653 H 0.2225 0.68561 0.12049 0.0
H654 H 0.25697 0.6798 0.1332 0.0
H655 H 0.22185 0.63688 0.15976 0.0
H656 H 0.18707 0.64268 0.14732 0.0
H657 H 0.10823 0.60814 0.08501 0.0
H658 H 0.13236 0.63998 0.08997 0.0
H659 H 0.13691 0.61852 0.13025 0.0
H660 H 0.11362 0.58645 0.12529 0.0
H661 H 0.17541 0.63318 0.1231 0.0
H662 H 0.1 0.66058 0.11943 0.0
H663 H 0.064 0.66715 0.10839 0.0
H664 H 0.09729 0.70348 0.07789 0.0
H665 H 0.13354 0.69688 0.08867 0.0
C666 C 0.1912 0.7318 0.14859 0.0
C667 C 0.19919 0.74949 0.14088 0.0
C668 C 0.18336 0.71227 0.14273 0.0
C669 C 0.18315 0.71008 0.12903 0.0
C670 C 0.19141 0.72753 0.12128 0.0
C671 C 0.19959 0.74699 0.12716 0.0
C672 C 0.1731 0.69002 0.1229 0.0
C673 C 0.15358 0.69257 0.11548 0.0
C674 C 0.18121 0.66836 0.12555 0.0
C675 C 0.20213 0.66471 0.13302 0.0
C676 C 0.22208 0.67507 0.1291 0.0
C677 C 0.24169 0.67175 0.13625 0.0
C678 C 0.24159 0.65801 0.1473 0.0
C679 C 0.2219 0.64752 0.1512 0.0
C680 C 0.20224 0.65079 0.1441 0.0
C681 C 0.11458 0.61009 0.09488 0.0
C682 C 0.10885 0.59478 0.10476 0.0
C683 C 0.12828 0.62838 0.09773 0.0
C684 C 0.1362 0.63191 0.11055 0.0
C685 C 0.13107 0.61623 0.12028 0.0
C686 C 0.11764 0.59787 0.11743 0.0
C687 C 0.14909 0.65226 0.1141 0.0
C688 C 0.16915 0.64979 0.12107 0.0
C689 C 0.14125 0.67401 0.11125 0.0
C690 C 0.11949 0.67799 0.10476 0.0
C691 C 0.09965 0.66982 0.11031 0.0
C692 C 0.07921 0.67357 0.10412 0.0
C693 C 0.07837 0.68566 0.09242 0.0
C694 C 0.09797 0.69407 0.08693 0.0
C695 C 0.11847 0.69034 0.09308 0.0
H696 H 0.06252 0.68855 0.08764 0.0
H697 H 0.25679 0.65547 0.15282 0.0
H698 H 0.49684 0.96778 0.37314 0.0
H699 H 0.52915 0.95338 0.36098 0.0
H700 H 0.54872 0.9148 0.39468 0.0
H701 H 0.51686 0.92907 0.4069 0.0
H702 H 0.57695 0.95285 0.36642 0.0
H703 H 0.55998 0.86251 0.38324 0.0
H704 H 0.52804 0.83917 0.38981 0.0
H705 H 0.48414 0.87945 0.3665 0.0
H706 H 0.51586 0.9028 0.35963 0.0
H707 H 0.67016 0.87999 0.36457 0.0
H708 H 0.63772 0.90326 0.36924 0.0
H709 H 0.60186 0.87195 0.33755 0.0
H710 H 0.63433 0.84851 0.33278 0.0
H711 H 0.57863 0.8708 0.36028 0.0
H712 H 0.61586 0.92589 0.33507 0.0
H713 H 0.64724 0.9495 0.32798 0.0
H714 H 0.64961 0.98003 0.36606 0.0
H715 H 0.61845 0.95637 0.37345 0.0
C716 C 0.5082 0.95649 0.37802 0.0
C717 C 0.50411 0.94947 0.39098 0.0
C718 C 0.52666 0.94832 0.37106 0.0
C719 C 0.54112 0.93284 0.3769 0.0
C720 C 0.53761 0.92657 0.38997 0.0
C721 C 0.51936 0.93481 0.39694 0.0
C722 C 0.55922 0.92208 0.36926 0.0
C723 C 0.57732 0.93494 0.36498 0.0
C724 C 0.55941 0.89877 0.36715 0.0
C725 C 0.54029 0.8845 0.371 0.0
C726 C 0.54353 0.8663 0.37946 0.0
C727 C 0.52546 0.85308 0.38324 0.0
C728 C 0.50407 0.85786 0.3786 0.0
C729 C 0.50071 0.87581 0.37012 0.0
C730 C 0.51873 0.88906 0.36629 0.0
C731 C 0.65553 0.87829 0.35843 0.0
C732 C 0.65481 0.86227 0.34835 0.0
C733 C 0.63701 0.89172 0.36108 0.0
C734 C 0.61737 0.88941 0.35372 0.0
C735 C 0.61687 0.87403 0.34333 0.0
C736 C 0.63547 0.8607 0.34059 0.0
C737 C 0.59683 0.90144 0.35778 0.0
C738 C 0.57822 0.88876 0.36148 0.0
C739 C 0.59616 0.92491 0.35923 0.0
C740 C 0.61489 0.93923 0.35483 0.0
C741 C 0.62318 0.93751 0.34197 0.0
C742 C 0.64091 0.95093 0.33789 0.0
C743 C 0.65044 0.96623 0.34657 0.0
C744 C 0.64222 0.96817 0.35935 0.0
C745 C 0.6245 0.95478 0.36348 0.0
H746 H 0.66416 0.9766 0.3434 0.0
H747 H 0.4901 0.84762 0.38156 0.0
H748 H 0.30368 0.24595 0.62225 0.0
H749 H 0.31691 0.28027 0.6118 0.0
H750 H 0.33024 0.30876 0.64983 0.0
H751 H 0.31734 0.27451 0.66034 0.0
H752 H 0.31024 0.33907 0.63159 0.0
H753 H 0.37139 0.28605 0.63451 0.0
H754 H 0.3894 0.24975 0.63041 0.0
H755 H 0.38186 0.25906 0.5889 0.0
H756 H 0.3635 0.29531 0.59278 0.0
H757 H 0.39273 0.42085 0.62485 0.0
H758 H 0.36869 0.38947 0.62998 0.0
H759 H 0.37412 0.36604 0.59008 0.0
H760 H 0.39893 0.39725 0.58494 0.0
H761 H 0.38039 0.33291 0.60603 0.0
H762 H 0.32438 0.38836 0.60262 0.0
H763 H 0.30619 0.42467 0.60634 0.0
H764 H 0.30269 0.41123 0.64763 0.0
H765 H 0.32116 0.37496 0.64419 0.0
C766 C 0.3091 0.25966 0.62839 0.0
C767 C 0.3096 0.25746 0.64212 0.0
C768 C 0.3167 0.27921 0.6224 0.0
C769 C 0.32466 0.29697 0.63005 0.0
C770 C 0.32413 0.29525 0.64376 0.0
C771 C 0.31685 0.27562 0.64974 0.0
C772 C 0.33507 0.31675 0.62387 0.0
C773 C 0.3256 0.33781 0.62602 0.0
C774 C 0.35472 0.31495 0.61627 0.0
C775 C 0.36583 0.29323 0.61394 0.0
C776 C 0.37339 0.28026 0.62451 0.0
C777 C 0.3837 0.25972 0.62223 0.0
C778 C 0.38671 0.25207 0.6094 0.0
C779 C 0.37947 0.26498 0.59883 0.0
C780 C 0.36912 0.28552 0.60107 0.0
C781 C 0.38864 0.40922 0.61708 0.0
C782 C 0.39783 0.4116 0.60447 0.0
C783 C 0.37471 0.3913 0.62003 0.0
C784 C 0.36927 0.37548 0.61039 0.0
C785 C 0.37801 0.37805 0.59769 0.0
C786 C 0.39214 0.39594 0.59475 0.0
C787 C 0.35584 0.35551 0.61392 0.0
C788 C 0.36476 0.33432 0.61133 0.0
C789 C 0.33556 0.35722 0.62101 0.0
C790 C 0.32429 0.37897 0.62314 0.0
C791 C 0.31987 0.3932 0.6125 0.0
C792 C 0.30949 0.41377 0.61457 0.0
C793 C 0.30332 0.42027 0.62722 0.0
C794 C 0.30748 0.40617 0.63784 0.0
C795 C 0.31787 0.38558 0.63583 0.0
H796 H 0.2953 0.43621 0.6288 0.0
H797 H 0.3947 0.23616 0.60765 0.0
H798 H 0.99846 0.09163 0.90794 0.0
H799 H 0.96434 0.1047 0.89766 0.0
H800 H 0.96754 0.05062 0.86979 0.0
H801 H 1.00249 0.03784 0.8798 0.0
H802 H 0.9557 0.08645 0.85752 0.0
H803 H 0.92935 0.0507 0.89583 0.0
H804 H 0.92752 0.04112 0.91931 0.0
H805 H 0.91111 0.10892 0.92874 0.0
H806 H 0.91315 0.119 0.90533 0.0
H807 H 0.82882 0.12453 0.86335 0.0
H808 H 0.85983 0.10013 0.86925 0.0
H809 H 0.90571 0.14516 0.85026 0.0
H810 H 0.87453 0.16887 0.8437 0.0
H811 H 0.89048 0.10682 0.88494 0.0
H812 H 0.95426 0.12127 0.84251 0.0
H813 H 0.95404 0.1261 0.81849 0.0
H814 H 0.89127 0.09199 0.81606 0.0
H815 H 0.89124 0.08669 0.84003 0.0
C816 C 0.99189 0.08235 0.89968 0.0
C817 C 1.00316 0.06355 0.89477 0.0
C818 C 0.97226 0.08983 0.89382 0.0
C819 C 0.96304 0.07843 0.88308 0.0
C820 C 0.97426 0.05966 0.8781 0.0
C821 C 0.99418 0.05231 0.88386 0.0
C822 C 0.94194 0.08656 0.87703 0.0
C823 C 0.94136 0.09077 0.86348 0.0
C824 C 0.92291 0.09159 0.88471 0.0
C825 C 0.92154 0.08562 0.89882 0.0
C826 C 0.92549 0.0636 0.90292 0.0
C827 C 0.92439 0.05808 0.91621 0.0
C828 C 0.91923 0.07441 0.92551 0.0
C829 C 0.91511 0.09629 0.92153 0.0
C830 C 0.9162 0.10191 0.90824 0.0
C831 C 0.84549 0.12895 0.86019 0.0
C832 C 0.84926 0.1486 0.85306 0.0
C833 C 0.86325 0.11503 0.86362 0.0
C834 C 0.88525 0.12064 0.8602 0.0
C835 C 0.88894 0.14004 0.85277 0.0
C836 C 0.87109 0.1537 0.84907 0.0
C837 C 0.90435 0.10736 0.86542 0.0
C838 C 0.90461 0.10224 0.87887 0.0
C839 C 0.9227 0.10079 0.85754 0.0
C840 C 0.92268 0.10375 0.84309 0.0
C841 C 0.94046 0.11471 0.83685 0.0
C842 C 0.94037 0.11755 0.82324 0.0
C843 C 0.92263 0.10941 0.81576 0.0
C844 C 0.90496 0.09836 0.82187 0.0
C845 C 0.90498 0.09546 0.83547 0.0
H846 H 0.92259 0.11164 0.80523 0.0
H847 H 0.9184 0.0701 0.9358 0.0
H848 H 0.92116 0.62311 0.59267 0.0
H849 H 0.89905 0.6553 0.59964 0.0
H850 H 0.8533 0.61149 0.61965 0.0
H851 H 0.87599 0.57942 0.61327 0.0
H852 H 0.85952 0.67212 0.59776 0.0
H853 H 0.83638 0.63359 0.64798 0.0
H854 H 0.85068 0.60535 0.66341 0.0
H855 H 0.91707 0.61519 0.64876 0.0
H856 H 0.90321 0.64368 0.63337 0.0
H857 H 0.79019 0.75105 0.63108 0.0
H858 H 0.80452 0.71685 0.62093 0.0
H859 H 0.86008 0.7172 0.64783 0.0
H860 H 0.84542 0.75055 0.65829 0.0
H861 H 0.84702 0.67758 0.64575 0.0
H862 H 0.86348 0.73505 0.61453 0.0
H863 H 0.85503 0.76614 0.59953 0.0
H864 H 0.81196 0.72361 0.57704 0.0
H865 H 0.81995 0.69233 0.59201 0.0
C866 C 0.90618 0.62034 0.59837 0.0
C867 C 0.90048 0.59879 0.60259 0.0
C868 C 0.89352 0.63876 0.60235 0.0
C869 C 0.87478 0.63593 0.61046 0.0
C870 C 0.86803 0.61421 0.61372 0.0
C871 C 0.88095 0.59586 0.61001 0.0
C872 C 0.86348 0.65565 0.61637 0.0
C873 C 0.85667 0.67327 0.60825 0.0
C874 C 0.86016 0.65747 0.6301 0.0
C875 C 0.8687 0.64055 0.63943 0.0
C876 C 0.85404 0.62976 0.64809 0.0
C877 C 0.86206 0.61371 0.65682 0.0
C878 C 0.88476 0.60842 0.65703 0.0
C879 C 0.89949 0.61924 0.64855 0.0
C880 C 0.89156 0.63533 0.63982 0.0
C881 C 0.80537 0.74372 0.63486 0.0
C882 C 0.81662 0.75353 0.64551 0.0
C883 C 0.81365 0.72424 0.629 0.0
C884 C 0.83358 0.71451 0.63349 0.0
C885 C 0.84464 0.72424 0.64419 0.0
C886 C 0.83622 0.7434 0.65017 0.0
C887 C 0.84316 0.69423 0.62717 0.0
C888 C 0.84961 0.67641 0.63524 0.0
C889 C 0.84694 0.69268 0.61348 0.0
C890 C 0.84211 0.71144 0.60447 0.0
C891 C 0.85207 0.73238 0.60644 0.0
C892 C 0.84739 0.75003 0.59794 0.0
C893 C 0.83291 0.74687 0.58737 0.0
C894 C 0.82314 0.72604 0.58525 0.0
C895 C 0.82774 0.70835 0.59374 0.0
H896 H 0.82931 0.76055 0.58079 0.0
H897 H 0.89093 0.59597 0.66379 0.0
H898 H 0.16744 0.13948 0.37304 0.0
H899 H 0.13584 0.11535 0.3776 0.0
H900 H 0.11097 0.1259 0.3384 0.0
H901 H 0.14243 0.15075 0.33384 0.0
H902 H 0.07848 0.13063 0.35522 0.0
H903 H 0.13304 0.07464 0.34825 0.0
H904 H 0.16929 0.05565 0.35051 0.0
H905 H 0.15766 0.04694 0.39173 0.0
H906 H 0.12147 0.06617 0.38977 0.0
H907 H 0.99033 0.05485 0.37074 0.0
H908 H 0.02404 0.0684 0.3597 0.0
H909 H 0.05708 0.07449 0.39708 0.0
H910 H 0.02358 0.06114 0.40816 0.0
H911 H 0.08489 0.05735 0.37737 0.0
H912 H 0.03324 0.1188 0.38422 0.0
H913 H 0.99709 0.13796 0.38178 0.0
H914 H 1.00364 0.13549 0.33987 0.0
H915 H 0.03972 0.11603 0.34208 0.0
C916 C 0.15544 0.13652 0.3653 0.0
C917 C 0.15752 0.14712 0.35306 0.0
C918 C 0.13739 0.12253 0.36791 0.0
C919 C 0.12111 0.11849 0.3583 0.0
C920 C 0.12334 0.12869 0.34597 0.0
C921 C 0.14137 0.14285 0.34336 0.0
C922 C 0.10111 0.10487 0.36154 0.0
C923 C 0.07991 0.11435 0.35976 0.0
C924 C 0.10286 0.08372 0.36763 0.0
C925 C 0.12457 0.07198 0.36887 0.0
C926 C 0.13827 0.06881 0.35782 0.0
C927 C 0.1588 0.05798 0.35905 0.0
C928 C 0.16579 0.05012 0.37126 0.0
C929 C 0.15222 0.05303 0.38228 0.0
C930 C 0.13168 0.06387 0.3811 0.0
C931 C 0.00491 0.05871 0.37658 0.0
C932 C 0.00422 0.05707 0.39034 0.0
C933 C 0.02411 0.06652 0.37026 0.0
C934 C 0.04299 0.07263 0.37759 0.0
C935 C 0.04271 0.06987 0.39124 0.0
C936 C 0.0235 0.06233 0.39756 0.0
C937 C 0.06252 0.08338 0.37128 0.0
C938 C 0.08356 0.07338 0.37254 0.0
C939 C 0.06064 0.10398 0.36463 0.0
C940 C 0.03902 0.11572 0.36331 0.0
C941 C 0.02687 0.12217 0.37449 0.0
C942 C 0.00642 0.13312 0.37315 0.0
C943 C 0.99803 0.13787 0.36068 0.0
C944 C 0.01013 0.13175 0.34952 0.0
C945 C 0.03058 0.12077 0.35081 0.0
H946 H 0.9822 0.14635 0.35966 0.0
H947 H 0.1817 0.04175 0.37219 0.0
H948 H 0.60266 0.39265 0.08513 0.0
H949 H 0.62667 0.36043 0.08943 0.0
H950 H 0.64266 0.3871 0.1276 0.0
H951 H 0.6194 0.41946 0.12326 0.0
H952 H 0.67834 0.36915 0.11764 0.0
H953 H 0.60153 0.34641 0.12261 0.0
H954 H 0.5627 0.34057 0.11544 0.0
H955 H 0.58534 0.29763 0.08445 0.0
H956 H 0.62435 0.30345 0.09135 0.0
H957 H 0.69613 0.27491 0.15824 0.0
H958 H 0.68256 0.30816 0.14696 0.0
H959 H 0.68583 0.27345 0.10996 0.0
H960 H 0.69981 0.24009 0.12118 0.0
H961 H 0.64381 0.29413 0.11559 0.0
H962 H 0.72107 0.31297 0.114 0.0
H963 H 0.75892 0.31832 0.12287 0.0
H964 H 0.73434 0.36832 0.14934 0.0
H965 H 0.69625 0.36305 0.14077 0.0
C966 C 0.61152 0.39178 0.09437 0.0
C967 C 0.60893 0.4086 0.10388 0.0
C968 C 0.62516 0.37328 0.09685 0.0
C969 C 0.63623 0.37112 0.10894 0.0
C970 C 0.63433 0.38833 0.1182 0.0
C971 C 0.6209 0.40684 0.1157 0.0
C972 C 0.64892 0.35059 0.11236 0.0
C973 C 0.67074 0.35276 0.11722 0.0
C974 C 0.63927 0.32908 0.11156 0.0
C975 C 0.61585 0.3256 0.10738 0.0
C976 C 0.59823 0.33587 0.1142 0.0
C977 C 0.57619 0.33254 0.1102 0.0
C978 C 0.57156 0.3188 0.09946 0.0
C979 C 0.58896 0.30832 0.09274 0.0
C980 C 0.61103 0.31162 0.09669 0.0
C981 C 0.6943 0.27443 0.14768 0.0
C982 C 0.69904 0.25486 0.14061 0.0
C983 C 0.6866 0.29347 0.14124 0.0
C984 C 0.68324 0.29327 0.12762 0.0
C985 C 0.68837 0.27393 0.12047 0.0
C986 C 0.69646 0.25495 0.12689 0.0
C987 C 0.67294 0.31284 0.12113 0.0
C988 C 0.65156 0.31047 0.11574 0.0
C989 C 0.68285 0.33419 0.12164 0.0
C990 C 0.70576 0.33749 0.1268 0.0
C991 C 0.72369 0.32498 0.12179 0.0
C992 C 0.7452 0.32803 0.12675 0.0
C993 C 0.74902 0.34362 0.13668 0.0
C994 C 0.73135 0.35624 0.14165 0.0
C995 C 0.7098 0.35325 0.13673 0.0
H996 H 0.76569 0.34596 0.14051 0.0
H997 H 0.55448 0.31624 0.09638 0.0
H998 H 0.48365 0.94835 0.91096 0.0
H999 H 0.44951 0.93414 0.90101 0.0
H1000 H 0.48136 0.93373 0.86307 0.0
H1001 H 0.51546 0.94883 0.87295 0.0
H1002 H 0.43835 0.94429 0.86044 0.0
H1003 H 0.47882 0.88621 0.88167 0.0
H1004 H 0.49898 0.86777 0.89972 0.0
H1005 H 0.43988 0.86967 0.92348 0.0
H1006 H 0.41945 0.88842 0.90563 0.0
H1007 H 0.36355 0.85839 0.83587 0.0
H1008 H 0.39577 0.88119 0.84212 0.0
H1009 H 0.36692 0.89186 0.88035 0.0
H1010 H 0.3348 0.86928 0.87425 0.0
H1011 H 0.40977 0.87536 0.88132 0.0
H1012 H 0.36957 0.93379 0.85886 0.0
H1013 H 0.35056 0.95085 0.83993 0.0
H1014 H 0.41064 0.94575 0.81721 0.0
H1015 H 0.42993 0.92837 0.83596 0.0
C1016 C 0.48329 0.94558 0.90046 0.0
C1017 C 0.50233 0.94946 0.89276 0.0
C1018 C 0.46379 0.93736 0.89479 0.0
C1019 C 0.46305 0.93225 0.88135 0.0
C1020 C 0.48158 0.93738 0.87348 0.0
C1021 C 0.50105 0.94601 0.87913 0.0
C1022 C 0.4435 0.92022 0.87581 0.0
C1023 C 0.43226 0.92907 0.8649 0.0
C1024 C 0.43548 0.90033 0.88161 0.0
C1025 C 0.44766 0.8889 0.89235 0.0
C1026 C 0.47016 0.88283 0.89077 0.0
C1027 C 0.48163 0.87231 0.90097 0.0
C1028 C 0.47073 0.8676 0.91275 0.0
C1029 C 0.44831 0.87335 0.91435 0.0
C1030 C 0.43677 0.88391 0.90419 0.0
C1031 C 0.36388 0.86589 0.84553 0.0
C1032 C 0.34663 0.86183 0.85458 0.0
C1033 C 0.3823 0.87896 0.84907 0.0
C1034 C 0.38375 0.88817 0.86171 0.0
C1035 C 0.36617 0.88485 0.87056 0.0
C1036 C 0.34778 0.87193 0.86703 0.0
C1037 C 0.40427 0.89973 0.8662 0.0
C1038 C 0.41584 0.8906 0.87686 0.0
C1039 C 0.4127 0.91907 0.86003 0.0
C1040 C 0.40112 0.92956 0.84877 0.0
C1041 C 0.37867 0.93612 0.84979 0.0
C1042 C 0.36786 0.94589 0.8391 0.0
C1043 C 0.37936 0.94932 0.82736 0.0
C1044 C 0.40173 0.94305 0.8263 0.0
C1045 C 0.41262 0.93326 0.83696 0.0
H1046 H 0.37096 0.9569 0.8191 0.0
H1047 H 0.47964 0.85946 0.92063 0.0
H1048 H 0.89017 0.4201 0.88484 0.0
H1049 H 0.86636 0.38841 0.87994 0.0
H1050 H 0.87105 0.36663 0.92015 0.0
H1051 H 0.8956 0.39816 0.92508 0.0
H1052 H 0.87791 0.33289 0.90464 0.0
H1053 H 0.82139 0.38803 0.90697 0.0
H1054 H 0.80291 0.42399 0.90267 0.0
H1055 H 0.80055 0.40891 0.86152 0.0
H1056 H 0.8193 0.37299 0.86554 0.0
H1057 H 0.80379 0.24393 0.88756 0.0
H1058 H 0.81619 0.27835 0.89833 0.0
H1059 H 0.82838 0.30811 0.86055 0.0
H1060 H 0.81618 0.2739 0.84974 0.0
H1061 H 0.80839 0.33756 0.87842 0.0
H1062 H 0.8703 0.28522 0.87648 0.0
H1063 H 0.88869 0.24928 0.88103 0.0
H1064 H 0.87972 0.25953 0.92238 0.0
H1065 H 0.861 0.29542 0.91805 0.0
C1066 C 0.88594 0.40879 0.89272 0.0
C1067 C 0.89487 0.41172 0.90537 0.0
C1068 C 0.87215 0.39068 0.88991 0.0
C1069 C 0.86659 0.37521 0.8997 0.0
C1070 C 0.87503 0.37836 0.91243 0.0
C1071 C 0.88902 0.39644 0.91524 0.0
C1072 C 0.85337 0.355 0.8963 0.0
C1073 C 0.86241 0.33397 0.8992 0.0
C1074 C 0.83326 0.35627 0.88904 0.0
C1075 C 0.82188 0.37784 0.88656 0.0
C1076 C 0.81707 0.39244 0.89699 0.0
C1077 C 0.80652 0.41281 0.89461 0.0
C1078 C 0.80059 0.41875 0.88183 0.0
C1079 C 0.80515 0.40429 0.87142 0.0
C1080 C 0.81571 0.3839 0.87375 0.0
C1081 C 0.80879 0.25793 0.88155 0.0
C1082 C 0.80915 0.25612 0.86779 0.0
C1083 C 0.81593 0.27754 0.88772 0.0
C1084 C 0.82336 0.29571 0.88023 0.0
C1085 C 0.8227 0.2943 0.86651 0.0
C1086 C 0.81582 0.27468 0.86035 0.0
C1087 C 0.83324 0.3157 0.88654 0.0
C1088 C 0.82361 0.33661 0.88414 0.0
C1089 C 0.85269 0.31435 0.89434 0.0
C1090 C 0.86401 0.29284 0.89694 0.0
C1091 C 0.87208 0.27971 0.88654 0.0
C1092 C 0.88259 0.25937 0.88907 0.0
C1093 C 0.8853 0.25209 0.90199 0.0
C1094 C 0.87756 0.26517 0.91239 0.0
C1095 C 0.86701 0.28551 0.9099 0.0
H1096 H 0.89345 0.23634 0.90393 0.0
H1097 H 0.79244 0.43453 0.88 0.0
H1098 H 0.33903 0.14144 0.63538 0.0
H1099 H 0.37075 0.11751 0.63075 0.0
H1100 H 0.39631 0.1292 0.66971 0.0
H1101 H 0.36469 0.15393 0.67432 0.0
H1102 H 0.42857 0.13316 0.6528 0.0
H1103 H 0.37408 0.07754 0.66033 0.0
H1104 H 0.33779 0.05855 0.65845 0.0
H1105 H 0.3485 0.04899 0.61719 0.0
H1106 H 0.38473 0.06821 0.61878 0.0
H1107 H 0.51515 0.05452 0.63813 0.0
H1108 H 0.48142 0.06895 0.6488 0.0
H1109 H 0.45051 0.0777 0.61099 0.0
H1110 H 0.48419 0.06367 0.60026 0.0
H1111 H 0.42158 0.05956 0.63094 0.0
H1112 H 0.47371 0.1205 0.62381 0.0
H1113 H 0.5101 0.13919 0.6262 0.0
H1114 H 0.50354 0.13731 0.66811 0.0
H1115 H 0.46723 0.1183 0.66596 0.0
C1116 C 0.35122 0.1388 0.64305 0.0
C1117 C 0.34925 0.14965 0.65524 0.0
C1118 C 0.36935 0.12492 0.64041 0.0
C1119 C 0.38581 0.12118 0.64994 0.0
C1120 C 0.38378 0.13173 0.6622 0.0
C1121 C 0.36566 0.14582 0.66484 0.0
C1122 C 0.40574 0.10742 0.64667 0.0
C1123 C 0.427 0.11683 0.64832 0.0
C1124 C 0.40383 0.08617 0.64068 0.0
C1125 C 0.38209 0.07445 0.63967 0.0
C1126 C 0.36864 0.07152 0.65084 0.0
C1127 C 0.34808 0.06069 0.64982 0.0
C1128 C 0.34082 0.0526 0.6377 0.0
C1129 C 0.35414 0.05527 0.62657 0.0
C1130 C 0.37471 0.0661 0.62753 0.0
C1131 C 0.50103 0.05917 0.63211 0.0
C1132 C 0.50237 0.05807 0.61834 0.0
C1133 C 0.48182 0.06747 0.63822 0.0
C1134 C 0.46355 0.0745 0.63067 0.0
C1135 C 0.46443 0.07233 0.61698 0.0
C1136 C 0.48372 0.06439 0.61087 0.0
C1137 C 0.44409 0.08557 0.63686 0.0
C1138 C 0.42302 0.07567 0.6357 0.0
C1139 C 0.44616 0.10623 0.64344 0.0
C1140 C 0.46792 0.11773 0.64473 0.0
C1141 C 0.48013 0.12389 0.63353 0.0
C1142 C 0.50072 0.13457 0.63484 0.0
C1143 C 0.50916 0.13936 0.6473 0.0
C1144 C 0.497 0.13354 0.65847 0.0
C1145 C 0.47642 0.12281 0.65721 0.0
H1146 H 0.5251 0.14765 0.6483 0.0
H1147 H 0.32489 0.04424 0.63694 0.0
H1148 H 0.71417 0.75682 0.38099 0.0
H1149 H 0.70266 0.72184 0.39148 0.0
H1150 H 0.65081 0.71392 0.36251 0.0
H1151 H 0.66271 0.74801 0.35178 0.0
H1152 H 0.66691 0.70803 0.40312 0.0
H1153 H 0.64056 0.66185 0.3551 0.0
H1154 H 0.65254 0.65975 0.33199 0.0
H1155 H 0.71842 0.68068 0.34292 0.0
H1156 H 0.70693 0.6826 0.36611 0.0
H1157 H 0.58767 0.62393 0.41609 0.0
H1158 H 0.61058 0.65573 0.40971 0.0
H1159 H 0.65852 0.61104 0.39211 0.0
H1160 H 0.63484 0.57935 0.39776 0.0
H1161 H 0.65221 0.64087 0.37609 0.0
H1162 H 0.66877 0.64417 0.42138 0.0
H1163 H 0.66175 0.64472 0.4452 0.0
H1164 H 0.62486 0.70568 0.44125 0.0
H1165 H 0.63139 0.70534 0.41737 0.0
C1166 C 0.70043 0.74748 0.37683 0.0
C1167 C 0.68956 0.75506 0.36545 0.0
C1168 C 0.69381 0.72754 0.38285 0.0
C1169 C 0.67613 0.71493 0.37765 0.0
C1170 C 0.66493 0.72289 0.36651 0.0
C1171 C 0.67172 0.74251 0.3604 0.0
C1172 C 0.66897 0.69361 0.38381 0.0
C1173 C 0.66384 0.69327 0.39725 0.0
C1174 C 0.66566 0.67404 0.37628 0.0
C1175 C 0.67282 0.67251 0.36235 0.0
C1176 C 0.65764 0.66586 0.35259 0.0
C1177 C 0.66434 0.66474 0.33947 0.0
C1178 C 0.68621 0.67013 0.33598 0.0
C1179 C 0.70146 0.67657 0.34562 0.0
C1180 C 0.69486 0.6777 0.35876 0.0
C1181 C 0.60331 0.62089 0.41107 0.0
C1182 C 0.60945 0.59918 0.4074 0.0
C1183 C 0.61652 0.63911 0.40747 0.0
C1184 C 0.63653 0.63594 0.4005 0.0
C1185 C 0.64315 0.61407 0.3974 0.0
C1186 C 0.62966 0.59592 0.40068 0.0
C1187 C 0.64939 0.65539 0.39539 0.0
C1188 C 0.65557 0.65542 0.38209 0.0
C1189 C 0.65443 0.67432 0.40319 0.0
C1190 C 0.65046 0.67464 0.41756 0.0
C1191 C 0.65903 0.65761 0.42557 0.0
C1192 C 0.65516 0.6579 0.43909 0.0
C1193 C 0.64284 0.6752 0.44473 0.0
C1194 C 0.6344 0.69228 0.43686 0.0
C1195 C 0.63821 0.69207 0.42334 0.0
H1196 H 0.63985 0.67539 0.4552 0.0
H1197 H 0.69135 0.66929 0.32582 0.0
H1198 H 0.17262 0.86474 0.13347 0.0
H1199 H 0.1413 0.88919 0.12893 0.0
H1200 H 0.11815 0.88154 0.16874 0.0
H1201 H 0.14932 0.85623 0.17327 0.0
H1202 H 0.08467 0.87719 0.1529 0.0
H1203 H 0.14109 0.93178 0.15723 0.0
H1204 H 0.17769 0.94956 0.15387 0.0
H1205 H 0.16422 0.9556 0.11268 0.0
H1206 H 0.12767 0.93755 0.11574 0.0
H1207 H 0.99907 0.95639 0.13751 0.0
H1208 H 0.03316 0.94232 0.14791 0.0
H1209 H 0.0613 0.92878 0.10981 0.0
H1210 H 0.02726 0.94245 0.09936 0.0
H1211 H 0.09198 0.94823 0.12843 0.0
H1212 H 0.03779 0.88804 0.12471 0.0
H1213 H 1.00112 0.87076 0.12868 0.0
H1214 H 0.01079 0.87705 0.17024 0.0
H1215 H 0.04742 0.89468 0.16649 0.0
C1216 C 0.16106 0.86839 0.14135 0.0
C1217 C 0.16355 0.85848 0.15375 0.0
C1218 C 0.14317 0.88257 0.13875 0.0
C1219 C 0.12748 0.88759 0.14854 0.0
C1220 C 0.13007 0.87801 0.16102 0.0
C1221 C 0.14793 0.86359 0.16361 0.0
C1222 C 0.1077 0.9016 0.14535 0.0
C1223 C 0.08634 0.89299 0.14784 0.0
C1224 C 0.10972 0.92217 0.13862 0.0
C1225 C 0.13166 0.93318 0.13671 0.0
C1226 C 0.14598 0.93676 0.14744 0.0
C1227 C 0.16672 0.94691 0.14559 0.0
C1228 C 0.17329 0.95368 0.13307 0.0
C1229 C 0.15911 0.95035 0.12237 0.0
C1230 C 0.13836 0.94019 0.12416 0.0
C1231 C 0.01266 0.95077 0.13135 0.0
C1232 C 0.01042 0.95042 0.11761 0.0
C1233 C 0.03208 0.94268 0.1373 0.0
C1234 C 0.04967 0.9344 0.12962 0.0
C1235 C 0.04792 0.93512 0.11591 0.0
C1236 C 0.02842 0.94286 0.10996 0.0
C1237 C 0.06925 0.92349 0.13574 0.0
C1238 C 0.09048 0.93267 0.13376 0.0
C1239 C 0.06713 0.90362 0.14308 0.0
C1240 C 0.04519 0.89293 0.14532 0.0
C1241 C 0.032 0.88592 0.13469 0.0
C1242 C 0.01125 0.87603 0.13689 0.0
C1243 C 1.00359 0.87288 0.1497 0.0
C1244 C 0.01671 0.87955 0.16033 0.0
C1245 C 0.03747 0.88949 0.15817 0.0
H1246 H 0.98752 0.86521 0.15139 0.0
H1247 H 0.18935 0.96152 0.13166 0.0
H1248 H 0.71963 0.75653 0.87932 0.0
H1249 H 0.70504 0.79076 0.88932 0.0
H1250 H 0.64927 0.78943 0.86258 0.0
H1251 H 0.66417 0.75608 0.85227 0.0
H1252 H 0.66193 0.82914 0.86432 0.0
H1253 H 0.6462 0.77236 0.89601 0.0
H1254 H 0.65493 0.74163 0.91121 0.0
H1255 H 0.69795 0.78485 0.93327 0.0
H1256 H 0.68967 0.81578 0.9181 0.0
H1257 H 0.58854 0.88478 0.91749 0.0
H1258 H 0.6105 0.85243 0.9106 0.0
H1259 H 0.65563 0.89579 0.88977 0.0
H1260 H 0.63306 0.92798 0.89607 0.0
H1261 H 0.65002 0.8357 0.91231 0.0
H1262 H 0.67202 0.87304 0.86154 0.0
H1263 H 0.65716 0.90067 0.84591 0.0
H1264 H 0.59118 0.8908 0.86118 0.0
H1265 H 0.6056 0.86292 0.87677 0.0
C1266 C 0.70434 0.76366 0.87555 0.0
C1267 C 0.69312 0.75359 0.86497 0.0
C1268 C 0.69592 0.78315 0.88133 0.0
C1269 C 0.67586 0.79263 0.87683 0.0
C1270 C 0.66481 0.78261 0.86622 0.0
C1271 C 0.67337 0.76345 0.86032 0.0
C1272 C 0.66617 0.81298 0.88302 0.0
C1273 C 0.65947 0.83055 0.87483 0.0
C1274 C 0.66251 0.81483 0.89671 0.0
C1275 C 0.66752 0.79629 0.90584 0.0
C1276 C 0.65765 0.77525 0.90405 0.0
C1277 C 0.6625 0.75781 0.91266 0.0
C1278 C 0.67704 0.76126 0.92317 0.0
C1279 C 0.68672 0.78219 0.92511 0.0
C1280 C 0.68195 0.79968 0.91651 0.0
C1281 C 0.60335 0.88742 0.91161 0.0
C1282 C 0.60891 0.90887 0.90716 0.0
C1283 C 0.61593 0.86891 0.90768 0.0
C1284 C 0.63445 0.87156 0.89938 0.0
C1285 C 0.64106 0.8932 0.89585 0.0
C1286 C 0.62821 0.91162 0.89952 0.0
C1287 C 0.6457 0.8517 0.89358 0.0
C1288 C 0.65273 0.83432 0.90182 0.0
C1289 C 0.64882 0.84954 0.87986 0.0
C1290 C 0.63995 0.86611 0.87042 0.0
C1291 C 0.65434 0.87673 0.86153 0.0
C1292 C 0.64599 0.89244 0.85268 0.0
C1293 C 0.62326 0.89755 0.85259 0.0
C1294 C 0.6088 0.88689 0.8613 0.0
C1295 C 0.61705 0.87115 0.87015 0.0
H1296 H 0.61683 0.90973 0.84574 0.0
H1297 H 0.68077 0.74774 0.92984 0.0
H1298 H 0.4829 0.44178 0.10124 0.0
H1299 H 0.44924 0.42788 0.11204 0.0
H1300 H 0.48156 0.4335 0.14966 0.0
H1301 H 0.51523 0.44791 0.13894 0.0
H1302 H 0.46171 0.39018 0.14348 0.0
H1303 H 0.44275 0.46769 0.14496 0.0
H1304 H 0.43766 0.50537 0.13584 0.0
H1305 H 0.38861 0.48035 0.10893 0.0
H1306 H 0.39364 0.44244 0.11776 0.0
H1307 H 0.36312 0.35056 0.17441 0.0
H1308 H 0.39554 0.37405 0.16971 0.0
H1309 H 0.36841 0.38942 0.1316 0.0
H1310 H 0.33586 0.36666 0.13633 0.0
H1311 H 0.38683 0.42512 0.14118 0.0
H1312 H 0.40882 0.34838 0.13634 0.0
H1313 H 0.4143 0.30947 0.1434 0.0
H1314 H 0.4578 0.33143 0.17426 0.0
H1315 H 0.45234 0.37052 0.16747 0.0
C1316 C 0.48275 0.44037 0.11183 0.0
C1317 C 0.50171 0.44595 0.11924 0.0
C1318 C 0.4635 0.43247 0.11798 0.0
C1319 C 0.46294 0.4297 0.13164 0.0
C1320 C 0.48168 0.43559 0.13911 0.0
C1321 C 0.50083 0.44391 0.13297 0.0
C1322 C 0.44318 0.41938 0.1379 0.0
C1323 C 0.4454 0.398 0.14327 0.0
C1324 C 0.42186 0.42937 0.13725 0.0
C1325 C 0.4187 0.45218 0.13196 0.0
C1326 C 0.43101 0.47018 0.13702 0.0
C1327 C 0.42811 0.4916 0.13192 0.0
C1328 C 0.41285 0.49525 0.1218 0.0
C1329 C 0.40043 0.4775 0.11677 0.0
C1330 C 0.40328 0.45604 0.12183 0.0
C1331 C 0.36394 0.35917 0.16509 0.0
C1332 C 0.34692 0.35656 0.15572 0.0
C1333 C 0.38255 0.37251 0.16239 0.0
C1334 C 0.38463 0.38325 0.1502 0.0
C1335 C 0.36724 0.38133 0.14107 0.0
C1336 C 0.34862 0.36819 0.14379 0.0
C1337 C 0.40522 0.39566 0.1466 0.0
C1338 C 0.40318 0.41742 0.14166 0.0
C1339 C 0.42667 0.38584 0.1474 0.0
C1340 C 0.42994 0.36238 0.15151 0.0
C1341 C 0.41941 0.34492 0.1447 0.0
C1342 C 0.42253 0.32283 0.14864 0.0
C1343 C 0.43632 0.31799 0.1593 0.0
C1344 C 0.44707 0.33522 0.16602 0.0
C1345 C 0.44397 0.35734 0.16213 0.0
H1346 H 0.43874 0.30088 0.16233 0.0
H1347 H 0.41063 0.51184 0.11786 0.0
H1348 H 0.91588 0.11944 0.42353 0.0
H1349 H 0.89371 0.15286 0.41897 0.0
H1350 H 0.85812 0.11738 0.38871 0.0
H1351 H 0.87997 0.08402 0.39324 0.0
H1352 H 0.89377 0.17566 0.39649 0.0
H1353 H 0.80615 0.13861 0.38512 0.0
H1354 H 0.78176 0.10851 0.39315 0.0
H1355 H 0.81436 0.11051 0.43061 0.0
H1356 H 0.83873 0.14084 0.42288 0.0
H1357 H 0.83572 0.24133 0.35158 0.0
H1358 H 0.85045 0.20905 0.36318 0.0
H1359 H 0.81087 0.22585 0.39708 0.0
H1360 H 0.7959 0.25839 0.38551 0.0
H1361 H 0.81151 0.18003 0.39185 0.0
H1362 H 0.86356 0.23934 0.3977 0.0
H1363 H 0.88776 0.27033 0.3907 0.0
H1364 H 0.92612 0.22535 0.3669 0.0
H1365 H 0.90193 0.19414 0.3736 0.0
C1366 C 0.90303 0.11862 0.41609 0.0
C1367 C 0.8998 0.09906 0.40871 0.0
C1368 C 0.89043 0.13776 0.41346 0.0
C1369 C 0.87418 0.13763 0.40354 0.0
C1370 C 0.87033 0.11785 0.39654 0.0
C1371 C 0.88296 0.09878 0.3991 0.0
C1372 C 0.86267 0.15853 0.3996 0.0
C1373 C 0.87577 0.17665 0.3956 0.0
C1374 C 0.83915 0.16 0.39858 0.0
C1375 C 0.82439 0.14191 0.40337 0.0
C1376 C 0.80804 0.13271 0.39509 0.0
C1377 C 0.79423 0.11559 0.39959 0.0
C1378 C 0.79655 0.10756 0.41237 0.0
C1379 C 0.81264 0.11669 0.4207 0.0
C1380 C 0.82648 0.13382 0.41625 0.0
C1381 C 0.82991 0.23812 0.36146 0.0
C1382 C 0.81472 0.25262 0.36764 0.0
C1383 C 0.83843 0.21966 0.36809 0.0
C1384 C 0.83202 0.21524 0.38106 0.0
C1385 C 0.81611 0.22903 0.38709 0.0
C1386 C 0.80759 0.24763 0.38046 0.0
C1387 C 0.8427 0.19669 0.38836 0.0
C1388 C 0.82947 0.17907 0.39293 0.0
C1389 C 0.86611 0.19574 0.39006 0.0
C1390 C 0.88083 0.21443 0.38609 0.0
C1391 C 0.87707 0.23609 0.3909 0.0
C1392 C 0.89079 0.25368 0.387 0.0
C1393 C 0.90844 0.24982 0.37834 0.0
C1394 C 0.91243 0.22832 0.3736 0.0
C1395 C 0.89873 0.21067 0.37746 0.0
H1396 H 0.91905 0.26346 0.37533 0.0
H1397 H 0.78585 0.0943 0.41583 0.0
H1398 H 0.14446 0.65422 0.67389 0.0
H1399 H 0.11166 0.63169 0.66824 0.0
H1400 H 0.14141 0.6152 0.63098 0.0
H1401 H 0.17408 0.63735 0.63649 0.0
H1402 H 0.09871 0.63362 0.62907 0.0
H1403 H 0.13737 0.57639 0.65366 0.0
H1404 H 0.1554 0.5608 0.67335 0.0
H1405 H 0.09463 0.56896 0.6951 0.0
H1406 H 0.07631 0.58489 0.67558 0.0
H1407 H 0.02619 0.55891 0.60009 0.0
H1408 H 0.0598 0.57378 0.61032 0.0
H1409 H 0.02599 0.57657 0.64765 0.0
H1410 H 0.99244 0.56075 0.63749 0.0
H1411 H 0.06877 0.56658 0.65137 0.0
H1412 H 0.02949 0.62291 0.628 0.0
H1413 H 0.01019 0.64004 0.6092 0.0
H1414 H 0.07035 0.6365 0.58645 0.0
H1415 H 0.08994 0.61905 0.60507 0.0
C1416 C 0.14418 0.64549 0.66459 0.0
C1417 C 0.16187 0.64777 0.65561 0.0
C1418 C 0.12544 0.6326 0.66139 0.0
C1419 C 0.1241 0.62185 0.64917 0.0
C1420 C 0.14208 0.62343 0.64044 0.0
C1421 C 0.16079 0.63611 0.64364 0.0
C1422 C 0.10341 0.61041 0.6449 0.0
C1423 C 0.09231 0.61881 0.63386 0.0
C1424 C 0.09455 0.59167 0.65149 0.0
C1425 C 0.10555 0.58207 0.66321 0.0
C1426 C 0.12791 0.57506 0.66268 0.0
C1427 C 0.13817 0.56611 0.6738 0.0
C1428 C 0.12619 0.56396 0.68548 0.0
C1429 C 0.1039 0.57068 0.68605 0.0
C1430 C 0.09357 0.57965 0.67496 0.0
C1431 C 0.02602 0.56233 0.61052 0.0
C1432 C 0.00661 0.5589 0.61796 0.0
C1433 C 0.04521 0.57093 0.61636 0.0
C1434 C 0.04524 0.57693 0.62968 0.0
C1435 C 0.02633 0.57224 0.63733 0.0
C1436 C 0.00717 0.5632 0.63152 0.0
C1437 C 0.06447 0.58941 0.63527 0.0
C1438 C 0.07514 0.5814 0.6466 0.0
C1439 C 0.0728 0.60884 0.6291 0.0
C1440 C 0.06113 0.61951 0.6179 0.0
C1441 C 0.03857 0.62566 0.61896 0.0
C1442 C 0.02758 0.63544 0.60834 0.0
C1443 C 0.03902 0.63931 0.59663 0.0
C1444 C 0.0615 0.63347 0.59553 0.0
C1445 C 0.07257 0.62365 0.60612 0.0
H1446 H 0.03048 0.64688 0.58841 0.0
H1447 H 0.13416 0.55702 0.69408 0.0
H1448 H 0.60166 0.11464 0.58631 0.0
H1449 H 0.62432 0.14738 0.59185 0.0
H1450 H 0.64335 0.11656 0.62833 0.0
H1451 H 0.62104 0.08394 0.62293 0.0
H1452 H 0.62508 0.15888 0.6313 0.0
H1453 H 0.6807 0.12183 0.6046 0.0
H1454 H 0.69493 0.10466 0.58427 0.0
H1455 H 0.68443 0.16601 0.56356 0.0
H1456 H 0.66983 0.18347 0.58374 0.0
H1457 H 0.70065 0.23231 0.65884 0.0
H1458 H 0.68557 0.19861 0.64881 0.0
H1459 H 0.67963 0.23278 0.61177 0.0
H1460 H 0.69574 0.2664 0.62168 0.0
H1461 H 0.68983 0.1905 0.60745 0.0
H1462 H 0.6347 0.22811 0.63286 0.0
H1463 H 0.61878 0.24655 0.65236 0.0
H1464 H 0.62532 0.18589 0.6743 0.0
H1465 H 0.64158 0.16716 0.65498 0.0
C1466 C 0.61096 0.11469 0.59541 0.0
C1467 C 0.60936 0.09669 0.60421 0.0
C1468 C 0.62393 0.13339 0.59854 0.0
C1469 C 0.63545 0.13441 0.61052 0.0
C1470 C 0.63452 0.11615 0.61906 0.0
C1471 C 0.62175 0.09748 0.61592 0.0
C1472 C 0.64705 0.15503 0.61477 0.0
C1473 C 0.63941 0.16564 0.62617 0.0
C1474 C 0.66513 0.16436 0.60776 0.0
C1475 C 0.67394 0.15388 0.59565 0.0
C1476 C 0.68123 0.1316 0.59569 0.0
C1477 C 0.6894 0.12183 0.5842 0.0
C1478 C 0.69052 0.13421 0.57262 0.0
C1479 C 0.68352 0.15642 0.57253 0.0
C1480 C 0.67531 0.16627 0.58399 0.0
C1481 C 0.69649 0.23254 0.6485 0.0
C1482 C 0.69914 0.25206 0.64108 0.0
C1483 C 0.68775 0.21329 0.64279 0.0
C1484 C 0.68081 0.21332 0.62963 0.0
C1485 C 0.68469 0.23238 0.62197 0.0
C1486 C 0.6939 0.25158 0.62764 0.0
C1487 C 0.66825 0.19398 0.62423 0.0
C1488 C 0.67551 0.18375 0.61258 0.0
C1489 C 0.64948 0.18514 0.63088 0.0
C1490 C 0.63953 0.19629 0.6425 0.0
C1491 C 0.63287 0.21874 0.64187 0.0
C1492 C 0.62377 0.22924 0.65288 0.0
C1493 C 0.62108 0.21741 0.66457 0.0
C1494 C 0.62743 0.19504 0.66525 0.0
C1495 C 0.63657 0.18446 0.65426 0.0
H1496 H 0.61404 0.22557 0.67309 0.0
H1497 H 0.69686 0.12662 0.56374 0.0
H1498 H 0.17973 0.38361 0.86318 0.0
H1499 H 0.14751 0.40643 0.86915 0.0
H1500 H 0.10404 0.35999 0.84937 0.0
H1501 H 0.1364 0.33781 0.84275 0.0
H1502 H 0.087 0.39907 0.84701 0.0
H1503 H 0.11549 0.35725 0.88341 0.0
H1504 H 0.14398 0.34439 0.89912 0.0
H1505 H 0.15314 0.41151 0.91274 0.0
H1506 H 0.12489 0.4248 0.89698 0.0
H1507 H 0.00792 0.41438 0.90709 0.0
H1508 H 0.04158 0.39991 0.89691 0.0
H1509 H 0.04104 0.4543 0.86926 0.0
H1510 H 0.00651 0.46842 0.87914 0.0
H1511 H 0.08094 0.41355 0.89478 0.0
H1512 H 0.06631 0.43817 0.84066 0.0
H1513 H 0.03506 0.44508 0.82545 0.0
H1514 H 0.99292 0.40229 0.84831 0.0
H1515 H 0.02398 0.39492 0.86355 0.0
C1516 C 0.16333 0.37853 0.85988 0.0
C1517 C 0.16054 0.35882 0.85261 0.0
C1518 C 0.1449 0.39151 0.86336 0.0
C1519 C 0.12322 0.38463 0.86005 0.0
C1520 C 0.12054 0.36565 0.85211 0.0
C1521 C 0.13906 0.35294 0.84834 0.0
C1522 C 0.10335 0.39606 0.86573 0.0
C1523 C 0.08573 0.40234 0.85745 0.0
C1524 C 0.10137 0.39998 0.8794 0.0
C1525 C 0.11828 0.39204 0.88892 0.0
C1526 C 0.12369 0.36927 0.8897 0.0
C1527 C 0.13978 0.36191 0.89862 0.0
C1528 C 0.15041 0.37713 0.9069 0.0
C1529 C 0.14492 0.39974 0.9063 0.0
C1530 C 0.12888 0.4072 0.89738 0.0
C1531 C 0.01494 0.42337 0.89886 0.0
C1532 C 0.00446 0.44257 0.89392 0.0
C1533 C 0.03428 0.41506 0.89304 0.0
C1534 C 0.04387 0.42584 0.88222 0.0
C1535 C 0.03378 0.44538 0.87743 0.0
C1536 C 0.01411 0.45353 0.88314 0.0
C1537 C 0.0644 0.41638 0.8761 0.0
C1538 C 0.08224 0.41053 0.88431 0.0
C1539 C 0.06613 0.41205 0.86246 0.0
C1540 C 0.04739 0.41624 0.85332 0.0
C1541 C 0.05038 0.43021 0.84241 0.0
C1542 C 0.0327 0.43421 0.83379 0.0
C1543 C 0.01199 0.4242 0.83594 0.0
C1544 C 0.00894 0.41011 0.84669 0.0
C1545 C 0.02657 0.40604 0.85533 0.0
H1546 H 0.99833 0.42732 0.82926 0.0
H1547 H 0.16286 0.3714 0.9138 0.0
H1548 H 0.90494 0.89593 0.08667 0.0
H1549 H 0.88175 0.86363 0.09238 0.0
H1550 H 0.87425 0.88907 0.13169 0.0
H1551 H 0.89698 0.92129 0.12613 0.0
H1552 H 0.88981 0.8445 0.13013 0.0
H1553 H 0.83159 0.89156 0.11222 0.0
H1554 H 0.81383 0.91401 0.09489 0.0
H1555 H 0.81204 0.85682 0.06955 0.0
H1556 H 0.8301 0.8341 0.08668 0.0
H1557 H 0.81446 0.77393 0.16056 0.0
H1558 H 0.83092 0.8075 0.1512 0.0
H1559 H 0.82234 0.78056 0.11228 0.0
H1560 H 0.805 0.74716 0.12161 0.0
H1561 H 0.81605 0.82413 0.11165 0.0
H1562 H 0.87275 0.77657 0.12843 0.0
H1563 H 0.89184 0.75286 0.14465 0.0
H1564 H 0.89901 0.80899 0.17047 0.0
H1565 H 0.87967 0.83298 0.15447 0.0
C1566 C 0.89811 0.89478 0.09648 0.0
C1567 C 0.90293 0.91119 0.10595 0.0
C1568 C 0.88484 0.87634 0.09971 0.0
C1569 C 0.87634 0.87397 0.11247 0.0
C1570 C 0.88069 0.89057 0.1218 0.0
C1571 C 0.89368 0.90903 0.11857 0.0
C1572 C 0.86404 0.85365 0.11648 0.0
C1573 C 0.87357 0.84015 0.12619 0.0
C1574 C 0.8433 0.84755 0.11095 0.0
C1575 C 0.83244 0.8612 0.10067 0.0
C1576 C 0.82761 0.88383 0.10291 0.0
C1577 C 0.81744 0.89659 0.09313 0.0
C1578 C 0.81187 0.88687 0.08111 0.0
C1579 C 0.8164 0.86434 0.07886 0.0
C1580 C 0.82659 0.85151 0.0886 0.0
C1581 C 0.81575 0.77528 0.14999 0.0
C1582 C 0.80864 0.7578 0.14183 0.0
C1583 C 0.82529 0.79444 0.14465 0.0
C1584 C 0.82848 0.79631 0.13104 0.0
C1585 C 0.82022 0.77944 0.12281 0.0
C1586 C 0.8103 0.76037 0.12815 0.0
C1587 C 0.84154 0.81526 0.1256 0.0
C1588 C 0.8323 0.82839 0.11557 0.0
C1589 C 0.86283 0.82087 0.13066 0.0
C1590 C 0.87459 0.80653 0.14029 0.0
C1591 C 0.87827 0.78382 0.1376 0.0
C1592 C 0.88915 0.77034 0.14675 0.0
C1593 C 0.89659 0.7794 0.1586 0.0
C1594 C 0.89321 0.80199 0.1613 0.0
C1595 C 0.88231 0.81554 0.15218 0.0
H1596 H 0.90501 0.76893 0.16567 0.0
H1597 H 0.80399 0.89678 0.07356 0.0
H1598 H 0.51638 0.55305 0.37209 0.0
H1599 H 0.48245 0.56583 0.36096 0.0
H1600 H 0.45103 0.57715 0.39841 0.0
H1601 H 0.48475 0.56459 0.40959 0.0
H1602 H 0.42222 0.55799 0.37985 0.0
H1603 H 0.47478 0.61934 0.38338 0.0
H1604 H 0.51107 0.6376 0.37971 0.0
H1605 H 0.50312 0.63 0.3381 0.0
H1606 H 0.46689 0.61139 0.34154 0.0
H1607 H 0.34046 0.6406 0.37244 0.0
H1608 H 0.37175 0.61652 0.37785 0.0
H1609 H 0.39587 0.62144 0.33809 0.0
H1610 H 0.36474 0.6462 0.33265 0.0
H1611 H 0.42875 0.62806 0.35438 0.0
H1612 H 0.37347 0.57196 0.3505 0.0
H1613 H 0.33717 0.55364 0.35395 0.0
H1614 H 0.34981 0.55033 0.39534 0.0
H1615 H 0.38607 0.56892 0.39217 0.0
C1616 C 0.50211 0.55792 0.37795 0.0
C1617 C 0.50333 0.55796 0.39173 0.0
C1618 C 0.48278 0.56528 0.37157 0.0
C1619 C 0.4643 0.57261 0.37887 0.0
C1620 C 0.46509 0.57157 0.3926 0.0
C1621 C 0.48443 0.56447 0.39897 0.0
C1622 C 0.44467 0.58284 0.37236 0.0
C1623 C 0.42357 0.57333 0.37429 0.0
C1624 C 0.44657 0.60249 0.36479 0.0
C1625 C 0.46828 0.61373 0.36272 0.0
C1626 C 0.48086 0.62139 0.37345 0.0
C1627 C 0.5014 0.63183 0.37142 0.0
C1628 C 0.50943 0.63489 0.35868 0.0
C1629 C 0.4969 0.62757 0.34796 0.0
C1630 C 0.47637 0.61708 0.34994 0.0
C1631 C 0.35222 0.63638 0.36476 0.0
C1632 C 0.35005 0.64541 0.3521 0.0
C1633 C 0.37009 0.62244 0.36786 0.0
C1634 C 0.38609 0.61687 0.35835 0.0
C1635 C 0.38372 0.62543 0.3456 0.0
C1636 C 0.36587 0.63954 0.3425 0.0
C1637 C 0.40603 0.60349 0.36206 0.0
C1638 C 0.42728 0.61245 0.35966 0.0
C1639 C 0.40424 0.58324 0.36912 0.0
C1640 C 0.38246 0.57197 0.3711 0.0
C1641 C 0.36846 0.56747 0.36035 0.0
C1642 C 0.34789 0.55701 0.36226 0.0
C1643 C 0.34117 0.55086 0.37486 0.0
C1644 C 0.35504 0.55511 0.38558 0.0
C1645 C 0.37562 0.56558 0.38373 0.0
H1646 H 0.32524 0.54277 0.37631 0.0
H1647 H 0.52533 0.64298 0.35712 0.0
H1648 H 0.38957 0.08517 0.12429 0.0
H1649 H 0.3656 0.11685 0.12901 0.0
H1650 H 0.3785 0.14347 0.09047 0.0
H1651 H 0.40316 0.11189 0.08575 0.0
H1652 H 0.38304 0.17497 0.10799 0.0
H1653 H 0.32646 0.12201 0.09902 0.0
H1654 H 0.30649 0.08618 0.10019 0.0
H1655 H 0.29567 0.09576 0.14144 0.0
H1656 H 0.31586 0.13152 0.14056 0.0
H1657 H 0.30501 0.26236 0.12181 0.0
H1658 H 0.31933 0.22846 0.11129 0.0
H1659 H 0.32658 0.19751 0.14918 0.0
H1660 H 0.31271 0.2314 0.15978 0.0
H1661 H 0.30838 0.16892 0.12867 0.0
H1662 H 0.37002 0.21942 0.13737 0.0
H1663 H 0.38957 0.25545 0.13576 0.0
H1664 H 0.3896 0.2503 0.09375 0.0
H1665 H 0.36973 0.21436 0.09513 0.0
C1666 C 0.38715 0.09757 0.11671 0.0
C1667 C 0.39837 0.09594 0.10463 0.0
C1668 C 0.37327 0.11567 0.11942 0.0
C1669 C 0.36996 0.13248 0.11005 0.0
C1670 C 0.38073 0.13069 0.09785 0.0
C1671 C 0.39477 0.11258 0.09515 0.0
C1672 C 0.35654 0.15255 0.11345 0.0
C1673 C 0.36649 0.17362 0.11221 0.0
C1674 C 0.33503 0.1509 0.11913 0.0
C1675 C 0.32282 0.1294 0.11973 0.0
C1676 C 0.31997 0.11641 0.10836 0.0
C1677 C 0.30858 0.09612 0.10897 0.0
C1678 C 0.29985 0.08868 0.12089 0.0
C1679 C 0.30245 0.10155 0.13221 0.0
C1680 C 0.31383 0.12185 0.13166 0.0
C1681 C 0.3093 0.2482 0.12788 0.0
C1682 C 0.30784 0.24958 0.14163 0.0
C1683 C 0.31753 0.22889 0.12186 0.0
C1684 C 0.32409 0.21056 0.12948 0.0
C1685 C 0.32156 0.21148 0.14314 0.0
C1686 C 0.31372 0.23088 0.14917 0.0
C1687 C 0.33511 0.19101 0.12338 0.0
C1688 C 0.32473 0.17014 0.12417 0.0
C1689 C 0.35612 0.19283 0.11717 0.0
C1690 C 0.36814 0.21437 0.11635 0.0
C1691 C 0.374 0.22608 0.12779 0.0
C1692 C 0.38518 0.24646 0.12692 0.0
C1693 C 0.39075 0.2552 0.11466 0.0
C1694 C 0.38522 0.24353 0.10324 0.0
C1695 C 0.37401 0.22316 0.10406 0.0
H1696 H 0.39941 0.27098 0.11401 0.0
H1697 H 0.29104 0.07297 0.12134 0.0
H1698 H 0.49504 0.55672 0.87452 0.0
H1699 H 0.52943 0.57067 0.86451 0.0
H1700 H 0.55807 0.5798 0.90296 0.0
H1701 H 0.52363 0.56662 0.91297 0.0
H1702 H 0.5634 0.61574 0.88957 0.0
H1703 H 0.57547 0.53794 0.8807 0.0
H1704 H 0.56621 0.50072 0.87201 0.0
H1705 H 0.56223 0.52748 0.83305 0.0
H1706 H 0.57118 0.56494 0.84154 0.0
H1707 H 0.6745 0.63815 0.87466 0.0
H1708 H 0.64208 0.61623 0.88101 0.0
H1709 H 0.61417 0.62437 0.84237 0.0
H1710 H 0.64668 0.64655 0.83585 0.0
H1711 H 0.60776 0.58016 0.85418 0.0
H1712 H 0.59625 0.658 0.86356 0.0
H1713 H 0.60672 0.69467 0.87258 0.0
H1714 H 0.61039 0.66666 0.91124 0.0
H1715 H 0.60028 0.62972 0.90241 0.0
C1716 C 0.50882 0.56137 0.88082 0.0
C1717 C 0.50655 0.56069 0.89454 0.0
C1718 C 0.52851 0.56929 0.87508 0.0
C1719 C 0.54644 0.57628 0.88297 0.0
C1720 C 0.54447 0.57467 0.89665 0.0
C1721 C 0.52475 0.56707 0.90238 0.0
C1722 C 0.56663 0.58679 0.87715 0.0
C1723 C 0.5732 0.60773 0.88195 0.0
C1724 C 0.57913 0.57679 0.8669 0.0
C1725 C 0.57376 0.55429 0.86178 0.0
C1726 C 0.57243 0.53593 0.8703 0.0
C1727 C 0.56728 0.51478 0.8654 0.0
C1728 C 0.56357 0.51175 0.85199 0.0
C1729 C 0.56507 0.52986 0.84344 0.0
C1730 C 0.5702 0.55105 0.84829 0.0
C1731 C 0.6617 0.63504 0.8674 0.0
C1732 C 0.66311 0.64438 0.85477 0.0
C1733 C 0.64316 0.62247 0.87107 0.0
C1734 C 0.62563 0.61892 0.86221 0.0
C1735 C 0.62754 0.62696 0.84934 0.0
C1736 C 0.6461 0.63969 0.84566 0.0
C1737 C 0.60459 0.60866 0.86687 0.0
C1738 C 0.59784 0.588 0.8618 0.0
C1739 C 0.59191 0.61879 0.87694 0.0
C1740 C 0.59771 0.64105 0.8823 0.0
C1741 C 0.59945 0.65962 0.87397 0.0
C1742 C 0.6053 0.68046 0.87905 0.0
C1743 C 0.60927 0.68299 0.89247 0.0
C1744 C 0.60734 0.66468 0.90085 0.0
C1745 C 0.60153 0.64379 0.89581 0.0
H1746 H 0.6138 0.69914 0.89638 0.0
H1747 H 0.55958 0.49536 0.84822 0.0
H1748 H 0.19637 0.77338 0.66109 0.0
H1749 H 0.18057 0.807 0.65137 0.0
H1750 H 0.18227 0.77602 0.61317 0.0
H1751 H 0.19912 0.74261 0.62281 0.0
H1752 H 0.19042 0.81864 0.6105 0.0
H1753 H 0.13396 0.77678 0.63214 0.0
H1754 H 0.11624 0.75621 0.65028 0.0
H1755 H 0.11653 0.81541 0.67398 0.0
H1756 H 0.13454 0.83627 0.65604 0.0
H1757 H 0.10201 0.89246 0.58712 0.0
H1758 H 0.12465 0.85983 0.59298 0.0
H1759 H 0.13852 0.88905 0.63074 0.0
H1760 H 0.1163 0.92157 0.62502 0.0
H1761 H 0.12113 0.84561 0.63188 0.0
H1762 H 0.17853 0.88685 0.60885 0.0
H1763 H 0.19455 0.90602 0.58967 0.0
H1764 H 0.18941 0.84584 0.56704 0.0
H1765 H 0.17307 0.82639 0.58605 0.0
C1766 C 0.19371 0.77386 0.65059 0.0
C1767 C 0.19877 0.75529 0.64273 0.0
C1768 C 0.18454 0.79304 0.64504 0.0
C1769 C 0.17957 0.79384 0.63158 0.0
C1770 C 0.18578 0.77577 0.62358 0.0
C1771 C 0.19541 0.75669 0.62911 0.0
C1772 C 0.16681 0.81298 0.62609 0.0
C1773 C 0.17512 0.82435 0.61508 0.0
C1774 C 0.14676 0.82048 0.632 0.0
C1775 C 0.13577 0.80804 0.64278 0.0
C1776 C 0.13037 0.78538 0.64125 0.0
C1777 C 0.12026 0.77367 0.65149 0.0
C1778 C 0.1153 0.78449 0.66328 0.0
C1779 C 0.1204 0.80705 0.66484 0.0
C1780 C 0.13054 0.81883 0.65464 0.0
C1781 C 0.11014 0.89207 0.59659 0.0
C1782 C 0.1072 0.90962 0.60561 0.0
C1783 C 0.12309 0.87343 0.59991 0.0
C1784 C 0.13321 0.87203 0.61231 0.0
C1785 C 0.13081 0.88978 0.62114 0.0
C1786 C 0.1181 0.9084 0.61782 0.0
C1787 C 0.14506 0.85157 0.61656 0.0
C1788 C 0.13642 0.83984 0.6273 0.0
C1789 C 0.16447 0.84356 0.61023 0.0
C1790 C 0.17434 0.85524 0.59883 0.0
C1791 C 0.18062 0.87776 0.59975 0.0
C1792 C 0.1898 0.88867 0.58892 0.0
C1793 C 0.19293 0.87718 0.57713 0.0
C1794 C 0.18694 0.85473 0.57617 0.0
C1795 C 0.17774 0.84376 0.58697 0.0
H1796 H 0.20005 0.88564 0.56875 0.0
H1797 H 0.10748 0.77539 0.6712 0.0
H1798 H 0.98582 0.45103 0.40862 0.0
H1799 H 0.95197 0.4356 0.39898 0.0
H1800 H 0.98335 0.43482 0.36091 0.0
H1801 H 0.01717 0.4511 0.37047 0.0
H1802 H 0.94 0.44425 0.35839 0.0
H1803 H 0.98228 0.38786 0.37988 0.0
H1804 H 1.00325 0.37036 0.39794 0.0
H1805 H 0.94459 0.37131 0.42209 0.0
H1806 H 0.92334 0.38912 0.40423 0.0
H1807 H 0.86603 0.35585 0.3356 0.0
H1808 H 0.8983 0.37911 0.34122 0.0
H1809 H 0.87006 0.39184 0.37938 0.0
H1810 H 0.83789 0.36891 0.37391 0.0
H1811 H 0.91342 0.37532 0.38017 0.0
H1812 H 0.87153 0.43239 0.35749 0.0
H1813 H 0.85172 0.44847 0.33855 0.0
H1814 H 0.91125 0.44361 0.31532 0.0
H1815 H 0.93135 0.4272 0.33409 0.0
C1816 C 0.98542 0.44792 0.39815 0.0
C1817 C 0.00426 0.45204 0.39033 0.0
C1818 C 0.96607 0.439 0.39265 0.0
C1819 C 0.9653 0.43345 0.37927 0.0
C1820 C 0.9836 0.43881 0.37127 0.0
C1821 C 1.00291 0.44811 0.37674 0.0
C1822 C 0.946 0.42076 0.37396 0.0
C1823 C 0.93435 0.42902 0.36304 0.0
C1824 C 0.93859 0.40085 0.38 0.0
C1825 C 0.95127 0.39 0.39075 0.0
C1826 C 0.97389 0.38447 0.38907 0.0
C1827 C 0.98582 0.37449 0.39927 0.0
C1828 C 0.97527 0.36978 0.41116 0.0
C1829 C 0.95275 0.37499 0.41287 0.0
C1830 C 0.94075 0.38502 0.40271 0.0
C1831 C 0.86652 0.36389 0.34511 0.0
C1832 C 0.8494 0.36036 0.35433 0.0
C1833 C 0.88496 0.37721 0.34829 0.0
C1834 C 0.88658 0.38714 0.36073 0.0
C1835 C 0.86917 0.38427 0.36974 0.0
C1836 C 0.85074 0.37115 0.36657 0.0
C1837 C 0.90706 0.39912 0.36486 0.0
C1838 C 0.91907 0.39054 0.37551 0.0
C1839 C 0.91493 0.41845 0.35842 0.0
C1840 C 0.90286 0.42834 0.34715 0.0
C1841 C 0.88034 0.43455 0.34831 0.0
C1842 C 0.86907 0.44377 0.33761 0.0
C1843 C 0.8802 0.447 0.32573 0.0
C1844 C 0.90264 0.44107 0.32453 0.0
C1845 C 0.91398 0.43182 0.33519 0.0
H1846 H 0.87145 0.45414 0.31746 0.0
H1847 H 0.98454 0.36204 0.41904 0.0
H1848 H 0.34848 0.75787 0.35065 0.0
H1849 H 0.3622 0.79158 0.36113 0.0
H1850 H 0.30439 0.79276 0.38636 0.0
H1851 H 0.29104 0.75817 0.37623 0.0
H1852 H 0.34923 0.83115 0.36237 0.0
H1853 H 0.31688 0.81848 0.41532 0.0
H1854 H 0.30754 0.78778 0.43043 0.0
H1855 H 0.35279 0.74448 0.40997 0.0
H1856 H 0.36258 0.77499 0.39485 0.0
H1857 H 0.37519 0.93056 0.39445 0.0
H1858 H 0.3531 0.89833 0.38767 0.0
H1859 H 0.3964 0.85515 0.40993 0.0
H1860 H 0.41785 0.88749 0.41726 0.0
H1861 H 0.35683 0.83854 0.41061 0.0
H1862 H 0.40419 0.86527 0.37625 0.0
H1863 H 0.41982 0.893 0.36098 0.0
H1864 H 0.35515 0.90261 0.34382 0.0
H1865 H 0.33909 0.87512 0.35912 0.0
C1866 C 0.3386 0.76528 0.35841 0.0
C1867 C 0.31866 0.75528 0.36262 0.0
C1868 C 0.34647 0.78465 0.3644 0.0
C1869 C 0.3345 0.79473 0.37465 0.0
C1870 C 0.31423 0.78511 0.37867 0.0
C1871 C 0.30652 0.76541 0.37281 0.0
C1872 C 0.34348 0.81525 0.381 0.0
C1873 C 0.35075 0.83274 0.37293 0.0
C1874 C 0.34589 0.81735 0.39478 0.0
C1875 C 0.34023 0.79894 0.40386 0.0
C1876 C 0.32485 0.80242 0.41407 0.0
C1877 C 0.31949 0.78505 0.42263 0.0
C1878 C 0.3295 0.76417 0.42113 0.0
C1879 C 0.34497 0.76063 0.41109 0.0
C1880 C 0.35041 0.77794 0.40251 0.0
C1881 C 0.37971 0.91424 0.39811 0.0
C1882 C 0.39838 0.91152 0.40628 0.0
C1883 C 0.36714 0.89579 0.39418 0.0
C1884 C 0.37343 0.87418 0.39798 0.0
C1885 C 0.39124 0.8716 0.4068 0.0
C1886 C 0.40352 0.89012 0.41099 0.0
C1887 C 0.3627 0.85425 0.39195 0.0
C1888 C 0.35505 0.83697 0.40007 0.0
C1889 C 0.3608 0.85187 0.37817 0.0
C1890 C 0.3704 0.86834 0.36892 0.0
C1891 C 0.39329 0.87341 0.36928 0.0
C1892 C 0.40222 0.88907 0.36061 0.0
C1893 C 0.38847 0.89961 0.35146 0.0
C1894 C 0.36577 0.89447 0.35093 0.0
C1895 C 0.35674 0.87884 0.35959 0.0
H1896 H 0.39542 0.91173 0.34476 0.0
H1897 H 0.32531 0.75075 0.42776 0.0
H1898 H 0.98435 0.56604 0.09722 0.0
H1899 H 0.95051 0.58177 0.10675 0.0
H1900 H 0.97654 0.5704 0.14561 0.0
H1901 H 0.01027 0.55386 0.13609 0.0
H1902 H 0.93269 0.56364 0.14551 0.0
H1903 H 0.98072 0.62177 0.13126 0.0
H1904 H 0.00515 0.64226 0.11602 0.0
H1905 H 0.95019 0.65169 0.08962 0.0
H1906 H 0.9255 0.63096 0.10462 0.0
H1907 H 0.85922 0.65058 0.17174 0.0
H1908 H 0.89188 0.62783 0.16599 0.0
H1909 H 0.86811 0.62253 0.12623 0.0
H1910 H 0.83551 0.6448 0.13183 0.0
H1911 H 0.91268 0.63878 0.129 0.0
H1912 H 0.86517 0.57882 0.14431 0.0
H1913 H 0.84198 0.55951 0.16071 0.0
H1914 H 0.89791 0.55594 0.18691 0.0
H1915 H 0.92135 0.57553 0.17072 0.0
C1916 C 0.98277 0.56659 0.1078 0.0
C1917 C 1.0001 0.55894 0.1159 0.0
C1918 C 0.96344 0.57568 0.11324 0.0
C1919 C 0.96122 0.57784 0.1269 0.0
C1920 C 0.97794 0.56907 0.13505 0.0
C1921 C 0.99721 0.55962 0.12959 0.0
C1922 C 0.94204 0.59035 0.13252 0.0
C1923 C 0.9285 0.58019 0.14203 0.0
C1924 C 0.93655 0.61202 0.12804 0.0
C1925 C 0.9513 0.62464 0.11902 0.0
C1926 C 0.97388 0.62808 0.12216 0.0
C1927 C 0.98777 0.63976 0.11357 0.0
C1928 C 0.97924 0.64823 0.10185 0.0
C1929 C 0.95678 0.6451 0.0987 0.0
C1930 C 0.94282 0.6334 0.10725 0.0
C1931 C 0.8608 0.6443 0.16182 0.0
C1932 C 0.84477 0.64963 0.15224 0.0
C1933 C 0.87944 0.63129 0.15857 0.0
C1934 C 0.88239 0.62359 0.14568 0.0
C1935 C 0.86614 0.62837 0.13622 0.0
C1936 C 0.84747 0.64108 0.13947 0.0
C1937 C 0.90303 0.61181 0.14166 0.0
C1938 C 0.91696 0.62226 0.13251 0.0
C1939 C 0.90902 0.59067 0.14667 0.0
C1940 C 0.89494 0.57888 0.15637 0.0
C1941 C 0.87246 0.57412 0.15362 0.0
C1942 C 0.85929 0.56307 0.16286 0.0
C1943 C 0.86844 0.55657 0.17486 0.0
C1944 C 0.89082 0.56103 0.17762 0.0
C1945 C 0.90406 0.57209 0.16841 0.0
H1946 H 0.85822 0.54801 0.182 0.0
H1947 H 0.99002 0.65727 0.09521 0.0
H1948 H 0.19797 0.23398 0.84967 0.0
H1949 H 0.18332 0.20015 0.85966 0.0
H1950 H 0.18578 0.23134 0.89777 0.0
H1951 H 0.20117 0.26524 0.88782 0.0
H1952 H 0.19583 0.18744 0.89959 0.0
H1953 H 0.13741 0.23062 0.88073 0.0
H1954 H 0.11818 0.25225 0.86358 0.0
H1955 H 0.11622 0.19442 0.83876 0.0
H1956 H 0.13574 0.17251 0.85569 0.0
H1957 H 0.10993 0.11284 0.92465 0.0
H1958 H 0.13273 0.14516 0.9186 0.0
H1959 H 0.14076 0.11846 0.87961 0.0
H1960 H 0.11824 0.08623 0.88551 0.0
H1961 H 0.12452 0.16182 0.88006 0.0
H1962 H 0.18387 0.11898 0.89988 0.0
H1963 H 0.20206 0.09836 0.91783 0.0
H1964 H 0.20011 0.15686 0.9421 0.0
H1965 H 0.18162 0.17776 0.92434 0.0
C1966 C 0.19572 0.23357 0.86021 0.0
C1967 C 0.20046 0.2524 0.86793 0.0
C1968 C 0.18727 0.21422 0.86591 0.0
C1969 C 0.18289 0.21339 0.87942 0.0
C1970 C 0.18888 0.23165 0.88731 0.0
C1971 C 0.19767 0.25101 0.88161 0.0
C1972 C 0.17067 0.19405 0.88502 0.0
C1973 C 0.18009 0.182 0.89544 0.0
C1974 C 0.15011 0.18691 0.87962 0.0
C1975 C 0.13821 0.19998 0.86944 0.0
C1976 C 0.13302 0.22255 0.87158 0.0
C1977 C 0.12205 0.23486 0.8619 0.0
C1978 C 0.11602 0.22473 0.85008 0.0
C1979 C 0.12091 0.20225 0.84792 0.0
C1980 C 0.13191 0.18988 0.85756 0.0
C1981 C 0.11685 0.11367 0.91485 0.0
C1982 C 0.11209 0.09698 0.90554 0.0
C1983 C 0.12991 0.13214 0.91143 0.0
C1984 C 0.13838 0.13423 0.89864 0.0
C1985 C 0.13433 0.11721 0.88951 0.0
C1986 C 0.12145 0.09875 0.89293 0.0
C1987 C 0.14996 0.15482 0.89436 0.0
C1988 C 0.14025 0.16726 0.88423 0.0
C1989 C 0.17 0.16241 0.90017 0.0
C1990 C 0.18113 0.14986 0.91084 0.0
C1991 C 0.18712 0.12739 0.90909 0.0
C1992 C 0.19754 0.11566 0.91922 0.0
C1993 C 0.20218 0.12627 0.93111 0.0
C1994 C 0.19647 0.14865 0.93289 0.0
C1995 C 0.18604 0.16045 0.92279 0.0
H1996 H 0.21025 0.11717 0.93894 0.0
H1997 H 0.10753 0.23429 0.84259 0.0
H1998 H 0.50689 0.46899 0.63149 0.0
H1999 H 0.54166 0.45618 0.64166 0.0
H2000 H 0.54721 0.40438 0.61245 0.0
H2001 H 0.51319 0.41747 0.60205 0.0
H2002 H 0.5535 0.41935 0.65312 0.0
H2003 H 0.59922 0.39217 0.60517 0.0
H2004 H 0.60221 0.4044 0.58216 0.0
H2005 H 0.58368 0.47087 0.59338 0.0
H2006 H 0.58088 0.45912 0.61648 0.0
H2007 H 0.63579 0.33748 0.66572 0.0
H2008 H 0.60444 0.36126 0.65952 0.0
H2009 H 0.65023 0.40877 0.64264 0.0
H2010 H 0.68142 0.38429 0.64811 0.0
H2011 H 0.62054 0.40298 0.62632 0.0
H2012 H 0.61698 0.41885 0.67181 0.0
H2013 H 0.61579 0.41125 0.69555 0.0
H2014 H 0.554 0.37608 0.69079 0.0
H2015 H 0.55495 0.38321 0.66698 0.0
C2016 C 0.51567 0.45502 0.62717 0.0
C2017 C 0.50734 0.44441 0.61587 0.0
C2018 C 0.53549 0.44765 0.63303 0.0
C2019 C 0.5473 0.42951 0.62773 0.0
C2020 C 0.53879 0.41877 0.61656 0.0
C2021 C 0.51922 0.42625 0.61063 0.0
C2022 C 0.56826 0.42133 0.6339 0.0
C2023 C 0.56824 0.41591 0.6473 0.0
C2024 C 0.58777 0.41743 0.62643 0.0
C2025 C 0.58969 0.4247 0.61256 0.0
C2026 C 0.59591 0.40942 0.60274 0.0
C2027 C 0.59754 0.41627 0.58968 0.0
C2028 C 0.59308 0.43838 0.58631 0.0
C2029 C 0.58706 0.45372 0.596 0.0
C2030 C 0.58542 0.44697 0.60908 0.0
C2031 C 0.63915 0.35321 0.66092 0.0
C2032 C 0.66101 0.35902 0.65736 0.0
C2033 C 0.62121 0.36691 0.65742 0.0
C2034 C 0.62483 0.38702 0.65066 0.0
C2035 C 0.64686 0.39332 0.64775 0.0
C2036 C 0.66472 0.37937 0.65094 0.0
C2037 C 0.60572 0.40035 0.64553 0.0
C2038 C 0.60601 0.40669 0.63226 0.0
C2039 C 0.58681 0.40577 0.65326 0.0
C2040 C 0.58613 0.40145 0.66758 0.0
C2041 C 0.60321 0.40937 0.67581 0.0
C2042 C 0.60257 0.40516 0.68928 0.0
C2043 C 0.58485 0.39315 0.69467 0.0
C2044 C 0.56772 0.38537 0.6866 0.0
C2045 C 0.56828 0.38952 0.67311 0.0
H2046 H 0.58439 0.38991 0.7051 0.0
H2047 H 0.59434 0.44364 0.57619 0.0
H2048 H 0.25022 0.29777 0.20258 0.0
H2049 H 0.2365 0.28373 0.22363 0.0
H2050 H 0.30294 0.26216 0.23367 0.0
H2051 H 0.31668 0.27585 0.21264 0.0
H2052 H 0.27369 0.2301 0.23882 0.0
H2053 H 0.27918 0.30823 0.24808 0.0
H2054 H 0.27245 0.34831 0.24455 0.0
H2055 H 0.20191 0.33786 0.24823 0.0
H2056 H 0.20821 0.29764 0.2516 0.0
H2057 H 0.25334 0.20824 0.30676 0.0
H2058 H 0.26748 0.22256 0.28586 0.0
H2059 H 0.20105 0.24323 0.27517 0.0
H2060 H 0.18687 0.22918 0.29601 0.0
H2061 H 0.23053 0.27582 0.27045 0.0
H2062 H 0.22522 0.19756 0.26111 0.0
H2063 H 0.23213 0.15752 0.26471 0.0
H2064 H 0.30265 0.16836 0.26131 0.0
H2065 H 0.29617 0.20854 0.25786 0.0
C2066 C 0.26194 0.29023 0.20932 0.0
C2067 C 0.28455 0.28798 0.20592 0.0
C2068 C 0.25408 0.28224 0.22138 0.0
C2069 C 0.2687 0.27196 0.2303 0.0
C2070 C 0.29132 0.26995 0.22696 0.0
C2071 C 0.29917 0.2779 0.21494 0.0
C2072 C 0.2604 0.26273 0.24295 0.0
C2073 C 0.26452 0.2402 0.24582 0.0
C2074 C 0.248 0.27571 0.25198 0.0
C2075 C 0.24416 0.29989 0.24996 0.0
C2076 C 0.26222 0.31445 0.24802 0.0
C2077 C 0.25849 0.3372 0.24608 0.0
C2078 C 0.23676 0.34562 0.24613 0.0
C2079 C 0.21873 0.33131 0.24817 0.0
C2080 C 0.22237 0.30853 0.25011 0.0
C2081 C 0.24172 0.21566 0.29991 0.0
C2082 C 0.21896 0.21752 0.30307 0.0
C2083 C 0.24982 0.22381 0.28795 0.0
C2084 C 0.23531 0.23391 0.27889 0.0
C2085 C 0.21258 0.23558 0.28199 0.0
C2086 C 0.20448 0.22742 0.29391 0.0
C2087 C 0.24382 0.2432 0.26631 0.0
C2088 C 0.23972 0.26574 0.26346 0.0
C2089 C 0.25628 0.23024 0.2573 0.0
C2090 C 0.26022 0.20609 0.25936 0.0
C2091 C 0.24221 0.19144 0.26124 0.0
C2092 C 0.24604 0.16871 0.26323 0.0
C2093 C 0.26782 0.16041 0.26327 0.0
C2094 C 0.2858 0.17482 0.26129 0.0
C2095 C 0.28205 0.19756 0.25931 0.0
H2096 H 0.27075 0.14282 0.26481 0.0
H2097 H 0.23391 0.36324 0.24462 0.0
H2098 H 0.02435 0.93956 0.54827 0.0
H2099 H 0.01066 0.95311 0.52724 0.0
H2100 H 0.03969 0.01754 0.535 0.0
H2101 H 0.05306 0.00418 0.5563 0.0
H2102 H 0.99855 0.02221 0.52597 0.0
H2103 H 0.06269 0.98046 0.51237 0.0
H2104 H 0.08731 0.94762 0.51097 0.0
H2105 H 0.03453 0.90976 0.49328 0.0
H2106 H 0.00949 0.9423 0.49473 0.0
H2107 H 0.98666 0.06546 0.46167 0.0
H2108 H 1.00066 0.0517 0.4826 0.0
H2109 H 0.97054 0.9877 0.47507 0.0
H2110 H 0.95676 1.0013 0.4539 0.0
H2111 H 0.0122 0.98276 0.48394 0.0
H2112 H 0.9481 0.0246 0.49755 0.0
H2113 H 0.92356 0.0575 0.49891 0.0
H2114 H 0.97642 0.09529 0.51656 0.0
H2115 H 1.00139 0.06268 0.51515 0.0
C2116 C 0.02804 0.95657 0.54548 0.0
C2117 C 0.03989 0.97077 0.55398 0.0
C2118 C 0.02024 0.96428 0.53339 0.0
C2119 C 0.02433 0.9863 0.52941 0.0
C2120 C 0.03633 1.00048 0.53783 0.0
C2121 C 0.04407 0.99279 0.54998 0.0
C2122 C 0.01538 0.99467 0.51669 0.0
C2123 C 1.00184 0.01377 0.51675 0.0
C2124 C 0.0191 0.98334 0.50468 0.0
C2125 C 0.03415 0.96377 0.50377 0.0
C2126 C 0.05628 0.96508 0.50827 0.0
C2127 C 0.07032 0.94653 0.50745 0.0
C2128 C 0.06247 0.9266 0.50207 0.0
C2129 C 0.04058 0.9252 0.49746 0.0
C2130 C 0.02646 0.9437 0.49826 0.0
C2131 C 0.98284 0.04849 0.46448 0.0
C2132 C 0.9705 0.03451 0.4561 0.0
C2133 C 0.99081 0.04066 0.4765 0.0
C2134 C 0.98647 0.01872 0.48052 0.0
C2135 C 0.97408 0.00471 0.4722 0.0
C2136 C 0.96613 0.01253 0.46012 0.0
C2137 C 0.9954 0.01031 0.49322 0.0
C2138 C 0.00893 0.9912 0.49316 0.0
C2139 C 0.99168 0.02164 0.50523 0.0
C2140 C 0.97668 0.04125 0.50613 0.0
C2141 C 0.95455 0.03997 0.50163 0.0
C2142 C 0.94055 0.05856 0.50243 0.0
C2143 C 0.94844 0.07849 0.50779 0.0
C2144 C 0.97034 0.07985 0.5124 0.0
C2145 C 0.98441 0.06131 0.51161 0.0
H2146 H 0.93758 0.09286 0.5084 0.0
H2147 H 0.07337 0.91225 0.50144 0.0
H2148 H 0.19099 0.72682 0.71353 0.0
H2149 H 0.20453 0.74153 0.73438 0.0
H2150 H 0.27175 0.72334 0.72381 0.0
H2151 H 0.25824 0.70825 0.70291 0.0
H2152 H 0.26344 0.71421 0.74937 0.0
H2153 H 0.25386 0.77696 0.72083 0.0
H2154 H 0.23349 0.80149 0.70559 0.0
H2155 H 0.18494 0.81551 0.73543 0.0
H2156 H 0.20485 0.7908 0.75081 0.0
H2157 H 0.31936 0.78151 0.79584 0.0
H2158 H 0.30552 0.76608 0.77524 0.0
H2159 H 0.23831 0.78361 0.78621 0.0
H2160 H 0.2521 0.79932 0.80689 0.0
H2161 H 0.24651 0.79295 0.76054 0.0
H2162 H 0.25628 0.73045 0.78915 0.0
H2163 H 0.27675 0.70608 0.80443 0.0
H2164 H 0.32503 0.69167 0.7745 0.0
H2165 H 0.30502 0.71623 0.75908 0.0
C2166 C 0.20865 0.72576 0.71565 0.0
C2167 C 0.22355 0.71646 0.70649 0.0
C2168 C 0.21638 0.7343 0.72757 0.0
C2169 C 0.23922 0.73393 0.73058 0.0
C2170 C 0.25407 0.72391 0.72168 0.0
C2171 C 0.24632 0.7153 0.70973 0.0
C2172 C 0.24758 0.74444 0.74288 0.0
C2173 C 0.25999 0.73151 0.75172 0.0
C2174 C 0.24267 0.7669 0.74613 0.0
C2175 C 0.23073 0.78186 0.73693 0.0
C2176 C 0.23875 0.78514 0.72411 0.0
C2177 C 0.2273 0.7991 0.71545 0.0
C2178 C 0.2079 0.81001 0.71953 0.0
C2179 C 0.19995 0.80702 0.73228 0.0
C2180 C 0.21132 0.79306 0.74098 0.0
C2181 C 0.30163 0.78226 0.79386 0.0
C2182 C 0.28682 0.79159 0.80306 0.0
C2183 C 0.29373 0.77329 0.78209 0.0
C2184 C 0.27083 0.77333 0.77925 0.0
C2185 C 0.25605 0.7833 0.78821 0.0
C2186 C 0.26395 0.79227 0.80003 0.0
C2187 C 0.26237 0.76273 0.76701 0.0
C2188 C 0.24994 0.77565 0.75819 0.0
C2189 C 0.26727 0.74027 0.76378 0.0
C2190 C 0.27926 0.72536 0.773 0.0
C2191 C 0.27135 0.72222 0.78586 0.0
C2192 C 0.28286 0.70835 0.79454 0.0
C2193 C 0.30221 0.69738 0.79045 0.0
C2194 C 0.31005 0.70021 0.77766 0.0
C2195 C 0.29862 0.71409 0.76894 0.0
H2196 H 0.3111 0.68665 0.79719 0.0
H2197 H 0.19906 0.8208 0.71281 0.0
H2198 H 0.48179 0.06726 0.04799 0.0
H2199 H 0.49619 0.05343 0.02715 0.0
H2200 H 0.4738 0.98718 0.03685 0.0
H2201 H 0.45968 1.00089 0.05794 0.0
H2202 H 0.51512 0.98594 0.02736 0.0
H2203 H 0.44649 0.01956 0.01379 0.0
H2204 H 0.41839 0.04941 0.01198 0.0
H2205 H 0.46605 0.09128 0.99254 0.0
H2206 H 0.49454 0.06178 0.99439 0.0
H2207 H 0.52798 0.93948 0.96367 0.0
H2208 H 0.51409 0.95318 0.98467 0.0
H2209 H 0.53788 0.01911 0.9754 0.0
H2210 H 0.55161 0.00553 0.95419 0.0
H2211 H 0.49589 0.02046 0.98466 0.0
H2212 H 0.56447 0.98651 0.9982 0.0
H2213 H 0.59233 0.95643 0.99994 0.0
H2214 H 0.54437 0.91486 0.01935 0.0
H2215 H 0.51612 0.9446 0.01756 0.0
C2216 C 0.47973 0.04976 0.04567 0.0
C2217 C 0.4695 0.03519 0.05464 0.0
C2218 C 0.48793 0.04188 0.0337 0.0
C2219 C 0.48589 0.01928 0.03032 0.0
C2220 C 0.47555 0.00469 0.03922 0.0
C2221 C 0.46739 0.01257 0.05125 0.0
C2222 C 0.49518 0.01085 0.0177 0.0
C2223 C 0.51064 0.99327 0.018 0.0
C2224 C 0.48983 0.02077 0.00549 0.0
C2225 C 0.47271 0.03853 1.00434 0.0
C2226 C 0.45104 0.0352 0.00922 0.0
C2227 C 0.43503 0.05204 0.00817 0.0
C2228 C 0.44045 0.07225 1.00218 0.0
C2229 C 0.46188 0.07563 0.99719 0.0
C2230 C 0.47796 0.05884 0.99823 0.0
C2231 C 0.53048 0.95687 0.96612 0.0
C2232 C 0.54097 0.9714 0.95724 0.0
C2233 C 0.52257 0.96467 0.97818 0.0
C2234 C 0.52509 0.98715 0.9817 0.0
C2235 C 0.53576 1.00168 0.97291 0.0
C2236 C 0.54371 0.99388 0.96082 0.0
C2237 C 0.51584 0.99558 0.99433 0.0
C2238 C 0.50037 0.01314 0.99402 0.0
C2239 C 0.52114 0.98561 0.00652 0.0
C2240 C 0.53812 0.96772 0.00764 0.0
C2241 C 0.55981 0.9709 1.00274 0.0
C2242 C 0.57568 0.95392 1.00376 0.0
C2243 C 0.57011 0.93373 0.00972 0.0
C2244 C 0.54866 0.9305 0.01472 0.0
C2245 C 0.53272 0.94742 0.01372 0.0
H2246 H 0.58242 0.9206 0.01049 0.0
H2247 H 0.42803 0.08526 1.00137 0.0
H2248 H 0.25488 0.7121 0.30598 0.0
H2249 H 0.24082 0.72707 0.28524 0.0
H2250 H 0.3083 0.73531 0.27143 0.0
H2251 H 0.32243 0.72081 0.29219 0.0
H2252 H 0.28497 0.77167 0.26656 0.0
H2253 H 0.27363 0.69315 0.25987 0.0
H2254 H 0.25953 0.65568 0.26526 0.0
H2255 H 0.19229 0.68027 0.26458 0.0
H2256 H 0.20602 0.71798 0.25935 0.0
H2257 H 0.26009 0.79273 0.19925 0.0
H2258 H 0.27387 0.77801 0.22011 0.0
H2259 H 0.20619 0.76867 0.23334 0.0
H2260 H 0.19236 0.78281 0.21243 0.0
H2261 H 0.22946 0.73297 0.23862 0.0
H2262 H 0.24056 0.81139 0.24527 0.0
H2263 H 0.25448 0.84898 0.23998 0.0
H2264 H 0.32187 0.82481 0.24087 0.0
H2265 H 0.30833 0.787 0.246 0.0
C2266 C 0.26672 0.71688 0.29848 0.0
C2267 C 0.28979 0.71521 0.30075 0.0
C2268 C 0.25866 0.72541 0.2866 0.0
C2269 C 0.27349 0.73222 0.2767 0.0
C2270 C 0.29651 0.73025 0.27891 0.0
C2271 C 0.30457 0.72184 0.29078 0.0
C2272 C 0.26514 0.74201 0.26419 0.0
C2273 C 0.27305 0.76306 0.26036 0.0
C2274 C 0.24916 0.7311 0.25624 0.0
C2275 C 0.24087 0.70843 0.25934 0.0
C2276 C 0.25585 0.69061 0.26097 0.0
C2277 C 0.24792 0.66932 0.26397 0.0
C2278 C 0.22503 0.66561 0.26529 0.0
C2279 C 0.21002 0.68318 0.26357 0.0
C2280 C 0.21786 0.7045 0.26057 0.0
C2281 C 0.24815 0.78777 0.20666 0.0
C2282 C 0.22512 0.78898 0.20417 0.0
C2283 C 0.25605 0.77939 0.21861 0.0
C2284 C 0.24109 0.77234 0.22839 0.0
C2285 C 0.2181 0.77391 0.22598 0.0
C2286 C 0.2102 0.78211 0.21401 0.0
C2287 C 0.2493 0.76264 0.24096 0.0
C2288 C 0.24137 0.74161 0.24481 0.0
C2289 C 0.26523 0.77358 0.24894 0.0
C2290 C 0.27341 0.79632 0.24589 0.0
C2291 C 0.25834 0.81405 0.24424 0.0
C2292 C 0.26616 0.83541 0.24129 0.0
C2293 C 0.28904 0.83927 0.24006 0.0
C2294 C 0.30415 0.82179 0.24181 0.0
C2295 C 0.29641 0.8004 0.24475 0.0
H2296 H 0.29506 0.85581 0.23777 0.0
H2297 H 0.21893 0.64912 0.26763 0.0
H2298 H 0.45819 0.00704 0.45312 0.0
H2299 H 0.47258 0.02045 0.47418 0.0
H2300 H 0.49592 0.95426 0.48328 0.0
H2301 H 0.48131 0.9407 0.46241 0.0
H2302 H 0.47744 0.97283 0.50437 0.0
H2303 H 0.53165 0.99488 0.47217 0.0
H2304 H 0.54477 0.0131 0.45194 0.0
H2305 H 0.52265 0.07651 0.46654 0.0
H2306 H 0.50912 0.05861 0.4868 0.0
H2307 H 0.5504 1.00116 0.55674 0.0
H2308 H 0.53618 0.98779 0.53563 0.0
H2309 H 0.51298 0.05401 0.52649 0.0
H2310 H 0.52742 0.06753 0.5474 0.0
H2311 H 0.5314 0.03543 0.50541 0.0
H2312 H 0.47715 0.01344 0.53758 0.0
H2313 H 0.46396 0.99527 0.55781 0.0
H2314 H 0.48606 0.93181 0.54327 0.0
H2315 H 0.49966 0.94966 0.523 0.0
C2316 C 0.46623 0.99531 0.45965 0.0
C2317 C 0.46866 0.97281 0.45604 0.0
C2318 C 0.47458 1.00303 0.47166 0.0
C2319 C 0.48565 0.98844 0.48026 0.0
C2320 C 0.4875 0.96586 0.47682 0.0
C2321 C 0.47916 0.95814 0.46485 0.0
C2322 C 0.49561 0.99664 0.49275 0.0
C2323 C 0.48944 0.98635 0.50457 0.0
C2324 C 0.51097 0.01456 0.49309 0.0
C2325 C 0.51917 0.02537 0.48094 0.0
C2326 C 0.52943 0.01268 0.47103 0.0
C2327 C 0.53697 0.02296 0.45956 0.0
C2328 C 0.53449 0.04594 0.45794 0.0
C2329 C 0.52452 0.05871 0.4678 0.0
C2330 C 0.51693 0.04851 0.47928 0.0
C2331 C 0.54244 0.01291 0.55019 0.0
C2332 C 0.53998 0.0354 0.5538 0.0
C2333 C 0.53419 0.00522 0.53815 0.0
C2334 C 0.52318 0.01982 0.52952 0.0
C2335 C 0.52134 0.0424 0.53296 0.0
C2336 C 0.52959 0.0501 0.54496 0.0
C2337 C 0.51324 0.01162 0.51703 0.0
C2338 C 0.5194 0.02191 0.50521 0.0
C2339 C 0.49787 0.99371 0.51669 0.0
C2340 C 0.48963 0.98293 0.52884 0.0
C2341 C 0.47935 0.99564 0.53874 0.0
C2342 C 0.47177 0.98539 0.5502 0.0
C2343 C 0.47422 0.96241 0.55184 0.0
C2344 C 0.4842 0.94961 0.54199 0.0
C2345 C 0.49183 0.95978 0.53051 0.0
H2346 H 0.46834 0.9545 0.56072 0.0
H2347 H 0.54034 0.05387 0.44905 0.0
H2348 H 0.25751 0.3006 0.80632 0.0
H2349 H 0.27118 0.28627 0.78529 0.0
H2350 H 0.20523 0.26238 0.77601 0.0
H2351 H 0.19154 0.27636 0.79701 0.0
H2352 H 0.23544 0.23102 0.77098 0.0
H2353 H 0.22712 0.30869 0.76103 0.0
H2354 H 0.23272 0.34905 0.76412 0.0
H2355 H 0.30343 0.34053 0.75982 0.0
H2356 H 0.29828 0.30004 0.75687 0.0
H2357 H 0.25359 0.20791 0.70296 0.0
H2358 H 0.24002 0.22218 0.72403 0.0
H2359 H 0.3062 0.24531 0.73344 0.0
H2360 H 0.3198 0.23134 0.71241 0.0
H2361 H 0.27595 0.27703 0.73841 0.0
H2362 H 0.28421 0.19934 0.74831 0.0
H2363 H 0.27855 0.15899 0.74518 0.0
H2364 H 0.20786 0.16759 0.74955 0.0
H2365 H 0.21307 0.20807 0.75252 0.0
C2366 C 0.24588 0.29249 0.79975 0.0
C2367 C 0.22342 0.28967 0.80336 0.0
C2368 C 0.25371 0.28432 0.78771 0.0
C2369 C 0.23921 0.27331 0.77901 0.0
C2370 C 0.21675 0.27074 0.78255 0.0
C2371 C 0.20893 0.27886 0.79455 0.0
C2372 C 0.2475 0.26391 0.76638 0.0
C2373 C 0.24404 0.24117 0.76378 0.0
C2374 C 0.25917 0.27697 0.7571 0.0
C2375 C 0.26232 0.3013 0.75886 0.0
C2376 C 0.24388 0.31539 0.76085 0.0
C2377 C 0.24697 0.3383 0.76256 0.0
C2378 C 0.26842 0.34734 0.76221 0.0
C2379 C 0.28683 0.3335 0.76011 0.0
C2380 C 0.28383 0.31057 0.75841 0.0
C2381 C 0.26529 0.21584 0.70957 0.0
C2382 C 0.28779 0.21844 0.70599 0.0
C2383 C 0.25752 0.22397 0.72163 0.0
C2384 C 0.27211 0.23476 0.73037 0.0
C2385 C 0.29461 0.23712 0.72686 0.0
C2386 C 0.30238 0.229 0.71484 0.0
C2387 C 0.26388 0.24416 0.74301 0.0
C2388 C 0.26736 0.26689 0.74561 0.0
C2389 C 0.2522 0.23109 0.75229 0.0
C2390 C 0.24902 0.20677 0.7505 0.0
C2391 C 0.26744 0.19266 0.74849 0.0
C2392 C 0.26432 0.16976 0.74677 0.0
C2393 C 0.24285 0.16074 0.74713 0.0
C2394 C 0.22447 0.17461 0.74925 0.0
C2395 C 0.2275 0.19752 0.75097 0.0
H2396 H 0.24047 0.14301 0.7458 0.0
H2397 H 0.27078 0.36508 0.76353 0.0
H2398 H 0.0315 0.06897 0.9642 0.0
H2399 H 0.01691 0.05501 0.98493 0.0
H2400 H 0.03735 0.9884 0.97444 0.0
H2401 H 0.05164 1.00225 0.95345 0.0
H2402 H 0.99612 0.98806 0.98403 0.0
H2403 H 0.06567 0.01948 0.99784 0.0
H2404 H 0.09451 0.04853 0.99991 0.0
H2405 H 0.04799 0.09114 0.01986 0.0
H2406 H 0.01877 0.06244 0.01776 0.0
H2407 H 0.98199 0.94034 0.04724 0.0
H2408 H 0.99616 0.95412 0.02635 0.0
H2409 H 0.97471 0.02058 0.03644 0.0
H2410 H 0.96074 0.00692 0.05755 0.0
H2411 H 0.01645 0.02092 0.02706 0.0
H2412 H 0.94693 0.98925 0.01327 0.0
H2413 H 0.91826 0.96002 0.01123 0.0
H2414 H 0.96502 0.91764 0.9913 0.0
H2415 H 0.99407 0.94651 0.99338 0.0
C2416 C 0.03311 0.05136 0.96632 0.0
C2417 C 0.04284 0.03674 0.95716 0.0
C2418 C 0.02479 0.04341 0.97823 0.0
C2419 C 0.02621 0.02067 0.98136 0.0
C2420 C 0.03607 0.00602 0.97228 0.0
C2421 C 0.04434 0.01397 0.9603 0.0
C2422 C 0.01676 0.01216 0.99392 0.0
C2423 C 1.00084 0.99502 0.99346 0.0
C2424 C 0.02241 0.02161 0.00622 0.0
C2425 C 0.03997 0.03888 0.00753 0.0
C2426 C 0.06154 0.03511 1.00258 0.0
C2427 C 0.07796 0.0515 1.00378 0.0
C2428 C 0.07307 0.07169 0.00999 0.0
C2429 C 0.05175 0.0755 0.01504 0.0
C2430 C 0.03525 0.05917 0.01386 0.0
C2431 C 0.98006 0.95787 0.04499 0.0
C2432 C 0.97017 0.97252 0.05408 0.0
C2433 C 0.98813 0.96572 0.03299 0.0
C2434 C 0.98636 0.98837 0.02973 0.0
C2435 C 0.97626 1.00302 0.03872 0.0
C2436 C 0.96818 0.99517 0.05076 0.0
C2437 C 0.99581 0.99684 0.01717 0.0
C2438 C 0.01173 0.01397 0.01764 0.0
C2439 C 0.99019 0.98735 0.00488 0.0
C2440 C 0.97274 0.96997 1.00359 0.0
C2441 C 0.95115 0.97363 0.00854 0.0
C2442 C 0.93482 0.95714 0.00737 0.0
C2443 C 0.93983 0.93696 1.00117 0.0
C2444 C 0.96117 0.93326 0.99611 0.0
C2445 C 0.97757 0.9497 0.99728 0.0
H2446 H 0.92717 0.92421 1.00027 0.0
H2447 H 0.08581 0.08436 0.0109 0.0
H2448 H 0.75198 0.79673 0.7028 0.0
H2449 H 0.7382 0.78105 0.72342 0.0
H2450 H 0.80585 0.76978 0.73615 0.0
H2451 H 0.8197 0.78509 0.71554 0.0
H2452 H 0.78125 0.73375 0.74047 0.0
H2453 H 0.77369 0.81201 0.74917 0.0
H2454 H 0.76122 0.8505 0.74495 0.0
H2455 H 0.69291 0.8292 0.74606 0.0
H2456 H 0.70499 0.79051 0.75011 0.0
H2457 H 0.75767 0.70985 0.80773 0.0
H2458 H 0.77144 0.72547 0.78708 0.0
H2459 H 0.70378 0.73677 0.77438 0.0
H2460 H 0.68994 0.72153 0.79502 0.0
H2461 H 0.72838 0.77277 0.77004 0.0
H2462 H 0.73594 0.69451 0.76136 0.0
H2463 H 0.74841 0.65602 0.76558 0.0
H2464 H 0.81671 0.67732 0.76444 0.0
H2465 H 0.80463 0.71601 0.76039 0.0
C2466 C 0.76393 0.79113 0.71005 0.0
C2467 C 0.78695 0.79221 0.70751 0.0
C2468 C 0.75602 0.78219 0.72186 0.0
C2469 C 0.77098 0.7743 0.73141 0.0
C2470 C 0.79397 0.77567 0.72895 0.0
C2471 C 0.80186 0.78455 0.71716 0.0
C2472 C 0.76276 0.76403 0.7438 0.0
C2473 C 0.76992 0.74242 0.74703 0.0
C2474 C 0.74756 0.77507 0.75223 0.0
C2475 C 0.74026 0.79832 0.74981 0.0
C2476 C 0.75601 0.8155 0.74841 0.0
C2477 C 0.74902 0.83736 0.74607 0.0
C2478 C 0.72629 0.84228 0.7452 0.0
C2479 C 0.71051 0.82536 0.74671 0.0
C2480 C 0.71742 0.80346 0.74904 0.0
C2481 C 0.74572 0.71544 0.80048 0.0
C2482 C 0.7227 0.7144 0.80304 0.0
C2483 C 0.75362 0.72435 0.78866 0.0
C2484 C 0.73865 0.73223 0.77911 0.0
C2485 C 0.71567 0.73088 0.78158 0.0
C2486 C 0.70778 0.72204 0.79339 0.0
C2487 C 0.74686 0.74249 0.76671 0.0
C2488 C 0.7397 0.7641 0.76349 0.0
C2489 C 0.76206 0.73145 0.75829 0.0
C2490 C 0.76937 0.7082 0.7607 0.0
C2491 C 0.75361 0.69102 0.76212 0.0
C2492 C 0.76061 0.66916 0.76446 0.0
C2493 C 0.78334 0.66424 0.76532 0.0
C2494 C 0.79911 0.68116 0.7638 0.0
C2495 C 0.7922 0.70306 0.76146 0.0
H2496 H 0.78872 0.64731 0.76713 0.0
H2497 H 0.72091 0.85922 0.7434 0.0
H2498 H 0.75726 0.20968 0.20313 0.0
H2499 H 0.77108 0.22378 0.22417 0.0
H2500 H 0.70522 0.24783 0.23366 0.0
H2501 H 0.69141 0.2341 0.21264 0.0
H2502 H 0.73537 0.27887 0.239 0.0
H2503 H 0.72709 0.20104 0.24832 0.0
H2504 H 0.73258 0.16072 0.2449 0.0
H2505 H 0.80334 0.16891 0.24912 0.0
H2506 H 0.79829 0.20935 0.25239 0.0
H2507 H 0.75435 0.30041 0.30715 0.0
H2508 H 0.74041 0.28637 0.28611 0.0
H2509 H 0.80654 0.26386 0.27604 0.0
H2510 H 0.82053 0.27765 0.29702 0.0
H2511 H 0.77617 0.23203 0.27106 0.0
H2512 H 0.78422 0.31002 0.26176 0.0
H2513 H 0.77846 0.35028 0.26529 0.0
H2514 H 0.70774 0.34164 0.26118 0.0
H2515 H 0.71306 0.30126 0.25781 0.0
C2516 C 0.74569 0.21781 0.20975 0.0
C2517 C 0.72322 0.22072 0.20619 0.0
C2518 C 0.7536 0.22583 0.2218 0.0
C2519 C 0.73916 0.23678 0.23057 0.0
C2520 C 0.7167 0.23951 0.22707 0.0
C2521 C 0.70881 0.23154 0.21504 0.0
C2522 C 0.7475 0.24586 0.24327 0.0
C2523 C 0.74403 0.26853 0.24609 0.0
C2524 C 0.75923 0.23256 0.25242 0.0
C2525 C 0.76232 0.20826 0.25046 0.0
C2526 C 0.74383 0.19427 0.24841 0.0
C2527 C 0.74687 0.17139 0.24652 0.0
C2528 C 0.7683 0.16227 0.24676 0.0
C2529 C 0.78675 0.176 0.24892 0.0
C2530 C 0.78381 0.1989 0.2508 0.0
C2531 C 0.76595 0.29264 0.30041 0.0
C2532 C 0.78857 0.29021 0.30378 0.0
C2533 C 0.75797 0.28464 0.28837 0.0
C2534 C 0.77245 0.27413 0.27944 0.0
C2535 C 0.79504 0.27185 0.28276 0.0
C2536 C 0.80303 0.27986 0.29475 0.0
C2537 C 0.76405 0.26502 0.26678 0.0
C2538 C 0.76751 0.24235 0.26397 0.0
C2539 C 0.75226 0.27831 0.25765 0.0
C2540 C 0.74902 0.30258 0.25967 0.0
C2541 C 0.76742 0.31668 0.26172 0.0
C2542 C 0.76425 0.33952 0.26367 0.0
C2543 C 0.74275 0.3485 0.26349 0.0
C2544 C 0.72438 0.33465 0.26134 0.0
C2545 C 0.72747 0.31179 0.25939 0.0
H2546 H 0.74032 0.36619 0.265 0.0
H2547 H 0.77061 0.14455 0.2453 0.0
H2548 H 0.81991 0.23117 0.79673 0.0
H2549 H 0.80595 0.2452 0.77584 0.0
H2550 H 0.7401 0.22136 0.78535 0.0
H2551 H 0.75404 0.20699 0.80631 0.0
H2552 H 0.75043 0.2131 0.75988 0.0
H2553 H 0.75297 0.27613 0.78877 0.0
H2554 H 0.77025 0.30225 0.80444 0.0
H2555 H 0.81871 0.3209 0.77547 0.0
H2556 H 0.80191 0.29464 0.75968 0.0
H2557 H 0.69132 0.27519 0.71241 0.0
H2558 H 0.7053 0.26096 0.73324 0.0
H2559 H 0.77113 0.28494 0.7238 0.0
H2560 H 0.75716 0.29952 0.7029 0.0
H2561 H 0.7608 0.2931 0.74923 0.0
H2562 H 0.75819 0.23007 0.72032 0.0
H2563 H 0.74084 0.20398 0.70467 0.0
H2564 H 0.69244 0.18535 0.73367 0.0
H2565 H 0.70932 0.21158 0.74946 0.0
C2566 C 0.80247 0.22873 0.79437 0.0
C2567 C 0.78806 0.21803 0.80324 0.0
C2568 C 0.79449 0.2369 0.78242 0.0
C2569 C 0.77189 0.2347 0.7791 0.0
C2570 C 0.75759 0.22335 0.78773 0.0
C2571 C 0.76558 0.21515 0.79971 0.0
C2572 C 0.76319 0.24456 0.76672 0.0
C2573 C 0.75243 0.23065 0.75764 0.0
C2574 C 0.76622 0.26738 0.76363 0.0
C2575 C 0.77631 0.28325 0.77308 0.0
C2576 C 0.76742 0.28567 0.78577 0.0
C2577 C 0.77711 0.30053 0.79467 0.0
C2578 C 0.7956 0.31319 0.79096 0.0
C2579 C 0.8044 0.31106 0.77833 0.0
C2580 C 0.79479 0.2962 0.7694 0.0
C2581 C 0.70876 0.2776 0.71477 0.0
C2582 C 0.72315 0.28842 0.70593 0.0
C2583 C 0.71675 0.26932 0.72668 0.0
C2584 C 0.73936 0.27152 0.73001 0.0
C2585 C 0.75364 0.28295 0.72142 0.0
C2586 C 0.74564 0.29127 0.70947 0.0
C2587 C 0.74805 0.26164 0.74239 0.0
C2588 C 0.75881 0.27554 0.75147 0.0
C2589 C 0.74501 0.23882 0.74548 0.0
C2590 C 0.73489 0.22295 0.73603 0.0
C2591 C 0.74374 0.22054 0.72333 0.0
C2592 C 0.73401 0.2057 0.71444 0.0
C2593 C 0.71552 0.19306 0.71816 0.0
C2594 C 0.70675 0.19518 0.7308 0.0
C2595 C 0.7164 0.21001 0.73973 0.0
H2596 H 0.70801 0.18158 0.71126 0.0
H2597 H 0.80308 0.32468 0.79786 0.0
H2598 H 0.68579 0.77611 0.29432 0.0
H2599 H 0.70028 0.76081 0.27384 0.0
H2600 H 0.76653 0.78221 0.28439 0.0
H2601 H 0.75207 0.79785 0.30494 0.0
H2602 H 0.75774 0.79066 0.25883 0.0
H2603 H 0.75147 0.72799 0.28754 0.0
H2604 H 0.73256 0.70271 0.30299 0.0
H2605 H 0.6846 0.68566 0.27338 0.0
H2606 H 0.70303 0.71111 0.2578 0.0
H2607 H 0.81539 0.72666 0.21159 0.0
H2608 H 0.8016 0.74058 0.23257 0.0
H2609 H 0.73483 0.72081 0.22205 0.0
H2610 H 0.74858 0.70661 0.20098 0.0
H2611 H 0.74429 0.71123 0.24775 0.0
H2612 H 0.75045 0.77447 0.2192 0.0
H2613 H 0.76948 0.79984 0.20385 0.0
H2614 H 0.81797 0.81574 0.23338 0.0
H2615 H 0.7994 0.7902 0.24886 0.0
C2616 C 0.70345 0.77769 0.29229 0.0
C2617 C 0.71779 0.78815 0.30131 0.0
C2618 C 0.71173 0.7688 0.28058 0.0
C2619 C 0.73456 0.77001 0.27765 0.0
C2620 C 0.74886 0.78098 0.28647 0.0
C2621 C 0.74058 0.7899 0.29821 0.0
C2622 C 0.74343 0.75975 0.26541 0.0
C2623 C 0.75508 0.77322 0.25651 0.0
C2624 C 0.73955 0.73708 0.26222 0.0
C2625 C 0.72852 0.72163 0.27154 0.0
C2626 C 0.73679 0.71898 0.28435 0.0
C2627 C 0.72618 0.7046 0.29313 0.0
C2628 C 0.70736 0.69263 0.28918 0.0
C2629 C 0.69916 0.69497 0.27643 0.0
C2630 C 0.7097 0.70936 0.26761 0.0
C2631 C 0.79779 0.72507 0.21375 0.0
C2632 C 0.78307 0.71561 0.20455 0.0
C2633 C 0.78991 0.73314 0.22575 0.0
C2634 C 0.76712 0.73209 0.22881 0.0
C2635 C 0.75248 0.72189 0.21988 0.0
C2636 C 0.76036 0.7138 0.20783 0.0
C2637 C 0.75857 0.74216 0.24118 0.0
C2638 C 0.74697 0.72867 0.2501 0.0
C2639 C 0.76253 0.7648 0.24441 0.0
C2640 C 0.77366 0.78025 0.23514 0.0
C2641 C 0.76528 0.78324 0.22239 0.0
C2642 C 0.77596 0.79768 0.21367 0.0
C2643 C 0.79496 0.80935 0.21762 0.0
C2644 C 0.80327 0.80666 0.23032 0.0
C2645 C 0.79266 0.79222 0.23908 0.0
H2646 H 0.80321 0.82052 0.21086 0.0
H2647 H 0.69916 0.68151 0.29599 0.0
H2648 H 0.54813 0.5058 0.05849 0.0
H2649 H 0.53359 0.52007 0.03768 0.0
H2650 H 0.51131 0.45405 0.02727 0.0
H2651 H 0.52607 0.43965 0.04789 0.0
H2652 H 0.52949 0.47394 0.00657 0.0
H2653 H 0.47493 0.49358 0.03914 0.0
H2654 H 0.46152 0.51056 0.05972 0.0
H2655 H 0.48268 0.575 0.04638 0.0
H2656 H 0.4965 0.55834 0.02578 0.0
H2657 H 0.45633 0.5038 0.95469 0.0
H2658 H 0.47043 0.48967 0.97564 0.0
H2659 H 0.49289 0.55567 0.98594 0.0
H2660 H 0.47858 0.56994 0.96517 0.0
H2661 H 0.4746 0.53583 0.00671 0.0
H2662 H 0.5292 0.51619 0.97416 0.0
H2663 H 0.54265 0.49922 0.95359 0.0
H2664 H 0.52144 0.43478 0.96689 0.0
H2665 H 0.50758 0.45143 0.98748 0.0
C2666 C 0.5403 0.49429 0.05173 0.0
C2667 C 0.5382 0.47159 0.0549 0.0
C2668 C 0.53187 0.5025 0.03986 0.0
C2669 C 0.52104 0.4882 0.03096 0.0
C2670 C 0.51953 0.46543 0.03396 0.0
C2671 C 0.52796 0.45723 0.04579 0.0
C2672 C 0.51096 0.4969 0.01863 0.0
C2673 C 0.51728 0.4873 0.00662 0.0
C2674 C 0.49533 0.51462 0.01863 0.0
C2675 C 0.48695 0.52468 0.03098 0.0
C2676 C 0.47687 0.51135 0.04064 0.0
C2677 C 0.46917 0.52092 0.0523 0.0
C2678 C 0.4713 0.54384 0.05437 0.0
C2679 C 0.48108 0.55724 0.04477 0.0
C2680 C 0.48883 0.54775 0.03309 0.0
C2681 C 0.46407 0.51534 0.96147 0.0
C2682 C 0.4664 0.53798 0.95821 0.0
C2683 C 0.47226 0.50722 0.97341 0.0
C2684 C 0.48306 0.52154 0.9823 0.0
C2685 C 0.4847 0.54427 0.97925 0.0
C2686 C 0.47652 0.5524 0.96734 0.0
C2687 C 0.49311 0.51285 0.99465 0.0
C2688 C 0.48679 0.52247 0.00665 0.0
C2689 C 0.50875 0.49515 0.99465 0.0
C2690 C 0.51715 0.48509 0.9823 0.0
C2691 C 0.52725 0.49843 0.97266 0.0
C2692 C 0.53498 0.48887 0.961 0.0
C2693 C 0.53285 0.46595 0.95892 0.0
C2694 C 0.52305 0.45254 0.96851 0.0
C2695 C 0.51527 0.46202 0.98018 0.0
H2696 H 0.53884 0.45858 0.94989 0.0
H2697 H 0.46533 0.55122 0.0634 0.0
H2698 H 0.05169 0.51045 0.45197 0.0
H2699 H 0.03722 0.52367 0.47307 0.0
H2700 H 0.01451 0.45726 0.48211 0.0
H2701 H 0.02862 0.44403 0.46104 0.0
H2702 H 0.98267 0.4869 0.48734 0.0
H2703 H 0.06068 0.47976 0.49704 0.0
H2704 H 0.10092 0.48616 0.49383 0.0
H2705 H 0.09111 0.5566 0.49856 0.0
H2706 H 0.05074 0.55064 0.50162 0.0
H2707 H 0.95951 0.50344 0.55542 0.0
H2708 H 0.97381 0.49054 0.53422 0.0
H2709 H 0.99671 0.55702 0.52553 0.0
H2710 H 0.98279 0.56993 0.54672 0.0
H2711 H 0.02839 0.52754 0.52006 0.0
H2712 H 0.95041 0.5347 0.51045 0.0
H2713 H 0.91017 0.52831 0.51365 0.0
H2714 H 0.91989 0.45791 0.50872 0.0
H2715 H 0.96026 0.46384 0.50566 0.0
C2716 C 0.0438 0.49863 0.4585 0.0
C2717 C 0.04135 0.47617 0.45481 0.0
C2718 C 0.03556 0.5062 0.47058 0.0
C2719 C 0.02485 0.49144 0.47923 0.0
C2720 C 0.02263 0.46899 0.4756 0.0
C2721 C 0.03083 0.46143 0.46356 0.0
C2722 C 0.01542 0.49941 0.49193 0.0
C2723 C 0.99275 0.49553 0.49456 0.0
C2724 C 0.02839 0.51114 0.50125 0.0
C2725 C 0.05265 0.51476 0.49942 0.0
C2726 C 0.06707 0.49663 0.49729 0.0
C2727 C 0.08991 0.50018 0.49552 0.0
C2728 C 0.09856 0.52178 0.49596 0.0
C2729 C 0.08438 0.53988 0.4982 0.0
C2730 C 0.06153 0.53642 0.49997 0.0
C2731 C 0.9674 0.51535 0.54894 0.0
C2732 C 0.96997 0.53772 0.55277 0.0
C2733 C 0.97554 0.50796 0.5368 0.0
C2734 C 0.98626 0.52283 0.52822 0.0
C2735 C 0.98857 0.54521 0.53198 0.0
C2736 C 0.9805 0.55259 0.54409 0.0
C2737 C 0.99564 0.51502 0.51548 0.0
C2738 C 0.0183 0.51892 0.51283 0.0
C2739 C 0.98266 0.50331 0.50614 0.0
C2740 C 0.95839 0.4997 0.50796 0.0
C2741 C 0.944 0.51783 0.51016 0.0
C2742 C 0.92116 0.5143 0.51192 0.0
C2743 C 0.91248 0.49271 0.51142 0.0
C2744 C 0.92663 0.47462 0.50912 0.0
C2745 C 0.94949 0.47806 0.50736 0.0
H2746 H 0.8948 0.49001 0.51278 0.0
H2747 H 0.11624 0.52449 0.49459 0.0
H2748 H 0.04748 0.49908 0.05679 0.0
H2749 H 0.03268 0.48597 0.03577 0.0
H2750 H 0.01757 0.5537 0.02479 0.0
H2751 H 0.03197 0.56685 0.04581 0.0
H2752 H 0.98303 0.52766 0.01976 0.0
H2753 H 0.06151 0.52475 0.01096 0.0
H2754 H 0.10067 0.5141 0.01486 0.0
H2755 H 0.08305 0.44491 0.01208 0.0
H2756 H 0.04372 0.45515 0.00834 0.0
H2757 H 0.95985 0.50658 0.95204 0.0
H2758 H 0.97518 0.52012 0.97284 0.0
H2759 H 0.98945 0.45252 0.98446 0.0
H2760 H 0.97444 0.43893 0.96369 0.0
H2761 H 0.02455 0.47873 0.98905 0.0
H2762 H 0.94597 0.48179 0.99798 0.0
H2763 H 0.90687 0.49256 0.99402 0.0
H2764 H 0.9248 0.5617 0.99647 0.0
H2765 H 0.96409 0.55134 1.00026 0.0
C2766 C 0.04124 0.5112 0.04984 0.0
C2767 C 0.04094 0.53402 0.053 0.0
C2768 C 0.0328 0.50369 0.0378 0.0
C2769 C 0.02408 0.51885 0.02863 0.0
C2770 C 0.02413 0.54166 0.0317 0.0
C2771 C 0.03248 0.54916 0.04372 0.0
C2772 C 0.01422 0.51097 0.01603 0.0
C2773 C 0.99224 0.51722 0.01296 0.0
C2774 C 0.02599 0.49692 0.00727 0.0
C2775 C 0.04963 0.49072 0.0095 0.0
C2776 C 0.06596 0.50726 0.01129 0.0
C2777 C 0.08819 0.5013 0.01345 0.0
C2778 C 0.09433 0.47884 0.01375 0.0
C2779 C 0.07826 0.4623 0.01186 0.0
C2780 C 0.056 0.46817 0.00971 0.0
C2781 C 0.96605 0.49459 0.95907 0.0
C2782 C 0.96587 0.47166 0.95619 0.0
C2783 C 0.9748 0.50235 0.97098 0.0
C2784 C 0.9834 0.48733 0.98027 0.0
C2785 C 0.98298 0.46444 0.97746 0.0
C2786 C 0.97427 0.45669 0.96558 0.0
C2787 C 0.99337 0.49541 0.99279 0.0
C2788 C 0.01536 0.4892 0.99585 0.0
C2789 C 0.98162 0.50951 1.00153 0.0
C2790 C 0.95801 0.51579 0.99927 0.0
C2791 C 0.94161 0.49929 0.99756 0.0
C2792 C 0.91941 0.50533 0.99537 0.0
C2793 C 0.91337 0.5278 0.99496 0.0
C2794 C 0.92951 0.5443 0.99677 0.0
C2795 C 0.95175 0.53835 0.99895 0.0
H2796 H 0.89617 0.53244 0.99326 0.0
H2797 H 0.11156 0.47426 0.01542 0.0
H2798 H 0.52905 0.56887 0.46375 0.0
H2799 H 0.51494 0.55494 0.48463 0.0
H2800 H 0.53517 0.48833 0.47403 0.0
H2801 H 0.54923 0.50217 0.45298 0.0
H2802 H 0.49284 0.48919 0.48352 0.0
H2803 H 0.5639 0.51761 0.497 0.0
H2804 H 0.59375 0.54562 0.49908 0.0
H2805 H 0.54924 0.58916 0.51991 0.0
H2806 H 0.51901 0.56152 0.5178 0.0
H2807 H 0.47789 0.43962 0.54598 0.0
H2808 H 0.49235 0.45374 0.52526 0.0
H2809 H 0.47441 0.52064 0.53665 0.0
H2810 H 0.46019 0.50661 0.55761 0.0
H2811 H 0.51556 0.51976 0.52672 0.0
H2812 H 0.44449 0.49174 0.51326 0.0
H2813 H 0.41433 0.46407 0.51112 0.0
H2814 H 0.45836 0.42023 0.49015 0.0
H2815 H 0.48888 0.44753 0.49232 0.0
C2816 C 0.53072 0.55128 0.46588 0.0
C2817 C 0.54032 0.53664 0.45668 0.0
C2818 C 0.52268 0.54334 0.47787 0.0
C2819 C 0.52411 0.5206 0.48097 0.0
C2820 C 0.5339 0.50595 0.47186 0.0
C2821 C 0.54203 0.51391 0.45986 0.0
C2822 C 0.51467 0.51207 0.4935 0.0
C2823 C 0.49806 0.49562 0.49298 0.0
C2824 C 0.52097 0.52093 0.50584 0.0
C2825 C 0.53913 0.53758 0.50713 0.0
C2826 C 0.56042 0.53324 0.50193 0.0
C2827 C 0.57742 0.54903 0.50313 0.0
C2828 C 0.57338 0.56918 0.50959 0.0
C2829 C 0.55234 0.57355 0.5149 0.0
C2830 C 0.53527 0.55782 0.51371 0.0
C2831 C 0.47681 0.45733 0.54407 0.0
C2832 C 0.4678 0.47197 0.55347 0.0
C2833 C 0.48504 0.46538 0.53216 0.0
C2834 C 0.4843 0.48825 0.52929 0.0
C2835 C 0.47515 0.50292 0.53862 0.0
C2836 C 0.46693 0.49487 0.55057 0.0
C2837 C 0.49372 0.49684 0.51675 0.0
C2838 C 0.51033 0.51331 0.51727 0.0
C2839 C 0.48736 0.48805 0.5044 0.0
C2840 C 0.46903 0.4716 0.50307 0.0
C2841 C 0.44779 0.47613 0.50829 0.0
C2842 C 0.43062 0.46052 0.50705 0.0
C2843 C 0.43444 0.44038 0.50053 0.0
C2844 C 0.45543 0.43583 0.49521 0.0
C2845 C 0.47266 0.45137 0.49643 0.0
H2846 H 0.42113 0.42833 0.49958 0.0
H2847 H 0.58656 0.58139 0.51051 0.0
H2848 H 0.28016 0.15168 0.34657 0.0
H2849 H 0.31148 0.12667 0.35124 0.0
H2850 H 0.29974 0.13426 0.39273 0.0
H2851 H 0.26849 0.15922 0.38816 0.0
H2852 H 0.34475 0.1344 0.38673 0.0
H2853 H 0.2799 0.08972 0.37746 0.0
H2854 H 0.24779 0.07716 0.3643 0.0
H2855 H 0.29177 0.05861 0.33288 0.0
H2856 H 0.32414 0.07136 0.34581 0.0
H2857 H 0.39903 0.0367 0.41101 0.0
H2858 H 0.37366 0.06731 0.40558 0.0
H2859 H 0.38134 0.05254 0.3644 0.0
H2860 H 0.40615 0.02164 0.36978 0.0
H2861 H 0.33931 0.05713 0.36969 0.0
H2862 H 0.40463 0.10002 0.37932 0.0
H2863 H 0.43675 0.1126 0.39247 0.0
H2864 H 0.39255 0.13459 0.42299 0.0
H2865 H 0.36015 0.12187 0.41009 0.0
C2866 C 0.28443 0.14826 0.35669 0.0
C2867 C 0.27173 0.15734 0.36699 0.0
C2868 C 0.30229 0.1339 0.35935 0.0
C2869 C 0.3078 0.1284 0.37234 0.0
C2870 C 0.29578 0.13824 0.38264 0.0
C2871 C 0.27786 0.15246 0.37999 0.0
C2872 C 0.32525 0.11147 0.37523 0.0
C2873 C 0.34352 0.11745 0.3831 0.0
C2874 C 0.32384 0.08946 0.37031 0.0
C2875 C 0.30441 0.08173 0.36254 0.0
C2876 C 0.28271 0.08314 0.3677 0.0
C2877 C 0.26446 0.07595 0.3603 0.0
C2878 C 0.26773 0.06716 0.34775 0.0
C2879 C 0.28926 0.06547 0.3426 0.0
C2880 C 0.30756 0.07266 0.34996 0.0
C2881 C 0.39554 0.04018 0.40079 0.0
C2882 C 0.40459 0.0267 0.39083 0.0
C2883 C 0.38107 0.05775 0.39769 0.0
C2884 C 0.37563 0.06239 0.38455 0.0
C2885 C 0.38518 0.04929 0.3746 0.0
C2886 C 0.39945 0.03165 0.3777 0.0
C2887 C 0.35904 0.08 0.38116 0.0
C2888 C 0.34079 0.07412 0.37324 0.0
C2889 C 0.36054 0.10208 0.38602 0.0
C2890 C 0.37998 0.1098 0.39379 0.0
C2891 C 0.40176 0.10739 0.38888 0.0
C2892 C 0.42002 0.11457 0.39628 0.0
C2893 C 0.4167 0.12434 0.40857 0.0
C2894 C 0.3951 0.127 0.41347 0.0
C2895 C 0.37678 0.11982 0.40612 0.0
H2896 H 0.43085 0.12989 0.41428 0.0
H2897 H 0.25358 0.0616 0.34203 0.0
H2898 H 0.10101 0.02208 0.6391 0.0
H2899 H 0.12641 0.053 0.64342 0.0
H2900 H 0.13258 0.06481 0.60187 0.0
H2901 H 0.10712 0.03373 0.59745 0.0
H2902 H 0.17314 0.0625 0.61417 0.0
H2903 H 0.10389 0.10095 0.6209 0.0
H2904 H 0.06652 0.10675 0.6304 0.0
H2905 H 0.09476 0.10864 0.66907 0.0
H2906 H 0.13229 0.10254 0.65982 0.0
H2907 H 0.23799 0.15953 0.61974 0.0
H2908 H 0.20716 0.13444 0.6147 0.0
H2909 H 0.19554 0.12452 0.65603 0.0
H2910 H 0.22612 0.15018 0.66116 0.0
H2911 H 0.15687 0.12671 0.64336 0.0
H2912 H 0.22496 0.08625 0.63757 0.0
H2913 H 0.2627 0.07902 0.62895 0.0
H2914 H 0.23716 0.07908 0.58961 0.0
H2915 H 0.1993 0.08661 0.598 0.0
C2916 C 0.10753 0.0314 0.63087 0.0
C2917 C 0.10203 0.02542 0.61792 0.0
C2918 C 0.12201 0.04915 0.63337 0.0
C2919 C 0.13131 0.06134 0.62298 0.0
C2920 C 0.12556 0.05566 0.61004 0.0
C2921 C 0.11094 0.03796 0.60753 0.0
C2922 C 0.14799 0.07912 0.62565 0.0
C2923 C 0.16946 0.07677 0.62035 0.0
C2924 C 0.14342 0.09732 0.63409 0.0
C2925 C 0.12088 0.1011 0.63967 0.0
C2926 C 0.10212 0.10243 0.63144 0.0
C2927 C 0.08091 0.1058 0.63678 0.0
C2928 C 0.07826 0.10801 0.65033 0.0
C2929 C 0.09683 0.10691 0.65857 0.0
C2930 C 0.11808 0.10352 0.65329 0.0
C2931 C 0.22875 0.1522 0.62778 0.0
C2932 C 0.23463 0.15673 0.64087 0.0
C2933 C 0.21117 0.13775 0.62487 0.0
C2934 C 0.1993 0.12718 0.63497 0.0
C2935 C 0.20451 0.13238 0.64806 0.0
C2936 C 0.22201 0.14704 0.65099 0.0
C2937 C 0.18202 0.11015 0.63184 0.0
C2938 C 0.1605 0.11255 0.63709 0.0
C2939 C 0.18659 0.09181 0.62348 0.0
C2940 C 0.20934 0.08723 0.6184 0.0
C2941 C 0.22742 0.0849 0.62707 0.0
C2942 C 0.24883 0.08072 0.62223 0.0
C2943 C 0.25234 0.07866 0.60874 0.0
C2944 C 0.23443 0.08072 0.60006 0.0
C2945 C 0.21299 0.08492 0.60485 0.0
H2946 H 0.26893 0.07542 0.60501 0.0
H2947 H 0.06183 0.11062 0.65444 0.0
H2948 H 0.23611 0.84951 0.8882 0.0
H2949 H 0.20504 0.87457 0.89292 0.0
H2950 H 0.19245 0.88163 0.8515 0.0
H2951 H 0.22372 0.85658 0.84668 0.0
H2952 H 0.19439 0.9217 0.86379 0.0
H2953 H 0.15669 0.8524 0.8709 0.0
H2954 H 0.15133 0.81499 0.88035 0.0
H2955 H 0.15061 0.84301 0.91911 0.0
H2956 H 0.15627 0.88058 0.90991 0.0
H2957 H 0.09726 0.98628 0.87093 0.0
H2958 H 0.12208 0.95542 0.86543 0.0
H2959 H 0.13432 0.94398 0.90655 0.0
H2960 H 0.10896 0.97461 0.91215 0.0
H2961 H 0.13151 0.90519 0.89385 0.0
H2962 H 0.17139 0.97348 0.88742 0.0
H2963 H 0.17791 0.01117 0.87862 0.0
H2964 H 0.17602 0.98534 0.83935 0.0
H2965 H 0.16918 0.94752 0.84792 0.0
C2966 C 0.22658 0.85614 0.88008 0.0
C2967 C 0.23243 0.85102 0.86705 0.0
C2968 C 0.20873 0.87042 0.8828 0.0
C2969 C 0.19628 0.87991 0.87257 0.0
C2970 C 0.20179 0.87449 0.85955 0.0
C2971 C 0.21961 0.86009 0.85682 0.0
C2972 C 0.17845 0.89649 0.87548 0.0
C2973 C 0.18041 0.91795 0.87016 0.0
C2974 C 0.16059 0.89185 0.88415 0.0
C2975 C 0.1571 0.86929 0.88971 0.0
C2976 C 0.15556 0.85057 0.88144 0.0
C2977 C 0.15244 0.82934 0.88676 0.0
C2978 C 0.15068 0.82662 0.90032 0.0
C2979 C 0.15199 0.84514 0.9086 0.0
C2980 C 0.15513 0.86641 0.90334 0.0
C2981 C 0.10503 0.97707 0.87883 0.0
C2982 C 0.10125 0.98304 0.89199 0.0
C2983 C 0.11933 0.95946 0.87566 0.0
C2984 C 0.13049 0.94763 0.88556 0.0
C2985 C 0.126 0.95291 0.89873 0.0
C2986 C 0.11151 0.97045 0.90193 0.0
C2987 C 0.14743 0.93038 0.88212 0.0
C2988 C 0.14538 0.90887 0.88739 0.0
C2989 C 0.16537 0.935 0.87349 0.0
C2990 C 0.16954 0.95771 0.86831 0.0
C2991 C 0.1722 0.97587 0.87691 0.0
C2992 C 0.17597 0.99725 0.87196 0.0
C2993 C 0.17731 1.00065 0.85843 0.0
C2994 C 0.17494 0.98267 0.84982 0.0
C2995 C 0.17113 0.96126 0.85472 0.0
H2996 H 0.18024 0.01722 0.85462 0.0
H2997 H 0.14826 0.81017 0.90441 0.0
H2998 H 0.2856 0.85365 0.16105 0.0
H2999 H 0.31662 0.87922 0.15685 0.0
H3000 H 0.30575 0.8728 0.11522 0.0
H3001 H 0.27481 0.84725 0.11932 0.0
H3002 H 0.35055 0.87327 0.1214 0.0
H3003 H 0.28489 0.91656 0.13093 0.0
H3004 H 0.25235 0.92816 0.14406 0.0
H3005 H 0.29549 0.94624 0.17595 0.0
H3006 H 0.32828 0.93444 0.16306 0.0
H3007 H 0.40333 0.97284 0.09871 0.0
H3008 H 0.37838 0.94167 0.10361 0.0
H3009 H 0.38574 0.95456 0.14502 0.0
H3010 H 0.41018 0.98599 0.14018 0.0
H3011 H 0.34365 0.94975 0.13947 0.0
H3012 H 0.40978 0.90822 0.12948 0.0
H3013 H 0.44222 0.89667 0.11626 0.0
H3014 H 0.39867 0.87533 0.08529 0.0
H3015 H 0.36595 0.88702 0.09826 0.0
C3016 C 0.29001 0.85742 0.151 0.0
C3017 C 0.27763 0.84851 0.14053 0.0
C3018 C 0.30769 0.87212 0.14861 0.0
C3019 C 0.31334 0.87813 0.13571 0.0
C3020 C 0.30168 0.86843 0.12524 0.0
C3021 C 0.28394 0.85387 0.12762 0.0
C3022 C 0.33053 0.89544 0.13312 0.0
C3023 C 0.34899 0.89005 0.12526 0.0
C3024 C 0.32869 0.91723 0.13834 0.0
C3025 C 0.30901 0.92438 0.14609 0.0
C3026 C 0.28742 0.92283 0.14078 0.0
C3027 C 0.26893 0.92948 0.14817 0.0
C3028 C 0.27184 0.93787 0.16085 0.0
C3029 C 0.29326 0.93969 0.16614 0.0
C3030 C 0.3118 0.93304 0.15879 0.0
C3031 C 0.39987 0.96884 0.10886 0.0
C3032 C 0.40873 0.98194 0.11905 0.0
C3033 C 0.38564 0.95095 0.11166 0.0
C3034 C 0.38023 0.94561 0.12471 0.0
C3035 C 0.38957 0.95834 0.13488 0.0
C3036 C 0.40363 0.97629 0.13209 0.0
C3037 C 0.36388 0.92764 0.12778 0.0
C3038 C 0.34543 0.93293 0.13569 0.0
C3039 C 0.36579 0.90578 0.12261 0.0
C3040 C 0.38542 0.89869 0.1148 0.0
C3041 C 0.40712 0.90122 0.11981 0.0
C3042 C 0.42556 0.89462 0.11237 0.0
C3043 C 0.42251 0.88532 0.09993 0.0
C3044 C 0.40101 0.88255 0.09492 0.0
C3045 C 0.38251 0.88914 0.10232 0.0
H3046 H 0.43681 0.88022 0.09418 0.0
H3047 H 0.25751 0.94301 0.16655 0.0
H3048 H 0.72651 0.85886 0.66328 0.0
H3049 H 0.69553 0.88376 0.65789 0.0
H3050 H 0.70382 0.86836 0.61682 0.0
H3051 H 0.73519 0.84406 0.62213 0.0
H3052 H 0.70068 0.911 0.61955 0.0
H3053 H 0.6581 0.84937 0.63573 0.0
H3054 H 0.64707 0.82036 0.65155 0.0
H3055 H 0.63136 0.87068 0.68008 0.0
H3056 H 0.64257 0.89999 0.66448 0.0
H3057 H 0.60465 0.97044 0.59868 0.0
H3058 H 0.62957 0.93911 0.6035 0.0
H3059 H 0.62837 0.95636 0.64457 0.0
H3060 H 0.60339 0.98748 0.63987 0.0
H3061 H 0.62657 0.91144 0.64114 0.0
H3062 H 0.6713 0.97255 0.6254 0.0
H3063 H 0.68247 1.00164 0.60966 0.0
H3064 H 0.69414 0.95172 0.58024 0.0
H3065 H 0.68274 0.92234 0.59576 0.0
C3066 C 0.72151 0.86052 0.65312 0.0
C3067 C 0.73335 0.84949 0.64313 0.0
C3068 C 0.70371 0.87473 0.65004 0.0
C3069 C 0.69714 0.87789 0.63693 0.0
C3070 C 0.70855 0.86631 0.627 0.0
C3071 C 0.72646 0.85233 0.63006 0.0
C3072 C 0.67939 0.89428 0.63344 0.0
C3073 C 0.68434 0.91077 0.62411 0.0
C3074 C 0.65819 0.89446 0.63959 0.0
C3075 C 0.65136 0.87687 0.64897 0.0
C3076 C 0.65244 0.85424 0.64541 0.0
C3077 C 0.64613 0.83774 0.65433 0.0
C3078 C 0.63857 0.84367 0.66682 0.0
C3079 C 0.63724 0.86611 0.6704 0.0
C3080 C 0.64355 0.88268 0.66152 0.0
C3081 C 0.60948 0.96739 0.60876 0.0
C3082 C 0.60213 0.98156 0.61887 0.0
C3083 C 0.6238 0.94954 0.61149 0.0
C3084 C 0.63108 0.94554 0.62438 0.0
C3085 C 0.62302 0.95911 0.63455 0.0
C3086 C 0.60878 0.97696 0.63183 0.0
C3087 C 0.64792 0.92797 0.62725 0.0
C3088 C 0.64284 0.9114 0.63649 0.0
C3089 C 0.66901 0.92765 0.62102 0.0
C3090 C 0.67593 0.94528 0.61169 0.0
C3091 C 0.67608 0.9678 0.61554 0.0
C3092 C 0.68248 0.98433 0.60667 0.0
C3093 C 0.68894 0.97854 0.59395 0.0
C3094 C 0.68908 0.95619 0.59009 0.0
C3095 C 0.68267 0.93959 0.59892 0.0
H3096 H 0.6939 0.99137 0.58709 0.0
H3097 H 0.6337 0.83087 0.67371 0.0
H3098 H 0.88358 1.00273 0.37436 0.0
H3099 H 0.85787 0.97238 0.36971 0.0
H3100 H 0.89028 0.93192 0.39906 0.0
H3101 H 0.91523 0.96303 0.40433 0.0
H3102 H 0.85937 0.93428 0.36052 0.0
H3103 H 0.85494 0.89451 0.41216 0.0
H3104 H 0.8588 0.90547 0.43539 0.0
H3105 H 0.8405 0.97266 0.42575 0.0
H3106 H 0.83628 0.96204 0.4025 0.0
H3107 H 0.78969 0.8395 0.35285 0.0
H3108 H 0.82144 0.86359 0.35821 0.0
H3109 H 0.78093 0.89843 0.38665 0.0
H3110 H 0.74997 0.87346 0.38198 0.0
H3111 H 0.81838 0.8964 0.39632 0.0
H3112 H 0.79357 0.91812 0.35343 0.0
H3113 H 0.78411 0.91293 0.33009 0.0
H3114 H 0.85119 0.89191 0.32206 0.0
H3115 H 0.86098 0.89674 0.3454 0.0
C3116 C 0.88528 0.98735 0.37982 0.0
C3117 C 0.90136 0.98532 0.38977 0.0
C3118 C 0.87057 0.96991 0.37712 0.0
C3119 C 0.87179 0.94979 0.38412 0.0
C3120 C 0.8885 0.9474 0.39373 0.0
C3121 C 0.90289 0.96514 0.39668 0.0
C3122 C 0.85518 0.93175 0.38147 0.0
C3123 C 0.85047 0.92599 0.36838 0.0
C3124 C 0.84319 0.921 0.39163 0.0
C3125 C 0.84559 0.92753 0.40558 0.0
C3126 C 0.85171 0.91161 0.41502 0.0
C3127 C 0.85396 0.91776 0.42818 0.0
C3128 C 0.84999 0.93976 0.43204 0.0
C3129 C 0.84367 0.95565 0.42274 0.0
C3130 C 0.84137 0.94958 0.40957 0.0
C3131 C 0.78772 0.85219 0.36032 0.0
C3132 C 0.76736 0.8546 0.36699 0.0
C3133 C 0.80582 0.8661 0.36332 0.0
C3134 C 0.80362 0.88325 0.37269 0.0
C3135 C 0.78329 0.88536 0.37944 0.0
C3136 C 0.76549 0.87109 0.37672 0.0
C3137 C 0.82209 0.89939 0.37537 0.0
C3138 C 0.82734 0.90461 0.38846 0.0
C3139 C 0.83375 0.9105 0.3652 0.0
C3140 C 0.82792 0.90753 0.35117 0.0
C3141 C 0.80625 0.91224 0.3467 0.0
C3142 C 0.80084 0.90939 0.33347 0.0
C3143 C 0.81702 0.90202 0.3246 0.0
C3144 C 0.83867 0.89756 0.32894 0.0
C3145 C 0.84416 0.90036 0.34217 0.0
H3146 H 0.8128 0.89982 0.31436 0.0
H3147 H 0.85175 0.94449 0.44223 0.0
H3148 H 0.76857 0.15521 0.11969 0.0
H3149 H 0.79982 0.13075 0.11443 0.0
H3150 H 0.81639 0.12624 0.15551 0.0
H3151 H 0.78536 0.1513 0.16082 0.0
H3152 H 0.85348 0.12842 0.14127 0.0
H3153 H 0.78682 0.08475 0.13983 0.0
H3154 H 0.74858 0.07499 0.13307 0.0
H3155 H 0.76961 0.07137 0.09287 0.0
H3156 H 0.80795 0.08141 0.09937 0.0
H3157 H 0.91263 0.02506 0.13872 0.0
H3158 H 0.88676 0.05572 0.1429 0.0
H3159 H 0.87633 0.06341 0.10131 0.0
H3160 H 0.90234 0.03269 0.09703 0.0
H3161 H 0.83695 0.0604 0.11531 0.0
H3162 H 0.90493 0.10224 0.11771 0.0
H3163 H 0.94299 0.11064 0.12539 0.0
H3164 H 0.91916 0.1159 0.16498 0.0
H3165 H 0.88099 0.10722 0.15757 0.0
C3166 C 0.77896 0.1492 0.12762 0.0
C3167 C 0.77435 0.15507 0.1407 0.0
C3168 C 0.7968 0.13511 0.12459 0.0
C3169 C 0.81022 0.12623 0.13459 0.0
C3170 C 0.80622 0.13278 0.14762 0.0
C3171 C 0.78846 0.14709 0.15065 0.0
C3172 C 0.82788 0.10957 0.13145 0.0
C3173 C 0.84981 0.11343 0.13572 0.0
C3174 C 0.82323 0.09014 0.12402 0.0
C3175 C 0.8002 0.08406 0.12007 0.0
C3176 C 0.78326 0.08204 0.12953 0.0
C3177 C 0.76157 0.07643 0.12575 0.0
C3178 C 0.75666 0.07262 0.11255 0.0
C3179 C 0.77344 0.07436 0.1031 0.0
C3180 C 0.79515 0.08 0.10682 0.0
C3181 C 0.90509 0.03346 0.13044 0.0
C3182 C 0.90954 0.02641 0.11753 0.0
C3183 C 0.89034 0.05105 0.13285 0.0
C3184 C 0.87966 0.06194 0.12242 0.0
C3185 C 0.88442 0.05526 0.10951 0.0
C3186 C 0.89935 0.03777 0.10707 0.0
C3187 C 0.86254 0.0793 0.12508 0.0
C3188 C 0.84065 0.07549 0.12077 0.0
C3189 C 0.8672 0.09859 0.13261 0.0
C3190 C 0.89013 0.10388 0.13709 0.0
C3191 C 0.90783 0.105 0.12807 0.0
C3192 C 0.92942 0.10985 0.13237 0.0
C3193 C 0.9335 0.11375 0.14567 0.0
C3194 C 0.91598 0.11286 0.15469 0.0
C3195 C 0.89436 0.108 0.15044 0.0
H3196 H 0.95023 0.1175 0.14898 0.0
H3197 H 0.73986 0.06828 0.10964 0.0
H3198 H 0.6099 0.03267 0.91175 0.0
H3199 H 0.63477 0.06365 0.90639 0.0
H3200 H 0.62273 0.05269 0.86515 0.0
H3201 H 0.59856 0.02126 0.87046 0.0
H3202 H 0.66481 0.05697 0.86871 0.0
H3203 H 0.60143 0.0992 0.88289 0.0
H3204 H 0.57119 0.11053 0.89788 0.0
H3205 H 0.61935 0.12849 0.92719 0.0
H3206 H 0.64988 0.117 0.91244 0.0
H3207 H 0.72342 0.15312 0.84747 0.0
H3208 H 0.69209 0.12815 0.85214 0.0
H3209 H 0.70779 0.1306 0.89338 0.0
H3210 H 0.73898 0.15557 0.88882 0.0
H3211 H 0.66259 0.13202 0.8891 0.0
H3212 H 0.72546 0.08763 0.87519 0.0
H3213 H 0.75561 0.07638 0.86012 0.0
H3214 H 0.70751 0.0627 0.82999 0.0
H3215 H 0.67708 0.07417 0.84484 0.0
C3216 C 0.61232 0.03707 0.90155 0.0
C3217 C 0.60229 0.02448 0.89153 0.0
C3218 C 0.6265 0.05487 0.89848 0.0
C3219 C 0.63056 0.06073 0.88534 0.0
C3220 C 0.61998 0.04853 0.87536 0.0
C3221 C 0.60608 0.03058 0.87841 0.0
C3222 C 0.64685 0.07859 0.88192 0.0
C3223 C 0.664 0.0735 0.873 0.0
C3224 C 0.64625 0.10006 0.88772 0.0
C3225 C 0.62793 0.10705 0.89659 0.0
C3226 C 0.60557 0.10542 0.89257 0.0
C3227 C 0.58837 0.11189 0.90102 0.0
C3228 C 0.59334 0.12017 0.91349 0.0
C3229 C 0.61552 0.12205 0.91753 0.0
C3230 C 0.63278 0.11559 0.90912 0.0
C3231 C 0.72002 0.14858 0.85754 0.0
C3232 C 0.7338 0.15622 0.86776 0.0
C3233 C 0.70216 0.13424 0.8602 0.0
C3234 C 0.69775 0.12729 0.8731 0.0
C3235 C 0.71088 0.1357 0.88335 0.0
C3236 C 0.72877 0.14993 0.88071 0.0
C3237 C 0.68031 0.11033 0.87589 0.0
C3238 C 0.66311 0.11554 0.88472 0.0
C3239 C 0.68076 0.08898 0.86999 0.0
C3240 C 0.69903 0.08199 0.86107 0.0
C3241 C 0.72133 0.08239 0.86532 0.0
C3242 C 0.73847 0.07595 0.85682 0.0
C3243 C 0.73349 0.0689 0.84409 0.0
C3244 C 0.71135 0.06821 0.83984 0.0
C3245 C 0.69415 0.07467 0.8483 0.0
H3246 H 0.74678 0.06391 0.83753 0.0
H3247 H 0.58001 0.12518 0.92002 0.0
H3248 H 0.78514 0.65158 0.84623 0.0
H3249 H 0.81627 0.62634 0.85087 0.0
H3250 H 0.80482 0.63417 0.89237 0.0
H3251 H 0.77383 0.65945 0.88783 0.0
H3252 H 0.84944 0.63336 0.88668 0.0
H3253 H 0.78431 0.58966 0.87662 0.0
H3254 H 0.75232 0.57768 0.86317 0.0
H3255 H 0.79672 0.55914 0.83196 0.0
H3256 H 0.82897 0.57131 0.84518 0.0
H3257 H 0.9013 0.53424 0.91085 0.0
H3258 H 0.87661 0.56535 0.90534 0.0
H3259 H 0.88588 0.55163 0.86416 0.0
H3260 H 0.9101 0.52028 0.86959 0.0
H3261 H 0.84348 0.55651 0.86906 0.0
H3262 H 0.90908 0.5983 0.87962 0.0
H3263 H 0.94098 0.61018 0.89317 0.0
H3264 H 0.8962 0.63221 0.92338 0.0
H3265 H 0.86402 0.62018 0.91008 0.0
C3266 C 0.78945 0.64819 0.85634 0.0
C3267 C 0.77688 0.65743 0.86665 0.0
C3268 C 0.8072 0.63368 0.85898 0.0
C3269 C 0.81271 0.62812 0.87197 0.0
C3270 C 0.80087 0.63816 0.88228 0.0
C3271 C 0.78309 0.65258 0.87965 0.0
C3272 C 0.82993 0.61092 0.87486 0.0
C3273 C 0.84808 0.6165 0.88291 0.0
C3274 C 0.82838 0.58902 0.86977 0.0
C3275 C 0.80902 0.58163 0.86183 0.0
C3276 C 0.78723 0.5832 0.86685 0.0
C3277 C 0.76906 0.57635 0.85927 0.0
C3278 C 0.77248 0.56772 0.8467 0.0
C3279 C 0.79409 0.56587 0.84169 0.0
C3280 C 0.81232 0.57273 0.84922 0.0
C3281 C 0.89833 0.53804 0.90062 0.0
C3282 C 0.90766 0.52473 0.89067 0.0
C3283 C 0.88424 0.55591 0.89747 0.0
C3284 C 0.87943 0.56099 0.88431 0.0
C3285 C 0.88924 0.54805 0.87438 0.0
C3286 C 0.90318 0.53014 0.87751 0.0
C3287 C 0.86319 0.57889 0.88086 0.0
C3288 C 0.84507 0.57341 0.87274 0.0
C3289 C 0.86483 0.60086 0.88589 0.0
C3290 C 0.88414 0.60815 0.8939 0.0
C3291 C 0.90603 0.60552 0.88919 0.0
C3292 C 0.92417 0.61231 0.89682 0.0
C3293 C 0.92062 0.62189 0.90914 0.0
C3294 C 0.89892 0.62476 0.91385 0.0
C3295 C 0.88073 0.61798 0.90626 0.0
H3296 H 0.93469 0.62714 0.91503 0.0
H3297 H 0.75839 0.56242 0.84085 0.0
H3298 H 0.72234 0.65334 0.16114 0.0
H3299 H 0.6915 0.62748 0.15707 0.0
H3300 H 0.70155 0.63412 0.11539 0.0
H3301 H 0.73227 0.65999 0.11935 0.0
H3302 H 0.65693 0.63298 0.12178 0.0
H3303 H 0.72336 0.59062 0.13105 0.0
H3304 H 0.75614 0.57954 0.14411 0.0
H3305 H 0.71345 0.56094 0.17608 0.0
H3306 H 0.68041 0.57221 0.16327 0.0
H3307 H 0.60524 0.53282 0.09907 0.0
H3308 H 0.62981 0.56432 0.10395 0.0
H3309 H 0.62342 0.55095 0.14535 0.0
H3310 H 0.59942 0.51917 0.14052 0.0
H3311 H 0.66518 0.5566 0.13968 0.0
H3312 H 0.59833 0.59711 0.13005 0.0
H3313 H 0.56556 0.60818 0.11699 0.0
H3314 H 0.60842 0.63027 0.08589 0.0
H3315 H 0.64146 0.61906 0.09869 0.0
C3316 C 0.71777 0.64956 0.15111 0.0
C3317 C 0.72987 0.65863 0.14058 0.0
C3318 C 0.7002 0.6347 0.1488 0.0
C3319 C 0.69439 0.62865 0.13592 0.0
C3320 C 0.70574 0.63851 0.1254 0.0
C3321 C 0.72337 0.65326 0.12769 0.0
C3322 C 0.6774 0.61111 0.13339 0.0
C3323 C 0.65878 0.61622 0.12561 0.0
C3324 C 0.67961 0.58935 0.13856 0.0
C3325 C 0.69944 0.58249 0.14626 0.0
C3326 C 0.72097 0.58434 0.14091 0.0
C3327 C 0.7396 0.57799 0.14825 0.0
C3328 C 0.73688 0.5696 0.16093 0.0
C3329 C 0.71553 0.56748 0.16627 0.0
C3330 C 0.69685 0.57383 0.15897 0.0
C3331 C 0.60884 0.53678 0.10922 0.0
C3332 C 0.60039 0.52345 0.1194 0.0
C3333 C 0.62285 0.55486 0.11201 0.0
C3334 C 0.6284 0.56018 0.12505 0.0
C3335 C 0.61948 0.5472 0.13522 0.0
C3336 C 0.60567 0.52904 0.13243 0.0
C3337 C 0.64449 0.57841 0.12811 0.0
C3338 C 0.66309 0.57339 0.13594 0.0
C3339 C 0.64219 0.60024 0.123 0.0
C3340 C 0.62236 0.60705 0.11529 0.0
C3341 C 0.60076 0.60418 0.12038 0.0
C3342 C 0.58214 0.6105 0.11304 0.0
C3343 C 0.5849 0.61987 0.10061 0.0
C3344 C 0.6063 0.62299 0.09551 0.0
C3345 C 0.62498 0.61667 0.10282 0.0
H3346 H 0.57046 0.62476 0.09493 0.0
H3347 H 0.75132 0.56469 0.1666 0.0
H3348 H 0.73892 0.35036 0.38884 0.0
H3349 H 0.70779 0.37545 0.39335 0.0
H3350 H 0.69439 0.38056 0.35192 0.0
H3351 H 0.72569 0.35545 0.34729 0.0
H3352 H 0.69668 0.42127 0.36372 0.0
H3353 H 0.65912 0.3521 0.37188 0.0
H3354 H 0.65405 0.31509 0.3819 0.0
H3355 H 0.65373 0.34474 0.42024 0.0
H3356 H 0.65912 0.38192 0.41046 0.0
H3357 H 0.60027 0.4868 0.37053 0.0
H3358 H 0.62491 0.4557 0.3652 0.0
H3359 H 0.63634 0.44429 0.40642 0.0
H3360 H 0.61099 0.47502 0.41183 0.0
H3361 H 0.63404 0.40575 0.39415 0.0
H3362 H 0.67399 0.47375 0.3869 0.0
H3363 H 0.68055 0.51116 0.37772 0.0
H3364 H 0.67832 0.48423 0.33871 0.0
H3365 H 0.67144 0.44668 0.34766 0.0
C3366 C 0.72919 0.35656 0.38067 0.0
C3367 C 0.73482 0.35089 0.36769 0.0
C3368 C 0.71132 0.37087 0.38329 0.0
C3369 C 0.69864 0.37981 0.37299 0.0
C3370 C 0.70392 0.37383 0.36003 0.0
C3371 C 0.72176 0.3594 0.3574 0.0
C3372 C 0.68082 0.39646 0.37575 0.0
C3373 C 0.68274 0.41773 0.37017 0.0
C3374 C 0.66306 0.39212 0.38453 0.0
C3375 C 0.65971 0.36978 0.39044 0.0
C3376 C 0.65814 0.35072 0.38245 0.0
C3377 C 0.65518 0.32971 0.38809 0.0
C3378 C 0.65362 0.32755 0.4017 0.0
C3379 C 0.65496 0.34642 0.4097 0.0
C3380 C 0.65794 0.36747 0.40411 0.0
C3381 C 0.60784 0.47754 0.37848 0.0
C3382 C 0.60381 0.48351 0.39161 0.0
C3383 C 0.62204 0.45981 0.37541 0.0
C3384 C 0.63296 0.44793 0.38539 0.0
C3385 C 0.62823 0.45325 0.39854 0.0
C3386 C 0.61374 0.47084 0.40162 0.0
C3387 C 0.64987 0.43057 0.38208 0.0
C3388 C 0.64786 0.40922 0.3876 0.0
C3389 C 0.66776 0.4349 0.37336 0.0
C3390 C 0.67197 0.45745 0.36795 0.0
C3391 C 0.67474 0.47583 0.37636 0.0
C3392 C 0.67854 0.49706 0.3712 0.0
C3393 C 0.67979 0.50008 0.35764 0.0
C3394 C 0.67731 0.48187 0.34921 0.0
C3395 C 0.67348 0.46061 0.35432 0.0
H3396 H 0.68274 0.51653 0.35366 0.0
H3397 H 0.65133 0.31127 0.40604 0.0
H3398 H 0.90876 0.48554 0.638 0.0
H3399 H 0.88398 0.45403 0.64219 0.0
H3400 H 0.87672 0.44348 0.60057 0.0
H3401 H 0.9017 0.475 0.59629 0.0
H3402 H 0.8362 0.446 0.61389 0.0
H3403 H 0.90556 0.40682 0.61795 0.0
H3404 H 0.94353 0.40021 0.62634 0.0
H3405 H 0.91806 0.39586 0.66561 0.0
H3406 H 0.87995 0.40276 0.65747 0.0
H3407 H 0.77037 0.34973 0.61899 0.0
H3408 H 0.80133 0.37447 0.61365 0.0
H3409 H 0.81646 0.38151 0.65481 0.0
H3410 H 0.78578 0.35616 0.66021 0.0
H3411 H 0.85401 0.37985 0.64109 0.0
H3412 H 0.78603 0.42127 0.6381 0.0
H3413 H 0.74774 0.42945 0.63072 0.0
H3414 H 0.77014 0.43169 0.59075 0.0
H3415 H 0.80853 0.42321 0.59788 0.0
C3416 C 0.90215 0.47634 0.62973 0.0
C3417 C 0.90719 0.48279 0.6168 0.0
C3418 C 0.88803 0.45828 0.63214 0.0
C3419 C 0.87856 0.44634 0.6217 0.0
C3420 C 0.8839 0.45245 0.60878 0.0
C3421 C 0.89824 0.47039 0.60635 0.0
C3422 C 0.862 0.42847 0.62431 0.0
C3423 C 0.84019 0.43131 0.61962 0.0
C3424 C 0.86702 0.40972 0.63218 0.0
C3425 C 0.88992 0.40551 0.6371 0.0
C3426 C 0.90807 0.40464 0.62838 0.0
C3427 C 0.92962 0.4008 0.63309 0.0
C3428 C 0.93322 0.39767 0.6465 0.0
C3429 C 0.91526 0.39831 0.65522 0.0
C3430 C 0.89367 0.40216 0.65057 0.0
C3431 C 0.78043 0.35633 0.62691 0.0
C3432 C 0.77549 0.35112 0.64004 0.0
C3433 C 0.79808 0.37058 0.62385 0.0
C3434 C 0.81096 0.38029 0.63383 0.0
C3435 C 0.80671 0.37433 0.64692 0.0
C3436 C 0.78915 0.35984 0.65 0.0
C3437 C 0.82818 0.39732 0.63063 0.0
C3438 C 0.85005 0.39442 0.63525 0.0
C3439 C 0.82317 0.41623 0.62284 0.0
C3440 C 0.80011 0.42136 0.61851 0.0
C3441 C 0.78276 0.42333 0.62773 0.0
C3442 C 0.76104 0.42805 0.62359 0.0
C3443 C 0.7565 0.43102 0.61027 0.0
C3444 C 0.77368 0.42934 0.60106 0.0
C3445 C 0.79542 0.42459 0.60515 0.0
H3446 H 0.73968 0.43469 0.60709 0.0
H3447 H 0.94991 0.3947 0.65013 0.0
H3448 H 0.0939 0.4822 0.13941 0.0
H3449 H 0.1188 0.45121 0.14448 0.0
H3450 H 0.13329 0.44305 0.10331 0.0
H3451 H 0.10776 0.4737 0.09813 0.0
H3452 H 0.13092 0.40353 0.11463 0.0
H3453 H 0.16877 0.47198 0.12424 0.0
H3454 H 0.17384 0.50891 0.13444 0.0
H3455 H 0.17007 0.47939 0.17271 0.0
H3456 H 0.16468 0.4423 0.16273 0.0
H3457 H 0.23664 0.35029 0.12036 0.0
H3458 H 0.20521 0.37502 0.11596 0.0
H3459 H 0.18996 0.37727 0.15728 0.0
H3460 H 0.22159 0.35254 0.16178 0.0
H3461 H 0.19154 0.41863 0.14652 0.0
H3462 H 0.15628 0.34913 0.13607 0.0
H3463 H 0.15269 0.31266 0.12511 0.0
H3464 H 0.15347 0.34472 0.0875 0.0
H3465 H 0.15737 0.38138 0.09823 0.0
C3466 C 0.10218 0.47366 0.13141 0.0
C3467 C 0.09899 0.48054 0.11836 0.0
C3468 C 0.11652 0.45599 0.13433 0.0
C3469 C 0.12837 0.44508 0.12432 0.0
C3470 C 0.12444 0.45126 0.11123 0.0
C3471 C 0.10985 0.4688 0.10827 0.0
C3472 C 0.14547 0.42792 0.12756 0.0
C3473 C 0.1443 0.40692 0.12151 0.0
C3474 C 0.16277 0.43213 0.1367 0.0
C3475 C 0.16609 0.45441 0.14273 0.0
C3476 C 0.16886 0.47339 0.13483 0.0
C3477 C 0.17182 0.49435 0.14057 0.0
C3478 C 0.17222 0.49651 0.15422 0.0
C3479 C 0.16972 0.4777 0.16214 0.0
C3480 C 0.16673 0.4567 0.15645 0.0
C3481 C 0.22646 0.3558 0.12852 0.0
C3482 C 0.23165 0.34943 0.14143 0.0
C3483 C 0.20841 0.36989 0.12597 0.0
C3484 C 0.19509 0.3779 0.13627 0.0
C3485 C 0.19997 0.37126 0.14917 0.0
C3486 C 0.21801 0.35706 0.15172 0.0
C3487 C 0.17697 0.39424 0.13362 0.0
C3488 C 0.17804 0.41516 0.13974 0.0
C3489 C 0.15977 0.39001 0.12444 0.0
C3490 C 0.1573 0.36799 0.11796 0.0
C3491 C 0.15586 0.3484 0.12546 0.0
C3492 C 0.15373 0.32769 0.11928 0.0
C3493 C 0.1529 0.32637 0.10561 0.0
C3494 C 0.15413 0.34577 0.09809 0.0
C3495 C 0.15627 0.36652 0.10421 0.0
H3496 H 0.15126 0.31033 0.10085 0.0
H3497 H 0.17451 0.51274 0.15864 0.0
H3498 H 0.41219 0.48631 0.87193 0.0
H3499 H 0.38764 0.45515 0.86663 0.0
H3500 H 0.37356 0.44599 0.90777 0.0
H3501 H 0.39881 0.47677 0.91316 0.0
H3502 H 0.37598 0.40683 0.89623 0.0
H3503 H 0.33759 0.47507 0.88702 0.0
H3504 H 0.33216 0.51211 0.87708 0.0
H3505 H 0.33626 0.48324 0.8386 0.0
H3506 H 0.34202 0.44604 0.84832 0.0
H3507 H 0.27032 0.35336 0.88978 0.0
H3508 H 0.3016 0.37813 0.89448 0.0
H3509 H 0.3179 0.38029 0.85331 0.0
H3510 H 0.28648 0.35547 0.8485 0.0
H3511 H 0.31543 0.42186 0.86429 0.0
H3512 H 0.35122 0.35247 0.87448 0.0
H3513 H 0.35497 0.31593 0.88528 0.0
H3514 H 0.35356 0.34768 0.92304 0.0
H3515 H 0.34948 0.38439 0.91246 0.0
C3516 C 0.40408 0.4775 0.87987 0.0
C3517 C 0.40731 0.48413 0.89296 0.0
C3518 C 0.38993 0.45974 0.87682 0.0
C3519 C 0.37827 0.44852 0.88676 0.0
C3520 C 0.38225 0.45445 0.8999 0.0
C3521 C 0.39669 0.47206 0.90298 0.0
C3522 C 0.3613 0.43128 0.88341 0.0
C3523 C 0.36262 0.4102 0.88934 0.0
C3524 C 0.344 0.43547 0.87426 0.0
C3525 C 0.34047 0.45781 0.86839 0.0
C3526 C 0.3375 0.47664 0.87644 0.0
C3527 C 0.33434 0.49766 0.87084 0.0
C3528 C 0.33393 0.50004 0.85722 0.0
C3529 C 0.33662 0.48138 0.84915 0.0
C3530 C 0.33982 0.46032 0.8547 0.0
C3531 C 0.28071 0.35885 0.88172 0.0
C3532 C 0.27587 0.35243 0.86875 0.0
C3533 C 0.29867 0.37296 0.88444 0.0
C3534 C 0.31221 0.38098 0.87426 0.0
C3535 C 0.3077 0.37427 0.86132 0.0
C3536 C 0.28979 0.36002 0.8586 0.0
C3537 C 0.33014 0.39743 0.87707 0.0
C3538 C 0.32892 0.41842 0.87108 0.0
C3539 C 0.3473 0.39323 0.88629 0.0
C3540 C 0.34986 0.37117 0.89267 0.0
C3541 C 0.35153 0.35165 0.88508 0.0
C3542 C 0.35375 0.33091 0.89117 0.0
C3543 C 0.35446 0.32948 0.90484 0.0
C3544 C 0.353 0.3488 0.91245 0.0
C3545 C 0.35076 0.36959 0.90641 0.0
H3546 H 0.35617 0.3134 0.90953 0.0
H3547 H 0.33148 0.51632 0.85291 0.0
H3548 H 0.41336 0.52253 0.6389 0.0
H3549 H 0.38823 0.55334 0.64401 0.0
H3550 H 0.37581 0.5631 0.60276 0.0
H3551 H 0.40148 0.53254 0.59754 0.0
H3552 H 0.37803 0.60233 0.6149 0.0
H3553 H 0.33909 0.53388 0.62221 0.0
H3554 H 0.33299 0.49639 0.63141 0.0
H3555 H 0.33469 0.5234 0.67041 0.0
H3556 H 0.3411 0.56103 0.66145 0.0
H3557 H 0.2725 0.65656 0.62033 0.0
H3558 H 0.30379 0.63168 0.61576 0.0
H3559 H 0.31769 0.62702 0.65715 0.0
H3560 H 0.28625 0.65193 0.66183 0.0
H3561 H 0.31562 0.58613 0.64538 0.0
H3562 H 0.35239 0.65571 0.63714 0.0
H3563 H 0.35701 0.69277 0.62709 0.0
H3564 H 0.35749 0.66305 0.58876 0.0
H3565 H 0.35256 0.62583 0.59857 0.0
C3566 C 0.40549 0.53138 0.63089 0.0
C3567 C 0.4093 0.52495 0.61781 0.0
C3568 C 0.39102 0.54894 0.63384 0.0
C3569 C 0.37971 0.56026 0.62379 0.0
C3570 C 0.38424 0.55456 0.61069 0.0
C3571 C 0.39892 0.53707 0.60771 0.0
C3572 C 0.36254 0.57738 0.62702 0.0
C3573 C 0.36426 0.59871 0.62146 0.0
C3574 C 0.3447 0.57283 0.63574 0.0
C3575 C 0.34081 0.55023 0.64116 0.0
C3576 C 0.33833 0.5318 0.63275 0.0
C3577 C 0.3348 0.51053 0.63792 0.0
C3578 C 0.33352 0.5075 0.65148 0.0
C3579 C 0.33572 0.52576 0.65991 0.0
C3580 C 0.33929 0.54706 0.65479 0.0
C3581 C 0.28237 0.65049 0.62847 0.0
C3582 C 0.27685 0.65624 0.64146 0.0
C3583 C 0.30033 0.63631 0.62583 0.0
C3584 C 0.3132 0.62756 0.6361 0.0
C3585 C 0.30801 0.6336 0.64907 0.0
C3586 C 0.2901 0.64792 0.65172 0.0
C3587 C 0.33116 0.6111 0.63332 0.0
C3588 C 0.3295 0.58982 0.63891 0.0
C3589 C 0.34885 0.61564 0.62451 0.0
C3590 C 0.35192 0.63799 0.61859 0.0
C3591 C 0.35331 0.65709 0.62656 0.0
C3592 C 0.35601 0.67812 0.62091 0.0
C3593 C 0.35749 0.68027 0.6073 0.0
C3594 C 0.35632 0.66137 0.59931 0.0
C3595 C 0.3536 0.6403 0.60491 0.0
H3596 H 0.35958 0.69657 0.60294 0.0
H3597 H 0.33077 0.49102 0.65546 0.0
H3598 H 0.1049 0.52021 0.36679 0.0
H3599 H 0.12989 0.55087 0.36129 0.0
H3600 H 0.13461 0.5685 0.40222 0.0
H3601 H 0.10911 0.53802 0.40778 0.0
H3602 H 0.13292 0.60529 0.38744 0.0
H3603 H 0.17556 0.53788 0.38716 0.0
H3604 H 0.18475 0.49922 0.38097 0.0
H3605 H 0.18926 0.51849 0.34052 0.0
H3606 H 0.17978 0.55724 0.34645 0.0
H3607 H 0.23732 0.66256 0.38468 0.0
H3608 H 0.20606 0.63757 0.38903 0.0
H3609 H 0.19909 0.6251 0.34758 0.0
H3610 H 0.23041 0.65021 0.34312 0.0
H3611 H 0.2011 0.5865 0.36214 0.0
H3612 H 0.16032 0.65519 0.36329 0.0
H3613 H 0.15231 0.69369 0.37033 0.0
H3614 H 0.14592 0.6718 0.41022 0.0
H3615 H 0.15421 0.63319 0.40345 0.0
C3616 C 0.11106 0.53072 0.37463 0.0
C3617 C 0.10514 0.52654 0.38774 0.0
C3618 C 0.12545 0.54821 0.37147 0.0
C3619 C 0.13453 0.56176 0.38136 0.0
C3620 C 0.12792 0.55823 0.39442 0.0
C3621 C 0.11335 0.54078 0.39759 0.0
C3622 C 0.15152 0.57898 0.37809 0.0
C3623 C 0.14794 0.60113 0.38203 0.0
C3624 C 0.17099 0.57369 0.37084 0.0
C3625 C 0.17673 0.55041 0.36724 0.0
C3626 C 0.17833 0.53384 0.37693 0.0
C3627 C 0.18363 0.51191 0.37347 0.0
C3628 C 0.18752 0.50639 0.36036 0.0
C3629 C 0.1862 0.52279 0.35068 0.0
C3630 C 0.18088 0.54474 0.35408 0.0
C3631 C 0.22895 0.65477 0.37646 0.0
C3632 C 0.23639 0.65837 0.36354 0.0
C3633 C 0.21101 0.64052 0.37897 0.0
C3634 C 0.20015 0.62951 0.36864 0.0
C3635 C 0.2072 0.63345 0.35571 0.0
C3636 C 0.22504 0.64788 0.35317 0.0
C3637 C 0.18246 0.61281 0.37143 0.0
C3638 C 0.18598 0.5907 0.36746 0.0
C3639 C 0.16312 0.61813 0.37877 0.0
C3640 C 0.15809 0.64132 0.38287 0.0
C3641 C 0.15739 0.65861 0.37358 0.0
C3642 C 0.15276 0.68045 0.37752 0.0
C3643 C 0.14866 0.68519 0.39072 0.0
C3644 C 0.14913 0.6681 0.4 0.0
C3645 C 0.15376 0.64623 0.39612 0.0
H3646 H 0.14508 0.70211 0.39375 0.0
H3647 H 0.19163 0.48941 0.3577 0.0
loop_
_geom_bond_atom_site_label_1
_geom_bond_atom_site_label_2
_geom_bond_distance
_geom_bond_site_symmetry_2
_ccdc_geom_bond_type
O0 Cd1 2.223 . S
O0 C8 1.315 . S
Cd1 O0 2.223 . S
Cd1 O4 2.297 . S
Cd1 O5 2.439 . S
Cd1 O11 2.240 . S
Cd2 O3 2.240 . S
Cd2 O10 2.223 . S
Cd2 O12 2.297 . S
Cd2 O13 2.439 . S
O3 Cd2 2.240 . S
O3 C8 1.279 . S
O4 Cd1 2.297 . S
O4 C6 1.247 . S
O5 Cd1 2.439 . S
O5 C6 1.208 . S
C6 O4 1.247 . S
C6 O5 1.208 . S
C7 O12 1.247 . S
C7 O13 1.208 . S
C8 O0 1.315 . S
C8 O3 1.279 . S
C9 O10 1.315 . S
C9 O11 1.279 . S
O10 Cd2 2.223 . S
O10 C9 1.315 . S
O11 Cd1 2.240 . S
O11 C9 1.279 . S
O12 Cd2 2.297 . S
O12 C7 1.247 . S
O13 Cd2 2.439 . S
O13 C7 1.208 . S
O14 Cd15 2.223 . S
O14 C22 1.315 . S
Cd15 O14 2.223 . S
Cd15 O18 2.297 . S
Cd15 O19 2.439 . S
Cd15 O25 2.240 . S
Cd16 O17 2.240 . S
Cd16 O24 2.223 . S
Cd16 O26 2.297 . S
Cd16 O27 2.439 . S
O17 Cd16 2.240 . S
O17 C22 1.279 . S
O18 Cd15 2.297 . S
O18 C20 1.247 . S
O19 Cd15 2.439 . S
O19 C20 1.208 . S
C20 O18 1.247 . S
C20 O19 1.208 . S
C21 O26 1.247 . S
C21 O27 1.208 . S
C22 O14 1.315 . S
C22 O17 1.279 . S
C23 O24 1.315 . S
C23 O25 1.279 . S
O24 Cd16 2.223 . S
O24 C23 1.315 . S
O25 Cd15 2.240 . S
O25 C23 1.279 . S
O26 Cd16 2.297 . S
O26 C21 1.247 . S
O27 Cd16 2.439 . S
O27 C21 1.208 . S
O28 Cd29 2.223 . S
O28 C36 1.315 . S
Cd29 O28 2.223 . S
Cd29 O32 2.297 . S
Cd29 O33 2.439 . S
Cd29 O39 2.240 . S
Cd30 O31 2.240 . S
Cd30 O38 2.223 . S
Cd30 O40 2.297 . S
Cd30 O41 2.439 . S
O31 Cd30 2.240 . S
O31 C36 1.279 . S
O32 Cd29 2.297 . S
O32 C34 1.247 . S
O33 Cd29 2.439 . S
O33 C34 1.208 . S
C34 O32 1.247 . S
C34 O33 1.208 . S
C35 O40 1.247 . S
C35 O41 1.208 . S
C36 O28 1.315 . S
C36 O31 1.279 . S
C37 O38 1.315 . S
C37 O39 1.279 . S
O38 Cd30 2.223 . S
O38 C37 1.315 . S
O39 Cd29 2.240 . S
O39 C37 1.279 . S
O40 Cd30 2.297 . S
O40 C35 1.247 . S
O41 Cd30 2.439 . S
O41 C35 1.208 . S
O42 Cd43 2.223 . S
O42 C50 1.315 . S
Cd43 O42 2.223 . S
Cd43 O46 2.297 . S
Cd43 O47 2.439 . S
Cd43 O53 2.240 . S
Cd44 O45 2.240 . S
Cd44 O52 2.223 . S
Cd44 O54 2.297 . S
Cd44 O55 2.439 . S
O45 Cd44 2.240 . S
O45 C50 1.279 . S
O46 Cd43 2.297 . S
O46 C48 1.247 . S
O47 Cd43 2.439 . S
O47 C48 1.208 . S
C48 O46 1.247 . S
C48 O47 1.208 . S
C49 O54 1.247 . S
C49 O55 1.208 . S
C50 O42 1.315 . S
C50 O45 1.279 . S
C51 O52 1.315 . S
C51 O53 1.279 . S
O52 Cd44 2.223 . S
O52 C51 1.315 . S
O53 Cd43 2.240 . S
O53 C51 1.279 . S
O54 Cd44 2.297 . S
O54 C49 1.247 . S
O55 Cd44 2.439 . S
O55 C49 1.208 . S
O56 Cd57 2.223 . S
O56 C64 1.315 . S
Cd57 O56 2.223 . S
Cd57 O60 2.297 . S
Cd57 O61 2.439 . S
Cd57 O67 2.240 . S
Cd58 O59 2.240 . S
Cd58 O66 2.223 . S
Cd58 O68 2.297 . S
Cd58 O69 2.439 . S
O59 Cd58 2.240 . S
O59 C64 1.279 . S
O60 Cd57 2.297 . S
O60 C62 1.247 . S
O61 Cd57 2.439 . S
O61 C62 1.208 . S
C62 O60 1.247 . S
C62 O61 1.208 . S
C63 O68 1.247 . S
C63 O69 1.208 . S
C64 O56 1.315 . S
C64 O59 1.279 . S
C65 O66 1.315 . S
C65 O67 1.279 . S
O66 Cd58 2.223 . S
O66 C65 1.315 . S
O67 Cd57 2.240 . S
O67 C65 1.279 . S
O68 Cd58 2.297 . S
O68 C63 1.247 . S
O69 Cd58 2.439 . S
O69 C63 1.208 . S
O70 Cd71 2.223 . S
O70 C78 1.315 . S
Cd71 O70 2.223 . S
Cd71 O74 2.297 . S
Cd71 O75 2.439 . S
Cd71 O81 2.240 . S
Cd72 O73 2.240 . S
Cd72 O80 2.223 . S
Cd72 O82 2.297 . S
Cd72 O83 2.439 . S
O73 Cd72 2.240 . S
O73 C78 1.279 . S
O74 Cd71 2.297 . S
O74 C76 1.247 . S
O75 Cd71 2.439 . S
O75 C76 1.208 . S
C76 O74 1.247 . S
C76 O75 1.208 . S
C77 O82 1.247 . S
C77 O83 1.208 . S
C78 O70 1.315 . S
C78 O73 1.279 . S
C79 O80 1.315 . S
C79 O81 1.279 . S
O80 Cd72 2.223 . S
O80 C79 1.315 . S
O81 Cd71 2.240 . S
O81 C79 1.279 . S
O82 Cd72 2.297 . S
O82 C77 1.247 . S
O83 Cd72 2.439 . S
O83 C77 1.208 . S
O84 Cd85 2.223 . S
O84 C92 1.315 . S
Cd85 O84 2.223 . S
Cd85 O88 2.297 . S
Cd85 O89 2.439 . S
Cd85 O95 2.240 . S
Cd86 O87 2.240 . S
Cd86 O94 2.223 . S
Cd86 O96 2.297 . S
Cd86 O97 2.439 . S
O87 Cd86 2.240 . S
O87 C92 1.279 . S
O88 Cd85 2.297 . S
O88 C90 1.247 . S
O89 Cd85 2.439 . S
O89 C90 1.208 . S
C90 O88 1.247 . S
C90 O89 1.208 . S
C91 O96 1.247 . S
C91 O97 1.208 . S
C92 O84 1.315 . S
C92 O87 1.279 . S
C93 O94 1.315 . S
C93 O95 1.279 . S
O94 Cd86 2.223 . S
O94 C93 1.315 . S
O95 Cd85 2.240 . S
O95 C93 1.279 . S
O96 Cd86 2.297 . S
O96 C91 1.247 . S
O97 Cd86 2.439 . S
O97 C91 1.208 . S
O98 Cd99 2.223 . S
O98 C106 1.315 . S
Cd99 O98 2.223 . S
Cd99 O102 2.297 . S
Cd99 O103 2.439 . S
Cd99 O109 2.240 . S
Cd100 O101 2.240 . S
Cd100 O108 2.223 . S
Cd100 O110 2.297 . S
Cd100 O111 2.439 . S
O101 Cd100 2.240 . S
O101 C106 1.279 . S
O102 Cd99 2.297 . S
O102 C104 1.247 . S
O103 Cd99 2.439 . S
O103 C104 1.208 . S
C104 O102 1.247 . S
C104 O103 1.208 . S
C105 O110 1.247 . S
C105 O111 1.208 . S
C106 O98 1.315 . S
C106 O101 1.279 . S
C107 O108 1.315 . S
C107 O109 1.279 . S
O108 Cd100 2.223 . S
O108 C107 1.315 . S
O109 Cd99 2.240 . S
O109 C107 1.279 . S
O110 Cd100 2.297 . S
O110 C105 1.247 . S
O111 Cd100 2.439 . S
O111 C105 1.208 . S
O112 Cd113 2.223 . S
O112 C120 1.315 . S
Cd113 O112 2.223 . S
Cd113 O116 2.297 . S
Cd113 O117 2.439 . S
Cd113 O123 2.240 . S
Cd114 O115 2.240 . S
Cd114 O122 2.223 . S
Cd114 O124 2.297 . S
Cd114 O125 2.439 . S
O115 Cd114 2.240 . S
O115 C120 1.279 . S
O116 Cd113 2.297 . S
O116 C118 1.247 . S
O117 Cd113 2.439 . S
O117 C118 1.208 . S
C118 O116 1.247 . S
C118 O117 1.208 . S
C119 O124 1.247 . S
C119 O125 1.208 . S
C120 O112 1.315 . S
C120 O115 1.279 . S
C121 O122 1.315 . S
C121 O123 1.279 . S
O122 Cd114 2.223 . S
O122 C121 1.315 . S
O123 Cd113 2.240 . S
O123 C121 1.279 . S
O124 Cd114 2.297 . S
O124 C119 1.247 . S
O125 Cd114 2.439 . S
O125 C119 1.208 . S
O126 Cd127 2.223 . S
O126 C134 1.315 . S
Cd127 O126 2.223 . S
Cd127 O130 2.297 . S
Cd127 O131 2.439 . S
Cd127 O137 2.240 . S
Cd128 O129 2.240 . S
Cd128 O136 2.223 . S
Cd128 O138 2.297 . S
Cd128 O139 2.439 . S
O129 Cd128 2.240 . S
O129 C134 1.279 . S
O130 Cd127 2.297 . S
O130 C132 1.247 . S
O131 Cd127 2.439 . S
O131 C132 1.208 . S
C132 O130 1.247 . S
C132 O131 1.208 . S
C133 O138 1.247 . S
C133 O139 1.208 . S
C134 O126 1.315 . S
C134 O129 1.279 . S
C135 O136 1.315 . S
C135 O137 1.279 . S
O136 Cd128 2.223 . S
O136 C135 1.315 . S
O137 Cd127 2.240 . S
O137 C135 1.279 . S
O138 Cd128 2.297 . S
O138 C133 1.247 . S
O139 Cd128 2.439 . S
O139 C133 1.208 . S
O140 Cd141 2.223 . S
O140 C148 1.315 . S
Cd141 O140 2.223 . S
Cd141 O144 2.297 . S
Cd141 O145 2.439 . S
Cd141 O151 2.240 . S
Cd142 O143 2.240 . S
Cd142 O150 2.223 . S
Cd142 O152 2.297 . S
Cd142 O153 2.439 . S
O143 Cd142 2.240 . S
O143 C148 1.279 . S
O144 Cd141 2.297 . S
O144 C146 1.247 . S
O145 Cd141 2.439 . S
O145 C146 1.208 . S
C146 O144 1.247 . S
C146 O145 1.208 . S
C147 O152 1.247 . S
C147 O153 1.208 . S
C148 O140 1.315 . S
C148 O143 1.279 . S
C149 O150 1.315 . S
C149 O151 1.279 . S
O150 Cd142 2.223 . S
O150 C149 1.315 . S
O151 Cd141 2.240 . S
O151 C149 1.279 . S
O152 Cd142 2.297 . S
O152 C147 1.247 . S
O153 Cd142 2.439 . S
O153 C147 1.208 . S
O154 Cd155 2.223 . S
O154 C162 1.315 . S
Cd155 O154 2.223 . S
Cd155 O158 2.297 . S
Cd155 O159 2.439 . S
Cd155 O165 2.240 . S
Cd156 O157 2.240 . S
Cd156 O164 2.223 . S
Cd156 O166 2.297 . S
Cd156 O167 2.439 . S
O157 Cd156 2.240 . S
O157 C162 1.279 . S
O158 Cd155 2.297 . S
O158 C160 1.247 . S
O159 Cd155 2.439 . S
O159 C160 1.208 . S
C160 O158 1.247 . S
C160 O159 1.208 . S
C161 O166 1.247 . S
C161 O167 1.208 . S
C162 O154 1.315 . S
C162 O157 1.279 . S
C163 O164 1.315 . S
C163 O165 1.279 . S
O164 Cd156 2.223 . S
O164 C163 1.315 . S
O165 Cd155 2.240 . S
O165 C163 1.279 . S
O166 Cd156 2.297 . S
O166 C161 1.247 . S
O167 Cd156 2.439 . S
O167 C161 1.208 . S
O168 Cd169 2.223 . S
O168 C176 1.315 . S
Cd169 O168 2.223 . S
Cd169 O172 2.297 . S
Cd169 O173 2.439 . S
Cd169 O179 2.240 . S
Cd170 O171 2.240 . S
Cd170 O178 2.223 . S
Cd170 O180 2.297 . S
Cd170 O181 2.439 . S
O171 Cd170 2.240 . S
O171 C176 1.279 . S
O172 Cd169 2.297 . S
O172 C174 1.247 . S
O173 Cd169 2.439 . S
O173 C174 1.208 . S
C174 O172 1.247 . S
C174 O173 1.208 . S
C175 O180 1.247 . S
C175 O181 1.208 . S
C176 O168 1.315 . S
C176 O171 1.279 . S
C177 O178 1.315 . S
C177 O179 1.279 . S
O178 Cd170 2.223 . S
O178 C177 1.315 . S
O179 Cd169 2.240 . S
O179 C177 1.279 . S
O180 Cd170 2.297 . S
O180 C175 1.247 . S
O181 Cd170 2.439 . S
O181 C175 1.208 . S
O182 Cd183 2.223 . S
O182 C190 1.315 . S
Cd183 O182 2.223 . S
Cd183 O186 2.297 . S
Cd183 O187 2.439 . S
Cd183 O193 2.240 . S
Cd184 O185 2.240 . S
Cd184 O192 2.223 . S
Cd184 O194 2.297 . S
Cd184 O195 2.439 . S
O185 Cd184 2.240 . S
O185 C190 1.279 . S
O186 Cd183 2.297 . S
O186 C188 1.247 . S
O187 Cd183 2.439 . S
O187 C188 1.208 . S
C188 O186 1.247 . S
C188 O187 1.208 . S
C189 O194 1.247 . S
C189 O195 1.208 . S
C190 O182 1.315 . S
C190 O185 1.279 . S
C191 O192 1.315 . S
C191 O193 1.279 . S
O192 Cd184 2.223 . S
O192 C191 1.315 . S
O193 Cd183 2.240 . S
O193 C191 1.279 . S
O194 Cd184 2.297 . S
O194 C189 1.247 . S
O195 Cd184 2.439 . S
O195 C189 1.208 . S
O196 Cd197 2.223 . S
O196 C204 1.315 . S
Cd197 O196 2.223 . S
Cd197 O200 2.297 . S
Cd197 O201 2.439 . S
Cd197 O207 2.240 . S
Cd198 O199 2.240 . S
Cd198 O206 2.223 . S
Cd198 O208 2.297 . S
Cd198 O209 2.439 . S
O199 Cd198 2.240 . S
O199 C204 1.279 . S
O200 Cd197 2.297 . S
O200 C202 1.247 . S
O201 Cd197 2.439 . S
O201 C202 1.208 . S
C202 O200 1.247 . S
C202 O201 1.208 . S
C203 O208 1.247 . S
C203 O209 1.208 . S
C204 O196 1.315 . S
C204 O199 1.279 . S
C205 O206 1.315 . S
C205 O207 1.279 . S
O206 Cd198 2.223 . S
O206 C205 1.315 . S
O207 Cd197 2.240 . S
O207 C205 1.279 . S
O208 Cd198 2.297 . S
O208 C203 1.247 . S
O209 Cd198 2.439 . S
O209 C203 1.208 . S
O210 Cd211 2.223 . S
O210 C218 1.315 . S
Cd211 O210 2.223 . S
Cd211 O214 2.297 . S
Cd211 O215 2.439 . S
Cd211 O221 2.240 . S
Cd212 O213 2.240 . S
Cd212 O220 2.223 . S
Cd212 O222 2.297 . S
Cd212 O223 2.439 . S
O213 Cd212 2.240 . S
O213 C218 1.279 . S
O214 Cd211 2.297 . S
O214 C216 1.247 . S
O215 Cd211 2.439 . S
O215 C216 1.208 . S
C216 O214 1.247 . S
C216 O215 1.208 . S
C217 O222 1.247 . S
C217 O223 1.208 . S
C218 O210 1.315 . S
C218 O213 1.279 . S
C219 O220 1.315 . S
C219 O221 1.279 . S
O220 Cd212 2.223 . S
O220 C219 1.315 . S
O221 Cd211 2.240 . S
O221 C219 1.279 . S
O222 Cd212 2.297 . S
O222 C217 1.247 . S
O223 Cd212 2.439 . S
O223 C217 1.208 . S
O224 Cd225 2.223 . S
O224 C232 1.315 . S
Cd225 O224 2.223 . S
Cd225 O228 2.297 . S
Cd225 O229 2.439 . S
Cd225 O235 2.240 . S
Cd226 O227 2.240 . S
Cd226 O234 2.223 . S
Cd226 O236 2.297 . S
Cd226 O237 2.439 . S
O227 Cd226 2.240 . S
O227 C232 1.279 . S
O228 Cd225 2.297 . S
O228 C230 1.247 . S
O229 Cd225 2.439 . S
O229 C230 1.208 . S
C230 O228 1.247 . S
C230 O229 1.208 . S
C231 O236 1.247 . S
C231 O237 1.208 . S
C232 O224 1.315 . S
C232 O227 1.279 . S
C233 O234 1.315 . S
C233 O235 1.279 . S
O234 Cd226 2.223 . S
O234 C233 1.315 . S
O235 Cd225 2.240 . S
O235 C233 1.279 . S
O236 Cd226 2.297 . S
O236 C231 1.247 . S
O237 Cd226 2.439 . S
O237 C231 1.208 . S
O238 Cd239 2.223 . S
O238 C246 1.315 . S
Cd239 O238 2.223 . S
Cd239 O242 2.297 . S
Cd239 O243 2.439 . S
Cd239 O249 2.240 . S
Cd240 O241 2.240 . S
Cd240 O248 2.223 . S
Cd240 O250 2.297 . S
Cd240 O251 2.439 . S
O241 Cd240 2.240 . S
O241 C246 1.279 . S
O242 Cd239 2.297 . S
O242 C244 1.247 . S
O243 Cd239 2.439 . S
O243 C244 1.208 . S
C244 O242 1.247 . S
C244 O243 1.208 . S
C245 O250 1.247 . S
C245 O251 1.208 . S
C246 O238 1.315 . S
C246 O241 1.279 . S
C247 O248 1.315 . S
C247 O249 1.279 . S
O248 Cd240 2.223 . S
O248 C247 1.315 . S
O249 Cd239 2.240 . S
O249 C247 1.279 . S
O250 Cd240 2.297 . S
O250 C245 1.247 . S
O251 Cd240 2.439 . S
O251 C245 1.208 . S
O252 Cd253 2.223 . S
O252 C260 1.315 . S
Cd253 O252 2.223 . S
Cd253 O256 2.297 . S
Cd253 O257 2.439 . S
Cd253 O263 2.240 . S
Cd254 O255 2.240 . S
Cd254 O262 2.223 . S
Cd254 O264 2.297 . S
Cd254 O265 2.439 . S
O255 Cd254 2.240 . S
O255 C260 1.279 . S
O256 Cd253 2.297 . S
O256 C258 1.247 . S
O257 Cd253 2.439 . S
O257 C258 1.208 . S
C258 O256 1.247 . S
C258 O257 1.208 . S
C259 O264 1.247 . S
C259 O265 1.208 . S
C260 O252 1.315 . S
C260 O255 1.279 . S
C261 O262 1.315 . S
C261 O263 1.279 . S
O262 Cd254 2.223 . S
O262 C261 1.315 . S
O263 Cd253 2.240 . S
O263 C261 1.279 . S
O264 Cd254 2.297 . S
O264 C259 1.247 . S
O265 Cd254 2.439 . S
O265 C259 1.208 . S
O266 Cd267 2.223 . S
O266 C274 1.315 . S
Cd267 O266 2.223 . S
Cd267 O270 2.297 . S
Cd267 O271 2.439 . S
Cd267 O277 2.240 . S
Cd268 O269 2.240 . S
Cd268 O276 2.223 . S
Cd268 O278 2.297 . S
Cd268 O279 2.439 . S
O269 Cd268 2.240 . S
O269 C274 1.279 . S
O270 Cd267 2.297 . S
O270 C272 1.247 . S
O271 Cd267 2.439 . S
O271 C272 1.208 . S
C272 O270 1.247 . S
C272 O271 1.208 . S
C273 O278 1.247 . S
C273 O279 1.208 . S
C274 O266 1.315 . S
C274 O269 1.279 . S
C275 O276 1.315 . S
C275 O277 1.279 . S
O276 Cd268 2.223 . S
O276 C275 1.315 . S
O277 Cd267 2.240 . S
O277 C275 1.279 . S
O278 Cd268 2.297 . S
O278 C273 1.247 . S
O279 Cd268 2.439 . S
O279 C273 1.208 . S
O280 Cd281 2.223 . S
O280 C288 1.315 . S
Cd281 O280 2.223 . S
Cd281 O284 2.297 . S
Cd281 O285 2.439 . S
Cd281 O291 2.240 . S
Cd282 O283 2.240 . S
Cd282 O290 2.223 . S
Cd282 O292 2.297 . S
Cd282 O293 2.439 . S
O283 Cd282 2.240 . S
O283 C288 1.279 . S
O284 Cd281 2.297 . S
O284 C286 1.247 . S
O285 Cd281 2.439 . S
O285 C286 1.208 . S
C286 O284 1.247 . S
C286 O285 1.208 . S
C287 O292 1.247 . S
C287 O293 1.208 . S
C288 O280 1.315 . S
C288 O283 1.279 . S
C289 O290 1.315 . S
C289 O291 1.279 . S
O290 Cd282 2.223 . S
O290 C289 1.315 . S
O291 Cd281 2.240 . S
O291 C289 1.279 . S
O292 Cd282 2.297 . S
O292 C287 1.247 . S
O293 Cd282 2.439 . S
O293 C287 1.208 . S
O294 Cd295 2.223 . S
O294 C302 1.315 . S
Cd295 O294 2.223 . S
Cd295 O298 2.297 . S
Cd295 O299 2.439 . S
Cd295 O305 2.240 . S
Cd296 O297 2.240 . S
Cd296 O304 2.223 . S
Cd296 O306 2.297 . S
Cd296 O307 2.439 . S
O297 Cd296 2.240 . S
O297 C302 1.279 . S
O298 Cd295 2.297 . S
O298 C300 1.247 . S
O299 Cd295 2.439 . S
O299 C300 1.208 . S
C300 O298 1.247 . S
C300 O299 1.208 . S
C301 O306 1.247 . S
C301 O307 1.208 . S
C302 O294 1.315 . S
C302 O297 1.279 . S
C303 O304 1.315 . S
C303 O305 1.279 . S
O304 Cd296 2.223 . S
O304 C303 1.315 . S
O305 Cd295 2.240 . S
O305 C303 1.279 . S
O306 Cd296 2.297 . S
O306 C301 1.247 . S
O307 Cd296 2.439 . S
O307 C301 1.208 . S
O308 Cd309 2.223 . S
O308 C316 1.315 . S
Cd309 O308 2.223 . S
Cd309 O312 2.297 . S
Cd309 O313 2.439 . S
Cd309 O319 2.240 . S
Cd310 O311 2.240 . S
Cd310 O318 2.223 . S
Cd310 O320 2.297 . S
Cd310 O321 2.439 . S
O311 Cd310 2.240 . S
O311 C316 1.279 . S
O312 Cd309 2.297 . S
O312 C314 1.247 . S
O313 Cd309 2.439 . S
O313 C314 1.208 . S
C314 O312 1.247 . S
C314 O313 1.208 . S
C315 O320 1.247 . S
C315 O321 1.208 . S
C316 O308 1.315 . S
C316 O311 1.279 . S
C317 O318 1.315 . S
C317 O319 1.279 . S
O318 Cd310 2.223 . S
O318 C317 1.315 . S
O319 Cd309 2.240 . S
O319 C317 1.279 . S
O320 Cd310 2.297 . S
O320 C315 1.247 . S
O321 Cd310 2.439 . S
O321 C315 1.208 . S
O322 Cd323 2.223 . S
O322 C330 1.315 . S
Cd323 O322 2.223 . S
Cd323 O326 2.297 . S
Cd323 O327 2.439 . S
Cd323 O333 2.240 . S
Cd324 O325 2.240 . S
Cd324 O332 2.223 . S
Cd324 O334 2.297 . S
Cd324 O335 2.439 . S
O325 Cd324 2.240 . S
O325 C330 1.279 . S
O326 Cd323 2.297 . S
O326 C328 1.247 . S
O327 Cd323 2.439 . S
O327 C328 1.208 . S
C328 O326 1.247 . S
C328 O327 1.208 . S
C329 O334 1.247 . S
C329 O335 1.208 . S
C330 O322 1.315 . S
C330 O325 1.279 . S
C331 O332 1.315 . S
C331 O333 1.279 . S
O332 Cd324 2.223 . S
O332 C331 1.315 . S
O333 Cd323 2.240 . S
O333 C331 1.279 . S
O334 Cd324 2.297 . S
O334 C329 1.247 . S
O335 Cd324 2.439 . S
O335 C329 1.208 . S
O336 Cd337 2.223 . S
O336 C344 1.315 . S
Cd337 O336 2.223 . S
Cd337 O340 2.297 . S
Cd337 O341 2.439 . S
Cd337 O347 2.240 . S
Cd338 O339 2.240 . S
Cd338 O346 2.223 . S
Cd338 O348 2.297 . S
Cd338 O349 2.439 . S
O339 Cd338 2.240 . S
O339 C344 1.279 . S
O340 Cd337 2.297 . S
O340 C342 1.247 . S
O341 Cd337 2.439 . S
O341 C342 1.208 . S
C342 O340 1.247 . S
C342 O341 1.208 . S
C343 O348 1.247 . S
C343 O349 1.208 . S
C344 O336 1.315 . S
C344 O339 1.279 . S
C345 O346 1.315 . S
C345 O347 1.279 . S
O346 Cd338 2.223 . S
O346 C345 1.315 . S
O347 Cd337 2.240 . S
O347 C345 1.279 . S
O348 Cd338 2.297 . S
O348 C343 1.247 . S
O349 Cd338 2.439 . S
O349 C343 1.208 . S
O350 Cd351 2.223 . S
O350 C358 1.315 . S
Cd351 O350 2.223 . S
Cd351 O354 2.297 . S
Cd351 O355 2.439 . S
Cd351 O361 2.240 . S
Cd352 O353 2.240 . S
Cd352 O360 2.223 . S
Cd352 O362 2.297 . S
Cd352 O363 2.439 . S
O353 Cd352 2.240 . S
O353 C358 1.279 . S
O354 Cd351 2.297 . S
O354 C356 1.247 . S
O355 Cd351 2.439 . S
O355 C356 1.208 . S
C356 O354 1.247 . S
C356 O355 1.208 . S
C357 O362 1.247 . S
C357 O363 1.208 . S
C358 O350 1.315 . S
C358 O353 1.279 . S
C359 O360 1.315 . S
C359 O361 1.279 . S
O360 Cd352 2.223 . S
O360 C359 1.315 . S
O361 Cd351 2.240 . S
O361 C359 1.279 . S
O362 Cd352 2.297 . S
O362 C357 1.247 . S
O363 Cd352 2.439 . S
O363 C357 1.208 . S
O364 Cd365 2.223 . S
O364 C372 1.315 . S
Cd365 O364 2.223 . S
Cd365 O368 2.297 . S
Cd365 O369 2.439 . S
Cd365 O375 2.240 . S
Cd366 O367 2.240 . S
Cd366 O374 2.223 . S
Cd366 O376 2.297 . S
Cd366 O377 2.439 . S
O367 Cd366 2.240 . S
O367 C372 1.279 . S
O368 Cd365 2.297 . S
O368 C370 1.247 . S
O369 Cd365 2.439 . S
O369 C370 1.208 . S
C370 O368 1.247 . S
C370 O369 1.208 . S
C371 O376 1.247 . S
C371 O377 1.208 . S
C372 O364 1.315 . S
C372 O367 1.279 . S
C373 O374 1.315 . S
C373 O375 1.279 . S
O374 Cd366 2.223 . S
O374 C373 1.315 . S
O375 Cd365 2.240 . S
O375 C373 1.279 . S
O376 Cd366 2.297 . S
O376 C371 1.247 . S
O377 Cd366 2.439 . S
O377 C371 1.208 . S
O378 Cd379 2.223 . S
O378 C386 1.315 . S
Cd379 O378 2.223 . S
Cd379 O382 2.297 . S
Cd379 O383 2.439 . S
Cd379 O389 2.240 . S
Cd380 O381 2.240 . S
Cd380 O388 2.223 . S
Cd380 O390 2.297 . S
Cd380 O391 2.439 . S
O381 Cd380 2.240 . S
O381 C386 1.279 . S
O382 Cd379 2.297 . S
O382 C384 1.247 . S
O383 Cd379 2.439 . S
O383 C384 1.208 . S
C384 O382 1.247 . S
C384 O383 1.208 . S
C385 O390 1.247 . S
C385 O391 1.208 . S
C386 O378 1.315 . S
C386 O381 1.279 . S
C387 O388 1.315 . S
C387 O389 1.279 . S
O388 Cd380 2.223 . S
O388 C387 1.315 . S
O389 Cd379 2.240 . S
O389 C387 1.279 . S
O390 Cd380 2.297 . S
O390 C385 1.247 . S
O391 Cd380 2.439 . S
O391 C385 1.208 . S
O392 Cd393 2.223 . S
O392 C400 1.315 . S
Cd393 O392 2.223 . S
Cd393 O396 2.297 . S
Cd393 O397 2.439 . S
Cd393 O403 2.240 . S
Cd394 O395 2.240 . S
Cd394 O402 2.223 . S
Cd394 O404 2.297 . S
Cd394 O405 2.439 . S
O395 Cd394 2.240 . S
O395 C400 1.279 . S
O396 Cd393 2.297 . S
O396 C398 1.247 . S
O397 Cd393 2.439 . S
O397 C398 1.208 . S
C398 O396 1.247 . S
C398 O397 1.208 . S
C399 O404 1.247 . S
C399 O405 1.208 . S
C400 O392 1.315 . S
C400 O395 1.279 . S
C401 O402 1.315 . S
C401 O403 1.279 . S
O402 Cd394 2.223 . S
O402 C401 1.315 . S
O403 Cd393 2.240 . S
O403 C401 1.279 . S
O404 Cd394 2.297 . S
O404 C399 1.247 . S
O405 Cd394 2.439 . S
O405 C399 1.208 . S
O406 Cd407 2.223 . S
O406 C414 1.315 . S
Cd407 O406 2.223 . S
Cd407 O410 2.297 . S
Cd407 O411 2.439 . S
Cd407 O417 2.240 . S
Cd408 O409 2.240 . S
Cd408 O416 2.223 . S
Cd408 O418 2.297 . S
Cd408 O419 2.439 . S
O409 Cd408 2.240 . S
O409 C414 1.279 . S
O410 Cd407 2.297 . S
O410 C412 1.247 . S
O411 Cd407 2.439 . S
O411 C412 1.208 . S
C412 O410 1.247 . S
C412 O411 1.208 . S
C413 O418 1.247 . S
C413 O419 1.208 . S
C414 O406 1.315 . S
C414 O409 1.279 . S
C415 O416 1.315 . S
C415 O417 1.279 . S
O416 Cd408 2.223 . S
O416 C415 1.315 . S
O417 Cd407 2.240 . S
O417 C415 1.279 . S
O418 Cd408 2.297 . S
O418 C413 1.247 . S
O419 Cd408 2.439 . S
O419 C413 1.208 . S
O420 Cd421 2.223 . S
O420 C428 1.315 . S
Cd421 O420 2.223 . S
Cd421 O424 2.297 . S
Cd421 O425 2.439 . S
Cd421 O431 2.240 . S
Cd422 O423 2.240 . S
Cd422 O430 2.223 . S
Cd422 O432 2.297 . S
Cd422 O433 2.439 . S
O423 Cd422 2.240 . S
O423 C428 1.279 . S
O424 Cd421 2.297 . S
O424 C426 1.247 . S
O425 Cd421 2.439 . S
O425 C426 1.208 . S
C426 O424 1.247 . S
C426 O425 1.208 . S
C427 O432 1.247 . S
C427 O433 1.208 . S
C428 O420 1.315 . S
C428 O423 1.279 . S
C429 O430 1.315 . S
C429 O431 1.279 . S
O430 Cd422 2.223 . S
O430 C429 1.315 . S
O431 Cd421 2.240 . S
O431 C429 1.279 . S
O432 Cd422 2.297 . S
O432 C427 1.247 . S
O433 Cd422 2.439 . S
O433 C427 1.208 . S
O434 Cd435 2.223 . S
O434 C442 1.315 . S
Cd435 O434 2.223 . S
Cd435 O438 2.297 . S
Cd435 O439 2.439 . S
Cd435 O445 2.240 . S
Cd436 O437 2.240 . S
Cd436 O444 2.223 . S
Cd436 O446 2.297 . S
Cd436 O447 2.439 . S
O437 Cd436 2.240 . S
O437 C442 1.279 . S
O438 Cd435 2.297 . S
O438 C440 1.247 . S
O439 Cd435 2.439 . S
O439 C440 1.208 . S
C440 O438 1.247 . S
C440 O439 1.208 . S
C441 O446 1.247 . S
C441 O447 1.208 . S
C442 O434 1.315 . S
C442 O437 1.279 . S
C443 O444 1.315 . S
C443 O445 1.279 . S
O444 Cd436 2.223 . S
O444 C443 1.315 . S
O445 Cd435 2.240 . S
O445 C443 1.279 . S
O446 Cd436 2.297 . S
O446 C441 1.247 . S
O447 Cd436 2.439 . S
O447 C441 1.208 . S
H448 C466 0.951 . S
H449 C468 0.951 . S
H450 C470 0.950 . S
H451 C471 0.950 . S
H452 C473 0.950 . S
H453 C476 0.950 . S
H454 C477 0.950 . S
H455 C479 0.950 . S
H456 C480 0.950 . S
H457 C481 0.951 . S
H458 C483 0.951 . S
H459 C485 0.950 . S
H460 C486 0.950 . S
H461 C488 0.950 . S
H462 C491 0.950 . S
H463 C492 0.950 . S
H464 C494 0.950 . S
H465 C495 0.950 . S
C466 H448 0.951 . S
C466 C467 1.366 . S
C466 C468 1.388 . S
C467 C466 1.366 . S
C467 C471 1.385 . S
C468 H449 0.951 . S
C468 C466 1.388 . S
C468 C469 1.366 . S
C469 C468 1.366 . S
C469 C470 1.414 . S
C469 C472 1.499 . S
C470 H450 0.950 . S
C470 C469 1.414 . S
C470 C471 1.374 . S
C471 H451 0.950 . S
C471 C467 1.385 . S
C471 C470 1.374 . S
C472 C469 1.499 . S
C472 C473 1.373 . S
C472 C474 1.389 . S
C473 H452 0.950 . S
C473 C472 1.373 . S
C473 C489 1.377 . S
C474 C472 1.389 . S
C474 C475 1.524 . S
C474 C488 1.377 . S
C475 C474 1.524 . S
C475 C476 1.397 . S
C475 C480 1.363 . S
C476 H453 0.950 . S
C476 C475 1.397 . S
C476 C477 1.334 . S
C477 H454 0.950 . S
C477 C476 1.334 . S
C477 C478 1.287 . S
C478 C477 1.287 . S
C478 C479 1.524 . S
C478 H497 0.913 . S
C479 H455 0.950 . S
C479 C478 1.524 . S
C479 C480 1.415 . S
C480 H456 0.950 . S
C480 C475 1.363 . S
C480 C479 1.415 . S
C481 H457 0.951 . S
C481 C482 1.366 . S
C481 C483 1.388 . S
C482 C481 1.366 . S
C482 C486 1.385 . S
C483 H458 0.951 . S
C483 C481 1.388 . S
C483 C484 1.366 . S
C484 C483 1.366 . S
C484 C485 1.414 . S
C484 C487 1.499 . S
C485 H459 0.950 . S
C485 C484 1.414 . S
C485 C486 1.374 . S
C486 H460 0.950 . S
C486 C482 1.385 . S
C486 C485 1.374 . S
C487 C484 1.499 . S
C487 C488 1.373 . S
C487 C489 1.389 . S
C488 H461 0.950 . S
C488 C474 1.377 . S
C488 C487 1.373 . S
C489 C473 1.377 . S
C489 C487 1.389 . S
C489 C490 1.524 . S
C490 C489 1.524 . S
C490 C491 1.397 . S
C490 C495 1.363 . S
C491 H462 0.950 . S
C491 C490 1.397 . S
C491 C492 1.334 . S
C492 H463 0.950 . S
C492 C491 1.334 . S
C492 C493 1.287 . S
C493 C492 1.287 . S
C493 C494 1.524 . S
C493 H496 0.999 . S
C494 H464 0.950 . S
C494 C493 1.524 . S
C494 C495 1.415 . S
C495 H465 0.950 . S
C495 C490 1.363 . S
C495 C494 1.415 . S
H496 C493 0.999 . S
H497 C478 0.913 . S
H498 C516 0.951 . S
H499 C518 0.951 . S
H500 C520 0.950 . S
H501 C521 0.950 . S
H502 C523 0.950 . S
H503 C526 0.950 . S
H504 C527 0.950 . S
H505 C529 0.950 . S
H506 C530 0.950 . S
H507 C531 0.951 . S
H508 C533 0.951 . S
H509 C535 0.950 . S
H510 C536 0.950 . S
H511 C538 0.950 . S
H512 C541 0.950 . S
H513 C542 0.950 . S
H514 C544 0.950 . S
H515 C545 0.950 . S
C516 H498 0.951 . S
C516 C517 1.366 1_655 S
C516 C518 1.388 . S
C517 C516 1.366 1_455 S
C517 C521 1.385 . S
C518 H499 0.951 . S
C518 C516 1.388 . S
C518 C519 1.366 . S
C519 C518 1.366 . S
C519 C520 1.414 . S
C519 C522 1.499 . S
C520 H500 0.950 . S
C520 C519 1.414 . S
C520 C521 1.374 1_655 S
C521 H501 0.950 . S
C521 C517 1.385 . S
C521 C520 1.374 1_455 S
C522 C519 1.499 . S
C522 C523 1.373 . S
C522 C524 1.389 . S
C523 H502 0.950 . S
C523 C522 1.373 . S
C523 C539 1.377 . S
C524 C522 1.389 . S
C524 C525 1.524 . S
C524 C538 1.377 . S
C525 C524 1.524 . S
C525 C526 1.397 . S
C525 C530 1.363 . S
C526 H503 0.950 . S
C526 C525 1.397 . S
C526 C527 1.334 . S
C527 H504 0.950 . S
C527 C526 1.334 . S
C527 C528 1.287 . S
C528 C527 1.287 . S
C528 C529 1.524 . S
C528 H547 0.913 . S
C529 H505 0.950 . S
C529 C528 1.524 . S
C529 C530 1.415 . S
C530 H506 0.950 . S
C530 C525 1.363 . S
C530 C529 1.415 . S
C531 H507 0.951 . S
C531 C532 1.366 . S
C531 C533 1.388 . S
C532 C531 1.366 . S
C532 C536 1.385 . S
C533 H508 0.951 . S
C533 C531 1.388 . S
C533 C534 1.366 . S
C534 C533 1.366 . S
C534 C535 1.414 . S
C534 C537 1.499 . S
C535 H509 0.950 . S
C535 C534 1.414 . S
C535 C536 1.374 . S
C536 H510 0.950 . S
C536 C532 1.385 . S
C536 C535 1.374 . S
C537 C534 1.499 . S
C537 C538 1.373 . S
C537 C539 1.389 . S
C538 H511 0.950 . S
C538 C524 1.377 . S
C538 C537 1.373 . S
C539 C523 1.377 . S
C539 C537 1.389 . S
C539 C540 1.524 . S
C540 C539 1.524 . S
C540 C541 1.397 . S
C540 C545 1.363 . S
C541 H512 0.950 . S
C541 C540 1.397 . S
C541 C542 1.334 . S
C542 H513 0.950 . S
C542 C541 1.334 . S
C542 C543 1.287 . S
C543 C542 1.287 . S
C543 C544 1.524 . S
C543 H546 0.999 . S
C544 H514 0.950 . S
C544 C543 1.524 . S
C544 C545 1.415 . S
C545 H515 0.950 . S
C545 C540 1.363 . S
C545 C544 1.415 . S
H546 C543 0.999 . S
H547 C528 0.913 . S
H548 C566 0.951 . S
H549 C568 0.951 . S
H550 C570 0.950 . S
H551 C571 0.950 . S
H552 C573 0.950 . S
H553 C576 0.950 . S
H554 C577 0.950 . S
H555 C579 0.950 . S
H556 C580 0.950 . S
H557 C581 0.951 . S
H558 C583 0.951 . S
H559 C585 0.950 . S
H560 C586 0.950 . S
H561 C588 0.950 . S
H562 C591 0.950 . S
H563 C592 0.950 . S
H564 C594 0.950 . S
H565 C595 0.950 . S
C566 H548 0.951 . S
C566 C567 1.366 . S
C566 C568 1.388 . S
C567 C566 1.366 . S
C567 C571 1.385 . S
C568 H549 0.951 . S
C568 C566 1.388 . S
C568 C569 1.366 . S
C569 C568 1.366 . S
C569 C570 1.414 . S
C569 C572 1.499 . S
C570 H550 0.950 . S
C570 C569 1.414 . S
C570 C571 1.374 . S
C571 H551 0.950 . S
C571 C567 1.385 . S
C571 C570 1.374 . S
C572 C569 1.499 . S
C572 C573 1.373 . S
C572 C574 1.389 . S
C573 H552 0.950 . S
C573 C572 1.373 . S
C573 C589 1.377 . S
C574 C572 1.389 . S
C574 C575 1.524 . S
C574 C588 1.377 . S
C575 C574 1.524 . S
C575 C576 1.397 . S
C575 C580 1.363 . S
C576 H553 0.950 . S
C576 C575 1.397 . S
C576 C577 1.334 . S
C577 H554 0.950 . S
C577 C576 1.334 . S
C577 C578 1.287 . S
C578 C577 1.287 . S
C578 C579 1.524 . S
C578 H597 0.913 . S
C579 H555 0.950 . S
C579 C578 1.524 . S
C579 C580 1.415 . S
C580 H556 0.950 . S
C580 C575 1.363 . S
C580 C579 1.415 . S
C581 H557 0.951 . S
C581 C582 1.366 . S
C581 C583 1.388 . S
C582 C581 1.366 . S
C582 C586 1.385 . S
C583 H558 0.951 . S
C583 C581 1.388 . S
C583 C584 1.366 . S
C584 C583 1.366 . S
C584 C585 1.414 . S
C584 C587 1.499 . S
C585 H559 0.950 . S
C585 C584 1.414 . S
C585 C586 1.374 . S
C586 H560 0.950 . S
C586 C582 1.385 . S
C586 C585 1.374 . S
C587 C584 1.499 . S
C587 C588 1.373 . S
C587 C589 1.389 . S
C588 H561 0.950 . S
C588 C574 1.377 . S
C588 C587 1.373 . S
C589 C573 1.377 . S
C589 C587 1.389 . S
C589 C590 1.524 . S
C590 C589 1.524 . S
C590 C591 1.397 . S
C590 C595 1.363 . S
C591 H562 0.950 . S
C591 C590 1.397 . S
C591 C592 1.334 . S
C592 H563 0.950 . S
C592 C591 1.334 . S
C592 C593 1.287 . S
C593 C592 1.287 . S
C593 C594 1.524 . S
C593 H596 0.999 . S
C594 H564 0.950 . S
C594 C593 1.524 . S
C594 C595 1.415 . S
C595 H565 0.950 . S
C595 C590 1.363 . S
C595 C594 1.415 . S
H596 C593 0.999 . S
H597 C578 0.913 . S
H598 C616 0.951 . S
H599 C618 0.951 . S
H600 C620 0.950 . S
H601 C621 0.950 . S
H602 C623 0.950 . S
H603 C626 0.950 . S
H604 C627 0.950 . S
H605 C629 0.950 . S
H606 C630 0.950 . S
H607 C631 0.951 . S
H608 C633 0.951 . S
H609 C635 0.950 . S
H610 C636 0.950 . S
H611 C638 0.950 . S
H612 C641 0.950 . S
H613 C642 0.950 . S
H614 C644 0.950 . S
H615 C645 0.950 . S
C616 H598 0.951 . S
C616 C617 1.366 . S
C616 C618 1.388 . S
C617 C616 1.366 . S
C617 C621 1.385 . S
C618 H599 0.951 . S
C618 C616 1.388 . S
C618 C619 1.366 . S
C619 C618 1.366 . S
C619 C620 1.414 . S
C619 C622 1.499 . S
C620 H600 0.950 . S
C620 C619 1.414 . S
C620 C621 1.374 . S
C621 H601 0.950 . S
C621 C617 1.385 . S
C621 C620 1.374 . S
C622 C619 1.499 . S
C622 C623 1.373 . S
C622 C624 1.389 . S
C623 H602 0.950 . S
C623 C622 1.373 . S
C623 C639 1.377 . S
C624 C622 1.389 . S
C624 C625 1.524 . S
C624 C638 1.377 . S
C625 C624 1.524 . S
C625 C626 1.397 . S
C625 C630 1.363 . S
C626 H603 0.950 . S
C626 C625 1.397 . S
C626 C627 1.334 . S
C627 H604 0.950 . S
C627 C626 1.334 . S
C627 C628 1.287 . S
C628 C627 1.287 . S
C628 C629 1.524 . S
C628 H647 0.913 . S
C629 H605 0.950 . S
C629 C628 1.524 . S
C629 C630 1.415 . S
C630 H606 0.950 . S
C630 C625 1.363 . S
C630 C629 1.415 . S
C631 H607 0.951 . S
C631 C632 1.366 . S
C631 C633 1.388 . S
C632 C631 1.366 . S
C632 C636 1.385 . S
C633 H608 0.951 . S
C633 C631 1.388 . S
C633 C634 1.366 . S
C634 C633 1.366 . S
C634 C635 1.414 . S
C634 C637 1.499 . S
C635 H609 0.950 . S
C635 C634 1.414 . S
C635 C636 1.374 . S
C636 H610 0.950 . S
C636 C632 1.385 . S
C636 C635 1.374 . S
C637 C634 1.499 . S
C637 C638 1.373 . S
C637 C639 1.389 . S
C638 H611 0.950 . S
C638 C624 1.377 . S
C638 C637 1.373 . S
C639 C623 1.377 . S
C639 C637 1.389 . S
C639 C640 1.524 . S
C640 C639 1.524 . S
C640 C641 1.397 . S
C640 C645 1.363 . S
C641 H612 0.950 . S
C641 C640 1.397 . S
C641 C642 1.334 . S
C642 H613 0.950 . S
C642 C641 1.334 . S
C642 C643 1.287 . S
C643 C642 1.287 . S
C643 C644 1.524 . S
C643 H646 0.999 . S
C644 H614 0.950 . S
C644 C643 1.524 . S
C644 C645 1.415 . S
C645 H615 0.950 . S
C645 C640 1.363 . S
C645 C644 1.415 . S
H646 C643 0.999 . S
H647 C628 0.913 . S
H648 C666 0.951 . S
H649 C668 0.951 . S
H650 C670 0.950 . S
H651 C671 0.950 . S
H652 C673 0.950 . S
H653 C676 0.950 . S
H654 C677 0.950 . S
H655 C679 0.950 . S
H656 C680 0.950 . S
H657 C681 0.951 . S
H658 C683 0.951 . S
H659 C685 0.950 . S
H660 C686 0.950 . S
H661 C688 0.950 . S
H662 C691 0.950 . S
H663 C692 0.950 . S
H664 C694 0.950 . S
H665 C695 0.950 . S
C666 H648 0.951 . S
C666 C667 1.366 . S
C666 C668 1.388 . S
C667 C666 1.366 . S
C667 C671 1.385 . S
C668 H649 0.951 . S
C668 C666 1.388 . S
C668 C669 1.366 . S
C669 C668 1.366 . S
C669 C670 1.414 . S
C669 C672 1.499 . S
C670 H650 0.950 . S
C670 C669 1.414 . S
C670 C671 1.374 . S
C671 H651 0.950 . S
C671 C667 1.385 . S
C671 C670 1.374 . S
C672 C669 1.499 . S
C672 C673 1.373 . S
C672 C674 1.389 . S
C673 H652 0.950 . S
C673 C672 1.373 . S
C673 C689 1.377 . S
C674 C672 1.389 . S
C674 C675 1.524 . S
C674 C688 1.377 . S
C675 C674 1.524 . S
C675 C676 1.397 . S
C675 C680 1.363 . S
C676 H653 0.950 . S
C676 C675 1.397 . S
C676 C677 1.334 . S
C677 H654 0.950 . S
C677 C676 1.334 . S
C677 C678 1.287 . S
C678 C677 1.287 . S
C678 C679 1.524 . S
C678 H697 0.913 . S
C679 H655 0.950 . S
C679 C678 1.524 . S
C679 C680 1.415 . S
C680 H656 0.950 . S
C680 C675 1.363 . S
C680 C679 1.415 . S
C681 H657 0.951 . S
C681 C682 1.366 . S
C681 C683 1.388 . S
C682 C681 1.366 . S
C682 C686 1.385 . S
C683 H658 0.951 . S
C683 C681 1.388 . S
C683 C684 1.366 . S
C684 C683 1.366 . S
C684 C685 1.414 . S
C684 C687 1.499 . S
C685 H659 0.950 . S
C685 C684 1.414 . S
C685 C686 1.374 . S
C686 H660 0.950 . S
C686 C682 1.385 . S
C686 C685 1.374 . S
C687 C684 1.499 . S
C687 C688 1.373 . S
C687 C689 1.389 . S
C688 H661 0.950 . S
C688 C674 1.377 . S
C688 C687 1.373 . S
C689 C673 1.377 . S
C689 C687 1.389 . S
C689 C690 1.524 . S
C690 C689 1.524 . S
C690 C691 1.397 . S
C690 C695 1.363 . S
C691 H662 0.950 . S
C691 C690 1.397 . S
C691 C692 1.334 . S
C692 H663 0.950 . S
C692 C691 1.334 . S
C692 C693 1.287 . S
C693 C692 1.287 . S
C693 C694 1.524 . S
C693 H696 0.999 . S
C694 H664 0.950 . S
C694 C693 1.524 . S
C694 C695 1.415 . S
C695 H665 0.950 . S
C695 C690 1.363 . S
C695 C694 1.415 . S
H696 C693 0.999 . S
H697 C678 0.913 . S
H698 C716 0.951 . S
H699 C718 0.951 . S
H700 C720 0.950 . S
H701 C721 0.950 . S
H702 C723 0.950 . S
H703 C726 0.950 . S
H704 C727 0.950 . S
H705 C729 0.950 . S
H706 C730 0.950 . S
H707 C731 0.951 . S
H708 C733 0.951 . S
H709 C735 0.950 . S
H710 C736 0.950 . S
H711 C738 0.950 . S
H712 C741 0.950 . S
H713 C742 0.950 . S
H714 C744 0.950 . S
H715 C745 0.950 . S
C716 H698 0.951 . S
C716 C717 1.366 . S
C716 C718 1.388 . S
C717 C716 1.366 . S
C717 C721 1.385 . S
C718 H699 0.951 . S
C718 C716 1.388 . S
C718 C719 1.366 . S
C719 C718 1.366 . S
C719 C720 1.414 . S
C719 C722 1.499 . S
C720 H700 0.950 . S
C720 C719 1.414 . S
C720 C721 1.374 . S
C721 H701 0.950 . S
C721 C717 1.385 . S
C721 C720 1.374 . S
C722 C719 1.499 . S
C722 C723 1.373 . S
C722 C724 1.389 . S
C723 H702 0.950 . S
C723 C722 1.373 . S
C723 C739 1.377 . S
C724 C722 1.389 . S
C724 C725 1.524 . S
C724 C738 1.377 . S
C725 C724 1.524 . S
C725 C726 1.397 . S
C725 C730 1.363 . S
C726 H703 0.950 . S
C726 C725 1.397 . S
C726 C727 1.334 . S
C727 H704 0.950 . S
C727 C726 1.334 . S
C727 C728 1.287 . S
C728 C727 1.287 . S
C728 C729 1.524 . S
C728 H747 0.913 . S
C729 H705 0.950 . S
C729 C728 1.524 . S
C729 C730 1.415 . S
C730 H706 0.950 . S
C730 C725 1.363 . S
C730 C729 1.415 . S
C731 H707 0.951 . S
C731 C732 1.366 . S
C731 C733 1.388 . S
C732 C731 1.366 . S
C732 C736 1.385 . S
C733 H708 0.951 . S
C733 C731 1.388 . S
C733 C734 1.366 . S
C734 C733 1.366 . S
C734 C735 1.414 . S
C734 C737 1.499 . S
C735 H709 0.950 . S
C735 C734 1.414 . S
C735 C736 1.374 . S
C736 H710 0.950 . S
C736 C732 1.385 . S
C736 C735 1.374 . S
C737 C734 1.499 . S
C737 C738 1.373 . S
C737 C739 1.389 . S
C738 H711 0.950 . S
C738 C724 1.377 . S
C738 C737 1.373 . S
C739 C723 1.377 . S
C739 C737 1.389 . S
C739 C740 1.524 . S
C740 C739 1.524 . S
C740 C741 1.397 . S
C740 C745 1.363 . S
C741 H712 0.950 . S
C741 C740 1.397 . S
C741 C742 1.334 . S
C742 H713 0.950 . S
C742 C741 1.334 . S
C742 C743 1.287 . S
C743 C742 1.287 . S
C743 C744 1.524 . S
C743 H746 0.999 . S
C744 H714 0.950 . S
C744 C743 1.524 . S
C744 C745 1.415 . S
C745 H715 0.950 . S
C745 C740 1.363 . S
C745 C744 1.415 . S
H746 C743 0.999 . S
H747 C728 0.913 . S
H748 C766 0.951 . S
H749 C768 0.951 . S
H750 C770 0.950 . S
H751 C771 0.950 . S
H752 C773 0.950 . S
H753 C776 0.950 . S
H754 C777 0.950 . S
H755 C779 0.950 . S
H756 C780 0.950 . S
H757 C781 0.951 . S
H758 C783 0.951 . S
H759 C785 0.950 . S
H760 C786 0.950 . S
H761 C788 0.950 . S
H762 C791 0.950 . S
H763 C792 0.950 . S
H764 C794 0.950 . S
H765 C795 0.950 . S
C766 H748 0.951 . S
C766 C767 1.366 . S
C766 C768 1.388 . S
C767 C766 1.366 . S
C767 C771 1.385 . S
C768 H749 0.951 . S
C768 C766 1.388 . S
C768 C769 1.366 . S
C769 C768 1.366 . S
C769 C770 1.414 . S
C769 C772 1.499 . S
C770 H750 0.950 . S
C770 C769 1.414 . S
C770 C771 1.374 . S
C771 H751 0.950 . S
C771 C767 1.385 . S
C771 C770 1.374 . S
C772 C769 1.499 . S
C772 C773 1.373 . S
C772 C774 1.389 . S
C773 H752 0.950 . S
C773 C772 1.373 . S
C773 C789 1.377 . S
C774 C772 1.389 . S
C774 C775 1.524 . S
C774 C788 1.377 . S
C775 C774 1.524 . S
C775 C776 1.397 . S
C775 C780 1.363 . S
C776 H753 0.950 . S
C776 C775 1.397 . S
C776 C777 1.334 . S
C777 H754 0.950 . S
C777 C776 1.334 . S
C777 C778 1.287 . S
C778 C777 1.287 . S
C778 C779 1.524 . S
C778 H797 0.913 . S
C779 H755 0.950 . S
C779 C778 1.524 . S
C779 C780 1.415 . S
C780 H756 0.950 . S
C780 C775 1.363 . S
C780 C779 1.415 . S
C781 H757 0.951 . S
C781 C782 1.366 . S
C781 C783 1.388 . S
C782 C781 1.366 . S
C782 C786 1.385 . S
C783 H758 0.951 . S
C783 C781 1.388 . S
C783 C784 1.366 . S
C784 C783 1.366 . S
C784 C785 1.414 . S
C784 C787 1.499 . S
C785 H759 0.950 . S
C785 C784 1.414 . S
C785 C786 1.374 . S
C786 H760 0.950 . S
C786 C782 1.385 . S
C786 C785 1.374 . S
C787 C784 1.499 . S
C787 C788 1.373 . S
C787 C789 1.389 . S
C788 H761 0.950 . S
C788 C774 1.377 . S
C788 C787 1.373 . S
C789 C773 1.377 . S
C789 C787 1.389 . S
C789 C790 1.524 . S
C790 C789 1.524 . S
C790 C791 1.397 . S
C790 C795 1.363 . S
C791 H762 0.950 . S
C791 C790 1.397 . S
C791 C792 1.334 . S
C792 H763 0.950 . S
C792 C791 1.334 . S
C792 C793 1.287 . S
C793 C792 1.287 . S
C793 C794 1.524 . S
C793 H796 0.999 . S
C794 H764 0.950 . S
C794 C793 1.524 . S
C794 C795 1.415 . S
C795 H765 0.950 . S
C795 C790 1.363 . S
C795 C794 1.415 . S
H796 C793 0.999 . S
H797 C778 0.913 . S
H798 C816 0.951 . S
H799 C818 0.951 . S
H800 C820 0.950 . S
H801 C821 0.950 . S
H802 C823 0.950 . S
H803 C826 0.950 . S
H804 C827 0.950 . S
H805 C829 0.950 . S
H806 C830 0.950 . S
H807 C831 0.951 . S
H808 C833 0.951 . S
H809 C835 0.950 . S
H810 C836 0.950 . S
H811 C838 0.950 . S
H812 C841 0.950 . S
H813 C842 0.950 . S
H814 C844 0.950 . S
H815 C845 0.950 . S
C816 H798 0.951 . S
C816 C817 1.366 . S
C816 C818 1.388 1_455 S
C817 C816 1.366 . S
C817 C821 1.385 1_455 S
C818 H799 0.951 . S
C818 C816 1.388 1_655 S
C818 C819 1.366 . S
C819 C818 1.366 . S
C819 C820 1.414 . S
C819 C822 1.499 . S
C820 H800 0.950 . S
C820 C819 1.414 . S
C820 C821 1.374 . S
C821 H801 0.950 . S
C821 C817 1.385 1_655 S
C821 C820 1.374 . S
C822 C819 1.499 . S
C822 C823 1.373 . S
C822 C824 1.389 . S
C823 H802 0.950 . S
C823 C822 1.373 . S
C823 C839 1.377 . S
C824 C822 1.389 . S
C824 C825 1.524 . S
C824 C838 1.377 . S
C825 C824 1.524 . S
C825 C826 1.397 . S
C825 C830 1.363 . S
C826 H803 0.950 . S
C826 C825 1.397 . S
C826 C827 1.334 . S
C827 H804 0.950 . S
C827 C826 1.334 . S
C827 C828 1.287 . S
C828 C827 1.287 . S
C828 C829 1.524 . S
C828 H847 0.913 . S
C829 H805 0.950 . S
C829 C828 1.524 . S
C829 C830 1.415 . S
C830 H806 0.950 . S
C830 C825 1.363 . S
C830 C829 1.415 . S
C831 H807 0.951 . S
C831 C832 1.366 . S
C831 C833 1.388 . S
C832 C831 1.366 . S
C832 C836 1.385 . S
C833 H808 0.951 . S
C833 C831 1.388 . S
C833 C834 1.366 . S
C834 C833 1.366 . S
C834 C835 1.414 . S
C834 C837 1.499 . S
C835 H809 0.950 . S
C835 C834 1.414 . S
C835 C836 1.374 . S
C836 H810 0.950 . S
C836 C832 1.385 . S
C836 C835 1.374 . S
C837 C834 1.499 . S
C837 C838 1.373 . S
C837 C839 1.389 . S
C838 H811 0.950 . S
C838 C824 1.377 . S
C838 C837 1.373 . S
C839 C823 1.377 . S
C839 C837 1.389 . S
C839 C840 1.524 . S
C840 C839 1.524 . S
C840 C841 1.397 . S
C840 C845 1.363 . S
C841 H812 0.950 . S
C841 C840 1.397 . S
C841 C842 1.334 . S
C842 H813 0.950 . S
C842 C841 1.334 . S
C842 C843 1.287 . S
C843 C842 1.287 . S
C843 C844 1.524 . S
C843 H846 0.999 . S
C844 H814 0.950 . S
C844 C843 1.524 . S
C844 C845 1.415 . S
C845 H815 0.950 . S
C845 C840 1.363 . S
C845 C844 1.415 . S
H846 C843 0.999 . S
H847 C828 0.913 . S
H848 C866 0.951 . S
H849 C868 0.951 . S
H850 C870 0.950 . S
H851 C871 0.950 . S
H852 C873 0.950 . S
H853 C876 0.950 . S
H854 C877 0.950 . S
H855 C879 0.950 . S
H856 C880 0.950 . S
H857 C881 0.951 . S
H858 C883 0.951 . S
H859 C885 0.950 . S
H860 C886 0.950 . S
H861 C888 0.950 . S
H862 C891 0.950 . S
H863 C892 0.950 . S
H864 C894 0.950 . S
H865 C895 0.950 . S
C866 H848 0.951 . S
C866 C867 1.366 . S
C866 C868 1.388 . S
C867 C866 1.366 . S
C867 C871 1.385 . S
C868 H849 0.951 . S
C868 C866 1.388 . S
C868 C869 1.366 . S
C869 C868 1.366 . S
C869 C870 1.414 . S
C869 C872 1.499 . S
C870 H850 0.950 . S
C870 C869 1.414 . S
C870 C871 1.374 . S
C871 H851 0.950 . S
C871 C867 1.385 . S
C871 C870 1.374 . S
C872 C869 1.499 . S
C872 C873 1.373 . S
C872 C874 1.389 . S
C873 H852 0.950 . S
C873 C872 1.373 . S
C873 C889 1.377 . S
C874 C872 1.389 . S
C874 C875 1.524 . S
C874 C888 1.377 . S
C875 C874 1.524 . S
C875 C876 1.397 . S
C875 C880 1.363 . S
C876 H853 0.950 . S
C876 C875 1.397 . S
C876 C877 1.334 . S
C877 H854 0.950 . S
C877 C876 1.334 . S
C877 C878 1.287 . S
C878 C877 1.287 . S
C878 C879 1.524 . S
C878 H897 0.913 . S
C879 H855 0.950 . S
C879 C878 1.524 . S
C879 C880 1.415 . S
C880 H856 0.950 . S
C880 C875 1.363 . S
C880 C879 1.415 . S
C881 H857 0.951 . S
C881 C882 1.366 . S
C881 C883 1.388 . S
C882 C881 1.366 . S
C882 C886 1.385 . S
C883 H858 0.951 . S
C883 C881 1.388 . S
C883 C884 1.366 . S
C884 C883 1.366 . S
C884 C885 1.414 . S
C884 C887 1.499 . S
C885 H859 0.950 . S
C885 C884 1.414 . S
C885 C886 1.374 . S
C886 H860 0.950 . S
C886 C882 1.385 . S
C886 C885 1.374 . S
C887 C884 1.499 . S
C887 C888 1.373 . S
C887 C889 1.389 . S
C888 H861 0.950 . S
C888 C874 1.377 . S
C888 C887 1.373 . S
C889 C873 1.377 . S
C889 C887 1.389 . S
C889 C890 1.524 . S
C890 C889 1.524 . S
C890 C891 1.397 . S
C890 C895 1.363 . S
C891 H862 0.950 . S
C891 C890 1.397 . S
C891 C892 1.334 . S
C892 H863 0.950 . S
C892 C891 1.334 . S
C892 C893 1.287 . S
C893 C892 1.287 . S
C893 C894 1.524 . S
C893 H896 0.999 . S
C894 H864 0.950 . S
C894 C893 1.524 . S
C894 C895 1.415 . S
C895 H865 0.950 . S
C895 C890 1.363 . S
C895 C894 1.415 . S
H896 C893 0.999 . S
H897 C878 0.913 . S
H898 C916 0.951 . S
H899 C918 0.951 . S
H900 C920 0.950 . S
H901 C921 0.950 . S
H902 C923 0.950 . S
H903 C926 0.950 . S
H904 C927 0.950 . S
H905 C929 0.950 . S
H906 C930 0.950 . S
H907 C931 0.951 . S
H908 C933 0.951 . S
H909 C935 0.950 . S
H910 C936 0.955 . S
H911 C938 0.950 . S
H912 C941 0.950 . S
H913 C942 0.950 . S
H914 C944 0.950 . S
H915 C945 0.950 . S
C916 H898 0.951 . S
C916 C917 1.366 . S
C916 C918 1.388 . S
C917 C916 1.366 . S
C917 C921 1.385 . S
C918 H899 0.951 . S
C918 C916 1.388 . S
C918 C919 1.366 . S
C919 C918 1.366 . S
C919 C920 1.414 . S
C919 C922 1.499 . S
C920 H900 0.950 . S
C920 C919 1.414 . S
C920 C921 1.374 . S
C921 H901 0.950 . S
C921 C917 1.385 . S
C921 C920 1.374 . S
C922 C919 1.499 . S
C922 C923 1.373 . S
C922 C924 1.389 . S
C923 H902 0.950 . S
C923 C922 1.373 . S
C923 C939 1.377 . S
C924 C922 1.389 . S
C924 C925 1.524 . S
C924 C938 1.377 . S
C925 C924 1.524 . S
C925 C926 1.397 . S
C925 C930 1.363 . S
C926 H903 0.950 . S
C926 C925 1.397 . S
C926 C927 1.334 . S
C927 H904 0.950 . S
C927 C926 1.334 . S
C927 C928 1.287 . S
C928 C927 1.287 . S
C928 C929 1.524 . S
C928 H947 0.913 . S
C929 H905 0.950 . S
C929 C928 1.524 . S
C929 C930 1.415 . S
C930 H906 0.950 . S
C930 C925 1.363 . S
C930 C929 1.415 . S
C931 H907 0.951 . S
C931 C932 1.366 . S
C931 C933 1.388 1_655 S
C932 C931 1.366 . S
C932 C936 1.385 1_655 S
C933 H908 0.951 . S
C933 C931 1.388 1_455 S
C933 C934 1.366 . S
C934 C933 1.366 . S
C934 C935 1.414 . S
C934 C937 1.499 . S
C935 H909 0.950 . S
C935 C934 1.414 . S
C935 C936 1.374 . S
C936 H910 0.955 . S
C936 C932 1.385 1_455 S
C936 C935 1.374 . S
C937 C934 1.499 . S
C937 C938 1.373 . S
C937 C939 1.389 . S
C938 H911 0.950 . S
C938 C924 1.377 . S
C938 C937 1.373 . S
C939 C923 1.377 . S
C939 C937 1.389 . S
C939 C940 1.524 . S
C940 C939 1.524 . S
C940 C941 1.397 . S
C940 C945 1.363 . S
C941 H912 0.950 . S
C941 C940 1.397 . S
C941 C942 1.334 1_455 S
C942 H913 0.950 . S
C942 C941 1.334 1_655 S
C942 C943 1.287 . S
C943 C942 1.287 . S
C943 C944 1.524 1_655 S
C943 H946 0.999 . S
C944 H914 0.950 . S
C944 C943 1.524 1_455 S
C944 C945 1.415 . S
C945 H915 0.950 . S
C945 C940 1.363 . S
C945 C944 1.415 . S
H946 C943 0.999 . S
H947 C928 0.913 . S
H948 C966 0.951 . S
H949 C968 0.951 . S
H950 C970 0.950 . S
H951 C971 0.950 . S
H952 C973 0.950 . S
H953 C976 0.950 . S
H954 C977 0.950 . S
H955 C979 0.950 . S
H956 C980 0.950 . S
H957 C981 0.951 . S
H958 C983 0.951 . S
H959 C985 0.950 . S
H960 C986 0.950 . S
H961 C988 0.950 . S
H962 C991 0.950 . S
H963 C992 0.950 . S
H964 C994 0.950 . S
H965 C995 0.950 . S
C966 H948 0.951 . S
C966 C967 1.366 . S
C966 C968 1.388 . S
C967 C966 1.366 . S
C967 C971 1.385 . S
C968 H949 0.951 . S
C968 C966 1.388 . S
C968 C969 1.366 . S
C969 C968 1.366 . S
C969 C970 1.414 . S
C969 C972 1.499 . S
C970 H950 0.950 . S
C970 C969 1.414 . S
C970 C971 1.374 . S
C971 H951 0.950 . S
C971 C967 1.385 . S
C971 C970 1.374 . S
C972 C969 1.499 . S
C972 C973 1.373 . S
C972 C974 1.389 . S
C973 H952 0.950 . S
C973 C972 1.373 . S
C973 C989 1.377 . S
C974 C972 1.389 . S
C974 C975 1.524 . S
C974 C988 1.377 . S
C975 C974 1.524 . S
C975 C976 1.397 . S
C975 C980 1.363 . S
C976 H953 0.950 . S
C976 C975 1.397 . S
C976 C977 1.334 . S
C977 H954 0.950 . S
C977 C976 1.334 . S
C977 C978 1.287 . S
C978 C977 1.287 . S
C978 C979 1.524 . S
C978 H997 0.913 . S
C979 H955 0.950 . S
C979 C978 1.524 . S
C979 C980 1.415 . S
C980 H956 0.950 . S
C980 C975 1.363 . S
C980 C979 1.415 . S
C981 H957 0.951 . S
C981 C982 1.366 . S
C981 C983 1.388 . S
C982 C981 1.366 . S
C982 C986 1.385 . S
C983 H958 0.951 . S
C983 C981 1.388 . S
C983 C984 1.366 . S
C984 C983 1.366 . S
C984 C985 1.414 . S
C984 C987 1.499 . S
C985 H959 0.950 . S
C985 C984 1.414 . S
C985 C986 1.374 . S
C986 H960 0.950 . S
C986 C982 1.385 . S
C986 C985 1.374 . S
C987 C984 1.499 . S
C987 C988 1.373 . S
C987 C989 1.389 . S
C988 H961 0.950 . S
C988 C974 1.377 . S
C988 C987 1.373 . S
C989 C973 1.377 . S
C989 C987 1.389 . S
C989 C990 1.524 . S
C990 C989 1.524 . S
C990 C991 1.397 . S
C990 C995 1.363 . S
C991 H962 0.950 . S
C991 C990 1.397 . S
C991 C992 1.334 . S
C992 H963 0.950 . S
C992 C991 1.334 . S
C992 C993 1.287 . S
C993 C992 1.287 . S
C993 C994 1.524 . S
C993 H996 0.999 . S
C994 H964 0.950 . S
C994 C993 1.524 . S
C994 C995 1.415 . S
C995 H965 0.950 . S
C995 C990 1.363 . S
C995 C994 1.415 . S
H996 C993 0.999 . S
H997 C978 0.913 . S
H998 C1016 0.951 . S
H999 C1018 0.951 . S
H1000 C1020 0.950 . S
H1001 C1021 0.950 . S
H1002 C1023 0.950 . S
H1003 C1026 0.950 . S
H1004 C1027 0.950 . S
H1005 C1029 0.950 . S
H1006 C1030 0.950 . S
H1007 C1031 0.951 . S
H1008 C1033 0.951 . S
H1009 C1035 0.950 . S
H1010 C1036 0.950 . S
H1011 C1038 0.950 . S
H1012 C1041 0.950 . S
H1013 C1042 0.950 . S
H1014 C1044 0.950 . S
H1015 C1045 0.950 . S
C1016 H998 0.951 . S
C1016 C1017 1.366 . S
C1016 C1018 1.388 . S
C1017 C1016 1.366 . S
C1017 C1021 1.385 . S
C1018 H999 0.951 . S
C1018 C1016 1.388 . S
C1018 C1019 1.366 . S
C1019 C1018 1.366 . S
C1019 C1020 1.414 . S
C1019 C1022 1.499 . S
C1020 H1000 0.950 . S
C1020 C1019 1.414 . S
C1020 C1021 1.374 . S
C1021 H1001 0.950 . S
C1021 C1017 1.385 . S
C1021 C1020 1.374 . S
C1022 C1019 1.499 . S
C1022 C1023 1.373 . S
C1022 C1024 1.389 . S
C1023 H1002 0.950 . S
C1023 C1022 1.373 . S
C1023 C1039 1.377 . S
C1024 C1022 1.389 . S
C1024 C1025 1.524 . S
C1024 C1038 1.377 . S
C1025 C1024 1.524 . S
C1025 C1026 1.397 . S
C1025 C1030 1.363 . S
C1026 H1003 0.950 . S
C1026 C1025 1.397 . S
C1026 C1027 1.334 . S
C1027 H1004 0.950 . S
C1027 C1026 1.334 . S
C1027 C1028 1.287 . S
C1028 C1027 1.287 . S
C1028 C1029 1.524 . S
C1028 H1047 0.913 . S
C1029 H1005 0.950 . S
C1029 C1028 1.524 . S
C1029 C1030 1.415 . S
C1030 H1006 0.950 . S
C1030 C1025 1.363 . S
C1030 C1029 1.415 . S
C1031 H1007 0.951 . S
C1031 C1032 1.366 . S
C1031 C1033 1.388 . S
C1032 C1031 1.366 . S
C1032 C1036 1.385 . S
C1033 H1008 0.951 . S
C1033 C1031 1.388 . S
C1033 C1034 1.366 . S
C1034 C1033 1.366 . S
C1034 C1035 1.414 . S
C1034 C1037 1.499 . S
C1035 H1009 0.950 . S
C1035 C1034 1.414 . S
C1035 C1036 1.374 . S
C1036 H1010 0.950 . S
C1036 C1032 1.385 . S
C1036 C1035 1.374 . S
C1037 C1034 1.499 . S
C1037 C1038 1.373 . S
C1037 C1039 1.389 . S
C1038 H1011 0.950 . S
C1038 C1024 1.377 . S
C1038 C1037 1.373 . S
C1039 C1023 1.377 . S
C1039 C1037 1.389 . S
C1039 C1040 1.524 . S
C1040 C1039 1.524 . S
C1040 C1041 1.397 . S
C1040 C1045 1.363 . S
C1041 H1012 0.950 . S
C1041 C1040 1.397 . S
C1041 C1042 1.334 . S
C1042 H1013 0.950 . S
C1042 C1041 1.334 . S
C1042 C1043 1.287 . S
C1043 C1042 1.287 . S
C1043 C1044 1.524 . S
C1043 H1046 0.999 . S
C1044 H1014 0.950 . S
C1044 C1043 1.524 . S
C1044 C1045 1.415 . S
C1045 H1015 0.950 . S
C1045 C1040 1.363 . S
C1045 C1044 1.415 . S
H1046 C1043 0.999 . S
H1047 C1028 0.913 . S
H1048 C1066 0.951 . S
H1049 C1068 0.951 . S
H1050 C1070 0.950 . S
H1051 C1071 0.950 . S
H1052 C1073 0.950 . S
H1053 C1076 0.950 . S
H1054 C1077 0.950 . S
H1055 C1079 0.950 . S
H1056 C1080 0.950 . S
H1057 C1081 0.951 . S
H1058 C1083 0.951 . S
H1059 C1085 0.950 . S
H1060 C1086 0.950 . S
H1061 C1088 0.950 . S
H1062 C1091 0.950 . S
H1063 C1092 0.950 . S
H1064 C1094 0.950 . S
H1065 C1095 0.950 . S
C1066 H1048 0.951 . S
C1066 C1067 1.366 . S
C1066 C1068 1.388 . S
C1067 C1066 1.366 . S
C1067 C1071 1.385 . S
C1068 H1049 0.951 . S
C1068 C1066 1.388 . S
C1068 C1069 1.366 . S
C1069 C1068 1.366 . S
C1069 C1070 1.414 . S
C1069 C1072 1.499 . S
C1070 H1050 0.950 . S
C1070 C1069 1.414 . S
C1070 C1071 1.374 . S
C1071 H1051 0.950 . S
C1071 C1067 1.385 . S
C1071 C1070 1.374 . S
C1072 C1069 1.499 . S
C1072 C1073 1.373 . S
C1072 C1074 1.389 . S
C1073 H1052 0.950 . S
C1073 C1072 1.373 . S
C1073 C1089 1.377 . S
C1074 C1072 1.389 . S
C1074 C1075 1.524 . S
C1074 C1088 1.377 . S
C1075 C1074 1.524 . S
C1075 C1076 1.397 . S
C1075 C1080 1.363 . S
C1076 H1053 0.950 . S
C1076 C1075 1.397 . S
C1076 C1077 1.334 . S
C1077 H1054 0.950 . S
C1077 C1076 1.334 . S
C1077 C1078 1.287 . S
C1078 C1077 1.287 . S
C1078 C1079 1.524 . S
C1078 H1097 0.913 . S
C1079 H1055 0.950 . S
C1079 C1078 1.524 . S
C1079 C1080 1.415 . S
C1080 H1056 0.950 . S
C1080 C1075 1.363 . S
C1080 C1079 1.415 . S
C1081 H1057 0.951 . S
C1081 C1082 1.366 . S
C1081 C1083 1.388 . S
C1082 C1081 1.366 . S
C1082 C1086 1.385 . S
C1083 H1058 0.951 . S
C1083 C1081 1.388 . S
C1083 C1084 1.366 . S
C1084 C1083 1.366 . S
C1084 C1085 1.414 . S
C1084 C1087 1.499 . S
C1085 H1059 0.950 . S
C1085 C1084 1.414 . S
C1085 C1086 1.374 . S
C1086 H1060 0.950 . S
C1086 C1082 1.385 . S
C1086 C1085 1.374 . S
C1087 C1084 1.499 . S
C1087 C1088 1.373 . S
C1087 C1089 1.389 . S
C1088 H1061 0.950 . S
C1088 C1074 1.377 . S
C1088 C1087 1.373 . S
C1089 C1073 1.377 . S
C1089 C1087 1.389 . S
C1089 C1090 1.524 . S
C1090 C1089 1.524 . S
C1090 C1091 1.397 . S
C1090 C1095 1.363 . S
C1091 H1062 0.950 . S
C1091 C1090 1.397 . S
C1091 C1092 1.334 . S
C1092 H1063 0.950 . S
C1092 C1091 1.334 . S
C1092 C1093 1.287 . S
C1093 C1092 1.287 . S
C1093 C1094 1.524 . S
C1093 H1096 0.999 . S
C1094 H1064 0.950 . S
C1094 C1093 1.524 . S
C1094 C1095 1.415 . S
C1095 H1065 0.950 . S
C1095 C1090 1.363 . S
C1095 C1094 1.415 . S
H1096 C1093 0.999 . S
H1097 C1078 0.913 . S
H1098 C1116 0.951 . S
H1099 C1118 0.951 . S
H1100 C1120 0.950 . S
H1101 C1121 0.950 . S
H1102 C1123 0.950 . S
H1103 C1126 0.950 . S
H1104 C1127 0.950 . S
H1105 C1129 0.950 . S
H1106 C1130 0.950 . S
H1107 C1131 0.951 . S
H1108 C1133 0.951 . S
H1109 C1135 0.950 . S
H1110 C1136 0.950 . S
H1111 C1138 0.950 . S
H1112 C1141 0.950 . S
H1113 C1142 0.950 . S
H1114 C1144 0.950 . S
H1115 C1145 0.950 . S
C1116 H1098 0.951 . S
C1116 C1117 1.366 . S
C1116 C1118 1.388 . S
C1117 C1116 1.366 . S
C1117 C1121 1.385 . S
C1118 H1099 0.951 . S
C1118 C1116 1.388 . S
C1118 C1119 1.366 . S
C1119 C1118 1.366 . S
C1119 C1120 1.414 . S
C1119 C1122 1.499 . S
C1120 H1100 0.950 . S
C1120 C1119 1.414 . S
C1120 C1121 1.374 . S
C1121 H1101 0.950 . S
C1121 C1117 1.385 . S
C1121 C1120 1.374 . S
C1122 C1119 1.499 . S
C1122 C1123 1.373 . S
C1122 C1124 1.389 . S
C1123 H1102 0.950 . S
C1123 C1122 1.373 . S
C1123 C1139 1.377 . S
C1124 C1122 1.389 . S
C1124 C1125 1.524 . S
C1124 C1138 1.377 . S
C1125 C1124 1.524 . S
C1125 C1126 1.397 . S
C1125 C1130 1.363 . S
C1126 H1103 0.950 . S
C1126 C1125 1.397 . S
C1126 C1127 1.334 . S
C1127 H1104 0.950 . S
C1127 C1126 1.334 . S
C1127 C1128 1.287 . S
C1128 C1127 1.287 . S
C1128 C1129 1.524 . S
C1128 H1147 0.913 . S
C1129 H1105 0.950 . S
C1129 C1128 1.524 . S
C1129 C1130 1.415 . S
C1130 H1106 0.950 . S
C1130 C1125 1.363 . S
C1130 C1129 1.415 . S
C1131 H1107 0.951 . S
C1131 C1132 1.366 . S
C1131 C1133 1.388 . S
C1132 C1131 1.366 . S
C1132 C1136 1.385 . S
C1133 H1108 0.951 . S
C1133 C1131 1.388 . S
C1133 C1134 1.366 . S
C1134 C1133 1.366 . S
C1134 C1135 1.414 . S
C1134 C1137 1.499 . S
C1135 H1109 0.950 . S
C1135 C1134 1.414 . S
C1135 C1136 1.374 . S
C1136 H1110 0.950 . S
C1136 C1132 1.385 . S
C1136 C1135 1.374 . S
C1137 C1134 1.499 . S
C1137 C1138 1.373 . S
C1137 C1139 1.389 . S
C1138 H1111 0.950 . S
C1138 C1124 1.377 . S
C1138 C1137 1.373 . S
C1139 C1123 1.377 . S
C1139 C1137 1.389 . S
C1139 C1140 1.524 . S
C1140 C1139 1.524 . S
C1140 C1141 1.397 . S
C1140 C1145 1.363 . S
C1141 H1112 0.950 . S
C1141 C1140 1.397 . S
C1141 C1142 1.334 . S
C1142 H1113 0.950 . S
C1142 C1141 1.334 . S
C1142 C1143 1.287 . S
C1143 C1142 1.287 . S
C1143 C1144 1.524 . S
C1143 H1146 0.999 . S
C1144 H1114 0.950 . S
C1144 C1143 1.524 . S
C1144 C1145 1.415 . S
C1145 H1115 0.950 . S
C1145 C1140 1.363 . S
C1145 C1144 1.415 . S
H1146 C1143 0.999 . S
H1147 C1128 0.913 . S
H1148 C1166 0.951 . S
H1149 C1168 0.951 . S
H1150 C1170 0.950 . S
H1151 C1171 0.950 . S
H1152 C1173 0.950 . S
H1153 C1176 0.950 . S
H1154 C1177 0.950 . S
H1155 C1179 0.950 . S
H1156 C1180 0.950 . S
H1157 C1181 0.951 . S
H1158 C1183 0.951 . S
H1159 C1185 0.950 . S
H1160 C1186 0.950 . S
H1161 C1188 0.950 . S
H1162 C1191 0.950 . S
H1163 C1192 0.950 . S
H1164 C1194 0.950 . S
H1165 C1195 0.950 . S
C1166 H1148 0.951 . S
C1166 C1167 1.366 . S
C1166 C1168 1.388 . S
C1167 C1166 1.366 . S
C1167 C1171 1.385 . S
C1168 H1149 0.951 . S
C1168 C1166 1.388 . S
C1168 C1169 1.366 . S
C1169 C1168 1.366 . S
C1169 C1170 1.414 . S
C1169 C1172 1.499 . S
C1170 H1150 0.950 . S
C1170 C1169 1.414 . S
C1170 C1171 1.374 . S
C1171 H1151 0.950 . S
C1171 C1167 1.385 . S
C1171 C1170 1.374 . S
C1172 C1169 1.499 . S
C1172 C1173 1.373 . S
C1172 C1174 1.389 . S
C1173 H1152 0.950 . S
C1173 C1172 1.373 . S
C1173 C1189 1.377 . S
C1174 C1172 1.389 . S
C1174 C1175 1.524 . S
C1174 C1188 1.377 . S
C1175 C1174 1.524 . S
C1175 C1176 1.397 . S
C1175 C1180 1.363 . S
C1176 H1153 0.950 . S
C1176 C1175 1.397 . S
C1176 C1177 1.334 . S
C1177 H1154 0.950 . S
C1177 C1176 1.334 . S
C1177 C1178 1.287 . S
C1178 C1177 1.287 . S
C1178 C1179 1.524 . S
C1178 H1197 0.913 . S
C1179 H1155 0.950 . S
C1179 C1178 1.524 . S
C1179 C1180 1.415 . S
C1180 H1156 0.950 . S
C1180 C1175 1.363 . S
C1180 C1179 1.415 . S
C1181 H1157 0.951 . S
C1181 C1182 1.366 . S
C1181 C1183 1.388 . S
C1182 C1181 1.366 . S
C1182 C1186 1.385 . S
C1183 H1158 0.951 . S
C1183 C1181 1.388 . S
C1183 C1184 1.366 . S
C1184 C1183 1.366 . S
C1184 C1185 1.414 . S
C1184 C1187 1.499 . S
C1185 H1159 0.950 . S
C1185 C1184 1.414 . S
C1185 C1186 1.374 . S
C1186 H1160 0.950 . S
C1186 C1182 1.385 . S
C1186 C1185 1.374 . S
C1187 C1184 1.499 . S
C1187 C1188 1.373 . S
C1187 C1189 1.389 . S
C1188 H1161 0.950 . S
C1188 C1174 1.377 . S
C1188 C1187 1.373 . S
C1189 C1173 1.377 . S
C1189 C1187 1.389 . S
C1189 C1190 1.524 . S
C1190 C1189 1.524 . S
C1190 C1191 1.397 . S
C1190 C1195 1.363 . S
C1191 H1162 0.950 . S
C1191 C1190 1.397 . S
C1191 C1192 1.334 . S
C1192 H1163 0.950 . S
C1192 C1191 1.334 . S
C1192 C1193 1.287 . S
C1193 C1192 1.287 . S
C1193 C1194 1.524 . S
C1193 H1196 0.999 . S
C1194 H1164 0.950 . S
C1194 C1193 1.524 . S
C1194 C1195 1.415 . S
C1195 H1165 0.950 . S
C1195 C1190 1.363 . S
C1195 C1194 1.415 . S
H1196 C1193 0.999 . S
H1197 C1178 0.913 . S
H1198 C1216 0.951 . S
H1199 C1218 0.951 . S
H1200 C1220 0.950 . S
H1201 C1221 0.950 . S
H1202 C1223 0.950 . S
H1203 C1226 0.950 . S
H1204 C1227 0.950 . S
H1205 C1229 0.950 . S
H1206 C1230 0.950 . S
H1207 C1231 0.951 . S
H1208 C1233 0.951 . S
H1209 C1235 0.950 . S
H1210 C1236 0.950 . S
H1211 C1238 0.950 . S
H1212 C1241 0.950 . S
H1213 C1242 0.950 . S
H1214 C1244 0.950 1_655 S
H1215 C1245 0.950 . S
C1216 H1198 0.951 . S
C1216 C1217 1.366 . S
C1216 C1218 1.388 . S
C1217 C1216 1.366 . S
C1217 C1221 1.385 . S
C1218 H1199 0.951 . S
C1218 C1216 1.388 . S
C1218 C1219 1.366 . S
C1219 C1218 1.366 . S
C1219 C1220 1.414 . S
C1219 C1222 1.499 . S
C1220 H1200 0.950 . S
C1220 C1219 1.414 . S
C1220 C1221 1.374 . S
C1221 H1201 0.950 . S
C1221 C1217 1.385 . S
C1221 C1220 1.374 . S
C1222 C1219 1.499 . S
C1222 C1223 1.373 . S
C1222 C1224 1.389 . S
C1223 H1202 0.950 . S
C1223 C1222 1.373 . S
C1223 C1239 1.377 . S
C1224 C1222 1.389 . S
C1224 C1225 1.524 . S
C1224 C1238 1.377 . S
C1225 C1224 1.524 . S
C1225 C1226 1.397 . S
C1225 C1230 1.363 . S
C1226 H1203 0.950 . S
C1226 C1225 1.397 . S
C1226 C1227 1.334 . S
C1227 H1204 0.950 . S
C1227 C1226 1.334 . S
C1227 C1228 1.287 . S
C1228 C1227 1.287 . S
C1228 C1229 1.524 . S
C1228 H1247 0.913 . S
C1229 H1205 0.950 . S
C1229 C1228 1.524 . S
C1229 C1230 1.415 . S
C1230 H1206 0.950 . S
C1230 C1225 1.363 . S
C1230 C1229 1.415 . S
C1231 H1207 0.951 . S
C1231 C1232 1.366 . S
C1231 C1233 1.388 1_655 S
C1232 C1231 1.366 . S
C1232 C1236 1.385 1_655 S
C1233 H1208 0.951 . S
C1233 C1231 1.388 1_455 S
C1233 C1234 1.366 . S
C1234 C1233 1.366 . S
C1234 C1235 1.414 . S
C1234 C1237 1.499 . S
C1235 H1209 0.950 . S
C1235 C1234 1.414 . S
C1235 C1236 1.374 . S
C1236 H1210 0.950 . S
C1236 C1232 1.385 1_455 S
C1236 C1235 1.374 . S
C1237 C1234 1.499 . S
C1237 C1238 1.373 . S
C1237 C1239 1.389 . S
C1238 H1211 0.950 . S
C1238 C1224 1.377 . S
C1238 C1237 1.373 . S
C1239 C1223 1.377 . S
C1239 C1237 1.389 . S
C1239 C1240 1.524 . S
C1240 C1239 1.524 . S
C1240 C1241 1.397 . S
C1240 C1245 1.363 . S
C1241 H1212 0.950 . S
C1241 C1240 1.397 . S
C1241 C1242 1.334 1_455 S
C1242 H1213 0.950 . S
C1242 C1241 1.334 1_655 S
C1242 C1243 1.287 . S
C1243 C1242 1.287 . S
C1243 C1244 1.524 1_655 S
C1243 H1246 0.999 . S
C1244 H1214 0.950 1_455 S
C1244 C1243 1.524 1_455 S
C1244 C1245 1.415 . S
C1245 H1215 0.950 . S
C1245 C1240 1.363 . S
C1245 C1244 1.415 . S
H1246 C1243 0.999 . S
H1247 C1228 0.913 . S
H1248 C1266 0.951 . S
H1249 C1268 0.951 . S
H1250 C1270 0.950 . S
H1251 C1271 0.950 . S
H1252 C1273 0.950 . S
H1253 C1276 0.950 . S
H1254 C1277 0.950 . S
H1255 C1279 0.950 . S
H1256 C1280 0.950 . S
H1257 C1281 0.951 . S
H1258 C1283 0.951 . S
H1259 C1285 0.950 . S
H1260 C1286 0.950 . S
H1261 C1288 0.950 . S
H1262 C1291 0.950 . S
H1263 C1292 0.950 . S
H1264 C1294 0.950 . S
H1265 C1295 0.950 . S
C1266 H1248 0.951 . S
C1266 C1267 1.366 . S
C1266 C1268 1.388 . S
C1267 C1266 1.366 . S
C1267 C1271 1.385 . S
C1268 H1249 0.951 . S
C1268 C1266 1.388 . S
C1268 C1269 1.366 . S
C1269 C1268 1.366 . S
C1269 C1270 1.414 . S
C1269 C1272 1.499 . S
C1270 H1250 0.950 . S
C1270 C1269 1.414 . S
C1270 C1271 1.374 . S
C1271 H1251 0.950 . S
C1271 C1267 1.385 . S
C1271 C1270 1.374 . S
C1272 C1269 1.499 . S
C1272 C1273 1.373 . S
C1272 C1274 1.389 . S
C1273 H1252 0.950 . S
C1273 C1272 1.373 . S
C1273 C1289 1.377 . S
C1274 C1272 1.389 . S
C1274 C1275 1.524 . S
C1274 C1288 1.377 . S
C1275 C1274 1.524 . S
C1275 C1276 1.397 . S
C1275 C1280 1.363 . S
C1276 H1253 0.950 . S
C1276 C1275 1.397 . S
C1276 C1277 1.334 . S
C1277 H1254 0.950 . S
C1277 C1276 1.334 . S
C1277 C1278 1.287 . S
C1278 C1277 1.287 . S
C1278 C1279 1.524 . S
C1278 H1297 0.913 . S
C1279 H1255 0.950 . S
C1279 C1278 1.524 . S
C1279 C1280 1.415 . S
C1280 H1256 0.950 . S
C1280 C1275 1.363 . S
C1280 C1279 1.415 . S
C1281 H1257 0.951 . S
C1281 C1282 1.366 . S
C1281 C1283 1.388 . S
C1282 C1281 1.366 . S
C1282 C1286 1.385 . S
C1283 H1258 0.951 . S
C1283 C1281 1.388 . S
C1283 C1284 1.366 . S
C1284 C1283 1.366 . S
C1284 C1285 1.414 . S
C1284 C1287 1.499 . S
C1285 H1259 0.950 . S
C1285 C1284 1.414 . S
C1285 C1286 1.374 . S
C1286 H1260 0.950 . S
C1286 C1282 1.385 . S
C1286 C1285 1.374 . S
C1287 C1284 1.499 . S
C1287 C1288 1.373 . S
C1287 C1289 1.389 . S
C1288 H1261 0.950 . S
C1288 C1274 1.377 . S
C1288 C1287 1.373 . S
C1289 C1273 1.377 . S
C1289 C1287 1.389 . S
C1289 C1290 1.524 . S
C1290 C1289 1.524 . S
C1290 C1291 1.397 . S
C1290 C1295 1.363 . S
C1291 H1262 0.950 . S
C1291 C1290 1.397 . S
C1291 C1292 1.334 . S
C1292 H1263 0.950 . S
C1292 C1291 1.334 . S
C1292 C1293 1.287 . S
C1293 C1292 1.287 . S
C1293 C1294 1.524 . S
C1293 H1296 0.999 . S
C1294 H1264 0.950 . S
C1294 C1293 1.524 . S
C1294 C1295 1.415 . S
C1295 H1265 0.950 . S
C1295 C1290 1.363 . S
C1295 C1294 1.415 . S
H1296 C1293 0.999 . S
H1297 C1278 0.913 . S
H1298 C1316 0.951 . S
H1299 C1318 0.951 . S
H1300 C1320 0.950 . S
H1301 C1321 0.950 . S
H1302 C1323 0.950 . S
H1303 C1326 0.950 . S
H1304 C1327 0.950 . S
H1305 C1329 0.950 . S
H1306 C1330 0.950 . S
H1307 C1331 0.951 . S
H1308 C1333 0.951 . S
H1309 C1335 0.950 . S
H1310 C1336 0.950 . S
H1311 C1338 0.950 . S
H1312 C1341 0.950 . S
H1313 C1342 0.950 . S
H1314 C1344 0.950 . S
H1315 C1345 0.950 . S
C1316 H1298 0.951 . S
C1316 C1317 1.366 . S
C1316 C1318 1.388 . S
C1317 C1316 1.366 . S
C1317 C1321 1.385 . S
C1318 H1299 0.951 . S
C1318 C1316 1.388 . S
C1318 C1319 1.366 . S
C1319 C1318 1.366 . S
C1319 C1320 1.414 . S
C1319 C1322 1.499 . S
C1320 H1300 0.950 . S
C1320 C1319 1.414 . S
C1320 C1321 1.374 . S
C1321 H1301 0.950 . S
C1321 C1317 1.385 . S
C1321 C1320 1.374 . S
C1322 C1319 1.499 . S
C1322 C1323 1.373 . S
C1322 C1324 1.389 . S
C1323 H1302 0.950 . S
C1323 C1322 1.373 . S
C1323 C1339 1.377 . S
C1324 C1322 1.389 . S
C1324 C1325 1.524 . S
C1324 C1338 1.377 . S
C1325 C1324 1.524 . S
C1325 C1326 1.397 . S
C1325 C1330 1.363 . S
C1326 H1303 0.950 . S
C1326 C1325 1.397 . S
C1326 C1327 1.334 . S
C1327 H1304 0.950 . S
C1327 C1326 1.334 . S
C1327 C1328 1.287 . S
C1328 C1327 1.287 . S
C1328 C1329 1.524 . S
C1328 H1347 0.913 . S
C1329 H1305 0.950 . S
C1329 C1328 1.524 . S
C1329 C1330 1.415 . S
C1330 H1306 0.950 . S
C1330 C1325 1.363 . S
C1330 C1329 1.415 . S
C1331 H1307 0.951 . S
C1331 C1332 1.366 . S
C1331 C1333 1.388 . S
C1332 C1331 1.366 . S
C1332 C1336 1.385 . S
C1333 H1308 0.951 . S
C1333 C1331 1.388 . S
C1333 C1334 1.366 . S
C1334 C1333 1.366 . S
C1334 C1335 1.414 . S
C1334 C1337 1.499 . S
C1335 H1309 0.950 . S
C1335 C1334 1.414 . S
C1335 C1336 1.374 . S
C1336 H1310 0.950 . S
C1336 C1332 1.385 . S
C1336 C1335 1.374 . S
C1337 C1334 1.499 . S
C1337 C1338 1.373 . S
C1337 C1339 1.389 . S
C1338 H1311 0.950 . S
C1338 C1324 1.377 . S
C1338 C1337 1.373 . S
C1339 C1323 1.377 . S
C1339 C1337 1.389 . S
C1339 C1340 1.524 . S
C1340 C1339 1.524 . S
C1340 C1341 1.397 . S
C1340 C1345 1.363 . S
C1341 H1312 0.950 . S
C1341 C1340 1.397 . S
C1341 C1342 1.334 . S
C1342 H1313 0.950 . S
C1342 C1341 1.334 . S
C1342 C1343 1.287 . S
C1343 C1342 1.287 . S
C1343 C1344 1.524 . S
C1343 H1346 0.999 . S
C1344 H1314 0.950 . S
C1344 C1343 1.524 . S
C1344 C1345 1.415 . S
C1345 H1315 0.950 . S
C1345 C1340 1.363 . S
C1345 C1344 1.415 . S
H1346 C1343 0.999 . S
H1347 C1328 0.913 . S
H1348 C1366 0.951 . S
H1349 C1368 0.951 . S
H1350 C1370 0.950 . S
H1351 C1371 0.950 . S
H1352 C1373 0.950 . S
H1353 C1376 0.950 . S
H1354 C1377 0.950 . S
H1355 C1379 0.950 . S
H1356 C1380 0.950 . S
H1357 C1381 0.951 . S
H1358 C1383 0.951 . S
H1359 C1385 0.950 . S
H1360 C1386 0.950 . S
H1361 C1388 0.950 . S
H1362 C1391 0.950 . S
H1363 C1392 0.950 . S
H1364 C1394 0.950 . S
H1365 C1395 0.950 . S
C1366 H1348 0.951 . S
C1366 C1367 1.366 . S
C1366 C1368 1.388 . S
C1367 C1366 1.366 . S
C1367 C1371 1.385 . S
C1368 H1349 0.951 . S
C1368 C1366 1.388 . S
C1368 C1369 1.366 . S
C1369 C1368 1.366 . S
C1369 C1370 1.414 . S
C1369 C1372 1.499 . S
C1370 H1350 0.950 . S
C1370 C1369 1.414 . S
C1370 C1371 1.374 . S
C1371 H1351 0.950 . S
C1371 C1367 1.385 . S
C1371 C1370 1.374 . S
C1372 C1369 1.499 . S
C1372 C1373 1.373 . S
C1372 C1374 1.389 . S
C1373 H1352 0.950 . S
C1373 C1372 1.373 . S
C1373 C1389 1.377 . S
C1374 C1372 1.389 . S
C1374 C1375 1.524 . S
C1374 C1388 1.377 . S
C1375 C1374 1.524 . S
C1375 C1376 1.397 . S
C1375 C1380 1.363 . S
C1376 H1353 0.950 . S
C1376 C1375 1.397 . S
C1376 C1377 1.334 . S
C1377 H1354 0.950 . S
C1377 C1376 1.334 . S
C1377 C1378 1.287 . S
C1378 C1377 1.287 . S
C1378 C1379 1.524 . S
C1378 H1397 0.913 . S
C1379 H1355 0.950 . S
C1379 C1378 1.524 . S
C1379 C1380 1.415 . S
C1380 H1356 0.950 . S
C1380 C1375 1.363 . S
C1380 C1379 1.415 . S
C1381 H1357 0.951 . S
C1381 C1382 1.366 . S
C1381 C1383 1.388 . S
C1382 C1381 1.366 . S
C1382 C1386 1.385 . S
C1383 H1358 0.951 . S
C1383 C1381 1.388 . S
C1383 C1384 1.366 . S
C1384 C1383 1.366 . S
C1384 C1385 1.414 . S
C1384 C1387 1.499 . S
C1385 H1359 0.950 . S
C1385 C1384 1.414 . S
C1385 C1386 1.374 . S
C1386 H1360 0.950 . S
C1386 C1382 1.385 . S
C1386 C1385 1.374 . S
C1387 C1384 1.499 . S
C1387 C1388 1.373 . S
C1387 C1389 1.389 . S
C1388 H1361 0.950 . S
C1388 C1374 1.377 . S
C1388 C1387 1.373 . S
C1389 C1373 1.377 . S
C1389 C1387 1.389 . S
C1389 C1390 1.524 . S
C1390 C1389 1.524 . S
C1390 C1391 1.397 . S
C1390 C1395 1.363 . S
C1391 H1362 0.950 . S
C1391 C1390 1.397 . S
C1391 C1392 1.334 . S
C1392 H1363 0.950 . S
C1392 C1391 1.334 . S
C1392 C1393 1.287 . S
C1393 C1392 1.287 . S
C1393 C1394 1.524 . S
C1393 H1396 0.999 . S
C1394 H1364 0.950 . S
C1394 C1393 1.524 . S
C1394 C1395 1.415 . S
C1395 H1365 0.950 . S
C1395 C1390 1.363 . S
C1395 C1394 1.415 . S
H1396 C1393 0.999 . S
H1397 C1378 0.913 . S
H1398 C1416 0.951 . S
H1399 C1418 0.951 . S
H1400 C1420 0.950 . S
H1401 C1421 0.950 . S
H1402 C1423 0.950 . S
H1403 C1426 0.950 . S
H1404 C1427 0.950 . S
H1405 C1429 0.950 . S
H1406 C1430 0.950 . S
H1407 C1431 0.951 . S
H1408 C1433 0.951 . S
H1409 C1435 0.950 . S
H1410 C1436 0.950 . S
H1411 C1438 0.950 . S
H1412 C1441 0.950 . S
H1413 C1442 0.950 . S
H1414 C1444 0.950 . S
H1415 C1445 0.950 . S
C1416 H1398 0.951 . S
C1416 C1417 1.366 . S
C1416 C1418 1.388 . S
C1417 C1416 1.366 . S
C1417 C1421 1.385 . S
C1418 H1399 0.951 . S
C1418 C1416 1.388 . S
C1418 C1419 1.366 . S
C1419 C1418 1.366 . S
C1419 C1420 1.414 . S
C1419 C1422 1.499 . S
C1420 H1400 0.950 . S
C1420 C1419 1.414 . S
C1420 C1421 1.374 . S
C1421 H1401 0.950 . S
C1421 C1417 1.385 . S
C1421 C1420 1.374 . S
C1422 C1419 1.499 . S
C1422 C1423 1.373 . S
C1422 C1424 1.389 . S
C1423 H1402 0.950 . S
C1423 C1422 1.373 . S
C1423 C1439 1.377 . S
C1424 C1422 1.389 . S
C1424 C1425 1.524 . S
C1424 C1438 1.377 . S
C1425 C1424 1.524 . S
C1425 C1426 1.397 . S
C1425 C1430 1.363 . S
C1426 H1403 0.950 . S
C1426 C1425 1.397 . S
C1426 C1427 1.334 . S
C1427 H1404 0.950 . S
C1427 C1426 1.334 . S
C1427 C1428 1.287 . S
C1428 C1427 1.287 . S
C1428 C1429 1.524 . S
C1428 H1447 0.913 . S
C1429 H1405 0.950 . S
C1429 C1428 1.524 . S
C1429 C1430 1.415 . S
C1430 H1406 0.950 . S
C1430 C1425 1.363 . S
C1430 C1429 1.415 . S
C1431 H1407 0.951 . S
C1431 C1432 1.366 1_455 S
C1431 C1433 1.388 . S
C1432 C1431 1.366 1_655 S
C1432 C1436 1.385 . S
C1433 H1408 0.951 . S
C1433 C1431 1.388 . S
C1433 C1434 1.366 . S
C1434 C1433 1.366 . S
C1434 C1435 1.414 . S
C1434 C1437 1.499 . S
C1435 H1409 0.950 . S
C1435 C1434 1.414 . S
C1435 C1436 1.374 1_455 S
C1436 H1410 0.950 . S
C1436 C1432 1.385 . S
C1436 C1435 1.374 1_655 S
C1437 C1434 1.499 . S
C1437 C1438 1.373 . S
C1437 C1439 1.389 . S
C1438 H1411 0.950 . S
C1438 C1424 1.377 . S
C1438 C1437 1.373 . S
C1439 C1423 1.377 . S
C1439 C1437 1.389 . S
C1439 C1440 1.524 . S
C1440 C1439 1.524 . S
C1440 C1441 1.397 . S
C1440 C1445 1.363 . S
C1441 H1412 0.950 . S
C1441 C1440 1.397 . S
C1441 C1442 1.334 . S
C1442 H1413 0.950 . S
C1442 C1441 1.334 . S
C1442 C1443 1.287 . S
C1443 C1442 1.287 . S
C1443 C1444 1.524 . S
C1443 H1446 0.999 . S
C1444 H1414 0.950 . S
C1444 C1443 1.524 . S
C1444 C1445 1.415 . S
C1445 H1415 0.950 . S
C1445 C1440 1.363 . S
C1445 C1444 1.415 . S
H1446 C1443 0.999 . S
H1447 C1428 0.913 . S
H1448 C1466 0.951 . S
H1449 C1468 0.951 . S
H1450 C1470 0.950 . S
H1451 C1471 0.950 . S
H1452 C1473 0.950 . S
H1453 C1476 0.950 . S
H1454 C1477 0.950 . S
H1455 C1479 0.950 . S
H1456 C1480 0.950 . S
H1457 C1481 0.951 . S
H1458 C1483 0.951 . S
H1459 C1485 0.950 . S
H1460 C1486 0.950 . S
H1461 C1488 0.950 . S
H1462 C1491 0.950 . S
H1463 C1492 0.950 . S
H1464 C1494 0.950 . S
H1465 C1495 0.950 . S
C1466 H1448 0.951 . S
C1466 C1467 1.366 . S
C1466 C1468 1.388 . S
C1467 C1466 1.366 . S
C1467 C1471 1.385 . S
C1468 H1449 0.951 . S
C1468 C1466 1.388 . S
C1468 C1469 1.366 . S
C1469 C1468 1.366 . S
C1469 C1470 1.414 . S
C1469 C1472 1.499 . S
C1470 H1450 0.950 . S
C1470 C1469 1.414 . S
C1470 C1471 1.374 . S
C1471 H1451 0.950 . S
C1471 C1467 1.385 . S
C1471 C1470 1.374 . S
C1472 C1469 1.499 . S
C1472 C1473 1.373 . S
C1472 C1474 1.389 . S
C1473 H1452 0.950 . S
C1473 C1472 1.373 . S
C1473 C1489 1.377 . S
C1474 C1472 1.389 . S
C1474 C1475 1.524 . S
C1474 C1488 1.377 . S
C1475 C1474 1.524 . S
C1475 C1476 1.397 . S
C1475 C1480 1.363 . S
C1476 H1453 0.950 . S
C1476 C1475 1.397 . S
C1476 C1477 1.334 . S
C1477 H1454 0.950 . S
C1477 C1476 1.334 . S
C1477 C1478 1.287 . S
C1478 C1477 1.287 . S
C1478 C1479 1.524 . S
C1478 H1497 0.913 . S
C1479 H1455 0.950 . S
C1479 C1478 1.524 . S
C1479 C1480 1.415 . S
C1480 H1456 0.950 . S
C1480 C1475 1.363 . S
C1480 C1479 1.415 . S
C1481 H1457 0.951 . S
C1481 C1482 1.366 . S
C1481 C1483 1.388 . S
C1482 C1481 1.366 . S
C1482 C1486 1.385 . S
C1483 H1458 0.951 . S
C1483 C1481 1.388 . S
C1483 C1484 1.366 . S
C1484 C1483 1.366 . S
C1484 C1485 1.414 . S
C1484 C1487 1.499 . S
C1485 H1459 0.950 . S
C1485 C1484 1.414 . S
C1485 C1486 1.374 . S
C1486 H1460 0.950 . S
C1486 C1482 1.385 . S
C1486 C1485 1.374 . S
C1487 C1484 1.499 . S
C1487 C1488 1.373 . S
C1487 C1489 1.389 . S
C1488 H1461 0.950 . S
C1488 C1474 1.377 . S
C1488 C1487 1.373 . S
C1489 C1473 1.377 . S
C1489 C1487 1.389 . S
C1489 C1490 1.524 . S
C1490 C1489 1.524 . S
C1490 C1491 1.397 . S
C1490 C1495 1.363 . S
C1491 H1462 0.950 . S
C1491 C1490 1.397 . S
C1491 C1492 1.334 . S
C1492 H1463 0.950 . S
C1492 C1491 1.334 . S
C1492 C1493 1.287 . S
C1493 C1492 1.287 . S
C1493 C1494 1.524 . S
C1493 H1496 0.999 . S
C1494 H1464 0.950 . S
C1494 C1493 1.524 . S
C1494 C1495 1.415 . S
C1495 H1465 0.950 . S
C1495 C1490 1.363 . S
C1495 C1494 1.415 . S
H1496 C1493 0.999 . S
H1497 C1478 0.913 . S
H1498 C1516 0.951 . S
H1499 C1518 0.951 . S
H1500 C1520 0.950 . S
H1501 C1521 0.950 . S
H1502 C1523 0.950 . S
H1503 C1526 0.950 . S
H1504 C1527 0.950 . S
H1505 C1529 0.950 . S
H1506 C1530 0.950 . S
H1507 C1531 0.951 . S
H1508 C1533 0.951 . S
H1509 C1535 0.950 . S
H1510 C1536 0.950 . S
H1511 C1538 0.950 . S
H1512 C1541 0.950 . S
H1513 C1542 0.950 . S
H1514 C1544 0.950 . S
H1515 C1545 0.950 . S
C1516 H1498 0.951 . S
C1516 C1517 1.366 . S
C1516 C1518 1.388 . S
C1517 C1516 1.366 . S
C1517 C1521 1.385 . S
C1518 H1499 0.951 . S
C1518 C1516 1.388 . S
C1518 C1519 1.366 . S
C1519 C1518 1.366 . S
C1519 C1520 1.414 . S
C1519 C1522 1.499 . S
C1520 H1500 0.950 . S
C1520 C1519 1.414 . S
C1520 C1521 1.374 . S
C1521 H1501 0.950 . S
C1521 C1517 1.385 . S
C1521 C1520 1.374 . S
C1522 C1519 1.499 . S
C1522 C1523 1.373 . S
C1522 C1524 1.389 . S
C1523 H1502 0.950 . S
C1523 C1522 1.373 . S
C1523 C1539 1.377 . S
C1524 C1522 1.389 . S
C1524 C1525 1.524 . S
C1524 C1538 1.377 . S
C1525 C1524 1.524 . S
C1525 C1526 1.397 . S
C1525 C1530 1.363 . S
C1526 H1503 0.950 . S
C1526 C1525 1.397 . S
C1526 C1527 1.334 . S
C1527 H1504 0.950 . S
C1527 C1526 1.334 . S
C1527 C1528 1.287 . S
C1528 C1527 1.287 . S
C1528 C1529 1.524 . S
C1528 H1547 0.913 . S
C1529 H1505 0.950 . S
C1529 C1528 1.524 . S
C1529 C1530 1.415 . S
C1530 H1506 0.950 . S
C1530 C1525 1.363 . S
C1530 C1529 1.415 . S
C1531 H1507 0.951 . S
C1531 C1532 1.366 . S
C1531 C1533 1.388 1_655 S
C1532 C1531 1.366 . S
C1532 C1536 1.385 1_655 S
C1533 H1508 0.951 . S
C1533 C1531 1.388 1_455 S
C1533 C1534 1.366 . S
C1534 C1533 1.366 . S
C1534 C1535 1.414 . S
C1534 C1537 1.499 . S
C1535 H1509 0.950 . S
C1535 C1534 1.414 . S
C1535 C1536 1.374 . S
C1536 H1510 0.950 . S
C1536 C1532 1.385 1_455 S
C1536 C1535 1.374 . S
C1537 C1534 1.499 . S
C1537 C1538 1.373 . S
C1537 C1539 1.389 . S
C1538 H1511 0.950 . S
C1538 C1524 1.377 . S
C1538 C1537 1.373 . S
C1539 C1523 1.377 . S
C1539 C1537 1.389 . S
C1539 C1540 1.524 . S
C1540 C1539 1.524 . S
C1540 C1541 1.397 . S
C1540 C1545 1.363 . S
C1541 H1512 0.950 . S
C1541 C1540 1.397 . S
C1541 C1542 1.334 . S
C1542 H1513 0.950 . S
C1542 C1541 1.334 . S
C1542 C1543 1.287 . S
C1543 C1542 1.287 . S
C1543 C1544 1.524 . S
C1543 H1546 0.999 1_455 S
C1544 H1514 0.950 . S
C1544 C1543 1.524 . S
C1544 C1545 1.415 . S
C1545 H1515 0.950 . S
C1545 C1540 1.363 . S
C1545 C1544 1.415 . S
H1546 C1543 0.999 1_655 S
H1547 C1528 0.913 . S
H1548 C1566 0.951 . S
H1549 C1568 0.951 . S
H1550 C1570 0.950 . S
H1551 C1571 0.950 . S
H1552 C1573 0.950 . S
H1553 C1576 0.950 . S
H1554 C1577 0.950 . S
H1555 C1579 0.950 . S
H1556 C1580 0.950 . S
H1557 C1581 0.951 . S
H1558 C1583 0.951 . S
H1559 C1585 0.950 . S
H1560 C1586 0.950 . S
H1561 C1588 0.950 . S
H1562 C1591 0.950 . S
H1563 C1592 0.950 . S
H1564 C1594 0.950 . S
H1565 C1595 0.950 . S
C1566 H1548 0.951 . S
C1566 C1567 1.366 . S
C1566 C1568 1.388 . S
C1567 C1566 1.366 . S
C1567 C1571 1.385 . S
C1568 H1549 0.951 . S
C1568 C1566 1.388 . S
C1568 C1569 1.366 . S
C1569 C1568 1.366 . S
C1569 C1570 1.414 . S
C1569 C1572 1.499 . S
C1570 H1550 0.950 . S
C1570 C1569 1.414 . S
C1570 C1571 1.374 . S
C1571 H1551 0.950 . S
C1571 C1567 1.385 . S
C1571 C1570 1.374 . S
C1572 C1569 1.499 . S
C1572 C1573 1.373 . S
C1572 C1574 1.389 . S
C1573 H1552 0.950 . S
C1573 C1572 1.373 . S
C1573 C1589 1.377 . S
C1574 C1572 1.389 . S
C1574 C1575 1.524 . S
C1574 C1588 1.377 . S
C1575 C1574 1.524 . S
C1575 C1576 1.397 . S
C1575 C1580 1.363 . S
C1576 H1553 0.950 . S
C1576 C1575 1.397 . S
C1576 C1577 1.334 . S
C1577 H1554 0.950 . S
C1577 C1576 1.334 . S
C1577 C1578 1.287 . S
C1578 C1577 1.287 . S
C1578 C1579 1.524 . S
C1578 H1597 0.913 . S
C1579 H1555 0.950 . S
C1579 C1578 1.524 . S
C1579 C1580 1.415 . S
C1580 H1556 0.950 . S
C1580 C1575 1.363 . S
C1580 C1579 1.415 . S
C1581 H1557 0.951 . S
C1581 C1582 1.366 . S
C1581 C1583 1.388 . S
C1582 C1581 1.366 . S
C1582 C1586 1.385 . S
C1583 H1558 0.951 . S
C1583 C1581 1.388 . S
C1583 C1584 1.366 . S
C1584 C1583 1.366 . S
C1584 C1585 1.414 . S
C1584 C1587 1.499 . S
C1585 H1559 0.950 . S
C1585 C1584 1.414 . S
C1585 C1586 1.374 . S
C1586 H1560 0.950 . S
C1586 C1582 1.385 . S
C1586 C1585 1.374 . S
C1587 C1584 1.499 . S
C1587 C1588 1.373 . S
C1587 C1589 1.389 . S
C1588 H1561 0.950 . S
C1588 C1574 1.377 . S
C1588 C1587 1.373 . S
C1589 C1573 1.377 . S
C1589 C1587 1.389 . S
C1589 C1590 1.524 . S
C1590 C1589 1.524 . S
C1590 C1591 1.397 . S
C1590 C1595 1.363 . S
C1591 H1562 0.950 . S
C1591 C1590 1.397 . S
C1591 C1592 1.334 . S
C1592 H1563 0.950 . S
C1592 C1591 1.334 . S
C1592 C1593 1.287 . S
C1593 C1592 1.287 . S
C1593 C1594 1.524 . S
C1593 H1596 0.999 . S
C1594 H1564 0.950 . S
C1594 C1593 1.524 . S
C1594 C1595 1.415 . S
C1595 H1565 0.950 . S
C1595 C1590 1.363 . S
C1595 C1594 1.415 . S
H1596 C1593 0.999 . S
H1597 C1578 0.913 . S
H1598 C1616 0.951 . S
H1599 C1618 0.951 . S
H1600 C1620 0.950 . S
H1601 C1621 0.950 . S
H1602 C1623 0.950 . S
H1603 C1626 0.950 . S
H1604 C1627 0.950 . S
H1605 C1629 0.950 . S
H1606 C1630 0.950 . S
H1607 C1631 0.951 . S
H1608 C1633 0.951 . S
H1609 C1635 0.950 . S
H1610 C1636 0.950 . S
H1611 C1638 0.950 . S
H1612 C1641 0.950 . S
H1613 C1642 0.950 . S
H1614 C1644 0.950 . S
H1615 C1645 0.950 . S
C1616 H1598 0.951 . S
C1616 C1617 1.366 . S
C1616 C1618 1.388 . S
C1617 C1616 1.366 . S
C1617 C1621 1.385 . S
C1618 H1599 0.951 . S
C1618 C1616 1.388 . S
C1618 C1619 1.366 . S
C1619 C1618 1.366 . S
C1619 C1620 1.414 . S
C1619 C1622 1.499 . S
C1620 H1600 0.950 . S
C1620 C1619 1.414 . S
C1620 C1621 1.374 . S
C1621 H1601 0.950 . S
C1621 C1617 1.385 . S
C1621 C1620 1.374 . S
C1622 C1619 1.499 . S
C1622 C1623 1.373 . S
C1622 C1624 1.389 . S
C1623 H1602 0.950 . S
C1623 C1622 1.373 . S
C1623 C1639 1.377 . S
C1624 C1622 1.389 . S
C1624 C1625 1.524 . S
C1624 C1638 1.377 . S
C1625 C1624 1.524 . S
C1625 C1626 1.397 . S
C1625 C1630 1.363 . S
C1626 H1603 0.950 . S
C1626 C1625 1.397 . S
C1626 C1627 1.334 . S
C1627 H1604 0.950 . S
C1627 C1626 1.334 . S
C1627 C1628 1.287 . S
C1628 C1627 1.287 . S
C1628 C1629 1.524 . S
C1628 H1647 0.913 . S
C1629 H1605 0.950 . S
C1629 C1628 1.524 . S
C1629 C1630 1.415 . S
C1630 H1606 0.950 . S
C1630 C1625 1.363 . S
C1630 C1629 1.415 . S
C1631 H1607 0.951 . S
C1631 C1632 1.366 . S
C1631 C1633 1.388 . S
C1632 C1631 1.366 . S
C1632 C1636 1.385 . S
C1633 H1608 0.951 . S
C1633 C1631 1.388 . S
C1633 C1634 1.366 . S
C1634 C1633 1.366 . S
C1634 C1635 1.414 . S
C1634 C1637 1.499 . S
C1635 H1609 0.950 . S
C1635 C1634 1.414 . S
C1635 C1636 1.374 . S
C1636 H1610 0.950 . S
C1636 C1632 1.385 . S
C1636 C1635 1.374 . S
C1637 C1634 1.499 . S
C1637 C1638 1.373 . S
C1637 C1639 1.389 . S
C1638 H1611 0.950 . S
C1638 C1624 1.377 . S
C1638 C1637 1.373 . S
C1639 C1623 1.377 . S
C1639 C1637 1.389 . S
C1639 C1640 1.524 . S
C1640 C1639 1.524 . S
C1640 C1641 1.397 . S
C1640 C1645 1.363 . S
C1641 H1612 0.950 . S
C1641 C1640 1.397 . S
C1641 C1642 1.334 . S
C1642 H1613 0.950 . S
C1642 C1641 1.334 . S
C1642 C1643 1.287 . S
C1643 C1642 1.287 . S
C1643 C1644 1.524 . S
C1643 H1646 0.999 . S
C1644 H1614 0.950 . S
C1644 C1643 1.524 . S
C1644 C1645 1.415 . S
C1645 H1615 0.950 . S
C1645 C1640 1.363 . S
C1645 C1644 1.415 . S
H1646 C1643 0.999 . S
H1647 C1628 0.913 . S
H1648 C1666 0.951 . S
H1649 C1668 0.951 . S
H1650 C1670 0.950 . S
H1651 C1671 0.950 . S
H1652 C1673 0.950 . S
H1653 C1676 0.950 . S
H1654 C1677 0.950 . S
H1655 C1679 0.950 . S
H1656 C1680 0.950 . S
H1657 C1681 0.951 . S
H1658 C1683 0.951 . S
H1659 C1685 0.950 . S
H1660 C1686 0.950 . S
H1661 C1688 0.950 . S
H1662 C1691 0.950 . S
H1663 C1692 0.950 . S
H1664 C1694 0.950 . S
H1665 C1695 0.950 . S
C1666 H1648 0.951 . S
C1666 C1667 1.366 . S
C1666 C1668 1.388 . S
C1667 C1666 1.366 . S
C1667 C1671 1.385 . S
C1668 H1649 0.951 . S
C1668 C1666 1.388 . S
C1668 C1669 1.366 . S
C1669 C1668 1.366 . S
C1669 C1670 1.414 . S
C1669 C1672 1.499 . S
C1670 H1650 0.950 . S
C1670 C1669 1.414 . S
C1670 C1671 1.374 . S
C1671 H1651 0.950 . S
C1671 C1667 1.385 . S
C1671 C1670 1.374 . S
C1672 C1669 1.499 . S
C1672 C1673 1.373 . S
C1672 C1674 1.389 . S
C1673 H1652 0.950 . S
C1673 C1672 1.373 . S
C1673 C1689 1.377 . S
C1674 C1672 1.389 . S
C1674 C1675 1.524 . S
C1674 C1688 1.377 . S
C1675 C1674 1.524 . S
C1675 C1676 1.397 . S
C1675 C1680 1.363 . S
C1676 H1653 0.950 . S
C1676 C1675 1.397 . S
C1676 C1677 1.334 . S
C1677 H1654 0.950 . S
C1677 C1676 1.334 . S
C1677 C1678 1.287 . S
C1678 C1677 1.287 . S
C1678 C1679 1.524 . S
C1678 H1697 0.913 . S
C1679 H1655 0.950 . S
C1679 C1678 1.524 . S
C1679 C1680 1.415 . S
C1680 H1656 0.950 . S
C1680 C1675 1.363 . S
C1680 C1679 1.415 . S
C1681 H1657 0.951 . S
C1681 C1682 1.366 . S
C1681 C1683 1.388 . S
C1682 C1681 1.366 . S
C1682 C1686 1.385 . S
C1683 H1658 0.951 . S
C1683 C1681 1.388 . S
C1683 C1684 1.366 . S
C1684 C1683 1.366 . S
C1684 C1685 1.414 . S
C1684 C1687 1.499 . S
C1685 H1659 0.950 . S
C1685 C1684 1.414 . S
C1685 C1686 1.374 . S
C1686 H1660 0.950 . S
C1686 C1682 1.385 . S
C1686 C1685 1.374 . S
C1687 C1684 1.499 . S
C1687 C1688 1.373 . S
C1687 C1689 1.389 . S
C1688 H1661 0.950 . S
C1688 C1674 1.377 . S
C1688 C1687 1.373 . S
C1689 C1673 1.377 . S
C1689 C1687 1.389 . S
C1689 C1690 1.524 . S
C1690 C1689 1.524 . S
C1690 C1691 1.397 . S
C1690 C1695 1.363 . S
C1691 H1662 0.950 . S
C1691 C1690 1.397 . S
C1691 C1692 1.334 . S
C1692 H1663 0.950 . S
C1692 C1691 1.334 . S
C1692 C1693 1.287 . S
C1693 C1692 1.287 . S
C1693 C1694 1.524 . S
C1693 H1696 0.999 . S
C1694 H1664 0.950 . S
C1694 C1693 1.524 . S
C1694 C1695 1.415 . S
C1695 H1665 0.950 . S
C1695 C1690 1.363 . S
C1695 C1694 1.415 . S
H1696 C1693 0.999 . S
H1697 C1678 0.913 . S
H1698 C1716 0.951 . S
H1699 C1718 0.951 . S
H1700 C1720 0.950 . S
H1701 C1721 0.950 . S
H1702 C1723 0.950 . S
H1703 C1726 0.950 . S
H1704 C1727 0.950 . S
H1705 C1729 0.950 . S
H1706 C1730 0.950 . S
H1707 C1731 0.951 . S
H1708 C1733 0.951 . S
H1709 C1735 0.950 . S
H1710 C1736 0.950 . S
H1711 C1738 0.950 . S
H1712 C1741 0.950 . S
H1713 C1742 0.950 . S
H1714 C1744 0.950 . S
H1715 C1745 0.950 . S
C1716 H1698 0.951 . S
C1716 C1717 1.366 . S
C1716 C1718 1.388 . S
C1717 C1716 1.366 . S
C1717 C1721 1.385 . S
C1718 H1699 0.951 . S
C1718 C1716 1.388 . S
C1718 C1719 1.366 . S
C1719 C1718 1.366 . S
C1719 C1720 1.414 . S
C1719 C1722 1.499 . S
C1720 H1700 0.950 . S
C1720 C1719 1.414 . S
C1720 C1721 1.374 . S
C1721 H1701 0.950 . S
C1721 C1717 1.385 . S
C1721 C1720 1.374 . S
C1722 C1719 1.499 . S
C1722 C1723 1.373 . S
C1722 C1724 1.389 . S
C1723 H1702 0.950 . S
C1723 C1722 1.373 . S
C1723 C1739 1.377 . S
C1724 C1722 1.389 . S
C1724 C1725 1.524 . S
C1724 C1738 1.377 . S
C1725 C1724 1.524 . S
C1725 C1726 1.397 . S
C1725 C1730 1.363 . S
C1726 H1703 0.950 . S
C1726 C1725 1.397 . S
C1726 C1727 1.334 . S
C1727 H1704 0.950 . S
C1727 C1726 1.334 . S
C1727 C1728 1.287 . S
C1728 C1727 1.287 . S
C1728 C1729 1.524 . S
C1728 H1747 0.913 . S
C1729 H1705 0.950 . S
C1729 C1728 1.524 . S
C1729 C1730 1.415 . S
C1730 H1706 0.950 . S
C1730 C1725 1.363 . S
C1730 C1729 1.415 . S
C1731 H1707 0.951 . S
C1731 C1732 1.366 . S
C1731 C1733 1.388 . S
C1732 C1731 1.366 . S
C1732 C1736 1.385 . S
C1733 H1708 0.951 . S
C1733 C1731 1.388 . S
C1733 C1734 1.366 . S
C1734 C1733 1.366 . S
C1734 C1735 1.414 . S
C1734 C1737 1.499 . S
C1735 H1709 0.950 . S
C1735 C1734 1.414 . S
C1735 C1736 1.374 . S
C1736 H1710 0.950 . S
C1736 C1732 1.385 . S
C1736 C1735 1.374 . S
C1737 C1734 1.499 . S
C1737 C1738 1.373 . S
C1737 C1739 1.389 . S
C1738 H1711 0.950 . S
C1738 C1724 1.377 . S
C1738 C1737 1.373 . S
C1739 C1723 1.377 . S
C1739 C1737 1.389 . S
C1739 C1740 1.524 . S
C1740 C1739 1.524 . S
C1740 C1741 1.397 . S
C1740 C1745 1.363 . S
C1741 H1712 0.950 . S
C1741 C1740 1.397 . S
C1741 C1742 1.334 . S
C1742 H1713 0.950 . S
C1742 C1741 1.334 . S
C1742 C1743 1.287 . S
C1743 C1742 1.287 . S
C1743 C1744 1.524 . S
C1743 H1746 0.999 . S
C1744 H1714 0.950 . S
C1744 C1743 1.524 . S
C1744 C1745 1.415 . S
C1745 H1715 0.950 . S
C1745 C1740 1.363 . S
C1745 C1744 1.415 . S
H1746 C1743 0.999 . S
H1747 C1728 0.913 . S
H1748 C1766 0.951 . S
H1749 C1768 0.951 . S
H1750 C1770 0.950 . S
H1751 C1771 0.950 . S
H1752 C1773 0.950 . S
H1753 C1776 0.950 . S
H1754 C1777 0.950 . S
H1755 C1779 0.950 . S
H1756 C1780 0.950 . S
H1757 C1781 0.951 . S
H1758 C1783 0.951 . S
H1759 C1785 0.950 . S
H1760 C1786 0.950 . S
H1761 C1788 0.950 . S
H1762 C1791 0.950 . S
H1763 C1792 0.950 . S
H1764 C1794 0.950 . S
H1765 C1795 0.950 . S
C1766 H1748 0.951 . S
C1766 C1767 1.366 . S
C1766 C1768 1.388 . S
C1767 C1766 1.366 . S
C1767 C1771 1.385 . S
C1768 H1749 0.951 . S
C1768 C1766 1.388 . S
C1768 C1769 1.366 . S
C1769 C1768 1.366 . S
C1769 C1770 1.414 . S
C1769 C1772 1.499 . S
C1770 H1750 0.950 . S
C1770 C1769 1.414 . S
C1770 C1771 1.374 . S
C1771 H1751 0.950 . S
C1771 C1767 1.385 . S
C1771 C1770 1.374 . S
C1772 C1769 1.499 . S
C1772 C1773 1.373 . S
C1772 C1774 1.389 . S
C1773 H1752 0.950 . S
C1773 C1772 1.373 . S
C1773 C1789 1.377 . S
C1774 C1772 1.389 . S
C1774 C1775 1.524 . S
C1774 C1788 1.377 . S
C1775 C1774 1.524 . S
C1775 C1776 1.397 . S
C1775 C1780 1.363 . S
C1776 H1753 0.950 . S
C1776 C1775 1.397 . S
C1776 C1777 1.334 . S
C1777 H1754 0.950 . S
C1777 C1776 1.334 . S
C1777 C1778 1.287 . S
C1778 C1777 1.287 . S
C1778 C1779 1.524 . S
C1778 H1797 0.913 . S
C1779 H1755 0.950 . S
C1779 C1778 1.524 . S
C1779 C1780 1.415 . S
C1780 H1756 0.950 . S
C1780 C1775 1.363 . S
C1780 C1779 1.415 . S
C1781 H1757 0.951 . S
C1781 C1782 1.366 . S
C1781 C1783 1.388 . S
C1782 C1781 1.366 . S
C1782 C1786 1.385 . S
C1783 H1758 0.951 . S
C1783 C1781 1.388 . S
C1783 C1784 1.366 . S
C1784 C1783 1.366 . S
C1784 C1785 1.414 . S
C1784 C1787 1.499 . S
C1785 H1759 0.950 . S
C1785 C1784 1.414 . S
C1785 C1786 1.374 . S
C1786 H1760 0.950 . S
C1786 C1782 1.385 . S
C1786 C1785 1.374 . S
C1787 C1784 1.499 . S
C1787 C1788 1.373 . S
C1787 C1789 1.389 . S
C1788 H1761 0.950 . S
C1788 C1774 1.377 . S
C1788 C1787 1.373 . S
C1789 C1773 1.377 . S
C1789 C1787 1.389 . S
C1789 C1790 1.524 . S
C1790 C1789 1.524 . S
C1790 C1791 1.397 . S
C1790 C1795 1.363 . S
C1791 H1762 0.950 . S
C1791 C1790 1.397 . S
C1791 C1792 1.334 . S
C1792 H1763 0.950 . S
C1792 C1791 1.334 . S
C1792 C1793 1.287 . S
C1793 C1792 1.287 . S
C1793 C1794 1.524 . S
C1793 H1796 0.999 . S
C1794 H1764 0.950 . S
C1794 C1793 1.524 . S
C1794 C1795 1.415 . S
C1795 H1765 0.950 . S
C1795 C1790 1.363 . S
C1795 C1794 1.415 . S
H1796 C1793 0.999 . S
H1797 C1778 0.913 . S
H1798 C1816 0.951 . S
H1799 C1818 0.951 . S
H1800 C1820 0.950 . S
H1801 C1821 0.950 . S
H1802 C1823 0.950 . S
H1803 C1826 0.950 . S
H1804 C1827 0.950 . S
H1805 C1829 0.950 . S
H1806 C1830 0.950 . S
H1807 C1831 0.951 . S
H1808 C1833 0.951 . S
H1809 C1835 0.950 . S
H1810 C1836 0.950 . S
H1811 C1838 0.950 . S
H1812 C1841 0.950 . S
H1813 C1842 0.950 . S
H1814 C1844 0.950 . S
H1815 C1845 0.950 . S
C1816 H1798 0.951 . S
C1816 C1817 1.366 1_655 S
C1816 C1818 1.388 . S
C1817 C1816 1.366 1_455 S
C1817 C1821 1.385 . S
C1818 H1799 0.951 . S
C1818 C1816 1.388 . S
C1818 C1819 1.366 . S
C1819 C1818 1.366 . S
C1819 C1820 1.414 . S
C1819 C1822 1.499 . S
C1820 H1800 0.950 . S
C1820 C1819 1.414 . S
C1820 C1821 1.374 1_655 S
C1821 H1801 0.950 . S
C1821 C1817 1.385 . S
C1821 C1820 1.374 1_455 S
C1822 C1819 1.499 . S
C1822 C1823 1.373 . S
C1822 C1824 1.389 . S
C1823 H1802 0.950 . S
C1823 C1822 1.373 . S
C1823 C1839 1.377 . S
C1824 C1822 1.389 . S
C1824 C1825 1.524 . S
C1824 C1838 1.377 . S
C1825 C1824 1.524 . S
C1825 C1826 1.397 . S
C1825 C1830 1.363 . S
C1826 H1803 0.950 . S
C1826 C1825 1.397 . S
C1826 C1827 1.334 . S
C1827 H1804 0.950 . S
C1827 C1826 1.334 . S
C1827 C1828 1.287 . S
C1828 C1827 1.287 . S
C1828 C1829 1.524 . S
C1828 H1847 0.913 . S
C1829 H1805 0.950 . S
C1829 C1828 1.524 . S
C1829 C1830 1.415 . S
C1830 H1806 0.950 . S
C1830 C1825 1.363 . S
C1830 C1829 1.415 . S
C1831 H1807 0.951 . S
C1831 C1832 1.366 . S
C1831 C1833 1.388 . S
C1832 C1831 1.366 . S
C1832 C1836 1.385 . S
C1833 H1808 0.951 . S
C1833 C1831 1.388 . S
C1833 C1834 1.366 . S
C1834 C1833 1.366 . S
C1834 C1835 1.414 . S
C1834 C1837 1.499 . S
C1835 H1809 0.950 . S
C1835 C1834 1.414 . S
C1835 C1836 1.374 . S
C1836 H1810 0.950 . S
C1836 C1832 1.385 . S
C1836 C1835 1.374 . S
C1837 C1834 1.499 . S
C1837 C1838 1.373 . S
C1837 C1839 1.389 . S
C1838 H1811 0.950 . S
C1838 C1824 1.377 . S
C1838 C1837 1.373 . S
C1839 C1823 1.377 . S
C1839 C1837 1.389 . S
C1839 C1840 1.524 . S
C1840 C1839 1.524 . S
C1840 C1841 1.397 . S
C1840 C1845 1.363 . S
C1841 H1812 0.950 . S
C1841 C1840 1.397 . S
C1841 C1842 1.334 . S
C1842 H1813 0.950 . S
C1842 C1841 1.334 . S
C1842 C1843 1.287 . S
C1843 C1842 1.287 . S
C1843 C1844 1.524 . S
C1843 H1846 0.999 . S
C1844 H1814 0.950 . S
C1844 C1843 1.524 . S
C1844 C1845 1.415 . S
C1845 H1815 0.950 . S
C1845 C1840 1.363 . S
C1845 C1844 1.415 . S
H1846 C1843 0.999 . S
H1847 C1828 0.913 . S
H1848 C1866 0.951 . S
H1849 C1868 0.951 . S
H1850 C1870 0.950 . S
H1851 C1871 0.950 . S
H1852 C1873 0.950 . S
H1853 C1876 0.950 . S
H1854 C1877 0.950 . S
H1855 C1879 0.950 . S
H1856 C1880 0.950 . S
H1857 C1881 0.951 . S
H1858 C1883 0.951 . S
H1859 C1885 0.950 . S
H1860 C1886 0.950 . S
H1861 C1888 0.950 . S
H1862 C1891 0.950 . S
H1863 C1892 0.950 . S
H1864 C1894 0.950 . S
H1865 C1895 0.950 . S
C1866 H1848 0.951 . S
C1866 C1867 1.366 . S
C1866 C1868 1.388 . S
C1867 C1866 1.366 . S
C1867 C1871 1.385 . S
C1868 H1849 0.951 . S
C1868 C1866 1.388 . S
C1868 C1869 1.366 . S
C1869 C1868 1.366 . S
C1869 C1870 1.414 . S
C1869 C1872 1.499 . S
C1870 H1850 0.950 . S
C1870 C1869 1.414 . S
C1870 C1871 1.374 . S
C1871 H1851 0.950 . S
C1871 C1867 1.385 . S
C1871 C1870 1.374 . S
C1872 C1869 1.499 . S
C1872 C1873 1.373 . S
C1872 C1874 1.389 . S
C1873 H1852 0.950 . S
C1873 C1872 1.373 . S
C1873 C1889 1.377 . S
C1874 C1872 1.389 . S
C1874 C1875 1.524 . S
C1874 C1888 1.377 . S
C1875 C1874 1.524 . S
C1875 C1876 1.397 . S
C1875 C1880 1.363 . S
C1876 H1853 0.950 . S
C1876 C1875 1.397 . S
C1876 C1877 1.334 . S
C1877 H1854 0.950 . S
C1877 C1876 1.334 . S
C1877 C1878 1.287 . S
C1878 C1877 1.287 . S
C1878 C1879 1.524 . S
C1878 H1897 0.913 . S
C1879 H1855 0.950 . S
C1879 C1878 1.524 . S
C1879 C1880 1.415 . S
C1880 H1856 0.950 . S
C1880 C1875 1.363 . S
C1880 C1879 1.415 . S
C1881 H1857 0.951 . S
C1881 C1882 1.366 . S
C1881 C1883 1.388 . S
C1882 C1881 1.366 . S
C1882 C1886 1.385 . S
C1883 H1858 0.951 . S
C1883 C1881 1.388 . S
C1883 C1884 1.366 . S
C1884 C1883 1.366 . S
C1884 C1885 1.414 . S
C1884 C1887 1.499 . S
C1885 H1859 0.950 . S
C1885 C1884 1.414 . S
C1885 C1886 1.374 . S
C1886 H1860 0.950 . S
C1886 C1882 1.385 . S
C1886 C1885 1.374 . S
C1887 C1884 1.499 . S
C1887 C1888 1.373 . S
C1887 C1889 1.389 . S
C1888 H1861 0.950 . S
C1888 C1874 1.377 . S
C1888 C1887 1.373 . S
C1889 C1873 1.377 . S
C1889 C1887 1.389 . S
C1889 C1890 1.524 . S
C1890 C1889 1.524 . S
C1890 C1891 1.397 . S
C1890 C1895 1.363 . S
C1891 H1862 0.950 . S
C1891 C1890 1.397 . S
C1891 C1892 1.334 . S
C1892 H1863 0.950 . S
C1892 C1891 1.334 . S
C1892 C1893 1.287 . S
C1893 C1892 1.287 . S
C1893 C1894 1.524 . S
C1893 H1896 0.999 . S
C1894 H1864 0.950 . S
C1894 C1893 1.524 . S
C1894 C1895 1.415 . S
C1895 H1865 0.950 . S
C1895 C1890 1.363 . S
C1895 C1894 1.415 . S
H1896 C1893 0.999 . S
H1897 C1878 0.913 . S
H1898 C1916 0.951 . S
H1899 C1918 0.951 . S
H1900 C1920 0.950 . S
H1901 C1921 0.950 . S
H1902 C1923 0.950 . S
H1903 C1926 0.950 . S
H1904 C1927 0.950 . S
H1905 C1929 0.950 . S
H1906 C1930 0.950 . S
H1907 C1931 0.951 . S
H1908 C1933 0.951 . S
H1909 C1935 0.950 . S
H1910 C1936 0.950 . S
H1911 C1938 0.950 . S
H1912 C1941 0.950 . S
H1913 C1942 0.950 . S
H1914 C1944 0.950 . S
H1915 C1945 0.950 . S
C1916 H1898 0.951 . S
C1916 C1917 1.366 1_655 S
C1916 C1918 1.388 . S
C1917 C1916 1.366 1_455 S
C1917 C1921 1.385 . S
C1918 H1899 0.951 . S
C1918 C1916 1.388 . S
C1918 C1919 1.366 . S
C1919 C1918 1.366 . S
C1919 C1920 1.414 . S
C1919 C1922 1.499 . S
C1920 H1900 0.950 . S
C1920 C1919 1.414 . S
C1920 C1921 1.374 1_655 S
C1921 H1901 0.950 . S
C1921 C1917 1.385 . S
C1921 C1920 1.374 1_455 S
C1922 C1919 1.499 . S
C1922 C1923 1.373 . S
C1922 C1924 1.389 . S
C1923 H1902 0.950 . S
C1923 C1922 1.373 . S
C1923 C1939 1.377 . S
C1924 C1922 1.389 . S
C1924 C1925 1.524 . S
C1924 C1938 1.377 . S
C1925 C1924 1.524 . S
C1925 C1926 1.397 . S
C1925 C1930 1.363 . S
C1926 H1903 0.950 . S
C1926 C1925 1.397 . S
C1926 C1927 1.334 . S
C1927 H1904 0.950 . S
C1927 C1926 1.334 . S
C1927 C1928 1.287 . S
C1928 C1927 1.287 . S
C1928 C1929 1.524 . S
C1928 H1947 0.913 . S
C1929 H1905 0.950 . S
C1929 C1928 1.524 . S
C1929 C1930 1.415 . S
C1930 H1906 0.950 . S
C1930 C1925 1.363 . S
C1930 C1929 1.415 . S
C1931 H1907 0.951 . S
C1931 C1932 1.366 . S
C1931 C1933 1.388 . S
C1932 C1931 1.366 . S
C1932 C1936 1.385 . S
C1933 H1908 0.951 . S
C1933 C1931 1.388 . S
C1933 C1934 1.366 . S
C1934 C1933 1.366 . S
C1934 C1935 1.414 . S
C1934 C1937 1.499 . S
C1935 H1909 0.950 . S
C1935 C1934 1.414 . S
C1935 C1936 1.374 . S
C1936 H1910 0.950 . S
C1936 C1932 1.385 . S
C1936 C1935 1.374 . S
C1937 C1934 1.499 . S
C1937 C1938 1.373 . S
C1937 C1939 1.389 . S
C1938 H1911 0.950 . S
C1938 C1924 1.377 . S
C1938 C1937 1.373 . S
C1939 C1923 1.377 . S
C1939 C1937 1.389 . S
C1939 C1940 1.524 . S
C1940 C1939 1.524 . S
C1940 C1941 1.397 . S
C1940 C1945 1.363 . S
C1941 H1912 0.950 . S
C1941 C1940 1.397 . S
C1941 C1942 1.334 . S
C1942 H1913 0.950 . S
C1942 C1941 1.334 . S
C1942 C1943 1.287 . S
C1943 C1942 1.287 . S
C1943 C1944 1.524 . S
C1943 H1946 0.999 . S
C1944 H1914 0.950 . S
C1944 C1943 1.524 . S
C1944 C1945 1.415 . S
C1945 H1915 0.950 . S
C1945 C1940 1.363 . S
C1945 C1944 1.415 . S
H1946 C1943 0.999 . S
H1947 C1928 0.913 . S
H1948 C1966 0.951 . S
H1949 C1968 0.951 . S
H1950 C1970 0.950 . S
H1951 C1971 0.950 . S
H1952 C1973 0.950 . S
H1953 C1976 0.950 . S
H1954 C1977 0.950 . S
H1955 C1979 0.950 . S
H1956 C1980 0.950 . S
H1957 C1981 0.951 . S
H1958 C1983 0.951 . S
H1959 C1985 0.950 . S
H1960 C1986 0.950 . S
H1961 C1988 0.950 . S
H1962 C1991 0.950 . S
H1963 C1992 0.950 . S
H1964 C1994 0.950 . S
H1965 C1995 0.950 . S
C1966 H1948 0.951 . S
C1966 C1967 1.366 . S
C1966 C1968 1.388 . S
C1967 C1966 1.366 . S
C1967 C1971 1.385 . S
C1968 H1949 0.951 . S
C1968 C1966 1.388 . S
C1968 C1969 1.366 . S
C1969 C1968 1.366 . S
C1969 C1970 1.414 . S
C1969 C1972 1.499 . S
C1970 H1950 0.950 . S
C1970 C1969 1.414 . S
C1970 C1971 1.374 . S
C1971 H1951 0.950 . S
C1971 C1967 1.385 . S
C1971 C1970 1.374 . S
C1972 C1969 1.499 . S
C1972 C1973 1.373 . S
C1972 C1974 1.389 . S
C1973 H1952 0.950 . S
C1973 C1972 1.373 . S
C1973 C1989 1.377 . S
C1974 C1972 1.389 . S
C1974 C1975 1.524 . S
C1974 C1988 1.377 . S
C1975 C1974 1.524 . S
C1975 C1976 1.397 . S
C1975 C1980 1.363 . S
C1976 H1953 0.950 . S
C1976 C1975 1.397 . S
C1976 C1977 1.334 . S
C1977 H1954 0.950 . S
C1977 C1976 1.334 . S
C1977 C1978 1.287 . S
C1978 C1977 1.287 . S
C1978 C1979 1.524 . S
C1978 H1997 0.913 . S
C1979 H1955 0.950 . S
C1979 C1978 1.524 . S
C1979 C1980 1.415 . S
C1980 H1956 0.950 . S
C1980 C1975 1.363 . S
C1980 C1979 1.415 . S
C1981 H1957 0.951 . S
C1981 C1982 1.366 . S
C1981 C1983 1.388 . S
C1982 C1981 1.366 . S
C1982 C1986 1.385 . S
C1983 H1958 0.951 . S
C1983 C1981 1.388 . S
C1983 C1984 1.366 . S
C1984 C1983 1.366 . S
C1984 C1985 1.414 . S
C1984 C1987 1.499 . S
C1985 H1959 0.950 . S
C1985 C1984 1.414 . S
C1985 C1986 1.374 . S
C1986 H1960 0.950 . S
C1986 C1982 1.385 . S
C1986 C1985 1.374 . S
C1987 C1984 1.499 . S
C1987 C1988 1.373 . S
C1987 C1989 1.389 . S
C1988 H1961 0.950 . S
C1988 C1974 1.377 . S
C1988 C1987 1.373 . S
C1989 C1973 1.377 . S
C1989 C1987 1.389 . S
C1989 C1990 1.524 . S
C1990 C1989 1.524 . S
C1990 C1991 1.397 . S
C1990 C1995 1.363 . S
C1991 H1962 0.950 . S
C1991 C1990 1.397 . S
C1991 C1992 1.334 . S
C1992 H1963 0.950 . S
C1992 C1991 1.334 . S
C1992 C1993 1.287 . S
C1993 C1992 1.287 . S
C1993 C1994 1.524 . S
C1993 H1996 0.999 . S
C1994 H1964 0.950 . S
C1994 C1993 1.524 . S
C1994 C1995 1.415 . S
C1995 H1965 0.950 . S
C1995 C1990 1.363 . S
C1995 C1994 1.415 . S
H1996 C1993 0.999 . S
H1997 C1978 0.913 . S
H1998 C2016 0.951 . S
H1999 C2018 0.951 . S
H2000 C2020 0.950 . S
H2001 C2021 0.950 . S
H2002 C2023 0.950 . S
H2003 C2026 0.950 . S
H2004 C2027 0.950 . S
H2005 C2029 0.950 . S
H2006 C2030 0.950 . S
H2007 C2031 0.951 . S
H2008 C2033 0.951 . S
H2009 C2035 0.950 . S
H2010 C2036 0.950 . S
H2011 C2038 0.950 . S
H2012 C2041 0.950 . S
H2013 C2042 0.950 . S
H2014 C2044 0.950 . S
H2015 C2045 0.950 . S
C2016 H1998 0.951 . S
C2016 C2017 1.366 . S
C2016 C2018 1.388 . S
C2017 C2016 1.366 . S
C2017 C2021 1.385 . S
C2018 H1999 0.951 . S
C2018 C2016 1.388 . S
C2018 C2019 1.366 . S
C2019 C2018 1.366 . S
C2019 C2020 1.414 . S
C2019 C2022 1.499 . S
C2020 H2000 0.950 . S
C2020 C2019 1.414 . S
C2020 C2021 1.374 . S
C2021 H2001 0.950 . S
C2021 C2017 1.385 . S
C2021 C2020 1.374 . S
C2022 C2019 1.499 . S
C2022 C2023 1.373 . S
C2022 C2024 1.389 . S
C2023 H2002 0.950 . S
C2023 C2022 1.373 . S
C2023 C2039 1.377 . S
C2024 C2022 1.389 . S
C2024 C2025 1.524 . S
C2024 C2038 1.377 . S
C2025 C2024 1.524 . S
C2025 C2026 1.397 . S
C2025 C2030 1.363 . S
C2026 H2003 0.950 . S
C2026 C2025 1.397 . S
C2026 C2027 1.334 . S
C2027 H2004 0.950 . S
C2027 C2026 1.334 . S
C2027 C2028 1.287 . S
C2028 C2027 1.287 . S
C2028 C2029 1.524 . S
C2028 H2047 0.913 . S
C2029 H2005 0.950 . S
C2029 C2028 1.524 . S
C2029 C2030 1.415 . S
C2030 H2006 0.950 . S
C2030 C2025 1.363 . S
C2030 C2029 1.415 . S
C2031 H2007 0.951 . S
C2031 C2032 1.366 . S
C2031 C2033 1.388 . S
C2032 C2031 1.366 . S
C2032 C2036 1.385 . S
C2033 H2008 0.951 . S
C2033 C2031 1.388 . S
C2033 C2034 1.366 . S
C2034 C2033 1.366 . S
C2034 C2035 1.414 . S
C2034 C2037 1.499 . S
C2035 H2009 0.950 . S
C2035 C2034 1.414 . S
C2035 C2036 1.374 . S
C2036 H2010 0.950 . S
C2036 C2032 1.385 . S
C2036 C2035 1.374 . S
C2037 C2034 1.499 . S
C2037 C2038 1.373 . S
C2037 C2039 1.389 . S
C2038 H2011 0.950 . S
C2038 C2024 1.377 . S
C2038 C2037 1.373 . S
C2039 C2023 1.377 . S
C2039 C2037 1.389 . S
C2039 C2040 1.524 . S
C2040 C2039 1.524 . S
C2040 C2041 1.397 . S
C2040 C2045 1.363 . S
C2041 H2012 0.950 . S
C2041 C2040 1.397 . S
C2041 C2042 1.334 . S
C2042 H2013 0.950 . S
C2042 C2041 1.334 . S
C2042 C2043 1.287 . S
C2043 C2042 1.287 . S
C2043 C2044 1.524 . S
C2043 H2046 0.999 . S
C2044 H2014 0.950 . S
C2044 C2043 1.524 . S
C2044 C2045 1.415 . S
C2045 H2015 0.950 . S
C2045 C2040 1.363 . S
C2045 C2044 1.415 . S
H2046 C2043 0.999 . S
H2047 C2028 0.913 . S
H2048 C2066 0.951 . S
H2049 C2068 0.951 . S
H2050 C2070 0.950 . S
H2051 C2071 0.950 . S
H2052 C2073 0.950 . S
H2053 C2076 0.950 . S
H2054 C2077 0.950 . S
H2055 C2079 0.950 . S
H2056 C2080 0.950 . S
H2057 C2081 0.951 . S
H2058 C2083 0.951 . S
H2059 C2085 0.950 . S
H2060 C2086 0.950 . S
H2061 C2088 0.950 . S
H2062 C2091 0.950 . S
H2063 C2092 0.950 . S
H2064 C2094 0.950 . S
H2065 C2095 0.950 . S
C2066 H2048 0.951 . S
C2066 C2067 1.366 . S
C2066 C2068 1.388 . S
C2067 C2066 1.366 . S
C2067 C2071 1.385 . S
C2068 H2049 0.951 . S
C2068 C2066 1.388 . S
C2068 C2069 1.366 . S
C2069 C2068 1.366 . S
C2069 C2070 1.414 . S
C2069 C2072 1.499 . S
C2070 H2050 0.950 . S
C2070 C2069 1.414 . S
C2070 C2071 1.374 . S
C2071 H2051 0.950 . S
C2071 C2067 1.385 . S
C2071 C2070 1.374 . S
C2072 C2069 1.499 . S
C2072 C2073 1.373 . S
C2072 C2074 1.389 . S
C2073 H2052 0.950 . S
C2073 C2072 1.373 . S
C2073 C2089 1.377 . S
C2074 C2072 1.389 . S
C2074 C2075 1.524 . S
C2074 C2088 1.377 . S
C2075 C2074 1.524 . S
C2075 C2076 1.397 . S
C2075 C2080 1.363 . S
C2076 H2053 0.950 . S
C2076 C2075 1.397 . S
C2076 C2077 1.334 . S
C2077 H2054 0.950 . S
C2077 C2076 1.334 . S
C2077 C2078 1.287 . S
C2078 C2077 1.287 . S
C2078 C2079 1.524 . S
C2078 H2097 0.913 . S
C2079 H2055 0.950 . S
C2079 C2078 1.524 . S
C2079 C2080 1.415 . S
C2080 H2056 0.950 . S
C2080 C2075 1.363 . S
C2080 C2079 1.415 . S
C2081 H2057 0.951 . S
C2081 C2082 1.366 . S
C2081 C2083 1.388 . S
C2082 C2081 1.366 . S
C2082 C2086 1.385 . S
C2083 H2058 0.951 . S
C2083 C2081 1.388 . S
C2083 C2084 1.366 . S
C2084 C2083 1.366 . S
C2084 C2085 1.414 . S
C2084 C2087 1.499 . S
C2085 H2059 0.950 . S
C2085 C2084 1.414 . S
C2085 C2086 1.374 . S
C2086 H2060 0.950 . S
C2086 C2082 1.385 . S
C2086 C2085 1.374 . S
C2087 C2084 1.499 . S
C2087 C2088 1.373 . S
C2087 C2089 1.389 . S
C2088 H2061 0.950 . S
C2088 C2074 1.377 . S
C2088 C2087 1.373 . S
C2089 C2073 1.377 . S
C2089 C2087 1.389 . S
C2089 C2090 1.524 . S
C2090 C2089 1.524 . S
C2090 C2091 1.397 . S
C2090 C2095 1.363 . S
C2091 H2062 0.950 . S
C2091 C2090 1.397 . S
C2091 C2092 1.334 . S
C2092 H2063 0.950 . S
C2092 C2091 1.334 . S
C2092 C2093 1.287 . S
C2093 C2092 1.287 . S
C2093 C2094 1.524 . S
C2093 H2096 0.999 . S
C2094 H2064 0.950 . S
C2094 C2093 1.524 . S
C2094 C2095 1.415 . S
C2095 H2065 0.950 . S
C2095 C2090 1.363 . S
C2095 C2094 1.415 . S
H2096 C2093 0.999 . S
H2097 C2078 0.913 . S
H2098 C2116 0.951 . S
H2099 C2118 0.951 1_655 S
H2100 C2120 0.950 . S
H2101 C2121 0.950 . S
H2102 C2123 0.950 . S
H2103 C2126 0.950 1_455 S
H2104 C2127 0.950 . S
H2105 C2129 0.950 . S
H2106 C2130 0.950 . S
H2107 C2131 0.951 . S
H2108 C2133 0.951 1_455 S
H2109 C2135 0.950 . S
H2110 C2136 0.950 . S
H2111 C2138 0.950 . S
H2112 C2141 0.950 1_655 S
H2113 C2142 0.950 . S
H2114 C2144 0.950 . S
H2115 C2145 0.950 . S
C2116 H2098 0.951 . S
C2116 C2117 1.366 . S
C2116 C2118 1.388 . S
C2117 C2116 1.366 . S
C2117 C2121 1.385 . S
C2118 H2099 0.951 1_455 S
C2118 C2116 1.388 . S
C2118 C2119 1.366 . S
C2119 C2118 1.366 . S
C2119 C2120 1.414 . S
C2119 C2122 1.499 . S
C2120 H2100 0.950 . S
C2120 C2119 1.414 . S
C2120 C2121 1.374 . S
C2121 H2101 0.950 . S
C2121 C2117 1.385 . S
C2121 C2120 1.374 . S
C2122 C2119 1.499 . S
C2122 C2123 1.373 1_565 S
C2122 C2124 1.389 1_455 S
C2123 H2102 0.950 . S
C2123 C2122 1.373 1_545 S
C2123 C2139 1.377 . S
C2124 C2122 1.389 1_655 S
C2124 C2125 1.524 . S
C2124 C2138 1.377 . S
C2125 C2124 1.524 . S
C2125 C2126 1.397 . S
C2125 C2130 1.363 . S
C2126 H2103 0.950 1_655 S
C2126 C2125 1.397 . S
C2126 C2127 1.334 . S
C2127 H2104 0.950 . S
C2127 C2126 1.334 . S
C2127 C2128 1.287 . S
C2128 C2127 1.287 . S
C2128 C2129 1.524 . S
C2128 H2147 0.913 . S
C2129 H2105 0.950 . S
C2129 C2128 1.524 . S
C2129 C2130 1.415 . S
C2130 H2106 0.950 . S
C2130 C2125 1.363 . S
C2130 C2129 1.415 . S
C2131 H2107 0.951 . S
C2131 C2132 1.366 . S
C2131 C2133 1.388 . S
C2132 C2131 1.366 . S
C2132 C2136 1.385 . S
C2133 H2108 0.951 1_655 S
C2133 C2131 1.388 . S
C2133 C2134 1.366 . S
C2134 C2133 1.366 . S
C2134 C2135 1.414 . S
C2134 C2137 1.499 . S
C2135 H2109 0.950 . S
C2135 C2134 1.414 . S
C2135 C2136 1.374 . S
C2136 H2110 0.950 . S
C2136 C2132 1.385 . S
C2136 C2135 1.374 . S
C2137 C2134 1.499 . S
C2137 C2138 1.373 1_545 S
C2137 C2139 1.389 1_655 S
C2138 H2111 0.950 . S
C2138 C2124 1.377 . S
C2138 C2137 1.373 1_565 S
C2139 C2123 1.377 . S
C2139 C2137 1.389 1_455 S
C2139 C2140 1.524 . S
C2140 C2139 1.524 . S
C2140 C2141 1.397 . S
C2140 C2145 1.363 . S
C2141 H2112 0.950 1_455 S
C2141 C2140 1.397 . S
C2141 C2142 1.334 . S
C2142 H2113 0.950 . S
C2142 C2141 1.334 . S
C2142 C2143 1.287 . S
C2143 C2142 1.287 . S
C2143 C2144 1.524 . S
C2143 H2146 0.999 . S
C2144 H2114 0.950 . S
C2144 C2143 1.524 . S
C2144 C2145 1.415 . S
C2145 H2115 0.950 . S
C2145 C2140 1.363 . S
C2145 C2144 1.415 . S
H2146 C2143 0.999 . S
H2147 C2128 0.913 . S
H2148 C2166 0.951 . S
H2149 C2168 0.951 . S
H2150 C2170 0.950 . S
H2151 C2171 0.950 . S
H2152 C2173 0.950 . S
H2153 C2176 0.950 . S
H2154 C2177 0.950 . S
H2155 C2179 0.950 . S
H2156 C2180 0.950 . S
H2157 C2181 0.951 . S
H2158 C2183 0.951 . S
H2159 C2185 0.950 . S
H2160 C2186 0.950 . S
H2161 C2188 0.950 . S
H2162 C2191 0.950 . S
H2163 C2192 0.950 . S
H2164 C2194 0.950 . S
H2165 C2195 0.950 . S
C2166 H2148 0.951 . S
C2166 C2167 1.366 . S
C2166 C2168 1.388 . S
C2167 C2166 1.366 . S
C2167 C2171 1.385 . S
C2168 H2149 0.951 . S
C2168 C2166 1.388 . S
C2168 C2169 1.366 . S
C2169 C2168 1.366 . S
C2169 C2170 1.414 . S
C2169 C2172 1.499 . S
C2170 H2150 0.950 . S
C2170 C2169 1.414 . S
C2170 C2171 1.374 . S
C2171 H2151 0.950 . S
C2171 C2167 1.385 . S
C2171 C2170 1.374 . S
C2172 C2169 1.499 . S
C2172 C2173 1.373 . S
C2172 C2174 1.389 . S
C2173 H2152 0.950 . S
C2173 C2172 1.373 . S
C2173 C2189 1.377 . S
C2174 C2172 1.389 . S
C2174 C2175 1.524 . S
C2174 C2188 1.377 . S
C2175 C2174 1.524 . S
C2175 C2176 1.397 . S
C2175 C2180 1.363 . S
C2176 H2153 0.950 . S
C2176 C2175 1.397 . S
C2176 C2177 1.334 . S
C2177 H2154 0.950 . S
C2177 C2176 1.334 . S
C2177 C2178 1.287 . S
C2178 C2177 1.287 . S
C2178 C2179 1.524 . S
C2178 H2197 0.913 . S
C2179 H2155 0.950 . S
C2179 C2178 1.524 . S
C2179 C2180 1.415 . S
C2180 H2156 0.950 . S
C2180 C2175 1.363 . S
C2180 C2179 1.415 . S
C2181 H2157 0.951 . S
C2181 C2182 1.366 . S
C2181 C2183 1.388 . S
C2182 C2181 1.366 . S
C2182 C2186 1.385 . S
C2183 H2158 0.951 . S
C2183 C2181 1.388 . S
C2183 C2184 1.366 . S
C2184 C2183 1.366 . S
C2184 C2185 1.414 . S
C2184 C2187 1.499 . S
C2185 H2159 0.950 . S
C2185 C2184 1.414 . S
C2185 C2186 1.374 . S
C2186 H2160 0.950 . S
C2186 C2182 1.385 . S
C2186 C2185 1.374 . S
C2187 C2184 1.499 . S
C2187 C2188 1.373 . S
C2187 C2189 1.389 . S
C2188 H2161 0.950 . S
C2188 C2174 1.377 . S
C2188 C2187 1.373 . S
C2189 C2173 1.377 . S
C2189 C2187 1.389 . S
C2189 C2190 1.524 . S
C2190 C2189 1.524 . S
C2190 C2191 1.397 . S
C2190 C2195 1.363 . S
C2191 H2162 0.950 . S
C2191 C2190 1.397 . S
C2191 C2192 1.334 . S
C2192 H2163 0.950 . S
C2192 C2191 1.334 . S
C2192 C2193 1.287 . S
C2193 C2192 1.287 . S
C2193 C2194 1.524 . S
C2193 H2196 0.999 . S
C2194 H2164 0.950 . S
C2194 C2193 1.524 . S
C2194 C2195 1.415 . S
C2195 H2165 0.950 . S
C2195 C2190 1.363 . S
C2195 C2194 1.415 . S
H2196 C2193 0.999 . S
H2197 C2178 0.913 . S
H2198 C2216 0.951 . S
H2199 C2218 0.951 . S
H2200 C2220 0.926 1_565 S
H2201 C2221 0.950 1_565 S
H2202 C2223 0.950 . S
H2203 C2226 0.950 . S
H2204 C2227 0.950 . S
H2205 C2229 0.950 . S
H2206 C2230 0.950 . S
H2207 C2231 0.951 . S
H2208 C2233 0.951 . S
H2209 C2235 0.926 1_545 S
H2210 C2236 0.950 1_545 S
H2211 C2238 0.950 . S
H2212 C2241 0.950 . S
H2213 C2242 0.950 . S
H2214 C2244 0.950 . S
H2215 C2245 0.950 . S
C2216 H2198 0.951 . S
C2216 C2217 1.366 . S
C2216 C2218 1.388 . S
C2217 C2216 1.366 . S
C2217 C2221 1.385 . S
C2218 H2199 0.951 . S
C2218 C2216 1.388 . S
C2218 C2219 1.366 . S
C2219 C2218 1.366 . S
C2219 C2220 1.430 . S
C2219 C2222 1.499 . S
C2220 H2200 0.926 1_545 S
C2220 C2219 1.430 . S
C2220 C2221 1.382 . S
C2221 H2201 0.950 1_545 S
C2221 C2217 1.385 . S
C2221 C2220 1.382 . S
C2222 C2219 1.499 . S
C2222 C2223 1.373 1_545 S
C2222 C2224 1.389 . S
C2223 H2202 0.950 . S
C2223 C2222 1.373 1_565 S
C2223 C2239 1.377 1_554 S
C2224 C2222 1.389 . S
C2224 C2225 1.524 . S
C2224 C2238 1.377 1_554 S
C2225 C2224 1.524 . S
C2225 C2226 1.397 . S
C2225 C2230 1.363 1_554 S
C2226 H2203 0.950 . S
C2226 C2225 1.397 . S
C2226 C2227 1.334 . S
C2227 H2204 0.950 . S
C2227 C2226 1.334 . S
C2227 C2228 1.310 . S
C2228 C2227 1.310 . S
C2228 C2229 1.508 1_554 S
C2228 H2247 0.919 . S
C2229 H2205 0.950 . S
C2229 C2228 1.508 1_556 S
C2229 C2230 1.415 . S
C2230 H2206 0.950 . S
C2230 C2225 1.363 1_556 S
C2230 C2229 1.415 . S
C2231 H2207 0.951 . S
C2231 C2232 1.366 . S
C2231 C2233 1.388 . S
C2232 C2231 1.366 . S
C2232 C2236 1.385 . S
C2233 H2208 0.951 . S
C2233 C2231 1.388 . S
C2233 C2234 1.366 . S
C2234 C2233 1.366 . S
C2234 C2235 1.430 . S
C2234 C2237 1.499 . S
C2235 H2209 0.926 1_565 S
C2235 C2234 1.430 . S
C2235 C2236 1.382 . S
C2236 H2210 0.950 1_565 S
C2236 C2232 1.385 . S
C2236 C2235 1.382 . S
C2237 C2234 1.499 . S
C2237 C2238 1.373 1_565 S
C2237 C2239 1.389 . S
C2238 H2211 0.950 . S
C2238 C2224 1.377 1_556 S
C2238 C2237 1.373 1_545 S
C2239 C2223 1.377 1_556 S
C2239 C2237 1.389 . S
C2239 C2240 1.524 . S
C2240 C2239 1.524 . S
C2240 C2241 1.397 . S
C2240 C2245 1.363 1_556 S
C2241 H2212 0.950 . S
C2241 C2240 1.397 . S
C2241 C2242 1.334 . S
C2242 H2213 0.950 . S
C2242 C2241 1.334 . S
C2242 C2243 1.310 . S
C2243 C2242 1.310 . S
C2243 C2244 1.508 1_556 S
C2243 H2246 0.999 . S
C2244 H2214 0.950 . S
C2244 C2243 1.508 1_554 S
C2244 C2245 1.415 . S
C2245 H2215 0.950 . S
C2245 C2240 1.363 1_554 S
C2245 C2244 1.415 . S
H2246 C2243 0.999 . S
H2247 C2228 0.919 . S
H2248 C2266 0.951 . S
H2249 C2268 0.951 . S
H2250 C2270 0.950 . S
H2251 C2271 0.950 . S
H2252 C2273 0.950 . S
H2253 C2276 0.950 . S
H2254 C2277 0.950 . S
H2255 C2279 0.950 . S
H2256 C2280 0.950 . S
H2257 C2281 0.951 . S
H2258 C2283 0.951 . S
H2259 C2285 0.950 . S
H2260 C2286 0.950 . S
H2261 C2288 0.950 . S
H2262 C2291 0.950 . S
H2263 C2292 0.950 . S
H2264 C2294 0.950 . S
H2265 C2295 0.950 . S
C2266 H2248 0.951 . S
C2266 C2267 1.366 . S
C2266 C2268 1.388 . S
C2267 C2266 1.366 . S
C2267 C2271 1.385 . S
C2268 H2249 0.951 . S
C2268 C2266 1.388 . S
C2268 C2269 1.366 . S
C2269 C2268 1.366 . S
C2269 C2270 1.414 . S
C2269 C2272 1.499 . S
C2270 H2250 0.950 . S
C2270 C2269 1.414 . S
C2270 C2271 1.374 . S
C2271 H2251 0.950 . S
C2271 C2267 1.385 . S
C2271 C2270 1.374 . S
C2272 C2269 1.499 . S
C2272 C2273 1.373 . S
C2272 C2274 1.389 . S
C2273 H2252 0.950 . S
C2273 C2272 1.373 . S
C2273 C2289 1.377 . S
C2274 C2272 1.389 . S
C2274 C2275 1.524 . S
C2274 C2288 1.377 . S
C2275 C2274 1.524 . S
C2275 C2276 1.397 . S
C2275 C2280 1.363 . S
C2276 H2253 0.950 . S
C2276 C2275 1.397 . S
C2276 C2277 1.334 . S
C2277 H2254 0.950 . S
C2277 C2276 1.334 . S
C2277 C2278 1.287 . S
C2278 C2277 1.287 . S
C2278 C2279 1.524 . S
C2278 H2297 0.913 . S
C2279 H2255 0.950 . S
C2279 C2278 1.524 . S
C2279 C2280 1.415 . S
C2280 H2256 0.950 . S
C2280 C2275 1.363 . S
C2280 C2279 1.415 . S
C2281 H2257 0.951 . S
C2281 C2282 1.366 . S
C2281 C2283 1.388 . S
C2282 C2281 1.366 . S
C2282 C2286 1.385 . S
C2283 H2258 0.951 . S
C2283 C2281 1.388 . S
C2283 C2284 1.366 . S
C2284 C2283 1.366 . S
C2284 C2285 1.414 . S
C2284 C2287 1.499 . S
C2285 H2259 0.950 . S
C2285 C2284 1.414 . S
C2285 C2286 1.374 . S
C2286 H2260 0.950 . S
C2286 C2282 1.385 . S
C2286 C2285 1.374 . S
C2287 C2284 1.499 . S
C2287 C2288 1.373 . S
C2287 C2289 1.389 . S
C2288 H2261 0.950 . S
C2288 C2274 1.377 . S
C2288 C2287 1.373 . S
C2289 C2273 1.377 . S
C2289 C2287 1.389 . S
C2289 C2290 1.524 . S
C2290 C2289 1.524 . S
C2290 C2291 1.397 . S
C2290 C2295 1.363 . S
C2291 H2262 0.950 . S
C2291 C2290 1.397 . S
C2291 C2292 1.334 . S
C2292 H2263 0.950 . S
C2292 C2291 1.334 . S
C2292 C2293 1.287 . S
C2293 C2292 1.287 . S
C2293 C2294 1.524 . S
C2293 H2296 0.999 . S
C2294 H2264 0.950 . S
C2294 C2293 1.524 . S
C2294 C2295 1.415 . S
C2295 H2265 0.950 . S
C2295 C2290 1.363 . S
C2295 C2294 1.415 . S
H2296 C2293 0.999 . S
H2297 C2278 0.913 . S
H2298 C2316 0.951 1_545 S
H2299 C2318 0.951 . S
H2300 C2320 0.950 . S
H2301 C2321 0.950 . S
H2302 C2323 0.950 . S
H2303 C2326 0.950 . S
H2304 C2327 0.950 . S
H2305 C2329 0.950 . S
H2306 C2330 0.950 . S
H2307 C2331 0.951 1_565 S
H2308 C2333 0.951 . S
H2309 C2335 0.950 . S
H2310 C2336 0.950 . S
H2311 C2338 0.950 . S
H2312 C2341 0.950 . S
H2313 C2342 0.950 . S
H2314 C2344 0.950 . S
H2315 C2345 0.950 . S
C2316 H2298 0.951 1_565 S
C2316 C2317 1.366 . S
C2316 C2318 1.388 1_565 S
C2317 C2316 1.366 . S
C2317 C2321 1.385 . S
C2318 H2299 0.951 . S
C2318 C2316 1.388 1_545 S
C2318 C2319 1.366 1_545 S
C2319 C2318 1.366 1_565 S
C2319 C2320 1.414 . S
C2319 C2322 1.499 . S
C2320 H2300 0.950 . S
C2320 C2319 1.414 . S
C2320 C2321 1.374 . S
C2321 H2301 0.950 . S
C2321 C2317 1.385 . S
C2321 C2320 1.374 . S
C2322 C2319 1.499 . S
C2322 C2323 1.373 . S
C2322 C2324 1.389 1_565 S
C2323 H2302 0.950 . S
C2323 C2322 1.373 . S
C2323 C2339 1.377 . S
C2324 C2322 1.389 1_545 S
C2324 C2325 1.524 . S
C2324 C2338 1.377 . S
C2325 C2324 1.524 . S
C2325 C2326 1.397 . S
C2325 C2330 1.363 . S
C2326 H2303 0.950 . S
C2326 C2325 1.397 . S
C2326 C2327 1.334 . S
C2327 H2304 0.950 . S
C2327 C2326 1.334 . S
C2327 C2328 1.287 . S
C2328 C2327 1.287 . S
C2328 C2329 1.524 . S
C2328 H2347 0.913 . S
C2329 H2305 0.950 . S
C2329 C2328 1.524 . S
C2329 C2330 1.415 . S
C2330 H2306 0.950 . S
C2330 C2325 1.363 . S
C2330 C2329 1.415 . S
C2331 H2307 0.951 1_545 S
C2331 C2332 1.366 . S
C2331 C2333 1.388 1_545 S
C2332 C2331 1.366 . S
C2332 C2336 1.385 . S
C2333 H2308 0.951 . S
C2333 C2331 1.388 1_565 S
C2333 C2334 1.366 1_565 S
C2334 C2333 1.366 1_545 S
C2334 C2335 1.414 . S
C2334 C2337 1.499 . S
C2335 H2309 0.950 . S
C2335 C2334 1.414 . S
C2335 C2336 1.374 . S
C2336 H2310 0.950 . S
C2336 C2332 1.385 . S
C2336 C2335 1.374 . S
C2337 C2334 1.499 . S
C2337 C2338 1.373 . S
C2337 C2339 1.389 1_545 S
C2338 H2311 0.950 . S
C2338 C2324 1.377 . S
C2338 C2337 1.373 . S
C2339 C2323 1.377 . S
C2339 C2337 1.389 1_565 S
C2339 C2340 1.524 . S
C2340 C2339 1.524 . S
C2340 C2341 1.397 . S
C2340 C2345 1.363 . S
C2341 H2312 0.950 . S
C2341 C2340 1.397 . S
C2341 C2342 1.334 . S
C2342 H2313 0.950 . S
C2342 C2341 1.334 . S
C2342 C2343 1.287 . S
C2343 C2342 1.287 . S
C2343 C2344 1.524 . S
C2343 H2346 0.999 . S
C2344 H2314 0.950 . S
C2344 C2343 1.524 . S
C2344 C2345 1.415 . S
C2345 H2315 0.950 . S
C2345 C2340 1.363 . S
C2345 C2344 1.415 . S
H2346 C2343 0.999 . S
H2347 C2328 0.913 . S
H2348 C2366 0.951 . S
H2349 C2368 0.951 . S
H2350 C2370 0.950 . S
H2351 C2371 0.950 . S
H2352 C2373 0.950 . S
H2353 C2376 0.950 . S
H2354 C2377 0.950 . S
H2355 C2379 0.950 . S
H2356 C2380 0.950 . S
H2357 C2381 0.951 . S
H2358 C2383 0.951 . S
H2359 C2385 0.950 . S
H2360 C2386 0.950 . S
H2361 C2388 0.950 . S
H2362 C2391 0.950 . S
H2363 C2392 0.950 . S
H2364 C2394 0.950 . S
H2365 C2395 0.950 . S
C2366 H2348 0.951 . S
C2366 C2367 1.366 . S
C2366 C2368 1.388 . S
C2367 C2366 1.366 . S
C2367 C2371 1.385 . S
C2368 H2349 0.951 . S
C2368 C2366 1.388 . S
C2368 C2369 1.366 . S
C2369 C2368 1.366 . S
C2369 C2370 1.414 . S
C2369 C2372 1.499 . S
C2370 H2350 0.950 . S
C2370 C2369 1.414 . S
C2370 C2371 1.374 . S
C2371 H2351 0.950 . S
C2371 C2367 1.385 . S
C2371 C2370 1.374 . S
C2372 C2369 1.499 . S
C2372 C2373 1.373 . S
C2372 C2374 1.389 . S
C2373 H2352 0.950 . S
C2373 C2372 1.373 . S
C2373 C2389 1.377 . S
C2374 C2372 1.389 . S
C2374 C2375 1.524 . S
C2374 C2388 1.377 . S
C2375 C2374 1.524 . S
C2375 C2376 1.397 . S
C2375 C2380 1.363 . S
C2376 H2353 0.950 . S
C2376 C2375 1.397 . S
C2376 C2377 1.334 . S
C2377 H2354 0.950 . S
C2377 C2376 1.334 . S
C2377 C2378 1.287 . S
C2378 C2377 1.287 . S
C2378 C2379 1.524 . S
C2378 H2397 0.913 . S
C2379 H2355 0.950 . S
C2379 C2378 1.524 . S
C2379 C2380 1.415 . S
C2380 H2356 0.950 . S
C2380 C2375 1.363 . S
C2380 C2379 1.415 . S
C2381 H2357 0.951 . S
C2381 C2382 1.366 . S
C2381 C2383 1.388 . S
C2382 C2381 1.366 . S
C2382 C2386 1.385 . S
C2383 H2358 0.951 . S
C2383 C2381 1.388 . S
C2383 C2384 1.366 . S
C2384 C2383 1.366 . S
C2384 C2385 1.414 . S
C2384 C2387 1.499 . S
C2385 H2359 0.950 . S
C2385 C2384 1.414 . S
C2385 C2386 1.374 . S
C2386 H2360 0.950 . S
C2386 C2382 1.385 . S
C2386 C2385 1.374 . S
C2387 C2384 1.499 . S
C2387 C2388 1.373 . S
C2387 C2389 1.389 . S
C2388 H2361 0.950 . S
C2388 C2374 1.377 . S
C2388 C2387 1.373 . S
C2389 C2373 1.377 . S
C2389 C2387 1.389 . S
C2389 C2390 1.524 . S
C2390 C2389 1.524 . S
C2390 C2391 1.397 . S
C2390 C2395 1.363 . S
C2391 H2362 0.950 . S
C2391 C2390 1.397 . S
C2391 C2392 1.334 . S
C2392 H2363 0.950 . S
C2392 C2391 1.334 . S
C2392 C2393 1.287 . S
C2393 C2392 1.287 . S
C2393 C2394 1.524 . S
C2393 H2396 0.999 . S
C2394 H2364 0.950 . S
C2394 C2393 1.524 . S
C2394 C2395 1.415 . S
C2395 H2365 0.950 . S
C2395 C2390 1.363 . S
C2395 C2394 1.415 . S
H2396 C2393 0.999 . S
H2397 C2378 0.913 . S
H2398 C2416 0.951 . S
H2399 C2418 0.951 1_655 S
H2400 C2420 0.950 1_565 S
H2401 C2421 0.950 . S
H2402 C2423 0.950 . S
H2403 C2426 0.950 . S
H2404 C2427 0.950 . S
H2405 C2429 0.950 . S
H2406 C2430 0.950 . S
H2407 C2431 0.951 . S
H2408 C2433 0.951 1_455 S
H2409 C2435 0.950 1_545 S
H2410 C2436 0.950 . S
H2411 C2438 0.950 . S
H2412 C2441 0.950 . S
H2413 C2442 0.950 . S
H2414 C2444 0.950 . S
H2415 C2445 0.950 . S
C2416 H2398 0.951 . S
C2416 C2417 1.366 . S
C2416 C2418 1.388 . S
C2417 C2416 1.366 . S
C2417 C2421 1.385 . S
C2418 H2399 0.951 1_455 S
C2418 C2416 1.388 . S
C2418 C2419 1.366 . S
C2419 C2418 1.366 . S
C2419 C2420 1.414 . S
C2419 C2422 1.499 . S
C2420 H2400 0.950 1_545 S
C2420 C2419 1.414 . S
C2420 C2421 1.374 . S
C2421 H2401 0.950 . S
C2421 C2417 1.385 . S
C2421 C2420 1.374 . S
C2422 C2419 1.499 . S
C2422 C2423 1.373 1_545 S
C2422 C2424 1.369 1_455 S
C2423 H2402 0.950 . S
C2423 C2422 1.373 1_565 S
C2423 C2439 1.397 1_556 S
C2424 C2422 1.369 1_655 S
C2424 C2425 1.526 . S
C2424 C2438 1.397 1_556 S
C2425 C2424 1.526 . S
C2425 C2426 1.397 1_655 S
C2425 C2430 1.363 . S
C2426 H2403 0.950 . S
C2426 C2425 1.397 1_455 S
C2426 C2427 1.334 . S
C2427 H2404 0.950 . S
C2427 C2426 1.334 . S
C2427 C2428 1.287 . S
C2428 C2427 1.287 . S
C2428 C2429 1.524 1_455 S
C2428 H2447 0.913 . S
C2429 H2405 0.950 . S
C2429 C2428 1.524 1_655 S
C2429 C2430 1.415 . S
C2430 H2406 0.950 . S
C2430 C2425 1.363 . S
C2430 C2429 1.415 . S
C2431 H2407 0.951 . S
C2431 C2432 1.366 . S
C2431 C2433 1.388 . S
C2432 C2431 1.366 . S
C2432 C2436 1.385 . S
C2433 H2408 0.951 1_655 S
C2433 C2431 1.388 . S
C2433 C2434 1.366 . S
C2434 C2433 1.366 . S
C2434 C2435 1.414 . S
C2434 C2437 1.499 . S
C2435 H2409 0.950 1_565 S
C2435 C2434 1.414 . S
C2435 C2436 1.374 . S
C2436 H2410 0.950 . S
C2436 C2432 1.385 . S
C2436 C2435 1.374 . S
C2437 C2434 1.499 . S
C2437 C2438 1.373 1_565 S
C2437 C2439 1.369 1_655 S
C2438 H2411 0.950 . S
C2438 C2424 1.397 1_554 S
C2438 C2437 1.373 1_545 S
C2439 C2423 1.397 1_554 S
C2439 C2437 1.369 1_455 S
C2439 C2440 1.526 . S
C2440 C2439 1.526 . S
C2440 C2441 1.397 1_455 S
C2440 C2445 1.363 . S
C2441 H2412 0.950 . S
C2441 C2440 1.397 1_655 S
C2441 C2442 1.334 . S
C2442 H2413 0.950 . S
C2442 C2441 1.334 . S
C2442 C2443 1.287 . S
C2443 C2442 1.287 . S
C2443 C2444 1.524 1_655 S
C2443 H2446 0.999 . S
C2444 H2414 0.950 . S
C2444 C2443 1.524 1_455 S
C2444 C2445 1.415 . S
C2445 H2415 0.950 . S
C2445 C2440 1.363 . S
C2445 C2444 1.415 . S
H2446 C2443 0.999 . S
H2447 C2428 0.913 . S
H2448 C2466 0.951 . S
H2449 C2468 0.951 . S
H2450 C2470 0.950 . S
H2451 C2471 0.950 . S
H2452 C2473 0.950 . S
H2453 C2476 0.950 . S
H2454 C2477 0.950 . S
H2455 C2479 0.950 . S
H2456 C2480 0.950 . S
H2457 C2481 0.951 . S
H2458 C2483 0.951 . S
H2459 C2485 0.950 . S
H2460 C2486 0.950 . S
H2461 C2488 0.950 . S
H2462 C2491 0.950 . S
H2463 C2492 0.950 . S
H2464 C2494 0.950 . S
H2465 C2495 0.950 . S
C2466 H2448 0.951 . S
C2466 C2467 1.366 . S
C2466 C2468 1.388 . S
C2467 C2466 1.366 . S
C2467 C2471 1.385 . S
C2468 H2449 0.951 . S
C2468 C2466 1.388 . S
C2468 C2469 1.366 . S
C2469 C2468 1.366 . S
C2469 C2470 1.414 . S
C2469 C2472 1.499 . S
C2470 H2450 0.950 . S
C2470 C2469 1.414 . S
C2470 C2471 1.374 . S
C2471 H2451 0.950 . S
C2471 C2467 1.385 . S
C2471 C2470 1.374 . S
C2472 C2469 1.499 . S
C2472 C2473 1.373 . S
C2472 C2474 1.389 . S
C2473 H2452 0.950 . S
C2473 C2472 1.373 . S
C2473 C2489 1.377 . S
C2474 C2472 1.389 . S
C2474 C2475 1.524 . S
C2474 C2488 1.377 . S
C2475 C2474 1.524 . S
C2475 C2476 1.397 . S
C2475 C2480 1.363 . S
C2476 H2453 0.950 . S
C2476 C2475 1.397 . S
C2476 C2477 1.334 . S
C2477 H2454 0.950 . S
C2477 C2476 1.334 . S
C2477 C2478 1.287 . S
C2478 C2477 1.287 . S
C2478 C2479 1.524 . S
C2478 H2497 0.913 . S
C2479 H2455 0.950 . S
C2479 C2478 1.524 . S
C2479 C2480 1.415 . S
C2480 H2456 0.950 . S
C2480 C2475 1.363 . S
C2480 C2479 1.415 . S
C2481 H2457 0.951 . S
C2481 C2482 1.366 . S
C2481 C2483 1.388 . S
C2482 C2481 1.366 . S
C2482 C2486 1.385 . S
C2483 H2458 0.951 . S
C2483 C2481 1.388 . S
C2483 C2484 1.366 . S
C2484 C2483 1.366 . S
C2484 C2485 1.414 . S
C2484 C2487 1.499 . S
C2485 H2459 0.950 . S
C2485 C2484 1.414 . S
C2485 C2486 1.374 . S
C2486 H2460 0.950 . S
C2486 C2482 1.385 . S
C2486 C2485 1.374 . S
C2487 C2484 1.499 . S
C2487 C2488 1.373 . S
C2487 C2489 1.389 . S
C2488 H2461 0.950 . S
C2488 C2474 1.377 . S
C2488 C2487 1.373 . S
C2489 C2473 1.377 . S
C2489 C2487 1.389 . S
C2489 C2490 1.524 . S
C2490 C2489 1.524 . S
C2490 C2491 1.397 . S
C2490 C2495 1.363 . S
C2491 H2462 0.950 . S
C2491 C2490 1.397 . S
C2491 C2492 1.334 . S
C2492 H2463 0.950 . S
C2492 C2491 1.334 . S
C2492 C2493 1.287 . S
C2493 C2492 1.287 . S
C2493 C2494 1.524 . S
C2493 H2496 0.999 . S
C2494 H2464 0.950 . S
C2494 C2493 1.524 . S
C2494 C2495 1.415 . S
C2495 H2465 0.950 . S
C2495 C2490 1.363 . S
C2495 C2494 1.415 . S
H2496 C2493 0.999 . S
H2497 C2478 0.913 . S
H2498 C2516 0.951 . S
H2499 C2518 0.951 . S
H2500 C2520 0.950 . S
H2501 C2521 0.950 . S
H2502 C2523 0.950 . S
H2503 C2526 0.950 . S
H2504 C2527 0.950 . S
H2505 C2529 0.950 . S
H2506 C2530 0.950 . S
H2507 C2531 0.951 . S
H2508 C2533 0.951 . S
H2509 C2535 0.950 . S
H2510 C2536 0.950 . S
H2511 C2538 0.950 . S
H2512 C2541 0.950 . S
H2513 C2542 0.950 . S
H2514 C2544 0.950 . S
H2515 C2545 0.950 . S
C2516 H2498 0.951 . S
C2516 C2517 1.366 . S
C2516 C2518 1.388 . S
C2517 C2516 1.366 . S
C2517 C2521 1.385 . S
C2518 H2499 0.951 . S
C2518 C2516 1.388 . S
C2518 C2519 1.366 . S
C2519 C2518 1.366 . S
C2519 C2520 1.414 . S
C2519 C2522 1.499 . S
C2520 H2500 0.950 . S
C2520 C2519 1.414 . S
C2520 C2521 1.374 . S
C2521 H2501 0.950 . S
C2521 C2517 1.385 . S
C2521 C2520 1.374 . S
C2522 C2519 1.499 . S
C2522 C2523 1.373 . S
C2522 C2524 1.389 . S
C2523 H2502 0.950 . S
C2523 C2522 1.373 . S
C2523 C2539 1.377 . S
C2524 C2522 1.389 . S
C2524 C2525 1.524 . S
C2524 C2538 1.377 . S
C2525 C2524 1.524 . S
C2525 C2526 1.397 . S
C2525 C2530 1.363 . S
C2526 H2503 0.950 . S
C2526 C2525 1.397 . S
C2526 C2527 1.334 . S
C2527 H2504 0.950 . S
C2527 C2526 1.334 . S
C2527 C2528 1.287 . S
C2528 C2527 1.287 . S
C2528 C2529 1.524 . S
C2528 H2547 0.913 . S
C2529 H2505 0.950 . S
C2529 C2528 1.524 . S
C2529 C2530 1.415 . S
C2530 H2506 0.950 . S
C2530 C2525 1.363 . S
C2530 C2529 1.415 . S
C2531 H2507 0.951 . S
C2531 C2532 1.366 . S
C2531 C2533 1.388 . S
C2532 C2531 1.366 . S
C2532 C2536 1.385 . S
C2533 H2508 0.951 . S
C2533 C2531 1.388 . S
C2533 C2534 1.366 . S
C2534 C2533 1.366 . S
C2534 C2535 1.414 . S
C2534 C2537 1.499 . S
C2535 H2509 0.950 . S
C2535 C2534 1.414 . S
C2535 C2536 1.374 . S
C2536 H2510 0.950 . S
C2536 C2532 1.385 . S
C2536 C2535 1.374 . S
C2537 C2534 1.499 . S
C2537 C2538 1.373 . S
C2537 C2539 1.389 . S
C2538 H2511 0.950 . S
C2538 C2524 1.377 . S
C2538 C2537 1.373 . S
C2539 C2523 1.377 . S
C2539 C2537 1.389 . S
C2539 C2540 1.524 . S
C2540 C2539 1.524 . S
C2540 C2541 1.397 . S
C2540 C2545 1.363 . S
C2541 H2512 0.950 . S
C2541 C2540 1.397 . S
C2541 C2542 1.334 . S
C2542 H2513 0.950 . S
C2542 C2541 1.334 . S
C2542 C2543 1.287 . S
C2543 C2542 1.287 . S
C2543 C2544 1.524 . S
C2543 H2546 0.999 . S
C2544 H2514 0.950 . S
C2544 C2543 1.524 . S
C2544 C2545 1.415 . S
C2545 H2515 0.950 . S
C2545 C2540 1.363 . S
C2545 C2544 1.415 . S
H2546 C2543 0.999 . S
H2547 C2528 0.913 . S
H2548 C2566 0.951 . S
H2549 C2568 0.951 . S
H2550 C2570 0.950 . S
H2551 C2571 0.950 . S
H2552 C2573 0.950 . S
H2553 C2576 0.950 . S
H2554 C2577 0.950 . S
H2555 C2579 0.950 . S
H2556 C2580 0.950 . S
H2557 C2581 0.951 . S
H2558 C2583 0.951 . S
H2559 C2585 0.950 . S
H2560 C2586 0.950 . S
H2561 C2588 0.950 . S
H2562 C2591 0.950 . S
H2563 C2592 0.950 . S
H2564 C2594 0.950 . S
H2565 C2595 0.950 . S
C2566 H2548 0.951 . S
C2566 C2567 1.366 . S
C2566 C2568 1.388 . S
C2567 C2566 1.366 . S
C2567 C2571 1.385 . S
C2568 H2549 0.951 . S
C2568 C2566 1.388 . S
C2568 C2569 1.366 . S
C2569 C2568 1.366 . S
C2569 C2570 1.414 . S
C2569 C2572 1.499 . S
C2570 H2550 0.950 . S
C2570 C2569 1.414 . S
C2570 C2571 1.374 . S
C2571 H2551 0.950 . S
C2571 C2567 1.385 . S
C2571 C2570 1.374 . S
C2572 C2569 1.499 . S
C2572 C2573 1.373 . S
C2572 C2574 1.389 . S
C2573 H2552 0.950 . S
C2573 C2572 1.373 . S
C2573 C2589 1.377 . S
C2574 C2572 1.389 . S
C2574 C2575 1.524 . S
C2574 C2588 1.377 . S
C2575 C2574 1.524 . S
C2575 C2576 1.397 . S
C2575 C2580 1.363 . S
C2576 H2553 0.950 . S
C2576 C2575 1.397 . S
C2576 C2577 1.334 . S
C2577 H2554 0.950 . S
C2577 C2576 1.334 . S
C2577 C2578 1.287 . S
C2578 C2577 1.287 . S
C2578 C2579 1.524 . S
C2578 H2597 0.913 . S
C2579 H2555 0.950 . S
C2579 C2578 1.524 . S
C2579 C2580 1.415 . S
C2580 H2556 0.950 . S
C2580 C2575 1.363 . S
C2580 C2579 1.415 . S
C2581 H2557 0.951 . S
C2581 C2582 1.366 . S
C2581 C2583 1.388 . S
C2582 C2581 1.366 . S
C2582 C2586 1.385 . S
C2583 H2558 0.951 . S
C2583 C2581 1.388 . S
C2583 C2584 1.366 . S
C2584 C2583 1.366 . S
C2584 C2585 1.414 . S
C2584 C2587 1.499 . S
C2585 H2559 0.950 . S
C2585 C2584 1.414 . S
C2585 C2586 1.374 . S
C2586 H2560 0.950 . S
C2586 C2582 1.385 . S
C2586 C2585 1.374 . S
C2587 C2584 1.499 . S
C2587 C2588 1.373 . S
C2587 C2589 1.389 . S
C2588 H2561 0.950 . S
C2588 C2574 1.377 . S
C2588 C2587 1.373 . S
C2589 C2573 1.377 . S
C2589 C2587 1.389 . S
C2589 C2590 1.524 . S
C2590 C2589 1.524 . S
C2590 C2591 1.397 . S
C2590 C2595 1.363 . S
C2591 H2562 0.950 . S
C2591 C2590 1.397 . S
C2591 C2592 1.334 . S
C2592 H2563 0.950 . S
C2592 C2591 1.334 . S
C2592 C2593 1.287 . S
C2593 C2592 1.287 . S
C2593 C2594 1.524 . S
C2593 H2596 0.999 . S
C2594 H2564 0.950 . S
C2594 C2593 1.524 . S
C2594 C2595 1.415 . S
C2595 H2565 0.950 . S
C2595 C2590 1.363 . S
C2595 C2594 1.415 . S
H2596 C2593 0.999 . S
H2597 C2578 0.913 . S
H2598 C2616 0.951 . S
H2599 C2618 0.951 . S
H2600 C2620 0.950 . S
H2601 C2621 0.950 . S
H2602 C2623 0.950 . S
H2603 C2626 0.950 . S
H2604 C2627 0.950 . S
H2605 C2629 0.950 . S
H2606 C2630 0.950 . S
H2607 C2631 0.951 . S
H2608 C2633 0.951 . S
H2609 C2635 0.950 . S
H2610 C2636 0.950 . S
H2611 C2638 0.950 . S
H2612 C2641 0.950 . S
H2613 C2642 0.950 . S
H2614 C2644 0.950 . S
H2615 C2645 0.950 . S
C2616 H2598 0.951 . S
C2616 C2617 1.366 . S
C2616 C2618 1.388 . S
C2617 C2616 1.366 . S
C2617 C2621 1.385 . S
C2618 H2599 0.951 . S
C2618 C2616 1.388 . S
C2618 C2619 1.366 . S
C2619 C2618 1.366 . S
C2619 C2620 1.414 . S
C2619 C2622 1.499 . S
C2620 H2600 0.950 . S
C2620 C2619 1.414 . S
C2620 C2621 1.374 . S
C2621 H2601 0.950 . S
C2621 C2617 1.385 . S
C2621 C2620 1.374 . S
C2622 C2619 1.499 . S
C2622 C2623 1.373 . S
C2622 C2624 1.389 . S
C2623 H2602 0.950 . S
C2623 C2622 1.373 . S
C2623 C2639 1.377 . S
C2624 C2622 1.389 . S
C2624 C2625 1.524 . S
C2624 C2638 1.377 . S
C2625 C2624 1.524 . S
C2625 C2626 1.397 . S
C2625 C2630 1.363 . S
C2626 H2603 0.950 . S
C2626 C2625 1.397 . S
C2626 C2627 1.334 . S
C2627 H2604 0.950 . S
C2627 C2626 1.334 . S
C2627 C2628 1.287 . S
C2628 C2627 1.287 . S
C2628 C2629 1.524 . S
C2628 H2647 0.913 . S
C2629 H2605 0.950 . S
C2629 C2628 1.524 . S
C2629 C2630 1.415 . S
C2630 H2606 0.950 . S
C2630 C2625 1.363 . S
C2630 C2629 1.415 . S
C2631 H2607 0.951 . S
C2631 C2632 1.366 . S
C2631 C2633 1.388 . S
C2632 C2631 1.366 . S
C2632 C2636 1.385 . S
C2633 H2608 0.951 . S
C2633 C2631 1.388 . S
C2633 C2634 1.366 . S
C2634 C2633 1.366 . S
C2634 C2635 1.414 . S
C2634 C2637 1.499 . S
C2635 H2609 0.950 . S
C2635 C2634 1.414 . S
C2635 C2636 1.374 . S
C2636 H2610 0.950 . S
C2636 C2632 1.385 . S
C2636 C2635 1.374 . S
C2637 C2634 1.499 . S
C2637 C2638 1.373 . S
C2637 C2639 1.389 . S
C2638 H2611 0.950 . S
C2638 C2624 1.377 . S
C2638 C2637 1.373 . S
C2639 C2623 1.377 . S
C2639 C2637 1.389 . S
C2639 C2640 1.524 . S
C2640 C2639 1.524 . S
C2640 C2641 1.397 . S
C2640 C2645 1.363 . S
C2641 H2612 0.950 . S
C2641 C2640 1.397 . S
C2641 C2642 1.334 . S
C2642 H2613 0.950 . S
C2642 C2641 1.334 . S
C2642 C2643 1.287 . S
C2643 C2642 1.287 . S
C2643 C2644 1.524 . S
C2643 H2646 0.999 . S
C2644 H2614 0.950 . S
C2644 C2643 1.524 . S
C2644 C2645 1.415 . S
C2645 H2615 0.950 . S
C2645 C2640 1.363 . S
C2645 C2644 1.415 . S
H2646 C2643 0.999 . S
H2647 C2628 0.913 . S
H2648 C2666 0.951 . S
H2649 C2668 0.951 . S
H2650 C2670 0.950 . S
H2651 C2671 0.950 . S
H2652 C2673 0.950 . S
H2653 C2676 0.950 . S
H2654 C2677 0.950 . S
H2655 C2679 0.950 . S
H2656 C2680 0.950 . S
H2657 C2681 0.951 . S
H2658 C2683 0.951 . S
H2659 C2685 0.950 . S
H2660 C2686 0.950 . S
H2661 C2688 0.950 . S
H2662 C2691 0.950 . S
H2663 C2692 0.950 . S
H2664 C2694 0.950 . S
H2665 C2695 0.950 . S
C2666 H2648 0.951 . S
C2666 C2667 1.366 . S
C2666 C2668 1.388 . S
C2667 C2666 1.366 . S
C2667 C2671 1.385 . S
C2668 H2649 0.951 . S
C2668 C2666 1.388 . S
C2668 C2669 1.366 . S
C2669 C2668 1.366 . S
C2669 C2670 1.414 . S
C2669 C2672 1.499 . S
C2670 H2650 0.950 . S
C2670 C2669 1.414 . S
C2670 C2671 1.374 . S
C2671 H2651 0.950 . S
C2671 C2667 1.385 . S
C2671 C2670 1.374 . S
C2672 C2669 1.499 . S
C2672 C2673 1.373 . S
C2672 C2674 1.389 . S
C2673 H2652 0.950 . S
C2673 C2672 1.373 . S
C2673 C2689 1.377 1_554 S
C2674 C2672 1.389 . S
C2674 C2675 1.524 . S
C2674 C2688 1.377 1_554 S
C2675 C2674 1.524 . S
C2675 C2676 1.397 . S
C2675 C2680 1.363 . S
C2676 H2653 0.950 . S
C2676 C2675 1.397 . S
C2676 C2677 1.334 . S
C2677 H2654 0.950 . S
C2677 C2676 1.334 . S
C2677 C2678 1.287 . S
C2678 C2677 1.287 . S
C2678 C2679 1.524 . S
C2678 H2697 0.913 . S
C2679 H2655 0.950 . S
C2679 C2678 1.524 . S
C2679 C2680 1.415 . S
C2680 H2656 0.950 . S
C2680 C2675 1.363 . S
C2680 C2679 1.415 . S
C2681 H2657 0.951 . S
C2681 C2682 1.366 . S
C2681 C2683 1.388 . S
C2682 C2681 1.366 . S
C2682 C2686 1.385 . S
C2683 H2658 0.951 . S
C2683 C2681 1.388 . S
C2683 C2684 1.366 . S
C2684 C2683 1.366 . S
C2684 C2685 1.414 . S
C2684 C2687 1.499 . S
C2685 H2659 0.950 . S
C2685 C2684 1.414 . S
C2685 C2686 1.374 . S
C2686 H2660 0.950 . S
C2686 C2682 1.385 . S
C2686 C2685 1.374 . S
C2687 C2684 1.499 . S
C2687 C2688 1.373 . S
C2687 C2689 1.389 . S
C2688 H2661 0.950 . S
C2688 C2674 1.377 1_556 S
C2688 C2687 1.373 . S
C2689 C2673 1.377 1_556 S
C2689 C2687 1.389 . S
C2689 C2690 1.524 . S
C2690 C2689 1.524 . S
C2690 C2691 1.397 . S
C2690 C2695 1.363 . S
C2691 H2662 0.950 . S
C2691 C2690 1.397 . S
C2691 C2692 1.334 . S
C2692 H2663 0.950 . S
C2692 C2691 1.334 . S
C2692 C2693 1.287 . S
C2693 C2692 1.287 . S
C2693 C2694 1.524 . S
C2693 H2696 0.999 . S
C2694 H2664 0.950 . S
C2694 C2693 1.524 . S
C2694 C2695 1.415 . S
C2695 H2665 0.950 . S
C2695 C2690 1.363 . S
C2695 C2694 1.415 . S
H2696 C2693 0.999 . S
H2697 C2678 0.913 . S
H2698 C2716 0.951 . S
H2699 C2718 0.951 . S
H2700 C2720 0.950 . S
H2701 C2721 0.950 . S
H2702 C2723 0.950 . S
H2703 C2726 0.950 . S
H2704 C2727 0.950 . S
H2705 C2729 0.950 . S
H2706 C2730 0.950 . S
H2707 C2731 0.951 . S
H2708 C2733 0.951 . S
H2709 C2735 0.950 . S
H2710 C2736 0.950 . S
H2711 C2738 0.950 . S
H2712 C2741 0.950 . S
H2713 C2742 0.950 . S
H2714 C2744 0.950 . S
H2715 C2745 0.950 . S
C2716 H2698 0.951 . S
C2716 C2717 1.366 . S
C2716 C2718 1.388 . S
C2717 C2716 1.366 . S
C2717 C2721 1.385 . S
C2718 H2699 0.951 . S
C2718 C2716 1.388 . S
C2718 C2719 1.366 . S
C2719 C2718 1.366 . S
C2719 C2720 1.414 . S
C2719 C2722 1.499 . S
C2720 H2700 0.950 . S
C2720 C2719 1.414 . S
C2720 C2721 1.374 . S
C2721 H2701 0.950 . S
C2721 C2717 1.385 . S
C2721 C2720 1.374 . S
C2722 C2719 1.499 . S
C2722 C2723 1.373 1_455 S
C2722 C2724 1.389 . S
C2723 H2702 0.950 . S
C2723 C2722 1.373 1_655 S
C2723 C2739 1.377 . S
C2724 C2722 1.389 . S
C2724 C2725 1.524 . S
C2724 C2738 1.377 . S
C2725 C2724 1.524 . S
C2725 C2726 1.397 . S
C2725 C2730 1.363 . S
C2726 H2703 0.950 . S
C2726 C2725 1.397 . S
C2726 C2727 1.334 . S
C2727 H2704 0.950 . S
C2727 C2726 1.334 . S
C2727 C2728 1.287 . S
C2728 C2727 1.287 . S
C2728 C2729 1.524 . S
C2728 H2747 0.913 . S
C2729 H2705 0.950 . S
C2729 C2728 1.524 . S
C2729 C2730 1.415 . S
C2730 H2706 0.950 . S
C2730 C2725 1.363 . S
C2730 C2729 1.415 . S
C2731 H2707 0.951 . S
C2731 C2732 1.366 . S
C2731 C2733 1.388 . S
C2732 C2731 1.366 . S
C2732 C2736 1.385 . S
C2733 H2708 0.951 . S
C2733 C2731 1.388 . S
C2733 C2734 1.366 . S
C2734 C2733 1.366 . S
C2734 C2735 1.414 . S
C2734 C2737 1.499 . S
C2735 H2709 0.950 . S
C2735 C2734 1.414 . S
C2735 C2736 1.374 . S
C2736 H2710 0.950 . S
C2736 C2732 1.385 . S
C2736 C2735 1.374 . S
C2737 C2734 1.499 . S
C2737 C2738 1.373 1_655 S
C2737 C2739 1.389 . S
C2738 H2711 0.950 . S
C2738 C2724 1.377 . S
C2738 C2737 1.373 1_455 S
C2739 C2723 1.377 . S
C2739 C2737 1.389 . S
C2739 C2740 1.524 . S
C2740 C2739 1.524 . S
C2740 C2741 1.397 . S
C2740 C2745 1.363 . S
C2741 H2712 0.950 . S
C2741 C2740 1.397 . S
C2741 C2742 1.334 . S
C2742 H2713 0.950 . S
C2742 C2741 1.334 . S
C2742 C2743 1.287 . S
C2743 C2742 1.287 . S
C2743 C2744 1.524 . S
C2743 H2746 0.999 . S
C2744 H2714 0.950 . S
C2744 C2743 1.524 . S
C2744 C2745 1.415 . S
C2745 H2715 0.950 . S
C2745 C2740 1.363 . S
C2745 C2744 1.415 . S
H2746 C2743 0.999 . S
H2747 C2728 0.913 . S
H2748 C2766 0.951 . S
H2749 C2768 0.951 . S
H2750 C2770 0.950 . S
H2751 C2771 0.950 . S
H2752 C2773 0.950 . S
H2753 C2776 0.950 . S
H2754 C2777 0.950 . S
H2755 C2779 0.950 . S
H2756 C2780 0.950 . S
H2757 C2781 0.951 . S
H2758 C2783 0.951 . S
H2759 C2785 0.950 . S
H2760 C2786 0.950 . S
H2761 C2788 0.950 . S
H2762 C2791 0.950 . S
H2763 C2792 0.950 . S
H2764 C2794 0.950 . S
H2765 C2795 0.950 . S
C2766 H2748 0.951 . S
C2766 C2767 1.366 . S
C2766 C2768 1.388 . S
C2767 C2766 1.366 . S
C2767 C2771 1.385 . S
C2768 H2749 0.951 . S
C2768 C2766 1.388 . S
C2768 C2769 1.366 . S
C2769 C2768 1.366 . S
C2769 C2770 1.414 . S
C2769 C2772 1.499 . S
C2770 H2750 0.950 . S
C2770 C2769 1.414 . S
C2770 C2771 1.374 . S
C2771 H2751 0.950 . S
C2771 C2767 1.385 . S
C2771 C2770 1.374 . S
C2772 C2769 1.499 . S
C2772 C2773 1.373 1_455 S
C2772 C2774 1.389 . S
C2773 H2752 0.950 . S
C2773 C2772 1.373 1_655 S
C2773 C2789 1.377 1_554 S
C2774 C2772 1.389 . S
C2774 C2775 1.524 . S
C2774 C2788 1.377 1_554 S
C2775 C2774 1.524 . S
C2775 C2776 1.397 . S
C2775 C2780 1.363 . S
C2776 H2753 0.950 . S
C2776 C2775 1.397 . S
C2776 C2777 1.334 . S
C2777 H2754 0.950 . S
C2777 C2776 1.334 . S
C2777 C2778 1.287 . S
C2778 C2777 1.287 . S
C2778 C2779 1.524 . S
C2778 H2797 0.913 . S
C2779 H2755 0.950 . S
C2779 C2778 1.524 . S
C2779 C2780 1.415 . S
C2780 H2756 0.950 . S
C2780 C2775 1.363 . S
C2780 C2779 1.415 . S
C2781 H2757 0.951 . S
C2781 C2782 1.366 . S
C2781 C2783 1.388 . S
C2782 C2781 1.366 . S
C2782 C2786 1.385 . S
C2783 H2758 0.951 . S
C2783 C2781 1.388 . S
C2783 C2784 1.366 . S
C2784 C2783 1.366 . S
C2784 C2785 1.414 . S
C2784 C2787 1.499 . S
C2785 H2759 0.950 . S
C2785 C2784 1.414 . S
C2785 C2786 1.374 . S
C2786 H2760 0.950 . S
C2786 C2782 1.385 . S
C2786 C2785 1.374 . S
C2787 C2784 1.499 . S
C2787 C2788 1.373 1_655 S
C2787 C2789 1.389 . S
C2788 H2761 0.950 . S
C2788 C2774 1.377 1_556 S
C2788 C2787 1.373 1_455 S
C2789 C2773 1.377 1_556 S
C2789 C2787 1.389 . S
C2789 C2790 1.524 . S
C2790 C2789 1.524 . S
C2790 C2791 1.397 . S
C2790 C2795 1.363 . S
C2791 H2762 0.950 . S
C2791 C2790 1.397 . S
C2791 C2792 1.334 . S
C2792 H2763 0.950 . S
C2792 C2791 1.334 . S
C2792 C2793 1.287 . S
C2793 C2792 1.287 . S
C2793 C2794 1.524 . S
C2793 H2796 0.999 . S
C2794 H2764 0.950 . S
C2794 C2793 1.524 . S
C2794 C2795 1.415 . S
C2795 H2765 0.950 . S
C2795 C2790 1.363 . S
C2795 C2794 1.415 . S
H2796 C2793 0.999 . S
H2797 C2778 0.913 . S
H2798 C2816 0.951 . S
H2799 C2818 0.951 . S
H2800 C2820 0.950 . S
H2801 C2821 0.950 . S
H2802 C2823 0.950 . S
H2803 C2826 0.950 . S
H2804 C2827 0.950 . S
H2805 C2829 0.950 . S
H2806 C2830 0.950 . S
H2807 C2831 0.951 . S
H2808 C2833 0.951 . S
H2809 C2835 0.950 . S
H2810 C2836 0.950 . S
H2811 C2838 0.950 . S
H2812 C2841 0.950 . S
H2813 C2842 0.950 . S
H2814 C2844 0.950 . S
H2815 C2845 0.950 . S
C2816 H2798 0.951 . S
C2816 C2817 1.366 . S
C2816 C2818 1.388 . S
C2817 C2816 1.366 . S
C2817 C2821 1.385 . S
C2818 H2799 0.951 . S
C2818 C2816 1.388 . S
C2818 C2819 1.366 . S
C2819 C2818 1.366 . S
C2819 C2820 1.414 . S
C2819 C2822 1.499 . S
C2820 H2800 0.950 . S
C2820 C2819 1.414 . S
C2820 C2821 1.374 . S
C2821 H2801 0.950 . S
C2821 C2817 1.385 . S
C2821 C2820 1.374 . S
C2822 C2819 1.499 . S
C2822 C2823 1.373 . S
C2822 C2824 1.389 . S
C2823 H2802 0.950 . S
C2823 C2822 1.373 . S
C2823 C2839 1.377 . S
C2824 C2822 1.389 . S
C2824 C2825 1.524 . S
C2824 C2838 1.377 . S
C2825 C2824 1.524 . S
C2825 C2826 1.397 . S
C2825 C2830 1.363 . S
C2826 H2803 0.950 . S
C2826 C2825 1.397 . S
C2826 C2827 1.334 . S
C2827 H2804 0.950 . S
C2827 C2826 1.334 . S
C2827 C2828 1.287 . S
C2828 C2827 1.287 . S
C2828 C2829 1.524 . S
C2828 H2847 0.913 . S
C2829 H2805 0.950 . S
C2829 C2828 1.524 . S
C2829 C2830 1.415 . S
C2830 H2806 0.950 . S
C2830 C2825 1.363 . S
C2830 C2829 1.415 . S
C2831 H2807 0.951 . S
C2831 C2832 1.366 . S
C2831 C2833 1.388 . S
C2832 C2831 1.366 . S
C2832 C2836 1.385 . S
C2833 H2808 0.951 . S
C2833 C2831 1.388 . S
C2833 C2834 1.366 . S
C2834 C2833 1.366 . S
C2834 C2835 1.414 . S
C2834 C2837 1.499 . S
C2835 H2809 0.950 . S
C2835 C2834 1.414 . S
C2835 C2836 1.374 . S
C2836 H2810 0.950 . S
C2836 C2832 1.385 . S
C2836 C2835 1.374 . S
C2837 C2834 1.499 . S
C2837 C2838 1.373 . S
C2837 C2839 1.389 . S
C2838 H2811 0.950 . S
C2838 C2824 1.377 . S
C2838 C2837 1.373 . S
C2839 C2823 1.377 . S
C2839 C2837 1.389 . S
C2839 C2840 1.524 . S
C2840 C2839 1.524 . S
C2840 C2841 1.397 . S
C2840 C2845 1.363 . S
C2841 H2812 0.950 . S
C2841 C2840 1.397 . S
C2841 C2842 1.334 . S
C2842 H2813 0.950 . S
C2842 C2841 1.334 . S
C2842 C2843 1.287 . S
C2843 C2842 1.287 . S
C2843 C2844 1.524 . S
C2843 H2846 0.999 . S
C2844 H2814 0.950 . S
C2844 C2843 1.524 . S
C2844 C2845 1.415 . S
C2845 H2815 0.950 . S
C2845 C2840 1.363 . S
C2845 C2844 1.415 . S
H2846 C2843 0.999 . S
H2847 C2828 0.913 . S
H2848 C2866 0.951 . S
H2849 C2868 0.951 . S
H2850 C2870 0.950 . S
H2851 C2871 0.950 . S
H2852 C2873 0.950 . S
H2853 C2876 0.950 . S
H2854 C2877 0.950 . S
H2855 C2879 0.950 . S
H2856 C2880 0.950 . S
H2857 C2881 0.951 . S
H2858 C2883 0.951 . S
H2859 C2885 0.950 . S
H2860 C2886 0.950 . S
H2861 C2888 0.950 . S
H2862 C2891 0.950 . S
H2863 C2892 0.950 . S
H2864 C2894 0.950 . S
H2865 C2895 0.950 . S
C2866 H2848 0.951 . S
C2866 C2867 1.366 . S
C2866 C2868 1.388 . S
C2867 C2866 1.366 . S
C2867 C2871 1.385 . S
C2868 H2849 0.951 . S
C2868 C2866 1.388 . S
C2868 C2869 1.366 . S
C2869 C2868 1.366 . S
C2869 C2870 1.414 . S
C2869 C2872 1.499 . S
C2870 H2850 0.950 . S
C2870 C2869 1.414 . S
C2870 C2871 1.374 . S
C2871 H2851 0.950 . S
C2871 C2867 1.385 . S
C2871 C2870 1.374 . S
C2872 C2869 1.499 . S
C2872 C2873 1.373 . S
C2872 C2874 1.389 . S
C2873 H2852 0.950 . S
C2873 C2872 1.373 . S
C2873 C2889 1.377 . S
C2874 C2872 1.389 . S
C2874 C2875 1.524 . S
C2874 C2888 1.377 . S
C2875 C2874 1.524 . S
C2875 C2876 1.397 . S
C2875 C2880 1.363 . S
C2876 H2853 0.950 . S
C2876 C2875 1.397 . S
C2876 C2877 1.334 . S
C2877 H2854 0.950 . S
C2877 C2876 1.334 . S
C2877 C2878 1.287 . S
C2878 C2877 1.287 . S
C2878 C2879 1.524 . S
C2878 H2897 0.913 . S
C2879 H2855 0.950 . S
C2879 C2878 1.524 . S
C2879 C2880 1.415 . S
C2880 H2856 0.950 . S
C2880 C2875 1.363 . S
C2880 C2879 1.415 . S
C2881 H2857 0.951 . S
C2881 C2882 1.366 . S
C2881 C2883 1.388 . S
C2882 C2881 1.366 . S
C2882 C2886 1.385 . S
C2883 H2858 0.951 . S
C2883 C2881 1.388 . S
C2883 C2884 1.366 . S
C2884 C2883 1.366 . S
C2884 C2885 1.414 . S
C2884 C2887 1.499 . S
C2885 H2859 0.950 . S
C2885 C2884 1.414 . S
C2885 C2886 1.374 . S
C2886 H2860 0.950 . S
C2886 C2882 1.385 . S
C2886 C2885 1.374 . S
C2887 C2884 1.499 . S
C2887 C2888 1.373 . S
C2887 C2889 1.389 . S
C2888 H2861 0.950 . S
C2888 C2874 1.377 . S
C2888 C2887 1.373 . S
C2889 C2873 1.377 . S
C2889 C2887 1.389 . S
C2889 C2890 1.524 . S
C2890 C2889 1.524 . S
C2890 C2891 1.397 . S
C2890 C2895 1.363 . S
C2891 H2862 0.950 . S
C2891 C2890 1.397 . S
C2891 C2892 1.334 . S
C2892 H2863 0.950 . S
C2892 C2891 1.334 . S
C2892 C2893 1.287 . S
C2893 C2892 1.287 . S
C2893 C2894 1.524 . S
C2893 H2896 0.999 . S
C2894 H2864 0.950 . S
C2894 C2893 1.524 . S
C2894 C2895 1.415 . S
C2895 H2865 0.950 . S
C2895 C2890 1.363 . S
C2895 C2894 1.415 . S
H2896 C2893 0.999 . S
H2897 C2878 0.913 . S
H2898 C2916 0.987 . S
H2899 C2918 0.951 . S
H2900 C2920 0.950 . S
H2901 C2921 0.950 . S
H2902 C2923 0.950 . S
H2903 C2926 0.950 . S
H2904 C2927 0.950 . S
H2905 C2929 0.950 . S
H2906 C2930 0.950 . S
H2907 C2931 0.951 . S
H2908 C2933 0.951 . S
H2909 C2935 0.950 . S
H2910 C2936 0.950 . S
H2911 C2938 0.950 . S
H2912 C2941 0.950 . S
H2913 C2942 0.950 . S
H2914 C2944 0.950 . S
H2915 C2945 0.950 . S
C2916 H2898 0.987 . S
C2916 C2917 1.359 1_565 S
C2916 C2918 1.360 1_565 S
C2917 C2916 1.359 1_545 S
C2917 C2921 1.385 . S
C2918 H2899 0.951 . S
C2918 C2916 1.360 1_545 S
C2918 C2919 1.366 . S
C2919 C2918 1.366 . S
C2919 C2920 1.414 . S
C2919 C2922 1.499 . S
C2920 H2900 0.950 . S
C2920 C2919 1.414 . S
C2920 C2921 1.374 . S
C2921 H2901 0.950 . S
C2921 C2917 1.385 . S
C2921 C2920 1.374 . S
C2922 C2919 1.499 . S
C2922 C2923 1.373 . S
C2922 C2924 1.389 . S
C2923 H2902 0.950 . S
C2923 C2922 1.373 . S
C2923 C2939 1.377 . S
C2924 C2922 1.389 . S
C2924 C2925 1.524 . S
C2924 C2938 1.377 . S
C2925 C2924 1.524 . S
C2925 C2926 1.397 . S
C2925 C2930 1.363 . S
C2926 H2903 0.950 . S
C2926 C2925 1.397 . S
C2926 C2927 1.334 . S
C2927 H2904 0.950 . S
C2927 C2926 1.334 . S
C2927 C2928 1.287 . S
C2928 C2927 1.287 . S
C2928 C2929 1.524 . S
C2928 H2947 0.913 . S
C2929 H2905 0.950 . S
C2929 C2928 1.524 . S
C2929 C2930 1.415 . S
C2930 H2906 0.950 . S
C2930 C2925 1.363 . S
C2930 C2929 1.415 . S
C2931 H2907 0.951 . S
C2931 C2932 1.366 . S
C2931 C2933 1.388 . S
C2932 C2931 1.366 . S
C2932 C2936 1.385 . S
C2933 H2908 0.951 . S
C2933 C2931 1.388 . S
C2933 C2934 1.366 . S
C2934 C2933 1.366 . S
C2934 C2935 1.414 . S
C2934 C2937 1.499 . S
C2935 H2909 0.950 . S
C2935 C2934 1.414 . S
C2935 C2936 1.374 . S
C2936 H2910 0.950 . S
C2936 C2932 1.385 . S
C2936 C2935 1.374 . S
C2937 C2934 1.499 . S
C2937 C2938 1.373 . S
C2937 C2939 1.389 . S
C2938 H2911 0.950 . S
C2938 C2924 1.377 . S
C2938 C2937 1.373 . S
C2939 C2923 1.377 . S
C2939 C2937 1.389 . S
C2939 C2940 1.524 . S
C2940 C2939 1.524 . S
C2940 C2941 1.397 . S
C2940 C2945 1.363 . S
C2941 H2912 0.950 . S
C2941 C2940 1.397 . S
C2941 C2942 1.334 . S
C2942 H2913 0.950 . S
C2942 C2941 1.334 . S
C2942 C2943 1.287 . S
C2943 C2942 1.287 . S
C2943 C2944 1.524 . S
C2943 H2946 0.999 . S
C2944 H2914 0.950 . S
C2944 C2943 1.524 . S
C2944 C2945 1.415 . S
C2945 H2915 0.950 . S
C2945 C2940 1.363 . S
C2945 C2944 1.415 . S
H2946 C2943 0.999 . S
H2947 C2928 0.913 . S
H2948 C2966 0.951 . S
H2949 C2968 0.951 . S
H2950 C2970 0.950 . S
H2951 C2971 0.950 . S
H2952 C2973 0.950 . S
H2953 C2976 0.950 . S
H2954 C2977 0.950 . S
H2955 C2979 0.950 . S
H2956 C2980 0.950 . S
H2957 C2981 0.951 . S
H2958 C2983 0.951 . S
H2959 C2985 0.950 . S
H2960 C2986 0.950 . S
H2961 C2988 0.950 . S
H2962 C2991 0.950 . S
H2963 C2992 0.950 . S
H2964 C2994 0.950 . S
H2965 C2995 0.950 . S
C2966 H2948 0.951 . S
C2966 C2967 1.366 . S
C2966 C2968 1.388 . S
C2967 C2966 1.366 . S
C2967 C2971 1.385 . S
C2968 H2949 0.951 . S
C2968 C2966 1.388 . S
C2968 C2969 1.366 . S
C2969 C2968 1.366 . S
C2969 C2970 1.414 . S
C2969 C2972 1.499 . S
C2970 H2950 0.950 . S
C2970 C2969 1.414 . S
C2970 C2971 1.374 . S
C2971 H2951 0.950 . S
C2971 C2967 1.385 . S
C2971 C2970 1.374 . S
C2972 C2969 1.499 . S
C2972 C2973 1.373 . S
C2972 C2974 1.389 . S
C2973 H2952 0.950 . S
C2973 C2972 1.373 . S
C2973 C2989 1.377 . S
C2974 C2972 1.389 . S
C2974 C2975 1.524 . S
C2974 C2988 1.377 . S
C2975 C2974 1.524 . S
C2975 C2976 1.397 . S
C2975 C2980 1.363 . S
C2976 H2953 0.950 . S
C2976 C2975 1.397 . S
C2976 C2977 1.334 . S
C2977 H2954 0.950 . S
C2977 C2976 1.334 . S
C2977 C2978 1.287 . S
C2978 C2977 1.287 . S
C2978 C2979 1.524 . S
C2978 H2997 0.913 . S
C2979 H2955 0.950 . S
C2979 C2978 1.524 . S
C2979 C2980 1.415 . S
C2980 H2956 0.950 . S
C2980 C2975 1.363 . S
C2980 C2979 1.415 . S
C2981 H2957 0.951 . S
C2981 C2982 1.366 . S
C2981 C2983 1.388 . S
C2982 C2981 1.366 . S
C2982 C2986 1.385 . S
C2983 H2958 0.951 . S
C2983 C2981 1.388 . S
C2983 C2984 1.366 . S
C2984 C2983 1.366 . S
C2984 C2985 1.414 . S
C2984 C2987 1.499 . S
C2985 H2959 0.950 . S
C2985 C2984 1.414 . S
C2985 C2986 1.374 . S
C2986 H2960 0.950 . S
C2986 C2982 1.385 . S
C2986 C2985 1.374 . S
C2987 C2984 1.499 . S
C2987 C2988 1.373 . S
C2987 C2989 1.389 . S
C2988 H2961 0.950 . S
C2988 C2974 1.377 . S
C2988 C2987 1.373 . S
C2989 C2973 1.377 . S
C2989 C2987 1.389 . S
C2989 C2990 1.524 . S
C2990 C2989 1.524 . S
C2990 C2991 1.397 . S
C2990 C2995 1.363 . S
C2991 H2962 0.950 . S
C2991 C2990 1.397 . S
C2991 C2992 1.334 1_565 S
C2992 H2963 0.950 . S
C2992 C2991 1.334 1_545 S
C2992 C2993 1.287 . S
C2993 C2992 1.287 . S
C2993 C2994 1.524 1_545 S
C2993 H2996 0.999 . S
C2994 H2964 0.950 . S
C2994 C2993 1.524 1_565 S
C2994 C2995 1.415 . S
C2995 H2965 0.950 . S
C2995 C2990 1.363 . S
C2995 C2994 1.415 . S
H2996 C2993 0.999 . S
H2997 C2978 0.913 . S
H2998 C3016 0.951 . S
H2999 C3018 0.951 . S
H3000 C3020 0.950 . S
H3001 C3021 0.950 . S
H3002 C3023 0.950 . S
H3003 C3026 0.950 . S
H3004 C3027 0.950 . S
H3005 C3029 0.950 . S
H3006 C3030 0.950 . S
H3007 C3031 0.951 . S
H3008 C3033 0.951 . S
H3009 C3035 0.950 . S
H3010 C3036 0.950 . S
H3011 C3038 0.950 . S
H3012 C3041 0.950 . S
H3013 C3042 0.950 . S
H3014 C3044 0.950 . S
H3015 C3045 0.950 . S
C3016 H2998 0.951 . S
C3016 C3017 1.366 . S
C3016 C3018 1.388 . S
C3017 C3016 1.366 . S
C3017 C3021 1.385 . S
C3018 H2999 0.951 . S
C3018 C3016 1.388 . S
C3018 C3019 1.366 . S
C3019 C3018 1.366 . S
C3019 C3020 1.414 . S
C3019 C3022 1.499 . S
C3020 H3000 0.950 . S
C3020 C3019 1.414 . S
C3020 C3021 1.374 . S
C3021 H3001 0.950 . S
C3021 C3017 1.385 . S
C3021 C3020 1.374 . S
C3022 C3019 1.499 . S
C3022 C3023 1.373 . S
C3022 C3024 1.389 . S
C3023 H3002 0.950 . S
C3023 C3022 1.373 . S
C3023 C3039 1.377 . S
C3024 C3022 1.389 . S
C3024 C3025 1.524 . S
C3024 C3038 1.377 . S
C3025 C3024 1.524 . S
C3025 C3026 1.397 . S
C3025 C3030 1.363 . S
C3026 H3003 0.950 . S
C3026 C3025 1.397 . S
C3026 C3027 1.334 . S
C3027 H3004 0.950 . S
C3027 C3026 1.334 . S
C3027 C3028 1.287 . S
C3028 C3027 1.287 . S
C3028 C3029 1.524 . S
C3028 H3047 0.913 . S
C3029 H3005 0.950 . S
C3029 C3028 1.524 . S
C3029 C3030 1.415 . S
C3030 H3006 0.950 . S
C3030 C3025 1.363 . S
C3030 C3029 1.415 . S
C3031 H3007 0.951 . S
C3031 C3032 1.366 . S
C3031 C3033 1.388 . S
C3032 C3031 1.366 . S
C3032 C3036 1.385 . S
C3033 H3008 0.951 . S
C3033 C3031 1.388 . S
C3033 C3034 1.366 . S
C3034 C3033 1.366 . S
C3034 C3035 1.414 . S
C3034 C3037 1.499 . S
C3035 H3009 0.950 . S
C3035 C3034 1.414 . S
C3035 C3036 1.374 . S
C3036 H3010 0.950 . S
C3036 C3032 1.385 . S
C3036 C3035 1.374 . S
C3037 C3034 1.499 . S
C3037 C3038 1.373 . S
C3037 C3039 1.389 . S
C3038 H3011 0.950 . S
C3038 C3024 1.377 . S
C3038 C3037 1.373 . S
C3039 C3023 1.377 . S
C3039 C3037 1.389 . S
C3039 C3040 1.524 . S
C3040 C3039 1.524 . S
C3040 C3041 1.397 . S
C3040 C3045 1.363 . S
C3041 H3012 0.950 . S
C3041 C3040 1.397 . S
C3041 C3042 1.334 . S
C3042 H3013 0.950 . S
C3042 C3041 1.334 . S
C3042 C3043 1.287 . S
C3043 C3042 1.287 . S
C3043 C3044 1.524 . S
C3043 H3046 0.999 . S
C3044 H3014 0.950 . S
C3044 C3043 1.524 . S
C3044 C3045 1.415 . S
C3045 H3015 0.950 . S
C3045 C3040 1.363 . S
C3045 C3044 1.415 . S
H3046 C3043 0.999 . S
H3047 C3028 0.913 . S
H3048 C3066 0.951 . S
H3049 C3068 0.951 . S
H3050 C3070 0.950 . S
H3051 C3071 0.950 . S
H3052 C3073 0.950 . S
H3053 C3076 0.950 . S
H3054 C3077 0.950 . S
H3055 C3079 0.950 . S
H3056 C3080 0.950 . S
H3057 C3081 0.951 . S
H3058 C3083 0.951 . S
H3059 C3085 0.950 . S
H3060 C3086 0.950 . S
H3061 C3088 0.950 . S
H3062 C3091 0.950 . S
H3063 C3092 0.950 . S
H3064 C3094 0.950 . S
H3065 C3095 0.950 . S
C3066 H3048 0.951 . S
C3066 C3067 1.366 . S
C3066 C3068 1.388 . S
C3067 C3066 1.366 . S
C3067 C3071 1.385 . S
C3068 H3049 0.951 . S
C3068 C3066 1.388 . S
C3068 C3069 1.366 . S
C3069 C3068 1.366 . S
C3069 C3070 1.414 . S
C3069 C3072 1.499 . S
C3070 H3050 0.950 . S
C3070 C3069 1.414 . S
C3070 C3071 1.374 . S
C3071 H3051 0.950 . S
C3071 C3067 1.385 . S
C3071 C3070 1.374 . S
C3072 C3069 1.499 . S
C3072 C3073 1.373 . S
C3072 C3074 1.389 . S
C3073 H3052 0.950 . S
C3073 C3072 1.373 . S
C3073 C3089 1.377 . S
C3074 C3072 1.389 . S
C3074 C3075 1.524 . S
C3074 C3088 1.377 . S
C3075 C3074 1.524 . S
C3075 C3076 1.397 . S
C3075 C3080 1.363 . S
C3076 H3053 0.950 . S
C3076 C3075 1.397 . S
C3076 C3077 1.334 . S
C3077 H3054 0.950 . S
C3077 C3076 1.334 . S
C3077 C3078 1.287 . S
C3078 C3077 1.287 . S
C3078 C3079 1.524 . S
C3078 H3097 0.913 . S
C3079 H3055 0.950 . S
C3079 C3078 1.524 . S
C3079 C3080 1.415 . S
C3080 H3056 0.950 . S
C3080 C3075 1.363 . S
C3080 C3079 1.415 . S
C3081 H3057 0.951 . S
C3081 C3082 1.366 . S
C3081 C3083 1.388 . S
C3082 C3081 1.366 . S
C3082 C3086 1.385 1_565 S
C3083 H3058 0.951 . S
C3083 C3081 1.388 . S
C3083 C3084 1.366 . S
C3084 C3083 1.366 . S
C3084 C3085 1.414 . S
C3084 C3087 1.499 . S
C3085 H3059 0.950 . S
C3085 C3084 1.414 . S
C3085 C3086 1.374 1_565 S
C3086 H3060 0.950 . S
C3086 C3082 1.385 1_545 S
C3086 C3085 1.374 1_545 S
C3087 C3084 1.499 . S
C3087 C3088 1.373 . S
C3087 C3089 1.389 . S
C3088 H3061 0.950 . S
C3088 C3074 1.377 . S
C3088 C3087 1.373 . S
C3089 C3073 1.377 . S
C3089 C3087 1.389 . S
C3089 C3090 1.524 . S
C3090 C3089 1.524 . S
C3090 C3091 1.397 . S
C3090 C3095 1.363 . S
C3091 H3062 0.950 . S
C3091 C3090 1.397 . S
C3091 C3092 1.334 . S
C3092 H3063 0.950 . S
C3092 C3091 1.334 . S
C3092 C3093 1.287 . S
C3093 C3092 1.287 . S
C3093 C3094 1.524 . S
C3093 H3096 0.999 . S
C3094 H3064 0.950 . S
C3094 C3093 1.524 . S
C3094 C3095 1.415 . S
C3095 H3065 0.950 . S
C3095 C3090 1.363 . S
C3095 C3094 1.415 . S
H3096 C3093 0.999 . S
H3097 C3078 0.913 . S
H3098 C3116 0.951 . S
H3099 C3118 0.951 . S
H3100 C3120 0.950 . S
H3101 C3121 0.950 . S
H3102 C3123 0.950 . S
H3103 C3126 0.950 . S
H3104 C3127 0.950 . S
H3105 C3129 0.950 . S
H3106 C3130 0.950 . S
H3107 C3131 0.951 . S
H3108 C3133 0.951 . S
H3109 C3135 0.950 . S
H3110 C3136 0.950 . S
H3111 C3138 0.950 . S
H3112 C3141 0.950 . S
H3113 C3142 0.950 . S
H3114 C3144 0.950 . S
H3115 C3145 0.950 . S
C3116 H3098 0.951 . S
C3116 C3117 1.366 1_545 S
C3116 C3118 1.388 1_545 S
C3117 C3116 1.366 1_565 S
C3117 C3121 1.385 . S
C3118 H3099 0.951 . S
C3118 C3116 1.388 1_565 S
C3118 C3119 1.366 . S
C3119 C3118 1.366 . S
C3119 C3120 1.414 . S
C3119 C3122 1.499 . S
C3120 H3100 0.950 . S
C3120 C3119 1.414 . S
C3120 C3121 1.374 . S
C3121 H3101 0.950 . S
C3121 C3117 1.385 . S
C3121 C3120 1.374 . S
C3122 C3119 1.499 . S
C3122 C3123 1.373 . S
C3122 C3124 1.389 . S
C3123 H3102 0.950 . S
C3123 C3122 1.373 . S
C3123 C3139 1.377 . S
C3124 C3122 1.389 . S
C3124 C3125 1.524 . S
C3124 C3138 1.377 . S
C3125 C3124 1.524 . S
C3125 C3126 1.397 . S
C3125 C3130 1.363 . S
C3126 H3103 0.950 . S
C3126 C3125 1.397 . S
C3126 C3127 1.334 . S
C3127 H3104 0.950 . S
C3127 C3126 1.334 . S
C3127 C3128 1.287 . S
C3128 C3127 1.287 . S
C3128 C3129 1.524 . S
C3128 H3147 0.913 . S
C3129 H3105 0.950 . S
C3129 C3128 1.524 . S
C3129 C3130 1.415 . S
C3130 H3106 0.950 . S
C3130 C3125 1.363 . S
C3130 C3129 1.415 . S
C3131 H3107 0.951 . S
C3131 C3132 1.366 . S
C3131 C3133 1.388 . S
C3132 C3131 1.366 . S
C3132 C3136 1.385 . S
C3133 H3108 0.951 . S
C3133 C3131 1.388 . S
C3133 C3134 1.366 . S
C3134 C3133 1.366 . S
C3134 C3135 1.414 . S
C3134 C3137 1.499 . S
C3135 H3109 0.950 . S
C3135 C3134 1.414 . S
C3135 C3136 1.374 . S
C3136 H3110 0.950 . S
C3136 C3132 1.385 . S
C3136 C3135 1.374 . S
C3137 C3134 1.499 . S
C3137 C3138 1.373 . S
C3137 C3139 1.389 . S
C3138 H3111 0.950 . S
C3138 C3124 1.377 . S
C3138 C3137 1.373 . S
C3139 C3123 1.377 . S
C3139 C3137 1.389 . S
C3139 C3140 1.524 . S
C3140 C3139 1.524 . S
C3140 C3141 1.397 . S
C3140 C3145 1.363 . S
C3141 H3112 0.950 . S
C3141 C3140 1.397 . S
C3141 C3142 1.334 . S
C3142 H3113 0.950 . S
C3142 C3141 1.334 . S
C3142 C3143 1.287 . S
C3143 C3142 1.287 . S
C3143 C3144 1.524 . S
C3143 H3146 0.999 . S
C3144 H3114 0.950 . S
C3144 C3143 1.524 . S
C3144 C3145 1.415 . S
C3145 H3115 0.950 . S
C3145 C3140 1.363 . S
C3145 C3144 1.415 . S
H3146 C3143 0.999 . S
H3147 C3128 0.913 . S
H3148 C3166 0.951 . S
H3149 C3168 0.951 . S
H3150 C3170 0.950 . S
H3151 C3171 0.950 . S
H3152 C3173 0.950 . S
H3153 C3176 0.950 . S
H3154 C3177 0.950 . S
H3155 C3179 0.950 . S
H3156 C3180 0.950 . S
H3157 C3181 0.951 . S
H3158 C3183 0.951 . S
H3159 C3185 0.950 . S
H3160 C3186 0.950 1_565 S
H3161 C3188 0.950 . S
H3162 C3191 0.950 . S
H3163 C3192 0.950 . S
H3164 C3194 0.950 . S
H3165 C3195 0.950 . S
C3166 H3148 0.951 . S
C3166 C3167 1.366 . S
C3166 C3168 1.388 . S
C3167 C3166 1.366 . S
C3167 C3171 1.385 . S
C3168 H3149 0.951 . S
C3168 C3166 1.388 . S
C3168 C3169 1.366 . S
C3169 C3168 1.366 . S
C3169 C3170 1.414 . S
C3169 C3172 1.499 . S
C3170 H3150 0.950 . S
C3170 C3169 1.414 . S
C3170 C3171 1.374 . S
C3171 H3151 0.950 . S
C3171 C3167 1.385 . S
C3171 C3170 1.374 . S
C3172 C3169 1.499 . S
C3172 C3173 1.373 . S
C3172 C3174 1.389 . S
C3173 H3152 0.950 . S
C3173 C3172 1.373 . S
C3173 C3189 1.377 . S
C3174 C3172 1.389 . S
C3174 C3175 1.524 . S
C3174 C3188 1.377 . S
C3175 C3174 1.524 . S
C3175 C3176 1.397 . S
C3175 C3180 1.363 . S
C3176 H3153 0.950 . S
C3176 C3175 1.397 . S
C3176 C3177 1.334 . S
C3177 H3154 0.950 . S
C3177 C3176 1.334 . S
C3177 C3178 1.287 . S
C3178 C3177 1.287 . S
C3178 C3179 1.524 . S
C3178 H3197 0.913 . S
C3179 H3155 0.950 . S
C3179 C3178 1.524 . S
C3179 C3180 1.415 . S
C3180 H3156 0.950 . S
C3180 C3175 1.363 . S
C3180 C3179 1.415 . S
C3181 H3157 0.951 . S
C3181 C3182 1.366 . S
C3181 C3183 1.388 . S
C3182 C3181 1.366 . S
C3182 C3186 1.385 . S
C3183 H3158 0.951 . S
C3183 C3181 1.388 . S
C3183 C3184 1.366 . S
C3184 C3183 1.366 . S
C3184 C3185 1.414 . S
C3184 C3187 1.499 . S
C3185 H3159 0.950 . S
C3185 C3184 1.414 . S
C3185 C3186 1.374 . S
C3186 H3160 0.950 1_545 S
C3186 C3182 1.385 . S
C3186 C3185 1.374 . S
C3187 C3184 1.499 . S
C3187 C3188 1.373 . S
C3187 C3189 1.389 . S
C3188 H3161 0.950 . S
C3188 C3174 1.377 . S
C3188 C3187 1.373 . S
C3189 C3173 1.377 . S
C3189 C3187 1.389 . S
C3189 C3190 1.524 . S
C3190 C3189 1.524 . S
C3190 C3191 1.397 . S
C3190 C3195 1.363 . S
C3191 H3162 0.950 . S
C3191 C3190 1.397 . S
C3191 C3192 1.334 . S
C3192 H3163 0.950 . S
C3192 C3191 1.334 . S
C3192 C3193 1.287 . S
C3193 C3192 1.287 . S
C3193 C3194 1.524 . S
C3193 H3196 0.999 . S
C3194 H3164 0.950 . S
C3194 C3193 1.524 . S
C3194 C3195 1.415 . S
C3195 H3165 0.950 . S
C3195 C3190 1.363 . S
C3195 C3194 1.415 . S
H3196 C3193 0.999 . S
H3197 C3178 0.913 . S
H3198 C3216 0.951 . S
H3199 C3218 0.951 . S
H3200 C3220 0.950 . S
H3201 C3221 0.950 . S
H3202 C3223 0.950 . S
H3203 C3226 0.950 . S
H3204 C3227 0.950 . S
H3205 C3229 0.950 . S
H3206 C3230 0.950 . S
H3207 C3231 0.951 . S
H3208 C3233 0.951 . S
H3209 C3235 0.950 . S
H3210 C3236 0.950 . S
H3211 C3238 0.950 . S
H3212 C3241 0.950 . S
H3213 C3242 0.950 . S
H3214 C3244 0.950 . S
H3215 C3245 0.950 . S
C3216 H3198 0.951 . S
C3216 C3217 1.366 1_565 S
C3216 C3218 1.388 1_565 S
C3217 C3216 1.366 1_545 S
C3217 C3221 1.385 . S
C3218 H3199 0.951 . S
C3218 C3216 1.388 1_545 S
C3218 C3219 1.366 . S
C3219 C3218 1.366 . S
C3219 C3220 1.414 . S
C3219 C3222 1.499 . S
C3220 H3200 0.950 . S
C3220 C3219 1.414 . S
C3220 C3221 1.374 . S
C3221 H3201 0.950 . S
C3221 C3217 1.385 . S
C3221 C3220 1.374 . S
C3222 C3219 1.499 . S
C3222 C3223 1.373 . S
C3222 C3224 1.389 . S
C3223 H3202 0.950 . S
C3223 C3222 1.373 . S
C3223 C3239 1.377 . S
C3224 C3222 1.389 . S
C3224 C3225 1.524 . S
C3224 C3238 1.377 . S
C3225 C3224 1.524 . S
C3225 C3226 1.397 . S
C3225 C3230 1.363 . S
C3226 H3203 0.950 . S
C3226 C3225 1.397 . S
C3226 C3227 1.334 . S
C3227 H3204 0.950 . S
C3227 C3226 1.334 . S
C3227 C3228 1.287 . S
C3228 C3227 1.287 . S
C3228 C3229 1.524 . S
C3228 H3247 0.913 . S
C3229 H3205 0.950 . S
C3229 C3228 1.524 . S
C3229 C3230 1.415 . S
C3230 H3206 0.950 . S
C3230 C3225 1.363 . S
C3230 C3229 1.415 . S
C3231 H3207 0.951 . S
C3231 C3232 1.366 . S
C3231 C3233 1.388 . S
C3232 C3231 1.366 . S
C3232 C3236 1.385 . S
C3233 H3208 0.951 . S
C3233 C3231 1.388 . S
C3233 C3234 1.366 . S
C3234 C3233 1.366 . S
C3234 C3235 1.414 . S
C3234 C3237 1.499 . S
C3235 H3209 0.950 . S
C3235 C3234 1.414 . S
C3235 C3236 1.374 . S
C3236 H3210 0.950 . S
C3236 C3232 1.385 . S
C3236 C3235 1.374 . S
C3237 C3234 1.499 . S
C3237 C3238 1.373 . S
C3237 C3239 1.389 . S
C3238 H3211 0.950 . S
C3238 C3224 1.377 . S
C3238 C3237 1.373 . S
C3239 C3223 1.377 . S
C3239 C3237 1.389 . S
C3239 C3240 1.524 . S
C3240 C3239 1.524 . S
C3240 C3241 1.397 . S
C3240 C3245 1.363 . S
C3241 H3212 0.950 . S
C3241 C3240 1.397 . S
C3241 C3242 1.334 . S
C3242 H3213 0.950 . S
C3242 C3241 1.334 . S
C3242 C3243 1.287 . S
C3243 C3242 1.287 . S
C3243 C3244 1.524 . S
C3243 H3246 0.999 . S
C3244 H3214 0.950 . S
C3244 C3243 1.524 . S
C3244 C3245 1.415 . S
C3245 H3215 0.950 . S
C3245 C3240 1.363 . S
C3245 C3244 1.415 . S
H3246 C3243 0.999 . S
H3247 C3228 0.913 . S
H3248 C3266 0.951 . S
H3249 C3268 0.951 . S
H3250 C3270 0.950 . S
H3251 C3271 0.950 . S
H3252 C3273 0.950 . S
H3253 C3276 0.950 . S
H3254 C3277 0.950 . S
H3255 C3279 0.950 . S
H3256 C3280 0.950 . S
H3257 C3281 0.951 . S
H3258 C3283 0.951 . S
H3259 C3285 0.950 . S
H3260 C3286 0.950 . S
H3261 C3288 0.950 . S
H3262 C3291 0.950 . S
H3263 C3292 0.950 . S
H3264 C3294 0.950 . S
H3265 C3295 0.950 . S
C3266 H3248 0.951 . S
C3266 C3267 1.366 . S
C3266 C3268 1.388 . S
C3267 C3266 1.366 . S
C3267 C3271 1.385 . S
C3268 H3249 0.951 . S
C3268 C3266 1.388 . S
C3268 C3269 1.366 . S
C3269 C3268 1.366 . S
C3269 C3270 1.414 . S
C3269 C3272 1.499 . S
C3270 H3250 0.950 . S
C3270 C3269 1.414 . S
C3270 C3271 1.374 . S
C3271 H3251 0.950 . S
C3271 C3267 1.385 . S
C3271 C3270 1.374 . S
C3272 C3269 1.499 . S
C3272 C3273 1.373 . S
C3272 C3274 1.389 . S
C3273 H3252 0.950 . S
C3273 C3272 1.373 . S
C3273 C3289 1.377 . S
C3274 C3272 1.389 . S
C3274 C3275 1.524 . S
C3274 C3288 1.377 . S
C3275 C3274 1.524 . S
C3275 C3276 1.397 . S
C3275 C3280 1.363 . S
C3276 H3253 0.950 . S
C3276 C3275 1.397 . S
C3276 C3277 1.334 . S
C3277 H3254 0.950 . S
C3277 C3276 1.334 . S
C3277 C3278 1.287 . S
C3278 C3277 1.287 . S
C3278 C3279 1.524 . S
C3278 H3297 0.913 . S
C3279 H3255 0.950 . S
C3279 C3278 1.524 . S
C3279 C3280 1.415 . S
C3280 H3256 0.950 . S
C3280 C3275 1.363 . S
C3280 C3279 1.415 . S
C3281 H3257 0.951 . S
C3281 C3282 1.366 . S
C3281 C3283 1.388 . S
C3282 C3281 1.366 . S
C3282 C3286 1.385 . S
C3283 H3258 0.951 . S
C3283 C3281 1.388 . S
C3283 C3284 1.366 . S
C3284 C3283 1.366 . S
C3284 C3285 1.414 . S
C3284 C3287 1.499 . S
C3285 H3259 0.950 . S
C3285 C3284 1.414 . S
C3285 C3286 1.374 . S
C3286 H3260 0.950 . S
C3286 C3282 1.385 . S
C3286 C3285 1.374 . S
C3287 C3284 1.499 . S
C3287 C3288 1.373 . S
C3287 C3289 1.389 . S
C3288 H3261 0.950 . S
C3288 C3274 1.377 . S
C3288 C3287 1.373 . S
C3289 C3273 1.377 . S
C3289 C3287 1.389 . S
C3289 C3290 1.524 . S
C3290 C3289 1.524 . S
C3290 C3291 1.397 . S
C3290 C3295 1.363 . S
C3291 H3262 0.950 . S
C3291 C3290 1.397 . S
C3291 C3292 1.334 . S
C3292 H3263 0.950 . S
C3292 C3291 1.334 . S
C3292 C3293 1.287 . S
C3293 C3292 1.287 . S
C3293 C3294 1.524 . S
C3293 H3296 0.999 . S
C3294 H3264 0.950 . S
C3294 C3293 1.524 . S
C3294 C3295 1.415 . S
C3295 H3265 0.950 . S
C3295 C3290 1.363 . S
C3295 C3294 1.415 . S
H3296 C3293 0.999 . S
H3297 C3278 0.913 . S
H3298 C3316 0.951 . S
H3299 C3318 0.951 . S
H3300 C3320 0.950 . S
H3301 C3321 0.950 . S
H3302 C3323 0.950 . S
H3303 C3326 0.950 . S
H3304 C3327 0.950 . S
H3305 C3329 0.950 . S
H3306 C3330 0.950 . S
H3307 C3331 0.951 . S
H3308 C3333 0.951 . S
H3309 C3335 0.950 . S
H3310 C3336 0.950 . S
H3311 C3338 0.950 . S
H3312 C3341 0.950 . S
H3313 C3342 0.950 . S
H3314 C3344 0.950 . S
H3315 C3345 0.950 . S
C3316 H3298 0.951 . S
C3316 C3317 1.366 . S
C3316 C3318 1.388 . S
C3317 C3316 1.366 . S
C3317 C3321 1.385 . S
C3318 H3299 0.951 . S
C3318 C3316 1.388 . S
C3318 C3319 1.366 . S
C3319 C3318 1.366 . S
C3319 C3320 1.414 . S
C3319 C3322 1.499 . S
C3320 H3300 0.950 . S
C3320 C3319 1.414 . S
C3320 C3321 1.374 . S
C3321 H3301 0.950 . S
C3321 C3317 1.385 . S
C3321 C3320 1.374 . S
C3322 C3319 1.499 . S
C3322 C3323 1.373 . S
C3322 C3324 1.389 . S
C3323 H3302 0.950 . S
C3323 C3322 1.373 . S
C3323 C3339 1.377 . S
C3324 C3322 1.389 . S
C3324 C3325 1.524 . S
C3324 C3338 1.377 . S
C3325 C3324 1.524 . S
C3325 C3326 1.397 . S
C3325 C3330 1.363 . S
C3326 H3303 0.950 . S
C3326 C3325 1.397 . S
C3326 C3327 1.334 . S
C3327 H3304 0.950 . S
C3327 C3326 1.334 . S
C3327 C3328 1.287 . S
C3328 C3327 1.287 . S
C3328 C3329 1.524 . S
C3328 H3347 0.913 . S
C3329 H3305 0.950 . S
C3329 C3328 1.524 . S
C3329 C3330 1.415 . S
C3330 H3306 0.950 . S
C3330 C3325 1.363 . S
C3330 C3329 1.415 . S
C3331 H3307 0.951 . S
C3331 C3332 1.366 . S
C3331 C3333 1.388 . S
C3332 C3331 1.366 . S
C3332 C3336 1.385 . S
C3333 H3308 0.951 . S
C3333 C3331 1.388 . S
C3333 C3334 1.366 . S
C3334 C3333 1.366 . S
C3334 C3335 1.414 . S
C3334 C3337 1.499 . S
C3335 H3309 0.950 . S
C3335 C3334 1.414 . S
C3335 C3336 1.374 . S
C3336 H3310 0.950 . S
C3336 C3332 1.385 . S
C3336 C3335 1.374 . S
C3337 C3334 1.499 . S
C3337 C3338 1.373 . S
C3337 C3339 1.389 . S
C3338 H3311 0.950 . S
C3338 C3324 1.377 . S
C3338 C3337 1.373 . S
C3339 C3323 1.377 . S
C3339 C3337 1.389 . S
C3339 C3340 1.524 . S
C3340 C3339 1.524 . S
C3340 C3341 1.397 . S
C3340 C3345 1.363 . S
C3341 H3312 0.950 . S
C3341 C3340 1.397 . S
C3341 C3342 1.334 . S
C3342 H3313 0.950 . S
C3342 C3341 1.334 . S
C3342 C3343 1.287 . S
C3343 C3342 1.287 . S
C3343 C3344 1.524 . S
C3343 H3346 0.999 . S
C3344 H3314 0.950 . S
C3344 C3343 1.524 . S
C3344 C3345 1.415 . S
C3345 H3315 0.950 . S
C3345 C3340 1.363 . S
C3345 C3344 1.415 . S
H3346 C3343 0.999 . S
H3347 C3328 0.913 . S
H3348 C3366 0.951 . S
H3349 C3368 0.951 . S
H3350 C3370 0.950 . S
H3351 C3371 0.950 . S
H3352 C3373 0.950 . S
H3353 C3376 0.950 . S
H3354 C3377 0.950 . S
H3355 C3379 0.950 . S
H3356 C3380 0.950 . S
H3357 C3381 0.951 . S
H3358 C3383 0.951 . S
H3359 C3385 0.950 . S
H3360 C3386 0.950 . S
H3361 C3388 0.950 . S
H3362 C3391 0.950 . S
H3363 C3392 0.950 . S
H3364 C3394 0.950 . S
H3365 C3395 0.950 . S
C3366 H3348 0.951 . S
C3366 C3367 1.366 . S
C3366 C3368 1.388 . S
C3367 C3366 1.366 . S
C3367 C3371 1.385 . S
C3368 H3349 0.951 . S
C3368 C3366 1.388 . S
C3368 C3369 1.366 . S
C3369 C3368 1.366 . S
C3369 C3370 1.414 . S
C3369 C3372 1.499 . S
C3370 H3350 0.950 . S
C3370 C3369 1.414 . S
C3370 C3371 1.374 . S
C3371 H3351 0.950 . S
C3371 C3367 1.385 . S
C3371 C3370 1.374 . S
C3372 C3369 1.499 . S
C3372 C3373 1.373 . S
C3372 C3374 1.389 . S
C3373 H3352 0.950 . S
C3373 C3372 1.373 . S
C3373 C3389 1.377 . S
C3374 C3372 1.389 . S
C3374 C3375 1.524 . S
C3374 C3388 1.377 . S
C3375 C3374 1.524 . S
C3375 C3376 1.397 . S
C3375 C3380 1.363 . S
C3376 H3353 0.950 . S
C3376 C3375 1.397 . S
C3376 C3377 1.334 . S
C3377 H3354 0.950 . S
C3377 C3376 1.334 . S
C3377 C3378 1.287 . S
C3378 C3377 1.287 . S
C3378 C3379 1.524 . S
C3378 H3397 0.913 . S
C3379 H3355 0.950 . S
C3379 C3378 1.524 . S
C3379 C3380 1.415 . S
C3380 H3356 0.950 . S
C3380 C3375 1.363 . S
C3380 C3379 1.415 . S
C3381 H3357 0.951 . S
C3381 C3382 1.366 . S
C3381 C3383 1.388 . S
C3382 C3381 1.366 . S
C3382 C3386 1.385 . S
C3383 H3358 0.951 . S
C3383 C3381 1.388 . S
C3383 C3384 1.366 . S
C3384 C3383 1.366 . S
C3384 C3385 1.414 . S
C3384 C3387 1.499 . S
C3385 H3359 0.950 . S
C3385 C3384 1.414 . S
C3385 C3386 1.374 . S
C3386 H3360 0.950 . S
C3386 C3382 1.385 . S
C3386 C3385 1.374 . S
C3387 C3384 1.499 . S
C3387 C3388 1.373 . S
C3387 C3389 1.389 . S
C3388 H3361 0.950 . S
C3388 C3374 1.377 . S
C3388 C3387 1.373 . S
C3389 C3373 1.377 . S
C3389 C3387 1.389 . S
C3389 C3390 1.524 . S
C3390 C3389 1.524 . S
C3390 C3391 1.397 . S
C3390 C3395 1.363 . S
C3391 H3362 0.950 . S
C3391 C3390 1.397 . S
C3391 C3392 1.334 . S
C3392 H3363 0.950 . S
C3392 C3391 1.334 . S
C3392 C3393 1.287 . S
C3393 C3392 1.287 . S
C3393 C3394 1.524 . S
C3393 H3396 0.999 . S
C3394 H3364 0.950 . S
C3394 C3393 1.524 . S
C3394 C3395 1.415 . S
C3395 H3365 0.950 . S
C3395 C3390 1.363 . S
C3395 C3394 1.415 . S
H3396 C3393 0.999 . S
H3397 C3378 0.913 . S
H3398 C3416 0.951 . S
H3399 C3418 0.951 . S
H3400 C3420 0.950 . S
H3401 C3421 0.950 . S
H3402 C3423 0.950 . S
H3403 C3426 0.950 . S
H3404 C3427 0.950 . S
H3405 C3429 0.950 . S
H3406 C3430 0.950 . S
H3407 C3431 0.951 . S
H3408 C3433 0.951 . S
H3409 C3435 0.950 . S
H3410 C3436 0.950 . S
H3411 C3438 0.950 . S
H3412 C3441 0.950 . S
H3413 C3442 0.950 . S
H3414 C3444 0.950 . S
H3415 C3445 0.950 . S
C3416 H3398 0.951 . S
C3416 C3417 1.366 . S
C3416 C3418 1.388 . S
C3417 C3416 1.366 . S
C3417 C3421 1.385 . S
C3418 H3399 0.951 . S
C3418 C3416 1.388 . S
C3418 C3419 1.366 . S
C3419 C3418 1.366 . S
C3419 C3420 1.414 . S
C3419 C3422 1.499 . S
C3420 H3400 0.950 . S
C3420 C3419 1.414 . S
C3420 C3421 1.374 . S
C3421 H3401 0.950 . S
C3421 C3417 1.385 . S
C3421 C3420 1.374 . S
C3422 C3419 1.499 . S
C3422 C3423 1.373 . S
C3422 C3424 1.389 . S
C3423 H3402 0.950 . S
C3423 C3422 1.373 . S
C3423 C3439 1.377 . S
C3424 C3422 1.389 . S
C3424 C3425 1.524 . S
C3424 C3438 1.377 . S
C3425 C3424 1.524 . S
C3425 C3426 1.397 . S
C3425 C3430 1.363 . S
C3426 H3403 0.950 . S
C3426 C3425 1.397 . S
C3426 C3427 1.334 . S
C3427 H3404 0.950 . S
C3427 C3426 1.334 . S
C3427 C3428 1.287 . S
C3428 C3427 1.287 . S
C3428 C3429 1.524 . S
C3428 H3447 0.913 . S
C3429 H3405 0.950 . S
C3429 C3428 1.524 . S
C3429 C3430 1.415 . S
C3430 H3406 0.950 . S
C3430 C3425 1.363 . S
C3430 C3429 1.415 . S
C3431 H3407 0.951 . S
C3431 C3432 1.366 . S
C3431 C3433 1.388 . S
C3432 C3431 1.366 . S
C3432 C3436 1.385 . S
C3433 H3408 0.951 . S
C3433 C3431 1.388 . S
C3433 C3434 1.366 . S
C3434 C3433 1.366 . S
C3434 C3435 1.414 . S
C3434 C3437 1.499 . S
C3435 H3409 0.950 . S
C3435 C3434 1.414 . S
C3435 C3436 1.374 . S
C3436 H3410 0.950 . S
C3436 C3432 1.385 . S
C3436 C3435 1.374 . S
C3437 C3434 1.499 . S
C3437 C3438 1.373 . S
C3437 C3439 1.389 . S
C3438 H3411 0.950 . S
C3438 C3424 1.377 . S
C3438 C3437 1.373 . S
C3439 C3423 1.377 . S
C3439 C3437 1.389 . S
C3439 C3440 1.524 . S
C3440 C3439 1.524 . S
C3440 C3441 1.397 . S
C3440 C3445 1.363 . S
C3441 H3412 0.950 . S
C3441 C3440 1.397 . S
C3441 C3442 1.334 . S
C3442 H3413 0.950 . S
C3442 C3441 1.334 . S
C3442 C3443 1.287 . S
C3443 C3442 1.287 . S
C3443 C3444 1.524 . S
C3443 H3446 0.999 . S
C3444 H3414 0.950 . S
C3444 C3443 1.524 . S
C3444 C3445 1.415 . S
C3445 H3415 0.950 . S
C3445 C3440 1.363 . S
C3445 C3444 1.415 . S
H3446 C3443 0.999 . S
H3447 C3428 0.913 . S
H3448 C3466 0.951 . S
H3449 C3468 0.951 . S
H3450 C3470 0.950 . S
H3451 C3471 0.950 . S
H3452 C3473 0.950 . S
H3453 C3476 0.950 . S
H3454 C3477 0.950 . S
H3455 C3479 0.950 . S
H3456 C3480 0.950 . S
H3457 C3481 0.951 . S
H3458 C3483 0.951 . S
H3459 C3485 0.950 . S
H3460 C3486 0.950 . S
H3461 C3488 0.950 . S
H3462 C3491 0.950 . S
H3463 C3492 0.950 . S
H3464 C3494 0.950 . S
H3465 C3495 0.950 . S
C3466 H3448 0.951 . S
C3466 C3467 1.366 . S
C3466 C3468 1.388 . S
C3467 C3466 1.366 . S
C3467 C3471 1.385 . S
C3468 H3449 0.951 . S
C3468 C3466 1.388 . S
C3468 C3469 1.366 . S
C3469 C3468 1.366 . S
C3469 C3470 1.414 . S
C3469 C3472 1.499 . S
C3470 H3450 0.950 . S
C3470 C3469 1.414 . S
C3470 C3471 1.374 . S
C3471 H3451 0.950 . S
C3471 C3467 1.385 . S
C3471 C3470 1.374 . S
C3472 C3469 1.499 . S
C3472 C3473 1.373 . S
C3472 C3474 1.389 . S
C3473 H3452 0.950 . S
C3473 C3472 1.373 . S
C3473 C3489 1.377 . S
C3474 C3472 1.389 . S
C3474 C3475 1.524 . S
C3474 C3488 1.377 . S
C3475 C3474 1.524 . S
C3475 C3476 1.397 . S
C3475 C3480 1.363 . S
C3476 H3453 0.950 . S
C3476 C3475 1.397 . S
C3476 C3477 1.334 . S
C3477 H3454 0.950 . S
C3477 C3476 1.334 . S
C3477 C3478 1.287 . S
C3478 C3477 1.287 . S
C3478 C3479 1.524 . S
C3478 H3497 0.913 . S
C3479 H3455 0.950 . S
C3479 C3478 1.524 . S
C3479 C3480 1.415 . S
C3480 H3456 0.950 . S
C3480 C3475 1.363 . S
C3480 C3479 1.415 . S
C3481 H3457 0.951 . S
C3481 C3482 1.366 . S
C3481 C3483 1.388 . S
C3482 C3481 1.366 . S
C3482 C3486 1.385 . S
C3483 H3458 0.951 . S
C3483 C3481 1.388 . S
C3483 C3484 1.366 . S
C3484 C3483 1.366 . S
C3484 C3485 1.414 . S
C3484 C3487 1.499 . S
C3485 H3459 0.950 . S
C3485 C3484 1.414 . S
C3485 C3486 1.374 . S
C3486 H3460 0.950 . S
C3486 C3482 1.385 . S
C3486 C3485 1.374 . S
C3487 C3484 1.499 . S
C3487 C3488 1.373 . S
C3487 C3489 1.389 . S
C3488 H3461 0.950 . S
C3488 C3474 1.377 . S
C3488 C3487 1.373 . S
C3489 C3473 1.377 . S
C3489 C3487 1.389 . S
C3489 C3490 1.524 . S
C3490 C3489 1.524 . S
C3490 C3491 1.397 . S
C3490 C3495 1.363 . S
C3491 H3462 0.950 . S
C3491 C3490 1.397 . S
C3491 C3492 1.334 . S
C3492 H3463 0.950 . S
C3492 C3491 1.334 . S
C3492 C3493 1.287 . S
C3493 C3492 1.287 . S
C3493 C3494 1.524 . S
C3493 H3496 0.999 . S
C3494 H3464 0.950 . S
C3494 C3493 1.524 . S
C3494 C3495 1.415 . S
C3495 H3465 0.950 . S
C3495 C3490 1.363 . S
C3495 C3494 1.415 . S
H3496 C3493 0.999 . S
H3497 C3478 0.913 . S
H3498 C3516 0.951 . S
H3499 C3518 0.951 . S
H3500 C3520 0.950 . S
H3501 C3521 0.950 . S
H3502 C3523 0.950 . S
H3503 C3526 0.950 . S
H3504 C3527 0.950 . S
H3505 C3529 0.950 . S
H3506 C3530 0.950 . S
H3507 C3531 0.951 . S
H3508 C3533 0.951 . S
H3509 C3535 0.950 . S
H3510 C3536 0.950 . S
H3511 C3538 0.950 . S
H3512 C3541 0.950 . S
H3513 C3542 0.950 . S
H3514 C3544 0.950 . S
H3515 C3545 0.950 . S
C3516 H3498 0.951 . S
C3516 C3517 1.366 . S
C3516 C3518 1.388 . S
C3517 C3516 1.366 . S
C3517 C3521 1.385 . S
C3518 H3499 0.951 . S
C3518 C3516 1.388 . S
C3518 C3519 1.366 . S
C3519 C3518 1.366 . S
C3519 C3520 1.414 . S
C3519 C3522 1.499 . S
C3520 H3500 0.950 . S
C3520 C3519 1.414 . S
C3520 C3521 1.374 . S
C3521 H3501 0.950 . S
C3521 C3517 1.385 . S
C3521 C3520 1.374 . S
C3522 C3519 1.499 . S
C3522 C3523 1.373 . S
C3522 C3524 1.389 . S
C3523 H3502 0.950 . S
C3523 C3522 1.373 . S
C3523 C3539 1.377 . S
C3524 C3522 1.389 . S
C3524 C3525 1.524 . S
C3524 C3538 1.377 . S
C3525 C3524 1.524 . S
C3525 C3526 1.397 . S
C3525 C3530 1.363 . S
C3526 H3503 0.950 . S
C3526 C3525 1.397 . S
C3526 C3527 1.334 . S
C3527 H3504 0.950 . S
C3527 C3526 1.334 . S
C3527 C3528 1.287 . S
C3528 C3527 1.287 . S
C3528 C3529 1.524 . S
C3528 H3547 0.913 . S
C3529 H3505 0.950 . S
C3529 C3528 1.524 . S
C3529 C3530 1.415 . S
C3530 H3506 0.950 . S
C3530 C3525 1.363 . S
C3530 C3529 1.415 . S
C3531 H3507 0.951 . S
C3531 C3532 1.366 . S
C3531 C3533 1.388 . S
C3532 C3531 1.366 . S
C3532 C3536 1.385 . S
C3533 H3508 0.951 . S
C3533 C3531 1.388 . S
C3533 C3534 1.366 . S
C3534 C3533 1.366 . S
C3534 C3535 1.414 . S
C3534 C3537 1.499 . S
C3535 H3509 0.950 . S
C3535 C3534 1.414 . S
C3535 C3536 1.374 . S
C3536 H3510 0.950 . S
C3536 C3532 1.385 . S
C3536 C3535 1.374 . S
C3537 C3534 1.499 . S
C3537 C3538 1.373 . S
C3537 C3539 1.389 . S
C3538 H3511 0.950 . S
C3538 C3524 1.377 . S
C3538 C3537 1.373 . S
C3539 C3523 1.377 . S
C3539 C3537 1.389 . S
C3539 C3540 1.524 . S
C3540 C3539 1.524 . S
C3540 C3541 1.397 . S
C3540 C3545 1.363 . S
C3541 H3512 0.950 . S
C3541 C3540 1.397 . S
C3541 C3542 1.334 . S
C3542 H3513 0.950 . S
C3542 C3541 1.334 . S
C3542 C3543 1.287 . S
C3543 C3542 1.287 . S
C3543 C3544 1.524 . S
C3543 H3546 0.999 . S
C3544 H3514 0.950 . S
C3544 C3543 1.524 . S
C3544 C3545 1.415 . S
C3545 H3515 0.950 . S
C3545 C3540 1.363 . S
C3545 C3544 1.415 . S
H3546 C3543 0.999 . S
H3547 C3528 0.913 . S
H3548 C3566 0.951 . S
H3549 C3568 0.951 . S
H3550 C3570 0.950 . S
H3551 C3571 0.950 . S
H3552 C3573 0.950 . S
H3553 C3576 0.950 . S
H3554 C3577 0.950 . S
H3555 C3579 0.950 . S
H3556 C3580 0.950 . S
H3557 C3581 0.951 . S
H3558 C3583 0.951 . S
H3559 C3585 0.950 . S
H3560 C3586 0.950 . S
H3561 C3588 0.950 . S
H3562 C3591 0.950 . S
H3563 C3592 0.950 . S
H3564 C3594 0.950 . S
H3565 C3595 0.950 . S
C3566 H3548 0.951 . S
C3566 C3567 1.366 . S
C3566 C3568 1.388 . S
C3567 C3566 1.366 . S
C3567 C3571 1.385 . S
C3568 H3549 0.951 . S
C3568 C3566 1.388 . S
C3568 C3569 1.366 . S
C3569 C3568 1.366 . S
C3569 C3570 1.414 . S
C3569 C3572 1.499 . S
C3570 H3550 0.950 . S
C3570 C3569 1.414 . S
C3570 C3571 1.374 . S
C3571 H3551 0.950 . S
C3571 C3567 1.385 . S
C3571 C3570 1.374 . S
C3572 C3569 1.499 . S
C3572 C3573 1.373 . S
C3572 C3574 1.389 . S
C3573 H3552 0.950 . S
C3573 C3572 1.373 . S
C3573 C3589 1.377 . S
C3574 C3572 1.389 . S
C3574 C3575 1.524 . S
C3574 C3588 1.377 . S
C3575 C3574 1.524 . S
C3575 C3576 1.397 . S
C3575 C3580 1.363 . S
C3576 H3553 0.950 . S
C3576 C3575 1.397 . S
C3576 C3577 1.334 . S
C3577 H3554 0.950 . S
C3577 C3576 1.334 . S
C3577 C3578 1.287 . S
C3578 C3577 1.287 . S
C3578 C3579 1.524 . S
C3578 H3597 0.913 . S
C3579 H3555 0.950 . S
C3579 C3578 1.524 . S
C3579 C3580 1.415 . S
C3580 H3556 0.950 . S
C3580 C3575 1.363 . S
C3580 C3579 1.415 . S
C3581 H3557 0.951 . S
C3581 C3582 1.366 . S
C3581 C3583 1.388 . S
C3582 C3581 1.366 . S
C3582 C3586 1.385 . S
C3583 H3558 0.951 . S
C3583 C3581 1.388 . S
C3583 C3584 1.366 . S
C3584 C3583 1.366 . S
C3584 C3585 1.414 . S
C3584 C3587 1.499 . S
C3585 H3559 0.950 . S
C3585 C3584 1.414 . S
C3585 C3586 1.374 . S
C3586 H3560 0.950 . S
C3586 C3582 1.385 . S
C3586 C3585 1.374 . S
C3587 C3584 1.499 . S
C3587 C3588 1.373 . S
C3587 C3589 1.389 . S
C3588 H3561 0.950 . S
C3588 C3574 1.377 . S
C3588 C3587 1.373 . S
C3589 C3573 1.377 . S
C3589 C3587 1.389 . S
C3589 C3590 1.524 . S
C3590 C3589 1.524 . S
C3590 C3591 1.397 . S
C3590 C3595 1.363 . S
C3591 H3562 0.950 . S
C3591 C3590 1.397 . S
C3591 C3592 1.334 . S
C3592 H3563 0.950 . S
C3592 C3591 1.334 . S
C3592 C3593 1.287 . S
C3593 C3592 1.287 . S
C3593 C3594 1.524 . S
C3593 H3596 0.999 . S
C3594 H3564 0.950 . S
C3594 C3593 1.524 . S
C3594 C3595 1.415 . S
C3595 H3565 0.950 . S
C3595 C3590 1.363 . S
C3595 C3594 1.415 . S
H3596 C3593 0.999 . S
H3597 C3578 0.913 . S
H3598 C3616 0.951 . S
H3599 C3618 0.951 . S
H3600 C3620 0.950 . S
H3601 C3621 0.950 . S
H3602 C3623 0.950 . S
H3603 C3626 0.950 . S
H3604 C3627 0.950 . S
H3605 C3629 0.950 . S
H3606 C3630 0.950 . S
H3607 C3631 0.951 . S
H3608 C3633 0.951 . S
H3609 C3635 0.950 . S
H3610 C3636 0.950 . S
H3611 C3638 0.950 . S
H3612 C3641 0.950 . S
H3613 C3642 0.950 . S
H3614 C3644 0.950 . S
H3615 C3645 0.950 . S
C3616 H3598 0.951 . S
C3616 C3617 1.366 . S
C3616 C3618 1.388 . S
C3617 C3616 1.366 . S
C3617 C3621 1.385 . S
C3618 H3599 0.951 . S
C3618 C3616 1.388 . S
C3618 C3619 1.366 . S
C3619 C3618 1.366 . S
C3619 C3620 1.414 . S
C3619 C3622 1.499 . S
C3620 H3600 0.950 . S
C3620 C3619 1.414 . S
C3620 C3621 1.374 . S
C3621 H3601 0.950 . S
C3621 C3617 1.385 . S
C3621 C3620 1.374 . S
C3622 C3619 1.499 . S
C3622 C3623 1.373 . S
C3622 C3624 1.389 . S
C3623 H3602 0.950 . S
C3623 C3622 1.373 . S
C3623 C3639 1.377 . S
C3624 C3622 1.389 . S
C3624 C3625 1.524 . S
C3624 C3638 1.377 . S
C3625 C3624 1.524 . S
C3625 C3626 1.397 . S
C3625 C3630 1.363 . S
C3626 H3603 0.950 . S
C3626 C3625 1.397 . S
C3626 C3627 1.334 . S
C3627 H3604 0.950 . S
C3627 C3626 1.334 . S
C3627 C3628 1.287 . S
C3628 C3627 1.287 . S
C3628 C3629 1.524 . S
C3628 H3647 0.913 . S
C3629 H3605 0.950 . S
C3629 C3628 1.524 . S
C3629 C3630 1.415 . S
C3630 H3606 0.950 . S
C3630 C3625 1.363 . S
C3630 C3629 1.415 . S
C3631 H3607 0.951 . S
C3631 C3632 1.366 . S
C3631 C3633 1.388 . S
C3632 C3631 1.366 . S
C3632 C3636 1.385 . S
C3633 H3608 0.951 . S
C3633 C3631 1.388 . S
C3633 C3634 1.366 . S
C3634 C3633 1.366 . S
C3634 C3635 1.414 . S
C3634 C3637 1.499 . S
C3635 H3609 0.950 . S
C3635 C3634 1.414 . S
C3635 C3636 1.374 . S
C3636 H3610 0.950 . S
C3636 C3632 1.385 . S
C3636 C3635 1.374 . S
C3637 C3634 1.499 . S
C3637 C3638 1.373 . S
C3637 C3639 1.389 . S
C3638 H3611 0.950 . S
C3638 C3624 1.377 . S
C3638 C3637 1.373 . S
C3639 C3623 1.377 . S
C3639 C3637 1.389 . S
C3639 C3640 1.524 . S
C3640 C3639 1.524 . S
C3640 C3641 1.397 . S
C3640 C3645 1.363 . S
C3641 H3612 0.950 . S
C3641 C3640 1.397 . S
C3641 C3642 1.334 . S
C3642 H3613 0.950 . S
C3642 C3641 1.334 . S
C3642 C3643 1.287 . S
C3643 C3642 1.287 . S
C3643 C3644 1.524 . S
C3643 H3646 0.999 . S
C3644 H3614 0.950 . S
C3644 C3643 1.524 . S
C3644 C3645 1.415 . S
C3645 H3615 0.950 . S
C3645 C3640 1.363 . S
C3645 C3644 1.415 . S
H3646 C3643 0.999 . S
H3647 C3628 0.913 . S
C467 C386 1.544 . S
C482 C9 1.543 . S
C517 C23 1.543 . S
C532 C121 1.544 . S
C567 C358 1.544 . S
C582 C37 1.543 . S
C617 C51 1.543 . S
C632 C149 1.544 . S
C667 C65 1.543 . S
C682 C414 1.544 . S
C717 C79 1.543 . S
C732 C205 1.544 . S
C767 C93 1.543 . S
C782 C442 1.544 . S
C817 C107 1.543 . S
C832 C177 1.544 . S
C867 C274 1.545 . S
C882 C120 1.543 . S
C917 C8 1.544 . S
C932 C135 1.543 . S
C967 C246 1.544 . S
C982 C148 1.543 . S
C1017 C163 1.543 . S
C1032 C36 1.544 . S
C1067 C302 1.545 . S
C1082 C176 1.543 . S
C1117 C92 1.544 . S
C1132 C191 1.543 . S
C1167 C204 1.543 . S
C1182 C330 1.544 . S
C1217 C64 1.544 . S
C1232 C219 1.543 . S
C1267 C233 1.543 . S
C1282 C162 1.545 . S
C1317 C247 1.543 . S
C1332 C345 1.544 . S
C1367 C134 1.544 . S
C1382 C261 1.543 . S
C1417 C373 1.544 . S
C1432 C275 1.543 . S
C1467 C190 1.544 . S
C1482 C289 1.543 . S
C1517 C429 1.545 . S
C1532 C303 1.543 . S
C1567 C218 1.544 . S
C1582 C317 1.543 . S
C1617 C331 1.543 . S
C1632 C401 1.544 . S
C1667 C50 1.544 . S
C1682 C344 1.543 . S
C1717 C359 1.543 . S
C1732 C232 1.544 . S
C1767 C372 1.543 . S
C1782 C22 1.544 . S
C1817 C387 1.543 . S
C1832 C260 1.544 . S
C1867 C400 1.543 . S
C1882 C78 1.545 . S
C1917 C415 1.543 . S
C1932 C316 1.544 . S
C1967 C428 1.543 . S
C1982 C106 1.544 . S
C2017 C443 1.543 . S
C2032 C288 1.544 . S
C2067 C342 1.478 . S
C2082 C7 1.478 . S
C2117 C21 1.478 . S
C2132 C133 1.478 . S
C2167 C370 1.478 . S
C2182 C35 1.478 . S
C2217 C49 1.478 . S
C2232 C161 1.478 . S
C2267 C398 1.477 . S
C2282 C63 1.477 . S
C2317 C77 1.477 . S
C2332 C189 1.477 . S
C2367 C426 1.478 . S
C2382 C91 1.478 . S
C2417 C105 1.478 . S
C2432 C217 1.478 . S
C2467 C118 1.477 . S
C2482 C231 1.477 . S
C2517 C146 1.478 . S
C2532 C259 1.478 . S
C2567 C174 1.477 . S
C2582 C287 1.477 . S
C2617 C202 1.477 . S
C2632 C315 1.477 . S
C2667 C245 1.477 . S
C2682 C357 1.477 . S
C2717 C385 1.477 . S
C2732 C273 1.477 . S
C2767 C413 1.477 . S
C2782 C301 1.477 . S
C2817 C329 1.477 . S
C2832 C441 1.477 . S
C2867 C6 1.410 . S
C2882 C76 1.410 1_545 S
C2917 C20 1.411 1_545 S
C2932 C90 1.411 . S
C2967 C34 1.411 . S
C2982 C104 1.411 1_565 S
C3017 C62 1.410 . S
C3032 C48 1.410 1_565 S
C3067 C119 1.410 . S
C3082 C188 1.410 1_565 S
C3117 C132 1.410 1_565 S
C3132 C203 1.410 . S
C3167 C147 1.410 . S
C3182 C216 1.410 1_545 S
C3217 C160 1.410 1_545 S
C3232 C175 1.410 . S
C3267 C230 1.410 . S
C3282 C300 1.411 . S
C3317 C314 1.410 . S
C3332 C244 1.410 . S
C3367 C258 1.411 . S
C3382 C328 1.411 . S
C3417 C272 1.410 . S
C3432 C286 1.410 . S
C3467 C412 1.411 . S
C3482 C343 1.411 . S
C3517 C356 1.411 . S
C3532 C427 1.411 . S
C3567 C440 1.411 . S
C3582 C371 1.411 . S
C3617 C384 1.410 . S
C3632 C399 1.410 . S
