# Generated by pormake.
# Topology uoh, (4)-cn, num edge types: 1
# Building blocks:
#     Node 0, Type 0, BuildingBlock: CEKHIL_clean_sbu_0, # of connection points: 4
#     Node 1, Type 0, BuildingBlock: CEKHIL_clean_sbu_0, # of connection points: 4
#     Node 2, Type 0, BuildingBlock: CEKHIL_clean_sbu_0, # of connection points: 4
#     Node 3, Type 0, BuildingBlock: CEKHIL_clean_sbu_0, # of connection points: 4
#     Node 4, Type 0, BuildingBlock: CEKHIL_clean_sbu_0, # of connection points: 4
#     Node 5, Type 0, BuildingBlock: CEKHIL_clean_sbu_0, # of connection points: 4
#     Node 6, Type 0, BuildingBlock: CEKHIL_clean_sbu_0, # of connection points: 4
#     Node 7, Type 0, BuildingBlock: CEKHIL_clean_sbu_0, # of connection points: 4
#     Node 8, Type 0, BuildingBlock: CEKHIL_clean_sbu_0, # of connection points: 4
#     Node 9, Type 0, BuildingBlock: CEKHIL_clean_sbu_0, # of connection points: 4
#     Node 10, Type 0, BuildingBlock: CEKHIL_clean_sbu_0, # of connection points: 4
#     Node 11, Type 0, BuildingBlock: CEKHIL_clean_sbu_0, # of connection points: 4
#     Node 12, Type 0, BuildingBlock: CEKHIL_clean_sbu_0, # of connection points: 4
#     Node 13, Type 0, BuildingBlock: CEKHIL_clean_sbu_0, # of connection points: 4
#     Node 14, Type 0, BuildingBlock: CEKHIL_clean_sbu_0, # of connection points: 4
#     Node 15, Type 0, BuildingBlock: CEKHIL_clean_sbu_0, # of connection points: 4
#     Node 16, Type 0, BuildingBlock: CEKHIL_clean_sbu_0, # of connection points: 4
#     Node 17, Type 0, BuildingBlock: CEKHIL_clean_sbu_0, # of connection points: 4
#     Node 18, Type 0, BuildingBlock: CEKHIL_clean_sbu_0, # of connection points: 4
#     Node 19, Type 0, BuildingBlock: CEKHIL_clean_sbu_0, # of connection points: 4
#     Node 20, Type 0, BuildingBlock: CEKHIL_clean_sbu_0, # of connection points: 4
#     Node 21, Type 0, BuildingBlock: CEKHIL_clean_sbu_0, # of connection points: 4
#     Node 22, Type 0, BuildingBlock: CEKHIL_clean_sbu_0, # of connection points: 4
#     Node 23, Type 0, BuildingBlock: CEKHIL_clean_sbu_0, # of connection points: 4
#     Node 24, Type 0, BuildingBlock: CEKHIL_clean_sbu_0, # of connection points: 4
#     Node 25, Type 0, BuildingBlock: CEKHIL_clean_sbu_0, # of connection points: 4
#     Node 26, Type 0, BuildingBlock: CEKHIL_clean_sbu_0, # of connection points: 4
#     Node 27, Type 0, BuildingBlock: CEKHIL_clean_sbu_0, # of connection points: 4
#     Node 28, Type 0, BuildingBlock: CEKHIL_clean_sbu_0, # of connection points: 4
#     Node 29, Type 0, BuildingBlock: CEKHIL_clean_sbu_0, # of connection points: 4
#     Node 30, Type 0, BuildingBlock: CEKHIL_clean_sbu_0, # of connection points: 4
#     Node 31, Type 0, BuildingBlock: CEKHIL_clean_sbu_0, # of connection points: 4
#     Node 32, Type 0, BuildingBlock: CEKHIL_clean_sbu_0, # of connection points: 4
#     Node 33, Type 0, BuildingBlock: CEKHIL_clean_sbu_0, # of connection points: 4
#     Node 34, Type 0, BuildingBlock: CEKHIL_clean_sbu_0, # of connection points: 4
#     Node 35, Type 0, BuildingBlock: CEKHIL_clean_sbu_0, # of connection points: 4
#     Edge 36, Type (0, 0), BuildingBlock: AJUNOK_clean_linker_0, # of connection points: 2
#     Edge 37, Type (0, 0), BuildingBlock: AJUNOK_clean_linker_0, # of connection points: 2
#     Edge 38, Type (0, 0), BuildingBlock: AJUNOK_clean_linker_0, # of connection points: 2
#     Edge 39, Type (0, 0), BuildingBlock: AJUNOK_clean_linker_0, # of connection points: 2
#     Edge 40, Type (0, 0), BuildingBlock: AJUNOK_clean_linker_0, # of connection points: 2
#     Edge 41, Type (0, 0), BuildingBlock: AJUNOK_clean_linker_0, # of connection points: 2
#     Edge 42, Type (0, 0), BuildingBlock: AJUNOK_clean_linker_0, # of connection points: 2
#     Edge 43, Type (0, 0), BuildingBlock: AJUNOK_clean_linker_0, # of connection points: 2
#     Edge 44, Type (0, 0), BuildingBlock: AJUNOK_clean_linker_0, # of connection points: 2
#     Edge 45, Type (0, 0), BuildingBlock: AJUNOK_clean_linker_0, # of connection points: 2
#     Edge 46, Type (0, 0), BuildingBlock: AJUNOK_clean_linker_0, # of connection points: 2
#     Edge 47, Type (0, 0), BuildingBlock: AJUNOK_clean_linker_0, # of connection points: 2
#     Edge 48, Type (0, 0), BuildingBlock: AJUNOK_clean_linker_0, # of connection points: 2
#     Edge 49, Type (0, 0), BuildingBlock: AJUNOK_clean_linker_0, # of connection points: 2
#     Edge 50, Type (0, 0), BuildingBlock: AJUNOK_clean_linker_0, # of connection points: 2
#     Edge 51, Type (0, 0), BuildingBlock: AJUNOK_clean_linker_0, # of connection points: 2
#     Edge 52, Type (0, 0), BuildingBlock: AJUNOK_clean_linker_0, # of connection points: 2
#     Edge 53, Type (0, 0), BuildingBlock: AJUNOK_clean_linker_0, # of connection points: 2
#     Edge 54, Type (0, 0), BuildingBlock: AJUNOK_clean_linker_0, # of connection points: 2
#     Edge 55, Type (0, 0), BuildingBlock: AJUNOK_clean_linker_0, # of connection points: 2
#     Edge 56, Type (0, 0), BuildingBlock: AJUNOK_clean_linker_0, # of connection points: 2
#     Edge 57, Type (0, 0), BuildingBlock: AJUNOK_clean_linker_0, # of connection points: 2
#     Edge 58, Type (0, 0), BuildingBlock: AJUNOK_clean_linker_0, # of connection points: 2
#     Edge 59, Type (0, 0), BuildingBlock: AJUNOK_clean_linker_0, # of connection points: 2
#     Edge 60, Type (0, 0), BuildingBlock: AJUNOK_clean_linker_0, # of connection points: 2
#     Edge 61, Type (0, 0), BuildingBlock: AJUNOK_clean_linker_0, # of connection points: 2
#     Edge 62, Type (0, 0), BuildingBlock: AJUNOK_clean_linker_0, # of connection points: 2
#     Edge 63, Type (0, 0), BuildingBlock: AJUNOK_clean_linker_0, # of connection points: 2
#     Edge 64, Type (0, 0), BuildingBlock: AJUNOK_clean_linker_0, # of connection points: 2
#     Edge 65, Type (0, 0), BuildingBlock: AJUNOK_clean_linker_0, # of connection points: 2
#     Edge 66, Type (0, 0), BuildingBlock: AJUNOK_clean_linker_0, # of connection points: 2
#     Edge 67, Type (0, 0), BuildingBlock: AJUNOK_clean_linker_0, # of connection points: 2
#     Edge 68, Type (0, 0), BuildingBlock: AJUNOK_clean_linker_0, # of connection points: 2
#     Edge 69, Type (0, 0), BuildingBlock: AJUNOK_clean_linker_0, # of connection points: 2
#     Edge 70, Type (0, 0), BuildingBlock: AJUNOK_clean_linker_0, # of connection points: 2
#     Edge 71, Type (0, 0), BuildingBlock: AJUNOK_clean_linker_0, # of connection points: 2
#     Edge 72, Type (0, 0), BuildingBlock: AJUNOK_clean_linker_0, # of connection points: 2
#     Edge 73, Type (0, 0), BuildingBlock: AJUNOK_clean_linker_0, # of connection points: 2
#     Edge 74, Type (0, 0), BuildingBlock: AJUNOK_clean_linker_0, # of connection points: 2
#     Edge 75, Type (0, 0), BuildingBlock: AJUNOK_clean_linker_0, # of connection points: 2
#     Edge 76, Type (0, 0), BuildingBlock: AJUNOK_clean_linker_0, # of connection points: 2
#     Edge 77, Type (0, 0), BuildingBlock: AJUNOK_clean_linker_0, # of connection points: 2
#     Edge 78, Type (0, 0), BuildingBlock: AJUNOK_clean_linker_0, # of connection points: 2
#     Edge 79, Type (0, 0), BuildingBlock: AJUNOK_clean_linker_0, # of connection points: 2
#     Edge 80, Type (0, 0), BuildingBlock: AJUNOK_clean_linker_0, # of connection points: 2
#     Edge 81, Type (0, 0), BuildingBlock: AJUNOK_clean_linker_0, # of connection points: 2
#     Edge 82, Type (0, 0), BuildingBlock: AJUNOK_clean_linker_0, # of connection points: 2
#     Edge 83, Type (0, 0), BuildingBlock: AJUNOK_clean_linker_0, # of connection points: 2
#     Edge 84, Type (0, 0), BuildingBlock: AJUNOK_clean_linker_0, # of connection points: 2
#     Edge 85, Type (0, 0), BuildingBlock: AJUNOK_clean_linker_0, # of connection points: 2
#     Edge 86, Type (0, 0), BuildingBlock: AJUNOK_clean_linker_0, # of connection points: 2
#     Edge 87, Type (0, 0), BuildingBlock: AJUNOK_clean_linker_0, # of connection points: 2
#     Edge 88, Type (0, 0), BuildingBlock: AJUNOK_clean_linker_0, # of connection points: 2
#     Edge 89, Type (0, 0), BuildingBlock: AJUNOK_clean_linker_0, # of connection points: 2
#     Edge 90, Type (0, 0), BuildingBlock: AJUNOK_clean_linker_0, # of connection points: 2
#     Edge 91, Type (0, 0), BuildingBlock: AJUNOK_clean_linker_0, # of connection points: 2
#     Edge 92, Type (0, 0), BuildingBlock: AJUNOK_clean_linker_0, # of connection points: 2
#     Edge 93, Type (0, 0), BuildingBlock: AJUNOK_clean_linker_0, # of connection points: 2
#     Edge 94, Type (0, 0), BuildingBlock: AJUNOK_clean_linker_0, # of connection points: 2
#     Edge 95, Type (0, 0), BuildingBlock: AJUNOK_clean_linker_0, # of connection points: 2
#     Edge 96, Type (0, 0), BuildingBlock: AJUNOK_clean_linker_0, # of connection points: 2
#     Edge 97, Type (0, 0), BuildingBlock: AJUNOK_clean_linker_0, # of connection points: 2
#     Edge 98, Type (0, 0), BuildingBlock: AJUNOK_clean_linker_0, # of connection points: 2
#     Edge 99, Type (0, 0), BuildingBlock: AJUNOK_clean_linker_0, # of connection points: 2
#     Edge 100, Type (0, 0), BuildingBlock: AJUNOK_clean_linker_0, # of connection points: 2
#     Edge 101, Type (0, 0), BuildingBlock: AJUNOK_clean_linker_0, # of connection points: 2
#     Edge 102, Type (0, 0), BuildingBlock: AJUNOK_clean_linker_0, # of connection points: 2
#     Edge 103, Type (0, 0), BuildingBlock: AJUNOK_clean_linker_0, # of connection points: 2
#     Edge 104, Type (0, 0), BuildingBlock: AJUNOK_clean_linker_0, # of connection points: 2
#     Edge 105, Type (0, 0), BuildingBlock: AJUNOK_clean_linker_0, # of connection points: 2
#     Edge 106, Type (0, 0), BuildingBlock: AJUNOK_clean_linker_0, # of connection points: 2
#     Edge 107, Type (0, 0), BuildingBlock: AJUNOK_clean_linker_0, # of connection points: 2
# Relax obj value: 0.088
# Max RMSD: 0.137
# Mean RMSD: 0.137
data_MOF--net-uoh--node1-CEKHIL_clean_sbu_0--edge1-AJUNOK_clean_linker_0
_symmetry_space_group_name_H-M    P1
_symmetry_Int_Tables_number       1
_symmetry_cell_setting            triclinic
loop_
_symmetry_equiv_pos_as_xyz
'x, y, z'
_cell_length_a     65.3509
_cell_length_b     65.349581
_cell_length_c     19.85411
_cell_angle_alpha  90.018905
_cell_angle_beta   89.983566
_cell_angle_gamma 120.00005
loop_
_atom_site_label
_atom_site_type_symbol
_atom_site_fract_x
_atom_site_fract_y
_atom_site_fract_z
_atom_type_partial_charge
Co0 Co 0.24085 0.15242 0.17147 0.0
O1 O 0.21209 0.15337 0.18141 0.0
O2 O 0.2469 0.1811 0.21851 0.0
C3 C 0.2356 0.14263 0.06108 0.0
O4 O 0.27441 0.15741 0.16827 0.0
Co5 Co 0.23847 0.10519 0.13542 0.0
O6 O 0.27311 0.12498 0.12498 0.0
C7 C 0.23094 0.11435 0.27641 0.0
C8 C 0.22445 0.17363 0.21084 0.0
C9 C 0.28466 0.14607 0.14709 0.0
O10 O 0.23496 0.13503 0.25948 0.0
O11 O 0.23021 0.09929 0.23376 0.0
O12 O 0.24452 0.1644 0.0804 0.0
O13 O 0.22822 0.12715 0.10907 0.0
Co14 Co 0.85429 0.08877 0.17044 0.0
O15 O 0.8534 0.05912 0.1813 0.0
O16 O 0.82557 0.06618 0.21753 0.0
C17 C 0.86412 0.09277 0.05985 0.0
O18 O 0.8493 0.11735 0.16623 0.0
Co19 Co 0.90149 0.13344 0.13249 0.0
O20 O 0.88179 0.14842 0.1229 0.0
C21 C 0.89268 0.11725 0.27435 0.0
C22 C 0.83306 0.0512 0.21026 0.0
C23 C 0.86071 0.13895 0.1451 0.0
O24 O 0.87177 0.10069 0.25857 0.0
O25 O 0.90764 0.13091 0.23043 0.0
O26 O 0.84233 0.08006 0.07908 0.0
O27 O 0.87952 0.10113 0.10795 0.0
Co28 Co 0.91689 0.76485 0.16664 0.0
O29 O 0.94583 0.79445 0.17432 0.0
O30 O 0.94092 0.76054 0.21219 0.0
C31 C 0.91085 0.76936 0.05688 0.0
O32 O 0.88935 0.7307 0.16602 0.0
Co33 Co 0.87025 0.76436 0.13302 0.0
O34 O 0.85667 0.72975 0.12613 0.0
C35 C 0.88844 0.77375 0.27262 0.0
C36 C 0.95491 0.78316 0.20381 0.0
C37 C 0.8674 0.71934 0.1481 0.0
O38 O 0.90547 0.77035 0.25532 0.0
O39 O 0.87359 0.77371 0.23044 0.0
O40 O 0.92476 0.76144 0.07438 0.0
O41 O 0.90263 0.77611 0.10596 0.0
Co42 Co 0.15388 0.23996 0.32895 0.0
O43 O 0.15424 0.211 0.31596 0.0
O44 O 0.18277 0.24607 0.28318 0.0
C45 C 0.143 0.23328 0.43885 0.0
O46 O 0.15956 0.27373 0.33557 0.0
Co47 Co 0.10688 0.23826 0.36619 0.0
O48 O 0.12719 0.27278 0.37815 0.0
C49 C 0.11657 0.23232 0.22395 0.0
C50 C 0.17486 0.22347 0.28852 0.0
C51 C 0.14842 0.28415 0.35699 0.0
O52 O 0.13716 0.23575 0.23991 0.0
O53 O 0.10145 0.23078 0.26765 0.0
O54 O 0.16492 0.24197 0.42125 0.0
O55 O 0.12817 0.227 0.38952 0.0
Co56 Co 0.76662 0.91413 0.32654 0.0
O57 O 0.79546 0.94366 0.31509 0.0
O58 O 0.76061 0.93667 0.27873 0.0
C59 C 0.77231 0.91036 0.43752 0.0
O60 O 0.73301 0.88569 0.3313 0.0
Co61 Co 0.76902 0.8695 0.36572 0.0
O62 O 0.73433 0.85459 0.37461 0.0
C63 C 0.77568 0.88482 0.22313 0.0
C64 C 0.7831 0.95158 0.28584 0.0
C65 C 0.72276 0.86405 0.35207 0.0
O66 O 0.77196 0.90182 0.23867 0.0
O67 O 0.7769 0.8712 0.26731 0.0
O68 O 0.76341 0.92315 0.41754 0.0
O69 O 0.77938 0.90187 0.38982 0.0
Co70 Co 0.09198 0.85265 0.32265 0.0
O71 O 0.0631 0.8533 0.31232 0.0
O72 O 0.06838 0.82431 0.27617 0.0
C73 C 0.09698 0.86302 0.43255 0.0
O74 O 0.11942 0.84593 0.32603 0.0
Co75 Co 0.13838 0.89862 0.35786 0.0
O76 O 0.15176 0.87751 0.36798 0.0
C77 C 0.12119 0.88998 0.2172 0.0
C78 C 0.05434 0.83295 0.28285 0.0
C79 C 0.14114 0.85636 0.34597 0.0
O80 O 0.10404 0.86959 0.23425 0.0
O81 O 0.13593 0.90473 0.25973 0.0
O82 O 0.08328 0.84125 0.41431 0.0
O83 O 0.10579 0.87818 0.38394 0.0
Co84 Co 0.76723 0.85282 0.82592 0.0
O85 O 0.79668 0.85329 0.81559 0.0
O86 O 0.76248 0.82485 0.7772 0.0
C87 C 0.77201 0.86195 0.93718 0.0
O88 O 0.73318 0.84641 0.82894 0.0
Co89 Co 0.76721 0.89862 0.86551 0.0
O90 O 0.73259 0.87777 0.87338 0.0
C91 C 0.77568 0.89115 0.72333 0.0
C92 C 0.7851 0.83323 0.78465 0.0
C93 C 0.72199 0.85686 0.84961 0.0
O94 O 0.77254 0.87064 0.73857 0.0
O95 O 0.77589 0.90551 0.76763 0.0
O96 O 0.76391 0.84041 0.91669 0.0
O97 O 0.77883 0.87763 0.88986 0.0
Co98 Co 0.15399 0.91524 0.82238 0.0
O99 O 0.15435 0.94461 0.81143 0.0
O100 O 0.1828 0.93826 0.77659 0.0
C101 C 0.14343 0.91051 0.9324 0.0
O102 O 0.15961 0.88707 0.8272 0.0
Co103 Co 0.10694 0.86992 0.85831 0.0
O104 O 0.1273 0.85578 0.8705 0.0
C105 C 0.11615 0.88669 0.71715 0.0
C106 C 0.17489 0.95292 0.78342 0.0
C107 C 0.14848 0.86556 0.84905 0.0
O108 O 0.13701 0.90326 0.73349 0.0
O109 O 0.1011 0.87289 0.76061 0.0
O110 O 0.16531 0.92381 0.91452 0.0
O111 O 0.12845 0.90228 0.88335 0.0
Co112 Co 0.09112 0.23966 0.82812 0.0
O113 O 0.06222 0.21013 0.81972 0.0
O114 O 0.0674 0.24397 0.7803 0.0
C115 C 0.09635 0.23564 0.939 0.0
O116 O 0.11885 0.27374 0.83003 0.0
Co117 Co 0.13685 0.23889 0.86434 0.0
O118 O 0.15027 0.27336 0.87498 0.0
C119 C 0.12002 0.2304 0.72363 0.0
C120 C 0.05335 0.22136 0.78886 0.0
C121 C 0.14033 0.28445 0.85226 0.0
O122 O 0.10301 0.23391 0.74043 0.0
O123 O 0.13463 0.23026 0.76636 0.0
O124 O 0.08264 0.24348 0.91898 0.0
O125 O 0.10467 0.22831 0.89146 0.0
Co126 Co 0.85422 0.76513 0.666 0.0
O127 O 0.8552 0.79482 0.67593 0.0
O128 O 0.82577 0.76073 0.7112 0.0
C129 C 0.86522 0.77054 0.55667 0.0
O130 O 0.8472 0.73086 0.66254 0.0
Co131 Co 0.90009 0.76417 0.63221 0.0
O132 O 0.87867 0.72978 0.62093 0.0
C133 C 0.89092 0.77253 0.77256 0.0
C134 C 0.83465 0.78345 0.70437 0.0
C135 C 0.85748 0.71941 0.64262 0.0
O136 O 0.87069 0.76963 0.75502 0.0
O137 O 0.90575 0.77251 0.73039 0.0
O138 O 0.84337 0.76271 0.57369 0.0
O139 O 0.88 0.77668 0.60612 0.0
Co140 Co 0.24028 0.09037 0.67124 0.0
O141 O 0.21152 0.06077 0.68265 0.0
O142 O 0.24657 0.06769 0.717 0.0
C143 C 0.23407 0.09476 0.5612 0.0
O144 O 0.27388 0.11884 0.66633 0.0
Co145 Co 0.23796 0.13533 0.63445 0.0
O146 O 0.27264 0.15024 0.625 0.0
C147 C 0.23108 0.11901 0.77607 0.0
C148 C 0.22406 0.05277 0.71047 0.0
C149 C 0.28416 0.14055 0.64625 0.0
O150 O 0.23527 0.10235 0.76014 0.0
O151 O 0.22942 0.13249 0.73231 0.0
O152 O 0.24301 0.08178 0.57901 0.0
O153 O 0.22731 0.10296 0.61031 0.0
Co154 Co 0.91621 0.14947 0.67055 0.0
O155 O 0.94548 0.14969 0.681 0.0
O156 O 0.93926 0.17793 0.7182 0.0
C157 C 0.91199 0.13982 0.55982 0.0
O158 O 0.88794 0.15496 0.66656 0.0
Co159 Co 0.87123 0.10244 0.63255 0.0
O160 O 0.85669 0.12255 0.62361 0.0
C161 C 0.88731 0.11114 0.77443 0.0
C162 C 0.95381 0.1699 0.71088 0.0
C163 C 0.86627 0.14361 0.64599 0.0
O164 O 0.90407 0.13193 0.75854 0.0
O165 O 0.87355 0.09623 0.73056 0.0
O166 O 0.92505 0.16154 0.57932 0.0
O167 O 0.90352 0.12437 0.60774 0.0
Co168 Co 0.90746 0.48491 0.50387 0.0
O169 O 0.87813 0.48441 0.51669 0.0
O170 O 0.9127 0.51358 0.54997 0.0
C171 C 0.90103 0.47412 0.39387 0.0
O172 O 0.94145 0.49115 0.49711 0.0
Co173 Co 0.90605 0.43798 0.46676 0.0
O174 O 0.94051 0.45872 0.455 0.0
C175 C 0.90068 0.44788 0.60913 0.0
C176 C 0.88996 0.50496 0.54479 0.0
C177 C 0.9519 0.47996 0.47603 0.0
O178 O 0.90363 0.46827 0.5929 0.0
O179 O 0.89918 0.43274 0.5656 0.0
O180 O 0.90928 0.49597 0.41163 0.0
O181 O 0.8949 0.45929 0.44312 0.0
Co182 Co 0.52052 0.42401 0.51178 0.0
O183 O 0.52089 0.39505 0.52286 0.0
O184 O 0.4917 0.40038 0.55667 0.0
C185 C 0.53178 0.42918 0.40268 0.0
O186 O 0.51438 0.45188 0.50671 0.0
Co187 Co 0.56754 0.4699 0.47858 0.0
O188 O 0.54681 0.48355 0.46523 0.0
C189 C 0.55747 0.45255 0.61871 0.0
C190 C 0.50033 0.38629 0.55097 0.0
C191 C 0.52548 0.4735 0.48554 0.0
O192 O 0.53689 0.43589 0.60104 0.0
O193 O 0.57281 0.46689 0.57669 0.0
O194 O 0.50982 0.41552 0.41931 0.0
O195 O 0.54645 0.43755 0.45242 0.0
Co196 Co 0.58386 0.099 0.50504 0.0
O197 O 0.61272 0.12858 0.51514 0.0
O198 O 0.60768 0.09438 0.55072 0.0
C199 C 0.57875 0.10449 0.39537 0.0
O200 O 0.55647 0.06478 0.50147 0.0
Co201 Co 0.53735 0.09844 0.47057 0.0
O202 O 0.5239 0.06393 0.46129 0.0
C203 C 0.55455 0.10669 0.61123 0.0
C204 C 0.6217 0.11706 0.54372 0.0
C205 C 0.53465 0.05342 0.48234 0.0
O206 O 0.57183 0.1037 0.59383 0.0
O207 O 0.53976 0.10671 0.5689 0.0
O208 O 0.59249 0.09642 0.4132 0.0
O209 O 0.56993 0.11072 0.44421 0.0
Co210 Co 0.81993 0.57289 0.65701 0.0
O211 O 0.82004 0.54367 0.65105 0.0
O212 O 0.84804 0.57736 0.6091 0.0
C213 C 0.81113 0.56981 0.7683 0.0
O214 O 0.82543 0.60669 0.65642 0.0
Co215 Co 0.77296 0.57115 0.69371 0.0
O216 O 0.79333 0.60583 0.70094 0.0
C217 C 0.78096 0.56162 0.5534 0.0
C218 C 0.84001 0.55493 0.61965 0.0
C219 C 0.81427 0.61715 0.67754 0.0
O220 O 0.80185 0.56599 0.56949 0.0
O221 O 0.76625 0.56118 0.59679 0.0
O222 O 0.83265 0.57785 0.74778 0.0
O223 O 0.79532 0.56165 0.72127 0.0
Co224 Co 0.43221 0.24838 0.66271 0.0
O225 O 0.46193 0.27705 0.65295 0.0
O226 O 0.42797 0.27241 0.61676 0.0
C227 C 0.43752 0.24321 0.77302 0.0
O228 O 0.39791 0.2212 0.66582 0.0
Co229 Co 0.43112 0.20169 0.70003 0.0
O230 O 0.39659 0.18858 0.70765 0.0
C231 C 0.43943 0.21828 0.55832 0.0
C232 C 0.45064 0.2863 0.62446 0.0
C233 C 0.38635 0.19941 0.68512 0.0
O234 O 0.43675 0.23594 0.57393 0.0
O235 O 0.43974 0.2041 0.60226 0.0
O236 O 0.42965 0.2571 0.75502 0.0
O237 O 0.44364 0.23439 0.72403 0.0
Co238 Co 0.75939 0.18522 0.6573 0.0
O239 O 0.73061 0.1862 0.64911 0.0
O240 O 0.73549 0.15734 0.60965 0.0
C241 C 0.7648 0.19447 0.76815 0.0
O242 O 0.78667 0.17824 0.65852 0.0
Co243 Co 0.80587 0.2308 0.69348 0.0
O244 O 0.81915 0.20953 0.70087 0.0
C245 C 0.78882 0.22306 0.55288 0.0
C246 C 0.72158 0.16605 0.61841 0.0
C247 C 0.80841 0.18846 0.67823 0.0
O248 O 0.7714 0.2028 0.56966 0.0
O249 O 0.80377 0.23748 0.59561 0.0
O250 O 0.75087 0.17298 0.74805 0.0
O251 O 0.77342 0.21015 0.72072 0.0
Co252 Co 0.43254 0.18565 0.16219 0.0
O253 O 0.46224 0.18652 0.15372 0.0
O254 O 0.42843 0.15775 0.11436 0.0
C255 C 0.4365 0.19496 0.27306 0.0
O256 O 0.39832 0.17878 0.16336 0.0
Co257 Co 0.43174 0.23129 0.19876 0.0
O258 O 0.3972 0.21001 0.20661 0.0
C259 C 0.44077 0.22343 0.05787 0.0
C260 C 0.45105 0.1664 0.12284 0.0
C261 C 0.38685 0.18904 0.18328 0.0
O262 O 0.43808 0.20322 0.07463 0.0
O263 O 0.44023 0.23783 0.10065 0.0
O264 O 0.42885 0.17344 0.25303 0.0
O265 O 0.44352 0.21059 0.22555 0.0
Co266 Co 0.82208 0.24801 0.15771 0.0
O267 O 0.82117 0.27673 0.14649 0.0
O268 O 0.85043 0.27173 0.11136 0.0
C269 C 0.81154 0.2432 0.26795 0.0
O270 O 0.82898 0.22067 0.1621 0.0
Co271 Co 0.77625 0.20158 0.19546 0.0
O272 O 0.79749 0.18832 0.2045 0.0
C273 C 0.78485 0.21773 0.05341 0.0
C274 C 0.84165 0.28567 0.1177 0.0
C275 C 0.81859 0.19894 0.18205 0.0
O276 O 0.80518 0.23536 0.06905 0.0
O277 O 0.77022 0.20367 0.09732 0.0
O278 O 0.83332 0.25701 0.24991 0.0
O279 O 0.79662 0.23431 0.21896 0.0
Co280 Co 0.75804 0.57334 0.15959 0.0
O281 O 0.72862 0.54455 0.14615 0.0
O282 O 0.73533 0.57981 0.1148 0.0
C283 C 0.76188 0.566 0.26898 0.0
O284 O 0.7863 0.60701 0.16681 0.0
Co285 Co 0.80321 0.57131 0.19597 0.0
O286 O 0.81772 0.60583 0.20825 0.0
C287 C 0.78801 0.56676 0.05333 0.0
C288 C 0.72053 0.55722 0.11979 0.0
C289 C 0.80794 0.61732 0.18761 0.0
O290 O 0.77042 0.56937 0.07008 0.0
O291 O 0.80196 0.56551 0.09631 0.0
O292 O 0.74896 0.57506 0.2518 0.0
O293 O 0.77063 0.55994 0.21957 0.0
Co294 Co 0.52154 0.09942 0.00629 0.0
O295 O 0.52201 0.12893 0.01506 0.0
O296 O 0.49317 0.09482 0.0524 0.0
C297 C 0.53191 0.10424 0.89611 0.0
O298 O 0.51505 0.0653 0.00445 0.0
Co299 Co 0.56756 0.09902 0.97065 0.0
O300 O 0.54661 0.06443 0.96277 0.0
C301 C 0.55933 0.1085 0.11109 0.0
C302 C 0.50165 0.11744 0.04452 0.0
C303 C 0.52553 0.05396 0.98529 0.0
O304 O 0.53868 0.1048 0.09489 0.0
O305 O 0.57394 0.10869 0.06776 0.0
O306 O 0.51011 0.09621 0.91411 0.0
O307 O 0.54694 0.1109 0.94498 0.0
Co308 Co 0.90995 0.42353 0.00505 0.0
O309 O 0.88042 0.39442 0.01126 0.0
O310 O 0.91407 0.39966 0.05243 0.0
C311 C 0.90653 0.42931 0.89411 0.0
O312 O 0.94402 0.45123 0.00616 0.0
Co313 Co 0.91025 0.46977 0.96928 0.0
O314 O 0.94492 0.48355 0.96356 0.0
C315 C 0.90007 0.45195 0.1092 0.0
C316 C 0.89157 0.3855 0.04235 0.0
C317 C 0.95536 0.47306 0.98719 0.0
O318 O 0.90346 0.43486 0.09259 0.0
O319 O 0.90059 0.46691 0.06654 0.0
O320 O 0.91444 0.41566 0.9141 0.0
O321 O 0.89904 0.43749 0.94156 0.0
Co322 Co 0.58252 0.48651 0.01228 0.0
O323 O 0.61217 0.48734 0.02097 0.0
O324 O 0.60566 0.51553 0.05718 0.0
C325 C 0.5771 0.4757 0.90277 0.0
O326 O 0.55386 0.49144 0.00987 0.0
Co327 Co 0.53749 0.43873 0.97922 0.0
O328 O 0.5225 0.45842 0.97012 0.0
C329 C 0.55533 0.44888 0.1189 0.0
C330 C 0.62046 0.50785 0.04916 0.0
C331 C 0.53201 0.47966 0.991 0.0
O332 O 0.57152 0.46971 0.10133 0.0
O333 O 0.54115 0.43341 0.07685 0.0
O334 O 0.59021 0.49769 0.91997 0.0
O335 O 0.56946 0.4608 0.95205 0.0
Co336 Co 0.57569 0.82012 0.84244 0.0
O337 O 0.54654 0.8201 0.85378 0.0
O338 O 0.58101 0.84837 0.89115 0.0
C339 C 0.57051 0.811 0.73108 0.0
O340 O 0.60951 0.8258 0.83772 0.0
Co341 Co 0.57377 0.77332 0.80253 0.0
O342 O 0.60834 0.7937 0.79213 0.0
C343 C 0.56688 0.7816 0.94522 0.0
C344 C 0.5584 0.84019 0.8843 0.0
C345 C 0.61982 0.81469 0.81508 0.0
O346 O 0.57046 0.80229 0.92998 0.0
O347 O 0.5658 0.76687 0.90084 0.0
O348 O 0.57892 0.83256 0.75171 0.0
O349 O 0.56341 0.79532 0.77845 0.0
Co350 Co 0.18786 0.75726 0.84124 0.0
O351 O 0.18781 0.72796 0.85133 0.0
O352 O 0.1592 0.73398 0.88672 0.0
C353 C 0.19848 0.76229 0.73157 0.0
O354 O 0.1816 0.78499 0.83799 0.0
Co355 Co 0.23401 0.80349 0.80655 0.0
O356 O 0.21327 0.8173 0.79644 0.0
C357 C 0.22505 0.78616 0.94723 0.0
C358 C 0.16724 0.71946 0.87944 0.0
C359 C 0.19211 0.80674 0.81837 0.0
O360 O 0.20466 0.76902 0.93002 0.0
O361 O 0.23986 0.80089 0.90479 0.0
O362 O 0.17662 0.74885 0.74939 0.0
O363 O 0.21357 0.77091 0.7804 0.0
Co364 Co 0.24882 0.43175 0.8422 0.0
O365 O 0.27822 0.46089 0.85296 0.0
O366 O 0.27159 0.42622 0.89 0.0
C367 C 0.24458 0.43698 0.73131 0.0
O368 O 0.22093 0.39789 0.83875 0.0
Co369 Co 0.20313 0.43199 0.8033 0.0
O370 O 0.18898 0.39733 0.79471 0.0
C371 C 0.21918 0.44023 0.94551 0.0
C372 C 0.28633 0.44871 0.88251 0.0
C373 C 0.19929 0.38671 0.81825 0.0
O374 O 0.23653 0.43708 0.92994 0.0
O375 O 0.20498 0.44045 0.90142 0.0
O376 O 0.25775 0.42851 0.75125 0.0
O377 O 0.23582 0.44381 0.77893 0.0
Co378 Co 0.48734 0.90709 0.99614 0.0
O379 O 0.48704 0.87776 0.98671 0.0
O380 O 0.51607 0.91195 0.95106 0.0
C381 C 0.47655 0.90138 0.10558 0.0
O382 O 0.49342 0.94111 0.99978 0.0
Co383 Co 0.44039 0.90596 0.03 0.0
O384 O 0.46109 0.94041 0.04178 0.0
C385 C 0.4502 0.89848 0.88947 0.0
C386 C 0.50764 0.88931 0.9588 0.0
C387 C 0.48233 0.95167 0.02073 0.0
O388 O 0.47069 0.90209 0.90709 0.0
O389 O 0.43504 0.89784 0.93161 0.0
O390 O 0.49846 0.90987 0.08819 0.0
O391 O 0.4616 0.89488 0.05649 0.0
Co392 Co 0.10156 0.58225 0.99438 0.0
O393 O 0.13047 0.6116 0.98094 0.0
O394 O 0.09533 0.60495 0.94863 0.0
C395 C 0.10838 0.57822 0.10416 0.0
O396 O 0.06784 0.55409 0.00163 0.0
Co397 Co 0.10349 0.5371 0.0315 0.0
O398 O 0.06901 0.52283 0.04452 0.0
C399 C 0.10896 0.55247 0.88914 0.0
C400 C 0.11793 0.61969 0.95371 0.0
C401 C 0.05752 0.53257 0.02347 0.0
O402 O 0.10562 0.56966 0.90535 0.0
O403 O 0.11059 0.53891 0.93271 0.0
O404 O 0.09966 0.59142 0.08651 0.0
O405 O 0.11467 0.56965 0.05488 0.0
Co406 Co 0.42352 0.51893 0.99832 0.0
O407 O 0.39423 0.51884 0.98713 0.0
O408 O 0.4003 0.49006 0.95361 0.0
C409 C 0.42871 0.53015 0.10747 0.0
O410 O 0.45129 0.51274 0.00297 0.0
Co411 Co 0.46971 0.56537 0.03181 0.0
O412 O 0.4837 0.5448 0.04233 0.0
C413 C 0.45228 0.55575 0.8915 0.0
C414 C 0.3858 0.49817 0.95968 0.0
C415 C 0.47311 0.52345 0.02203 0.0
O416 O 0.43534 0.5353 0.90907 0.0
O417 O 0.46683 0.57085 0.93366 0.0
O418 O 0.41511 0.5082 0.09068 0.0
O419 O 0.43713 0.5449 0.05784 0.0
Co420 Co 0.0995 0.51922 0.49312 0.0
O421 O 0.12863 0.51877 0.48569 0.0
O422 O 0.09432 0.49093 0.44592 0.0
C423 C 0.10345 0.52854 0.60389 0.0
O424 O 0.06568 0.51343 0.49311 0.0
Co425 Co 0.09975 0.56532 0.5289 0.0
O426 O 0.06497 0.54509 0.53411 0.0
C427 C 0.10966 0.55749 0.38888 0.0
C428 C 0.1167 0.49857 0.45545 0.0
C429 C 0.05441 0.52405 0.51136 0.0
O430 O 0.106 0.53692 0.40551 0.0
O431 O 0.10937 0.57205 0.43157 0.0
O432 O 0.09509 0.50691 0.58392 0.0
O433 O 0.11103 0.54425 0.55644 0.0
Co434 Co 0.48606 0.58192 0.49768 0.0
O435 O 0.48541 0.61087 0.48932 0.0
O436 O 0.5145 0.60592 0.45239 0.0
C437 C 0.47535 0.576 0.6073 0.0
O438 O 0.49268 0.55437 0.49929 0.0
Co439 Co 0.43989 0.53529 0.53119 0.0
O440 O 0.46098 0.52185 0.54018 0.0
C441 C 0.44882 0.55341 0.39151 0.0
C442 C 0.50585 0.61992 0.46025 0.0
C443 C 0.48214 0.53253 0.51827 0.0
O444 O 0.46928 0.57039 0.40882 0.0
O445 O 0.43395 0.53861 0.4337 0.0
O446 O 0.49719 0.58993 0.58998 0.0
O447 O 0.46044 0.56771 0.55809 0.0
Co448 Co 0.42547 0.90718 0.49486 0.0
O449 O 0.39571 0.87846 0.48555 0.0
O450 O 0.40261 0.91327 0.44922 0.0
C451 C 0.43054 0.90172 0.60485 0.0
O452 O 0.45421 0.94071 0.49756 0.0
Co453 Co 0.47033 0.90441 0.52975 0.0
O454 O 0.48559 0.93915 0.53756 0.0
C455 C 0.45275 0.89631 0.38949 0.0
C456 C 0.38767 0.89081 0.45692 0.0
C457 C 0.47608 0.95083 0.51625 0.0
O458 O 0.43669 0.9013 0.40601 0.0
O459 O 0.4665 0.89482 0.43263 0.0
O460 O 0.41756 0.91069 0.58715 0.0
O461 O 0.43826 0.89445 0.55578 0.0
Co462 Co 0.187 0.4315 0.34228 0.0
O463 O 0.1869 0.46074 0.35255 0.0
O464 O 0.15871 0.42616 0.3898 0.0
C465 C 0.1965 0.43663 0.23135 0.0
O466 O 0.18086 0.39757 0.33948 0.0
Co467 Co 0.23284 0.43153 0.30344 0.0
O468 O 0.21232 0.39684 0.29661 0.0
C469 C 0.22512 0.44005 0.4455 0.0
C470 C 0.16657 0.44866 0.38195 0.0
C471 C 0.19135 0.3863 0.31996 0.0
O472 O 0.20461 0.4369 0.43008 0.0
O473 O 0.23951 0.44024 0.40135 0.0
O474 O 0.17485 0.4282 0.2512 0.0
O475 O 0.21206 0.44342 0.27901 0.0
Co476 Co 0.57431 0.75716 0.34251 0.0
O477 O 0.54456 0.7285 0.35314 0.0
O478 O 0.57854 0.73357 0.39101 0.0
C479 C 0.5696 0.7616 0.23116 0.0
O480 O 0.6086 0.78429 0.33894 0.0
Co481 Co 0.57529 0.80345 0.30267 0.0
O482 O 0.60984 0.81663 0.29528 0.0
C483 C 0.5672 0.78795 0.44522 0.0
C484 C 0.55587 0.71962 0.38354 0.0
C485 C 0.62014 0.80594 0.31844 0.0
O486 O 0.56955 0.77008 0.43007 0.0
O487 O 0.56723 0.80218 0.40084 0.0
O488 O 0.57725 0.74781 0.25169 0.0
O489 O 0.56307 0.77072 0.27853 0.0
Co490 Co 0.25041 0.81943 0.34183 0.0
O491 O 0.28003 0.82028 0.353 0.0
O492 O 0.27315 0.84841 0.38754 0.0
C493 C 0.24575 0.80876 0.23189 0.0
O494 O 0.22195 0.82457 0.33689 0.0
Co495 Co 0.2054 0.77206 0.30611 0.0
O496 O 0.19081 0.79201 0.29405 0.0
C497 C 0.22226 0.78151 0.44716 0.0
C498 C 0.28805 0.84079 0.38101 0.0
C499 C 0.2004 0.81321 0.31532 0.0
O500 O 0.2386 0.80246 0.43081 0.0
O501 O 0.20859 0.76633 0.40374 0.0
O502 O 0.25886 0.83069 0.24957 0.0
O503 O 0.23769 0.79382 0.28106 0.0
C504 C 0.22807 0.10825 0.89913 0.0
C505 C 0.23032 0.12444 0.84865 0.0
C506 C 0.22935 0.11399 0.96788 0.0
C507 C 0.23329 0.13626 0.9887 0.0
H508 H 0.22554 0.09108 0.88552 0.0
H509 H 0.22774 0.10108 0.00486 0.0
S510 S 0.23982 0.18486 0.87748 0.0
N511 N 0.23615 0.16365 0.82536 0.0
N512 N 0.23868 0.1743 0.95363 0.0
C513 C 0.23521 0.15245 0.93897 0.0
C514 C 0.23367 0.14657 0.86927 0.0
C515 C 0.89754 0.12036 0.89736 0.0
C516 C 0.88231 0.10491 0.84727 0.0
C517 C 0.8919 0.11611 0.96618 0.0
C518 C 0.87065 0.09644 0.98758 0.0
H519 H 0.91379 0.13615 0.88341 0.0
H520 H 0.90394 0.12869 0.00269 0.0
S521 S 0.82545 0.04946 0.87842 0.0
N522 N 0.84559 0.06816 0.82549 0.0
N523 N 0.83504 0.06053 0.95409 0.0
C524 C 0.85562 0.08048 0.93854 0.0
C525 C 0.86144 0.0846 0.86868 0.0
C526 C 0.91817 0.76684 0.93495 0.0
C527 C 0.90564 0.77114 0.98523 0.0
C528 C 0.91381 0.76818 0.86662 0.0
C529 C 0.89653 0.77364 0.84541 0.0
H530 H 0.93148 0.7623 0.94828 0.0
H531 H 0.92372 0.76425 0.83023 0.0
S532 S 0.85939 0.78741 0.9571 0.0
N533 N 0.87576 0.78197 0.00931 0.0
N534 N 0.86729 0.78418 0.88061 0.0
C535 C 0.88407 0.77836 0.89518 0.0
C536 C 0.88869 0.77719 0.96507 0.0
C537 C 0.15281 0.23555 0.56099 0.0
C538 C 0.13592 0.23107 0.51071 0.0
C539 C 0.14718 0.23433 0.62945 0.0
C540 C 0.12444 0.22883 0.65081 0.0
H541 H 0.17071 0.24027 0.54753 0.0
H542 H 0.16108 0.23849 0.66581 0.0
S543 S 0.07327 0.21423 0.5394 0.0
N544 N 0.09506 0.21973 0.48703 0.0
N545 N 0.08452 0.21779 0.6158 0.0
C546 C 0.10716 0.22378 0.60109 0.0
C547 C 0.11287 0.2248 0.53111 0.0
C548 C 0.77783 0.88778 0.53152 0.0
C549 C 0.77463 0.9065 0.51014 0.0
C550 C 0.77886 0.88333 0.6004 0.0
C551 C 0.77705 0.89763 0.65066 0.0
H552 H 0.77896 0.8761 0.49488 0.0
H553 H 0.78073 0.86831 0.61422 0.0
S554 S 0.77025 0.95011 0.62025 0.0
N555 N 0.77086 0.94019 0.54432 0.0
N556 N 0.77299 0.93213 0.67296 0.0
C557 C 0.77466 0.91695 0.62948 0.0
C558 C 0.77337 0.92128 0.55953 0.0
C559 C 0.12623 0.89595 0.59418 0.0
C560 C 0.10991 0.88187 0.64431 0.0
C561 C 0.12176 0.89015 0.5255 0.0
C562 C 0.10097 0.86989 0.50443 0.0
H563 H 0.14286 0.91131 0.60799 0.0
H564 H 0.135 0.90122 0.4889 0.0
S565 S 0.05138 0.82833 0.61347 0.0
N566 N 0.07108 0.84761 0.66621 0.0
N567 N 0.06311 0.83674 0.5379 0.0
C568 C 0.08416 0.85613 0.55339 0.0
C569 C 0.0885 0.86213 0.62305 0.0
C570 C 0.77909 0.89579 0.10013 0.0
C571 C 0.77654 0.87943 0.15044 0.0
C572 C 0.77796 0.89021 0.03127 0.0
C573 C 0.77391 0.86795 0.00996 0.0
H574 H 0.78175 0.91299 0.11392 0.0
H575 H 0.77984 0.9033 0.99456 0.0
S576 S 0.76655 0.81888 0.12061 0.0
N577 N 0.77026 0.84004 0.17311 0.0
N578 N 0.76801 0.82967 0.04456 0.0
C579 C 0.77165 0.85156 0.05953 0.0
C580 C 0.77303 0.85727 0.12943 0.0
C581 C 0.14822 0.91305 0.12277 0.0
C582 C 0.12549 0.8959 0.14439 0.0
C583 C 0.15365 0.91759 0.05429 0.0
C584 C 0.13657 0.90539 0.00428 0.0
H585 H 0.16224 0.92267 0.1589 0.0
H586 H 0.17154 0.93074 0.0406 0.0
S587 S 0.07393 0.85975 0.03378 0.0
N588 N 0.08542 0.86724 0.10999 0.0
N589 N 0.09561 0.87607 0.98112 0.0
C590 C 0.11357 0.88864 0.02495 0.0
C591 C 0.10805 0.88382 0.09496 0.0
C592 C 0.11777 0.228 0.03229 0.0
C593 C 0.10123 0.23455 0.01156 0.0
C594 C 0.12252 0.22701 0.10099 0.0
C595 C 0.11065 0.23221 0.15151 0.0
H596 H 0.12728 0.22379 0.99523 0.0
H597 H 0.13556 0.22212 0.11455 0.0
S598 S 0.06607 0.25088 0.12359 0.0
N599 N 0.07325 0.24667 0.0473 0.0
N600 N 0.08199 0.24474 0.17538 0.0
C601 C 0.09403 0.23874 0.1312 0.0
C602 C 0.08939 0.23994 0.06157 0.0
C603 C 0.86151 0.77033 0.36651 0.0
C604 C 0.88409 0.77524 0.34539 0.0
C605 C 0.85577 0.76896 0.43478 0.0
C606 C 0.8724 0.77267 0.48512 0.0
H607 H 0.84778 0.76677 0.33009 0.0
H608 H 0.83801 0.76476 0.44803 0.0
S609 S 0.93456 0.78767 0.45728 0.0
N610 N 0.92359 0.78487 0.38074 0.0
N611 N 0.91283 0.78259 0.50942 0.0
C612 C 0.8953 0.77832 0.46509 0.0
C613 C 0.90113 0.77952 0.39522 0.0
C614 C 0.23624 0.087 0.43923 0.0
C615 C 0.23185 0.09954 0.48933 0.0
C616 C 0.23494 0.09128 0.37073 0.0
C617 C 0.22946 0.1085 0.34922 0.0
H618 H 0.24092 0.07381 0.45286 0.0
H619 H 0.23901 0.08144 0.33446 0.0
S620 S 0.21519 0.14545 0.46014 0.0
N621 N 0.22067 0.1292 0.5127 0.0
N622 N 0.21861 0.13756 0.38383 0.0
C623 C 0.22453 0.12088 0.39877 0.0
C624 C 0.22562 0.11632 0.46877 0.0
C625 C 0.88813 0.11238 0.46613 0.0
C626 C 0.90805 0.13343 0.48748 0.0
C627 C 0.88363 0.10689 0.39728 0.0
C628 C 0.89906 0.1221 0.34713 0.0
H629 H 0.87558 0.10036 0.50272 0.0
H630 H 0.86768 0.09079 0.38338 0.0
S631 S 0.95502 0.1785 0.37805 0.0
N632 N 0.94411 0.16885 0.45382 0.0
N633 N 0.93601 0.1586 0.32517 0.0
C634 C 0.91959 0.14279 0.36846 0.0
C635 C 0.92396 0.14845 0.43834 0.0
C636 C 0.90301 0.47869 0.2034 0.0
C637 C 0.89789 0.45609 0.18188 0.0
C638 C 0.90375 0.48414 0.27185 0.0
C639 C 0.89919 0.46718 0.32199 0.0
H640 H 0.90724 0.49266 0.16722 0.0
H641 H 0.90821 0.50195 0.28543 0.0
S642 S 0.88315 0.40477 0.29286 0.0
N643 N 0.88704 0.41619 0.21658 0.0
N644 N 0.88812 0.42638 0.34536 0.0
C645 C 0.89326 0.44424 0.30143 0.0
C646 C 0.8927 0.43872 0.23144 0.0
C647 C 0.52866 0.42501 0.21266 0.0
C648 C 0.551 0.4432 0.1917 0.0
C649 C 0.52283 0.42068 0.28087 0.0
C650 C 0.53914 0.43414 0.33128 0.0
H651 H 0.51517 0.41438 0.17613 0.0
H652 H 0.50524 0.4067 0.29401 0.0
S653 S 0.60062 0.48287 0.3039 0.0
N654 N 0.58995 0.47422 0.22727 0.0
N655 N 0.57904 0.46576 0.35589 0.0
C656 C 0.56183 0.45192 0.31145 0.0
C657 C 0.56773 0.45653 0.24162 0.0
C658 C 0.5538 0.10656 0.30261 0.0
C659 C 0.57478 0.10751 0.32364 0.0
C660 C 0.54928 0.10781 0.23396 0.0
C661 C 0.56574 0.11037 0.18385 0.0
H662 H 0.54043 0.10405 0.33919 0.0
H663 H 0.53247 0.10612 0.22015 0.0
S664 S 0.6249 0.11691 0.21477 0.0
N665 N 0.61304 0.1132 0.29029 0.0
N666 N 0.60498 0.11601 0.16198 0.0
C667 C 0.58738 0.11261 0.20511 0.0
C668 C 0.59177 0.11102 0.27475 0.0
C669 C 0.78172 0.55944 0.86246 0.0
C670 C 0.80535 0.56953 0.84081 0.0
C671 C 0.77608 0.55851 0.93124 0.0
C672 C 0.79386 0.56734 0.98084 0.0
H673 H 0.76745 0.55212 0.82611 0.0
H674 H 0.75768 0.5506 0.94571 0.0
S675 S 0.85857 0.5974 0.9504 0.0
N676 N 0.84669 0.58985 0.87473 0.0
N677 N 0.83612 0.58791 0.00306 0.0
C678 C 0.81754 0.57784 0.95966 0.0
C679 C 0.82328 0.57899 0.88995 0.0
C680 C 0.43482 0.25054 0.89519 0.0
C681 C 0.43956 0.23829 0.84494 0.0
C682 C 0.4362 0.24625 0.96366 0.0
C683 C 0.44216 0.22935 0.98505 0.0
H684 H 0.42981 0.2635 0.88169 0.0
H685 H 0.43184 0.25585 1.00002 0.0
S686 S 0.45753 0.19332 0.87363 0.0
N687 N 0.45156 0.20927 0.82127 0.0
N688 N 0.45387 0.20096 0.95002 0.0
C689 C 0.44744 0.21729 0.93532 0.0
C690 C 0.44621 0.22181 0.86536 0.0
C691 C 0.78613 0.22342 0.86178 0.0
C692 C 0.76952 0.20039 0.84081 0.0
C693 C 0.79078 0.22909 0.93054 0.0
C694 C 0.77876 0.21201 0.98094 0.0
H695 H 0.7958 0.23713 0.82487 0.0
H696 H 0.80393 0.24697 0.94421 0.0
S697 S 0.73366 0.14896 0.9523 0.0
N698 N 0.74111 0.16037 0.87613 0.0
N699 N 0.74966 0.17091 0.00434 0.0
C700 C 0.76197 0.18895 0.96036 0.0
C701 C 0.75742 0.18317 0.89065 0.0
C702 C 0.44434 0.22946 0.43524 0.0
C703 C 0.44007 0.21264 0.48582 0.0
C704 C 0.44339 0.22377 0.3665 0.0
C705 C 0.43784 0.20097 0.34569 0.0
H706 H 0.44833 0.24714 0.44874 0.0
H707 H 0.44674 0.23727 0.32948 0.0
S708 S 0.42494 0.15031 0.45748 0.0
N709 N 0.43002 0.17205 0.50939 0.0
N710 N 0.42816 0.16151 0.38124 0.0
C711 C 0.43363 0.18404 0.39564 0.0
C712 C 0.43479 0.18983 0.46534 0.0
C713 C 0.81607 0.24606 0.45856 0.0
C714 C 0.79324 0.22907 0.48007 0.0
C715 C 0.82164 0.25046 0.39006 0.0
C716 C 0.80463 0.23824 0.3399 0.0
H717 H 0.83005 0.25564 0.49482 0.0
H718 H 0.83959 0.26347 0.37647 0.0
S719 S 0.74176 0.19312 0.36897 0.0
N720 N 0.75314 0.20066 0.44529 0.0
N721 N 0.76359 0.20918 0.31648 0.0
C722 C 0.78153 0.2217 0.36045 0.0
C723 C 0.77586 0.21705 0.43045 0.0
C724 C 0.79114 0.56236 0.43053 0.0
C725 C 0.7745 0.55946 0.48051 0.0
C726 C 0.7867 0.56367 0.36181 0.0
C727 C 0.76562 0.56245 0.34055 0.0
H728 H 0.80807 0.56437 0.44451 0.0
H729 H 0.80025 0.56657 0.32543 0.0
S730 S 0.71496 0.55183 0.44875 0.0
N731 N 0.73493 0.55298 0.50182 0.0
N732 N 0.72703 0.55594 0.37338 0.0
C733 C 0.74842 0.55847 0.38922 0.0
C734 C 0.75272 0.55681 0.45894 0.0
C735 C 0.52735 0.10236 0.70565 0.0
C736 C 0.55011 0.10799 0.68414 0.0
C737 C 0.52178 0.10124 0.77411 0.0
C738 C 0.53877 0.10591 0.82424 0.0
H739 H 0.5134 0.09814 0.66941 0.0
H740 H 0.5039 0.09653 0.78769 0.0
S741 S 0.60142 0.12281 0.79519 0.0
N742 N 0.59008 0.11913 0.71887 0.0
N743 N 0.57966 0.11732 0.84769 0.0
C744 C 0.56179 0.11215 0.80371 0.0
C745 C 0.56744 0.11309 0.73373 0.0
C746 C 0.89609 0.45421 0.73228 0.0
C747 C 0.90122 0.44234 0.68161 0.0
C748 C 0.89778 0.44993 0.80095 0.0
C749 C 0.90498 0.43387 0.82152 0.0
H750 H 0.89071 0.4669 0.71885 0.0
H751 H 0.89355 0.45939 0.8381 0.0
S752 S 0.92144 0.39894 0.70901 0.0
N753 N 0.9144 0.41421 0.65738 0.0
N754 N 0.91766 0.40635 0.78545 0.0
C755 C 0.91033 0.42204 0.77137 0.0
C756 C 0.90841 0.4262 0.70175 0.0
C757 C 0.58017 0.47979 0.71271 0.0
C758 C 0.563 0.45702 0.69149 0.0
C759 C 0.58448 0.48547 0.78101 0.0
C760 C 0.57203 0.46859 0.83122 0.0
H761 H 0.59 0.49366 0.67634 0.0
H762 H 0.59768 0.50337 0.79439 0.0
S763 S 0.52614 0.40597 0.80283 0.0
N764 N 0.53397 0.41715 0.72637 0.0
N765 N 0.54239 0.42779 0.85518 0.0
C766 C 0.55522 0.44554 0.81102 0.0
C767 C 0.55062 0.43978 0.74111 0.0
C768 C 0.56261 0.78211 0.63696 0.0
C769 C 0.56892 0.80508 0.65823 0.0
C770 C 0.56157 0.77651 0.56812 0.0
C771 C 0.56652 0.7936 0.51776 0.0
H772 H 0.55876 0.7684 0.67372 0.0
H773 H 0.55701 0.75869 0.55436 0.0
S774 S 0.58373 0.85642 0.54716 0.0
N775 N 0.58 0.84498 0.62325 0.0
N776 N 0.57797 0.83458 0.49484 0.0
C777 C 0.57252 0.81656 0.53862 0.0
C778 C 0.57376 0.82227 0.60849 0.0
C779 C 0.23148 0.79163 0.57014 0.0
C780 C 0.21749 0.77524 0.52 0.0
C781 C 0.22567 0.78714 0.63881 0.0
C782 C 0.20548 0.76627 0.65982 0.0
H783 H 0.24676 0.80832 0.55633 0.0
H784 H 0.23663 0.80043 0.67542 0.0
S785 S 0.16424 0.71649 0.55081 0.0
N786 N 0.18346 0.73627 0.49808 0.0
N787 N 0.17254 0.72828 0.62636 0.0
C788 C 0.19184 0.7494 0.61087 0.0
C789 C 0.19786 0.75375 0.54124 0.0
C790 C 0.21708 0.44286 0.5685 0.0
C791 C 0.2316 0.44146 0.5182 0.0
C792 C 0.22159 0.44189 0.63736 0.0
C793 C 0.24061 0.43917 0.65869 0.0
H794 H 0.20184 0.44436 0.55472 0.0
H795 H 0.20974 0.44271 0.67403 0.0
S796 S 0.28488 0.43601 0.54853 0.0
N797 N 0.26663 0.43833 0.49586 0.0
N798 N 0.2748 0.43629 0.62446 0.0
C799 C 0.25559 0.43832 0.60928 0.0
C800 C 0.2512 0.43955 0.53936 0.0
C801 C 0.44954 0.89931 0.19825 0.0
C802 C 0.46935 0.898 0.17704 0.0
C803 C 0.44367 0.8978 0.26687 0.0
C804 C 0.45723 0.89457 0.31664 0.0
H805 H 0.43898 0.90236 0.1619 0.0
H806 H 0.42877 0.89983 0.28096 0.0
S807 S 0.50909 0.88681 0.28475 0.0
N808 N 0.50128 0.89122 0.20955 0.0
N809 N 0.49022 0.88787 0.33782 0.0
C810 C 0.47636 0.89191 0.29506 0.0
C811 C 0.48245 0.8938 0.2255 0.0
C812 C 0.10608 0.58591 0.22608 0.0
C813 C 0.11043 0.57332 0.17604 0.0
C814 C 0.1069 0.58133 0.29457 0.0
C815 C 0.11186 0.56375 0.3162 0.0
H816 H 0.10172 0.59932 0.2124 0.0
H817 H 0.10281 0.5912 0.3307 0.0
S818 S 0.12607 0.52669 0.20547 0.0
N819 N 0.12119 0.54335 0.15284 0.0
N820 N 0.12238 0.53443 0.2817 0.0
C821 C 0.11688 0.5514 0.26672 0.0
C822 C 0.11626 0.55627 0.1967 0.0
C823 C 0.42089 0.52075 0.22938 0.0
C824 C 0.43371 0.5374 0.17899 0.0
C825 C 0.42532 0.52647 0.29765 0.0
C826 C 0.44296 0.54907 0.31874 0.0
H827 H 0.40736 0.50297 0.21617 0.0
H828 H 0.41521 0.51272 0.33407 0.0
S829 S 0.48075 0.59962 0.20678 0.0
N830 N 0.46409 0.57788 0.15466 0.0
N831 N 0.4727 0.58862 0.28334 0.0
C832 C 0.45562 0.56613 0.26888 0.0
C833 C 0.45092 0.56032 0.199 0.0
C834 C 0.1132 0.56349 0.76616 0.0
C835 C 0.10878 0.5466 0.8166 0.0
C836 C 0.11163 0.55766 0.6974 0.0
C837 C 0.10525 0.53464 0.67652 0.0
H838 H 0.11785 0.58136 0.77982 0.0
H839 H 0.1152 0.57123 0.66044 0.0
S840 S 0.09131 0.48367 0.78823 0.0
N841 N 0.09747 0.50569 0.84021 0.0
N842 N 0.09444 0.49483 0.71198 0.0
C843 C 0.10077 0.5176 0.72641 0.0
C844 C 0.10258 0.52355 0.79611 0.0
C845 C 0.47936 0.57895 0.79753 0.0
C846 C 0.45674 0.56139 0.81867 0.0
C847 C 0.48504 0.58341 0.72923 0.0
C848 C 0.46831 0.57071 0.6789 0.0
H849 H 0.49313 0.58902 0.83396 0.0
H850 H 0.50282 0.59694 0.71595 0.0
S851 S 0.4061 0.52368 0.70689 0.0
N852 N 0.41717 0.53167 0.78341 0.0
N853 N 0.42781 0.54035 0.65472 0.0
C854 C 0.44542 0.55347 0.699 0.0
C855 C 0.43965 0.54873 0.76887 0.0
C856 C 0.42735 0.90278 0.79517 0.0
C857 C 0.4446 0.89731 0.81657 0.0
C858 C 0.42304 0.90409 0.72676 0.0
C859 C 0.43556 0.89972 0.67659 0.0
H860 H 0.41746 0.90677 0.83147 0.0
H861 H 0.40978 0.9087 0.71325 0.0
S862 S 0.4817 0.88336 0.70534 0.0
N863 N 0.4738 0.88668 0.78174 0.0
N864 N 0.46536 0.88877 0.65292 0.0
C865 C 0.45244 0.89361 0.69698 0.0
C866 C 0.45705 0.89252 0.76694 0.0
C867 C 0.22419 0.44102 0.13735 0.0
C868 C 0.20275 0.439 0.1588 0.0
C869 C 0.22971 0.44213 0.06849 0.0
C870 C 0.21414 0.4416 0.0183 0.0
H871 H 0.23654 0.44112 0.17391 0.0
H872 H 0.24616 0.44301 0.05463 0.0
S873 S 0.15652 0.43858 0.04915 0.0
N874 N 0.16649 0.43793 0.12496 0.0
N875 N 0.1768 0.44029 0.9963 0.0
C876 C 0.19301 0.44049 0.03963 0.0
C877 C 0.18733 0.4391 0.10957 0.0
C878 C 0.56262 0.78851 0.06827 0.0
C879 C 0.56594 0.77523 0.01783 0.0
C880 C 0.56351 0.78387 0.13712 0.0
C881 C 0.56805 0.76597 0.15832 0.0
H882 H 0.55949 0.80276 0.05459 0.0
H883 H 0.56099 0.79465 0.17392 0.0
S884 S 0.57778 0.72586 0.04715 0.0
N885 N 0.57369 0.74309 0.99484 0.0
N886 N 0.57546 0.73458 0.1233 0.0
C887 C 0.57115 0.75241 0.10856 0.0
C888 C 0.57004 0.75695 0.03867 0.0
C889 C 0.2529 0.81873 0.10988 0.0
C890 C 0.24058 0.80178 0.16008 0.0
C891 C 0.2483 0.8132 0.04146 0.0
C892 C 0.23095 0.79051 0.02006 0.0
H893 H 0.26621 0.83657 0.12337 0.0
H894 H 0.25805 0.82712 0.00519 0.0
S895 S 0.19432 0.73931 0.13132 0.0
N896 N 0.21088 0.76099 0.18371 0.0
N897 N 0.20191 0.75064 0.05496 0.0
C898 C 0.21872 0.77321 0.06971 0.0
C899 C 0.22362 0.77881 0.13966 0.0
C900 C 0.1763 0.18732 0.25711 0.0
C901 C 0.18844 0.21194 0.26689 0.0
C902 C 0.18825 0.1753 0.23985 0.0
C903 C 0.21297 0.18726 0.23245 0.0
H904 H 0.15727 0.17712 0.26259 0.0
H905 H 0.17792 0.15636 0.23254 0.0
S906 S 0.25328 0.25175 0.25319 0.0
N907 N 0.22673 0.24798 0.26802 0.0
N908 N 0.24931 0.22525 0.2363 0.0
C909 C 0.22547 0.21189 0.24249 0.0
C910 C 0.21318 0.22426 0.2593 0.0
C911 C 0.8193 0.98933 0.25612 0.0
C912 C 0.79462 0.97672 0.26441 0.0
C913 C 0.83135 0.01335 0.23955 0.0
C914 C 0.81936 0.02604 0.2314 0.0
H915 H 0.82953 0.98056 0.26229 0.0
H916 H 0.85035 0.02205 0.23335 0.0
S917 S 0.75467 1.00149 0.24802 0.0
N918 N 0.75846 0.97874 0.2632 0.0
N919 N 0.78125 0.02417 0.23276 0.0
C920 C 0.79466 0.01378 0.23988 0.0
C921 C 0.78226 0.98906 0.25597 0.0
C922 C 0.99231 0.78344 0.23755 0.0
C923 C 0.98016 0.79579 0.22478 0.0
C924 C 0.01651 0.79551 0.25443 0.0
C925 C 0.02931 0.82031 0.26015 0.0
H926 H 0.98314 0.76435 0.23379 0.0
H927 H 0.02511 0.78531 0.2643 0.0
S928 S 0.00589 0.86095 0.23134 0.0
N929 N 0.98303 0.83435 0.21869 0.0
N930 N 0.02808 0.85676 0.25049 0.0
C931 C 0.01736 0.8328 0.24737 0.0
C932 C 0.99292 0.82062 0.22973 0.0
C933 C 0.79753 0.78373 0.73823 0.0
C934 C 0.82204 0.79607 0.7256 0.0
C935 C 0.7854 0.7958 0.75533 0.0
C936 C 0.79743 0.82059 0.76138 0.0
H937 H 0.78759 0.76465 0.73425 0.0
H938 H 0.7666 0.78561 0.76518 0.0
S939 S 0.86151 0.86123 0.73278 0.0
N940 N 0.85774 0.83463 0.7198 0.0
N941 N 0.83513 0.85703 0.75205 0.0
C942 C 0.82188 0.83308 0.74868 0.0
C943 C 0.83413 0.8209 0.73081 0.0
C944 C 0.18805 0.01476 0.7395 0.0
C945 C 0.21272 0.02757 0.73104 0.0
C946 C 0.1762 0.99069 0.75549 0.0
C947 C 0.18839 0.97815 0.76291 0.0
H948 H 0.17768 0.0234 0.73395 0.0
H949 H 0.1572 0.98183 0.76185 0.0
S950 S 0.25313 0.00326 0.7454 0.0
N951 N 0.24907 0.0259 0.73117 0.0
N952 N 0.22666 0.98039 0.76057 0.0
C953 C 0.21308 0.99062 0.75421 0.0
C954 C 0.22527 0.01538 0.73867 0.0
C955 C 0.99101 0.20775 0.74194 0.0
C956 C 0.97896 0.18305 0.73275 0.0
C957 C 0.01529 0.22031 0.75821 0.0
C958 C 0.02823 0.20855 0.76678 0.0
H959 H 0.98175 0.21749 0.73553 0.0
H960 H 0.02385 0.23926 0.76519 0.0
S961 S 0.00493 0.14403 0.74849 0.0
N962 N 0.98197 0.14742 0.73372 0.0
N963 N 0.02711 0.17079 0.76404 0.0
C964 C 0.01631 0.18388 0.75778 0.0
C965 C 0.99182 0.17121 0.7409 0.0
C966 C 0.87731 0.55475 0.58639 0.0
C967 C 0.85282 0.54239 0.59934 0.0
C968 C 0.88956 0.54264 0.5709 0.0
C969 C 0.87766 0.51778 0.56692 0.0
H970 H 0.88714 0.57386 0.589 0.0
H971 H 0.90833 0.55282 0.56067 0.0
S972 S 0.81362 0.47715 0.59665 0.0
N973 N 0.81726 0.5038 0.60717 0.0
N974 N 0.84005 0.48132 0.5783 0.0
C975 C 0.85322 0.50532 0.57993 0.0
C976 C 0.84087 0.51753 0.596 0.0
C977 C 0.45076 0.32364 0.59033 0.0
C978 C 0.46324 0.31174 0.60509 0.0
C979 C 0.46274 0.34798 0.57502 0.0
C980 C 0.4876 0.3612 0.57313 0.0
H981 H 0.43163 0.31414 0.59107 0.0
H982 H 0.45247 0.35636 0.56317 0.0
S983 S 0.52859 0.33874 0.60966 0.0
N984 N 0.502 0.31544 0.61794 0.0
N985 N 0.52422 0.36073 0.58934 0.0
C986 C 0.50021 0.34955 0.58838 0.0
C987 C 0.48812 0.32496 0.60425 0.0
C988 C 0.65924 0.117 0.57355 0.0
C989 C 0.64699 0.12944 0.56436 0.0
C990 C 0.68355 0.12891 0.58914 0.0
C991 C 0.69638 0.15364 0.59709 0.0
H992 H 0.65008 0.09797 0.56776 0.0
H993 H 0.69224 0.11863 0.59615 0.0
S994 S 0.67263 0.19444 0.57836 0.0
N995 N 0.64973 0.16797 0.56438 0.0
N996 N 0.69499 0.19012 0.59375 0.0
C997 C 0.68429 0.16621 0.58808 0.0
C998 C 0.65974 0.15419 0.57176 0.0
C999 C 0.45181 0.12929 0.09211 0.0
C1000 C 0.46377 0.154 0.10069 0.0
C1001 C 0.46413 0.11739 0.0755 0.0
C1002 C 0.4888 0.12982 0.0658 0.0
H1003 H 0.43286 0.11903 0.09942 0.0
H1004 H 0.45423 0.09838 0.06934 0.0
S1005 S 0.5283 0.19476 0.08108 0.0
N1006 N 0.50168 0.19045 0.09742 0.0
N1007 N 0.52464 0.16831 0.06599 0.0
C1008 C 0.50086 0.15455 0.07374 0.0
C1009 C 0.48841 0.16656 0.09119 0.0
C1010 C 0.89126 0.34796 0.07459 0.0
C1011 C 0.87895 0.36021 0.06291 0.0
C1012 C 0.87915 0.32365 0.09036 0.0
C1013 C 0.85433 0.31084 0.09602 0.0
H1014 H 0.91034 0.35711 0.07068 0.0
H1015 H 0.88932 0.31496 0.09936 0.0
S1016 S 0.81384 0.33465 0.07049 0.0
N1017 N 0.84047 0.35751 0.05822 0.0
N1018 N 0.81795 0.31229 0.08796 0.0
C1019 C 0.8419 0.32294 0.08453 0.0
C1020 C 0.85413 0.34748 0.068 0.0
C1021 C 0.68282 0.52145 0.08753 0.0
C1022 C 0.69531 0.54593 0.09941 0.0
C1023 C 0.65871 0.50953 0.07218 0.0
C1024 C 0.6458 0.52145 0.06876 0.0
H1025 H 0.69175 0.51126 0.08999 0.0
H1026 H 0.65012 0.49067 0.06319 0.0
S1027 S 0.66998 0.58564 0.09677 0.0
N1028 N 0.69295 0.58183 0.10715 0.0
N1029 N 0.64735 0.55929 0.07886 0.0
C1030 C 0.65796 0.54596 0.08089 0.0
C1031 C 0.68277 0.55824 0.09584 0.0
C1032 C 0.54493 0.88958 0.9226 0.0
C1033 C 0.52077 0.87693 0.93997 0.0
C1034 C 0.55748 0.87776 0.90717 0.0
C1035 C 0.5462 0.85291 0.90779 0.0
H1036 H 0.55424 0.9087 0.9211 0.0
H1037 H 0.5759 0.88812 0.89291 0.0
S1038 S 0.48361 0.81153 0.95251 0.0
N1039 N 0.48642 0.83799 0.95862 0.0
N1040 N 0.50985 0.81616 0.92964 0.0
C1041 C 0.52222 0.84016 0.92594 0.0
C1042 C 0.50955 0.85206 0.94196 0.0
C1043 C 0.15397 0.65751 0.92285 0.0
C1044 C 0.12934 0.64484 0.93245 0.0
C1045 C 0.16587 0.68155 0.90641 0.0
C1046 C 0.15377 0.69419 0.89971 0.0
H1047 H 0.16427 0.64877 0.92795 0.0
H1048 H 0.18483 0.69032 0.89927 0.0
S1049 S 0.08917 0.66947 0.92003 0.0
N1050 N 0.09313 0.64677 0.93394 0.0
N1051 N 0.11562 0.6922 0.90377 0.0
C1052 C 0.12912 0.68185 0.90941 0.0
C1053 C 0.11688 0.65713 0.92538 0.0
C1054 C 0.32427 0.48502 0.91118 0.0
C1055 C 0.31146 0.46029 0.90396 0.0
C1056 C 0.34824 0.49693 0.92855 0.0
C1057 C 0.36065 0.48472 0.93849 0.0
H1058 H 0.31569 0.49537 0.90364 0.0
H1059 H 0.35715 0.51597 0.93389 0.0
S1060 S 0.3355 0.41986 0.925 0.0
N1061 N 0.31302 0.4239 0.90804 0.0
N1062 N 0.3583 0.44639 0.93978 0.0
C1063 C 0.34818 0.45998 0.93098 0.0
C1064 C 0.32354 0.44775 0.91415 0.0
C1065 C 0.15321 0.49698 0.42939 0.0
C1066 C 0.12843 0.48505 0.4352 0.0
C1067 C 0.16522 0.48493 0.41294 0.0
C1068 C 0.15306 0.46034 0.4027 0.0
H1069 H 0.1635 0.5159 0.43723 0.0
H1070 H 0.18429 0.49505 0.4085 0.0
S1071 S 0.08811 0.42065 0.41221 0.0
N1072 N 0.09205 0.44714 0.42915 0.0
N1073 N 0.11474 0.42439 0.39928 0.0
C1074 C 0.12828 0.44807 0.40879 0.0
C1075 C 0.11595 0.46046 0.42457 0.0
C1076 C 0.54324 0.65763 0.43024 0.0
C1077 C 0.51855 0.64518 0.43935 0.0
C1078 C 0.55542 0.6819 0.4141 0.0
C1079 C 0.54329 0.69448 0.40549 0.0
H1080 H 0.55328 0.64866 0.43648 0.0
H1081 H 0.57439 0.69074 0.40718 0.0
S1082 S 0.47859 0.67005 0.42335 0.0
N1083 N 0.48248 0.6474 0.43832 0.0
N1084 N 0.50516 0.69257 0.40786 0.0
C1085 C 0.51861 0.68216 0.41434 0.0
C1086 C 0.50631 0.65765 0.43125 0.0
C1087 C 0.34981 0.85454 0.42837 0.0
C1088 C 0.36248 0.87926 0.43593 0.0
C1089 C 0.32581 0.84249 0.41149 0.0
C1090 C 0.3132 0.85451 0.40227 0.0
H1091 H 0.35852 0.84428 0.43524 0.0
H1092 H 0.31707 0.82347 0.40587 0.0
S1093 S 0.33791 0.91929 0.41671 0.0
N1094 N 0.36058 0.91547 0.4329 0.0
N1095 N 0.31519 0.89268 0.40193 0.0
C1096 C 0.32551 0.87925 0.41008 0.0
C1097 C 0.35021 0.89165 0.42649 0.0
C1098 C 0.32358 0.17703 0.19456 0.0
C1099 C 0.31081 0.15706 0.15341 0.0
C1100 C 0.34793 0.18678 0.205 0.0
C1101 C 0.3607 0.17705 0.17474 0.0
H1102 H 0.31469 0.1851 0.21985 0.0
H1103 H 0.35678 0.20216 0.23723 0.0
S1104 S 0.33588 0.12524 0.05996 0.0
N1105 N 0.31302 0.12821 0.08048 0.0
N1106 N 0.35867 0.14652 0.10029 0.0
C1107 C 0.3482 0.15713 0.13316 0.0
C1108 C 0.32336 0.14719 0.12237 0.0
C1109 C 0.82079 0.16228 0.20485 0.0
C1110 C 0.83047 0.18466 0.17382 0.0
C1111 C 0.83027 0.14745 0.19404 0.0
C1112 C 0.8499 0.15427 0.15172 0.0
H1113 H 0.80564 0.15603 0.23788 0.0
H1114 H 0.82227 0.13061 0.21995 0.0
S1115 S 0.88139 0.21065 0.05584 0.0
N1116 N 0.86056 0.2126 0.09736 0.0
N1117 N 0.87835 0.18484 0.07686 0.0
C1118 C 0.85971 0.17656 0.11995 0.0
C1119 C 0.85007 0.19171 0.13113 0.0
C1120 C 0.81568 0.6562 0.1404 0.0
C1121 C 0.823 0.64349 0.18136 0.0
C1122 C 0.83038 0.68048 0.12886 0.0
C1123 C 0.85311 0.69324 0.15774 0.0
H1124 H 0.79858 0.6473 0.11591 0.0
H1125 H 0.82376 0.68928 0.09677 0.0
S1126 S 0.88043 0.66861 0.2719 0.0
N1127 N 0.85439 0.6458 0.25294 0.0
N1128 N 0.8819 0.6913 0.23105 0.0
C1129 C 0.86062 0.68081 0.1993 0.0
C1130 C 0.84561 0.65605 0.21125 0.0
C1131 C 0.18914 0.34735 0.29839 0.0
C1132 C 0.17959 0.36019 0.32926 0.0
C1133 C 0.17943 0.32301 0.30916 0.0
C1134 C 0.15972 0.31035 0.35133 0.0
H1135 H 0.20428 0.35614 0.26525 0.0
H1136 H 0.18725 0.31402 0.2831 0.0
S1137 S 0.12877 0.33572 0.44764 0.0
N1138 N 0.14972 0.35839 0.40605 0.0
N1139 N 0.13153 0.3128 0.42651 0.0
C1140 C 0.15016 0.32301 0.38336 0.0
C1141 C 0.16002 0.34781 0.37219 0.0
C1142 C 0.65861 0.84422 0.30978 0.0
C1143 C 0.64638 0.81992 0.32602 0.0
C1144 C 0.68306 0.85832 0.31936 0.0
C1145 C 0.69656 0.84886 0.34564 0.0
H1146 H 0.64924 0.85264 0.28979 0.0
H1147 H 0.69141 0.87682 0.30569 0.0
S1148 S 0.67334 0.78612 0.39571 0.0
N1149 N 0.64986 0.78698 0.36928 0.0
N1150 N 0.69568 0.8133 0.3874 0.0
C1151 C 0.68459 0.82453 0.36204 0.0
C1152 C 0.65963 0.81015 0.35216 0.0
C1153 C 0.19217 0.84414 0.36168 0.0
C1154 C 0.18531 0.82431 0.32016 0.0
C1155 C 0.17752 0.85391 0.37083 0.0
C1156 C 0.15532 0.84435 0.33886 0.0
H1157 H 0.20886 0.85205 0.38831 0.0
H1158 H 0.18376 0.86918 0.40343 0.0
S1159 S 0.12942 0.7931 0.22199 0.0
N1160 N 0.15497 0.79587 0.24474 0.0
N1161 N 0.12755 0.81422 0.26214 0.0
C1162 C 0.14827 0.82459 0.29681 0.0
C1163 C 0.16322 0.81464 0.28732 0.0
C1164 C 0.68319 0.85467 0.87356 0.0
C1165 C 0.69585 0.84518 0.84128 0.0
C1166 C 0.65885 0.84516 0.86348 0.0
C1167 C 0.64599 0.8257 0.82064 0.0
H1168 H 0.69214 0.86965 0.90719 0.0
H1169 H 0.65001 0.85295 0.89047 0.0
S1170 S 0.67083 0.79491 0.72101 0.0
N1171 N 0.69366 0.81557 0.76276 0.0
N1172 N 0.64806 0.79775 0.74351 0.0
C1173 C 0.65846 0.81616 0.78736 0.0
C1174 C 0.68327 0.82582 0.79783 0.0
C1175 C 0.18952 0.84306 0.79355 0.0
C1176 C 0.18012 0.82092 0.82577 0.0
C1177 C 0.17961 0.8576 0.80264 0.0
C1178 C 0.15983 0.85068 0.8444 0.0
H1179 H 0.20473 0.84931 0.76072 0.0
H1180 H 0.18736 0.87424 0.77576 0.0
S1181 S 0.12917 0.795 0.94367 0.0
N1182 N 0.15027 0.79321 0.90323 0.0
N1183 N 0.1317 0.82043 0.92061 0.0
C1184 C 0.15038 0.82869 0.87766 0.0
C1185 C 0.16045 0.81385 0.86819 0.0
C1186 C 0.16314 0.34765 0.79285 0.0
C1187 C 0.18494 0.36059 0.82669 0.0
C1188 C 0.14853 0.32324 0.80268 0.0
C1189 C 0.15505 0.31066 0.84687 0.0
H1190 H 0.15726 0.35643 0.75809 0.0
H1191 H 0.1322 0.31413 0.77441 0.0
S1192 S 0.20956 0.33637 0.95158 0.0
N1193 N 0.21178 0.35899 0.90859 0.0
N1194 N 0.18442 0.31332 0.92746 0.0
C1195 C 0.17664 0.32344 0.88196 0.0
C1196 C 0.19155 0.34828 0.87169 0.0
C1197 C 0.85462 0.68035 0.61797 0.0
C1198 C 0.84531 0.69322 0.65001 0.0
C1199 C 0.84484 0.65596 0.62809 0.0
C1200 C 0.82528 0.64329 0.67072 0.0
H1201 H 0.86973 0.68919 0.58473 0.0
H1202 H 0.85257 0.64698 0.60157 0.0
S1203 S 0.79471 0.66867 0.76905 0.0
N1204 N 0.81563 0.69138 0.72756 0.0
N1205 N 0.7973 0.64573 0.74691 0.0
C1206 C 0.81582 0.65595 0.70341 0.0
C1207 C 0.82576 0.68079 0.69288 0.0
C1208 C 0.32311 0.1478 0.69163 0.0
C1209 C 0.31031 0.15569 0.65318 0.0
C1210 C 0.34742 0.16228 0.70292 0.0
C1211 C 0.36018 0.18536 0.67625 0.0
H1212 H 0.31427 0.13037 0.71411 0.0
H1213 H 0.35627 0.15517 0.73286 0.0
S1214 S 0.33526 0.21442 0.57007 0.0
N1215 N 0.31248 0.18815 0.58703 0.0
N1216 N 0.35805 0.21524 0.60841 0.0
C1217 C 0.34764 0.1935 0.63751 0.0
C1218 C 0.32283 0.17872 0.62585 0.0
C1219 C 0.86084 0.17798 0.67621 0.0
C1220 C 0.85115 0.15472 0.6522 0.0
C1221 C 0.84682 0.18846 0.68525 0.0
C1222 C 0.82239 0.17619 0.67076 0.0
H1223 H 0.87946 0.18829 0.68841 0.0
H1224 H 0.85541 0.20649 0.70348 0.0
S1225 S 0.78795 0.11456 0.60772 0.0
N1226 N 0.8152 0.1195 0.61471 0.0
N1227 N 0.78906 0.13925 0.63184 0.0
C1228 C 0.81238 0.15286 0.64695 0.0
C1229 C 0.82667 0.14215 0.6376 0.0
C1230 C 0.0159 0.52378 0.52192 0.0
C1231 C 0.02825 0.51216 0.50212 0.0
C1232 C 0.99146 0.51358 0.5118 0.0
C1233 C 0.97816 0.49128 0.48133 0.0
H1234 H 0.02513 0.54099 0.54565 0.0
H1235 H 0.98294 0.52323 0.52886 0.0
S1236 S 1.00194 0.45353 0.41855 0.0
N1237 N 0.02518 0.47711 0.44952 0.0
N1238 N 0.97949 0.458 0.43009 0.0
C1239 C 0.99033 0.47952 0.46057 0.0
C1240 C 0.01523 0.4899 0.47114 0.0
C1241 C 0.48467 0.49611 0.54234 0.0
C1242 C 0.49405 0.51827 0.51018 0.0
C1243 C 0.49443 0.48147 0.53258 0.0
C1244 C 0.51404 0.48829 0.49019 0.0
H1245 H 0.46961 0.48994 0.57571 0.0
H1246 H 0.48676 0.46485 0.55958 0.0
S1247 S 0.54448 0.54391 0.39055 0.0
N1248 N 0.52362 0.54584 0.43192 0.0
N1249 N 0.54191 0.51844 0.41327 0.0
C1250 C 0.52342 0.51028 0.45687 0.0
C1251 C 0.51351 0.52523 0.46703 0.0
C1252 C 0.49602 0.01519 0.47625 0.0
C1253 C 0.52055 0.02716 0.4894 0.0
C1254 C 0.48183 0.99074 0.48586 0.0
C1255 C 0.49144 0.97699 0.5091 0.0
H1256 H 0.48748 0.02477 0.45883 0.0
H1257 H 0.46314 0.9826 0.47481 0.0
S1258 S 0.55484 0.99944 0.54951 0.0
N1259 N 0.55388 0.02314 0.52588 0.0
N1260 N 0.52742 0.97733 0.54402 0.0
C1261 C 0.51602 0.98869 0.5221 0.0
C1262 C 0.53048 0.01365 0.51219 0.0
C1263 C 0.52338 0.01503 0.9636 0.0
C1264 C 0.51366 0.02781 0.99394 0.0
C1265 C 0.51361 0.99065 0.97398 0.0
C1266 C 0.49366 0.97789 0.01519 0.0
H1267 H 0.53872 0.02389 0.93124 0.0
H1268 H 0.52159 0.98172 0.94844 0.0
S1269 S 0.4621 0.00306 0.10958 0.0
N1270 N 0.48329 0.02582 0.06897 0.0
N1271 N 0.46501 0.98019 0.08883 0.0
C1272 C 0.48391 0.99049 0.04661 0.0
C1273 C 0.49382 0.01532 0.03581 0.0
C1274 C 0.99421 0.50988 0.96596 0.0
C1275 C 0.98146 0.48747 0.9967 0.0
C1276 C 0.01854 0.52458 0.9765 0.0
C1277 C 0.03132 0.51758 0.01826 0.0
H1278 H 0.98537 0.51623 0.93302 0.0
H1279 H 0.02743 0.5414 0.95053 0.0
S1280 S 0.00624 0.46118 0.11408 0.0
N1281 N 0.98346 0.4594 0.07294 0.0
N1282 N 0.02908 0.48692 0.09296 0.0
C1283 C 0.01876 0.49533 0.05019 0.0
C1284 C 0.99394 0.48032 0.03928 0.0
C1285 C 0.52598 0.51361 0.02224 0.0
C1286 C 0.51663 0.49048 0.9974 0.0
C1287 C 0.51169 0.52381 0.0312 0.0
C1288 C 0.48733 0.51139 0.01577 0.0
H1289 H 0.54452 0.52403 0.03513 0.0
H1290 H 0.52001 0.54176 0.04998 0.0
S1291 S 0.45375 0.44999 0.95034 0.0
N1292 N 0.48108 0.45522 0.95817 0.0
N1293 N 0.45444 0.47441 0.97519 0.0
C1294 C 0.47766 0.48816 0.99133 0.0
C1295 C 0.49222 0.47774 0.98205 0.0
loop_
_geom_bond_atom_site_label_1
_geom_bond_atom_site_label_2
_geom_bond_distance
_geom_bond_site_symmetry_2
_ccdc_geom_bond_type
Co0 O1 2.216 . S
Co0 O2 2.091 . S
Co0 O4 2.004 . S
Co0 O10 2.021 . S
Co0 O12 2.137 . S
Co0 O13 2.244 . S
O1 Co0 2.216 . S
O1 C8 1.247 . S
O2 Co0 2.091 . S
O2 C8 1.261 . S
C3 O12 1.247 . S
C3 O13 1.272 . S
O4 Co0 2.004 . S
O4 C9 1.259 . S
Co5 O6 2.061 . S
Co5 O11 2.052 . S
Co5 O13 2.135 . S
O6 Co5 2.061 . S
O6 C9 1.235 . S
C7 O10 1.238 . S
C7 O11 1.241 . S
C8 O1 1.247 . S
C8 O2 1.261 . S
C9 O4 1.259 . S
C9 O6 1.235 . S
O10 Co0 2.021 . S
O10 C7 1.238 . S
O11 Co5 2.052 . S
O11 C7 1.241 . S
O12 Co0 2.137 . S
O12 C3 1.247 . S
O13 Co0 2.244 . S
O13 C3 1.272 . S
O13 Co5 2.135 . S
Co14 O15 2.216 . S
Co14 O16 2.091 . S
Co14 O18 2.004 . S
Co14 O24 2.021 . S
Co14 O26 2.137 . S
Co14 O27 2.244 . S
O15 Co14 2.216 . S
O15 C22 1.247 . S
O16 Co14 2.091 . S
O16 C22 1.261 . S
C17 O26 1.247 . S
C17 O27 1.272 . S
O18 Co14 2.004 . S
O18 C23 1.259 . S
Co19 O20 2.061 . S
Co19 O25 2.052 . S
Co19 O27 2.135 . S
O20 Co19 2.061 . S
O20 C23 1.235 . S
C21 O24 1.238 . S
C21 O25 1.241 . S
C22 O15 1.247 . S
C22 O16 1.261 . S
C23 O18 1.259 . S
C23 O20 1.235 . S
O24 Co14 2.021 . S
O24 C21 1.238 . S
O25 Co19 2.052 . S
O25 C21 1.241 . S
O26 Co14 2.137 . S
O26 C17 1.247 . S
O27 Co14 2.244 . S
O27 C17 1.272 . S
O27 Co19 2.135 . S
Co28 O29 2.216 . S
Co28 O30 2.091 . S
Co28 O32 2.004 . S
Co28 O38 2.021 . S
Co28 O40 2.137 . S
Co28 O41 2.244 . S
O29 Co28 2.216 . S
O29 C36 1.247 . S
O30 Co28 2.091 . S
O30 C36 1.261 . S
C31 O40 1.247 . S
C31 O41 1.272 . S
O32 Co28 2.004 . S
O32 C37 1.259 . S
Co33 O34 2.061 . S
Co33 O39 2.052 . S
Co33 O41 2.135 . S
O34 Co33 2.061 . S
O34 C37 1.235 . S
C35 O38 1.238 . S
C35 O39 1.241 . S
C36 O29 1.247 . S
C36 O30 1.261 . S
C37 O32 1.259 . S
C37 O34 1.235 . S
O38 Co28 2.021 . S
O38 C35 1.238 . S
O39 Co33 2.052 . S
O39 C35 1.241 . S
O40 Co28 2.137 . S
O40 C31 1.247 . S
O41 Co28 2.244 . S
O41 C31 1.272 . S
O41 Co33 2.135 . S
Co42 O43 2.216 . S
Co42 O44 2.091 . S
Co42 O46 2.004 . S
Co42 O52 2.021 . S
Co42 O54 2.137 . S
Co42 O55 2.244 . S
O43 Co42 2.216 . S
O43 C50 1.247 . S
O44 Co42 2.091 . S
O44 C50 1.261 . S
C45 O54 1.247 . S
C45 O55 1.272 . S
O46 Co42 2.004 . S
O46 C51 1.259 . S
Co47 O48 2.061 . S
Co47 O53 2.052 . S
Co47 O55 2.135 . S
O48 Co47 2.061 . S
O48 C51 1.235 . S
C49 O52 1.238 . S
C49 O53 1.241 . S
C50 O43 1.247 . S
C50 O44 1.261 . S
C51 O46 1.259 . S
C51 O48 1.235 . S
O52 Co42 2.021 . S
O52 C49 1.238 . S
O53 Co47 2.052 . S
O53 C49 1.241 . S
O54 Co42 2.137 . S
O54 C45 1.247 . S
O55 Co42 2.244 . S
O55 C45 1.272 . S
O55 Co47 2.135 . S
Co56 O57 2.216 . S
Co56 O58 2.091 . S
Co56 O60 2.004 . S
Co56 O66 2.021 . S
Co56 O68 2.137 . S
Co56 O69 2.244 . S
O57 Co56 2.216 . S
O57 C64 1.247 . S
O58 Co56 2.091 . S
O58 C64 1.261 . S
C59 O68 1.247 . S
C59 O69 1.272 . S
O60 Co56 2.004 . S
O60 C65 1.259 . S
Co61 O62 2.061 . S
Co61 O67 2.052 . S
Co61 O69 2.135 . S
O62 Co61 2.061 . S
O62 C65 1.235 . S
C63 O66 1.238 . S
C63 O67 1.241 . S
C64 O57 1.247 . S
C64 O58 1.261 . S
C65 O60 1.259 . S
C65 O62 1.235 . S
O66 Co56 2.021 . S
O66 C63 1.238 . S
O67 Co61 2.052 . S
O67 C63 1.241 . S
O68 Co56 2.137 . S
O68 C59 1.247 . S
O69 Co56 2.244 . S
O69 C59 1.272 . S
O69 Co61 2.135 . S
Co70 O71 2.216 . S
Co70 O72 2.091 . S
Co70 O74 2.004 . S
Co70 O80 2.021 . S
Co70 O82 2.137 . S
Co70 O83 2.244 . S
O71 Co70 2.216 . S
O71 C78 1.247 . S
O72 Co70 2.091 . S
O72 C78 1.261 . S
C73 O82 1.247 . S
C73 O83 1.272 . S
O74 Co70 2.004 . S
O74 C79 1.259 . S
Co75 O76 2.061 . S
Co75 O81 2.052 . S
Co75 O83 2.135 . S
O76 Co75 2.061 . S
O76 C79 1.235 . S
C77 O80 1.238 . S
C77 O81 1.241 . S
C78 O71 1.247 . S
C78 O72 1.261 . S
C79 O74 1.259 . S
C79 O76 1.235 . S
O80 Co70 2.021 . S
O80 C77 1.238 . S
O81 Co75 2.052 . S
O81 C77 1.241 . S
O82 Co70 2.137 . S
O82 C73 1.247 . S
O83 Co70 2.244 . S
O83 C73 1.272 . S
O83 Co75 2.135 . S
Co84 O85 2.216 . S
Co84 O86 2.091 . S
Co84 O88 2.004 . S
Co84 O94 2.021 . S
Co84 O96 2.137 . S
Co84 O97 2.244 . S
O85 Co84 2.216 . S
O85 C92 1.247 . S
O86 Co84 2.091 . S
O86 C92 1.261 . S
C87 O96 1.247 . S
C87 O97 1.272 . S
O88 Co84 2.004 . S
O88 C93 1.259 . S
Co89 O90 2.061 . S
Co89 O95 2.052 . S
Co89 O97 2.135 . S
O90 Co89 2.061 . S
O90 C93 1.235 . S
C91 O94 1.238 . S
C91 O95 1.241 . S
C92 O85 1.247 . S
C92 O86 1.261 . S
C93 O88 1.259 . S
C93 O90 1.235 . S
O94 Co84 2.021 . S
O94 C91 1.238 . S
O95 Co89 2.052 . S
O95 C91 1.241 . S
O96 Co84 2.137 . S
O96 C87 1.247 . S
O97 Co84 2.244 . S
O97 C87 1.272 . S
O97 Co89 2.135 . S
Co98 O99 2.216 . S
Co98 O100 2.091 . S
Co98 O102 2.004 . S
Co98 O108 2.021 . S
Co98 O110 2.137 . S
Co98 O111 2.244 . S
O99 Co98 2.216 . S
O99 C106 1.247 . S
O100 Co98 2.091 . S
O100 C106 1.261 . S
C101 O110 1.247 . S
C101 O111 1.272 . S
O102 Co98 2.004 . S
O102 C107 1.259 . S
Co103 O104 2.061 . S
Co103 O109 2.052 . S
Co103 O111 2.135 . S
O104 Co103 2.061 . S
O104 C107 1.235 . S
C105 O108 1.238 . S
C105 O109 1.241 . S
C106 O99 1.247 . S
C106 O100 1.261 . S
C107 O102 1.259 . S
C107 O104 1.235 . S
O108 Co98 2.021 . S
O108 C105 1.238 . S
O109 Co103 2.052 . S
O109 C105 1.241 . S
O110 Co98 2.137 . S
O110 C101 1.247 . S
O111 Co98 2.244 . S
O111 C101 1.272 . S
O111 Co103 2.135 . S
Co112 O113 2.216 . S
Co112 O114 2.091 . S
Co112 O116 2.004 . S
Co112 O122 2.021 . S
Co112 O124 2.137 . S
Co112 O125 2.244 . S
O113 Co112 2.216 . S
O113 C120 1.247 . S
O114 Co112 2.091 . S
O114 C120 1.261 . S
C115 O124 1.247 . S
C115 O125 1.272 . S
O116 Co112 2.004 . S
O116 C121 1.259 . S
Co117 O118 2.061 . S
Co117 O123 2.052 . S
Co117 O125 2.135 . S
O118 Co117 2.061 . S
O118 C121 1.235 . S
C119 O122 1.238 . S
C119 O123 1.241 . S
C120 O113 1.247 . S
C120 O114 1.261 . S
C121 O116 1.259 . S
C121 O118 1.235 . S
O122 Co112 2.021 . S
O122 C119 1.238 . S
O123 Co117 2.052 . S
O123 C119 1.241 . S
O124 Co112 2.137 . S
O124 C115 1.247 . S
O125 Co112 2.244 . S
O125 C115 1.272 . S
O125 Co117 2.135 . S
Co126 O127 2.216 . S
Co126 O128 2.091 . S
Co126 O130 2.004 . S
Co126 O136 2.021 . S
Co126 O138 2.137 . S
Co126 O139 2.244 . S
O127 Co126 2.216 . S
O127 C134 1.247 . S
O128 Co126 2.091 . S
O128 C134 1.261 . S
C129 O138 1.247 . S
C129 O139 1.272 . S
O130 Co126 2.004 . S
O130 C135 1.259 . S
Co131 O132 2.061 . S
Co131 O137 2.052 . S
Co131 O139 2.135 . S
O132 Co131 2.061 . S
O132 C135 1.235 . S
C133 O136 1.238 . S
C133 O137 1.241 . S
C134 O127 1.247 . S
C134 O128 1.261 . S
C135 O130 1.259 . S
C135 O132 1.235 . S
O136 Co126 2.021 . S
O136 C133 1.238 . S
O137 Co131 2.052 . S
O137 C133 1.241 . S
O138 Co126 2.137 . S
O138 C129 1.247 . S
O139 Co126 2.244 . S
O139 C129 1.272 . S
O139 Co131 2.135 . S
Co140 O141 2.216 . S
Co140 O142 2.091 . S
Co140 O144 2.004 . S
Co140 O150 2.021 . S
Co140 O152 2.137 . S
Co140 O153 2.244 . S
O141 Co140 2.216 . S
O141 C148 1.247 . S
O142 Co140 2.091 . S
O142 C148 1.261 . S
C143 O152 1.247 . S
C143 O153 1.272 . S
O144 Co140 2.004 . S
O144 C149 1.259 . S
Co145 O146 2.061 . S
Co145 O151 2.052 . S
Co145 O153 2.135 . S
O146 Co145 2.061 . S
O146 C149 1.235 . S
C147 O150 1.238 . S
C147 O151 1.241 . S
C148 O141 1.247 . S
C148 O142 1.261 . S
C149 O144 1.259 . S
C149 O146 1.235 . S
O150 Co140 2.021 . S
O150 C147 1.238 . S
O151 Co145 2.052 . S
O151 C147 1.241 . S
O152 Co140 2.137 . S
O152 C143 1.247 . S
O153 Co140 2.244 . S
O153 C143 1.272 . S
O153 Co145 2.135 . S
Co154 O155 2.216 . S
Co154 O156 2.091 . S
Co154 O158 2.004 . S
Co154 O164 2.021 . S
Co154 O166 2.137 . S
Co154 O167 2.244 . S
O155 Co154 2.216 . S
O155 C162 1.247 . S
O156 Co154 2.091 . S
O156 C162 1.261 . S
C157 O166 1.247 . S
C157 O167 1.272 . S
O158 Co154 2.004 . S
O158 C163 1.259 . S
Co159 O160 2.061 . S
Co159 O165 2.052 . S
Co159 O167 2.135 . S
O160 Co159 2.061 . S
O160 C163 1.235 . S
C161 O164 1.238 . S
C161 O165 1.241 . S
C162 O155 1.247 . S
C162 O156 1.261 . S
C163 O158 1.259 . S
C163 O160 1.235 . S
O164 Co154 2.021 . S
O164 C161 1.238 . S
O165 Co159 2.052 . S
O165 C161 1.241 . S
O166 Co154 2.137 . S
O166 C157 1.247 . S
O167 Co154 2.244 . S
O167 C157 1.272 . S
O167 Co159 2.135 . S
Co168 O169 2.216 . S
Co168 O170 2.091 . S
Co168 O172 2.004 . S
Co168 O178 2.021 . S
Co168 O180 2.137 . S
Co168 O181 2.244 . S
O169 Co168 2.216 . S
O169 C176 1.247 . S
O170 Co168 2.091 . S
O170 C176 1.261 . S
C171 O180 1.247 . S
C171 O181 1.272 . S
O172 Co168 2.004 . S
O172 C177 1.259 . S
Co173 O174 2.061 . S
Co173 O179 2.052 . S
Co173 O181 2.135 . S
O174 Co173 2.061 . S
O174 C177 1.235 . S
C175 O178 1.238 . S
C175 O179 1.241 . S
C176 O169 1.247 . S
C176 O170 1.261 . S
C177 O172 1.259 . S
C177 O174 1.235 . S
O178 Co168 2.021 . S
O178 C175 1.238 . S
O179 Co173 2.052 . S
O179 C175 1.241 . S
O180 Co168 2.137 . S
O180 C171 1.247 . S
O181 Co168 2.244 . S
O181 C171 1.272 . S
O181 Co173 2.135 . S
Co182 O183 2.216 . S
Co182 O184 2.091 . S
Co182 O186 2.004 . S
Co182 O192 2.021 . S
Co182 O194 2.137 . S
Co182 O195 2.244 . S
O183 Co182 2.216 . S
O183 C190 1.247 . S
O184 Co182 2.091 . S
O184 C190 1.261 . S
C185 O194 1.247 . S
C185 O195 1.272 . S
O186 Co182 2.004 . S
O186 C191 1.259 . S
Co187 O188 2.061 . S
Co187 O193 2.052 . S
Co187 O195 2.135 . S
O188 Co187 2.061 . S
O188 C191 1.235 . S
C189 O192 1.238 . S
C189 O193 1.241 . S
C190 O183 1.247 . S
C190 O184 1.261 . S
C191 O186 1.259 . S
C191 O188 1.235 . S
O192 Co182 2.021 . S
O192 C189 1.238 . S
O193 Co187 2.052 . S
O193 C189 1.241 . S
O194 Co182 2.137 . S
O194 C185 1.247 . S
O195 Co182 2.244 . S
O195 C185 1.272 . S
O195 Co187 2.135 . S
Co196 O197 2.216 . S
Co196 O198 2.091 . S
Co196 O200 2.004 . S
Co196 O206 2.021 . S
Co196 O208 2.137 . S
Co196 O209 2.244 . S
O197 Co196 2.216 . S
O197 C204 1.247 . S
O198 Co196 2.091 . S
O198 C204 1.261 . S
C199 O208 1.247 . S
C199 O209 1.272 . S
O200 Co196 2.004 . S
O200 C205 1.259 . S
Co201 O202 2.061 . S
Co201 O207 2.052 . S
Co201 O209 2.135 . S
O202 Co201 2.061 . S
O202 C205 1.235 . S
C203 O206 1.238 . S
C203 O207 1.241 . S
C204 O197 1.247 . S
C204 O198 1.261 . S
C205 O200 1.259 . S
C205 O202 1.235 . S
O206 Co196 2.021 . S
O206 C203 1.238 . S
O207 Co201 2.052 . S
O207 C203 1.241 . S
O208 Co196 2.137 . S
O208 C199 1.247 . S
O209 Co196 2.244 . S
O209 C199 1.272 . S
O209 Co201 2.135 . S
Co210 O211 2.216 . S
Co210 O212 2.091 . S
Co210 O214 2.004 . S
Co210 O220 2.021 . S
Co210 O222 2.137 . S
Co210 O223 2.244 . S
O211 Co210 2.216 . S
O211 C218 1.247 . S
O212 Co210 2.091 . S
O212 C218 1.261 . S
C213 O222 1.247 . S
C213 O223 1.272 . S
O214 Co210 2.004 . S
O214 C219 1.259 . S
Co215 O216 2.061 . S
Co215 O221 2.052 . S
Co215 O223 2.135 . S
O216 Co215 2.061 . S
O216 C219 1.235 . S
C217 O220 1.238 . S
C217 O221 1.241 . S
C218 O211 1.247 . S
C218 O212 1.261 . S
C219 O214 1.259 . S
C219 O216 1.235 . S
O220 Co210 2.021 . S
O220 C217 1.238 . S
O221 Co215 2.052 . S
O221 C217 1.241 . S
O222 Co210 2.137 . S
O222 C213 1.247 . S
O223 Co210 2.244 . S
O223 C213 1.272 . S
O223 Co215 2.135 . S
Co224 O225 2.216 . S
Co224 O226 2.091 . S
Co224 O228 2.004 . S
Co224 O234 2.021 . S
Co224 O236 2.137 . S
Co224 O237 2.244 . S
O225 Co224 2.216 . S
O225 C232 1.247 . S
O226 Co224 2.091 . S
O226 C232 1.261 . S
C227 O236 1.247 . S
C227 O237 1.272 . S
O228 Co224 2.004 . S
O228 C233 1.259 . S
Co229 O230 2.061 . S
Co229 O235 2.052 . S
Co229 O237 2.135 . S
O230 Co229 2.061 . S
O230 C233 1.235 . S
C231 O234 1.238 . S
C231 O235 1.241 . S
C232 O225 1.247 . S
C232 O226 1.261 . S
C233 O228 1.259 . S
C233 O230 1.235 . S
O234 Co224 2.021 . S
O234 C231 1.238 . S
O235 Co229 2.052 . S
O235 C231 1.241 . S
O236 Co224 2.137 . S
O236 C227 1.247 . S
O237 Co224 2.244 . S
O237 C227 1.272 . S
O237 Co229 2.135 . S
Co238 O239 2.216 . S
Co238 O240 2.091 . S
Co238 O242 2.004 . S
Co238 O248 2.021 . S
Co238 O250 2.137 . S
Co238 O251 2.244 . S
O239 Co238 2.216 . S
O239 C246 1.247 . S
O240 Co238 2.091 . S
O240 C246 1.261 . S
C241 O250 1.247 . S
C241 O251 1.272 . S
O242 Co238 2.004 . S
O242 C247 1.259 . S
Co243 O244 2.061 . S
Co243 O249 2.052 . S
Co243 O251 2.135 . S
O244 Co243 2.061 . S
O244 C247 1.235 . S
C245 O248 1.238 . S
C245 O249 1.241 . S
C246 O239 1.247 . S
C246 O240 1.261 . S
C247 O242 1.259 . S
C247 O244 1.235 . S
O248 Co238 2.021 . S
O248 C245 1.238 . S
O249 Co243 2.052 . S
O249 C245 1.241 . S
O250 Co238 2.137 . S
O250 C241 1.247 . S
O251 Co238 2.244 . S
O251 C241 1.272 . S
O251 Co243 2.135 . S
Co252 O253 2.216 . S
Co252 O254 2.091 . S
Co252 O256 2.004 . S
Co252 O262 2.021 . S
Co252 O264 2.137 . S
Co252 O265 2.244 . S
O253 Co252 2.216 . S
O253 C260 1.247 . S
O254 Co252 2.091 . S
O254 C260 1.261 . S
C255 O264 1.247 . S
C255 O265 1.272 . S
O256 Co252 2.004 . S
O256 C261 1.259 . S
Co257 O258 2.061 . S
Co257 O263 2.052 . S
Co257 O265 2.135 . S
O258 Co257 2.061 . S
O258 C261 1.235 . S
C259 O262 1.238 . S
C259 O263 1.241 . S
C260 O253 1.247 . S
C260 O254 1.261 . S
C261 O256 1.259 . S
C261 O258 1.235 . S
O262 Co252 2.021 . S
O262 C259 1.238 . S
O263 Co257 2.052 . S
O263 C259 1.241 . S
O264 Co252 2.137 . S
O264 C255 1.247 . S
O265 Co252 2.244 . S
O265 C255 1.272 . S
O265 Co257 2.135 . S
Co266 O267 2.216 . S
Co266 O268 2.091 . S
Co266 O270 2.004 . S
Co266 O276 2.021 . S
Co266 O278 2.137 . S
Co266 O279 2.244 . S
O267 Co266 2.216 . S
O267 C274 1.247 . S
O268 Co266 2.091 . S
O268 C274 1.261 . S
C269 O278 1.247 . S
C269 O279 1.272 . S
O270 Co266 2.004 . S
O270 C275 1.259 . S
Co271 O272 2.061 . S
Co271 O277 2.052 . S
Co271 O279 2.135 . S
O272 Co271 2.061 . S
O272 C275 1.235 . S
C273 O276 1.238 . S
C273 O277 1.241 . S
C274 O267 1.247 . S
C274 O268 1.261 . S
C275 O270 1.259 . S
C275 O272 1.235 . S
O276 Co266 2.021 . S
O276 C273 1.238 . S
O277 Co271 2.052 . S
O277 C273 1.241 . S
O278 Co266 2.137 . S
O278 C269 1.247 . S
O279 Co266 2.244 . S
O279 C269 1.272 . S
O279 Co271 2.135 . S
Co280 O281 2.216 . S
Co280 O282 2.091 . S
Co280 O284 2.004 . S
Co280 O290 2.021 . S
Co280 O292 2.137 . S
Co280 O293 2.244 . S
O281 Co280 2.216 . S
O281 C288 1.247 . S
O282 Co280 2.091 . S
O282 C288 1.261 . S
C283 O292 1.247 . S
C283 O293 1.272 . S
O284 Co280 2.004 . S
O284 C289 1.259 . S
Co285 O286 2.061 . S
Co285 O291 2.052 . S
Co285 O293 2.135 . S
O286 Co285 2.061 . S
O286 C289 1.235 . S
C287 O290 1.238 . S
C287 O291 1.241 . S
C288 O281 1.247 . S
C288 O282 1.261 . S
C289 O284 1.259 . S
C289 O286 1.235 . S
O290 Co280 2.021 . S
O290 C287 1.238 . S
O291 Co285 2.052 . S
O291 C287 1.241 . S
O292 Co280 2.137 . S
O292 C283 1.247 . S
O293 Co280 2.244 . S
O293 C283 1.272 . S
O293 Co285 2.135 . S
Co294 O295 2.216 . S
Co294 O296 2.091 . S
Co294 O298 2.004 . S
Co294 O304 2.021 . S
Co294 O306 2.137 1_554 S
Co294 O307 2.244 1_554 S
O295 Co294 2.216 . S
O295 C302 1.247 . S
O296 Co294 2.091 . S
O296 C302 1.261 . S
C297 O306 1.247 . S
C297 O307 1.272 . S
O298 Co294 2.004 . S
O298 C303 1.259 . S
Co299 O300 2.061 . S
Co299 O305 2.052 . S
Co299 O307 2.135 1_554 S
O300 Co299 2.061 . S
O300 C303 1.235 . S
C301 O304 1.238 . S
C301 O305 1.241 . S
C302 O295 1.247 . S
C302 O296 1.261 . S
C303 O298 1.259 . S
C303 O300 1.235 . S
O304 Co294 2.021 . S
O304 C301 1.238 . S
O305 Co299 2.052 . S
O305 C301 1.241 . S
O306 Co294 2.137 1_556 S
O306 C297 1.247 . S
O307 Co294 2.244 1_556 S
O307 C297 1.272 . S
O307 Co299 2.135 1_556 S
Co308 O309 2.216 . S
Co308 O310 2.091 . S
Co308 O312 2.004 . S
Co308 O318 2.021 . S
Co308 O320 2.137 1_554 S
Co308 O321 2.244 1_554 S
O309 Co308 2.216 . S
O309 C316 1.247 . S
O310 Co308 2.091 . S
O310 C316 1.261 . S
C311 O320 1.247 . S
C311 O321 1.272 . S
O312 Co308 2.004 . S
O312 C317 1.259 . S
Co313 O314 2.061 . S
Co313 O319 2.052 . S
Co313 O321 2.135 1_554 S
O314 Co313 2.061 . S
O314 C317 1.235 . S
C315 O318 1.238 . S
C315 O319 1.241 . S
C316 O309 1.247 . S
C316 O310 1.261 . S
C317 O312 1.259 . S
C317 O314 1.235 . S
O318 Co308 2.021 . S
O318 C315 1.238 . S
O319 Co313 2.052 . S
O319 C315 1.241 . S
O320 Co308 2.137 1_556 S
O320 C311 1.247 . S
O321 Co308 2.244 1_556 S
O321 C311 1.272 . S
O321 Co313 2.135 1_556 S
Co322 O323 2.216 . S
Co322 O324 2.091 . S
Co322 O326 2.004 . S
Co322 O332 2.021 . S
Co322 O334 2.137 1_554 S
Co322 O335 2.244 1_554 S
O323 Co322 2.216 . S
O323 C330 1.247 . S
O324 Co322 2.091 . S
O324 C330 1.261 . S
C325 O334 1.247 . S
C325 O335 1.272 . S
O326 Co322 2.004 . S
O326 C331 1.259 . S
Co327 O328 2.061 . S
Co327 O333 2.052 . S
Co327 O335 2.135 1_554 S
O328 Co327 2.061 . S
O328 C331 1.235 . S
C329 O332 1.238 . S
C329 O333 1.241 . S
C330 O323 1.247 . S
C330 O324 1.261 . S
C331 O326 1.259 . S
C331 O328 1.235 . S
O332 Co322 2.021 . S
O332 C329 1.238 . S
O333 Co327 2.052 . S
O333 C329 1.241 . S
O334 Co322 2.137 1_556 S
O334 C325 1.247 . S
O335 Co322 2.244 1_556 S
O335 C325 1.272 . S
O335 Co327 2.135 1_556 S
Co336 O337 2.216 . S
Co336 O338 2.091 . S
Co336 O340 2.004 . S
Co336 O346 2.021 . S
Co336 O348 2.137 . S
Co336 O349 2.244 . S
O337 Co336 2.216 . S
O337 C344 1.247 . S
O338 Co336 2.091 . S
O338 C344 1.261 . S
C339 O348 1.247 . S
C339 O349 1.272 . S
O340 Co336 2.004 . S
O340 C345 1.259 . S
Co341 O342 2.061 . S
Co341 O347 2.052 . S
Co341 O349 2.135 . S
O342 Co341 2.061 . S
O342 C345 1.235 . S
C343 O346 1.238 . S
C343 O347 1.241 . S
C344 O337 1.247 . S
C344 O338 1.261 . S
C345 O340 1.259 . S
C345 O342 1.235 . S
O346 Co336 2.021 . S
O346 C343 1.238 . S
O347 Co341 2.052 . S
O347 C343 1.241 . S
O348 Co336 2.137 . S
O348 C339 1.247 . S
O349 Co336 2.244 . S
O349 C339 1.272 . S
O349 Co341 2.135 . S
Co350 O351 2.216 . S
Co350 O352 2.091 . S
Co350 O354 2.004 . S
Co350 O360 2.021 . S
Co350 O362 2.137 . S
Co350 O363 2.244 . S
O351 Co350 2.216 . S
O351 C358 1.247 . S
O352 Co350 2.091 . S
O352 C358 1.261 . S
C353 O362 1.247 . S
C353 O363 1.272 . S
O354 Co350 2.004 . S
O354 C359 1.259 . S
Co355 O356 2.061 . S
Co355 O361 2.052 . S
Co355 O363 2.135 . S
O356 Co355 2.061 . S
O356 C359 1.235 . S
C357 O360 1.238 . S
C357 O361 1.241 . S
C358 O351 1.247 . S
C358 O352 1.261 . S
C359 O354 1.259 . S
C359 O356 1.235 . S
O360 Co350 2.021 . S
O360 C357 1.238 . S
O361 Co355 2.052 . S
O361 C357 1.241 . S
O362 Co350 2.137 . S
O362 C353 1.247 . S
O363 Co350 2.244 . S
O363 C353 1.272 . S
O363 Co355 2.135 . S
Co364 O365 2.216 . S
Co364 O366 2.091 . S
Co364 O368 2.004 . S
Co364 O374 2.021 . S
Co364 O376 2.137 . S
Co364 O377 2.244 . S
O365 Co364 2.216 . S
O365 C372 1.247 . S
O366 Co364 2.091 . S
O366 C372 1.261 . S
C367 O376 1.247 . S
C367 O377 1.272 . S
O368 Co364 2.004 . S
O368 C373 1.259 . S
Co369 O370 2.061 . S
Co369 O375 2.052 . S
Co369 O377 2.135 . S
O370 Co369 2.061 . S
O370 C373 1.235 . S
C371 O374 1.238 . S
C371 O375 1.241 . S
C372 O365 1.247 . S
C372 O366 1.261 . S
C373 O368 1.259 . S
C373 O370 1.235 . S
O374 Co364 2.021 . S
O374 C371 1.238 . S
O375 Co369 2.052 . S
O375 C371 1.241 . S
O376 Co364 2.137 . S
O376 C367 1.247 . S
O377 Co364 2.244 . S
O377 C367 1.272 . S
O377 Co369 2.135 . S
Co378 O379 2.216 . S
Co378 O380 2.091 . S
Co378 O382 2.004 . S
Co378 O388 2.021 . S
Co378 O390 2.137 1_556 S
Co378 O391 2.244 1_556 S
O379 Co378 2.216 . S
O379 C386 1.247 . S
O380 Co378 2.091 . S
O380 C386 1.261 . S
C381 O390 1.247 . S
C381 O391 1.272 . S
O382 Co378 2.004 . S
O382 C387 1.259 . S
Co383 O384 2.061 . S
Co383 O389 2.052 . S
Co383 O391 2.135 1_556 S
O384 Co383 2.061 . S
O384 C387 1.235 . S
C385 O388 1.238 . S
C385 O389 1.241 . S
C386 O379 1.247 . S
C386 O380 1.261 . S
C387 O382 1.259 . S
C387 O384 1.235 . S
O388 Co378 2.021 . S
O388 C385 1.238 . S
O389 Co383 2.052 . S
O389 C385 1.241 . S
O390 Co378 2.137 1_554 S
O390 C381 1.247 . S
O391 Co378 2.244 1_554 S
O391 C381 1.272 . S
O391 Co383 2.135 1_554 S
Co392 O393 2.216 . S
Co392 O394 2.091 . S
Co392 O396 2.004 . S
Co392 O402 2.021 . S
Co392 O404 2.137 1_556 S
Co392 O405 2.244 1_556 S
O393 Co392 2.216 . S
O393 C400 1.247 . S
O394 Co392 2.091 . S
O394 C400 1.261 . S
C395 O404 1.247 . S
C395 O405 1.272 . S
O396 Co392 2.004 . S
O396 C401 1.259 . S
Co397 O398 2.061 . S
Co397 O403 2.052 . S
Co397 O405 2.135 1_556 S
O398 Co397 2.061 . S
O398 C401 1.235 . S
C399 O402 1.238 . S
C399 O403 1.241 . S
C400 O393 1.247 . S
C400 O394 1.261 . S
C401 O396 1.259 . S
C401 O398 1.235 . S
O402 Co392 2.021 . S
O402 C399 1.238 . S
O403 Co397 2.052 . S
O403 C399 1.241 . S
O404 Co392 2.137 1_554 S
O404 C395 1.247 . S
O405 Co392 2.244 1_554 S
O405 C395 1.272 . S
O405 Co397 2.135 1_554 S
Co406 O407 2.216 . S
Co406 O408 2.091 . S
Co406 O410 2.004 . S
Co406 O416 2.021 . S
Co406 O418 2.137 1_556 S
Co406 O419 2.244 1_556 S
O407 Co406 2.216 . S
O407 C414 1.247 . S
O408 Co406 2.091 . S
O408 C414 1.261 . S
C409 O418 1.247 . S
C409 O419 1.272 . S
O410 Co406 2.004 . S
O410 C415 1.259 . S
Co411 O412 2.061 . S
Co411 O417 2.052 . S
Co411 O419 2.135 1_556 S
O412 Co411 2.061 . S
O412 C415 1.235 . S
C413 O416 1.238 . S
C413 O417 1.241 . S
C414 O407 1.247 . S
C414 O408 1.261 . S
C415 O410 1.259 . S
C415 O412 1.235 . S
O416 Co406 2.021 . S
O416 C413 1.238 . S
O417 Co411 2.052 . S
O417 C413 1.241 . S
O418 Co406 2.137 1_554 S
O418 C409 1.247 . S
O419 Co406 2.244 1_554 S
O419 C409 1.272 . S
O419 Co411 2.135 1_554 S
Co420 O421 2.216 . S
Co420 O422 2.091 . S
Co420 O424 2.004 . S
Co420 O430 2.021 . S
Co420 O432 2.137 . S
Co420 O433 2.244 . S
O421 Co420 2.216 . S
O421 C428 1.247 . S
O422 Co420 2.091 . S
O422 C428 1.261 . S
C423 O432 1.247 . S
C423 O433 1.272 . S
O424 Co420 2.004 . S
O424 C429 1.259 . S
Co425 O426 2.061 . S
Co425 O431 2.052 . S
Co425 O433 2.135 . S
O426 Co425 2.061 . S
O426 C429 1.235 . S
C427 O430 1.238 . S
C427 O431 1.241 . S
C428 O421 1.247 . S
C428 O422 1.261 . S
C429 O424 1.259 . S
C429 O426 1.235 . S
O430 Co420 2.021 . S
O430 C427 1.238 . S
O431 Co425 2.052 . S
O431 C427 1.241 . S
O432 Co420 2.137 . S
O432 C423 1.247 . S
O433 Co420 2.244 . S
O433 C423 1.272 . S
O433 Co425 2.135 . S
Co434 O435 2.216 . S
Co434 O436 2.091 . S
Co434 O438 2.004 . S
Co434 O444 2.021 . S
Co434 O446 2.137 . S
Co434 O447 2.244 . S
O435 Co434 2.216 . S
O435 C442 1.247 . S
O436 Co434 2.091 . S
O436 C442 1.261 . S
C437 O446 1.247 . S
C437 O447 1.272 . S
O438 Co434 2.004 . S
O438 C443 1.259 . S
Co439 O440 2.061 . S
Co439 O445 2.052 . S
Co439 O447 2.135 . S
O440 Co439 2.061 . S
O440 C443 1.235 . S
C441 O444 1.238 . S
C441 O445 1.241 . S
C442 O435 1.247 . S
C442 O436 1.261 . S
C443 O438 1.259 . S
C443 O440 1.235 . S
O444 Co434 2.021 . S
O444 C441 1.238 . S
O445 Co439 2.052 . S
O445 C441 1.241 . S
O446 Co434 2.137 . S
O446 C437 1.247 . S
O447 Co434 2.244 . S
O447 C437 1.272 . S
O447 Co439 2.135 . S
Co448 O449 2.216 . S
Co448 O450 2.091 . S
Co448 O452 2.004 . S
Co448 O458 2.021 . S
Co448 O460 2.137 . S
Co448 O461 2.244 . S
O449 Co448 2.216 . S
O449 C456 1.247 . S
O450 Co448 2.091 . S
O450 C456 1.261 . S
C451 O460 1.247 . S
C451 O461 1.272 . S
O452 Co448 2.004 . S
O452 C457 1.259 . S
Co453 O454 2.061 . S
Co453 O459 2.052 . S
Co453 O461 2.135 . S
O454 Co453 2.061 . S
O454 C457 1.235 . S
C455 O458 1.238 . S
C455 O459 1.241 . S
C456 O449 1.247 . S
C456 O450 1.261 . S
C457 O452 1.259 . S
C457 O454 1.235 . S
O458 Co448 2.021 . S
O458 C455 1.238 . S
O459 Co453 2.052 . S
O459 C455 1.241 . S
O460 Co448 2.137 . S
O460 C451 1.247 . S
O461 Co448 2.244 . S
O461 C451 1.272 . S
O461 Co453 2.135 . S
Co462 O463 2.216 . S
Co462 O464 2.091 . S
Co462 O466 2.004 . S
Co462 O472 2.021 . S
Co462 O474 2.137 . S
Co462 O475 2.244 . S
O463 Co462 2.216 . S
O463 C470 1.247 . S
O464 Co462 2.091 . S
O464 C470 1.261 . S
C465 O474 1.247 . S
C465 O475 1.272 . S
O466 Co462 2.004 . S
O466 C471 1.259 . S
Co467 O468 2.061 . S
Co467 O473 2.052 . S
Co467 O475 2.135 . S
O468 Co467 2.061 . S
O468 C471 1.235 . S
C469 O472 1.238 . S
C469 O473 1.241 . S
C470 O463 1.247 . S
C470 O464 1.261 . S
C471 O466 1.259 . S
C471 O468 1.235 . S
O472 Co462 2.021 . S
O472 C469 1.238 . S
O473 Co467 2.052 . S
O473 C469 1.241 . S
O474 Co462 2.137 . S
O474 C465 1.247 . S
O475 Co462 2.244 . S
O475 C465 1.272 . S
O475 Co467 2.135 . S
Co476 O477 2.216 . S
Co476 O478 2.091 . S
Co476 O480 2.004 . S
Co476 O486 2.021 . S
Co476 O488 2.137 . S
Co476 O489 2.244 . S
O477 Co476 2.216 . S
O477 C484 1.247 . S
O478 Co476 2.091 . S
O478 C484 1.261 . S
C479 O488 1.247 . S
C479 O489 1.272 . S
O480 Co476 2.004 . S
O480 C485 1.259 . S
Co481 O482 2.061 . S
Co481 O487 2.052 . S
Co481 O489 2.135 . S
O482 Co481 2.061 . S
O482 C485 1.235 . S
C483 O486 1.238 . S
C483 O487 1.241 . S
C484 O477 1.247 . S
C484 O478 1.261 . S
C485 O480 1.259 . S
C485 O482 1.235 . S
O486 Co476 2.021 . S
O486 C483 1.238 . S
O487 Co481 2.052 . S
O487 C483 1.241 . S
O488 Co476 2.137 . S
O488 C479 1.247 . S
O489 Co476 2.244 . S
O489 C479 1.272 . S
O489 Co481 2.135 . S
Co490 O491 2.216 . S
Co490 O492 2.091 . S
Co490 O494 2.004 . S
Co490 O500 2.021 . S
Co490 O502 2.137 . S
Co490 O503 2.244 . S
O491 Co490 2.216 . S
O491 C498 1.247 . S
O492 Co490 2.091 . S
O492 C498 1.261 . S
C493 O502 1.247 . S
C493 O503 1.272 . S
O494 Co490 2.004 . S
O494 C499 1.259 . S
Co495 O496 2.061 . S
Co495 O501 2.052 . S
Co495 O503 2.135 . S
O496 Co495 2.061 . S
O496 C499 1.235 . S
C497 O500 1.238 . S
C497 O501 1.241 . S
C498 O491 1.247 . S
C498 O492 1.261 . S
C499 O494 1.259 . S
C499 O496 1.235 . S
O500 Co490 2.021 . S
O500 C497 1.238 . S
O501 Co495 2.052 . S
O501 C497 1.241 . S
O502 Co490 2.137 . S
O502 C493 1.247 . S
O503 Co490 2.244 . S
O503 C493 1.272 . S
O503 Co495 2.135 . S
C504 C505 1.369 . S
C504 C506 1.419 . S
C504 H508 0.930 . S
C505 C504 1.369 . S
C505 C514 1.429 . S
C506 C504 1.419 . S
C506 C507 1.363 1_556 S
C506 H509 0.929 1_556 S
C507 C506 1.363 1_554 S
C507 C513 1.428 1_554 S
H508 C504 0.930 . S
H509 C506 0.929 1_554 S
S510 N511 1.613 . S
S510 N512 1.610 1_556 S
N511 S510 1.613 . S
N511 C514 1.350 . S
N512 S510 1.610 1_554 S
N512 C513 1.351 1_554 S
C513 C507 1.428 1_556 S
C513 N512 1.351 1_556 S
C513 C514 1.434 . S
C514 C505 1.429 . S
C514 N511 1.350 . S
C514 C513 1.434 . S
C515 C516 1.369 . S
C515 C517 1.419 . S
C515 H519 0.930 . S
C516 C515 1.369 . S
C516 C525 1.429 . S
C517 C515 1.419 . S
C517 C518 1.363 1_556 S
C517 H520 0.929 1_556 S
C518 C517 1.363 1_554 S
C518 C524 1.428 1_554 S
H519 C515 0.930 . S
H520 C517 0.929 1_554 S
S521 N522 1.613 . S
S521 N523 1.610 1_556 S
N522 S521 1.613 . S
N522 C525 1.350 . S
N523 S521 1.610 1_554 S
N523 C524 1.351 1_554 S
C524 C518 1.428 1_556 S
C524 N523 1.351 1_556 S
C524 C525 1.434 . S
C525 C516 1.429 . S
C525 N522 1.350 . S
C525 C524 1.434 . S
C526 C527 1.369 1_556 S
C526 C528 1.419 . S
C526 H530 0.930 1_556 S
C527 C526 1.369 1_554 S
C527 C536 1.429 1_554 S
C528 C526 1.419 . S
C528 C529 1.363 . S
C528 H531 0.929 . S
C529 C528 1.363 . S
C529 C535 1.428 . S
H530 C526 0.930 1_554 S
H531 C528 0.929 . S
S532 N533 1.613 1_556 S
S532 N534 1.610 . S
N533 S532 1.613 1_554 S
N533 C536 1.350 1_554 S
N534 S532 1.610 . S
N534 C535 1.351 . S
C535 C529 1.428 . S
C535 N534 1.351 . S
C535 C536 1.434 . S
C536 C527 1.429 1_556 S
C536 N533 1.350 1_556 S
C536 C535 1.434 . S
C537 C538 1.369 . S
C537 C539 1.419 . S
C537 H541 0.930 . S
C538 C537 1.369 . S
C538 C547 1.429 . S
C539 C537 1.419 . S
C539 C540 1.363 . S
C539 H542 0.929 . S
C540 C539 1.363 . S
C540 C546 1.428 . S
H541 C537 0.930 . S
H542 C539 0.929 . S
S543 N544 1.613 . S
S543 N545 1.610 . S
N544 S543 1.613 . S
N544 C547 1.350 . S
N545 S543 1.610 . S
N545 C546 1.351 . S
C546 C540 1.428 . S
C546 N545 1.351 . S
C546 C547 1.434 . S
C547 C538 1.429 . S
C547 N544 1.350 . S
C547 C546 1.434 . S
C548 C549 1.369 . S
C548 C550 1.419 . S
C548 H552 0.930 . S
C549 C548 1.369 . S
C549 C558 1.429 . S
C550 C548 1.419 . S
C550 C551 1.363 . S
C550 H553 0.929 . S
C551 C550 1.363 . S
C551 C557 1.428 . S
H552 C548 0.930 . S
H553 C550 0.929 . S
S554 N555 1.613 . S
S554 N556 1.610 . S
N555 S554 1.613 . S
N555 C558 1.350 . S
N556 S554 1.610 . S
N556 C557 1.351 . S
C557 C551 1.428 . S
C557 N556 1.351 . S
C557 C558 1.434 . S
C558 C549 1.429 . S
C558 N555 1.350 . S
C558 C557 1.434 . S
C559 C560 1.369 . S
C559 C561 1.419 . S
C559 H563 0.930 . S
C560 C559 1.369 . S
C560 C569 1.429 . S
C561 C559 1.419 . S
C561 C562 1.363 . S
C561 H564 0.929 . S
C562 C561 1.363 . S
C562 C568 1.428 . S
H563 C559 0.930 . S
H564 C561 0.929 . S
S565 N566 1.613 . S
S565 N567 1.610 . S
N566 S565 1.613 . S
N566 C569 1.350 . S
N567 S565 1.610 . S
N567 C568 1.351 . S
C568 C562 1.428 . S
C568 N567 1.351 . S
C568 C569 1.434 . S
C569 C560 1.429 . S
C569 N566 1.350 . S
C569 C568 1.434 . S
C570 C571 1.369 . S
C570 C572 1.419 . S
C570 H574 0.930 . S
C571 C570 1.369 . S
C571 C580 1.429 . S
C572 C570 1.419 . S
C572 C573 1.363 1_554 S
C572 H575 0.929 1_554 S
C573 C572 1.363 1_556 S
C573 C579 1.428 1_556 S
H574 C570 0.930 . S
H575 C572 0.929 1_556 S
S576 N577 1.613 . S
S576 N578 1.610 1_554 S
N577 S576 1.613 . S
N577 C580 1.350 . S
N578 S576 1.610 1_556 S
N578 C579 1.351 1_556 S
C579 C573 1.428 1_554 S
C579 N578 1.351 1_554 S
C579 C580 1.434 . S
C580 C571 1.429 . S
C580 N577 1.350 . S
C580 C579 1.434 . S
C581 C582 1.369 . S
C581 C583 1.419 . S
C581 H585 0.930 . S
C582 C581 1.369 . S
C582 C591 1.429 . S
C583 C581 1.419 . S
C583 C584 1.363 1_554 S
C583 H586 0.929 1_554 S
C584 C583 1.363 1_556 S
C584 C590 1.428 1_556 S
H585 C581 0.930 . S
H586 C583 0.929 1_556 S
S587 N588 1.613 . S
S587 N589 1.610 1_554 S
N588 S587 1.613 . S
N588 C591 1.350 . S
N589 S587 1.610 1_556 S
N589 C590 1.351 1_556 S
C590 C584 1.428 1_554 S
C590 N589 1.351 1_554 S
C590 C591 1.434 . S
C591 C582 1.429 . S
C591 N588 1.350 . S
C591 C590 1.434 . S
C592 C593 1.369 1_554 S
C592 C594 1.419 . S
C592 H596 0.930 1_554 S
C593 C592 1.369 1_556 S
C593 C602 1.429 1_556 S
C594 C592 1.419 . S
C594 C595 1.363 . S
C594 H597 0.929 . S
C595 C594 1.363 . S
C595 C601 1.428 . S
H596 C592 0.930 1_556 S
H597 C594 0.929 . S
S598 N599 1.613 1_554 S
S598 N600 1.610 . S
N599 S598 1.613 1_556 S
N599 C602 1.350 1_556 S
N600 S598 1.610 . S
N600 C601 1.351 . S
C601 C595 1.428 . S
C601 N600 1.351 . S
C601 C602 1.434 . S
C602 C593 1.429 1_554 S
C602 N599 1.350 1_554 S
C602 C601 1.434 . S
C603 C604 1.369 . S
C603 C605 1.419 . S
C603 H607 0.930 . S
C604 C603 1.369 . S
C604 C613 1.429 . S
C605 C603 1.419 . S
C605 C606 1.363 . S
C605 H608 0.929 . S
C606 C605 1.363 . S
C606 C612 1.428 . S
H607 C603 0.930 . S
H608 C605 0.929 . S
S609 N610 1.613 . S
S609 N611 1.610 . S
N610 S609 1.613 . S
N610 C613 1.350 . S
N611 S609 1.610 . S
N611 C612 1.351 . S
C612 C606 1.428 . S
C612 N611 1.351 . S
C612 C613 1.434 . S
C613 C604 1.429 . S
C613 N610 1.350 . S
C613 C612 1.434 . S
C614 C615 1.369 . S
C614 C616 1.419 . S
C614 H618 0.930 . S
C615 C614 1.369 . S
C615 C624 1.429 . S
C616 C614 1.419 . S
C616 C617 1.363 . S
C616 H619 0.929 . S
C617 C616 1.363 . S
C617 C623 1.428 . S
H618 C614 0.930 . S
H619 C616 0.929 . S
S620 N621 1.613 . S
S620 N622 1.610 . S
N621 S620 1.613 . S
N621 C624 1.350 . S
N622 S620 1.610 . S
N622 C623 1.351 . S
C623 C617 1.428 . S
C623 N622 1.351 . S
C623 C624 1.434 . S
C624 C615 1.429 . S
C624 N621 1.350 . S
C624 C623 1.434 . S
C625 C626 1.369 . S
C625 C627 1.419 . S
C625 H629 0.930 . S
C626 C625 1.369 . S
C626 C635 1.429 . S
C627 C625 1.419 . S
C627 C628 1.363 . S
C627 H630 0.929 . S
C628 C627 1.363 . S
C628 C634 1.428 . S
H629 C625 0.930 . S
H630 C627 0.929 . S
S631 N632 1.613 . S
S631 N633 1.610 . S
N632 S631 1.613 . S
N632 C635 1.350 . S
N633 S631 1.610 . S
N633 C634 1.351 . S
C634 C628 1.428 . S
C634 N633 1.351 . S
C634 C635 1.434 . S
C635 C626 1.429 . S
C635 N632 1.350 . S
C635 C634 1.434 . S
C636 C637 1.369 . S
C636 C638 1.419 . S
C636 H640 0.930 . S
C637 C636 1.369 . S
C637 C646 1.429 . S
C638 C636 1.419 . S
C638 C639 1.363 . S
C638 H641 0.929 . S
C639 C638 1.363 . S
C639 C645 1.428 . S
H640 C636 0.930 . S
H641 C638 0.929 . S
S642 N643 1.613 . S
S642 N644 1.610 . S
N643 S642 1.613 . S
N643 C646 1.350 . S
N644 S642 1.610 . S
N644 C645 1.351 . S
C645 C639 1.428 . S
C645 N644 1.351 . S
C645 C646 1.434 . S
C646 C637 1.429 . S
C646 N643 1.350 . S
C646 C645 1.434 . S
C647 C648 1.369 . S
C647 C649 1.419 . S
C647 H651 0.930 . S
C648 C647 1.369 . S
C648 C657 1.429 . S
C649 C647 1.419 . S
C649 C650 1.363 . S
C649 H652 0.929 . S
C650 C649 1.363 . S
C650 C656 1.428 . S
H651 C647 0.930 . S
H652 C649 0.929 . S
S653 N654 1.613 . S
S653 N655 1.610 . S
N654 S653 1.613 . S
N654 C657 1.350 . S
N655 S653 1.610 . S
N655 C656 1.351 . S
C656 C650 1.428 . S
C656 N655 1.351 . S
C656 C657 1.434 . S
C657 C648 1.429 . S
C657 N654 1.350 . S
C657 C656 1.434 . S
C658 C659 1.369 . S
C658 C660 1.419 . S
C658 H662 0.930 . S
C659 C658 1.369 . S
C659 C668 1.429 . S
C660 C658 1.419 . S
C660 C661 1.363 . S
C660 H663 0.929 . S
C661 C660 1.363 . S
C661 C667 1.428 . S
H662 C658 0.930 . S
H663 C660 0.929 . S
S664 N665 1.613 . S
S664 N666 1.610 . S
N665 S664 1.613 . S
N665 C668 1.350 . S
N666 S664 1.610 . S
N666 C667 1.351 . S
C667 C661 1.428 . S
C667 N666 1.351 . S
C667 C668 1.434 . S
C668 C659 1.429 . S
C668 N665 1.350 . S
C668 C667 1.434 . S
C669 C670 1.369 . S
C669 C671 1.419 . S
C669 H673 0.930 . S
C670 C669 1.369 . S
C670 C679 1.429 . S
C671 C669 1.419 . S
C671 C672 1.363 . S
C671 H674 0.929 . S
C672 C671 1.363 . S
C672 C678 1.428 . S
H673 C669 0.930 . S
H674 C671 0.929 . S
S675 N676 1.613 . S
S675 N677 1.610 . S
N676 S675 1.613 . S
N676 C679 1.350 . S
N677 S675 1.610 . S
N677 C678 1.351 . S
C678 C672 1.428 . S
C678 N677 1.351 . S
C678 C679 1.434 . S
C679 C670 1.429 . S
C679 N676 1.350 . S
C679 C678 1.434 . S
C680 C681 1.369 . S
C680 C682 1.419 . S
C680 H684 0.930 . S
C681 C680 1.369 . S
C681 C690 1.429 . S
C682 C680 1.419 . S
C682 C683 1.363 . S
C682 H685 0.929 . S
C683 C682 1.363 . S
C683 C689 1.428 . S
H684 C680 0.930 . S
H685 C682 0.929 . S
S686 N687 1.613 . S
S686 N688 1.610 . S
N687 S686 1.613 . S
N687 C690 1.350 . S
N688 S686 1.610 . S
N688 C689 1.351 . S
C689 C683 1.428 . S
C689 N688 1.351 . S
C689 C690 1.434 . S
C690 C681 1.429 . S
C690 N687 1.350 . S
C690 C689 1.434 . S
C691 C692 1.369 . S
C691 C693 1.419 . S
C691 H695 0.930 . S
C692 C691 1.369 . S
C692 C701 1.429 . S
C693 C691 1.419 . S
C693 C694 1.363 . S
C693 H696 0.929 . S
C694 C693 1.363 . S
C694 C700 1.428 . S
H695 C691 0.930 . S
H696 C693 0.929 . S
S697 N698 1.613 . S
S697 N699 1.610 . S
N698 S697 1.613 . S
N698 C701 1.350 . S
N699 S697 1.610 . S
N699 C700 1.351 . S
C700 C694 1.428 . S
C700 N699 1.351 . S
C700 C701 1.434 . S
C701 C692 1.429 . S
C701 N698 1.350 . S
C701 C700 1.434 . S
C702 C703 1.369 . S
C702 C704 1.419 . S
C702 H706 0.930 . S
C703 C702 1.369 . S
C703 C712 1.429 . S
C704 C702 1.419 . S
C704 C705 1.363 . S
C704 H707 0.929 . S
C705 C704 1.363 . S
C705 C711 1.428 . S
H706 C702 0.930 . S
H707 C704 0.929 . S
S708 N709 1.613 . S
S708 N710 1.610 . S
N709 S708 1.613 . S
N709 C712 1.350 . S
N710 S708 1.610 . S
N710 C711 1.351 . S
C711 C705 1.428 . S
C711 N710 1.351 . S
C711 C712 1.434 . S
C712 C703 1.429 . S
C712 N709 1.350 . S
C712 C711 1.434 . S
C713 C714 1.369 . S
C713 C715 1.419 . S
C713 H717 0.930 . S
C714 C713 1.369 . S
C714 C723 1.429 . S
C715 C713 1.419 . S
C715 C716 1.363 . S
C715 H718 0.929 . S
C716 C715 1.363 . S
C716 C722 1.428 . S
H717 C713 0.930 . S
H718 C715 0.929 . S
S719 N720 1.613 . S
S719 N721 1.610 . S
N720 S719 1.613 . S
N720 C723 1.350 . S
N721 S719 1.610 . S
N721 C722 1.351 . S
C722 C716 1.428 . S
C722 N721 1.351 . S
C722 C723 1.434 . S
C723 C714 1.429 . S
C723 N720 1.350 . S
C723 C722 1.434 . S
C724 C725 1.369 . S
C724 C726 1.419 . S
C724 H728 0.930 . S
C725 C724 1.369 . S
C725 C734 1.429 . S
C726 C724 1.419 . S
C726 C727 1.363 . S
C726 H729 0.929 . S
C727 C726 1.363 . S
C727 C733 1.428 . S
H728 C724 0.930 . S
H729 C726 0.929 . S
S730 N731 1.613 . S
S730 N732 1.610 . S
N731 S730 1.613 . S
N731 C734 1.350 . S
N732 S730 1.610 . S
N732 C733 1.351 . S
C733 C727 1.428 . S
C733 N732 1.351 . S
C733 C734 1.434 . S
C734 C725 1.429 . S
C734 N731 1.350 . S
C734 C733 1.434 . S
C735 C736 1.369 . S
C735 C737 1.419 . S
C735 H739 0.930 . S
C736 C735 1.369 . S
C736 C745 1.429 . S
C737 C735 1.419 . S
C737 C738 1.363 . S
C737 H740 0.929 . S
C738 C737 1.363 . S
C738 C744 1.428 . S
H739 C735 0.930 . S
H740 C737 0.929 . S
S741 N742 1.613 . S
S741 N743 1.610 . S
N742 S741 1.613 . S
N742 C745 1.350 . S
N743 S741 1.610 . S
N743 C744 1.351 . S
C744 C738 1.428 . S
C744 N743 1.351 . S
C744 C745 1.434 . S
C745 C736 1.429 . S
C745 N742 1.350 . S
C745 C744 1.434 . S
C746 C747 1.369 . S
C746 C748 1.419 . S
C746 H750 0.930 . S
C747 C746 1.369 . S
C747 C756 1.429 . S
C748 C746 1.419 . S
C748 C749 1.363 . S
C748 H751 0.929 . S
C749 C748 1.363 . S
C749 C755 1.428 . S
H750 C746 0.930 . S
H751 C748 0.929 . S
S752 N753 1.613 . S
S752 N754 1.610 . S
N753 S752 1.613 . S
N753 C756 1.350 . S
N754 S752 1.610 . S
N754 C755 1.351 . S
C755 C749 1.428 . S
C755 N754 1.351 . S
C755 C756 1.434 . S
C756 C747 1.429 . S
C756 N753 1.350 . S
C756 C755 1.434 . S
C757 C758 1.369 . S
C757 C759 1.419 . S
C757 H761 0.930 . S
C758 C757 1.369 . S
C758 C767 1.429 . S
C759 C757 1.419 . S
C759 C760 1.363 . S
C759 H762 0.929 . S
C760 C759 1.363 . S
C760 C766 1.428 . S
H761 C757 0.930 . S
H762 C759 0.929 . S
S763 N764 1.613 . S
S763 N765 1.610 . S
N764 S763 1.613 . S
N764 C767 1.350 . S
N765 S763 1.610 . S
N765 C766 1.351 . S
C766 C760 1.428 . S
C766 N765 1.351 . S
C766 C767 1.434 . S
C767 C758 1.429 . S
C767 N764 1.350 . S
C767 C766 1.434 . S
C768 C769 1.369 . S
C768 C770 1.419 . S
C768 H772 0.930 . S
C769 C768 1.369 . S
C769 C778 1.429 . S
C770 C768 1.419 . S
C770 C771 1.363 . S
C770 H773 0.929 . S
C771 C770 1.363 . S
C771 C777 1.428 . S
H772 C768 0.930 . S
H773 C770 0.929 . S
S774 N775 1.613 . S
S774 N776 1.610 . S
N775 S774 1.613 . S
N775 C778 1.350 . S
N776 S774 1.610 . S
N776 C777 1.351 . S
C777 C771 1.428 . S
C777 N776 1.351 . S
C777 C778 1.434 . S
C778 C769 1.429 . S
C778 N775 1.350 . S
C778 C777 1.434 . S
C779 C780 1.369 . S
C779 C781 1.419 . S
C779 H783 0.930 . S
C780 C779 1.369 . S
C780 C789 1.429 . S
C781 C779 1.419 . S
C781 C782 1.363 . S
C781 H784 0.929 . S
C782 C781 1.363 . S
C782 C788 1.428 . S
H783 C779 0.930 . S
H784 C781 0.929 . S
S785 N786 1.613 . S
S785 N787 1.610 . S
N786 S785 1.613 . S
N786 C789 1.350 . S
N787 S785 1.610 . S
N787 C788 1.351 . S
C788 C782 1.428 . S
C788 N787 1.351 . S
C788 C789 1.434 . S
C789 C780 1.429 . S
C789 N786 1.350 . S
C789 C788 1.434 . S
C790 C791 1.369 . S
C790 C792 1.419 . S
C790 H794 0.930 . S
C791 C790 1.369 . S
C791 C800 1.429 . S
C792 C790 1.419 . S
C792 C793 1.363 . S
C792 H795 0.929 . S
C793 C792 1.363 . S
C793 C799 1.428 . S
H794 C790 0.930 . S
H795 C792 0.929 . S
S796 N797 1.613 . S
S796 N798 1.610 . S
N797 S796 1.613 . S
N797 C800 1.350 . S
N798 S796 1.610 . S
N798 C799 1.351 . S
C799 C793 1.428 . S
C799 N798 1.351 . S
C799 C800 1.434 . S
C800 C791 1.429 . S
C800 N797 1.350 . S
C800 C799 1.434 . S
C801 C802 1.369 . S
C801 C803 1.419 . S
C801 H805 0.930 . S
C802 C801 1.369 . S
C802 C811 1.429 . S
C803 C801 1.419 . S
C803 C804 1.363 . S
C803 H806 0.929 . S
C804 C803 1.363 . S
C804 C810 1.428 . S
H805 C801 0.930 . S
H806 C803 0.929 . S
S807 N808 1.613 . S
S807 N809 1.610 . S
N808 S807 1.613 . S
N808 C811 1.350 . S
N809 S807 1.610 . S
N809 C810 1.351 . S
C810 C804 1.428 . S
C810 N809 1.351 . S
C810 C811 1.434 . S
C811 C802 1.429 . S
C811 N808 1.350 . S
C811 C810 1.434 . S
C812 C813 1.369 . S
C812 C814 1.419 . S
C812 H816 0.930 . S
C813 C812 1.369 . S
C813 C822 1.429 . S
C814 C812 1.419 . S
C814 C815 1.363 . S
C814 H817 0.929 . S
C815 C814 1.363 . S
C815 C821 1.428 . S
H816 C812 0.930 . S
H817 C814 0.929 . S
S818 N819 1.613 . S
S818 N820 1.610 . S
N819 S818 1.613 . S
N819 C822 1.350 . S
N820 S818 1.610 . S
N820 C821 1.351 . S
C821 C815 1.428 . S
C821 N820 1.351 . S
C821 C822 1.434 . S
C822 C813 1.429 . S
C822 N819 1.350 . S
C822 C821 1.434 . S
C823 C824 1.369 . S
C823 C825 1.419 . S
C823 H827 0.930 . S
C824 C823 1.369 . S
C824 C833 1.429 . S
C825 C823 1.419 . S
C825 C826 1.363 . S
C825 H828 0.929 . S
C826 C825 1.363 . S
C826 C832 1.428 . S
H827 C823 0.930 . S
H828 C825 0.929 . S
S829 N830 1.613 . S
S829 N831 1.610 . S
N830 S829 1.613 . S
N830 C833 1.350 . S
N831 S829 1.610 . S
N831 C832 1.351 . S
C832 C826 1.428 . S
C832 N831 1.351 . S
C832 C833 1.434 . S
C833 C824 1.429 . S
C833 N830 1.350 . S
C833 C832 1.434 . S
C834 C835 1.369 . S
C834 C836 1.419 . S
C834 H838 0.930 . S
C835 C834 1.369 . S
C835 C844 1.429 . S
C836 C834 1.419 . S
C836 C837 1.363 . S
C836 H839 0.929 . S
C837 C836 1.363 . S
C837 C843 1.428 . S
H838 C834 0.930 . S
H839 C836 0.929 . S
S840 N841 1.613 . S
S840 N842 1.610 . S
N841 S840 1.613 . S
N841 C844 1.350 . S
N842 S840 1.610 . S
N842 C843 1.351 . S
C843 C837 1.428 . S
C843 N842 1.351 . S
C843 C844 1.434 . S
C844 C835 1.429 . S
C844 N841 1.350 . S
C844 C843 1.434 . S
C845 C846 1.369 . S
C845 C847 1.419 . S
C845 H849 0.930 . S
C846 C845 1.369 . S
C846 C855 1.429 . S
C847 C845 1.419 . S
C847 C848 1.363 . S
C847 H850 0.929 . S
C848 C847 1.363 . S
C848 C854 1.428 . S
H849 C845 0.930 . S
H850 C847 0.929 . S
S851 N852 1.613 . S
S851 N853 1.610 . S
N852 S851 1.613 . S
N852 C855 1.350 . S
N853 S851 1.610 . S
N853 C854 1.351 . S
C854 C848 1.428 . S
C854 N853 1.351 . S
C854 C855 1.434 . S
C855 C846 1.429 . S
C855 N852 1.350 . S
C855 C854 1.434 . S
C856 C857 1.369 . S
C856 C858 1.419 . S
C856 H860 0.930 . S
C857 C856 1.369 . S
C857 C866 1.429 . S
C858 C856 1.419 . S
C858 C859 1.363 . S
C858 H861 0.929 . S
C859 C858 1.363 . S
C859 C865 1.428 . S
H860 C856 0.930 . S
H861 C858 0.929 . S
S862 N863 1.613 . S
S862 N864 1.610 . S
N863 S862 1.613 . S
N863 C866 1.350 . S
N864 S862 1.610 . S
N864 C865 1.351 . S
C865 C859 1.428 . S
C865 N864 1.351 . S
C865 C866 1.434 . S
C866 C857 1.429 . S
C866 N863 1.350 . S
C866 C865 1.434 . S
C867 C868 1.369 . S
C867 C869 1.419 . S
C867 H871 0.930 . S
C868 C867 1.369 . S
C868 C877 1.429 . S
C869 C867 1.419 . S
C869 C870 1.363 . S
C869 H872 0.929 . S
C870 C869 1.363 . S
C870 C876 1.428 . S
H871 C867 0.930 . S
H872 C869 0.929 . S
S873 N874 1.613 . S
S873 N875 1.610 . S
N874 S873 1.613 . S
N874 C877 1.350 . S
N875 S873 1.610 . S
N875 C876 1.351 . S
C876 C870 1.428 . S
C876 N875 1.351 . S
C876 C877 1.434 . S
C877 C868 1.429 . S
C877 N874 1.350 . S
C877 C876 1.434 . S
C878 C879 1.369 . S
C878 C880 1.419 . S
C878 H882 0.930 . S
C879 C878 1.369 . S
C879 C888 1.429 . S
C880 C878 1.419 . S
C880 C881 1.363 . S
C880 H883 0.929 . S
C881 C880 1.363 . S
C881 C887 1.428 . S
H882 C878 0.930 . S
H883 C880 0.929 . S
S884 N885 1.613 . S
S884 N886 1.610 . S
N885 S884 1.613 . S
N885 C888 1.350 . S
N886 S884 1.610 . S
N886 C887 1.351 . S
C887 C881 1.428 . S
C887 N886 1.351 . S
C887 C888 1.434 . S
C888 C879 1.429 . S
C888 N885 1.350 . S
C888 C887 1.434 . S
C889 C890 1.369 . S
C889 C891 1.419 . S
C889 H893 0.930 . S
C890 C889 1.369 . S
C890 C899 1.429 . S
C891 C889 1.419 . S
C891 C892 1.363 . S
C891 H894 0.929 . S
C892 C891 1.363 . S
C892 C898 1.428 . S
H893 C889 0.930 . S
H894 C891 0.929 . S
S895 N896 1.613 . S
S895 N897 1.610 . S
N896 S895 1.613 . S
N896 C899 1.350 . S
N897 S895 1.610 . S
N897 C898 1.351 . S
C898 C892 1.428 . S
C898 N897 1.351 . S
C898 C899 1.434 . S
C899 C890 1.429 . S
C899 N896 1.350 . S
C899 C898 1.434 . S
C900 C901 1.369 . S
C900 C902 1.419 . S
C900 H904 0.930 . S
C901 C900 1.369 . S
C901 C910 1.429 . S
C902 C900 1.419 . S
C902 C903 1.363 . S
C902 H905 0.929 . S
C903 C902 1.363 . S
C903 C909 1.428 . S
H904 C900 0.930 . S
H905 C902 0.929 . S
S906 N907 1.613 . S
S906 N908 1.610 . S
N907 S906 1.613 . S
N907 C910 1.350 . S
N908 S906 1.610 . S
N908 C909 1.351 . S
C909 C903 1.428 . S
C909 N908 1.351 . S
C909 C910 1.434 . S
C910 C901 1.429 . S
C910 N907 1.350 . S
C910 C909 1.434 . S
C911 C912 1.369 . S
C911 C913 1.419 1_565 S
C911 H915 0.930 . S
C912 C911 1.369 . S
C912 C921 1.429 . S
C913 C911 1.419 1_545 S
C913 C914 1.363 . S
C913 H916 0.929 . S
C914 C913 1.363 . S
C914 C920 1.428 . S
H915 C911 0.930 . S
H916 C913 0.929 . S
S917 N918 1.613 . S
S917 N919 1.610 1_565 S
N918 S917 1.613 . S
N918 C921 1.350 . S
N919 S917 1.610 1_545 S
N919 C920 1.351 . S
C920 C914 1.428 . S
C920 N919 1.351 . S
C920 C921 1.434 1_545 S
C921 C912 1.429 . S
C921 N918 1.350 . S
C921 C920 1.434 1_565 S
C922 C923 1.369 . S
C922 C924 1.419 1_655 S
C922 H926 0.930 . S
C923 C922 1.369 . S
C923 C932 1.429 . S
C924 C922 1.419 1_455 S
C924 C925 1.363 . S
C924 H927 0.929 . S
C925 C924 1.363 . S
C925 C931 1.428 . S
H926 C922 0.930 . S
H927 C924 0.929 . S
S928 N929 1.613 1_455 S
S928 N930 1.610 . S
N929 S928 1.613 1_655 S
N929 C932 1.350 . S
N930 S928 1.610 . S
N930 C931 1.351 . S
C931 C925 1.428 . S
C931 N930 1.351 . S
C931 C932 1.434 1_455 S
C932 C923 1.429 . S
C932 N929 1.350 . S
C932 C931 1.434 1_655 S
C933 C934 1.369 . S
C933 C935 1.419 . S
C933 H937 0.930 . S
C934 C933 1.369 . S
C934 C943 1.429 . S
C935 C933 1.419 . S
C935 C936 1.363 . S
C935 H938 0.929 . S
C936 C935 1.363 . S
C936 C942 1.428 . S
H937 C933 0.930 . S
H938 C935 0.929 . S
S939 N940 1.613 . S
S939 N941 1.610 . S
N940 S939 1.613 . S
N940 C943 1.350 . S
N941 S939 1.610 . S
N941 C942 1.351 . S
C942 C936 1.428 . S
C942 N941 1.351 . S
C942 C943 1.434 . S
C943 C934 1.429 . S
C943 N940 1.350 . S
C943 C942 1.434 . S
C944 C945 1.369 . S
C944 C946 1.419 1_545 S
C944 H948 0.930 . S
C945 C944 1.369 . S
C945 C954 1.429 . S
C946 C944 1.419 1_565 S
C946 C947 1.363 . S
C946 H949 0.929 . S
C947 C946 1.363 . S
C947 C953 1.428 . S
H948 C944 0.930 . S
H949 C946 0.929 . S
S950 N951 1.613 1_565 S
S950 N952 1.610 . S
N951 S950 1.613 1_545 S
N951 C954 1.350 . S
N952 S950 1.610 . S
N952 C953 1.351 . S
C953 C947 1.428 . S
C953 N952 1.351 . S
C953 C954 1.434 1_565 S
C954 C945 1.429 . S
C954 N951 1.350 . S
C954 C953 1.434 1_545 S
C955 C956 1.369 . S
C955 C957 1.419 1_655 S
C955 H959 0.930 . S
C956 C955 1.369 . S
C956 C965 1.429 . S
C957 C955 1.419 1_455 S
C957 C958 1.363 . S
C957 H960 0.929 . S
C958 C957 1.363 . S
C958 C964 1.428 . S
H959 C955 0.930 . S
H960 C957 0.929 . S
S961 N962 1.613 . S
S961 N963 1.610 1_655 S
N962 S961 1.613 . S
N962 C965 1.350 . S
N963 S961 1.610 1_455 S
N963 C964 1.351 . S
C964 C958 1.428 . S
C964 N963 1.351 . S
C964 C965 1.434 1_455 S
C965 C956 1.429 . S
C965 N962 1.350 . S
C965 C964 1.434 1_655 S
C966 C967 1.369 . S
C966 C968 1.419 . S
C966 H970 0.930 . S
C967 C966 1.369 . S
C967 C976 1.429 . S
C968 C966 1.419 . S
C968 C969 1.363 . S
C968 H971 0.929 . S
C969 C968 1.363 . S
C969 C975 1.428 . S
H970 C966 0.930 . S
H971 C968 0.929 . S
S972 N973 1.613 . S
S972 N974 1.610 . S
N973 S972 1.613 . S
N973 C976 1.350 . S
N974 S972 1.610 . S
N974 C975 1.351 . S
C975 C969 1.428 . S
C975 N974 1.351 . S
C975 C976 1.434 . S
C976 C967 1.429 . S
C976 N973 1.350 . S
C976 C975 1.434 . S
C977 C978 1.369 . S
C977 C979 1.419 . S
C977 H981 0.930 . S
C978 C977 1.369 . S
C978 C987 1.429 . S
C979 C977 1.419 . S
C979 C980 1.363 . S
C979 H982 0.929 . S
C980 C979 1.363 . S
C980 C986 1.428 . S
H981 C977 0.930 . S
H982 C979 0.929 . S
S983 N984 1.613 . S
S983 N985 1.610 . S
N984 S983 1.613 . S
N984 C987 1.350 . S
N985 S983 1.610 . S
N985 C986 1.351 . S
C986 C980 1.428 . S
C986 N985 1.351 . S
C986 C987 1.434 . S
C987 C978 1.429 . S
C987 N984 1.350 . S
C987 C986 1.434 . S
C988 C989 1.369 . S
C988 C990 1.419 . S
C988 H992 0.930 . S
C989 C988 1.369 . S
C989 C998 1.429 . S
C990 C988 1.419 . S
C990 C991 1.363 . S
C990 H993 0.929 . S
C991 C990 1.363 . S
C991 C997 1.428 . S
H992 C988 0.930 . S
H993 C990 0.929 . S
S994 N995 1.613 . S
S994 N996 1.610 . S
N995 S994 1.613 . S
N995 C998 1.350 . S
N996 S994 1.610 . S
N996 C997 1.351 . S
C997 C991 1.428 . S
C997 N996 1.351 . S
C997 C998 1.434 . S
C998 C989 1.429 . S
C998 N995 1.350 . S
C998 C997 1.434 . S
C999 C1000 1.369 . S
C999 C1001 1.419 . S
C999 H1003 0.930 . S
C1000 C999 1.369 . S
C1000 C1009 1.429 . S
C1001 C999 1.419 . S
C1001 C1002 1.363 . S
C1001 H1004 0.929 1_554 S
C1002 C1001 1.363 . S
C1002 C1008 1.428 . S
H1003 C999 0.930 . S
H1004 C1001 0.929 1_556 S
S1005 N1006 1.613 . S
S1005 N1007 1.610 . S
N1006 S1005 1.613 . S
N1006 C1009 1.350 . S
N1007 S1005 1.610 . S
N1007 C1008 1.351 . S
C1008 C1002 1.428 . S
C1008 N1007 1.351 . S
C1008 C1009 1.434 . S
C1009 C1000 1.429 . S
C1009 N1006 1.350 . S
C1009 C1008 1.434 . S
C1010 C1011 1.369 . S
C1010 C1012 1.419 . S
C1010 H1014 0.930 . S
C1011 C1010 1.369 . S
C1011 C1020 1.429 . S
C1012 C1010 1.419 . S
C1012 C1013 1.363 . S
C1012 H1015 0.929 . S
C1013 C1012 1.363 . S
C1013 C1019 1.428 . S
H1014 C1010 0.930 . S
H1015 C1012 0.929 . S
S1016 N1017 1.613 . S
S1016 N1018 1.610 . S
N1017 S1016 1.613 . S
N1017 C1020 1.350 1_556 S
N1018 S1016 1.610 . S
N1018 C1019 1.351 1_556 S
C1019 C1013 1.428 . S
C1019 N1018 1.351 1_554 S
C1019 C1020 1.434 . S
C1020 C1011 1.429 . S
C1020 N1017 1.350 1_554 S
C1020 C1019 1.434 . S
C1021 C1022 1.369 . S
C1021 C1023 1.419 . S
C1021 H1025 0.930 . S
C1022 C1021 1.369 . S
C1022 C1031 1.429 . S
C1023 C1021 1.419 . S
C1023 C1024 1.363 . S
C1023 H1026 0.929 1_554 S
C1024 C1023 1.363 . S
C1024 C1030 1.428 . S
H1025 C1021 0.930 . S
H1026 C1023 0.929 1_556 S
S1027 N1028 1.613 . S
S1027 N1029 1.610 . S
N1028 S1027 1.613 . S
N1028 C1031 1.350 . S
N1029 S1027 1.610 . S
N1029 C1030 1.351 . S
C1030 C1024 1.428 . S
C1030 N1029 1.351 . S
C1030 C1031 1.434 . S
C1031 C1022 1.429 . S
C1031 N1028 1.350 . S
C1031 C1030 1.434 . S
C1032 C1033 1.369 . S
C1032 C1034 1.419 . S
C1032 H1036 0.930 . S
C1033 C1032 1.369 . S
C1033 C1042 1.429 . S
C1034 C1032 1.419 . S
C1034 C1035 1.363 . S
C1034 H1037 0.929 . S
C1035 C1034 1.363 . S
C1035 C1041 1.428 . S
H1036 C1032 0.930 . S
H1037 C1034 0.929 . S
S1038 N1039 1.613 . S
S1038 N1040 1.610 . S
N1039 S1038 1.613 . S
N1039 C1042 1.350 1_554 S
N1040 S1038 1.610 . S
N1040 C1041 1.351 1_554 S
C1041 C1035 1.428 . S
C1041 N1040 1.351 1_556 S
C1041 C1042 1.434 . S
C1042 C1033 1.429 . S
C1042 N1039 1.350 1_556 S
C1042 C1041 1.434 . S
C1043 C1044 1.369 . S
C1043 C1045 1.419 . S
C1043 H1047 0.930 1_556 S
C1044 C1043 1.369 . S
C1044 C1053 1.429 . S
C1045 C1043 1.419 . S
C1045 C1046 1.363 . S
C1045 H1048 0.929 . S
C1046 C1045 1.363 . S
C1046 C1052 1.428 . S
H1047 C1043 0.930 1_554 S
H1048 C1045 0.929 . S
S1049 N1050 1.613 . S
S1049 N1051 1.610 . S
N1050 S1049 1.613 . S
N1050 C1053 1.350 . S
N1051 S1049 1.610 . S
N1051 C1052 1.351 . S
C1052 C1046 1.428 . S
C1052 N1051 1.351 . S
C1052 C1053 1.434 . S
C1053 C1044 1.429 . S
C1053 N1050 1.350 . S
C1053 C1052 1.434 . S
C1054 C1055 1.369 . S
C1054 C1056 1.419 . S
C1054 H1058 0.930 . S
C1055 C1054 1.369 . S
C1055 C1064 1.429 . S
C1056 C1054 1.419 . S
C1056 C1057 1.363 . S
C1056 H1059 0.929 . S
C1057 C1056 1.363 . S
C1057 C1063 1.428 . S
H1058 C1054 0.930 . S
H1059 C1056 0.929 . S
S1060 N1061 1.613 . S
S1060 N1062 1.610 . S
N1061 S1060 1.613 . S
N1061 C1064 1.350 . S
N1062 S1060 1.610 . S
N1062 C1063 1.351 . S
C1063 C1057 1.428 . S
C1063 N1062 1.351 . S
C1063 C1064 1.434 . S
C1064 C1055 1.429 . S
C1064 N1061 1.350 . S
C1064 C1063 1.434 . S
C1065 C1066 1.369 . S
C1065 C1067 1.419 . S
C1065 H1069 0.930 . S
C1066 C1065 1.369 . S
C1066 C1075 1.429 . S
C1067 C1065 1.419 . S
C1067 C1068 1.363 . S
C1067 H1070 0.929 . S
C1068 C1067 1.363 . S
C1068 C1074 1.428 . S
H1069 C1065 0.930 . S
H1070 C1067 0.929 . S
S1071 N1072 1.613 . S
S1071 N1073 1.610 . S
N1072 S1071 1.613 . S
N1072 C1075 1.350 . S
N1073 S1071 1.610 . S
N1073 C1074 1.351 . S
C1074 C1068 1.428 . S
C1074 N1073 1.351 . S
C1074 C1075 1.434 . S
C1075 C1066 1.429 . S
C1075 N1072 1.350 . S
C1075 C1074 1.434 . S
C1076 C1077 1.369 . S
C1076 C1078 1.419 . S
C1076 H1080 0.930 . S
C1077 C1076 1.369 . S
C1077 C1086 1.429 . S
C1078 C1076 1.419 . S
C1078 C1079 1.363 . S
C1078 H1081 0.929 . S
C1079 C1078 1.363 . S
C1079 C1085 1.428 . S
H1080 C1076 0.930 . S
H1081 C1078 0.929 . S
S1082 N1083 1.613 . S
S1082 N1084 1.610 . S
N1083 S1082 1.613 . S
N1083 C1086 1.350 . S
N1084 S1082 1.610 . S
N1084 C1085 1.351 . S
C1085 C1079 1.428 . S
C1085 N1084 1.351 . S
C1085 C1086 1.434 . S
C1086 C1077 1.429 . S
C1086 N1083 1.350 . S
C1086 C1085 1.434 . S
C1087 C1088 1.369 . S
C1087 C1089 1.419 . S
C1087 H1091 0.930 . S
C1088 C1087 1.369 . S
C1088 C1097 1.429 . S
C1089 C1087 1.419 . S
C1089 C1090 1.363 . S
C1089 H1092 0.929 . S
C1090 C1089 1.363 . S
C1090 C1096 1.428 . S
H1091 C1087 0.930 . S
H1092 C1089 0.929 . S
S1093 N1094 1.613 . S
S1093 N1095 1.610 . S
N1094 S1093 1.613 . S
N1094 C1097 1.350 . S
N1095 S1093 1.610 . S
N1095 C1096 1.351 . S
C1096 C1090 1.428 . S
C1096 N1095 1.351 . S
C1096 C1097 1.434 . S
C1097 C1088 1.429 . S
C1097 N1094 1.350 . S
C1097 C1096 1.434 . S
C1098 C1099 1.369 . S
C1098 C1100 1.419 . S
C1098 H1102 0.930 . S
C1099 C1098 1.369 . S
C1099 C1108 1.429 . S
C1100 C1098 1.419 . S
C1100 C1101 1.363 . S
C1100 H1103 0.929 . S
C1101 C1100 1.363 . S
C1101 C1107 1.428 . S
H1102 C1098 0.930 . S
H1103 C1100 0.929 . S
S1104 N1105 1.613 . S
S1104 N1106 1.610 . S
N1105 S1104 1.613 . S
N1105 C1108 1.350 . S
N1106 S1104 1.610 . S
N1106 C1107 1.351 . S
C1107 C1101 1.428 . S
C1107 N1106 1.351 . S
C1107 C1108 1.434 . S
C1108 C1099 1.429 . S
C1108 N1105 1.350 . S
C1108 C1107 1.434 . S
C1109 C1110 1.369 . S
C1109 C1111 1.419 . S
C1109 H1113 0.930 . S
C1110 C1109 1.369 . S
C1110 C1119 1.429 . S
C1111 C1109 1.419 . S
C1111 C1112 1.363 . S
C1111 H1114 0.929 . S
C1112 C1111 1.363 . S
C1112 C1118 1.428 . S
H1113 C1109 0.930 . S
H1114 C1111 0.929 . S
S1115 N1116 1.613 1_556 S
S1115 N1117 1.610 1_556 S
N1116 S1115 1.613 1_554 S
N1116 C1119 1.350 . S
N1117 S1115 1.610 1_554 S
N1117 C1118 1.351 . S
C1118 C1112 1.428 . S
C1118 N1117 1.351 . S
C1118 C1119 1.434 . S
C1119 C1110 1.429 . S
C1119 N1116 1.350 . S
C1119 C1118 1.434 . S
C1120 C1121 1.369 . S
C1120 C1122 1.419 . S
C1120 H1124 0.930 . S
C1121 C1120 1.369 . S
C1121 C1130 1.429 . S
C1122 C1120 1.419 . S
C1122 C1123 1.363 . S
C1122 H1125 0.929 . S
C1123 C1122 1.363 . S
C1123 C1129 1.428 . S
H1124 C1120 0.930 . S
H1125 C1122 0.929 . S
S1126 N1127 1.613 . S
S1126 N1128 1.610 . S
N1127 S1126 1.613 . S
N1127 C1130 1.350 . S
N1128 S1126 1.610 . S
N1128 C1129 1.351 . S
C1129 C1123 1.428 . S
C1129 N1128 1.351 . S
C1129 C1130 1.434 . S
C1130 C1121 1.429 . S
C1130 N1127 1.350 . S
C1130 C1129 1.434 . S
C1131 C1132 1.369 . S
C1131 C1133 1.419 . S
C1131 H1135 0.930 . S
C1132 C1131 1.369 . S
C1132 C1141 1.429 . S
C1133 C1131 1.419 . S
C1133 C1134 1.363 . S
C1133 H1136 0.929 . S
C1134 C1133 1.363 . S
C1134 C1140 1.428 . S
H1135 C1131 0.930 . S
H1136 C1133 0.929 . S
S1137 N1138 1.613 . S
S1137 N1139 1.610 . S
N1138 S1137 1.613 . S
N1138 C1141 1.350 . S
N1139 S1137 1.610 . S
N1139 C1140 1.351 . S
C1140 C1134 1.428 . S
C1140 N1139 1.351 . S
C1140 C1141 1.434 . S
C1141 C1132 1.429 . S
C1141 N1138 1.350 . S
C1141 C1140 1.434 . S
C1142 C1143 1.369 . S
C1142 C1144 1.419 . S
C1142 H1146 0.930 . S
C1143 C1142 1.369 . S
C1143 C1152 1.429 . S
C1144 C1142 1.419 . S
C1144 C1145 1.363 . S
C1144 H1147 0.929 . S
C1145 C1144 1.363 . S
C1145 C1151 1.428 . S
H1146 C1142 0.930 . S
H1147 C1144 0.929 . S
S1148 N1149 1.613 . S
S1148 N1150 1.610 . S
N1149 S1148 1.613 . S
N1149 C1152 1.350 . S
N1150 S1148 1.610 . S
N1150 C1151 1.351 . S
C1151 C1145 1.428 . S
C1151 N1150 1.351 . S
C1151 C1152 1.434 . S
C1152 C1143 1.429 . S
C1152 N1149 1.350 . S
C1152 C1151 1.434 . S
C1153 C1154 1.369 . S
C1153 C1155 1.419 . S
C1153 H1157 0.930 . S
C1154 C1153 1.369 . S
C1154 C1163 1.429 . S
C1155 C1153 1.419 . S
C1155 C1156 1.363 . S
C1155 H1158 0.929 . S
C1156 C1155 1.363 . S
C1156 C1162 1.428 . S
H1157 C1153 0.930 . S
H1158 C1155 0.929 . S
S1159 N1160 1.613 . S
S1159 N1161 1.610 . S
N1160 S1159 1.613 . S
N1160 C1163 1.350 . S
N1161 S1159 1.610 . S
N1161 C1162 1.351 . S
C1162 C1156 1.428 . S
C1162 N1161 1.351 . S
C1162 C1163 1.434 . S
C1163 C1154 1.429 . S
C1163 N1160 1.350 . S
C1163 C1162 1.434 . S
C1164 C1165 1.369 . S
C1164 C1166 1.419 . S
C1164 H1168 0.930 . S
C1165 C1164 1.369 . S
C1165 C1174 1.429 . S
C1166 C1164 1.419 . S
C1166 C1167 1.363 . S
C1166 H1169 0.929 . S
C1167 C1166 1.363 . S
C1167 C1173 1.428 . S
H1168 C1164 0.930 . S
H1169 C1166 0.929 . S
S1170 N1171 1.613 . S
S1170 N1172 1.610 . S
N1171 S1170 1.613 . S
N1171 C1174 1.350 . S
N1172 S1170 1.610 . S
N1172 C1173 1.351 . S
C1173 C1167 1.428 . S
C1173 N1172 1.351 . S
C1173 C1174 1.434 . S
C1174 C1165 1.429 . S
C1174 N1171 1.350 . S
C1174 C1173 1.434 . S
C1175 C1176 1.369 . S
C1175 C1177 1.419 . S
C1175 H1179 0.930 . S
C1176 C1175 1.369 . S
C1176 C1185 1.429 . S
C1177 C1175 1.419 . S
C1177 C1178 1.363 . S
C1177 H1180 0.929 . S
C1178 C1177 1.363 . S
C1178 C1184 1.428 . S
H1179 C1175 0.930 . S
H1180 C1177 0.929 . S
S1181 N1182 1.613 1_554 S
S1181 N1183 1.610 1_554 S
N1182 S1181 1.613 1_556 S
N1182 C1185 1.350 . S
N1183 S1181 1.610 1_556 S
N1183 C1184 1.351 . S
C1184 C1178 1.428 . S
C1184 N1183 1.351 . S
C1184 C1185 1.434 . S
C1185 C1176 1.429 . S
C1185 N1182 1.350 . S
C1185 C1184 1.434 . S
C1186 C1187 1.369 . S
C1186 C1188 1.419 . S
C1186 H1190 0.930 . S
C1187 C1186 1.369 . S
C1187 C1196 1.429 . S
C1188 C1186 1.419 . S
C1188 C1189 1.363 . S
C1188 H1191 0.929 . S
C1189 C1188 1.363 . S
C1189 C1195 1.428 . S
H1190 C1186 0.930 . S
H1191 C1188 0.929 . S
S1192 N1193 1.613 1_554 S
S1192 N1194 1.610 1_554 S
N1193 S1192 1.613 1_556 S
N1193 C1196 1.350 . S
N1194 S1192 1.610 1_556 S
N1194 C1195 1.351 . S
C1195 C1189 1.428 . S
C1195 N1194 1.351 . S
C1195 C1196 1.434 . S
C1196 C1187 1.429 . S
C1196 N1193 1.350 . S
C1196 C1195 1.434 . S
C1197 C1198 1.369 . S
C1197 C1199 1.419 . S
C1197 H1201 0.930 . S
C1198 C1197 1.369 . S
C1198 C1207 1.429 . S
C1199 C1197 1.419 . S
C1199 C1200 1.363 . S
C1199 H1202 0.929 . S
C1200 C1199 1.363 . S
C1200 C1206 1.428 . S
H1201 C1197 0.930 . S
H1202 C1199 0.929 . S
S1203 N1204 1.613 . S
S1203 N1205 1.610 . S
N1204 S1203 1.613 . S
N1204 C1207 1.350 . S
N1205 S1203 1.610 . S
N1205 C1206 1.351 . S
C1206 C1200 1.428 . S
C1206 N1205 1.351 . S
C1206 C1207 1.434 . S
C1207 C1198 1.429 . S
C1207 N1204 1.350 . S
C1207 C1206 1.434 . S
C1208 C1209 1.369 . S
C1208 C1210 1.419 . S
C1208 H1212 0.930 . S
C1209 C1208 1.369 . S
C1209 C1218 1.429 . S
C1210 C1208 1.419 . S
C1210 C1211 1.363 . S
C1210 H1213 0.929 . S
C1211 C1210 1.363 . S
C1211 C1217 1.428 . S
H1212 C1208 0.930 . S
H1213 C1210 0.929 . S
S1214 N1215 1.613 . S
S1214 N1216 1.610 . S
N1215 S1214 1.613 . S
N1215 C1218 1.350 . S
N1216 S1214 1.610 . S
N1216 C1217 1.351 . S
C1217 C1211 1.428 . S
C1217 N1216 1.351 . S
C1217 C1218 1.434 . S
C1218 C1209 1.429 . S
C1218 N1215 1.350 . S
C1218 C1217 1.434 . S
C1219 C1220 1.369 . S
C1219 C1221 1.419 . S
C1219 H1223 0.930 . S
C1220 C1219 1.369 . S
C1220 C1229 1.429 . S
C1221 C1219 1.419 . S
C1221 C1222 1.363 . S
C1221 H1224 0.929 . S
C1222 C1221 1.363 . S
C1222 C1228 1.428 . S
H1223 C1219 0.930 . S
H1224 C1221 0.929 . S
S1225 N1226 1.613 . S
S1225 N1227 1.610 . S
N1226 S1225 1.613 . S
N1226 C1229 1.350 . S
N1227 S1225 1.610 . S
N1227 C1228 1.351 . S
C1228 C1222 1.428 . S
C1228 N1227 1.351 . S
C1228 C1229 1.434 . S
C1229 C1220 1.429 . S
C1229 N1226 1.350 . S
C1229 C1228 1.434 . S
C1230 C1231 1.369 . S
C1230 C1232 1.419 1_455 S
C1230 H1234 0.930 . S
C1231 C1230 1.369 . S
C1231 C1240 1.429 . S
C1232 C1230 1.419 1_655 S
C1232 C1233 1.363 . S
C1232 H1235 0.929 . S
C1233 C1232 1.363 . S
C1233 C1239 1.428 . S
H1234 C1230 0.930 . S
H1235 C1232 0.929 . S
S1236 N1237 1.613 1_655 S
S1236 N1238 1.610 . S
N1237 S1236 1.613 1_455 S
N1237 C1240 1.350 . S
N1238 S1236 1.610 . S
N1238 C1239 1.351 . S
C1239 C1233 1.428 . S
C1239 N1238 1.351 . S
C1239 C1240 1.434 1_655 S
C1240 C1231 1.429 . S
C1240 N1237 1.350 . S
C1240 C1239 1.434 1_455 S
C1241 C1242 1.369 . S
C1241 C1243 1.419 . S
C1241 H1245 0.930 . S
C1242 C1241 1.369 . S
C1242 C1251 1.429 . S
C1243 C1241 1.419 . S
C1243 C1244 1.363 . S
C1243 H1246 0.929 . S
C1244 C1243 1.363 . S
C1244 C1250 1.428 . S
H1245 C1241 0.930 . S
H1246 C1243 0.929 . S
S1247 N1248 1.613 . S
S1247 N1249 1.610 . S
N1248 S1247 1.613 . S
N1248 C1251 1.350 . S
N1249 S1247 1.610 . S
N1249 C1250 1.351 . S
C1250 C1244 1.428 . S
C1250 N1249 1.351 . S
C1250 C1251 1.434 . S
C1251 C1242 1.429 . S
C1251 N1248 1.350 . S
C1251 C1250 1.434 . S
C1252 C1253 1.369 . S
C1252 C1254 1.419 1_545 S
C1252 H1256 0.930 . S
C1253 C1252 1.369 . S
C1253 C1262 1.429 . S
C1254 C1252 1.419 1_565 S
C1254 C1255 1.363 . S
C1254 H1257 0.929 . S
C1255 C1254 1.363 . S
C1255 C1261 1.428 . S
H1256 C1252 0.930 . S
H1257 C1254 0.929 . S
S1258 N1259 1.613 . S
S1258 N1260 1.610 1_545 S
N1259 S1258 1.613 . S
N1259 C1262 1.350 . S
N1260 S1258 1.610 1_565 S
N1260 C1261 1.351 . S
C1261 C1255 1.428 . S
C1261 N1260 1.351 . S
C1261 C1262 1.434 1_565 S
C1262 C1253 1.429 . S
C1262 N1259 1.350 . S
C1262 C1261 1.434 1_545 S
C1263 C1264 1.369 1_556 S
C1263 C1265 1.419 1_545 S
C1263 H1267 0.930 . S
C1264 C1263 1.369 1_554 S
C1264 C1273 1.429 . S
C1265 C1263 1.419 1_565 S
C1265 C1266 1.363 . S
C1265 H1268 0.929 . S
C1266 C1265 1.363 . S
C1266 C1272 1.428 1_556 S
H1267 C1263 0.930 . S
H1268 C1265 0.929 . S
S1269 N1270 1.613 1_565 S
S1269 N1271 1.610 . S
N1270 S1269 1.613 1_545 S
N1270 C1273 1.350 . S
N1271 S1269 1.610 . S
N1271 C1272 1.351 . S
C1272 C1266 1.428 1_554 S
C1272 N1271 1.351 . S
C1272 C1273 1.434 1_565 S
C1273 C1264 1.429 . S
C1273 N1270 1.350 . S
C1273 C1272 1.434 1_545 S
C1274 C1275 1.369 1_556 S
C1274 C1276 1.419 1_655 S
C1274 H1278 0.930 . S
C1275 C1274 1.369 1_554 S
C1275 C1284 1.429 . S
C1276 C1274 1.419 1_455 S
C1276 C1277 1.363 . S
C1276 H1279 0.929 . S
C1277 C1276 1.363 . S
C1277 C1283 1.428 1_556 S
H1278 C1274 0.930 . S
H1279 C1276 0.929 . S
S1280 N1281 1.613 1_455 S
S1280 N1282 1.610 . S
N1281 S1280 1.613 1_655 S
N1281 C1284 1.350 . S
N1282 S1280 1.610 . S
N1282 C1283 1.351 . S
C1283 C1277 1.428 1_554 S
C1283 N1282 1.351 . S
C1283 C1284 1.434 1_455 S
C1284 C1275 1.429 . S
C1284 N1281 1.350 . S
C1284 C1283 1.434 1_655 S
C1285 C1286 1.369 1_556 S
C1285 C1287 1.419 . S
C1285 H1289 0.930 . S
C1286 C1285 1.369 1_554 S
C1286 C1295 1.429 . S
C1287 C1285 1.419 . S
C1287 C1288 1.363 . S
C1287 H1290 0.929 . S
C1288 C1287 1.363 . S
C1288 C1294 1.428 1_556 S
H1289 C1285 0.930 . S
H1290 C1287 0.929 . S
S1291 N1292 1.613 . S
S1291 N1293 1.610 . S
N1292 S1291 1.613 . S
N1292 C1295 1.350 . S
N1293 S1291 1.610 . S
N1293 C1294 1.351 . S
C1294 C1288 1.428 1_554 S
C1294 N1293 1.351 . S
C1294 C1295 1.434 . S
C1295 C1286 1.429 . S
C1295 N1292 1.350 . S
C1295 C1294 1.434 . S
C505 C147 1.352 . S
C507 C3 1.293 . S
C516 C161 1.354 . S
C518 C17 1.294 . S
C527 C31 1.296 . S
C529 C133 1.352 . S
C538 C45 1.296 . S
C540 C119 1.352 . S
C549 C59 1.293 . S
C551 C91 1.354 . S
C560 C105 1.354 . S
C562 C73 1.294 . S
C571 C63 1.353 . S
C573 C87 1.293 . S
C582 C77 1.352 . S
C584 C101 1.300 . S
C593 C115 1.292 . S
C595 C49 1.352 . S
C604 C35 1.355 . S
C606 C129 1.302 . S
C615 C143 1.300 . S
C617 C7 1.355 . S
C626 C157 1.295 . S
C628 C21 1.355 . S
C637 C315 1.354 . S
C639 C171 1.302 . S
C648 C329 1.352 . S
C650 C185 1.297 . S
C659 C199 1.298 . S
C661 C301 1.355 . S
C670 C213 1.292 . S
C672 C287 1.352 1_556 S
C681 C227 1.296 . S
C683 C259 1.352 1_556 S
C692 C241 1.292 . S
C694 C273 1.353 1_556 S
C703 C231 1.354 . S
C705 C255 1.294 . S
C714 C245 1.353 . S
C716 C269 1.301 . S
C725 C217 1.356 . S
C727 C283 1.299 . S
C736 C203 1.352 . S
C738 C297 1.297 . S
C747 C175 1.353 . S
C749 C311 1.293 . S
C758 C189 1.355 . S
C760 C325 1.302 . S
C769 C339 1.292 . S
C771 C483 1.352 . S
C780 C497 1.355 . S
C782 C353 1.296 . S
C791 C469 1.352 . S
C793 C367 1.293 . S
C802 C381 1.299 . S
C804 C455 1.355 . S
C813 C395 1.303 . S
C815 C427 1.354 . S
C824 C409 1.303 . S
C826 C441 1.354 . S
C835 C399 1.353 . S
C837 C423 1.293 . S
C846 C413 1.353 . S
C848 C437 1.300 . S
C857 C385 1.352 . S
C859 C451 1.297 . S
C868 C465 1.291 . S
C870 C371 1.353 1_554 S
C879 C343 1.353 1_554 S
C881 C479 1.293 . S
C890 C493 1.301 . S
C892 C357 1.355 1_554 S
C901 C50 1.523 . S
C903 C8 1.524 . S
C912 C64 1.523 . S
C914 C22 1.524 . S
C923 C36 1.525 . S
C925 C78 1.524 . S
C934 C134 1.525 . S
C936 C92 1.524 . S
C945 C148 1.525 . S
C947 C106 1.524 . S
C956 C162 1.524 . S
C958 C120 1.525 . S
C967 C218 1.525 . S
C969 C176 1.525 . S
C978 C232 1.525 . S
C980 C190 1.524 . S
C989 C204 1.525 . S
C991 C246 1.524 . S
C1000 C260 1.525 . S
C1002 C302 1.525 . S
C1011 C316 1.525 . S
C1013 C274 1.524 . S
C1022 C288 1.525 . S
C1024 C330 1.524 . S
C1033 C386 1.525 . S
C1035 C344 1.524 . S
C1044 C400 1.523 . S
C1046 C358 1.525 . S
C1055 C372 1.523 . S
C1057 C414 1.524 . S
C1066 C428 1.523 . S
C1068 C470 1.525 . S
C1077 C442 1.525 . S
C1079 C484 1.524 . S
C1088 C456 1.523 . S
C1090 C498 1.524 . S
C1099 C9 1.490 . S
C1101 C261 1.495 . S
C1110 C275 1.494 . S
C1112 C23 1.492 . S
C1121 C289 1.490 . S
C1123 C37 1.495 . S
C1132 C471 1.495 . S
C1134 C51 1.491 . S
C1143 C485 1.495 . S
C1145 C65 1.491 . S
C1154 C499 1.490 . S
C1156 C79 1.495 . S
C1165 C93 1.496 . S
C1167 C345 1.491 . S
C1176 C359 1.495 . S
C1178 C107 1.491 . S
C1187 C373 1.496 . S
C1189 C121 1.490 . S
C1198 C135 1.496 . S
C1200 C219 1.490 . S
C1209 C149 1.489 . S
C1211 C233 1.495 . S
C1220 C163 1.492 . S
C1222 C247 1.493 . S
C1231 C429 1.496 . S
C1233 C177 1.490 . S
C1242 C443 1.493 . S
C1244 C191 1.492 . S
C1253 C205 1.490 . S
C1255 C457 1.494 . S
C1264 C303 1.496 . S
C1266 C387 1.490 . S
C1275 C317 1.496 . S
C1277 C401 1.490 . S
C1286 C331 1.490 . S
C1288 C415 1.494 . S
