# Generated by pormake.
# Topology zfy, (5)-cn, num edge types: 1
# Building blocks:
#     Node 0, Type 0, BuildingBlock: XOMCOT_clean_sbu_1, # of connection points: 5
#     Node 1, Type 0, BuildingBlock: XOMCOT_clean_sbu_1, # of connection points: 5
#     Node 2, Type 0, BuildingBlock: XOMCOT_clean_sbu_1, # of connection points: 5
#     Node 3, Type 0, BuildingBlock: XOMCOT_clean_sbu_1, # of connection points: 5
#     Node 4, Type 0, BuildingBlock: XOMCOT_clean_sbu_1, # of connection points: 5
#     Node 5, Type 0, BuildingBlock: XOMCOT_clean_sbu_1, # of connection points: 5
#     Node 6, Type 0, BuildingBlock: XOMCOT_clean_sbu_1, # of connection points: 5
#     Node 7, Type 0, BuildingBlock: XOMCOT_clean_sbu_1, # of connection points: 5
#     Node 8, Type 0, BuildingBlock: XOMCOT_clean_sbu_1, # of connection points: 5
#     Node 9, Type 0, BuildingBlock: XOMCOT_clean_sbu_1, # of connection points: 5
#     Node 10, Type 0, BuildingBlock: XOMCOT_clean_sbu_1, # of connection points: 5
#     Node 11, Type 0, BuildingBlock: XOMCOT_clean_sbu_1, # of connection points: 5
#     Node 12, Type 0, BuildingBlock: XOMCOT_clean_sbu_1, # of connection points: 5
#     Node 13, Type 0, BuildingBlock: XOMCOT_clean_sbu_1, # of connection points: 5
#     Node 14, Type 0, BuildingBlock: XOMCOT_clean_sbu_1, # of connection points: 5
#     Node 15, Type 0, BuildingBlock: XOMCOT_clean_sbu_1, # of connection points: 5
#     Edge 16, Type (0, 0), BuildingBlock: UVAHIK_clean_linker_0, # of connection points: 2
#     Edge 17, Type (0, 0), BuildingBlock: UVAHIK_clean_linker_0, # of connection points: 2
#     Edge 18, Type (0, 0), BuildingBlock: UVAHIK_clean_linker_0, # of connection points: 2
#     Edge 19, Type (0, 0), BuildingBlock: UVAHIK_clean_linker_0, # of connection points: 2
#     Edge 20, Type (0, 0), BuildingBlock: UVAHIK_clean_linker_0, # of connection points: 2
#     Edge 21, Type (0, 0), BuildingBlock: UVAHIK_clean_linker_0, # of connection points: 2
#     Edge 22, Type (0, 0), BuildingBlock: UVAHIK_clean_linker_0, # of connection points: 2
#     Edge 23, Type (0, 0), BuildingBlock: UVAHIK_clean_linker_0, # of connection points: 2
#     Edge 24, Type (0, 0), BuildingBlock: UVAHIK_clean_linker_0, # of connection points: 2
#     Edge 25, Type (0, 0), BuildingBlock: UVAHIK_clean_linker_0, # of connection points: 2
#     Edge 26, Type (0, 0), BuildingBlock: UVAHIK_clean_linker_0, # of connection points: 2
#     Edge 27, Type (0, 0), BuildingBlock: UVAHIK_clean_linker_0, # of connection points: 2
#     Edge 28, Type (0, 0), BuildingBlock: UVAHIK_clean_linker_0, # of connection points: 2
#     Edge 29, Type (0, 0), BuildingBlock: UVAHIK_clean_linker_0, # of connection points: 2
#     Edge 30, Type (0, 0), BuildingBlock: UVAHIK_clean_linker_0, # of connection points: 2
#     Edge 31, Type (0, 0), BuildingBlock: UVAHIK_clean_linker_0, # of connection points: 2
#     Edge 32, Type (0, 0), BuildingBlock: UVAHIK_clean_linker_0, # of connection points: 2
#     Edge 33, Type (0, 0), BuildingBlock: UVAHIK_clean_linker_0, # of connection points: 2
#     Edge 34, Type (0, 0), BuildingBlock: UVAHIK_clean_linker_0, # of connection points: 2
#     Edge 35, Type (0, 0), BuildingBlock: UVAHIK_clean_linker_0, # of connection points: 2
#     Edge 36, Type (0, 0), BuildingBlock: UVAHIK_clean_linker_0, # of connection points: 2
#     Edge 37, Type (0, 0), BuildingBlock: UVAHIK_clean_linker_0, # of connection points: 2
#     Edge 38, Type (0, 0), BuildingBlock: UVAHIK_clean_linker_0, # of connection points: 2
#     Edge 39, Type (0, 0), BuildingBlock: UVAHIK_clean_linker_0, # of connection points: 2
#     Edge 40, Type (0, 0), BuildingBlock: UVAHIK_clean_linker_0, # of connection points: 2
#     Edge 41, Type (0, 0), BuildingBlock: UVAHIK_clean_linker_0, # of connection points: 2
#     Edge 42, Type (0, 0), BuildingBlock: UVAHIK_clean_linker_0, # of connection points: 2
#     Edge 43, Type (0, 0), BuildingBlock: UVAHIK_clean_linker_0, # of connection points: 2
#     Edge 44, Type (0, 0), BuildingBlock: UVAHIK_clean_linker_0, # of connection points: 2
#     Edge 45, Type (0, 0), BuildingBlock: UVAHIK_clean_linker_0, # of connection points: 2
#     Edge 46, Type (0, 0), BuildingBlock: UVAHIK_clean_linker_0, # of connection points: 2
#     Edge 47, Type (0, 0), BuildingBlock: UVAHIK_clean_linker_0, # of connection points: 2
#     Edge 48, Type (0, 0), BuildingBlock: UVAHIK_clean_linker_0, # of connection points: 2
#     Edge 49, Type (0, 0), BuildingBlock: UVAHIK_clean_linker_0, # of connection points: 2
#     Edge 50, Type (0, 0), BuildingBlock: UVAHIK_clean_linker_0, # of connection points: 2
#     Edge 51, Type (0, 0), BuildingBlock: UVAHIK_clean_linker_0, # of connection points: 2
#     Edge 52, Type (0, 0), BuildingBlock: UVAHIK_clean_linker_0, # of connection points: 2
#     Edge 53, Type (0, 0), BuildingBlock: UVAHIK_clean_linker_0, # of connection points: 2
#     Edge 54, Type (0, 0), BuildingBlock: UVAHIK_clean_linker_0, # of connection points: 2
#     Edge 55, Type (0, 0), BuildingBlock: UVAHIK_clean_linker_0, # of connection points: 2
# Relax obj value: 0.141
# Max RMSD: 0.185
# Mean RMSD: 0.185
data_MOF--net-zfy--node1-XOMCOT_clean_sbu_1--edge1-UVAHIK_clean_linker_0
_symmetry_space_group_name_H-M    P1
_symmetry_Int_Tables_number       1
_symmetry_cell_setting            triclinic
loop_
_symmetry_equiv_pos_as_xyz
'x, y, z'
_cell_length_a     63.772255
_cell_length_b     63.790701
_cell_length_c     39.870428
_cell_angle_alpha  90.171535
_cell_angle_beta   90.066292
_cell_angle_gamma 90.016936
loop_
_atom_site_label
_atom_site_type_symbol
_atom_site_fract_x
_atom_site_fract_y
_atom_site_fract_z
_atom_type_partial_charge
C0 C 0.29404 0.25236 0.04318 0.0
C1 C 0.2866 0.26053 0.07276 0.0
N2 N 0.28759 0.24556 0.09654 0.0
N3 N 0.29989 0.23232 0.04797 0.0
C4 C 0.29579 0.22855 0.08078 0.0
H5 H 0.29494 0.26049 0.01948 0.0
Co6 Co 0.30977 0.21555 1.01293 0.0
C7 C 0.32774 0.17728 0.04376 0.0
O8 O 0.32071 0.16629 0.0182 0.0
N9 N 0.31994 0.19913 0.97636 0.0
C10 C 0.32315 0.18181 0.92804 0.0
C11 C 0.30931 0.19101 0.95001 0.0
C12 C 0.34032 0.1948 0.96937 0.0
N13 N 0.34272 0.18421 0.94015 0.0
O14 O 0.33428 0.23316 1.00931 0.0
H15 H 0.29263 0.19204 0.9461 0.0
H16 H 0.35318 0.19935 0.98556 0.0
O17 O 0.32422 0.19704 0.04528 0.0
C18 C 0.33247 0.2445 0.98312 0.0
O19 O 0.31543 0.24262 0.96479 0.0
N20 N 0.28439 0.20031 1.01414 0.0
C21 C 0.24605 0.18082 1.00098 0.0
C22 C 0.25959 0.17292 0.0257 0.0
C23 C 0.27848 0.18332 0.0327 0.0
C24 C 0.27041 0.20935 0.99273 0.0
C25 C 0.25125 0.1998 0.98552 0.0
H26 H 0.28819 0.17744 0.05265 0.0
H27 H 0.27481 0.22346 0.9795 0.0
H28 H 0.29827 0.21351 0.09261 0.0
H29 H 0.28103 0.27639 0.07641 0.0
H30 H 0.31908 0.1745 0.90438 0.0
H31 H 0.25572 0.1587 0.03914 0.0
H32 H 0.24118 0.2066 0.96656 0.0
C33 C 0.51905 0.5478 0.28994 0.0
C34 C 0.51148 0.53985 0.31946 0.0
N35 N 0.52685 0.54067 0.34268 0.0
N36 N 0.53912 0.55379 0.29419 0.0
C37 C 0.54352 0.54932 0.32669 0.0
H38 H 0.51052 0.54898 0.26657 0.0
Co39 Co 0.55429 0.56412 0.25794 0.0
C40 C 0.59513 0.57934 0.28365 0.0
O41 O 0.60397 0.57211 0.2562 0.0
N42 N 0.5688 0.57475 0.2198 0.0
C43 C 0.58211 0.57868 0.16854 0.0
C44 C 0.57446 0.56458 0.19142 0.0
C45 C 0.57324 0.59516 0.21324 0.0
N46 N 0.58123 0.59798 0.18215 0.0
O47 O 0.53785 0.58944 0.2595 0.0
H48 H 0.57268 0.54805 0.18665 0.0
H49 H 0.56991 0.60782 0.23055 0.0
O50 O 0.5754 0.57682 0.2883 0.0
C51 C 0.52459 0.59061 0.23561 0.0
O52 O 0.52388 0.57552 0.21316 0.0
N53 N 0.56846 0.53809 0.25512 0.0
C54 C 0.58573 0.49894 0.24004 0.0
C55 C 0.59467 0.51174 0.26492 0.0
C56 C 0.58537 0.53102 0.27291 0.0
C57 C 0.5584 0.52489 0.23348 0.0
C58 C 0.56688 0.50537 0.22522 0.0
H59 H 0.5919 0.54001 0.29328 0.0
H60 H 0.54421 0.53009 0.22117 0.0
H61 H 0.55873 0.55182 0.33809 0.0
H62 H 0.49575 0.53402 0.3235 0.0
H63 H 0.58768 0.57497 0.14359 0.0
H64 H 0.60873 0.50689 0.27805 0.0
H65 H 0.55924 0.49584 0.20629 0.0
C66 C 0.23841 0.78462 0.5388 0.0
C67 C 0.24556 0.77496 0.56733 0.0
N68 N 0.23097 0.77713 0.59147 0.0
N69 N 0.21945 0.79328 0.5447 0.0
C70 C 0.21501 0.78767 0.57672 0.0
H71 H 0.24687 0.7855 0.51543 0.0
Co72 Co 0.20387 0.80968 0.51371 0.0
C73 C 0.19835 0.83472 0.57835 0.0
O74 O 0.21712 0.83034 0.59003 0.0
N75 N 0.18837 0.82582 0.48303 0.0
C76 C 0.17486 0.85375 0.4577 0.0
C77 C 0.1877 0.84699 0.48299 0.0
C78 C 0.17531 0.82005 0.45773 0.0
N79 N 0.16703 0.83686 0.44188 0.0
O80 O 0.18053 0.7906 0.51774 0.0
H81 H 0.1956 0.85705 0.50076 0.0
H82 H 0.17189 0.80395 0.45108 0.0
O83 O 0.19252 0.82756 0.54979 0.0
C84 C 0.18451 0.77371 0.5017 0.0
O85 O 0.20295 0.77166 0.4874 0.0
N86 N 0.22756 0.82696 0.50593 0.0
C87 C 0.26387 0.84695 0.48301 0.0
C88 C 0.2522 0.85548 0.50955 0.0
C89 C 0.23406 0.84523 0.52073 0.0
C90 C 0.23832 0.81906 0.47921 0.0
C91 C 0.25667 0.82852 0.46775 0.0
H92 H 0.22507 0.85263 0.54019 0.0
H93 H 0.23262 0.80505 0.46685 0.0
H94 H 0.20061 0.79183 0.58939 0.0
H95 H 0.26082 0.7678 0.57047 0.0
H96 H 0.17098 0.86988 0.45201 0.0
H97 H 0.25705 0.86996 0.52152 0.0
H98 H 0.26491 0.8217 0.44663 0.0
C99 C 0.98411 0.48192 0.79362 0.0
C100 C 0.99512 0.48996 0.82041 0.0
N101 N 0.995 0.47574 0.84531 0.0
N102 N 0.97672 0.46271 0.80141 0.0
C103 C 0.98423 0.45915 0.83277 0.0
H104 H 0.98144 0.48988 0.77015 0.0
Co105 Co 0.95961 0.44556 0.77343 0.0
C106 C 0.93686 0.44317 0.84035 0.0
O107 O 0.9418 0.46238 0.84939 0.0
N108 N 0.94265 0.42847 0.7459 0.0
C109 C 0.91378 0.41376 0.72514 0.0
C110 C 0.92158 0.42736 0.7487 0.0
C111 C 0.94734 0.41502 0.72052 0.0
N112 N 0.92993 0.40595 0.70738 0.0
O113 O 0.97911 0.42276 0.77876 0.0
H114 H 0.91233 0.43579 0.76699 0.0
H115 H 0.9631 0.41209 0.71165 0.0
O116 O 0.94307 0.43589 0.81211 0.0
C117 C 0.99516 0.42652 0.76061 0.0
O118 O 0.9959 0.4442 0.74385 0.0
N119 N 0.94188 0.46862 0.76389 0.0
C120 C 0.92184 0.50422 0.73785 0.0
C121 C 0.91484 0.49484 0.76771 0.0
C122 C 0.92489 0.47689 0.78011 0.0
C123 C 0.94825 0.477 0.73421 0.0
C124 C 0.93857 0.49469 0.72082 0.0
H125 H 0.9185 0.46967 0.80211 0.0
H126 H 0.96125 0.46992 0.72097 0.0
H127 H 0.9813 0.44485 0.84655 0.0
H128 H 1.00189 0.50549 0.82188 0.0
H129 H 0.89746 0.40958 0.72173 0.0
H130 H 0.90181 0.50137 0.78163 0.0
H131 H 0.94416 0.50073 0.6971 0.0
C132 C 0.71682 0.76913 0.98017 0.0
C133 C 0.72573 0.76203 0.95097 0.0
N134 N 0.72722 0.77821 0.92943 0.0
N135 N 0.71249 0.7897 0.97729 0.0
C136 C 0.71896 0.79486 0.946 0.0
H137 H 0.71411 0.75993 1.00246 0.0
Co138 Co 0.70225 0.80546 1.01319 0.0
C139 C 0.68556 0.84528 0.98501 0.0
O140 O 0.69167 0.85498 1.01245 0.0
N141 N 0.69182 0.82074 0.05062 0.0
C142 C 0.68797 0.83592 0.10061 0.0
C143 C 0.70208 0.82743 0.07833 0.0
C144 C 0.67143 0.82524 0.05698 0.0
N145 N 0.66863 0.8345 0.08719 0.0
O146 O 0.67724 0.78831 1.01413 0.0
H147 H 0.71869 0.82596 0.08279 0.0
H148 H 0.65879 0.82133 0.03993 0.0
O149 O 0.689 0.82557 0.98162 0.0
C150 C 0.67855 0.7761 0.0394 0.0
O151 O 0.69553 0.77694 0.05807 0.0
N152 N 0.72794 0.82003 1.0148 0.0
C153 C 0.76643 0.83752 0.03337 0.0
C154 C 0.75366 0.84732 1.00925 0.0
C155 C 0.73462 0.83802 0.99966 0.0
C156 C 0.74121 0.8092 0.03514 0.0
C157 C 0.76043 0.81763 0.04482 0.0
H158 H 0.72539 0.84559 0.98062 0.0
H159 H 0.73623 0.79435 0.04547 0.0
H160 H 0.71835 0.81063 0.93607 0.0
H161 H 0.73078 0.74612 0.94607 0.0
H162 H 0.69174 0.84264 0.12483 0.0
H163 H 0.75787 0.86238 0.99878 0.0
H164 H 0.77017 0.80886 0.06206 0.0
C165 C 0.50021 0.47186 0.73908 0.0
C166 C 0.50845 0.47925 0.70963 0.0
N167 N 0.49359 0.47807 0.68563 0.0
N168 N 0.48022 0.46586 0.734 0.0
C169 C 0.47656 0.46976 0.70108 0.0
H170 H 0.50822 0.47121 0.76296 0.0
Co171 Co 0.46374 0.45653 0.76961 0.0
C172 C 0.42302 0.4433 0.74172 0.0
O173 O 0.41445 0.45226 0.76806 0.0
N174 N 0.44776 0.44676 0.80698 0.0
C175 C 0.43295 0.4426 0.85715 0.0
C176 C 0.44191 0.45671 0.83548 0.0
C177 C 0.44215 0.42651 0.8123 0.0
N178 N 0.4332 0.42353 0.84265 0.0
O179 O 0.47983 0.43088 0.77131 0.0
H180 H 0.44442 0.47301 0.84125 0.0
H181 H 0.44531 0.41403 0.79459 0.0
O182 O 0.44302 0.44384 0.73816 0.0
C183 C 0.49204 0.43189 0.79669 0.0
O184 O 0.49188 0.44901 0.81513 0.0
N185 N 0.45018 0.48286 0.77006 0.0
C186 C 0.43378 0.52294 0.78151 0.0
C187 C 0.42677 0.51069 0.75431 0.0
C188 C 0.43555 0.49084 0.74851 0.0
C189 C 0.4588 0.49549 0.79396 0.0
C190 C 0.45052 0.51526 0.80075 0.0
H191 H 0.43052 0.48209 0.72676 0.0
H192 H 0.47162 0.48967 0.80908 0.0
H193 H 0.46158 0.4672 0.68899 0.0
H194 H 0.52426 0.48503 0.70623 0.0
H195 H 0.4269 0.44616 0.88186 0.0
H196 H 0.41465 0.51637 0.73761 0.0
H197 H 0.45678 0.52404 0.82177 0.0
C198 C 0.77995 0.23246 0.49547 0.0
C199 C 0.77257 0.24351 0.46841 0.0
N200 N 0.78768 0.24415 0.44486 0.0
N201 N 0.79959 0.22569 0.48913 0.0
C202 C 0.80414 0.23377 0.45856 0.0
H203 H 0.77124 0.22911 0.51807 0.0
Co204 Co 0.81543 0.20878 0.51877 0.0
C205 C 0.82168 0.1847 0.45208 0.0
O206 O 0.80614 0.19316 0.43528 0.0
N207 N 0.83113 0.19206 0.54834 0.0
C208 C 0.84361 0.16351 0.57315 0.0
C209 C 0.83013 0.17092 0.54918 0.0
C210 C 0.84561 0.19713 0.57195 0.0
N211 N 0.85339 0.17995 0.5875 0.0
O212 O 0.83936 0.22704 0.51326 0.0
H213 H 0.8203 0.16141 0.53308 0.0
H214 H 0.8503 0.21303 0.57775 0.0
O215 O 0.82526 0.19015 0.48248 0.0
C216 C 0.83652 0.2442 0.52921 0.0
O217 O 0.81846 0.24722 0.54429 0.0
N218 N 0.79141 0.19223 0.52762 0.0
C219 C 0.75409 0.17354 0.54968 0.0
C220 C 0.7614 0.17034 0.51678 0.0
C221 C 0.7801 0.17986 0.50619 0.0
C222 C 0.7847 0.19524 0.55971 0.0
C223 C 0.76631 0.18594 0.57132 0.0
H224 H 0.78495 0.17766 0.48067 0.0
H225 H 0.79362 0.20528 0.57635 0.0
H226 H 0.81905 0.23145 0.44615 0.0
H227 H 0.75685 0.24967 0.46574 0.0
H228 H 0.8464 0.14718 0.579 0.0
H229 H 0.75244 0.1611 0.499 0.0
H230 H 0.76168 0.18861 0.59709 0.0
C231 C 0.02429 0.54958 0.23663 0.0
C232 C 0.01734 0.54115 0.20688 0.0
N233 N 0.03359 0.54019 0.18531 0.0
N234 N 0.04485 0.55407 0.23412 0.0
C235 C 0.05014 0.54823 0.20248 0.0
H236 H 0.015 0.55204 0.25897 0.0
Co237 Co 0.06029 0.56433 0.2705 0.0
C238 C 0.10107 0.57891 0.24354 0.0
O239 O 0.11036 0.57238 0.27102 0.0
N240 N 0.0754 0.57493 0.30838 0.0
C241 C 0.09138 0.57814 0.35788 0.0
C242 C 0.08249 0.56437 0.33548 0.0
C243 C 0.08008 0.59528 0.31539 0.0
N244 N 0.08985 0.59763 0.34533 0.0
O245 O 0.04433 0.59001 0.26904 0.0
H246 H 0.08113 0.54775 0.33957 0.0
H247 H 0.07642 0.60814 0.29875 0.0
O248 O 0.08129 0.57627 0.23976 0.0
C249 C 0.03157 0.59146 0.29357 0.0
O250 O 0.03104 0.57636 0.31588 0.0
N251 N 0.07383 0.53803 0.27356 0.0
C252 C 0.08972 0.49859 0.29047 0.0
C253 C 0.09962 0.51095 0.26604 0.0
C254 C 0.09109 0.53044 0.25724 0.0
C255 C 0.06296 0.52534 0.29479 0.0
C256 C 0.07072 0.50572 0.30395 0.0
H257 H 0.09849 0.53916 0.23745 0.0
H258 H 0.04868 0.53109 0.30623 0.0
H259 H 0.06591 0.54926 0.19261 0.0
H260 H 1.00145 0.53617 0.20157 0.0
H261 H 0.09792 0.57412 0.38208 0.0
H262 H 0.11384 0.50561 0.25389 0.0
H263 H 0.06237 0.49668 0.3226 0.0
C264 C 0.78552 0.73283 0.53825 0.0
C265 C 0.77851 0.74338 0.56611 0.0
N266 N 0.79274 0.74113 0.59078 0.0
N267 N 0.80404 0.72351 0.54508 0.0
C268 C 0.8083 0.72945 0.5771 0.0
H269 H 0.77741 0.73217 0.51452 0.0
Co270 Co 0.82014 0.70714 0.51459 0.0
C271 C 0.82183 0.68111 0.57788 0.0
O272 O 0.80262 0.68621 0.5866 0.0
N273 N 0.83621 0.69123 0.48428 0.0
C274 C 0.85038 0.66403 0.45751 0.0
C275 C 0.83654 0.67008 0.482 0.0
C276 C 0.85042 0.69766 0.46121 0.0
N277 N 0.8591 0.68136 0.44455 0.0
O278 O 0.84391 0.72532 0.52203 0.0
H279 H 0.82781 0.65953 0.49782 0.0
H280 H 0.85453 0.71388 0.4569 0.0
O281 O 0.82964 0.68834 0.5507 0.0
C282 C 0.84126 0.74299 0.50765 0.0
O283 O 0.82336 0.74659 0.49239 0.0
N284 N 0.79621 0.69062 0.50368 0.0
C285 C 0.75993 0.67185 0.47767 0.0
C286 C 0.77121 0.66231 0.5037 0.0
C287 C 0.78935 0.67191 0.51635 0.0
C288 C 0.78596 0.69943 0.47721 0.0
C289 C 0.7676 0.6906 0.46429 0.0
H290 H 0.79805 0.66365 0.5352 0.0
H291 H 0.79203 0.7137 0.46627 0.0
H292 H 0.82245 0.72501 0.59031 0.0
H293 H 0.76369 0.75153 0.56826 0.0
H294 H 0.85442 0.6481 0.45063 0.0
H295 H 0.76606 0.64754 0.5142 0.0
H296 H 0.75969 0.69819 0.44356 0.0
C297 C 0.01885 0.04391 0.80351 0.0
C298 C 0.01346 0.03466 0.83325 0.0
N299 N 0.02925 0.03746 0.85528 0.0
N300 N 0.03793 0.05278 0.80643 0.0
C301 C 0.04395 0.04863 0.8384 0.0
H302 H 0.0096 0.04363 0.78082 0.0
Co303 Co 0.05102 0.06494 0.76931 0.0
C304 C 0.09209 0.08105 0.79306 0.0
O305 O 0.10059 0.07486 0.76469 0.0
N306 N 0.06331 0.07724 0.73078 0.0
C307 C 0.07354 0.08364 0.67841 0.0
C308 C 0.06615 0.06867 0.70008 0.0
C309 C 0.06875 0.09764 0.72673 0.0
N310 N 0.07518 0.10192 0.69515 0.0
O311 O 0.03372 0.0895 0.77387 0.0
H312 H 0.06261 0.05274 0.69308 0.0
H313 H 0.06757 0.10924 0.7465 0.0
O314 O 0.07258 0.07773 0.79851 0.0
C315 C 0.01777 0.08818 0.75464 0.0
O316 O 0.01546 0.07131 0.73602 0.0
N317 N 0.06618 0.03974 0.76305 0.0
C318 C 0.08452 1.00212 0.74182 0.0
C319 C 0.09378 0.01422 0.76741 0.0
C320 C 0.08402 0.03272 0.77837 0.0
C321 C 0.0558 0.02696 0.74124 0.0
C322 C 0.06472 1.00827 0.73 0.0
H323 H 0.09101 0.04122 0.7989 0.0
H324 H 0.04079 0.03185 0.73129 0.0
H325 H 0.05906 0.05298 0.84868 0.0
H326 H 0.99897 0.02639 0.83816 0.0
H327 H 0.07743 0.08118 0.65228 0.0
H328 H 0.10869 0.00985 0.77832 0.0
H329 H 0.05626 0.99895 0.71172 0.0
C330 C 0.72204 0.26777 0.04988 0.0
C331 C 0.73082 0.26188 0.07979 0.0
N332 N 0.72801 0.27745 0.10224 0.0
N333 N 0.71345 0.28696 0.0531 0.0
C334 C 0.71729 0.2925 0.08544 0.0
H335 H 0.72247 0.2588 0.02688 0.0
Co336 Co 0.70211 0.30112 1.01623 0.0
C337 C 0.68544 0.34122 0.0421 0.0
O338 O 0.69289 0.35049 1.01524 0.0
N339 N 0.69055 0.31473 0.97795 0.0
C340 C 0.68527 0.32814 0.92709 0.0
C341 C 0.69997 0.32049 0.94904 0.0
C342 C 0.66995 0.31893 0.97251 0.0
N343 N 0.6663 0.3271 0.94173 0.0
O344 O 0.67783 0.28316 0.01731 0.0
H345 H 0.71638 0.31902 0.94333 0.0
H346 H 0.65779 0.3156 0.99063 0.0
O347 O 0.68824 0.32151 0.04617 0.0
C348 C 0.68028 0.26811 0.99653 0.0
O349 O 0.69756 0.26744 0.97864 0.0
N350 N 0.72723 0.31671 1.01347 0.0
C351 C 0.76646 0.33465 1.0004 0.0
C352 C 0.75366 0.34242 0.02634 0.0
C353 C 0.73425 0.33292 0.03298 0.0
C354 C 0.74036 0.30772 0.99072 0.0
C355 C 0.75968 0.3167 0.98309 0.0
H356 H 0.72521 0.33852 0.054 0.0
H357 H 0.73532 0.29385 0.97726 0.0
H358 H 0.71309 0.30757 0.09604 0.0
H359 H 0.73883 0.24722 0.08451 0.0
H360 H 0.68842 0.33406 0.9022 0.0
H361 H 0.75865 0.35557 0.04161 0.0
H362 H 0.76887 0.30986 0.96304 0.0
C363 C 0.49727 0.9757 0.28491 0.0
C364 C 0.50539 0.98309 0.31455 0.0
N365 N 0.49055 0.98163 0.33848 0.0
N366 N 0.47736 0.9694 0.28978 0.0
C367 C 0.47364 0.97316 0.32276 0.0
H368 H 0.5053 0.97518 0.26107 0.0
Co369 Co 0.46098 0.9597 0.25411 0.0
C370 C 0.42142 0.94361 0.28282 0.0
O371 O 0.41147 0.9515 0.25688 0.0
N372 N 0.44507 0.94967 0.21673 0.0
C373 C 0.43004 0.94615 0.16652 0.0
C374 C 0.43865 0.96006 0.18906 0.0
C375 C 0.44018 0.92935 0.21006 0.0
N376 N 0.43108 0.92677 0.17964 0.0
O377 O 0.47794 0.93474 0.25166 0.0
H378 H 0.44055 0.9766 0.18457 0.0
H379 H 0.44392 0.91658 0.22684 0.0
O380 O 0.44132 0.94597 0.28551 0.0
C381 C 0.48994 0.93602 0.22614 0.0
O382 O 0.48898 0.95292 0.20743 0.0
N383 N 0.44641 0.98548 0.25453 0.0
C384 C 0.42886 0.02499 0.24363 0.0
C385 C 0.42082 0.01173 0.26854 0.0
C386 C 0.43029 0.99224 0.2744 0.0
C387 C 0.45559 0.99903 0.23263 0.0
C388 C 0.44696 0.01873 0.22646 0.0
H389 H 0.42455 0.98284 0.29481 0.0
H390 H 0.46923 0.99403 0.21862 0.0
H391 H 0.45869 0.97031 0.33474 0.0
H392 H 0.52114 0.98903 0.31814 0.0
H393 H 0.42366 0.95007 0.14217 0.0
H394 H 0.40736 0.01639 0.28333 0.0
H395 H 0.45388 0.02858 0.20735 0.0
C396 C 0.21815 0.27037 0.4937 0.0
C397 C 0.22569 0.26224 0.46416 0.0
N398 N 0.22595 0.27757 0.44097 0.0
N399 N 0.21351 0.29079 0.48945 0.0
C400 C 0.21842 0.29478 0.45699 0.0
H401 H 0.21639 0.26195 0.51701 0.0
Co402 Co 0.20375 0.30793 0.52441 0.0
C403 C 0.17318 0.32243 0.4734 0.0
O404 O 0.16387 0.30407 0.47298 0.0
N405 N 0.19387 0.32474 0.55985 0.0
C406 C 0.19196 0.34107 0.60904 0.0
C407 C 0.20515 0.33159 0.58633 0.0
C408 C 0.17383 0.33004 0.5672 0.0
N409 N 0.1722 0.33997 0.59714 0.0
O410 O 0.18011 0.28939 0.53077 0.0
H411 H 0.22179 0.32908 0.58963 0.0
H412 H 0.16061 0.32604 0.55137 0.0
O413 O 0.1889 0.32553 0.4926 0.0
C414 C 0.1828 0.27878 0.55753 0.0
O415 O 0.20023 0.28155 0.57461 0.0
N416 N 0.22784 0.32475 0.52105 0.0
C417 C 0.2641 0.3478 0.53521 0.0
C418 C 0.24574 0.35784 0.52404 0.0
C419 C 0.22771 0.346 0.51707 0.0
C420 C 0.24581 0.31466 0.53003 0.0
C421 C 0.26414 0.32584 0.53696 0.0
H422 H 0.21329 0.35408 0.51114 0.0
H423 H 0.24554 0.29792 0.53422 0.0
H424 H 0.21698 0.31009 0.44562 0.0
H425 H 0.23048 0.24616 0.4601 0.0
H426 H 0.19648 0.34731 0.63328 0.0
H427 H 0.245 0.37476 0.52224 0.0
H428 H 0.27773 0.3174 0.54603 0.0
C429 C 0.98485 0.98133 0.24753 0.0
C430 C 0.99578 0.9892 0.2207 0.0
N431 N 0.99593 0.9747 0.19608 0.0
N432 N 0.97769 0.96197 0.24003 0.0
C433 C 0.98538 0.9581 0.2089 0.0
H434 H 0.98204 0.98956 0.27077 0.0
Co435 Co 0.96073 0.94488 0.26794 0.0
C436 C 0.9375 0.94271 0.20111 0.0
O437 O 0.9434 0.96135 0.19087 0.0
N438 N 0.94405 0.92791 0.29563 0.0
C439 C 0.91563 0.91322 0.31767 0.0
C440 C 0.92292 0.92686 0.2939 0.0
C441 C 0.94927 0.91444 0.32056 0.0
N442 N 0.93215 0.90537 0.33445 0.0
O443 O 0.97942 0.92167 0.2605 0.0
H444 H 0.9133 0.93534 0.27624 0.0
H445 H 0.96521 0.9115 0.32859 0.0
O446 O 0.94333 0.93594 0.22982 0.0
C447 C 0.99637 0.92413 0.27702 0.0
O448 O 0.99894 0.94137 0.29466 0.0
N449 N 0.9435 0.9681 0.27878 0.0
C450 C 0.92266 1.00291 0.30615 0.0
C451 C 0.9156 0.99343 0.2763 0.0
C452 C 0.92618 0.97601 0.26306 0.0
C453 C 0.95019 0.97673 0.3082 0.0
C454 C 0.94027 0.99422 0.32204 0.0
H455 H 0.91984 0.96874 0.24095 0.0
H456 H 0.9637 0.97011 0.32075 0.0
H457 H 0.98262 0.9436 0.19545 0.0
H458 H 1.00224 1.00485 0.21901 0.0
H459 H 0.89939 0.90904 0.32187 0.0
H460 H 0.90173 0.99911 0.26357 0.0
H461 H 0.9466 1.00097 0.34483 0.0
C462 C 0.28215 0.73865 0.99017 0.0
C463 C 0.27423 0.74864 0.9624 0.0
N464 N 0.2878 0.74611 0.93688 0.0
N465 N 0.30054 0.72937 0.98235 0.0
C466 C 0.30395 0.73508 0.95006 0.0
H467 H 0.27454 0.73796 1.01427 0.0
Co468 Co 0.31687 0.7118 1.01069 0.0
C469 C 0.32074 0.68894 0.94431 0.0
O470 O 0.30088 0.69185 0.93674 0.0
N471 N 0.33327 0.69446 0.03877 0.0
C472 C 0.34935 0.66609 0.0588 0.0
C473 C 0.33621 0.67363 0.03438 0.0
C474 C 0.34519 0.69923 0.06595 0.0
N475 N 0.35497 0.6822 0.07853 0.0
O476 O 0.3395 0.73192 1.00865 0.0
H477 H 0.32988 0.66442 1.01403 0.0
H478 H 0.34698 0.71482 0.07618 0.0
O479 O 0.32813 0.69625 0.97185 0.0
C480 C 0.33583 0.74527 0.03187 0.0
O481 O 0.31852 0.74315 0.04941 0.0
N482 N 0.29375 0.69344 0.01701 0.0
C483 C 0.25803 0.67188 0.03858 0.0
C484 C 0.27088 0.66343 1.01345 0.0
C485 C 0.28876 0.67444 1.00302 0.0
C486 C 0.282 0.70105 0.04285 0.0
C487 C 0.26386 0.69087 0.05345 0.0
H488 H 0.29873 0.66706 0.98476 0.0
H489 H 0.28681 0.71528 0.05547 0.0
H490 H 0.3178 0.73073 0.93605 0.0
H491 H 0.2591 0.75625 0.96079 0.0
H492 H 0.35509 0.65018 0.06108 0.0
H493 H 0.26719 0.64843 1.00208 0.0
H494 H 0.25475 0.69755 0.07377 0.0
C495 C 0.51646 0.04703 0.73678 0.0
C496 C 0.5089 0.03952 0.70685 0.0
N497 N 0.52429 0.0406 0.68379 0.0
N498 N 0.53656 0.05303 0.73299 0.0
C499 C 0.54097 0.04896 0.7003 0.0
H500 H 0.50787 0.04771 0.7601 0.0
Co501 Co 0.55259 0.06273 0.76932 0.0
C502 C 0.58793 0.08878 0.74055 0.0
O503 O 0.59819 0.08884 0.76905 0.0
N504 N 0.5679 0.07228 0.80744 0.0
C505 C 0.5858 0.07302 0.85541 0.0
C506 C 0.57777 0.06038 0.83055 0.0
C507 C 0.56955 0.09211 0.81971 0.0
N508 N 0.58074 0.09304 0.84853 0.0
O509 O 0.53365 0.08623 0.7745 0.0
H510 H 0.57887 0.0435 0.82998 0.0
H511 H 0.56325 0.10571 0.80706 0.0
O512 O 0.57058 0.07875 0.73763 0.0
C513 C 0.52166 0.083 0.79963 0.0
O514 O 0.52379 0.0653 0.81611 0.0
N515 N 0.56943 0.03849 0.76642 0.0
C516 C 0.59095 1.0011 0.77903 0.0
C517 C 0.60122 0.0183 0.76441 0.0
C518 C 0.59014 0.03686 0.75805 0.0
C519 C 0.55897 0.02154 0.77875 0.0
C520 C 0.56937 1.00271 0.78513 0.0
H521 H 0.5986 0.04998 0.748 0.0
H522 H 0.54265 0.02308 0.78569 0.0
H523 H 0.55622 0.05147 0.68915 0.0
H524 H 0.49318 0.03374 0.70247 0.0
H525 H 0.59443 0.06775 0.8772 0.0
H526 H 0.61783 0.01764 0.75888 0.0
H527 H 0.56079 0.99 0.79671 0.0
C528 C 0.4974 0.11394 0.79097 0.0
C529 C 0.50617 0.09857 0.8119 0.0
C530 C 0.48129 0.12705 0.80294 0.0
C531 C 0.43765 0.14016 0.82949 0.0
H532 H 0.4384 0.15997 0.92158 0.0
C533 C 0.36191 0.16048 0.90162 0.0
C534 C 0.362 0.17736 0.92444 0.0
C535 C 0.38041 0.15391 0.88597 0.0
C536 C 0.43796 0.15484 0.89568 0.0
H537 H 0.50564 0.08559 0.86215 0.0
H538 H 0.47801 0.10821 0.88275 0.0
H539 H 0.46983 0.14434 0.89747 0.0
H540 H 0.38181 0.20073 0.94816 0.0
H541 H 0.41413 0.18918 0.92102 0.0
H542 H 0.40568 0.15046 0.82784 0.0
C543 C 0.48337 0.1103 0.85721 0.0
C544 C 0.45596 0.1457 0.88192 0.0
C545 C 0.49914 0.09715 0.84523 0.0
C546 C 0.38116 0.18749 0.93117 0.0
C547 C 0.39971 0.18089 0.91549 0.0
C548 C 0.4196 0.14928 0.84329 0.0
C549 C 0.47399 0.12523 0.8362 0.0
C550 C 0.4559 0.13777 0.84893 0.0
C551 C 0.39958 0.164 0.89267 0.0
C552 C 0.41937 0.1563 0.87683 0.0
H553 H 0.50248 0.11538 0.76517 0.0
H554 H 0.47445 0.13848 0.78616 0.0
H555 H 0.437 0.13414 0.80408 0.0
H556 H 0.34758 0.15205 0.89619 0.0
H557 H 0.37973 0.14057 0.86915 0.0
C558 C 0.59337 0.63493 0.18467 0.0
C559 C 0.58666 0.61748 0.16591 0.0
C560 C 0.59942 0.65349 0.1686 0.0
C561 C 0.61809 0.67308 0.0863 0.0
H562 H 0.60775 0.72752 0.12639 0.0
C563 C 0.65038 0.74945 0.02683 0.0
C564 C 0.66148 0.7619 0.04989 0.0
C565 C 0.63724 0.73328 0.0383 0.0
C566 C 0.61074 0.71243 0.11482 0.0
H567 H 0.58011 0.60633 0.11552 0.0
H568 H 0.5905 0.63855 0.08766 0.0
H569 H 0.59301 0.69618 0.15221 0.0
H570 H 0.66655 0.76826 0.10268 0.0
H571 H 0.64364 0.74057 0.12253 0.0
H572 H 0.6362 0.68932 0.04933 0.0
C573 C 0.59161 0.63779 0.11473 0.0
C574 C 0.60238 0.69444 0.12974 0.0
C575 C 0.58565 0.61926 0.13076 0.0
C576 C 0.65821 0.75883 0.08435 0.0
C577 C 0.64496 0.74301 0.09574 0.0
C578 C 0.62641 0.69109 0.07134 0.0
C579 C 0.5988 0.6551 0.13337 0.0
C580 C 0.60629 0.67446 0.11608 0.0
C581 C 0.63475 0.72962 0.07296 0.0
C582 C 0.62323 0.71095 0.08582 0.0
H583 H 0.59451 0.63405 0.21171 0.0
H584 H 0.60514 0.66638 0.1838 0.0
H585 H 0.62166 0.65798 0.07522 0.0
H586 H 0.65277 0.75142 1.00014 0.0
H587 H 0.62946 0.72331 0.02011 0.0
C588 C 0.155 0.85159 0.38856 0.0
C589 C 0.15185 0.83767 0.41521 0.0
C590 C 0.1387 0.85637 0.36652 0.0
C591 C 0.08413 0.84331 0.33979 0.0
H592 H 0.08143 0.90343 0.32656 0.0
C593 C 0.00957 0.88937 0.29639 0.0
C594 C 0.01287 0.90805 0.27861 0.0
C595 C 0.02672 0.87728 0.30706 0.0
C596 C 0.08205 0.88655 0.32926 0.0
H597 H 0.12963 0.81679 0.43871 0.0
H598 H 0.10065 0.82544 0.4004 0.0
H599 H 0.11091 0.88848 0.35607 0.0
H600 H 0.03621 0.92801 0.25584 0.0
H601 H 0.06598 0.90649 0.27265 0.0
H602 H 0.05473 0.84169 0.31341 0.0
C603 C 0.11589 0.83244 0.3962 0.0
C604 C 0.09905 0.87793 0.34633 0.0
C605 C 0.13243 0.82744 0.4181 0.0
C606 C 0.03331 0.91356 0.26932 0.0
C607 C 0.05035 0.90137 0.27942 0.0
C608 C 0.06697 0.85201 0.32252 0.0
C609 C 0.11863 0.84765 0.37098 0.0
C610 C 0.10044 0.85621 0.35177 0.0
C611 C 0.0474 0.88369 0.29995 0.0
C612 C 0.06579 0.87377 0.31693 0.0
H613 H 0.16991 0.85955 0.38581 0.0
H614 H 0.14158 0.86768 0.34685 0.0
H615 H 0.08469 0.82652 0.34354 0.0
H616 H 0.99393 0.88506 0.30439 0.0
H617 H 0.02382 0.86383 0.32289 0.0
C618 C 0.91101 0.39206 0.65831 0.0
C619 C 0.92803 0.39079 0.6806 0.0
C620 C 0.90701 0.37604 0.63524 0.0
C621 C 0.914 0.31945 0.62369 0.0
H622 H 0.88915 0.33128 0.53698 0.0
C623 C 0.87363 0.2545 0.54339 0.0
C624 C 0.85315 0.26012 0.53395 0.0
C625 C 0.88768 0.26982 0.55538 0.0
C626 C 0.89614 0.32766 0.56105 0.0
H627 H 0.95468 0.37201 0.69544 0.0
H628 H 0.94765 0.34364 0.6549 0.0
H629 H 0.90529 0.35957 0.56918 0.0
H630 H 0.83168 0.2861 0.52791 0.0
H631 H 0.8561 0.31269 0.54767 0.0
H632 H 0.90408 0.28764 0.61599 0.0
C633 C 0.93738 0.35715 0.65541 0.0
C634 C 0.90538 0.3439 0.57956 0.0
C635 C 0.94154 0.37343 0.67837 0.0
C636 C 0.84743 0.28136 0.53475 0.0
C637 C 0.86148 0.29662 0.54606 0.0
C638 C 0.90477 0.30315 0.60508 0.0
C639 C 0.91984 0.35813 0.63387 0.0
C640 C 0.91374 0.34018 0.61168 0.0
C641 C 0.88159 0.29103 0.55746 0.0
C642 C 0.89504 0.30722 0.57406 0.0
H643 H 0.9004 0.40529 0.65938 0.0
H644 H 0.89323 0.37731 0.61947 0.0
H645 H 0.92018 0.31601 0.64838 0.0
H646 H 0.87831 0.23818 0.54355 0.0
H647 H 0.90307 0.265 0.56386 0.0
C648 C 0.63186 0.84662 0.08202 0.0
C649 C 0.64914 0.84129 0.10218 0.0
C650 C 0.61328 0.85398 0.09649 0.0
C651 C 0.58364 0.85748 0.17663 0.0
H652 H 0.55778 0.90524 0.13332 0.0
C653 C 0.51869 0.91007 0.23742 0.0
C654 C 0.50398 0.91894 0.21545 0.0
C655 C 0.53508 0.89764 0.22475 0.0
C656 C 0.56453 0.89168 0.14552 0.0
H657 H 0.66001 0.83879 0.1536 0.0
H658 H 0.62779 0.85201 0.17874 0.0
H659 H 0.5888 0.88949 0.10879 0.0
H660 H 0.49359 0.92048 0.16383 0.0
H661 H 0.52141 0.89825 0.14197 0.0
H662 H 0.55932 0.85997 0.21367 0.0
C663 C 0.62856 0.85038 0.15172 0.0
C664 C 0.58239 0.88264 0.13139 0.0
C665 C 0.64716 0.84305 0.13724 0.0
C666 C 0.50489 0.91393 0.18122 0.0
C667 C 0.52096 0.90137 0.16868 0.0
C668 C 0.56565 0.86655 0.19081 0.0
C669 C 0.61147 0.85619 0.13151 0.0
C670 C 0.59218 0.8654 0.14666 0.0
C671 C 0.53682 0.89383 0.18999 0.0
C672 C 0.55582 0.88372 0.1753 0.0
H673 H 0.63281 0.8456 0.05498 0.0
H674 H 0.60033 0.85805 0.08017 0.0
H675 H 0.59071 0.84412 0.18893 0.0
H676 H 0.51838 0.91392 0.2639 0.0
H677 H 0.54703 0.89209 0.24187 0.0
C678 C 0.35882 0.27324 0.99313 0.0
C679 C 0.34903 0.25888 0.97144 0.0
C680 C 0.37096 0.28968 0.98 0.0
C681 C 0.37497 0.32 0.90125 0.0
H682 H 0.42447 0.34458 0.94181 0.0
C683 C 0.41971 0.38724 0.83678 0.0
C684 C 0.42617 0.40403 0.85723 0.0
C685 C 0.41224 0.36864 0.85102 0.0
C686 C 0.41057 0.33797 0.93031 0.0
H687 H 0.34562 0.24919 0.91964 0.0
H688 H 0.36727 0.27711 0.89695 0.0
H689 H 0.40866 0.31333 0.96678 0.0
H690 H 0.43058 0.41397 0.90887 0.0
H691 H 0.4172 0.38179 0.93359 0.0
H692 H 0.37662 0.34459 0.86507 0.0
C693 C 0.36507 0.27636 0.92385 0.0
C694 C 0.40151 0.32006 0.94464 0.0
C695 C 0.35281 0.26024 0.93686 0.0
C696 C 0.42542 0.40154 0.89229 0.0
C697 C 0.418 0.38294 0.90652 0.0
C698 C 0.384 0.33779 0.88696 0.0
C699 C 0.37358 0.29183 0.94504 0.0
C700 C 0.38362 0.31079 0.93018 0.0
C701 C 0.41109 0.36633 0.88609 0.0
C702 C 0.40193 0.34702 0.90121 0.0
H703 H 0.35597 0.27257 0.01989 0.0
H704 H 0.37729 0.30131 0.99705 0.0
H705 H 0.36089 0.31368 0.88987 0.0
H706 H 0.41998 0.3886 0.80974 0.0
H707 H 0.4073 0.35607 0.8345 0.0
C708 C 0.98076 0.09956 0.75185 0.0
C709 C 1.00206 0.105 0.75161 0.0
C710 C 0.96551 0.11398 0.74209 0.0
C711 C 0.9584 0.15675 0.68381 0.0
H712 H 0.90315 0.15929 0.72408 0.0
C713 C 0.88696 0.19186 0.6128 0.0
C714 C 0.86933 0.17861 0.6131 0.0
C715 C 0.9037 0.18839 0.63507 0.0
C716 C 0.91849 0.15881 0.71249 0.0
H717 H 0.02427 0.12986 0.74166 0.0
H718 H 0.99742 0.15527 0.72376 0.0
H719 H 0.93204 0.14321 0.75481 0.0
H720 H 0.85483 0.15231 0.63822 0.0
H721 H 0.88373 0.14621 0.67664 0.0
H722 H 0.94459 0.17126 0.64068 0.0
C723 C 0.99255 0.13987 0.7321 0.0
C724 C 0.93506 0.14966 0.73018 0.0
C725 C 1.00786 0.12547 0.74263 0.0
C726 C 0.8683 0.16263 0.63717 0.0
C727 C 0.88483 0.15929 0.65948 0.0
C728 C 0.94176 0.16583 0.66599 0.0
C729 C 0.97123 0.13411 0.7311 0.0
C730 C 0.95503 0.14782 0.71556 0.0
C731 C 0.90296 0.17181 0.65834 0.0
C732 C 0.92141 0.16622 0.67961 0.0
H733 H 0.97596 0.08377 0.75828 0.0
H734 H 0.9493 0.10891 0.7412 0.0
H735 H 0.97356 0.15545 0.67175 0.0
H736 H 0.8882 0.20424 0.59441 0.0
H737 H 0.91738 0.19842 0.63366 0.0
C738 C 0.08618 0.63586 0.35661 0.0
C739 C 0.0967 0.61673 0.36166 0.0
C740 C 0.09218 0.65395 0.37444 0.0
C741 C 0.12176 0.67009 0.45109 0.0
H742 H 0.12529 0.72443 0.4082 0.0
C743 C 0.1755 0.73602 0.49797 0.0
C744 C 0.16888 0.75696 0.49617 0.0
C745 C 0.16287 0.71984 0.48572 0.0
C746 C 0.12402 0.70944 0.42074 0.0
H747 H 0.12238 0.60196 0.3882 0.0
H748 H 0.13293 0.63322 0.41873 0.0
H749 H 0.11112 0.69448 0.37706 0.0
H750 H 0.14365 0.77747 0.48074 0.0
H751 H 0.12141 0.74899 0.45873 0.0
H752 H 0.13535 0.68483 0.49429 0.0
C753 C 0.11964 0.63426 0.40187 0.0
C754 C 0.11593 0.69225 0.40286 0.0
C755 C 0.11364 0.61628 0.38422 0.0
C756 C 0.14892 0.76139 0.48301 0.0
C757 C 0.13636 0.74514 0.47005 0.0
C758 C 0.12992 0.6872 0.46883 0.0
C759 C 0.10884 0.65329 0.39767 0.0
C760 C 0.11523 0.6722 0.41752 0.0
C761 C 0.14341 0.7242 0.47069 0.0
C762 C 0.13164 0.70698 0.45364 0.0
H763 H 0.07295 0.63671 0.33964 0.0
H764 H 0.08344 0.66829 0.37061 0.0
H765 H 0.12094 0.65506 0.46358 0.0
H766 H 0.19094 0.73223 0.5076 0.0
H767 H 0.16892 0.70398 0.48632 0.0
C768 C 0.89624 0.68722 0.4309 0.0
C769 C 0.87599 0.68145 0.42079 0.0
C770 C 0.91352 0.68284 0.41033 0.0
C771 C 0.92808 0.64645 0.34059 0.0
H772 H 0.98157 0.675 0.3478 0.0
C773 C 1.0017 0.61397 0.27506 0.0
C774 C 0.0176 0.60959 0.29834 0.0
C775 C 0.98516 0.62742 0.2838 0.0
C776 C 0.96666 0.66699 0.34532 0.0
H777 H 0.85751 0.66793 0.38089 0.0
H778 H 0.88728 0.66159 0.34376 0.0
H779 H 0.9505 0.69037 0.37394 0.0
H780 H 0.02962 0.61662 0.34787 0.0
H781 H 1.00124 0.64067 0.3627 0.0
H782 H 0.94434 0.6231 0.31202 0.0
C783 C 0.89021 0.66863 0.36804 0.0
C784 C 0.94885 0.67567 0.36056 0.0
C785 C 0.87307 0.67253 0.38899 0.0
C786 C 0.01759 0.61997 0.32942 0.0
C787 C 1.00137 0.63373 0.33787 0.0
C788 C 0.94578 0.63802 0.32487 0.0
C789 C 0.91083 0.67289 0.37893 0.0
C790 C 0.92936 0.66525 0.35918 0.0
C791 C 0.98454 0.63696 0.31569 0.0
C792 C 0.96536 0.64791 0.32772 0.0
H793 H 0.89879 0.6938 0.45564 0.0
H794 H 0.92902 0.68619 0.42003 0.0
H795 H 0.91365 0.63756 0.33937 0.0
H796 H 1.00125 0.60584 0.25117 0.0
H797 H 0.97241 0.62966 0.26621 0.0
C798 C 0.09232 0.1365 0.70268 0.0
C799 C 0.08251 0.12165 0.68182 0.0
C800 C 0.10079 0.1549 0.68921 0.0
C801 C 0.10049 0.18943 0.61411 0.0
H802 H 0.15593 0.20464 0.64572 0.0
C803 C 0.15406 0.25198 0.54935 0.0
C804 C 0.16705 0.26386 0.5706 0.0
C805 C 0.14163 0.23576 0.56255 0.0
C806 C 0.14031 0.20088 0.63688 0.0
H807 H 0.07298 0.11511 0.63059 0.0
H808 H 0.08796 0.14698 0.60711 0.0
H809 H 0.13813 0.17472 0.67008 0.0
H810 H 0.17595 0.26933 0.62237 0.0
H811 H 0.154 0.24184 0.64529 0.0
H812 H 0.10284 0.21567 0.58071 0.0
C813 C 0.0891 0.14444 0.6339 0.0
C814 C 0.13009 0.18365 0.65093 0.0
C815 C 0.08073 0.12602 0.64734 0.0
C816 C 0.1664 0.26016 0.60528 0.0
C817 C 0.15389 0.24427 0.61842 0.0
C818 C 0.11073 0.20679 0.60007 0.0
C819 C 0.09956 0.15896 0.65456 0.0
C820 C 0.11003 0.17771 0.63984 0.0
C821 C 0.14188 0.23135 0.59721 0.0
C822 C 0.13075 0.2128 0.61144 0.0
H823 H 0.09405 0.13362 0.72928 0.0
H824 H 0.10849 0.16588 0.70594 0.0
H825 H 0.08499 0.18534 0.6051 0.0
H826 H 0.15431 0.2545 0.5225 0.0
H827 H 0.13256 0.22613 0.54547 0.0
C828 C 0.50476 0.40927 0.84256 0.0
C829 C 0.50491 0.41412 0.80826 0.0
C830 C 0.51996 0.39613 0.85626 0.0
C831 C 0.5636 0.35924 0.83726 0.0
H832 H 0.58629 0.38202 0.92002 0.0
C833 C 0.64404 0.3342 0.89202 0.0
C834 C 0.6465 0.33337 0.9271 0.0
C835 C 0.62543 0.3415 0.87763 0.0
C836 C 0.57997 0.37516 0.89727 0.0
H837 H 0.52034 0.40824 0.76091 0.0
H838 H 0.5474 0.38528 0.78495 0.0
H839 H 0.55615 0.39857 0.89408 0.0
H840 H 0.63083 0.33906 0.97445 0.0
H841 H 0.59818 0.35144 0.94941 0.0
H842 H 0.5878 0.33598 0.84038 0.0
C843 C 0.53529 0.39144 0.80122 0.0
C844 C 0.56262 0.38469 0.8823 0.0
C845 C 0.51979 0.40451 0.78738 0.0
C846 C 0.62953 0.33942 0.9474 0.0
C847 C 0.61086 0.34674 0.93299 0.0
C848 C 0.58102 0.34965 0.85232 0.0
C849 C 0.536 0.38776 0.8361 0.0
C850 C 0.55418 0.37691 0.85208 0.0
C851 C 0.60867 0.34817 0.89789 0.0
C852 C 0.58948 0.35755 0.8825 0.0
H853 H 0.49333 0.41642 0.85913 0.0
H854 H 0.51963 0.39318 0.88299 0.0
H855 H 0.55743 0.35274 0.81415 0.0
H856 H 0.65658 0.32932 0.87549 0.0
H857 H 0.62444 0.34251 0.85057 0.0
C858 C 0.4238 0.9056 0.1286 0.0
C859 C 0.42446 0.90741 0.1638 0.0
C860 C 0.41665 0.88719 0.11315 0.0
C861 C 0.38291 0.84143 0.12947 0.0
H862 H 0.40869 0.81788 0.04972 0.0
C863 C 0.35443 0.76295 0.07843 0.0
C864 C 0.35142 0.7608 0.04371 0.0
C865 C 0.36576 0.77975 0.09158 0.0
C866 C 0.40119 0.82437 0.07177 0.0
H867 H 0.41839 0.89097 0.21025 0.0
H868 H 0.40604 0.85881 0.18339 0.0
H869 H 0.42377 0.84924 0.076 0.0
H870 H 0.35867 0.7741 0.99526 0.0
H871 H 0.37834 0.80412 0.01837 0.0
H872 H 0.36016 0.81704 0.12521 0.0
C873 C 0.4109 0.87175 0.16769 0.0
C874 C 0.40985 0.84233 0.08689 0.0
C875 C 0.41817 0.89013 0.18314 0.0
C876 C 0.36095 0.77531 0.02212 0.0
C877 C 0.37214 0.79249 0.03542 0.0
C878 C 0.37425 0.82364 0.11437 0.0
C879 C 0.40984 0.8701 0.13248 0.0
C880 C 0.40089 0.85098 0.11612 0.0
C881 C 0.37406 0.79526 0.07046 0.0
C882 C 0.38336 0.81467 0.08552 0.0
H883 H 0.42882 0.91844 0.11286 0.0
H884 H 0.41594 0.88655 0.08603 0.0
H885 H 0.37526 0.84793 0.1514 0.0
H886 H 0.34736 0.75194 0.0957 0.0
H887 H 0.36745 0.78089 0.11856 0.0
C888 C 0.13433 0.33551 0.6101 0.0
C889 C 0.15339 0.34628 0.61471 0.0
C890 C 0.11654 0.34089 0.62896 0.0
C891 C 0.10106 0.36919 0.7072 0.0
H892 H 0.0459 0.37086 0.66635 0.0
C893 C 0.03314 0.41897 0.75822 0.0
C894 C 0.0125 0.41152 0.75587 0.0
C895 C 0.04984 0.40723 0.74556 0.0
C896 C 0.06112 0.37009 0.67835 0.0
H897 H 0.16836 0.37167 0.64185 0.0
H898 H 0.13748 0.38124 0.67417 0.0
H899 H 0.07584 0.35846 0.6337 0.0
H900 H 0.99303 0.38574 0.73918 0.0
H901 H 0.02238 0.36502 0.71662 0.0
H902 H 0.08646 0.38153 0.75142 0.0
C903 C 0.13633 0.36823 0.65676 0.0
C904 C 0.07834 0.36301 0.65958 0.0
C905 C 0.15407 0.36281 0.63807 0.0
C906 C 1.00888 0.3916 0.74195 0.0
C907 C 0.02564 0.37992 0.72865 0.0
C908 C 0.08391 0.37635 0.72584 0.0
C909 C 0.11736 0.3572 0.65283 0.0
C910 C 0.09864 0.36292 0.67351 0.0
C911 C 0.04625 0.38788 0.72957 0.0
C912 C 0.0638 0.37732 0.71146 0.0
H913 H 0.13332 0.32253 0.59264 0.0
H914 H 0.10229 0.33193 0.62537 0.0
H915 H 0.11631 0.36882 0.71913 0.0
H916 H 0.03625 0.43446 0.76831 0.0
H917 H 0.06542 0.41397 0.74639 0.0
C918 C 0.94468 0.87292 0.36227 0.0
C919 C 0.93092 0.89011 0.361 0.0
C920 C 0.94119 0.85654 0.38513 0.0
C921 C 0.91081 0.84253 0.46199 0.0
H922 H 0.90864 0.78671 0.42348 0.0
C923 C 0.85272 0.78006 0.50495 0.0
C924 C 0.85813 0.75874 0.50431 0.0
C925 C 0.86697 0.79532 0.49456 0.0
C926 C 0.90961 0.80208 0.43497 0.0
H927 H 0.9036 0.90426 0.38381 0.0
H928 H 0.89757 0.87608 0.42356 0.0
H929 H 0.92429 0.81535 0.39155 0.0
H930 H 0.88295 0.73663 0.49335 0.0
H931 H 0.90803 0.76347 0.47461 0.0
H932 H 0.89524 0.82952 0.50471 0.0
C933 C 0.91104 0.87503 0.40711 0.0
C934 C 0.91859 0.81854 0.41662 0.0
C935 C 0.91437 0.89114 0.38413 0.0
C936 C 0.87851 0.753 0.49457 0.0
C937 C 0.89275 0.76834 0.48351 0.0
C938 C 0.90184 0.82614 0.48026 0.0
C939 C 0.92409 0.85727 0.4075 0.0
C940 C 0.91856 0.83913 0.4294 0.0
C941 C 0.88693 0.78965 0.48267 0.0
C942 C 0.9004 0.80587 0.46648 0.0
H943 H 0.95748 0.87169 0.34456 0.0
H944 H 0.95161 0.84313 0.38489 0.0
H945 H 0.91093 0.8581 0.47291 0.0
H946 H 0.83705 0.78487 0.51207 0.0
H947 H 0.86181 0.81149 0.49389 0.0
C948 C 0.51105 0.6209 0.20346 0.0
C949 C 0.50997 0.60827 0.23214 0.0
C950 C 0.49443 0.6342 0.19509 0.0
C951 C 0.43814 0.63405 0.19967 0.0
H952 H 0.44157 0.69027 0.16349 0.0
C953 C 0.36661 0.66949 0.13346 0.0
C954 C 0.37053 0.68117 0.10446 0.0
C955 C 0.3829 0.66477 0.15573 0.0
C956 C 0.44031 0.6745 0.1732 0.0
H957 H 0.49115 0.59984 0.27511 0.0
H958 H 0.46173 0.62288 0.26019 0.0
H959 H 0.47221 0.67473 0.19061 0.0
H960 H 0.39413 0.69748 0.07595 0.0
H961 H 0.42293 0.68862 0.1138 0.0
H962 H 0.40699 0.63289 0.18044 0.0
C963 C 0.4756 0.6228 0.24453 0.0
C964 C 0.45786 0.66569 0.18901 0.0
C965 C 0.49245 0.6098 0.25324 0.0
C966 C 0.3908 0.68877 0.0986 0.0
C967 C 0.40725 0.68366 0.12043 0.0
C968 C 0.42076 0.64265 0.18336 0.0
C969 C 0.47618 0.63467 0.21483 0.0
C970 C 0.45702 0.64527 0.20202 0.0
C971 C 0.40366 0.67105 0.14889 0.0
C972 C 0.42161 0.66291 0.16939 0.0
H973 H 0.5243 0.61965 0.18656 0.0
H974 H 0.49524 0.64297 0.1719 0.0
H975 H 0.43713 0.61812 0.2089 0.0
H976 H 0.35104 0.6634 0.13817 0.0
H977 H 0.37925 0.65557 0.17774 0.0
C978 C 0.57501 0.13003 0.86631 0.0
C979 C 0.5869 0.11145 0.8674 0.0
C980 C 0.5812 0.14778 0.88475 0.0
C981 C 0.61604 0.16386 0.95566 0.0
H982 H 0.61426 0.2188 0.91443 0.0
C983 C 0.67222 0.23038 0.9905 0.0
C984 C 0.66487 0.25107 0.99229 0.0
C985 C 0.65893 0.21411 0.98069 0.0
C986 C 0.61448 0.20364 0.92657 0.0
H987 H 0.61498 0.09733 0.88812 0.0
H988 H 0.62577 0.12799 0.91977 0.0
H989 H 0.59836 0.18883 0.88565 0.0
H990 H 0.63782 0.27111 0.9857 0.0
H991 H 0.61436 0.24245 0.96768 0.0
H992 H 0.63302 0.17848 0.99579 0.0
C993 C 0.61134 0.1288 0.90549 0.0
C994 C 0.60539 0.18643 0.91006 0.0
C995 C 0.60515 0.11114 0.88721 0.0
C996 C 0.64372 0.25519 0.98503 0.0
C997 C 0.63042 0.23886 0.97443 0.0
C998 C 0.62523 0.18099 0.97198 0.0
C999 C 0.59945 0.14736 0.90468 0.0
C1000 C 0.6066 0.16619 0.92395 0.0
C1001 C 0.63802 0.21818 0.97171 0.0
C1002 C 0.62507 0.20096 0.95723 0.0
H1003 H 0.56076 0.13078 0.85158 0.0
H1004 H 0.57157 0.16173 0.88368 0.0
H1005 H 0.6168 0.14865 0.96759 0.0
H1006 H 0.68853 0.22687 0.99569 0.0
H1007 H 0.66536 0.19845 0.9785 0.0
C1008 C 0.28963 0.23534 0.15673 0.0
C1009 C 0.2809 0.24773 0.13113 0.0
C1010 C 0.28381 0.23844 0.19037 0.0
C1011 C 0.26008 0.27845 0.24709 0.0
H1012 H 0.2522 0.23151 0.3072 0.0
C1013 C 0.2248 0.2882 0.38096 0.0
C1014 C 0.23302 0.2755 0.40659 0.0
C1015 C 0.23085 0.28512 0.34742 0.0
C1016 C 0.25458 0.24485 0.29091 0.0
H1017 H 0.25836 0.27243 0.12109 0.0
H1018 H 0.24835 0.27776 0.17918 0.0
H1019 H 0.26239 0.22511 0.24915 0.0
H1020 H 0.25489 0.25029 0.41695 0.0
H1021 H 0.26546 0.24507 0.35903 0.0
H1022 H 0.2523 0.29821 0.28883 0.0
C1023 C 0.26008 0.266 0.17352 0.0
C1024 C 0.26044 0.24115 0.25753 0.0
C1025 C 0.26585 0.26291 0.14004 0.0
C1026 C 0.24784 0.26006 0.39789 0.0
C1027 C 0.2539 0.25703 0.36452 0.0
C1028 C 0.25424 0.28216 0.28047 0.0
C1029 C 0.26912 0.254 0.19926 0.0
C1030 C 0.26323 0.25789 0.23509 0.0
C1031 C 0.24533 0.26931 0.33869 0.0
C1032 C 0.2514 0.26542 0.30291 0.0
H1033 H 0.30134 0.22362 0.1509 0.0
H1034 H 0.29123 0.22897 0.20951 0.0
H1035 H 0.26241 0.29178 0.23075 0.0
H1036 H 0.21326 0.30011 0.38668 0.0
H1037 H 0.22376 0.29479 0.32824 0.0
C1038 C 0.48421 0.47568 0.62509 0.0
C1039 C 0.49584 0.48494 0.65121 0.0
C1040 C 0.48756 0.48162 0.5916 0.0
C1041 C 0.52735 0.50736 0.53689 0.0
H1042 H 0.48114 0.51225 0.47426 0.0
C1043 C 0.53691 0.54271 0.40296 0.0
C1044 C 0.52519 0.53343 0.37697 0.0
C1045 C 0.53384 0.53661 0.43646 0.0
C1046 C 0.49429 0.51074 0.49129 0.0
H1047 H 0.51931 0.50858 0.66246 0.0
H1048 H 0.52502 0.5189 0.60466 0.0
H1049 H 0.47426 0.50198 0.53204 0.0
H1050 H 0.50198 0.50953 0.36584 0.0
H1051 H 0.49674 0.49893 0.42364 0.0
H1052 H 0.54737 0.51615 0.49611 0.0
C1053 C 0.51374 0.50662 0.60975 0.0
C1054 C 0.49032 0.50482 0.5245 0.0
C1055 C 0.51042 0.50069 0.64304 0.0
C1056 C 0.51091 0.51743 0.3852 0.0
C1057 C 0.50786 0.51135 0.41849 0.0
C1058 C 0.53132 0.51329 0.50367 0.0
C1059 C 0.50258 0.49702 0.58345 0.0
C1060 C 0.50678 0.50306 0.54782 0.0
C1061 C 0.51901 0.52105 0.4447 0.0
C1062 C 0.51485 0.51503 0.48035 0.0
H1063 H 0.47296 0.46343 0.63043 0.0
H1064 H 0.47875 0.47376 0.57204 0.0
H1065 H 0.54049 0.50585 0.55392 0.0
H1066 H 0.54795 0.55513 0.39755 0.0
H1067 H 0.54265 0.54452 0.45598 0.0
C1068 C 0.22468 0.78492 0.65169 0.0
C1069 C 0.23383 0.77234 0.62663 0.0
C1070 C 0.22975 0.78193 0.6856 0.0
C1071 C 0.25393 0.74391 0.74511 0.0
H1072 H 0.26437 0.79346 0.79914 0.0
C1073 C 0.29242 0.73837 0.87626 0.0
C1074 C 0.28384 0.75087 0.90195 0.0
C1075 C 0.28657 0.74141 0.84272 0.0
C1076 C 0.26133 0.77944 0.78455 0.0
H1077 H 0.25468 0.74607 0.61793 0.0
H1078 H 0.26364 0.74098 0.67671 0.0
H1079 H 0.25236 0.79725 0.74138 0.0
H1080 H 0.26306 0.77701 0.91202 0.0
H1081 H 0.25272 0.78218 0.85377 0.0
H1082 H 0.26295 0.7261 0.78822 0.0
C1083 C 0.2525 0.75314 0.67032 0.0
C1084 C 0.25436 0.78161 0.75139 0.0
C1085 C 0.24749 0.75617 0.6365 0.0
C1086 C 0.26984 0.76697 0.893 0.0
C1087 C 0.26403 0.77004 0.85948 0.0
C1088 C 0.2609 0.74174 0.77825 0.0
C1089 C 0.24401 0.76622 0.69533 0.0
C1090 C 0.25063 0.76387 0.73114 0.0
C1091 C 0.27203 0.75707 0.83391 0.0
C1092 C 0.26477 0.75947 0.79843 0.0
H1093 H 0.21425 0.79763 0.64506 0.0
H1094 H 0.22265 0.79211 0.70417 0.0
H1095 H 0.25093 0.72988 0.73052 0.0
H1096 H 0.30308 0.72571 0.8821 0.0
H1097 H 0.29333 0.73133 0.8237 0.0
C1098 C 0.01875 0.49333 0.88589 0.0
C1099 C 1.00231 0.47916 0.87933 0.0
C1100 C 0.02441 0.4985 0.91886 0.0
C1101 C 0.01824 0.48205 1.00826 0.0
H1102 H 0.03096 0.54041 0.0267 0.0
C1103 C 0.01811 0.5164 0.1427 0.0
C1104 C 0.03295 0.53183 0.15147 0.0
C1105 C 0.01642 0.50905 0.10971 0.0
C1106 C 0.02777 0.52399 0.022 0.0
H1107 H 0.97924 0.45903 0.90272 0.0
H1108 H 0.989 0.46807 0.96018 0.0
H1109 H 0.02413 0.52914 0.96928 0.0
H1110 H 0.05797 0.55127 0.13212 0.0
H1111 H 0.05514 0.53834 0.07431 0.0
H1112 H 0.02153 0.47701 0.06112 0.0
C1113 C 0.99776 0.47501 0.93979 0.0
C1114 C 0.02384 0.51748 0.98895 0.0
C1115 C 0.99214 0.46977 0.90675 0.0
C1116 C 0.04642 0.53936 0.12632 0.0
C1117 C 0.04465 0.53207 0.09311 0.0
C1118 C 0.02213 0.48857 0.04132 0.0
C1119 C 0.01376 0.48973 0.94636 0.0
C1120 C 0.01883 0.49644 0.98157 0.0
C1121 C 0.0295 0.5169 0.0843 0.0
C1122 C 0.02675 0.50968 0.04874 0.0
H1123 H 0.02716 0.50061 0.86544 0.0
H1124 H 0.03712 0.5095 0.92276 0.0
H1125 H 0.01484 0.46566 1.00364 0.0
H1126 H 1.00766 0.50997 0.1614 0.0
H1127 H 1.00444 0.49755 0.10399 0.0
C1128 C 0.77723 0.76493 0.63326 0.0
C1129 C 0.79021 0.74779 0.62529 0.0
C1130 C 0.77257 0.7699 0.66665 0.0
C1131 C 0.77009 0.74518 0.75035 0.0
H1132 H 0.762 0.8022 0.78181 0.0
C1133 C 0.75206 0.76252 0.88893 0.0
C1134 C 0.73642 0.77739 0.89629 0.0
C1135 C 0.75995 0.76034 0.85644 0.0
C1136 C 0.76401 0.78618 0.77334 0.0
H1137 H 0.80914 0.72295 0.64659 0.0
H1138 H 0.80141 0.73187 0.70487 0.0
H1139 H 0.77423 0.7959 0.72457 0.0
H1140 H 0.71738 0.80218 0.8752 0.0
H1141 H 0.73113 0.79834 0.81808 0.0
H1142 H 0.75974 0.73542 0.79883 0.0
C1143 C 0.7945 0.74127 0.68518 0.0
C1144 C 0.77105 0.78255 0.7405 0.0
C1145 C 0.79918 0.7363 0.65172 0.0
C1146 C 0.72945 0.79063 0.87042 0.0
C1147 C 0.73735 0.78841 0.83769 0.0
C1148 C 0.76309 0.74881 0.78309 0.0
C1149 C 0.78078 0.75788 0.69309 0.0
C1150 C 0.77417 0.76198 0.72852 0.0
C1151 C 0.75244 0.77295 0.83018 0.0
C1152 C 0.75994 0.76935 0.7951 0.0
H1153 H 0.77028 0.77431 0.61361 0.0
H1154 H 0.76187 0.78272 0.67161 0.0
H1155 H 0.77181 0.72913 0.7419 0.0
H1156 H 0.75823 0.75244 0.90835 0.0
H1157 H 0.77194 0.74866 0.85189 0.0
C1158 C 0.75384 0.26604 0.14474 0.0
C1159 C 0.73585 0.27768 0.13635 0.0
C1160 C 0.76066 0.26455 0.17795 0.0
C1161 C 0.75642 0.28825 0.26277 0.0
H1162 H 0.77369 0.23284 0.29143 0.0
C1163 C 0.76964 0.2663 0.40268 0.0
C1164 C 0.7851 0.25135 0.41065 0.0
C1165 C 0.76504 0.27125 0.36926 0.0
C1166 C 0.76929 0.24852 0.28384 0.0
H1167 H 0.71143 0.29763 0.15648 0.0
H1168 H 0.72335 0.29503 0.2149 0.0
H1169 H 0.76261 0.23833 0.23382 0.0
H1170 H 0.8085 0.23063 0.38922 0.0
H1171 H 0.80092 0.23964 0.3311 0.0
H1172 H 0.76307 0.29838 0.31301 0.0
C1173 C 0.7322 0.28707 0.19552 0.0
C1174 C 0.76285 0.25167 0.25069 0.0
C1175 C 0.72534 0.28857 0.16205 0.0
C1176 C 0.79656 0.24225 0.38422 0.0
C1177 C 0.79198 0.24723 0.35076 0.0
C1178 C 0.76295 0.28511 0.29603 0.0
C1179 C 0.74972 0.27467 0.20395 0.0
C1180 C 0.75636 0.27157 0.2396 0.0
C1181 C 0.77582 0.26144 0.34275 0.0
C1182 C 0.7695 0.26517 0.30705 0.0
H1183 H 0.76271 0.25792 0.12557 0.0
H1184 H 0.77453 0.25535 0.18327 0.0
H1185 H 0.75174 0.30383 0.25506 0.0
H1186 H 0.76069 0.27389 0.42229 0.0
H1187 H 0.75245 0.28218 0.36426 0.0
C1188 C 0.99378 0.96693 0.13504 0.0
C1189 C 1.003 0.9779 0.16193 0.0
C1190 C 0.99882 0.97193 0.10178 0.0
C1191 C 0.03704 1.00139 0.04827 0.0
H1192 H 0.99051 1.00218 0.98571 0.0
C1193 C 0.04053 0.03991 0.91502 0.0
C1194 C 0.02986 0.02932 0.88912 0.0
C1195 C 0.03909 0.03288 0.94836 0.0
C1196 C 1.00377 1.00184 1.0027 0.0
H1197 H 0.02575 1.00196 0.17456 0.0
H1198 H 0.03409 0.01099 0.11689 0.0
H1199 H 0.98474 0.99077 0.04303 0.0
H1200 H 0.0107 1.0021 0.87779 0.0
H1201 H 1.0082 0.99 0.93528 0.0
H1202 H 0.05594 0.01289 1.00769 0.0
C1203 C 0.02304 0.99841 0.12137 0.0
C1204 C 1.00047 0.99519 0.03567 0.0
C1205 C 0.01806 0.99337 0.15459 0.0
C1206 C 0.01862 0.01103 0.89714 0.0
C1207 C 0.01718 1.00405 0.93021 0.0
C1208 C 0.04033 1.00816 1.01519 0.0
C1209 C 0.01318 0.98807 0.09443 0.0
C1210 C 0.01705 0.99477 0.05897 0.0
C1211 C 0.02698 0.0151 0.95642 0.0
C1212 C 0.02373 1.00836 0.99192 0.0
H1213 H 0.98206 0.95501 0.13953 0.0
H1214 H 0.99118 0.9633 0.08178 0.0
H1215 H 0.05026 1.00111 0.06532 0.0
H1216 H 0.04929 0.05405 0.90971 0.0
H1217 H 0.04683 0.04178 0.96794 0.0
C1218 C 0.50723 1.00403 0.38183 0.0
C1219 C 0.49276 0.98823 0.37312 0.0
C1220 C 0.51052 0.00971 0.41533 0.0
C1221 C 0.50448 0.98999 0.50215 0.0
H1222 H 0.51466 0.04804 0.52635 0.0
C1223 C 0.50844 0.01784 0.6402 0.0
C1224 C 0.52271 0.03373 0.6492 0.0
C1225 C 0.50555 0.01204 0.60667 0.0
C1226 C 0.51216 0.03171 0.52002 0.0
H1227 H 0.47007 0.96637 0.39321 0.0
H1228 H 0.47559 0.97648 0.4519 0.0
H1229 H 0.50688 0.03889 0.46824 0.0
H1230 H 0.54558 0.0556 0.62967 0.0
H1231 H 0.54075 0.0453 0.57085 0.0
H1232 H 0.50973 0.98281 0.55393 0.0
C1233 C 0.48463 0.98428 0.43264 0.0
C1234 C 0.50762 0.02644 0.48662 0.0
C1235 C 0.48127 0.97862 0.39895 0.0
C1236 C 0.5345 0.04329 0.62367 0.0
C1237 C 0.53154 0.03752 0.58992 0.0
C1238 C 0.50902 0.99526 0.53555 0.0
C1239 C 0.49944 0.99981 0.44131 0.0
C1240 C 0.5037 1.0055 0.47717 0.0
C1241 C 0.51687 0.02192 0.58094 0.0
C1242 C 0.51288 0.01621 0.54501 0.0
H1243 H 0.51614 0.01206 0.36271 0.0
H1244 H 0.52217 0.02158 0.42087 0.0
H1245 H 0.50195 0.97366 0.49583 0.0
H1246 H 0.49932 0.00986 0.65914 0.0
H1247 H 0.49399 1.00012 0.60089 0.0
C1248 C 0.1268 0.08291 0.82143 0.0
C1249 C 0.10589 0.08962 0.8196 0.0
C1250 C 0.14053 0.09153 0.845 0.0
C1251 C 0.14334 0.12572 0.92169 0.0
H1252 H 0.20129 0.13074 0.89342 0.0
C1253 C 0.20822 0.17847 0.98331 0.0
C1254 C 0.22766 0.16864 0.98889 0.0
C1255 C 0.19196 0.16777 0.96691 0.0
C1256 C 0.1852 0.12927 0.90179 0.0
H1257 H 0.08274 0.11035 0.84141 0.0
H1258 H 0.10701 0.12636 0.88167 0.0
H1259 H 0.17579 0.11502 0.85582 0.0
H1260 H 0.24506 0.13973 0.98264 0.0
H1261 H 0.2168 0.1212 0.95342 0.0
H1262 H 0.15302 0.14119 0.96718 0.0
C1263 C 0.11275 0.11396 0.86554 0.0
C1264 C 0.17051 0.12011 0.88031 0.0
C1265 C 0.09881 0.10489 0.84236 0.0
C1266 C 0.2302 0.14764 0.97899 0.0
C1267 C 0.21411 0.13709 0.96207 0.0
C1268 C 0.15806 0.13533 0.94297 0.0
C1269 C 0.13393 0.1076 0.86687 0.0
C1270 C 0.14937 0.11792 0.89 0.0
C1271 C 0.195 0.1472 0.95523 0.0
C1272 C 0.17917 0.13698 0.9333 0.0
H1273 H 0.1326 0.07087 0.80462 0.0
H1274 H 0.1564 0.08556 0.84585 0.0
H1275 H 0.12734 0.12419 0.93034 0.0
H1276 H 0.20584 0.19464 0.99072 0.0
H1277 H 0.17741 0.17593 0.96183 0.0
C1278 C 0.61772 0.48037 0.21897 0.0
C1279 C 0.59648 0.47964 0.22808 0.0
C1280 C 0.62739 0.46301 0.20407 0.0
C1281 C 0.61436 0.41355 0.15814 0.0
H1282 H 0.67439 0.40498 0.1652 0.0
C1283 C 0.66015 0.34631 0.08994 0.0
C1284 C 0.6758 0.35427 0.06869 0.0
C1285 C 0.65035 0.35943 0.11353 0.0
C1286 C 0.65758 0.40712 0.16319 0.0
H1287 H 0.56895 0.45983 0.23023 0.0
H1288 H 0.58598 0.42917 0.20563 0.0
H1289 H 0.65747 0.43144 0.20015 0.0
H1290 H 0.69405 0.38188 0.05636 0.0
H1291 H 0.6775 0.40444 0.09812 0.0
H1292 H 0.61469 0.3889 0.12135 0.0
C1293 C 0.59508 0.44336 0.20881 0.0
C1294 C 0.64786 0.42244 0.18297 0.0
C1295 C 0.58531 0.46088 0.22318 0.0
C1296 C 0.68194 0.37532 0.07222 0.0
C1297 C 0.67257 0.38822 0.09625 0.0
C1298 C 0.62407 0.39794 0.13884 0.0
C1299 C 0.61617 0.44428 0.19838 0.0
C1300 C 0.62617 0.42631 0.18012 0.0
C1301 C 0.65651 0.38052 0.11685 0.0
C1302 C 0.64583 0.39494 0.14061 0.0
H1303 H 0.62664 0.49471 0.22199 0.0
H1304 H 0.64348 0.46465 0.19589 0.0
H1305 H 0.59773 0.41613 0.15468 0.0
H1306 H 0.6551 0.33015 0.08766 0.0
H1307 H 0.638 0.35314 0.12917 0.0
C1308 C 0.28266 0.87878 0.46161 0.0
C1309 C 0.28302 0.85746 0.47015 0.0
C1310 C 0.3001 0.88818 0.44657 0.0
C1311 C 0.34875 0.87434 0.39939 0.0
H1312 H 0.35961 0.93385 0.40902 0.0
C1313 C 0.41651 0.91801 0.33018 0.0
C1314 C 0.40887 0.93451 0.31034 0.0
C1315 C 0.40351 0.90856 0.35421 0.0
C1316 C 0.35683 0.91717 0.40629 0.0
H1317 H 0.3022 0.82948 0.47122 0.0
H1318 H 0.33296 0.84598 0.44636 0.0
H1319 H 0.3327 0.91736 0.44345 0.0
H1320 H 0.38214 0.95469 0.30111 0.0
H1321 H 0.35985 0.93869 0.34349 0.0
H1322 H 0.37311 0.87434 0.36228 0.0
C1323 C 0.31902 0.85537 0.45003 0.0
C1324 C 0.34126 0.90771 0.42577 0.0
C1325 C 0.30144 0.84591 0.46453 0.0
C1326 C 0.38841 0.9419 0.31586 0.0
C1327 C 0.37568 0.93284 0.34027 0.0
C1328 C 0.36457 0.88376 0.38034 0.0
C1329 C 0.3185 0.87656 0.44021 0.0
C1330 C 0.3366 0.88624 0.42202 0.0
C1331 C 0.38294 0.91588 0.35935 0.0
C1332 C 0.36842 0.90536 0.38303 0.0
H1333 H 0.26857 0.88799 0.46533 0.0
H1334 H 0.29882 0.90439 0.4389 0.0
H1335 H 0.34553 0.85788 0.39525 0.0
H1336 H 0.43221 0.912 0.32634 0.0
H1337 H 0.40946 0.89548 0.36865 0.0
C1338 C 0.82258 0.65287 0.62147 0.0
C1339 C 0.83314 0.66466 0.59699 0.0
C1340 C 0.83266 0.63643 0.63808 0.0
C1341 C 0.87878 0.60079 0.63059 0.0
H1342 H 0.86456 0.58705 0.7225 0.0
C1343 C 0.92403 0.53867 0.7072 0.0
C1344 C 0.91186 0.52362 0.72417 0.0
C1345 C 0.91472 0.55635 0.69288 0.0
C1346 C 0.86858 0.59064 0.69676 0.0
H1347 H 0.86285 0.66874 0.57151 0.0
H1348 H 0.88072 0.64058 0.6013 0.0
H1349 H 0.84851 0.61748 0.69589 0.0
H1350 H 0.88017 0.51587 0.73966 0.0
H1351 H 0.86406 0.54711 0.71543 0.0
H1352 H 0.8992 0.57413 0.6319 0.0
C1353 C 0.86441 0.6436 0.60704 0.0
C1354 C 0.85934 0.60805 0.68138 0.0
C1355 C 0.85422 0.65991 0.5901 0.0
C1356 C 0.89014 0.52715 0.7272 0.0
C1357 C 0.88086 0.54503 0.7132 0.0
C1358 C 0.88822 0.58356 0.64614 0.0
C1359 C 0.8537 0.63144 0.63102 0.0
C1360 C 0.86418 0.61333 0.64796 0.0
C1361 C 0.89303 0.55969 0.69552 0.0
C1362 C 0.88315 0.57821 0.67932 0.0
H1363 H 0.80628 0.65597 0.62729 0.0
H1364 H 0.8237 0.62729 0.65585 0.0
H1365 H 0.88264 0.60398 0.60468 0.0
H1366 H 0.94085 0.53687 0.70503 0.0
H1367 H 0.92456 0.56754 0.6799 0.0
C1368 C 0.78981 0.84555 0.08243 0.0
C1369 C 0.7851 0.84824 0.04821 0.0
C1370 C 0.80688 0.85571 0.09711 0.0
C1371 C 0.85659 0.88364 0.07787 0.0
H1372 H 0.85045 0.9026 0.16986 0.0
C1373 C 0.91693 0.93663 0.14825 0.0
C1374 C 0.92179 0.93078 0.18135 0.0
C1375 C 0.90105 0.9263 0.13041 0.0
C1376 C 0.85247 0.89724 0.14426 0.0
H1377 H 0.79498 0.86393 1.00268 0.0
H1378 H 0.82442 0.88236 0.0287 0.0
H1379 H 0.82097 0.88607 0.14154 0.0
H1380 H 0.91412 0.90908 0.22132 0.0
H1381 H 0.88629 0.89128 0.19033 0.0
H1382 H 0.8881 0.89541 0.08072 0.0
C1383 C 0.81505 0.87195 0.04398 0.0
C1384 C 0.83558 0.88769 0.12798 0.0
C1385 C 0.79799 0.86156 0.02912 0.0
C1386 C 0.91076 0.91404 0.19592 0.0
C1387 C 0.89473 0.9039 0.17825 0.0
C1388 C 0.87347 0.89345 0.09411 0.0
C1389 C 0.81964 0.86923 0.07826 0.0
C1390 C 0.83746 0.88046 0.09472 0.0
C1391 C 0.88954 0.91007 0.14545 0.0
C1392 C 0.87164 0.90011 0.12763 0.0
H1393 H 0.78009 0.83581 0.09826 0.0
H1394 H 0.81007 0.85287 0.12339 0.0
H1395 H 0.85872 0.87811 0.0524 0.0
H1396 H 0.9252 0.9494 0.13624 0.0
H1397 H 0.89734 0.93144 0.10522 0.0
C1398 C 0.43494 0.55967 0.80514 0.0
C1399 C 0.42333 0.54309 0.79089 0.0
C1400 C 0.42485 0.57739 0.81809 0.0
C1401 C 0.37592 0.60791 0.817 0.0
H1402 H 0.39061 0.62209 0.90868 0.0
C1403 C 0.32432 0.66257 0.89798 0.0
C1404 C 0.33375 0.67497 0.923 0.0
C1405 C 0.33615 0.64815 0.87952 0.0
C1406 C 0.38654 0.61873 0.88286 0.0
H1407 H 0.3919 0.53282 0.77785 0.0
H1408 H 0.37441 0.56405 0.79958 0.0
H1409 H 0.40964 0.59444 0.87965 0.0
H1410 H 0.36322 0.68249 0.94735 0.0
H1411 H 0.38405 0.65793 0.91432 0.0
H1412 H 0.35301 0.63233 0.81987 0.0
C1413 C 0.39135 0.56317 0.80086 0.0
C1414 C 0.39744 0.60276 0.86626 0.0
C1415 C 0.40142 0.5453 0.78827 0.0
C1416 C 0.35544 0.67307 0.9284 0.0
C1417 C 0.36735 0.65883 0.90959 0.0
C1418 C 0.3652 0.62412 0.83342 0.0
C1419 C 0.40292 0.57916 0.81666 0.0
C1420 C 0.39209 0.59701 0.8333 0.0
C1421 C 0.35782 0.6459 0.88522 0.0
C1422 C 0.37016 0.62959 0.86678 0.0
H1423 H 0.45187 0.55886 0.80685 0.0
H1424 H 0.4342 0.58963 0.82961 0.0
H1425 H 0.3716 0.60395 0.79146 0.0
H1426 H 0.30762 0.66351 0.89327 0.0
H1427 H 0.32809 0.6383 0.86149 0.0
C1428 C 0.72696 0.14453 0.55145 0.0
C1429 C 0.73368 0.16463 0.56141 0.0
C1430 C 0.70817 0.13607 0.5638 0.0
C1431 C 0.65888 0.15108 0.60935 0.0
H1432 H 0.65833 0.09265 0.63582 0.0
C1433 C 0.60828 0.118 0.7158 0.0
C1434 C 0.59825 0.0986 0.71143 0.0
C1435 C 0.62138 0.12603 0.69093 0.0
C1436 C 0.65809 0.1089 0.628 0.0
H1437 H 0.7252 0.19188 0.59118 0.0
H1438 H 0.69329 0.17697 0.61362 0.0
H1439 H 0.68833 0.10654 0.60505 0.0
H1440 H 0.59371 0.07245 0.67747 0.0
H1441 H 0.61728 0.08632 0.63392 0.0
H1442 H 0.62917 0.15362 0.63416 0.0
C1443 C 0.70223 0.16773 0.59587 0.0
C1444 C 0.6753 0.1169 0.6103 0.0
C1445 C 0.72085 0.17619 0.5834 0.0
C1446 C 0.60102 0.08761 0.68117 0.0
C1447 C 0.61462 0.09544 0.65647 0.0
C1448 C 0.64185 0.14314 0.62741 0.0
C1449 C 0.69562 0.1475 0.58646 0.0
C1450 C 0.6762 0.13826 0.60149 0.0
C1451 C 0.62519 0.1146 0.6614 0.0
C1452 C 0.64148 0.12209 0.6376 0.0
H1453 H 0.73643 0.1351 0.53468 0.0
H1454 H 0.70354 0.12055 0.55563 0.0
H1455 H 0.65865 0.16744 0.60223 0.0
H1456 H 0.60652 0.12666 0.73905 0.0
H1457 H 0.62943 0.14071 0.69563 0.0
C1458 C 0.08725 0.46109 0.30976 0.0
C1459 C 0.09951 0.47896 0.30325 0.0
C1460 C 0.09607 0.44344 0.32508 0.0
C1461 C 0.13904 0.42874 0.3817 0.0
H1462 H 0.12595 0.37184 0.35442 0.0
C1463 C 0.17774 0.35766 0.44642 0.0
C1464 C 0.16544 0.33968 0.45169 0.0
C1465 C 0.17036 0.37411 0.42649 0.0
C1466 C 0.12958 0.38761 0.36268 0.0
H1467 H 0.13079 0.49206 0.30714 0.0
H1468 H 0.14619 0.46124 0.33383 0.0
H1469 H 0.11198 0.40126 0.32239 0.0
H1470 H 0.13572 0.32488 0.4399 0.0
H1471 H 0.12259 0.35375 0.40589 0.0
H1472 H 0.15613 0.4153 0.42245 0.0
C1473 C 0.12972 0.46093 0.32718 0.0
C1474 C 0.12162 0.40448 0.34419 0.0
C1475 C 0.12095 0.47851 0.31155 0.0
C1476 C 0.14564 0.33847 0.43627 0.0
C1477 C 0.13816 0.35502 0.41656 0.0
C1478 C 0.14684 0.4119 0.40035 0.0
C1479 C 0.11732 0.4433 0.33458 0.0
C1480 C 0.12625 0.42526 0.35349 0.0
C1481 C 0.15038 0.37313 0.41148 0.0
C1482 C 0.14222 0.39107 0.39117 0.0
H1483 H 0.07073 0.46088 0.30345 0.0
H1484 H 0.08606 0.43017 0.33056 0.0
H1485 H 0.14262 0.44454 0.3899 0.0
H1486 H 0.19318 0.35902 0.45753 0.0
H1487 H 0.18044 0.38754 0.42266 0.0
C1488 C 0.62939 0.58034 0.31354 0.0
C1489 C 0.60882 0.58798 0.31029 0.0
C1490 C 0.64319 0.5891 0.33688 0.0
C1491 C 0.65659 0.63772 0.37706 0.0
H1492 H 0.68979 0.60332 0.43702 0.0
C1493 C 0.72243 0.67404 0.45872 0.0
C1494 C 0.74065 0.66206 0.46368 0.0
C1495 C 0.70452 0.66506 0.4443 0.0
C1496 C 0.68089 0.61318 0.42017 0.0
H1497 H 0.58645 0.61063 0.32918 0.0
H1498 H 0.61105 0.6266 0.36957 0.0
H1499 H 0.6616 0.58743 0.4043 0.0
H1500 H 0.75444 0.63131 0.45732 0.0
H1501 H 0.72363 0.6158 0.43097 0.0
H1502 H 0.67651 0.66323 0.39106 0.0
C1503 C 0.61625 0.61357 0.35422 0.0
C1504 C 0.66458 0.60406 0.40169 0.0
C1505 C 0.60219 0.60441 0.33131 0.0
C1506 C 0.74053 0.64086 0.45416 0.0
C1507 C 0.72275 0.63195 0.4392 0.0
C1508 C 0.67316 0.6468 0.39507 0.0
C1509 C 0.63691 0.60601 0.35708 0.0
C1510 C 0.65245 0.61618 0.37964 0.0
C1511 C 0.70446 0.64393 0.43389 0.0
C1512 C 0.68579 0.6346 0.41655 0.0
H1513 H 0.6349 0.56761 0.29781 0.0
H1514 H 0.65904 0.58307 0.33837 0.0
H1515 H 0.64764 0.64736 0.3599 0.0
H1516 H 0.72203 0.69038 0.46617 0.0
H1517 H 0.6907 0.67475 0.44139 0.0
C1518 C 0.10869 0.97064 0.7456 0.0
C1519 C 0.09552 0.98372 0.72652 0.0
C1520 C 0.11935 0.95385 0.73053 0.0
C1521 C 0.13615 0.93413 0.64647 0.0
H1522 H 0.14515 0.88194 0.69392 0.0
C1523 C 0.16831 0.86016 0.58037 0.0
C1524 C 0.18498 0.84995 0.59665 0.0
C1525 C 0.1568 0.87573 0.59696 0.0
C1526 C 0.14283 0.89647 0.68043 0.0
H1527 H 0.08359 0.98925 0.67625 0.0
H1528 H 0.10114 0.95966 0.65067 0.0
H1529 H 0.12638 0.91057 0.72151 0.0
H1530 H 0.20211 0.84756 0.64351 0.0
H1531 H 0.18182 0.87454 0.67254 0.0
H1532 H 0.1523 0.91987 0.60523 0.0
C1533 C 0.10367 0.96255 0.67714 0.0
C1534 C 0.13216 0.91295 0.69628 0.0
C1535 C 0.09323 0.97939 0.69206 0.0
C1536 C 0.18943 0.85519 0.63021 0.0
C1537 C 0.17774 0.87056 0.64692 0.0
C1538 C 0.14658 0.91761 0.63054 0.0
C1539 C 0.11705 0.94962 0.69602 0.0
C1540 C 0.12863 0.93202 0.67949 0.0
C1541 C 0.16151 0.88124 0.63032 0.0
C1542 C 0.15005 0.89859 0.6473 0.0
H1543 H 0.11074 0.97328 0.77223 0.0
H1544 H 0.12966 0.9444 0.74589 0.0
H1545 H 0.13424 0.94869 0.63291 0.0
H1546 H 0.16448 0.85652 0.55453 0.0
H1547 H 0.14424 0.88353 0.58362 0.0
C1548 C 0.78808 0.36733 0.99122 0.0
C1549 C 0.78642 0.34531 0.99058 0.0
C1550 C 0.80595 0.37735 0.97859 0.0
C1551 C 0.84649 0.37026 0.91564 0.0
H1552 H 0.87618 0.41487 0.96171 0.0
C1553 C 0.91888 0.40946 0.85549 0.0
C1554 C 0.92174 0.43104 0.86082 0.0
C1555 C 0.90378 0.39833 0.87371 0.0
C1556 C 0.86793 0.40266 0.94819 0.0
H1557 H 0.80315 0.31666 0.9781 0.0
H1558 H 0.83382 0.33421 0.95503 0.0
H1559 H 0.84703 0.39724 0.98947 0.0
H1560 H 0.91101 0.45787 0.88957 0.0
H1561 H 0.88424 0.43882 0.92018 0.0
H1562 H 0.8665 0.3761 0.87381 0.0
C1563 C 0.82117 0.34365 0.9651 0.0
C1564 C 0.85128 0.39249 0.96428 0.0
C1565 C 0.8035 0.33362 0.97818 0.0
C1566 C 0.90934 0.4412 0.88502 0.0
C1567 C 0.89402 0.43018 0.9028 0.0
C1568 C 0.86286 0.38065 0.89932 0.0
C1569 C 0.82244 0.36561 0.96466 0.0
C1570 C 0.84041 0.37619 0.94816 0.0
C1571 C 0.89089 0.40859 0.89731 0.0
C1572 C 0.87384 0.39705 0.91529 0.0
H1573 H 0.77524 0.37691 1.0002 0.0
H1574 H 0.80648 0.39432 0.97842 0.0
H1575 H 0.8382 0.35791 0.90244 0.0
H1576 H 0.92828 0.40114 0.83716 0.0
H1577 H 0.90226 0.38166 0.86919 0.0
C1578 C 0.42917 0.06325 0.22871 0.0
C1579 C 0.41791 0.0446 0.23388 0.0
C1580 C 0.41926 0.08095 0.21536 0.0
C1581 C 0.36634 0.10261 0.19222 0.0
H1582 H 0.39848 0.13381 0.12663 0.0
C1583 C 0.33059 0.1454 0.0792 0.0
C1584 C 0.3372 0.16595 0.07231 0.0
C1585 C 0.34005 0.13378 0.10465 0.0
C1586 C 0.38941 0.12549 0.14529 0.0
H1587 H 0.38737 0.03 0.22982 0.0
H1588 H 0.37021 0.06044 0.20558 0.0
H1589 H 0.41581 0.10728 0.16063 0.0
H1590 H 0.35869 0.19062 0.08693 0.0
H1591 H 0.37598 0.16981 0.13102 0.0
H1592 H 0.33965 0.11998 0.17491 0.0
C1593 C 0.38654 0.06181 0.21267 0.0
C1594 C 0.39933 0.11027 0.16495 0.0
C1595 C 0.39639 0.04424 0.22652 0.0
C1596 C 0.35329 0.17483 0.09183 0.0
C1597 C 0.36318 0.16294 0.11689 0.0
C1598 C 0.35637 0.11755 0.17214 0.0
C1599 C 0.39791 0.08033 0.20629 0.0
C1600 C 0.38785 0.09826 0.18823 0.0
C1601 C 0.35665 0.14227 0.12339 0.0
C1602 C 0.36773 0.12884 0.14804 0.0
H1603 H 0.44576 0.06402 0.23447 0.0
H1604 H 0.42848 0.095 0.21165 0.0
H1605 H 0.35701 0.09416 0.21039 0.0
H1606 H 0.31812 0.13819 0.06473 0.0
H1607 H 0.33484 0.11784 0.10892 0.0
C1608 C 0.30298 0.35324 0.54429 0.0
C1609 C 0.28215 0.35997 0.54911 0.0
C1610 C 0.31959 0.36288 0.56152 0.0
C1611 C 0.32908 0.39137 0.64012 0.0
H1612 H 0.38335 0.40555 0.60267 0.0
C1613 C 0.3875 0.43956 0.71641 0.0
C1614 C 0.4089 0.4343 0.71572 0.0
C1615 C 0.37342 0.43059 0.69381 0.0
C1616 C 0.36837 0.40142 0.61359 0.0
H1617 H 0.26271 0.3827 0.57508 0.0
H1618 H 0.29158 0.39959 0.60463 0.0
H1619 H 0.35611 0.3903 0.56651 0.0
H1620 H 0.4324 0.4159 0.68977 0.0
H1621 H 0.40749 0.39971 0.65025 0.0
H1622 H 0.34112 0.40201 0.68712 0.0
C1623 C 0.29506 0.38672 0.58774 0.0
C1624 C 0.35275 0.39276 0.59284 0.0
C1625 C 0.27851 0.37719 0.57042 0.0
C1626 C 0.416 0.42022 0.691 0.0
C1627 C 0.40173 0.41102 0.66833 0.0
C1628 C 0.34463 0.39982 0.66077 0.0
C1629 C 0.31573 0.37935 0.58419 0.0
C1630 C 0.33279 0.38798 0.60582 0.0
C1631 C 0.38016 0.41583 0.66993 0.0
C1632 C 0.36437 0.40536 0.64776 0.0
H1633 H 0.30637 0.34013 0.52784 0.0
H1634 H 0.33532 0.35682 0.55822 0.0
H1635 H 0.3141 0.38733 0.65116 0.0
H1636 H 0.38147 0.45064 0.73463 0.0
H1637 H 0.35711 0.43522 0.69523 0.0
C1638 C 0.84618 0.15391 0.4565 0.0
C1639 C 0.83364 0.16715 0.43672 0.0
C1640 C 0.85618 0.13649 0.44225 0.0
C1641 C 0.87506 0.11438 0.36236 0.0
H1642 H 0.86923 0.06081 0.40703 0.0
C1643 C 0.90299 0.0371 0.30011 0.0
C1644 C 0.91181 0.02159 0.32082 0.0
C1645 C 0.89335 0.05485 0.314 0.0
C1646 C 0.87134 0.07566 0.3944 0.0
H1647 H 0.82239 0.17282 0.38617 0.0
H1648 H 0.84012 0.14264 0.3613 0.0
H1649 H 0.85376 0.09208 0.43199 0.0
H1650 H 0.91677 0.01259 0.37272 0.0
H1651 H 0.90097 0.04376 0.39671 0.0
H1652 H 0.893 0.09818 0.32513 0.0
C1653 C 0.8421 0.14567 0.38787 0.0
C1654 C 0.86239 0.0936 0.40873 0.0
C1655 C 0.83186 0.16291 0.40218 0.0
C1656 C 0.91053 0.0243 0.35582 0.0
C1657 C 0.90111 0.04211 0.36968 0.0
C1658 C 0.88424 0.09649 0.3482 0.0
C1659 C 0.85414 0.1321 0.40781 0.0
C1660 C 0.8641 0.11315 0.39285 0.0
C1661 C 0.89239 0.0577 0.34901 0.0
C1662 C 0.88249 0.07683 0.36398 0.0
H1663 H 0.84794 0.15671 0.48315 0.0
H1664 H 0.86554 0.12643 0.45819 0.0
H1665 H 0.87681 0.12927 0.34968 0.0
H1666 H 0.90381 0.03575 0.27307 0.0
H1667 H 0.88655 0.06629 0.29718 0.0
C1668 C 0.10618 0.60135 0.19238 0.0
C1669 C 0.11416 0.58702 0.21587 0.0
C1670 C 0.11933 0.60982 0.16768 0.0
C1671 C 0.16786 0.60066 0.12077 0.0
H1672 H 0.17495 0.66098 0.12095 0.0
C1673 C 0.24068 0.64007 0.06267 0.0
C1674 C 0.23916 0.66068 0.05077 0.0
C1675 C 0.22344 0.63045 0.07796 0.0
C1676 C 0.17292 0.64415 0.11979 0.0
H1677 H 0.1418 0.56964 0.23104 0.0
H1678 H 0.16443 0.58393 0.18753 0.0
H1679 H 0.14774 0.64518 0.1554 0.0
H1680 H 0.21828 0.68703 0.04375 0.0
H1681 H 0.18789 0.67 0.06883 0.0
H1682 H 0.1928 0.59944 0.08505 0.0
C1683 C 0.14817 0.58883 0.18841 0.0
C1684 C 0.15731 0.63512 0.13972 0.0
C1685 C 0.13523 0.58077 0.21346 0.0
C1686 C 0.21986 0.67116 0.05302 0.0
C1687 C 0.20251 0.66142 0.0677 0.0
C1688 C 0.18321 0.60969 0.10034 0.0
C1689 C 0.14046 0.60364 0.16557 0.0
C1690 C 0.15496 0.61328 0.14098 0.0
C1691 C 0.20416 0.6411 0.08118 0.0
C1692 C 0.18634 0.63155 0.10016 0.0
H1693 H 0.09 0.60643 0.19371 0.0
H1694 H 0.11304 0.62123 0.15031 0.0
H1695 H 0.16624 0.58376 0.12114 0.0
H1696 H 0.25547 0.63175 0.06154 0.0
H1697 H 0.22558 0.61496 0.08843 0.0
C1698 C 0.59451 0.96207 0.78745 0.0
C1699 C 0.60281 0.9824 0.79094 0.0
C1700 C 0.60454 0.94484 0.80216 0.0
C1701 C 0.65472 0.9284 0.84354 0.0
H1702 H 0.61927 0.88753 0.88772 0.0
C1703 C 0.68193 0.87961 0.95595 0.0
C1704 C 0.67721 0.85809 0.95702 0.0
C1705 C 0.67383 0.89235 0.93069 0.0
C1706 C 0.62939 0.89861 0.87504 0.0
H1707 H 0.62836 1.00043 0.81236 0.0
H1708 H 0.64562 0.97065 0.83831 0.0
H1709 H 0.6034 0.91454 0.85263 0.0
H1710 H 0.66033 0.83301 0.93212 0.0
H1711 H 0.64552 0.85563 0.88803 0.0
H1712 H 0.68058 0.91304 0.86746 0.0
C1713 C 0.63164 0.9678 0.82357 0.0
C1714 C 0.62032 0.91412 0.85483 0.0
C1715 C 0.62171 0.98497 0.80865 0.0
C1716 C 0.66426 0.84953 0.9319 0.0
C1717 C 0.65575 0.86246 0.90681 0.0
C1718 C 0.66373 0.91307 0.86401 0.0
C1719 C 0.62305 0.9475 0.82098 0.0
C1720 C 0.63283 0.92955 0.83939 0.0
C1721 C 0.6605 0.88402 0.906 0.0
C1722 C 0.65114 0.89828 0.88057 0.0
H1723 H 0.58008 0.95953 0.77369 0.0
H1724 H 0.59763 0.92945 0.79904 0.0
H1725 H 0.66496 0.93961 0.83145 0.0
H1726 H 0.69197 0.88673 0.97474 0.0
H1727 H 0.6776 0.90891 0.931 0.0
loop_
_geom_bond_atom_site_label_1
_geom_bond_atom_site_label_2
_geom_bond_distance
_geom_bond_site_symmetry_2
_ccdc_geom_bond_type
C0 C1 1.351 . S
C0 N3 1.368 . S
C0 H5 0.931 . S
C1 C0 1.351 . S
C1 N2 1.373 . S
C1 H29 0.930 . S
N2 C1 1.373 . S
N2 C4 1.340 . S
N3 C0 1.368 . S
N3 C4 1.321 . S
N3 Co6 2.135 . S
C4 N2 1.340 . S
C4 N3 1.321 . S
C4 H28 0.930 . S
H5 C0 0.931 . S
Co6 N3 2.135 . S
Co6 N9 2.121 1_554 S
Co6 O14 2.055 . S
Co6 O17 2.039 . S
Co6 N20 2.140 . S
C7 O8 1.227 . S
C7 O17 1.265 . S
O8 C7 1.227 . S
N9 Co6 2.121 1_556 S
N9 C11 1.375 . S
N9 C12 1.313 . S
C10 C11 1.338 . S
C10 N13 1.377 . S
C10 H30 0.930 . S
C11 N9 1.375 . S
C11 C10 1.338 . S
C11 H15 0.931 1_556 S
C12 N9 1.313 . S
C12 N13 1.344 . S
C12 H16 0.930 . S
N13 C10 1.377 . S
N13 C12 1.344 . S
O14 Co6 2.055 . S
O14 C18 1.253 1_554 S
H15 C11 0.931 1_554 S
H16 C12 0.930 . S
O17 Co6 2.039 . S
O17 C7 1.265 . S
C18 O14 1.253 1_556 S
C18 O19 1.227 . S
O19 C18 1.227 . S
N20 Co6 2.140 . S
N20 C23 1.346 . S
N20 C24 1.344 1_554 S
C21 C22 1.387 1_556 S
C21 C25 1.391 . S
C22 C21 1.387 1_554 S
C22 C23 1.369 . S
C22 H31 0.929 . S
C23 N20 1.346 . S
C23 C22 1.369 . S
C23 H26 0.928 . S
C24 N20 1.344 1_556 S
C24 C25 1.371 . S
C24 H27 0.931 . S
C25 C21 1.391 . S
C25 C24 1.371 . S
C25 H32 0.930 . S
H26 C23 0.928 . S
H27 C24 0.931 . S
H28 C4 0.930 . S
H29 C1 0.930 . S
H30 C10 0.930 . S
H31 C22 0.929 . S
H32 C25 0.930 . S
C33 C34 1.351 . S
C33 N36 1.368 . S
C33 H38 0.931 . S
C34 C33 1.351 . S
C34 N35 1.373 . S
C34 H62 0.930 . S
N35 C34 1.373 . S
N35 C37 1.340 . S
N36 C33 1.368 . S
N36 C37 1.321 . S
N36 Co39 2.135 . S
C37 N35 1.340 . S
C37 N36 1.321 . S
C37 H61 0.930 . S
H38 C33 0.931 . S
Co39 N36 2.135 . S
Co39 N42 2.121 . S
Co39 O47 2.055 . S
Co39 O50 2.039 . S
Co39 N53 2.140 . S
C40 O41 1.227 . S
C40 O50 1.265 . S
O41 C40 1.227 . S
N42 Co39 2.121 . S
N42 C44 1.375 . S
N42 C45 1.313 . S
C43 C44 1.338 . S
C43 N46 1.377 . S
C43 H63 0.930 . S
C44 N42 1.375 . S
C44 C43 1.338 . S
C44 H48 0.931 . S
C45 N42 1.313 . S
C45 N46 1.344 . S
C45 H49 0.930 . S
N46 C43 1.377 . S
N46 C45 1.344 . S
O47 Co39 2.055 . S
O47 C51 1.253 . S
H48 C44 0.931 . S
H49 C45 0.930 . S
O50 Co39 2.039 . S
O50 C40 1.265 . S
C51 O47 1.253 . S
C51 O52 1.227 . S
O52 C51 1.227 . S
N53 Co39 2.140 . S
N53 C56 1.346 . S
N53 C57 1.345 . S
C54 C55 1.387 . S
C54 C58 1.391 . S
C55 C54 1.387 . S
C55 C56 1.369 . S
C55 H64 0.929 . S
C56 N53 1.346 . S
C56 C55 1.369 . S
C56 H59 0.928 . S
C57 N53 1.345 . S
C57 C58 1.371 . S
C57 H60 0.931 . S
C58 C54 1.391 . S
C58 C57 1.371 . S
C58 H65 0.930 . S
H59 C56 0.928 . S
H60 C57 0.931 . S
H61 C37 0.930 . S
H62 C34 0.930 . S
H63 C43 0.930 . S
H64 C55 0.929 . S
H65 C58 0.930 . S
C66 C67 1.351 . S
C66 N69 1.368 . S
C66 H71 0.931 . S
C67 C66 1.351 . S
C67 N68 1.373 . S
C67 H95 0.930 . S
N68 C67 1.373 . S
N68 C70 1.340 . S
N69 C66 1.368 . S
N69 C70 1.321 . S
N69 Co72 2.135 . S
C70 N68 1.340 . S
C70 N69 1.321 . S
C70 H94 0.930 . S
H71 C66 0.931 . S
Co72 N69 2.135 . S
Co72 N75 2.121 . S
Co72 O80 2.055 . S
Co72 O83 2.039 . S
Co72 N86 2.140 . S
C73 O74 1.227 . S
C73 O83 1.265 . S
O74 C73 1.227 . S
N75 Co72 2.121 . S
N75 C77 1.375 . S
N75 C78 1.313 . S
C76 C77 1.338 . S
C76 N79 1.377 . S
C76 H96 0.930 . S
C77 N75 1.375 . S
C77 C76 1.338 . S
C77 H81 0.931 . S
C78 N75 1.313 . S
C78 N79 1.344 . S
C78 H82 0.930 . S
N79 C76 1.377 . S
N79 C78 1.344 . S
O80 Co72 2.055 . S
O80 C84 1.253 . S
H81 C77 0.931 . S
H82 C78 0.930 . S
O83 Co72 2.039 . S
O83 C73 1.265 . S
C84 O80 1.253 . S
C84 O85 1.227 . S
O85 C84 1.227 . S
N86 Co72 2.140 . S
N86 C89 1.346 . S
N86 C90 1.345 . S
C87 C88 1.387 . S
C87 C91 1.391 . S
C88 C87 1.387 . S
C88 C89 1.369 . S
C88 H97 0.929 . S
C89 N86 1.346 . S
C89 C88 1.369 . S
C89 H92 0.928 . S
C90 N86 1.345 . S
C90 C91 1.371 . S
C90 H93 0.931 . S
C91 C87 1.391 . S
C91 C90 1.371 . S
C91 H98 0.930 . S
H92 C89 0.928 . S
H93 C90 0.931 . S
H94 C70 0.930 . S
H95 C67 0.930 . S
H96 C76 0.930 . S
H97 C88 0.929 . S
H98 C91 0.930 . S
C99 C100 1.351 . S
C99 N102 1.368 . S
C99 H104 0.931 . S
C100 C99 1.351 . S
C100 N101 1.373 . S
C100 H128 0.930 . S
N101 C100 1.373 . S
N101 C103 1.340 . S
N102 C99 1.368 . S
N102 C103 1.321 . S
N102 Co105 2.135 . S
C103 N101 1.340 . S
C103 N102 1.321 . S
C103 H127 0.930 . S
H104 C99 0.931 . S
Co105 N102 2.135 . S
Co105 N108 2.121 . S
Co105 O113 2.055 . S
Co105 O116 2.039 . S
Co105 N119 2.140 . S
C106 O107 1.227 . S
C106 O116 1.265 . S
O107 C106 1.227 . S
N108 Co105 2.121 . S
N108 C110 1.375 . S
N108 C111 1.313 . S
C109 C110 1.338 . S
C109 N112 1.377 . S
C109 H129 0.930 . S
C110 N108 1.375 . S
C110 C109 1.338 . S
C110 H114 0.931 . S
C111 N108 1.313 . S
C111 N112 1.344 . S
C111 H115 0.930 . S
N112 C109 1.377 . S
N112 C111 1.344 . S
O113 Co105 2.055 . S
O113 C117 1.253 . S
H114 C110 0.931 . S
H115 C111 0.930 . S
O116 Co105 2.039 . S
O116 C106 1.265 . S
C117 O113 1.253 . S
C117 O118 1.227 . S
O118 C117 1.227 . S
N119 Co105 2.140 . S
N119 C122 1.346 . S
N119 C123 1.345 . S
C120 C121 1.387 . S
C120 C124 1.391 . S
C121 C120 1.387 . S
C121 C122 1.369 . S
C121 H130 0.929 . S
C122 N119 1.346 . S
C122 C121 1.369 . S
C122 H125 0.928 . S
C123 N119 1.345 . S
C123 C124 1.371 . S
C123 H126 0.931 . S
C124 C120 1.391 . S
C124 C123 1.371 . S
C124 H131 0.930 . S
H125 C122 0.928 . S
H126 C123 0.931 . S
H127 C103 0.930 . S
H128 C100 0.930 . S
H129 C109 0.930 . S
H130 C121 0.929 . S
H131 C124 0.930 . S
C132 C133 1.351 . S
C132 N135 1.368 . S
C132 H137 0.931 . S
C133 C132 1.351 . S
C133 N134 1.373 . S
C133 H161 0.930 . S
N134 C133 1.373 . S
N134 C136 1.340 . S
N135 C132 1.368 . S
N135 C136 1.321 . S
N135 Co138 2.135 . S
C136 N134 1.340 . S
C136 N135 1.321 . S
C136 H160 0.930 . S
H137 C132 0.931 . S
Co138 N135 2.135 . S
Co138 N141 2.121 1_556 S
Co138 O146 2.055 . S
Co138 O149 2.039 . S
Co138 N152 2.140 . S
C139 O140 1.227 . S
C139 O149 1.265 . S
O140 C139 1.227 . S
N141 Co138 2.121 1_554 S
N141 C143 1.375 . S
N141 C144 1.313 . S
C142 C143 1.338 . S
C142 N145 1.377 . S
C142 H162 0.930 . S
C143 N141 1.375 . S
C143 C142 1.338 . S
C143 H147 0.931 1_554 S
C144 N141 1.313 . S
C144 N145 1.344 . S
C144 H148 0.930 . S
N145 C142 1.377 . S
N145 C144 1.344 . S
O146 Co138 2.055 . S
O146 C150 1.253 1_556 S
H147 C143 0.931 1_556 S
H148 C144 0.930 . S
O149 Co138 2.039 . S
O149 C139 1.265 . S
C150 O146 1.253 1_554 S
C150 O151 1.227 . S
O151 C150 1.227 . S
N152 Co138 2.140 . S
N152 C155 1.346 . S
N152 C156 1.344 1_556 S
C153 C154 1.387 1_554 S
C153 C157 1.391 . S
C154 C153 1.387 1_556 S
C154 C155 1.369 . S
C154 H163 0.929 . S
C155 N152 1.346 . S
C155 C154 1.369 . S
C155 H158 0.928 . S
C156 N152 1.344 1_554 S
C156 C157 1.371 . S
C156 H159 0.931 . S
C157 C153 1.391 . S
C157 C156 1.371 . S
C157 H164 0.930 . S
H158 C155 0.928 . S
H159 C156 0.931 . S
H160 C136 0.930 . S
H161 C133 0.930 . S
H162 C142 0.930 . S
H163 C154 0.929 . S
H164 C157 0.930 . S
C165 C166 1.351 . S
C165 N168 1.368 . S
C165 H170 0.931 . S
C166 C165 1.351 . S
C166 N167 1.373 . S
C166 H194 0.930 . S
N167 C166 1.373 . S
N167 C169 1.340 . S
N168 C165 1.368 . S
N168 C169 1.321 . S
N168 Co171 2.135 . S
C169 N167 1.340 . S
C169 N168 1.321 . S
C169 H193 0.930 . S
H170 C165 0.931 . S
Co171 N168 2.135 . S
Co171 N174 2.121 . S
Co171 O179 2.055 . S
Co171 O182 2.039 . S
Co171 N185 2.140 . S
C172 O173 1.227 . S
C172 O182 1.265 . S
O173 C172 1.227 . S
N174 Co171 2.121 . S
N174 C176 1.375 . S
N174 C177 1.313 . S
C175 C176 1.338 . S
C175 N178 1.377 . S
C175 H195 0.930 . S
C176 N174 1.375 . S
C176 C175 1.338 . S
C176 H180 0.931 . S
C177 N174 1.313 . S
C177 N178 1.344 . S
C177 H181 0.930 . S
N178 C175 1.377 . S
N178 C177 1.344 . S
O179 Co171 2.055 . S
O179 C183 1.253 . S
H180 C176 0.931 . S
H181 C177 0.930 . S
O182 Co171 2.039 . S
O182 C172 1.265 . S
C183 O179 1.253 . S
C183 O184 1.227 . S
O184 C183 1.227 . S
N185 Co171 2.140 . S
N185 C188 1.346 . S
N185 C189 1.345 . S
C186 C187 1.387 . S
C186 C190 1.391 . S
C187 C186 1.387 . S
C187 C188 1.369 . S
C187 H196 0.929 . S
C188 N185 1.346 . S
C188 C187 1.369 . S
C188 H191 0.928 . S
C189 N185 1.345 . S
C189 C190 1.371 . S
C189 H192 0.931 . S
C190 C186 1.391 . S
C190 C189 1.371 . S
C190 H197 0.930 . S
H191 C188 0.928 . S
H192 C189 0.931 . S
H193 C169 0.930 . S
H194 C166 0.930 . S
H195 C175 0.930 . S
H196 C187 0.929 . S
H197 C190 0.930 . S
C198 C199 1.351 . S
C198 N201 1.368 . S
C198 H203 0.931 . S
C199 C198 1.351 . S
C199 N200 1.373 . S
C199 H227 0.930 . S
N200 C199 1.373 . S
N200 C202 1.340 . S
N201 C198 1.368 . S
N201 C202 1.321 . S
N201 Co204 2.135 . S
C202 N200 1.340 . S
C202 N201 1.321 . S
C202 H226 0.930 . S
H203 C198 0.931 . S
Co204 N201 2.135 . S
Co204 N207 2.121 . S
Co204 O212 2.055 . S
Co204 O215 2.039 . S
Co204 N218 2.140 . S
C205 O206 1.227 . S
C205 O215 1.265 . S
O206 C205 1.227 . S
N207 Co204 2.121 . S
N207 C209 1.375 . S
N207 C210 1.313 . S
C208 C209 1.338 . S
C208 N211 1.377 . S
C208 H228 0.930 . S
C209 N207 1.375 . S
C209 C208 1.338 . S
C209 H213 0.931 . S
C210 N207 1.313 . S
C210 N211 1.344 . S
C210 H214 0.930 . S
N211 C208 1.377 . S
N211 C210 1.344 . S
O212 Co204 2.055 . S
O212 C216 1.253 . S
H213 C209 0.931 . S
H214 C210 0.930 . S
O215 Co204 2.039 . S
O215 C205 1.265 . S
C216 O212 1.253 . S
C216 O217 1.227 . S
O217 C216 1.227 . S
N218 Co204 2.140 . S
N218 C221 1.346 . S
N218 C222 1.345 . S
C219 C220 1.387 . S
C219 C223 1.391 . S
C220 C219 1.387 . S
C220 C221 1.369 . S
C220 H229 0.929 . S
C221 N218 1.346 . S
C221 C220 1.369 . S
C221 H224 0.928 . S
C222 N218 1.345 . S
C222 C223 1.371 . S
C222 H225 0.931 . S
C223 C219 1.391 . S
C223 C222 1.371 . S
C223 H230 0.930 . S
H224 C221 0.928 . S
H225 C222 0.931 . S
H226 C202 0.930 . S
H227 C199 0.930 . S
H228 C208 0.930 . S
H229 C220 0.929 . S
H230 C223 0.930 . S
C231 C232 1.351 . S
C231 N234 1.368 . S
C231 H236 0.931 . S
C232 C231 1.351 . S
C232 N233 1.373 . S
C232 H260 0.930 . S
N233 C232 1.373 . S
N233 C235 1.340 . S
N234 C231 1.368 . S
N234 C235 1.321 . S
N234 Co237 2.135 . S
C235 N233 1.340 . S
C235 N234 1.321 . S
C235 H259 0.930 . S
H236 C231 0.931 . S
Co237 N234 2.135 . S
Co237 N240 2.121 . S
Co237 O245 2.055 . S
Co237 O248 2.039 . S
Co237 N251 2.140 . S
C238 O239 1.227 . S
C238 O248 1.265 . S
O239 C238 1.227 . S
N240 Co237 2.121 . S
N240 C242 1.375 . S
N240 C243 1.313 . S
C241 C242 1.338 . S
C241 N244 1.377 . S
C241 H261 0.930 . S
C242 N240 1.375 . S
C242 C241 1.338 . S
C242 H246 0.931 . S
C243 N240 1.313 . S
C243 N244 1.344 . S
C243 H247 0.930 . S
N244 C241 1.377 . S
N244 C243 1.344 . S
O245 Co237 2.055 . S
O245 C249 1.253 . S
H246 C242 0.931 . S
H247 C243 0.930 . S
O248 Co237 2.039 . S
O248 C238 1.265 . S
C249 O245 1.253 . S
C249 O250 1.227 . S
O250 C249 1.227 . S
N251 Co237 2.140 . S
N251 C254 1.346 . S
N251 C255 1.345 . S
C252 C253 1.387 . S
C252 C256 1.391 . S
C253 C252 1.387 . S
C253 C254 1.369 . S
C253 H262 0.929 . S
C254 N251 1.346 . S
C254 C253 1.369 . S
C254 H257 0.928 . S
C255 N251 1.345 . S
C255 C256 1.371 . S
C255 H258 0.931 . S
C256 C252 1.391 . S
C256 C255 1.371 . S
C256 H263 0.930 . S
H257 C254 0.928 . S
H258 C255 0.931 . S
H259 C235 0.930 . S
H260 C232 0.930 . S
H261 C241 0.930 . S
H262 C253 0.929 . S
H263 C256 0.930 . S
C264 C265 1.351 . S
C264 N267 1.368 . S
C264 H269 0.931 . S
C265 C264 1.351 . S
C265 N266 1.373 . S
C265 H293 0.930 . S
N266 C265 1.373 . S
N266 C268 1.340 . S
N267 C264 1.368 . S
N267 C268 1.321 . S
N267 Co270 2.135 . S
C268 N266 1.340 . S
C268 N267 1.321 . S
C268 H292 0.930 . S
H269 C264 0.931 . S
Co270 N267 2.135 . S
Co270 N273 2.121 . S
Co270 O278 2.055 . S
Co270 O281 2.039 . S
Co270 N284 2.140 . S
C271 O272 1.227 . S
C271 O281 1.265 . S
O272 C271 1.227 . S
N273 Co270 2.121 . S
N273 C275 1.375 . S
N273 C276 1.313 . S
C274 C275 1.338 . S
C274 N277 1.377 . S
C274 H294 0.930 . S
C275 N273 1.375 . S
C275 C274 1.338 . S
C275 H279 0.931 . S
C276 N273 1.313 . S
C276 N277 1.344 . S
C276 H280 0.930 . S
N277 C274 1.377 . S
N277 C276 1.344 . S
O278 Co270 2.055 . S
O278 C282 1.253 . S
H279 C275 0.931 . S
H280 C276 0.930 . S
O281 Co270 2.039 . S
O281 C271 1.265 . S
C282 O278 1.253 . S
C282 O283 1.227 . S
O283 C282 1.227 . S
N284 Co270 2.140 . S
N284 C287 1.346 . S
N284 C288 1.345 . S
C285 C286 1.387 . S
C285 C289 1.391 . S
C286 C285 1.387 . S
C286 C287 1.369 . S
C286 H295 0.929 . S
C287 N284 1.346 . S
C287 C286 1.369 . S
C287 H290 0.928 . S
C288 N284 1.345 . S
C288 C289 1.371 . S
C288 H291 0.931 . S
C289 C285 1.391 . S
C289 C288 1.371 . S
C289 H296 0.930 . S
H290 C287 0.928 . S
H291 C288 0.931 . S
H292 C268 0.930 . S
H293 C265 0.930 . S
H294 C274 0.930 . S
H295 C286 0.929 . S
H296 C289 0.930 . S
C297 C298 1.351 . S
C297 N300 1.368 . S
C297 H302 0.931 . S
C298 C297 1.351 . S
C298 N299 1.373 . S
C298 H326 0.930 . S
N299 C298 1.373 . S
N299 C301 1.340 . S
N300 C297 1.368 . S
N300 C301 1.321 . S
N300 Co303 2.135 . S
C301 N299 1.340 . S
C301 N300 1.321 . S
C301 H325 0.930 . S
H302 C297 0.931 . S
Co303 N300 2.135 . S
Co303 N306 2.121 . S
Co303 O311 2.055 . S
Co303 O314 2.039 . S
Co303 N317 2.140 . S
C304 O305 1.227 . S
C304 O314 1.265 . S
O305 C304 1.227 . S
N306 Co303 2.121 . S
N306 C308 1.375 . S
N306 C309 1.313 . S
C307 C308 1.338 . S
C307 N310 1.377 . S
C307 H327 0.930 . S
C308 N306 1.375 . S
C308 C307 1.338 . S
C308 H312 0.931 . S
C309 N306 1.313 . S
C309 N310 1.344 . S
C309 H313 0.930 . S
N310 C307 1.377 . S
N310 C309 1.344 . S
O311 Co303 2.055 . S
O311 C315 1.253 . S
H312 C308 0.931 . S
H313 C309 0.930 . S
O314 Co303 2.039 . S
O314 C304 1.265 . S
C315 O311 1.253 . S
C315 O316 1.227 . S
O316 C315 1.227 . S
N317 Co303 2.140 . S
N317 C320 1.346 . S
N317 C321 1.345 . S
C318 C319 1.387 . S
C318 C322 1.391 . S
C319 C318 1.387 . S
C319 C320 1.369 . S
C319 H328 0.929 . S
C320 N317 1.346 . S
C320 C319 1.369 . S
C320 H323 0.928 . S
C321 N317 1.345 . S
C321 C322 1.371 . S
C321 H324 0.931 . S
C322 C318 1.391 . S
C322 C321 1.371 . S
C322 H329 0.930 . S
H323 C320 0.928 . S
H324 C321 0.931 . S
H325 C301 0.930 . S
H326 C298 0.930 . S
H327 C307 0.930 . S
H328 C319 0.929 . S
H329 C322 0.930 . S
C330 C331 1.351 . S
C330 N333 1.368 . S
C330 H335 0.931 . S
C331 C330 1.351 . S
C331 N332 1.373 . S
C331 H359 0.930 . S
N332 C331 1.373 . S
N332 C334 1.340 . S
N333 C330 1.368 . S
N333 C334 1.321 . S
N333 Co336 2.135 . S
C334 N332 1.340 . S
C334 N333 1.321 . S
C334 H358 0.930 . S
H335 C330 0.931 . S
Co336 N333 2.135 . S
Co336 N339 2.121 1_554 S
Co336 O344 2.055 . S
Co336 O347 2.039 . S
Co336 N350 2.140 . S
C337 O338 1.227 . S
C337 O347 1.265 . S
O338 C337 1.227 . S
N339 Co336 2.121 1_556 S
N339 C341 1.375 . S
N339 C342 1.313 . S
C340 C341 1.338 . S
C340 N343 1.377 . S
C340 H360 0.930 . S
C341 N339 1.375 . S
C341 C340 1.338 . S
C341 H345 0.931 1_556 S
C342 N339 1.313 . S
C342 N343 1.344 . S
C342 H346 0.930 . S
N343 C340 1.377 . S
N343 C342 1.344 . S
O344 Co336 2.055 . S
O344 C348 1.253 1_554 S
H345 C341 0.931 1_554 S
H346 C342 0.930 . S
O347 Co336 2.039 . S
O347 C337 1.265 . S
C348 O344 1.253 1_556 S
C348 O349 1.227 . S
O349 C348 1.227 . S
N350 Co336 2.140 . S
N350 C353 1.346 . S
N350 C354 1.344 1_554 S
C351 C352 1.387 1_556 S
C351 C355 1.391 . S
C352 C351 1.387 1_554 S
C352 C353 1.369 . S
C352 H361 0.929 . S
C353 N350 1.346 . S
C353 C352 1.369 . S
C353 H356 0.928 . S
C354 N350 1.344 1_556 S
C354 C355 1.371 . S
C354 H357 0.931 . S
C355 C351 1.391 . S
C355 C354 1.371 . S
C355 H362 0.930 . S
H356 C353 0.928 . S
H357 C354 0.931 . S
H358 C334 0.930 . S
H359 C331 0.930 . S
H360 C340 0.930 . S
H361 C352 0.929 . S
H362 C355 0.930 . S
C363 C364 1.351 . S
C363 N366 1.368 . S
C363 H368 0.931 . S
C364 C363 1.351 . S
C364 N365 1.373 . S
C364 H392 0.930 . S
N365 C364 1.373 . S
N365 C367 1.340 . S
N366 C363 1.368 . S
N366 C367 1.321 . S
N366 Co369 2.135 . S
C367 N365 1.340 . S
C367 N366 1.321 . S
C367 H391 0.930 . S
H368 C363 0.931 . S
Co369 N366 2.135 . S
Co369 N372 2.121 . S
Co369 O377 2.055 . S
Co369 O380 2.039 . S
Co369 N383 2.140 . S
C370 O371 1.227 . S
C370 O380 1.265 . S
O371 C370 1.227 . S
N372 Co369 2.121 . S
N372 C374 1.375 . S
N372 C375 1.313 . S
C373 C374 1.338 . S
C373 N376 1.377 . S
C373 H393 0.930 . S
C374 N372 1.375 . S
C374 C373 1.338 . S
C374 H378 0.931 . S
C375 N372 1.313 . S
C375 N376 1.344 . S
C375 H379 0.930 . S
N376 C373 1.377 . S
N376 C375 1.344 . S
O377 Co369 2.055 . S
O377 C381 1.253 . S
H378 C374 0.931 . S
H379 C375 0.930 . S
O380 Co369 2.039 . S
O380 C370 1.265 . S
C381 O377 1.253 . S
C381 O382 1.227 . S
O382 C381 1.227 . S
N383 Co369 2.140 . S
N383 C386 1.346 . S
N383 C387 1.345 . S
C384 C385 1.387 . S
C384 C388 1.391 . S
C385 C384 1.387 . S
C385 C386 1.369 . S
C385 H394 0.929 . S
C386 N383 1.346 . S
C386 C385 1.369 . S
C386 H389 0.928 . S
C387 N383 1.345 . S
C387 C388 1.371 . S
C387 H390 0.931 . S
C388 C384 1.391 . S
C388 C387 1.371 . S
C388 H395 0.930 . S
H389 C386 0.928 . S
H390 C387 0.931 . S
H391 C367 0.930 . S
H392 C364 0.930 . S
H393 C373 0.930 . S
H394 C385 0.929 . S
H395 C388 0.930 . S
C396 C397 1.351 . S
C396 N399 1.368 . S
C396 H401 0.931 . S
C397 C396 1.351 . S
C397 N398 1.373 . S
C397 H425 0.930 . S
N398 C397 1.373 . S
N398 C400 1.340 . S
N399 C396 1.368 . S
N399 C400 1.321 . S
N399 Co402 2.135 . S
C400 N398 1.340 . S
C400 N399 1.321 . S
C400 H424 0.930 . S
H401 C396 0.931 . S
Co402 N399 2.135 . S
Co402 N405 2.121 . S
Co402 O410 2.055 . S
Co402 O413 2.039 . S
Co402 N416 2.140 . S
C403 O404 1.227 . S
C403 O413 1.265 . S
O404 C403 1.227 . S
N405 Co402 2.121 . S
N405 C407 1.375 . S
N405 C408 1.313 . S
C406 C407 1.338 . S
C406 N409 1.377 . S
C406 H426 0.930 . S
C407 N405 1.375 . S
C407 C406 1.338 . S
C407 H411 0.931 . S
C408 N405 1.313 . S
C408 N409 1.344 . S
C408 H412 0.930 . S
N409 C406 1.377 . S
N409 C408 1.344 . S
O410 Co402 2.055 . S
O410 C414 1.253 . S
H411 C407 0.931 . S
H412 C408 0.930 . S
O413 Co402 2.039 . S
O413 C403 1.265 . S
C414 O410 1.253 . S
C414 O415 1.227 . S
O415 C414 1.227 . S
N416 Co402 2.140 . S
N416 C419 1.346 . S
N416 C420 1.345 . S
C417 C418 1.387 . S
C417 C421 1.391 . S
C418 C417 1.387 . S
C418 C419 1.369 . S
C418 H427 0.929 . S
C419 N416 1.346 . S
C419 C418 1.369 . S
C419 H422 0.928 . S
C420 N416 1.345 . S
C420 C421 1.371 . S
C420 H423 0.931 . S
C421 C417 1.391 . S
C421 C420 1.371 . S
C421 H428 0.930 . S
H422 C419 0.928 . S
H423 C420 0.931 . S
H424 C400 0.930 . S
H425 C397 0.930 . S
H426 C406 0.930 . S
H427 C418 0.929 . S
H428 C421 0.930 . S
C429 C430 1.351 . S
C429 N432 1.368 . S
C429 H434 0.931 . S
C430 C429 1.351 . S
C430 N431 1.373 . S
C430 H458 0.930 . S
N431 C430 1.373 . S
N431 C433 1.340 . S
N432 C429 1.368 . S
N432 C433 1.321 . S
N432 Co435 2.135 . S
C433 N431 1.340 . S
C433 N432 1.321 . S
C433 H457 0.930 . S
H434 C429 0.931 . S
Co435 N432 2.135 . S
Co435 N438 2.121 . S
Co435 O443 2.055 . S
Co435 O446 2.039 . S
Co435 N449 2.140 . S
C436 O437 1.227 . S
C436 O446 1.265 . S
O437 C436 1.227 . S
N438 Co435 2.121 . S
N438 C440 1.375 . S
N438 C441 1.313 . S
C439 C440 1.338 . S
C439 N442 1.377 . S
C439 H459 0.930 . S
C440 N438 1.375 . S
C440 C439 1.338 . S
C440 H444 0.931 . S
C441 N438 1.313 . S
C441 N442 1.344 . S
C441 H445 0.930 . S
N442 C439 1.377 . S
N442 C441 1.344 . S
O443 Co435 2.055 . S
O443 C447 1.253 . S
H444 C440 0.931 . S
H445 C441 0.930 . S
O446 Co435 2.039 . S
O446 C436 1.265 . S
C447 O443 1.253 . S
C447 O448 1.227 . S
O448 C447 1.227 . S
N449 Co435 2.140 . S
N449 C452 1.346 . S
N449 C453 1.345 . S
C450 C451 1.387 . S
C450 C454 1.391 . S
C451 C450 1.387 . S
C451 C452 1.369 . S
C451 H460 0.929 . S
C452 N449 1.346 . S
C452 C451 1.369 . S
C452 H455 0.928 . S
C453 N449 1.345 . S
C453 C454 1.371 . S
C453 H456 0.931 . S
C454 C450 1.391 . S
C454 C453 1.371 . S
C454 H461 0.930 . S
H455 C452 0.928 . S
H456 C453 0.931 . S
H457 C433 0.930 . S
H458 C430 0.930 . S
H459 C439 0.930 . S
H460 C451 0.929 . S
H461 C454 0.930 . S
C462 C463 1.351 . S
C462 N465 1.368 . S
C462 H467 0.931 . S
C463 C462 1.351 . S
C463 N464 1.373 . S
C463 H491 0.930 . S
N464 C463 1.373 . S
N464 C466 1.340 . S
N465 C462 1.368 . S
N465 C466 1.321 . S
N465 Co468 2.135 . S
C466 N464 1.340 . S
C466 N465 1.321 . S
C466 H490 0.930 . S
H467 C462 0.931 . S
Co468 N465 2.135 . S
Co468 N471 2.121 1_556 S
Co468 O476 2.055 . S
Co468 O479 2.039 . S
Co468 N482 2.140 . S
C469 O470 1.227 . S
C469 O479 1.265 . S
O470 C469 1.227 . S
N471 Co468 2.121 1_554 S
N471 C473 1.375 . S
N471 C474 1.313 . S
C472 C473 1.338 . S
C472 N475 1.377 . S
C472 H492 0.930 . S
C473 N471 1.375 . S
C473 C472 1.338 . S
C473 H477 0.931 1_554 S
C474 N471 1.313 . S
C474 N475 1.344 . S
C474 H478 0.930 . S
N475 C472 1.377 . S
N475 C474 1.344 . S
O476 Co468 2.055 . S
O476 C480 1.253 1_556 S
H477 C473 0.931 1_556 S
H478 C474 0.930 . S
O479 Co468 2.039 . S
O479 C469 1.265 . S
C480 O476 1.253 1_554 S
C480 O481 1.227 . S
O481 C480 1.227 . S
N482 Co468 2.140 . S
N482 C485 1.346 . S
N482 C486 1.344 1_556 S
C483 C484 1.387 1_554 S
C483 C487 1.391 . S
C484 C483 1.387 1_556 S
C484 C485 1.369 . S
C484 H493 0.929 . S
C485 N482 1.346 . S
C485 C484 1.369 . S
C485 H488 0.928 . S
C486 N482 1.344 1_554 S
C486 C487 1.371 . S
C486 H489 0.931 . S
C487 C483 1.391 . S
C487 C486 1.371 . S
C487 H494 0.930 . S
H488 C485 0.928 . S
H489 C486 0.931 . S
H490 C466 0.930 . S
H491 C463 0.930 . S
H492 C472 0.930 . S
H493 C484 0.929 . S
H494 C487 0.930 . S
C495 C496 1.351 . S
C495 N498 1.368 . S
C495 H500 0.931 . S
C496 C495 1.351 . S
C496 N497 1.373 . S
C496 H524 0.930 . S
N497 C496 1.373 . S
N497 C499 1.340 . S
N498 C495 1.368 . S
N498 C499 1.321 . S
N498 Co501 2.135 . S
C499 N497 1.340 . S
C499 N498 1.321 . S
C499 H523 0.930 . S
H500 C495 0.931 . S
Co501 N498 2.135 . S
Co501 N504 2.121 . S
Co501 O509 2.055 . S
Co501 O512 2.039 . S
Co501 N515 2.140 . S
C502 O503 1.227 . S
C502 O512 1.265 . S
O503 C502 1.227 . S
N504 Co501 2.121 . S
N504 C506 1.375 . S
N504 C507 1.313 . S
C505 C506 1.338 . S
C505 N508 1.377 . S
C505 H525 0.930 . S
C506 N504 1.375 . S
C506 C505 1.338 . S
C506 H510 0.931 . S
C507 N504 1.313 . S
C507 N508 1.344 . S
C507 H511 0.930 . S
N508 C505 1.377 . S
N508 C507 1.344 . S
O509 Co501 2.055 . S
O509 C513 1.253 . S
H510 C506 0.931 . S
H511 C507 0.930 . S
O512 Co501 2.039 . S
O512 C502 1.265 . S
C513 O509 1.253 . S
C513 O514 1.227 . S
O514 C513 1.227 . S
N515 Co501 2.140 . S
N515 C518 1.346 . S
N515 C519 1.345 . S
C516 C517 1.387 . S
C516 C520 1.391 . S
C517 C516 1.387 . S
C517 C518 1.369 . S
C517 H526 0.929 . S
C518 N515 1.346 . S
C518 C517 1.369 . S
C518 H521 0.928 . S
C519 N515 1.345 . S
C519 C520 1.371 . S
C519 H522 0.931 . S
C520 C516 1.391 . S
C520 C519 1.371 . S
C520 H527 0.930 . S
H521 C518 0.928 . S
H522 C519 0.931 . S
H523 C499 0.930 . S
H524 C496 0.930 . S
H525 C505 0.930 . S
H526 C517 0.929 . S
H527 C520 0.930 . S
C528 C529 1.349 . S
C528 C530 1.327 . S
C528 H553 0.950 . S
C529 C528 1.349 . S
C529 C545 1.349 . S
C530 C528 1.327 . S
C530 C549 1.429 . S
C530 H554 0.950 . S
C531 C548 1.574 . S
C531 C550 1.368 . S
C531 H555 0.949 . S
H532 C536 0.949 . S
C533 C534 1.349 . S
C533 C535 1.327 . S
C533 H556 0.950 . S
C534 C533 1.349 . S
C534 C546 1.349 . S
C535 C533 1.327 . S
C535 C551 1.429 . S
C535 H557 0.950 . S
C536 H532 0.949 . S
C536 C544 1.574 . S
C536 C552 1.368 . S
H537 C545 0.950 . S
H538 C543 0.950 . S
H539 C544 0.949 . S
H540 C546 0.950 . S
H541 C547 0.950 . S
H542 C548 0.949 . S
C543 H538 0.950 . S
C543 C545 1.327 . S
C543 C549 1.429 . S
C544 C536 1.574 . S
C544 H539 0.949 . S
C544 C550 1.368 . S
C545 C529 1.349 . S
C545 H537 0.950 . S
C545 C543 1.327 . S
C546 C534 1.349 . S
C546 H540 0.950 . S
C546 C547 1.327 . S
C547 H541 0.950 . S
C547 C546 1.327 . S
C547 C551 1.429 . S
C548 C531 1.574 . S
C548 H542 0.949 . S
C548 C552 1.368 . S
C549 C530 1.429 . S
C549 C543 1.429 . S
C549 C550 1.523 . S
C550 C531 1.368 . S
C550 C544 1.368 . S
C550 C549 1.523 . S
C551 C535 1.429 . S
C551 C547 1.429 . S
C551 C552 1.523 . S
C552 C536 1.368 . S
C552 C548 1.368 . S
C552 C551 1.523 . S
H553 C528 0.950 . S
H554 C530 0.950 . S
H555 C531 0.949 . S
H556 C533 0.950 . S
H557 C535 0.950 . S
C558 C559 1.349 . S
C558 C560 1.327 . S
C558 H583 0.950 . S
C559 C558 1.349 . S
C559 C575 1.349 . S
C560 C558 1.327 . S
C560 C579 1.429 . S
C560 H584 0.950 . S
C561 C578 1.574 . S
C561 C580 1.368 . S
C561 H585 0.949 . S
H562 C566 0.949 . S
C563 C564 1.349 . S
C563 C565 1.327 . S
C563 H586 0.950 . S
C564 C563 1.349 . S
C564 C576 1.349 . S
C565 C563 1.327 . S
C565 C581 1.429 . S
C565 H587 0.950 . S
C566 H562 0.949 . S
C566 C574 1.574 . S
C566 C582 1.368 . S
H567 C575 0.950 . S
H568 C573 0.950 . S
H569 C574 0.949 . S
H570 C576 0.950 . S
H571 C577 0.950 . S
H572 C578 0.949 . S
C573 H568 0.950 . S
C573 C575 1.327 . S
C573 C579 1.429 . S
C574 C566 1.574 . S
C574 H569 0.949 . S
C574 C580 1.368 . S
C575 C559 1.349 . S
C575 H567 0.950 . S
C575 C573 1.327 . S
C576 C564 1.349 . S
C576 H570 0.950 . S
C576 C577 1.327 . S
C577 H571 0.950 . S
C577 C576 1.327 . S
C577 C581 1.429 . S
C578 C561 1.574 . S
C578 H572 0.949 . S
C578 C582 1.368 . S
C579 C560 1.429 . S
C579 C573 1.429 . S
C579 C580 1.523 . S
C580 C561 1.368 . S
C580 C574 1.368 . S
C580 C579 1.523 . S
C581 C565 1.429 . S
C581 C577 1.429 . S
C581 C582 1.523 . S
C582 C566 1.368 . S
C582 C578 1.368 . S
C582 C581 1.523 . S
H583 C558 0.950 . S
H584 C560 0.950 . S
H585 C561 0.949 . S
H586 C563 0.950 . S
H587 C565 0.950 . S
C588 C589 1.349 . S
C588 C590 1.327 . S
C588 H613 0.950 . S
C589 C588 1.349 . S
C589 C605 1.349 . S
C590 C588 1.327 . S
C590 C609 1.429 . S
C590 H614 0.950 . S
C591 C608 1.574 . S
C591 C610 1.368 . S
C591 H615 0.949 . S
H592 C596 0.949 . S
C593 C594 1.349 . S
C593 C595 1.327 1_655 S
C593 H616 0.950 . S
C594 C593 1.349 . S
C594 C606 1.349 1_655 S
C595 C593 1.327 1_455 S
C595 C611 1.429 . S
C595 H617 0.950 . S
C596 H592 0.949 . S
C596 C604 1.574 . S
C596 C612 1.368 . S
H597 C605 0.950 . S
H598 C603 0.950 . S
H599 C604 0.949 . S
H600 C606 0.950 . S
H601 C607 0.950 . S
H602 C608 0.949 . S
C603 H598 0.950 . S
C603 C605 1.327 . S
C603 C609 1.429 . S
C604 C596 1.574 . S
C604 H599 0.949 . S
C604 C610 1.368 . S
C605 C589 1.349 . S
C605 H597 0.950 . S
C605 C603 1.327 . S
C606 C594 1.349 1_455 S
C606 H600 0.950 . S
C606 C607 1.327 . S
C607 H601 0.950 . S
C607 C606 1.327 . S
C607 C611 1.429 . S
C608 C591 1.574 . S
C608 H602 0.949 . S
C608 C612 1.368 . S
C609 C590 1.429 . S
C609 C603 1.429 . S
C609 C610 1.523 . S
C610 C591 1.368 . S
C610 C604 1.368 . S
C610 C609 1.523 . S
C611 C595 1.429 . S
C611 C607 1.429 . S
C611 C612 1.523 . S
C612 C596 1.368 . S
C612 C608 1.368 . S
C612 C611 1.523 . S
H613 C588 0.950 . S
H614 C590 0.950 . S
H615 C591 0.949 . S
H616 C593 0.950 . S
H617 C595 0.950 . S
C618 C619 1.349 . S
C618 C620 1.327 . S
C618 H643 0.950 . S
C619 C618 1.349 . S
C619 C635 1.349 . S
C620 C618 1.327 . S
C620 C639 1.429 . S
C620 H644 0.950 . S
C621 C638 1.574 . S
C621 C640 1.368 . S
C621 H645 0.949 . S
H622 C626 0.949 . S
C623 C624 1.349 . S
C623 C625 1.327 . S
C623 H646 0.950 . S
C624 C623 1.349 . S
C624 C636 1.349 . S
C625 C623 1.327 . S
C625 C641 1.429 . S
C625 H647 0.950 . S
C626 H622 0.949 . S
C626 C634 1.574 . S
C626 C642 1.368 . S
H627 C635 0.950 . S
H628 C633 0.950 . S
H629 C634 0.949 . S
H630 C636 0.950 . S
H631 C637 0.950 . S
H632 C638 0.949 . S
C633 H628 0.950 . S
C633 C635 1.327 . S
C633 C639 1.429 . S
C634 C626 1.574 . S
C634 H629 0.949 . S
C634 C640 1.368 . S
C635 C619 1.349 . S
C635 H627 0.950 . S
C635 C633 1.327 . S
C636 C624 1.349 . S
C636 H630 0.950 . S
C636 C637 1.327 . S
C637 H631 0.950 . S
C637 C636 1.327 . S
C637 C641 1.429 . S
C638 C621 1.574 . S
C638 H632 0.949 . S
C638 C642 1.368 . S
C639 C620 1.429 . S
C639 C633 1.429 . S
C639 C640 1.523 . S
C640 C621 1.368 . S
C640 C634 1.368 . S
C640 C639 1.523 . S
C641 C625 1.429 . S
C641 C637 1.429 . S
C641 C642 1.523 . S
C642 C626 1.368 . S
C642 C638 1.368 . S
C642 C641 1.523 . S
H643 C618 0.950 . S
H644 C620 0.950 . S
H645 C621 0.949 . S
H646 C623 0.950 . S
H647 C625 0.950 . S
C648 C649 1.349 . S
C648 C650 1.327 . S
C648 H673 0.950 . S
C649 C648 1.349 . S
C649 C665 1.349 . S
C650 C648 1.327 . S
C650 C669 1.429 . S
C650 H674 0.950 . S
C651 C668 1.574 . S
C651 C670 1.368 . S
C651 H675 0.949 . S
H652 C656 0.949 . S
C653 C654 1.349 . S
C653 C655 1.327 . S
C653 H676 0.950 . S
C654 C653 1.349 . S
C654 C666 1.349 . S
C655 C653 1.327 . S
C655 C671 1.429 . S
C655 H677 0.950 . S
C656 H652 0.949 . S
C656 C664 1.574 . S
C656 C672 1.368 . S
H657 C665 0.950 . S
H658 C663 0.950 . S
H659 C664 0.949 . S
H660 C666 0.950 . S
H661 C667 0.950 . S
H662 C668 0.949 . S
C663 H658 0.950 . S
C663 C665 1.327 . S
C663 C669 1.429 . S
C664 C656 1.574 . S
C664 H659 0.949 . S
C664 C670 1.368 . S
C665 C649 1.349 . S
C665 H657 0.950 . S
C665 C663 1.327 . S
C666 C654 1.349 . S
C666 H660 0.950 . S
C666 C667 1.327 . S
C667 H661 0.950 . S
C667 C666 1.327 . S
C667 C671 1.429 . S
C668 C651 1.574 . S
C668 H662 0.949 . S
C668 C672 1.368 . S
C669 C650 1.429 . S
C669 C663 1.429 . S
C669 C670 1.523 . S
C670 C651 1.368 . S
C670 C664 1.368 . S
C670 C669 1.523 . S
C671 C655 1.429 . S
C671 C667 1.429 . S
C671 C672 1.523 . S
C672 C656 1.368 . S
C672 C668 1.368 . S
C672 C671 1.523 . S
H673 C648 0.950 . S
H674 C650 0.950 . S
H675 C651 0.949 . S
H676 C653 0.950 . S
H677 C655 0.950 . S
C678 C679 1.349 . S
C678 C680 1.327 . S
C678 H703 0.950 1_556 S
C679 C678 1.349 . S
C679 C695 1.349 . S
C680 C678 1.327 . S
C680 C699 1.429 . S
C680 H704 0.950 . S
C681 C698 1.574 . S
C681 C700 1.368 . S
C681 H705 0.949 . S
H682 C686 0.949 . S
C683 C684 1.349 . S
C683 C685 1.327 . S
C683 H706 0.950 . S
C684 C683 1.349 . S
C684 C696 1.349 . S
C685 C683 1.327 . S
C685 C701 1.429 . S
C685 H707 0.950 . S
C686 H682 0.949 . S
C686 C694 1.574 . S
C686 C702 1.368 . S
H687 C695 0.950 . S
H688 C693 0.950 . S
H689 C694 0.949 . S
H690 C696 0.950 . S
H691 C697 0.950 . S
H692 C698 0.949 . S
C693 H688 0.950 . S
C693 C695 1.327 . S
C693 C699 1.429 . S
C694 C686 1.574 . S
C694 H689 0.949 . S
C694 C700 1.368 . S
C695 C679 1.349 . S
C695 H687 0.950 . S
C695 C693 1.327 . S
C696 C684 1.349 . S
C696 H690 0.950 . S
C696 C697 1.327 . S
C697 H691 0.950 . S
C697 C696 1.327 . S
C697 C701 1.429 . S
C698 C681 1.574 . S
C698 H692 0.949 . S
C698 C702 1.368 . S
C699 C680 1.429 . S
C699 C693 1.429 . S
C699 C700 1.523 . S
C700 C681 1.368 . S
C700 C694 1.368 . S
C700 C699 1.523 . S
C701 C685 1.429 . S
C701 C697 1.429 . S
C701 C702 1.523 . S
C702 C686 1.368 . S
C702 C698 1.368 . S
C702 C701 1.523 . S
H703 C678 0.950 1_554 S
H704 C680 0.950 . S
H705 C681 0.949 . S
H706 C683 0.950 . S
H707 C685 0.950 . S
C708 C709 1.349 1_655 S
C708 C710 1.327 . S
C708 H733 0.950 . S
C709 C708 1.349 1_455 S
C709 C725 1.349 . S
C710 C708 1.327 . S
C710 C729 1.429 . S
C710 H734 0.950 . S
C711 C728 1.574 . S
C711 C730 1.368 . S
C711 H735 0.949 . S
H712 C716 0.949 . S
C713 C714 1.349 . S
C713 C715 1.327 . S
C713 H736 0.950 . S
C714 C713 1.349 . S
C714 C726 1.349 . S
C715 C713 1.327 . S
C715 C731 1.429 . S
C715 H737 0.950 . S
C716 H712 0.949 . S
C716 C724 1.574 . S
C716 C732 1.368 . S
H717 C725 0.950 . S
H718 C723 0.951 . S
H719 C724 0.949 . S
H720 C726 0.950 . S
H721 C727 0.950 . S
H722 C728 0.949 . S
C723 H718 0.951 . S
C723 C725 1.327 1_655 S
C723 C729 1.429 . S
C724 C716 1.574 . S
C724 H719 0.949 . S
C724 C730 1.368 . S
C725 C709 1.349 . S
C725 H717 0.950 . S
C725 C723 1.327 1_455 S
C726 C714 1.349 . S
C726 H720 0.950 . S
C726 C727 1.327 . S
C727 H721 0.950 . S
C727 C726 1.327 . S
C727 C731 1.429 . S
C728 C711 1.574 . S
C728 H722 0.949 . S
C728 C732 1.368 . S
C729 C710 1.429 . S
C729 C723 1.429 . S
C729 C730 1.523 . S
C730 C711 1.368 . S
C730 C724 1.368 . S
C730 C729 1.523 . S
C731 C715 1.429 . S
C731 C727 1.429 . S
C731 C732 1.523 . S
C732 C716 1.368 . S
C732 C728 1.368 . S
C732 C731 1.523 . S
H733 C708 0.950 . S
H734 C710 0.950 . S
H735 C711 0.949 . S
H736 C713 0.950 . S
H737 C715 0.950 . S
C738 C739 1.349 . S
C738 C740 1.327 . S
C738 H763 0.950 . S
C739 C738 1.349 . S
C739 C755 1.349 . S
C740 C738 1.327 . S
C740 C759 1.429 . S
C740 H764 0.950 . S
C741 C758 1.574 . S
C741 C760 1.368 . S
C741 H765 0.949 . S
H742 C746 0.949 . S
C743 C744 1.349 . S
C743 C745 1.327 . S
C743 H766 0.950 . S
C744 C743 1.349 . S
C744 C756 1.349 . S
C745 C743 1.327 . S
C745 C761 1.429 . S
C745 H767 0.950 . S
C746 H742 0.949 . S
C746 C754 1.574 . S
C746 C762 1.368 . S
H747 C755 0.950 . S
H748 C753 0.950 . S
H749 C754 0.949 . S
H750 C756 0.950 . S
H751 C757 0.950 . S
H752 C758 0.949 . S
C753 H748 0.950 . S
C753 C755 1.327 . S
C753 C759 1.429 . S
C754 C746 1.574 . S
C754 H749 0.949 . S
C754 C760 1.368 . S
C755 C739 1.349 . S
C755 H747 0.950 . S
C755 C753 1.327 . S
C756 C744 1.349 . S
C756 H750 0.950 . S
C756 C757 1.327 . S
C757 H751 0.950 . S
C757 C756 1.327 . S
C757 C761 1.429 . S
C758 C741 1.574 . S
C758 H752 0.949 . S
C758 C762 1.368 . S
C759 C740 1.429 . S
C759 C753 1.429 . S
C759 C760 1.523 . S
C760 C741 1.368 . S
C760 C754 1.368 . S
C760 C759 1.523 . S
C761 C745 1.429 . S
C761 C757 1.429 . S
C761 C762 1.523 . S
C762 C746 1.368 . S
C762 C758 1.368 . S
C762 C761 1.523 . S
H763 C738 0.950 . S
H764 C740 0.950 . S
H765 C741 0.949 . S
H766 C743 0.950 . S
H767 C745 0.950 . S
C768 C769 1.349 . S
C768 C770 1.327 . S
C768 H793 0.950 . S
C769 C768 1.349 . S
C769 C785 1.349 . S
C770 C768 1.327 . S
C770 C789 1.429 . S
C770 H794 0.950 . S
C771 C788 1.574 . S
C771 C790 1.368 . S
C771 H795 0.949 . S
H772 C776 0.949 . S
C773 C774 1.349 1_655 S
C773 C775 1.327 . S
C773 H796 0.950 . S
C774 C773 1.349 1_455 S
C774 C786 1.349 . S
C775 C773 1.327 . S
C775 C791 1.429 . S
C775 H797 0.950 . S
C776 H772 0.949 . S
C776 C784 1.574 . S
C776 C792 1.368 . S
H777 C785 0.950 . S
H778 C783 0.950 . S
H779 C784 0.949 . S
H780 C786 0.950 . S
H781 C787 0.950 . S
H782 C788 0.949 . S
C783 H778 0.950 . S
C783 C785 1.327 . S
C783 C789 1.429 . S
C784 C776 1.574 . S
C784 H779 0.949 . S
C784 C790 1.368 . S
C785 C769 1.349 . S
C785 H777 0.950 . S
C785 C783 1.327 . S
C786 C774 1.349 . S
C786 H780 0.950 . S
C786 C787 1.327 1_455 S
C787 H781 0.950 . S
C787 C786 1.327 1_655 S
C787 C791 1.429 . S
C788 C771 1.574 . S
C788 H782 0.949 . S
C788 C792 1.368 . S
C789 C770 1.429 . S
C789 C783 1.429 . S
C789 C790 1.523 . S
C790 C771 1.368 . S
C790 C784 1.368 . S
C790 C789 1.523 . S
C791 C775 1.429 . S
C791 C787 1.429 . S
C791 C792 1.523 . S
C792 C776 1.368 . S
C792 C788 1.368 . S
C792 C791 1.523 . S
H793 C768 0.950 . S
H794 C770 0.950 . S
H795 C771 0.949 . S
H796 C773 0.950 . S
H797 C775 0.950 . S
C798 C799 1.349 . S
C798 C800 1.327 . S
C798 H823 0.950 . S
C799 C798 1.349 . S
C799 C815 1.349 . S
C800 C798 1.327 . S
C800 C819 1.429 . S
C800 H824 0.950 . S
C801 C818 1.574 . S
C801 C820 1.368 . S
C801 H825 0.949 . S
H802 C806 0.949 . S
C803 C804 1.349 . S
C803 C805 1.327 . S
C803 H826 0.950 . S
C804 C803 1.349 . S
C804 C816 1.349 . S
C805 C803 1.327 . S
C805 C821 1.429 . S
C805 H827 0.950 . S
C806 H802 0.949 . S
C806 C814 1.574 . S
C806 C822 1.368 . S
H807 C815 0.950 . S
H808 C813 0.950 . S
H809 C814 0.949 . S
H810 C816 0.950 . S
H811 C817 0.950 . S
H812 C818 0.949 . S
C813 H808 0.950 . S
C813 C815 1.327 . S
C813 C819 1.429 . S
C814 C806 1.574 . S
C814 H809 0.949 . S
C814 C820 1.368 . S
C815 C799 1.349 . S
C815 H807 0.950 . S
C815 C813 1.327 . S
C816 C804 1.349 . S
C816 H810 0.950 . S
C816 C817 1.327 . S
C817 H811 0.950 . S
C817 C816 1.327 . S
C817 C821 1.429 . S
C818 C801 1.574 . S
C818 H812 0.949 . S
C818 C822 1.368 . S
C819 C800 1.429 . S
C819 C813 1.429 . S
C819 C820 1.523 . S
C820 C801 1.368 . S
C820 C814 1.368 . S
C820 C819 1.523 . S
C821 C805 1.429 . S
C821 C817 1.429 . S
C821 C822 1.523 . S
C822 C806 1.368 . S
C822 C818 1.368 . S
C822 C821 1.523 . S
H823 C798 0.950 . S
H824 C800 0.950 . S
H825 C801 0.949 . S
H826 C803 0.950 . S
H827 C805 0.950 . S
C828 C829 1.349 . S
C828 C830 1.327 . S
C828 H853 0.950 . S
C829 C828 1.349 . S
C829 C845 1.349 . S
C830 C828 1.327 . S
C830 C849 1.429 . S
C830 H854 0.950 . S
C831 C848 1.574 . S
C831 C850 1.368 . S
C831 H855 0.949 . S
H832 C836 0.949 . S
C833 C834 1.349 . S
C833 C835 1.327 . S
C833 H856 0.950 . S
C834 C833 1.349 . S
C834 C846 1.349 . S
C835 C833 1.327 . S
C835 C851 1.429 . S
C835 H857 0.950 . S
C836 H832 0.949 . S
C836 C844 1.574 . S
C836 C852 1.368 . S
H837 C845 0.950 . S
H838 C843 0.950 . S
H839 C844 0.949 . S
H840 C846 0.950 . S
H841 C847 0.950 . S
H842 C848 0.949 . S
C843 H838 0.950 . S
C843 C845 1.327 . S
C843 C849 1.429 . S
C844 C836 1.574 . S
C844 H839 0.949 . S
C844 C850 1.368 . S
C845 C829 1.349 . S
C845 H837 0.950 . S
C845 C843 1.327 . S
C846 C834 1.349 . S
C846 H840 0.950 . S
C846 C847 1.327 . S
C847 H841 0.950 . S
C847 C846 1.327 . S
C847 C851 1.429 . S
C848 C831 1.574 . S
C848 H842 0.949 . S
C848 C852 1.368 . S
C849 C830 1.429 . S
C849 C843 1.429 . S
C849 C850 1.523 . S
C850 C831 1.368 . S
C850 C844 1.368 . S
C850 C849 1.523 . S
C851 C835 1.429 . S
C851 C847 1.429 . S
C851 C852 1.523 . S
C852 C836 1.368 . S
C852 C848 1.368 . S
C852 C851 1.523 . S
H853 C828 0.950 . S
H854 C830 0.950 . S
H855 C831 0.949 . S
H856 C833 0.950 . S
H857 C835 0.950 . S
C858 C859 1.349 . S
C858 C860 1.327 . S
C858 H883 0.950 . S
C859 C858 1.349 . S
C859 C875 1.349 . S
C860 C858 1.327 . S
C860 C879 1.429 . S
C860 H884 0.950 . S
C861 C878 1.574 . S
C861 C880 1.368 . S
C861 H885 0.949 . S
H862 C866 0.949 . S
C863 C864 1.349 . S
C863 C865 1.327 . S
C863 H886 0.950 . S
C864 C863 1.349 . S
C864 C876 1.349 . S
C865 C863 1.327 . S
C865 C881 1.429 . S
C865 H887 0.950 . S
C866 H862 0.949 . S
C866 C874 1.574 . S
C866 C882 1.368 . S
H867 C875 0.950 . S
H868 C873 0.950 . S
H869 C874 0.949 . S
H870 C876 0.950 1_556 S
H871 C877 0.950 . S
H872 C878 0.949 . S
C873 H868 0.950 . S
C873 C875 1.327 . S
C873 C879 1.429 . S
C874 C866 1.574 . S
C874 H869 0.949 . S
C874 C880 1.368 . S
C875 C859 1.349 . S
C875 H867 0.950 . S
C875 C873 1.327 . S
C876 C864 1.349 . S
C876 H870 0.950 1_554 S
C876 C877 1.327 . S
C877 H871 0.950 . S
C877 C876 1.327 . S
C877 C881 1.429 . S
C878 C861 1.574 . S
C878 H872 0.949 . S
C878 C882 1.368 . S
C879 C860 1.429 . S
C879 C873 1.429 . S
C879 C880 1.523 . S
C880 C861 1.368 . S
C880 C874 1.368 . S
C880 C879 1.523 . S
C881 C865 1.429 . S
C881 C877 1.429 . S
C881 C882 1.523 . S
C882 C866 1.368 . S
C882 C878 1.368 . S
C882 C881 1.523 . S
H883 C858 0.950 . S
H884 C860 0.950 . S
H885 C861 0.949 . S
H886 C863 0.950 . S
H887 C865 0.950 . S
C888 C889 1.349 . S
C888 C890 1.327 . S
C888 H913 0.950 . S
C889 C888 1.349 . S
C889 C905 1.349 . S
C890 C888 1.327 . S
C890 C909 1.429 . S
C890 H914 0.950 . S
C891 C908 1.574 . S
C891 C910 1.368 . S
C891 H915 0.949 . S
H892 C896 0.949 . S
C893 C894 1.349 1_455 S
C893 C895 1.327 . S
C893 H916 0.951 . S
C894 C893 1.349 1_655 S
C894 C906 1.349 . S
C895 C893 1.327 . S
C895 C911 1.429 . S
C895 H917 0.950 . S
C896 H892 0.949 . S
C896 C904 1.574 . S
C896 C912 1.368 . S
H897 C905 0.950 . S
H898 C903 0.950 . S
H899 C904 0.949 . S
H900 C906 0.950 . S
H901 C907 0.950 . S
H902 C908 0.949 . S
C903 H898 0.950 . S
C903 C905 1.327 . S
C903 C909 1.429 . S
C904 C896 1.574 . S
C904 H899 0.949 . S
C904 C910 1.368 . S
C905 C889 1.349 . S
C905 H897 0.950 . S
C905 C903 1.327 . S
C906 C894 1.349 . S
C906 H900 0.950 . S
C906 C907 1.327 1_655 S
C907 H901 0.950 . S
C907 C906 1.327 1_455 S
C907 C911 1.429 . S
C908 C891 1.574 . S
C908 H902 0.949 . S
C908 C912 1.368 . S
C909 C890 1.429 . S
C909 C903 1.429 . S
C909 C910 1.523 . S
C910 C891 1.368 . S
C910 C904 1.368 . S
C910 C909 1.523 . S
C911 C895 1.429 . S
C911 C907 1.429 . S
C911 C912 1.523 . S
C912 C896 1.368 . S
C912 C908 1.368 . S
C912 C911 1.523 . S
H913 C888 0.950 . S
H914 C890 0.950 . S
H915 C891 0.949 . S
H916 C893 0.951 . S
H917 C895 0.950 . S
C918 C919 1.349 . S
C918 C920 1.327 . S
C918 H943 0.950 . S
C919 C918 1.349 . S
C919 C935 1.349 . S
C920 C918 1.327 . S
C920 C939 1.429 . S
C920 H944 0.950 . S
C921 C938 1.574 . S
C921 C940 1.368 . S
C921 H945 0.949 . S
H922 C926 0.949 . S
C923 C924 1.349 . S
C923 C925 1.327 . S
C923 H946 0.950 . S
C924 C923 1.349 . S
C924 C936 1.349 . S
C925 C923 1.327 . S
C925 C941 1.429 . S
C925 H947 0.950 . S
C926 H922 0.949 . S
C926 C934 1.574 . S
C926 C942 1.368 . S
H927 C935 0.950 . S
H928 C933 0.950 . S
H929 C934 0.949 . S
H930 C936 0.950 . S
H931 C937 0.950 . S
H932 C938 0.949 . S
C933 H928 0.950 . S
C933 C935 1.327 . S
C933 C939 1.429 . S
C934 C926 1.574 . S
C934 H929 0.949 . S
C934 C940 1.368 . S
C935 C919 1.349 . S
C935 H927 0.950 . S
C935 C933 1.327 . S
C936 C924 1.349 . S
C936 H930 0.950 . S
C936 C937 1.327 . S
C937 H931 0.950 . S
C937 C936 1.327 . S
C937 C941 1.429 . S
C938 C921 1.574 . S
C938 H932 0.949 . S
C938 C942 1.368 . S
C939 C920 1.429 . S
C939 C933 1.429 . S
C939 C940 1.523 . S
C940 C921 1.368 . S
C940 C934 1.368 . S
C940 C939 1.523 . S
C941 C925 1.429 . S
C941 C937 1.429 . S
C941 C942 1.523 . S
C942 C926 1.368 . S
C942 C938 1.368 . S
C942 C941 1.523 . S
H943 C918 0.950 . S
H944 C920 0.950 . S
H945 C921 0.949 . S
H946 C923 0.950 . S
H947 C925 0.950 . S
C948 C949 1.349 . S
C948 C950 1.327 . S
C948 H973 0.950 . S
C949 C948 1.349 . S
C949 C965 1.349 . S
C950 C948 1.327 . S
C950 C969 1.429 . S
C950 H974 0.950 . S
C951 C968 1.574 . S
C951 C970 1.368 . S
C951 H975 0.949 . S
H952 C956 0.949 . S
C953 C954 1.349 . S
C953 C955 1.327 . S
C953 H976 0.950 . S
C954 C953 1.349 . S
C954 C966 1.349 . S
C955 C953 1.327 . S
C955 C971 1.429 . S
C955 H977 0.950 . S
C956 H952 0.949 . S
C956 C964 1.574 . S
C956 C972 1.368 . S
H957 C965 0.950 . S
H958 C963 0.950 . S
H959 C964 0.949 . S
H960 C966 0.950 . S
H961 C967 0.950 . S
H962 C968 0.949 . S
C963 H958 0.950 . S
C963 C965 1.327 . S
C963 C969 1.429 . S
C964 C956 1.574 . S
C964 H959 0.949 . S
C964 C970 1.368 . S
C965 C949 1.349 . S
C965 H957 0.950 . S
C965 C963 1.327 . S
C966 C954 1.349 . S
C966 H960 0.950 . S
C966 C967 1.327 . S
C967 H961 0.950 . S
C967 C966 1.327 . S
C967 C971 1.429 . S
C968 C951 1.574 . S
C968 H962 0.949 . S
C968 C972 1.368 . S
C969 C950 1.429 . S
C969 C963 1.429 . S
C969 C970 1.523 . S
C970 C951 1.368 . S
C970 C964 1.368 . S
C970 C969 1.523 . S
C971 C955 1.429 . S
C971 C967 1.429 . S
C971 C972 1.523 . S
C972 C956 1.368 . S
C972 C968 1.368 . S
C972 C971 1.523 . S
H973 C948 0.950 . S
H974 C950 0.950 . S
H975 C951 0.949 . S
H976 C953 0.950 . S
H977 C955 0.950 . S
C978 C979 1.349 . S
C978 C980 1.327 . S
C978 H1003 0.950 . S
C979 C978 1.349 . S
C979 C995 1.349 . S
C980 C978 1.327 . S
C980 C999 1.429 . S
C980 H1004 0.950 . S
C981 C998 1.574 . S
C981 C1000 1.368 . S
C981 H1005 0.949 . S
H982 C986 0.949 . S
C983 C984 1.349 . S
C983 C985 1.327 . S
C983 H1006 0.950 1_556 S
C984 C983 1.349 . S
C984 C996 1.349 . S
C985 C983 1.327 . S
C985 C1001 1.429 . S
C985 H1007 0.950 . S
C986 H982 0.949 . S
C986 C994 1.574 . S
C986 C1002 1.368 . S
H987 C995 0.950 . S
H988 C993 0.950 . S
H989 C994 0.949 . S
H990 C996 0.950 . S
H991 C997 0.950 . S
H992 C998 0.949 . S
C993 H988 0.950 . S
C993 C995 1.327 . S
C993 C999 1.429 . S
C994 C986 1.574 . S
C994 H989 0.949 . S
C994 C1000 1.368 . S
C995 C979 1.349 . S
C995 H987 0.950 . S
C995 C993 1.327 . S
C996 C984 1.349 . S
C996 H990 0.950 . S
C996 C997 1.327 . S
C997 H991 0.950 . S
C997 C996 1.327 . S
C997 C1001 1.429 . S
C998 C981 1.574 . S
C998 H992 0.949 . S
C998 C1002 1.368 . S
C999 C980 1.429 . S
C999 C993 1.429 . S
C999 C1000 1.523 . S
C1000 C981 1.368 . S
C1000 C994 1.368 . S
C1000 C999 1.523 . S
C1001 C985 1.429 . S
C1001 C997 1.429 . S
C1001 C1002 1.523 . S
C1002 C986 1.368 . S
C1002 C998 1.368 . S
C1002 C1001 1.523 . S
H1003 C978 0.950 . S
H1004 C980 0.950 . S
H1005 C981 0.949 . S
H1006 C983 0.950 1_554 S
H1007 C985 0.950 . S
C1008 C1009 1.349 . S
C1008 C1010 1.327 . S
C1008 H1033 0.950 . S
C1009 C1008 1.349 . S
C1009 C1025 1.349 . S
C1010 C1008 1.327 . S
C1010 C1029 1.429 . S
C1010 H1034 0.950 . S
C1011 C1028 1.574 . S
C1011 C1030 1.368 . S
C1011 H1035 0.949 . S
H1012 C1016 0.949 . S
C1013 C1014 1.349 . S
C1013 C1015 1.327 . S
C1013 H1036 0.950 . S
C1014 C1013 1.349 . S
C1014 C1026 1.349 . S
C1015 C1013 1.327 . S
C1015 C1031 1.429 . S
C1015 H1037 0.950 . S
C1016 H1012 0.949 . S
C1016 C1024 1.574 . S
C1016 C1032 1.368 . S
H1017 C1025 0.950 . S
H1018 C1023 0.950 . S
H1019 C1024 0.949 . S
H1020 C1026 0.950 . S
H1021 C1027 0.950 . S
H1022 C1028 0.949 . S
C1023 H1018 0.950 . S
C1023 C1025 1.327 . S
C1023 C1029 1.429 . S
C1024 C1016 1.574 . S
C1024 H1019 0.949 . S
C1024 C1030 1.368 . S
C1025 C1009 1.349 . S
C1025 H1017 0.950 . S
C1025 C1023 1.327 . S
C1026 C1014 1.349 . S
C1026 H1020 0.950 . S
C1026 C1027 1.327 . S
C1027 H1021 0.950 . S
C1027 C1026 1.327 . S
C1027 C1031 1.429 . S
C1028 C1011 1.574 . S
C1028 H1022 0.949 . S
C1028 C1032 1.368 . S
C1029 C1010 1.429 . S
C1029 C1023 1.429 . S
C1029 C1030 1.523 . S
C1030 C1011 1.368 . S
C1030 C1024 1.368 . S
C1030 C1029 1.523 . S
C1031 C1015 1.429 . S
C1031 C1027 1.429 . S
C1031 C1032 1.523 . S
C1032 C1016 1.368 . S
C1032 C1028 1.368 . S
C1032 C1031 1.523 . S
H1033 C1008 0.950 . S
H1034 C1010 0.950 . S
H1035 C1011 0.949 . S
H1036 C1013 0.950 . S
H1037 C1015 0.950 . S
C1038 C1039 1.349 . S
C1038 C1040 1.327 . S
C1038 H1063 0.950 . S
C1039 C1038 1.349 . S
C1039 C1055 1.349 . S
C1040 C1038 1.327 . S
C1040 C1059 1.429 . S
C1040 H1064 0.950 . S
C1041 C1058 1.574 . S
C1041 C1060 1.368 . S
C1041 H1065 0.949 . S
H1042 C1046 0.949 . S
C1043 C1044 1.349 . S
C1043 C1045 1.327 . S
C1043 H1066 0.950 . S
C1044 C1043 1.349 . S
C1044 C1056 1.349 . S
C1045 C1043 1.327 . S
C1045 C1061 1.429 . S
C1045 H1067 0.950 . S
C1046 H1042 0.949 . S
C1046 C1054 1.574 . S
C1046 C1062 1.368 . S
H1047 C1055 0.950 . S
H1048 C1053 0.950 . S
H1049 C1054 0.949 . S
H1050 C1056 0.950 . S
H1051 C1057 0.950 . S
H1052 C1058 0.949 . S
C1053 H1048 0.950 . S
C1053 C1055 1.327 . S
C1053 C1059 1.429 . S
C1054 C1046 1.574 . S
C1054 H1049 0.949 . S
C1054 C1060 1.368 . S
C1055 C1039 1.349 . S
C1055 H1047 0.950 . S
C1055 C1053 1.327 . S
C1056 C1044 1.349 . S
C1056 H1050 0.950 . S
C1056 C1057 1.327 . S
C1057 H1051 0.950 . S
C1057 C1056 1.327 . S
C1057 C1061 1.429 . S
C1058 C1041 1.574 . S
C1058 H1052 0.949 . S
C1058 C1062 1.368 . S
C1059 C1040 1.429 . S
C1059 C1053 1.429 . S
C1059 C1060 1.523 . S
C1060 C1041 1.368 . S
C1060 C1054 1.368 . S
C1060 C1059 1.523 . S
C1061 C1045 1.429 . S
C1061 C1057 1.429 . S
C1061 C1062 1.523 . S
C1062 C1046 1.368 . S
C1062 C1058 1.368 . S
C1062 C1061 1.523 . S
H1063 C1038 0.950 . S
H1064 C1040 0.950 . S
H1065 C1041 0.949 . S
H1066 C1043 0.950 . S
H1067 C1045 0.950 . S
C1068 C1069 1.349 . S
C1068 C1070 1.327 . S
C1068 H1093 0.950 . S
C1069 C1068 1.349 . S
C1069 C1085 1.349 . S
C1070 C1068 1.327 . S
C1070 C1089 1.429 . S
C1070 H1094 0.950 . S
C1071 C1088 1.574 . S
C1071 C1090 1.368 . S
C1071 H1095 0.949 . S
H1072 C1076 0.949 . S
C1073 C1074 1.349 . S
C1073 C1075 1.327 . S
C1073 H1096 0.950 . S
C1074 C1073 1.349 . S
C1074 C1086 1.349 . S
C1075 C1073 1.327 . S
C1075 C1091 1.429 . S
C1075 H1097 0.950 . S
C1076 H1072 0.949 . S
C1076 C1084 1.574 . S
C1076 C1092 1.368 . S
H1077 C1085 0.950 . S
H1078 C1083 0.950 . S
H1079 C1084 0.949 . S
H1080 C1086 0.950 . S
H1081 C1087 0.950 . S
H1082 C1088 0.949 . S
C1083 H1078 0.950 . S
C1083 C1085 1.327 . S
C1083 C1089 1.429 . S
C1084 C1076 1.574 . S
C1084 H1079 0.949 . S
C1084 C1090 1.368 . S
C1085 C1069 1.349 . S
C1085 H1077 0.950 . S
C1085 C1083 1.327 . S
C1086 C1074 1.349 . S
C1086 H1080 0.950 . S
C1086 C1087 1.327 . S
C1087 H1081 0.950 . S
C1087 C1086 1.327 . S
C1087 C1091 1.429 . S
C1088 C1071 1.574 . S
C1088 H1082 0.949 . S
C1088 C1092 1.368 . S
C1089 C1070 1.429 . S
C1089 C1083 1.429 . S
C1089 C1090 1.523 . S
C1090 C1071 1.368 . S
C1090 C1084 1.368 . S
C1090 C1089 1.523 . S
C1091 C1075 1.429 . S
C1091 C1087 1.429 . S
C1091 C1092 1.523 . S
C1092 C1076 1.368 . S
C1092 C1088 1.368 . S
C1092 C1091 1.523 . S
H1093 C1068 0.950 . S
H1094 C1070 0.950 . S
H1095 C1071 0.949 . S
H1096 C1073 0.950 . S
H1097 C1075 0.950 . S
C1098 C1099 1.349 . S
C1098 C1100 1.327 . S
C1098 H1123 0.950 . S
C1099 C1098 1.349 . S
C1099 C1115 1.349 . S
C1100 C1098 1.327 . S
C1100 C1119 1.429 . S
C1100 H1124 0.950 . S
C1101 C1118 1.574 1_556 S
C1101 C1120 1.368 1_455 S
C1101 H1125 0.949 . S
H1102 C1106 0.949 . S
C1103 C1104 1.349 . S
C1103 C1105 1.327 . S
C1103 H1126 0.950 . S
C1104 C1103 1.349 . S
C1104 C1116 1.349 . S
C1105 C1103 1.327 . S
C1105 C1121 1.429 . S
C1105 H1127 0.950 . S
C1106 H1102 0.949 . S
C1106 C1114 1.574 1_554 S
C1106 C1122 1.368 1_655 S
H1107 C1115 0.950 . S
H1108 C1113 0.950 . S
H1109 C1114 0.949 . S
H1110 C1116 0.950 . S
H1111 C1117 0.950 . S
H1112 C1118 0.949 . S
C1113 H1108 0.950 . S
C1113 C1115 1.327 . S
C1113 C1119 1.429 . S
C1114 C1106 1.574 1_556 S
C1114 H1109 0.949 . S
C1114 C1120 1.368 . S
C1115 C1099 1.349 . S
C1115 H1107 0.950 . S
C1115 C1113 1.327 . S
C1116 C1104 1.349 . S
C1116 H1110 0.950 . S
C1116 C1117 1.327 . S
C1117 H1111 0.950 . S
C1117 C1116 1.327 . S
C1117 C1121 1.429 . S
C1118 C1101 1.574 1_554 S
C1118 H1112 0.949 . S
C1118 C1122 1.368 . S
C1119 C1100 1.429 . S
C1119 C1113 1.429 . S
C1119 C1120 1.523 . S
C1120 C1101 1.368 1_655 S
C1120 C1114 1.368 . S
C1120 C1119 1.523 . S
C1121 C1105 1.429 . S
C1121 C1117 1.429 . S
C1121 C1122 1.523 . S
C1122 C1106 1.368 1_455 S
C1122 C1118 1.368 . S
C1122 C1121 1.523 . S
H1123 C1098 0.950 . S
H1124 C1100 0.950 . S
H1125 C1101 0.949 . S
H1126 C1103 0.950 . S
H1127 C1105 0.950 . S
C1128 C1129 1.349 . S
C1128 C1130 1.327 . S
C1128 H1153 0.950 . S
C1129 C1128 1.349 . S
C1129 C1145 1.349 . S
C1130 C1128 1.327 . S
C1130 C1149 1.429 . S
C1130 H1154 0.950 . S
C1131 C1148 1.574 . S
C1131 C1150 1.368 . S
C1131 H1155 0.949 . S
H1132 C1136 0.949 . S
C1133 C1134 1.349 . S
C1133 C1135 1.327 . S
C1133 H1156 0.950 . S
C1134 C1133 1.349 . S
C1134 C1146 1.349 . S
C1135 C1133 1.327 . S
C1135 C1151 1.429 . S
C1135 H1157 0.950 . S
C1136 H1132 0.949 . S
C1136 C1144 1.574 . S
C1136 C1152 1.368 . S
H1137 C1145 0.950 . S
H1138 C1143 0.950 . S
H1139 C1144 0.949 . S
H1140 C1146 0.950 . S
H1141 C1147 0.950 . S
H1142 C1148 0.949 . S
C1143 H1138 0.950 . S
C1143 C1145 1.327 . S
C1143 C1149 1.429 . S
C1144 C1136 1.574 . S
C1144 H1139 0.949 . S
C1144 C1150 1.368 . S
C1145 C1129 1.349 . S
C1145 H1137 0.950 . S
C1145 C1143 1.327 . S
C1146 C1134 1.349 . S
C1146 H1140 0.950 . S
C1146 C1147 1.327 . S
C1147 H1141 0.950 . S
C1147 C1146 1.327 . S
C1147 C1151 1.429 . S
C1148 C1131 1.574 . S
C1148 H1142 0.949 . S
C1148 C1152 1.368 . S
C1149 C1130 1.429 . S
C1149 C1143 1.429 . S
C1149 C1150 1.523 . S
C1150 C1131 1.368 . S
C1150 C1144 1.368 . S
C1150 C1149 1.523 . S
C1151 C1135 1.429 . S
C1151 C1147 1.429 . S
C1151 C1152 1.523 . S
C1152 C1136 1.368 . S
C1152 C1148 1.368 . S
C1152 C1151 1.523 . S
H1153 C1128 0.950 . S
H1154 C1130 0.950 . S
H1155 C1131 0.949 . S
H1156 C1133 0.950 . S
H1157 C1135 0.950 . S
C1158 C1159 1.349 . S
C1158 C1160 1.327 . S
C1158 H1183 0.950 . S
C1159 C1158 1.349 . S
C1159 C1175 1.349 . S
C1160 C1158 1.327 . S
C1160 C1179 1.429 . S
C1160 H1184 0.950 . S
C1161 C1178 1.574 . S
C1161 C1180 1.368 . S
C1161 H1185 0.949 . S
H1162 C1166 0.949 . S
C1163 C1164 1.349 . S
C1163 C1165 1.327 . S
C1163 H1186 0.950 . S
C1164 C1163 1.349 . S
C1164 C1176 1.349 . S
C1165 C1163 1.327 . S
C1165 C1181 1.429 . S
C1165 H1187 0.950 . S
C1166 H1162 0.949 . S
C1166 C1174 1.574 . S
C1166 C1182 1.368 . S
H1167 C1175 0.950 . S
H1168 C1173 0.950 . S
H1169 C1174 0.949 . S
H1170 C1176 0.950 . S
H1171 C1177 0.950 . S
H1172 C1178 0.949 . S
C1173 H1168 0.950 . S
C1173 C1175 1.327 . S
C1173 C1179 1.429 . S
C1174 C1166 1.574 . S
C1174 H1169 0.949 . S
C1174 C1180 1.368 . S
C1175 C1159 1.349 . S
C1175 H1167 0.950 . S
C1175 C1173 1.327 . S
C1176 C1164 1.349 . S
C1176 H1170 0.950 . S
C1176 C1177 1.327 . S
C1177 H1171 0.950 . S
C1177 C1176 1.327 . S
C1177 C1181 1.429 . S
C1178 C1161 1.574 . S
C1178 H1172 0.949 . S
C1178 C1182 1.368 . S
C1179 C1160 1.429 . S
C1179 C1173 1.429 . S
C1179 C1180 1.523 . S
C1180 C1161 1.368 . S
C1180 C1174 1.368 . S
C1180 C1179 1.523 . S
C1181 C1165 1.429 . S
C1181 C1177 1.429 . S
C1181 C1182 1.523 . S
C1182 C1166 1.368 . S
C1182 C1178 1.368 . S
C1182 C1181 1.523 . S
H1183 C1158 0.950 . S
H1184 C1160 0.950 . S
H1185 C1161 0.949 . S
H1186 C1163 0.950 . S
H1187 C1165 0.950 . S
C1188 C1189 1.349 . S
C1188 C1190 1.327 . S
C1188 H1213 0.950 . S
C1189 C1188 1.349 . S
C1189 C1205 1.349 . S
C1190 C1188 1.327 . S
C1190 C1209 1.429 . S
C1190 H1214 0.950 . S
C1191 C1208 1.574 1_554 S
C1191 C1210 1.368 1_445 S
C1191 H1215 0.949 . S
H1192 C1196 0.949 . S
C1193 C1194 1.349 . S
C1193 C1195 1.327 . S
C1193 H1216 0.950 . S
C1194 C1193 1.349 . S
C1194 C1206 1.349 . S
C1195 C1193 1.327 . S
C1195 C1211 1.429 . S
C1195 H1217 0.950 . S
C1196 H1192 0.949 . S
C1196 C1204 1.574 1_556 S
C1196 C1212 1.368 1_665 S
H1197 C1205 0.950 . S
H1198 C1203 0.950 1_545 S
H1199 C1204 0.949 . S
H1200 C1206 0.950 . S
H1201 C1207 0.950 1_565 S
H1202 C1208 0.949 . S
C1203 H1198 0.950 1_565 S
C1203 C1205 1.327 . S
C1203 C1209 1.429 . S
C1204 C1196 1.574 1_554 S
C1204 H1199 0.949 . S
C1204 C1210 1.368 . S
C1205 C1189 1.349 . S
C1205 H1197 0.950 . S
C1205 C1203 1.327 . S
C1206 C1194 1.349 . S
C1206 H1200 0.950 . S
C1206 C1207 1.327 . S
C1207 H1201 0.950 1_545 S
C1207 C1206 1.327 . S
C1207 C1211 1.429 . S
C1208 C1191 1.574 1_556 S
C1208 H1202 0.949 . S
C1208 C1212 1.368 . S
C1209 C1190 1.429 . S
C1209 C1203 1.429 . S
C1209 C1210 1.523 . S
C1210 C1191 1.368 1_665 S
C1210 C1204 1.368 . S
C1210 C1209 1.523 . S
C1211 C1195 1.429 . S
C1211 C1207 1.429 . S
C1211 C1212 1.523 . S
C1212 C1196 1.368 1_445 S
C1212 C1208 1.368 . S
C1212 C1211 1.523 . S
H1213 C1188 0.950 . S
H1214 C1190 0.950 . S
H1215 C1191 0.949 . S
H1216 C1193 0.950 . S
H1217 C1195 0.950 . S
C1218 C1219 1.349 . S
C1218 C1220 1.327 . S
C1218 H1243 0.971 . S
C1219 C1218 1.349 . S
C1219 C1235 1.349 . S
C1220 C1218 1.327 . S
C1220 C1239 1.429 . S
C1220 H1244 0.950 1_565 S
C1221 C1238 1.574 . S
C1221 C1240 1.368 . S
C1221 H1245 0.949 . S
H1222 C1226 0.949 . S
C1223 C1224 1.349 . S
C1223 C1225 1.327 . S
C1223 H1246 0.971 . S
C1224 C1223 1.349 . S
C1224 C1236 1.349 . S
C1225 C1223 1.327 . S
C1225 C1241 1.429 . S
C1225 H1247 0.950 1_545 S
C1226 H1222 0.949 . S
C1226 C1234 1.574 . S
C1226 C1242 1.368 . S
H1227 C1235 0.950 . S
H1228 C1233 0.950 . S
H1229 C1234 0.949 . S
H1230 C1236 0.950 . S
H1231 C1237 0.950 . S
H1232 C1238 0.949 . S
C1233 H1228 0.950 . S
C1233 C1235 1.327 . S
C1233 C1239 1.429 . S
C1234 C1226 1.574 . S
C1234 H1229 0.949 . S
C1234 C1240 1.368 1_545 S
C1235 C1219 1.349 . S
C1235 H1227 0.950 . S
C1235 C1233 1.327 . S
C1236 C1224 1.349 . S
C1236 H1230 0.950 . S
C1236 C1237 1.327 . S
C1237 H1231 0.950 . S
C1237 C1236 1.327 . S
C1237 C1241 1.429 . S
C1238 C1221 1.574 . S
C1238 H1232 0.949 . S
C1238 C1242 1.368 1_565 S
C1239 C1220 1.429 . S
C1239 C1233 1.429 . S
C1239 C1240 1.523 . S
C1240 C1221 1.368 . S
C1240 C1234 1.368 1_565 S
C1240 C1239 1.523 . S
C1241 C1225 1.429 . S
C1241 C1237 1.429 . S
C1241 C1242 1.523 . S
C1242 C1226 1.368 . S
C1242 C1238 1.368 1_545 S
C1242 C1241 1.523 . S
H1243 C1218 0.971 . S
H1244 C1220 0.950 1_545 S
H1245 C1221 0.949 . S
H1246 C1223 0.971 . S
H1247 C1225 0.950 1_565 S
C1248 C1249 1.349 . S
C1248 C1250 1.327 . S
C1248 H1273 0.950 . S
C1249 C1248 1.349 . S
C1249 C1265 1.349 . S
C1250 C1248 1.327 . S
C1250 C1269 1.429 . S
C1250 H1274 0.950 . S
C1251 C1268 1.574 . S
C1251 C1270 1.368 . S
C1251 H1275 0.949 . S
H1252 C1256 0.949 . S
C1253 C1254 1.349 . S
C1253 C1255 1.327 . S
C1253 H1276 0.950 . S
C1254 C1253 1.349 . S
C1254 C1266 1.349 . S
C1255 C1253 1.327 . S
C1255 C1271 1.429 . S
C1255 H1277 0.950 . S
C1256 H1252 0.949 . S
C1256 C1264 1.574 . S
C1256 C1272 1.368 . S
H1257 C1265 0.950 . S
H1258 C1263 0.950 . S
H1259 C1264 0.949 . S
H1260 C1266 0.950 . S
H1261 C1267 0.950 . S
H1262 C1268 0.949 . S
C1263 H1258 0.950 . S
C1263 C1265 1.327 . S
C1263 C1269 1.429 . S
C1264 C1256 1.574 . S
C1264 H1259 0.949 . S
C1264 C1270 1.368 . S
C1265 C1249 1.349 . S
C1265 H1257 0.950 . S
C1265 C1263 1.327 . S
C1266 C1254 1.349 . S
C1266 H1260 0.950 . S
C1266 C1267 1.327 . S
C1267 H1261 0.950 . S
C1267 C1266 1.327 . S
C1267 C1271 1.429 . S
C1268 C1251 1.574 . S
C1268 H1262 0.949 . S
C1268 C1272 1.368 . S
C1269 C1250 1.429 . S
C1269 C1263 1.429 . S
C1269 C1270 1.523 . S
C1270 C1251 1.368 . S
C1270 C1264 1.368 . S
C1270 C1269 1.523 . S
C1271 C1255 1.429 . S
C1271 C1267 1.429 . S
C1271 C1272 1.523 . S
C1272 C1256 1.368 . S
C1272 C1268 1.368 . S
C1272 C1271 1.523 . S
H1273 C1248 0.950 . S
H1274 C1250 0.950 . S
H1275 C1251 0.949 . S
H1276 C1253 0.950 . S
H1277 C1255 0.950 . S
C1278 C1279 1.349 . S
C1278 C1280 1.327 . S
C1278 H1303 0.950 . S
C1279 C1278 1.349 . S
C1279 C1295 1.349 . S
C1280 C1278 1.327 . S
C1280 C1299 1.429 . S
C1280 H1304 0.950 . S
C1281 C1298 1.574 . S
C1281 C1300 1.368 . S
C1281 H1305 0.949 . S
H1282 C1286 0.949 . S
C1283 C1284 1.349 . S
C1283 C1285 1.327 . S
C1283 H1306 0.950 . S
C1284 C1283 1.349 . S
C1284 C1296 1.349 . S
C1285 C1283 1.327 . S
C1285 C1301 1.429 . S
C1285 H1307 0.950 . S
C1286 H1282 0.949 . S
C1286 C1294 1.574 . S
C1286 C1302 1.368 . S
H1287 C1295 0.950 . S
H1288 C1293 0.950 . S
H1289 C1294 0.949 . S
H1290 C1296 0.950 . S
H1291 C1297 0.950 . S
H1292 C1298 0.949 . S
C1293 H1288 0.950 . S
C1293 C1295 1.327 . S
C1293 C1299 1.429 . S
C1294 C1286 1.574 . S
C1294 H1289 0.949 . S
C1294 C1300 1.368 . S
C1295 C1279 1.349 . S
C1295 H1287 0.950 . S
C1295 C1293 1.327 . S
C1296 C1284 1.349 . S
C1296 H1290 0.950 . S
C1296 C1297 1.327 . S
C1297 H1291 0.950 . S
C1297 C1296 1.327 . S
C1297 C1301 1.429 . S
C1298 C1281 1.574 . S
C1298 H1292 0.949 . S
C1298 C1302 1.368 . S
C1299 C1280 1.429 . S
C1299 C1293 1.429 . S
C1299 C1300 1.523 . S
C1300 C1281 1.368 . S
C1300 C1294 1.368 . S
C1300 C1299 1.523 . S
C1301 C1285 1.429 . S
C1301 C1297 1.429 . S
C1301 C1302 1.523 . S
C1302 C1286 1.368 . S
C1302 C1298 1.368 . S
C1302 C1301 1.523 . S
H1303 C1278 0.950 . S
H1304 C1280 0.950 . S
H1305 C1281 0.949 . S
H1306 C1283 0.950 . S
H1307 C1285 0.950 . S
C1308 C1309 1.349 . S
C1308 C1310 1.327 . S
C1308 H1333 0.950 . S
C1309 C1308 1.349 . S
C1309 C1325 1.349 . S
C1310 C1308 1.327 . S
C1310 C1329 1.429 . S
C1310 H1334 0.950 . S
C1311 C1328 1.574 . S
C1311 C1330 1.368 . S
C1311 H1335 0.949 . S
H1312 C1316 0.949 . S
C1313 C1314 1.349 . S
C1313 C1315 1.327 . S
C1313 H1336 0.950 . S
C1314 C1313 1.349 . S
C1314 C1326 1.349 . S
C1315 C1313 1.327 . S
C1315 C1331 1.429 . S
C1315 H1337 0.950 . S
C1316 H1312 0.949 . S
C1316 C1324 1.574 . S
C1316 C1332 1.368 . S
H1317 C1325 0.950 . S
H1318 C1323 0.950 . S
H1319 C1324 0.949 . S
H1320 C1326 0.950 . S
H1321 C1327 0.950 . S
H1322 C1328 0.949 . S
C1323 H1318 0.950 . S
C1323 C1325 1.327 . S
C1323 C1329 1.429 . S
C1324 C1316 1.574 . S
C1324 H1319 0.949 . S
C1324 C1330 1.368 . S
C1325 C1309 1.349 . S
C1325 H1317 0.950 . S
C1325 C1323 1.327 . S
C1326 C1314 1.349 . S
C1326 H1320 0.950 . S
C1326 C1327 1.327 . S
C1327 H1321 0.950 . S
C1327 C1326 1.327 . S
C1327 C1331 1.429 . S
C1328 C1311 1.574 . S
C1328 H1322 0.949 . S
C1328 C1332 1.368 . S
C1329 C1310 1.429 . S
C1329 C1323 1.429 . S
C1329 C1330 1.523 . S
C1330 C1311 1.368 . S
C1330 C1324 1.368 . S
C1330 C1329 1.523 . S
C1331 C1315 1.429 . S
C1331 C1327 1.429 . S
C1331 C1332 1.523 . S
C1332 C1316 1.368 . S
C1332 C1328 1.368 . S
C1332 C1331 1.523 . S
H1333 C1308 0.950 . S
H1334 C1310 0.950 . S
H1335 C1311 0.949 . S
H1336 C1313 0.950 . S
H1337 C1315 0.950 . S
C1338 C1339 1.349 . S
C1338 C1340 1.327 . S
C1338 H1363 0.950 . S
C1339 C1338 1.349 . S
C1339 C1355 1.349 . S
C1340 C1338 1.327 . S
C1340 C1359 1.429 . S
C1340 H1364 0.950 . S
C1341 C1358 1.574 . S
C1341 C1360 1.368 . S
C1341 H1365 0.949 . S
H1342 C1346 0.949 . S
C1343 C1344 1.349 . S
C1343 C1345 1.327 . S
C1343 H1366 0.950 . S
C1344 C1343 1.349 . S
C1344 C1356 1.349 . S
C1345 C1343 1.327 . S
C1345 C1361 1.429 . S
C1345 H1367 0.950 . S
C1346 H1342 0.949 . S
C1346 C1354 1.574 . S
C1346 C1362 1.368 . S
H1347 C1355 0.950 . S
H1348 C1353 0.950 . S
H1349 C1354 0.949 . S
H1350 C1356 0.950 . S
H1351 C1357 0.950 . S
H1352 C1358 0.949 . S
C1353 H1348 0.950 . S
C1353 C1355 1.327 . S
C1353 C1359 1.429 . S
C1354 C1346 1.574 . S
C1354 H1349 0.949 . S
C1354 C1360 1.368 . S
C1355 C1339 1.349 . S
C1355 H1347 0.950 . S
C1355 C1353 1.327 . S
C1356 C1344 1.349 . S
C1356 H1350 0.950 . S
C1356 C1357 1.327 . S
C1357 H1351 0.950 . S
C1357 C1356 1.327 . S
C1357 C1361 1.429 . S
C1358 C1341 1.574 . S
C1358 H1352 0.949 . S
C1358 C1362 1.368 . S
C1359 C1340 1.429 . S
C1359 C1353 1.429 . S
C1359 C1360 1.523 . S
C1360 C1341 1.368 . S
C1360 C1354 1.368 . S
C1360 C1359 1.523 . S
C1361 C1345 1.429 . S
C1361 C1357 1.429 . S
C1361 C1362 1.523 . S
C1362 C1346 1.368 . S
C1362 C1358 1.368 . S
C1362 C1361 1.523 . S
H1363 C1338 0.950 . S
H1364 C1340 0.950 . S
H1365 C1341 0.949 . S
H1366 C1343 0.950 . S
H1367 C1345 0.950 . S
C1368 C1369 1.349 . S
C1368 C1370 1.327 . S
C1368 H1393 0.950 . S
C1369 C1368 1.349 . S
C1369 C1385 1.349 . S
C1370 C1368 1.327 . S
C1370 C1389 1.429 . S
C1370 H1394 0.950 . S
C1371 C1388 1.574 . S
C1371 C1390 1.368 . S
C1371 H1395 0.949 . S
H1372 C1376 0.949 . S
C1373 C1374 1.349 . S
C1373 C1375 1.327 . S
C1373 H1396 0.950 . S
C1374 C1373 1.349 . S
C1374 C1386 1.349 . S
C1375 C1373 1.327 . S
C1375 C1391 1.429 . S
C1375 H1397 0.950 . S
C1376 H1372 0.949 . S
C1376 C1384 1.574 . S
C1376 C1392 1.368 . S
H1377 C1385 0.950 . S
H1378 C1383 0.950 . S
H1379 C1384 0.949 . S
H1380 C1386 0.950 . S
H1381 C1387 0.950 . S
H1382 C1388 0.949 . S
C1383 H1378 0.950 . S
C1383 C1385 1.327 . S
C1383 C1389 1.429 . S
C1384 C1376 1.574 . S
C1384 H1379 0.949 . S
C1384 C1390 1.368 . S
C1385 C1369 1.349 . S
C1385 H1377 0.950 . S
C1385 C1383 1.327 . S
C1386 C1374 1.349 . S
C1386 H1380 0.950 . S
C1386 C1387 1.327 . S
C1387 H1381 0.950 . S
C1387 C1386 1.327 . S
C1387 C1391 1.429 . S
C1388 C1371 1.574 . S
C1388 H1382 0.949 . S
C1388 C1392 1.368 . S
C1389 C1370 1.429 . S
C1389 C1383 1.429 . S
C1389 C1390 1.523 . S
C1390 C1371 1.368 . S
C1390 C1384 1.368 . S
C1390 C1389 1.523 . S
C1391 C1375 1.429 . S
C1391 C1387 1.429 . S
C1391 C1392 1.523 . S
C1392 C1376 1.368 . S
C1392 C1388 1.368 . S
C1392 C1391 1.523 . S
H1393 C1368 0.950 . S
H1394 C1370 0.950 . S
H1395 C1371 0.949 . S
H1396 C1373 0.950 . S
H1397 C1375 0.950 . S
C1398 C1399 1.349 . S
C1398 C1400 1.327 . S
C1398 H1423 0.950 . S
C1399 C1398 1.349 . S
C1399 C1415 1.349 . S
C1400 C1398 1.327 . S
C1400 C1419 1.429 . S
C1400 H1424 0.950 . S
C1401 C1418 1.574 . S
C1401 C1420 1.368 . S
C1401 H1425 0.949 . S
H1402 C1406 0.949 . S
C1403 C1404 1.349 . S
C1403 C1405 1.327 . S
C1403 H1426 0.950 . S
C1404 C1403 1.349 . S
C1404 C1416 1.349 . S
C1405 C1403 1.327 . S
C1405 C1421 1.429 . S
C1405 H1427 0.950 . S
C1406 H1402 0.949 . S
C1406 C1414 1.574 . S
C1406 C1422 1.368 . S
H1407 C1415 0.950 . S
H1408 C1413 0.950 . S
H1409 C1414 0.949 . S
H1410 C1416 0.950 . S
H1411 C1417 0.950 . S
H1412 C1418 0.949 . S
C1413 H1408 0.950 . S
C1413 C1415 1.327 . S
C1413 C1419 1.429 . S
C1414 C1406 1.574 . S
C1414 H1409 0.949 . S
C1414 C1420 1.368 . S
C1415 C1399 1.349 . S
C1415 H1407 0.950 . S
C1415 C1413 1.327 . S
C1416 C1404 1.349 . S
C1416 H1410 0.950 . S
C1416 C1417 1.327 . S
C1417 H1411 0.950 . S
C1417 C1416 1.327 . S
C1417 C1421 1.429 . S
C1418 C1401 1.574 . S
C1418 H1412 0.949 . S
C1418 C1422 1.368 . S
C1419 C1400 1.429 . S
C1419 C1413 1.429 . S
C1419 C1420 1.523 . S
C1420 C1401 1.368 . S
C1420 C1414 1.368 . S
C1420 C1419 1.523 . S
C1421 C1405 1.429 . S
C1421 C1417 1.429 . S
C1421 C1422 1.523 . S
C1422 C1406 1.368 . S
C1422 C1418 1.368 . S
C1422 C1421 1.523 . S
H1423 C1398 0.950 . S
H1424 C1400 0.950 . S
H1425 C1401 0.949 . S
H1426 C1403 0.950 . S
H1427 C1405 0.950 . S
C1428 C1429 1.349 . S
C1428 C1430 1.327 . S
C1428 H1453 0.950 . S
C1429 C1428 1.349 . S
C1429 C1445 1.349 . S
C1430 C1428 1.327 . S
C1430 C1449 1.429 . S
C1430 H1454 0.950 . S
C1431 C1448 1.574 . S
C1431 C1450 1.368 . S
C1431 H1455 0.949 . S
H1432 C1436 0.949 . S
C1433 C1434 1.349 . S
C1433 C1435 1.327 . S
C1433 H1456 0.950 . S
C1434 C1433 1.349 . S
C1434 C1446 1.349 . S
C1435 C1433 1.327 . S
C1435 C1451 1.429 . S
C1435 H1457 0.950 . S
C1436 H1432 0.949 . S
C1436 C1444 1.574 . S
C1436 C1452 1.368 . S
H1437 C1445 0.950 . S
H1438 C1443 0.950 . S
H1439 C1444 0.949 . S
H1440 C1446 0.950 . S
H1441 C1447 0.950 . S
H1442 C1448 0.949 . S
C1443 H1438 0.950 . S
C1443 C1445 1.327 . S
C1443 C1449 1.429 . S
C1444 C1436 1.574 . S
C1444 H1439 0.949 . S
C1444 C1450 1.368 . S
C1445 C1429 1.349 . S
C1445 H1437 0.950 . S
C1445 C1443 1.327 . S
C1446 C1434 1.349 . S
C1446 H1440 0.950 . S
C1446 C1447 1.327 . S
C1447 H1441 0.950 . S
C1447 C1446 1.327 . S
C1447 C1451 1.429 . S
C1448 C1431 1.574 . S
C1448 H1442 0.949 . S
C1448 C1452 1.368 . S
C1449 C1430 1.429 . S
C1449 C1443 1.429 . S
C1449 C1450 1.523 . S
C1450 C1431 1.368 . S
C1450 C1444 1.368 . S
C1450 C1449 1.523 . S
C1451 C1435 1.429 . S
C1451 C1447 1.429 . S
C1451 C1452 1.523 . S
C1452 C1436 1.368 . S
C1452 C1448 1.368 . S
C1452 C1451 1.523 . S
H1453 C1428 0.950 . S
H1454 C1430 0.950 . S
H1455 C1431 0.949 . S
H1456 C1433 0.950 . S
H1457 C1435 0.950 . S
C1458 C1459 1.349 . S
C1458 C1460 1.327 . S
C1458 H1483 0.950 . S
C1459 C1458 1.349 . S
C1459 C1475 1.349 . S
C1460 C1458 1.327 . S
C1460 C1479 1.429 . S
C1460 H1484 0.950 . S
C1461 C1478 1.574 . S
C1461 C1480 1.368 . S
C1461 H1485 0.949 . S
H1462 C1466 0.949 . S
C1463 C1464 1.349 . S
C1463 C1465 1.327 . S
C1463 H1486 0.950 . S
C1464 C1463 1.349 . S
C1464 C1476 1.349 . S
C1465 C1463 1.327 . S
C1465 C1481 1.429 . S
C1465 H1487 0.950 . S
C1466 H1462 0.949 . S
C1466 C1474 1.574 . S
C1466 C1482 1.368 . S
H1467 C1475 0.950 . S
H1468 C1473 0.950 . S
H1469 C1474 0.949 . S
H1470 C1476 0.950 . S
H1471 C1477 0.950 . S
H1472 C1478 0.949 . S
C1473 H1468 0.950 . S
C1473 C1475 1.327 . S
C1473 C1479 1.429 . S
C1474 C1466 1.574 . S
C1474 H1469 0.949 . S
C1474 C1480 1.368 . S
C1475 C1459 1.349 . S
C1475 H1467 0.950 . S
C1475 C1473 1.327 . S
C1476 C1464 1.349 . S
C1476 H1470 0.950 . S
C1476 C1477 1.327 . S
C1477 H1471 0.950 . S
C1477 C1476 1.327 . S
C1477 C1481 1.429 . S
C1478 C1461 1.574 . S
C1478 H1472 0.949 . S
C1478 C1482 1.368 . S
C1479 C1460 1.429 . S
C1479 C1473 1.429 . S
C1479 C1480 1.523 . S
C1480 C1461 1.368 . S
C1480 C1474 1.368 . S
C1480 C1479 1.523 . S
C1481 C1465 1.429 . S
C1481 C1477 1.429 . S
C1481 C1482 1.523 . S
C1482 C1466 1.368 . S
C1482 C1478 1.368 . S
C1482 C1481 1.523 . S
H1483 C1458 0.950 . S
H1484 C1460 0.950 . S
H1485 C1461 0.949 . S
H1486 C1463 0.950 . S
H1487 C1465 0.950 . S
C1488 C1489 1.349 . S
C1488 C1490 1.327 . S
C1488 H1513 0.950 . S
C1489 C1488 1.349 . S
C1489 C1505 1.349 . S
C1490 C1488 1.327 . S
C1490 C1509 1.429 . S
C1490 H1514 0.950 . S
C1491 C1508 1.574 . S
C1491 C1510 1.368 . S
C1491 H1515 0.949 . S
H1492 C1496 0.949 . S
C1493 C1494 1.349 . S
C1493 C1495 1.327 . S
C1493 H1516 0.950 . S
C1494 C1493 1.349 . S
C1494 C1506 1.349 . S
C1495 C1493 1.327 . S
C1495 C1511 1.429 . S
C1495 H1517 0.950 . S
C1496 H1492 0.949 . S
C1496 C1504 1.574 . S
C1496 C1512 1.368 . S
H1497 C1505 0.950 . S
H1498 C1503 0.950 . S
H1499 C1504 0.949 . S
H1500 C1506 0.950 . S
H1501 C1507 0.950 . S
H1502 C1508 0.949 . S
C1503 H1498 0.950 . S
C1503 C1505 1.327 . S
C1503 C1509 1.429 . S
C1504 C1496 1.574 . S
C1504 H1499 0.949 . S
C1504 C1510 1.368 . S
C1505 C1489 1.349 . S
C1505 H1497 0.950 . S
C1505 C1503 1.327 . S
C1506 C1494 1.349 . S
C1506 H1500 0.950 . S
C1506 C1507 1.327 . S
C1507 H1501 0.950 . S
C1507 C1506 1.327 . S
C1507 C1511 1.429 . S
C1508 C1491 1.574 . S
C1508 H1502 0.949 . S
C1508 C1512 1.368 . S
C1509 C1490 1.429 . S
C1509 C1503 1.429 . S
C1509 C1510 1.523 . S
C1510 C1491 1.368 . S
C1510 C1504 1.368 . S
C1510 C1509 1.523 . S
C1511 C1495 1.429 . S
C1511 C1507 1.429 . S
C1511 C1512 1.523 . S
C1512 C1496 1.368 . S
C1512 C1508 1.368 . S
C1512 C1511 1.523 . S
H1513 C1488 0.950 . S
H1514 C1490 0.950 . S
H1515 C1491 0.949 . S
H1516 C1493 0.950 . S
H1517 C1495 0.950 . S
C1518 C1519 1.349 . S
C1518 C1520 1.327 . S
C1518 H1543 0.950 . S
C1519 C1518 1.349 . S
C1519 C1535 1.347 1_565 S
C1520 C1518 1.327 . S
C1520 C1539 1.429 . S
C1520 H1544 0.950 . S
C1521 C1538 1.574 . S
C1521 C1540 1.368 . S
C1521 H1545 0.949 . S
H1522 C1526 0.949 . S
C1523 C1524 1.349 . S
C1523 C1525 1.327 . S
C1523 H1546 0.950 . S
C1524 C1523 1.349 . S
C1524 C1536 1.349 . S
C1525 C1523 1.327 . S
C1525 C1541 1.429 . S
C1525 H1547 0.950 . S
C1526 H1522 0.949 . S
C1526 C1534 1.574 . S
C1526 C1542 1.368 . S
H1527 C1535 0.972 . S
H1528 C1533 0.950 . S
H1529 C1534 0.949 . S
H1530 C1536 0.950 . S
H1531 C1537 0.950 . S
H1532 C1538 0.949 . S
C1533 H1528 0.950 . S
C1533 C1535 1.307 1_565 S
C1533 C1539 1.429 . S
C1534 C1526 1.574 . S
C1534 H1529 0.949 . S
C1534 C1540 1.368 . S
C1535 C1519 1.347 1_545 S
C1535 H1527 0.972 . S
C1535 C1533 1.307 1_545 S
C1536 C1524 1.349 . S
C1536 H1530 0.950 . S
C1536 C1537 1.327 . S
C1537 H1531 0.950 . S
C1537 C1536 1.327 . S
C1537 C1541 1.429 . S
C1538 C1521 1.574 . S
C1538 H1532 0.949 . S
C1538 C1542 1.368 . S
C1539 C1520 1.429 . S
C1539 C1533 1.429 . S
C1539 C1540 1.523 . S
C1540 C1521 1.368 . S
C1540 C1534 1.368 . S
C1540 C1539 1.523 . S
C1541 C1525 1.429 . S
C1541 C1537 1.429 . S
C1541 C1542 1.523 . S
C1542 C1526 1.368 . S
C1542 C1538 1.368 . S
C1542 C1541 1.523 . S
H1543 C1518 0.950 . S
H1544 C1520 0.950 . S
H1545 C1521 0.949 . S
H1546 C1523 0.950 . S
H1547 C1525 0.950 . S
C1548 C1549 1.349 . S
C1548 C1550 1.327 . S
C1548 H1573 0.950 . S
C1549 C1548 1.349 . S
C1549 C1565 1.349 . S
C1550 C1548 1.327 . S
C1550 C1569 1.429 . S
C1550 H1574 0.950 . S
C1551 C1568 1.574 . S
C1551 C1570 1.368 . S
C1551 H1575 0.949 . S
H1552 C1556 0.949 . S
C1553 C1554 1.349 . S
C1553 C1555 1.327 . S
C1553 H1576 0.950 . S
C1554 C1553 1.349 . S
C1554 C1566 1.349 . S
C1555 C1553 1.327 . S
C1555 C1571 1.429 . S
C1555 H1577 0.950 . S
C1556 H1552 0.949 . S
C1556 C1564 1.574 . S
C1556 C1572 1.368 . S
H1557 C1565 0.950 . S
H1558 C1563 0.950 . S
H1559 C1564 0.949 . S
H1560 C1566 0.950 . S
H1561 C1567 0.950 . S
H1562 C1568 0.949 . S
C1563 H1558 0.950 . S
C1563 C1565 1.327 . S
C1563 C1569 1.429 . S
C1564 C1556 1.574 . S
C1564 H1559 0.949 . S
C1564 C1570 1.368 . S
C1565 C1549 1.349 . S
C1565 H1557 0.950 . S
C1565 C1563 1.327 . S
C1566 C1554 1.349 . S
C1566 H1560 0.950 . S
C1566 C1567 1.327 . S
C1567 H1561 0.950 . S
C1567 C1566 1.327 . S
C1567 C1571 1.429 . S
C1568 C1551 1.574 . S
C1568 H1562 0.949 . S
C1568 C1572 1.368 . S
C1569 C1550 1.429 . S
C1569 C1563 1.429 . S
C1569 C1570 1.523 . S
C1570 C1551 1.368 . S
C1570 C1564 1.368 . S
C1570 C1569 1.523 . S
C1571 C1555 1.429 . S
C1571 C1567 1.429 . S
C1571 C1572 1.523 . S
C1572 C1556 1.368 . S
C1572 C1568 1.368 . S
C1572 C1571 1.523 . S
H1573 C1548 0.950 . S
H1574 C1550 0.950 . S
H1575 C1551 0.949 . S
H1576 C1553 0.950 . S
H1577 C1555 0.950 . S
C1578 C1579 1.349 . S
C1578 C1580 1.327 . S
C1578 H1603 0.950 . S
C1579 C1578 1.349 . S
C1579 C1595 1.347 1_545 S
C1580 C1578 1.327 . S
C1580 C1599 1.429 . S
C1580 H1604 0.950 . S
C1581 C1598 1.574 . S
C1581 C1600 1.368 . S
C1581 H1605 0.949 . S
H1582 C1586 0.949 . S
C1583 C1584 1.349 . S
C1583 C1585 1.327 . S
C1583 H1606 0.950 . S
C1584 C1583 1.349 . S
C1584 C1596 1.349 . S
C1585 C1583 1.327 . S
C1585 C1601 1.429 . S
C1585 H1607 0.950 . S
C1586 H1582 0.949 . S
C1586 C1594 1.574 . S
C1586 C1602 1.368 . S
H1587 C1595 0.972 . S
H1588 C1593 0.950 . S
H1589 C1594 0.949 . S
H1590 C1596 0.950 . S
H1591 C1597 0.950 . S
H1592 C1598 0.949 . S
C1593 H1588 0.950 . S
C1593 C1595 1.308 1_545 S
C1593 C1599 1.429 . S
C1594 C1586 1.574 . S
C1594 H1589 0.949 . S
C1594 C1600 1.368 . S
C1595 C1579 1.347 1_565 S
C1595 H1587 0.972 . S
C1595 C1593 1.308 1_565 S
C1596 C1584 1.349 . S
C1596 H1590 0.950 . S
C1596 C1597 1.327 . S
C1597 H1591 0.950 . S
C1597 C1596 1.327 . S
C1597 C1601 1.429 . S
C1598 C1581 1.574 . S
C1598 H1592 0.949 . S
C1598 C1602 1.368 . S
C1599 C1580 1.429 . S
C1599 C1593 1.429 . S
C1599 C1600 1.523 . S
C1600 C1581 1.368 . S
C1600 C1594 1.368 . S
C1600 C1599 1.523 . S
C1601 C1585 1.429 . S
C1601 C1597 1.429 . S
C1601 C1602 1.523 . S
C1602 C1586 1.368 . S
C1602 C1598 1.368 . S
C1602 C1601 1.523 . S
H1603 C1578 0.950 . S
H1604 C1580 0.950 . S
H1605 C1581 0.949 . S
H1606 C1583 0.950 . S
H1607 C1585 0.950 . S
C1608 C1609 1.349 . S
C1608 C1610 1.327 . S
C1608 H1633 0.950 . S
C1609 C1608 1.349 . S
C1609 C1625 1.349 . S
C1610 C1608 1.327 . S
C1610 C1629 1.429 . S
C1610 H1634 0.950 . S
C1611 C1628 1.574 . S
C1611 C1630 1.368 . S
C1611 H1635 0.949 . S
H1612 C1616 0.949 . S
C1613 C1614 1.349 . S
C1613 C1615 1.327 . S
C1613 H1636 0.950 . S
C1614 C1613 1.349 . S
C1614 C1626 1.349 . S
C1615 C1613 1.327 . S
C1615 C1631 1.429 . S
C1615 H1637 0.950 . S
C1616 H1612 0.949 . S
C1616 C1624 1.574 . S
C1616 C1632 1.368 . S
H1617 C1625 0.950 . S
H1618 C1623 0.950 . S
H1619 C1624 0.949 . S
H1620 C1626 0.950 . S
H1621 C1627 0.950 . S
H1622 C1628 0.949 . S
C1623 H1618 0.950 . S
C1623 C1625 1.327 . S
C1623 C1629 1.429 . S
C1624 C1616 1.574 . S
C1624 H1619 0.949 . S
C1624 C1630 1.368 . S
C1625 C1609 1.349 . S
C1625 H1617 0.950 . S
C1625 C1623 1.327 . S
C1626 C1614 1.349 . S
C1626 H1620 0.950 . S
C1626 C1627 1.327 . S
C1627 H1621 0.950 . S
C1627 C1626 1.327 . S
C1627 C1631 1.429 . S
C1628 C1611 1.574 . S
C1628 H1622 0.949 . S
C1628 C1632 1.368 . S
C1629 C1610 1.429 . S
C1629 C1623 1.429 . S
C1629 C1630 1.523 . S
C1630 C1611 1.368 . S
C1630 C1624 1.368 . S
C1630 C1629 1.523 . S
C1631 C1615 1.429 . S
C1631 C1627 1.429 . S
C1631 C1632 1.523 . S
C1632 C1616 1.368 . S
C1632 C1628 1.368 . S
C1632 C1631 1.523 . S
H1633 C1608 0.950 . S
H1634 C1610 0.950 . S
H1635 C1611 0.949 . S
H1636 C1613 0.950 . S
H1637 C1615 0.950 . S
C1638 C1639 1.349 . S
C1638 C1640 1.327 . S
C1638 H1663 0.950 . S
C1639 C1638 1.349 . S
C1639 C1655 1.349 . S
C1640 C1638 1.327 . S
C1640 C1659 1.429 . S
C1640 H1664 0.950 . S
C1641 C1658 1.574 . S
C1641 C1660 1.368 . S
C1641 H1665 0.949 . S
H1642 C1646 0.949 . S
C1643 C1644 1.349 . S
C1643 C1645 1.327 . S
C1643 H1666 0.950 . S
C1644 C1643 1.349 . S
C1644 C1656 1.348 1_545 S
C1645 C1643 1.327 . S
C1645 C1661 1.429 . S
C1645 H1667 0.950 . S
C1646 H1642 0.949 . S
C1646 C1654 1.574 . S
C1646 C1662 1.368 . S
H1647 C1655 0.950 . S
H1648 C1653 0.950 . S
H1649 C1654 0.949 . S
H1650 C1656 0.955 . S
H1651 C1657 0.950 . S
H1652 C1658 0.949 . S
C1653 H1648 0.950 . S
C1653 C1655 1.327 . S
C1653 C1659 1.429 . S
C1654 C1646 1.574 . S
C1654 H1649 0.949 . S
C1654 C1660 1.368 . S
C1655 C1639 1.349 . S
C1655 H1647 0.950 . S
C1655 C1653 1.327 . S
C1656 C1644 1.348 1_565 S
C1656 H1650 0.955 . S
C1656 C1657 1.323 1_565 S
C1657 H1651 0.950 . S
C1657 C1656 1.323 1_545 S
C1657 C1661 1.429 . S
C1658 C1641 1.574 . S
C1658 H1652 0.949 . S
C1658 C1662 1.368 . S
C1659 C1640 1.429 . S
C1659 C1653 1.429 . S
C1659 C1660 1.523 . S
C1660 C1641 1.368 . S
C1660 C1654 1.368 . S
C1660 C1659 1.523 . S
C1661 C1645 1.429 . S
C1661 C1657 1.429 . S
C1661 C1662 1.523 . S
C1662 C1646 1.368 . S
C1662 C1658 1.368 . S
C1662 C1661 1.523 . S
H1663 C1638 0.950 . S
H1664 C1640 0.950 . S
H1665 C1641 0.949 . S
H1666 C1643 0.950 . S
H1667 C1645 0.950 . S
C1668 C1669 1.349 . S
C1668 C1670 1.327 . S
C1668 H1693 0.950 . S
C1669 C1668 1.349 . S
C1669 C1685 1.349 . S
C1670 C1668 1.327 . S
C1670 C1689 1.429 . S
C1670 H1694 0.950 . S
C1671 C1688 1.574 . S
C1671 C1690 1.368 . S
C1671 H1695 0.949 . S
H1672 C1676 0.949 . S
C1673 C1674 1.349 . S
C1673 C1675 1.327 . S
C1673 H1696 0.950 . S
C1674 C1673 1.349 . S
C1674 C1686 1.349 . S
C1675 C1673 1.327 . S
C1675 C1691 1.429 . S
C1675 H1697 0.950 . S
C1676 H1672 0.949 . S
C1676 C1684 1.574 . S
C1676 C1692 1.368 . S
H1677 C1685 0.950 . S
H1678 C1683 0.950 . S
H1679 C1684 0.949 . S
H1680 C1686 0.950 . S
H1681 C1687 0.950 . S
H1682 C1688 0.949 . S
C1683 H1678 0.950 . S
C1683 C1685 1.327 . S
C1683 C1689 1.429 . S
C1684 C1676 1.574 . S
C1684 H1679 0.949 . S
C1684 C1690 1.368 . S
C1685 C1669 1.349 . S
C1685 H1677 0.950 . S
C1685 C1683 1.327 . S
C1686 C1674 1.349 . S
C1686 H1680 0.950 . S
C1686 C1687 1.327 . S
C1687 H1681 0.950 . S
C1687 C1686 1.327 . S
C1687 C1691 1.429 . S
C1688 C1671 1.574 . S
C1688 H1682 0.949 . S
C1688 C1692 1.368 . S
C1689 C1670 1.429 . S
C1689 C1683 1.429 . S
C1689 C1690 1.523 . S
C1690 C1671 1.368 . S
C1690 C1684 1.368 . S
C1690 C1689 1.523 . S
C1691 C1675 1.429 . S
C1691 C1687 1.429 . S
C1691 C1692 1.523 . S
C1692 C1676 1.368 . S
C1692 C1688 1.368 . S
C1692 C1691 1.523 . S
H1693 C1668 0.950 . S
H1694 C1670 0.950 . S
H1695 C1671 0.949 . S
H1696 C1673 0.950 . S
H1697 C1675 0.950 . S
C1698 C1699 1.349 . S
C1698 C1700 1.327 . S
C1698 H1723 0.926 1_565 S
C1699 C1698 1.349 . S
C1699 C1715 1.349 . S
C1700 C1698 1.327 . S
C1700 C1719 1.429 . S
C1700 H1724 0.950 . S
C1701 C1718 1.574 . S
C1701 C1720 1.368 . S
C1701 H1725 0.949 . S
H1702 C1706 0.949 . S
C1703 C1704 1.349 . S
C1703 C1705 1.327 . S
C1703 H1726 0.950 . S
C1704 C1703 1.349 . S
C1704 C1716 1.349 . S
C1705 C1703 1.327 . S
C1705 C1721 1.429 . S
C1705 H1727 0.950 . S
C1706 H1702 0.949 . S
C1706 C1714 1.574 . S
C1706 C1722 1.368 . S
H1707 C1715 0.950 . S
H1708 C1713 0.950 . S
H1709 C1714 0.949 . S
H1710 C1716 0.950 . S
H1711 C1717 0.950 . S
H1712 C1718 0.949 . S
C1713 H1708 0.950 . S
C1713 C1715 1.327 . S
C1713 C1719 1.429 . S
C1714 C1706 1.574 . S
C1714 H1709 0.949 . S
C1714 C1720 1.368 . S
C1715 C1699 1.349 . S
C1715 H1707 0.950 . S
C1715 C1713 1.327 . S
C1716 C1704 1.349 . S
C1716 H1710 0.950 . S
C1716 C1717 1.327 . S
C1717 H1711 0.950 . S
C1717 C1716 1.327 . S
C1717 C1721 1.429 . S
C1718 C1701 1.574 . S
C1718 H1712 0.949 . S
C1718 C1722 1.368 . S
C1719 C1700 1.429 . S
C1719 C1713 1.429 . S
C1719 C1720 1.523 . S
C1720 C1701 1.368 . S
C1720 C1714 1.368 . S
C1720 C1719 1.523 . S
C1721 C1705 1.429 . S
C1721 C1717 1.429 . S
C1721 C1722 1.523 . S
C1722 C1706 1.368 . S
C1722 C1718 1.368 . S
C1722 C1721 1.523 . S
H1723 C1698 0.926 1_545 S
H1724 C1700 0.950 . S
H1725 C1701 0.949 . S
H1726 C1703 0.950 . S
H1727 C1705 0.950 . S
C529 C513 1.412 . S
C534 N13 1.378 . S
C559 N46 1.378 . S
C564 C150 1.412 . S
C589 N79 1.378 . S
C594 C447 1.412 . S
C619 N112 1.378 . S
C624 C216 1.412 . S
C649 N145 1.378 . S
C654 C381 1.412 . S
C679 C18 1.412 . S
C684 N178 1.378 . S
C709 C315 1.412 . S
C714 N211 1.378 . S
C739 N244 1.378 . S
C744 C84 1.412 . S
C769 N277 1.378 . S
C774 C249 1.412 . S
C799 N310 1.378 . S
C804 C414 1.412 . S
C829 C183 1.412 . S
C834 N343 1.378 . S
C859 N376 1.378 . S
C864 C480 1.412 . S
C889 N409 1.378 . S
C894 C117 1.412 . S
C919 N442 1.378 . S
C924 C282 1.412 . S
C949 C51 1.412 . S
C954 N475 1.378 . S
C979 N508 1.378 . S
C984 C348 1.412 . S
C1009 N2 1.668 . S
C1014 N398 1.668 . S
C1039 N167 1.668 . S
C1044 N35 1.668 . S
C1069 N68 1.668 . S
C1074 N464 1.668 . S
C1099 N101 1.668 . S
C1104 N233 1.668 . S
C1129 N266 1.668 . S
C1134 N134 1.668 . S
C1159 N332 1.668 . S
C1164 N200 1.668 . S
C1189 N431 1.668 . S
C1194 N299 1.668 . S
C1219 N365 1.668 . S
C1224 N497 1.668 . S
C1249 C304 1.220 . S
C1254 C21 1.235 . S
C1279 C54 1.235 . S
C1284 C337 1.220 . S
C1309 C87 1.235 . S
C1314 C370 1.220 . S
C1339 C271 1.220 . S
C1344 C120 1.235 . S
C1369 C153 1.235 . S
C1374 C436 1.220 . S
C1399 C186 1.235 . S
C1404 C469 1.220 . S
C1429 C219 1.235 . S
C1434 C502 1.220 . S
C1459 C252 1.235 . S
C1464 C403 1.220 . S
C1489 C40 1.220 . S
C1494 C285 1.235 . S
C1519 C318 1.235 1_565 S
C1524 C73 1.220 . S
C1549 C351 1.235 . S
C1554 C106 1.220 . S
C1579 C384 1.235 1_545 S
C1584 C7 1.220 . S
C1609 C417 1.235 . S
C1614 C172 1.220 . S
C1639 C205 1.220 . S
C1644 C450 1.235 1_545 S
C1669 C238 1.220 . S
C1674 C483 1.235 . S
C1699 C516 1.235 1_565 S
C1704 C139 1.220 . S
