# Generated by pormake.
# Topology vmg, (6)-cn, num edge types: 1
# Building blocks:
#     Node 0, Type 0, BuildingBlock: IZENUY_clean_sbu_0, # of connection points: 6
#     Node 1, Type 0, BuildingBlock: IZENUY_clean_sbu_0, # of connection points: 6
#     Node 2, Type 0, BuildingBlock: IZENUY_clean_sbu_0, # of connection points: 6
#     Node 3, Type 0, BuildingBlock: IZENUY_clean_sbu_0, # of connection points: 6
#     Node 4, Type 0, BuildingBlock: IZENUY_clean_sbu_0, # of connection points: 6
#     Node 5, Type 0, BuildingBlock: IZENUY_clean_sbu_0, # of connection points: 6
#     Node 6, Type 0, BuildingBlock: IZENUY_clean_sbu_0, # of connection points: 6
#     Node 7, Type 0, BuildingBlock: IZENUY_clean_sbu_0, # of connection points: 6
#     Edge 8, Type (0, 0), BuildingBlock: UVAHIK_clean_linker_0, # of connection points: 2
#     Edge 9, Type (0, 0), BuildingBlock: UVAHIK_clean_linker_0, # of connection points: 2
#     Edge 10, Type (0, 0), BuildingBlock: UVAHIK_clean_linker_0, # of connection points: 2
#     Edge 11, Type (0, 0), BuildingBlock: UVAHIK_clean_linker_0, # of connection points: 2
#     Edge 12, Type (0, 0), BuildingBlock: UVAHIK_clean_linker_0, # of connection points: 2
#     Edge 13, Type (0, 0), BuildingBlock: UVAHIK_clean_linker_0, # of connection points: 2
#     Edge 14, Type (0, 0), BuildingBlock: UVAHIK_clean_linker_0, # of connection points: 2
#     Edge 15, Type (0, 0), BuildingBlock: UVAHIK_clean_linker_0, # of connection points: 2
#     Edge 16, Type (0, 0), BuildingBlock: UVAHIK_clean_linker_0, # of connection points: 2
#     Edge 17, Type (0, 0), BuildingBlock: UVAHIK_clean_linker_0, # of connection points: 2
#     Edge 18, Type (0, 0), BuildingBlock: UVAHIK_clean_linker_0, # of connection points: 2
#     Edge 19, Type (0, 0), BuildingBlock: UVAHIK_clean_linker_0, # of connection points: 2
#     Edge 20, Type (0, 0), BuildingBlock: UVAHIK_clean_linker_0, # of connection points: 2
#     Edge 21, Type (0, 0), BuildingBlock: UVAHIK_clean_linker_0, # of connection points: 2
#     Edge 22, Type (0, 0), BuildingBlock: UVAHIK_clean_linker_0, # of connection points: 2
#     Edge 23, Type (0, 0), BuildingBlock: UVAHIK_clean_linker_0, # of connection points: 2
#     Edge 24, Type (0, 0), BuildingBlock: UVAHIK_clean_linker_0, # of connection points: 2
#     Edge 25, Type (0, 0), BuildingBlock: UVAHIK_clean_linker_0, # of connection points: 2
#     Edge 26, Type (0, 0), BuildingBlock: UVAHIK_clean_linker_0, # of connection points: 2
#     Edge 27, Type (0, 0), BuildingBlock: UVAHIK_clean_linker_0, # of connection points: 2
#     Edge 28, Type (0, 0), BuildingBlock: UVAHIK_clean_linker_0, # of connection points: 2
#     Edge 29, Type (0, 0), BuildingBlock: UVAHIK_clean_linker_0, # of connection points: 2
#     Edge 30, Type (0, 0), BuildingBlock: UVAHIK_clean_linker_0, # of connection points: 2
#     Edge 31, Type (0, 0), BuildingBlock: UVAHIK_clean_linker_0, # of connection points: 2
# Relax obj value: 0.255
# Max RMSD: 0.237
# Mean RMSD: 0.237
data_MOF--net-vmg--node1-IZENUY_clean_sbu_0--edge1-UVAHIK_clean_linker_0
_symmetry_space_group_name_H-M    P1
_symmetry_Int_Tables_number       1
_symmetry_cell_setting            triclinic
loop_
_symmetry_equiv_pos_as_xyz
'x, y, z'
_cell_length_a     36.192001
_cell_length_b     57.068003
_cell_length_c     34.058896
_cell_angle_alpha  90.063775
_cell_angle_beta   101.40121
_cell_angle_gamma 90.031157
loop_
_atom_site_label
_atom_site_type_symbol
_atom_site_fract_x
_atom_site_fract_y
_atom_site_fract_z
_atom_type_partial_charge
Fe0 Fe 0.23957 0.39 0.17565 0.0
Fe1 Fe 0.18247 0.39985 0.09836 0.0
O2 O 0.21925 0.40942 0.13698 0.0
Fe3 Fe 0.23516 0.43866 0.13713 0.0
O4 O 0.22124 0.44416 0.18407 0.0
O5 O 0.24853 0.41303 0.2151 0.0
O6 O 0.19481 0.38558 0.19017 0.0
C7 C 0.16495 0.37892 0.16739 0.0
C8 C 0.30245 0.41291 0.16487 0.0
O9 O 0.16239 0.37888 0.12973 0.0
C10 C 0.22606 0.42984 0.05797 0.0
O11 O 0.23378 0.36366 0.14285 0.0
O12 O 0.21233 0.37802 0.08275 0.0
O13 O 0.284 0.43192 0.1619 0.0
O14 O 0.28573 0.39348 0.16374 0.0
C15 C 0.15618 0.44293 0.11112 0.0
O16 O 0.1955 0.41931 0.05988 0.0
O17 O 0.24946 0.43469 0.08956 0.0
C18 C 0.22863 0.36194 0.10487 0.0
O19 O 0.15061 0.42121 0.11205 0.0
O20 O 0.18917 0.45087 0.11281 0.0
C21 C 0.23277 0.43291 0.21586 0.0
Fe22 Fe 0.75914 0.43628 0.36039 0.0
Fe23 Fe 0.76627 0.38559 0.33169 0.0
O24 O 0.78029 0.40812 0.36764 0.0
Fe25 Fe 0.81597 0.40274 0.41049 0.0
O26 O 0.83497 0.43238 0.41314 0.0
O27 O 0.80409 0.45023 0.35936 0.0
O28 O 0.75111 0.43545 0.30583 0.0
C29 C 0.76739 0.42372 0.28288 0.0
C30 C 0.76801 0.42949 0.44431 0.0
O31 O 0.77906 0.40322 0.29175 0.0
C32 C 0.77414 0.36037 0.40151 0.0
O33 O 0.71289 0.42425 0.3606 0.0
O34 O 0.71691 0.39511 0.31919 0.0
O35 O 0.78479 0.41004 0.4447 0.0
O36 O 0.76326 0.44248 0.41368 0.0
C37 C 0.84536 0.38082 0.35157 0.0
O38 O 0.75276 0.36622 0.36901 0.0
O39 O 0.80365 0.37197 0.41528 0.0
C40 C 0.69749 0.40838 0.33709 0.0
O41 O 0.81318 0.37223 0.33766 0.0
O42 O 0.84982 0.39561 0.37962 0.0
C43 C 0.83318 0.44775 0.38624 0.0
Fe44 Fe 0.75621 0.56645 0.86832 0.0
Fe45 Fe 0.75421 0.61501 0.82941 0.0
O46 O 0.77289 0.59554 0.86874 0.0
Fe47 Fe 0.80883 0.605 0.90839 0.0
O48 O 0.84093 0.58338 0.89604 0.0
O49 O 0.80164 0.55393 0.89364 0.0
O50 O 0.771 0.56055 0.82201 0.0
C51 C 0.76051 0.57166 0.78989 0.0
C52 C 0.7637 0.57517 0.94736 0.0
O53 O 0.74586 0.59192 0.79001 0.0
C54 C 0.76339 0.64325 0.89997 0.0
O55 O 0.70785 0.57362 0.84252 0.0
O56 O 0.70727 0.61206 0.83942 0.0
O57 O 0.79438 0.58577 0.94637 0.0
O58 O 0.74087 0.57061 0.91525 0.0
C59 C 0.82914 0.62563 0.84041 0.0
O60 O 0.75952 0.64144 0.86208 0.0
O61 O 0.77861 0.62709 0.92264 0.0
C62 C 0.68996 0.59285 0.8384 0.0
O63 O 0.79986 0.61899 0.81664 0.0
O64 O 0.83037 0.62572 0.87787 0.0
C65 C 0.83489 0.56169 0.89638 0.0
Fe66 Fe 0.23053 0.61761 0.6743 0.0
Fe67 Fe 0.17478 0.6078 0.59569 0.0
O68 O 0.21148 0.59839 0.63461 0.0
Fe69 Fe 0.22879 0.56949 0.63375 0.0
O70 O 0.21476 0.56266 0.6802 0.0
O71 O 0.23945 0.59414 0.71276 0.0
O72 O 0.18529 0.62123 0.68806 0.0
C73 C 0.15535 0.62756 0.66512 0.0
C74 C 0.29479 0.59597 0.66393 0.0
O75 O 0.1528 0.62752 0.62745 0.0
C76 C 0.2211 0.57972 0.55521 0.0
O77 O 0.2246 0.64438 0.64264 0.0
O78 O 0.20358 0.63076 0.58184 0.0
O79 O 0.27699 0.57673 0.65954 0.0
O80 O 0.27736 0.6151 0.66354 0.0
C81 C 0.15011 0.56389 0.60456 0.0
O82 O 0.18985 0.58955 0.55658 0.0
O83 O 0.24385 0.57477 0.58712 0.0
C84 C 0.21891 0.64682 0.60476 0.0
O85 O 0.14369 0.58538 0.60748 0.0
O86 O 0.18367 0.55665 0.60769 0.0
C87 C 0.22635 0.57341 0.71262 0.0
Fe88 Fe 0.73953 0.89057 0.1726 0.0
Fe89 Fe 0.68177 0.89934 0.09521 0.0
O90 O 0.71894 0.90939 0.13307 0.0
Fe91 Fe 0.73508 0.93849 0.13158 0.0
O92 O 0.72172 0.94501 0.17839 0.0
O93 O 0.74891 0.9143 0.21087 0.0
O94 O 0.69508 0.88669 0.18784 0.0
C95 C 0.66486 0.87995 0.16585 0.0
C96 C 0.80234 0.91283 0.16006 0.0
O97 O 0.66164 0.87929 0.12809 0.0
C98 C 0.72519 0.92841 0.05286 0.0
O99 O 0.73332 0.86362 0.14124 0.0
O100 O 0.71117 0.87692 0.08055 0.0
O101 O 0.78401 0.93189 0.15626 0.0
O102 O 0.7855 0.89352 0.16 0.0
C103 C 0.65603 0.94291 0.10582 0.0
O104 O 0.6948 0.91786 0.05543 0.0
O105 O 0.74884 0.93352 0.08411 0.0
C106 C 0.72773 0.86122 0.10335 0.0
O107 O 0.65025 0.92126 0.10786 0.0
O108 O 0.68908 0.95062 0.10704 0.0
C109 C 0.73361 0.9344 0.21076 0.0
Fe110 Fe 0.25647 0.93837 0.36269 0.0
Fe111 Fe 0.26651 0.88816 0.33377 0.0
O112 O 0.27868 0.91058 0.37018 0.0
Fe113 Fe 0.31355 0.90552 0.41381 0.0
O114 O 0.33109 0.93551 0.41741 0.0
O115 O 0.30127 0.95299 0.36268 0.0
O116 O 0.24883 0.93763 0.30811 0.0
C117 C 0.26553 0.92635 0.28497 0.0
C118 C 0.26338 0.93112 0.44612 0.0
O119 O 0.27946 0.90643 0.29459 0.0
C120 C 0.27343 0.86269 0.40335 0.0
O121 O 0.21061 0.92553 0.362 0.0
O122 O 0.21669 0.89683 0.32036 0.0
O123 O 0.28079 0.91189 0.44672 0.0
O124 O 0.2595 0.9444 0.41589 0.0
C125 C 0.34566 0.88483 0.35567 0.0
O126 O 0.25291 0.8682 0.37018 0.0
O127 O 0.30245 0.87451 0.41789 0.0
C128 C 0.19627 0.9096 0.33796 0.0
O129 O 0.3141 0.87572 0.34073 0.0
O130 O 0.34878 0.8993 0.38413 0.0
C131 C 0.32965 0.95097 0.39071 0.0
Fe132 Fe 0.25327 0.06754 0.87318 0.0
Fe133 Fe 0.24836 0.115 0.83025 0.0
O134 O 0.26965 0.09646 0.8699 0.0
Fe135 Fe 0.30799 0.10664 0.90625 0.0
O136 O 0.33858 0.08449 0.89244 0.0
O137 O 0.2998 0.05542 0.89609 0.0
O138 O 0.26445 0.06022 0.82567 0.0
C139 C 0.25229 0.07061 0.79315 0.0
C140 C 0.2668 0.07823 0.95173 0.0
O141 O 0.23788 0.09098 0.79275 0.0
C142 C 0.26206 0.1447 0.89909 0.0
O143 O 0.20393 0.07419 0.85017 0.0
O144 O 0.20273 0.11249 0.84402 0.0
O145 O 0.29689 0.08837 0.94714 0.0
O146 O 0.24163 0.07329 0.92163 0.0
C147 C 0.3229 0.12534 0.83454 0.0
O148 O 0.25553 0.14213 0.86116 0.0
O149 O 0.27932 0.12916 0.92178 0.0
C150 C 0.18577 0.0933 0.84528 0.0
O151 O 0.29234 0.11842 0.81344 0.0
O152 O 0.32669 0.12658 0.87226 0.0
C153 C 0.33271 0.0629 0.89554 0.0
Fe154 Fe 0.7214 0.11703 0.66873 0.0
Fe155 Fe 0.67487 0.10214 0.58688 0.0
O156 O 0.70886 0.09547 0.63062 0.0
Fe157 Fe 0.72954 0.06715 0.63634 0.0
O158 O 0.73369 0.06599 0.69047 0.0
O159 O 0.7068 0.09833 0.70628 0.0
O160 O 0.67423 0.13024 0.66123 0.0
C161 C 0.64247 0.12153 0.64577 0.0
C162 C 0.79103 0.0944 0.66637 0.0
O163 O 0.63922 0.1076 0.6165 0.0
C164 C 0.72555 0.07728 0.55383 0.0
O165 O 0.73691 0.13746 0.63402 0.0
O166 O 0.68696 0.13316 0.58622 0.0
O167 O 0.7767 0.07907 0.64115 0.0
O168 O 0.77053 0.10746 0.68323 0.0
C169 C 0.65645 0.056 0.60365 0.0
O170 O 0.70819 0.09651 0.55423 0.0
O171 O 0.72901 0.06321 0.58303 0.0
C172 C 0.71652 0.14425 0.60154 0.0
O173 O 0.65618 0.07258 0.57927 0.0
O174 O 0.68385 0.0529 0.63232 0.0
C175 C 0.71711 0.0774 0.71358 0.0
C176 C 0.63405 0.42701 0.33203 0.0
C177 C 0.65598 0.4077 0.325 0.0
C178 C 0.59541 0.42752 0.31601 0.0
C179 C 0.51358 0.39075 0.27492 0.0
H180 H 0.47613 0.44627 0.21433 0.0
C181 C 0.36505 0.39281 0.17683 0.0
C182 C 0.3439 0.41337 0.17776 0.0
C183 C 0.4035 0.39245 0.19359 0.0
C184 C 0.48596 0.43076 0.23153 0.0
H185 H 0.65425 0.37327 0.29759 0.0
H186 H 0.58672 0.37408 0.27014 0.0
H187 H 0.54166 0.44476 0.24958 0.0
H188 H 0.34678 0.44991 0.19579 0.0
H189 H 0.4136 0.44917 0.22577 0.0
H190 H 0.45794 0.37682 0.25755 0.0
C191 C 0.59948 0.38886 0.28776 0.0
C192 C 0.52349 0.42992 0.25172 0.0
C193 C 0.63816 0.38845 0.30335 0.0
C194 C 0.36231 0.43381 0.1944 0.0
C195 C 0.4007 0.43339 0.21154 0.0
C196 C 0.47597 0.39167 0.25507 0.0
C197 C 0.57791 0.40861 0.29318 0.0
C198 C 0.53769 0.40986 0.27343 0.0
C199 C 0.42161 0.41258 0.21202 0.0
C200 C 0.46174 0.41164 0.23292 0.0
H201 H 0.64692 0.44212 0.3486 0.0
H202 H 0.57928 0.44284 0.32101 0.0
H203 H 0.52376 0.37517 0.29176 0.0
H204 H 0.35173 0.37683 0.16386 0.0
H205 H 0.41892 0.37628 0.19254 0.0
C206 C 0.62877 0.57166 0.81542 0.0
C207 C 0.64846 0.59278 0.82525 0.0
C208 C 0.5903 0.57186 0.79852 0.0
C209 C 0.51782 0.61031 0.74063 0.0
H210 H 0.44797 0.56465 0.7685 0.0
C211 C 0.35641 0.6167 0.68687 0.0
C212 C 0.33632 0.59574 0.67675 0.0
C213 C 0.39495 0.61621 0.70332 0.0
C214 C 0.46725 0.57733 0.76002 0.0
H215 H 0.64267 0.63062 0.827 0.0
H216 H 0.57557 0.6309 0.7981 0.0
H217 H 0.51376 0.56408 0.80306 0.0
H218 H 0.34146 0.55788 0.67418 0.0
H219 H 0.40874 0.55712 0.70244 0.0
H220 H 0.47129 0.62358 0.69766 0.0
C221 C 0.59005 0.61422 0.8026 0.0
C222 C 0.5049 0.57703 0.77989 0.0
C223 C 0.62848 0.61403 0.81943 0.0
C224 C 0.35598 0.57436 0.6819 0.0
C225 C 0.39449 0.57388 0.69838 0.0
C226 C 0.48017 0.61061 0.72078 0.0
C227 C 0.5707 0.59318 0.7912 0.0
C228 C 0.53058 0.59355 0.77048 0.0
C229 C 0.41424 0.59477 0.70997 0.0
C230 C 0.45446 0.59414 0.73028 0.0
H231 H 0.64329 0.55498 0.81948 0.0
H232 H 0.57623 0.55535 0.78987 0.0
H233 H 0.53707 0.623 0.73216 0.0
H234 H 0.34218 0.63348 0.68325 0.0
H235 H 0.40932 0.6326 0.71215 0.0
C236 C 0.138 0.88924 0.30232 0.0
C237 C 0.15487 0.90853 0.32464 0.0
C238 C 0.09952 0.88937 0.28561 0.0
C239 C 0.02323 0.92987 0.24778 0.0
H240 H 0.9578 0.87661 0.2528 0.0
C241 C 0.86233 0.93372 0.18913 0.0
C242 C 0.84381 0.91325 0.17281 0.0
C243 C 0.90071 0.93327 0.20632 0.0
C244 C 0.97581 0.8915 0.25049 0.0
H245 H 0.14432 0.94273 0.34812 0.0
H246 H 0.07711 0.94297 0.31854 0.0
H247 H 0.02338 0.87514 0.28782 0.0
H248 H 0.85144 0.8766 0.15952 0.0
H249 H 0.91864 0.876 0.18819 0.0
H250 H 0.97614 0.9461 0.20977 0.0
C251 C 0.0938 0.92783 0.31394 0.0
C252 C 0.01329 0.89068 0.27082 0.0
C253 C 0.13219 0.92759 0.3311 0.0
C254 C 0.86486 0.89261 0.17222 0.0
C255 C 0.90331 0.89223 0.189 0.0
C256 C 0.98586 0.93061 0.22708 0.0
C257 C 0.07726 0.90888 0.29051 0.0
C258 C 0.0373 0.90988 0.26975 0.0
C259 C 0.92153 0.9124 0.20715 0.0
C260 C 0.96164 0.91145 0.22823 0.0
H261 H 0.1547 0.87426 0.29695 0.0
H262 H 0.08748 0.87456 0.26756 0.0
H263 H 0.04135 0.94478 0.24596 0.0
H264 H 0.84687 0.94987 0.19028 0.0
H265 H 0.91364 0.94909 0.22035 0.0
C266 C 0.12315 0.11363 0.8315 0.0
C267 C 0.14417 0.09284 0.83288 0.0
C268 C 0.0846 0.11373 0.81491 0.0
C269 C 0.00181 0.07457 0.78051 0.0
H270 H 0.96365 0.1285 0.71585 0.0
C271 C 0.85494 0.07569 0.67598 0.0
C272 C 0.83238 0.09513 0.68075 0.0
C273 C 0.89329 0.07552 0.69362 0.0
C274 C 0.97391 0.11338 0.73395 0.0
H275 H 0.14085 0.05569 0.81902 0.0
H276 H 0.07405 0.05596 0.78926 0.0
H277 H 0.02931 0.12776 0.75064 0.0
H278 H 0.8327 0.13002 0.70619 0.0
H279 H 0.89974 0.12984 0.73627 0.0
H280 H 0.94637 0.06005 0.76285 0.0
C281 C 0.08703 0.07215 0.80165 0.0
C282 C 0.01147 0.11299 0.75418 0.0
C283 C 0.12547 0.07199 0.81868 0.0
C284 C 0.84929 0.11474 0.7021 0.0
C285 C 0.8877 0.11469 0.71921 0.0
C286 C 0.96436 0.07486 0.75987 0.0
C287 C 0.0662 0.09311 0.79885 0.0
C288 C 0.02593 0.09362 0.77788 0.0
C289 C 0.90992 0.09491 0.71579 0.0
C290 C 0.95001 0.0943 0.7365 0.0
H291 H 0.13666 0.12995 0.8425 0.0
H292 H 0.06935 0.13009 0.81423 0.0
H293 H 0.01168 0.05952 0.79892 0.0
H294 H 0.84274 0.06029 0.6598 0.0
H295 H 0.9099 0.06014 0.6902 0.0
C296 C 0.23495 0.33947 0.04359 0.0
C297 C 0.23669 0.33982 0.08524 0.0
C298 C 0.2385 0.3185 0.02361 0.0
C299 C 0.22573 0.25495 0.03258 0.0
H300 H 0.27882 0.25179 0.94429 0.0
C301 C 0.25568 0.16786 0.95953 0.0
C302 C 0.25389 0.16707 0.9179 0.0
C303 C 0.25176 0.18899 0.97883 0.0
C304 C 0.26339 0.25248 0.96846 0.0
H305 H 0.24496 0.31839 0.13875 0.0
H306 H 0.25155 0.28156 0.10373 0.0
H307 H 0.27903 0.28821 0.9819 0.0
H308 H 0.24527 0.18789 0.86369 0.0
H309 H 0.23811 0.22509 0.89759 0.0
H310 H 0.21013 0.21922 0.01919 0.0
C311 C 0.24687 0.29762 0.08655 0.0
C312 C 0.26367 0.27332 0.99018 0.0
C313 C 0.24345 0.31872 0.10668 0.0
C314 C 0.2468 0.18791 0.89577 0.0
C315 C 0.24304 0.20921 0.91524 0.0
C316 C 0.22545 0.23412 0.01087 0.0
C317 C 0.24389 0.29725 0.04467 0.0
C318 C 0.24488 0.27481 0.02255 0.0
C319 C 0.24593 0.21 0.9571 0.0
C320 C 0.24439 0.23259 0.97863 0.0
H321 H 0.22997 0.3554 0.02608 0.0
H322 H 0.23569 0.31888 0.99136 0.0
H323 H 0.21033 0.25561 0.05678 0.0
H324 H 0.2609 0.15213 0.97756 0.0
H325 H 0.25457 0.18894 0.01109 0.0
C326 C 0.79076 0.33269 0.45926 0.0
C327 C 0.76701 0.33857 0.42266 0.0
C328 C 0.7855 0.31192 0.47904 0.0
C329 C 0.7434 0.25308 0.4617 0.0
H330 H 0.75568 0.25195 0.57747 0.0
C331 C 0.70171 0.17304 0.54544 0.0
C332 C 0.72476 0.1664 0.58202 0.0
C333 C 0.70818 0.19387 0.52658 0.0
C334 C 0.75268 0.2519 0.54519 0.0
H335 H 0.71858 0.32722 0.37859 0.0
H336 H 0.7092 0.29087 0.41341 0.0
H337 H 0.76247 0.28886 0.54345 0.0
H338 H 0.77312 0.17657 0.6272 0.0
H339 H 0.78466 0.21317 0.5939 0.0
H340 H 0.73357 0.21617 0.46338 0.0
C341 C 0.73224 0.30233 0.42646 0.0
C342 C 0.75645 0.27307 0.52565 0.0
C343 C 0.73746 0.32322 0.40661 0.0
C344 C 0.75477 0.18116 0.59914 0.0
C345 C 0.76124 0.20218 0.58015 0.0
C346 C 0.73965 0.23193 0.48123 0.0
C347 C 0.75634 0.29639 0.46285 0.0
C348 C 0.75172 0.27394 0.48363 0.0
C349 C 0.73797 0.20874 0.5436 0.0
C350 C 0.74402 0.23109 0.5232 0.0
H351 H 0.81382 0.34405 0.47264 0.0
H352 H 0.80489 0.3078 0.50667 0.0
H353 H 0.74032 0.25301 0.42942 0.0
H354 H 0.67829 0.16218 0.53122 0.0
H355 H 0.68931 0.19851 0.49887 0.0
C356 C 0.73511 0.83809 0.04313 0.0
C357 C 0.7361 0.83885 0.08463 0.0
C358 C 0.7392 0.81695 0.0239 0.0
C359 C 0.72658 0.75348 0.03382 0.0
H360 H 0.78173 0.74994 0.94723 0.0
C361 C 0.75585 0.6661 0.9605 0.0
C362 C 0.7552 0.66555 0.91905 0.0
C363 C 0.75211 0.68718 0.98007 0.0
C364 C 0.76575 0.75072 0.97093 0.0
H365 H 0.74349 0.81794 0.13868 0.0
H366 H 0.75092 0.78075 0.10494 0.0
H367 H 0.78138 0.78644 0.98444 0.0
H368 H 0.74869 0.68681 0.86543 0.0
H369 H 0.74171 0.72384 0.89971 0.0
H370 H 0.71087 0.71778 0.02027 0.0
C371 C 0.74649 0.79665 0.08731 0.0
C372 C 0.7657 0.77162 0.99243 0.0
C373 C 0.74257 0.81796 0.10671 0.0
C374 C 0.74936 0.68661 0.89736 0.0
C375 C 0.74571 0.70784 0.91708 0.0
C376 C 0.72661 0.73258 0.01231 0.0
C377 C 0.74438 0.79589 0.04556 0.0
C378 C 0.74606 0.77328 0.0241 0.0
C379 C 0.74756 0.70839 0.9588 0.0
C380 C 0.74619 0.73093 0.98058 0.0
H381 H 0.73038 0.85386 0.02514 0.0
H382 H 0.73702 0.81703 0.99172 0.0
H383 H 0.7106 0.75427 0.05753 0.0
H384 H 0.76013 0.65021 0.97821 0.0
H385 H 0.75407 0.68692 0.01222 0.0
C386 C 0.2454 0.68798 0.60874 0.0
C387 C 0.22617 0.66947 0.5862 0.0
C388 C 0.25123 0.70927 0.59019 0.0
C389 C 0.25026 0.73488 0.48913 0.0
H390 H 0.24116 0.7941 0.54219 0.0
C391 C 0.24159 0.82356 0.40563 0.0
C392 C 0.26555 0.84126 0.42487 0.0
C393 C 0.23625 0.80291 0.42605 0.0
C394 C 0.24394 0.77767 0.52709 0.0
H395 H 0.19759 0.65907 0.52643 0.0
H396 H 0.2068 0.69585 0.49488 0.0
H397 H 0.23464 0.75743 0.57719 0.0
H398 H 0.30159 0.85148 0.48111 0.0
H399 H 0.29198 0.81568 0.51653 0.0
H400 H 0.25891 0.75515 0.43883 0.0
C401 C 0.21839 0.69395 0.52655 0.0
C402 C 0.24045 0.75665 0.54723 0.0
C403 C 0.21287 0.67278 0.54487 0.0
C404 C 0.28314 0.83813 0.46524 0.0
C405 C 0.27746 0.81768 0.48571 0.0
C406 C 0.25336 0.75586 0.46892 0.0
C407 C 0.23779 0.71247 0.54878 0.0
C408 C 0.24335 0.73496 0.52841 0.0
C409 C 0.25433 0.79972 0.46625 0.0
C410 C 0.25013 0.77748 0.4876 0.0
H411 H 0.25605 0.68601 0.64059 0.0
H412 H 0.2666 0.7231 0.6082 0.0
H413 H 0.25352 0.71856 0.47393 0.0
H414 H 0.22759 0.82545 0.37461 0.0
H415 H 0.21797 0.78943 0.4104 0.0
C416 C 0.86273 0.52453 0.92775 0.0
C417 C 0.86742 0.54621 0.90986 0.0
C418 C 0.89408 0.51225 0.94801 0.0
C419 C -0.00207 0.50855 0.96473 0.0
H420 H 0.98914 0.48942 0.07181 0.0
C421 C 0.12741 0.47973 0.07929 0.0
C422 C 0.12326 0.45811 0.09759 0.0
C423 C 0.09578 0.49164 0.05879 0.0
C424 C 0.99191 0.49456 0.04192 0.0
H425 H 0.90846 0.571 0.89591 0.0
H426 H 0.96302 0.5496 0.93127 0.0
H427 H 0.93427 0.50521 0.02627 0.0
H428 H 0.08281 0.43305 0.11203 0.0
H429 H 0.02773 0.45382 0.07622 0.0
H430 H 0.05558 0.49794 0.98039 0.0
C431 C 0.93527 0.54212 0.92987 0.0
C432 C 0.96049 0.50342 0.01577 0.0
C433 C 0.904 0.55443 0.90978 0.0
C434 C 0.08687 0.44959 0.09785 0.0
C435 C 0.0553 0.46153 0.07749 0.0
C436 C 0.02934 0.49969 0.99088 0.0
C437 C 0.93053 0.52137 0.9504 0.0
C438 C 0.96323 0.51052 0.97695 0.0
C439 C 0.05956 0.48219 0.05653 0.0
C440 C 0.02665 0.49268 0.02975 0.0
H441 H 0.83487 0.51772 0.92816 0.0
H442 H 0.88975 0.49604 0.96301 0.0
H443 H 0.00073 0.51373 0.93487 0.0
H444 H 0.1551 0.48677 0.07872 0.0
H445 H 0.09973 0.50781 0.04349 0.0
C446 C 0.0811 0.55671 0.58452 0.0
C447 C 0.11818 0.5489 0.58605 0.0
C448 C 0.05096 0.54576 0.55944 0.0
C449 C 0.02129 0.49269 0.50052 0.0
H450 H 0.95003 0.53496 0.436 0.0
C451 C 0.89987 0.45547 0.3863 0.0
C452 C 0.86457 0.46415 0.39011 0.0
C453 C 0.93255 0.46778 0.40266 0.0
C454 C 0.96966 0.52296 0.45383 0.0
H455 H 0.15248 0.52243 0.56469 0.0
H456 H 0.09961 0.50314 0.52102 0.0
H457 H 0.00324 0.55089 0.48403 0.0
H458 H 0.83483 0.49281 0.41145 0.0
H459 H 0.89201 0.51445 0.44058 0.0
H460 H 0.98741 0.46476 0.47118 0.0
C461 C 0.09397 0.51782 0.53915 0.0
C462 C -2e-05 0.53205 0.48145 0.0
C463 C 0.12422 0.5288 0.5643 0.0
C464 C 0.86191 0.48615 0.40755 0.0
C465 C 0.89467 0.49842 0.42432 0.0
C466 C 0.99095 0.48361 0.47302 0.0
C467 C 0.05725 0.52673 0.53545 0.0
C468 C 0.02579 0.51699 0.50542 0.0
C469 C 0.93035 0.48874 0.42378 0.0
C470 C 0.96458 0.49863 0.44964 0.0
H471 H 0.07552 0.57203 0.60126 0.0
H472 H 0.0228 0.5526 0.55795 0.0
H473 H 0.04059 0.4807 0.5188 0.0
H474 H 0.90232 0.43833 0.37327 0.0
H475 H 0.9596 0.46014 0.40103 0.0
C476 C 0.62752 0.97975 0.07373 0.0
C477 C 0.62322 0.95818 0.09214 0.0
C478 C 0.59594 0.99193 0.05372 0.0
C479 C 0.49229 0.9959 0.03941 0.0
H480 H 0.49895 0.01544 0.93193 0.0
C481 C 0.36138 0.02618 0.92792 0.0
C482 C 0.36557 0.04762 0.90904 0.0
C483 C 0.39304 0.01408 0.94793 0.0
C484 C 0.49676 0.0102 0.96195 0.0
H485 H 0.58256 0.93341 0.10698 0.0
H486 H 0.52758 0.95463 0.07205 0.0
H487 H 0.55427 0.9991 0.976 0.0
H488 H 0.40611 0.0722 0.89338 0.0
H489 H 0.46121 0.05114 0.9284 0.0
H490 H 0.4348 0.007 0.02539 0.0
C491 C 0.55524 0.96211 0.0729 0.0
C492 C 0.52845 1.001 0.98725 0.0
C493 C 0.58676 0.94991 0.09276 0.0
C494 C 0.40199 0.05581 0.90795 0.0
C495 C 0.43358 0.04369 0.92787 0.0
C496 C 0.46061 0.00511 0.01412 0.0
C497 C 0.55959 0.98281 0.05205 0.0
C498 C 0.52651 0.99376 0.02621 0.0
C499 C 0.42936 0.02315 0.94921 0.0
C500 C 0.46253 0.01232 0.97513 0.0
H501 H 0.65526 0.98662 0.07287 0.0
H502 H 0.6 0.00809 0.03847 0.0
H503 H 0.4901 0.99062 0.0694 0.0
H504 H 0.3337 0.01937 0.92916 0.0
H505 H 0.38905 0.99802 0.96351 0.0
C506 C 0.35883 0.98738 0.4211 0.0
C507 C 0.36045 0.96792 0.39642 0.0
C508 C 0.39206 0.99818 0.44067 0.0
C509 C 0.4891 0.98044 0.4812 0.0
H510 H 0.50325 0.04591 0.51056 0.0
C511 C 0.62847 0.02038 0.56891 0.0
C512 C 0.6255 0.03922 0.59449 0.0
C513 C 0.59594 0.00988 0.54693 0.0
C514 C 0.49943 0.0275 0.50309 0.0
H515 H 0.39707 0.94526 0.37042 0.0
H516 H 0.45521 0.96463 0.40335 0.0
H517 H 0.44788 0.03402 0.46146 0.0
H518 H 0.58715 0.06115 0.61936 0.0
H519 H 0.53021 0.0423 0.58218 0.0
H520 H 0.54061 0.97393 0.52294 0.0
C521 C 0.42851 0.97142 0.40814 0.0
C522 C 0.46786 0.02074 0.47473 0.0
C523 C 0.39529 0.96062 0.3887 0.0
C524 C 0.58992 0.04625 0.60038 0.0
C525 C 0.55743 0.03577 0.57854 0.0
C526 C 0.5207 0.98721 0.50954 0.0
C527 C 0.42732 0.98949 0.43597 0.0
C528 C 0.46227 0.99713 0.46356 0.0
C529 C 0.5601 0.0183 0.55011 0.0
C530 C 0.52606 0.01078 0.52101 0.0
H531 H 0.33222 0.99277 0.42828 0.0
H532 H 0.39017 0.01196 0.46208 0.0
H533 H 0.4852 0.96201 0.47393 0.0
H534 H 0.65572 0.01523 0.56314 0.0
H535 H 0.59892 0.99654 0.52514 0.0
C536 C 0.0983 0.36441 0.16129 0.0
C537 C 0.13249 0.37181 0.18529 0.0
C538 C 0.06675 0.36012 0.17836 0.0
C539 C 0.03724 0.35243 0.27695 0.0
H540 H 0.9418 0.37679 0.21953 0.0
C541 C 0.9149 0.37997 0.35297 0.0
C542 C 0.87804 0.37384 0.33402 0.0
C543 C 0.94536 0.37535 0.33452 0.0
C544 C 0.96813 0.36959 0.23569 0.0
H545 H 0.16047 0.37993 0.24626 0.0
H546 H 0.10576 0.37306 0.27554 0.0
H547 H -0.00388 0.37635 0.18716 0.0
H548 H 0.84443 0.35765 0.28108 0.0
H549 H 0.8977 0.34988 0.24871 0.0
H550 H 0.00943 0.34678 0.32617 0.0
C551 C 0.10323 0.37001 0.24374 0.0
C552 C -0.00071 0.36924 0.2171 0.0
C553 C 0.1347 0.37413 0.2268 0.0
C554 C 0.87247 0.3625 0.29661 0.0
C555 C 0.9029 0.35817 0.27792 0.0
C556 C 0.0062 0.35305 0.29567 0.0
C557 C 0.06866 0.36327 0.21974 0.0
C558 C 0.03447 0.36107 0.23775 0.0
C559 C 0.93958 0.36479 0.2965 0.0
C560 C 0.97151 0.36199 0.27547 0.0
H561 H 0.09564 0.36242 0.12923 0.0
H562 H 0.04074 0.35463 0.15902 0.0
H563 H 0.06361 0.34552 0.29349 0.0
H564 H 0.92017 0.38877 0.38174 0.0
H565 H 0.9733 0.38084 0.34937 0.0
C566 C 0.12758 0.63808 0.72448 0.0
C567 C 0.12277 0.63455 0.6829 0.0
C568 C 0.09654 0.6418 0.74236 0.0
C569 C 0.9943 0.656 0.7219 0.0
H570 H -0.00445 0.62011 0.8188 0.0
C571 C 0.86017 0.63396 0.78236 0.0
C572 C 0.86245 0.63288 0.82404 0.0
C573 C 0.89231 0.63811 0.76648 0.0
C574 C 0.99493 0.63061 0.7922 0.0
H575 H 0.08153 0.63304 0.62732 0.0
H576 H 0.02715 0.63923 0.65865 0.0
H577 H 0.05072 0.62018 0.78813 0.0
H578 H 0.90025 0.63626 0.88172 0.0
H579 H 0.9564 0.64372 0.85394 0.0
H580 H 0.938 0.66595 0.72564 0.0
C581 C 0.05506 0.63942 0.67737 0.0
C582 C 0.02663 0.63064 0.77454 0.0
C583 C 0.08624 0.63581 0.6594 0.0
C584 C 0.89746 0.63696 0.84949 0.0
C585 C 0.9297 0.64106 0.83356 0.0
C586 C 0.96251 0.65595 0.7396 0.0
C587 C 0.0598 0.64192 0.71921 0.0
C588 C 0.02663 0.64315 0.73896 0.0
C589 C 0.92762 0.64124 0.79185 0.0
C590 C 0.96232 0.64304 0.77475 0.0
H591 H 0.15535 0.63744 0.74349 0.0
H592 H 0.10131 0.64415 0.77453 0.0
H593 H 0.99352 0.66607 0.69482 0.0
H594 H 0.83369 0.63089 0.76181 0.0
H595 H 0.88971 0.63786 0.73425 0.0
C596 C 0.41549 0.88486 0.35918 0.0
C597 C 0.3791 0.87903 0.33855 0.0
C598 C 0.44666 0.88159 0.34124 0.0
C599 C 0.47816 0.85339 0.25413 0.0
H600 H 0.55474 0.9018 0.27521 0.0
C601 C 0.59654 0.86935 0.162 0.0
C602 C 0.63264 0.87391 0.18494 0.0
C603 C 0.56546 0.86699 0.18064 0.0
C604 C 0.53373 0.88804 0.26927 0.0
H605 H 0.34699 0.8648 0.28309 0.0
H606 H 0.40108 0.85978 0.25134 0.0
H607 H 0.5012 0.9035 0.30826 0.0
H608 H 0.66455 0.87824 0.24566 0.0
H609 H 0.61061 0.87427 0.27766 0.0
H610 H 0.51066 0.83851 0.21388 0.0
C611 C 0.40583 0.86632 0.28177 0.0
C612 C 0.50308 0.8889 0.28843 0.0
C613 C 0.37471 0.86928 0.29997 0.0
C614 C 0.63719 0.87492 0.22692 0.0
C615 C 0.60625 0.87274 0.24536 0.0
C616 C 0.50873 0.85271 0.2345 0.0
C617 C 0.44218 0.8728 0.30191 0.0
C618 C 0.47496 0.87152 0.28143 0.0
C619 C 0.56996 0.86934 0.22242 0.0
C620 C 0.53695 0.86994 0.24219 0.0
H621 H 0.41988 0.89229 0.38903 0.0
H622 H 0.47427 0.88625 0.35813 0.0
H623 H 0.45732 0.83956 0.24824 0.0
H624 H 0.59204 0.86852 0.12963 0.0
H625 H 0.53771 0.8644 0.16226 0.0
C626 C 0.61327 0.13934 0.69971 0.0
C627 C 0.60896 0.12751 0.66281 0.0
C628 C 0.58234 0.14295 0.71794 0.0
C629 C 0.47857 0.14482 0.69922 0.0
H630 H 0.49084 0.12599 0.8104 0.0
C631 C 0.35176 0.12686 0.77361 0.0
C632 C 0.35478 0.13121 0.81478 0.0
C633 C 0.38273 0.12986 0.75534 0.0
C634 C 0.48699 0.13181 0.77962 0.0
H635 H 0.5684 0.1108 0.61562 0.0
H636 H 0.51435 0.1174 0.64727 0.0
H637 H 0.54481 0.12511 0.77757 0.0
H638 H 0.3926 0.143 0.86871 0.0
H639 H 0.44651 0.14888 0.83654 0.0
H640 H 0.42083 0.15159 0.70112 0.0
C641 C 0.54173 0.12389 0.66202 0.0
C642 C 0.51797 0.13121 0.76075 0.0
C643 C 0.57273 0.12005 0.64396 0.0
C644 C 0.38929 0.13944 0.83696 0.0
C645 C 0.4203 0.14262 0.81855 0.0
C646 C 0.44766 0.14568 0.71819 0.0
C647 C 0.54632 0.13503 0.69952 0.0
C648 C 0.51397 0.13735 0.72018 0.0
C649 C 0.4176 0.13748 0.7776 0.0
C650 C 0.45127 0.13878 0.75847 0.0
H651 H 0.64076 0.14526 0.71517 0.0
H652 H 0.58667 0.15176 0.74667 0.0
H653 H 0.47477 0.14997 0.66807 0.0
H654 H 0.32573 0.12034 0.75557 0.0
H655 H 0.37958 0.12532 0.72397 0.0
C656 C 0.19736 0.44676 0.99118 0.0
C657 C 0.22966 0.442 0.02053 0.0
C658 C 0.1995 0.46152 0.959 0.0
C659 C 0.26302 0.48557 0.89833 0.0
H660 H 0.18962 0.53583 0.87591 0.0
C661 C 0.23091 0.53539 0.74914 0.0
C662 C 0.22947 0.56002 0.75032 0.0
C663 C 0.23397 0.52225 0.78407 0.0
C664 C 0.21049 0.52202 0.88212 0.0
H665 H 0.28982 0.4481 0.03804 0.0
H666 H 0.29367 0.47338 0.98097 0.0
H667 H 0.18868 0.50928 0.93221 0.0
H668 H 0.23001 0.59016 0.78917 0.0
H669 H 0.23432 0.56688 0.85071 0.0
H670 H 0.28415 0.4979 0.84757 0.0
C671 C 0.26668 0.46589 0.9833 0.0
C672 C 0.20973 0.50671 0.91399 0.0
C673 C 0.26447 0.45141 0.01589 0.0
C674 C 0.23112 0.57123 0.7874 0.0
C675 C 0.23347 0.55795 0.82247 0.0
C676 C 0.2634 0.50064 0.8661 0.0
C677 C 0.23405 0.47153 0.9551 0.0
C678 C 0.23575 0.4882 0.92215 0.0
C679 C 0.23511 0.53333 0.82103 0.0
C680 C 0.23693 0.51887 0.85747 0.0
H681 H 0.17005 0.43996 0.99396 0.0
H682 H 0.17401 0.46533 0.93735 0.0
H683 H 0.28335 0.47144 0.90394 0.0
H684 H 0.22996 0.52617 0.72114 0.0
H685 H 0.23476 0.50331 0.78204 0.0
C686 C 0.73455 0.45854 0.47929 0.0
C687 C 0.76016 0.43982 0.48169 0.0
C688 C 0.73204 0.47173 0.51318 0.0
C689 C 0.79111 0.48941 0.60854 0.0
H690 H 0.69848 0.51569 0.63054 0.0
C691 C 0.78614 0.53969 0.75341 0.0
C692 C 0.76208 0.55914 0.75213 0.0
C693 C 0.78564 0.52589 0.71956 0.0
C694 C 0.72462 0.50877 0.62441 0.0
H695 H 0.80157 0.41933 0.52206 0.0
H696 H 0.79701 0.44236 0.58164 0.0
H697 H 0.69588 0.48788 0.57543 0.0
H698 H 0.71941 0.57981 0.71376 0.0
H699 H 0.7187 0.55562 0.65391 0.0
H700 H 0.81993 0.51035 0.65717 0.0
C701 C 0.77921 0.44697 0.55327 0.0
C702 C 0.72312 0.49272 0.59302 0.0
C703 C 0.78152 0.43361 0.51928 0.0
C704 C 0.73831 0.56497 0.71564 0.0
C705 C 0.73767 0.55099 0.68155 0.0
C706 C 0.79261 0.50547 0.63978 0.0
C707 C 0.75523 0.4666 0.55032 0.0
C708 C 0.75636 0.48277 0.58483 0.0
C709 C 0.76108 0.53112 0.68333 0.0
C710 C 0.7594 0.51526 0.64829 0.0
H711 H 0.71756 0.46368 0.45074 0.0
H712 H 0.7134 0.48675 0.50976 0.0
H713 H 0.8173 0.48254 0.60244 0.0
H714 H 0.805 0.53475 0.78098 0.0
H715 H 0.80373 0.51063 0.72224 0.0
C716 C 0.74746 0.43053 0.20946 0.0
C717 C 0.77255 0.43495 0.24563 0.0
C718 C 0.74709 0.4452 0.17639 0.0
C719 C 0.77275 0.50597 0.1543 0.0
H720 H 0.75208 0.48477 0.044 0.0
C721 C 0.78673 0.56517 0.01984 0.0
C722 C 0.75955 0.56257 0.98437 0.0
C723 C 0.78672 0.55028 0.05245 0.0
C724 C 0.75745 0.49097 0.07467 0.0
H725 H 0.8176 0.45729 0.27585 0.0
H726 H 0.81814 0.48233 0.21793 0.0
H727 H 0.75781 0.45612 0.09805 0.0
H728 H 0.70972 0.54304 0.9564 0.0
H729 H 0.70976 0.51721 0.01331 0.0
H730 H 0.77282 0.54079 0.13087 0.0
C731 C 0.7982 0.46797 0.21495 0.0
C732 C 0.76078 0.47455 0.10565 0.0
C733 C 0.79833 0.45346 0.24793 0.0
C734 C 0.73118 0.54554 0.98314 0.0
C735 C 0.73138 0.53055 0.01561 0.0
C736 C 0.76965 0.52235 0.12336 0.0
C737 C 0.77176 0.46452 0.17914 0.0
C738 C 0.76859 0.48183 0.14589 0.0
C739 C 0.75966 0.53239 0.05025 0.0
C740 C 0.76197 0.51505 0.08319 0.0
H741 H 0.7268 0.41662 0.20748 0.0
H742 H 0.72615 0.44211 0.14943 0.0
H743 H 0.77788 0.51231 0.18488 0.0
H744 H 0.80899 0.57808 0.02188 0.0
H745 H 0.80895 0.55211 0.07872 0.0
C746 C 0.26002 0.44267 0.28787 0.0
C747 C 0.23116 0.44495 0.25387 0.0
C748 C 0.26065 0.45726 0.3212 0.0
C749 C 0.22289 0.51468 0.3465 0.0
H750 H 0.25529 0.49439 0.45643 0.0
C751 C 0.19814 0.56849 0.48314 0.0
C752 C 0.22695 0.56854 0.51755 0.0
C753 C 0.20119 0.55453 0.45012 0.0
C754 C 0.2466 0.50038 0.42583 0.0
H755 H 0.179 0.46288 0.22904 0.0
H756 H 0.17932 0.48753 0.28723 0.0
H757 H 0.25474 0.46643 0.40197 0.0
H758 H 0.28261 0.55501 0.5431 0.0
H759 H 0.2878 0.53082 0.48553 0.0
H760 H 0.21408 0.54849 0.37039 0.0
C761 C 0.20229 0.47528 0.28791 0.0
C762 C 0.2463 0.48435 0.39463 0.0
C763 C 0.2019 0.46099 0.25467 0.0
C764 C 0.25971 0.5553 0.51726 0.0
C765 C 0.26263 0.54126 0.48439 0.0
C766 C 0.22296 0.53063 0.37765 0.0
C767 C 0.23223 0.47418 0.32111 0.0
C768 C 0.23405 0.49124 0.35457 0.0
C769 C 0.23303 0.54028 0.45087 0.0
C770 C 0.23457 0.52363 0.41766 0.0
H771 H 0.28302 0.43053 0.28788 0.0
H772 H 0.28417 0.45596 0.34628 0.0
H773 H 0.21417 0.52079 0.31598 0.0
H774 H 0.1725 0.57841 0.48234 0.0
H775 H 0.17784 0.55409 0.42474 0.0
C776 C 0.70096 0.9367 0.97987 0.0
C777 C 0.72803 0.94053 0.01506 0.0
C778 C 0.69967 0.95116 0.94645 0.0
C779 C 0.7214 0.011 0.92159 0.0
H780 H 0.71214 0.98805 0.81301 0.0
C781 C 0.73091 0.072 0.78775 0.0
C782 C 0.71087 0.06546 0.74983 0.0
C783 C 0.73093 0.05738 0.8208 0.0
C784 C 0.71395 0.99484 0.84302 0.0
H785 H 0.77627 0.96187 0.04176 0.0
H786 H 0.77363 0.98708 0.98365 0.0
H787 H 0.71763 0.96026 0.86809 0.0
H788 H 0.67372 0.03956 0.71647 0.0
H789 H 0.67183 0.01474 0.77419 0.0
H790 H 0.71683 0.04554 0.89675 0.0
C791 C 0.7533 0.973 0.98212 0.0
C792 C 0.71738 0.97884 0.87458 0.0
C793 C 0.75495 0.95839 0.01527 0.0
C794 C 0.68926 0.04491 0.74564 0.0
C795 C 0.68869 0.03055 0.77863 0.0
C796 C 0.71742 0.02702 0.88999 0.0
C797 C 0.72513 0.96988 0.94776 0.0
C798 C 0.72137 0.98677 0.91417 0.0
C799 C 0.71058 0.03612 0.81641 0.0
C800 C 0.71374 0.01917 0.85024 0.0
H801 H 0.67983 0.92312 0.97867 0.0
H802 H 0.67769 0.94836 0.92025 0.0
H803 H 0.72391 0.01757 0.95187 0.0
H804 H 0.7483 0.08761 0.79134 0.0
H805 H 0.7484 0.0622 0.84926 0.0
C806 C 0.27444 0.03697 0.75747 0.0
C807 C 0.25245 0.05741 0.75573 0.0
C808 C 0.27362 0.02322 0.72358 0.0
C809 C 0.21525 0.00855 0.62588 0.0
H810 H 0.30811 0.98078 0.60728 0.0
C811 C 0.22916 0.96005 0.48044 0.0
C812 C 0.25413 0.94097 0.48317 0.0
C813 C 0.22558 0.97274 0.5145 0.0
C814 C 0.28184 0.98807 0.61242 0.0
H815 H 0.21288 0.07968 0.71656 0.0
H816 H 0.21163 0.05548 0.6566 0.0
H817 H 0.30997 0.00787 0.66284 0.0
H818 H 0.29298 0.91923 0.52417 0.0
H819 H 0.28646 0.94134 0.58404 0.0
H820 H 0.18721 0.9888 0.57508 0.0
C821 C 0.2292 0.05011 0.68467 0.0
C822 C 0.28292 0.00372 0.64413 0.0
C823 C 0.23013 0.06405 0.71884 0.0
C824 C 0.27354 0.93384 0.52111 0.0
C825 C 0.27009 0.94666 0.55529 0.0
C826 C 0.21417 0.99288 0.59403 0.0
C827 C 0.25087 0.02947 0.68682 0.0
C828 C 0.24965 0.01404 0.65141 0.0
C829 C 0.24697 0.96669 0.55213 0.0
C830 C 0.24746 0.98238 0.58707 0.0
H831 H 0.29216 0.03135 0.78531 0.0
H832 H 0.29026 0.00731 0.72648 0.0
H833 H 0.18908 0.01596 0.63104 0.0
H834 H 0.2136 0.96588 0.45161 0.0
H835 H 0.20765 0.98809 0.51095 0.0
C836 C 0.29944 0.93829 0.23086 0.0
C837 C 0.26585 0.93652 0.24536 0.0
C838 C 0.30076 0.95216 0.19718 0.0
C839 C 0.24296 0.97987 0.10868 0.0
H840 H 0.31598 0.03042 0.12703 0.0
C841 C 0.23265 0.05668 0.9979 0.0
C842 C 0.26643 0.06565 0.98965 0.0
C843 C 0.23318 0.04122 0.02986 0.0
C844 C 0.29576 0.01624 0.121 0.0
H845 H 0.207 0.94649 0.23524 0.0
H846 H 0.20893 0.96987 0.17574 0.0
H847 H 0.31735 1.00013 0.17775 0.0
H848 H 0.32726 0.06593 0.00926 0.0
H849 H 0.3283 0.03862 0.06394 0.0
H850 H 0.22163 0.9955 0.05178 0.0
C851 C 0.23428 0.96089 0.19043 0.0
C852 C 0.29664 0.99888 0.15012 0.0
C853 C 0.23318 0.94756 0.22445 0.0
C854 C 0.30063 0.05961 0.01507 0.0
C855 C 0.30122 0.04386 0.04656 0.0
C856 C 0.24242 0.997 0.07928 0.0
C857 C 0.26827 0.9639 0.17715 0.0
C858 C 0.26996 0.9807 0.14442 0.0
C859 C 0.26757 0.03401 0.05388 0.0
C860 C 0.26849 0.01563 0.08522 0.0
H861 H 0.32505 0.93013 0.24685 0.0
H862 H 0.32728 0.95418 0.18736 0.0
H863 H 0.22216 0.96597 0.10353 0.0
H864 H 0.20586 0.06107 0.97892 0.0
H865 H 0.20659 0.03456 0.03518 0.0
C866 C 0.71311 0.07413 0.47888 0.0
C867 C 0.73497 0.06818 0.51635 0.0
C868 C 0.71603 0.06104 0.4448 0.0
C869 C 0.77322 0.01609 0.40447 0.0
H870 H 0.67614 0.99623 0.3437 0.0
C871 C 0.75786 0.94229 0.28436 0.0
C872 C 0.73285 0.94737 0.24828 0.0
C873 C 0.75898 0.95668 0.31806 0.0
C874 C 0.70352 1.00174 0.36011 0.0
H875 H 0.77924 0.04532 0.54697 0.0
H876 H 0.78452 0.02273 0.48774 0.0
H877 H 0.67889 0.02459 0.39757 0.0
H878 H 0.68832 0.97083 0.21983 0.0
H879 H 0.69044 0.99565 0.27785 0.0
H880 H 0.79778 0.99314 0.36683 0.0
C881 C 0.76502 0.03732 0.48448 0.0
C882 C 0.70508 0.01813 0.39085 0.0
C883 C 0.76191 0.05024 0.51847 0.0
C884 C 0.70813 0.96648 0.24707 0.0
C885 C 0.70913 0.98067 0.28052 0.0
C886 C 0.77165 0.99971 0.37354 0.0
C887 C 0.74109 0.04195 0.44757 0.0
C888 C 0.73992 0.02557 0.41334 0.0
C889 C 0.73483 0.97619 0.3163 0.0
C890 C 0.73676 0.99242 0.35088 0.0
H891 H 0.692 0.08779 0.47635 0.0
H892 H 0.69765 0.06527 0.41658 0.0
H893 H 0.80051 0.02152 0.42119 0.0
H894 H 0.77728 0.92772 0.28617 0.0
H895 H 0.77885 0.95262 0.34539 0.0
loop_
_geom_bond_atom_site_label_1
_geom_bond_atom_site_label_2
_geom_bond_distance
_geom_bond_site_symmetry_2
_ccdc_geom_bond_type
Fe0 O2 1.918 . S
Fe0 O5 1.997 . S
Fe0 O6 2.002 . S
Fe0 O11 1.976 . S
Fe0 O14 1.996 . S
Fe1 O2 1.918 . S
Fe1 O9 1.997 . S
Fe1 O12 1.996 . S
Fe1 O16 1.976 . S
Fe1 O19 2.002 . S
O2 Fe0 1.918 . S
O2 Fe1 1.918 . S
O2 Fe3 1.918 . S
Fe3 O2 1.918 . S
Fe3 O4 2.002 . S
Fe3 O13 1.976 . S
Fe3 O17 1.996 . S
Fe3 O20 1.997 . S
O4 Fe3 2.002 . S
O4 C21 1.295 . S
O5 Fe0 1.997 . S
O5 C21 1.235 . S
O6 Fe0 2.002 . S
O6 C7 1.295 . S
C7 O6 1.295 . S
C7 O9 1.235 . S
C8 O13 1.287 . S
C8 O14 1.255 . S
O9 Fe1 1.997 . S
O9 C7 1.235 . S
C10 O16 1.287 . S
C10 O17 1.255 . S
O11 Fe0 1.976 . S
O11 C18 1.287 . S
O12 Fe1 1.996 . S
O12 C18 1.255 . S
O13 Fe3 1.976 . S
O13 C8 1.287 . S
O14 Fe0 1.996 . S
O14 C8 1.255 . S
C15 O19 1.295 . S
C15 O20 1.235 . S
O16 Fe1 1.976 . S
O16 C10 1.287 . S
O17 Fe3 1.996 . S
O17 C10 1.255 . S
C18 O11 1.287 . S
C18 O12 1.255 . S
O19 Fe1 2.002 . S
O19 C15 1.295 . S
O20 Fe3 1.997 . S
O20 C15 1.235 . S
C21 O4 1.295 . S
C21 O5 1.235 . S
Fe22 O24 1.918 . S
Fe22 O27 1.997 . S
Fe22 O28 2.002 . S
Fe22 O33 1.976 . S
Fe22 O36 1.996 . S
Fe23 O24 1.918 . S
Fe23 O31 1.997 . S
Fe23 O34 1.996 . S
Fe23 O38 1.976 . S
Fe23 O41 2.002 . S
O24 Fe22 1.918 . S
O24 Fe23 1.918 . S
O24 Fe25 1.918 . S
Fe25 O24 1.918 . S
Fe25 O26 2.002 . S
Fe25 O35 1.976 . S
Fe25 O39 1.996 . S
Fe25 O42 1.997 . S
O26 Fe25 2.002 . S
O26 C43 1.295 . S
O27 Fe22 1.997 . S
O27 C43 1.235 . S
O28 Fe22 2.002 . S
O28 C29 1.295 . S
C29 O28 1.295 . S
C29 O31 1.235 . S
C30 O35 1.287 . S
C30 O36 1.255 . S
O31 Fe23 1.997 . S
O31 C29 1.235 . S
C32 O38 1.287 . S
C32 O39 1.255 . S
O33 Fe22 1.976 . S
O33 C40 1.287 . S
O34 Fe23 1.996 . S
O34 C40 1.255 . S
O35 Fe25 1.976 . S
O35 C30 1.287 . S
O36 Fe22 1.996 . S
O36 C30 1.255 . S
C37 O41 1.295 . S
C37 O42 1.235 . S
O38 Fe23 1.976 . S
O38 C32 1.287 . S
O39 Fe25 1.996 . S
O39 C32 1.255 . S
C40 O33 1.287 . S
C40 O34 1.255 . S
O41 Fe23 2.002 . S
O41 C37 1.295 . S
O42 Fe25 1.997 . S
O42 C37 1.235 . S
C43 O26 1.295 . S
C43 O27 1.235 . S
Fe44 O46 1.918 . S
Fe44 O49 1.997 . S
Fe44 O50 2.002 . S
Fe44 O55 1.976 . S
Fe44 O58 1.996 . S
Fe45 O46 1.918 . S
Fe45 O53 1.997 . S
Fe45 O56 1.996 . S
Fe45 O60 1.976 . S
Fe45 O63 2.002 . S
O46 Fe44 1.918 . S
O46 Fe45 1.918 . S
O46 Fe47 1.918 . S
Fe47 O46 1.918 . S
Fe47 O48 2.002 . S
Fe47 O57 1.976 . S
Fe47 O61 1.996 . S
Fe47 O64 1.997 . S
O48 Fe47 2.002 . S
O48 C65 1.295 . S
O49 Fe44 1.997 . S
O49 C65 1.235 . S
O50 Fe44 2.002 . S
O50 C51 1.295 . S
C51 O50 1.295 . S
C51 O53 1.235 . S
C52 O57 1.287 . S
C52 O58 1.255 . S
O53 Fe45 1.997 . S
O53 C51 1.235 . S
C54 O60 1.287 . S
C54 O61 1.255 . S
O55 Fe44 1.976 . S
O55 C62 1.287 . S
O56 Fe45 1.996 . S
O56 C62 1.255 . S
O57 Fe47 1.976 . S
O57 C52 1.287 . S
O58 Fe44 1.996 . S
O58 C52 1.255 . S
C59 O63 1.295 . S
C59 O64 1.235 . S
O60 Fe45 1.976 . S
O60 C54 1.287 . S
O61 Fe47 1.996 . S
O61 C54 1.255 . S
C62 O55 1.287 . S
C62 O56 1.255 . S
O63 Fe45 2.002 . S
O63 C59 1.295 . S
O64 Fe47 1.997 . S
O64 C59 1.235 . S
C65 O48 1.295 . S
C65 O49 1.235 . S
Fe66 O68 1.918 . S
Fe66 O71 1.997 . S
Fe66 O72 2.002 . S
Fe66 O77 1.976 . S
Fe66 O80 1.996 . S
Fe67 O68 1.918 . S
Fe67 O75 1.997 . S
Fe67 O78 1.996 . S
Fe67 O82 1.976 . S
Fe67 O85 2.002 . S
O68 Fe66 1.918 . S
O68 Fe67 1.918 . S
O68 Fe69 1.918 . S
Fe69 O68 1.918 . S
Fe69 O70 2.002 . S
Fe69 O79 1.976 . S
Fe69 O83 1.996 . S
Fe69 O86 1.997 . S
O70 Fe69 2.002 . S
O70 C87 1.295 . S
O71 Fe66 1.997 . S
O71 C87 1.235 . S
O72 Fe66 2.002 . S
O72 C73 1.295 . S
C73 O72 1.295 . S
C73 O75 1.235 . S
C74 O79 1.287 . S
C74 O80 1.255 . S
O75 Fe67 1.997 . S
O75 C73 1.235 . S
C76 O82 1.287 . S
C76 O83 1.255 . S
O77 Fe66 1.976 . S
O77 C84 1.287 . S
O78 Fe67 1.996 . S
O78 C84 1.255 . S
O79 Fe69 1.976 . S
O79 C74 1.287 . S
O80 Fe66 1.996 . S
O80 C74 1.255 . S
C81 O85 1.295 . S
C81 O86 1.235 . S
O82 Fe67 1.976 . S
O82 C76 1.287 . S
O83 Fe69 1.996 . S
O83 C76 1.255 . S
C84 O77 1.287 . S
C84 O78 1.255 . S
O85 Fe67 2.002 . S
O85 C81 1.295 . S
O86 Fe69 1.997 . S
O86 C81 1.235 . S
C87 O70 1.295 . S
C87 O71 1.235 . S
Fe88 O90 1.918 . S
Fe88 O93 1.997 . S
Fe88 O94 2.002 . S
Fe88 O99 1.976 . S
Fe88 O102 1.996 . S
Fe89 O90 1.918 . S
Fe89 O97 1.997 . S
Fe89 O100 1.996 . S
Fe89 O104 1.976 . S
Fe89 O107 2.002 . S
O90 Fe88 1.918 . S
O90 Fe89 1.918 . S
O90 Fe91 1.918 . S
Fe91 O90 1.918 . S
Fe91 O92 2.002 . S
Fe91 O101 1.976 . S
Fe91 O105 1.996 . S
Fe91 O108 1.997 . S
O92 Fe91 2.002 . S
O92 C109 1.295 . S
O93 Fe88 1.997 . S
O93 C109 1.235 . S
O94 Fe88 2.002 . S
O94 C95 1.295 . S
C95 O94 1.295 . S
C95 O97 1.235 . S
C96 O101 1.287 . S
C96 O102 1.255 . S
O97 Fe89 1.997 . S
O97 C95 1.235 . S
C98 O104 1.287 . S
C98 O105 1.255 . S
O99 Fe88 1.976 . S
O99 C106 1.287 . S
O100 Fe89 1.996 . S
O100 C106 1.255 . S
O101 Fe91 1.976 . S
O101 C96 1.287 . S
O102 Fe88 1.996 . S
O102 C96 1.255 . S
C103 O107 1.295 . S
C103 O108 1.235 . S
O104 Fe89 1.976 . S
O104 C98 1.287 . S
O105 Fe91 1.996 . S
O105 C98 1.255 . S
C106 O99 1.287 . S
C106 O100 1.255 . S
O107 Fe89 2.002 . S
O107 C103 1.295 . S
O108 Fe91 1.997 . S
O108 C103 1.235 . S
C109 O92 1.295 . S
C109 O93 1.235 . S
Fe110 O112 1.918 . S
Fe110 O115 1.997 . S
Fe110 O116 2.002 . S
Fe110 O121 1.976 . S
Fe110 O124 1.996 . S
Fe111 O112 1.918 . S
Fe111 O119 1.997 . S
Fe111 O122 1.996 . S
Fe111 O126 1.976 . S
Fe111 O129 2.002 . S
O112 Fe110 1.918 . S
O112 Fe111 1.918 . S
O112 Fe113 1.918 . S
Fe113 O112 1.918 . S
Fe113 O114 2.002 . S
Fe113 O123 1.976 . S
Fe113 O127 1.996 . S
Fe113 O130 1.997 . S
O114 Fe113 2.002 . S
O114 C131 1.295 . S
O115 Fe110 1.997 . S
O115 C131 1.235 . S
O116 Fe110 2.002 . S
O116 C117 1.295 . S
C117 O116 1.295 . S
C117 O119 1.235 . S
C118 O123 1.287 . S
C118 O124 1.255 . S
O119 Fe111 1.997 . S
O119 C117 1.235 . S
C120 O126 1.287 . S
C120 O127 1.255 . S
O121 Fe110 1.976 . S
O121 C128 1.287 . S
O122 Fe111 1.996 . S
O122 C128 1.255 . S
O123 Fe113 1.976 . S
O123 C118 1.287 . S
O124 Fe110 1.996 . S
O124 C118 1.255 . S
C125 O129 1.295 . S
C125 O130 1.235 . S
O126 Fe111 1.976 . S
O126 C120 1.287 . S
O127 Fe113 1.996 . S
O127 C120 1.255 . S
C128 O121 1.287 . S
C128 O122 1.255 . S
O129 Fe111 2.002 . S
O129 C125 1.295 . S
O130 Fe113 1.997 . S
O130 C125 1.235 . S
C131 O114 1.295 . S
C131 O115 1.235 . S
Fe132 O134 1.918 . S
Fe132 O137 1.997 . S
Fe132 O138 2.002 . S
Fe132 O143 1.976 . S
Fe132 O146 1.996 . S
Fe133 O134 1.918 . S
Fe133 O141 1.997 . S
Fe133 O144 1.996 . S
Fe133 O148 1.976 . S
Fe133 O151 2.002 . S
O134 Fe132 1.918 . S
O134 Fe133 1.918 . S
O134 Fe135 1.918 . S
Fe135 O134 1.918 . S
Fe135 O136 2.002 . S
Fe135 O145 1.976 . S
Fe135 O149 1.996 . S
Fe135 O152 1.997 . S
O136 Fe135 2.002 . S
O136 C153 1.295 . S
O137 Fe132 1.997 . S
O137 C153 1.235 . S
O138 Fe132 2.002 . S
O138 C139 1.295 . S
C139 O138 1.295 . S
C139 O141 1.235 . S
C140 O145 1.287 . S
C140 O146 1.255 . S
O141 Fe133 1.997 . S
O141 C139 1.235 . S
C142 O148 1.287 . S
C142 O149 1.255 . S
O143 Fe132 1.976 . S
O143 C150 1.287 . S
O144 Fe133 1.996 . S
O144 C150 1.255 . S
O145 Fe135 1.976 . S
O145 C140 1.287 . S
O146 Fe132 1.996 . S
O146 C140 1.255 . S
C147 O151 1.295 . S
C147 O152 1.235 . S
O148 Fe133 1.976 . S
O148 C142 1.287 . S
O149 Fe135 1.996 . S
O149 C142 1.255 . S
C150 O143 1.287 . S
C150 O144 1.255 . S
O151 Fe133 2.002 . S
O151 C147 1.295 . S
O152 Fe135 1.997 . S
O152 C147 1.235 . S
C153 O136 1.295 . S
C153 O137 1.235 . S
Fe154 O156 1.918 . S
Fe154 O159 1.997 . S
Fe154 O160 2.002 . S
Fe154 O165 1.976 . S
Fe154 O168 1.996 . S
Fe155 O156 1.918 . S
Fe155 O163 1.997 . S
Fe155 O166 1.996 . S
Fe155 O170 1.976 . S
Fe155 O173 2.002 . S
O156 Fe154 1.918 . S
O156 Fe155 1.918 . S
O156 Fe157 1.918 . S
Fe157 O156 1.918 . S
Fe157 O158 2.002 . S
Fe157 O167 1.976 . S
Fe157 O171 1.996 . S
Fe157 O174 1.997 . S
O158 Fe157 2.002 . S
O158 C175 1.295 . S
O159 Fe154 1.997 . S
O159 C175 1.235 . S
O160 Fe154 2.002 . S
O160 C161 1.295 . S
C161 O160 1.295 . S
C161 O163 1.235 . S
C162 O167 1.287 . S
C162 O168 1.255 . S
O163 Fe155 1.997 . S
O163 C161 1.235 . S
C164 O170 1.287 . S
C164 O171 1.255 . S
O165 Fe154 1.976 . S
O165 C172 1.287 . S
O166 Fe155 1.996 . S
O166 C172 1.255 . S
O167 Fe157 1.976 . S
O167 C162 1.287 . S
O168 Fe154 1.996 . S
O168 C162 1.255 . S
C169 O173 1.295 . S
C169 O174 1.235 . S
O170 Fe155 1.976 . S
O170 C164 1.287 . S
O171 Fe157 1.996 . S
O171 C164 1.255 . S
C172 O165 1.287 . S
C172 O166 1.255 . S
O173 Fe155 2.002 . S
O173 C169 1.295 . S
O174 Fe157 1.997 . S
O174 C169 1.235 . S
C175 O158 1.295 . S
C175 O159 1.235 . S
C176 C177 1.349 . S
C176 C178 1.327 . S
C176 H201 0.950 . S
C177 C176 1.349 . S
C177 C193 1.349 . S
C178 C176 1.327 . S
C178 C197 1.429 . S
C178 H202 0.950 . S
C179 C196 1.574 . S
C179 C198 1.368 . S
C179 H203 0.949 . S
H180 C184 0.949 . S
C181 C182 1.349 . S
C181 C183 1.327 . S
C181 H204 0.950 . S
C182 C181 1.349 . S
C182 C194 1.349 . S
C183 C181 1.327 . S
C183 C199 1.429 . S
C183 H205 0.950 . S
C184 H180 0.949 . S
C184 C192 1.574 . S
C184 C200 1.368 . S
H185 C193 0.950 . S
H186 C191 0.950 . S
H187 C192 0.949 . S
H188 C194 0.950 . S
H189 C195 0.950 . S
H190 C196 0.949 . S
C191 H186 0.950 . S
C191 C193 1.327 . S
C191 C197 1.429 . S
C192 C184 1.574 . S
C192 H187 0.949 . S
C192 C198 1.368 . S
C193 C177 1.349 . S
C193 H185 0.950 . S
C193 C191 1.327 . S
C194 C182 1.349 . S
C194 H188 0.950 . S
C194 C195 1.327 . S
C195 H189 0.950 . S
C195 C194 1.327 . S
C195 C199 1.429 . S
C196 C179 1.574 . S
C196 H190 0.949 . S
C196 C200 1.368 . S
C197 C178 1.429 . S
C197 C191 1.429 . S
C197 C198 1.523 . S
C198 C179 1.368 . S
C198 C192 1.368 . S
C198 C197 1.523 . S
C199 C183 1.429 . S
C199 C195 1.429 . S
C199 C200 1.523 . S
C200 C184 1.368 . S
C200 C196 1.368 . S
C200 C199 1.523 . S
H201 C176 0.950 . S
H202 C178 0.950 . S
H203 C179 0.949 . S
H204 C181 0.950 . S
H205 C183 0.950 . S
C206 C207 1.349 . S
C206 C208 1.327 . S
C206 H231 0.950 . S
C207 C206 1.349 . S
C207 C223 1.349 . S
C208 C206 1.327 . S
C208 C227 1.429 . S
C208 H232 0.950 . S
C209 C226 1.574 . S
C209 C228 1.368 . S
C209 H233 0.949 . S
H210 C214 0.949 . S
C211 C212 1.349 . S
C211 C213 1.327 . S
C211 H234 0.950 . S
C212 C211 1.349 . S
C212 C224 1.349 . S
C213 C211 1.327 . S
C213 C229 1.429 . S
C213 H235 0.950 . S
C214 H210 0.949 . S
C214 C222 1.574 . S
C214 C230 1.368 . S
H215 C223 0.950 . S
H216 C221 0.950 . S
H217 C222 0.949 . S
H218 C224 0.950 . S
H219 C225 0.950 . S
H220 C226 0.949 . S
C221 H216 0.950 . S
C221 C223 1.327 . S
C221 C227 1.429 . S
C222 C214 1.574 . S
C222 H217 0.949 . S
C222 C228 1.368 . S
C223 C207 1.349 . S
C223 H215 0.950 . S
C223 C221 1.327 . S
C224 C212 1.349 . S
C224 H218 0.950 . S
C224 C225 1.327 . S
C225 H219 0.950 . S
C225 C224 1.327 . S
C225 C229 1.429 . S
C226 C209 1.574 . S
C226 H220 0.949 . S
C226 C230 1.368 . S
C227 C208 1.429 . S
C227 C221 1.429 . S
C227 C228 1.523 . S
C228 C209 1.368 . S
C228 C222 1.368 . S
C228 C227 1.523 . S
C229 C213 1.429 . S
C229 C225 1.429 . S
C229 C230 1.523 . S
C230 C214 1.368 . S
C230 C226 1.368 . S
C230 C229 1.523 . S
H231 C206 0.950 . S
H232 C208 0.950 . S
H233 C209 0.949 . S
H234 C211 0.950 . S
H235 C213 0.950 . S
C236 C237 1.349 . S
C236 C238 1.327 . S
C236 H261 0.950 . S
C237 C236 1.349 . S
C237 C253 1.349 . S
C238 C236 1.327 . S
C238 C257 1.429 . S
C238 H262 0.950 . S
C239 C256 1.574 1_455 S
C239 C258 1.368 . S
C239 H263 0.949 . S
H240 C244 0.949 . S
C241 C242 1.349 . S
C241 C243 1.327 . S
C241 H264 0.950 . S
C242 C241 1.349 . S
C242 C254 1.349 . S
C243 C241 1.327 . S
C243 C259 1.429 . S
C243 H265 0.950 . S
C244 H240 0.949 . S
C244 C252 1.574 1_655 S
C244 C260 1.368 . S
H245 C253 0.950 . S
H246 C251 0.950 . S
H247 C252 0.949 . S
H248 C254 0.950 . S
H249 C255 0.950 . S
H250 C256 0.949 . S
C251 H246 0.950 . S
C251 C253 1.327 . S
C251 C257 1.429 . S
C252 C244 1.574 1_455 S
C252 H247 0.949 . S
C252 C258 1.368 . S
C253 C237 1.349 . S
C253 H245 0.950 . S
C253 C251 1.327 . S
C254 C242 1.349 . S
C254 H248 0.950 . S
C254 C255 1.327 . S
C255 H249 0.950 . S
C255 C254 1.327 . S
C255 C259 1.429 . S
C256 C239 1.574 1_655 S
C256 H250 0.949 . S
C256 C260 1.368 . S
C257 C238 1.429 . S
C257 C251 1.429 . S
C257 C258 1.523 . S
C258 C239 1.368 . S
C258 C252 1.368 . S
C258 C257 1.523 . S
C259 C243 1.429 . S
C259 C255 1.429 . S
C259 C260 1.523 . S
C260 C244 1.368 . S
C260 C256 1.368 . S
C260 C259 1.523 . S
H261 C236 0.950 . S
H262 C238 0.950 . S
H263 C239 0.949 . S
H264 C241 0.950 . S
H265 C243 0.950 . S
C266 C267 1.349 . S
C266 C268 1.327 . S
C266 H291 0.950 . S
C267 C266 1.349 . S
C267 C283 1.349 . S
C268 C266 1.327 . S
C268 C287 1.429 . S
C268 H292 0.950 . S
C269 C286 1.574 1_455 S
C269 C288 1.368 . S
C269 H293 0.949 . S
H270 C274 0.949 . S
C271 C272 1.349 . S
C271 C273 1.327 . S
C271 H294 0.950 . S
C272 C271 1.349 . S
C272 C284 1.349 . S
C273 C271 1.327 . S
C273 C289 1.429 . S
C273 H295 0.950 . S
C274 H270 0.949 . S
C274 C282 1.574 1_655 S
C274 C290 1.368 . S
H275 C283 0.950 . S
H276 C281 0.950 . S
H277 C282 0.949 . S
H278 C284 0.950 . S
H279 C285 0.950 . S
H280 C286 0.949 . S
C281 H276 0.950 . S
C281 C283 1.327 . S
C281 C287 1.429 . S
C282 C274 1.574 1_455 S
C282 H277 0.949 . S
C282 C288 1.368 . S
C283 C267 1.349 . S
C283 H275 0.950 . S
C283 C281 1.327 . S
C284 C272 1.349 . S
C284 H278 0.950 . S
C284 C285 1.327 . S
C285 H279 0.950 . S
C285 C284 1.327 . S
C285 C289 1.429 . S
C286 C269 1.574 1_655 S
C286 H280 0.949 . S
C286 C290 1.368 . S
C287 C268 1.429 . S
C287 C281 1.429 . S
C287 C288 1.523 . S
C288 C269 1.368 . S
C288 C282 1.368 . S
C288 C287 1.523 . S
C289 C273 1.429 . S
C289 C285 1.429 . S
C289 C290 1.523 . S
C290 C274 1.368 . S
C290 C286 1.368 . S
C290 C289 1.523 . S
H291 C266 0.950 . S
H292 C268 0.950 . S
H293 C269 0.949 . S
H294 C271 0.950 . S
H295 C273 0.950 . S
C296 C297 1.349 . S
C296 C298 1.327 . S
C296 H321 0.950 . S
C297 C296 1.349 . S
C297 C313 1.349 . S
C298 C296 1.327 . S
C298 C317 1.429 . S
C298 H322 0.950 . S
C299 C316 1.574 . S
C299 C318 1.368 . S
C299 H323 0.949 . S
H300 C304 0.949 . S
C301 C302 1.349 . S
C301 C303 1.327 . S
C301 H324 0.950 . S
C302 C301 1.349 . S
C302 C314 1.349 . S
C303 C301 1.327 . S
C303 C319 1.429 . S
C303 H325 0.950 . S
C304 H300 0.949 . S
C304 C312 1.574 . S
C304 C320 1.368 . S
H305 C313 0.950 . S
H306 C311 0.950 . S
H307 C312 0.949 . S
H308 C314 0.950 . S
H309 C315 0.950 . S
H310 C316 0.949 . S
C311 H306 0.950 . S
C311 C313 1.327 . S
C311 C317 1.429 . S
C312 C304 1.574 . S
C312 H307 0.949 . S
C312 C318 1.368 1_556 S
C313 C297 1.349 . S
C313 H305 0.950 . S
C313 C311 1.327 . S
C314 C302 1.349 . S
C314 H308 0.950 . S
C314 C315 1.327 . S
C315 H309 0.950 . S
C315 C314 1.327 . S
C315 C319 1.429 . S
C316 C299 1.574 . S
C316 H310 0.949 . S
C316 C320 1.368 1_554 S
C317 C298 1.429 . S
C317 C311 1.429 . S
C317 C318 1.523 . S
C318 C299 1.368 . S
C318 C312 1.368 1_554 S
C318 C317 1.523 . S
C319 C303 1.429 . S
C319 C315 1.429 . S
C319 C320 1.523 . S
C320 C304 1.368 . S
C320 C316 1.368 1_556 S
C320 C319 1.523 . S
H321 C296 0.950 . S
H322 C298 0.950 . S
H323 C299 0.949 . S
H324 C301 0.950 . S
H325 C303 0.950 . S
C326 C327 1.349 . S
C326 C328 1.327 . S
C326 H351 0.950 . S
C327 C326 1.349 . S
C327 C343 1.349 . S
C328 C326 1.327 . S
C328 C347 1.429 . S
C328 H352 0.950 . S
C329 C346 1.574 . S
C329 C348 1.368 . S
C329 H353 0.949 . S
H330 C334 0.949 . S
C331 C332 1.349 . S
C331 C333 1.327 . S
C331 H354 0.950 . S
C332 C331 1.349 . S
C332 C344 1.349 . S
C333 C331 1.327 . S
C333 C349 1.429 . S
C333 H355 0.950 . S
C334 H330 0.949 . S
C334 C342 1.574 . S
C334 C350 1.368 . S
H335 C343 0.950 . S
H336 C341 0.950 . S
H337 C342 0.949 . S
H338 C344 0.950 . S
H339 C345 0.950 . S
H340 C346 0.949 . S
C341 H336 0.950 . S
C341 C343 1.327 . S
C341 C347 1.429 . S
C342 C334 1.574 . S
C342 H337 0.949 . S
C342 C348 1.368 . S
C343 C327 1.349 . S
C343 H335 0.950 . S
C343 C341 1.327 . S
C344 C332 1.349 . S
C344 H338 0.950 . S
C344 C345 1.327 . S
C345 H339 0.950 . S
C345 C344 1.327 . S
C345 C349 1.429 . S
C346 C329 1.574 . S
C346 H340 0.949 . S
C346 C350 1.368 . S
C347 C328 1.429 . S
C347 C341 1.429 . S
C347 C348 1.523 . S
C348 C329 1.368 . S
C348 C342 1.368 . S
C348 C347 1.523 . S
C349 C333 1.429 . S
C349 C345 1.429 . S
C349 C350 1.523 . S
C350 C334 1.368 . S
C350 C346 1.368 . S
C350 C349 1.523 . S
H351 C326 0.950 . S
H352 C328 0.950 . S
H353 C329 0.949 . S
H354 C331 0.950 . S
H355 C333 0.950 . S
C356 C357 1.349 . S
C356 C358 1.327 . S
C356 H381 0.950 . S
C357 C356 1.349 . S
C357 C373 1.349 . S
C358 C356 1.327 . S
C358 C377 1.429 . S
C358 H382 0.950 . S
C359 C376 1.574 . S
C359 C378 1.368 . S
C359 H383 0.949 . S
H360 C364 0.949 . S
C361 C362 1.349 . S
C361 C363 1.327 . S
C361 H384 0.950 . S
C362 C361 1.349 . S
C362 C374 1.349 . S
C363 C361 1.327 . S
C363 C379 1.429 . S
C363 H385 0.950 . S
C364 H360 0.949 . S
C364 C372 1.574 . S
C364 C380 1.368 . S
H365 C373 0.950 . S
H366 C371 0.950 . S
H367 C372 0.949 . S
H368 C374 0.950 . S
H369 C375 0.950 . S
H370 C376 0.949 . S
C371 H366 0.950 . S
C371 C373 1.327 . S
C371 C377 1.429 . S
C372 C364 1.574 . S
C372 H367 0.949 . S
C372 C378 1.368 1_556 S
C373 C357 1.349 . S
C373 H365 0.950 . S
C373 C371 1.327 . S
C374 C362 1.349 . S
C374 H368 0.950 . S
C374 C375 1.327 . S
C375 H369 0.950 . S
C375 C374 1.327 . S
C375 C379 1.429 . S
C376 C359 1.574 . S
C376 H370 0.949 . S
C376 C380 1.368 1_554 S
C377 C358 1.429 . S
C377 C371 1.429 . S
C377 C378 1.523 . S
C378 C359 1.368 . S
C378 C372 1.368 1_554 S
C378 C377 1.523 . S
C379 C363 1.429 . S
C379 C375 1.429 . S
C379 C380 1.523 . S
C380 C364 1.368 . S
C380 C376 1.368 1_556 S
C380 C379 1.523 . S
H381 C356 0.950 . S
H382 C358 0.950 . S
H383 C359 0.949 . S
H384 C361 0.950 . S
H385 C363 0.950 . S
C386 C387 1.349 . S
C386 C388 1.327 . S
C386 H411 0.950 . S
C387 C386 1.349 . S
C387 C403 1.349 . S
C388 C386 1.327 . S
C388 C407 1.429 . S
C388 H412 0.950 . S
C389 C406 1.574 . S
C389 C408 1.368 . S
C389 H413 0.949 . S
H390 C394 0.949 . S
C391 C392 1.349 . S
C391 C393 1.327 . S
C391 H414 0.950 . S
C392 C391 1.349 . S
C392 C404 1.349 . S
C393 C391 1.327 . S
C393 C409 1.429 . S
C393 H415 0.950 . S
C394 H390 0.949 . S
C394 C402 1.574 . S
C394 C410 1.368 . S
H395 C403 0.950 . S
H396 C401 0.950 . S
H397 C402 0.949 . S
H398 C404 0.950 . S
H399 C405 0.950 . S
H400 C406 0.949 . S
C401 H396 0.950 . S
C401 C403 1.327 . S
C401 C407 1.429 . S
C402 C394 1.574 . S
C402 H397 0.949 . S
C402 C408 1.368 . S
C403 C387 1.349 . S
C403 H395 0.950 . S
C403 C401 1.327 . S
C404 C392 1.349 . S
C404 H398 0.950 . S
C404 C405 1.327 . S
C405 H399 0.950 . S
C405 C404 1.327 . S
C405 C409 1.429 . S
C406 C389 1.574 . S
C406 H400 0.949 . S
C406 C410 1.368 . S
C407 C388 1.429 . S
C407 C401 1.429 . S
C407 C408 1.523 . S
C408 C389 1.368 . S
C408 C402 1.368 . S
C408 C407 1.523 . S
C409 C393 1.429 . S
C409 C405 1.429 . S
C409 C410 1.523 . S
C410 C394 1.368 . S
C410 C406 1.368 . S
C410 C409 1.523 . S
H411 C386 0.950 . S
H412 C388 0.950 . S
H413 C389 0.949 . S
H414 C391 0.950 . S
H415 C393 0.950 . S
C416 C417 1.349 . S
C416 C418 1.327 . S
C416 H441 0.950 . S
C417 C416 1.349 . S
C417 C433 1.349 . S
C418 C416 1.327 . S
C418 C437 1.429 . S
C418 H442 0.950 1_556 S
C419 C436 1.574 1_655 S
C419 C438 1.368 . S
C419 H443 0.949 . S
H420 C424 0.949 . S
C421 C422 1.349 . S
C421 C423 1.327 . S
C421 H444 0.950 . S
C422 C421 1.349 . S
C422 C434 1.349 . S
C423 C421 1.327 . S
C423 C439 1.429 . S
C423 H445 0.950 1_554 S
C424 H420 0.949 . S
C424 C432 1.574 1_455 S
C424 C440 1.368 . S
H425 C433 0.950 . S
H426 C431 0.950 . S
H427 C432 0.949 . S
H428 C434 0.950 . S
H429 C435 0.950 . S
H430 C436 0.949 . S
C431 H426 0.950 . S
C431 C433 1.327 . S
C431 C437 1.429 . S
C432 C424 1.574 1_655 S
C432 H427 0.949 . S
C432 C438 1.368 1_554 S
C433 C417 1.349 . S
C433 H425 0.950 . S
C433 C431 1.327 . S
C434 C422 1.349 . S
C434 H428 0.950 . S
C434 C435 1.327 . S
C435 H429 0.950 . S
C435 C434 1.327 . S
C435 C439 1.429 . S
C436 C419 1.574 1_455 S
C436 H430 0.949 . S
C436 C440 1.368 1_556 S
C437 C418 1.429 . S
C437 C431 1.429 . S
C437 C438 1.523 . S
C438 C419 1.368 . S
C438 C432 1.368 1_556 S
C438 C437 1.523 . S
C439 C423 1.429 . S
C439 C435 1.429 . S
C439 C440 1.523 . S
C440 C424 1.368 . S
C440 C436 1.368 1_554 S
C440 C439 1.523 . S
H441 C416 0.950 . S
H442 C418 0.950 1_554 S
H443 C419 0.949 . S
H444 C421 0.950 . S
H445 C423 0.950 1_556 S
C446 C447 1.349 . S
C446 C448 1.327 . S
C446 H471 0.950 . S
C447 C446 1.349 . S
C447 C463 1.349 . S
C448 C446 1.327 . S
C448 C467 1.429 . S
C448 H472 0.950 . S
C449 C466 1.574 1_455 S
C449 C468 1.368 . S
C449 H473 0.949 . S
H450 C454 0.949 . S
C451 C452 1.349 . S
C451 C453 1.327 . S
C451 H474 0.950 . S
C452 C451 1.349 . S
C452 C464 1.349 . S
C453 C451 1.327 . S
C453 C469 1.429 . S
C453 H475 0.950 . S
C454 H450 0.949 . S
C454 C462 1.574 1_655 S
C454 C470 1.368 . S
H455 C463 0.950 . S
H456 C461 0.950 . S
H457 C462 0.949 . S
H458 C464 0.950 . S
H459 C465 0.950 . S
H460 C466 0.949 . S
C461 H456 0.950 . S
C461 C463 1.327 . S
C461 C467 1.429 . S
C462 C454 1.574 1_455 S
C462 H457 0.949 . S
C462 C468 1.368 . S
C463 C447 1.349 . S
C463 H455 0.950 . S
C463 C461 1.327 . S
C464 C452 1.349 . S
C464 H458 0.950 . S
C464 C465 1.327 . S
C465 H459 0.950 . S
C465 C464 1.327 . S
C465 C469 1.429 . S
C466 C449 1.574 1_655 S
C466 H460 0.949 . S
C466 C470 1.368 . S
C467 C448 1.429 . S
C467 C461 1.429 . S
C467 C468 1.523 . S
C468 C449 1.368 . S
C468 C462 1.368 . S
C468 C467 1.523 . S
C469 C453 1.429 . S
C469 C465 1.429 . S
C469 C470 1.523 . S
C470 C454 1.368 . S
C470 C466 1.368 . S
C470 C469 1.523 . S
H471 C446 0.950 . S
H472 C448 0.950 . S
H473 C449 0.949 . S
H474 C451 0.950 . S
H475 C453 0.950 . S
C476 C477 1.349 . S
C476 C478 1.327 . S
C476 H501 0.950 . S
C477 C476 1.349 . S
C477 C493 1.349 . S
C478 C476 1.327 . S
C478 C497 1.429 . S
C478 H502 0.950 1_565 S
C479 C496 1.574 . S
C479 C498 1.368 1_556 S
C479 H503 0.949 . S
H480 C484 0.949 . S
C481 C482 1.349 . S
C481 C483 1.327 . S
C481 H504 0.950 . S
C482 C481 1.349 . S
C482 C494 1.349 . S
C483 C481 1.327 . S
C483 C499 1.429 . S
C483 H505 0.950 1_545 S
C484 H480 0.949 . S
C484 C492 1.574 . S
C484 C500 1.368 1_554 S
H485 C493 0.950 . S
H486 C491 0.950 . S
H487 C492 0.949 . S
H488 C494 0.950 . S
H489 C495 0.950 . S
H490 C496 0.949 . S
C491 H486 0.950 . S
C491 C493 1.327 . S
C491 C497 1.429 . S
C492 C484 1.574 . S
C492 H487 0.949 . S
C492 C498 1.368 1_545 S
C493 C477 1.349 . S
C493 H485 0.950 . S
C493 C491 1.327 . S
C494 C482 1.349 . S
C494 H488 0.950 . S
C494 C495 1.327 . S
C495 H489 0.950 . S
C495 C494 1.327 . S
C495 C499 1.429 . S
C496 C479 1.574 . S
C496 H490 0.949 . S
C496 C500 1.368 1_565 S
C497 C478 1.429 . S
C497 C491 1.429 . S
C497 C498 1.523 . S
C498 C479 1.368 1_554 S
C498 C492 1.368 1_565 S
C498 C497 1.523 . S
C499 C483 1.429 . S
C499 C495 1.429 . S
C499 C500 1.523 . S
C500 C484 1.368 1_556 S
C500 C496 1.368 1_545 S
C500 C499 1.523 . S
H501 C476 0.950 . S
H502 C478 0.950 1_545 S
H503 C479 0.949 . S
H504 C481 0.950 . S
H505 C483 0.950 1_565 S
C506 C507 1.349 . S
C506 C508 1.327 . S
C506 H531 0.950 . S
C507 C506 1.349 . S
C507 C523 1.349 . S
C508 C506 1.327 . S
C508 C527 1.429 . S
C508 H532 0.950 1_565 S
C509 C526 1.574 . S
C509 C528 1.368 . S
C509 H533 0.949 . S
H510 C514 0.949 . S
C511 C512 1.349 . S
C511 C513 1.327 . S
C511 H534 0.950 . S
C512 C511 1.349 . S
C512 C524 1.349 . S
C513 C511 1.327 . S
C513 C529 1.429 . S
C513 H535 0.950 1_545 S
C514 H510 0.949 . S
C514 C522 1.574 . S
C514 C530 1.368 . S
H515 C523 0.950 . S
H516 C521 0.950 . S
H517 C522 0.949 . S
H518 C524 0.950 . S
H519 C525 0.950 . S
H520 C526 0.949 . S
C521 H516 0.950 . S
C521 C523 1.327 . S
C521 C527 1.429 . S
C522 C514 1.574 . S
C522 H517 0.949 . S
C522 C528 1.368 1_545 S
C523 C507 1.349 . S
C523 H515 0.950 . S
C523 C521 1.327 . S
C524 C512 1.349 . S
C524 H518 0.950 . S
C524 C525 1.327 . S
C525 H519 0.950 . S
C525 C524 1.327 . S
C525 C529 1.429 . S
C526 C509 1.574 . S
C526 H520 0.949 . S
C526 C530 1.368 1_565 S
C527 C508 1.429 . S
C527 C521 1.429 . S
C527 C528 1.523 . S
C528 C509 1.368 . S
C528 C522 1.368 1_565 S
C528 C527 1.523 . S
C529 C513 1.429 . S
C529 C525 1.429 . S
C529 C530 1.523 . S
C530 C514 1.368 . S
C530 C526 1.368 1_545 S
C530 C529 1.523 . S
H531 C506 0.950 . S
H532 C508 0.950 1_545 S
H533 C509 0.949 . S
H534 C511 0.950 . S
H535 C513 0.950 1_565 S
C536 C537 1.349 . S
C536 C538 1.327 . S
C536 H561 0.950 . S
C537 C536 1.349 . S
C537 C553 1.349 . S
C538 C536 1.327 . S
C538 C557 1.429 . S
C538 H562 0.950 . S
C539 C556 1.574 1_455 S
C539 C558 1.368 . S
C539 H563 0.949 . S
H540 C544 0.949 . S
C541 C542 1.349 . S
C541 C543 1.327 . S
C541 H564 0.950 . S
C542 C541 1.349 . S
C542 C554 1.349 . S
C543 C541 1.327 . S
C543 C559 1.429 . S
C543 H565 0.950 . S
C544 H540 0.949 . S
C544 C552 1.574 1_655 S
C544 C560 1.368 . S
H545 C553 0.950 . S
H546 C551 0.950 . S
H547 C552 0.949 . S
H548 C554 0.950 . S
H549 C555 0.950 . S
H550 C556 0.949 . S
C551 H546 0.950 . S
C551 C553 1.327 . S
C551 C557 1.429 . S
C552 C544 1.574 1_455 S
C552 H547 0.949 . S
C552 C558 1.368 . S
C553 C537 1.349 . S
C553 H545 0.950 . S
C553 C551 1.327 . S
C554 C542 1.349 . S
C554 H548 0.950 . S
C554 C555 1.327 . S
C555 H549 0.950 . S
C555 C554 1.327 . S
C555 C559 1.429 . S
C556 C539 1.574 1_655 S
C556 H550 0.949 . S
C556 C560 1.368 . S
C557 C538 1.429 . S
C557 C551 1.429 . S
C557 C558 1.523 . S
C558 C539 1.368 . S
C558 C552 1.368 . S
C558 C557 1.523 . S
C559 C543 1.429 . S
C559 C555 1.429 . S
C559 C560 1.523 . S
C560 C544 1.368 . S
C560 C556 1.368 . S
C560 C559 1.523 . S
H561 C536 0.950 . S
H562 C538 0.950 . S
H563 C539 0.949 . S
H564 C541 0.950 . S
H565 C543 0.950 . S
C566 C567 1.349 . S
C566 C568 1.327 . S
C566 H591 0.950 . S
C567 C566 1.349 . S
C567 C583 1.349 . S
C568 C566 1.327 . S
C568 C587 1.429 . S
C568 H592 0.950 . S
C569 C586 1.574 1_455 S
C569 C588 1.368 . S
C569 H593 0.949 . S
H570 C574 0.949 . S
C571 C572 1.349 . S
C571 C573 1.327 . S
C571 H594 0.950 . S
C572 C571 1.349 . S
C572 C584 1.349 . S
C573 C571 1.327 . S
C573 C589 1.429 . S
C573 H595 0.950 . S
C574 H570 0.949 . S
C574 C582 1.574 1_655 S
C574 C590 1.368 . S
H575 C583 0.950 . S
H576 C581 0.950 . S
H577 C582 0.949 . S
H578 C584 0.950 . S
H579 C585 0.950 . S
H580 C586 0.949 . S
C581 H576 0.950 . S
C581 C583 1.327 . S
C581 C587 1.429 . S
C582 C574 1.574 1_455 S
C582 H577 0.949 . S
C582 C588 1.368 . S
C583 C567 1.349 . S
C583 H575 0.950 . S
C583 C581 1.327 . S
C584 C572 1.349 . S
C584 H578 0.950 . S
C584 C585 1.327 . S
C585 H579 0.950 . S
C585 C584 1.327 . S
C585 C589 1.429 . S
C586 C569 1.574 1_655 S
C586 H580 0.949 . S
C586 C590 1.368 . S
C587 C568 1.429 . S
C587 C581 1.429 . S
C587 C588 1.523 . S
C588 C569 1.368 . S
C588 C582 1.368 . S
C588 C587 1.523 . S
C589 C573 1.429 . S
C589 C585 1.429 . S
C589 C590 1.523 . S
C590 C574 1.368 . S
C590 C586 1.368 . S
C590 C589 1.523 . S
H591 C566 0.950 . S
H592 C568 0.950 . S
H593 C569 0.949 . S
H594 C571 0.950 . S
H595 C573 0.950 . S
C596 C597 1.349 . S
C596 C598 1.327 . S
C596 H621 0.950 . S
C597 C596 1.349 . S
C597 C613 1.349 . S
C598 C596 1.327 . S
C598 C617 1.429 . S
C598 H622 0.950 . S
C599 C616 1.574 . S
C599 C618 1.368 . S
C599 H623 0.949 . S
H600 C604 0.949 . S
C601 C602 1.349 . S
C601 C603 1.327 . S
C601 H624 0.950 . S
C602 C601 1.349 . S
C602 C614 1.349 . S
C603 C601 1.327 . S
C603 C619 1.429 . S
C603 H625 0.950 . S
C604 H600 0.949 . S
C604 C612 1.574 . S
C604 C620 1.368 . S
H605 C613 0.950 . S
H606 C611 0.950 . S
H607 C612 0.949 . S
H608 C614 0.950 . S
H609 C615 0.950 . S
H610 C616 0.949 . S
C611 H606 0.950 . S
C611 C613 1.327 . S
C611 C617 1.429 . S
C612 C604 1.574 . S
C612 H607 0.949 . S
C612 C618 1.368 . S
C613 C597 1.349 . S
C613 H605 0.950 . S
C613 C611 1.327 . S
C614 C602 1.349 . S
C614 H608 0.950 . S
C614 C615 1.327 . S
C615 H609 0.950 . S
C615 C614 1.327 . S
C615 C619 1.429 . S
C616 C599 1.574 . S
C616 H610 0.949 . S
C616 C620 1.368 . S
C617 C598 1.429 . S
C617 C611 1.429 . S
C617 C618 1.523 . S
C618 C599 1.368 . S
C618 C612 1.368 . S
C618 C617 1.523 . S
C619 C603 1.429 . S
C619 C615 1.429 . S
C619 C620 1.523 . S
C620 C604 1.368 . S
C620 C616 1.368 . S
C620 C619 1.523 . S
H621 C596 0.950 . S
H622 C598 0.950 . S
H623 C599 0.949 . S
H624 C601 0.950 . S
H625 C603 0.950 . S
C626 C627 1.349 . S
C626 C628 1.327 . S
C626 H651 0.950 . S
C627 C626 1.349 . S
C627 C643 1.349 . S
C628 C626 1.327 . S
C628 C647 1.429 . S
C628 H652 0.950 . S
C629 C646 1.574 . S
C629 C648 1.368 . S
C629 H653 0.949 . S
H630 C634 0.949 . S
C631 C632 1.349 . S
C631 C633 1.327 . S
C631 H654 0.950 . S
C632 C631 1.349 . S
C632 C644 1.349 . S
C633 C631 1.327 . S
C633 C649 1.429 . S
C633 H655 0.950 . S
C634 H630 0.949 . S
C634 C642 1.574 . S
C634 C650 1.368 . S
H635 C643 0.950 . S
H636 C641 0.950 . S
H637 C642 0.949 . S
H638 C644 0.950 . S
H639 C645 0.950 . S
H640 C646 0.949 . S
C641 H636 0.950 . S
C641 C643 1.327 . S
C641 C647 1.429 . S
C642 C634 1.574 . S
C642 H637 0.949 . S
C642 C648 1.368 . S
C643 C627 1.349 . S
C643 H635 0.950 . S
C643 C641 1.327 . S
C644 C632 1.349 . S
C644 H638 0.950 . S
C644 C645 1.327 . S
C645 H639 0.950 . S
C645 C644 1.327 . S
C645 C649 1.429 . S
C646 C629 1.574 . S
C646 H640 0.949 . S
C646 C650 1.368 . S
C647 C628 1.429 . S
C647 C641 1.429 . S
C647 C648 1.523 . S
C648 C629 1.368 . S
C648 C642 1.368 . S
C648 C647 1.523 . S
C649 C633 1.429 . S
C649 C645 1.429 . S
C649 C650 1.523 . S
C650 C634 1.368 . S
C650 C646 1.368 . S
C650 C649 1.523 . S
H651 C626 0.950 . S
H652 C628 0.950 . S
H653 C629 0.949 . S
H654 C631 0.950 . S
H655 C633 0.950 . S
C656 C657 1.349 1_556 S
C656 C658 1.327 . S
C656 H681 0.950 1_556 S
C657 C656 1.349 1_554 S
C657 C673 1.349 1_554 S
C658 C656 1.327 . S
C658 C677 1.429 . S
C658 H682 0.950 . S
C659 C676 1.574 . S
C659 C678 1.368 . S
C659 H683 0.949 . S
H660 C664 0.949 . S
C661 C662 1.349 . S
C661 C663 1.327 . S
C661 H684 0.950 . S
C662 C661 1.349 . S
C662 C674 1.349 . S
C663 C661 1.327 . S
C663 C679 1.429 . S
C663 H685 0.950 . S
C664 H660 0.949 . S
C664 C672 1.574 . S
C664 C680 1.368 . S
H665 C673 0.950 . S
H666 C671 0.950 . S
H667 C672 0.949 . S
H668 C674 0.950 . S
H669 C675 0.950 . S
H670 C676 0.949 . S
C671 H666 0.950 . S
C671 C673 1.327 . S
C671 C677 1.429 . S
C672 C664 1.574 . S
C672 H667 0.949 . S
C672 C678 1.368 . S
C673 C657 1.349 1_556 S
C673 H665 0.950 . S
C673 C671 1.327 . S
C674 C662 1.349 . S
C674 H668 0.950 . S
C674 C675 1.327 . S
C675 H669 0.950 . S
C675 C674 1.327 . S
C675 C679 1.429 . S
C676 C659 1.574 . S
C676 H670 0.949 . S
C676 C680 1.368 . S
C677 C658 1.429 . S
C677 C671 1.429 . S
C677 C678 1.523 . S
C678 C659 1.368 . S
C678 C672 1.368 . S
C678 C677 1.523 . S
C679 C663 1.429 . S
C679 C675 1.429 . S
C679 C680 1.523 . S
C680 C664 1.368 . S
C680 C676 1.368 . S
C680 C679 1.523 . S
H681 C656 0.950 1_554 S
H682 C658 0.950 . S
H683 C659 0.949 . S
H684 C661 0.950 . S
H685 C663 0.950 . S
C686 C687 1.349 . S
C686 C688 1.327 . S
C686 H711 0.950 . S
C687 C686 1.349 . S
C687 C703 1.349 . S
C688 C686 1.327 . S
C688 C707 1.429 . S
C688 H712 0.950 . S
C689 C706 1.574 . S
C689 C708 1.368 . S
C689 H713 0.949 . S
H690 C694 0.949 . S
C691 C692 1.349 . S
C691 C693 1.327 . S
C691 H714 0.950 . S
C692 C691 1.349 . S
C692 C704 1.349 . S
C693 C691 1.327 . S
C693 C709 1.429 . S
C693 H715 0.950 . S
C694 H690 0.949 . S
C694 C702 1.574 . S
C694 C710 1.368 . S
H695 C703 0.950 . S
H696 C701 0.950 . S
H697 C702 0.949 . S
H698 C704 0.950 . S
H699 C705 0.950 . S
H700 C706 0.949 . S
C701 H696 0.950 . S
C701 C703 1.327 . S
C701 C707 1.429 . S
C702 C694 1.574 . S
C702 H697 0.949 . S
C702 C708 1.368 . S
C703 C687 1.349 . S
C703 H695 0.950 . S
C703 C701 1.327 . S
C704 C692 1.349 . S
C704 H698 0.950 . S
C704 C705 1.327 . S
C705 H699 0.950 . S
C705 C704 1.327 . S
C705 C709 1.429 . S
C706 C689 1.574 . S
C706 H700 0.949 . S
C706 C710 1.368 . S
C707 C688 1.429 . S
C707 C701 1.429 . S
C707 C708 1.523 . S
C708 C689 1.368 . S
C708 C702 1.368 . S
C708 C707 1.523 . S
C709 C693 1.429 . S
C709 C705 1.429 . S
C709 C710 1.523 . S
C710 C694 1.368 . S
C710 C706 1.368 . S
C710 C709 1.523 . S
H711 C686 0.950 . S
H712 C688 0.950 . S
H713 C689 0.949 . S
H714 C691 0.950 . S
H715 C693 0.950 . S
C716 C717 1.349 . S
C716 C718 1.327 . S
C716 H741 0.950 . S
C717 C716 1.349 . S
C717 C733 1.349 . S
C718 C716 1.327 . S
C718 C737 1.429 . S
C718 H742 0.950 . S
C719 C736 1.574 . S
C719 C738 1.368 . S
C719 H743 0.949 . S
H720 C724 0.949 . S
C721 C722 1.349 1_554 S
C721 C723 1.327 . S
C721 H744 0.950 . S
C722 C721 1.349 1_556 S
C722 C734 1.349 . S
C723 C721 1.327 . S
C723 C739 1.429 . S
C723 H745 0.950 . S
C724 H720 0.949 . S
C724 C732 1.574 . S
C724 C740 1.368 . S
H725 C733 0.950 . S
H726 C731 0.950 . S
H727 C732 0.949 . S
H728 C734 0.950 . S
H729 C735 0.950 . S
H730 C736 0.949 . S
C731 H726 0.950 . S
C731 C733 1.327 . S
C731 C737 1.429 . S
C732 C724 1.574 . S
C732 H727 0.949 . S
C732 C738 1.368 . S
C733 C717 1.349 . S
C733 H725 0.950 . S
C733 C731 1.327 . S
C734 C722 1.349 . S
C734 H728 0.950 . S
C734 C735 1.327 1_556 S
C735 H729 0.950 . S
C735 C734 1.327 1_554 S
C735 C739 1.429 . S
C736 C719 1.574 . S
C736 H730 0.949 . S
C736 C740 1.368 . S
C737 C718 1.429 . S
C737 C731 1.429 . S
C737 C738 1.523 . S
C738 C719 1.368 . S
C738 C732 1.368 . S
C738 C737 1.523 . S
C739 C723 1.429 . S
C739 C735 1.429 . S
C739 C740 1.523 . S
C740 C724 1.368 . S
C740 C736 1.368 . S
C740 C739 1.523 . S
H741 C716 0.950 . S
H742 C718 0.950 . S
H743 C719 0.949 . S
H744 C721 0.950 . S
H745 C723 0.950 . S
C746 C747 1.349 . S
C746 C748 1.327 . S
C746 H771 0.950 . S
C747 C746 1.349 . S
C747 C763 1.349 . S
C748 C746 1.327 . S
C748 C767 1.429 . S
C748 H772 0.950 . S
C749 C766 1.574 . S
C749 C768 1.368 . S
C749 H773 0.949 . S
H750 C754 0.949 . S
C751 C752 1.349 . S
C751 C753 1.327 . S
C751 H774 0.950 . S
C752 C751 1.349 . S
C752 C764 1.349 . S
C753 C751 1.327 . S
C753 C769 1.429 . S
C753 H775 0.950 . S
C754 H750 0.949 . S
C754 C762 1.574 . S
C754 C770 1.368 . S
H755 C763 0.950 . S
H756 C761 0.950 . S
H757 C762 0.949 . S
H758 C764 0.950 . S
H759 C765 0.950 . S
H760 C766 0.949 . S
C761 H756 0.950 . S
C761 C763 1.327 . S
C761 C767 1.429 . S
C762 C754 1.574 . S
C762 H757 0.949 . S
C762 C768 1.368 . S
C763 C747 1.349 . S
C763 H755 0.950 . S
C763 C761 1.327 . S
C764 C752 1.349 . S
C764 H758 0.950 . S
C764 C765 1.327 . S
C765 H759 0.950 . S
C765 C764 1.327 . S
C765 C769 1.429 . S
C766 C749 1.574 . S
C766 H760 0.949 . S
C766 C770 1.368 . S
C767 C748 1.429 . S
C767 C761 1.429 . S
C767 C768 1.523 . S
C768 C749 1.368 . S
C768 C762 1.368 . S
C768 C767 1.523 . S
C769 C753 1.429 . S
C769 C765 1.429 . S
C769 C770 1.523 . S
C770 C754 1.368 . S
C770 C766 1.368 . S
C770 C769 1.523 . S
H771 C746 0.950 . S
H772 C748 0.950 . S
H773 C749 0.949 . S
H774 C751 0.950 . S
H775 C753 0.950 . S
C776 C777 1.349 1_556 S
C776 C778 1.327 . S
C776 H801 0.950 . S
C777 C776 1.349 1_554 S
C777 C793 1.349 . S
C778 C776 1.327 . S
C778 C797 1.429 . S
C778 H802 0.950 . S
C779 C796 1.574 . S
C779 C798 1.368 1_545 S
C779 H803 0.949 . S
H780 C784 0.949 . S
C781 C782 1.349 . S
C781 C783 1.327 . S
C781 H804 0.950 . S
C782 C781 1.349 . S
C782 C794 1.349 . S
C783 C781 1.327 . S
C783 C799 1.429 . S
C783 H805 0.950 . S
C784 H780 0.949 . S
C784 C792 1.574 . S
C784 C800 1.368 1_565 S
H785 C793 0.950 . S
H786 C791 0.950 . S
H787 C792 0.949 . S
H788 C794 0.950 . S
H789 C795 0.950 1_565 S
H790 C796 0.949 . S
C791 H786 0.950 . S
C791 C793 1.327 1_556 S
C791 C797 1.429 . S
C792 C784 1.574 . S
C792 H787 0.949 . S
C792 C798 1.368 . S
C793 C777 1.349 . S
C793 H785 0.950 . S
C793 C791 1.327 1_554 S
C794 C782 1.349 . S
C794 H788 0.950 . S
C794 C795 1.327 . S
C795 H789 0.950 1_545 S
C795 C794 1.327 . S
C795 C799 1.429 . S
C796 C779 1.574 . S
C796 H790 0.949 . S
C796 C800 1.368 . S
C797 C778 1.429 . S
C797 C791 1.429 . S
C797 C798 1.523 . S
C798 C779 1.368 1_565 S
C798 C792 1.368 . S
C798 C797 1.523 . S
C799 C783 1.429 . S
C799 C795 1.429 . S
C799 C800 1.523 . S
C800 C784 1.368 1_545 S
C800 C796 1.368 . S
C800 C799 1.523 . S
H801 C776 0.950 . S
H802 C778 0.950 . S
H803 C779 0.949 . S
H804 C781 0.950 . S
H805 C783 0.950 . S
C806 C807 1.349 . S
C806 C808 1.327 . S
C806 H831 0.950 . S
C807 C806 1.349 . S
C807 C823 1.349 . S
C808 C806 1.327 . S
C808 C827 1.429 . S
C808 H832 0.949 . S
C809 C826 1.574 1_545 S
C809 C828 1.368 . S
C809 H833 0.949 . S
H810 C814 0.949 . S
C811 C812 1.349 . S
C811 C813 1.327 . S
C811 H834 0.950 . S
C812 C811 1.349 . S
C812 C824 1.349 . S
C813 C811 1.327 . S
C813 C829 1.429 . S
C813 H835 0.950 . S
C814 H810 0.949 . S
C814 C822 1.574 . S
C814 C830 1.368 . S
H815 C823 0.950 . S
H816 C821 0.950 . S
H817 C822 0.949 . S
H818 C824 0.950 . S
H819 C825 0.950 . S
H820 C826 0.949 1_545 S
C821 H816 0.950 . S
C821 C823 1.327 . S
C821 C827 1.429 . S
C822 C814 1.574 . S
C822 H817 0.949 . S
C822 C828 1.368 1_565 S
C823 C807 1.349 . S
C823 H815 0.950 . S
C823 C821 1.327 . S
C824 C812 1.349 . S
C824 H818 0.950 . S
C824 C825 1.327 . S
C825 H819 0.950 . S
C825 C824 1.327 . S
C825 C829 1.429 . S
C826 C809 1.574 1_565 S
C826 H820 0.949 1_565 S
C826 C830 1.368 . S
C827 C808 1.429 . S
C827 C821 1.429 . S
C827 C828 1.523 . S
C828 C809 1.368 . S
C828 C822 1.368 1_545 S
C828 C827 1.523 . S
C829 C813 1.429 . S
C829 C825 1.429 . S
C829 C830 1.523 . S
C830 C814 1.368 . S
C830 C826 1.368 . S
C830 C829 1.523 . S
H831 C806 0.950 . S
H832 C808 0.949 . S
H833 C809 0.949 . S
H834 C811 0.950 . S
H835 C813 0.950 . S
C836 C837 1.349 . S
C836 C838 1.327 . S
C836 H861 0.950 . S
C837 C836 1.349 . S
C837 C853 1.349 . S
C838 C836 1.327 . S
C838 C857 1.429 . S
C838 H862 0.950 . S
C839 C856 1.574 1_565 S
C839 C858 1.368 . S
C839 H863 0.949 . S
H840 C844 0.949 . S
C841 C842 1.349 . S
C841 C843 1.327 1_556 S
C841 H864 0.950 . S
C842 C841 1.349 . S
C842 C854 1.349 1_556 S
C843 C841 1.327 1_554 S
C843 C859 1.429 . S
C843 H865 0.950 . S
C844 H840 0.949 . S
C844 C852 1.574 . S
C844 C860 1.368 . S
H845 C853 0.950 . S
H846 C851 0.950 . S
H847 C852 0.949 . S
H848 C854 0.950 . S
H849 C855 0.950 . S
H850 C856 0.949 . S
C851 H846 0.950 . S
C851 C853 1.327 . S
C851 C857 1.429 . S
C852 C844 1.574 . S
C852 H847 0.949 . S
C852 C858 1.368 1_545 S
C853 C837 1.349 . S
C853 H845 0.950 . S
C853 C851 1.327 . S
C854 C842 1.349 1_554 S
C854 H848 0.950 . S
C854 C855 1.327 . S
C855 H849 0.950 . S
C855 C854 1.327 . S
C855 C859 1.429 . S
C856 C839 1.574 1_545 S
C856 H850 0.949 . S
C856 C860 1.368 . S
C857 C838 1.429 . S
C857 C851 1.429 . S
C857 C858 1.523 . S
C858 C839 1.368 . S
C858 C852 1.368 1_565 S
C858 C857 1.523 . S
C859 C843 1.429 . S
C859 C855 1.429 . S
C859 C860 1.523 . S
C860 C844 1.368 . S
C860 C856 1.368 . S
C860 C859 1.523 . S
H861 C836 0.950 . S
H862 C838 0.950 . S
H863 C839 0.949 . S
H864 C841 0.950 . S
H865 C843 0.950 . S
C866 C867 1.349 . S
C866 C868 1.327 . S
C866 H891 0.950 . S
C867 C866 1.349 . S
C867 C883 1.349 . S
C868 C866 1.327 . S
C868 C887 1.429 . S
C868 H892 0.950 . S
C869 C886 1.574 1_545 S
C869 C888 1.368 . S
C869 H893 0.949 . S
H870 C874 0.949 . S
C871 C872 1.349 . S
C871 C873 1.327 . S
C871 H894 0.950 . S
C872 C871 1.349 . S
C872 C884 1.349 . S
C873 C871 1.327 . S
C873 C889 1.429 . S
C873 H895 0.950 . S
C874 H870 0.949 . S
C874 C882 1.574 . S
C874 C890 1.368 1_545 S
H875 C883 0.950 . S
H876 C881 0.950 . S
H877 C882 0.949 . S
H878 C884 0.950 . S
H879 C885 0.950 . S
H880 C886 0.949 . S
C881 H876 0.950 . S
C881 C883 1.327 . S
C881 C887 1.429 . S
C882 C874 1.574 . S
C882 H877 0.949 . S
C882 C888 1.368 . S
C883 C867 1.349 . S
C883 H875 0.950 . S
C883 C881 1.327 . S
C884 C872 1.349 . S
C884 H878 0.950 . S
C884 C885 1.327 . S
C885 H879 0.950 . S
C885 C884 1.327 . S
C885 C889 1.429 . S
C886 C869 1.574 1_565 S
C886 H880 0.949 . S
C886 C890 1.368 . S
C887 C868 1.429 . S
C887 C881 1.429 . S
C887 C888 1.523 . S
C888 C869 1.368 . S
C888 C882 1.368 . S
C888 C887 1.523 . S
C889 C873 1.429 . S
C889 C885 1.429 . S
C889 C890 1.523 . S
C890 C874 1.368 1_565 S
C890 C886 1.368 . S
C890 C889 1.523 . S
H891 C866 0.950 . S
H892 C868 0.950 . S
H893 C869 0.949 . S
H894 C871 0.950 . S
H895 C873 0.950 . S
C177 C40 1.311 . S
C182 C8 1.311 . S
C207 C62 1.311 . S
C212 C74 1.311 . S
C237 C128 1.311 . S
C242 C96 1.311 . S
C267 C150 1.311 . S
C272 C162 1.311 . S
C297 C18 1.625 . S
C302 C142 1.625 . S
C327 C32 1.625 . S
C332 C172 1.625 . S
C357 C106 1.625 . S
C362 C54 1.625 . S
C387 C84 1.625 . S
C392 C120 1.625 . S
C417 C65 0.815 . S
C422 C15 0.815 . S
C447 C81 0.815 . S
C452 C43 0.815 . S
C477 C103 0.815 . S
C482 C153 0.815 . S
C507 C131 0.815 . S
C512 C169 0.815 . S
C537 C7 1.439 . S
C542 C37 1.439 . S
C567 C73 1.439 . S
C572 C59 1.439 . S
C597 C125 1.439 . S
C602 C95 1.439 . S
C627 C161 1.439 . S
C632 C147 1.439 . S
C657 C10 1.176 . S
C662 C87 1.210 . S
C687 C30 1.176 . S
C692 C51 1.210 . S
C717 C29 1.210 . S
C722 C52 1.176 . S
C747 C21 1.210 . S
C752 C76 1.176 . S
C777 C98 1.176 . S
C782 C175 1.210 . S
C807 C139 1.210 . S
C812 C118 1.176 . S
C837 C117 1.210 . S
C842 C140 1.176 . S
C867 C164 1.176 . S
C872 C109 1.210 . S
