# Generated by pormake.
# Topology dmp, (4)-cn, num edge types: 1
# Building blocks:
#     Node 0, Type 0, BuildingBlock: ICAMEG_clean_sbu_1, # of connection points: 4
#     Node 1, Type 0, BuildingBlock: ICAMEG_clean_sbu_1, # of connection points: 4
#     Node 2, Type 0, BuildingBlock: ICAMEG_clean_sbu_1, # of connection points: 4
#     Node 3, Type 0, BuildingBlock: ICAMEG_clean_sbu_1, # of connection points: 4
#     Edge 4, Type (0, 0), BuildingBlock: EZIPEK_clean_linker_0, # of connection points: 2
#     Edge 5, Type (0, 0), BuildingBlock: EZIPEK_clean_linker_0, # of connection points: 2
#     Edge 6, Type (0, 0), BuildingBlock: EZIPEK_clean_linker_0, # of connection points: 2
#     Edge 7, Type (0, 0), BuildingBlock: EZIPEK_clean_linker_0, # of connection points: 2
#     Edge 8, Type (0, 0), BuildingBlock: EZIPEK_clean_linker_0, # of connection points: 2
#     Edge 9, Type (0, 0), BuildingBlock: EZIPEK_clean_linker_0, # of connection points: 2
#     Edge 10, Type (0, 0), BuildingBlock: EZIPEK_clean_linker_0, # of connection points: 2
#     Edge 11, Type (0, 0), BuildingBlock: EZIPEK_clean_linker_0, # of connection points: 2
# Relax obj value: 0.007
# Max RMSD: 0.062
# Mean RMSD: 0.062
data_MOF--net-dmp--node1-ICAMEG_clean_sbu_1--edge1-EZIPEK_clean_linker_0
_symmetry_space_group_name_H-M    P1
_symmetry_Int_Tables_number       1
_symmetry_cell_setting            triclinic
loop_
_symmetry_equiv_pos_as_xyz
'x, y, z'
_cell_length_a     32.326273
_cell_length_b     14.315317
_cell_length_c     13.831486
_cell_angle_alpha  90.212035
_cell_angle_beta   90.181143
_cell_angle_gamma 89.751879
loop_
_atom_site_label
_atom_site_type_symbol
_atom_site_fract_x
_atom_site_fract_y
_atom_site_fract_z
_atom_type_partial_charge
Co0 Co 0.1344 0.21821 0.10989 0.0
Co1 Co 0.13238 0.26663 0.35215 0.0
O2 O 0.10361 0.23915 0.23015 0.0
C3 C 0.07334 0.06297 0.11297 0.0
O4 O 0.08374 0.04401 0.20252 0.0
C5 C 0.06244 0.40408 0.35274 0.0
O6 O 0.07048 0.42584 0.26261 0.0
O7 O 0.15819 0.37643 0.29007 0.0
O8 O 0.17743 0.31277 0.14882 0.0
H9 H 0.25459 0.36366 0.55404 0.0
H10 H 0.0451 0.26715 0.09744 0.0
O11 O 0.09151 0.12695 0.06639 0.0
H12 H 0.11684 0.49883 0.89587 0.0
H13 H 0.14677 0.15014 0.7534 0.0
H14 H 0.22268 0.18407 0.06079 0.0
H15 H 0.15644 0.38173 0.98811 0.0
H16 H 0.1099 0.19223 0.90306 0.0
O17 O 0.08404 0.34323 0.39675 0.0
H18 H 0.21855 0.31814 0.4038 0.0
H19 H 0.10628 0.28469 0.55859 0.0
H20 H 0.26098 0.14449 0.9124 0.0
H21 H 0.00419 0.38126 1.00393 0.0
H22 H 0.22295 0.12748 0.75696 0.0
H23 H 0.04019 0.49711 0.90053 0.0
O24 O 0.16713 0.11748 0.1738 0.0
H25 H 0.01736 0.04031 0.40928 0.0
H26 H 0.16386 0.1109 0.47567 0.0
H27 H 0.13393 0.96468 0.53732 0.0
H28 H 0.06054 0.92723 0.50166 0.0
H29 H 0.04808 0.18774 0.35332 0.0
H30 H 0.14081 0.3329 0.70972 0.0
H31 H 0.21563 0.37134 0.70846 0.0
O32 O 0.18138 0.18885 0.31459 0.0
C33 C 0.17934 0.37808 0.21208 0.0
C34 C 0.22204 0.3463 0.55568 0.0
C35 C 0.1582 0.32901 0.64305 0.0
N36 N 0.16041 0.29793 0.47236 0.0
C37 C 0.2015 0.32 0.47089 0.0
C38 C 0.13877 0.3021 0.55708 0.0
C39 C 0.20016 0.35079 0.64225 0.0
C40 C 0.06093 0.31792 0.05352 0.0
N41 N 0.10309 0.31715 0.04758 0.0
C42 C 0.03761 0.3826 1.00094 0.0
C43 C 0.05779 0.44768 0.94323 0.0
C44 C 0.10083 0.44853 0.94026 0.0
C45 C 0.12311 0.38249 0.99335 0.0
C46 C 0.16377 0.15866 0.82037 0.0
C47 C 0.20602 0.17833 0.99344 0.0
C48 C 0.14307 0.18249 0.90551 0.0
N49 N 0.16426 0.19283 0.99064 0.0
C50 C 0.22784 0.15537 0.90957 0.0
C51 C 0.2065 0.14564 0.82248 0.0
C52 C 0.18854 0.12657 0.25079 0.0
C53 C 0.04933 0.05594 0.42589 0.0
C54 C 0.13154 0.09639 0.46242 0.0
C55 C 0.11481 0.01333 0.49724 0.0
C56 C 0.07357 0.99255 0.47754 0.0
N57 N 0.10772 0.1574 0.41041 0.0
C58 C 0.06689 0.13918 0.39403 0.0
Co59 Co 0.37299 0.71845 0.39639 0.0
Co60 Co 0.37085 0.76521 0.15416 0.0
O61 O 0.40181 0.73672 0.27294 0.0
C62 C 0.43341 0.55894 0.39662 0.0
O63 O 0.41992 0.53068 0.31191 0.0
C64 C 0.45392 0.86262 0.13256 0.0
O65 O 0.46768 0.82976 0.21506 0.0
O66 O 0.34699 0.87592 0.22026 0.0
O67 O 0.32838 0.81086 0.36013 0.0
H68 H 0.24324 0.8659 0.97318 0.0
H69 H 0.46193 0.76975 0.40149 0.0
O70 O 0.41746 0.62951 0.43831 0.0
H71 H 0.39018 0.01157 0.59367 0.0
H72 H 0.36721 0.65961 0.75496 0.0
H73 H 0.28592 0.68227 0.45404 0.0
H74 H 0.351 0.88455 0.51612 0.0
H75 H 0.40103 0.69939 0.60131 0.0
O76 O 0.41739 0.84476 0.10294 0.0
H77 H 0.28335 0.81677 0.11617 0.0
H78 H 0.39131 0.78682 0.94416 0.0
H79 H 0.25058 0.64511 0.60658 0.0
H80 H 0.50246 0.89462 0.47913 0.0
H81 H 0.29134 0.63357 0.75873 0.0
H82 H 0.46633 0.01671 0.57712 0.0
O83 O 0.34012 0.61597 0.33627 0.0
H84 H 0.47854 0.51691 0.09439 0.0
H85 H 0.3364 0.61999 0.02191 0.0
H86 H 0.36233 0.47332 0.95111 0.0
H87 H 0.43386 0.42007 0.98792 0.0
H88 H 0.45256 0.66632 0.15748 0.0
H89 H 0.3527 0.83938 0.80024 0.0
H90 H 0.27796 0.87765 0.81373 0.0
O91 O 0.32312 0.68737 0.19729 0.0
C92 C 0.32633 0.87736 0.29884 0.0
C93 C 0.27572 0.84852 0.96615 0.0
C94 C 0.33714 0.83352 0.8691 0.0
N95 N 0.33962 0.79816 0.03867 0.0
C96 C 0.29857 0.82013 0.04683 0.0
C97 C 0.35892 0.80444 0.95109 0.0
C98 C 0.29522 0.85527 0.87677 0.0
C99 C 0.4461 0.82284 0.44322 0.0
N100 N 0.40416 0.81998 0.4539 0.0
C101 C 0.4692 0.89354 0.48708 0.0
C102 C 0.449 0.96187 0.54172 0.0
C103 C 0.40617 0.95906 0.55128 0.0
C104 C 0.38413 0.88723 0.50661 0.0
C105 C 0.34902 0.66555 0.6894 0.0
C106 C 0.30373 0.67904 0.51993 0.0
C107 C 0.36799 0.68817 0.60203 0.0
N108 N 0.34532 0.69528 0.51865 0.0
C109 C 0.28359 0.65738 0.60616 0.0
C110 C 0.30647 0.65069 0.69142 0.0
C111 C 0.31753 0.62464 0.26096 0.0
C112 C 0.44782 0.54064 0.07519 0.0
C113 C 0.36817 0.59984 0.03499 0.0
C114 C 0.38252 0.51586 0.99551 0.0
C115 C 0.4226 0.48598 0.01625 0.0
N116 N 0.39338 0.65424 0.09133 0.0
C117 C 0.43278 0.62537 0.11135 0.0
Co118 Co 0.87105 0.75554 0.88746 0.0
Co119 Co 0.88177 0.73301 0.63964 0.0
O120 O 0.90516 0.73499 0.77204 0.0
C121 C 0.93532 0.90339 0.90373 0.0
O122 O 0.92777 0.92777 0.81411 0.0
C123 C 0.92405 0.55901 0.56951 0.0
O124 O 0.88885 0.51429 0.57673 0.0
O125 O 0.8445 0.62895 0.67843 0.0
O126 O 0.82811 0.66709 0.83261 0.0
H127 H 0.76915 0.70962 0.38878 0.0
H128 H 0.95757 0.68877 0.90664 0.0
O129 O 0.91487 0.83854 0.94341 0.0
H130 H 0.87451 0.47956 0.11061 0.0
H131 H 0.84421 0.86773 0.22651 0.0
H132 H 0.78065 0.77099 0.91833 0.0
H133 H 0.84083 0.60107 0.01154 0.0
H134 H 0.88697 0.79925 0.09766 0.0
O135 O 0.92723 0.64299 0.60046 0.0
H136 H 0.79719 0.74289 0.55052 0.0
H137 H 0.91976 0.72204 0.44287 0.0
H138 H 0.73627 0.82811 0.05008 0.0
H139 H 0.99262 0.57146 0.00822 0.0
H140 H 0.76814 0.87981 0.20479 0.0
H141 H 0.95107 0.46482 0.11015 0.0
O142 O 0.84398 0.86487 0.82758 0.0
H143 H 0.01463 0.91221 0.6427 0.0
H144 H 0.86842 0.91542 0.54031 0.0
H145 H 0.91113 0.05547 0.51533 0.0
H146 H 0.9843 0.05569 0.57023 0.0
H147 H 0.97092 0.77334 0.66512 0.0
H148 H 0.89291 0.68807 0.27964 0.0
H149 H 0.81709 0.67432 0.25363 0.0
O150 O 0.83601 0.82299 0.67321 0.0
C151 C 0.82323 0.61775 0.75543 0.0
C152 C 0.80228 0.71171 0.40014 0.0
C153 C 0.8717 0.69952 0.33899 0.0
N154 N 0.86014 0.72832 0.508 0.0
C155 C 0.81845 0.73086 0.49178 0.0
C156 C 0.8867 0.71847 0.4318 0.0
C157 C 0.82918 0.69263 0.3242 0.0
C158 C 0.93924 0.64214 0.95011 0.0
N159 N 0.89719 0.65103 0.95227 0.0
C160 C 0.95926 0.57561 0.00731 0.0
C161 C 0.93593 0.5164 0.06517 0.0
C162 C 0.89299 0.52473 0.06558 0.0
C163 C 0.87408 0.59331 0.00887 0.0
C164 C 0.82992 0.84442 0.15985 0.0
C165 C 0.79465 0.78812 0.98703 0.0
C166 C 0.85406 0.80615 0.08599 0.0
N167 N 0.83653 0.7811 0.99962 0.0
C168 C 0.76935 0.82214 0.06096 0.0
C169 C 0.78724 0.85149 0.14753 0.0
C170 C 0.82679 0.87353 0.74584 0.0
C171 C 0.98273 0.91315 0.61879 0.0
C172 C 0.90055 0.91412 0.56212 0.0
C173 C 0.92456 0.99369 0.54785 0.0
C174 C 0.96572 0.99354 0.57802 0.0
N175 N 0.91706 0.83674 0.60542 0.0
C176 C 0.95786 0.83463 0.63118 0.0
Co177 Co 0.63901 0.26965 0.64376 0.0
Co178 Co 0.63048 0.23232 0.88615 0.0
O179 O 0.60491 0.24048 0.75671 0.0
C180 C 0.56859 0.40321 0.61976 0.0
O181 O 0.57517 0.43477 0.70755 0.0
C182 C 0.5567 0.09941 0.89129 0.0
O183 O 0.54783 0.11292 0.79974 0.0
O184 O 0.66587 0.12903 0.83633 0.0
O185 O 0.68706 0.19701 0.69863 0.0
H186 H 0.74989 0.17837 0.11306 0.0
H187 H 0.55739 0.18191 0.61033 0.0
O188 O 0.59129 0.33915 0.58421 0.0
H189 H 0.65863 0.97452 0.45038 0.0
H190 H 0.66419 0.35552 0.29613 0.0
H191 H 0.72676 0.32372 0.61958 0.0
H192 H 0.68159 0.11632 0.53638 0.0
H193 H 0.62368 0.2916 0.43108 0.0
O194 O 0.58767 0.13939 0.93061 0.0
H195 H 0.7169 0.20962 0.95563 0.0
H196 H 0.59885 0.22169 0.0889 0.0
H197 H 0.76907 0.38145 0.48496 0.0
H198 H 0.53309 0.04302 0.522 0.0
H199 H 0.73766 0.39856 0.32181 0.0
H200 H 0.5837 0.93711 0.4424 0.0
O201 O 0.65796 0.38442 0.70941 0.0
H202 H 0.50223 0.43243 0.88926 0.0
H203 H 0.64415 0.39823 0.0145 0.0
H204 H 0.60436 0.53988 0.05369 0.0
H205 H 0.53338 0.55944 0.9882 0.0
H206 H 0.54323 0.29169 0.85213 0.0
H207 H 0.63038 0.18717 0.24725 0.0
H208 H 0.70646 0.16546 0.26019 0.0
O209 O 0.675 0.3252 0.8518 0.0
C210 C 0.69038 0.13476 0.76427 0.0
C211 C 0.71672 0.18792 0.10843 0.0
C212 C 0.64965 0.19275 0.18367 0.0
N213 N 0.65602 0.2185 0.01283 0.0
C214 C 0.69787 0.20629 0.01947 0.0
C215 C 0.63196 0.21232 0.09372 0.0
C216 C 0.69233 0.18053 0.19089 0.0
C217 C 0.57966 0.13658 0.57543 0.0
N218 N 0.62081 0.15701 0.57878 0.0
C219 C 0.56572 0.05764 0.52593 0.0
C220 C 0.59418 -0.00139 0.48091 0.0
C221 C 0.63619 0.01958 0.48529 0.0
C222 C 0.64901 0.09977 0.53452 0.0
C223 C 0.67838 0.34667 0.36643 0.0
C224 C 0.71315 0.32805 0.54832 0.0
C225 C 0.6555 0.31128 0.44347 0.0
N226 N 0.67278 0.30359 0.53345 0.0
C227 C 0.73722 0.36165 0.47245 0.0
C228 C 0.71957 0.3714 0.38103 0.0
C229 C 0.67791 0.38948 0.7886 0.0
C230 C 0.53326 0.42504 0.9179 0.0
C231 C 0.61302 0.40469 0.98747 0.0
C232 C 0.59059 0.48542 0.00986 0.0
C233 C 0.55065 0.49606 0.9736 0.0
N234 N 0.59622 0.336 0.93091 0.0
C235 C 0.55667 0.34523 0.89713 0.0
C236 C 0.25477 0.93114 0.34884 0.0
C237 C 0.29424 0.9525 0.31029 0.0
C238 C 0.2655 0.10106 0.25217 0.0
C239 C 0.22495 0.06573 0.26684 0.0
N240 N 0.18099 0.9419 0.32379 0.0
N241 N 0.33908 0.06864 0.2415 0.0
C242 C 0.21957 0.97869 0.31278 0.0
C243 C 0.30018 0.04104 0.26661 0.0
N244 N 0.25106 0.87311 0.42615 0.0
N245 N 0.27094 0.19261 0.22827 0.0
H246 H 0.36558 0.03344 0.26503 0.0
H247 H 0.34499 0.12561 0.19709 0.0
H248 H 0.24628 0.23843 0.21831 0.0
H249 H 0.29966 0.2251 0.22626 0.0
H250 H 0.22285 0.85969 0.45954 0.0
H251 H 0.2766 0.85246 0.46677 0.0
H252 H 0.17611 0.87511 0.35119 0.0
H253 H 0.15433 0.97491 0.29811 0.0
C254 C 0.20603 0.54012 0.24936 0.0
C255 C 0.21168 0.45236 0.20293 0.0
C256 C 0.28641 0.47732 0.19879 0.0
C257 C 0.28123 0.56364 0.24711 0.0
N258 N 0.23533 0.69054 0.28998 0.0
N259 N 0.25437 0.37369 0.0842 0.0
C260 C 0.24075 0.59921 0.26417 0.0
C261 C 0.25101 0.43072 0.16291 0.0
N262 N 0.16731 0.56829 0.27631 0.0
N263 N 0.325 0.44078 0.18458 0.0
H264 H 0.22872 0.35508 0.04307 0.0
H265 H 0.28242 0.35983 0.04991 0.0
H266 H 0.35183 0.47386 0.2086 0.0
H267 H 0.32986 0.37418 0.1559 0.0
H268 H 0.16175 0.62398 0.32324 0.0
H269 H 0.14064 0.53509 0.25148 0.0
H270 H 0.20659 0.72339 0.29344 0.0
H271 H 0.25997 0.73594 0.29984 0.0
C272 C 0.76664 0.101 0.76337 0.0
C273 C 0.72532 0.068 0.75648 0.0
C274 C 0.75066 0.90761 0.73475 0.0
C275 C 0.79201 0.94095 0.73864 0.0
N276 N 0.83971 0.06946 0.73824 0.0
N277 N 0.67769 0.94421 0.71727 0.0
C278 C 0.80007 0.03784 0.74751 0.0
C279 C 0.71723 0.97247 0.73693 0.0
N280 N 0.77392 0.19198 0.78856 0.0
N281 N 0.74324 0.81366 0.73309 0.0
H282 H 0.65223 0.98916 0.71979 0.0
H283 H 0.67037 0.8781 0.69088 0.0
H284 H 0.76666 0.76384 0.72815 0.0
H285 H 0.7141 0.78454 0.74296 0.0
H286 H 0.80308 0.21795 0.8056 0.0
H287 H 0.75036 0.2407 0.79965 0.0
H288 H 0.84745 0.13981 0.73395 0.0
H289 H 0.86475 0.02481 0.7261 0.0
C290 C 0.78552 0.48658 0.83584 0.0
C291 C 0.78912 0.54746 0.75625 0.0
C292 C 0.71614 0.52555 0.7186 0.0
C293 C 0.71236 0.45996 0.79459 0.0
N294 N 0.74022 0.41058 0.94896 0.0
N295 N 0.76272 0.58047 0.59747 0.0
C296 C 0.74623 0.44882 0.86003 0.0
C297 C 0.75581 0.55541 0.69062 0.0
N298 N 0.82056 0.45885 0.883 0.0
N299 N 0.6818 0.56235 0.67527 0.0
H300 H 0.7925 0.57912 0.56947 0.0
H301 H 0.73936 0.58271 0.54529 0.0
H302 H 0.65206 0.54991 0.7013 0.0
H303 H 0.68347 0.61481 0.62329 0.0
H304 H 0.8211 0.4071 0.93573 0.0
H305 H 0.84979 0.47984 0.85992 0.0
H306 H 0.71091 0.39718 0.97574 0.0
H307 H 0.76317 0.40648 1.00181 0.0
C308 C 0.0456 0.95739 0.98394 0.0
C309 C 0.03804 0.01529 0.06559 0.0
C310 C 0.96295 0.00113 0.04015 0.0
C311 C 0.97061 0.94441 0.95761 0.0
N312 N 0.01799 0.85243 0.862 0.0
N313 N 0.99058 0.10237 0.16586 0.0
C314 C 0.01165 0.91864 0.93204 0.0
C315 C 0.99694 0.03888 0.09312 0.0
N316 N 0.08543 0.94132 0.95475 0.0
N317 N 0.92305 0.01757 0.06856 0.0
H318 H 0.01456 0.13117 0.20649 0.0
H319 H 0.96197 0.13147 0.18284 0.0
H320 H 0.89742 -0.00349 0.02812 0.0
H321 H 0.91493 0.04787 0.13431 0.0
H322 H 0.09325 0.91108 0.88873 0.0
H323 H 0.11117 0.96267 0.99467 0.0
H324 H 0.0466 0.82243 0.84668 0.0
H325 H 0.99393 0.82127 0.82364 0.0
C326 C 0.51184 0.07478 0.03839 0.0
C327 C 0.52991 0.03853 0.95215 0.0
C328 C 0.49616 0.8877 0.98174 0.0
C329 C 0.48107 0.92194 0.07176 0.0
N330 N 0.47906 0.04388 0.19242 0.0
N331 N 0.5454 0.90536 0.85104 0.0
C332 C 0.49057 0.014 0.10232 0.0
C333 C 0.52354 0.94365 0.926 0.0
N334 N 0.51279 0.16857 0.05664 0.0
N335 N 0.4844 0.80152 0.9493 0.0
H336 H 0.5664 0.94315 0.80974 0.0
H337 H 0.5457 0.83423 0.83508 0.0
H338 H 0.46677 0.75586 0.99037 0.0
H339 H 0.48987 0.77754 0.87931 0.0
H340 H 0.49627 0.20086 0.11205 0.0
H341 H 0.52683 0.21586 0.01065 0.0
H342 H 0.48971 0.10559 0.22367 0.0
H343 H 0.46114 0.00407 0.23922 0.0
C344 C 0.99984 0.51929 0.55361 0.0
C345 C 0.95917 0.51658 0.51439 0.0
C346 C 0.98611 0.43494 0.37046 0.0
C347 C 0.02704 0.44735 0.405 0.0
N348 N 0.07354 0.51607 0.5217 0.0
N349 N 0.91514 0.48755 0.37507 0.0
C350 C 0.03409 0.49379 0.49445 0.0
C351 C 0.95266 0.47862 0.42 0.0
N352 N 0.00567 0.54228 0.64872 0.0
N353 N 0.97875 0.37786 0.29283 0.0
H354 H 0.88944 0.51877 0.40684 0.0
H355 H 0.91052 0.47172 0.30224 0.0
H356 H 1.00217 0.34365 0.25479 0.0
H357 H 0.94916 0.35746 0.27173 0.0
H358 H 0.0341 0.53618 0.68386 0.0
H359 H 0.98134 0.55812 0.69541 0.0
H360 H 0.08034 0.55805 0.58128 0.0
H361 H 0.09935 0.50031 0.47946 0.0
C362 C 0.50892 0.52032 0.41468 0.0
C363 C 0.46758 0.50944 0.44715 0.0
C364 C 0.49245 0.42102 0.58795 0.0
C365 C 0.53382 0.44034 0.56083 0.0
N366 N 0.58215 0.51604 0.45474 0.0
N367 N 0.41947 0.4561 0.56775 0.0
C368 C 0.54229 0.49136 0.47534 0.0
C369 C 0.45923 0.46169 0.53477 0.0
N370 N 0.51626 0.55904 0.32621 0.0
N371 N 0.48491 0.36029 0.66186 0.0
H372 H 0.39396 0.4786 0.52758 0.0
H373 H 0.41185 0.43366 0.63693 0.0
H374 H 0.50845 0.32806 0.70136 0.0
H375 H 0.45563 0.33536 0.6788 0.0
H376 H 0.54517 0.55961 0.29334 0.0
H377 H 0.49279 0.58499 0.28195 0.0
H378 H 0.59022 0.56145 0.39943 0.0
H379 H 0.6073 0.49699 0.49794 0.0
loop_
_geom_bond_atom_site_label_1
_geom_bond_atom_site_label_2
_geom_bond_distance
_geom_bond_site_symmetry_2
_ccdc_geom_bond_type
Co0 O2 2.143 . S
Co0 O8 2.074 . S
Co0 O11 2.093 . S
Co0 O24 2.097 . S
Co0 N41 2.151 . S
Co0 N49 2.214 1_554 S
Co1 O2 2.160 . S
Co1 O7 2.058 . S
Co1 O17 2.057 . S
Co1 O32 2.037 . S
Co1 N36 2.145 . S
Co1 N57 2.257 . S
O2 Co0 2.143 . S
O2 Co1 2.160 . S
C3 O4 1.278 . S
C3 O11 1.224 . S
O4 C3 1.278 . S
C5 O6 1.245 . S
C5 O17 1.232 . S
O6 C5 1.245 . S
O7 Co1 2.058 . S
O7 C33 1.269 . S
O8 Co0 2.074 . S
O8 C33 1.257 . S
H9 C34 0.930 . S
H10 C40 0.930 . S
O11 Co0 2.093 . S
O11 C3 1.224 . S
H12 C44 0.929 . S
H13 C46 0.930 . S
H14 C47 0.930 . S
H15 C45 0.929 . S
H16 C48 0.928 . S
O17 Co1 2.057 . S
O17 C5 1.232 . S
H18 C37 0.929 . S
H19 C38 0.929 . S
H20 C50 0.931 . S
H21 C42 0.929 . S
H22 C51 0.930 . S
H23 C43 0.931 . S
O24 Co0 2.097 . S
O24 C52 1.214 . S
H25 C53 0.929 . S
H26 C54 0.929 . S
H27 C55 0.930 . S
H28 C56 0.929 . S
H29 C58 0.930 . S
H30 C35 0.930 . S
H31 C39 0.930 . S
O32 Co1 2.037 . S
O32 C52 1.234 . S
C33 O7 1.269 . S
C33 O8 1.257 . S
C34 H9 0.930 . S
C34 C37 1.388 . S
C34 C39 1.418 . S
C35 H30 0.930 . S
C35 C38 1.404 . S
C35 C39 1.353 . S
N36 Co1 2.145 . S
N36 C37 1.397 . S
N36 C38 1.334 . S
C37 H18 0.929 . S
C37 C34 1.388 . S
C37 N36 1.397 . S
C38 H19 0.929 . S
C38 C35 1.404 . S
C38 N36 1.334 . S
C39 H31 0.930 . S
C39 C34 1.418 . S
C39 C35 1.353 . S
C40 H10 0.930 . S
C40 N41 1.330 . S
C40 C42 1.446 1_554 S
N41 Co0 2.151 . S
N41 C40 1.330 . S
N41 C45 1.418 1_554 S
C42 H21 0.929 . S
C42 C40 1.446 1_556 S
C42 C43 1.332 . S
C43 H23 0.931 . S
C43 C42 1.332 . S
C43 C44 1.267 . S
C44 H12 0.929 . S
C44 C43 1.267 . S
C44 C45 1.251 . S
C45 H15 0.929 . S
C45 N41 1.418 1_556 S
C45 C44 1.251 . S
C46 H13 0.930 . S
C46 C48 1.406 . S
C46 C51 1.261 . S
C47 H14 0.930 . S
C47 N49 1.325 1_554 S
C47 C50 1.357 1_554 S
C48 H16 0.928 . S
C48 C46 1.406 . S
C48 N49 1.261 . S
N49 Co0 2.214 1_556 S
N49 C47 1.325 1_556 S
N49 C48 1.261 . S
C50 H20 0.931 . S
C50 C47 1.357 1_556 S
C50 C51 1.312 . S
C51 H22 0.930 . S
C51 C46 1.261 . S
C51 C50 1.312 . S
C52 O24 1.214 . S
C52 O32 1.234 . S
C53 H25 0.929 . S
C53 C56 1.391 1_545 S
C53 C58 1.391 . S
C54 H26 0.929 . S
C54 C55 1.390 1_545 S
C54 N57 1.391 . S
C55 H27 0.930 . S
C55 C54 1.390 1_565 S
C55 C56 1.392 . S
C56 H28 0.929 . S
C56 C53 1.391 1_565 S
C56 C55 1.392 . S
N57 Co1 2.257 . S
N57 C54 1.391 . S
N57 C58 1.388 . S
C58 H29 0.930 . S
C58 C53 1.391 . S
C58 N57 1.388 . S
Co59 O61 2.143 . S
Co59 O67 2.074 . S
Co59 O70 2.093 . S
Co59 O83 2.097 . S
Co59 N100 2.151 . S
Co59 N108 2.214 . S
Co60 O61 2.160 . S
Co60 O66 2.058 . S
Co60 O76 2.057 . S
Co60 O91 2.037 . S
Co60 N95 2.145 1_554 S
Co60 N116 2.257 . S
O61 Co59 2.143 . S
O61 Co60 2.160 . S
C62 O63 1.278 . S
C62 O70 1.224 . S
O63 C62 1.278 . S
C64 O65 1.245 . S
C64 O76 1.232 . S
O65 C64 1.245 . S
O66 Co60 2.058 . S
O66 C92 1.269 . S
O67 Co59 2.074 . S
O67 C92 1.257 . S
H68 C93 0.930 . S
H69 C99 0.930 . S
O70 Co59 2.093 . S
O70 C62 1.224 . S
H71 C103 0.929 1_545 S
H72 C105 0.930 . S
H73 C106 0.930 . S
H74 C104 0.929 . S
H75 C107 0.928 . S
O76 Co60 2.057 . S
O76 C64 1.232 . S
H77 C96 0.929 1_554 S
H78 C97 0.929 . S
H79 C109 0.931 . S
H80 C101 0.929 . S
H81 C110 0.930 . S
H82 C102 0.931 1_545 S
O83 Co59 2.097 . S
O83 C111 1.214 . S
H84 C112 0.929 . S
H85 C113 0.929 . S
H86 C114 0.930 1_556 S
H87 C115 0.929 1_556 S
H88 C117 0.930 . S
H89 C94 0.930 . S
H90 C98 0.930 . S
O91 Co60 2.037 . S
O91 C111 1.234 . S
C92 O66 1.269 . S
C92 O67 1.257 . S
C93 H68 0.930 . S
C93 C96 1.388 . S
C93 C98 1.418 . S
C94 H89 0.930 . S
C94 C97 1.404 . S
C94 C98 1.353 . S
N95 Co60 2.145 1_556 S
N95 C96 1.397 . S
N95 C97 1.334 . S
C96 H77 0.929 1_556 S
C96 C93 1.388 . S
C96 N95 1.397 . S
C97 H78 0.929 . S
C97 C94 1.404 . S
C97 N95 1.334 . S
C98 H90 0.930 . S
C98 C93 1.418 . S
C98 C94 1.353 . S
C99 H69 0.930 . S
C99 N100 1.330 . S
C99 C101 1.446 . S
N100 Co59 2.151 . S
N100 C99 1.330 . S
N100 C104 1.418 . S
C101 H80 0.929 . S
C101 C99 1.446 . S
C101 C102 1.332 . S
C102 H82 0.931 1_565 S
C102 C101 1.332 . S
C102 C103 1.267 . S
C103 H71 0.929 1_565 S
C103 C102 1.267 . S
C103 C104 1.251 . S
C104 H74 0.929 . S
C104 N100 1.418 . S
C104 C103 1.251 . S
C105 H72 0.930 . S
C105 C107 1.406 . S
C105 C110 1.261 . S
C106 H73 0.930 . S
C106 N108 1.325 . S
C106 C109 1.357 . S
C107 H75 0.928 . S
C107 C105 1.406 . S
C107 N108 1.261 . S
N108 Co59 2.214 . S
N108 C106 1.325 . S
N108 C107 1.261 . S
C109 H79 0.931 . S
C109 C106 1.357 . S
C109 C110 1.312 . S
C110 H81 0.930 . S
C110 C105 1.261 . S
C110 C109 1.312 . S
C111 O83 1.214 . S
C111 O91 1.234 . S
C112 H84 0.929 . S
C112 C115 1.391 . S
C112 C117 1.391 . S
C113 H85 0.929 . S
C113 C114 1.390 . S
C113 N116 1.391 . S
C114 H86 0.930 1_554 S
C114 C113 1.390 . S
C114 C115 1.392 . S
C115 H87 0.929 1_554 S
C115 C112 1.391 . S
C115 C114 1.392 . S
N116 Co60 2.257 . S
N116 C113 1.391 . S
N116 C117 1.388 . S
C117 H88 0.930 . S
C117 C112 1.391 . S
C117 N116 1.388 . S
Co118 O120 2.143 . S
Co118 O126 2.074 . S
Co118 O129 2.093 . S
Co118 O142 2.097 . S
Co118 N159 2.151 . S
Co118 N167 2.214 1_556 S
Co119 O120 2.160 . S
Co119 O125 2.058 . S
Co119 O135 2.057 . S
Co119 O150 2.037 . S
Co119 N154 2.145 . S
Co119 N175 2.257 . S
O120 Co118 2.143 . S
O120 Co119 2.160 . S
C121 O122 1.278 . S
C121 O129 1.224 . S
O122 C121 1.278 . S
C123 O124 1.245 . S
C123 O135 1.232 . S
O124 C123 1.245 . S
O125 Co119 2.058 . S
O125 C151 1.269 . S
O126 Co118 2.074 . S
O126 C151 1.257 . S
H127 C152 0.930 . S
H128 C158 0.930 . S
O129 Co118 2.093 . S
O129 C121 1.224 . S
H130 C162 0.929 . S
H131 C164 0.930 . S
H132 C165 0.930 . S
H133 C163 0.929 . S
H134 C166 0.928 . S
O135 Co119 2.057 . S
O135 C123 1.232 . S
H136 C155 0.929 . S
H137 C156 0.929 . S
H138 C168 0.931 . S
H139 C160 0.929 . S
H140 C169 0.930 . S
H141 C161 0.931 . S
O142 Co118 2.097 . S
O142 C170 1.214 . S
H143 C171 0.929 . S
H144 C172 0.929 . S
H145 C173 0.930 . S
H146 C174 0.929 . S
H147 C176 0.930 . S
H148 C153 0.930 . S
H149 C157 0.930 . S
O150 Co119 2.037 . S
O150 C170 1.234 . S
C151 O125 1.269 . S
C151 O126 1.257 . S
C152 H127 0.930 . S
C152 C155 1.388 . S
C152 C157 1.418 . S
C153 H148 0.930 . S
C153 C156 1.404 . S
C153 C157 1.353 . S
N154 Co119 2.145 . S
N154 C155 1.397 . S
N154 C156 1.334 . S
C155 H136 0.929 . S
C155 C152 1.388 . S
C155 N154 1.397 . S
C156 H137 0.929 . S
C156 C153 1.404 . S
C156 N154 1.334 . S
C157 H149 0.930 . S
C157 C152 1.418 . S
C157 C153 1.353 . S
C158 H128 0.930 . S
C158 N159 1.330 . S
C158 C160 1.446 1_556 S
N159 Co118 2.151 . S
N159 C158 1.330 . S
N159 C163 1.418 1_556 S
C160 H139 0.929 . S
C160 C158 1.446 1_554 S
C160 C161 1.332 . S
C161 H141 0.931 . S
C161 C160 1.332 . S
C161 C162 1.267 . S
C162 H130 0.929 . S
C162 C161 1.267 . S
C162 C163 1.251 . S
C163 H133 0.929 . S
C163 N159 1.418 1_554 S
C163 C162 1.251 . S
C164 H131 0.930 . S
C164 C166 1.406 . S
C164 C169 1.261 . S
C165 H132 0.930 . S
C165 N167 1.325 1_556 S
C165 C168 1.357 1_556 S
C166 H134 0.928 . S
C166 C164 1.406 . S
C166 N167 1.261 . S
N167 Co118 2.214 1_554 S
N167 C165 1.325 1_554 S
N167 C166 1.261 . S
C168 H138 0.931 . S
C168 C165 1.357 1_554 S
C168 C169 1.312 . S
C169 H140 0.930 . S
C169 C164 1.261 . S
C169 C168 1.312 . S
C170 O142 1.214 . S
C170 O150 1.234 . S
C171 H143 0.929 . S
C171 C174 1.391 1_565 S
C171 C176 1.391 . S
C172 H144 0.929 . S
C172 C173 1.390 1_565 S
C172 N175 1.391 . S
C173 H145 0.930 . S
C173 C172 1.390 1_545 S
C173 C174 1.392 . S
C174 H146 0.929 . S
C174 C171 1.391 1_545 S
C174 C173 1.392 . S
N175 Co119 2.257 . S
N175 C172 1.391 . S
N175 C176 1.388 . S
C176 H147 0.930 . S
C176 C171 1.391 . S
C176 N175 1.388 . S
Co177 O179 2.143 . S
Co177 O185 2.074 . S
Co177 O188 2.093 . S
Co177 O201 2.097 . S
Co177 N218 2.151 . S
Co177 N226 2.214 . S
Co178 O179 2.160 . S
Co178 O184 2.058 . S
Co178 O194 2.057 . S
Co178 O209 2.037 . S
Co178 N213 2.145 1_556 S
Co178 N234 2.257 . S
O179 Co177 2.143 . S
O179 Co178 2.160 . S
C180 O181 1.278 . S
C180 O188 1.224 . S
O181 C180 1.278 . S
C182 O183 1.245 . S
C182 O194 1.232 . S
O183 C182 1.245 . S
O184 Co178 2.058 . S
O184 C210 1.269 . S
O185 Co177 2.074 . S
O185 C210 1.257 . S
H186 C211 0.930 . S
H187 C217 0.930 . S
O188 Co177 2.093 . S
O188 C180 1.224 . S
H189 C221 0.929 1_565 S
H190 C223 0.930 . S
H191 C224 0.930 . S
H192 C222 0.929 . S
H193 C225 0.928 . S
O194 Co178 2.057 . S
O194 C182 1.232 . S
H195 C214 0.929 1_556 S
H196 C215 0.929 . S
H197 C227 0.931 . S
H198 C219 0.929 . S
H199 C228 0.930 . S
H200 C220 0.931 1_565 S
O201 Co177 2.097 . S
O201 C229 1.214 . S
H202 C230 0.929 . S
H203 C231 0.929 . S
H204 C232 0.930 1_554 S
H205 C233 0.929 1_554 S
H206 C235 0.930 . S
H207 C212 0.930 . S
H208 C216 0.930 . S
O209 Co178 2.037 . S
O209 C229 1.234 . S
C210 O184 1.269 . S
C210 O185 1.257 . S
C211 H186 0.930 . S
C211 C214 1.388 . S
C211 C216 1.418 . S
C212 H207 0.930 . S
C212 C215 1.404 . S
C212 C216 1.353 . S
N213 Co178 2.145 1_554 S
N213 C214 1.397 . S
N213 C215 1.334 . S
C214 H195 0.929 1_554 S
C214 C211 1.388 . S
C214 N213 1.397 . S
C215 H196 0.929 . S
C215 C212 1.404 . S
C215 N213 1.334 . S
C216 H208 0.930 . S
C216 C211 1.418 . S
C216 C212 1.353 . S
C217 H187 0.930 . S
C217 N218 1.330 . S
C217 C219 1.446 . S
N218 Co177 2.151 . S
N218 C217 1.330 . S
N218 C222 1.418 . S
C219 H198 0.929 . S
C219 C217 1.446 . S
C219 C220 1.332 . S
C220 H200 0.931 1_545 S
C220 C219 1.332 . S
C220 C221 1.267 . S
C221 H189 0.929 1_545 S
C221 C220 1.267 . S
C221 C222 1.251 . S
C222 H192 0.929 . S
C222 N218 1.418 . S
C222 C221 1.251 . S
C223 H190 0.930 . S
C223 C225 1.406 . S
C223 C228 1.261 . S
C224 H191 0.930 . S
C224 N226 1.325 . S
C224 C227 1.357 . S
C225 H193 0.928 . S
C225 C223 1.406 . S
C225 N226 1.261 . S
N226 Co177 2.214 . S
N226 C224 1.325 . S
N226 C225 1.261 . S
C227 H197 0.931 . S
C227 C224 1.357 . S
C227 C228 1.312 . S
C228 H199 0.930 . S
C228 C223 1.261 . S
C228 C227 1.312 . S
C229 O201 1.214 . S
C229 O209 1.234 . S
C230 H202 0.929 . S
C230 C233 1.391 . S
C230 C235 1.391 . S
C231 H203 0.929 . S
C231 C232 1.390 . S
C231 N234 1.391 . S
C232 H204 0.930 1_556 S
C232 C231 1.390 . S
C232 C233 1.392 . S
C233 H205 0.929 1_556 S
C233 C230 1.391 . S
C233 C232 1.392 . S
N234 Co178 2.257 . S
N234 C231 1.391 . S
N234 C235 1.388 . S
C235 H206 0.930 . S
C235 C230 1.391 . S
C235 N234 1.388 . S
C236 C237 1.363 . S
C236 C242 1.379 . S
C236 N244 1.356 . S
C237 C236 1.363 . S
C237 C243 1.363 1_565 S
C238 C239 1.363 . S
C238 C243 1.379 . S
C238 N245 1.356 . S
C239 C238 1.363 . S
C239 C242 1.363 1_545 S
N240 C242 1.355 1_545 S
N240 H252 0.978 1_545 S
N240 H253 0.993 . S
N241 C243 1.356 1_565 S
N241 H246 0.984 . S
N241 H247 0.985 1_565 S
C242 C236 1.379 . S
C242 C239 1.363 1_565 S
C242 N240 1.355 1_565 S
C243 C237 1.363 1_545 S
C243 C238 1.379 . S
C243 N241 1.356 1_545 S
N244 C236 1.356 . S
N244 H250 0.984 . S
N244 H251 0.984 . S
N245 C238 1.356 . S
N245 H248 0.984 . S
N245 H249 0.985 . S
H246 N241 0.984 . S
H247 N241 0.985 1_545 S
H248 N245 0.984 . S
H249 N245 0.985 . S
H250 N244 0.984 . S
H251 N244 0.984 . S
H252 N240 0.978 1_565 S
H253 N240 0.993 . S
C254 C255 1.363 . S
C254 C260 1.379 . S
C254 N262 1.356 . S
C255 C254 1.363 . S
C255 C261 1.363 . S
C256 C257 1.363 . S
C256 C261 1.379 . S
C256 N263 1.356 . S
C257 C256 1.363 . S
C257 C260 1.363 . S
N258 C260 1.356 . S
N258 H270 0.984 . S
N258 H271 0.985 . S
N259 C261 1.356 . S
N259 H264 0.984 . S
N259 H265 0.985 . S
C260 C254 1.379 . S
C260 C257 1.363 . S
C260 N258 1.356 . S
C261 C255 1.363 . S
C261 C256 1.379 . S
C261 N259 1.356 . S
N262 C254 1.356 . S
N262 H268 0.984 . S
N262 H269 0.984 . S
N263 C256 1.356 . S
N263 H266 0.984 . S
N263 H267 0.985 . S
H264 N259 0.984 . S
H265 N259 0.985 . S
H266 N263 0.984 . S
H267 N263 0.985 . S
H268 N262 0.984 . S
H269 N262 0.984 . S
H270 N258 0.984 . S
H271 N258 0.985 . S
C272 C273 1.363 . S
C272 C278 1.379 . S
C272 N280 1.356 . S
C273 C272 1.363 . S
C273 C279 1.363 1_545 S
C274 C275 1.363 . S
C274 C279 1.379 . S
C274 N281 1.356 . S
C275 C274 1.363 . S
C275 C278 1.363 1_565 S
N276 C278 1.358 . S
N276 H288 0.992 . S
N276 H289 0.976 1_545 S
N277 C279 1.357 . S
N277 H282 0.980 1_565 S
N277 H283 0.988 . S
C278 C272 1.379 . S
C278 C275 1.363 1_545 S
C278 N276 1.358 . S
C279 C273 1.363 1_565 S
C279 C274 1.379 . S
C279 N277 1.357 . S
N280 C272 1.356 . S
N280 H286 0.984 . S
N280 H287 0.984 . S
N281 C274 1.356 . S
N281 H284 0.984 . S
N281 H285 0.985 . S
H282 N277 0.980 1_545 S
H283 N277 0.988 . S
H284 N281 0.984 . S
H285 N281 0.985 . S
H286 N280 0.984 . S
H287 N280 0.984 . S
H288 N276 0.992 . S
H289 N276 0.976 1_565 S
C290 C291 1.363 . S
C290 C296 1.379 . S
C290 N298 1.356 . S
C291 C290 1.363 . S
C291 C297 1.363 . S
C292 C293 1.363 . S
C292 C297 1.379 . S
C292 N299 1.356 . S
C293 C292 1.363 . S
C293 C296 1.363 . S
N294 C296 1.356 . S
N294 H306 0.984 . S
N294 H307 0.985 . S
N295 C297 1.356 . S
N295 H300 0.984 . S
N295 H301 0.985 . S
C296 C290 1.379 . S
C296 C293 1.363 . S
C296 N294 1.356 . S
C297 C291 1.363 . S
C297 C292 1.379 . S
C297 N295 1.356 . S
N298 C290 1.356 . S
N298 H304 0.984 . S
N298 H305 0.984 . S
N299 C292 1.356 . S
N299 H302 0.984 . S
N299 H303 0.985 . S
H300 N295 0.984 . S
H301 N295 0.985 . S
H302 N299 0.984 . S
H303 N299 0.985 . S
H304 N298 0.984 . S
H305 N298 0.984 . S
H306 N294 0.984 . S
H307 N294 0.985 . S
C308 C309 1.363 1_556 S
C308 C314 1.379 1_545 S
C308 N316 1.356 . S
C309 C308 1.363 1_554 S
C309 C315 1.363 1_455 S
C310 C311 1.363 1_554 S
C310 C315 1.379 1_565 S
C310 N317 1.356 . S
C311 C310 1.363 1_556 S
C311 C314 1.363 1_655 S
N312 C314 1.356 . S
N312 H324 0.984 . S
N312 H325 0.985 1_455 S
N313 C315 1.356 . S
N313 H318 0.984 1_655 S
N313 H319 0.985 . S
C314 C308 1.379 1_565 S
C314 C311 1.363 1_455 S
C314 N312 1.356 . S
C315 C309 1.363 1_655 S
C315 C310 1.379 1_545 S
C315 N313 1.356 . S
N316 C308 1.356 . S
N316 H322 0.984 . S
N316 H323 0.984 1_556 S
N317 C310 1.356 . S
N317 H320 0.984 1_554 S
N317 H321 0.985 . S
H318 N313 0.984 1_455 S
H319 N313 0.985 . S
H320 N317 0.984 1_556 S
H321 N317 0.985 . S
H322 N316 0.984 . S
H323 N316 0.984 1_554 S
H324 N312 0.984 . S
H325 N312 0.985 1_655 S
C326 C327 1.363 1_554 S
C326 C332 1.379 1_545 S
C326 N334 1.356 . S
C327 C326 1.363 1_556 S
C327 C333 1.363 . S
C328 C329 1.363 1_556 S
C328 C333 1.379 1_565 S
C328 N335 1.356 . S
C329 C328 1.363 1_554 S
C329 C332 1.363 . S
N330 C332 1.356 . S
N330 H342 0.984 1_565 S
N330 H343 0.985 . S
N331 C333 1.356 . S
N331 H336 0.984 . S
N331 H337 0.985 1_545 S
C332 C326 1.379 1_565 S
C332 C329 1.363 . S
C332 N330 1.356 . S
C333 C327 1.363 . S
C333 C328 1.379 1_545 S
C333 N331 1.356 . S
N334 C326 1.356 . S
N334 H340 0.984 . S
N334 H341 0.984 . S
N335 C328 1.356 . S
N335 H338 0.984 . S
N335 H339 0.985 . S
H336 N331 0.984 . S
H337 N331 0.985 1_565 S
H338 N335 0.984 . S
H339 N335 0.985 . S
H340 N334 0.984 . S
H341 N334 0.984 . S
H342 N330 0.984 1_545 S
H343 N330 0.985 . S
C344 C345 1.363 1_455 S
C344 C350 1.379 . S
C344 N352 1.356 . S
C345 C344 1.363 1_655 S
C345 C351 1.363 . S
C346 C347 1.363 1_655 S
C346 C351 1.379 . S
C346 N353 1.356 . S
C347 C346 1.363 1_455 S
C347 C350 1.363 . S
N348 C350 1.356 . S
N348 H360 0.984 . S
N348 H361 0.985 . S
N349 C351 1.356 . S
N349 H354 0.984 . S
N349 H355 0.985 . S
C350 C344 1.379 . S
C350 C347 1.363 . S
C350 N348 1.356 . S
C351 C345 1.363 . S
C351 C346 1.379 . S
C351 N349 1.356 . S
N352 C344 1.356 . S
N352 H358 0.984 . S
N352 H359 0.984 1_455 S
N353 C346 1.356 . S
N353 H356 0.984 1_655 S
N353 H357 0.985 . S
H354 N349 0.984 . S
H355 N349 0.985 . S
H356 N353 0.984 1_455 S
H357 N353 0.985 . S
H358 N352 0.984 . S
H359 N352 0.984 1_655 S
H360 N348 0.984 . S
H361 N348 0.985 . S
C362 C363 1.363 . S
C362 C368 1.379 . S
C362 N370 1.356 . S
C363 C362 1.363 . S
C363 C369 1.363 . S
C364 C365 1.363 . S
C364 C369 1.379 . S
C364 N371 1.356 . S
C365 C364 1.363 . S
C365 C368 1.363 . S
N366 C368 1.356 . S
N366 H378 0.984 . S
N366 H379 0.985 . S
N367 C369 1.356 . S
N367 H372 0.984 . S
N367 H373 0.985 . S
C368 C362 1.379 . S
C368 C365 1.363 . S
C368 N366 1.356 . S
C369 C363 1.363 . S
C369 C364 1.379 . S
C369 N367 1.356 . S
N370 C362 1.356 . S
N370 H376 0.984 . S
N370 H377 0.984 . S
N371 C364 1.356 . S
N371 H374 0.984 . S
N371 H375 0.985 . S
H372 N367 0.984 . S
H373 N367 0.985 . S
H374 N371 0.984 . S
H375 N371 0.985 . S
H376 N370 0.984 . S
H377 N370 0.984 . S
H378 N366 0.984 . S
H379 N366 0.985 . S
C237 C92 1.378 . S
C239 C52 1.383 . S
C255 C33 1.378 . S
C257 C111 1.383 . S
C273 C210 1.378 . S
C275 C170 1.383 . S
C291 C151 1.378 . S
C293 C229 1.383 . S
C309 C3 1.488 . S
C311 C121 1.488 . S
C327 C182 1.500 . S
C329 C64 1.500 . S
C345 C123 1.500 . S
C347 C5 1.500 . S
C363 C62 1.488 . S
C365 C180 1.488 . S
