# Generated by pormake.
# Topology zfg, (5)-cn, num edge types: 1
# Building blocks:
#     Node 0, Type 0, BuildingBlock: BEQFEK_clean_sbu_0, # of connection points: 5
#     Node 1, Type 0, BuildingBlock: BEQFEK_clean_sbu_0, # of connection points: 5
#     Node 2, Type 0, BuildingBlock: BEQFEK_clean_sbu_0, # of connection points: 5
#     Node 3, Type 0, BuildingBlock: BEQFEK_clean_sbu_0, # of connection points: 5
#     Node 4, Type 0, BuildingBlock: BEQFEK_clean_sbu_0, # of connection points: 5
#     Node 5, Type 0, BuildingBlock: BEQFEK_clean_sbu_0, # of connection points: 5
#     Node 6, Type 0, BuildingBlock: BEQFEK_clean_sbu_0, # of connection points: 5
#     Node 7, Type 0, BuildingBlock: BEQFEK_clean_sbu_0, # of connection points: 5
#     Node 8, Type 0, BuildingBlock: BEQFEK_clean_sbu_0, # of connection points: 5
#     Node 9, Type 0, BuildingBlock: BEQFEK_clean_sbu_0, # of connection points: 5
#     Node 10, Type 0, BuildingBlock: BEQFEK_clean_sbu_0, # of connection points: 5
#     Node 11, Type 0, BuildingBlock: BEQFEK_clean_sbu_0, # of connection points: 5
#     Node 12, Type 0, BuildingBlock: BEQFEK_clean_sbu_0, # of connection points: 5
#     Node 13, Type 0, BuildingBlock: BEQFEK_clean_sbu_0, # of connection points: 5
#     Node 14, Type 0, BuildingBlock: BEQFEK_clean_sbu_0, # of connection points: 5
#     Node 15, Type 0, BuildingBlock: BEQFEK_clean_sbu_0, # of connection points: 5
#     Edge 16, Type (0, 0), BuildingBlock: CIFDUS_clean_linker_0, # of connection points: 2
#     Edge 17, Type (0, 0), BuildingBlock: CIFDUS_clean_linker_0, # of connection points: 2
#     Edge 18, Type (0, 0), BuildingBlock: CIFDUS_clean_linker_0, # of connection points: 2
#     Edge 19, Type (0, 0), BuildingBlock: CIFDUS_clean_linker_0, # of connection points: 2
#     Edge 20, Type (0, 0), BuildingBlock: CIFDUS_clean_linker_0, # of connection points: 2
#     Edge 21, Type (0, 0), BuildingBlock: CIFDUS_clean_linker_0, # of connection points: 2
#     Edge 22, Type (0, 0), BuildingBlock: CIFDUS_clean_linker_0, # of connection points: 2
#     Edge 23, Type (0, 0), BuildingBlock: CIFDUS_clean_linker_0, # of connection points: 2
#     Edge 24, Type (0, 0), BuildingBlock: CIFDUS_clean_linker_0, # of connection points: 2
#     Edge 25, Type (0, 0), BuildingBlock: CIFDUS_clean_linker_0, # of connection points: 2
#     Edge 26, Type (0, 0), BuildingBlock: CIFDUS_clean_linker_0, # of connection points: 2
#     Edge 27, Type (0, 0), BuildingBlock: CIFDUS_clean_linker_0, # of connection points: 2
#     Edge 28, Type (0, 0), BuildingBlock: CIFDUS_clean_linker_0, # of connection points: 2
#     Edge 29, Type (0, 0), BuildingBlock: CIFDUS_clean_linker_0, # of connection points: 2
#     Edge 30, Type (0, 0), BuildingBlock: CIFDUS_clean_linker_0, # of connection points: 2
#     Edge 31, Type (0, 0), BuildingBlock: CIFDUS_clean_linker_0, # of connection points: 2
#     Edge 32, Type (0, 0), BuildingBlock: CIFDUS_clean_linker_0, # of connection points: 2
#     Edge 33, Type (0, 0), BuildingBlock: CIFDUS_clean_linker_0, # of connection points: 2
#     Edge 34, Type (0, 0), BuildingBlock: CIFDUS_clean_linker_0, # of connection points: 2
#     Edge 35, Type (0, 0), BuildingBlock: CIFDUS_clean_linker_0, # of connection points: 2
#     Edge 36, Type (0, 0), BuildingBlock: CIFDUS_clean_linker_0, # of connection points: 2
#     Edge 37, Type (0, 0), BuildingBlock: CIFDUS_clean_linker_0, # of connection points: 2
#     Edge 38, Type (0, 0), BuildingBlock: CIFDUS_clean_linker_0, # of connection points: 2
#     Edge 39, Type (0, 0), BuildingBlock: CIFDUS_clean_linker_0, # of connection points: 2
#     Edge 40, Type (0, 0), BuildingBlock: CIFDUS_clean_linker_0, # of connection points: 2
#     Edge 41, Type (0, 0), BuildingBlock: CIFDUS_clean_linker_0, # of connection points: 2
#     Edge 42, Type (0, 0), BuildingBlock: CIFDUS_clean_linker_0, # of connection points: 2
#     Edge 43, Type (0, 0), BuildingBlock: CIFDUS_clean_linker_0, # of connection points: 2
#     Edge 44, Type (0, 0), BuildingBlock: CIFDUS_clean_linker_0, # of connection points: 2
#     Edge 45, Type (0, 0), BuildingBlock: CIFDUS_clean_linker_0, # of connection points: 2
#     Edge 46, Type (0, 0), BuildingBlock: CIFDUS_clean_linker_0, # of connection points: 2
#     Edge 47, Type (0, 0), BuildingBlock: CIFDUS_clean_linker_0, # of connection points: 2
#     Edge 48, Type (0, 0), BuildingBlock: CIFDUS_clean_linker_0, # of connection points: 2
#     Edge 49, Type (0, 0), BuildingBlock: CIFDUS_clean_linker_0, # of connection points: 2
#     Edge 50, Type (0, 0), BuildingBlock: CIFDUS_clean_linker_0, # of connection points: 2
#     Edge 51, Type (0, 0), BuildingBlock: CIFDUS_clean_linker_0, # of connection points: 2
#     Edge 52, Type (0, 0), BuildingBlock: CIFDUS_clean_linker_0, # of connection points: 2
#     Edge 53, Type (0, 0), BuildingBlock: CIFDUS_clean_linker_0, # of connection points: 2
#     Edge 54, Type (0, 0), BuildingBlock: CIFDUS_clean_linker_0, # of connection points: 2
#     Edge 55, Type (0, 0), BuildingBlock: CIFDUS_clean_linker_0, # of connection points: 2
# Relax obj value: 0.048
# Max RMSD: 0.068
# Mean RMSD: 0.068
data_MOF--net-zfg--node1-BEQFEK_clean_sbu_0--edge1-CIFDUS_clean_linker_0
_symmetry_space_group_name_H-M    P1
_symmetry_Int_Tables_number       1
_symmetry_cell_setting            triclinic
loop_
_symmetry_equiv_pos_as_xyz
'x, y, z'
_cell_length_a     38.355468
_cell_length_b     38.135368
_cell_length_c     50.788319
_cell_angle_alpha  89.961071
_cell_angle_beta   90.051629
_cell_angle_gamma 89.966717
loop_
_atom_site_label
_atom_site_type_symbol
_atom_site_fract_x
_atom_site_fract_y
_atom_site_fract_z
_atom_type_partial_charge
Co0 Co 0.0921 0.2339 0.12725 0.0
Co1 Co 0.04731 0.30306 0.12415 0.0
C2 C 0.09044 0.2794 0.07836 0.0
O3 O 0.1023 0.25277 0.09083 0.0
O4 O 0.06918 0.30068 0.08914 0.0
C5 C 0.14828 0.1798 0.13636 0.0
O6 O 0.1726 0.20405 0.13654 0.0
C7 C 0.02862 0.37797 0.11716 0.0
C8 C 0.98543 0.38338 0.14563 0.0
C9 C 0.00557 0.40214 0.12795 0.0
N10 N 0.0227 0.34651 0.12833 0.0
N11 N 0.99654 0.3499 0.14506 0.0
C12 C 0.0545 0.38385 0.09559 0.0
H13 H 0.0802 0.3728 0.10126 0.0
H14 H 0.05715 0.41194 0.09038 0.0
H15 H 0.04545 0.36952 0.07788 0.0
C16 C 0.11523 0.26925 0.17784 0.0
N17 N 0.09788 0.26814 0.15463 0.0
N18 N 0.08192 0.29831 0.15107 0.0
C19 C 0.09096 0.32048 0.17048 0.0
C20 C 0.11147 0.3027 0.1889 0.0
C21 C 0.13188 0.23783 0.19022 0.0
H22 H 0.12017 0.21343 0.18234 0.0
H23 H 0.16017 0.23784 0.18567 0.0
H24 H 0.12854 0.23831 0.21191 0.0
O25 O 0.04409 0.21806 0.12689 0.0
O26 O 0.01083 0.26542 0.12659 0.0
H27 H 0.05685 0.36419 0.17694 0.0
H28 H 0.10269 0.37429 0.1811 0.0
C29 C 0.08352 0.35905 0.16944 0.0
H30 H 0.08511 0.36829 0.14884 0.0
H31 H 0.98681 0.32947 0.15659 0.0
O32 O 0.11661 0.18854 0.13326 0.0
C33 C 0.01421 0.2322 0.12683 0.0
Co34 Co 0.76453 0.10395 0.13703 0.0
Co35 Co 0.6915 0.06875 0.13976 0.0
C36 C 0.71676 0.09861 0.08956 0.0
O37 O 0.74559 0.10747 0.10022 0.0
O38 O 0.69286 0.08388 0.1029 0.0
C39 C 0.8349 0.12598 0.12981 0.0
O40 O 0.83855 0.0945 0.11966 0.0
C41 C 0.61601 0.054 0.13969 0.0
C42 C 0.61477 0.00833 0.16659 0.0
C43 C 0.59387 0.02989 0.15138 0.0
N44 N 0.64861 0.04711 0.1479 0.0
N45 N 0.64766 0.01979 0.16391 0.0
C46 C 0.60659 0.08197 0.12022 0.0
H47 H 0.62928 0.08929 0.10803 0.0
H48 H 0.59781 0.10574 0.13089 0.0
H49 H 0.58497 0.07304 0.10733 0.0
C50 C 0.73346 0.1451 0.18136 0.0
N51 N 0.73169 0.12029 0.16244 0.0
N52 N 0.70055 0.10591 0.163 0.0
C53 C 0.68146 0.12116 0.18205 0.0
C54 C 0.70156 0.14659 0.19419 0.0
C55 C 0.76503 0.16684 0.18693 0.0
H56 H 0.7707 0.18358 0.16958 0.0
H57 H 0.7612 0.18374 0.20448 0.0
H58 H 0.78783 0.1494 0.19008 0.0
O59 O 0.77884 0.05385 0.14392 0.0
O60 O 0.7257 0.03136 0.14431 0.0
H61 H 0.63544 0.12516 0.20673 0.0
H62 H 0.62759 0.11482 0.17258 0.0
C63 C 0.64528 0.11032 0.18949 0.0
H64 H 0.64501 0.08196 0.19425 0.0
H65 H 0.66953 0.00896 0.17305 0.0
O66 O 0.80541 0.13518 0.13868 0.0
C67 C 0.75849 0.0275 0.14581 0.0
Co68 Co 0.90651 0.78646 0.13681 0.0
Co69 Co 0.93847 0.71085 0.13144 0.0
C70 C 0.9068 0.74608 0.085 0.0
O71 O 0.89905 0.77304 0.09875 0.0
O72 O 0.92196 0.7197 0.09531 0.0
C73 C 0.85289 0.84073 0.14056 0.0
O74 O 0.83046 0.81595 0.13456 0.0
C75 C 0.94945 0.63356 0.1231 0.0
C76 C 0.99038 0.62398 0.15289 0.0
C77 C 0.97033 0.60744 0.13396 0.0
N78 N 0.95665 0.6641 0.13537 0.0
N79 N 0.98124 0.65801 0.15304 0.0
C80 C 0.92419 0.62968 0.1008 0.0
H81 H 0.92113 0.65472 0.09009 0.0
H82 H 0.89835 0.62193 0.10865 0.0
H83 H 0.93307 0.60899 0.08697 0.0
C84 C 0.87028 0.75125 0.18223 0.0
N85 N 0.89094 0.7511 0.16069 0.0
N86 N 0.90184 0.71893 0.15641 0.0
C87 C 0.88636 0.69717 0.1737 0.0
C88 C 0.86635 0.71682 0.19139 0.0
C89 C 0.858 0.78422 0.19523 0.0
H90 H 0.8752 0.80647 0.18992 0.0
H91 H 0.83113 0.79026 0.18849 0.0
H92 H 0.85785 0.78125 0.21696 0.0
O93 O 0.95606 0.79495 0.14243 0.0
O94 O 0.97971 0.74231 0.13798 0.0
H95 H 0.91228 0.64832 0.18087 0.0
H96 H 0.86508 0.64529 0.18033 0.0
C97 C 0.88813 0.65808 0.17131 0.0
H98 H 0.88886 0.65074 0.15026 0.0
H99 H 0.99173 0.6772 0.16536 0.0
O100 O 0.88493 0.83306 0.14293 0.0
C101 C 0.98263 0.77513 0.14213 0.0
Co102 Co 0.22089 0.91039 0.13985 0.0
Co103 Co 0.29497 0.94349 0.14329 0.0
C104 C 0.26972 0.91292 0.09289 0.0
O105 O 0.24042 0.90478 0.10314 0.0
O106 O 0.29339 0.9276 0.10652 0.0
C107 C 0.17574 0.85157 0.13235 0.0
O108 O 0.20369 0.83784 0.12153 0.0
C109 C 0.37099 0.95604 0.14297 0.0
C110 C 0.37359 0.00171 0.16977 0.0
C111 C 0.39379 0.97975 0.15439 0.0
N112 N 0.33866 0.9636 0.15143 0.0
N113 N 0.34046 0.99085 0.16744 0.0
C114 C 0.3796 0.92765 0.12368 0.0
H115 H 0.35638 0.91981 0.11226 0.0
H116 H 0.38911 0.90425 0.13449 0.0
H117 H 0.40051 0.93641 0.11008 0.0
C118 C 0.25051 0.86927 0.18588 0.0
N119 N 0.25285 0.89333 0.16633 0.0
N120 N 0.28413 0.90746 0.16716 0.0
C121 C 0.30248 0.89314 0.18706 0.0
C122 C 0.28192 0.86849 0.19958 0.0
C123 C 0.21858 0.84836 0.192 0.0
H124 H 0.21617 0.82678 0.17748 0.0
H125 H 0.22007 0.83679 0.21204 0.0
H126 H 0.1951 0.86521 0.19041 0.0
O127 O 0.2088 0.96163 0.14554 0.0
O128 O 0.26258 0.9824 0.14733 0.0
H129 H 0.3496 0.88649 0.21028 0.0
H130 H 0.356 0.89926 0.17649 0.0
C131 C 0.33918 0.90281 0.19399 0.0
H132 H 0.34013 0.93077 0.19989 0.0
H133 H 0.31898 0.00214 0.17674 0.0
O134 O 0.17724 0.88258 0.14152 0.0
C135 C 0.22991 0.9873 0.14802 0.0
Co136 Co 0.58168 0.27837 0.38421 0.0
Co137 Co 0.55708 0.20011 0.39019 0.0
C138 C 0.58919 0.23747 0.43533 0.0
O139 O 0.59207 0.26519 0.42142 0.0
O140 O 0.57654 0.20929 0.42573 0.0
C141 C 0.6319 0.33341 0.38648 0.0
O142 O 0.65013 0.30954 0.39912 0.0
C143 C 0.54942 0.12219 0.39689 0.0
C144 C 0.50471 0.11377 0.37012 0.0
C145 C 0.5271 0.09646 0.38711 0.0
N146 N 0.54046 0.15316 0.38598 0.0
N147 N 0.51375 0.14775 0.37005 0.0
C148 C 0.57752 0.11786 0.41708 0.0
H149 H 0.58229 0.14285 0.42754 0.0
H150 H 0.60204 0.11002 0.40711 0.0
H151 H 0.57041 0.09714 0.43146 0.0
C152 C 0.62236 0.24639 0.34027 0.0
N153 N 0.59981 0.2443 0.36058 0.0
N154 N 0.59014 0.21141 0.3636 0.0
C155 C 0.60668 0.19147 0.34563 0.0
C156 C 0.62772 0.21293 0.3303 0.0
C157 C 0.63921 0.27965 0.33122 0.0
H158 H 0.61942 0.30082 0.33001 0.0
H159 H 0.6592 0.28758 0.34583 0.0
H160 H 0.65209 0.27641 0.31184 0.0
O161 O 0.5307 0.28333 0.38 0.0
O162 O 0.51416 0.22838 0.3862 0.0
H163 H 0.57322 0.14785 0.3381 0.0
H164 H 0.61706 0.14169 0.32636 0.0
C165 C 0.60109 0.15286 0.34249 0.0
H166 H 0.60762 0.13942 0.36122 0.0
H167 H 0.50153 0.16742 0.35913 0.0
O168 O 0.60194 0.32541 0.37769 0.0
C169 C 0.50681 0.26038 0.382 0.0
Co170 Co 0.72774 0.59268 0.38211 0.0
Co171 Co 0.80146 0.55787 0.38717 0.0
C172 C 0.7735 0.59657 0.43213 0.0
O173 O 0.74515 0.60257 0.41952 0.0
O174 O 0.79869 0.58016 0.42148 0.0
C175 C 0.68241 0.6532 0.37933 0.0
O176 O 0.71081 0.67053 0.38565 0.0
C177 C 0.87608 0.53531 0.39207 0.0
C178 C 0.87491 0.49016 0.36476 0.0
C179 C 0.89641 0.50857 0.38164 0.0
N180 N 0.84388 0.53278 0.38164 0.0
N181 N 0.84352 0.50573 0.36538 0.0
C182 C 0.88668 0.56153 0.41245 0.0
H183 H 0.86383 0.57026 0.42398 0.0
H184 H 0.89817 0.58477 0.4026 0.0
H185 H 0.90664 0.55022 0.42584 0.0
C186 C 0.76298 0.62148 0.33288 0.0
N187 N 0.76253 0.60335 0.35583 0.0
N188 N 0.79396 0.59088 0.36013 0.0
C189 C 0.81577 0.60225 0.34134 0.0
C190 C 0.79694 0.62127 0.32267 0.0
C191 C 0.73101 0.6362 0.32012 0.0
H192 H 0.70745 0.62212 0.32707 0.0
H193 H 0.72849 0.66429 0.32547 0.0
H194 H 0.73277 0.63412 0.29837 0.0
O195 O 0.71404 0.54241 0.38007 0.0
O196 O 0.76661 0.52006 0.38602 0.0
H197 H 0.86163 0.5713 0.335 0.0
H198 H 0.86851 0.6181 0.33175 0.0
C199 C 0.85449 0.59745 0.3429 0.0
H200 H 0.8629 0.59872 0.36374 0.0
H201 H 0.82163 0.49773 0.35476 0.0
O202 O 0.68415 0.62017 0.37633 0.0
C203 C 0.73402 0.51604 0.38291 0.0
Co204 Co 0.40798 0.72085 0.38165 0.0
Co205 Co 0.44881 0.79166 0.38703 0.0
C206 C 0.41229 0.75941 0.43328 0.0
O207 O 0.40242 0.7335 0.41935 0.0
O208 O 0.42999 0.78432 0.42323 0.0
C209 C 0.34799 0.67718 0.38627 0.0
O210 O 0.33678 0.70317 0.40098 0.0
C211 C 0.46223 0.86771 0.39447 0.0
C212 C 0.51361 0.87278 0.37517 0.0
C213 C 0.48807 0.89188 0.38804 0.0
N214 N 0.47204 0.836 0.38547 0.0
N215 N 0.50286 0.83927 0.37412 0.0
C216 C 0.42967 0.87408 0.41001 0.0
H217 H 0.42101 0.84975 0.41991 0.0
H218 H 0.40851 0.88264 0.39658 0.0
H219 H 0.43399 0.89495 0.42488 0.0
C220 C 0.3708 0.76229 0.34011 0.0
N221 N 0.3953 0.75893 0.35908 0.0
N222 N 0.41314 0.78832 0.36078 0.0
C223 C 0.40109 0.81102 0.3425 0.0
C224 C 0.37351 0.79555 0.32897 0.0
C225 C 0.34399 0.7349 0.33418 0.0
H226 H 0.35715 0.70981 0.32931 0.0
H227 H 0.32781 0.73061 0.35195 0.0
H228 H 0.32641 0.74258 0.31787 0.0
O229 O 0.45737 0.70585 0.37566 0.0
O230 O 0.48548 0.75616 0.38069 0.0
H231 H 0.44609 0.84392 0.33818 0.0
H232 H 0.4105 0.8551 0.31661 0.0
C233 C 0.41735 0.84585 0.33667 0.0
H234 H 0.408 0.8654 0.35116 0.0
H235 H 0.5165 0.81861 0.36545 0.0
O236 O 0.37773 0.67953 0.37538 0.0
C237 C 0.48571 0.7233 0.37642 0.0
Co238 Co 0.26859 0.40944 0.37995 0.0
Co239 Co 0.19706 0.4479 0.38034 0.0
C240 C 0.2225 0.41388 0.42896 0.0
O241 O 0.25034 0.40394 0.41724 0.0
O242 O 0.19893 0.43095 0.41676 0.0
C243 C 0.3192 0.35116 0.38058 0.0
O244 O 0.29418 0.33022 0.38861 0.0
C245 C 0.12411 0.47187 0.3861 0.0
C246 C 0.12001 0.50753 0.35184 0.0
C247 C 0.1017 0.49481 0.37326 0.0
N248 N 0.15435 0.47113 0.37277 0.0
N249 N 0.15169 0.49245 0.35234 0.0
C250 C 0.11842 0.45343 0.41173 0.0
H251 H 0.13676 0.46431 0.4265 0.0
H252 H 0.12447 0.42514 0.40945 0.0
H253 H 0.09147 0.4568 0.41917 0.0
C254 C 0.23533 0.37509 0.33284 0.0
N255 N 0.23502 0.39656 0.35396 0.0
N256 N 0.20378 0.41011 0.35646 0.0
C257 C 0.18228 0.39549 0.33867 0.0
C258 C 0.20156 0.37324 0.3222 0.0
C259 C 0.26823 0.35996 0.3218 0.0
H260 H 0.29105 0.37562 0.32819 0.0
H261 H 0.27153 0.33273 0.3291 0.0
H262 H 0.26745 0.35972 0.29997 0.0
O263 O 0.28308 0.4581 0.37456 0.0
O264 O 0.23248 0.48576 0.37594 0.0
H265 H 0.1358 0.42336 0.3281 0.0
H266 H 0.12977 0.37651 0.33237 0.0
C267 C 0.1435 0.40008 0.33987 0.0
H268 H 0.13526 0.40456 0.36051 0.0
H269 H 0.17173 0.497 0.33888 0.0
O270 O 0.31256 0.3832 0.37605 0.0
C271 C 0.26549 0.48624 0.37373 0.0
Co272 Co 0.91631 0.77116 0.87982 0.0
Co273 Co 0.9561 0.69919 0.88067 0.0
C274 C 0.9198 0.72709 0.92891 0.0
O275 O 0.90946 0.75459 0.91686 0.0
O276 O 0.93762 0.7036 0.91712 0.0
C277 C 0.86189 0.82381 0.88447 0.0
O278 O 0.84572 0.80103 0.89955 0.0
C279 C 0.97305 0.6228 0.88512 0.0
C280 C 0.02062 0.62107 0.86062 0.0
C281 C -0.00098 0.60031 0.87592 0.0
N282 N 0.97921 0.65517 0.87552 0.0
N283 N 0.00767 0.65379 0.86092 0.0
C284 C 0.94387 0.61426 0.90357 0.0
H285 H 0.93455 0.6381 0.91376 0.0
H286 H 0.92173 0.60331 0.89217 0.0
H287 H 0.95233 0.59449 0.91831 0.0
C288 C 0.88146 0.73688 0.83421 0.0
N289 N 0.90379 0.7364 0.85472 0.0
N290 N 0.9201 0.706 0.8552 0.0
C291 C 0.90825 0.68602 0.83519 0.0
C292 C 0.88336 0.70491 0.82121 0.0
C293 C 0.85924 0.76769 0.82705 0.0
H294 H 0.87611 0.79085 0.82352 0.0
H295 H 0.84179 0.77398 0.8438 0.0
H296 H 0.84316 0.76248 0.80931 0.0
O297 O 0.96527 0.78501 0.87513 0.0
O298 O 0.99365 0.73452 0.87629 0.0
H299 H 0.95095 0.65275 0.82486 0.0
H300 H 0.90985 0.63948 0.81065 0.0
C301 C 0.9225 0.65063 0.82841 0.0
H302 H 0.9185 0.63261 0.84528 0.0
H303 H 0.01842 0.67535 0.85122 0.0
O304 O 0.89071 0.81547 0.87397 0.0
C305 C 0.99356 0.76775 0.8743 0.0
Co306 Co 0.22699 0.91023 0.88296 0.0
Co307 Co 0.30073 0.9431 0.89121 0.0
C308 C 0.26571 0.90918 0.93587 0.0
O309 O 0.23942 0.90355 0.92104 0.0
O310 O 0.29327 0.92349 0.92685 0.0
C311 C 0.18411 0.84986 0.88453 0.0
O312 O 0.21184 0.83643 0.89593 0.0
C313 C 0.37522 0.964 0.8992 0.0
C314 C 0.37622 0.0105 0.87314 0.0
C315 C 0.39644 0.99115 0.89038 0.0
N316 N 0.34382 0.9674 0.88761 0.0
N317 N 0.34478 0.99519 0.87206 0.0
C318 C 0.38393 0.93654 0.9192 0.0
H319 H 0.36007 0.92739 0.92936 0.0
H320 H 0.39589 0.91372 0.90911 0.0
H321 H 0.40287 0.94681 0.93382 0.0
C322 C 0.26544 0.87371 0.8395 0.0
N323 N 0.26401 0.89577 0.86026 0.0
N324 N 0.2953 0.90875 0.86447 0.0
C325 C 0.31774 0.89496 0.84688 0.0
C326 C 0.29962 0.87222 0.83045 0.0
C327 C 0.23482 0.85376 0.82906 0.0
H328 H 0.22994 0.83084 0.84198 0.0
H329 H 0.23952 0.84396 0.80884 0.0
H330 H 0.21127 0.87064 0.82922 0.0
O331 O 0.21463 0.96046 0.87713 0.0
O332 O 0.26694 0.9813 0.88646 0.0
H333 H 0.35728 0.93351 0.84074 0.0
H334 H 0.36919 0.89042 0.82933 0.0
C335 C 0.35536 0.90506 0.84502 0.0
H336 H 0.36826 0.90019 0.86423 0.0
H337 H 0.32373 0.00396 0.86081 0.0
O338 O 0.18493 0.88151 0.87671 0.0
C339 C 0.23514 0.98627 0.88068 0.0
Co340 Co 0.08441 0.22313 0.87118 0.0
Co341 Co 0.04353 0.2937 0.87943 0.0
C342 C 0.08638 0.26225 0.92287 0.0
O343 O 0.09464 0.23623 0.90838 0.0
O344 O 0.06729 0.2871 0.9141 0.0
C345 C 0.13998 0.17229 0.8724 0.0
O346 O 0.15517 0.19473 0.88832 0.0
C347 C 0.02502 0.36928 0.88731 0.0
C348 C 0.97425 0.37038 0.86669 0.0
C349 C 0.99752 0.39136 0.88031 0.0
N350 N 0.0182 0.33695 0.87792 0.0
N351 N 0.98774 0.33792 0.86576 0.0
C352 C 0.05645 0.37815 0.90345 0.0
H353 H 0.06659 0.35451 0.91355 0.0
H354 H 0.07726 0.38828 0.89035 0.0
H355 H 0.05008 0.39865 0.9182 0.0
C356 C 0.11343 0.26362 0.82609 0.0
N357 N 0.09326 0.26092 0.84773 0.0
N358 N 0.07559 0.29027 0.85081 0.0
C359 C 0.08368 0.31235 0.83098 0.0
C360 C 0.108 0.2963 0.81477 0.0
C361 C 0.13576 0.23461 0.81573 0.0
H362 H 0.11946 0.211 0.81241 0.0
H363 H 0.15572 0.22774 0.8307 0.0
H364 H 0.14885 0.24213 0.79709 0.0
O365 O 0.03534 0.20812 0.86867 0.0
O366 O 0.00681 0.25752 0.87614 0.0
H367 H 0.03908 0.34521 0.82544 0.0
H368 H 0.0781 0.36114 0.80942 0.0
C369 C 0.06778 0.34784 0.82721 0.0
H370 H 0.07345 0.36425 0.84468 0.0
H371 H 0.9762 0.31635 0.85662 0.0
O372 O 0.11096 0.18033 0.86199 0.0
C373 C 0.00691 0.22477 0.87156 0.0
Co374 Co 0.77172 0.08491 0.88237 0.0
Co375 Co 0.69766 0.05206 0.88968 0.0
C376 C 0.73031 0.08975 0.93365 0.0
O377 O 0.75739 0.09447 0.91952 0.0
O378 O 0.70346 0.07428 0.92449 0.0
C379 C 0.81571 0.14439 0.88413 0.0
O380 O 0.78825 0.1582 0.89559 0.0
C381 C 0.6232 0.03103 0.89745 0.0
C382 C 0.62207 0.98507 0.87089 0.0
C383 C 0.60194 0.00404 0.8884 0.0
N384 N 0.65451 0.02793 0.88571 0.0
N385 N 0.65348 1.00046 0.86988 0.0
C386 C 0.61466 0.05794 0.91788 0.0
H387 H 0.63842 0.06587 0.92871 0.0
H388 H 0.6038 0.08153 0.90804 0.0
H389 H 0.59501 0.04773 0.93196 0.0
C390 C 0.73455 0.12056 0.83791 0.0
N391 N 0.73569 0.09805 0.85841 0.0
N392 N 0.70433 0.08498 0.86218 0.0
C393 C 0.68214 0.09916 0.84458 0.0
C394 C 0.70049 0.12226 0.82862 0.0
C395 C 0.76505 0.1415 0.82845 0.0
H396 H 0.78893 0.1251 0.82872 0.0
H397 H 0.76905 0.16406 0.84188 0.0
H398 H 0.76074 0.15189 0.80832 0.0
O399 O 0.78407 0.03436 0.87908 0.0
O400 O 0.73147 0.01353 0.88739 0.0
H401 H 0.64167 0.06152 0.83868 0.0
H402 H 0.63071 0.10477 0.82707 0.0
C403 C 0.64428 0.08993 0.84282 0.0
H404 H 0.6316 0.09522 0.86203 0.0
H405 H 0.67452 0.99193 0.85854 0.0
O406 O 0.81429 0.11285 0.87613 0.0
C407 C 0.76362 0.00859 0.88289 0.0
Co408 Co 0.41056 0.72938 0.63805 0.0
Co409 Co 0.44618 0.80214 0.63883 0.0
C410 C 0.41421 0.77732 0.58969 0.0
O411 O 0.40612 0.74849 0.601 0.0
O412 O 0.42919 0.80185 0.60237 0.0
C413 C 0.3501 0.68646 0.63207 0.0
O414 O 0.33636 0.71512 0.6221 0.0
C415 C 0.47189 0.87423 0.63446 0.0
C416 C 0.50825 0.87577 0.66835 0.0
C417 C 0.49581 0.89529 0.6474 0.0
N418 N 0.47027 0.84356 0.64731 0.0
N419 N 0.4921 0.84456 0.66744 0.0
C420 C 0.45353 0.88129 0.609 0.0
H421 H 0.4625 0.86194 0.59421 0.0
H422 H 0.42506 0.87759 0.61169 0.0
H423 H 0.45892 0.90793 0.6013 0.0
C424 C 0.3723 0.76227 0.68383 0.0
N425 N 0.39571 0.76285 0.66393 0.0
N426 N 0.40991 0.7942 0.66299 0.0
C427 C 0.39545 0.81478 0.68153 0.0
C428 C 0.37127 0.79525 0.69545 0.0
C429 C 0.35126 0.73092 0.69154 0.0
H430 H 0.36721 0.70678 0.68963 0.0
H431 H 0.32852 0.7287 0.67814 0.0
H432 H 0.3415 0.7334 0.71203 0.0
O433 O 0.45991 0.71419 0.64401 0.0
O434 O 0.48282 0.76717 0.64219 0.0
H435 H 0.43091 0.85313 0.6963 0.0
H436 H 0.38583 0.86586 0.69873 0.0
C437 C 0.40527 0.85223 0.68622 0.0
H438 H 0.4077 0.86615 0.66713 0.0
H439 H 0.49622 0.82371 0.68039 0.0
O440 O 0.38138 0.68704 0.64028 0.0
C441 C 0.48638 0.73428 0.64437 0.0
Co442 Co 0.27668 0.41497 0.63701 0.0
Co443 Co 0.20577 0.45392 0.63009 0.0
C444 C 0.23918 0.41449 0.58527 0.0
O445 O 0.26506 0.40567 0.59956 0.0
O446 O 0.21417 0.43264 0.59467 0.0
C447 C 0.3291 0.36167 0.63514 0.0
O448 O 0.30776 0.34634 0.61849 0.0
C449 C 0.12994 0.4643 0.62252 0.0
C450 C 0.12369 0.51764 0.63889 0.0
C451 C 0.10527 0.49023 0.62763 0.0
N452 N 0.16123 0.47595 0.63067 0.0
N453 N 0.15728 0.50789 0.64028 0.0
C454 C 0.12454 0.42977 0.60912 0.0
H455 H 0.14904 0.42059 0.59991 0.0
H456 H 0.11656 0.40992 0.6239 0.0
H457 H 0.10379 0.43187 0.59395 0.0
C458 C 0.23778 0.38101 0.68072 0.0
N459 N 0.23953 0.40298 0.65998 0.0
N460 N 0.20996 0.42028 0.6579 0.0
C461 C 0.18868 0.41041 0.67775 0.0
C462 C 0.2055 0.38498 0.69285 0.0
C463 C 0.26639 0.35625 0.68825 0.0
H464 H 0.27616 0.34275 0.67041 0.0
H465 H 0.25738 0.3362 0.70252 0.0
H466 H 0.28831 0.37132 0.69692 0.0
O467 O 0.28934 0.46476 0.64097 0.0
O468 O 0.23935 0.49262 0.63508 0.0
H469 H 0.14652 0.42321 0.70446 0.0
H470 H 0.13417 0.41687 0.67053 0.0
C471 C 0.15452 0.42766 0.68374 0.0
H472 H 0.15645 0.45626 0.68028 0.0
H473 H 0.17753 0.52298 0.64801 0.0
O474 O 0.32 0.3901 0.64607 0.0
C475 C 0.27197 0.49306 0.63942 0.0
Co476 Co 0.58761 0.27025 0.63888 0.0
Co477 Co 0.55474 0.19617 0.63815 0.0
C478 C 0.59097 0.22207 0.59101 0.0
O479 O 0.59672 0.25145 0.60235 0.0
O480 O 0.57572 0.19708 0.60301 0.0
C481 C 0.64274 0.32204 0.63582 0.0
O482 O 0.66134 0.29757 0.62425 0.0
C483 C 0.5344 0.12233 0.63367 0.0
C484 C 0.49166 0.12075 0.66297 0.0
C485 C 0.50901 0.10085 0.64441 0.0
N486 N 0.53199 0.1537 0.64541 0.0
N487 N 0.50651 0.1526 0.66289 0.0
C488 C 0.55812 0.1148 0.611 0.0
H489 H 0.58508 0.12295 0.61606 0.0
H490 H 0.55772 0.08678 0.60527 0.0
H491 H 0.54962 0.1307 0.59386 0.0
C492 C 0.62478 0.23861 0.68547 0.0
N493 N 0.60167 0.2376 0.66538 0.0
N494 N 0.58801 0.20601 0.6643 0.0
C495 C 0.60233 0.18577 0.68312 0.0
C496 C 0.62601 0.20571 0.6972 0.0
C497 C 0.64608 0.26996 0.69271 0.0
H498 H 0.62955 0.29383 0.69226 0.0
H499 H 0.66722 0.27328 0.67803 0.0
H500 H 0.65796 0.26687 0.71251 0.0
O501 O 0.53732 0.28245 0.64186 0.0
O502 O 0.51592 0.22899 0.63846 0.0
H503 H 0.61113 0.13549 0.70205 0.0
H504 H 0.59574 0.13364 0.66836 0.0
C505 C 0.59368 0.14791 0.68732 0.0
H506 H 0.56639 0.14572 0.69432 0.0
H507 H 0.49887 0.17388 0.67444 0.0
O508 O 0.61202 0.31512 0.64344 0.0
C509 C 0.51145 0.26176 0.64032 0.0
Co510 Co 0.72255 0.5827 0.64 0.0
Co511 Co 0.79909 0.55739 0.63065 0.0
C512 C 0.76012 0.59313 0.58781 0.0
O513 O 0.73337 0.59557 0.60262 0.0
O514 O 0.78846 0.57964 0.59623 0.0
C515 C 0.66891 0.63391 0.64305 0.0
O516 O 0.69308 0.65415 0.63279 0.0
C517 C 0.8757 0.54894 0.6213 0.0
C518 C 0.88505 0.50269 0.64664 0.0
C519 C 0.90159 0.52594 0.62986 0.0
N520 N 0.84544 0.53959 0.63277 0.0
N521 N 0.85134 0.5119 0.64776 0.0
C522 C 0.87912 0.57823 0.60187 0.0
H523 H 0.854 0.58304 0.59176 0.0
H524 H 0.88654 0.60255 0.61246 0.0
H525 H 0.89951 0.57218 0.58706 0.0
C526 C 0.7567 0.6164 0.68654 0.0
N527 N 0.75774 0.59804 0.66385 0.0
N528 N 0.79013 0.58839 0.65926 0.0
C529 C 0.81082 0.60112 0.67849 0.0
C530 C 0.79036 0.61923 0.69646 0.0
C531 C 0.72396 0.63011 0.69877 0.0
H532 H 0.71474 0.65307 0.68729 0.0
H533 H 0.72826 0.63842 0.71945 0.0
H534 H 0.70337 0.60972 0.698 0.0
O535 O 0.71681 0.5316 0.64214 0.0
O536 O 0.77062 0.51427 0.63353 0.0
H537 H 0.86138 0.60914 0.69671 0.0
H538 H 0.86197 0.59997 0.66178 0.0
C539 C 0.84903 0.59373 0.68072 0.0
H540 H 0.85292 0.56545 0.68486 0.0
H541 H 0.83224 0.49928 0.6589 0.0
O542 O 0.67638 0.60239 0.64867 0.0
C543 C 0.7389 0.50729 0.63841 0.0
H544 H 0.0829 0.31613 0.95805 0.0
H545 H 0.11235 0.20724 0.95145 0.0
H546 H 0.1207 0.20391 0.99902 0.0
H547 H 0.11279 0.23004 0.04306 0.0
H548 H 0.08367 0.339 0.04924 0.0
H549 H 0.08254 0.34419 1.00148 0.0
C550 C 0.09157 0.29177 0.96695 0.0
C551 C 0.09641 0.26188 0.95115 0.0
C552 C 0.0962 0.28993 0.99438 0.0
C553 C 0.10817 0.23067 0.96306 0.0
C554 C 0.11287 0.22867 0.99035 0.0
C555 C 0.107 0.25511 0.03397 0.0
C556 C 0.0976 0.28389 0.04981 0.0
C557 C 0.10601 0.25787 1.00631 0.0
C558 C 0.09025 0.31621 0.03761 0.0
C559 C 0.08959 0.31923 0.01022 0.0
H560 H 0.678 0.08459 0.9697 0.0
H561 H 0.78516 0.11739 0.96119 0.0
H562 H 0.78943 0.12647 1.0086 0.0
H563 H 0.76462 0.11941 0.05291 0.0
H564 H 0.6577 0.08562 0.06116 0.0
H565 H 0.65154 0.08306 0.01351 0.0
C566 C 0.7022 0.09411 0.97813 0.0
C567 C 0.73132 0.09978 0.96186 0.0
C568 C 0.70466 0.09893 1.00547 0.0
C569 C 0.76234 0.1125 0.97319 0.0
C570 C 0.76488 0.11764 1.00037 0.0
C571 C 0.73981 0.11199 0.04431 0.0
C572 C 0.71186 0.10229 0.06071 0.0
C573 C 0.73648 0.11008 0.01678 0.0
C574 C 0.67983 0.09291 0.04912 0.0
C575 C 0.67624 0.09135 0.02181 0.0
H576 H 0.89303 0.7759 0.96294 0.0
H577 H 0.9328 0.66997 0.95983 0.0
H578 H 0.92926 0.66567 1.00758 0.0
H579 H 0.91977 0.69332 0.0503 0.0
H580 H 0.88145 0.79966 0.05419 0.0
H581 H 0.87922 0.80219 1.0061 0.0
C582 C 0.90051 0.7517 0.97266 0.0
C583 C 0.91348 0.72343 0.95768 0.0
C584 C 0.89889 0.7495 1.00032 0.0
C585 C 0.92298 0.69228 0.97073 0.0
C586 C 0.92101 0.68978 0.99811 0.0
C587 C 0.91052 0.71699 0.04075 0.0
C588 C 0.90109 0.74635 0.056 0.0
C589 C 0.90977 0.71846 0.01313 0.0
C590 C 0.88901 0.77666 0.04306 0.0
C591 C 0.88784 0.77819 0.01551 0.0
H592 H 0.31536 0.9185 0.97373 0.0
H593 H 0.20919 0.8838 0.96278 0.0
H594 H 0.20177 0.87913 0.01036 0.0
H595 H 0.22375 0.88985 0.05529 0.0
H596 H 0.32983 0.92525 0.06572 0.0
H597 H 0.33879 0.92434 0.01835 0.0
C598 C 0.29069 0.90952 0.98167 0.0
C599 C 0.26281 0.90192 0.96457 0.0
C600 C 0.2864 0.90721 1.00911 0.0
C601 C 0.23113 0.89007 0.97537 0.0
C602 C 0.22677 0.88746 1.00265 0.0
C603 C 0.24896 0.89694 0.04724 0.0
C604 C 0.27588 0.90796 0.06421 0.0
C605 C 0.25398 0.89673 0.01976 0.0
C606 C 0.30844 0.91691 0.05329 0.0
C607 C 0.31366 0.91646 0.0261 0.0
H608 H 0.58954 0.18374 0.47078 0.0
H609 H 0.60853 0.29499 0.46401 0.0
H610 H 0.615 0.29937 0.51165 0.0
H611 H 0.6087 0.27289 0.55554 0.0
H612 H 0.58902 0.16176 0.56211 0.0
H613 H 0.58988 0.15615 0.51437 0.0
C614 C 0.5955 0.2089 0.47965 0.0
C615 C 0.59795 0.23904 0.46378 0.0
C616 C 0.59888 0.21136 0.50713 0.0
C617 C 0.60616 0.27133 0.47569 0.0
C618 C 0.60981 0.27392 0.503 0.0
C619 C 0.60525 0.24732 0.54658 0.0
C620 C 0.59818 0.21794 0.56248 0.0
C621 C 0.60527 0.24429 0.51898 0.0
C622 C 0.59396 0.18498 0.55043 0.0
C623 C 0.59439 0.1817 0.52306 0.0
H624 H 0.72126 0.60963 0.4677 0.0
H625 H 0.83318 0.60203 0.46074 0.0
H626 H 0.83914 0.60376 0.5084 0.0
H627 H 0.81252 0.60015 0.55205 0.0
H628 H 0.70069 0.60728 0.55971 0.0
H629 H 0.69493 0.61352 0.51205 0.0
C630 C 0.74697 0.60917 0.47659 0.0
C631 C 0.77665 0.60511 0.46058 0.0
C632 C 0.7503 0.60966 0.50425 0.0
C633 C 0.8098 0.60458 0.47252 0.0
C634 C 0.81329 0.60552 0.49985 0.0
C635 C 0.78689 0.60354 0.54338 0.0
C636 C 0.7571 0.60267 0.5595 0.0
C637 C 0.78369 0.60681 0.51592 0.0
C638 C 0.72414 0.60762 0.54784 0.0
C639 C 0.72076 0.61107 0.52051 0.0
H640 H 0.39089 0.72848 0.55434 0.0
H641 H 0.42686 0.83552 0.55973 0.0
H642 H 0.4274 0.84013 0.51196 0.0
H643 H 0.42256 0.8124 0.46853 0.0
H644 H 0.38615 0.70555 0.46288 0.0
H645 H 0.38062 0.70254 0.51066 0.0
C646 C 0.39841 0.75298 0.54511 0.0
C647 C 0.40938 0.78138 0.56078 0.0
C648 C 0.39886 0.7555 0.51745 0.0
C649 C 0.41876 0.813 0.54832 0.0
C650 C 0.41911 0.81571 0.52091 0.0
C651 C 0.41312 0.78853 0.4777 0.0
C652 C 0.40525 0.75914 0.46205 0.0
C653 C 0.41006 0.78687 0.50526 0.0
C654 C 0.39262 0.72859 0.47435 0.0
C655 C 0.38951 0.72677 0.50175 0.0
H656 H 0.1864 0.42213 0.54973 0.0
H657 H 0.29346 0.38825 0.55635 0.0
H658 H 0.29696 0.38181 0.50863 0.0
H659 H 0.27137 0.3913 0.46461 0.0
H660 H 0.16413 0.42486 0.45848 0.0
H661 H 0.15906 0.42558 0.50619 0.0
C662 C 0.21041 0.41298 0.5408 0.0
C663 C 0.23972 0.40617 0.55669 0.0
C664 C 0.21237 0.40948 0.51328 0.0
C665 C 0.27048 0.3939 0.54469 0.0
C666 C 0.27258 0.3903 0.51732 0.0
C667 C 0.24672 0.39823 0.47368 0.0
C668 C 0.2184 0.40863 0.45782 0.0
C669 C 0.24395 0.39882 0.50135 0.0
C670 C 0.18662 0.41733 0.47005 0.0
C671 C 0.18362 0.41775 0.49743 0.0
H672 H 0.16475 0.0144 0.13758 0.0
H673 H 0.26793 0.04352 0.16371 0.0
H674 H 0.25188 0.10504 0.16285 0.0
H675 H 0.2099 0.15136 0.15239 0.0
H676 H 0.10634 0.12329 0.1268 0.0
H677 H 0.12117 0.06117 0.12978 0.0
C678 C 0.18352 0.03418 0.14343 0.0
C679 C 0.21758 0.02413 0.15044 0.0
C680 C 0.17422 0.06999 0.14274 0.0
C681 C 0.24159 0.05029 0.15794 0.0
C682 C 0.2325 0.08566 0.15744 0.0
C683 C 0.19055 0.13167 0.14751 0.0
C684 C 0.15722 0.14209 0.13917 0.0
C685 C 0.19914 0.0959 0.1494 0.0
C686 C 0.13232 0.11611 0.13322 0.0
C687 C 0.14075 0.08048 0.13491 0.0
H688 H 0.9024 0.11193 0.1185 0.0
H689 H 0.83397 0.19555 0.1431 0.0
H690 H 0.8831 0.23635 0.1439 0.0
H691 H 0.94596 0.2482 0.13763 0.0
H692 H 0.01363 0.16315 0.11423 0.0
H693 H 0.96441 0.12327 0.11293 0.0
C694 C 0.89817 0.13908 0.12401 0.0
C695 C 0.8646 0.15065 0.13063 0.0
C696 C 0.92648 0.16227 0.12465 0.0
C697 C 0.85963 0.18591 0.1379 0.0
C698 C 0.8877 0.2093 0.13834 0.0
C699 C 0.94984 0.22097 0.1322 0.0
C700 C 0.98347 0.2088 0.12608 0.0
C701 C 0.9213 0.19778 0.13173 0.0
C702 C 0.9881 0.17332 0.11921 0.0
C703 C 0.95994 0.15038 0.11839 0.0
H704 H 0.82663 0.00457 0.14488 0.0
H705 H 0.72038 0.96804 0.15195 0.0
H706 H 0.74013 0.90772 0.15153 0.0
H707 H 0.78684 0.86468 0.14694 0.0
H708 H 0.89343 0.89974 0.14091 0.0
H709 H 0.87429 0.9608 0.14327 0.0
C710 C 0.80788 0.98343 0.1466 0.0
C711 C 0.77205 0.99113 0.14819 0.0
C712 C 0.81938 0.94829 0.14637 0.0
C713 C 0.74814 0.96321 0.15049 0.0
C714 C 0.75935 0.92849 0.15023 0.0
C715 C 0.80591 0.88566 0.14622 0.0
C716 C 0.84141 0.87762 0.14351 0.0
C717 C 0.7948 0.92068 0.14776 0.0
C718 C 0.86584 0.90516 0.14294 0.0
C719 C 0.85493 0.94015 0.14424 0.0
H720 H 0.11432 0.87219 0.15391 0.0
H721 H 0.1635 0.78487 0.11467 0.0
H722 H 0.10878 0.75212 0.11609 0.0
H723 H 0.04592 0.74954 0.12647 0.0
H724 H 0.99718 0.83805 0.16457 0.0
H725 H 0.05277 0.86877 0.16582 0.0
C726 C 0.11318 0.84595 0.14573 0.0
C727 C 0.14294 0.83117 0.13403 0.0
C728 C 0.08162 0.82738 0.14644 0.0
C729 C 0.14095 0.79702 0.12368 0.0
C730 C 0.10965 0.77822 0.1245 0.0
C731 C 0.04761 0.77534 0.13535 0.0
C732 C 0.01738 0.7915 0.14529 0.0
C733 C 0.07968 0.79328 0.13558 0.0
C734 C 0.01997 0.82507 0.15659 0.0
C735 C 0.05176 0.84273 0.1573 0.0
H736 H 0.66753 0.49418 0.37156 0.0
H737 H 0.76883 0.45627 0.39573 0.0
H738 H 0.74636 0.39688 0.39851 0.0
H739 H 0.69801 0.35555 0.39519 0.0
H740 H 0.59679 0.39204 0.3701 0.0
H741 H 0.61923 0.45186 0.36648 0.0
C742 C 0.68467 0.47292 0.37738 0.0
C743 C 0.71978 0.4799 0.38354 0.0
C744 C 0.67165 0.43845 0.37882 0.0
C745 C 0.74167 0.45187 0.39088 0.0
C746 C 0.72887 0.41777 0.39253 0.0
C747 C 0.68083 0.37655 0.38889 0.0
C748 C 0.64576 0.36935 0.3831 0.0
C749 C 0.6939 0.41077 0.38671 0.0
C750 C 0.62395 0.39686 0.3747 0.0
C751 C 0.63673 0.43111 0.37267 0.0
H752 H 0.55048 0.75223 0.3792 0.0
H753 H 0.49793 0.65324 0.36792 0.0
H754 H 0.55416 0.62308 0.36665 0.0
H755 H 0.61815 0.62448 0.37076 0.0
H756 H 0.67014 0.72356 0.38295 0.0
H757 H 0.61416 0.75391 0.38176 0.0
C758 C 0.55119 0.72406 0.37629 0.0
C759 C 0.51984 0.70508 0.37376 0.0
C760 C 0.58357 0.70683 0.37585 0.0
C761 C 0.52153 0.66858 0.36997 0.0
C762 C 0.55372 0.65128 0.36929 0.0
C763 C 0.6173 0.65274 0.373 0.0
C764 C 0.64842 0.67164 0.37707 0.0
C765 C 0.5849 0.67008 0.37252 0.0
C766 C 0.6467 0.70827 0.3799 0.0
C767 C 0.61465 0.72569 0.37923 0.0
H768 H 0.24145 0.55114 0.38669 0.0
H769 H 0.33172 0.4971 0.35619 0.0
H770 H 0.36445 0.55192 0.3558 0.0
H771 H 0.3686 0.61441 0.36645 0.0
H772 H 0.27949 0.66804 0.39913 0.0
H773 H 0.24516 0.61424 0.39623 0.0
C774 C 0.26815 0.55145 0.37968 0.0
C775 C 0.28412 0.52007 0.37153 0.0
C776 C 0.28713 0.58295 0.38005 0.0
C777 C 0.31885 0.52086 0.36271 0.0
C778 C 0.33762 0.55219 0.36248 0.0
C779 C 0.34158 0.61442 0.37274 0.0
C780 C 0.32667 0.64516 0.38307 0.0
C781 C 0.3222 0.58327 0.37148 0.0
C782 C 0.29167 0.64468 0.39125 0.0
C783 C 0.272 0.61393 0.38958 0.0
H784 H 0.34399 0.28459 0.38755 0.0
H785 H 0.37632 0.38975 0.3675 0.0
H786 H 0.43675 0.37073 0.36525 0.0
H787 H 0.48089 0.32505 0.37062 0.0
H788 H 0.44917 0.21964 0.39036 0.0
H789 H 0.38824 0.23798 0.39089 0.0
C790 C 0.36423 0.30329 0.38257 0.0
C791 C 0.35554 0.33857 0.37791 0.0
C792 C 0.39916 0.29221 0.38128 0.0
C793 C 0.38215 0.36242 0.37132 0.0
C794 C 0.41682 0.35161 0.37002 0.0
C795 C 0.46068 0.30601 0.37492 0.0
C796 C 0.46972 0.27111 0.38062 0.0
C797 C 0.42568 0.31668 0.37524 0.0
C798 C 0.44306 0.24676 0.38597 0.0
C799 C 0.40814 0.25721 0.38633 0.0
H800 H 0.79737 0.84779 0.89719 0.0
H801 H 0.89541 0.88054 0.86361 0.0
H802 H 0.87386 0.94056 0.85981 0.0
H803 H 0.82759 0.98434 0.86727 0.0
H804 H 0.72911 0.9505 0.89974 0.0
H805 H 0.75044 0.89063 0.90261 0.0
C806 C 0.81399 0.86802 0.88897 0.0
C807 C 0.84797 0.85969 0.88087 0.0
C808 C 0.8014 0.90246 0.88667 0.0
C809 C 0.86908 0.8862 0.87002 0.0
C810 C 0.85683 0.9206 0.86789 0.0
C811 C 0.81081 0.96385 0.87491 0.0
C812 C 0.7769 0.9721 0.88338 0.0
C813 C 0.82311 0.92913 0.87636 0.0
C814 C 0.75538 0.94507 0.89304 0.0
C815 C 0.76753 0.91071 0.89477 0.0
H816 H 0.12027 0.87256 0.86888 0.0
H817 H 0.17586 0.77975 0.89364 0.0
H818 H 0.12216 0.74555 0.89095 0.0
H819 H 0.05889 0.74269 0.88369 0.0
H820 H 0.00316 0.83626 0.86065 0.0
H821 H 0.05753 0.86936 0.86041 0.0
C822 C 0.12073 0.8448 0.87352 0.0
C823 C 0.15201 0.82879 0.88155 0.0
C824 C 0.0897 0.82542 0.87231 0.0
C825 C 0.1521 0.79279 0.88754 0.0
C826 C 0.1214 0.77319 0.886 0.0
C827 C 0.05867 0.77024 0.87837 0.0
C828 C 0.02696 0.78696 0.87229 0.0
C829 C 0.08997 0.78933 0.87871 0.0
C830 C 0.02716 0.82274 0.86556 0.0
C831 C 0.05824 0.84173 0.86542 0.0
H832 H 0.17341 0.01074 0.86032 0.0
H833 H 0.26878 0.04459 0.8978 0.0
H834 H 0.24859 0.10492 0.89736 0.0
H835 H 0.20322 0.14815 0.88808 0.0
H836 H 0.10818 0.1156 0.84973 0.0
H837 H 0.12905 0.05511 0.84852 0.0
C838 C 0.18975 0.03134 0.86832 0.0
C839 C 0.22244 0.02294 0.87922 0.0
C840 C 0.17814 0.06638 0.86784 0.0
C841 C 0.24346 0.0501 0.88929 0.0
C842 C 0.23197 0.08475 0.88909 0.0
C843 C 0.18716 0.12789 0.87927 0.0
C844 C 0.15413 0.13641 0.8692 0.0
C845 C 0.19927 0.09317 0.87864 0.0
C846 C 0.13377 0.10982 0.85766 0.0
C847 C 0.1456 0.07513 0.85706 0.0
H848 H 0.87895 0.12106 0.86756 0.0
H849 H 0.82531 0.21397 0.89436 0.0
H850 H 0.87943 0.24741 0.89161 0.0
H851 H 0.9423 0.24971 0.88328 0.0
H852 H 0.99629 0.15631 0.85774 0.0
H853 H 0.94159 0.12371 0.85824 0.0
C854 C 0.87903 0.14868 0.87265 0.0
C855 C 0.84815 0.16495 0.88124 0.0
C856 C 0.91031 0.16766 0.87133 0.0
C857 C 0.84874 0.20074 0.8878 0.0
C858 C 0.87968 0.2199 0.88624 0.0
C859 C 0.94213 0.22228 0.87765 0.0
C860 C 0.97344 0.2055 0.87056 0.0
C861 C 0.91068 0.20354 0.87828 0.0
C862 C 0.97265 0.1699 0.86339 0.0
C863 C 0.94137 0.15119 0.86366 0.0
H864 H 0.37296 0.62264 0.64805 0.0
H865 H 0.28149 0.67652 0.61928 0.0
H866 H 0.24864 0.62163 0.62035 0.0
H867 H 0.24663 0.55802 0.62793 0.0
H868 H 0.33893 0.5043 0.65548 0.0
H869 H 0.37063 0.55965 0.65653 0.0
C870 C 0.34579 0.62248 0.6421 0.0
C871 C 0.32975 0.65362 0.6335 0.0
C872 C 0.32721 0.59087 0.64252 0.0
C873 C 0.29452 0.65289 0.62588 0.0
C874 C 0.27571 0.62152 0.6265 0.0
C875 C 0.27361 0.55843 0.63435 0.0
C876 C 0.29038 0.52701 0.64154 0.0
C877 C 0.29189 0.5903 0.63458 0.0
C878 C 0.32539 0.52804 0.64972 0.0
C879 C 0.34358 0.55969 0.65033 0.0
H880 H 0.35247 0.29644 0.62375 0.0
H881 H 0.38488 0.39535 0.65689 0.0
H882 H 0.44436 0.37337 0.66167 0.0
H883 H 0.48775 0.32649 0.65493 0.0
H884 H 0.45404 0.22707 0.62317 0.0
H885 H 0.3947 0.24883 0.61941 0.0
C886 C 0.37252 0.31313 0.63211 0.0
C887 C 0.36436 0.34747 0.63976 0.0
C888 C 0.40655 0.30029 0.63497 0.0
C889 C 0.39051 0.36871 0.65085 0.0
C890 C 0.42458 0.35624 0.6535 0.0
C891 C 0.46738 0.30964 0.64724 0.0
C892 C 0.47541 0.27534 0.63922 0.0
C893 C 0.433 0.32216 0.64537 0.0
C894 C 0.44864 0.25363 0.62954 0.0
C895 C 0.41462 0.26602 0.62731 0.0
H896 H 0.70864 0.34544 0.626 0.0
H897 H 0.60766 0.37929 0.65376 0.0
H898 H 0.62891 0.43912 0.65791 0.0
H899 H 0.67522 0.48232 0.65218 0.0
H900 H 0.77655 0.44906 0.62485 0.0
H901 H 0.7561 0.38857 0.62224 0.0
C902 C 0.69134 0.36589 0.63303 0.0
C903 C 0.65658 0.35789 0.63936 0.0
C904 C 0.70372 0.4004 0.63546 0.0
C905 C 0.63455 0.38467 0.64865 0.0
C906 C 0.64664 0.41897 0.65104 0.0
C907 C 0.69292 0.46186 0.64575 0.0
C908 C 0.72726 0.47032 0.63854 0.0
C909 C 0.68104 0.42718 0.64426 0.0
C910 C 0.74992 0.44335 0.63047 0.0
C911 C 0.73824 0.40872 0.6289 0.0
H912 H 0.50754 0.66596 0.65123 0.0
H913 H 0.54656 0.77145 0.64116 0.0
H914 H 0.60594 0.74986 0.64083 0.0
H915 H 0.64715 0.7013 0.64138 0.0
H916 H 0.60982 0.59562 0.65232 0.0
H917 H 0.54978 0.61705 0.65454 0.0
C918 C 0.52905 0.68418 0.64912 0.0
C919 C 0.52235 0.72022 0.64601 0.0
C920 C 0.56359 0.67163 0.64904 0.0
C921 C 0.55067 0.74351 0.64348 0.0
C922 C 0.58482 0.73125 0.64325 0.0
C923 C 0.62591 0.68294 0.64436 0.0
C924 C 0.63291 0.64697 0.64645 0.0
C925 C 0.59158 0.69539 0.64569 0.0
C926 C 0.60512 0.62354 0.65062 0.0
C927 C 0.57075 0.63574 0.65181 0.0
H928 H 0.14738 0.39107 0.28956 0.0
H929 H 0.22742 0.31234 0.2989 0.0
H930 H 0.20961 0.28568 0.25741 0.0
H931 H 0.17062 0.28529 0.21807 0.0
H932 H 0.07785 0.34954 0.22068 0.0
H933 H 0.10028 0.38031 0.25869 0.0
C934 C 0.16018 0.3671 0.28374 0.0
C935 C 0.18923 0.35449 0.29784 0.0
C936 C 0.14735 0.34931 0.26161 0.0
C937 C 0.20605 0.32415 0.28826 0.0
C938 C 0.19538 0.30827 0.26464 0.0
C939 C 0.15472 0.30531 0.2272 0.0
C940 C 0.12345 0.31649 0.21505 0.0
C941 C 0.16598 0.32072 0.25105 0.0
C942 C 0.10332 0.34217 0.22793 0.0
C943 C 0.11579 0.35946 0.25014 0.0
H944 H 0.72103 0.13887 0.2449 0.0
H945 H 0.65675 0.20125 0.19352 0.0
H946 H 0.63021 0.23035 0.23158 0.0
H947 H 0.62086 0.23309 0.27955 0.0
H948 H 0.68271 0.16822 0.33095 0.0
H949 H 0.71482 0.14495 0.29307 0.0
C950 C 0.70186 0.1595 0.24221 0.0
C951 C 0.69097 0.16841 0.21671 0.0
C952 C 0.68602 0.17519 0.26419 0.0
C953 C 0.66564 0.19451 0.21313 0.0
C954 C 0.65035 0.21087 0.23484 0.0
C955 C 0.64186 0.21438 0.28235 0.0
C956 C 0.64959 0.20225 0.30778 0.0
C957 C 0.65965 0.20074 0.26047 0.0
C958 C 0.67645 0.17773 0.3114 0.0
C959 C 0.69472 0.16446 0.2898 0.0
H960 H 0.77812 0.68089 0.29438 0.0
H961 H 0.845 0.58984 0.29118 0.0
H962 H 0.87509 0.61385 0.25342 0.0
H963 H 0.88457 0.66167 0.22277 0.0
H964 H 0.80676 0.74289 0.21563 0.0
H965 H 0.77951 0.72262 0.25639 0.0
C966 C 0.79873 0.66589 0.28516 0.0
C967 C 0.81051 0.63441 0.29685 0.0
C968 C 0.81437 0.6785 0.26177 0.0
C969 C 0.83688 0.61527 0.28402 0.0
C970 C 0.85388 0.62872 0.26204 0.0
C971 C 0.86077 0.67428 0.22912 0.0
C972 C 0.84808 0.70394 0.21568 0.0
C973 C 0.8432 0.66054 0.251 0.0
C974 C 0.8181 0.72066 0.2257 0.0
C975 C 0.80203 0.70869 0.24889 0.0
H976 H 0.35517 0.7685 0.28103 0.0
H977 H 0.34281 0.85966 0.33031 0.0
H978 H 0.31059 0.88943 0.29529 0.0
H979 H 0.28935 0.89102 0.2495 0.0
H980 H 0.29937 0.79947 0.20062 0.0
H981 H 0.32795 0.76776 0.23681 0.0
C982 C 0.34467 0.79454 0.28429 0.0
C983 C 0.35148 0.81192 0.3082 0.0
C984 C 0.32558 0.81129 0.26418 0.0
C985 C 0.33831 0.84593 0.31195 0.0
C986 C 0.31973 0.8629 0.292 0.0
C987 C 0.29704 0.86382 0.24713 0.0
C988 C 0.29214 0.84732 0.22271 0.0
C989 C 0.31364 0.84604 0.2679 0.0
C990 C 0.30256 0.81235 0.21948 0.0
C991 C 0.31916 0.79442 0.24006 0.0
H992 H 0.83712 0.65231 0.81306 0.0
H993 H 0.89228 0.73524 0.77343 0.0
H994 H 0.8673 0.717 0.73114 0.0
H995 H 0.8316 0.67558 0.70519 0.0
H996 H 0.77497 0.59378 0.74493 0.0
H997 H 0.79823 0.61335 0.78746 0.0
C998 C 0.84335 0.6664 0.79511 0.0
C999 C 0.86646 0.69492 0.79612 0.0
C1000 C 0.82861 0.65593 0.77098 0.0
C1001 C 0.87443 0.71324 0.77294 0.0
C1002 C 0.86024 0.70277 0.74883 0.0
C1003 C 0.82414 0.66244 0.72328 0.0
C1004 C 0.80167 0.63343 0.72216 0.0
C1005 C 0.83755 0.67395 0.74757 0.0
C1006 C 0.7921 0.61634 0.74553 0.0
C1007 C 0.80552 0.62742 0.76975 0.0
H1008 H 0.38272 0.7821 0.74705 0.0
H1009 H 0.31433 0.83711 0.69398 0.0
H1010 H 0.28438 0.86456 0.73131 0.0
H1011 H 0.28082 0.87631 0.77903 0.0
H1012 H 0.35046 0.82275 0.83209 0.0
H1013 H 0.37698 0.79139 0.79504 0.0
C1014 C 0.3608 0.79958 0.74385 0.0
C1015 C 0.35031 0.80744 0.71803 0.0
C1016 C 0.34433 0.8158 0.7654 0.0
C1017 C 0.32239 0.83054 0.71383 0.0
C1018 C 0.30549 0.84635 0.73512 0.0
C1019 C 0.30143 0.85733 0.7824 0.0
C1020 C 0.31373 0.85167 0.80812 0.0
C1021 C 0.31665 0.83968 0.76098 0.0
C1022 C 0.34075 0.82748 0.81236 0.0
C1023 C 0.35584 0.80957 0.79122 0.0
H1024 H 0.17295 0.32085 0.80529 0.0
H1025 H 0.07351 0.30241 0.7685 0.0
H1026 H 0.09513 0.32719 0.72703 0.0
H1027 H 0.14221 0.35519 0.70156 0.0
H1028 H 0.24042 0.37736 0.73932 0.0
H1029 H 0.21983 0.34979 0.77992 0.0
C1030 C 0.15627 0.32214 0.78805 0.0
C1031 C 0.12189 0.30977 0.78963 0.0
C1032 C 0.16871 0.33705 0.76452 0.0
C1033 C 0.10015 0.31173 0.76747 0.0
C1034 C 0.11248 0.32593 0.74386 0.0
C1035 C 0.15898 0.35409 0.71875 0.0
C1036 C 0.19287 0.368 0.71739 0.0
C1037 C 0.14665 0.3389 0.7422 0.0
C1038 C 0.21444 0.36625 0.73973 0.0
C1039 C 0.20261 0.3507 0.76301 0.0
H1040 H 0.61607 0.21698 0.74909 0.0
H1041 H 0.68375 0.16532 0.69379 0.0
H1042 H 0.71485 0.13638 0.72999 0.0
H1043 H 0.71906 0.12176 0.7772 0.0
H1044 H 0.65005 0.17186 0.83244 0.0
H1045 H 0.62299 0.20542 0.79667 0.0
C1046 C 0.63815 0.19997 0.74518 0.0
C1047 C 0.64806 0.19338 0.71908 0.0
C1048 C 0.65523 0.18284 0.76605 0.0
C1049 C 0.67616 0.1709 0.7139 0.0
C1050 C 0.6937 0.15422 0.73453 0.0
C1051 C 0.6985 0.14049 0.78133 0.0
C1052 C 0.6864 0.14445 0.80723 0.0
C1053 C 0.68295 0.15938 0.76065 0.0
C1054 C 0.65952 0.1684 0.81251 0.0
C1055 C 0.64412 0.18756 0.79212 0.0
H1056 H 0.02705 0.5657 0.13204 0.0
H1057 H 0.91506 0.56353 0.12486 0.0
H1058 H 0.91639 0.49977 0.12032 0.0
H1059 H 0.94923 0.44408 0.12173 0.0
H1060 H 0.06103 0.44648 0.13013 0.0
H1061 H 0.06008 0.51053 0.13073 0.0
C1062 C 0.00299 0.55124 0.12916 0.0
C1063 C 0.97107 0.56934 0.12842 0.0
C1064 C 0.00396 0.51458 0.12685 0.0
C1065 C 0.94006 0.55037 0.12479 0.0
C1066 C 0.94077 0.51383 0.12251 0.0
C1067 C 0.97336 0.45877 0.12326 0.0
C1068 C 0.00521 0.44072 0.12527 0.0
C1069 C 0.97253 0.49561 0.1239 0.0
C1070 C 0.03632 0.45985 0.12767 0.0
C1071 C 0.03574 0.49645 0.12834 0.0
H1072 H 0.43044 0.03935 0.15047 0.0
H1073 H 0.44196 0.92684 0.1523 0.0
H1074 H 0.50516 0.93279 0.14942 0.0
H1075 H 0.55712 0.97013 0.149 0.0
H1076 H 0.54558 0.08265 0.14992 0.0
H1077 H 0.48232 0.07664 0.14893 0.0
C1078 C 0.44686 0.01617 0.15007 0.0
C1079 C 0.4317 0.98275 0.15113 0.0
C1080 C 0.48307 0.01983 0.14892 0.0
C1081 C 0.45302 0.95283 0.15068 0.0
C1082 C 0.48916 0.95623 0.14936 0.0
C1083 C 0.54067 0.99329 0.1488 0.0
C1084 C 0.55584 0.02674 0.14903 0.0
C1085 C 0.50442 0.9896 0.14878 0.0
C1086 C 0.53449 0.05663 0.14887 0.0
C1087 C 0.49832 0.05321 0.14865 0.0
H1088 H 0.46972 0.05596 0.38864 0.0
H1089 H 0.58168 0.05091 0.39586 0.0
H1090 H 0.57879 0.98712 0.39941 0.0
H1091 H 0.54476 0.93249 0.39663 0.0
H1092 H 0.43325 0.93812 0.38596 0.0
H1093 H 0.43562 0.00179 0.38781 0.0
C1094 C 0.49349 0.04092 0.39128 0.0
C1095 C 0.52581 0.05827 0.39234 0.0
C1096 C 0.49168 0.00426 0.39262 0.0
C1097 C 0.55637 0.03844 0.39572 0.0
C1098 C 0.55476 0.00186 0.3974 0.0
C1099 C 0.52093 0.94768 0.39502 0.0
C1100 C 0.48879 0.93041 0.39174 0.0
C1101 C 0.52261 0.98447 0.39537 0.0
C1102 C 0.45818 0.95045 0.38948 0.0
C1103 C 0.45958 0.98701 0.39014 0.0
H1104 H 0.94987 0.55508 0.38242 0.0
H1105 H 0.9262 0.44488 0.38831 0.0
H1106 H 0.98841 0.43084 0.38893 0.0
H1107 H 0.04916 0.44964 0.38346 0.0
H1108 H 0.07273 0.55952 0.37503 0.0
H1109 H 0.01092 0.57418 0.37988 0.0
C1110 C 0.9584 0.52813 0.38462 0.0
C1111 C 0.93369 0.50105 0.38568 0.0
C1112 C 0.99413 0.52025 0.38423 0.0
C1113 C 0.94495 0.4661 0.38757 0.0
C1114 C 0.98043 0.45808 0.38787 0.0
C1115 C 0.04077 0.47681 0.38346 0.0
C1116 C 0.06524 0.50356 0.37938 0.0
C1117 C 0.00522 0.48488 0.38564 0.0
C1118 C 0.05414 0.53861 0.37836 0.0
C1119 C 0.01889 0.54696 0.38109 0.0
H1120 H 0.94963 0.54899 0.88269 0.0
H1121 H 0.06069 0.56562 0.87772 0.0
H1122 H 0.07064 0.50256 0.88043 0.0
H1123 H 0.04753 0.44268 0.88077 0.0
H1124 H 0.93659 0.42617 0.8871 0.0
H1125 H 0.92692 0.48939 0.88771 0.0
C1126 C 0.97605 0.5391 0.88315 0.0
C1127 C 0.00435 0.56223 0.88041 0.0
C1128 C 0.98164 0.50274 0.88477 0.0
C1129 C 0.03838 0.54844 0.87981 0.0
C1130 C 0.04414 0.51236 0.88139 0.0
C1131 C 0.02136 0.45275 0.88324 0.0
C1132 C 0.9929 0.42959 0.88428 0.0
C1133 C 0.01593 0.4892 0.88349 0.0
C1134 C 0.959 0.44341 0.88631 0.0
C1135 C 0.95341 0.47958 0.88663 0.0
H1136 H 0.54861 0.05023 0.89543 0.0
H1137 H 0.57274 0.9398 0.89359 0.0
H1138 H 0.51086 0.92554 0.89714 0.0
H1139 H 0.44985 0.94465 0.89576 0.0
H1140 H 0.42578 0.05511 0.89652 0.0
H1141 H 0.48778 0.06924 0.89883 0.0
C1142 C 0.54046 0.02309 0.89672 0.0
C1143 C 0.56518 0.99612 0.89453 0.0
C1144 C 0.50482 0.0151 0.89833 0.0
C1145 C 0.55407 0.96102 0.89524 0.0
C1146 C 0.51873 0.95283 0.89725 0.0
C1147 C 0.4581 0.97173 0.89735 0.0
C1148 C 0.43334 0.99878 0.89622 0.0
C1149 C 0.49381 0.97967 0.89815 0.0
C1150 C 0.4445 0.03384 0.89735 0.0
C1151 C 0.4799 0.04195 0.89863 0.0
H1152 H 0.45125 0.94816 0.63748 0.0
H1153 H 0.56027 0.9242 0.64758 0.0
H1154 H 0.57477 0.98659 0.64454 0.0
H1155 H 0.55544 0.04791 0.64337 0.0
H1156 H 0.4461 0.07165 0.6351 0.0
H1157 H 0.43247 0.00908 0.63256 0.0
C1158 C 0.47825 0.95659 0.63812 0.0
C1159 C 0.5048 0.93195 0.64221 0.0
C1160 C 0.48618 0.9923 0.63683 0.0
C1161 C 0.53956 0.94302 0.64421 0.0
C1162 C 0.54781 0.97854 0.64251 0.0
C1163 C 0.52882 0.03926 0.64017 0.0
C1164 C 0.50179 0.06391 0.63898 0.0
C1165 C 0.52122 0.00342 0.63936 0.0
C1166 C 0.46721 0.05277 0.63586 0.0
C1167 C 0.45945 0.01715 0.63449 0.0
H1168 H 0.94262 0.46877 0.62799 0.0
H1169 H 0.94592 0.58147 0.62052 0.0
H1170 H 0.00911 0.57936 0.61597 0.0
H1171 H 0.0638 0.54604 0.61823 0.0
H1172 H 0.0603 0.4341 0.63073 0.0
H1173 H 0.99701 0.43537 0.62896 0.0
C1174 C 0.95713 0.49288 0.62508 0.0
C1175 C 0.93939 0.52515 0.62411 0.0
C1176 C 0.99355 0.49159 0.62346 0.0
C1177 C 0.95857 0.55614 0.62045 0.0
C1178 C 0.99487 0.55501 0.61824 0.0
C1179 C 0.04918 0.52184 0.62027 0.0
C1180 C 0.06697 0.48992 0.62399 0.0
C1181 C 0.01264 0.52294 0.62025 0.0
C1182 C 0.04764 0.45886 0.62681 0.0
C1183 C 0.01127 0.45963 0.62622 0.0
loop_
_geom_bond_atom_site_label_1
_geom_bond_atom_site_label_2
_geom_bond_distance
_geom_bond_site_symmetry_2
_ccdc_geom_bond_type
Co0 O3 1.970 . S
Co0 N17 1.989 . S
Co0 O25 1.967 . S
Co0 O32 1.920 . S
Co1 O4 1.966 . S
Co1 N10 2.022 . S
Co1 N18 1.993 . S
Co1 O26 1.941 . S
C2 O3 1.258 . S
C2 O4 1.263 . S
O3 Co0 1.970 . S
O3 C2 1.258 . S
O4 Co1 1.966 . S
O4 C2 1.263 . S
C5 O6 1.235 . S
C5 O32 1.289 . S
O6 C5 1.235 . S
C7 C9 1.400 . S
C7 N10 1.351 . S
C7 C12 1.501 . S
C8 C9 1.387 . S
C8 N11 1.341 . S
C9 C7 1.400 . S
C9 C8 1.387 . S
N10 Co1 2.022 . S
N10 C7 1.351 . S
N10 N11 1.365 . S
N11 C8 1.341 . S
N11 N10 1.365 . S
N11 H31 0.870 . S
C12 C7 1.501 . S
C12 H13 0.961 . S
C12 H14 0.961 . S
C12 H15 0.960 . S
H13 C12 0.961 . S
H14 C12 0.961 . S
H15 C12 0.960 . S
C16 N17 1.342 . S
C16 C20 1.401 . S
C16 C21 1.499 . S
N17 Co0 1.989 . S
N17 C16 1.342 . S
N17 N18 1.388 . S
N18 Co1 1.993 . S
N18 N17 1.388 . S
N18 C19 1.346 . S
C19 N18 1.346 . S
C19 C20 1.396 . S
C19 C29 1.510 . S
C20 C16 1.401 . S
C20 C19 1.396 . S
C21 C16 1.499 . S
C21 H22 0.959 . S
C21 H23 0.960 . S
C21 H24 0.961 . S
H22 C21 0.959 . S
H23 C21 0.960 . S
H24 C21 0.961 . S
O25 Co0 1.967 . S
O25 C33 1.258 . S
O26 Co1 1.941 . S
O26 C33 1.266 . S
H27 C29 0.959 . S
H28 C29 0.961 . S
C29 C19 1.510 . S
C29 H27 0.959 . S
C29 H28 0.961 . S
C29 H30 0.960 . S
H30 C29 0.960 . S
H31 N11 0.870 . S
O32 Co0 1.920 . S
O32 C5 1.289 . S
C33 O25 1.258 . S
C33 O26 1.266 . S
Co34 O37 1.970 . S
Co34 N51 1.989 . S
Co34 O59 1.967 . S
Co34 O66 1.920 . S
Co35 O38 1.966 . S
Co35 N44 2.022 . S
Co35 N52 1.993 . S
Co35 O60 1.941 . S
C36 O37 1.258 . S
C36 O38 1.263 . S
O37 Co34 1.970 . S
O37 C36 1.258 . S
O38 Co35 1.966 . S
O38 C36 1.263 . S
C39 O40 1.235 . S
C39 O66 1.289 . S
O40 C39 1.235 . S
C41 C43 1.400 . S
C41 N44 1.351 . S
C41 C46 1.501 . S
C42 C43 1.387 . S
C42 N45 1.341 . S
C43 C41 1.400 . S
C43 C42 1.387 . S
N44 Co35 2.022 . S
N44 C41 1.351 . S
N44 N45 1.365 . S
N45 C42 1.341 . S
N45 N44 1.365 . S
N45 H65 0.870 . S
C46 C41 1.501 . S
C46 H47 0.961 . S
C46 H48 0.961 . S
C46 H49 0.960 . S
H47 C46 0.961 . S
H48 C46 0.961 . S
H49 C46 0.960 . S
C50 N51 1.342 . S
C50 C54 1.401 . S
C50 C55 1.499 . S
N51 Co34 1.989 . S
N51 C50 1.342 . S
N51 N52 1.388 . S
N52 Co35 1.993 . S
N52 N51 1.388 . S
N52 C53 1.346 . S
C53 N52 1.346 . S
C53 C54 1.396 . S
C53 C63 1.510 . S
C54 C50 1.401 . S
C54 C53 1.396 . S
C55 C50 1.499 . S
C55 H56 0.959 . S
C55 H57 0.960 . S
C55 H58 0.961 . S
H56 C55 0.959 . S
H57 C55 0.960 . S
H58 C55 0.961 . S
O59 Co34 1.967 . S
O59 C67 1.258 . S
O60 Co35 1.941 . S
O60 C67 1.266 . S
H61 C63 0.959 . S
H62 C63 0.961 . S
C63 C53 1.510 . S
C63 H61 0.959 . S
C63 H62 0.961 . S
C63 H64 0.960 . S
H64 C63 0.960 . S
H65 N45 0.870 . S
O66 Co34 1.920 . S
O66 C39 1.289 . S
C67 O59 1.258 . S
C67 O60 1.266 . S
Co68 O71 1.970 . S
Co68 N85 1.989 . S
Co68 O93 1.967 . S
Co68 O100 1.920 . S
Co69 O72 1.966 . S
Co69 N78 2.022 . S
Co69 N86 1.993 . S
Co69 O94 1.941 . S
C70 O71 1.258 . S
C70 O72 1.263 . S
O71 Co68 1.970 . S
O71 C70 1.258 . S
O72 Co69 1.966 . S
O72 C70 1.263 . S
C73 O74 1.235 . S
C73 O100 1.289 . S
O74 C73 1.235 . S
C75 C77 1.400 . S
C75 N78 1.351 . S
C75 C80 1.501 . S
C76 C77 1.387 . S
C76 N79 1.341 . S
C77 C75 1.400 . S
C77 C76 1.387 . S
N78 Co69 2.022 . S
N78 C75 1.351 . S
N78 N79 1.365 . S
N79 C76 1.341 . S
N79 N78 1.365 . S
N79 H99 0.870 . S
C80 C75 1.501 . S
C80 H81 0.961 . S
C80 H82 0.961 . S
C80 H83 0.960 . S
H81 C80 0.961 . S
H82 C80 0.961 . S
H83 C80 0.960 . S
C84 N85 1.342 . S
C84 C88 1.401 . S
C84 C89 1.499 . S
N85 Co68 1.989 . S
N85 C84 1.342 . S
N85 N86 1.388 . S
N86 Co69 1.993 . S
N86 N85 1.388 . S
N86 C87 1.346 . S
C87 N86 1.346 . S
C87 C88 1.396 . S
C87 C97 1.510 . S
C88 C84 1.401 . S
C88 C87 1.396 . S
C89 C84 1.499 . S
C89 H90 0.959 . S
C89 H91 0.960 . S
C89 H92 0.961 . S
H90 C89 0.959 . S
H91 C89 0.960 . S
H92 C89 0.961 . S
O93 Co68 1.967 . S
O93 C101 1.258 . S
O94 Co69 1.941 . S
O94 C101 1.266 . S
H95 C97 0.959 . S
H96 C97 0.961 . S
C97 C87 1.510 . S
C97 H95 0.959 . S
C97 H96 0.961 . S
C97 H98 0.960 . S
H98 C97 0.960 . S
H99 N79 0.870 . S
O100 Co68 1.920 . S
O100 C73 1.289 . S
C101 O93 1.258 . S
C101 O94 1.266 . S
Co102 O105 1.970 . S
Co102 N119 1.989 . S
Co102 O127 1.967 . S
Co102 O134 1.920 . S
Co103 O106 1.966 . S
Co103 N112 2.022 . S
Co103 N120 1.993 . S
Co103 O128 1.941 . S
C104 O105 1.258 . S
C104 O106 1.263 . S
O105 Co102 1.970 . S
O105 C104 1.258 . S
O106 Co103 1.966 . S
O106 C104 1.263 . S
C107 O108 1.235 . S
C107 O134 1.289 . S
O108 C107 1.235 . S
C109 C111 1.400 . S
C109 N112 1.351 . S
C109 C114 1.501 . S
C110 C111 1.387 . S
C110 N113 1.341 . S
C111 C109 1.400 . S
C111 C110 1.387 . S
N112 Co103 2.022 . S
N112 C109 1.351 . S
N112 N113 1.365 . S
N113 C110 1.341 . S
N113 N112 1.365 . S
N113 H133 0.870 . S
C114 C109 1.501 . S
C114 H115 0.961 . S
C114 H116 0.961 . S
C114 H117 0.960 . S
H115 C114 0.961 . S
H116 C114 0.961 . S
H117 C114 0.960 . S
C118 N119 1.342 . S
C118 C122 1.401 . S
C118 C123 1.499 . S
N119 Co102 1.989 . S
N119 C118 1.342 . S
N119 N120 1.388 . S
N120 Co103 1.993 . S
N120 N119 1.388 . S
N120 C121 1.346 . S
C121 N120 1.346 . S
C121 C122 1.396 . S
C121 C131 1.510 . S
C122 C118 1.401 . S
C122 C121 1.396 . S
C123 C118 1.499 . S
C123 H124 0.959 . S
C123 H125 0.960 . S
C123 H126 0.961 . S
H124 C123 0.959 . S
H125 C123 0.960 . S
H126 C123 0.961 . S
O127 Co102 1.967 . S
O127 C135 1.258 . S
O128 Co103 1.941 . S
O128 C135 1.266 . S
H129 C131 0.959 . S
H130 C131 0.961 . S
C131 C121 1.510 . S
C131 H129 0.959 . S
C131 H130 0.961 . S
C131 H132 0.960 . S
H132 C131 0.960 . S
H133 N113 0.870 . S
O134 Co102 1.920 . S
O134 C107 1.289 . S
C135 O127 1.258 . S
C135 O128 1.266 . S
Co136 O139 1.970 . S
Co136 N153 1.989 . S
Co136 O161 1.967 . S
Co136 O168 1.920 . S
Co137 O140 1.966 . S
Co137 N146 2.022 . S
Co137 N154 1.993 . S
Co137 O162 1.941 . S
C138 O139 1.258 . S
C138 O140 1.263 . S
O139 Co136 1.970 . S
O139 C138 1.258 . S
O140 Co137 1.966 . S
O140 C138 1.263 . S
C141 O142 1.235 . S
C141 O168 1.289 . S
O142 C141 1.235 . S
C143 C145 1.400 . S
C143 N146 1.351 . S
C143 C148 1.501 . S
C144 C145 1.387 . S
C144 N147 1.341 . S
C145 C143 1.400 . S
C145 C144 1.387 . S
N146 Co137 2.022 . S
N146 C143 1.351 . S
N146 N147 1.365 . S
N147 C144 1.341 . S
N147 N146 1.365 . S
N147 H167 0.862 . S
C148 C143 1.501 . S
C148 H149 0.961 . S
C148 H150 0.961 . S
C148 H151 0.960 . S
H149 C148 0.961 . S
H150 C148 0.961 . S
H151 C148 0.960 . S
C152 N153 1.342 . S
C152 C156 1.401 . S
C152 C157 1.499 . S
N153 Co136 1.989 . S
N153 C152 1.342 . S
N153 N154 1.388 . S
N154 Co137 1.993 . S
N154 N153 1.388 . S
N154 C155 1.346 . S
C155 N154 1.346 . S
C155 C156 1.396 . S
C155 C165 1.510 . S
C156 C152 1.401 . S
C156 C155 1.396 . S
C157 C152 1.499 . S
C157 H158 0.959 . S
C157 H159 0.960 . S
C157 H160 0.961 . S
H158 C157 0.959 . S
H159 C157 0.960 . S
H160 C157 0.961 . S
O161 Co136 1.967 . S
O161 C169 1.258 . S
O162 Co137 1.941 . S
O162 C169 1.266 . S
H163 C165 0.959 . S
H164 C165 0.961 . S
C165 C155 1.510 . S
C165 H163 0.959 . S
C165 H164 0.961 . S
C165 H166 0.960 . S
H166 C165 0.960 . S
H167 N147 0.862 . S
O168 Co136 1.920 . S
O168 C141 1.289 . S
C169 O161 1.258 . S
C169 O162 1.266 . S
Co170 O173 1.970 . S
Co170 N187 1.989 . S
Co170 O195 1.967 . S
Co170 O202 1.920 . S
Co171 O174 1.966 . S
Co171 N180 2.022 . S
Co171 N188 1.993 . S
Co171 O196 1.941 . S
C172 O173 1.258 . S
C172 O174 1.263 . S
O173 Co170 1.970 . S
O173 C172 1.258 . S
O174 Co171 1.966 . S
O174 C172 1.263 . S
C175 O176 1.235 . S
C175 O202 1.289 . S
O176 C175 1.235 . S
C177 C179 1.400 . S
C177 N180 1.351 . S
C177 C182 1.501 . S
C178 C179 1.387 . S
C178 N181 1.341 . S
C179 C177 1.400 . S
C179 C178 1.387 . S
N180 Co171 2.022 . S
N180 C177 1.351 . S
N180 N181 1.365 . S
N181 C178 1.341 . S
N181 N180 1.365 . S
N181 H201 0.862 . S
C182 C177 1.501 . S
C182 H183 0.961 . S
C182 H184 0.961 . S
C182 H185 0.960 . S
H183 C182 0.961 . S
H184 C182 0.961 . S
H185 C182 0.960 . S
C186 N187 1.342 . S
C186 C190 1.401 . S
C186 C191 1.499 . S
N187 Co170 1.989 . S
N187 C186 1.342 . S
N187 N188 1.388 . S
N188 Co171 1.993 . S
N188 N187 1.388 . S
N188 C189 1.346 . S
C189 N188 1.346 . S
C189 C190 1.396 . S
C189 C199 1.510 . S
C190 C186 1.401 . S
C190 C189 1.396 . S
C191 C186 1.499 . S
C191 H192 0.959 . S
C191 H193 0.960 . S
C191 H194 0.961 . S
H192 C191 0.959 . S
H193 C191 0.960 . S
H194 C191 0.961 . S
O195 Co170 1.967 . S
O195 C203 1.258 . S
O196 Co171 1.941 . S
O196 C203 1.266 . S
H197 C199 0.959 . S
H198 C199 0.961 . S
C199 C189 1.510 . S
C199 H197 0.959 . S
C199 H198 0.961 . S
C199 H200 0.960 . S
H200 C199 0.960 . S
H201 N181 0.862 . S
O202 Co170 1.920 . S
O202 C175 1.289 . S
C203 O195 1.258 . S
C203 O196 1.266 . S
Co204 O207 1.970 . S
Co204 N221 1.989 . S
Co204 O229 1.967 . S
Co204 O236 1.920 . S
Co205 O208 1.966 . S
Co205 N214 2.022 . S
Co205 N222 1.993 . S
Co205 O230 1.941 . S
C206 O207 1.258 . S
C206 O208 1.263 . S
O207 Co204 1.970 . S
O207 C206 1.258 . S
O208 Co205 1.966 . S
O208 C206 1.263 . S
C209 O210 1.235 . S
C209 O236 1.289 . S
O210 C209 1.235 . S
C211 C213 1.400 . S
C211 N214 1.351 . S
C211 C216 1.501 . S
C212 C213 1.387 . S
C212 N215 1.341 . S
C213 C211 1.400 . S
C213 C212 1.387 . S
N214 Co205 2.022 . S
N214 C211 1.351 . S
N214 N215 1.365 . S
N215 C212 1.341 . S
N215 N214 1.365 . S
N215 H235 0.862 . S
C216 C211 1.501 . S
C216 H217 0.961 . S
C216 H218 0.961 . S
C216 H219 0.960 . S
H217 C216 0.961 . S
H218 C216 0.961 . S
H219 C216 0.960 . S
C220 N221 1.342 . S
C220 C224 1.401 . S
C220 C225 1.499 . S
N221 Co204 1.989 . S
N221 C220 1.342 . S
N221 N222 1.388 . S
N222 Co205 1.993 . S
N222 N221 1.388 . S
N222 C223 1.346 . S
C223 N222 1.346 . S
C223 C224 1.396 . S
C223 C233 1.510 . S
C224 C220 1.401 . S
C224 C223 1.396 . S
C225 C220 1.499 . S
C225 H226 0.959 . S
C225 H227 0.960 . S
C225 H228 0.961 . S
H226 C225 0.959 . S
H227 C225 0.960 . S
H228 C225 0.961 . S
O229 Co204 1.967 . S
O229 C237 1.258 . S
O230 Co205 1.941 . S
O230 C237 1.266 . S
H231 C233 0.959 . S
H232 C233 0.961 . S
C233 C223 1.510 . S
C233 H231 0.959 . S
C233 H232 0.961 . S
C233 H234 0.960 . S
H234 C233 0.960 . S
H235 N215 0.862 . S
O236 Co204 1.920 . S
O236 C209 1.289 . S
C237 O229 1.258 . S
C237 O230 1.266 . S
Co238 O241 1.970 . S
Co238 N255 1.989 . S
Co238 O263 1.967 . S
Co238 O270 1.920 . S
Co239 O242 1.966 . S
Co239 N248 2.022 . S
Co239 N256 1.993 . S
Co239 O264 1.941 . S
C240 O241 1.258 . S
C240 O242 1.263 . S
O241 Co238 1.970 . S
O241 C240 1.258 . S
O242 Co239 1.966 . S
O242 C240 1.263 . S
C243 O244 1.235 . S
C243 O270 1.289 . S
O244 C243 1.235 . S
C245 C247 1.400 . S
C245 N248 1.351 . S
C245 C250 1.501 . S
C246 C247 1.387 . S
C246 N249 1.341 . S
C247 C245 1.400 . S
C247 C246 1.387 . S
N248 Co239 2.022 . S
N248 C245 1.351 . S
N248 N249 1.365 . S
N249 C246 1.341 . S
N249 N248 1.365 . S
N249 H269 0.862 . S
C250 C245 1.501 . S
C250 H251 0.961 . S
C250 H252 0.961 . S
C250 H253 0.960 . S
H251 C250 0.961 . S
H252 C250 0.961 . S
H253 C250 0.960 . S
C254 N255 1.342 . S
C254 C258 1.401 . S
C254 C259 1.499 . S
N255 Co238 1.989 . S
N255 C254 1.342 . S
N255 N256 1.388 . S
N256 Co239 1.993 . S
N256 N255 1.388 . S
N256 C257 1.346 . S
C257 N256 1.346 . S
C257 C258 1.396 . S
C257 C267 1.510 . S
C258 C254 1.401 . S
C258 C257 1.396 . S
C259 C254 1.499 . S
C259 H260 0.959 . S
C259 H261 0.960 . S
C259 H262 0.961 . S
H260 C259 0.959 . S
H261 C259 0.960 . S
H262 C259 0.961 . S
O263 Co238 1.967 . S
O263 C271 1.258 . S
O264 Co239 1.941 . S
O264 C271 1.266 . S
H265 C267 0.959 . S
H266 C267 0.961 . S
C267 C257 1.510 . S
C267 H265 0.959 . S
C267 H266 0.961 . S
C267 H268 0.960 . S
H268 C267 0.960 . S
H269 N249 0.862 . S
O270 Co238 1.920 . S
O270 C243 1.289 . S
C271 O263 1.258 . S
C271 O264 1.266 . S
Co272 O275 1.970 . S
Co272 N289 1.989 . S
Co272 O297 1.967 . S
Co272 O304 1.920 . S
Co273 O276 1.966 . S
Co273 N282 2.022 . S
Co273 N290 1.993 . S
Co273 O298 1.941 . S
C274 O275 1.258 . S
C274 O276 1.263 . S
O275 Co272 1.970 . S
O275 C274 1.258 . S
O276 Co273 1.966 . S
O276 C274 1.263 . S
C277 O278 1.235 . S
C277 O304 1.289 . S
O278 C277 1.235 . S
C279 C281 1.400 . S
C279 N282 1.351 . S
C279 C284 1.501 . S
C280 C281 1.387 . S
C280 N283 1.341 . S
C281 C279 1.400 . S
C281 C280 1.387 . S
N282 Co273 2.022 . S
N282 C279 1.351 . S
N282 N283 1.365 . S
N283 C280 1.341 . S
N283 N282 1.365 . S
N283 H303 0.870 . S
C284 C279 1.501 . S
C284 H285 0.961 . S
C284 H286 0.961 . S
C284 H287 0.960 . S
H285 C284 0.961 . S
H286 C284 0.961 . S
H287 C284 0.960 . S
C288 N289 1.342 . S
C288 C292 1.401 . S
C288 C293 1.499 . S
N289 Co272 1.989 . S
N289 C288 1.342 . S
N289 N290 1.388 . S
N290 Co273 1.993 . S
N290 N289 1.388 . S
N290 C291 1.346 . S
C291 N290 1.346 . S
C291 C292 1.396 . S
C291 C301 1.510 . S
C292 C288 1.401 . S
C292 C291 1.396 . S
C293 C288 1.499 . S
C293 H294 0.959 . S
C293 H295 0.960 . S
C293 H296 0.961 . S
H294 C293 0.959 . S
H295 C293 0.960 . S
H296 C293 0.961 . S
O297 Co272 1.967 . S
O297 C305 1.258 . S
O298 Co273 1.941 . S
O298 C305 1.266 . S
H299 C301 0.959 . S
H300 C301 0.961 . S
C301 C291 1.510 . S
C301 H299 0.959 . S
C301 H300 0.961 . S
C301 H302 0.960 . S
H302 C301 0.960 . S
H303 N283 0.870 . S
O304 Co272 1.920 . S
O304 C277 1.289 . S
C305 O297 1.258 . S
C305 O298 1.266 . S
Co306 O309 1.970 . S
Co306 N323 1.989 . S
Co306 O331 1.967 . S
Co306 O338 1.920 . S
Co307 O310 1.966 . S
Co307 N316 2.022 . S
Co307 N324 1.993 . S
Co307 O332 1.941 . S
C308 O309 1.258 . S
C308 O310 1.263 . S
O309 Co306 1.970 . S
O309 C308 1.258 . S
O310 Co307 1.966 . S
O310 C308 1.263 . S
C311 O312 1.235 . S
C311 O338 1.289 . S
O312 C311 1.235 . S
C313 C315 1.400 . S
C313 N316 1.351 . S
C313 C318 1.501 . S
C314 C315 1.387 . S
C314 N317 1.341 . S
C315 C313 1.400 . S
C315 C314 1.387 . S
N316 Co307 2.022 . S
N316 C313 1.351 . S
N316 N317 1.365 . S
N317 C314 1.341 . S
N317 N316 1.365 . S
N317 H337 0.870 . S
C318 C313 1.501 . S
C318 H319 0.961 . S
C318 H320 0.961 . S
C318 H321 0.960 . S
H319 C318 0.961 . S
H320 C318 0.961 . S
H321 C318 0.960 . S
C322 N323 1.342 . S
C322 C326 1.401 . S
C322 C327 1.499 . S
N323 Co306 1.989 . S
N323 C322 1.342 . S
N323 N324 1.388 . S
N324 Co307 1.993 . S
N324 N323 1.388 . S
N324 C325 1.346 . S
C325 N324 1.346 . S
C325 C326 1.396 . S
C325 C335 1.510 . S
C326 C322 1.401 . S
C326 C325 1.396 . S
C327 C322 1.499 . S
C327 H328 0.959 . S
C327 H329 0.960 . S
C327 H330 0.961 . S
H328 C327 0.959 . S
H329 C327 0.960 . S
H330 C327 0.961 . S
O331 Co306 1.967 . S
O331 C339 1.258 . S
O332 Co307 1.941 . S
O332 C339 1.266 . S
H333 C335 0.959 . S
H334 C335 0.961 . S
C335 C325 1.510 . S
C335 H333 0.959 . S
C335 H334 0.961 . S
C335 H336 0.960 . S
H336 C335 0.960 . S
H337 N317 0.870 . S
O338 Co306 1.920 . S
O338 C311 1.289 . S
C339 O331 1.258 . S
C339 O332 1.266 . S
Co340 O343 1.970 . S
Co340 N357 1.989 . S
Co340 O365 1.967 . S
Co340 O372 1.920 . S
Co341 O344 1.966 . S
Co341 N350 2.022 . S
Co341 N358 1.993 . S
Co341 O366 1.941 . S
C342 O343 1.258 . S
C342 O344 1.263 . S
O343 Co340 1.970 . S
O343 C342 1.258 . S
O344 Co341 1.966 . S
O344 C342 1.263 . S
C345 O346 1.235 . S
C345 O372 1.289 . S
O346 C345 1.235 . S
C347 C349 1.400 . S
C347 N350 1.351 . S
C347 C352 1.501 . S
C348 C349 1.387 . S
C348 N351 1.341 . S
C349 C347 1.400 . S
C349 C348 1.387 . S
N350 Co341 2.022 . S
N350 C347 1.351 . S
N350 N351 1.365 . S
N351 C348 1.341 . S
N351 N350 1.365 . S
N351 H371 0.870 . S
C352 C347 1.501 . S
C352 H353 0.961 . S
C352 H354 0.961 . S
C352 H355 0.960 . S
H353 C352 0.961 . S
H354 C352 0.961 . S
H355 C352 0.960 . S
C356 N357 1.342 . S
C356 C360 1.401 . S
C356 C361 1.499 . S
N357 Co340 1.989 . S
N357 C356 1.342 . S
N357 N358 1.388 . S
N358 Co341 1.993 . S
N358 N357 1.388 . S
N358 C359 1.346 . S
C359 N358 1.346 . S
C359 C360 1.396 . S
C359 C369 1.510 . S
C360 C356 1.401 . S
C360 C359 1.396 . S
C361 C356 1.499 . S
C361 H362 0.959 . S
C361 H363 0.960 . S
C361 H364 0.961 . S
H362 C361 0.959 . S
H363 C361 0.960 . S
H364 C361 0.961 . S
O365 Co340 1.967 . S
O365 C373 1.258 . S
O366 Co341 1.941 . S
O366 C373 1.266 . S
H367 C369 0.959 . S
H368 C369 0.961 . S
C369 C359 1.510 . S
C369 H367 0.959 . S
C369 H368 0.961 . S
C369 H370 0.960 . S
H370 C369 0.960 . S
H371 N351 0.870 . S
O372 Co340 1.920 . S
O372 C345 1.289 . S
C373 O365 1.258 . S
C373 O366 1.266 . S
Co374 O377 1.970 . S
Co374 N391 1.989 . S
Co374 O399 1.967 . S
Co374 O406 1.920 . S
Co375 O378 1.966 . S
Co375 N384 2.022 . S
Co375 N392 1.993 . S
Co375 O400 1.941 . S
C376 O377 1.258 . S
C376 O378 1.263 . S
O377 Co374 1.970 . S
O377 C376 1.258 . S
O378 Co375 1.966 . S
O378 C376 1.263 . S
C379 O380 1.235 . S
C379 O406 1.289 . S
O380 C379 1.235 . S
C381 C383 1.400 . S
C381 N384 1.351 . S
C381 C386 1.501 . S
C382 C383 1.387 . S
C382 N385 1.341 . S
C383 C381 1.400 . S
C383 C382 1.387 . S
N384 Co375 2.022 . S
N384 C381 1.351 . S
N384 N385 1.365 . S
N385 C382 1.341 . S
N385 N384 1.365 . S
N385 H405 0.870 . S
C386 C381 1.501 . S
C386 H387 0.961 . S
C386 H388 0.961 . S
C386 H389 0.960 . S
H387 C386 0.961 . S
H388 C386 0.961 . S
H389 C386 0.960 . S
C390 N391 1.342 . S
C390 C394 1.401 . S
C390 C395 1.499 . S
N391 Co374 1.989 . S
N391 C390 1.342 . S
N391 N392 1.388 . S
N392 Co375 1.993 . S
N392 N391 1.388 . S
N392 C393 1.346 . S
C393 N392 1.346 . S
C393 C394 1.396 . S
C393 C403 1.510 . S
C394 C390 1.401 . S
C394 C393 1.396 . S
C395 C390 1.499 . S
C395 H396 0.959 . S
C395 H397 0.960 . S
C395 H398 0.961 . S
H396 C395 0.959 . S
H397 C395 0.960 . S
H398 C395 0.961 . S
O399 Co374 1.967 . S
O399 C407 1.258 . S
O400 Co375 1.941 . S
O400 C407 1.266 . S
H401 C403 0.959 . S
H402 C403 0.961 . S
C403 C393 1.510 . S
C403 H401 0.959 . S
C403 H402 0.961 . S
C403 H404 0.960 . S
H404 C403 0.960 . S
H405 N385 0.870 . S
O406 Co374 1.920 . S
O406 C379 1.289 . S
C407 O399 1.258 . S
C407 O400 1.266 . S
Co408 O411 1.970 . S
Co408 N425 1.989 . S
Co408 O433 1.967 . S
Co408 O440 1.920 . S
Co409 O412 1.966 . S
Co409 N418 2.022 . S
Co409 N426 1.993 . S
Co409 O434 1.941 . S
C410 O411 1.258 . S
C410 O412 1.263 . S
O411 Co408 1.970 . S
O411 C410 1.258 . S
O412 Co409 1.966 . S
O412 C410 1.263 . S
C413 O414 1.235 . S
C413 O440 1.289 . S
O414 C413 1.235 . S
C415 C417 1.400 . S
C415 N418 1.351 . S
C415 C420 1.501 . S
C416 C417 1.387 . S
C416 N419 1.341 . S
C417 C415 1.400 . S
C417 C416 1.387 . S
N418 Co409 2.022 . S
N418 C415 1.351 . S
N418 N419 1.365 . S
N419 C416 1.341 . S
N419 N418 1.365 . S
N419 H439 0.862 . S
C420 C415 1.501 . S
C420 H421 0.961 . S
C420 H422 0.961 . S
C420 H423 0.960 . S
H421 C420 0.961 . S
H422 C420 0.961 . S
H423 C420 0.960 . S
C424 N425 1.342 . S
C424 C428 1.401 . S
C424 C429 1.499 . S
N425 Co408 1.989 . S
N425 C424 1.342 . S
N425 N426 1.388 . S
N426 Co409 1.993 . S
N426 N425 1.388 . S
N426 C427 1.346 . S
C427 N426 1.346 . S
C427 C428 1.396 . S
C427 C437 1.510 . S
C428 C424 1.401 . S
C428 C427 1.396 . S
C429 C424 1.499 . S
C429 H430 0.959 . S
C429 H431 0.960 . S
C429 H432 0.961 . S
H430 C429 0.959 . S
H431 C429 0.960 . S
H432 C429 0.961 . S
O433 Co408 1.967 . S
O433 C441 1.258 . S
O434 Co409 1.941 . S
O434 C441 1.266 . S
H435 C437 0.959 . S
H436 C437 0.961 . S
C437 C427 1.510 . S
C437 H435 0.959 . S
C437 H436 0.961 . S
C437 H438 0.960 . S
H438 C437 0.960 . S
H439 N419 0.862 . S
O440 Co408 1.920 . S
O440 C413 1.289 . S
C441 O433 1.258 . S
C441 O434 1.266 . S
Co442 O445 1.970 . S
Co442 N459 1.989 . S
Co442 O467 1.967 . S
Co442 O474 1.920 . S
Co443 O446 1.966 . S
Co443 N452 2.022 . S
Co443 N460 1.993 . S
Co443 O468 1.941 . S
C444 O445 1.258 . S
C444 O446 1.263 . S
O445 Co442 1.970 . S
O445 C444 1.258 . S
O446 Co443 1.966 . S
O446 C444 1.263 . S
C447 O448 1.235 . S
C447 O474 1.289 . S
O448 C447 1.235 . S
C449 C451 1.400 . S
C449 N452 1.351 . S
C449 C454 1.501 . S
C450 C451 1.387 . S
C450 N453 1.341 . S
C451 C449 1.400 . S
C451 C450 1.387 . S
N452 Co443 2.022 . S
N452 C449 1.351 . S
N452 N453 1.365 . S
N453 C450 1.341 . S
N453 N452 1.365 . S
N453 H473 0.862 . S
C454 C449 1.501 . S
C454 H455 0.961 . S
C454 H456 0.961 . S
C454 H457 0.960 . S
H455 C454 0.961 . S
H456 C454 0.961 . S
H457 C454 0.960 . S
C458 N459 1.342 . S
C458 C462 1.401 . S
C458 C463 1.499 . S
N459 Co442 1.989 . S
N459 C458 1.342 . S
N459 N460 1.388 . S
N460 Co443 1.993 . S
N460 N459 1.388 . S
N460 C461 1.346 . S
C461 N460 1.346 . S
C461 C462 1.396 . S
C461 C471 1.510 . S
C462 C458 1.401 . S
C462 C461 1.396 . S
C463 C458 1.499 . S
C463 H464 0.959 . S
C463 H465 0.960 . S
C463 H466 0.961 . S
H464 C463 0.959 . S
H465 C463 0.960 . S
H466 C463 0.961 . S
O467 Co442 1.967 . S
O467 C475 1.258 . S
O468 Co443 1.941 . S
O468 C475 1.266 . S
H469 C471 0.959 . S
H470 C471 0.961 . S
C471 C461 1.510 . S
C471 H469 0.959 . S
C471 H470 0.961 . S
C471 H472 0.960 . S
H472 C471 0.960 . S
H473 N453 0.862 . S
O474 Co442 1.920 . S
O474 C447 1.289 . S
C475 O467 1.258 . S
C475 O468 1.266 . S
Co476 O479 1.970 . S
Co476 N493 1.989 . S
Co476 O501 1.967 . S
Co476 O508 1.920 . S
Co477 O480 1.966 . S
Co477 N486 2.022 . S
Co477 N494 1.993 . S
Co477 O502 1.941 . S
C478 O479 1.258 . S
C478 O480 1.263 . S
O479 Co476 1.970 . S
O479 C478 1.258 . S
O480 Co477 1.966 . S
O480 C478 1.263 . S
C481 O482 1.235 . S
C481 O508 1.289 . S
O482 C481 1.235 . S
C483 C485 1.400 . S
C483 N486 1.351 . S
C483 C488 1.501 . S
C484 C485 1.387 . S
C484 N487 1.341 . S
C485 C483 1.400 . S
C485 C484 1.387 . S
N486 Co477 2.022 . S
N486 C483 1.351 . S
N486 N487 1.365 . S
N487 C484 1.341 . S
N487 N486 1.365 . S
N487 H507 0.862 . S
C488 C483 1.501 . S
C488 H489 0.961 . S
C488 H490 0.961 . S
C488 H491 0.960 . S
H489 C488 0.961 . S
H490 C488 0.961 . S
H491 C488 0.960 . S
C492 N493 1.342 . S
C492 C496 1.401 . S
C492 C497 1.499 . S
N493 Co476 1.989 . S
N493 C492 1.342 . S
N493 N494 1.388 . S
N494 Co477 1.993 . S
N494 N493 1.388 . S
N494 C495 1.346 . S
C495 N494 1.346 . S
C495 C496 1.396 . S
C495 C505 1.510 . S
C496 C492 1.401 . S
C496 C495 1.396 . S
C497 C492 1.499 . S
C497 H498 0.959 . S
C497 H499 0.960 . S
C497 H500 0.961 . S
H498 C497 0.959 . S
H499 C497 0.960 . S
H500 C497 0.961 . S
O501 Co476 1.967 . S
O501 C509 1.258 . S
O502 Co477 1.941 . S
O502 C509 1.266 . S
H503 C505 0.959 . S
H504 C505 0.961 . S
C505 C495 1.510 . S
C505 H503 0.959 . S
C505 H504 0.961 . S
C505 H506 0.960 . S
H506 C505 0.960 . S
H507 N487 0.862 . S
O508 Co476 1.920 . S
O508 C481 1.289 . S
C509 O501 1.258 . S
C509 O502 1.266 . S
Co510 O513 1.970 . S
Co510 N527 1.989 . S
Co510 O535 1.967 . S
Co510 O542 1.920 . S
Co511 O514 1.966 . S
Co511 N520 2.022 . S
Co511 N528 1.993 . S
Co511 O536 1.941 . S
C512 O513 1.258 . S
C512 O514 1.263 . S
O513 Co510 1.970 . S
O513 C512 1.258 . S
O514 Co511 1.966 . S
O514 C512 1.263 . S
C515 O516 1.235 . S
C515 O542 1.289 . S
O516 C515 1.235 . S
C517 C519 1.400 . S
C517 N520 1.351 . S
C517 C522 1.501 . S
C518 C519 1.387 . S
C518 N521 1.341 . S
C519 C517 1.400 . S
C519 C518 1.387 . S
N520 Co511 2.022 . S
N520 C517 1.351 . S
N520 N521 1.365 . S
N521 C518 1.341 . S
N521 N520 1.365 . S
N521 H541 0.862 . S
C522 C517 1.501 . S
C522 H523 0.961 . S
C522 H524 0.961 . S
C522 H525 0.960 . S
H523 C522 0.961 . S
H524 C522 0.961 . S
H525 C522 0.960 . S
C526 N527 1.342 . S
C526 C530 1.401 . S
C526 C531 1.499 . S
N527 Co510 1.989 . S
N527 C526 1.342 . S
N527 N528 1.388 . S
N528 Co511 1.993 . S
N528 N527 1.388 . S
N528 C529 1.346 . S
C529 N528 1.346 . S
C529 C530 1.396 . S
C529 C539 1.510 . S
C530 C526 1.401 . S
C530 C529 1.396 . S
C531 C526 1.499 . S
C531 H532 0.959 . S
C531 H533 0.960 . S
C531 H534 0.961 . S
H532 C531 0.959 . S
H533 C531 0.960 . S
H534 C531 0.961 . S
O535 Co510 1.967 . S
O535 C543 1.258 . S
O536 Co511 1.941 . S
O536 C543 1.266 . S
H537 C539 0.959 . S
H538 C539 0.961 . S
C539 C529 1.510 . S
C539 H537 0.959 . S
C539 H538 0.961 . S
C539 H540 0.960 . S
H540 C539 0.960 . S
H541 N521 0.862 . S
O542 Co510 1.920 . S
O542 C515 1.289 . S
C543 O535 1.258 . S
C543 O536 1.266 . S
H544 C550 0.930 . S
H545 C553 0.930 . S
H546 C554 0.930 . S
H547 C555 0.930 . S
H548 C558 0.930 . S
H549 C559 0.930 . S
C550 H544 0.930 . S
C550 C551 1.355 . S
C550 C552 1.415 . S
C551 C550 1.355 . S
C551 C553 1.419 . S
C552 C550 1.415 . S
C552 C557 1.425 1_556 S
C552 C559 1.409 1_556 S
C553 H545 0.930 . S
C553 C551 1.419 . S
C553 C554 1.362 . S
C554 H546 0.930 . S
C554 C553 1.362 . S
C554 C557 1.409 1_556 S
C555 H547 0.930 . S
C555 C556 1.355 . S
C555 C557 1.415 . S
C556 C555 1.355 . S
C556 C558 1.419 . S
C557 C552 1.425 1_554 S
C557 C554 1.409 1_554 S
C557 C555 1.415 . S
C558 H548 0.930 . S
C558 C556 1.419 . S
C558 C559 1.362 . S
C559 H549 0.930 . S
C559 C552 1.409 1_554 S
C559 C558 1.362 . S
H560 C566 0.930 . S
H561 C569 0.930 . S
H562 C570 0.930 . S
H563 C571 0.930 . S
H564 C574 0.930 . S
H565 C575 0.930 . S
C566 H560 0.930 . S
C566 C567 1.355 . S
C566 C568 1.415 . S
C567 C566 1.355 . S
C567 C569 1.419 . S
C568 C566 1.415 . S
C568 C573 1.425 1_556 S
C568 C575 1.409 1_556 S
C569 H561 0.930 . S
C569 C567 1.419 . S
C569 C570 1.362 . S
C570 H562 0.930 . S
C570 C569 1.362 . S
C570 C573 1.409 1_556 S
C571 H563 0.930 . S
C571 C572 1.355 . S
C571 C573 1.415 . S
C572 C571 1.355 . S
C572 C574 1.419 . S
C573 C568 1.425 1_554 S
C573 C570 1.409 1_554 S
C573 C571 1.415 . S
C574 H564 0.930 . S
C574 C572 1.419 . S
C574 C575 1.362 . S
C575 H565 0.930 . S
C575 C568 1.409 1_554 S
C575 C574 1.362 . S
H576 C582 0.930 . S
H577 C585 0.930 . S
H578 C586 0.930 . S
H579 C587 0.930 . S
H580 C590 0.930 . S
H581 C591 0.930 . S
C582 H576 0.930 . S
C582 C583 1.355 . S
C582 C584 1.415 . S
C583 C582 1.355 . S
C583 C585 1.419 . S
C584 C582 1.415 . S
C584 C589 1.425 1_556 S
C584 C591 1.409 1_556 S
C585 H577 0.930 . S
C585 C583 1.419 . S
C585 C586 1.362 . S
C586 H578 0.930 . S
C586 C585 1.362 . S
C586 C589 1.409 1_556 S
C587 H579 0.930 . S
C587 C588 1.355 . S
C587 C589 1.415 . S
C588 C587 1.355 . S
C588 C590 1.419 . S
C589 C584 1.425 1_554 S
C589 C586 1.409 1_554 S
C589 C587 1.415 . S
C590 H580 0.930 . S
C590 C588 1.419 . S
C590 C591 1.362 . S
C591 H581 0.930 . S
C591 C584 1.409 1_554 S
C591 C590 1.362 . S
H592 C598 0.930 . S
H593 C601 0.930 . S
H594 C602 0.930 . S
H595 C603 0.930 . S
H596 C606 0.930 . S
H597 C607 0.930 . S
C598 H592 0.930 . S
C598 C599 1.355 . S
C598 C600 1.415 . S
C599 C598 1.355 . S
C599 C601 1.419 . S
C600 C598 1.415 . S
C600 C605 1.425 1_556 S
C600 C607 1.409 1_556 S
C601 H593 0.930 . S
C601 C599 1.419 . S
C601 C602 1.362 . S
C602 H594 0.930 . S
C602 C601 1.362 . S
C602 C605 1.409 1_556 S
C603 H595 0.930 . S
C603 C604 1.355 . S
C603 C605 1.415 . S
C604 C603 1.355 . S
C604 C606 1.419 . S
C605 C600 1.425 1_554 S
C605 C602 1.409 1_554 S
C605 C603 1.415 . S
C606 H596 0.930 . S
C606 C604 1.419 . S
C606 C607 1.362 . S
C607 H597 0.930 . S
C607 C600 1.409 1_554 S
C607 C606 1.362 . S
H608 C614 0.930 . S
H609 C617 0.930 . S
H610 C618 0.930 . S
H611 C619 0.930 . S
H612 C622 0.930 . S
H613 C623 0.930 . S
C614 H608 0.930 . S
C614 C615 1.355 . S
C614 C616 1.415 . S
C615 C614 1.355 . S
C615 C617 1.419 . S
C616 C614 1.415 . S
C616 C621 1.425 . S
C616 C623 1.409 . S
C617 H609 0.930 . S
C617 C615 1.419 . S
C617 C618 1.362 . S
C618 H610 0.930 . S
C618 C617 1.362 . S
C618 C621 1.409 . S
C619 H611 0.930 . S
C619 C620 1.355 . S
C619 C621 1.415 . S
C620 C619 1.355 . S
C620 C622 1.419 . S
C621 C616 1.425 . S
C621 C618 1.409 . S
C621 C619 1.415 . S
C622 H612 0.930 . S
C622 C620 1.419 . S
C622 C623 1.362 . S
C623 H613 0.930 . S
C623 C616 1.409 . S
C623 C622 1.362 . S
H624 C630 0.930 . S
H625 C633 0.930 . S
H626 C634 0.930 . S
H627 C635 0.930 . S
H628 C638 0.930 . S
H629 C639 0.930 . S
C630 H624 0.930 . S
C630 C631 1.355 . S
C630 C632 1.415 . S
C631 C630 1.355 . S
C631 C633 1.419 . S
C632 C630 1.415 . S
C632 C637 1.425 . S
C632 C639 1.409 . S
C633 H625 0.930 . S
C633 C631 1.419 . S
C633 C634 1.362 . S
C634 H626 0.930 . S
C634 C633 1.362 . S
C634 C637 1.409 . S
C635 H627 0.930 . S
C635 C636 1.355 . S
C635 C637 1.415 . S
C636 C635 1.355 . S
C636 C638 1.419 . S
C637 C632 1.425 . S
C637 C634 1.409 . S
C637 C635 1.415 . S
C638 H628 0.930 . S
C638 C636 1.419 . S
C638 C639 1.362 . S
C639 H629 0.930 . S
C639 C632 1.409 . S
C639 C638 1.362 . S
H640 C646 0.930 . S
H641 C649 0.930 . S
H642 C650 0.930 . S
H643 C651 0.930 . S
H644 C654 0.930 . S
H645 C655 0.930 . S
C646 H640 0.930 . S
C646 C647 1.355 . S
C646 C648 1.415 . S
C647 C646 1.355 . S
C647 C649 1.419 . S
C648 C646 1.415 . S
C648 C653 1.425 . S
C648 C655 1.409 . S
C649 H641 0.930 . S
C649 C647 1.419 . S
C649 C650 1.362 . S
C650 H642 0.930 . S
C650 C649 1.362 . S
C650 C653 1.409 . S
C651 H643 0.930 . S
C651 C652 1.355 . S
C651 C653 1.415 . S
C652 C651 1.355 . S
C652 C654 1.419 . S
C653 C648 1.425 . S
C653 C650 1.409 . S
C653 C651 1.415 . S
C654 H644 0.930 . S
C654 C652 1.419 . S
C654 C655 1.362 . S
C655 H645 0.930 . S
C655 C648 1.409 . S
C655 C654 1.362 . S
H656 C662 0.930 . S
H657 C665 0.930 . S
H658 C666 0.930 . S
H659 C667 0.930 . S
H660 C670 0.930 . S
H661 C671 0.930 . S
C662 H656 0.930 . S
C662 C663 1.355 . S
C662 C664 1.415 . S
C663 C662 1.355 . S
C663 C665 1.419 . S
C664 C662 1.415 . S
C664 C669 1.425 . S
C664 C671 1.409 . S
C665 H657 0.930 . S
C665 C663 1.419 . S
C665 C666 1.362 . S
C666 H658 0.930 . S
C666 C665 1.362 . S
C666 C669 1.409 . S
C667 H659 0.930 . S
C667 C668 1.355 . S
C667 C669 1.415 . S
C668 C667 1.355 . S
C668 C670 1.419 . S
C669 C664 1.425 . S
C669 C666 1.409 . S
C669 C667 1.415 . S
C670 H660 0.930 . S
C670 C668 1.419 . S
C670 C671 1.362 . S
C671 H661 0.930 . S
C671 C664 1.409 . S
C671 C670 1.362 . S
H672 C678 0.930 . S
H673 C681 0.930 . S
H674 C682 0.930 . S
H675 C683 0.930 . S
H676 C686 0.930 . S
H677 C687 0.930 . S
C678 H672 0.930 . S
C678 C679 1.355 . S
C678 C680 1.415 . S
C679 C678 1.355 . S
C679 C681 1.419 . S
C680 C678 1.415 . S
C680 C685 1.425 . S
C680 C687 1.409 . S
C681 H673 0.930 . S
C681 C679 1.419 . S
C681 C682 1.362 . S
C682 H674 0.930 . S
C682 C681 1.362 . S
C682 C685 1.409 . S
C683 H675 0.930 . S
C683 C684 1.355 . S
C683 C685 1.415 . S
C684 C683 1.355 . S
C684 C686 1.419 . S
C685 C680 1.425 . S
C685 C682 1.409 . S
C685 C683 1.415 . S
C686 H676 0.930 . S
C686 C684 1.419 . S
C686 C687 1.362 . S
C687 H677 0.930 . S
C687 C680 1.409 . S
C687 C686 1.362 . S
H688 C694 0.930 . S
H689 C697 0.930 . S
H690 C698 0.930 . S
H691 C699 0.930 . S
H692 C702 0.930 . S
H693 C703 0.930 . S
C694 H688 0.930 . S
C694 C695 1.355 . S
C694 C696 1.415 . S
C695 C694 1.355 . S
C695 C697 1.419 . S
C696 C694 1.415 . S
C696 C701 1.425 . S
C696 C703 1.409 . S
C697 H689 0.930 . S
C697 C695 1.419 . S
C697 C698 1.362 . S
C698 H690 0.930 . S
C698 C697 1.362 . S
C698 C701 1.409 . S
C699 H691 0.930 . S
C699 C700 1.355 . S
C699 C701 1.415 . S
C700 C699 1.355 . S
C700 C702 1.419 . S
C701 C696 1.425 . S
C701 C698 1.409 . S
C701 C699 1.415 . S
C702 H692 0.930 . S
C702 C700 1.419 . S
C702 C703 1.362 . S
C703 H693 0.930 . S
C703 C696 1.409 . S
C703 C702 1.362 . S
H704 C710 0.930 . S
H705 C713 0.930 . S
H706 C714 0.930 . S
H707 C715 0.930 . S
H708 C718 0.930 . S
H709 C719 0.930 . S
C710 H704 0.930 . S
C710 C711 1.355 . S
C710 C712 1.415 . S
C711 C710 1.355 . S
C711 C713 1.419 . S
C712 C710 1.415 . S
C712 C717 1.425 . S
C712 C719 1.409 . S
C713 H705 0.930 . S
C713 C711 1.419 . S
C713 C714 1.362 . S
C714 H706 0.930 . S
C714 C713 1.362 . S
C714 C717 1.409 . S
C715 H707 0.930 . S
C715 C716 1.355 . S
C715 C717 1.415 . S
C716 C715 1.355 . S
C716 C718 1.419 . S
C717 C712 1.425 . S
C717 C714 1.409 . S
C717 C715 1.415 . S
C718 H708 0.930 . S
C718 C716 1.419 . S
C718 C719 1.362 . S
C719 H709 0.930 . S
C719 C712 1.409 . S
C719 C718 1.362 . S
H720 C726 0.930 . S
H721 C729 0.930 . S
H722 C730 0.930 . S
H723 C731 0.930 . S
H724 C734 0.930 1_655 S
H725 C735 0.930 . S
C726 H720 0.930 . S
C726 C727 1.355 . S
C726 C728 1.415 . S
C727 C726 1.355 . S
C727 C729 1.419 . S
C728 C726 1.415 . S
C728 C733 1.425 . S
C728 C735 1.409 . S
C729 H721 0.930 . S
C729 C727 1.419 . S
C729 C730 1.362 . S
C730 H722 0.930 . S
C730 C729 1.362 . S
C730 C733 1.409 . S
C731 H723 0.930 . S
C731 C732 1.355 . S
C731 C733 1.415 . S
C732 C731 1.355 . S
C732 C734 1.419 . S
C733 C728 1.425 . S
C733 C730 1.409 . S
C733 C731 1.415 . S
C734 H724 0.930 1_455 S
C734 C732 1.419 . S
C734 C735 1.362 . S
C735 H725 0.930 . S
C735 C728 1.409 . S
C735 C734 1.362 . S
H736 C742 0.930 . S
H737 C745 0.930 . S
H738 C746 0.930 . S
H739 C747 0.930 . S
H740 C750 0.930 . S
H741 C751 0.930 . S
C742 H736 0.930 . S
C742 C743 1.355 . S
C742 C744 1.415 . S
C743 C742 1.355 . S
C743 C745 1.419 . S
C744 C742 1.415 . S
C744 C749 1.425 . S
C744 C751 1.409 . S
C745 H737 0.930 . S
C745 C743 1.419 . S
C745 C746 1.362 . S
C746 H738 0.930 . S
C746 C745 1.362 . S
C746 C749 1.409 . S
C747 H739 0.930 . S
C747 C748 1.355 . S
C747 C749 1.415 . S
C748 C747 1.355 . S
C748 C750 1.419 . S
C749 C744 1.425 . S
C749 C746 1.409 . S
C749 C747 1.415 . S
C750 H740 0.930 . S
C750 C748 1.419 . S
C750 C751 1.362 . S
C751 H741 0.930 . S
C751 C744 1.409 . S
C751 C750 1.362 . S
H752 C758 0.930 . S
H753 C761 0.930 . S
H754 C762 0.930 . S
H755 C763 0.930 . S
H756 C766 0.930 . S
H757 C767 0.930 . S
C758 H752 0.930 . S
C758 C759 1.355 . S
C758 C760 1.415 . S
C759 C758 1.355 . S
C759 C761 1.419 . S
C760 C758 1.415 . S
C760 C765 1.425 . S
C760 C767 1.409 . S
C761 H753 0.930 . S
C761 C759 1.419 . S
C761 C762 1.362 . S
C762 H754 0.930 . S
C762 C761 1.362 . S
C762 C765 1.409 . S
C763 H755 0.930 . S
C763 C764 1.355 . S
C763 C765 1.415 . S
C764 C763 1.355 . S
C764 C766 1.419 . S
C765 C760 1.425 . S
C765 C762 1.409 . S
C765 C763 1.415 . S
C766 H756 0.930 . S
C766 C764 1.419 . S
C766 C767 1.362 . S
C767 H757 0.930 . S
C767 C760 1.409 . S
C767 C766 1.362 . S
H768 C774 0.930 . S
H769 C777 0.930 . S
H770 C778 0.930 . S
H771 C779 0.930 . S
H772 C782 0.930 . S
H773 C783 0.930 . S
C774 H768 0.930 . S
C774 C775 1.355 . S
C774 C776 1.415 . S
C775 C774 1.355 . S
C775 C777 1.419 . S
C776 C774 1.415 . S
C776 C781 1.425 . S
C776 C783 1.409 . S
C777 H769 0.930 . S
C777 C775 1.419 . S
C777 C778 1.362 . S
C778 H770 0.930 . S
C778 C777 1.362 . S
C778 C781 1.409 . S
C779 H771 0.930 . S
C779 C780 1.355 . S
C779 C781 1.415 . S
C780 C779 1.355 . S
C780 C782 1.419 . S
C781 C776 1.425 . S
C781 C778 1.409 . S
C781 C779 1.415 . S
C782 H772 0.930 . S
C782 C780 1.419 . S
C782 C783 1.362 . S
C783 H773 0.930 . S
C783 C776 1.409 . S
C783 C782 1.362 . S
H784 C790 0.930 . S
H785 C793 0.930 . S
H786 C794 0.930 . S
H787 C795 0.930 . S
H788 C798 0.930 . S
H789 C799 0.930 . S
C790 H784 0.930 . S
C790 C791 1.355 . S
C790 C792 1.415 . S
C791 C790 1.355 . S
C791 C793 1.419 . S
C792 C790 1.415 . S
C792 C797 1.425 . S
C792 C799 1.409 . S
C793 H785 0.930 . S
C793 C791 1.419 . S
C793 C794 1.362 . S
C794 H786 0.930 . S
C794 C793 1.362 . S
C794 C797 1.409 . S
C795 H787 0.930 . S
C795 C796 1.355 . S
C795 C797 1.415 . S
C796 C795 1.355 . S
C796 C798 1.419 . S
C797 C792 1.425 . S
C797 C794 1.409 . S
C797 C795 1.415 . S
C798 H788 0.930 . S
C798 C796 1.419 . S
C798 C799 1.362 . S
C799 H789 0.930 . S
C799 C792 1.409 . S
C799 C798 1.362 . S
H800 C806 0.930 . S
H801 C809 0.930 . S
H802 C810 0.930 . S
H803 C811 0.930 . S
H804 C814 0.930 . S
H805 C815 0.930 . S
C806 H800 0.930 . S
C806 C807 1.355 . S
C806 C808 1.415 . S
C807 C806 1.355 . S
C807 C809 1.419 . S
C808 C806 1.415 . S
C808 C813 1.425 . S
C808 C815 1.409 . S
C809 H801 0.930 . S
C809 C807 1.419 . S
C809 C810 1.362 . S
C810 H802 0.930 . S
C810 C809 1.362 . S
C810 C813 1.409 . S
C811 H803 0.930 . S
C811 C812 1.355 . S
C811 C813 1.415 . S
C812 C811 1.355 . S
C812 C814 1.419 . S
C813 C808 1.425 . S
C813 C810 1.409 . S
C813 C811 1.415 . S
C814 H804 0.930 . S
C814 C812 1.419 . S
C814 C815 1.362 . S
C815 H805 0.930 . S
C815 C808 1.409 . S
C815 C814 1.362 . S
H816 C822 0.930 . S
H817 C825 0.930 . S
H818 C826 0.930 . S
H819 C827 0.930 . S
H820 C830 0.930 1_655 S
H821 C831 0.930 . S
C822 H816 0.930 . S
C822 C823 1.355 . S
C822 C824 1.415 . S
C823 C822 1.355 . S
C823 C825 1.419 . S
C824 C822 1.415 . S
C824 C829 1.425 . S
C824 C831 1.409 . S
C825 H817 0.930 . S
C825 C823 1.419 . S
C825 C826 1.362 . S
C826 H818 0.930 . S
C826 C825 1.362 . S
C826 C829 1.409 . S
C827 H819 0.930 . S
C827 C828 1.355 . S
C827 C829 1.415 . S
C828 C827 1.355 . S
C828 C830 1.419 . S
C829 C824 1.425 . S
C829 C826 1.409 . S
C829 C827 1.415 . S
C830 H820 0.930 1_455 S
C830 C828 1.419 . S
C830 C831 1.362 . S
C831 H821 0.930 . S
C831 C824 1.409 . S
C831 C830 1.362 . S
H832 C838 0.930 . S
H833 C841 0.930 . S
H834 C842 0.930 . S
H835 C843 0.930 . S
H836 C846 0.930 . S
H837 C847 0.930 . S
C838 H832 0.930 . S
C838 C839 1.355 . S
C838 C840 1.415 . S
C839 C838 1.355 . S
C839 C841 1.419 . S
C840 C838 1.415 . S
C840 C845 1.425 . S
C840 C847 1.409 . S
C841 H833 0.930 . S
C841 C839 1.419 . S
C841 C842 1.362 . S
C842 H834 0.930 . S
C842 C841 1.362 . S
C842 C845 1.409 . S
C843 H835 0.930 . S
C843 C844 1.355 . S
C843 C845 1.415 . S
C844 C843 1.355 . S
C844 C846 1.419 . S
C845 C840 1.425 . S
C845 C842 1.409 . S
C845 C843 1.415 . S
C846 H836 0.930 . S
C846 C844 1.419 . S
C846 C847 1.362 . S
C847 H837 0.930 . S
C847 C840 1.409 . S
C847 C846 1.362 . S
H848 C854 0.930 . S
H849 C857 0.930 . S
H850 C858 0.930 . S
H851 C859 0.930 . S
H852 C862 0.930 1_455 S
H853 C863 0.930 . S
C854 H848 0.930 . S
C854 C855 1.355 . S
C854 C856 1.415 . S
C855 C854 1.355 . S
C855 C857 1.419 . S
C856 C854 1.415 . S
C856 C861 1.425 . S
C856 C863 1.409 . S
C857 H849 0.930 . S
C857 C855 1.419 . S
C857 C858 1.362 . S
C858 H850 0.930 . S
C858 C857 1.362 . S
C858 C861 1.409 . S
C859 H851 0.930 . S
C859 C860 1.355 . S
C859 C861 1.415 . S
C860 C859 1.355 . S
C860 C862 1.419 . S
C861 C856 1.425 . S
C861 C858 1.409 . S
C861 C859 1.415 . S
C862 H852 0.930 1_655 S
C862 C860 1.419 . S
C862 C863 1.362 . S
C863 H853 0.930 . S
C863 C856 1.409 . S
C863 C862 1.362 . S
H864 C870 0.930 . S
H865 C873 0.930 . S
H866 C874 0.930 . S
H867 C875 0.930 . S
H868 C878 0.930 . S
H869 C879 0.930 . S
C870 H864 0.930 . S
C870 C871 1.355 . S
C870 C872 1.415 . S
C871 C870 1.355 . S
C871 C873 1.419 . S
C872 C870 1.415 . S
C872 C877 1.425 . S
C872 C879 1.409 . S
C873 H865 0.930 . S
C873 C871 1.419 . S
C873 C874 1.362 . S
C874 H866 0.930 . S
C874 C873 1.362 . S
C874 C877 1.409 . S
C875 H867 0.930 . S
C875 C876 1.355 . S
C875 C877 1.415 . S
C876 C875 1.355 . S
C876 C878 1.419 . S
C877 C872 1.425 . S
C877 C874 1.409 . S
C877 C875 1.415 . S
C878 H868 0.930 . S
C878 C876 1.419 . S
C878 C879 1.362 . S
C879 H869 0.930 . S
C879 C872 1.409 . S
C879 C878 1.362 . S
H880 C886 0.930 . S
H881 C889 0.930 . S
H882 C890 0.930 . S
H883 C891 0.930 . S
H884 C894 0.930 . S
H885 C895 0.930 . S
C886 H880 0.930 . S
C886 C887 1.355 . S
C886 C888 1.415 . S
C887 C886 1.355 . S
C887 C889 1.419 . S
C888 C886 1.415 . S
C888 C893 1.425 . S
C888 C895 1.409 . S
C889 H881 0.930 . S
C889 C887 1.419 . S
C889 C890 1.362 . S
C890 H882 0.930 . S
C890 C889 1.362 . S
C890 C893 1.409 . S
C891 H883 0.930 . S
C891 C892 1.355 . S
C891 C893 1.415 . S
C892 C891 1.355 . S
C892 C894 1.419 . S
C893 C888 1.425 . S
C893 C890 1.409 . S
C893 C891 1.415 . S
C894 H884 0.930 . S
C894 C892 1.419 . S
C894 C895 1.362 . S
C895 H885 0.930 . S
C895 C888 1.409 . S
C895 C894 1.362 . S
H896 C902 0.930 . S
H897 C905 0.930 . S
H898 C906 0.930 . S
H899 C907 0.930 . S
H900 C910 0.930 . S
H901 C911 0.930 . S
C902 H896 0.930 . S
C902 C903 1.355 . S
C902 C904 1.415 . S
C903 C902 1.355 . S
C903 C905 1.419 . S
C904 C902 1.415 . S
C904 C909 1.425 . S
C904 C911 1.409 . S
C905 H897 0.930 . S
C905 C903 1.419 . S
C905 C906 1.362 . S
C906 H898 0.930 . S
C906 C905 1.362 . S
C906 C909 1.409 . S
C907 H899 0.930 . S
C907 C908 1.355 . S
C907 C909 1.415 . S
C908 C907 1.355 . S
C908 C910 1.419 . S
C909 C904 1.425 . S
C909 C906 1.409 . S
C909 C907 1.415 . S
C910 H900 0.930 . S
C910 C908 1.419 . S
C910 C911 1.362 . S
C911 H901 0.930 . S
C911 C904 1.409 . S
C911 C910 1.362 . S
H912 C918 0.930 . S
H913 C921 0.930 . S
H914 C922 0.930 . S
H915 C923 0.930 . S
H916 C926 0.930 . S
H917 C927 0.930 . S
C918 H912 0.930 . S
C918 C919 1.355 . S
C918 C920 1.415 . S
C919 C918 1.355 . S
C919 C921 1.419 . S
C920 C918 1.415 . S
C920 C925 1.425 . S
C920 C927 1.409 . S
C921 H913 0.930 . S
C921 C919 1.419 . S
C921 C922 1.362 . S
C922 H914 0.930 . S
C922 C921 1.362 . S
C922 C925 1.409 . S
C923 H915 0.930 . S
C923 C924 1.355 . S
C923 C925 1.415 . S
C924 C923 1.355 . S
C924 C926 1.419 . S
C925 C920 1.425 . S
C925 C922 1.409 . S
C925 C923 1.415 . S
C926 H916 0.930 . S
C926 C924 1.419 . S
C926 C927 1.362 . S
C927 H917 0.930 . S
C927 C920 1.409 . S
C927 C926 1.362 . S
H928 C934 0.930 . S
H929 C937 0.930 . S
H930 C938 0.930 . S
H931 C939 0.930 . S
H932 C942 0.930 . S
H933 C943 0.930 . S
C934 H928 0.930 . S
C934 C935 1.355 . S
C934 C936 1.415 . S
C935 C934 1.355 . S
C935 C937 1.419 . S
C936 C934 1.415 . S
C936 C941 1.425 . S
C936 C943 1.409 . S
C937 H929 0.930 . S
C937 C935 1.419 . S
C937 C938 1.362 . S
C938 H930 0.930 . S
C938 C937 1.362 . S
C938 C941 1.409 . S
C939 H931 0.930 . S
C939 C940 1.355 . S
C939 C941 1.415 . S
C940 C939 1.355 . S
C940 C942 1.419 . S
C941 C936 1.425 . S
C941 C938 1.409 . S
C941 C939 1.415 . S
C942 H932 0.930 . S
C942 C940 1.419 . S
C942 C943 1.362 . S
C943 H933 0.930 . S
C943 C936 1.409 . S
C943 C942 1.362 . S
H944 C950 0.930 . S
H945 C953 0.930 . S
H946 C954 0.930 . S
H947 C955 0.930 . S
H948 C958 0.930 . S
H949 C959 0.930 . S
C950 H944 0.930 . S
C950 C951 1.355 . S
C950 C952 1.415 . S
C951 C950 1.355 . S
C951 C953 1.419 . S
C952 C950 1.415 . S
C952 C957 1.425 . S
C952 C959 1.409 . S
C953 H945 0.930 . S
C953 C951 1.419 . S
C953 C954 1.362 . S
C954 H946 0.930 . S
C954 C953 1.362 . S
C954 C957 1.409 . S
C955 H947 0.930 . S
C955 C956 1.355 . S
C955 C957 1.415 . S
C956 C955 1.355 . S
C956 C958 1.419 . S
C957 C952 1.425 . S
C957 C954 1.409 . S
C957 C955 1.415 . S
C958 H948 0.930 . S
C958 C956 1.419 . S
C958 C959 1.362 . S
C959 H949 0.930 . S
C959 C952 1.409 . S
C959 C958 1.362 . S
H960 C966 0.930 . S
H961 C969 0.930 . S
H962 C970 0.930 . S
H963 C971 0.930 . S
H964 C974 0.930 . S
H965 C975 0.930 . S
C966 H960 0.930 . S
C966 C967 1.355 . S
C966 C968 1.415 . S
C967 C966 1.355 . S
C967 C969 1.419 . S
C968 C966 1.415 . S
C968 C973 1.425 . S
C968 C975 1.409 . S
C969 H961 0.930 . S
C969 C967 1.419 . S
C969 C970 1.362 . S
C970 H962 0.930 . S
C970 C969 1.362 . S
C970 C973 1.409 . S
C971 H963 0.930 . S
C971 C972 1.355 . S
C971 C973 1.415 . S
C972 C971 1.355 . S
C972 C974 1.419 . S
C973 C968 1.425 . S
C973 C970 1.409 . S
C973 C971 1.415 . S
C974 H964 0.930 . S
C974 C972 1.419 . S
C974 C975 1.362 . S
C975 H965 0.930 . S
C975 C968 1.409 . S
C975 C974 1.362 . S
H976 C982 0.930 . S
H977 C985 0.930 . S
H978 C986 0.930 . S
H979 C987 0.930 . S
H980 C990 0.930 . S
H981 C991 0.930 . S
C982 H976 0.930 . S
C982 C983 1.355 . S
C982 C984 1.415 . S
C983 C982 1.355 . S
C983 C985 1.419 . S
C984 C982 1.415 . S
C984 C989 1.425 . S
C984 C991 1.409 . S
C985 H977 0.930 . S
C985 C983 1.419 . S
C985 C986 1.362 . S
C986 H978 0.930 . S
C986 C985 1.362 . S
C986 C989 1.409 . S
C987 H979 0.930 . S
C987 C988 1.355 . S
C987 C989 1.415 . S
C988 C987 1.355 . S
C988 C990 1.419 . S
C989 C984 1.425 . S
C989 C986 1.409 . S
C989 C987 1.415 . S
C990 H980 0.930 . S
C990 C988 1.419 . S
C990 C991 1.362 . S
C991 H981 0.930 . S
C991 C984 1.409 . S
C991 C990 1.362 . S
H992 C998 0.930 . S
H993 C1001 0.930 . S
H994 C1002 0.930 . S
H995 C1003 0.930 . S
H996 C1006 0.930 . S
H997 C1007 0.930 . S
C998 H992 0.930 . S
C998 C999 1.355 . S
C998 C1000 1.415 . S
C999 C998 1.355 . S
C999 C1001 1.419 . S
C1000 C998 1.415 . S
C1000 C1005 1.425 . S
C1000 C1007 1.409 . S
C1001 H993 0.930 . S
C1001 C999 1.419 . S
C1001 C1002 1.362 . S
C1002 H994 0.930 . S
C1002 C1001 1.362 . S
C1002 C1005 1.409 . S
C1003 H995 0.930 . S
C1003 C1004 1.355 . S
C1003 C1005 1.415 . S
C1004 C1003 1.355 . S
C1004 C1006 1.419 . S
C1005 C1000 1.425 . S
C1005 C1002 1.409 . S
C1005 C1003 1.415 . S
C1006 H996 0.930 . S
C1006 C1004 1.419 . S
C1006 C1007 1.362 . S
C1007 H997 0.930 . S
C1007 C1000 1.409 . S
C1007 C1006 1.362 . S
H1008 C1014 0.930 . S
H1009 C1017 0.930 . S
H1010 C1018 0.930 . S
H1011 C1019 0.930 . S
H1012 C1022 0.930 . S
H1013 C1023 0.930 . S
C1014 H1008 0.930 . S
C1014 C1015 1.355 . S
C1014 C1016 1.415 . S
C1015 C1014 1.355 . S
C1015 C1017 1.419 . S
C1016 C1014 1.415 . S
C1016 C1021 1.425 . S
C1016 C1023 1.409 . S
C1017 H1009 0.930 . S
C1017 C1015 1.419 . S
C1017 C1018 1.362 . S
C1018 H1010 0.930 . S
C1018 C1017 1.362 . S
C1018 C1021 1.409 . S
C1019 H1011 0.930 . S
C1019 C1020 1.355 . S
C1019 C1021 1.415 . S
C1020 C1019 1.355 . S
C1020 C1022 1.419 . S
C1021 C1016 1.425 . S
C1021 C1018 1.409 . S
C1021 C1019 1.415 . S
C1022 H1012 0.930 . S
C1022 C1020 1.419 . S
C1022 C1023 1.362 . S
C1023 H1013 0.930 . S
C1023 C1016 1.409 . S
C1023 C1022 1.362 . S
H1024 C1030 0.930 . S
H1025 C1033 0.930 . S
H1026 C1034 0.930 . S
H1027 C1035 0.930 . S
H1028 C1038 0.930 . S
H1029 C1039 0.930 . S
C1030 H1024 0.930 . S
C1030 C1031 1.355 . S
C1030 C1032 1.415 . S
C1031 C1030 1.355 . S
C1031 C1033 1.419 . S
C1032 C1030 1.415 . S
C1032 C1037 1.425 . S
C1032 C1039 1.409 . S
C1033 H1025 0.930 . S
C1033 C1031 1.419 . S
C1033 C1034 1.362 . S
C1034 H1026 0.930 . S
C1034 C1033 1.362 . S
C1034 C1037 1.409 . S
C1035 H1027 0.930 . S
C1035 C1036 1.355 . S
C1035 C1037 1.415 . S
C1036 C1035 1.355 . S
C1036 C1038 1.419 . S
C1037 C1032 1.425 . S
C1037 C1034 1.409 . S
C1037 C1035 1.415 . S
C1038 H1028 0.930 . S
C1038 C1036 1.419 . S
C1038 C1039 1.362 . S
C1039 H1029 0.930 . S
C1039 C1032 1.409 . S
C1039 C1038 1.362 . S
H1040 C1046 0.930 . S
H1041 C1049 0.930 . S
H1042 C1050 0.930 . S
H1043 C1051 0.930 . S
H1044 C1054 0.930 . S
H1045 C1055 0.930 . S
C1046 H1040 0.930 . S
C1046 C1047 1.355 . S
C1046 C1048 1.415 . S
C1047 C1046 1.355 . S
C1047 C1049 1.419 . S
C1048 C1046 1.415 . S
C1048 C1053 1.425 . S
C1048 C1055 1.409 . S
C1049 H1041 0.930 . S
C1049 C1047 1.419 . S
C1049 C1050 1.362 . S
C1050 H1042 0.930 . S
C1050 C1049 1.362 . S
C1050 C1053 1.409 . S
C1051 H1043 0.930 . S
C1051 C1052 1.355 . S
C1051 C1053 1.415 . S
C1052 C1051 1.355 . S
C1052 C1054 1.419 . S
C1053 C1048 1.425 . S
C1053 C1050 1.409 . S
C1053 C1051 1.415 . S
C1054 H1044 0.930 . S
C1054 C1052 1.419 . S
C1054 C1055 1.362 . S
C1055 H1045 0.930 . S
C1055 C1048 1.409 . S
C1055 C1054 1.362 . S
H1056 C1062 0.930 . S
H1057 C1065 0.930 . S
H1058 C1066 0.930 . S
H1059 C1067 0.930 . S
H1060 C1070 0.930 . S
H1061 C1071 0.930 . S
C1062 H1056 0.930 . S
C1062 C1063 1.355 1_455 S
C1062 C1064 1.415 . S
C1063 C1062 1.355 1_655 S
C1063 C1065 1.419 . S
C1064 C1062 1.415 . S
C1064 C1069 1.425 1_455 S
C1064 C1071 1.409 . S
C1065 H1057 0.930 . S
C1065 C1063 1.419 . S
C1065 C1066 1.362 . S
C1066 H1058 0.930 . S
C1066 C1065 1.362 . S
C1066 C1069 1.409 . S
C1067 H1059 0.930 . S
C1067 C1068 1.355 1_655 S
C1067 C1069 1.415 . S
C1068 C1067 1.355 1_455 S
C1068 C1070 1.419 . S
C1069 C1064 1.425 1_655 S
C1069 C1066 1.409 . S
C1069 C1067 1.415 . S
C1070 H1060 0.930 . S
C1070 C1068 1.419 . S
C1070 C1071 1.362 . S
C1071 H1061 0.930 . S
C1071 C1064 1.409 . S
C1071 C1070 1.362 . S
H1072 C1078 0.930 . S
H1073 C1081 0.930 . S
H1074 C1082 0.930 . S
H1075 C1083 0.930 . S
H1076 C1086 0.930 . S
H1077 C1087 0.930 . S
C1078 H1072 0.930 . S
C1078 C1079 1.355 1_545 S
C1078 C1080 1.415 . S
C1079 C1078 1.355 1_565 S
C1079 C1081 1.419 . S
C1080 C1078 1.415 . S
C1080 C1085 1.425 1_545 S
C1080 C1087 1.409 . S
C1081 H1073 0.930 . S
C1081 C1079 1.419 . S
C1081 C1082 1.362 . S
C1082 H1074 0.930 . S
C1082 C1081 1.362 . S
C1082 C1085 1.409 . S
C1083 H1075 0.930 . S
C1083 C1084 1.355 1_565 S
C1083 C1085 1.415 . S
C1084 C1083 1.355 1_545 S
C1084 C1086 1.419 . S
C1085 C1080 1.425 1_565 S
C1085 C1082 1.409 . S
C1085 C1083 1.415 . S
C1086 H1076 0.930 . S
C1086 C1084 1.419 . S
C1086 C1087 1.362 . S
C1087 H1077 0.930 . S
C1087 C1080 1.409 . S
C1087 C1086 1.362 . S
H1088 C1094 0.930 . S
H1089 C1097 0.930 . S
H1090 C1098 0.930 1_565 S
H1091 C1099 0.930 . S
H1092 C1102 0.930 . S
H1093 C1103 0.930 1_545 S
C1094 H1088 0.930 . S
C1094 C1095 1.355 . S
C1094 C1096 1.415 . S
C1095 C1094 1.355 . S
C1095 C1097 1.419 . S
C1096 C1094 1.415 . S
C1096 C1101 1.425 1_545 S
C1096 C1103 1.409 1_545 S
C1097 H1089 0.930 . S
C1097 C1095 1.419 . S
C1097 C1098 1.362 . S
C1098 H1090 0.930 1_545 S
C1098 C1097 1.362 . S
C1098 C1101 1.409 1_545 S
C1099 H1091 0.930 . S
C1099 C1100 1.355 . S
C1099 C1101 1.415 . S
C1100 C1099 1.355 . S
C1100 C1102 1.419 . S
C1101 C1096 1.425 1_565 S
C1101 C1098 1.409 1_565 S
C1101 C1099 1.415 . S
C1102 H1092 0.930 . S
C1102 C1100 1.419 . S
C1102 C1103 1.362 . S
C1103 H1093 0.930 1_565 S
C1103 C1096 1.409 1_565 S
C1103 C1102 1.362 . S
H1104 C1110 0.930 . S
H1105 C1113 0.930 . S
H1106 C1114 0.930 . S
H1107 C1115 0.930 . S
H1108 C1118 0.930 . S
H1109 C1119 0.930 . S
C1110 H1104 0.930 . S
C1110 C1111 1.355 . S
C1110 C1112 1.443 . S
C1111 C1110 1.355 . S
C1111 C1113 1.419 . S
C1112 C1110 1.443 . S
C1112 C1117 1.423 1_655 S
C1112 C1119 1.382 1_655 S
C1113 H1105 0.930 . S
C1113 C1111 1.419 . S
C1113 C1114 1.362 . S
C1114 H1106 0.930 . S
C1114 C1113 1.362 . S
C1114 C1117 1.382 1_655 S
C1115 H1107 0.930 . S
C1115 C1116 1.355 . S
C1115 C1117 1.443 . S
C1116 C1115 1.355 . S
C1116 C1118 1.419 . S
C1117 C1112 1.423 1_455 S
C1117 C1114 1.382 1_455 S
C1117 C1115 1.443 . S
C1118 H1108 0.930 . S
C1118 C1116 1.419 . S
C1118 C1119 1.362 . S
C1119 H1109 0.930 . S
C1119 C1112 1.382 1_455 S
C1119 C1118 1.362 . S
H1120 C1126 0.930 . S
H1121 C1129 0.930 . S
H1122 C1130 0.930 . S
H1123 C1131 0.930 . S
H1124 C1134 0.930 . S
H1125 C1135 0.930 . S
C1126 H1120 0.930 . S
C1126 C1127 1.355 . S
C1126 C1128 1.415 . S
C1127 C1126 1.355 . S
C1127 C1129 1.419 1_655 S
C1128 C1126 1.415 . S
C1128 C1133 1.425 1_655 S
C1128 C1135 1.409 . S
C1129 H1121 0.930 . S
C1129 C1127 1.419 1_455 S
C1129 C1130 1.362 . S
C1130 H1122 0.930 . S
C1130 C1129 1.362 . S
C1130 C1133 1.409 . S
C1131 H1123 0.930 . S
C1131 C1132 1.355 . S
C1131 C1133 1.415 . S
C1132 C1131 1.355 . S
C1132 C1134 1.419 1_455 S
C1133 C1128 1.425 1_455 S
C1133 C1130 1.409 . S
C1133 C1131 1.415 . S
C1134 H1124 0.930 . S
C1134 C1132 1.419 1_655 S
C1134 C1135 1.362 . S
C1135 H1125 0.930 . S
C1135 C1128 1.409 . S
C1135 C1134 1.362 . S
H1136 C1142 0.930 . S
H1137 C1145 0.930 . S
H1138 C1146 0.930 . S
H1139 C1147 0.930 . S
H1140 C1150 0.930 . S
H1141 C1151 0.930 . S
C1142 H1136 0.930 . S
C1142 C1143 1.355 . S
C1142 C1144 1.415 . S
C1143 C1142 1.355 . S
C1143 C1145 1.419 1_545 S
C1144 C1142 1.415 . S
C1144 C1149 1.425 1_545 S
C1144 C1151 1.409 . S
C1145 H1137 0.930 . S
C1145 C1143 1.419 1_565 S
C1145 C1146 1.362 . S
C1146 H1138 0.930 . S
C1146 C1145 1.362 . S
C1146 C1149 1.409 . S
C1147 H1139 0.930 . S
C1147 C1148 1.355 . S
C1147 C1149 1.415 . S
C1148 C1147 1.355 . S
C1148 C1150 1.419 1_565 S
C1149 C1144 1.425 1_565 S
C1149 C1146 1.409 . S
C1149 C1147 1.415 . S
C1150 H1140 0.930 . S
C1150 C1148 1.419 1_545 S
C1150 C1151 1.362 . S
C1151 H1141 0.930 . S
C1151 C1144 1.409 . S
C1151 C1150 1.362 . S
H1152 C1158 0.930 . S
H1153 C1161 0.930 . S
H1154 C1162 0.930 . S
H1155 C1163 0.930 . S
H1156 C1166 0.930 . S
H1157 C1167 0.930 . S
C1158 H1152 0.930 . S
C1158 C1159 1.355 . S
C1158 C1160 1.415 . S
C1159 C1158 1.355 . S
C1159 C1161 1.419 . S
C1160 C1158 1.415 . S
C1160 C1165 1.425 1_565 S
C1160 C1167 1.409 1_565 S
C1161 H1153 0.930 . S
C1161 C1159 1.419 . S
C1161 C1162 1.362 . S
C1162 H1154 0.930 . S
C1162 C1161 1.362 . S
C1162 C1165 1.409 1_565 S
C1163 H1155 0.930 . S
C1163 C1164 1.355 . S
C1163 C1165 1.415 . S
C1164 C1163 1.355 . S
C1164 C1166 1.419 . S
C1165 C1160 1.425 1_545 S
C1165 C1162 1.409 1_545 S
C1165 C1163 1.415 . S
C1166 H1156 0.930 . S
C1166 C1164 1.419 . S
C1166 C1167 1.362 . S
C1167 H1157 0.930 . S
C1167 C1160 1.409 1_545 S
C1167 C1166 1.362 . S
H1168 C1174 0.930 . S
H1169 C1177 0.930 . S
H1170 C1178 0.920 1_455 S
H1171 C1179 0.930 . S
H1172 C1182 0.930 . S
H1173 C1183 0.920 1_655 S
C1174 H1168 0.930 . S
C1174 C1175 1.355 . S
C1174 C1176 1.415 . S
C1175 C1174 1.355 . S
C1175 C1177 1.419 . S
C1176 C1174 1.415 . S
C1176 C1181 1.425 1_655 S
C1176 C1183 1.404 1_655 S
C1177 H1169 0.930 . S
C1177 C1175 1.419 . S
C1177 C1178 1.378 . S
C1178 H1170 0.920 1_655 S
C1178 C1177 1.378 . S
C1178 C1181 1.404 1_655 S
C1179 H1171 0.930 . S
C1179 C1180 1.355 . S
C1179 C1181 1.415 . S
C1180 C1179 1.355 . S
C1180 C1182 1.419 . S
C1181 C1176 1.425 1_455 S
C1181 C1178 1.404 1_455 S
C1181 C1179 1.415 . S
C1182 H1172 0.930 . S
C1182 C1180 1.419 . S
C1182 C1183 1.378 . S
C1183 H1173 0.920 1_455 S
C1183 C1176 1.404 1_455 S
C1183 C1182 1.378 . S
C551 C342 1.496 . S
C556 C2 1.500 . S
C567 C376 1.496 . S
C572 C36 1.500 . S
C583 C274 1.498 . S
C588 C70 1.498 . S
C599 C308 1.496 . S
C604 C104 1.500 . S
C615 C138 1.498 . S
C620 C478 1.498 . S
C631 C172 1.495 . S
C636 C512 1.500 . S
C647 C410 1.494 . S
C652 C206 1.502 . S
C663 C444 1.495 . S
C668 C240 1.501 . S
C679 C135 1.548 1_545 S
C684 C5 1.563 . S
C695 C39 1.568 . S
C700 C33 1.549 1_655 S
C711 C67 1.542 1_565 S
C716 C73 1.569 . S
C727 C107 1.554 . S
C732 C101 1.568 1_455 S
C743 C203 1.547 . S
C748 C141 1.564 . S
C759 C237 1.569 . S
C764 C175 1.553 . S
C775 C271 1.565 . S
C780 C209 1.552 . S
C791 C243 1.569 . S
C796 C169 1.542 . S
C807 C277 1.569 . S
C812 C407 1.545 1_565 S
C823 C311 1.551 . S
C828 C305 1.569 1_455 S
C839 C339 1.544 1_545 S
C844 C345 1.567 . S
C855 C379 1.551 . S
C860 C373 1.569 1_655 S
C871 C413 1.552 . S
C876 C475 1.569 . S
C887 C447 1.568 . S
C892 C509 1.543 . S
C903 C481 1.564 . S
C908 C543 1.546 . S
C919 C441 1.548 . S
C924 C515 1.563 . S
C935 C258 1.541 . S
C940 C20 1.533 . S
C951 C54 1.534 . S
C956 C156 1.542 . S
C967 C190 1.536 . S
C972 C88 1.544 . S
C983 C224 1.533 . S
C988 C122 1.530 . S
C999 C292 1.543 . S
C1004 C530 1.549 . S
C1015 C428 1.535 . S
C1020 C326 1.530 . S
C1031 C360 1.541 . S
C1036 C462 1.548 . S
C1047 C496 1.530 . S
C1052 C394 1.533 . S
C1063 C77 1.269 . S
C1068 C9 1.236 . S
C1079 C111 1.269 . S
C1084 C43 1.252 . S
C1095 C145 1.255 . S
C1100 C213 1.268 . S
C1111 C179 1.178 . S
C1116 C247 1.225 . S
C1127 C281 1.172 . S
C1132 C349 1.189 . S
C1143 C383 1.190 . S
C1148 C315 1.172 . S
C1159 C417 1.171 . S
C1164 C485 1.193 . S
C1175 C519 1.257 . S
C1180 C451 1.267 . S
