# Generated by pormake.
# Topology whw, (6)-cn, num edge types: 1
# Building blocks:
#     Node 0, Type 0, BuildingBlock: UKALOJ_clean_sbu_0, # of connection points: 6
#     Node 1, Type 0, BuildingBlock: UKALOJ_clean_sbu_0, # of connection points: 6
#     Node 2, Type 0, BuildingBlock: UKALOJ_clean_sbu_0, # of connection points: 6
#     Node 3, Type 0, BuildingBlock: UKALOJ_clean_sbu_0, # of connection points: 6
#     Node 4, Type 0, BuildingBlock: UKALOJ_clean_sbu_0, # of connection points: 6
#     Node 5, Type 0, BuildingBlock: UKALOJ_clean_sbu_0, # of connection points: 6
#     Node 6, Type 0, BuildingBlock: UKALOJ_clean_sbu_0, # of connection points: 6
#     Node 7, Type 0, BuildingBlock: UKALOJ_clean_sbu_0, # of connection points: 6
#     Node 8, Type 0, BuildingBlock: UKALOJ_clean_sbu_0, # of connection points: 6
#     Node 9, Type 0, BuildingBlock: UKALOJ_clean_sbu_0, # of connection points: 6
#     Node 10, Type 0, BuildingBlock: UKALOJ_clean_sbu_0, # of connection points: 6
#     Node 11, Type 0, BuildingBlock: UKALOJ_clean_sbu_0, # of connection points: 6
#     Node 12, Type 0, BuildingBlock: UKALOJ_clean_sbu_0, # of connection points: 6
#     Node 13, Type 0, BuildingBlock: UKALOJ_clean_sbu_0, # of connection points: 6
#     Node 14, Type 0, BuildingBlock: UKALOJ_clean_sbu_0, # of connection points: 6
#     Node 15, Type 0, BuildingBlock: UKALOJ_clean_sbu_0, # of connection points: 6
#     Edge 16, Type (0, 0), BuildingBlock: KIFKEQ_clean_linker_1, # of connection points: 2
#     Edge 17, Type (0, 0), BuildingBlock: KIFKEQ_clean_linker_1, # of connection points: 2
#     Edge 18, Type (0, 0), BuildingBlock: KIFKEQ_clean_linker_1, # of connection points: 2
#     Edge 19, Type (0, 0), BuildingBlock: KIFKEQ_clean_linker_1, # of connection points: 2
#     Edge 20, Type (0, 0), BuildingBlock: KIFKEQ_clean_linker_1, # of connection points: 2
#     Edge 21, Type (0, 0), BuildingBlock: KIFKEQ_clean_linker_1, # of connection points: 2
#     Edge 22, Type (0, 0), BuildingBlock: KIFKEQ_clean_linker_1, # of connection points: 2
#     Edge 23, Type (0, 0), BuildingBlock: KIFKEQ_clean_linker_1, # of connection points: 2
#     Edge 24, Type (0, 0), BuildingBlock: KIFKEQ_clean_linker_1, # of connection points: 2
#     Edge 25, Type (0, 0), BuildingBlock: KIFKEQ_clean_linker_1, # of connection points: 2
#     Edge 26, Type (0, 0), BuildingBlock: KIFKEQ_clean_linker_1, # of connection points: 2
#     Edge 27, Type (0, 0), BuildingBlock: KIFKEQ_clean_linker_1, # of connection points: 2
#     Edge 28, Type (0, 0), BuildingBlock: KIFKEQ_clean_linker_1, # of connection points: 2
#     Edge 29, Type (0, 0), BuildingBlock: KIFKEQ_clean_linker_1, # of connection points: 2
#     Edge 30, Type (0, 0), BuildingBlock: KIFKEQ_clean_linker_1, # of connection points: 2
#     Edge 31, Type (0, 0), BuildingBlock: KIFKEQ_clean_linker_1, # of connection points: 2
#     Edge 32, Type (0, 0), BuildingBlock: KIFKEQ_clean_linker_1, # of connection points: 2
#     Edge 33, Type (0, 0), BuildingBlock: KIFKEQ_clean_linker_1, # of connection points: 2
#     Edge 34, Type (0, 0), BuildingBlock: KIFKEQ_clean_linker_1, # of connection points: 2
#     Edge 35, Type (0, 0), BuildingBlock: KIFKEQ_clean_linker_1, # of connection points: 2
#     Edge 36, Type (0, 0), BuildingBlock: KIFKEQ_clean_linker_1, # of connection points: 2
#     Edge 37, Type (0, 0), BuildingBlock: KIFKEQ_clean_linker_1, # of connection points: 2
#     Edge 38, Type (0, 0), BuildingBlock: KIFKEQ_clean_linker_1, # of connection points: 2
#     Edge 39, Type (0, 0), BuildingBlock: KIFKEQ_clean_linker_1, # of connection points: 2
#     Edge 40, Type (0, 0), BuildingBlock: KIFKEQ_clean_linker_1, # of connection points: 2
#     Edge 41, Type (0, 0), BuildingBlock: KIFKEQ_clean_linker_1, # of connection points: 2
#     Edge 42, Type (0, 0), BuildingBlock: KIFKEQ_clean_linker_1, # of connection points: 2
#     Edge 43, Type (0, 0), BuildingBlock: KIFKEQ_clean_linker_1, # of connection points: 2
#     Edge 44, Type (0, 0), BuildingBlock: KIFKEQ_clean_linker_1, # of connection points: 2
#     Edge 45, Type (0, 0), BuildingBlock: KIFKEQ_clean_linker_1, # of connection points: 2
#     Edge 46, Type (0, 0), BuildingBlock: KIFKEQ_clean_linker_1, # of connection points: 2
#     Edge 47, Type (0, 0), BuildingBlock: KIFKEQ_clean_linker_1, # of connection points: 2
#     Edge 48, Type (0, 0), BuildingBlock: KIFKEQ_clean_linker_1, # of connection points: 2
#     Edge 49, Type (0, 0), BuildingBlock: KIFKEQ_clean_linker_1, # of connection points: 2
#     Edge 50, Type (0, 0), BuildingBlock: KIFKEQ_clean_linker_1, # of connection points: 2
#     Edge 51, Type (0, 0), BuildingBlock: KIFKEQ_clean_linker_1, # of connection points: 2
#     Edge 52, Type (0, 0), BuildingBlock: KIFKEQ_clean_linker_1, # of connection points: 2
#     Edge 53, Type (0, 0), BuildingBlock: KIFKEQ_clean_linker_1, # of connection points: 2
#     Edge 54, Type (0, 0), BuildingBlock: KIFKEQ_clean_linker_1, # of connection points: 2
#     Edge 55, Type (0, 0), BuildingBlock: KIFKEQ_clean_linker_1, # of connection points: 2
#     Edge 56, Type (0, 0), BuildingBlock: KIFKEQ_clean_linker_1, # of connection points: 2
#     Edge 57, Type (0, 0), BuildingBlock: KIFKEQ_clean_linker_1, # of connection points: 2
#     Edge 58, Type (0, 0), BuildingBlock: KIFKEQ_clean_linker_1, # of connection points: 2
#     Edge 59, Type (0, 0), BuildingBlock: KIFKEQ_clean_linker_1, # of connection points: 2
#     Edge 60, Type (0, 0), BuildingBlock: KIFKEQ_clean_linker_1, # of connection points: 2
#     Edge 61, Type (0, 0), BuildingBlock: KIFKEQ_clean_linker_1, # of connection points: 2
#     Edge 62, Type (0, 0), BuildingBlock: KIFKEQ_clean_linker_1, # of connection points: 2
#     Edge 63, Type (0, 0), BuildingBlock: KIFKEQ_clean_linker_1, # of connection points: 2
# Relax obj value: 0.883
# Max RMSD: 0.238
# Mean RMSD: 0.238
data_MOF--net-whw--node1-UKALOJ_clean_sbu_0--edge1-KIFKEQ_clean_linker_1
_symmetry_space_group_name_H-M    P1
_symmetry_Int_Tables_number       1
_symmetry_cell_setting            triclinic
loop_
_symmetry_equiv_pos_as_xyz
'x, y, z'
_cell_length_a     65.018292
_cell_length_b     64.881347
_cell_length_c     22.257646
_cell_angle_alpha  90.113754
_cell_angle_beta   90.128616
_cell_angle_gamma 89.988335
loop_
_atom_site_label
_atom_site_type_symbol
_atom_site_fract_x
_atom_site_fract_y
_atom_site_fract_z
_atom_type_partial_charge
Zn0 Zn 0.0493 0.16044 0.10878 0.0
O1 O 0.03076 0.16918 0.02884 0.0
C2 C 0.08772 0.16348 0.03457 0.0
Zn3 Zn 0.06203 0.19251 0.10259 0.0
C4 C 0.03274 0.18691 1.00416 0.0
O5 O 0.04527 0.19982 0.02669 0.0
C6 C 0.08004 0.16862 0.20569 0.0
O7 O 0.03701 0.20298 0.15717 0.0
O8 O 0.0247 0.17165 0.1676 0.0
N9 N 0.07687 0.22036 0.10283 0.0
C10 C 0.0847 0.22971 0.15167 0.0
C11 C 0.10002 0.24247 0.07591 0.0
N12 N 0.0865 0.22819 0.05559 0.0
N13 N 0.09963 0.24311 0.13637 0.0
C14 C 0.03878 0.11517 0.06558 0.0
C15 C 0.02359 0.10227 0.14123 0.0
N16 N 0.03751 0.13027 0.10764 0.0
N17 N 0.02797 0.12213 0.15448 0.0
N18 N 0.03035 0.09739 0.08574 0.0
H19 H 0.04496 0.1343 0.98858 0.0
H20 H 0.03934 0.10768 0.97115 0.0
H21 H 0.06379 0.11455 1.00333 0.0
C22 C 0.04711 0.11816 1.00346 0.0
C23 C 0.07641 0.22736 0.21402 0.0
H24 H 0.0628 0.21739 0.21645 0.0
H25 H 0.07193 0.24281 0.2298 0.0
H26 H 0.08833 0.22102 0.24451 0.0
O27 O 0.07934 0.18521 0.17659 0.0
O28 O 0.06849 0.15366 0.18952 0.0
C29 C 0.02368 0.1909 0.1799 0.0
O30 O 0.07428 0.15049 0.05117 0.0
O31 O 0.08593 0.18213 0.0499 0.0
Zn32 Zn 0.15335 0.77797 0.39715 0.0
O33 O 0.14493 0.75652 0.32475 0.0
C34 C 0.13345 0.81269 0.32501 0.0
Zn35 Zn 0.11966 0.7827 0.41361 0.0
C36 C 0.12601 0.75202 0.31507 0.0
O37 O 0.11215 0.7606 0.34687 0.0
C38 C 0.14539 0.80937 0.49265 0.0
O39 O 0.12171 0.75845 0.47615 0.0
O40 O 0.15429 0.75204 0.46031 0.0
N41 N 0.08954 0.78539 0.44077 0.0
C42 C 0.08326 0.78593 0.49866 0.0
C43 C 0.0596 0.77159 0.44852 0.0
N44 N 0.07444 0.77697 0.40933 0.0
N45 N 0.06495 0.77658 0.50541 0.0
C46 C 0.19828 0.77526 0.33636 0.0
C47 C 0.21602 0.77146 0.41609 0.0
N48 N 0.1849 0.77455 0.38298 0.0
N49 N 0.19611 0.77208 0.43213 0.0
N50 N 0.21804 0.77345 0.35615 0.0
H51 H 0.17604 0.78468 0.26972 0.0
H52 H 0.19233 0.76368 0.24824 0.0
H53 H 0.20272 0.78938 0.25002 0.0
C54 C 0.19193 0.77863 0.27246 0.0
C55 C 0.09553 0.79395 0.55094 0.0
H56 H 0.09938 0.81039 0.54359 0.0
H57 H 0.10979 0.78485 0.55728 0.0
H58 H 0.08635 0.79325 0.59262 0.0
O59 O 0.1275 0.8048 0.47553 0.0
O60 O 0.16064 0.79988 0.46993 0.0
C61 C 0.1375 0.74766 0.4868 0.0
O62 O 0.15071 0.80378 0.33463 0.0
O63 O 0.11734 0.80643 0.35163 0.0
Zn64 Zn 0.52892 0.88438 0.64779 0.0
O65 O 0.54971 0.87218 0.5789 0.0
C66 C 0.49315 0.87226 0.56578 0.0
Zn67 Zn 0.51811 0.85171 0.65526 0.0
C68 C 0.55063 0.85298 0.56549 0.0
O69 O 0.53868 0.84027 0.59147 0.0
C70 C 0.49545 0.88154 0.73564 0.0
O71 O 0.54165 0.84766 0.71848 0.0
O72 O 0.55293 0.87941 0.71735 0.0
N73 N 0.50673 0.82326 0.67752 0.0
C74 C 0.5041 0.81557 0.73329 0.0
C75 C 0.49436 0.79257 0.67136 0.0
N76 N 0.50026 0.80912 0.63904 0.0
N77 N 0.49643 0.79608 0.73104 0.0
C78 C 0.53683 0.92861 0.59003 0.0
C79 C 0.55207 0.94384 0.66227 0.0
N80 N 0.53894 0.91467 0.63489 0.0
N81 N 0.54847 0.92428 0.67951 0.0
N82 N 0.54481 0.94714 0.60634 0.0
H83 H 0.53179 0.90741 0.51718 0.0
H84 H 0.53462 0.93404 0.49462 0.0
H85 H 0.51126 0.92553 0.53029 0.0
C86 C 0.52821 0.92361 0.52932 0.0
C87 C 0.50947 0.82717 0.79019 0.0
H88 H 0.51445 0.84308 0.78347 0.0
H89 H 0.52226 0.81943 0.81409 0.0
H90 H 0.49577 0.82819 0.81954 0.0
O91 O 0.49713 0.86342 0.71591 0.0
O92 O 0.50776 0.89535 0.71706 0.0
C93 C 0.55423 0.86104 0.73751 0.0
O94 O 0.50469 0.88753 0.57936 0.0
O95 O 0.49586 0.85509 0.59153 0.0
Zn96 Zn 0.42681 0.25666 0.86395 0.0
O97 O 0.43556 0.27601 0.78628 0.0
C98 C 0.43232 0.21956 0.78682 0.0
Zn99 Zn 0.45966 0.24626 0.86034 0.0
C100 C 0.45393 0.27642 0.76552 0.0
O101 O 0.46766 0.26498 0.78871 0.0
C102 C 0.43468 0.22564 0.95756 0.0
O103 O 0.46894 0.26995 0.91877 0.0
O104 O 0.43716 0.28121 0.92641 0.0
N105 N 0.4876 0.2317 0.86157 0.0
C106 C 0.49601 0.22256 0.90993 0.0
C107 C 0.50866 0.20779 0.83285 0.0
N108 N 0.49543 0.22247 0.81355 0.0
N109 N 0.50865 0.2071 0.8933 0.0
C110 C 0.38141 0.26668 0.82166 0.0
C111 C 0.36875 0.28139 0.89868 0.0
N112 N 0.39664 0.26793 0.86317 0.0
N113 N 0.38866 0.27715 0.91087 0.0
N114 N 0.36367 0.27484 0.84305 0.0
H115 H 0.40036 0.26109 0.74403 0.0
H116 H 0.37365 0.26642 0.72741 0.0
H117 H 0.381 0.24188 0.75831 0.0
C118 C 0.38431 0.25865 0.75909 0.0
C119 C 0.49306 0.22964 0.97359 0.0
H120 H 0.48534 0.24468 0.97667 0.0
H121 H 0.5083 0.23107 0.995 0.0
H122 H 0.48396 0.21819 0.99913 0.0
O123 O 0.45164 0.22737 0.93082 0.0
O124 O 0.41961 0.23691 0.9413 0.0
C125 C 0.45618 0.2827 0.94096 0.0
O126 O 0.41796 0.23154 0.8038 0.0
O127 O 0.45056 0.22326 0.80312 0.0
Zn128 Zn 0.05766 0.85783 0.90198 0.0
O129 O 0.0395 0.84915 0.82715 0.0
C130 C 0.08278 0.88272 0.81611 0.0
Zn131 Zn 0.04608 0.89008 0.89292 0.0
C132 C 0.02645 0.86101 0.80221 0.0
O133 O 0.02473 0.87957 0.82137 0.0
C134 C 0.07737 0.88479 0.99131 0.0
O135 O 0.02338 0.8816 0.96068 0.0
O136 O 0.03378 0.84921 0.95846 0.0
N137 N 0.03534 0.92064 0.88981 0.0
C138 C 0.03501 0.93555 0.9326 0.0
C139 C 0.02547 0.94956 0.85085 0.0
N140 N 0.0293 0.92947 0.83913 0.0
N141 N 0.02909 0.95388 0.90921 0.0
C142 C 0.08174 0.82064 0.86289 0.0
C143 C 0.09847 0.81271 0.94192 0.0
N144 N 0.07235 0.83004 0.90905 0.0
N145 N 0.08272 0.82505 0.9583 0.0
N146 N 0.0986 0.81035 0.88185 0.0
H147 H 0.0562 0.81601 0.80452 0.0
H148 H 0.07978 0.80743 0.77375 0.0
H149 H 0.07469 0.83467 0.77778 0.0
C150 C 0.07278 0.81969 0.80096 0.0
C151 C 0.03926 0.93194 0.99796 0.0
H152 H 0.03542 0.91589 0.01066 0.0
H153 H 0.0302 0.94275 0.02609 0.0
H154 H 0.05581 0.93468 1.00719 0.0
O155 O 0.06771 0.89904 0.96409 0.0
O156 O 0.07497 0.86639 0.97486 0.0
C157 C 0.02145 0.86289 0.97784 0.0
O158 O 0.0815 0.86629 0.84603 0.0
O159 O 0.06919 0.89669 0.82347 0.0
Zn160 Zn 0.45658 0.78062 0.11235 0.0
O161 O 0.45349 0.76141 0.03787 0.0
C162 C 0.4317 0.80996 0.04464 0.0
Zn163 Zn 0.42354 0.77381 0.12735 0.0
C164 C 0.43877 0.74979 0.02339 0.0
O165 O 0.42264 0.75 0.05569 0.0
C166 C 0.44329 0.80556 0.21184 0.0
O167 O 0.43172 0.75021 0.19462 0.0
O168 O 0.46361 0.75514 0.16602 0.0
N169 N 0.39198 0.76964 0.14001 0.0
C170 C 0.37834 0.77282 0.18502 0.0
C171 C 0.36147 0.76093 0.11049 0.0
N172 N 0.38133 0.76228 0.09398 0.0
N173 N 0.35901 0.76752 0.16745 0.0
C174 C 0.49393 0.77955 0.03389 0.0
C175 C 0.51566 0.76637 0.09306 0.0
N176 N 0.48709 0.78303 0.09015 0.0
N177 N 0.50108 0.7754 0.12709 0.0
N178 N 0.51127 0.76819 0.03397 0.0
H179 H 0.46734 0.79096 0.98332 0.0
H180 H 0.48443 0.77449 0.94248 0.0
H181 H 0.49182 0.8004 0.96101 0.0
C182 C 0.48352 0.7866 0.9774 0.0
C183 C 0.38425 0.77992 0.24666 0.0
H184 H 0.39998 0.77451 0.25794 0.0
H185 H 0.37322 0.77415 0.28066 0.0
H186 H 0.38418 0.79702 0.24776 0.0
O187 O 0.4259 0.79774 0.19708 0.0
O188 O 0.45949 0.79968 0.18502 0.0
C189 C 0.45081 0.74558 0.19866 0.0
O190 O 0.44975 0.80629 0.06272 0.0
O191 O 0.41701 0.79807 0.06033 0.0
Zn192 Zn 0.52893 0.15227 0.38665 0.0
O193 O 0.54734 0.16265 0.46447 0.0
C194 C 0.49111 0.162 0.45978 0.0
Zn195 Zn 0.51917 0.1853 0.38273 0.0
C196 C 0.54874 0.18157 0.48075 0.0
O197 O 0.53833 0.19521 0.45298 0.0
C198 C 0.49849 0.15774 0.29091 0.0
O199 O 0.54351 0.19117 0.32337 0.0
O200 O 0.55507 0.15947 0.32686 0.0
N201 N 0.50671 0.21395 0.36706 0.0
C202 C 0.50042 0.22187 0.31399 0.0
C203 C 0.48988 0.24207 0.38284 0.0
N204 N 0.49996 0.22641 0.40982 0.0
N205 N 0.48938 0.23938 0.32265 0.0
C206 C 0.53631 0.10736 0.43894 0.0
C207 C 0.55252 0.09307 0.36709 0.0
N208 N 0.53889 0.12183 0.39581 0.0
N209 N 0.54901 0.11282 0.35138 0.0
N210 N 0.54459 0.08908 0.42177 0.0
H211 H 0.52945 0.12787 0.51229 0.0
H212 H 0.53345 0.10127 0.53377 0.0
H213 H 0.51005 0.10881 0.49625 0.0
C214 C 0.52686 0.11159 0.499 0.0
C215 C 0.50492 0.2121 0.25369 0.0
H216 H 0.51732 0.20061 0.25579 0.0
H217 H 0.50969 0.22343 0.21968 0.0
H218 H 0.49082 0.20439 0.23676 0.0
O219 O 0.49985 0.17507 0.31597 0.0
O220 O 0.51023 0.14322 0.30837 0.0
C221 C 0.55682 0.17794 0.30757 0.0
O222 O 0.50238 0.14669 0.44512 0.0
O223 O 0.49577 0.17983 0.44137 0.0
Zn224 Zn 0.12355 0.25119 0.64961 0.0
O225 O 0.11516 0.27774 0.59847 0.0
C226 C 0.14816 0.23267 0.548 0.0
Zn227 Zn 0.1561 0.26223 0.64671 0.0
C228 C 0.12821 0.29012 0.57607 0.0
O229 O 0.14731 0.28737 0.58683 0.0
C230 C 0.14997 0.2234 0.71864 0.0
O231 O 0.14678 0.28118 0.72599 0.0
O232 O 0.11588 0.26724 0.72683 0.0
N233 N 0.18653 0.27268 0.65112 0.0
C234 C 0.20138 0.27056 0.69348 0.0
C235 C 0.21507 0.28562 0.61874 0.0
N236 N 0.19515 0.2821 0.60487 0.0
N237 N 0.21952 0.27839 0.67403 0.0
C238 C 0.0856 0.23308 0.58899 0.0
C239 C 0.06849 0.21942 0.65993 0.0
N240 N 0.09496 0.23838 0.6408 0.0
N241 N 0.08445 0.22971 0.68496 0.0
N242 N 0.06928 0.22071 0.59947 0.0
H243 H 0.10278 0.25367 0.5297 0.0
H244 H 0.0783 0.24617 0.5031 0.0
H245 H 0.09907 0.22807 0.50201 0.0
C246 C 0.09189 0.24077 0.52795 0.0
C247 C 0.19775 0.26204 0.75506 0.0
H248 H 0.18169 0.26496 0.76938 0.0
H249 H 0.20846 0.26909 0.78808 0.0
H250 H 0.20042 0.24516 0.75443 0.0
O251 O 0.16367 0.23663 0.70545 0.0
O252 O 0.13174 0.22589 0.70019 0.0
C253 C 0.12891 0.27954 0.74993 0.0
O254 O 0.13128 0.23447 0.57486 0.0
O255 O 0.1636 0.24295 0.56697 0.0
Zn256 Zn 0.9499 0.29192 0.59113 0.0
O257 O 0.95121 0.27294 0.51376 0.0
C258 C 0.91749 0.3157 0.53074 0.0
Zn259 Zn 0.91901 0.27792 0.60777 0.0
C260 C 0.93823 0.25938 0.49832 0.0
O261 O 0.92208 0.25699 0.53009 0.0
C262 C 0.93336 0.31024 0.69926 0.0
O263 O 0.93349 0.25503 0.66495 0.0
O264 O 0.96371 0.26806 0.64199 0.0
N265 N 0.88963 0.26629 0.62651 0.0
C266 C 0.87273 0.27455 0.65287 0.0
C267 C 0.86507 0.24385 0.62744 0.0
N268 N 0.88469 0.24724 0.61067 0.0
N269 N 0.85701 0.26075 0.65378 0.0
C270 C 0.98385 0.30703 0.51022 0.0
C271 C 1.01029 0.299 0.56009 0.0
N272 N 0.97779 0.30343 0.56711 0.0
N273 N 0.99443 0.29918 0.59876 0.0
N274 N 1.00403 0.30293 0.50316 0.0
H275 H 0.96356 0.32998 0.47431 0.0
H276 H 0.95736 0.30421 0.4515 0.0
H277 H 0.97909 0.31729 0.4187 0.0
C278 C 0.97021 0.31494 0.46067 0.0
C279 C 0.87258 0.29535 0.68233 0.0
H280 H 0.88154 0.29448 0.72471 0.0
H281 H 0.85696 0.30068 0.69402 0.0
H282 H 0.88005 0.3068 0.65255 0.0
O283 O 0.91824 0.29852 0.68578 0.0
O284 O 0.94917 0.31046 0.66619 0.0
C285 C 0.95307 0.25471 0.67002 0.0
O286 O 0.93629 0.31504 0.54444 0.0
O287 O 0.90548 0.30148 0.54883 0.0
Zn288 Zn 0.62277 0.74593 0.14957 0.0
O289 O 0.61386 0.76748 0.08327 0.0
C290 C 0.64955 0.72473 0.05841 0.0
Zn291 Zn 0.65479 0.75852 0.14647 0.0
C292 C 0.62586 0.78115 0.06219 0.0
O293 O 0.64447 0.78184 0.08112 0.0
C294 C 0.64986 0.72303 0.23152 0.0
O295 O 0.64447 0.77857 0.22048 0.0
O296 O 0.61277 0.76654 0.21486 0.0
N297 N 0.68471 0.7706 0.14997 0.0
C298 C 0.69921 0.76996 0.19378 0.0
C299 C 0.7132 0.78364 0.1173 0.0
N300 N 0.69351 0.77921 0.10262 0.0
N301 N 0.71728 0.77785 0.17424 0.0
C302 C 0.58749 0.71991 0.10006 0.0
C303 C 0.57347 0.70798 0.17902 0.0
N304 N 0.59545 0.73034 0.14711 0.0
N305 N 0.5868 0.72281 0.19622 0.0
N306 N 0.57411 0.70533 0.11893 0.0
H307 H 0.60025 0.73949 0.03018 0.0
H308 H 0.5777 0.72569 0.00963 0.0
H309 H 0.6019 0.71249 0.01579 0.0
C310 C 0.59215 0.72475 0.0355 0.0
C311 C 0.69537 0.76281 0.25674 0.0
H312 H 0.70555 0.77105 0.28885 0.0
H313 H 0.69874 0.74608 0.2599 0.0
H314 H 0.67911 0.76544 0.26951 0.0
O315 O 0.66367 0.73484 0.21058 0.0
O316 O 0.63146 0.72516 0.21456 0.0
C317 C 0.62573 0.77887 0.23815 0.0
O318 O 0.63269 0.72537 0.08599 0.0
O319 O 0.66342 0.73793 0.07129 0.0
Zn320 Zn 0.65314 0.27257 0.90088 0.0
O321 O 0.64447 0.24853 0.83626 0.0
C322 C 0.63077 0.30406 0.82399 0.0
Zn323 Zn 0.61977 0.27656 0.92321 0.0
C324 C 0.62539 0.2444 0.8284 0.0
O325 O 0.61199 0.25377 0.85974 0.0
C326 C 0.64535 0.30594 0.99255 0.0
O327 O 0.62399 0.25325 0.98637 0.0
O328 O 0.65701 0.2495 0.97254 0.0
N329 N 0.59015 0.27784 0.95399 0.0
C330 C 0.58484 0.27491 0.01206 0.0
C331 C 0.56012 0.26415 0.95851 0.0
N332 N 0.57449 0.27157 0.92073 0.0
N333 N 0.56638 0.2656 0.01633 0.0
C334 C 0.69684 0.26924 0.83317 0.0
C335 C 0.71622 0.26806 0.91026 0.0
N336 N 0.68449 0.27026 0.88214 0.0
N337 N 0.69672 0.26958 0.92965 0.0
N338 N 0.71699 0.26782 0.84973 0.0
H339 H 0.67246 0.26451 0.76883 0.0
H340 H 0.69801 0.25793 0.74231 0.0
H341 H 0.69039 0.2845 0.7504 0.0
C342 C 0.68893 0.26886 0.77 0.0
C343 C 0.59747 0.28132 0.0658 0.0
H344 H 0.61354 0.27598 0.06333 0.0
H345 H 0.59076 0.27544 0.1081 0.0
H346 H 0.5978 0.2984 0.06811 0.0
O347 O 0.62727 0.29951 0.98394 0.0
O348 O 0.66022 0.29755 0.96443 0.0
C349 C 0.64064 0.24447 1.00012 0.0
O350 O 0.64811 0.29509 0.83129 0.0
O351 O 0.61566 0.29956 0.85792 0.0
Zn352 Zn 0.92244 0.76194 0.38423 0.0
O353 O 0.93106 0.78495 0.31667 0.0
C354 C 0.92989 0.72946 0.28915 0.0
Zn355 Zn 0.95539 0.75203 0.37546 0.0
C356 C 0.94936 0.78662 0.29603 0.0
O357 O 0.96331 0.77421 0.31324 0.0
C358 C 0.93083 0.72651 0.46328 0.0
O359 O 0.96266 0.77328 0.44304 0.0
O360 O 0.93102 0.78396 0.45667 0.0
N361 N 0.98396 0.73846 0.37715 0.0
C362 C 0.99356 0.73287 0.42814 0.0
C363 C 1.00264 0.71137 0.36079 0.0
N364 N 0.98969 0.7251 0.33517 0.0
N365 N 1.00469 0.71555 0.41972 0.0
C366 C 0.87726 0.77183 0.33983 0.0
C367 C 0.8625 0.78197 0.41981 0.0
N368 N 0.8917 0.77181 0.38386 0.0
N369 N 0.88241 0.77821 0.43341 0.0
N370 N 0.85876 0.77795 0.36135 0.0
H371 H 0.89757 0.77124 0.26342 0.0
H372 H 0.87082 0.77572 0.24545 0.0
H373 H 0.87927 0.7504 0.26696 0.0
C374 C 0.88153 0.76712 0.27511 0.0
C375 C 0.99293 0.74516 0.48517 0.0
H376 H 0.99603 0.76158 0.4751 0.0
H377 H 1.00489 0.74024 0.51689 0.0
H378 H 0.97769 0.74361 0.50691 0.0
O379 O 0.94765 0.72987 0.43699 0.0
O380 O 0.91556 0.73831 0.45246 0.0
C381 C 0.95014 0.78504 0.47017 0.0
O382 O 0.91543 0.73998 0.31243 0.0
O383 O 0.94807 0.73182 0.30777 0.0
Zn384 Zn 0.54985 0.65313 0.63539 0.0
O385 O 0.52973 0.66346 0.56093 0.0
C386 C 0.58736 0.66282 0.55932 0.0
Zn387 Zn 0.56015 0.68607 0.63782 0.0
C388 C 0.52993 0.68198 0.54086 0.0
O389 O 0.54188 0.69519 0.56507 0.0
C390 C 0.58121 0.65905 0.72969 0.0
O391 O 0.53447 0.6919 0.69445 0.0
O392 O 0.52502 0.6595 0.69928 0.0
N393 N 0.57126 0.71515 0.65478 0.0
C394 C 0.57498 0.72377 0.70901 0.0
C395 C 0.58497 0.74508 0.64271 0.0
N396 N 0.57776 0.72828 0.61359 0.0
N397 N 0.58388 0.74257 0.70289 0.0
C398 C 0.5422 0.6081 0.58334 0.0
C399 C 0.52781 0.59354 0.65782 0.0
N400 N 0.54028 0.62253 0.62706 0.0
N401 N 0.5313 0.61335 0.67312 0.0
N402 N 0.53462 0.58968 0.60175 0.0
H403 H 0.54705 0.62872 0.50914 0.0
H404 H 0.54324 0.60202 0.48808 0.0
H405 H 0.56719 0.61014 0.52149 0.0
C406 C 0.55029 0.61251 0.52176 0.0
C407 C 0.56982 0.71366 0.76831 0.0
H408 H 0.56123 0.72406 0.79827 0.0
H409 H 0.58428 0.70912 0.79136 0.0
H410 H 0.56013 0.69992 0.76402 0.0
O411 O 0.57907 0.6766 0.70664 0.0
O412 O 0.57025 0.6442 0.71025 0.0
C413 C 0.52228 0.67828 0.71443 0.0
O414 O 0.57501 0.64819 0.57215 0.0
O415 O 0.5845 0.6806 0.5813 0.0
Zn416 Zn 0.02265 0.34866 0.17395 0.0
O417 O 0.04299 0.35186 0.24635 0.0
C418 C 0.99308 0.37406 0.23808 0.0
Zn419 Zn 0.02947 0.38194 0.15468 0.0
C420 C 0.05328 0.36758 0.26125 0.0
O421 O 0.05153 0.38394 0.23001 0.0
C422 C 0.99863 0.36136 0.06985 0.0
O423 O 0.05442 0.37375 0.09314 0.0
O424 O 0.0477 0.34159 0.11732 0.0
N425 N 0.03231 0.41366 0.14054 0.0
C426 C 0.03466 0.42654 0.09313 0.0
C427 C 0.03003 0.44535 0.1705 0.0
N428 N 0.02956 0.42554 0.18832 0.0
N429 N 0.03323 0.44652 0.1109 0.0
C430 C 0.02092 0.31144 0.25466 0.0
C431 C 0.03474 0.28869 0.20008 0.0
N432 N 0.01996 0.31825 0.1975 0.0
N433 N 0.02799 0.3037 0.16325 0.0
N434 N 0.03119 0.29342 0.25834 0.0
H435 H 0.01764 0.33802 0.3133 0.0
H436 H 1.01468 0.31354 0.34983 0.0
H437 H 0.99479 0.3234 0.30137 0.0
C438 C 1.01167 0.32222 0.30796 0.0
C439 C 0.03708 0.41956 0.02948 0.0
H440 H 0.05293 0.42308 0.01427 0.0
H441 H 0.02627 0.42815 1.00009 0.0
H442 H 0.03437 0.40275 0.0252 0.0
O443 O 1.00764 0.3785 0.08081 0.0
O444 O 1.00243 0.34569 0.1022 0.0
C445 C 0.05832 0.3545 0.08766 0.0
O446 O 0.9979 0.3556 0.22716 0.0
O447 O 1.00377 0.38866 0.21599 0.0
Zn448 Zn 0.55902 0.35356 0.34856 0.0
O449 O 0.53847 0.35346 0.27552 0.0
C450 C 0.58412 0.38517 0.28493 0.0
Zn451 Zn 0.5475 0.38558 0.36381 0.0
C452 C 0.52553 0.36701 0.2607 0.0
O453 O 0.52485 0.38375 0.29054 0.0
C454 C 0.58013 0.36948 0.45233 0.0
O455 O 0.52538 0.3719 0.4249 0.0
O456 O 0.53537 0.34036 0.4012 0.0
N457 N 0.53776 0.41568 0.38296 0.0
C458 C 0.54075 0.42936 0.4283 0.0
C459 C 0.52365 0.44487 0.36039 0.0
N460 N 0.52708 0.42549 0.34113 0.0
N461 N 0.53217 0.44789 0.41491 0.0
C462 C 0.57039 0.32009 0.25716 0.0
C463 C 0.57581 0.2935 0.30957 0.0
N464 N 0.56947 0.32583 0.31562 0.0
N465 N 0.57349 0.30935 0.34819 0.0
N466 N 0.57344 0.29949 0.25153 0.0
H467 H 0.57121 0.35096 0.21684 0.0
H468 H 0.55346 0.33391 0.18413 0.0
H469 H 0.58085 0.33089 0.17102 0.0
C470 C 0.56895 0.33479 0.20486 0.0
C471 C 0.55081 0.4241 0.48685 0.0
H472 H 0.54632 0.40832 0.50074 0.0
H473 H 0.54631 0.43512 0.52264 0.0
H474 H 0.56776 0.42458 0.48133 0.0
O475 O 0.56975 0.38545 0.43755 0.0
O476 O 0.57857 0.35305 0.42165 0.0
C477 C 0.52358 0.35235 0.43089 0.0
O478 O 0.5826 0.36672 0.3017 0.0
O479 O 0.57042 0.39808 0.30095 0.0
Zn480 Zn 0.03527 0.65264 0.88012 0.0
O481 O 0.05829 0.65847 0.95189 0.0
C482 C 1.00279 0.67341 0.95585 0.0
Zn483 Zn 0.03353 0.68696 0.86754 0.0
C484 C 0.06313 0.67708 0.96515 0.0
O485 O 0.05491 0.69176 0.9362 0.0
C486 C 1.00431 0.66506 0.78631 0.0
O487 O 0.05733 0.68431 0.80451 0.0
O488 O 0.05987 0.65081 0.81222 0.0
N489 N 0.03225 0.71763 0.84448 0.0
C490 C 0.04979 0.72761 0.83153 0.0
C491 C 0.02858 0.73487 0.76177 0.0
N492 N 0.01884 0.72283 0.80206 0.0
N493 N 0.04823 0.73759 0.77873 0.0
C494 C 0.03606 0.60703 0.93665 0.0
C495 C 0.0391 0.58954 0.85621 0.0
N496 N 0.03663 0.62062 0.89043 0.0
N497 N 0.03848 0.60956 0.84074 0.0
N498 N 0.03759 0.58725 0.91627 0.0
H499 H 0.04474 0.60344 0.02942 0.0
H500 H 0.01871 0.61205 0.01667 0.0
H501 H 0.03955 0.62975 1.00679 0.0
C502 C 0.03485 0.61346 1.00118 0.0
C503 C 0.06869 0.72753 0.87041 0.0
H504 H 0.07759 0.71318 0.86285 0.0
H505 H 0.06422 0.72849 0.91838 0.0
H506 H 0.07873 0.74087 0.85993 0.0
O507 O 1.01203 0.68206 0.80192 0.0
O508 O 1.01134 0.64852 0.80951 0.0
C509 C 0.06587 0.66768 0.7888 0.0
O510 O 1.01102 0.65584 0.94595 0.0
O511 O 1.00946 0.68937 0.92904 0.0
H512 H 0.12865 0.16754 0.05213 0.0
H513 H 0.08327 0.14995 0.92052 0.0
H514 H 0.15365 0.17361 0.9726 0.0
H515 H 0.10741 0.1573 0.84057 0.0
H516 H 0.16375 0.22644 0.83298 0.0
H517 H 0.15532 0.20229 0.91216 0.0
H518 H 0.13569 0.15775 0.77874 0.0
H519 H 0.14286 0.18283 0.70009 0.0
C520 C 0.12437 0.16413 1.00608 0.0
C521 C 0.10413 0.15834 0.99206 0.0
C522 C 0.13854 0.16795 0.96035 0.0
C523 C 0.13245 0.16678 0.89971 0.0
C524 C 0.1129 0.15843 0.88638 0.0
C525 C 0.09891 0.15411 0.9323 0.0
C526 C 0.15854 0.21113 0.82069 0.0
C527 C 0.15375 0.20649 0.76087 0.0
C528 C 0.15363 0.19713 0.86615 0.0
C529 C 0.14412 0.17812 0.85229 0.0
C530 C 0.14226 0.17247 0.79144 0.0
C531 C 0.14667 0.18668 0.7462 0.0
H532 H 0.11291 0.84835 0.34368 0.0
H533 H 0.149 0.81603 0.21148 0.0
H534 H 0.10408 0.87458 0.26989 0.0
H535 H 0.13906 0.8413 0.13583 0.0
H536 H 0.11887 0.88455 1.0001 0.0
H537 H 0.13763 0.87295 0.08889 0.0
H538 H 0.08132 0.8765 0.19177 0.0
H539 H 0.06331 0.88924 0.10398 0.0
C540 C 0.11912 0.84704 0.29869 0.0
C541 C 0.13149 0.83015 0.28296 0.0
C542 C 0.11392 0.86198 0.25609 0.0
C543 C 0.12038 0.86002 0.19602 0.0
C544 C 0.13388 0.84367 0.18148 0.0
C545 C 0.13955 0.82902 0.22473 0.0
C546 C 0.11094 0.8841 0.04287 0.0
C547 C 0.08976 0.88813 0.04563 0.0
C548 C 0.12153 0.87691 0.09354 0.0
C549 C 0.11099 0.87307 0.14761 0.0
C550 C 0.09022 0.87929 0.15159 0.0
C551 C 0.07979 0.88684 0.10118 0.0
H552 H 0.41467 0.81859 0.29554 0.0
H553 H 0.47659 0.82952 0.23319 0.0
H554 H 0.42038 0.84317 0.37783 0.0
H555 H 0.48245 0.85317 0.31486 0.0
H556 H 0.4952 0.8938 0.45987 0.0
H557 H 0.47697 0.88435 0.36749 0.0
H558 H 0.43997 0.84108 0.46774 0.0
H559 H 0.45749 0.85114 0.55923 0.0
C560 C 0.42936 0.82637 0.29895 0.0
C561 C 0.44529 0.82174 0.2586 0.0
C562 C 0.43266 0.84045 0.34602 0.0
C563 C 0.45193 0.85018 0.35336 0.0
C564 C 0.46731 0.84637 0.31055 0.0
C565 C 0.46403 0.83241 0.26399 0.0
C566 C 0.48248 0.88304 0.46235 0.0
C567 C 0.47804 0.87285 0.51625 0.0
C568 C 0.47219 0.87739 0.40939 0.0
C569 C 0.45747 0.86139 0.40971 0.0
C570 C 0.45122 0.85335 0.46528 0.0
C571 C 0.46139 0.85905 0.51793 0.0
H572 H 0.40499 0.21505 0.69253 0.0
H573 H 0.45292 0.18376 0.79064 0.0
H574 H 0.40935 0.19078 0.60925 0.0
H575 H 0.45849 0.16079 0.70762 0.0
H576 H 0.48315 0.13384 0.55001 0.0
H577 H 0.45781 0.13838 0.63012 0.0
H578 H 0.4338 0.192 0.53781 0.0
H579 H 0.45773 0.18642 0.45766 0.0
C580 C 0.41598 0.2026 0.69699 0.0
C581 C 0.42913 0.20169 0.74684 0.0
C582 C 0.41878 0.18882 0.64895 0.0
C583 C 0.43512 0.17438 0.64969 0.0
C584 C 0.44595 0.17168 0.70387 0.0
C585 C 0.44291 0.18511 0.75181 0.0
C586 C 0.47184 0.14603 0.54616 0.0
C587 C 0.47289 0.16025 0.49896 0.0
C588 C 0.45743 0.14886 0.59238 0.0
C589 C 0.44422 0.16622 0.59255 0.0
C590 C 0.4436 0.17857 0.54072 0.0
C591 C 0.45767 0.17554 0.49459 0.0
H592 H 0.98317 0.81068 0.29987 0.0
H593 H 0.9287 0.79868 0.19446 0.0
H594 H 0.99596 0.83377 0.22194 0.0
H595 H 0.94189 0.82145 0.11493 0.0
H596 H 0.99803 0.82855 0.97207 0.0
H597 H 0.97579 0.81446 0.05014 0.0
H598 H 0.98733 0.86801 0.16045 0.0
H599 H 1.00924 0.88249 0.08094 0.0
C600 C 0.97376 0.81334 0.26037 0.0
C601 C 0.95499 0.80293 0.25296 0.0
C602 C 0.98102 0.82665 0.21598 0.0
C603 C 0.9699 0.82943 0.16249 0.0
C604 C 0.9507 0.81963 0.15594 0.0
C605 C 0.94314 0.80668 0.20131 0.0
C606 C 0.99535 0.83758 0.01231 0.0
C607 C 1.00533 0.85657 0.02066 0.0
C608 C 0.98253 0.82957 0.05681 0.0
C609 C 0.97983 0.84015 0.11128 0.0
C610 C 0.98911 0.8596 0.1187 0.0
C611 C 1.00156 0.8679 0.07331 0.0
H612 H 0.99357 0.24396 0.66974 0.0
H613 H 0.93677 0.23244 0.76398 0.0
H614 H 1.0123 0.22411 0.7445 0.0
H615 H 0.95573 0.21286 0.84029 0.0
H616 H 0.99746 0.16951 0.95467 0.0
H617 H 0.97748 0.1825 0.86847 0.0
H618 H 0.02133 0.23188 0.84657 0.0
H619 H 0.04105 0.21902 0.93055 0.0
C620 C 0.98502 0.23705 0.70625 0.0
C621 C 0.96368 0.24006 0.71121 0.0
C622 C 0.99581 0.22569 0.74939 0.0
C623 C 0.98563 0.21718 0.7993 0.0
C624 C 0.96408 0.21913 0.80246 0.0
C625 C 0.95321 0.23042 0.75879 0.0
C626 C 1.00288 0.18299 0.93083 0.0
C627 C 0.02086 0.19321 0.94979 0.0
C628 C 0.99138 0.19051 0.88172 0.0
C629 C 0.99782 0.20821 0.85014 0.0
C630 C 0.01601 0.21804 0.86877 0.0
C631 C 0.02729 0.2107 0.91761 0.0
H632 H 0.6414 0.23913 0.71542 0.0
H633 H 0.59208 0.21901 0.83062 0.0
H634 H 0.62489 0.22165 0.62991 0.0
H635 H 0.57597 0.20112 0.74587 0.0
H636 H 0.56121 0.15928 0.5797 0.0
H637 H 0.58235 0.17141 0.66457 0.0
H638 H 0.58906 0.23052 0.57853 0.0
H639 H 0.56759 0.21872 0.49512 0.0
C640 C 0.62742 0.23043 0.7229 0.0
C641 C 0.61809 0.2304 0.77981 0.0
C642 C 0.61788 0.22057 0.67389 0.0
C643 C 0.59909 0.21003 0.68111 0.0
C644 C 0.59048 0.20895 0.73887 0.0
C645 C 0.59972 0.21922 0.7874 0.0
C646 C 0.56734 0.1748 0.57881 0.0
C647 C 0.56261 0.18806 0.53078 0.0
C648 C 0.5794 0.18175 0.62739 0.0
C649 C 0.58749 0.2019 0.62808 0.0
C650 C 0.58327 0.21487 0.5791 0.0
C651 C 0.57082 0.20813 0.5315 0.0
H652 H 0.56392 0.87194 0.46244 0.0
H653 H 0.57026 0.81602 0.56554 0.0
H654 H 0.58514 0.85674 0.38234 0.0
H655 H 0.59194 0.80122 0.48677 0.0
H656 H 0.64383 0.78905 0.34593 0.0
H657 H 0.62842 0.80955 0.42765 0.0
H658 H 0.57576 0.82224 0.31544 0.0
H659 H 0.59069 0.80125 0.23524 0.0
C660 C 0.5702 0.85662 0.46853 0.0
C661 C 0.56534 0.84512 0.52001 0.0
C662 C 0.5823 0.84793 0.42277 0.0
C663 C 0.59026 0.82785 0.42859 0.0
C664 C 0.58619 0.81679 0.48137 0.0
C665 C 0.57367 0.82522 0.52622 0.0
C666 C 0.62916 0.79655 0.33859 0.0
C667 C 0.61842 0.79358 0.28442 0.0
C668 C 0.62032 0.80819 0.38525 0.0
C669 C 0.60094 0.81754 0.37767 0.0
C670 C 0.59078 0.81539 0.32232 0.0
C671 C 0.59929 0.80332 0.27657 0.0
H672 H 0.64573 0.68179 0.2222 0.0
H673 H 0.66064 0.7304 0.34687 0.0
H674 H 0.63783 0.65877 0.30555 0.0
H675 H 0.6517 0.70811 0.43035 0.0
H676 H 0.62734 0.6726 0.57556 0.0
H677 H 0.65193 0.68045 0.4963 0.0
H678 H 0.60825 0.65832 0.3641 0.0
H679 H 0.58444 0.64939 0.44406 0.0
C680 C 0.6482 0.6872 0.26776 0.0
C681 C 0.6539 0.70773 0.27848 0.0
C682 C 0.64331 0.67416 0.31556 0.0
C683 C 0.64346 0.68165 0.37493 0.0
C684 C 0.65144 0.70158 0.38558 0.0
C685 C 0.6567 0.71446 0.33769 0.0
C686 C 0.62353 0.66853 0.5296 0.0
C687 C 0.60408 0.66045 0.51556 0.0
C688 C 0.63748 0.67329 0.48405 0.0
C689 C 0.63196 0.67066 0.42336 0.0
C690 C 0.61326 0.66053 0.41007 0.0
C691 C 0.59949 0.65534 0.45591 0.0
H692 H 0.60788 0.33921 0.82372 0.0
H693 H 0.64612 0.30121 0.71085 0.0
H694 H 0.59955 0.36104 0.73819 0.0
H695 H 0.6365 0.3216 0.62399 0.0
H696 H 0.56446 0.37477 0.5634 0.0
H697 H 0.57929 0.36226 0.65652 0.0
H698 H 0.63634 0.34924 0.56357 0.0
H699 H 0.6204 0.36 0.46954 0.0
C700 C 0.6145 0.33558 0.78033 0.0
C701 C 0.62758 0.31853 0.77371 0.0
C702 C 0.60956 0.34796 0.73089 0.0
C703 C 0.61696 0.34313 0.67301 0.0
C704 C 0.63067 0.32633 0.66734 0.0
C705 C 0.63613 0.31441 0.71722 0.0
C706 C 0.58037 0.3698 0.56358 0.0
C707 C 0.59135 0.36842 0.50967 0.0
C708 C 0.58901 0.36255 0.61718 0.0
C709 C 0.60908 0.35419 0.61834 0.0
C710 C 0.62064 0.35475 0.56478 0.0
C711 C 0.61171 0.36133 0.51086 0.0
H712 H 0.96234 0.34092 0.06974 0.0
H713 H 1.00267 0.37603 0.95568 0.0
H714 H 0.94063 0.33259 0.98386 0.0
H715 H 0.9821 0.36647 0.86843 0.0
H716 H 0.9429 0.35054 0.71465 0.0
H717 H 0.95392 0.36703 0.80776 0.0
H718 H 0.94019 0.31078 0.90414 0.0
H719 H 0.9277 0.29524 0.81159 0.0
C720 C 0.96645 0.34693 0.02599 0.0
C721 C 0.98417 0.35904 0.01909 0.0
C722 C 0.95414 0.34198 0.97646 0.0
C723 C 0.95962 0.34843 0.91826 0.0
C724 C 0.97698 0.36137 0.91215 0.0
C725 C 0.98895 0.36682 0.96216 0.0
C726 C 0.94149 0.34212 0.75644 0.0
C727 C 0.9343 0.32174 0.75629 0.0
C728 C 0.94819 0.35139 0.8098 0.0
C729 C 0.94857 0.34021 0.86399 0.0
C730 C 0.94003 0.32018 0.86405 0.0
C731 C 0.93277 0.31115 0.81086 0.0
H732 H 0.93167 0.68785 0.28116 0.0
H733 H 0.92502 0.74312 0.17627 0.0
H734 H 0.94328 0.66914 0.19236 0.0
H735 H 0.93803 0.72529 0.0886 0.0
H736 H 0.96741 0.69437 0.93734 0.0
H737 H 0.94105 0.70292 0.01085 0.0
H738 H 0.97437 0.6679 0.14497 0.0
H739 H 0.99961 0.65811 0.06945 0.0
C740 C 0.93181 0.69571 0.23824 0.0
C741 C 0.9272 0.7168 0.2351 0.0
C742 C 0.93899 0.68517 0.18753 0.0
C743 C 0.9424 0.69573 0.13318 0.0
C744 C 0.93563 0.71636 0.12897 0.0
C745 C 0.92796 0.7267 0.17934 0.0
C746 C 0.9687 0.68814 0.98234 0.0
C747 C 0.98555 0.67576 0.99815 0.0
C748 C 0.9537 0.69318 0.02478 0.0
C749 C 0.9556 0.68658 0.0848 0.0
C750 C 0.972 0.67317 0.0994 0.0
C751 C 0.98666 0.66762 0.05626 0.0
H752 H 0.50892 0.37032 0.53355 0.0
H753 H 0.50588 0.31405 0.43007 0.0
H754 H 0.48892 0.354 0.61366 0.0
H755 H 0.48541 0.29798 0.50958 0.0
H756 H 0.43517 0.28306 0.65612 0.0
H757 H 0.44907 0.30311 0.57124 0.0
H758 H 0.50063 0.32161 0.68106 0.0
H759 H 0.48725 0.30115 0.76432 0.0
C760 C 0.50358 0.35465 0.52724 0.0
C761 C 0.50906 0.34347 0.4755 0.0
C762 C 0.49218 0.3453 0.57319 0.0
C763 C 0.48557 0.32474 0.56779 0.0
C764 C 0.49013 0.3139 0.51474 0.0
C765 C 0.50195 0.32308 0.4694 0.0
C766 C 0.44927 0.29171 0.66214 0.0
C767 C 0.46012 0.29063 0.71672 0.0
C768 C 0.45728 0.30305 0.61364 0.0
C769 C 0.47591 0.31397 0.61967 0.0
C770 C 0.48618 0.31353 0.6752 0.0
C771 C 0.47854 0.30179 0.72279 0.0
H772 H 0.53601 0.71473 0.46721 0.0
H773 H 0.49392 0.66438 0.49771 0.0
H774 H 0.51491 0.72655 0.38376 0.0
H775 H 0.47234 0.67668 0.41374 0.0
H776 H 0.43295 0.73105 0.30385 0.0
H777 H 0.45068 0.71283 0.38625 0.0
H778 H 0.50577 0.70968 0.27918 0.0
H779 H 0.48833 0.72732 0.19755 0.0
C780 C 0.5222 0.70616 0.45624 0.0
C781 C 0.51676 0.68852 0.48924 0.0
C782 C 0.51011 0.71295 0.40818 0.0
C783 C 0.49196 0.70255 0.39201 0.0
C784 C 0.48621 0.68505 0.42529 0.0
C785 C 0.49863 0.67794 0.47303 0.0
C786 C 0.44864 0.72592 0.29736 0.0
C787 C 0.45923 0.7309 0.24418 0.0
C788 C 0.45881 0.71554 0.34459 0.0
C789 C 0.47973 0.7101 0.33949 0.0
C790 C 0.48977 0.7139 0.28487 0.0
C791 C 0.47968 0.72402 0.23796 0.0
H792 H 0.14828 0.7386 0.21694 0.0
H793 H 0.08921 0.73213 0.30301 0.0
H794 H 0.13627 0.71677 0.1338 0.0
H795 H 0.07733 0.71041 0.22059 0.0
H796 H 0.06378 0.66161 0.08017 0.0
H797 H 0.0814 0.67679 0.16757 0.0
H798 H 0.11085 0.72101 0.05138 0.0
H799 H 0.09333 0.7059 0.96501 0.0
C800 C 0.13285 0.73233 0.21858 0.0
C801 C 0.11971 0.73729 0.26662 0.0
C802 C 0.12592 0.71987 0.17079 0.0
C803 C 0.10578 0.71175 0.17029 0.0
C804 C 0.09297 0.71611 0.21955 0.0
C805 C 0.09978 0.72877 0.26672 0.0
C806 C 0.07451 0.67415 0.07328 0.0
C807 C 0.07717 0.68253 0.01566 0.0
C808 C 0.08443 0.68304 0.12338 0.0
C809 C 0.09747 0.70029 0.11678 0.0
C810 C 0.10109 0.70771 0.05843 0.0
C811 C 0.09096 0.69907 1.00878 0.0
H812 H 0.10005 0.26873 0.83127 0.0
H813 H 0.14291 0.31755 0.79097 0.0
H814 H 0.08668 0.28845 0.91505 0.0
H815 H 0.12923 0.33769 0.87624 0.0
H816 H 0.07443 0.3727 0.98537 0.0
H817 H 0.09496 0.35564 0.9068 0.0
H818 H 0.0977 0.30056 0.01489 0.0
H819 H 0.07729 0.31729 0.09212 0.0
C820 C 0.10678 0.28368 0.84061 0.0
C821 C 0.12262 0.2915 0.80424 0.0
C822 C 0.09914 0.29499 0.88909 0.0
C823 C 0.10689 0.31467 0.90282 0.0
C824 C 0.12287 0.32259 0.86683 0.0
C825 C 0.13083 0.31101 0.81836 0.0
C826 C 0.07985 0.35712 0.99279 0.0
C827 C 0.07394 0.3463 0.04474 0.0
C828 C 0.09162 0.34734 0.9478 0.0
C829 C 0.09768 0.32657 0.95397 0.0
C830 C 0.09296 0.31638 1.0079 0.0
C831 C 0.08126 0.32605 0.0524 0.0
H832 H 0.05538 0.32128 0.3147 0.0
H833 H 0.04354 0.25622 0.30053 0.0
H834 H 0.09121 0.31443 0.33361 0.0
H835 H 0.07907 0.24945 0.33033 0.0
H836 H 0.12335 0.23278 0.23186 0.0
H837 H 0.11853 0.25156 0.32576 0.0
H838 H 0.09684 0.30402 0.22485 0.0
H839 H 0.09986 0.28454 0.13287 0.0
C840 C 0.05997 0.30548 0.32071 0.0
C841 C 0.04688 0.2893 0.30245 0.0
C842 C 0.08065 0.30157 0.33318 0.0
C843 C 0.08826 0.28154 0.32604 0.0
C844 C 0.0739 0.2653 0.32888 0.0
C845 C 0.05348 0.26904 0.31197 0.0
C846 C 0.11866 0.24879 0.2299 0.0
C847 C 0.11028 0.2568 0.17648 0.0
C848 C 0.11613 0.25963 0.28377 0.0
C849 C 0.10554 0.27849 0.28312 0.0
C850 C 0.10386 0.28891 0.22755 0.0
C851 C 0.10563 0.2778 0.17406 0.0
H852 H 0.99068 0.70069 0.52562 0.0
H853 H 0.0446 0.70442 0.41469 0.0
H854 H 1.01203 0.7023 0.61547 0.0
H855 H 0.06604 0.70455 0.5034 0.0
H856 H 0.09118 0.74967 0.55735 0.0
H857 H 0.08028 0.7172 0.59818 0.0
H858 H 0.01842 0.73986 0.61232 0.0
H859 H 0.02887 0.77219 0.56549 0.0
C860 C 1.00722 0.70039 0.52057 0.0
C861 C 0.01611 0.70429 0.46411 0.0
C862 C 0.01954 0.7011 0.57218 0.0
C863 C 0.0404 0.70644 0.56625 0.0
C864 C 0.04965 0.7026 0.50977 0.0
C865 C 0.03741 0.70253 0.45817 0.0
C866 C 0.07531 0.7481 0.57102 0.0
C867 C 0.0605 0.76287 0.55429 0.0
C868 C 0.06911 0.72941 0.59559 0.0
C869 C 0.04806 0.72497 0.59947 0.0
C870 C 0.03453 0.74201 0.60207 0.0
C871 C 0.04039 0.76061 0.57534 0.0
H872 H 0.57223 0.78245 0.68729 0.0
H873 H 0.59672 0.74174 0.8216 0.0
H874 H 0.54784 0.79571 0.75904 0.0
H875 H 0.56976 0.7525 0.89085 0.0
H876 H 0.49219 0.79753 0.8559 0.0
H877 H 0.52544 0.7895 0.90304 0.0
H878 H 0.53493 0.74325 0.76688 0.0
H879 H 0.5051 0.75509 0.71397 0.0
C880 C 0.5732 0.777 0.73316 0.0
C881 C 0.58405 0.75892 0.74699 0.0
C882 C 0.55909 0.78462 0.77475 0.0
C883 C 0.55539 0.77324 0.82744 0.0
C884 C 0.57117 0.76039 0.84839 0.0
C885 C 0.58649 0.75407 0.8082 0.0
C886 C 0.50172 0.78572 0.83641 0.0
C887 C 0.499 0.78012 0.77598 0.0
C888 C 0.52031 0.78059 0.86464 0.0
C889 C 0.53371 0.76703 0.83551 0.0
C890 C 0.52549 0.75462 0.78911 0.0
C891 C 0.50815 0.76153 0.75803 0.0
H892 H 0.59239 0.23767 0.06589 0.0
H893 H 0.52887 0.25661 0.06091 0.0
H894 H 0.58156 0.20259 0.0851 0.0
H895 H 0.51868 0.2222 0.09158 0.0
H896 H 0.49547 0.18388 0.98706 0.0
H897 H 0.51548 0.1835 0.07995 0.0
H898 H 0.56991 0.19847 0.97852 0.0
H899 H 0.54957 0.20095 0.88803 0.0
C900 C 0.57624 0.23484 0.07397 0.0
C901 C 0.56133 0.24977 0.05902 0.0
C902 C 0.57014 0.21465 0.08662 0.0
C903 C 0.54932 0.20939 0.08195 0.0
C904 C 0.53496 0.22551 0.0883 0.0
C905 C 0.5407 0.24541 0.07129 0.0
C906 C 0.51194 0.18623 0.98469 0.0
C907 C 0.52083 0.19439 0.93229 0.0
C908 C 0.52347 0.18555 0.03777 0.0
C909 C 0.5437 0.19313 0.03743 0.0
C910 C 0.55386 0.19412 0.98135 0.0
C911 C 0.54224 0.19558 0.92876 0.0
H912 H 0.11759 0.8221 0.77885 0.0
H913 H 0.11305 0.77224 0.90542 0.0
H914 H 0.12351 0.79739 0.698 0.0
H915 H 0.1206 0.74788 0.82638 0.0
H916 H 0.05315 0.77354 0.71924 0.0
H917 H 0.08662 0.78766 0.6941 0.0
H918 H 0.11486 0.72917 0.73392 0.0
H919 H 0.08112 0.71447 0.7503 0.0
C920 C 0.11915 0.80592 0.78989 0.0
C921 C 0.11286 0.79863 0.84645 0.0
C922 C 0.12302 0.79177 0.74376 0.0
C923 C 0.11963 0.77072 0.75481 0.0
C924 C 0.12112 0.7641 0.81514 0.0
C925 C 0.11663 0.77804 0.86106 0.0
C926 C 0.06644 0.76347 0.71886 0.0
C927 C 0.06509 0.74347 0.74121 0.0
C928 C 0.08574 0.77144 0.70437 0.0
C929 C 0.10367 0.76002 0.71807 0.0
C930 C 0.10156 0.73863 0.72468 0.0
C931 C 0.08222 0.73038 0.73644 0.0
H932 H 0.53447 0.69565 0.14308 0.0
H933 H 0.58245 0.68379 0.01479 0.0
H934 H 0.50915 0.69268 0.06447 0.0
H935 H 0.55712 0.68426 0.9336 0.0
H936 H 0.54609 0.75785 0.9747 0.0
H937 H 0.55383 0.72315 0.93769 0.0
H938 H 0.49175 0.7044 0.97505 0.0
H939 H 0.48359 0.73917 1.00538 0.0
C940 C 0.53961 0.69186 0.09815 0.0
C941 C 0.56049 0.6928 0.08313 0.0
C942 C 0.52506 0.69006 0.05233 0.0
C943 C 0.53166 0.69189 0.9921 0.0
C944 C 0.55178 0.68518 0.97961 0.0
C945 C 0.5664 0.68575 0.02584 0.0
C946 C 0.53391 0.74652 0.97164 0.0
C947 C 0.5144 0.751 0.99419 0.0
C948 C 0.53822 0.72662 0.95075 0.0
C949 C 0.52391 0.71058 0.96029 0.0
C950 C 0.50334 0.71619 0.96937 0.0
C951 C 0.49873 0.73618 0.98791 0.0
H952 H 0.49162 0.28103 0.33535 0.0
H953 H 0.47311 0.23442 0.20843 0.0
H954 H 0.50594 0.30116 0.2543 0.0
H955 H 0.49144 0.25275 0.12918 0.0
H956 H 0.56256 0.30641 0.12764 0.0
H957 H 0.52589 0.30048 0.11094 0.0
H958 H 0.52885 0.25037 0.23731 0.0
H959 H 0.56382 0.2586 0.26037 0.0
C960 C 0.48977 0.27539 0.28983 0.0
C961 C 0.48402 0.25486 0.27875 0.0
C962 C 0.4979 0.28704 0.24283 0.0
C963 C 0.50205 0.27706 0.18804 0.0
C964 C 0.48986 0.26001 0.17281 0.0
C965 C 0.47998 0.24919 0.21879 0.0
C966 C 0.55499 0.29478 0.15399 0.0
C967 C 0.56422 0.28624 0.2059 0.0
C968 C 0.53426 0.2908 0.14198 0.0
C969 C 0.52418 0.27563 0.17506 0.0
C970 C 0.53603 0.26233 0.21124 0.0
C971 C 0.55633 0.26721 0.22486 0.0
H972 H 0.02846 0.22544 0.61455 0.0
H973 H 0.07337 0.2036 0.48773 0.0
H974 H 1.00764 0.23848 0.5329 0.0
H975 H 0.05407 0.21972 0.40584 0.0
H976 H 0.98251 0.27796 0.42568 0.0
H977 H 0.99491 0.24365 0.4095 0.0
H978 H 0.05624 0.2635 0.45079 0.0
H979 H 0.04384 0.29794 0.47162 0.0
C980 C 0.03335 0.22239 0.56891 0.0
C981 C 0.05334 0.21546 0.55724 0.0
C982 C 0.02146 0.22995 0.52173 0.0
C983 C 0.03002 0.23124 0.46378 0.0
C984 C 0.04746 0.21943 0.45047 0.0
C985 C 0.05861 0.21054 0.49755 0.0
C986 C 0.9989 0.27568 0.42774 0.0
C987 C 1.01201 0.29038 0.455 0.0
C988 C 1.00596 0.25574 0.41731 0.0
C989 C 0.0262 0.25067 0.43158 0.0
C990 C 0.04027 0.26675 0.44214 0.0
C991 C 0.03322 0.28667 0.45342 0.0
H992 H 0.06149 0.07726 0.02962 0.0
H993 H 0.99807 0.07115 0.08214 0.0
H994 H 0.06078 0.04247 0.98693 0.0
H995 H 0.99726 0.03619 0.03974 0.0
H996 H 0.05833 0.97142 0.97988 0.0
H997 H 0.05826 1.00623 0.02242 0.0
H998 H 0.99918 0.01775 0.94029 0.0
H999 H 0.99932 0.98274 0.89808 0.0
C1000 C 0.04728 0.06859 0.03112 0.0
C1001 C 0.0297 0.07713 0.05818 0.0
C1002 C 0.04694 0.04851 1.00739 0.0
C1003 C 0.02895 0.03644 0.00971 0.0
C1004 C 1.01132 0.04507 0.03652 0.0
C1005 C 1.01177 0.06506 0.06101 0.0
C1006 C 0.04516 0.98124 0.97189 0.0
C1007 C 0.02861 0.97416 0.93666 0.0
C1008 C 0.04524 1.00133 0.99554 0.0
C1009 C 0.0287 1.01489 0.98495 0.0
C1010 C 1.01207 1.00772 0.94996 0.0
C1011 C 1.01215 0.9877 0.9256 0.0
H1012 H 0.25299 0.79034 0.39852 0.0
H1013 H 0.22827 0.75777 0.24553 0.0
H1014 H 0.28715 0.78903 0.35455 0.0
H1015 H 0.26229 0.75746 0.19947 0.0
H1016 H 0.32894 0.73907 0.16406 0.0
H1017 H 0.29462 0.74136 0.20755 0.0
H1018 H 0.30967 0.80132 0.28025 0.0
H1019 H 0.3442 0.7986 0.23755 0.0
C1020 C 0.25478 0.78322 0.3548 0.0
C1021 C 0.23768 0.77444 0.32537 0.0
C1022 C 0.27443 0.7826 0.32923 0.0
C1023 C 0.27774 0.77314 0.27315 0.0
C1024 C 0.26054 0.76468 0.24303 0.0
C1025 C 0.24081 0.76523 0.2689 0.0
C1026 C 0.32493 0.75263 0.18995 0.0
C1027 C 0.33945 0.76845 0.19834 0.0
C1028 C 0.30513 0.75409 0.21437 0.0
C1029 C 0.29908 0.7716 0.24739 0.0
C1030 C 0.31372 0.78742 0.25605 0.0
C1031 C 0.33363 0.78586 0.23188 0.0
H1032 H 0.51333 0.07046 0.48246 0.0
H1033 H 0.5759 0.0619 0.4241 0.0
H1034 H 0.51339 0.03583 0.52605 0.0
H1035 H 0.57593 0.02714 0.46618 0.0
H1036 H 0.57581 0.97463 0.60503 0.0
H1037 H 0.57569 1.00922 0.5618 0.0
H1038 H 0.51384 0.99934 0.49672 0.0
H1039 H 0.51394 0.96486 0.54141 0.0
C1040 C 0.52722 0.06133 0.47992 0.0
C1041 C 0.54479 0.06915 0.45107 0.0
C1042 C 0.52717 0.04131 0.50398 0.0
C1043 C 0.54468 0.02857 0.49986 0.0
C1044 C 0.56224 0.0365 0.47105 0.0
C1045 C 0.56223 0.05642 0.44672 0.0
C1046 C 0.56228 0.9798 0.58092 0.0
C1047 C 0.54507 0.9668 0.57558 0.0
C1048 C 0.56221 0.99962 0.55594 0.0
C1049 C 0.54477 1.00718 0.52547 0.0
C1050 C 0.52751 0.99415 0.52011 0.0
C1051 C 0.52766 0.97421 0.54481 0.0
H1052 H 0.33691 0.3066 0.84791 0.0
H1053 H 0.34375 0.2446 0.78123 0.0
H1054 H 0.30169 0.30768 0.80874 0.0
H1055 H 0.30873 0.24569 0.74091 0.0
H1056 H 0.238 0.24688 0.73394 0.0
H1057 H 0.27291 0.24623 0.77516 0.0
H1058 H 0.28247 0.30856 0.71362 0.0
H1059 H 0.24736 0.30922 0.67353 0.0
C1060 C 0.33094 0.29329 0.8242 0.0
C1061 C 0.34331 0.27571 0.81652 0.0
C1062 C 0.31078 0.29391 0.80153 0.0
C1063 C 0.30228 0.27679 0.77137 0.0
C1064 C 0.31466 0.25913 0.76409 0.0
C1065 C 0.33489 0.25861 0.78633 0.0
C1066 C 0.24739 0.26059 0.73048 0.0
C1067 C 0.23972 0.27828 0.70168 0.0
C1068 C 0.26756 0.26012 0.75323 0.0
C1069 C 0.28062 0.27735 0.74788 0.0
C1070 C 0.27285 0.29508 0.71932 0.0
C1071 C 0.25275 0.29546 0.69613 0.0
H1072 H 0.75097 0.24752 0.88471 0.0
H1073 H 0.72693 0.28421 0.7392 0.0
H1074 H 0.7842 0.2464 0.83648 0.0
H1075 H 0.76 0.28176 0.68788 0.0
H1076 H 0.82847 0.29138 0.64045 0.0
H1077 H 0.79422 0.29297 0.68549 0.0
H1078 H 0.80373 0.23242 0.76152 0.0
H1079 H 0.83841 0.23189 0.72086 0.0
C1080 C 0.75263 0.25501 0.84156 0.0
C1081 C 0.73593 0.26562 0.81571 0.0
C1082 C 0.77179 0.25419 0.8133 0.0
C1083 C 0.77507 0.26377 0.75744 0.0
C1084 C 0.7583 0.27426 0.73095 0.0
C1085 C 0.73904 0.27529 0.75986 0.0
C1086 C 0.82346 0.2788 0.66872 0.0
C1087 C 0.83659 0.26196 0.67963 0.0
C1088 C 0.80355 0.27943 0.69338 0.0
C1089 C 0.796 0.26297 0.7284 0.0
C1090 C 0.80896 0.24577 0.73679 0.0
C1091 C 0.82889 0.24532 0.71301 0.0
H1092 H 0.84156 0.74858 0.29037 0.0
H1093 H 0.83041 0.80831 0.36856 0.0
H1094 H 0.80717 0.74892 0.24525 0.0
H1095 H 0.79589 0.80876 0.32358 0.0
H1096 H 0.74407 0.80969 0.17677 0.0
H1097 H 0.77863 0.81022 0.22156 0.0
H1098 H 0.77054 0.74734 0.27984 0.0
H1099 H 0.73613 0.74693 0.23494 0.0
C1100 C 0.83187 0.76194 0.29701 0.0
C1101 C 0.83885 0.7786 0.33206 0.0
C1102 C 0.81204 0.76204 0.27185 0.0
C1103 C 0.79869 0.77888 0.28066 0.0
C1104 C 0.80578 0.79563 0.31534 0.0
C1105 C 0.82551 0.79537 0.34126 0.0
C1106 C 0.74968 0.79608 0.19966 0.0
C1107 C 0.73722 0.77842 0.20338 0.0
C1108 C 0.76943 0.79638 0.22546 0.0
C1109 C 0.77742 0.77882 0.25445 0.0
C1110 C 0.76496 0.7611 0.25769 0.0
C1111 C 0.74511 0.76094 0.2327 0.0
H1112 H 0.50388 0.56192 0.60593 0.0
H1113 H 0.56463 0.57157 0.53433 0.0
H1114 H 0.50345 0.52713 0.56391 0.0
H1115 H 0.56411 0.5369 0.49061 0.0
H1116 H 0.56438 0.46596 0.47325 0.0
H1117 H 0.56509 0.50041 0.51873 0.0
H1118 H 0.50146 0.50918 0.46887 0.0
H1119 H 0.50077 0.47466 0.425 0.0
C1120 C 0.51704 0.55667 0.58039 0.0
C1121 C 0.53407 0.56973 0.57235 0.0
C1122 C 0.5168 0.53673 0.55609 0.0
C1123 C 0.53371 0.52909 0.52349 0.0
C1124 C 0.55084 0.54214 0.51566 0.0
C1125 C 0.55101 0.56219 0.53978 0.0
C1126 C 0.55043 0.47507 0.47346 0.0
C1127 C 0.53236 0.46738 0.44676 0.0
C1128 C 0.55091 0.49498 0.49858 0.0
C1129 C 0.53332 0.5077 0.49765 0.0
C1130 C 0.51523 0.49983 0.47132 0.0
C1131 C 0.51482 0.48005 0.44599 0.0
H1132 H 0.01861 0.57588 0.02189 0.0
H1133 H 0.05639 0.55258 0.87785 0.0
H1134 H 0.01852 0.54203 0.06794 0.0
H1135 H 0.05478 0.5183 0.92065 0.0
H1136 H 0.0631 0.46076 0.03688 0.0
H1137 H 0.06514 0.49512 0.99209 0.0
H1138 H 1.00506 0.50951 0.06415 0.0
H1139 H 1.00392 0.47565 0.1112 0.0
C1140 C 0.02723 0.56374 1.00037 0.0
C1141 C 0.038 0.56739 0.94666 0.0
C1142 C 0.02674 0.54395 0.02612 0.0
C1143 C 0.03656 0.52699 0.99832 0.0
C1144 C 0.0473 0.53074 0.94458 0.0
C1145 C 0.04807 0.55053 0.91949 0.0
C1146 C 0.05026 0.47124 0.04205 0.0
C1147 C 0.03326 0.46548 0.0769 0.0
C1148 C 0.05136 0.49104 0.01649 0.0
C1149 C 0.03532 0.50554 0.02444 0.0
C1150 C 0.01804 0.4993 0.05794 0.0
C1151 C 0.01717 0.47971 0.0843 0.0
H1152 H 0.07207 0.16273 0.3257 0.0
H1153 H 0.12048 0.17672 0.20044 0.0
H1154 H 0.09376 0.17522 0.40845 0.0
H1155 H 0.14217 0.1891 0.28242 0.0
H1156 H 0.15446 0.24095 0.42851 0.0
H1157 H 0.14086 0.2202 0.34522 0.0
H1158 H 0.12521 0.17173 0.46956 0.0
H1159 H 0.13895 0.1924 0.55205 0.0
C1160 C 0.08772 0.16743 0.31627 0.0
C1161 C 0.09473 0.16824 0.25673 0.0
C1162 C 0.10013 0.17486 0.36355 0.0
C1163 C 0.11974 0.18341 0.35216 0.0
C1164 C 0.12715 0.1829 0.29297 0.0
C1165 C 0.11483 0.17543 0.24607 0.0
C1166 C 0.14918 0.22542 0.4374 0.0
C1167 C 0.1483 0.21811 0.49665 0.0
C1168 C 0.14104 0.21359 0.38984 0.0
C1169 C 0.13157 0.19435 0.40069 0.0
C1170 C 0.13206 0.18653 0.45947 0.0
C1171 C 0.14033 0.19823 0.50663 0.0
H1172 H 0.13721 0.84959 0.4756 0.0
H1173 H 0.15475 0.80583 0.61155 0.0
H1174 H 0.12707 0.87421 0.55308 0.0
H1175 H 0.14432 0.83013 0.68954 0.0
H1176 H 0.07675 0.88987 0.69671 0.0
H1177 H 0.09825 0.87618 0.61637 0.0
H1178 H 0.14517 0.8605 0.7464 0.0
H1179 H 0.12315 0.87344 0.82649 0.0
C1180 C 0.13975 0.84563 0.52233 0.0
C1181 C 0.1472 0.826 0.53765 0.0
C1182 C 0.13355 0.85959 0.56684 0.0
C1183 C 0.13435 0.85412 0.62795 0.0
C1184 C 0.14347 0.83506 0.64321 0.0
C1185 C 0.14972 0.82111 0.59852 0.0
C1186 C 0.09207 0.88445 0.70761 0.0
C1187 C 0.09835 0.88295 0.76776 0.0
C1188 C 0.10444 0.87639 0.66154 0.0
C1189 C 0.12345 0.86679 0.67464 0.0
C1190 C 0.13051 0.86727 0.73442 0.0
C1191 C 0.11804 0.87507 0.78035 0.0
H1192 H 0.43909 0.84994 0.06899 0.0
H1193 H 0.42162 0.8086 0.92614 0.0
H1194 H 0.44921 0.87589 0.99549 0.0
H1195 H 0.43218 0.83419 0.85217 0.0
H1196 H 0.5023 0.88801 0.85427 0.0
H1197 H 0.47941 0.87578 0.93306 0.0
H1198 H 0.43109 0.86712 0.80186 0.0
H1199 H 0.45433 0.87896 0.72318 0.0
C1200 C 0.43648 0.84684 0.02171 0.0
C1201 C 0.42923 0.82744 1.00314 0.0
C1202 C 0.4426 0.86157 0.97956 0.0
C1203 C 0.44188 0.85709 0.91777 0.0
C1204 C 0.43277 0.83836 0.89927 0.0
C1205 C 0.42652 0.82366 0.94162 0.0
C1206 C 0.48641 0.88473 0.84302 0.0
C1207 C 0.47999 0.88475 0.78287 0.0
C1208 C 0.47325 0.87746 0.8881 0.0
C1209 C 0.45343 0.87005 0.87374 0.0
C1210 C 0.44632 0.87234 0.81444 0.0
C1211 C 0.4595 0.87953 0.76949 0.0
H1212 H 0.50584 0.14991 0.17208 0.0
H1213 H 0.45796 0.16509 0.2981 0.0
H1214 H 0.48421 0.16239 0.08971 0.0
H1215 H 0.43636 0.17769 0.21638 0.0
H1216 H 0.4277 0.23196 0.07738 0.0
H1217 H 0.43933 0.20912 0.158 0.0
H1218 H 0.45389 0.16215 0.02696 0.0
H1219 H 0.44262 0.18519 0.94692 0.0
C1220 C 0.49027 0.15482 0.18173 0.0
C1221 C 0.48345 0.15618 0.24134 0.0
C1222 C 0.47792 0.16232 0.13467 0.0
C1223 C 0.45868 0.17158 0.1465 0.0
C1224 C 0.4512 0.17109 0.20562 0.0
C1225 C 0.46343 0.16348 0.25236 0.0
C1226 C 0.43238 0.21638 0.0663 0.0
C1227 C 0.43383 0.21018 1.00609 0.0
C1228 C 0.43926 0.20328 0.11239 0.0
C1229 C 0.44776 0.18376 0.09906 0.0
C1230 C 0.44771 0.1771 0.03898 0.0
C1231 C 0.44091 0.19017 0.99316 0.0
H1232 H 0.9887 0.80053 0.47249 0.0
H1233 H 0.93154 0.80316 0.57038 0.0
H1234 H 1.00541 0.82097 0.54933 0.0
H1235 H 0.94868 0.82374 0.64941 0.0
H1236 H 0.98782 0.87317 0.76043 0.0
H1237 H 0.96745 0.85704 0.67918 0.0
H1238 H 0.01654 0.81342 0.64925 0.0
H1239 H 0.03664 0.82962 0.72735 0.0
C1240 C 0.97961 0.8055 0.5106 0.0
C1241 C 0.95878 0.79981 0.51546 0.0
C1242 C 0.98929 0.81726 0.55503 0.0
C1243 C 0.97862 0.82373 0.60663 0.0
C1244 C 0.95743 0.81904 0.61039 0.0
C1245 C 0.94759 0.80721 0.56516 0.0
C1246 C 0.99425 0.86026 0.73592 0.0
C1247 C 1.01391 0.85266 0.75102 0.0
C1248 C 0.9825 0.85088 0.68976 0.0
C1249 C 0.9903 0.83391 0.65713 0.0
C1250 C 1.00999 0.82658 0.67237 0.0
C1251 C 0.02154 0.8358 0.71809 0.0
H1252 H 0.94732 0.21816 0.4938 0.0
H1253 H 0.94209 0.27228 0.38327 0.0
H1254 H 0.96512 0.20013 0.41205 0.0
H1255 H 0.95914 0.2543 0.30084 0.0
H1256 H 0.01857 0.23102 0.21473 0.0
H1257 H 0.99402 0.2454 0.28497 0.0
H1258 H 0.96771 0.18502 0.312 0.0
H1259 H 0.99278 0.17042 0.24143 0.0
C1260 C 0.94913 0.22586 0.45101 0.0
C1261 C 0.94305 0.24655 0.44469 0.0
C1262 C 0.95942 0.21556 0.404 0.0
C1263 C 0.96393 0.22574 0.34956 0.0
C1264 C 0.95637 0.24596 0.34213 0.0
C1265 C 0.9463 0.25625 0.38916 0.0
C1266 C 1.00747 0.22071 0.23499 0.0
C1267 C 1.00772 0.19948 0.22173 0.0
C1268 C 0.99316 0.22906 0.2753 0.0
C1269 C 0.97849 0.21652 0.30412 0.0
C1270 C 0.97871 0.19523 0.29097 0.0
C1271 C 0.99307 0.18684 0.25021 0.0
H1272 H 0.63147 0.20356 0.99724 0.0
H1273 H 0.64542 0.25367 0.11761 0.0
H1274 H 0.61601 0.18434 0.08004 0.0
H1275 H 0.62991 0.23472 0.20054 0.0
H1276 H 0.58582 0.1546 0.24544 0.0
H1277 H 0.61311 0.1674 0.17862 0.0
H1278 H 0.59387 0.22991 0.21498 0.0
H1279 H 0.56717 0.21736 0.28042 0.0
C1280 C 0.63227 0.20996 0.04219 0.0
C1281 C 0.64002 0.22995 0.05119 0.0
C1282 C 0.62325 0.19901 0.08979 0.0
C1283 C 0.62111 0.20816 0.14693 0.0
C1284 C 0.63079 0.22732 0.15696 0.0
C1285 C 0.64005 0.23809 0.10964 0.0
C1286 C 0.58764 0.17106 0.23949 0.0
C1287 C 0.57419 0.18488 0.26847 0.0
C1288 C 0.60328 0.17842 0.20121 0.0
C1289 C 0.60607 0.19977 0.19193 0.0
C1290 C 0.5928 0.21343 0.22205 0.0
C1291 C 0.57715 0.20614 0.25924 0.0
H1292 H 0.57605 0.82597 0.73075 0.0
H1293 H 0.56763 0.87935 0.84375 0.0
H1294 H 0.59575 0.80913 0.81007 0.0
H1295 H 0.58765 0.86224 0.9241 0.0
H1296 H 0.64275 0.81763 0.0191 0.0
H1297 H 0.62849 0.84042 0.94054 0.0
H1298 H 0.57658 0.7997 0.92046 0.0
H1299 H 0.59035 0.77727 0.99806 0.0
C1300 C 0.57884 0.83432 0.77218 0.0
C1301 C 0.57019 0.85397 0.78099 0.0
C1302 C 0.59009 0.82463 0.81761 0.0
C1303 C 0.59305 0.83423 0.87344 0.0
C1304 C 0.58568 0.85451 0.8813 0.0
C1305 C 0.57431 0.86433 0.83531 0.0
C1306 C 0.62827 0.81361 0.99798 0.0
C1307 C 0.6178 0.79551 0.01506 0.0
C1308 C 0.62007 0.82673 0.95336 0.0
C1309 C 0.60143 0.8218 0.92436 0.0
C1310 C 0.591 0.80385 0.94177 0.0
C1311 C 0.59896 0.79099 0.98649 0.0
H1312 H 0.62181 0.66535 0.71841 0.0
H1313 H 0.57494 0.65234 0.84939 0.0
H1314 H 0.64485 0.67735 0.79786 0.0
H1315 H 0.59793 0.66431 0.92936 0.0
H1316 H 0.64276 0.684 0.06787 0.0
H1317 H 0.62997 0.66167 0.98783 0.0
H1318 H 0.64332 0.7092 0.85813 0.0
H1319 H 0.65621 0.73147 0.93874 0.0
C1320 C 0.61685 0.66406 0.76471 0.0
C1321 C 0.59676 0.6574 0.77787 0.0
C1322 C 0.62991 0.67132 0.81014 0.0
C1323 C 0.62321 0.67212 0.87004 0.0
C1324 C 0.60372 0.66379 0.88384 0.0
C1325 C 0.59057 0.65662 0.83814 0.0
C1326 C 0.64397 0.68924 0.02179 0.0
C1327 C 0.65088 0.70936 0.00945 0.0
C1328 C 0.63625 0.67658 0.97604 0.0
C1329 C 0.63529 0.68368 0.91654 0.0
C1330 C 0.64398 0.7031 0.90334 0.0
C1331 C 0.65166 0.71584 0.94941 0.0
H1332 H 0.62518 0.38294 0.30054 0.0
H1333 H 0.57837 0.39276 0.16651 0.0
H1334 H 0.64793 0.3685 0.22435 0.0
H1335 H 0.60084 0.37805 0.09018 0.0
H1336 H 0.64126 0.34588 0.96121 0.0
H1337 H 0.63208 0.37416 0.02912 0.0
H1338 H 0.64259 0.33414 0.18099 0.0
H1339 H 0.65179 0.30612 0.11283 0.0
C1340 C 0.62027 0.38328 0.25398 0.0
C1341 C 0.60004 0.38913 0.23943 0.0
C1342 C 0.63314 0.37456 0.21047 0.0
C1343 C 0.62605 0.37155 0.15139 0.0
C1344 C 0.6069 0.38013 0.13514 0.0
C1345 C 0.59404 0.38891 0.17881 0.0
C1346 C 0.64264 0.34356 1.00926 0.0
C1347 C 0.6478 0.32403 0.03197 0.0
C1348 C 0.63708 0.35964 0.04814 0.0
C1349 C 0.6365 0.35649 0.11062 0.0
C1350 C 0.64321 0.33733 0.13329 0.0
C1351 C 0.64863 0.32124 0.09433 0.0
H1352 H 0.95352 0.36903 0.20497 0.0
H1353 H 0.99212 0.38407 0.35628 0.0
H1354 H 0.92498 0.36144 0.27273 0.0
H1355 H 0.96396 0.37605 0.42448 0.0
H1356 H 0.91738 0.35698 0.54541 0.0
H1357 H 0.93001 0.37999 0.46728 0.0
H1358 H 0.92146 0.33158 0.33606 0.0
H1359 H 0.90841 0.309 0.41408 0.0
C1360 C 0.95553 0.37169 0.25272 0.0
C1361 C 0.97482 0.37754 0.27555 0.0
C1362 C 0.93929 0.36706 0.2916 0.0
C1363 C 0.94213 0.3679 0.3542 0.0
C1364 C 0.96099 0.37553 0.37662 0.0
C1365 C 0.97719 0.38024 0.3376 0.0
C1366 C 0.91679 0.35183 0.49908 0.0
C1367 C 0.91186 0.33123 0.48573 0.0
C1368 C 0.92449 0.36486 0.45445 0.0
C1369 C 0.92742 0.35747 0.39567 0.0
C1370 C 0.91946 0.33789 0.38073 0.0
C1371 C 0.91164 0.32493 0.42544 0.0
H1372 H 0.9749 0.69379 0.79066 0.0
H1373 H 0.99249 0.63944 0.69151 0.0
H1374 H 0.95017 0.70262 0.7149 0.0
H1375 H 0.96629 0.64753 0.61543 0.0
H1376 H 0.95168 0.69084 0.45501 0.0
H1377 H 0.96334 0.6698 0.53726 0.0
H1378 H 0.92177 0.70203 0.65656 0.0
H1379 H 0.9112 0.72429 0.57338 0.0
C1380 C 0.97298 0.68331 0.75305 0.0
C1381 C 0.98601 0.66615 0.74643 0.0
C1382 C 0.95843 0.68827 0.70946 0.0
C1383 C 0.95614 0.6761 0.65758 0.0
C1384 C 0.96787 0.65771 0.65372 0.0
C1385 C 0.98276 0.65282 0.69767 0.0
C1386 C 0.94456 0.69307 0.49853 0.0
C1387 C 0.93089 0.70959 0.50801 0.0
C1388 C 0.95121 0.6808 0.54617 0.0
C1389 C 0.94425 0.68453 0.60492 0.0
C1390 C 0.9283 0.69921 0.61264 0.0
C1391 C 0.92184 0.71178 0.56472 0.0
H1392 H 0.53157 0.37161 0.14076 0.0
H1393 H 0.48849 0.34807 0.27009 0.0
H1394 H 0.51286 0.35406 0.06005 0.0
H1395 H 0.46994 0.32995 0.19003 0.0
H1396 H 0.43463 0.30603 0.02438 0.0
H1397 H 0.44886 0.33013 0.09902 0.0
H1398 H 0.50979 0.31917 0.02902 0.0
H1399 H 0.49576 0.29531 0.95589 0.0
C1400 C 0.51759 0.36333 0.1515 0.0
C1401 C 0.51106 0.36184 0.21138 0.0
C1402 C 0.50705 0.35289 0.10546 0.0
C1403 C 0.48986 0.34036 0.11817 0.0
C1404 C 0.48283 0.33966 0.17799 0.0
C1405 C 0.49337 0.35017 0.22399 0.0
C1406 C 0.45103 0.30896 0.02473 0.0
C1407 C 0.46399 0.29866 0.98396 0.0
C1408 C 0.45924 0.32268 0.0678 0.0
C1409 C 0.48057 0.32671 0.0705 0.0
C1410 C 0.49332 0.31675 0.02849 0.0
C1411 C 0.48522 0.30289 0.98641 0.0
H1412 H 0.44924 0.7635 0.91429 0.0
H1413 H 0.43658 0.70742 0.01028 0.0
H1414 H 0.46667 0.74438 0.83687 0.0
H1415 H 0.45245 0.68742 0.92887 0.0
H1416 H 0.50947 0.66277 0.8235 0.0
H1417 H 0.48422 0.67803 0.89179 0.0
H1418 H 0.46979 0.72395 0.75725 0.0
H1419 H 0.49602 0.70959 0.69231 0.0
C1420 C 0.44936 0.74683 0.91724 0.0
C1421 C 0.44152 0.73703 0.96847 0.0
C1422 C 0.45934 0.73565 0.8722 0.0
C1423 C 0.46135 0.71403 0.87567 0.0
C1424 C 0.45172 0.70401 0.92458 0.0
C1425 C 0.44213 0.7154 0.97083 0.0
C1426 C 0.50064 0.67597 0.80864 0.0
C1427 C 0.50478 0.68503 0.7527 0.0
C1428 C 0.48602 0.68478 0.84772 0.0
C1429 C 0.4749 0.70268 0.83135 0.0
C1430 C 0.47832 0.71075 0.77337 0.0
C1431 C 0.49326 0.70233 0.73537 0.0
H1432 H 0.1507 0.7415 0.60249 0.0
H1433 H 0.11727 0.7127 0.45804 0.0
H1434 H 0.13866 0.71516 0.67135 0.0
H1435 H 0.10546 0.68588 0.52544 0.0
H1436 H 0.05937 0.66618 0.66912 0.0
H1437 H 0.08157 0.67973 0.59213 0.0
H1438 H 0.13018 0.68746 0.72381 0.0
H1439 H 0.10711 0.67438 0.80104 0.0
C1440 C 0.14123 0.72909 0.58522 0.0
C1441 C 0.13494 0.72914 0.525 0.0
C1442 C 0.13398 0.71391 0.62497 0.0
C1443 C 0.11984 0.69859 0.60589 0.0
C1444 C 0.1153 0.69775 0.5438 0.0
C1445 C 0.12241 0.71299 0.50439 0.0
C1446 C 0.07511 0.66999 0.68093 0.0
C1447 C 0.08159 0.66883 0.74085 0.0
C1448 C 0.08807 0.67802 0.63651 0.0
C1449 C 0.10794 0.68558 0.65069 0.0
C1450 C 0.11493 0.68267 0.7103 0.0
C1451 C 0.10184 0.67467 0.75483 0.0
H1452 H 0.04037 0.35921 0.37321 0.0
H1453 H 0.09544 0.37012 0.27124 0.0
H1454 H 0.06031 0.34398 0.45309 0.0
H1455 H 0.11618 0.35632 0.354 0.0
H1456 H 0.1421 0.30145 0.46454 0.0
H1457 H 0.12585 0.3254 0.39449 0.0
H1458 H 0.0816 0.34188 0.53146 0.0
H1459 H 0.0969 0.31665 0.59856 0.0
C1460 C 0.05697 0.35924 0.3693 0.0
C1461 C 0.06629 0.36591 0.31595 0.0
C1462 C 0.06862 0.35051 0.41565 0.0
C1463 C 0.09017 0.34849 0.41089 0.0
C1464 C 0.09967 0.35701 0.35942 0.0
C1465 C 0.08784 0.3654 0.31222 0.0
C1466 C 0.12906 0.31046 0.47961 0.0
C1467 C 0.12073 0.30712 0.53693 0.0
C1468 C 0.1197 0.32438 0.43949 0.0
C1469 C 0.10201 0.33572 0.45615 0.0
C1470 C 0.09464 0.33316 0.51531 0.0
C1471 C 0.10359 0.31881 0.55448 0.0
loop_
_geom_bond_atom_site_label_1
_geom_bond_atom_site_label_2
_geom_bond_distance
_geom_bond_site_symmetry_2
_ccdc_geom_bond_type
Zn0 O1 2.055 . S
Zn0 O8 2.046 . S
Zn0 N16 2.036 . S
Zn0 O28 2.053 . S
Zn0 O30 2.066 . S
O1 Zn0 2.055 . S
O1 C4 1.259 1_455 S
C2 O30 1.256 . S
C2 O31 1.244 . S
Zn3 O5 2.046 . S
Zn3 O7 2.055 . S
Zn3 N9 2.036 . S
Zn3 O27 2.066 . S
Zn3 O31 2.053 . S
C4 O1 1.259 1_655 S
C4 O5 1.254 1_655 S
O5 Zn3 2.046 . S
O5 C4 1.254 1_455 S
C6 O27 1.256 . S
C6 O28 1.244 . S
O7 Zn3 2.055 . S
O7 C29 1.259 1_455 S
O8 Zn0 2.046 . S
O8 C29 1.254 1_455 S
N9 Zn3 2.036 . S
N9 C10 1.298 . S
N9 N12 1.398 . S
C10 N9 1.298 . S
C10 N13 1.367 . S
C10 C23 1.481 . S
C11 N12 1.299 . S
C11 N13 1.379 . S
N12 N9 1.398 . S
N12 C11 1.299 . S
N13 C10 1.367 . S
N13 C11 1.379 . S
C14 N16 1.298 . S
C14 N18 1.367 . S
C14 C22 1.481 . S
C15 N17 1.299 . S
C15 N18 1.379 . S
N16 Zn0 2.036 . S
N16 C14 1.298 . S
N16 N17 1.398 . S
N17 C15 1.299 . S
N17 N16 1.398 . S
N18 C14 1.367 . S
N18 C15 1.379 . S
H19 C22 0.980 . S
H20 C22 0.981 . S
H21 C22 0.981 . S
C22 C14 1.481 . S
C22 H19 0.980 . S
C22 H20 0.981 . S
C22 H21 0.981 . S
C23 C10 1.481 . S
C23 H24 0.980 . S
C23 H25 0.981 . S
C23 H26 0.981 . S
H24 C23 0.980 . S
H25 C23 0.981 . S
H26 C23 0.981 . S
O27 Zn3 2.066 . S
O27 C6 1.256 . S
O28 Zn0 2.053 . S
O28 C6 1.244 . S
C29 O7 1.259 1_655 S
C29 O8 1.254 1_655 S
O30 Zn0 2.066 . S
O30 C2 1.256 . S
O31 C2 1.244 . S
O31 Zn3 2.053 . S
Zn32 O33 2.055 . S
Zn32 O40 2.046 . S
Zn32 N48 2.036 . S
Zn32 O60 2.053 . S
Zn32 O62 2.066 . S
O33 Zn32 2.055 . S
O33 C36 1.259 . S
C34 O62 1.256 . S
C34 O63 1.244 . S
Zn35 O37 2.046 . S
Zn35 O39 2.055 . S
Zn35 N41 2.036 . S
Zn35 O59 2.066 . S
Zn35 O63 2.053 . S
C36 O33 1.259 . S
C36 O37 1.254 . S
O37 Zn35 2.046 . S
O37 C36 1.254 . S
C38 O59 1.256 . S
C38 O60 1.244 . S
O39 Zn35 2.055 . S
O39 C61 1.259 . S
O40 Zn32 2.046 . S
O40 C61 1.254 . S
N41 Zn35 2.036 . S
N41 C42 1.298 . S
N41 N44 1.398 . S
C42 N41 1.298 . S
C42 N45 1.367 . S
C42 C55 1.481 . S
C43 N44 1.299 . S
C43 N45 1.379 . S
N44 N41 1.398 . S
N44 C43 1.299 . S
N45 C42 1.367 . S
N45 C43 1.379 . S
C46 N48 1.298 . S
C46 N50 1.367 . S
C46 C54 1.481 . S
C47 N49 1.299 . S
C47 N50 1.379 . S
N48 Zn32 2.036 . S
N48 C46 1.298 . S
N48 N49 1.398 . S
N49 C47 1.299 . S
N49 N48 1.398 . S
N50 C46 1.367 . S
N50 C47 1.379 . S
H51 C54 0.980 . S
H52 C54 0.981 . S
H53 C54 0.981 . S
C54 C46 1.481 . S
C54 H51 0.980 . S
C54 H52 0.981 . S
C54 H53 0.981 . S
C55 C42 1.481 . S
C55 H56 0.980 . S
C55 H57 0.981 . S
C55 H58 0.981 . S
H56 C55 0.980 . S
H57 C55 0.981 . S
H58 C55 0.981 . S
O59 Zn35 2.066 . S
O59 C38 1.256 . S
O60 Zn32 2.053 . S
O60 C38 1.244 . S
C61 O39 1.259 . S
C61 O40 1.254 . S
O62 Zn32 2.066 . S
O62 C34 1.256 . S
O63 C34 1.244 . S
O63 Zn35 2.053 . S
Zn64 O65 2.055 . S
Zn64 O72 2.046 . S
Zn64 N80 2.036 . S
Zn64 O92 2.053 . S
Zn64 O94 2.066 . S
O65 Zn64 2.055 . S
O65 C68 1.259 . S
C66 O94 1.256 . S
C66 O95 1.244 . S
Zn67 O69 2.046 . S
Zn67 O71 2.055 . S
Zn67 N73 2.036 . S
Zn67 O91 2.066 . S
Zn67 O95 2.053 . S
C68 O65 1.259 . S
C68 O69 1.254 . S
O69 Zn67 2.046 . S
O69 C68 1.254 . S
C70 O91 1.256 . S
C70 O92 1.244 . S
O71 Zn67 2.055 . S
O71 C93 1.259 . S
O72 Zn64 2.046 . S
O72 C93 1.254 . S
N73 Zn67 2.036 . S
N73 C74 1.298 . S
N73 N76 1.398 . S
C74 N73 1.298 . S
C74 N77 1.367 . S
C74 C87 1.481 . S
C75 N76 1.299 . S
C75 N77 1.379 . S
N76 N73 1.398 . S
N76 C75 1.299 . S
N77 C74 1.367 . S
N77 C75 1.379 . S
C78 N80 1.298 . S
C78 N82 1.367 . S
C78 C86 1.481 . S
C79 N81 1.299 . S
C79 N82 1.379 . S
N80 Zn64 2.036 . S
N80 C78 1.298 . S
N80 N81 1.398 . S
N81 C79 1.299 . S
N81 N80 1.398 . S
N82 C78 1.367 . S
N82 C79 1.379 . S
H83 C86 0.980 . S
H84 C86 0.981 . S
H85 C86 0.981 . S
C86 C78 1.481 . S
C86 H83 0.980 . S
C86 H84 0.981 . S
C86 H85 0.981 . S
C87 C74 1.481 . S
C87 H88 0.980 . S
C87 H89 0.981 . S
C87 H90 0.981 . S
H88 C87 0.980 . S
H89 C87 0.981 . S
H90 C87 0.981 . S
O91 Zn67 2.066 . S
O91 C70 1.256 . S
O92 Zn64 2.053 . S
O92 C70 1.244 . S
C93 O71 1.259 . S
C93 O72 1.254 . S
O94 Zn64 2.066 . S
O94 C66 1.256 . S
O95 C66 1.244 . S
O95 Zn67 2.053 . S
Zn96 O97 2.055 . S
Zn96 O104 2.046 . S
Zn96 N112 2.036 . S
Zn96 O124 2.053 . S
Zn96 O126 2.066 . S
O97 Zn96 2.055 . S
O97 C100 1.259 . S
C98 O126 1.256 . S
C98 O127 1.244 . S
Zn99 O101 2.046 . S
Zn99 O103 2.055 . S
Zn99 N105 2.036 . S
Zn99 O123 2.066 . S
Zn99 O127 2.053 . S
C100 O97 1.259 . S
C100 O101 1.254 . S
O101 Zn99 2.046 . S
O101 C100 1.254 . S
C102 O123 1.256 . S
C102 O124 1.244 . S
O103 Zn99 2.055 . S
O103 C125 1.259 . S
O104 Zn96 2.046 . S
O104 C125 1.254 . S
N105 Zn99 2.036 . S
N105 C106 1.298 . S
N105 N108 1.398 . S
C106 N105 1.298 . S
C106 N109 1.367 . S
C106 C119 1.481 . S
C107 N108 1.299 . S
C107 N109 1.379 . S
N108 N105 1.398 . S
N108 C107 1.299 . S
N109 C106 1.367 . S
N109 C107 1.379 . S
C110 N112 1.298 . S
C110 N114 1.367 . S
C110 C118 1.481 . S
C111 N113 1.299 . S
C111 N114 1.379 . S
N112 Zn96 2.036 . S
N112 C110 1.298 . S
N112 N113 1.398 . S
N113 C111 1.299 . S
N113 N112 1.398 . S
N114 C110 1.367 . S
N114 C111 1.379 . S
H115 C118 0.980 . S
H116 C118 0.981 . S
H117 C118 0.981 . S
C118 C110 1.481 . S
C118 H115 0.980 . S
C118 H116 0.981 . S
C118 H117 0.981 . S
C119 C106 1.481 . S
C119 H120 0.980 . S
C119 H121 0.981 1_556 S
C119 H122 0.981 1_556 S
H120 C119 0.980 . S
H121 C119 0.981 1_554 S
H122 C119 0.981 1_554 S
O123 Zn99 2.066 . S
O123 C102 1.256 . S
O124 Zn96 2.053 . S
O124 C102 1.244 . S
C125 O103 1.259 . S
C125 O104 1.254 . S
O126 Zn96 2.066 . S
O126 C98 1.256 . S
O127 C98 1.244 . S
O127 Zn99 2.053 . S
Zn128 O129 2.055 . S
Zn128 O136 2.046 . S
Zn128 N144 2.036 . S
Zn128 O156 2.053 . S
Zn128 O158 2.066 . S
O129 Zn128 2.055 . S
O129 C132 1.259 1_455 S
C130 O158 1.256 . S
C130 O159 1.244 . S
Zn131 O133 2.046 . S
Zn131 O135 2.055 . S
Zn131 N137 2.036 . S
Zn131 O155 2.066 . S
Zn131 O159 2.053 . S
C132 O129 1.259 1_655 S
C132 O133 1.254 1_655 S
O133 Zn131 2.046 . S
O133 C132 1.254 1_455 S
C134 O155 1.256 . S
C134 O156 1.244 . S
O135 Zn131 2.055 . S
O135 C157 1.259 1_455 S
O136 Zn128 2.046 . S
O136 C157 1.254 1_455 S
N137 Zn131 2.036 . S
N137 C138 1.298 . S
N137 N140 1.398 . S
C138 N137 1.298 . S
C138 N141 1.367 . S
C138 C151 1.481 . S
C139 N140 1.299 . S
C139 N141 1.379 . S
N140 N137 1.398 . S
N140 C139 1.299 . S
N141 C138 1.367 . S
N141 C139 1.379 . S
C142 N144 1.298 . S
C142 N146 1.367 . S
C142 C150 1.481 . S
C143 N145 1.299 . S
C143 N146 1.379 . S
N144 Zn128 2.036 . S
N144 C142 1.298 . S
N144 N145 1.398 . S
N145 C143 1.299 . S
N145 N144 1.398 . S
N146 C142 1.367 . S
N146 C143 1.379 . S
H147 C150 0.980 . S
H148 C150 0.981 . S
H149 C150 0.981 . S
C150 C142 1.481 . S
C150 H147 0.980 . S
C150 H148 0.981 . S
C150 H149 0.981 . S
C151 C138 1.481 . S
C151 H152 0.980 . S
C151 H153 0.981 . S
C151 H154 0.981 . S
H152 C151 0.980 . S
H153 C151 0.981 . S
H154 C151 0.981 . S
O155 Zn131 2.066 . S
O155 C134 1.256 . S
O156 Zn128 2.053 . S
O156 C134 1.244 . S
C157 O135 1.259 1_655 S
C157 O136 1.254 1_655 S
O158 Zn128 2.066 . S
O158 C130 1.256 . S
O159 C130 1.244 . S
O159 Zn131 2.053 . S
Zn160 O161 2.055 . S
Zn160 O168 2.046 . S
Zn160 N176 2.036 . S
Zn160 O188 2.053 . S
Zn160 O190 2.066 . S
O161 Zn160 2.055 . S
O161 C164 1.259 . S
C162 O190 1.256 . S
C162 O191 1.244 . S
Zn163 O165 2.046 . S
Zn163 O167 2.055 . S
Zn163 N169 2.036 . S
Zn163 O187 2.066 . S
Zn163 O191 2.053 . S
C164 O161 1.259 . S
C164 O165 1.254 . S
O165 Zn163 2.046 . S
O165 C164 1.254 . S
C166 O187 1.256 . S
C166 O188 1.244 . S
O167 Zn163 2.055 . S
O167 C189 1.259 . S
O168 Zn160 2.046 . S
O168 C189 1.254 . S
N169 Zn163 2.036 . S
N169 C170 1.298 . S
N169 N172 1.398 . S
C170 N169 1.298 . S
C170 N173 1.367 . S
C170 C183 1.481 . S
C171 N172 1.299 . S
C171 N173 1.379 . S
N172 N169 1.398 . S
N172 C171 1.299 . S
N173 C170 1.367 . S
N173 C171 1.379 . S
C174 N176 1.298 . S
C174 N178 1.367 . S
C174 C182 1.481 . S
C175 N177 1.299 . S
C175 N178 1.379 . S
N176 Zn160 2.036 . S
N176 C174 1.298 . S
N176 N177 1.398 . S
N177 C175 1.299 . S
N177 N176 1.398 . S
N178 C174 1.367 . S
N178 C175 1.379 . S
H179 C182 0.980 . S
H180 C182 0.981 1_556 S
H181 C182 0.981 1_556 S
C182 C174 1.481 . S
C182 H179 0.980 . S
C182 H180 0.981 1_554 S
C182 H181 0.981 1_554 S
C183 C170 1.481 . S
C183 H184 0.980 . S
C183 H185 0.981 . S
C183 H186 0.981 . S
H184 C183 0.980 . S
H185 C183 0.981 . S
H186 C183 0.981 . S
O187 Zn163 2.066 . S
O187 C166 1.256 . S
O188 Zn160 2.053 . S
O188 C166 1.244 . S
C189 O167 1.259 . S
C189 O168 1.254 . S
O190 Zn160 2.066 . S
O190 C162 1.256 . S
O191 C162 1.244 . S
O191 Zn163 2.053 . S
Zn192 O193 2.055 . S
Zn192 O200 2.046 . S
Zn192 N208 2.036 . S
Zn192 O220 2.053 . S
Zn192 O222 2.066 . S
O193 Zn192 2.055 . S
O193 C196 1.259 . S
C194 O222 1.256 . S
C194 O223 1.244 . S
Zn195 O197 2.046 . S
Zn195 O199 2.055 . S
Zn195 N201 2.036 . S
Zn195 O219 2.066 . S
Zn195 O223 2.053 . S
C196 O193 1.259 . S
C196 O197 1.254 . S
O197 Zn195 2.046 . S
O197 C196 1.254 . S
C198 O219 1.256 . S
C198 O220 1.244 . S
O199 Zn195 2.055 . S
O199 C221 1.259 . S
O200 Zn192 2.046 . S
O200 C221 1.254 . S
N201 Zn195 2.036 . S
N201 C202 1.298 . S
N201 N204 1.398 . S
C202 N201 1.298 . S
C202 N205 1.367 . S
C202 C215 1.481 . S
C203 N204 1.299 . S
C203 N205 1.379 . S
N204 N201 1.398 . S
N204 C203 1.299 . S
N205 C202 1.367 . S
N205 C203 1.379 . S
C206 N208 1.298 . S
C206 N210 1.367 . S
C206 C214 1.481 . S
C207 N209 1.299 . S
C207 N210 1.379 . S
N208 Zn192 2.036 . S
N208 C206 1.298 . S
N208 N209 1.398 . S
N209 C207 1.299 . S
N209 N208 1.398 . S
N210 C206 1.367 . S
N210 C207 1.379 . S
H211 C214 0.980 . S
H212 C214 0.981 . S
H213 C214 0.981 . S
C214 C206 1.481 . S
C214 H211 0.980 . S
C214 H212 0.981 . S
C214 H213 0.981 . S
C215 C202 1.481 . S
C215 H216 0.980 . S
C215 H217 0.981 . S
C215 H218 0.981 . S
H216 C215 0.980 . S
H217 C215 0.981 . S
H218 C215 0.981 . S
O219 Zn195 2.066 . S
O219 C198 1.256 . S
O220 Zn192 2.053 . S
O220 C198 1.244 . S
C221 O199 1.259 . S
C221 O200 1.254 . S
O222 Zn192 2.066 . S
O222 C194 1.256 . S
O223 C194 1.244 . S
O223 Zn195 2.053 . S
Zn224 O225 2.055 . S
Zn224 O232 2.046 . S
Zn224 N240 2.036 . S
Zn224 O252 2.053 . S
Zn224 O254 2.066 . S
O225 Zn224 2.055 . S
O225 C228 1.259 . S
C226 O254 1.256 . S
C226 O255 1.244 . S
Zn227 O229 2.046 . S
Zn227 O231 2.055 . S
Zn227 N233 2.036 . S
Zn227 O251 2.066 . S
Zn227 O255 2.053 . S
C228 O225 1.259 . S
C228 O229 1.254 . S
O229 Zn227 2.046 . S
O229 C228 1.254 . S
C230 O251 1.256 . S
C230 O252 1.244 . S
O231 Zn227 2.055 . S
O231 C253 1.259 . S
O232 Zn224 2.046 . S
O232 C253 1.254 . S
N233 Zn227 2.036 . S
N233 C234 1.298 . S
N233 N236 1.398 . S
C234 N233 1.298 . S
C234 N237 1.367 . S
C234 C247 1.481 . S
C235 N236 1.299 . S
C235 N237 1.379 . S
N236 N233 1.398 . S
N236 C235 1.299 . S
N237 C234 1.367 . S
N237 C235 1.379 . S
C238 N240 1.298 . S
C238 N242 1.367 . S
C238 C246 1.481 . S
C239 N241 1.299 . S
C239 N242 1.379 . S
N240 Zn224 2.036 . S
N240 C238 1.298 . S
N240 N241 1.398 . S
N241 C239 1.299 . S
N241 N240 1.398 . S
N242 C238 1.367 . S
N242 C239 1.379 . S
H243 C246 0.980 . S
H244 C246 0.981 . S
H245 C246 0.981 . S
C246 C238 1.481 . S
C246 H243 0.980 . S
C246 H244 0.981 . S
C246 H245 0.981 . S
C247 C234 1.481 . S
C247 H248 0.980 . S
C247 H249 0.981 . S
C247 H250 0.981 . S
H248 C247 0.980 . S
H249 C247 0.981 . S
H250 C247 0.981 . S
O251 Zn227 2.066 . S
O251 C230 1.256 . S
O252 Zn224 2.053 . S
O252 C230 1.244 . S
C253 O231 1.259 . S
C253 O232 1.254 . S
O254 Zn224 2.066 . S
O254 C226 1.256 . S
O255 C226 1.244 . S
O255 Zn227 2.053 . S
Zn256 O257 2.055 . S
Zn256 O264 2.046 . S
Zn256 N272 2.036 . S
Zn256 O284 2.053 . S
Zn256 O286 2.066 . S
O257 Zn256 2.055 . S
O257 C260 1.259 . S
C258 O286 1.256 . S
C258 O287 1.244 . S
Zn259 O261 2.046 . S
Zn259 O263 2.055 . S
Zn259 N265 2.036 . S
Zn259 O283 2.066 . S
Zn259 O287 2.053 . S
C260 O257 1.259 . S
C260 O261 1.254 . S
O261 Zn259 2.046 . S
O261 C260 1.254 . S
C262 O283 1.256 . S
C262 O284 1.244 . S
O263 Zn259 2.055 . S
O263 C285 1.259 . S
O264 Zn256 2.046 . S
O264 C285 1.254 . S
N265 Zn259 2.036 . S
N265 C266 1.298 . S
N265 N268 1.398 . S
C266 N265 1.298 . S
C266 N269 1.367 . S
C266 C279 1.481 . S
C267 N268 1.299 . S
C267 N269 1.379 . S
N268 N265 1.398 . S
N268 C267 1.299 . S
N269 C266 1.367 . S
N269 C267 1.379 . S
C270 N272 1.298 . S
C270 N274 1.367 1_655 S
C270 C278 1.481 . S
C271 N273 1.299 1_455 S
C271 N274 1.379 . S
N272 Zn256 2.036 . S
N272 C270 1.298 . S
N272 N273 1.398 . S
N273 C271 1.299 1_655 S
N273 N272 1.398 . S
N274 C270 1.367 1_455 S
N274 C271 1.379 . S
H275 C278 0.980 . S
H276 C278 0.981 . S
H277 C278 0.981 . S
C278 C270 1.481 . S
C278 H275 0.980 . S
C278 H276 0.981 . S
C278 H277 0.981 . S
C279 C266 1.481 . S
C279 H280 0.980 . S
C279 H281 0.981 . S
C279 H282 0.981 . S
H280 C279 0.980 . S
H281 C279 0.981 . S
H282 C279 0.981 . S
O283 Zn259 2.066 . S
O283 C262 1.256 . S
O284 Zn256 2.053 . S
O284 C262 1.244 . S
C285 O263 1.259 . S
C285 O264 1.254 . S
O286 Zn256 2.066 . S
O286 C258 1.256 . S
O287 C258 1.244 . S
O287 Zn259 2.053 . S
Zn288 O289 2.055 . S
Zn288 O296 2.046 . S
Zn288 N304 2.036 . S
Zn288 O316 2.053 . S
Zn288 O318 2.066 . S
O289 Zn288 2.055 . S
O289 C292 1.259 . S
C290 O318 1.256 . S
C290 O319 1.244 . S
Zn291 O293 2.046 . S
Zn291 O295 2.055 . S
Zn291 N297 2.036 . S
Zn291 O315 2.066 . S
Zn291 O319 2.053 . S
C292 O289 1.259 . S
C292 O293 1.254 . S
O293 Zn291 2.046 . S
O293 C292 1.254 . S
C294 O315 1.256 . S
C294 O316 1.244 . S
O295 Zn291 2.055 . S
O295 C317 1.259 . S
O296 Zn288 2.046 . S
O296 C317 1.254 . S
N297 Zn291 2.036 . S
N297 C298 1.298 . S
N297 N300 1.398 . S
C298 N297 1.298 . S
C298 N301 1.367 . S
C298 C311 1.481 . S
C299 N300 1.299 . S
C299 N301 1.379 . S
N300 N297 1.398 . S
N300 C299 1.299 . S
N301 C298 1.367 . S
N301 C299 1.379 . S
C302 N304 1.298 . S
C302 N306 1.367 . S
C302 C310 1.481 . S
C303 N305 1.299 . S
C303 N306 1.379 . S
N304 Zn288 2.036 . S
N304 C302 1.298 . S
N304 N305 1.398 . S
N305 C303 1.299 . S
N305 N304 1.398 . S
N306 C302 1.367 . S
N306 C303 1.379 . S
H307 C310 0.980 . S
H308 C310 0.981 1_556 S
H309 C310 0.981 1_556 S
C310 C302 1.481 . S
C310 H307 0.980 . S
C310 H308 0.981 1_554 S
C310 H309 0.981 1_554 S
C311 C298 1.481 . S
C311 H312 0.980 . S
C311 H313 0.981 . S
C311 H314 0.981 . S
H312 C311 0.980 . S
H313 C311 0.981 . S
H314 C311 0.981 . S
O315 Zn291 2.066 . S
O315 C294 1.256 . S
O316 Zn288 2.053 . S
O316 C294 1.244 . S
C317 O295 1.259 . S
C317 O296 1.254 . S
O318 Zn288 2.066 . S
O318 C290 1.256 . S
O319 C290 1.244 . S
O319 Zn291 2.053 . S
Zn320 O321 2.055 . S
Zn320 O328 2.046 . S
Zn320 N336 2.036 . S
Zn320 O348 2.053 . S
Zn320 O350 2.066 . S
O321 Zn320 2.055 . S
O321 C324 1.259 . S
C322 O350 1.256 . S
C322 O351 1.244 . S
Zn323 O325 2.046 . S
Zn323 O327 2.055 . S
Zn323 N329 2.036 . S
Zn323 O347 2.066 . S
Zn323 O351 2.053 . S
C324 O321 1.259 . S
C324 O325 1.254 . S
O325 Zn323 2.046 . S
O325 C324 1.254 . S
C326 O347 1.256 . S
C326 O348 1.244 . S
O327 Zn323 2.055 . S
O327 C349 1.259 . S
O328 Zn320 2.046 . S
O328 C349 1.254 . S
N329 Zn323 2.036 . S
N329 C330 1.298 . S
N329 N332 1.398 . S
C330 N329 1.298 . S
C330 N333 1.367 . S
C330 C343 1.481 . S
C331 N332 1.299 . S
C331 N333 1.379 . S
N332 N329 1.398 . S
N332 C331 1.299 . S
N333 C330 1.367 . S
N333 C331 1.379 . S
C334 N336 1.298 . S
C334 N338 1.367 . S
C334 C342 1.481 . S
C335 N337 1.299 . S
C335 N338 1.379 . S
N336 Zn320 2.036 . S
N336 C334 1.298 . S
N336 N337 1.398 . S
N337 C335 1.299 . S
N337 N336 1.398 . S
N338 C334 1.367 . S
N338 C335 1.379 . S
H339 C342 0.980 . S
H340 C342 0.981 . S
H341 C342 0.981 . S
C342 C334 1.481 . S
C342 H339 0.980 . S
C342 H340 0.981 . S
C342 H341 0.981 . S
C343 C330 1.481 . S
C343 H344 0.980 . S
C343 H345 0.981 1_556 S
C343 H346 0.981 1_556 S
H344 C343 0.980 . S
H345 C343 0.981 1_554 S
H346 C343 0.981 1_554 S
O347 Zn323 2.066 . S
O347 C326 1.256 . S
O348 Zn320 2.053 . S
O348 C326 1.244 . S
C349 O327 1.259 . S
C349 O328 1.254 . S
O350 Zn320 2.066 . S
O350 C322 1.256 . S
O351 C322 1.244 . S
O351 Zn323 2.053 . S
Zn352 O353 2.055 . S
Zn352 O360 2.046 . S
Zn352 N368 2.036 . S
Zn352 O380 2.053 . S
Zn352 O382 2.066 . S
O353 Zn352 2.055 . S
O353 C356 1.259 . S
C354 O382 1.256 . S
C354 O383 1.244 . S
Zn355 O357 2.046 . S
Zn355 O359 2.055 . S
Zn355 N361 2.036 . S
Zn355 O379 2.066 . S
Zn355 O383 2.053 . S
C356 O353 1.259 . S
C356 O357 1.254 . S
O357 Zn355 2.046 . S
O357 C356 1.254 . S
C358 O379 1.256 . S
C358 O380 1.244 . S
O359 Zn355 2.055 . S
O359 C381 1.259 . S
O360 Zn352 2.046 . S
O360 C381 1.254 . S
N361 Zn355 2.036 . S
N361 C362 1.298 . S
N361 N364 1.398 . S
C362 N361 1.298 . S
C362 N365 1.367 1_655 S
C362 C375 1.481 . S
C363 N364 1.299 1_455 S
C363 N365 1.379 . S
N364 N361 1.398 . S
N364 C363 1.299 1_655 S
N365 C362 1.367 1_455 S
N365 C363 1.379 . S
C366 N368 1.298 . S
C366 N370 1.367 . S
C366 C374 1.481 . S
C367 N369 1.299 . S
C367 N370 1.379 . S
N368 Zn352 2.036 . S
N368 C366 1.298 . S
N368 N369 1.398 . S
N369 C367 1.299 . S
N369 N368 1.398 . S
N370 C366 1.367 . S
N370 C367 1.379 . S
H371 C374 0.980 . S
H372 C374 0.981 . S
H373 C374 0.981 . S
C374 C366 1.481 . S
C374 H371 0.980 . S
C374 H372 0.981 . S
C374 H373 0.981 . S
C375 C362 1.481 . S
C375 H376 0.980 . S
C375 H377 0.981 . S
C375 H378 0.981 . S
H376 C375 0.980 . S
H377 C375 0.981 . S
H378 C375 0.981 . S
O379 Zn355 2.066 . S
O379 C358 1.256 . S
O380 Zn352 2.053 . S
O380 C358 1.244 . S
C381 O359 1.259 . S
C381 O360 1.254 . S
O382 Zn352 2.066 . S
O382 C354 1.256 . S
O383 C354 1.244 . S
O383 Zn355 2.053 . S
Zn384 O385 2.055 . S
Zn384 O392 2.046 . S
Zn384 N400 2.036 . S
Zn384 O412 2.053 . S
Zn384 O414 2.066 . S
O385 Zn384 2.055 . S
O385 C388 1.259 . S
C386 O414 1.256 . S
C386 O415 1.244 . S
Zn387 O389 2.046 . S
Zn387 O391 2.055 . S
Zn387 N393 2.036 . S
Zn387 O411 2.066 . S
Zn387 O415 2.053 . S
C388 O385 1.259 . S
C388 O389 1.254 . S
O389 Zn387 2.046 . S
O389 C388 1.254 . S
C390 O411 1.256 . S
C390 O412 1.244 . S
O391 Zn387 2.055 . S
O391 C413 1.259 . S
O392 Zn384 2.046 . S
O392 C413 1.254 . S
N393 Zn387 2.036 . S
N393 C394 1.298 . S
N393 N396 1.398 . S
C394 N393 1.298 . S
C394 N397 1.367 . S
C394 C407 1.481 . S
C395 N396 1.299 . S
C395 N397 1.379 . S
N396 N393 1.398 . S
N396 C395 1.299 . S
N397 C394 1.367 . S
N397 C395 1.379 . S
C398 N400 1.298 . S
C398 N402 1.367 . S
C398 C406 1.481 . S
C399 N401 1.299 . S
C399 N402 1.379 . S
N400 Zn384 2.036 . S
N400 C398 1.298 . S
N400 N401 1.398 . S
N401 C399 1.299 . S
N401 N400 1.398 . S
N402 C398 1.367 . S
N402 C399 1.379 . S
H403 C406 0.980 . S
H404 C406 0.981 . S
H405 C406 0.981 . S
C406 C398 1.481 . S
C406 H403 0.980 . S
C406 H404 0.981 . S
C406 H405 0.981 . S
C407 C394 1.481 . S
C407 H408 0.980 . S
C407 H409 0.981 . S
C407 H410 0.981 . S
H408 C407 0.980 . S
H409 C407 0.981 . S
H410 C407 0.981 . S
O411 Zn387 2.066 . S
O411 C390 1.256 . S
O412 Zn384 2.053 . S
O412 C390 1.244 . S
C413 O391 1.259 . S
C413 O392 1.254 . S
O414 Zn384 2.066 . S
O414 C386 1.256 . S
O415 C386 1.244 . S
O415 Zn387 2.053 . S
Zn416 O417 2.055 . S
Zn416 O424 2.046 . S
Zn416 N432 2.036 . S
Zn416 O444 2.053 . S
Zn416 O446 2.066 . S
O417 Zn416 2.055 . S
O417 C420 1.259 . S
C418 O446 1.264 . S
C418 O447 1.256 . S
Zn419 O421 2.046 . S
Zn419 O423 2.055 . S
Zn419 N425 2.036 . S
Zn419 O443 2.066 . S
Zn419 O447 2.053 . S
C420 O417 1.259 . S
C420 O421 1.254 . S
O421 Zn419 2.046 . S
O421 C420 1.254 . S
C422 O443 1.264 . S
C422 O444 1.254 . S
O423 Zn419 2.055 . S
O423 C445 1.259 . S
O424 Zn416 2.046 . S
O424 C445 1.254 . S
N425 Zn419 2.036 . S
N425 C426 1.298 . S
N425 N428 1.398 . S
C426 N425 1.298 . S
C426 N429 1.367 . S
C426 C439 1.481 . S
C427 N428 1.299 . S
C427 N429 1.379 . S
N428 N425 1.398 . S
N428 C427 1.299 . S
N429 C426 1.367 . S
N429 C427 1.379 . S
C430 N432 1.298 . S
C430 N434 1.367 . S
C430 C438 1.481 . S
C431 N433 1.299 . S
C431 N434 1.379 . S
N432 Zn416 2.036 . S
N432 C430 1.298 . S
N432 N433 1.398 . S
N433 C431 1.299 . S
N433 N432 1.398 . S
N434 C430 1.367 . S
N434 C431 1.379 . S
H435 C438 0.980 . S
H436 C438 0.981 . S
H437 C438 0.981 . S
C438 C430 1.481 . S
C438 H435 0.980 . S
C438 H436 0.981 . S
C438 H437 0.981 . S
C439 C426 1.481 . S
C439 H440 0.980 . S
C439 H441 0.981 . S
C439 H442 0.981 . S
H440 C439 0.980 . S
H441 C439 0.981 . S
H442 C439 0.981 . S
O443 Zn419 2.066 . S
O443 C422 1.264 . S
O444 Zn416 2.053 . S
O444 C422 1.254 . S
C445 O423 1.259 . S
C445 O424 1.254 . S
O446 Zn416 2.066 . S
O446 C418 1.264 . S
O447 C418 1.256 . S
O447 Zn419 2.053 . S
Zn448 O449 2.055 . S
Zn448 O456 2.046 . S
Zn448 N464 2.036 . S
Zn448 O476 2.053 . S
Zn448 O478 2.066 . S
O449 Zn448 2.055 . S
O449 C452 1.259 . S
C450 O478 1.256 . S
C450 O479 1.244 . S
Zn451 O453 2.046 . S
Zn451 O455 2.055 . S
Zn451 N457 2.036 . S
Zn451 O475 2.066 . S
Zn451 O479 2.053 . S
C452 O449 1.259 . S
C452 O453 1.254 . S
O453 Zn451 2.046 . S
O453 C452 1.254 . S
C454 O475 1.256 . S
C454 O476 1.244 . S
O455 Zn451 2.055 . S
O455 C477 1.259 . S
O456 Zn448 2.046 . S
O456 C477 1.254 . S
N457 Zn451 2.036 . S
N457 C458 1.298 . S
N457 N460 1.398 . S
C458 N457 1.298 . S
C458 N461 1.367 . S
C458 C471 1.481 . S
C459 N460 1.299 . S
C459 N461 1.379 . S
N460 N457 1.398 . S
N460 C459 1.299 . S
N461 C458 1.367 . S
N461 C459 1.379 . S
C462 N464 1.298 . S
C462 N466 1.367 . S
C462 C470 1.481 . S
C463 N465 1.299 . S
C463 N466 1.379 . S
N464 Zn448 2.036 . S
N464 C462 1.298 . S
N464 N465 1.398 . S
N465 C463 1.299 . S
N465 N464 1.398 . S
N466 C462 1.367 . S
N466 C463 1.379 . S
H467 C470 0.980 . S
H468 C470 0.981 . S
H469 C470 0.981 . S
C470 C462 1.481 . S
C470 H467 0.980 . S
C470 H468 0.981 . S
C470 H469 0.981 . S
C471 C458 1.481 . S
C471 H472 0.980 . S
C471 H473 0.981 . S
C471 H474 0.981 . S
H472 C471 0.980 . S
H473 C471 0.981 . S
H474 C471 0.981 . S
O475 Zn451 2.066 . S
O475 C454 1.256 . S
O476 Zn448 2.053 . S
O476 C454 1.244 . S
C477 O455 1.259 . S
C477 O456 1.254 . S
O478 Zn448 2.066 . S
O478 C450 1.256 . S
O479 C450 1.244 . S
O479 Zn451 2.053 . S
Zn480 O481 2.055 . S
Zn480 O488 2.046 . S
Zn480 N496 2.036 . S
Zn480 O508 2.053 . S
Zn480 O510 2.066 . S
O481 Zn480 2.055 . S
O481 C484 1.259 . S
C482 O510 1.264 . S
C482 O511 1.254 . S
Zn483 O485 2.046 . S
Zn483 O487 2.055 . S
Zn483 N489 2.036 . S
Zn483 O507 2.066 . S
Zn483 O511 2.053 . S
C484 O481 1.259 . S
C484 O485 1.254 . S
O485 Zn483 2.046 . S
O485 C484 1.254 . S
C486 O507 1.264 . S
C486 O508 1.256 . S
O487 Zn483 2.055 . S
O487 C509 1.259 . S
O488 Zn480 2.046 . S
O488 C509 1.254 . S
N489 Zn483 2.036 . S
N489 C490 1.298 . S
N489 N492 1.398 . S
C490 N489 1.298 . S
C490 N493 1.367 . S
C490 C503 1.481 . S
C491 N492 1.299 . S
C491 N493 1.379 . S
N492 N489 1.398 . S
N492 C491 1.299 . S
N493 C490 1.367 . S
N493 C491 1.379 . S
C494 N496 1.298 . S
C494 N498 1.367 . S
C494 C502 1.481 . S
C495 N497 1.299 . S
C495 N498 1.379 . S
N496 Zn480 2.036 . S
N496 C494 1.298 . S
N496 N497 1.398 . S
N497 C495 1.299 . S
N497 N496 1.398 . S
N498 C494 1.367 . S
N498 C495 1.379 . S
H499 C502 0.980 . S
H500 C502 0.981 . S
H501 C502 0.981 . S
C502 C494 1.481 . S
C502 H499 0.980 . S
C502 H500 0.981 . S
C502 H501 0.981 . S
C503 C490 1.481 . S
C503 H504 0.980 . S
C503 H505 0.981 . S
C503 H506 0.981 . S
H504 C503 0.980 . S
H505 C503 0.981 . S
H506 C503 0.981 . S
O507 Zn483 2.066 . S
O507 C486 1.264 . S
O508 Zn480 2.053 . S
O508 C486 1.256 . S
C509 O487 1.259 . S
C509 O488 1.254 . S
O510 Zn480 2.066 . S
O510 C482 1.264 . S
O511 C482 1.254 . S
O511 Zn483 2.053 . S
H512 C520 0.950 . S
H513 C525 0.950 . S
H514 C522 0.950 . S
H515 C524 0.950 . S
H516 C526 0.950 . S
H517 C528 0.950 . S
H518 C530 0.950 . S
H519 C531 0.950 . S
C520 H512 0.950 . S
C520 C521 1.386 . S
C520 C522 1.391 . S
C521 C520 1.386 . S
C521 C525 1.393 . S
C522 H514 0.950 . S
C522 C520 1.391 . S
C522 C523 1.400 . S
C523 C522 1.400 . S
C523 C524 1.398 . S
C523 C529 1.491 . S
C524 H515 0.950 . S
C524 C523 1.398 . S
C524 C525 1.391 . S
C525 H513 0.950 . S
C525 C521 1.393 . S
C525 C524 1.391 . S
C526 H516 0.950 . S
C526 C527 1.386 . S
C526 C528 1.391 . S
C527 C526 1.386 . S
C527 C531 1.393 . S
C528 H517 0.950 . S
C528 C526 1.391 . S
C528 C529 1.400 . S
C529 C523 1.491 . S
C529 C528 1.400 . S
C529 C530 1.398 . S
C530 H518 0.950 . S
C530 C529 1.398 . S
C530 C531 1.391 . S
C531 H519 0.950 . S
C531 C527 1.393 . S
C531 C530 1.391 . S
H532 C540 0.950 . S
H533 C545 0.950 . S
H534 C542 0.950 . S
H535 C544 0.950 . S
H536 C546 0.950 1_556 S
H537 C548 0.950 . S
H538 C550 0.950 . S
H539 C551 0.950 . S
C540 H532 0.950 . S
C540 C541 1.386 . S
C540 C542 1.391 . S
C541 C540 1.386 . S
C541 C545 1.393 . S
C542 H534 0.950 . S
C542 C540 1.391 . S
C542 C543 1.400 . S
C543 C542 1.400 . S
C543 C544 1.398 . S
C543 C549 1.491 . S
C544 H535 0.950 . S
C544 C543 1.398 . S
C544 C545 1.391 . S
C545 H533 0.950 . S
C545 C541 1.393 . S
C545 C544 1.391 . S
C546 H536 0.950 1_554 S
C546 C547 1.386 . S
C546 C548 1.391 . S
C547 C546 1.386 . S
C547 C551 1.393 . S
C548 H537 0.950 . S
C548 C546 1.391 . S
C548 C549 1.400 . S
C549 C543 1.491 . S
C549 C548 1.400 . S
C549 C550 1.398 . S
C550 H538 0.950 . S
C550 C549 1.398 . S
C550 C551 1.391 . S
C551 H539 0.950 . S
C551 C547 1.393 . S
C551 C550 1.391 . S
H552 C560 0.950 . S
H553 C565 0.950 . S
H554 C562 0.950 . S
H555 C564 0.950 . S
H556 C566 0.950 . S
H557 C568 0.950 . S
H558 C570 0.950 . S
H559 C571 0.950 . S
C560 H552 0.950 . S
C560 C561 1.386 . S
C560 C562 1.391 . S
C561 C560 1.386 . S
C561 C565 1.393 . S
C562 H554 0.950 . S
C562 C560 1.391 . S
C562 C563 1.400 . S
C563 C562 1.400 . S
C563 C564 1.398 . S
C563 C569 1.491 . S
C564 H555 0.950 . S
C564 C563 1.398 . S
C564 C565 1.391 . S
C565 H553 0.950 . S
C565 C561 1.393 . S
C565 C564 1.391 . S
C566 H556 0.950 . S
C566 C567 1.386 . S
C566 C568 1.391 . S
C567 C566 1.386 . S
C567 C571 1.393 . S
C568 H557 0.950 . S
C568 C566 1.391 . S
C568 C569 1.400 . S
C569 C563 1.491 . S
C569 C568 1.400 . S
C569 C570 1.398 . S
C570 H558 0.950 . S
C570 C569 1.398 . S
C570 C571 1.391 . S
C571 H559 0.950 . S
C571 C567 1.393 . S
C571 C570 1.391 . S
H572 C580 0.950 . S
H573 C585 0.950 . S
H574 C582 0.950 . S
H575 C584 0.950 . S
H576 C586 0.950 . S
H577 C588 0.950 . S
H578 C590 0.950 . S
H579 C591 0.950 . S
C580 H572 0.950 . S
C580 C581 1.386 . S
C580 C582 1.391 . S
C581 C580 1.386 . S
C581 C585 1.393 . S
C582 H574 0.950 . S
C582 C580 1.391 . S
C582 C583 1.400 . S
C583 C582 1.400 . S
C583 C584 1.398 . S
C583 C589 1.491 . S
C584 H575 0.950 . S
C584 C583 1.398 . S
C584 C585 1.391 . S
C585 H573 0.950 . S
C585 C581 1.393 . S
C585 C584 1.391 . S
C586 H576 0.950 . S
C586 C587 1.386 . S
C586 C588 1.391 . S
C587 C586 1.386 . S
C587 C591 1.393 . S
C588 H577 0.950 . S
C588 C586 1.391 . S
C588 C589 1.400 . S
C589 C583 1.491 . S
C589 C588 1.400 . S
C589 C590 1.398 . S
C590 H578 0.950 . S
C590 C589 1.398 . S
C590 C591 1.391 . S
C591 H579 0.950 . S
C591 C587 1.393 . S
C591 C590 1.391 . S
H592 C600 0.950 . S
H593 C605 0.950 . S
H594 C602 0.950 . S
H595 C604 0.950 . S
H596 C606 0.951 1_556 S
H597 C608 0.950 . S
H598 C610 0.950 . S
H599 C611 0.950 . S
C600 H592 0.950 . S
C600 C601 1.386 . S
C600 C602 1.391 . S
C601 C600 1.386 . S
C601 C605 1.393 . S
C602 H594 0.950 . S
C602 C600 1.391 . S
C602 C603 1.400 . S
C603 C602 1.400 . S
C603 C604 1.398 . S
C603 C609 1.491 . S
C604 H595 0.950 . S
C604 C603 1.398 . S
C604 C605 1.391 . S
C605 H593 0.950 . S
C605 C601 1.393 . S
C605 C604 1.391 . S
C606 H596 0.951 1_554 S
C606 C607 1.386 . S
C606 C608 1.391 . S
C607 C606 1.386 . S
C607 C611 1.393 . S
C608 H597 0.950 . S
C608 C606 1.391 . S
C608 C609 1.400 . S
C609 C603 1.491 . S
C609 C608 1.400 . S
C609 C610 1.398 . S
C610 H598 0.950 . S
C610 C609 1.398 . S
C610 C611 1.391 . S
C611 H599 0.950 . S
C611 C607 1.393 . S
C611 C610 1.391 . S
H612 C620 0.950 . S
H613 C625 0.950 . S
H614 C622 0.950 . S
H615 C624 0.950 . S
H616 C626 0.950 . S
H617 C628 0.950 . S
H618 C630 0.950 . S
H619 C631 0.933 1_554 S
C620 H612 0.950 . S
C620 C621 1.386 . S
C620 C622 1.391 . S
C621 C620 1.386 . S
C621 C625 1.393 . S
C622 H614 0.950 . S
C622 C620 1.391 . S
C622 C623 1.400 . S
C623 C622 1.400 . S
C623 C624 1.398 . S
C623 C629 1.491 . S
C624 H615 0.950 . S
C624 C623 1.398 . S
C624 C625 1.391 . S
C625 H613 0.950 . S
C625 C621 1.393 . S
C625 C624 1.391 . S
C626 H616 0.950 . S
C626 C627 1.386 . S
C626 C628 1.391 . S
C627 C626 1.386 . S
C627 C631 1.396 . S
C628 H617 0.950 . S
C628 C626 1.391 . S
C628 C629 1.400 . S
C629 C623 1.491 . S
C629 C628 1.400 . S
C629 C630 1.398 . S
C630 H618 0.950 . S
C630 C629 1.398 . S
C630 C631 1.404 . S
C631 H619 0.933 1_556 S
C631 C627 1.396 . S
C631 C630 1.404 . S
H632 C640 0.950 . S
H633 C645 0.950 . S
H634 C642 0.950 . S
H635 C644 0.950 . S
H636 C646 0.950 . S
H637 C648 0.950 . S
H638 C650 0.950 . S
H639 C651 0.950 . S
C640 H632 0.950 . S
C640 C641 1.386 . S
C640 C642 1.391 . S
C641 C640 1.386 . S
C641 C645 1.393 . S
C642 H634 0.950 . S
C642 C640 1.391 . S
C642 C643 1.400 . S
C643 C642 1.400 . S
C643 C644 1.398 . S
C643 C649 1.491 . S
C644 H635 0.950 . S
C644 C643 1.398 . S
C644 C645 1.391 . S
C645 H633 0.950 . S
C645 C641 1.393 . S
C645 C644 1.391 . S
C646 H636 0.950 . S
C646 C647 1.386 . S
C646 C648 1.391 . S
C647 C646 1.386 . S
C647 C651 1.393 . S
C648 H637 0.950 . S
C648 C646 1.391 . S
C648 C649 1.400 . S
C649 C643 1.491 . S
C649 C648 1.400 . S
C649 C650 1.398 . S
C650 H638 0.950 . S
C650 C649 1.398 . S
C650 C651 1.391 . S
C651 H639 0.950 . S
C651 C647 1.393 . S
C651 C650 1.391 . S
H652 C660 0.950 . S
H653 C665 0.950 . S
H654 C662 0.950 . S
H655 C664 0.950 . S
H656 C666 0.950 . S
H657 C668 0.950 . S
H658 C670 0.950 . S
H659 C671 0.950 . S
C660 H652 0.950 . S
C660 C661 1.386 . S
C660 C662 1.391 . S
C661 C660 1.386 . S
C661 C665 1.393 . S
C662 H654 0.950 . S
C662 C660 1.391 . S
C662 C663 1.400 . S
C663 C662 1.400 . S
C663 C664 1.398 . S
C663 C669 1.491 . S
C664 H655 0.950 . S
C664 C663 1.398 . S
C664 C665 1.391 . S
C665 H653 0.950 . S
C665 C661 1.393 . S
C665 C664 1.391 . S
C666 H656 0.950 . S
C666 C667 1.386 . S
C666 C668 1.391 . S
C667 C666 1.386 . S
C667 C671 1.393 . S
C668 H657 0.950 . S
C668 C666 1.391 . S
C668 C669 1.400 . S
C669 C663 1.491 . S
C669 C668 1.400 . S
C669 C670 1.398 . S
C670 H658 0.950 . S
C670 C669 1.398 . S
C670 C671 1.391 . S
C671 H659 0.950 . S
C671 C667 1.393 . S
C671 C670 1.391 . S
H672 C680 0.950 . S
H673 C685 0.950 . S
H674 C682 0.950 . S
H675 C684 0.950 . S
H676 C686 0.950 . S
H677 C688 0.950 . S
H678 C690 0.950 . S
H679 C691 0.950 . S
C680 H672 0.950 . S
C680 C681 1.386 . S
C680 C682 1.391 . S
C681 C680 1.386 . S
C681 C685 1.393 . S
C682 H674 0.950 . S
C682 C680 1.391 . S
C682 C683 1.400 . S
C683 C682 1.400 . S
C683 C684 1.398 . S
C683 C689 1.491 . S
C684 H675 0.950 . S
C684 C683 1.398 . S
C684 C685 1.391 . S
C685 H673 0.950 . S
C685 C681 1.393 . S
C685 C684 1.391 . S
C686 H676 0.950 . S
C686 C687 1.386 . S
C686 C688 1.391 . S
C687 C686 1.386 . S
C687 C691 1.393 . S
C688 H677 0.950 . S
C688 C686 1.391 . S
C688 C689 1.400 . S
C689 C683 1.491 . S
C689 C688 1.400 . S
C689 C690 1.398 . S
C690 H678 0.950 . S
C690 C689 1.398 . S
C690 C691 1.391 . S
C691 H679 0.950 . S
C691 C687 1.393 . S
C691 C690 1.391 . S
H692 C700 0.950 . S
H693 C705 0.950 . S
H694 C702 0.950 . S
H695 C704 0.950 . S
H696 C706 0.950 . S
H697 C708 0.950 . S
H698 C710 0.950 . S
H699 C711 0.950 . S
C700 H692 0.950 . S
C700 C701 1.386 . S
C700 C702 1.391 . S
C701 C700 1.386 . S
C701 C705 1.393 . S
C702 H694 0.950 . S
C702 C700 1.391 . S
C702 C703 1.400 . S
C703 C702 1.400 . S
C703 C704 1.398 . S
C703 C709 1.491 . S
C704 H695 0.950 . S
C704 C703 1.398 . S
C704 C705 1.391 . S
C705 H693 0.950 . S
C705 C701 1.393 . S
C705 C704 1.391 . S
C706 H696 0.950 . S
C706 C707 1.386 . S
C706 C708 1.391 . S
C707 C706 1.386 . S
C707 C711 1.393 . S
C708 H697 0.950 . S
C708 C706 1.391 . S
C708 C709 1.400 . S
C709 C703 1.491 . S
C709 C708 1.400 . S
C709 C710 1.398 . S
C710 H698 0.950 . S
C710 C709 1.398 . S
C710 C711 1.391 . S
C711 H699 0.950 . S
C711 C707 1.393 . S
C711 C710 1.391 . S
H712 C720 0.950 1_554 S
H713 C725 0.950 . S
H714 C722 0.950 . S
H715 C724 0.950 . S
H716 C726 0.950 . S
H717 C728 0.950 . S
H718 C730 0.950 . S
H719 C731 0.950 . S
C720 H712 0.950 1_556 S
C720 C721 1.386 . S
C720 C722 1.391 . S
C721 C720 1.386 . S
C721 C725 1.393 . S
C722 H714 0.950 . S
C722 C720 1.391 . S
C722 C723 1.400 . S
C723 C722 1.400 . S
C723 C724 1.398 . S
C723 C729 1.491 . S
C724 H715 0.950 . S
C724 C723 1.398 . S
C724 C725 1.391 . S
C725 H713 0.950 . S
C725 C721 1.393 . S
C725 C724 1.391 . S
C726 H716 0.950 . S
C726 C727 1.386 . S
C726 C728 1.391 . S
C727 C726 1.386 . S
C727 C731 1.393 . S
C728 H717 0.950 . S
C728 C726 1.391 . S
C728 C729 1.400 . S
C729 C723 1.491 . S
C729 C728 1.400 . S
C729 C730 1.398 . S
C730 H718 0.950 . S
C730 C729 1.398 . S
C730 C731 1.391 . S
C731 H719 0.950 . S
C731 C727 1.393 . S
C731 C730 1.391 . S
H732 C740 0.950 . S
H733 C745 0.950 . S
H734 C742 0.950 . S
H735 C744 0.950 . S
H736 C746 0.950 1_556 S
H737 C748 0.950 . S
H738 C750 0.950 . S
H739 C751 0.950 1_455 S
C740 H732 0.950 . S
C740 C741 1.386 . S
C740 C742 1.391 . S
C741 C740 1.386 . S
C741 C745 1.393 . S
C742 H734 0.950 . S
C742 C740 1.391 . S
C742 C743 1.400 . S
C743 C742 1.400 . S
C743 C744 1.398 . S
C743 C749 1.491 . S
C744 H735 0.950 . S
C744 C743 1.398 . S
C744 C745 1.391 . S
C745 H733 0.950 . S
C745 C741 1.393 . S
C745 C744 1.391 . S
C746 H736 0.950 1_554 S
C746 C747 1.386 . S
C746 C748 1.391 . S
C747 C746 1.386 . S
C747 C751 1.393 . S
C748 H737 0.950 . S
C748 C746 1.391 . S
C748 C749 1.400 . S
C749 C743 1.491 . S
C749 C748 1.400 . S
C749 C750 1.398 . S
C750 H738 0.950 . S
C750 C749 1.398 . S
C750 C751 1.391 . S
C751 H739 0.950 1_655 S
C751 C747 1.393 . S
C751 C750 1.391 . S
H752 C760 0.950 . S
H753 C765 0.950 . S
H754 C762 0.950 . S
H755 C764 0.950 . S
H756 C766 0.950 . S
H757 C768 0.950 . S
H758 C770 0.950 . S
H759 C771 0.950 . S
C760 H752 0.950 . S
C760 C761 1.386 . S
C760 C762 1.391 . S
C761 C760 1.386 . S
C761 C765 1.393 . S
C762 H754 0.950 . S
C762 C760 1.391 . S
C762 C763 1.400 . S
C763 C762 1.400 . S
C763 C764 1.398 . S
C763 C769 1.491 . S
C764 H755 0.950 . S
C764 C763 1.398 . S
C764 C765 1.391 . S
C765 H753 0.950 . S
C765 C761 1.393 . S
C765 C764 1.391 . S
C766 H756 0.950 . S
C766 C767 1.386 . S
C766 C768 1.391 . S
C767 C766 1.386 . S
C767 C771 1.393 . S
C768 H757 0.950 . S
C768 C766 1.391 . S
C768 C769 1.400 . S
C769 C763 1.491 . S
C769 C768 1.400 . S
C769 C770 1.398 . S
C770 H758 0.950 . S
C770 C769 1.398 . S
C770 C771 1.391 . S
C771 H759 0.950 . S
C771 C767 1.393 . S
C771 C770 1.391 . S
H772 C780 0.950 . S
H773 C785 0.950 . S
H774 C782 0.950 . S
H775 C784 0.950 . S
H776 C786 0.950 . S
H777 C788 0.950 . S
H778 C790 0.950 . S
H779 C791 0.950 . S
C780 H772 0.950 . S
C780 C781 1.386 . S
C780 C782 1.391 . S
C781 C780 1.386 . S
C781 C785 1.393 . S
C782 H774 0.950 . S
C782 C780 1.391 . S
C782 C783 1.400 . S
C783 C782 1.400 . S
C783 C784 1.398 . S
C783 C789 1.491 . S
C784 H775 0.950 . S
C784 C783 1.398 . S
C784 C785 1.391 . S
C785 H773 0.950 . S
C785 C781 1.393 . S
C785 C784 1.391 . S
C786 H776 0.950 . S
C786 C787 1.386 . S
C786 C788 1.391 . S
C787 C786 1.386 . S
C787 C791 1.393 . S
C788 H777 0.950 . S
C788 C786 1.391 . S
C788 C789 1.400 . S
C789 C783 1.491 . S
C789 C788 1.400 . S
C789 C790 1.398 . S
C790 H778 0.950 . S
C790 C789 1.398 . S
C790 C791 1.391 . S
C791 H779 0.950 . S
C791 C787 1.393 . S
C791 C790 1.391 . S
H792 C800 0.950 . S
H793 C805 0.950 . S
H794 C802 0.950 . S
H795 C804 0.950 . S
H796 C806 0.950 . S
H797 C808 0.950 . S
H798 C810 0.950 . S
H799 C811 0.950 1_556 S
C800 H792 0.950 . S
C800 C801 1.386 . S
C800 C802 1.391 . S
C801 C800 1.386 . S
C801 C805 1.393 . S
C802 H794 0.950 . S
C802 C800 1.391 . S
C802 C803 1.400 . S
C803 C802 1.400 . S
C803 C804 1.398 . S
C803 C809 1.491 . S
C804 H795 0.950 . S
C804 C803 1.398 . S
C804 C805 1.391 . S
C805 H793 0.950 . S
C805 C801 1.393 . S
C805 C804 1.391 . S
C806 H796 0.950 . S
C806 C807 1.386 . S
C806 C808 1.391 . S
C807 C806 1.386 . S
C807 C811 1.393 . S
C808 H797 0.950 . S
C808 C806 1.391 . S
C808 C809 1.400 . S
C809 C803 1.491 . S
C809 C808 1.400 . S
C809 C810 1.398 . S
C810 H798 0.950 . S
C810 C809 1.398 . S
C810 C811 1.391 . S
C811 H799 0.950 1_554 S
C811 C807 1.393 . S
C811 C810 1.391 . S
H812 C820 0.950 . S
H813 C825 0.950 . S
H814 C822 0.950 . S
H815 C824 0.950 . S
H816 C826 0.950 . S
H817 C828 0.950 . S
H818 C830 0.950 . S
H819 C831 0.931 1_554 S
C820 H812 0.950 . S
C820 C821 1.386 . S
C820 C822 1.391 . S
C821 C820 1.386 . S
C821 C825 1.393 . S
C822 H814 0.950 . S
C822 C820 1.391 . S
C822 C823 1.400 . S
C823 C822 1.400 . S
C823 C824 1.398 . S
C823 C829 1.491 . S
C824 H815 0.950 . S
C824 C823 1.398 . S
C824 C825 1.391 . S
C825 H813 0.950 . S
C825 C821 1.393 . S
C825 C824 1.391 . S
C826 H816 0.950 . S
C826 C827 1.386 . S
C826 C828 1.391 . S
C827 C826 1.386 . S
C827 C831 1.397 . S
C828 H817 0.950 . S
C828 C826 1.391 . S
C828 C829 1.400 . S
C829 C823 1.491 . S
C829 C828 1.400 . S
C829 C830 1.398 . S
C830 H818 0.950 . S
C830 C829 1.398 . S
C830 C831 1.405 . S
C831 H819 0.931 1_556 S
C831 C827 1.397 . S
C831 C830 1.405 . S
H832 C840 0.950 . S
H833 C845 0.950 . S
H834 C842 0.950 . S
H835 C844 0.950 . S
H836 C846 0.950 . S
H837 C848 0.950 . S
H838 C850 0.950 . S
H839 C851 0.950 . S
C840 H832 0.950 . S
C840 C841 1.386 . S
C840 C842 1.391 1_655 S
C841 C840 1.386 . S
C841 C845 1.393 1_655 S
C842 H834 0.950 . S
C842 C840 1.391 1_455 S
C842 C843 1.400 . S
C843 C842 1.400 . S
C843 C844 1.398 . S
C843 C849 1.491 . S
C844 H835 0.950 . S
C844 C843 1.398 . S
C844 C845 1.391 . S
C845 H833 0.950 . S
C845 C841 1.393 1_455 S
C845 C844 1.391 . S
C846 H836 0.950 . S
C846 C847 1.386 . S
C846 C848 1.391 . S
C847 C846 1.386 . S
C847 C851 1.393 . S
C848 H837 0.950 . S
C848 C846 1.391 . S
C848 C849 1.400 . S
C849 C843 1.491 . S
C849 C848 1.400 . S
C849 C850 1.398 . S
C850 H838 0.950 . S
C850 C849 1.398 . S
C850 C851 1.391 . S
C851 H839 0.950 . S
C851 C847 1.393 . S
C851 C850 1.391 . S
H852 C860 0.950 . S
H853 C865 0.950 . S
H854 C862 0.950 . S
H855 C864 0.950 . S
H856 C866 0.950 . S
H857 C868 0.950 . S
H858 C870 0.950 . S
H859 C871 0.950 . S
C860 H852 0.950 . S
C860 C861 1.386 . S
C860 C862 1.391 . S
C861 C860 1.386 . S
C861 C865 1.393 1_655 S
C862 H854 0.950 . S
C862 C860 1.391 . S
C862 C863 1.400 1_655 S
C863 C862 1.400 1_455 S
C863 C864 1.398 . S
C863 C869 1.491 . S
C864 H855 0.950 . S
C864 C863 1.398 . S
C864 C865 1.391 . S
C865 H853 0.950 . S
C865 C861 1.393 1_455 S
C865 C864 1.391 . S
C866 H856 0.950 . S
C866 C867 1.386 . S
C866 C868 1.391 . S
C867 C866 1.386 . S
C867 C871 1.393 . S
C868 H857 0.950 . S
C868 C866 1.391 . S
C868 C869 1.400 . S
C869 C863 1.491 . S
C869 C868 1.400 . S
C869 C870 1.398 . S
C870 H858 0.950 . S
C870 C869 1.398 . S
C870 C871 1.391 . S
C871 H859 0.950 . S
C871 C867 1.393 . S
C871 C870 1.391 . S
H872 C880 0.950 . S
H873 C885 0.950 . S
H874 C882 0.950 . S
H875 C884 0.950 . S
H876 C886 0.950 . S
H877 C888 0.950 . S
H878 C890 0.950 . S
H879 C891 0.950 . S
C880 H872 0.950 . S
C880 C881 1.386 . S
C880 C882 1.391 . S
C881 C880 1.386 . S
C881 C885 1.393 . S
C882 H874 0.950 . S
C882 C880 1.391 . S
C882 C883 1.400 . S
C883 C882 1.400 . S
C883 C884 1.398 . S
C883 C889 1.491 . S
C884 H875 0.950 . S
C884 C883 1.398 . S
C884 C885 1.391 . S
C885 H873 0.950 . S
C885 C881 1.393 . S
C885 C884 1.391 . S
C886 H876 0.950 . S
C886 C887 1.386 . S
C886 C888 1.391 . S
C887 C886 1.386 . S
C887 C891 1.393 . S
C888 H877 0.950 . S
C888 C886 1.391 . S
C888 C889 1.400 . S
C889 C883 1.491 . S
C889 C888 1.400 . S
C889 C890 1.398 . S
C890 H878 0.950 . S
C890 C889 1.398 . S
C890 C891 1.391 . S
C891 H879 0.950 . S
C891 C887 1.393 . S
C891 C890 1.391 . S
H892 C900 0.950 . S
H893 C905 0.950 . S
H894 C902 0.950 . S
H895 C904 0.950 . S
H896 C906 0.950 . S
H897 C908 0.950 . S
H898 C910 0.950 . S
H899 C911 0.950 . S
C900 H892 0.950 . S
C900 C901 1.386 . S
C900 C902 1.391 . S
C901 C900 1.386 . S
C901 C905 1.393 . S
C902 H894 0.950 . S
C902 C900 1.391 . S
C902 C903 1.400 . S
C903 C902 1.400 . S
C903 C904 1.398 . S
C903 C909 1.491 . S
C904 H895 0.950 . S
C904 C903 1.398 . S
C904 C905 1.391 . S
C905 H893 0.950 . S
C905 C901 1.393 . S
C905 C904 1.391 . S
C906 H896 0.950 . S
C906 C907 1.386 . S
C906 C908 1.391 . S
C907 C906 1.386 . S
C907 C911 1.393 . S
C908 H897 0.950 . S
C908 C906 1.391 . S
C908 C909 1.400 . S
C909 C903 1.491 . S
C909 C908 1.400 . S
C909 C910 1.398 . S
C910 H898 0.950 . S
C910 C909 1.398 . S
C910 C911 1.391 . S
C911 H899 0.950 . S
C911 C907 1.393 . S
C911 C910 1.391 . S
H912 C920 0.950 . S
H913 C925 0.950 . S
H914 C922 0.950 . S
H915 C924 0.950 . S
H916 C926 0.950 . S
H917 C928 0.950 . S
H918 C930 0.950 . S
H919 C931 0.950 . S
C920 H912 0.950 . S
C920 C921 1.386 . S
C920 C922 1.391 . S
C921 C920 1.386 . S
C921 C925 1.393 . S
C922 H914 0.950 . S
C922 C920 1.391 . S
C922 C923 1.400 . S
C923 C922 1.400 . S
C923 C924 1.398 . S
C923 C929 1.491 . S
C924 H915 0.950 . S
C924 C923 1.398 . S
C924 C925 1.391 . S
C925 H913 0.950 . S
C925 C921 1.393 . S
C925 C924 1.391 . S
C926 H916 0.950 . S
C926 C927 1.386 1_455 S
C926 C928 1.391 . S
C927 C926 1.386 1_655 S
C927 C931 1.393 . S
C928 H917 0.950 . S
C928 C926 1.391 . S
C928 C929 1.400 . S
C929 C923 1.491 . S
C929 C928 1.400 . S
C929 C930 1.398 1_455 S
C930 H918 0.950 . S
C930 C929 1.398 1_655 S
C930 C931 1.391 . S
C931 H919 0.950 . S
C931 C927 1.393 . S
C931 C930 1.391 . S
H932 C940 0.950 . S
H933 C945 0.950 . S
H934 C942 0.950 . S
H935 C944 0.950 . S
H936 C946 0.952 . S
H937 C948 0.950 . S
H938 C950 0.950 . S
H939 C951 0.950 . S
C940 H932 0.950 . S
C940 C941 1.386 . S
C940 C942 1.391 . S
C941 C940 1.386 . S
C941 C945 1.393 . S
C942 H934 0.950 . S
C942 C940 1.391 . S
C942 C943 1.400 . S
C943 C942 1.400 . S
C943 C944 1.398 . S
C943 C949 1.491 . S
C944 H935 0.950 . S
C944 C943 1.398 . S
C944 C945 1.391 . S
C945 H933 0.950 . S
C945 C941 1.393 . S
C945 C944 1.391 . S
C946 H936 0.952 . S
C946 C947 1.386 . S
C946 C948 1.391 . S
C947 C946 1.386 . S
C947 C951 1.393 . S
C948 H937 0.950 . S
C948 C946 1.391 . S
C948 C949 1.400 . S
C949 C943 1.491 . S
C949 C948 1.400 . S
C949 C950 1.398 . S
C950 H938 0.950 . S
C950 C949 1.398 . S
C950 C951 1.391 . S
C951 H939 0.950 . S
C951 C947 1.393 . S
C951 C950 1.391 . S
H952 C960 0.950 . S
H953 C965 0.950 . S
H954 C962 0.950 . S
H955 C964 0.950 . S
H956 C966 0.950 . S
H957 C968 0.950 . S
H958 C970 0.950 . S
H959 C971 0.950 . S
C960 H952 0.950 . S
C960 C961 1.386 . S
C960 C962 1.391 . S
C961 C960 1.386 . S
C961 C965 1.393 . S
C962 H954 0.950 . S
C962 C960 1.391 . S
C962 C963 1.400 . S
C963 C962 1.400 . S
C963 C964 1.398 . S
C963 C969 1.491 . S
C964 H955 0.950 . S
C964 C963 1.398 . S
C964 C965 1.391 . S
C965 H953 0.950 . S
C965 C961 1.393 . S
C965 C964 1.391 . S
C966 H956 0.950 . S
C966 C967 1.386 . S
C966 C968 1.391 . S
C967 C966 1.386 . S
C967 C971 1.393 . S
C968 H957 0.950 . S
C968 C966 1.391 . S
C968 C969 1.400 . S
C969 C963 1.491 . S
C969 C968 1.400 . S
C969 C970 1.398 . S
C970 H958 0.950 . S
C970 C969 1.398 . S
C970 C971 1.391 . S
C971 H959 0.950 . S
C971 C967 1.393 . S
C971 C970 1.391 . S
H972 C980 0.950 . S
H973 C985 0.950 . S
H974 C982 0.950 . S
H975 C984 0.950 . S
H976 C986 0.949 . S
H977 C988 0.950 . S
H978 C990 0.950 . S
H979 C991 0.950 . S
C980 H972 0.950 . S
C980 C981 1.386 . S
C980 C982 1.391 . S
C981 C980 1.386 . S
C981 C985 1.393 . S
C982 H974 0.950 . S
C982 C980 1.391 . S
C982 C983 1.400 . S
C983 C982 1.400 . S
C983 C984 1.398 . S
C983 C989 1.491 . S
C984 H975 0.950 . S
C984 C983 1.398 . S
C984 C985 1.391 . S
C985 H973 0.950 . S
C985 C981 1.393 . S
C985 C984 1.391 . S
C986 H976 0.949 . S
C986 C987 1.386 1_455 S
C986 C988 1.391 . S
C987 C986 1.386 1_655 S
C987 C991 1.393 . S
C988 H977 0.950 . S
C988 C986 1.391 . S
C988 C989 1.400 . S
C989 C983 1.491 . S
C989 C988 1.400 . S
C989 C990 1.398 1_455 S
C990 H978 0.950 . S
C990 C989 1.398 1_655 S
C990 C991 1.391 . S
C991 H979 0.950 . S
C991 C987 1.393 . S
C991 C990 1.391 . S
H992 C1000 0.944 1_556 S
H993 C1005 0.950 . S
H994 C1002 0.950 . S
H995 C1004 0.950 1_565 S
H996 C1006 0.944 1_554 S
H997 C1008 0.950 . S
H998 C1010 0.950 1_545 S
H999 C1011 0.950 . S
C1000 H992 0.944 1_554 S
C1000 C1001 1.386 . S
C1000 C1002 1.391 1_554 S
C1001 C1000 1.386 . S
C1001 C1005 1.393 . S
C1002 H994 0.950 . S
C1002 C1000 1.391 1_556 S
C1002 C1003 1.400 1_556 S
C1003 C1002 1.400 1_554 S
C1003 C1004 1.398 . S
C1003 C1009 1.491 1_544 S
C1004 H995 0.950 1_545 S
C1004 C1003 1.398 . S
C1004 C1005 1.391 . S
C1005 H993 0.950 . S
C1005 C1001 1.393 . S
C1005 C1004 1.391 . S
C1006 H996 0.944 1_556 S
C1006 C1007 1.386 . S
C1006 C1008 1.391 1_556 S
C1007 C1006 1.386 . S
C1007 C1011 1.393 . S
C1008 H997 0.950 . S
C1008 C1006 1.391 1_554 S
C1008 C1009 1.400 1_554 S
C1009 C1003 1.491 1_566 S
C1009 C1008 1.400 1_556 S
C1009 C1010 1.398 . S
C1010 H998 0.950 1_565 S
C1010 C1009 1.398 . S
C1010 C1011 1.391 . S
C1011 H999 0.950 . S
C1011 C1007 1.393 . S
C1011 C1010 1.391 . S
H1012 C1020 0.950 . S
H1013 C1025 0.950 . S
H1014 C1022 0.950 . S
H1015 C1024 0.950 . S
H1016 C1026 0.950 . S
H1017 C1028 0.950 . S
H1018 C1030 0.950 . S
H1019 C1031 0.950 . S
C1020 H1012 0.950 . S
C1020 C1021 1.386 . S
C1020 C1022 1.391 . S
C1021 C1020 1.386 . S
C1021 C1025 1.393 . S
C1022 H1014 0.950 . S
C1022 C1020 1.391 . S
C1022 C1023 1.400 . S
C1023 C1022 1.400 . S
C1023 C1024 1.398 . S
C1023 C1029 1.491 . S
C1024 H1015 0.950 . S
C1024 C1023 1.398 . S
C1024 C1025 1.391 . S
C1025 H1013 0.950 . S
C1025 C1021 1.393 . S
C1025 C1024 1.391 . S
C1026 H1016 0.950 . S
C1026 C1027 1.386 . S
C1026 C1028 1.391 . S
C1027 C1026 1.386 . S
C1027 C1031 1.393 . S
C1028 H1017 0.950 . S
C1028 C1026 1.391 . S
C1028 C1029 1.400 . S
C1029 C1023 1.491 . S
C1029 C1028 1.400 . S
C1029 C1030 1.398 . S
C1030 H1018 0.950 . S
C1030 C1029 1.398 . S
C1030 C1031 1.391 . S
C1031 H1019 0.950 . S
C1031 C1027 1.393 . S
C1031 C1030 1.391 . S
H1032 C1040 0.950 . S
H1033 C1045 0.950 . S
H1034 C1042 0.950 . S
H1035 C1044 0.950 . S
H1036 C1046 0.950 . S
H1037 C1048 0.950 . S
H1038 C1050 0.950 . S
H1039 C1051 0.950 . S
C1040 H1032 0.950 . S
C1040 C1041 1.386 . S
C1040 C1042 1.391 . S
C1041 C1040 1.386 . S
C1041 C1045 1.393 . S
C1042 H1034 0.950 . S
C1042 C1040 1.391 . S
C1042 C1043 1.400 . S
C1043 C1042 1.400 . S
C1043 C1044 1.398 . S
C1043 C1049 1.491 1_545 S
C1044 H1035 0.950 . S
C1044 C1043 1.398 . S
C1044 C1045 1.391 . S
C1045 H1033 0.950 . S
C1045 C1041 1.393 . S
C1045 C1044 1.391 . S
C1046 H1036 0.950 . S
C1046 C1047 1.386 . S
C1046 C1048 1.391 . S
C1047 C1046 1.386 . S
C1047 C1051 1.393 . S
C1048 H1037 0.950 . S
C1048 C1046 1.391 . S
C1048 C1049 1.400 . S
C1049 C1043 1.491 1_565 S
C1049 C1048 1.400 . S
C1049 C1050 1.398 . S
C1050 H1038 0.950 . S
C1050 C1049 1.398 . S
C1050 C1051 1.391 . S
C1051 H1039 0.950 . S
C1051 C1047 1.393 . S
C1051 C1050 1.391 . S
H1052 C1060 0.950 . S
H1053 C1065 0.950 . S
H1054 C1062 0.950 . S
H1055 C1064 0.950 . S
H1056 C1066 0.950 . S
H1057 C1068 0.950 . S
H1058 C1070 0.950 . S
H1059 C1071 0.950 . S
C1060 H1052 0.950 . S
C1060 C1061 1.386 . S
C1060 C1062 1.391 . S
C1061 C1060 1.386 . S
C1061 C1065 1.393 . S
C1062 H1054 0.950 . S
C1062 C1060 1.391 . S
C1062 C1063 1.400 . S
C1063 C1062 1.400 . S
C1063 C1064 1.398 . S
C1063 C1069 1.491 . S
C1064 H1055 0.950 . S
C1064 C1063 1.398 . S
C1064 C1065 1.391 . S
C1065 H1053 0.950 . S
C1065 C1061 1.393 . S
C1065 C1064 1.391 . S
C1066 H1056 0.950 . S
C1066 C1067 1.386 . S
C1066 C1068 1.391 . S
C1067 C1066 1.386 . S
C1067 C1071 1.393 . S
C1068 H1057 0.950 . S
C1068 C1066 1.391 . S
C1068 C1069 1.400 . S
C1069 C1063 1.491 . S
C1069 C1068 1.400 . S
C1069 C1070 1.398 . S
C1070 H1058 0.950 . S
C1070 C1069 1.398 . S
C1070 C1071 1.391 . S
C1071 H1059 0.950 . S
C1071 C1067 1.393 . S
C1071 C1070 1.391 . S
H1072 C1080 0.950 . S
H1073 C1085 0.950 . S
H1074 C1082 0.950 . S
H1075 C1084 0.950 . S
H1076 C1086 0.950 . S
H1077 C1088 0.950 . S
H1078 C1090 0.950 . S
H1079 C1091 0.950 . S
C1080 H1072 0.950 . S
C1080 C1081 1.386 . S
C1080 C1082 1.391 . S
C1081 C1080 1.386 . S
C1081 C1085 1.393 . S
C1082 H1074 0.950 . S
C1082 C1080 1.391 . S
C1082 C1083 1.400 . S
C1083 C1082 1.400 . S
C1083 C1084 1.398 . S
C1083 C1089 1.491 . S
C1084 H1075 0.950 . S
C1084 C1083 1.398 . S
C1084 C1085 1.391 . S
C1085 H1073 0.950 . S
C1085 C1081 1.393 . S
C1085 C1084 1.391 . S
C1086 H1076 0.950 . S
C1086 C1087 1.386 . S
C1086 C1088 1.391 . S
C1087 C1086 1.386 . S
C1087 C1091 1.393 . S
C1088 H1077 0.950 . S
C1088 C1086 1.391 . S
C1088 C1089 1.400 . S
C1089 C1083 1.491 . S
C1089 C1088 1.400 . S
C1089 C1090 1.398 . S
C1090 H1078 0.950 . S
C1090 C1089 1.398 . S
C1090 C1091 1.391 . S
C1091 H1079 0.950 . S
C1091 C1087 1.393 . S
C1091 C1090 1.391 . S
H1092 C1100 0.950 . S
H1093 C1105 0.950 . S
H1094 C1102 0.950 . S
H1095 C1104 0.950 . S
H1096 C1106 0.950 . S
H1097 C1108 0.950 . S
H1098 C1110 0.950 . S
H1099 C1111 0.950 . S
C1100 H1092 0.950 . S
C1100 C1101 1.386 . S
C1100 C1102 1.391 . S
C1101 C1100 1.386 . S
C1101 C1105 1.393 . S
C1102 H1094 0.950 . S
C1102 C1100 1.391 . S
C1102 C1103 1.400 . S
C1103 C1102 1.400 . S
C1103 C1104 1.398 . S
C1103 C1109 1.491 . S
C1104 H1095 0.950 . S
C1104 C1103 1.398 . S
C1104 C1105 1.391 . S
C1105 H1093 0.950 . S
C1105 C1101 1.393 . S
C1105 C1104 1.391 . S
C1106 H1096 0.950 . S
C1106 C1107 1.386 . S
C1106 C1108 1.391 . S
C1107 C1106 1.386 . S
C1107 C1111 1.393 . S
C1108 H1097 0.950 . S
C1108 C1106 1.391 . S
C1108 C1109 1.400 . S
C1109 C1103 1.491 . S
C1109 C1108 1.400 . S
C1109 C1110 1.398 . S
C1110 H1098 0.950 . S
C1110 C1109 1.398 . S
C1110 C1111 1.391 . S
C1111 H1099 0.950 . S
C1111 C1107 1.393 . S
C1111 C1110 1.391 . S
H1112 C1120 0.950 . S
H1113 C1125 0.950 . S
H1114 C1122 0.950 . S
H1115 C1124 0.950 . S
H1116 C1126 0.950 . S
H1117 C1128 0.950 . S
H1118 C1130 0.950 . S
H1119 C1131 0.950 . S
C1120 H1112 0.950 . S
C1120 C1121 1.386 . S
C1120 C1122 1.391 . S
C1121 C1120 1.386 . S
C1121 C1125 1.393 . S
C1122 H1114 0.950 . S
C1122 C1120 1.391 . S
C1122 C1123 1.400 . S
C1123 C1122 1.400 . S
C1123 C1124 1.398 . S
C1123 C1129 1.491 . S
C1124 H1115 0.950 . S
C1124 C1123 1.398 . S
C1124 C1125 1.391 . S
C1125 H1113 0.950 . S
C1125 C1121 1.393 . S
C1125 C1124 1.391 . S
C1126 H1116 0.950 . S
C1126 C1127 1.386 . S
C1126 C1128 1.391 . S
C1127 C1126 1.386 . S
C1127 C1131 1.393 . S
C1128 H1117 0.950 . S
C1128 C1126 1.391 . S
C1128 C1129 1.400 . S
C1129 C1123 1.491 . S
C1129 C1128 1.400 . S
C1129 C1130 1.398 . S
C1130 H1118 0.950 . S
C1130 C1129 1.398 . S
C1130 C1131 1.391 . S
C1131 H1119 0.950 . S
C1131 C1127 1.393 . S
C1131 C1130 1.391 . S
H1132 C1140 0.953 . S
H1133 C1145 0.950 . S
H1134 C1142 0.953 . S
H1135 C1144 0.950 . S
H1136 C1146 0.950 . S
H1137 C1148 0.950 . S
H1138 C1150 0.946 . S
H1139 C1151 0.954 . S
C1140 H1132 0.953 . S
C1140 C1141 1.383 1_655 S
C1140 C1142 1.391 . S
C1141 C1140 1.383 1_455 S
C1141 C1145 1.393 . S
C1142 H1134 0.953 . S
C1142 C1140 1.391 . S
C1142 C1143 1.397 1_655 S
C1143 C1142 1.397 1_455 S
C1143 C1144 1.398 . S
C1143 C1149 1.491 1_556 S
C1144 H1135 0.950 . S
C1144 C1143 1.398 . S
C1144 C1145 1.391 . S
C1145 H1133 0.950 . S
C1145 C1141 1.393 . S
C1145 C1144 1.391 . S
C1146 H1136 0.950 . S
C1146 C1147 1.386 . S
C1146 C1148 1.391 . S
C1147 C1146 1.386 . S
C1147 C1151 1.388 1_455 S
C1148 H1137 0.950 . S
C1148 C1146 1.391 . S
C1148 C1149 1.400 . S
C1149 C1143 1.491 1_554 S
C1149 C1148 1.400 . S
C1149 C1150 1.402 1_455 S
C1150 H1138 0.946 . S
C1150 C1149 1.402 1_655 S
C1150 C1151 1.391 . S
C1151 H1139 0.954 . S
C1151 C1147 1.388 1_655 S
C1151 C1150 1.391 . S
H1152 C1160 0.950 . S
H1153 C1165 0.950 . S
H1154 C1162 0.950 . S
H1155 C1164 0.950 . S
H1156 C1166 0.950 . S
H1157 C1168 0.950 . S
H1158 C1170 0.950 . S
H1159 C1171 0.950 . S
C1160 H1152 0.950 . S
C1160 C1161 1.386 . S
C1160 C1162 1.391 . S
C1161 C1160 1.386 . S
C1161 C1165 1.393 . S
C1162 H1154 0.950 . S
C1162 C1160 1.391 . S
C1162 C1163 1.400 . S
C1163 C1162 1.400 . S
C1163 C1164 1.398 . S
C1163 C1169 1.491 . S
C1164 H1155 0.950 . S
C1164 C1163 1.398 . S
C1164 C1165 1.391 . S
C1165 H1153 0.950 . S
C1165 C1161 1.393 . S
C1165 C1164 1.391 . S
C1166 H1156 0.950 . S
C1166 C1167 1.386 . S
C1166 C1168 1.391 . S
C1167 C1166 1.386 . S
C1167 C1171 1.393 . S
C1168 H1157 0.950 . S
C1168 C1166 1.391 . S
C1168 C1169 1.400 . S
C1169 C1163 1.491 . S
C1169 C1168 1.400 . S
C1169 C1170 1.398 . S
C1170 H1158 0.950 . S
C1170 C1169 1.398 . S
C1170 C1171 1.391 . S
C1171 H1159 0.950 . S
C1171 C1167 1.393 . S
C1171 C1170 1.391 . S
H1172 C1180 0.950 . S
H1173 C1185 0.950 . S
H1174 C1182 0.950 . S
H1175 C1184 0.950 . S
H1176 C1186 0.950 . S
H1177 C1188 0.950 . S
H1178 C1190 0.950 . S
H1179 C1191 0.950 . S
C1180 H1172 0.950 . S
C1180 C1181 1.386 . S
C1180 C1182 1.391 . S
C1181 C1180 1.386 . S
C1181 C1185 1.393 . S
C1182 H1174 0.950 . S
C1182 C1180 1.391 . S
C1182 C1183 1.400 . S
C1183 C1182 1.400 . S
C1183 C1184 1.398 . S
C1183 C1189 1.491 . S
C1184 H1175 0.950 . S
C1184 C1183 1.398 . S
C1184 C1185 1.391 . S
C1185 H1173 0.950 . S
C1185 C1181 1.393 . S
C1185 C1184 1.391 . S
C1186 H1176 0.950 . S
C1186 C1187 1.386 . S
C1186 C1188 1.391 . S
C1187 C1186 1.386 . S
C1187 C1191 1.393 . S
C1188 H1177 0.950 . S
C1188 C1186 1.391 . S
C1188 C1189 1.400 . S
C1189 C1183 1.491 . S
C1189 C1188 1.400 . S
C1189 C1190 1.398 . S
C1190 H1178 0.950 . S
C1190 C1189 1.398 . S
C1190 C1191 1.391 . S
C1191 H1179 0.950 . S
C1191 C1187 1.393 . S
C1191 C1190 1.391 . S
H1192 C1200 0.950 . S
H1193 C1205 0.950 . S
H1194 C1202 0.950 . S
H1195 C1204 0.950 . S
H1196 C1206 0.950 . S
H1197 C1208 0.950 . S
H1198 C1210 0.950 . S
H1199 C1211 0.950 . S
C1200 H1192 0.950 . S
C1200 C1201 1.386 . S
C1200 C1202 1.391 . S
C1201 C1200 1.386 . S
C1201 C1205 1.393 . S
C1202 H1194 0.950 . S
C1202 C1200 1.391 . S
C1202 C1203 1.400 . S
C1203 C1202 1.400 . S
C1203 C1204 1.398 . S
C1203 C1209 1.491 . S
C1204 H1195 0.950 . S
C1204 C1203 1.398 . S
C1204 C1205 1.391 . S
C1205 H1193 0.950 . S
C1205 C1201 1.393 . S
C1205 C1204 1.391 . S
C1206 H1196 0.950 . S
C1206 C1207 1.386 . S
C1206 C1208 1.391 . S
C1207 C1206 1.386 . S
C1207 C1211 1.393 . S
C1208 H1197 0.950 . S
C1208 C1206 1.391 . S
C1208 C1209 1.400 . S
C1209 C1203 1.491 . S
C1209 C1208 1.400 . S
C1209 C1210 1.398 . S
C1210 H1198 0.950 . S
C1210 C1209 1.398 . S
C1210 C1211 1.391 . S
C1211 H1199 0.950 . S
C1211 C1207 1.393 . S
C1211 C1210 1.391 . S
H1212 C1220 0.950 . S
H1213 C1225 0.950 . S
H1214 C1222 0.950 . S
H1215 C1224 0.950 . S
H1216 C1226 0.950 . S
H1217 C1228 0.950 . S
H1218 C1230 0.950 . S
H1219 C1231 0.950 1_556 S
C1220 H1212 0.950 . S
C1220 C1221 1.386 . S
C1220 C1222 1.391 . S
C1221 C1220 1.386 . S
C1221 C1225 1.393 . S
C1222 H1214 0.950 . S
C1222 C1220 1.391 . S
C1222 C1223 1.400 . S
C1223 C1222 1.400 . S
C1223 C1224 1.398 . S
C1223 C1229 1.491 . S
C1224 H1215 0.950 . S
C1224 C1223 1.398 . S
C1224 C1225 1.391 . S
C1225 H1213 0.950 . S
C1225 C1221 1.393 . S
C1225 C1224 1.391 . S
C1226 H1216 0.950 . S
C1226 C1227 1.386 . S
C1226 C1228 1.391 . S
C1227 C1226 1.386 . S
C1227 C1231 1.393 . S
C1228 H1217 0.950 . S
C1228 C1226 1.391 . S
C1228 C1229 1.400 . S
C1229 C1223 1.491 . S
C1229 C1228 1.400 . S
C1229 C1230 1.398 . S
C1230 H1218 0.950 . S
C1230 C1229 1.398 . S
C1230 C1231 1.391 . S
C1231 H1219 0.950 1_554 S
C1231 C1227 1.393 . S
C1231 C1230 1.391 . S
H1232 C1240 0.950 . S
H1233 C1245 0.950 . S
H1234 C1242 0.950 . S
H1235 C1244 0.950 . S
H1236 C1246 0.950 . S
H1237 C1248 0.950 . S
H1238 C1250 0.950 . S
H1239 C1251 0.950 . S
C1240 H1232 0.950 . S
C1240 C1241 1.386 . S
C1240 C1242 1.391 . S
C1241 C1240 1.386 . S
C1241 C1245 1.393 . S
C1242 H1234 0.950 . S
C1242 C1240 1.391 . S
C1242 C1243 1.400 . S
C1243 C1242 1.400 . S
C1243 C1244 1.398 . S
C1243 C1249 1.491 . S
C1244 H1235 0.950 . S
C1244 C1243 1.398 . S
C1244 C1245 1.391 . S
C1245 H1233 0.950 . S
C1245 C1241 1.393 . S
C1245 C1244 1.391 . S
C1246 H1236 0.950 . S
C1246 C1247 1.386 . S
C1246 C1248 1.391 . S
C1247 C1246 1.386 . S
C1247 C1251 1.393 . S
C1248 H1237 0.950 . S
C1248 C1246 1.391 . S
C1248 C1249 1.400 . S
C1249 C1243 1.491 . S
C1249 C1248 1.400 . S
C1249 C1250 1.398 . S
C1250 H1238 0.950 . S
C1250 C1249 1.398 . S
C1250 C1251 1.391 . S
C1251 H1239 0.950 . S
C1251 C1247 1.393 . S
C1251 C1250 1.391 . S
H1252 C1260 0.950 . S
H1253 C1265 0.950 . S
H1254 C1262 0.950 . S
H1255 C1264 0.950 . S
H1256 C1266 0.950 1_455 S
H1257 C1268 0.950 . S
H1258 C1270 0.950 . S
H1259 C1271 0.950 . S
C1260 H1252 0.950 . S
C1260 C1261 1.386 . S
C1260 C1262 1.391 . S
C1261 C1260 1.386 . S
C1261 C1265 1.393 . S
C1262 H1254 0.950 . S
C1262 C1260 1.391 . S
C1262 C1263 1.400 . S
C1263 C1262 1.400 . S
C1263 C1264 1.398 . S
C1263 C1269 1.491 . S
C1264 H1255 0.950 . S
C1264 C1263 1.398 . S
C1264 C1265 1.391 . S
C1265 H1253 0.950 . S
C1265 C1261 1.393 . S
C1265 C1264 1.391 . S
C1266 H1256 0.950 1_655 S
C1266 C1267 1.386 . S
C1266 C1268 1.391 . S
C1267 C1266 1.386 . S
C1267 C1271 1.393 . S
C1268 H1257 0.950 . S
C1268 C1266 1.391 . S
C1268 C1269 1.400 . S
C1269 C1263 1.491 . S
C1269 C1268 1.400 . S
C1269 C1270 1.398 . S
C1270 H1258 0.950 . S
C1270 C1269 1.398 . S
C1270 C1271 1.391 . S
C1271 H1259 0.950 . S
C1271 C1267 1.393 . S
C1271 C1270 1.391 . S
H1272 C1280 0.944 1_556 S
H1273 C1285 0.950 . S
H1274 C1282 0.950 . S
H1275 C1284 0.950 . S
H1276 C1286 0.950 . S
H1277 C1288 0.950 . S
H1278 C1290 0.950 . S
H1279 C1291 0.950 . S
C1280 H1272 0.944 1_554 S
C1280 C1281 1.386 . S
C1280 C1282 1.391 . S
C1281 C1280 1.386 . S
C1281 C1285 1.393 . S
C1282 H1274 0.950 . S
C1282 C1280 1.391 . S
C1282 C1283 1.400 . S
C1283 C1282 1.400 . S
C1283 C1284 1.398 . S
C1283 C1289 1.491 . S
C1284 H1275 0.950 . S
C1284 C1283 1.398 . S
C1284 C1285 1.391 . S
C1285 H1273 0.950 . S
C1285 C1281 1.393 . S
C1285 C1284 1.391 . S
C1286 H1276 0.950 . S
C1286 C1287 1.386 . S
C1286 C1288 1.391 . S
C1287 C1286 1.386 . S
C1287 C1291 1.393 . S
C1288 H1277 0.950 . S
C1288 C1286 1.391 . S
C1288 C1289 1.400 . S
C1289 C1283 1.491 . S
C1289 C1288 1.400 . S
C1289 C1290 1.398 . S
C1290 H1278 0.950 . S
C1290 C1289 1.398 . S
C1290 C1291 1.391 . S
C1291 H1279 0.950 . S
C1291 C1287 1.393 . S
C1291 C1290 1.391 . S
H1292 C1300 0.950 . S
H1293 C1305 0.950 . S
H1294 C1302 0.950 . S
H1295 C1304 0.950 . S
H1296 C1306 0.950 . S
H1297 C1308 0.950 . S
H1298 C1310 0.950 . S
H1299 C1311 0.950 . S
C1300 H1292 0.950 . S
C1300 C1301 1.386 . S
C1300 C1302 1.391 . S
C1301 C1300 1.386 . S
C1301 C1305 1.393 . S
C1302 H1294 0.950 . S
C1302 C1300 1.391 . S
C1302 C1303 1.400 . S
C1303 C1302 1.400 . S
C1303 C1304 1.398 . S
C1303 C1309 1.491 . S
C1304 H1295 0.950 . S
C1304 C1303 1.398 . S
C1304 C1305 1.391 . S
C1305 H1293 0.950 . S
C1305 C1301 1.393 . S
C1305 C1304 1.391 . S
C1306 H1296 0.950 . S
C1306 C1307 1.386 . S
C1306 C1308 1.391 . S
C1307 C1306 1.386 . S
C1307 C1311 1.393 . S
C1308 H1297 0.950 . S
C1308 C1306 1.391 . S
C1308 C1309 1.400 . S
C1309 C1303 1.491 . S
C1309 C1308 1.400 . S
C1309 C1310 1.398 . S
C1310 H1298 0.950 . S
C1310 C1309 1.398 . S
C1310 C1311 1.391 . S
C1311 H1299 0.950 . S
C1311 C1307 1.393 . S
C1311 C1310 1.391 . S
H1312 C1320 0.950 . S
H1313 C1325 0.950 . S
H1314 C1322 0.950 . S
H1315 C1324 0.950 . S
H1316 C1326 0.950 1_554 S
H1317 C1328 0.950 . S
H1318 C1330 0.950 . S
H1319 C1331 0.950 . S
C1320 H1312 0.950 . S
C1320 C1321 1.386 . S
C1320 C1322 1.391 . S
C1321 C1320 1.386 . S
C1321 C1325 1.393 . S
C1322 H1314 0.950 . S
C1322 C1320 1.391 . S
C1322 C1323 1.400 . S
C1323 C1322 1.400 . S
C1323 C1324 1.398 . S
C1323 C1329 1.491 . S
C1324 H1315 0.950 . S
C1324 C1323 1.398 . S
C1324 C1325 1.391 . S
C1325 H1313 0.950 . S
C1325 C1321 1.393 . S
C1325 C1324 1.391 . S
C1326 H1316 0.950 1_556 S
C1326 C1327 1.386 . S
C1326 C1328 1.391 . S
C1327 C1326 1.386 . S
C1327 C1331 1.393 . S
C1328 H1317 0.950 . S
C1328 C1326 1.391 . S
C1328 C1329 1.400 . S
C1329 C1323 1.491 . S
C1329 C1328 1.400 . S
C1329 C1330 1.398 . S
C1330 H1318 0.950 . S
C1330 C1329 1.398 . S
C1330 C1331 1.391 . S
C1331 H1319 0.950 . S
C1331 C1327 1.393 . S
C1331 C1330 1.391 . S
H1332 C1340 0.950 . S
H1333 C1345 0.950 . S
H1334 C1342 0.950 . S
H1335 C1344 0.950 . S
H1336 C1346 0.950 1_556 S
H1337 C1348 0.950 . S
H1338 C1350 0.950 . S
H1339 C1351 0.950 . S
C1340 H1332 0.950 . S
C1340 C1341 1.386 . S
C1340 C1342 1.391 . S
C1341 C1340 1.386 . S
C1341 C1345 1.393 . S
C1342 H1334 0.950 . S
C1342 C1340 1.391 . S
C1342 C1343 1.400 . S
C1343 C1342 1.400 . S
C1343 C1344 1.398 . S
C1343 C1349 1.491 . S
C1344 H1335 0.950 . S
C1344 C1343 1.398 . S
C1344 C1345 1.391 . S
C1345 H1333 0.950 . S
C1345 C1341 1.393 . S
C1345 C1344 1.391 . S
C1346 H1336 0.950 1_554 S
C1346 C1347 1.386 . S
C1346 C1348 1.391 . S
C1347 C1346 1.386 . S
C1347 C1351 1.393 . S
C1348 H1337 0.950 . S
C1348 C1346 1.391 . S
C1348 C1349 1.400 . S
C1349 C1343 1.491 . S
C1349 C1348 1.400 . S
C1349 C1350 1.398 . S
C1350 H1338 0.950 . S
C1350 C1349 1.398 . S
C1350 C1351 1.391 . S
C1351 H1339 0.950 . S
C1351 C1347 1.393 . S
C1351 C1350 1.391 . S
H1352 C1360 0.950 . S
H1353 C1365 0.950 1_455 S
H1354 C1362 0.950 . S
H1355 C1364 0.950 . S
H1356 C1366 0.950 . S
H1357 C1368 0.950 . S
H1358 C1370 0.950 . S
H1359 C1371 0.950 . S
C1360 H1352 0.950 . S
C1360 C1361 1.386 . S
C1360 C1362 1.391 . S
C1361 C1360 1.386 . S
C1361 C1365 1.393 . S
C1362 H1354 0.950 . S
C1362 C1360 1.391 . S
C1362 C1363 1.400 . S
C1363 C1362 1.400 . S
C1363 C1364 1.398 . S
C1363 C1369 1.491 . S
C1364 H1355 0.950 . S
C1364 C1363 1.398 . S
C1364 C1365 1.391 . S
C1365 H1353 0.950 1_655 S
C1365 C1361 1.393 . S
C1365 C1364 1.391 . S
C1366 H1356 0.950 . S
C1366 C1367 1.386 . S
C1366 C1368 1.391 . S
C1367 C1366 1.386 . S
C1367 C1371 1.393 . S
C1368 H1357 0.950 . S
C1368 C1366 1.391 . S
C1368 C1369 1.400 . S
C1369 C1363 1.491 . S
C1369 C1368 1.400 . S
C1369 C1370 1.398 . S
C1370 H1358 0.950 . S
C1370 C1369 1.398 . S
C1370 C1371 1.391 . S
C1371 H1359 0.950 . S
C1371 C1367 1.393 . S
C1371 C1370 1.391 . S
H1372 C1380 0.950 . S
H1373 C1385 0.950 . S
H1374 C1382 0.950 . S
H1375 C1384 0.950 . S
H1376 C1386 0.950 . S
H1377 C1388 0.950 . S
H1378 C1390 0.950 . S
H1379 C1391 0.950 . S
C1380 H1372 0.950 . S
C1380 C1381 1.386 . S
C1380 C1382 1.391 . S
C1381 C1380 1.386 . S
C1381 C1385 1.393 . S
C1382 H1374 0.950 . S
C1382 C1380 1.391 . S
C1382 C1383 1.400 . S
C1383 C1382 1.400 . S
C1383 C1384 1.398 . S
C1383 C1389 1.491 . S
C1384 H1375 0.950 . S
C1384 C1383 1.398 . S
C1384 C1385 1.391 . S
C1385 H1373 0.950 . S
C1385 C1381 1.393 . S
C1385 C1384 1.391 . S
C1386 H1376 0.950 . S
C1386 C1387 1.386 . S
C1386 C1388 1.391 . S
C1387 C1386 1.386 . S
C1387 C1391 1.393 . S
C1388 H1377 0.950 . S
C1388 C1386 1.391 . S
C1388 C1389 1.400 . S
C1389 C1383 1.491 . S
C1389 C1388 1.400 . S
C1389 C1390 1.398 . S
C1390 H1378 0.950 . S
C1390 C1389 1.398 . S
C1390 C1391 1.391 . S
C1391 H1379 0.950 . S
C1391 C1387 1.393 . S
C1391 C1390 1.391 . S
H1392 C1400 0.950 . S
H1393 C1405 0.950 . S
H1394 C1402 0.950 . S
H1395 C1404 0.950 . S
H1396 C1406 0.950 . S
H1397 C1408 0.950 . S
H1398 C1410 0.950 . S
H1399 C1411 0.950 . S
C1400 H1392 0.950 . S
C1400 C1401 1.386 . S
C1400 C1402 1.391 . S
C1401 C1400 1.386 . S
C1401 C1405 1.393 . S
C1402 H1394 0.950 . S
C1402 C1400 1.391 . S
C1402 C1403 1.400 . S
C1403 C1402 1.400 . S
C1403 C1404 1.398 . S
C1403 C1409 1.491 . S
C1404 H1395 0.950 . S
C1404 C1403 1.398 . S
C1404 C1405 1.391 . S
C1405 H1393 0.950 . S
C1405 C1401 1.393 . S
C1405 C1404 1.391 . S
C1406 H1396 0.950 . S
C1406 C1407 1.386 . S
C1406 C1408 1.391 . S
C1407 C1406 1.386 . S
C1407 C1411 1.393 . S
C1408 H1397 0.950 . S
C1408 C1406 1.391 . S
C1408 C1409 1.400 . S
C1409 C1403 1.491 . S
C1409 C1408 1.400 . S
C1409 C1410 1.398 . S
C1410 H1398 0.950 . S
C1410 C1409 1.398 . S
C1410 C1411 1.391 . S
C1411 H1399 0.950 . S
C1411 C1407 1.393 . S
C1411 C1410 1.391 . S
H1412 C1420 0.950 . S
H1413 C1425 0.950 1_554 S
H1414 C1422 0.950 . S
H1415 C1424 0.950 . S
H1416 C1426 0.950 . S
H1417 C1428 0.950 . S
H1418 C1430 0.950 . S
H1419 C1431 0.950 . S
C1420 H1412 0.950 . S
C1420 C1421 1.386 . S
C1420 C1422 1.391 . S
C1421 C1420 1.386 . S
C1421 C1425 1.393 . S
C1422 H1414 0.950 . S
C1422 C1420 1.391 . S
C1422 C1423 1.400 . S
C1423 C1422 1.400 . S
C1423 C1424 1.398 . S
C1423 C1429 1.491 . S
C1424 H1415 0.950 . S
C1424 C1423 1.398 . S
C1424 C1425 1.391 . S
C1425 H1413 0.950 1_556 S
C1425 C1421 1.393 . S
C1425 C1424 1.391 . S
C1426 H1416 0.950 . S
C1426 C1427 1.386 . S
C1426 C1428 1.391 . S
C1427 C1426 1.386 . S
C1427 C1431 1.393 . S
C1428 H1417 0.950 . S
C1428 C1426 1.391 . S
C1428 C1429 1.400 . S
C1429 C1423 1.491 . S
C1429 C1428 1.400 . S
C1429 C1430 1.398 . S
C1430 H1418 0.950 . S
C1430 C1429 1.398 . S
C1430 C1431 1.391 . S
C1431 H1419 0.950 . S
C1431 C1427 1.393 . S
C1431 C1430 1.391 . S
H1432 C1440 0.950 . S
H1433 C1445 0.950 . S
H1434 C1442 0.950 . S
H1435 C1444 0.950 . S
H1436 C1446 0.950 . S
H1437 C1448 0.950 . S
H1438 C1450 0.950 . S
H1439 C1451 0.950 . S
C1440 H1432 0.950 . S
C1440 C1441 1.386 . S
C1440 C1442 1.391 . S
C1441 C1440 1.386 . S
C1441 C1445 1.393 . S
C1442 H1434 0.950 . S
C1442 C1440 1.391 . S
C1442 C1443 1.400 . S
C1443 C1442 1.400 . S
C1443 C1444 1.398 . S
C1443 C1449 1.491 . S
C1444 H1435 0.950 . S
C1444 C1443 1.398 . S
C1444 C1445 1.391 . S
C1445 H1433 0.950 . S
C1445 C1441 1.393 . S
C1445 C1444 1.391 . S
C1446 H1436 0.950 . S
C1446 C1447 1.386 . S
C1446 C1448 1.391 . S
C1447 C1446 1.386 . S
C1447 C1451 1.393 . S
C1448 H1437 0.950 . S
C1448 C1446 1.391 . S
C1448 C1449 1.400 . S
C1449 C1443 1.491 . S
C1449 C1448 1.400 . S
C1449 C1450 1.398 . S
C1450 H1438 0.950 . S
C1450 C1449 1.398 . S
C1450 C1451 1.391 . S
C1451 H1439 0.950 . S
C1451 C1447 1.393 . S
C1451 C1450 1.391 . S
H1452 C1460 0.950 . S
H1453 C1465 0.950 . S
H1454 C1462 0.950 . S
H1455 C1464 0.950 . S
H1456 C1466 0.950 . S
H1457 C1468 0.950 . S
H1458 C1470 0.950 . S
H1459 C1471 0.950 . S
C1460 H1452 0.950 . S
C1460 C1461 1.386 . S
C1460 C1462 1.391 . S
C1461 C1460 1.386 . S
C1461 C1465 1.393 . S
C1462 H1454 0.950 . S
C1462 C1460 1.391 . S
C1462 C1463 1.400 . S
C1463 C1462 1.400 . S
C1463 C1464 1.398 . S
C1463 C1469 1.491 . S
C1464 H1455 0.950 . S
C1464 C1463 1.398 . S
C1464 C1465 1.391 . S
C1465 H1453 0.950 . S
C1465 C1461 1.393 . S
C1465 C1464 1.391 . S
C1466 H1456 0.950 . S
C1466 C1467 1.386 . S
C1466 C1468 1.391 . S
C1467 C1466 1.386 . S
C1467 C1471 1.393 . S
C1468 H1457 0.950 . S
C1468 C1466 1.391 . S
C1468 C1469 1.400 . S
C1469 C1463 1.491 . S
C1469 C1468 1.400 . S
C1469 C1470 1.398 . S
C1470 H1458 0.950 . S
C1470 C1469 1.398 . S
C1470 C1471 1.391 . S
C1471 H1459 0.950 . S
C1471 C1467 1.393 . S
C1471 C1470 1.391 . S
C521 C2 2.129 1_556 S
C527 C230 2.126 . S
C541 C34 2.131 . S
C547 C134 2.122 1_554 S
C561 C166 2.116 . S
C567 C66 2.130 . S
C581 C98 2.117 . S
C587 C194 2.131 . S
C601 C356 1.895 . S
C607 C157 1.900 1_554 S
C621 C285 1.911 . S
C627 C4 1.898 1_556 S
C641 C324 1.909 . S
C647 C196 1.908 . S
C661 C68 1.899 . S
C667 C317 1.895 . S
C681 C294 2.125 . S
C687 C386 2.116 . S
C701 C322 2.124 . S
C707 C454 2.130 . S
C721 C422 2.107 1_656 S
C727 C262 2.116 . S
C741 C354 2.128 . S
C747 C482 2.099 1_654 S
C761 C477 1.912 . S
C767 C100 1.904 . S
C781 C388 1.899 . S
C787 C189 1.912 . S
C801 C36 1.899 . S
C807 C484 1.895 1_554 S
C821 C253 1.911 . S
C827 C445 1.898 1_556 S
C841 N434 2.192 1_655 S
C847 N13 2.196 . S
C861 N365 2.217 1_655 S
C867 N45 2.202 . S
C881 N397 2.190 . S
C887 N77 2.205 . S
C901 N333 2.190 . S
C907 N109 2.205 . S
C921 N146 2.217 . S
C927 N493 2.201 1_655 S
C941 N306 2.190 . S
C947 N178 2.203 . S
C961 N205 2.194 . S
C967 N466 2.193 . S
C981 N242 2.190 . S
C987 N274 2.204 1_655 S
C1001 N18 1.286 . S
C1007 N141 1.281 . S
C1021 N50 1.282 . S
C1027 N173 1.287 . S
C1041 N210 1.283 . S
C1047 N82 1.280 . S
C1061 N114 1.288 . S
C1067 N237 1.284 . S
C1081 N338 1.287 . S
C1087 N269 1.285 . S
C1101 N370 1.282 . S
C1107 N301 1.280 . S
C1121 N402 1.285 . S
C1127 N461 1.288 . S
C1141 N498 1.281 . S
C1147 N429 1.281 . S
C1161 C6 1.581 . S
C1167 C226 1.565 . S
C1181 C38 1.563 . S
C1187 C130 1.555 . S
C1201 C162 1.557 1_556 S
C1207 C70 1.561 . S
C1221 C198 1.580 . S
C1227 C102 1.560 1_554 S
C1241 C381 1.577 . S
C1247 C132 1.559 . S
C1261 C260 1.574 . S
C1267 C29 1.577 . S
C1281 C349 1.562 1_554 S
C1287 C221 1.552 . S
C1301 C93 1.562 . S
C1307 C292 1.552 1_556 S
C1321 C390 1.562 . S
C1327 C290 1.581 1_556 S
C1341 C450 1.568 . S
C1347 C326 1.580 1_554 S
C1361 C418 1.533 1_655 S
C1367 C258 1.571 . S
C1381 C486 1.551 1_655 S
C1387 C358 1.579 . S
C1401 C452 1.556 . S
C1407 C125 1.555 1_554 S
C1421 C164 1.554 1_556 S
C1427 C413 1.572 . S
C1441 C61 1.557 . S
C1447 C509 1.575 . S
C1461 C420 1.552 . S
C1467 C228 1.565 . S
