# Generated by pormake.
# Topology xfx, (5)-cn, num edge types: 1
# Building blocks:
#     Node 0, Type 0, BuildingBlock: BEQFEK_clean_sbu_0, # of connection points: 5
#     Node 1, Type 0, BuildingBlock: BEQFEK_clean_sbu_0, # of connection points: 5
#     Node 2, Type 0, BuildingBlock: BEQFEK_clean_sbu_0, # of connection points: 5
#     Node 3, Type 0, BuildingBlock: BEQFEK_clean_sbu_0, # of connection points: 5
#     Node 4, Type 0, BuildingBlock: BEQFEK_clean_sbu_0, # of connection points: 5
#     Node 5, Type 0, BuildingBlock: BEQFEK_clean_sbu_0, # of connection points: 5
#     Node 6, Type 0, BuildingBlock: BEQFEK_clean_sbu_0, # of connection points: 5
#     Node 7, Type 0, BuildingBlock: BEQFEK_clean_sbu_0, # of connection points: 5
#     Edge 8, Type (0, 0), BuildingBlock: CIFDUS_clean_linker_0, # of connection points: 2
#     Edge 9, Type (0, 0), BuildingBlock: CIFDUS_clean_linker_0, # of connection points: 2
#     Edge 10, Type (0, 0), BuildingBlock: CIFDUS_clean_linker_0, # of connection points: 2
#     Edge 11, Type (0, 0), BuildingBlock: CIFDUS_clean_linker_0, # of connection points: 2
#     Edge 12, Type (0, 0), BuildingBlock: CIFDUS_clean_linker_0, # of connection points: 2
#     Edge 13, Type (0, 0), BuildingBlock: CIFDUS_clean_linker_0, # of connection points: 2
#     Edge 14, Type (0, 0), BuildingBlock: CIFDUS_clean_linker_0, # of connection points: 2
#     Edge 15, Type (0, 0), BuildingBlock: CIFDUS_clean_linker_0, # of connection points: 2
#     Edge 16, Type (0, 0), BuildingBlock: CIFDUS_clean_linker_0, # of connection points: 2
#     Edge 17, Type (0, 0), BuildingBlock: CIFDUS_clean_linker_0, # of connection points: 2
#     Edge 18, Type (0, 0), BuildingBlock: CIFDUS_clean_linker_0, # of connection points: 2
#     Edge 19, Type (0, 0), BuildingBlock: CIFDUS_clean_linker_0, # of connection points: 2
#     Edge 20, Type (0, 0), BuildingBlock: CIFDUS_clean_linker_0, # of connection points: 2
#     Edge 21, Type (0, 0), BuildingBlock: CIFDUS_clean_linker_0, # of connection points: 2
#     Edge 22, Type (0, 0), BuildingBlock: CIFDUS_clean_linker_0, # of connection points: 2
#     Edge 23, Type (0, 0), BuildingBlock: CIFDUS_clean_linker_0, # of connection points: 2
#     Edge 24, Type (0, 0), BuildingBlock: CIFDUS_clean_linker_0, # of connection points: 2
#     Edge 25, Type (0, 0), BuildingBlock: CIFDUS_clean_linker_0, # of connection points: 2
#     Edge 26, Type (0, 0), BuildingBlock: CIFDUS_clean_linker_0, # of connection points: 2
#     Edge 27, Type (0, 0), BuildingBlock: CIFDUS_clean_linker_0, # of connection points: 2
# Relax obj value: 0.384
# Max RMSD: 0.217
# Mean RMSD: 0.217
data_MOF--net-xfx--node1-BEQFEK_clean_sbu_0--edge1-CIFDUS_clean_linker_0
_symmetry_space_group_name_H-M    P1
_symmetry_Int_Tables_number       1
_symmetry_cell_setting            triclinic
loop_
_symmetry_equiv_pos_as_xyz
'x, y, z'
_cell_length_a     34.841274
_cell_length_b     34.783904
_cell_length_c     30.087834
_cell_angle_alpha  89.426191
_cell_angle_beta   90.296939
_cell_angle_gamma 75.480969
loop_
_atom_site_label
_atom_site_type_symbol
_atom_site_fract_x
_atom_site_fract_y
_atom_site_fract_z
_atom_type_partial_charge
Co0 Co 0.35562 0.04709 0.38855 0.0
Co1 Co 0.34845 0.97776 0.45168 0.0
C2 C 0.36458 0.9667 0.35275 0.0
O3 O 0.36227 1.00333 0.34612 0.0
O4 O 0.36058 0.95319 0.39152 0.0
C5 C 0.34128 0.10216 0.31596 0.0
O6 O 0.32429 0.07635 0.29784 0.0
C7 C 0.30646 0.9184 0.4753 0.0
C8 C 0.33151 0.89589 0.54081 0.0
C9 C 0.30462 0.89078 0.50853 0.0
N10 N 0.33329 0.93826 0.48724 0.0
N11 N 0.34822 0.92472 0.52645 0.0
C12 C 0.28178 0.92792 0.43386 0.0
H13 H 0.28054 0.95855 0.42214 0.0
H14 H 0.25127 0.92486 0.43977 0.0
H15 H 0.29553 0.90717 0.40731 0.0
C16 C 0.27778 0.08471 0.42529 0.0
N17 N 0.3088 0.0531 0.42092 0.0
N18 N 0.30592 0.02534 0.44975 0.0
C19 C 0.27304 0.03916 0.47439 0.0
C20 C 0.25407 0.07729 0.45948 0.0
C21 C 0.27242 0.12262 0.39921 0.0
H22 H 0.27244 0.11604 0.36329 0.0
H23 H 0.24405 0.14424 0.407 0.0
H24 H 0.29746 0.13608 0.40635 0.0
O25 O 0.40242 0.03808 0.42888 0.0
O26 O 0.39883 0.98881 0.47496 0.0
H27 H 0.24073 0.03865 0.5355 0.0
H28 H 0.24938 0.9939 0.50327 0.0
C29 C 0.26252 0.01815 0.51436 0.0
H30 H 0.28967 1.0046 0.53399 0.0
H31 H 0.36988 0.93501 0.54328 0.0
O32 O 0.35552 0.09574 0.355 0.0
C33 C 0.41645 0.0147 0.46114 0.0
Co34 Co 0.99512 0.70499 0.5832 0.0
Co35 Co 0.07263 0.70128 0.53083 0.0
C36 C 0.07197 0.69021 0.63107 0.0
O37 O 0.03442 0.69699 0.63194 0.0
O38 O 0.09034 0.69014 0.59455 0.0
C39 C 0.93367 0.72842 0.6467 0.0
O40 O 0.95814 0.74695 0.6651 0.0
C41 C 0.13716 0.73802 0.51411 0.0
C42 C 0.16324 0.7111 0.4516 0.0
C43 C 0.16674 0.73877 0.4834 0.0
N44 N 0.11749 0.71138 0.50101 0.0
N45 N 0.13338 0.69509 0.46379 0.0
C46 C 0.12501 0.76432 0.55337 0.0
H47 H 0.12725 0.79497 0.54578 0.0
H48 H 0.14482 0.75239 0.58194 0.0
H49 H 0.09421 0.76502 0.56317 0.0
C50 C 0.96871 0.78252 0.53858 0.0
N51 N 0.99663 0.749 0.54792 0.0
N52 N 0.02833 0.74767 0.52387 0.0
C53 C 0.02106 0.78064 0.49762 0.0
C54 C 0.9833 0.80412 0.50683 0.0
C55 C 0.92727 0.79135 0.55609 0.0
H56 H 0.91546 0.76473 0.55289 0.0
H57 H 0.92769 0.79881 0.5918 0.0
H58 H 0.90704 0.8164 0.53806 0.0
O59 O 1.00374 0.65682 0.5466 0.0
O60 O 0.05899 0.65171 0.50801 0.0
H61 H 0.0639 0.76121 0.44635 0.0
H62 H 0.03365 0.8115 0.43878 0.0
C63 C 0.0491 0.78899 0.46351 0.0
H64 H 0.07213 0.80071 0.48026 0.0
H65 H 0.12337 0.67369 0.44629 0.0
O66 O 0.9431 0.71058 0.61029 0.0
C67 C 0.02912 0.6386 0.51882 0.0
Co68 Co 0.69046 0.99292 0.39994 0.0
Co69 Co 0.701 0.07442 0.43238 0.0
C70 C 0.67334 0.06776 0.34156 0.0
O71 O 0.67316 0.03209 0.35102 0.0
O72 O 0.68664 0.08879 0.36914 0.0
C73 C 0.71377 0.93422 0.3371 0.0
O74 O 0.73572 0.95823 0.32519 0.0
C75 C 0.72225 0.15133 0.44361 0.0
C76 C 0.74757 0.14308 0.51133 0.0
C77 C 0.74396 0.16781 0.47413 0.0
N78 N 0.71587 0.11772 0.46139 0.0
N79 N 0.72984 0.11388 0.50245 0.0
C80 C 0.70526 0.16804 0.3997 0.0
H81 H 0.67894 0.15711 0.39127 0.0
H82 H 0.72784 0.15903 0.37339 0.0
H83 H 0.69524 0.20089 0.40097 0.0
C84 C 0.77257 0.96477 0.43076 0.0
N85 N 0.73955 0.99406 0.42409 0.0
N86 N 0.74591 0.02825 0.43583 0.0
C87 C 0.78441 0.02162 0.44877 0.0
C88 C 0.80244 0.98117 0.44592 0.0
C89 C 0.77438 0.92146 0.42676 0.0
H90 H 0.74472 0.91609 0.43232 0.0
H91 H 0.78459 0.91139 0.39299 0.0
H92 H 0.79563 0.90363 0.45128 0.0
O93 O 0.64902 1.00363 0.44432 0.0
O94 O 0.65039 0.06545 0.46083 0.0
H95 H 0.80098 0.05913 0.49704 0.0
H96 H 0.83687 0.04347 0.45408 0.0
C97 C 0.80463 0.05324 0.46096 0.0
H98 H 0.7916 0.08094 0.44198 0.0
H99 H 0.72964 0.08982 0.52337 0.0
O100 O 0.69289 0.94195 0.37189 0.0
C101 C 0.63409 0.03627 0.46356 0.0
Co102 Co 0.05098 0.35366 0.60273 0.0
Co103 Co 0.9818 0.35479 0.53544 0.0
C104 C 0.97054 0.37633 0.63467 0.0
O105 O 0.00717 0.36718 0.64437 0.0
O106 O 0.95856 0.37405 0.59494 0.0
C107 C 0.10504 0.33844 0.67594 0.0
O108 O 0.07574 0.32845 0.69656 0.0
C109 C 0.9097 0.3282 0.51945 0.0
C110 C 0.91162 0.31622 0.44761 0.0
C111 C 0.89212 0.31065 0.48633 0.0
N112 N 0.93951 0.34141 0.5017 0.0
N113 N 0.93955 0.33537 0.45838 0.0
C114 C 0.89607 0.33581 0.56646 0.0
H115 H 0.89315 0.36748 0.57415 0.0
H116 H 0.91819 0.31713 0.58951 0.0
H117 H 0.86651 0.33017 0.57188 0.0
C118 C 0.07832 0.27174 0.5741 0.0
N119 N 0.05118 0.30675 0.5733 0.0
N120 N 0.02528 0.30729 0.54126 0.0
C121 C 0.03674 0.27262 0.51895 0.0
C122 C 0.07102 0.24899 0.53899 0.0
C123 C 0.11025 0.26004 0.60877 0.0
H124 H 0.13337 0.27633 0.60276 0.0
H125 H 0.09732 0.26801 0.64195 0.0
H126 H 0.12403 0.22763 0.60885 0.0
O127 O 0.0477 0.3982 0.55979 0.0
O128 O 1.00027 0.40049 0.50931 0.0
H129 H 0.01528 0.28991 0.45342 0.0
H130 H 0.03554 0.2373 0.46014 0.0
C131 C 0.01798 0.26436 0.47651 0.0
H132 H 0.98786 0.26073 0.48352 0.0
H133 H 0.95993 0.34244 0.43647 0.0
O134 O 0.10084 0.3489 0.63535 0.0
C135 C 0.02817 0.41407 0.52552 0.0
Co136 Co 0.85576 0.55432 0.89032 0.0
Co137 Co 0.84931 0.48376 0.95307 0.0
C138 C 0.86956 0.47413 0.85427 0.0
O139 O 0.8658 0.51098 0.84745 0.0
O140 O 0.86465 0.46061 0.89279 0.0
C141 C 0.84465 0.61018 0.8184 0.0
O142 O 0.83182 0.58298 0.79708 0.0
C143 C 0.82518 0.41072 0.97609 0.0
C144 C 0.81103 0.41926 0.04724 0.0
C145 C 0.80814 0.39511 0.01158 0.0
N146 N 0.83524 0.44369 0.98966 0.0
N147 N 0.82812 0.44767 0.03266 0.0
C148 C 0.83652 0.39221 0.93177 0.0
H149 H 0.86658 0.39484 0.923 0.0
H150 H 0.81523 0.40785 0.90597 0.0
H151 H 0.83758 0.36008 0.93222 0.0
C152 C 0.77431 0.58718 0.91923 0.0
N153 N 0.80782 0.55791 0.9198 0.0
N154 N 0.80465 0.53017 0.94857 0.0
C155 C 0.76876 0.54196 0.96838 0.0
C156 C 0.74852 0.57874 0.95058 0.0
C157 C 0.76656 0.62187 0.88763 0.0
H158 H 0.77308 0.61087 0.85343 0.0
H159 H 0.73523 0.63933 0.88821 0.0
H160 H 0.78628 0.64137 0.89598 0.0
O161 O 0.90112 0.54621 0.93229 0.0
O162 O 0.89781 0.49673 0.9781 0.0
H163 H 0.72493 0.53442 0.01656 0.0
H164 H 0.75719 0.4892 -0.00397 0.0
C165 C 0.75553 0.52016 0.00602 0.0
H166 H 0.77553 0.51961 0.03486 0.0
H167 H 0.83345 0.47073 0.0517 0.0
O168 O 0.85528 0.60412 0.85877 0.0
C169 C 0.91494 0.5231 0.96479 0.0
Co170 Co 0.49547 0.19745 0.07377 0.0
Co171 Co 0.57248 0.21111 0.03202 0.0
C172 C 0.5722 0.18883 0.12637 0.0
O173 O 0.53686 0.18537 0.12143 0.0
O174 O 0.59016 0.20152 0.09489 0.0
C175 C 0.43488 0.21301 0.13816 0.0
O176 O 0.457 0.2344 0.15599 0.0
C177 C 0.64641 0.23445 0.01121 0.0
C178 C 0.63443 0.25518 0.94179 0.0
C179 C 0.66091 0.25395 0.97676 0.0
N180 N 0.61228 0.22666 -0.00244 0.0
N181 N 0.60605 0.23797 0.95559 0.0
C182 C 0.66559 0.22053 0.05509 0.0
H183 H 0.65831 0.19254 0.06544 0.0
H184 H 0.65435 0.24333 0.08062 0.0
H185 H 0.69832 0.2146 0.05299 0.0
C186 C 0.46155 0.27874 0.04053 0.0
N187 N 0.49207 0.24647 0.04574 0.0
N188 N 0.52445 0.25363 0.02912 0.0
C189 C 0.51552 0.29174 0.01414 0.0
C190 C 0.47537 0.30879 0.02084 0.0
C191 C 0.41941 0.2798 0.0514 0.0
H192 H 0.4137 0.25024 0.04604 0.0
H193 H 0.41389 0.28789 0.08678 0.0
H194 H 0.39845 0.30209 0.0305 0.0
O195 O 0.50737 0.15406 0.03186 0.0
O196 O 0.56674 0.15784 0.00901 0.0
H197 H 0.54905 0.30748 0.96089 0.0
H198 H 0.53449 0.34532 0.00199 0.0
C199 C 0.54505 0.3128 -0.00297 0.0
H200 H 0.57393 0.30168 0.01431 0.0
H201 H 0.5812 0.23594 0.93714 0.0
O202 O 0.44527 0.19582 0.1016 0.0
C203 C 0.53899 0.13979 0.0106 0.0
Co204 Co 0.19402 0.50555 0.89912 0.0
Co205 Co 0.19844 0.58507 0.9421 0.0
C206 C 0.18451 0.57829 0.84333 0.0
O207 O 0.18791 0.54112 0.84645 0.0
O208 O 0.18729 0.59877 0.8775 0.0
C209 C 0.21473 0.43892 0.84263 0.0
O210 O 0.23594 0.46012 0.82246 0.0
C211 C 0.23866 0.648 0.95309 0.0
C212 C 0.20618 0.68329 0.008 0.0
C213 C 0.23676 0.68157 0.97821 0.0
N214 N 0.21076 0.63046 0.96754 0.0
N215 N 0.19145 0.6516 0.00045 0.0
C216 C 0.26395 0.63478 0.91324 0.0
H217 H 0.25685 0.60851 0.89795 0.0
H218 H 0.29571 0.62685 0.92285 0.0
H219 H 0.25934 0.6595 0.88858 0.0
C220 C 0.27205 0.47664 0.9421 0.0
N221 N 0.23976 0.50586 0.93199 0.0
N222 N 0.24214 0.53882 0.95165 0.0
C223 C 0.2763 0.53112 0.97568 0.0
C224 C 0.29665 0.49167 0.96947 0.0
C225 C 0.27763 0.43412 0.92917 0.0
H226 H 0.24958 0.4251 0.93381 0.0
H227 H 0.28602 0.43084 0.89366 0.0
H228 H 0.30116 0.4139 0.94928 0.0
O229 O 0.14607 0.52063 0.93626 0.0
O230 O 0.14775 0.57764 0.9678 0.0
H231 H 0.26257 0.57993 0.02093 0.0
H232 H 0.31017 0.54511 0.03081 0.0
C233 C 0.2888 0.56038 0.00493 0.0
H234 H 0.30358 0.57902 0.98446 0.0
H235 H 0.16779 0.6448 0.0172 0.0
O236 O 0.19568 0.45243 0.87727 0.0
C237 C 0.13083 0.54957 0.96141 0.0
Co238 Co 0.54151 0.86268 0.10184 0.0
Co239 Co 0.47719 0.85589 0.03257 0.0
C240 C 0.45794 0.87453 0.12914 0.0
O241 O 0.49402 0.87175 0.13849 0.0
O242 O 0.44696 0.86984 0.08958 0.0
C243 C 0.58483 0.84236 0.18116 0.0
O244 O 0.55586 0.82551 0.18984 0.0
C245 C 0.42644 0.8083 0.00115 0.0
C246 C 0.39596 0.84087 0.94239 0.0
C247 C 0.39818 0.80759 0.96899 0.0
N248 N 0.44084 0.84009 -0.00623 0.0
N249 N 0.42268 0.85949 0.95847 0.0
C250 C 0.43666 0.78152 0.04107 0.0
H251 H 0.4542 0.79374 0.06557 0.0
H252 H 0.45431 0.75188 0.03071 0.0
H253 H 0.40915 0.77747 0.05677 0.0
C254 C 0.58143 0.78444 0.06768 0.0
N255 N 0.54939 0.81528 0.07018 0.0
N256 N 0.52422 0.81299 0.03823 0.0
C257 C 0.54052 0.78103 0.01309 0.0
C258 C 0.57725 0.7618 0.03121 0.0
C259 C 0.61685 0.7783 0.09787 0.0
H260 H 0.60729 0.77624 0.13264 0.0
H261 H 0.63949 0.75049 0.09059 0.0
H262 H 0.63027 0.80393 0.09476 0.0
O263 O 0.5378 0.90889 0.06032 0.0
O264 O 0.49121 0.90498 0.01077 0.0
H265 H 0.54871 0.7577 0.94662 0.0
H266 H 0.5046 0.75258 0.97399 0.0
C267 C 0.52443 0.77267 0.969 0.0
H268 H 0.50716 0.8006 0.95311 0.0
H269 H 0.4277 0.88594 0.94613 0.0
O270 O 0.58536 0.85976 0.14389 0.0
C271 C 0.51663 0.92238 0.02612 0.0
H272 H 0.5992 0.98024 0.49624 0.0
H273 H 0.57573 0.10536 0.46529 0.0
H274 H 0.50446 0.11087 0.46752 0.0
H275 H 0.44975 0.07753 0.46454 0.0
H276 H 0.47316 0.95249 0.49584 0.0
H277 H 0.54334 0.94963 0.50764 0.0
C278 C 0.57848 1.00899 0.49139 0.0
C279 C 0.59288 0.04224 0.48002 0.0
C280 C 0.53747 0.01177 0.4919 0.0
C281 C 0.56561 0.07931 0.47422 0.0
C282 C 0.52475 0.08237 0.47491 0.0
C283 C 0.47008 0.04985 0.47496 0.0
C284 C 0.45634 0.0151 0.47857 0.0
C285 C 0.51046 0.04842 0.48155 0.0
C286 C 0.4829 0.97961 0.49271 0.0
C287 C 0.52314 0.97792 0.49918 0.0
H288 H 0.08653 0.56976 0.50895 0.0
H289 H 0.96069 0.62008 0.49579 0.0
H290 H 0.94967 0.55384 0.48793 0.0
H291 H 0.97455 0.48139 0.4977 0.0
H292 H 0.09966 0.43126 0.51828 0.0
H293 H 0.11232 0.49689 0.50953 0.0
C294 C 0.05691 0.56619 0.50287 0.0
C295 C 0.0245 0.59976 0.50292 0.0
C296 C 0.05058 0.52775 0.50032 0.0
C297 C 0.98613 0.59466 0.4959 0.0
C298 C 0.97977 0.55674 0.49164 0.0
C299 C 1.00468 0.48473 0.49872 0.0
C300 C 0.0361 0.45151 0.50855 0.0
C301 C 0.01156 0.52296 0.49565 0.0
C302 C 0.07495 0.45641 0.51072 0.0
C303 C 0.0822 0.494 0.50599 0.0
H304 H 0.94654 0.58656 0.97315 0.0
H305 H 0.97349 0.45956 -0.00769 0.0
H306 H 0.04403 0.45704 -0.00065 0.0
H307 H 0.09839 0.48965 0.98691 0.0
H308 H 0.07142 0.61686 0.96993 0.0
H309 H 1.00057 0.62076 0.97603 0.0
C310 C 0.96779 0.55851 0.98016 0.0
C311 C 0.95491 0.52323 0.98164 0.0
C312 C 0.00832 0.55729 0.98402 0.0
C313 C 0.98262 0.48712 -0.00887 0.0
C314 C 0.02304 0.48562 -0.00528 0.0
C315 C 0.077 0.51831 0.98581 0.0
C316 C 0.09002 0.55287 0.97738 0.0
C317 C 0.03632 0.52029 0.98927 0.0
C318 C 0.06214 0.58987 0.97646 0.0
C319 C 0.02159 0.59206 0.97953 0.0
H320 H 0.57964 0.95584 0.02609 0.0
H321 H 0.45726 0.97727 0.98481 0.0
H322 H 0.45539 0.04655 0.96811 0.0
H323 H 0.48525 0.10308 0.97729 0.0
H324 H 0.60792 0.08185 0.01685 0.0
H325 H 0.61337 0.0104 0.02081 0.0
C326 C 0.55283 0.9755 0.01256 0.0
C327 C 0.51842 0.96157 0.00749 0.0
C328 C 0.55201 0.01539 0.00275 0.0
C329 C 0.4841 0.98721 0.98923 0.0
C330 C 0.48295 0.02694 0.97985 0.0
C331 C 0.51356 0.08264 0.98521 0.0
C332 C 0.54603 0.09776 -0.00289 0.0
C333 C 0.51626 0.04168 0.98809 0.0
C334 C 0.58256 0.07101 0.00721 0.0
C335 C 0.58551 0.03014 0.01014 0.0
H336 H 0.14984 0.23702 0.53086 0.0
H337 H 0.0555 0.17927 0.50966 0.0
H338 H 0.10405 0.11917 0.48489 0.0
H339 H 0.17445 0.08355 0.46878 0.0
H340 H 0.26728 0.14106 0.49988 0.0
H341 H 0.21837 0.20009 0.52404 0.0
C342 C 0.1398 0.21104 0.52181 0.0
C343 C 0.09915 0.21257 0.5223 0.0
C344 C 0.1678 0.17631 0.51027 0.0
C345 C 0.08664 0.17901 0.50902 0.0
C346 C 0.11443 0.14453 0.49542 0.0
C347 C 0.18372 0.10875 0.48187 0.0
C348 C 0.22422 0.10832 0.48241 0.0
C349 C 0.15523 0.14278 0.49605 0.0
C350 C 0.23619 0.14099 0.4992 0.0
C351 C 0.20827 0.17481 0.51261 0.0
H352 H 0.27849 0.85171 0.44013 0.0
H353 H 0.27667 0.86236 0.58289 0.0
H354 H 0.23583 0.8148 0.5883 0.0
H355 H 0.20013 0.77095 0.55243 0.0
H356 H 0.19732 0.76479 0.40931 0.0
H357 H 0.24078 0.80982 0.40414 0.0
C358 C 0.26826 0.84476 0.47237 0.0
C359 C 0.2797 0.86178 0.51094 0.0
C360 C 0.24414 0.81794 0.4752 0.0
C361 C 0.26801 0.85012 0.55258 0.0
C362 C 0.24458 0.82295 0.55572 0.0
C363 C 0.20789 0.78024 0.52002 0.0
C364 C 0.19423 0.76532 0.48129 0.0
C365 C 0.23215 0.80694 0.51722 0.0
C366 C 0.20701 0.77599 0.43973 0.0
C367 C 0.23177 0.8019 0.4367 0.0
H368 H 0.85432 0.9264 0.39803 0.0
H369 H 0.84071 0.98546 0.52427 0.0
H370 H 0.90098 0.93877 0.55229 0.0
H371 H 0.95088 0.87484 0.54447 0.0
H372 H 0.96182 0.81373 0.41962 0.0
H373 H 0.90976 0.86756 0.38705 0.0
C374 C 0.86507 0.9294 0.43139 0.0
C375 C 0.84301 0.95892 0.45931 0.0
C376 C 0.89911 0.90186 0.4475 0.0
C377 C 0.85733 0.96301 0.50221 0.0
C378 C 0.89157 0.9361 0.51832 0.0
C379 C 0.94261 0.8741 0.50973 0.0
C380 C 0.96012 0.84066 0.48428 0.0
C381 C 0.9118 0.90454 0.49181 0.0
C382 C 0.94908 0.83951 0.43952 0.0
C383 C 0.919 0.87004 0.42113 0.0
H384 H 0.78735 0.19316 0.53695 0.0
H385 H 0.75396 0.21306 0.39835 0.0
H386 H 0.7927 0.26122 0.39221 0.0
H387 H 0.8401 0.29571 0.42463 0.0
H388 H 0.88426 0.26341 0.55764 0.0
H389 H 0.83792 0.22254 0.56699 0.0
C390 C 0.78799 0.20806 0.50524 0.0
C391 C 0.76577 0.19973 0.46888 0.0
C392 C 0.81282 0.23398 0.50079 0.0
C393 C 0.76837 0.21928 0.42807 0.0
C394 C 0.7915 0.24676 0.42407 0.0
C395 C 0.83927 0.28002 0.4558 0.0
C396 C 0.86388 0.28509 0.49141 0.0
C397 C 0.81421 0.25407 0.46009 0.0
C398 C 0.86361 0.26301 0.53083 0.0
C399 C 0.83761 0.23871 0.53595 0.0
H400 H 0.58076 0.68442 0.01059 0.0
H401 H 0.64701 0.77372 0.00506 0.0
H402 H 0.70633 0.72409 0.98317 0.0
H403 H 0.74036 0.65528 0.97027 0.0
H404 H 0.67444 0.56588 0.96507 0.0
H405 H 0.61427 0.61498 0.98843 0.0
C406 C 0.60809 0.69285 0.00377 0.0
C407 C 0.60998 0.73234 0.01019 0.0
C408 C 0.64222 0.66404 -0.00941 0.0
C409 C 0.64526 0.74329 0.00093 0.0
C410 C 0.67917 0.71495 0.98867 0.0
C411 C 0.71271 0.64656 0.97364 0.0
C412 C 0.71189 0.607 0.96631 0.0
C413 C 0.67817 0.67521 0.98431 0.0
C414 C 0.676 0.59602 0.9715 0.0
C415 C 0.64152 0.62421 0.98421 0.0
H416 H 0.77234 0.36711 0.94114 0.0
H417 H 0.78913 0.35539 0.0834 0.0
H418 H 0.74546 0.31045 0.086 0.0
H419 H 0.69936 0.27895 0.04821 0.0
H420 H 0.69298 0.28114 0.9046 0.0
H421 H 0.73721 0.32514 0.90231 0.0
C422 C 0.7689 0.35314 0.97255 0.0
C423 C 0.78559 0.36391 0.01181 0.0
C424 C 0.74527 0.3259 0.97365 0.0
C425 C 0.77718 0.3475 0.05247 0.0
C426 C 0.75219 0.32172 0.05403 0.0
C427 C 0.70891 0.28685 0.01614 0.0
C428 C 0.69291 0.27557 0.97661 0.0
C429 C 0.73577 0.31099 0.0148 0.0
C430 C 0.70455 0.28905 0.93575 0.0
C431 C 0.72993 0.31432 0.93429 0.0
H432 H 0.42419 0.36213 0.07149 0.0
H433 H 0.47252 0.34437 0.93958 0.0
H434 H 0.42471 0.40462 0.91335 0.0
H435 H 0.36303 0.45632 0.92571 0.0
H436 H 0.31286 0.47258 0.0567 0.0
H437 H 0.36766 0.41947 0.08596 0.0
C438 C 0.42454 0.37193 0.03719 0.0
C439 C 0.45141 0.34875 0.0073 0.0
C440 C 0.39654 0.40623 0.02229 0.0
C441 C 0.45212 0.36184 0.96312 0.0
C442 C 0.42462 0.39611 0.9481 0.0
C443 C 0.36498 0.44899 0.96092 0.0
C444 C 0.33435 0.4683 0.98921 0.0
C445 C 0.39589 0.41776 0.97704 0.0
C446 C 0.33654 0.45843 0.03461 0.0
C447 C 0.36757 0.42776 0.05113 0.0
H448 H 0.31678 0.66551 0.97479 0.0
H449 H 0.2115 0.76205 0.97484 0.0
H450 H 0.25213 0.8101 0.96868 0.0
H451 H 0.31807 0.82437 0.965 0.0
H452 H 0.42298 0.72731 0.96731 0.0
H453 H 0.38215 0.67948 0.96956 0.0
C454 C 0.30274 0.697 0.97232 0.0
C455 C 0.2613 0.71034 0.97416 0.0
C456 C 0.32626 0.72424 0.96919 0.0
C457 C 0.24345 0.75127 0.97319 0.0
C458 C 0.26662 0.77865 0.96954 0.0
C459 C 0.33178 0.79271 0.96542 0.0
C460 C 0.37327 0.77916 0.96617 0.0
C461 C 0.30809 0.76547 0.96762 0.0
C462 C 0.391 0.73822 0.96724 0.0
C463 C 0.36771 0.71094 0.96847 0.0
H464 H 0.32843 0.11613 0.22759 0.0
H465 H 0.37194 0.16234 0.345 0.0
H466 H 0.39855 0.20764 0.29926 0.0
H467 H 0.41991 0.22475 0.22597 0.0
H468 H 0.37998 0.17537 0.10856 0.0
H469 H 0.34074 0.14146 0.15424 0.0
C470 C 0.34296 0.13671 0.24324 0.0
C471 C 0.34915 0.13515 0.28942 0.0
C472 C 0.35918 0.16188 0.2167 0.0
C473 C 0.36752 0.1624 0.30933 0.0
C474 C 0.3828 0.1883 0.28322 0.0
C475 C 0.40182 0.20742 0.21028 0.0
C476 C 0.40361 0.20172 0.16415 0.0
C477 C 0.38045 0.1869 0.23681 0.0
C478 C 0.37966 0.17956 0.1442 0.0
C479 C 0.35733 0.16004 0.17028 0.0
H480 H 0.1376 0.63005 0.64477 0.0
H481 H 0.05491 0.72427 0.71179 0.0
H482 H 0.08632 0.70084 0.78339 0.0
H483 H 0.13308 0.64974 0.82763 0.0
H484 H 0.20976 0.55056 0.76146 0.0
H485 H 0.18541 0.57961 0.68901 0.0
C486 C 0.12708 0.64583 0.67502 0.0
C487 C 0.09432 0.67904 0.67311 0.0
C488 C 0.14406 0.631 0.71628 0.0
C489 C 0.08024 0.69874 0.71256 0.0
C490 C 0.0981 0.68527 0.75346 0.0
C491 C 0.14496 0.63495 0.79727 0.0
C492 C 0.1734 0.59827 0.79977 0.0
C493 C 0.12945 0.6509 0.75586 0.0
C494 C 0.18793 0.57889 0.76028 0.0
C495 C 0.17395 0.59545 0.71889 0.0
H496 H 0.66918 0.88172 0.35092 0.0
H497 H 0.7391 0.92257 0.25141 0.0
H498 H 0.70909 0.89082 0.19357 0.0
H499 H 0.65372 0.8638 0.17037 0.0
H500 H 0.5814 0.82617 0.26966 0.0
H501 H 0.62196 0.84393 0.32853 0.0
C502 C 0.67856 0.88287 0.31671 0.0
C503 C 0.7053 0.90551 0.30523 0.0
C504 C 0.66023 0.86576 0.2835 0.0
C505 C 0.71799 0.90591 0.261 0.0
C506 C 0.70064 0.888 0.22784 0.0
C507 C 0.64728 0.85885 0.2049 0.0
C508 C 0.61401 0.84486 0.21579 0.0
C509 C 0.67015 0.86987 0.23851 0.0
C510 C 0.60654 0.83754 0.26051 0.0
C511 C 0.62963 0.84778 0.29419 0.0
H512 H 0.97327 0.35443 0.72148 0.0
H513 H 0.90417 0.43687 0.62595 0.0
H514 H 0.86387 0.47317 0.68582 0.0
H515 H 0.85377 0.48572 0.76603 0.0
H516 H 0.92016 0.40081 0.86114 0.0
H517 H 0.95565 0.36077 0.80078 0.0
C518 C 0.9489 0.37994 0.71383 0.0
C519 C 0.94194 0.39339 0.66961 0.0
C520 C 0.92558 0.40027 0.74832 0.0
C521 C 0.91002 0.42606 0.65983 0.0
C522 C 0.88716 0.44694 0.69405 0.0
C523 C 0.87547 0.45803 0.77339 0.0
C524 C 0.88473 0.44641 0.81787 0.0
C525 C 0.89546 0.43497 0.73851 0.0
C526 C 0.9125 0.4103 0.82712 0.0
C527 C 0.93301 0.38755 0.79265 0.0
H528 H 0.68125 0.13466 0.29655 0.0
H529 H 0.61938 0.04147 0.29355 0.0
H530 H 0.58146 0.07216 0.22894 0.0
H531 H 0.56501 0.12523 0.17349 0.0
H532 H 0.62987 0.21562 0.16991 0.0
H533 H 0.66724 0.18656 0.23687 0.0
C534 C 0.65964 0.12104 0.28152 0.0
C535 C 0.65324 0.0858 0.30004 0.0
C536 C 0.63818 0.13852 0.24342 0.0
C537 C 0.62524 0.06839 0.27998 0.0
C538 C 0.60326 0.08604 0.24308 0.0
C539 C 0.58706 0.13883 0.18762 0.0
C540 C 0.59417 0.17292 0.16746 0.0
C541 C 0.60928 0.12115 0.22473 0.0
C542 C 0.62364 0.18956 0.18527 0.0
C543 C 0.64504 0.17288 0.2234 0.0
H544 H 0.11884 0.32826 0.76457 0.0
H545 H 0.16862 0.36207 0.64359 0.0
H546 H 0.21506 0.38898 0.68663 0.0
H547 H 0.23057 0.41572 0.75751 0.0
H548 H 0.17748 0.38573 0.8781 0.0
H549 H 0.14418 0.34361 0.83643 0.0
C550 C 0.14048 0.34063 0.7476 0.0
C551 C 0.13939 0.34446 0.70112 0.0
C552 C 0.16626 0.35716 0.77251 0.0
C553 C 0.16822 0.35968 0.6795 0.0
C554 C 0.19476 0.37517 0.70406 0.0
C555 C 0.21267 0.39905 0.77487 0.0
C556 C 0.20539 0.40481 0.82045 0.0
C557 C 0.19241 0.37612 0.75051 0.0
C558 C 0.18272 0.38249 0.84271 0.0
C559 C 0.16353 0.35852 0.81891 0.0
H560 H 0.34414 0.97898 0.26551 0.0
H561 H 0.4144 0.8929 0.35681 0.0
H562 H 0.44692 0.85341 0.29451 0.0
H563 H 0.46195 0.84881 0.21447 0.0
H564 H 0.38936 0.93253 0.12276 0.0
H565 H 0.35055 0.96718 0.18466 0.0
C566 C 0.36592 0.95109 0.27163 0.0
C567 C 0.37729 0.93907 0.31558 0.0
C568 C 0.38418 0.92831 0.23562 0.0
C569 C 0.40517 0.90271 0.32325 0.0
C570 C 0.42397 0.88027 0.28764 0.0
C571 C 0.43687 0.87397 0.20808 0.0
C572 C 0.42858 0.88838 0.16434 0.0
C573 C 0.41467 0.89352 0.24376 0.0
C574 C 0.39604 0.92084 0.1562 0.0
C575 C 0.37414 0.94086 0.19161 0.0
H576 H 0.92175 0.73672 0.73542 0.0
H577 H 0.87386 0.69789 0.61626 0.0
H578 H 0.83523 0.66252 0.66087 0.0
H579 H 0.82687 0.63143 0.7323 0.0
H580 H 0.878 0.66728 0.85111 0.0
H581 H 0.90305 0.71537 0.80813 0.0
C582 C 0.90192 0.72157 0.71923 0.0
C583 C 0.90153 0.71887 0.67272 0.0
C584 C 0.88102 0.70001 0.74501 0.0
C585 C 0.87528 0.69962 0.65214 0.0
C586 C 0.85335 0.6792 0.67759 0.0
C587 C 0.84279 0.65032 0.74893 0.0
C588 C 0.85167 0.64492 0.79447 0.0
C589 C 0.85792 0.67726 0.72389 0.0
C590 C 0.87151 0.67026 0.81581 0.0
C591 C 0.8859 0.69777 0.79127 0.0
loop_
_geom_bond_atom_site_label_1
_geom_bond_atom_site_label_2
_geom_bond_distance
_geom_bond_site_symmetry_2
_ccdc_geom_bond_type
Co0 O3 1.989 . S
Co0 N17 1.989 . S
Co0 O25 1.967 . S
Co0 O32 1.920 . S
Co1 O4 1.966 . S
Co1 N10 2.022 . S
Co1 N18 1.993 1_565 S
Co1 O26 1.941 . S
C2 O3 1.235 1_565 S
C2 O4 1.263 . S
O3 Co0 1.989 . S
O3 C2 1.235 1_545 S
O4 Co1 1.966 . S
O4 C2 1.263 . S
C5 O6 1.235 . S
C5 O32 1.289 . S
O6 C5 1.235 . S
C7 C9 1.400 . S
C7 N10 1.351 . S
C7 C12 1.501 . S
C8 C9 1.387 . S
C8 N11 1.341 . S
C9 C7 1.400 . S
C9 C8 1.387 . S
N10 Co1 2.022 . S
N10 C7 1.351 . S
N10 N11 1.365 . S
N11 C8 1.341 . S
N11 N10 1.365 . S
N11 H31 0.862 . S
C12 C7 1.501 . S
C12 H13 0.961 . S
C12 H14 0.961 . S
C12 H15 0.960 . S
H13 C12 0.961 . S
H14 C12 0.961 . S
H15 C12 0.960 . S
C16 N17 1.342 . S
C16 C20 1.401 . S
C16 C21 1.499 . S
N17 Co0 1.989 . S
N17 C16 1.342 . S
N17 N18 1.388 . S
N18 Co1 1.993 1_545 S
N18 N17 1.388 . S
N18 C19 1.346 . S
C19 N18 1.346 . S
C19 C20 1.396 . S
C19 C29 1.510 . S
C20 C16 1.401 . S
C20 C19 1.396 . S
C21 C16 1.499 . S
C21 H22 0.959 . S
C21 H23 0.960 . S
C21 H24 0.961 . S
H22 C21 0.959 . S
H23 C21 0.960 . S
H24 C21 0.961 . S
O25 Co0 1.967 . S
O25 C33 1.254 1_545 S
O26 Co1 1.941 . S
O26 C33 1.271 . S
H27 C29 0.959 . S
H28 C29 0.961 . S
C29 C19 1.510 . S
C29 H27 0.959 . S
C29 H28 0.961 . S
C29 H30 0.960 . S
H30 C29 0.960 . S
H31 N11 0.862 . S
O32 Co0 1.920 . S
O32 C5 1.289 . S
C33 O25 1.254 1_565 S
C33 O26 1.271 . S
Co34 O37 1.970 1_655 S
Co34 N51 1.989 . S
Co34 O59 1.967 1_655 S
Co34 O66 1.920 . S
Co35 O38 1.966 . S
Co35 N44 2.022 . S
Co35 N52 1.993 . S
Co35 O60 1.941 . S
C36 O37 1.258 . S
C36 O38 1.263 . S
O37 Co34 1.970 1_455 S
O37 C36 1.258 . S
O38 Co35 1.966 . S
O38 C36 1.263 . S
C39 O40 1.235 . S
C39 O66 1.289 . S
O40 C39 1.235 . S
C41 C43 1.400 . S
C41 N44 1.351 . S
C41 C46 1.501 . S
C42 C43 1.387 . S
C42 N45 1.341 . S
C43 C41 1.400 . S
C43 C42 1.387 . S
N44 Co35 2.022 . S
N44 C41 1.351 . S
N44 N45 1.365 . S
N45 C42 1.341 . S
N45 N44 1.365 . S
N45 H65 0.862 . S
C46 C41 1.501 . S
C46 H47 0.961 . S
C46 H48 0.961 . S
C46 H49 0.960 . S
H47 C46 0.961 . S
H48 C46 0.961 . S
H49 C46 0.960 . S
C50 N51 1.342 . S
C50 C54 1.401 . S
C50 C55 1.499 . S
N51 Co34 1.989 . S
N51 C50 1.342 . S
N51 N52 1.388 1_655 S
N52 Co35 1.993 . S
N52 N51 1.388 1_455 S
N52 C53 1.346 1_455 S
C53 N52 1.346 1_655 S
C53 C54 1.396 . S
C53 C63 1.510 1_655 S
C54 C50 1.401 . S
C54 C53 1.396 . S
C55 C50 1.499 . S
C55 H56 0.959 . S
C55 H57 0.960 . S
C55 H58 0.961 . S
H56 C55 0.959 . S
H57 C55 0.960 . S
H58 C55 0.961 . S
O59 Co34 1.967 1_455 S
O59 C67 1.258 . S
O60 Co35 1.941 . S
O60 C67 1.266 . S
H61 C63 0.959 . S
H62 C63 0.961 . S
C63 C53 1.510 1_455 S
C63 H61 0.959 . S
C63 H62 0.961 . S
C63 H64 0.960 . S
H64 C63 0.960 . S
H65 N45 0.862 . S
O66 Co34 1.920 . S
O66 C39 1.289 . S
C67 O59 1.258 . S
C67 O60 1.266 . S
Co68 O71 1.970 1_565 S
Co68 N85 1.989 . S
Co68 O93 1.967 1_565 S
Co68 O100 1.920 . S
Co69 O72 1.966 . S
Co69 N78 2.022 . S
Co69 N86 1.993 . S
Co69 O94 1.941 . S
C70 O71 1.258 . S
C70 O72 1.263 . S
O71 Co68 1.970 1_545 S
O71 C70 1.258 . S
O72 Co69 1.966 . S
O72 C70 1.263 . S
C73 O74 1.235 . S
C73 O100 1.289 . S
O74 C73 1.235 . S
C75 C77 1.400 . S
C75 N78 1.351 . S
C75 C80 1.501 . S
C76 C77 1.387 . S
C76 N79 1.341 . S
C77 C75 1.400 . S
C77 C76 1.387 . S
N78 Co69 2.022 . S
N78 C75 1.351 . S
N78 N79 1.365 . S
N79 C76 1.341 . S
N79 N78 1.365 . S
N79 H99 0.862 . S
C80 C75 1.501 . S
C80 H81 0.961 . S
C80 H82 0.961 . S
C80 H83 0.960 . S
H81 C80 0.961 . S
H82 C80 0.961 . S
H83 C80 0.960 . S
C84 N85 1.342 . S
C84 C88 1.401 . S
C84 C89 1.499 . S
N85 Co68 1.989 . S
N85 C84 1.342 . S
N85 N86 1.388 1_565 S
N86 Co69 1.993 . S
N86 N85 1.388 1_545 S
N86 C87 1.346 1_545 S
C87 N86 1.346 1_565 S
C87 C88 1.396 . S
C87 C97 1.510 1_565 S
C88 C84 1.401 . S
C88 C87 1.396 . S
C89 C84 1.499 . S
C89 H90 0.959 . S
C89 H91 0.960 . S
C89 H92 0.961 . S
H90 C89 0.959 . S
H91 C89 0.960 . S
H92 C89 0.961 . S
O93 Co68 1.967 1_545 S
O93 C101 1.258 . S
O94 Co69 1.941 . S
O94 C101 1.266 . S
H95 C97 0.959 . S
H96 C97 0.961 . S
C97 C87 1.510 1_545 S
C97 H95 0.959 . S
C97 H96 0.961 . S
C97 H98 0.960 . S
H98 C97 0.960 . S
H99 N79 0.862 . S
O100 Co68 1.920 . S
O100 C73 1.289 . S
C101 O93 1.258 . S
C101 O94 1.266 . S
Co102 O105 1.989 . S
Co102 N119 1.989 . S
Co102 O127 1.967 . S
Co102 O134 1.920 . S
Co103 O106 1.966 . S
Co103 N112 2.022 . S
Co103 N120 1.993 1_655 S
Co103 O128 1.941 . S
C104 O105 1.235 1_655 S
C104 O106 1.263 . S
O105 Co102 1.989 . S
O105 C104 1.235 1_455 S
O106 Co103 1.966 . S
O106 C104 1.263 . S
C107 O108 1.235 . S
C107 O134 1.289 . S
O108 C107 1.235 . S
C109 C111 1.400 . S
C109 N112 1.351 . S
C109 C114 1.501 . S
C110 C111 1.387 . S
C110 N113 1.341 . S
C111 C109 1.400 . S
C111 C110 1.387 . S
N112 Co103 2.022 . S
N112 C109 1.351 . S
N112 N113 1.365 . S
N113 C110 1.341 . S
N113 N112 1.365 . S
N113 H133 0.862 . S
C114 C109 1.501 . S
C114 H115 0.961 . S
C114 H116 0.961 . S
C114 H117 0.960 . S
H115 C114 0.961 . S
H116 C114 0.961 . S
H117 C114 0.960 . S
C118 N119 1.342 . S
C118 C122 1.401 . S
C118 C123 1.499 . S
N119 Co102 1.989 . S
N119 C118 1.342 . S
N119 N120 1.388 . S
N120 Co103 1.993 1_455 S
N120 N119 1.388 . S
N120 C121 1.346 . S
C121 N120 1.346 . S
C121 C122 1.396 . S
C121 C131 1.510 . S
C122 C118 1.401 . S
C122 C121 1.396 . S
C123 C118 1.499 . S
C123 H124 0.959 . S
C123 H125 0.960 . S
C123 H126 0.961 . S
H124 C123 0.959 . S
H125 C123 0.960 . S
H126 C123 0.961 . S
O127 Co102 1.967 . S
O127 C135 1.254 1_455 S
O128 Co103 1.941 . S
O128 C135 1.271 . S
H129 C131 0.959 . S
H130 C131 0.961 . S
C131 C121 1.510 . S
C131 H129 0.959 . S
C131 H130 0.961 . S
C131 H132 0.960 . S
H132 C131 0.960 . S
H133 N113 0.862 . S
O134 Co102 1.920 . S
O134 C107 1.289 . S
C135 O127 1.254 1_655 S
C135 O128 1.271 . S
Co136 O139 1.970 . S
Co136 N153 1.989 . S
Co136 O161 1.967 . S
Co136 O168 1.920 . S
Co137 O140 1.966 . S
Co137 N146 2.022 . S
Co137 N154 1.993 . S
Co137 O162 1.941 . S
C138 O139 1.258 . S
C138 O140 1.263 . S
O139 Co136 1.970 . S
O139 C138 1.258 . S
O140 Co137 1.966 . S
O140 C138 1.263 . S
C141 O142 1.235 . S
C141 O168 1.289 . S
O142 C141 1.235 . S
C143 C145 1.400 1_556 S
C143 N146 1.351 . S
C143 C148 1.501 . S
C144 C145 1.387 . S
C144 N147 1.341 . S
C145 C143 1.400 1_554 S
C145 C144 1.387 . S
N146 Co137 2.022 . S
N146 C143 1.351 . S
N146 N147 1.365 1_556 S
N147 C144 1.341 . S
N147 N146 1.365 1_554 S
N147 H167 0.862 . S
C148 C143 1.501 . S
C148 H149 0.961 . S
C148 H150 0.961 . S
C148 H151 0.960 . S
H149 C148 0.961 . S
H150 C148 0.961 . S
H151 C148 0.960 . S
C152 N153 1.342 . S
C152 C156 1.401 . S
C152 C157 1.499 . S
N153 Co136 1.989 . S
N153 C152 1.342 . S
N153 N154 1.388 . S
N154 Co137 1.993 . S
N154 N153 1.388 . S
N154 C155 1.346 . S
C155 N154 1.346 . S
C155 C156 1.396 . S
C155 C165 1.510 1_556 S
C156 C152 1.401 . S
C156 C155 1.396 . S
C157 C152 1.499 . S
C157 H158 0.959 . S
C157 H159 0.960 . S
C157 H160 0.961 . S
H158 C157 0.959 . S
H159 C157 0.960 . S
H160 C157 0.961 . S
O161 Co136 1.967 . S
O161 C169 1.258 . S
O162 Co137 1.941 . S
O162 C169 1.266 . S
H163 C165 0.959 . S
H164 C165 0.961 1_556 S
C165 C155 1.510 1_554 S
C165 H163 0.959 . S
C165 H164 0.961 1_554 S
C165 H166 0.960 . S
H166 C165 0.960 . S
H167 N147 0.862 . S
O168 Co136 1.920 . S
O168 C141 1.289 . S
C169 O161 1.258 . S
C169 O162 1.266 . S
Co170 O173 1.970 . S
Co170 N187 1.989 . S
Co170 O195 1.967 . S
Co170 O202 1.920 . S
Co171 O174 1.966 . S
Co171 N180 2.022 . S
Co171 N188 1.993 . S
Co171 O196 1.941 . S
C172 O173 1.258 . S
C172 O174 1.263 . S
O173 Co170 1.970 . S
O173 C172 1.258 . S
O174 Co171 1.966 . S
O174 C172 1.263 . S
C175 O176 1.235 . S
C175 O202 1.289 . S
O176 C175 1.235 . S
C177 C179 1.400 1_554 S
C177 N180 1.351 . S
C177 C182 1.501 . S
C178 C179 1.387 . S
C178 N181 1.341 . S
C179 C177 1.400 1_556 S
C179 C178 1.387 . S
N180 Co171 2.022 . S
N180 C177 1.351 . S
N180 N181 1.365 1_554 S
N181 C178 1.341 . S
N181 N180 1.365 1_556 S
N181 H201 0.862 . S
C182 C177 1.501 . S
C182 H183 0.961 . S
C182 H184 0.961 . S
C182 H185 0.960 . S
H183 C182 0.961 . S
H184 C182 0.961 . S
H185 C182 0.960 . S
C186 N187 1.342 . S
C186 C190 1.401 . S
C186 C191 1.499 . S
N187 Co170 1.989 . S
N187 C186 1.342 . S
N187 N188 1.388 . S
N188 Co171 1.993 . S
N188 N187 1.388 . S
N188 C189 1.346 . S
C189 N188 1.346 . S
C189 C190 1.396 . S
C189 C199 1.510 1_554 S
C190 C186 1.401 . S
C190 C189 1.396 . S
C191 C186 1.499 . S
C191 H192 0.959 . S
C191 H193 0.960 . S
C191 H194 0.961 . S
H192 C191 0.959 . S
H193 C191 0.960 . S
H194 C191 0.961 . S
O195 Co170 1.967 . S
O195 C203 1.258 . S
O196 Co171 1.941 . S
O196 C203 1.266 . S
H197 C199 0.959 . S
H198 C199 0.961 1_554 S
C199 C189 1.510 1_556 S
C199 H197 0.959 . S
C199 H198 0.961 1_556 S
C199 H200 0.960 . S
H200 C199 0.960 . S
H201 N181 0.862 . S
O202 Co170 1.920 . S
O202 C175 1.289 . S
C203 O195 1.258 . S
C203 O196 1.266 . S
Co204 O207 1.970 . S
Co204 N221 1.989 . S
Co204 O229 1.967 . S
Co204 O236 1.920 . S
Co205 O208 1.966 . S
Co205 N214 2.022 . S
Co205 N222 1.993 . S
Co205 O230 1.941 . S
C206 O207 1.258 . S
C206 O208 1.263 . S
O207 Co204 1.970 . S
O207 C206 1.258 . S
O208 Co205 1.966 . S
O208 C206 1.263 . S
C209 O210 1.235 . S
C209 O236 1.289 . S
O210 C209 1.235 . S
C211 C213 1.400 1_556 S
C211 N214 1.351 . S
C211 C216 1.501 . S
C212 C213 1.387 . S
C212 N215 1.341 . S
C213 C211 1.400 1_554 S
C213 C212 1.387 . S
N214 Co205 2.022 . S
N214 C211 1.351 . S
N214 N215 1.365 1_556 S
N215 C212 1.341 . S
N215 N214 1.365 1_554 S
N215 H235 0.862 . S
C216 C211 1.501 . S
C216 H217 0.961 . S
C216 H218 0.961 . S
C216 H219 0.960 . S
H217 C216 0.961 . S
H218 C216 0.961 . S
H219 C216 0.960 . S
C220 N221 1.342 . S
C220 C224 1.401 . S
C220 C225 1.499 . S
N221 Co204 1.989 . S
N221 C220 1.342 . S
N221 N222 1.388 . S
N222 Co205 1.993 . S
N222 N221 1.388 . S
N222 C223 1.346 . S
C223 N222 1.346 . S
C223 C224 1.396 . S
C223 C233 1.510 1_556 S
C224 C220 1.401 . S
C224 C223 1.396 . S
C225 C220 1.499 . S
C225 H226 0.959 . S
C225 H227 0.960 . S
C225 H228 0.961 . S
H226 C225 0.959 . S
H227 C225 0.960 . S
H228 C225 0.961 . S
O229 Co204 1.967 . S
O229 C237 1.258 . S
O230 Co205 1.941 . S
O230 C237 1.266 . S
H231 C233 0.959 . S
H232 C233 0.961 1_556 S
C233 C223 1.510 1_554 S
C233 H231 0.959 . S
C233 H232 0.961 1_554 S
C233 H234 0.960 . S
H234 C233 0.960 . S
H235 N215 0.862 . S
O236 Co204 1.920 . S
O236 C209 1.289 . S
C237 O229 1.258 . S
C237 O230 1.266 . S
Co238 O241 1.970 . S
Co238 N255 1.989 . S
Co238 O263 1.967 . S
Co238 O270 1.920 . S
Co239 O242 1.966 . S
Co239 N248 2.022 . S
Co239 N256 1.993 . S
Co239 O264 1.941 . S
C240 O241 1.258 . S
C240 O242 1.263 . S
O241 Co238 1.970 . S
O241 C240 1.258 . S
O242 Co239 1.966 . S
O242 C240 1.263 . S
C243 O244 1.235 . S
C243 O270 1.289 . S
O244 C243 1.235 . S
C245 C247 1.400 1_554 S
C245 N248 1.351 . S
C245 C250 1.501 . S
C246 C247 1.387 . S
C246 N249 1.341 . S
C247 C245 1.400 1_556 S
C247 C246 1.387 . S
N248 Co239 2.022 . S
N248 C245 1.351 . S
N248 N249 1.365 1_554 S
N249 C246 1.341 . S
N249 N248 1.365 1_556 S
N249 H269 0.862 . S
C250 C245 1.501 . S
C250 H251 0.961 . S
C250 H252 0.961 . S
C250 H253 0.960 . S
H251 C250 0.961 . S
H252 C250 0.961 . S
H253 C250 0.960 . S
C254 N255 1.342 . S
C254 C258 1.401 . S
C254 C259 1.499 . S
N255 Co238 1.989 . S
N255 C254 1.342 . S
N255 N256 1.388 . S
N256 Co239 1.993 . S
N256 N255 1.388 . S
N256 C257 1.346 . S
C257 N256 1.346 . S
C257 C258 1.396 . S
C257 C267 1.510 1_554 S
C258 C254 1.401 . S
C258 C257 1.396 . S
C259 C254 1.499 . S
C259 H260 0.959 . S
C259 H261 0.960 . S
C259 H262 0.961 . S
H260 C259 0.959 . S
H261 C259 0.960 . S
H262 C259 0.961 . S
O263 Co238 1.967 . S
O263 C271 1.258 . S
O264 Co239 1.941 . S
O264 C271 1.266 . S
H265 C267 0.959 . S
H266 C267 0.961 1_554 S
C267 C257 1.510 1_556 S
C267 H265 0.959 . S
C267 H266 0.961 1_556 S
C267 H268 0.960 . S
H268 C267 0.960 . S
H269 N249 0.862 . S
O270 Co238 1.920 . S
O270 C243 1.289 . S
C271 O263 1.258 . S
C271 O264 1.266 . S
H272 C278 0.930 1_565 S
H273 C281 0.930 . S
H274 C282 0.930 . S
H275 C283 0.930 . S
H276 C286 0.930 . S
H277 C287 0.930 . S
C278 H272 0.930 1_545 S
C278 C279 1.355 . S
C278 C280 1.415 . S
C279 C278 1.355 . S
C279 C281 1.419 . S
C280 C278 1.415 . S
C280 C285 1.425 . S
C280 C287 1.409 1_545 S
C281 H273 0.930 . S
C281 C279 1.419 . S
C281 C282 1.362 . S
C282 H274 0.930 . S
C282 C281 1.362 . S
C282 C285 1.409 . S
C283 H275 0.930 . S
C283 C284 1.355 1_545 S
C283 C285 1.415 . S
C284 C283 1.355 1_565 S
C284 C286 1.419 . S
C285 C280 1.425 . S
C285 C282 1.409 . S
C285 C283 1.415 . S
C286 H276 0.930 . S
C286 C284 1.419 . S
C286 C287 1.362 . S
C287 H277 0.930 . S
C287 C280 1.409 1_565 S
C287 C286 1.362 . S
H288 C294 0.930 . S
H289 C297 0.930 . S
H290 C298 0.930 . S
H291 C299 0.930 . S
H292 C302 0.930 . S
H293 C303 0.930 . S
C294 H288 0.930 . S
C294 C295 1.355 . S
C294 C296 1.415 . S
C295 C294 1.355 . S
C295 C297 1.419 1_455 S
C296 C294 1.415 . S
C296 C301 1.405 1_455 S
C296 C303 1.409 . S
C297 H289 0.930 . S
C297 C295 1.419 1_655 S
C297 C298 1.362 . S
C298 H290 0.930 . S
C298 C297 1.362 . S
C298 C301 1.416 . S
C299 H291 0.930 . S
C299 C300 1.355 1_655 S
C299 C301 1.427 . S
C300 C299 1.355 1_455 S
C300 C302 1.419 . S
C301 C296 1.405 1_655 S
C301 C298 1.416 . S
C301 C299 1.427 . S
C302 H292 0.930 . S
C302 C300 1.419 . S
C302 C303 1.362 . S
C303 H293 0.930 . S
C303 C296 1.409 . S
C303 C302 1.362 . S
H304 C310 0.930 . S
H305 C313 0.930 . S
H306 C314 0.930 . S
H307 C315 0.930 . S
H308 C318 0.930 . S
H309 C319 0.930 . S
C310 H304 0.930 . S
C310 C311 1.355 1_554 S
C310 C312 1.415 1_655 S
C311 C310 1.355 1_556 S
C311 C313 1.419 . S
C312 C310 1.415 1_455 S
C312 C317 1.425 1_554 S
C312 C319 1.409 . S
C313 H305 0.930 . S
C313 C311 1.419 . S
C313 C314 1.362 1_655 S
C314 H306 0.930 . S
C314 C313 1.362 1_455 S
C314 C317 1.409 . S
C315 H307 0.930 . S
C315 C316 1.355 . S
C315 C317 1.415 . S
C316 C315 1.355 . S
C316 C318 1.419 1_556 S
C317 C312 1.425 1_556 S
C317 C314 1.409 . S
C317 C315 1.415 . S
C318 H308 0.930 . S
C318 C316 1.419 1_554 S
C318 C319 1.362 . S
C319 H309 0.930 . S
C319 C312 1.409 . S
C319 C318 1.362 . S
H320 C326 0.930 . S
H321 C329 0.930 . S
H322 C330 0.930 . S
H323 C331 0.930 . S
H324 C334 0.930 . S
H325 C335 0.930 . S
C326 H320 0.930 . S
C326 C327 1.355 1_556 S
C326 C328 1.415 1_566 S
C327 C326 1.355 1_554 S
C327 C329 1.419 . S
C328 C326 1.415 1_544 S
C328 C333 1.425 . S
C328 C335 1.409 1_554 S
C329 H321 0.930 . S
C329 C327 1.419 . S
C329 C330 1.362 1_565 S
C330 H322 0.930 . S
C330 C329 1.362 1_545 S
C330 C333 1.409 . S
C331 H323 0.930 . S
C331 C332 1.355 . S
C331 C333 1.415 . S
C332 C331 1.355 . S
C332 C334 1.419 1_554 S
C333 C328 1.425 . S
C333 C330 1.409 . S
C333 C331 1.415 . S
C334 H324 0.930 . S
C334 C332 1.419 1_556 S
C334 C335 1.362 . S
C335 H325 0.930 . S
C335 C328 1.409 1_556 S
C335 C334 1.362 . S
H336 C342 0.930 . S
H337 C345 0.930 . S
H338 C346 0.930 . S
H339 C347 0.930 . S
H340 C350 0.930 . S
H341 C351 0.930 . S
C342 H336 0.930 . S
C342 C343 1.355 . S
C342 C344 1.415 . S
C343 C342 1.355 . S
C343 C345 1.419 . S
C344 C342 1.415 . S
C344 C349 1.425 . S
C344 C351 1.409 . S
C345 H337 0.930 . S
C345 C343 1.419 . S
C345 C346 1.362 . S
C346 H338 0.930 . S
C346 C345 1.362 . S
C346 C349 1.409 . S
C347 H339 0.930 . S
C347 C348 1.355 . S
C347 C349 1.415 . S
C348 C347 1.355 . S
C348 C350 1.419 . S
C349 C344 1.425 . S
C349 C346 1.409 . S
C349 C347 1.415 . S
C350 H340 0.930 . S
C350 C348 1.419 . S
C350 C351 1.362 . S
C351 H341 0.930 . S
C351 C344 1.409 . S
C351 C350 1.362 . S
H352 C358 0.930 . S
H353 C361 0.930 . S
H354 C362 0.930 . S
H355 C363 0.930 . S
H356 C366 0.930 . S
H357 C367 0.930 . S
C358 H352 0.930 . S
C358 C359 1.355 . S
C358 C360 1.415 . S
C359 C358 1.355 . S
C359 C361 1.419 . S
C360 C358 1.415 . S
C360 C365 1.425 . S
C360 C367 1.409 . S
C361 H353 0.930 . S
C361 C359 1.419 . S
C361 C362 1.362 . S
C362 H354 0.930 . S
C362 C361 1.362 . S
C362 C365 1.409 . S
C363 H355 0.930 . S
C363 C364 1.355 . S
C363 C365 1.415 . S
C364 C363 1.355 . S
C364 C366 1.419 . S
C365 C360 1.425 . S
C365 C362 1.409 . S
C365 C363 1.415 . S
C366 H356 0.930 . S
C366 C364 1.419 . S
C366 C367 1.362 . S
C367 H357 0.930 . S
C367 C360 1.409 . S
C367 C366 1.362 . S
H368 C374 0.930 . S
H369 C377 0.930 . S
H370 C378 0.930 . S
H371 C379 0.930 . S
H372 C382 0.930 . S
H373 C383 0.930 . S
C374 H368 0.930 . S
C374 C375 1.355 . S
C374 C376 1.415 . S
C375 C374 1.355 . S
C375 C377 1.419 . S
C376 C374 1.415 . S
C376 C381 1.425 . S
C376 C383 1.409 . S
C377 H369 0.930 . S
C377 C375 1.419 . S
C377 C378 1.362 . S
C378 H370 0.930 . S
C378 C377 1.362 . S
C378 C381 1.409 . S
C379 H371 0.930 . S
C379 C380 1.355 . S
C379 C381 1.415 . S
C380 C379 1.355 . S
C380 C382 1.419 . S
C381 C376 1.425 . S
C381 C378 1.409 . S
C381 C379 1.415 . S
C382 H372 0.930 . S
C382 C380 1.419 . S
C382 C383 1.362 . S
C383 H373 0.930 . S
C383 C376 1.409 . S
C383 C382 1.362 . S
H384 C390 0.930 . S
H385 C393 0.930 . S
H386 C394 0.930 . S
H387 C395 0.930 . S
H388 C398 0.930 . S
H389 C399 0.930 . S
C390 H384 0.930 . S
C390 C391 1.355 . S
C390 C392 1.415 . S
C391 C390 1.355 . S
C391 C393 1.419 . S
C392 C390 1.415 . S
C392 C397 1.425 . S
C392 C399 1.409 . S
C393 H385 0.930 . S
C393 C391 1.419 . S
C393 C394 1.362 . S
C394 H386 0.930 . S
C394 C393 1.362 . S
C394 C397 1.409 . S
C395 H387 0.930 . S
C395 C396 1.355 . S
C395 C397 1.415 . S
C396 C395 1.355 . S
C396 C398 1.419 . S
C397 C392 1.425 . S
C397 C394 1.409 . S
C397 C395 1.415 . S
C398 H388 0.930 . S
C398 C396 1.419 . S
C398 C399 1.362 . S
C399 H389 0.930 . S
C399 C392 1.409 . S
C399 C398 1.362 . S
H400 C406 0.930 . S
H401 C409 0.930 . S
H402 C410 0.930 . S
H403 C411 0.930 . S
H404 C414 0.930 . S
H405 C415 0.930 . S
C406 H400 0.930 . S
C406 C407 1.355 . S
C406 C408 1.412 1_554 S
C407 C406 1.355 . S
C407 C409 1.419 . S
C408 C406 1.412 1_556 S
C408 C413 1.425 1_556 S
C408 C415 1.412 . S
C409 H401 0.930 . S
C409 C407 1.419 . S
C409 C410 1.362 . S
C410 H402 0.930 . S
C410 C409 1.362 . S
C410 C413 1.412 . S
C411 H403 0.930 . S
C411 C412 1.355 . S
C411 C413 1.412 1_556 S
C412 C411 1.355 . S
C412 C414 1.419 . S
C413 C408 1.425 1_554 S
C413 C410 1.412 . S
C413 C411 1.412 1_554 S
C414 H404 0.930 . S
C414 C412 1.419 . S
C414 C415 1.362 . S
C415 H405 0.930 . S
C415 C408 1.412 . S
C415 C414 1.362 . S
H416 C422 0.930 . S
H417 C425 0.930 . S
H418 C426 0.930 . S
H419 C427 0.930 . S
H420 C430 0.930 . S
H421 C431 0.930 . S
C422 H416 0.930 . S
C422 C423 1.355 1_556 S
C422 C424 1.415 . S
C423 C422 1.355 1_554 S
C423 C425 1.419 . S
C424 C422 1.415 . S
C424 C429 1.425 1_556 S
C424 C431 1.409 . S
C425 H417 0.930 . S
C425 C423 1.419 . S
C425 C426 1.362 . S
C426 H418 0.930 . S
C426 C425 1.362 . S
C426 C429 1.409 . S
C427 H419 0.930 . S
C427 C428 1.355 1_554 S
C427 C429 1.415 . S
C428 C427 1.355 1_556 S
C428 C430 1.419 . S
C429 C424 1.425 1_554 S
C429 C426 1.409 . S
C429 C427 1.415 . S
C430 H420 0.930 . S
C430 C428 1.419 . S
C430 C431 1.362 . S
C431 H421 0.930 . S
C431 C424 1.409 . S
C431 C430 1.362 . S
H432 C438 0.930 . S
H433 C441 0.930 . S
H434 C442 0.930 . S
H435 C443 0.930 . S
H436 C446 0.930 . S
H437 C447 0.930 . S
C438 H432 0.930 . S
C438 C439 1.355 . S
C438 C440 1.415 . S
C439 C438 1.355 . S
C439 C441 1.419 1_554 S
C440 C438 1.415 . S
C440 C445 1.425 1_554 S
C440 C447 1.409 . S
C441 H433 0.930 . S
C441 C439 1.419 1_556 S
C441 C442 1.362 . S
C442 H434 0.930 . S
C442 C441 1.362 . S
C442 C445 1.409 . S
C443 H435 0.930 . S
C443 C444 1.355 . S
C443 C445 1.415 . S
C444 C443 1.355 . S
C444 C446 1.419 1_556 S
C445 C440 1.425 1_556 S
C445 C442 1.409 . S
C445 C443 1.415 . S
C446 H436 0.930 . S
C446 C444 1.419 1_554 S
C446 C447 1.362 . S
C447 H437 0.930 . S
C447 C440 1.409 . S
C447 C446 1.362 . S
H448 C454 0.930 . S
H449 C457 0.930 . S
H450 C458 0.930 . S
H451 C459 0.930 . S
H452 C462 0.930 . S
H453 C463 0.930 . S
C454 H448 0.930 . S
C454 C455 1.355 . S
C454 C456 1.415 . S
C455 C454 1.355 . S
C455 C457 1.419 1_554 S
C456 C454 1.415 . S
C456 C461 1.425 1_554 S
C456 C463 1.409 . S
C457 H449 0.930 . S
C457 C455 1.419 1_556 S
C457 C458 1.362 . S
C458 H450 0.930 . S
C458 C457 1.362 . S
C458 C461 1.409 . S
C459 H451 0.930 . S
C459 C460 1.355 . S
C459 C461 1.415 . S
C460 C459 1.355 . S
C460 C462 1.419 1_556 S
C461 C456 1.425 1_556 S
C461 C458 1.409 . S
C461 C459 1.415 . S
C462 H452 0.930 . S
C462 C460 1.419 1_554 S
C462 C463 1.362 . S
C463 H453 0.930 . S
C463 C456 1.409 . S
C463 C462 1.362 . S
H464 C470 0.930 . S
H465 C473 0.930 . S
H466 C474 0.930 . S
H467 C475 0.930 . S
H468 C478 0.930 . S
H469 C479 0.930 . S
C470 H464 0.930 . S
C470 C471 1.355 . S
C470 C472 1.415 . S
C471 C470 1.355 . S
C471 C473 1.419 . S
C472 C470 1.415 . S
C472 C477 1.425 . S
C472 C479 1.409 . S
C473 H465 0.930 . S
C473 C471 1.419 . S
C473 C474 1.362 . S
C474 H466 0.930 . S
C474 C473 1.362 . S
C474 C477 1.409 . S
C475 H467 0.930 . S
C475 C476 1.355 . S
C475 C477 1.415 . S
C476 C475 1.355 . S
C476 C478 1.419 . S
C477 C472 1.425 . S
C477 C474 1.409 . S
C477 C475 1.415 . S
C478 H468 0.930 . S
C478 C476 1.419 . S
C478 C479 1.362 . S
C479 H469 0.930 . S
C479 C472 1.409 . S
C479 C478 1.362 . S
H480 C486 0.930 . S
H481 C489 0.930 . S
H482 C490 0.930 . S
H483 C491 0.930 . S
H484 C494 0.930 . S
H485 C495 0.930 . S
C486 H480 0.930 . S
C486 C487 1.355 . S
C486 C488 1.415 . S
C487 C486 1.355 . S
C487 C489 1.419 . S
C488 C486 1.415 . S
C488 C493 1.425 . S
C488 C495 1.409 . S
C489 H481 0.930 . S
C489 C487 1.419 . S
C489 C490 1.362 . S
C490 H482 0.930 . S
C490 C489 1.362 . S
C490 C493 1.409 . S
C491 H483 0.930 . S
C491 C492 1.355 . S
C491 C493 1.415 . S
C492 C491 1.355 . S
C492 C494 1.419 . S
C493 C488 1.425 . S
C493 C490 1.409 . S
C493 C491 1.415 . S
C494 H484 0.930 . S
C494 C492 1.419 . S
C494 C495 1.362 . S
C495 H485 0.930 . S
C495 C488 1.409 . S
C495 C494 1.362 . S
H496 C502 0.930 . S
H497 C505 0.930 . S
H498 C506 0.930 . S
H499 C507 0.930 . S
H500 C510 0.930 . S
H501 C511 0.930 . S
C502 H496 0.930 . S
C502 C503 1.355 . S
C502 C504 1.415 . S
C503 C502 1.355 . S
C503 C505 1.419 . S
C504 C502 1.415 . S
C504 C509 1.425 . S
C504 C511 1.409 . S
C505 H497 0.930 . S
C505 C503 1.419 . S
C505 C506 1.362 . S
C506 H498 0.930 . S
C506 C505 1.362 . S
C506 C509 1.409 . S
C507 H499 0.930 . S
C507 C508 1.355 . S
C507 C509 1.415 . S
C508 C507 1.355 . S
C508 C510 1.419 . S
C509 C504 1.425 . S
C509 C506 1.409 . S
C509 C507 1.415 . S
C510 H500 0.930 . S
C510 C508 1.419 . S
C510 C511 1.362 . S
C511 H501 0.930 . S
C511 C504 1.409 . S
C511 C510 1.362 . S
H512 C518 0.930 . S
H513 C521 0.930 . S
H514 C522 0.930 . S
H515 C523 0.930 . S
H516 C526 0.930 . S
H517 C527 0.930 . S
C518 H512 0.930 . S
C518 C519 1.355 . S
C518 C520 1.415 . S
C519 C518 1.355 . S
C519 C521 1.419 . S
C520 C518 1.415 . S
C520 C525 1.425 . S
C520 C527 1.409 . S
C521 H513 0.930 . S
C521 C519 1.419 . S
C521 C522 1.362 . S
C522 H514 0.930 . S
C522 C521 1.362 . S
C522 C525 1.409 . S
C523 H515 0.930 . S
C523 C524 1.355 . S
C523 C525 1.415 . S
C524 C523 1.355 . S
C524 C526 1.419 . S
C525 C520 1.425 . S
C525 C522 1.409 . S
C525 C523 1.415 . S
C526 H516 0.930 . S
C526 C524 1.419 . S
C526 C527 1.362 . S
C527 H517 0.930 . S
C527 C520 1.409 . S
C527 C526 1.362 . S
H528 C534 0.930 . S
H529 C537 0.930 . S
H530 C538 0.930 . S
H531 C539 0.930 . S
H532 C542 0.930 . S
H533 C543 0.930 . S
C534 H528 0.930 . S
C534 C535 1.355 . S
C534 C536 1.415 . S
C535 C534 1.355 . S
C535 C537 1.419 . S
C536 C534 1.415 . S
C536 C541 1.425 . S
C536 C543 1.409 . S
C537 H529 0.930 . S
C537 C535 1.419 . S
C537 C538 1.362 . S
C538 H530 0.930 . S
C538 C537 1.362 . S
C538 C541 1.409 . S
C539 H531 0.930 . S
C539 C540 1.355 . S
C539 C541 1.415 . S
C540 C539 1.355 . S
C540 C542 1.419 . S
C541 C536 1.425 . S
C541 C538 1.409 . S
C541 C539 1.415 . S
C542 H532 0.930 . S
C542 C540 1.419 . S
C542 C543 1.362 . S
C543 H533 0.930 . S
C543 C536 1.409 . S
C543 C542 1.362 . S
H544 C550 0.930 . S
H545 C553 0.930 . S
H546 C554 0.930 . S
H547 C555 0.930 . S
H548 C558 0.930 . S
H549 C559 0.930 . S
C550 H544 0.930 . S
C550 C551 1.355 . S
C550 C552 1.415 . S
C551 C550 1.355 . S
C551 C553 1.419 . S
C552 C550 1.415 . S
C552 C557 1.425 . S
C552 C559 1.409 . S
C553 H545 0.930 . S
C553 C551 1.419 . S
C553 C554 1.362 . S
C554 H546 0.930 . S
C554 C553 1.362 . S
C554 C557 1.409 . S
C555 H547 0.930 . S
C555 C556 1.355 . S
C555 C557 1.415 . S
C556 C555 1.355 . S
C556 C558 1.419 . S
C557 C552 1.425 . S
C557 C554 1.409 . S
C557 C555 1.415 . S
C558 H548 0.930 . S
C558 C556 1.419 . S
C558 C559 1.362 . S
C559 H549 0.930 . S
C559 C552 1.409 . S
C559 C558 1.362 . S
H560 C566 0.930 . S
H561 C569 0.930 . S
H562 C570 0.930 . S
H563 C571 0.930 . S
H564 C574 0.930 . S
H565 C575 0.930 . S
C566 H560 0.930 . S
C566 C567 1.355 . S
C566 C568 1.415 . S
C567 C566 1.355 . S
C567 C569 1.419 . S
C568 C566 1.415 . S
C568 C573 1.425 . S
C568 C575 1.409 . S
C569 H561 0.930 . S
C569 C567 1.419 . S
C569 C570 1.362 . S
C570 H562 0.930 . S
C570 C569 1.362 . S
C570 C573 1.409 . S
C571 H563 0.930 . S
C571 C572 1.355 . S
C571 C573 1.415 . S
C572 C571 1.355 . S
C572 C574 1.419 . S
C573 C568 1.425 . S
C573 C570 1.409 . S
C573 C571 1.415 . S
C574 H564 0.930 . S
C574 C572 1.419 . S
C574 C575 1.362 . S
C575 H565 0.930 . S
C575 C568 1.409 . S
C575 C574 1.362 . S
H576 C582 0.930 . S
H577 C585 0.930 . S
H578 C586 0.930 . S
H579 C587 0.930 . S
H580 C590 0.930 . S
H581 C591 0.930 . S
C582 H576 0.930 . S
C582 C583 1.355 . S
C582 C584 1.415 . S
C583 C582 1.355 . S
C583 C585 1.419 . S
C584 C582 1.415 . S
C584 C589 1.425 . S
C584 C591 1.409 . S
C585 H577 0.930 . S
C585 C583 1.419 . S
C585 C586 1.362 . S
C586 H578 0.930 . S
C586 C585 1.362 . S
C586 C589 1.409 . S
C587 H579 0.930 . S
C587 C588 1.355 . S
C587 C589 1.415 . S
C588 C587 1.355 . S
C588 C590 1.419 . S
C589 C584 1.425 . S
C589 C586 1.409 . S
C589 C587 1.415 . S
C590 H580 0.930 . S
C590 C588 1.419 . S
C590 C591 1.362 . S
C591 H581 0.930 . S
C591 C584 1.409 . S
C591 C590 1.362 . S
C279 C101 1.228 . S
C284 C33 1.229 . S
C295 C67 1.197 . S
C300 C135 1.160 1_455 S
C311 C169 1.168 . S
C316 C237 1.246 . S
C327 C271 1.184 . S
C332 C203 1.250 . S
C343 C122 1.549 . S
C348 C20 1.544 . S
C359 C9 1.814 . S
C364 C43 1.809 . S
C375 C88 1.557 . S
C380 C54 1.553 . S
C391 C77 1.808 . S
C396 C111 1.810 . S
C407 C258 1.539 . S
C412 C156 1.543 . S
C423 C145 1.816 . S
C428 C179 1.815 . S
C439 C190 1.560 . S
C444 C224 1.560 . S
C455 C213 1.809 . S
C460 C247 1.814 . S
C471 C5 0.739 . S
C476 C175 0.739 . S
C487 C36 1.393 . S
C492 C206 1.416 . S
C503 C73 0.535 . S
C508 C243 0.530 . S
C519 C104 1.448 . S
C524 C138 1.408 . S
C535 C70 1.403 . S
C540 C172 1.448 . S
C551 C107 0.738 . S
C556 C209 0.715 . S
C567 C2 1.447 . S
C572 C240 1.415 . S
C583 C39 0.742 . S
C588 C141 0.730 . S
